
#######################################################################
#
#                 Cambridge Crystallographic Data Centre
#                                CCDC 
#
#######################################################################
#
# If this CIF has been generated from an entry in the Cambridge 
# Structural Database, then it will include bibliographic, chemical, 
# crystal, experimental, refinement or atomic coordinate data resulting 
# from the CCDC's data processing and validation procedures.
#
#######################################################################

data_CABVUZ
_chemical_formula_moiety         'C42 H42 N28 O14,C14 H15 N3 O3 S1,28.5(H2 O1)'
_chemical_name_systematic        
'4-(2-(4-(Dimethylamino)phenyl)diazeniumyl)benzenesulfonate cucurbit[7]uril hydrate'
_symmetry_cell_setting           monoclinic
_symmetry_space_group_name_H-M   'P 21/c'
_symmetry_Int_Tables_number      14
_space_group_name_Hall           '-P 2ybc'
loop_
_symmetry_equiv_pos_site_id
_symmetry_equiv_pos_as_xyz
1 x,y,z
2 -x,1/2+y,1/2-z
3 -x,-y,-z
4 x,1/2-y,1/2+z
_cell_length_a                   13.423(3)
_cell_length_b                   48.142(10)
_cell_length_c                   13.730(3)
_cell_angle_alpha                90
_cell_angle_beta                 95.242(2)
_cell_angle_gamma                90
_cell_volume                     8835.36
_exptl_crystal_colour            'dark red'
_exptl_crystal_description       block
_cell_formula_units_Z            4
loop_
_atom_site_label
_atom_site_type_symbol
_atom_site_fract_x
_atom_site_fract_y
_atom_site_fract_z
C1 C 0.3130(5) 0.15011(16) 0.4774(4)
H1 H 0.3475 0.1575 0.5397
C2 C 0.3746(5) 0.12678(18) 0.4324(5)
H2 H 0.4367 0.1222 0.4752
C3 C 0.2182(5) 0.10972(16) 0.4649(4)
C4 C 0.3596(5) 0.1637(2) 0.3265(5)
C5 C 0.3339(6) 0.07575(18) 0.4028(5)
H3 H 0.4018 0.0724 0.4352
H4 H 0.2877 0.0626 0.4312
C6 C 0.1419(5) 0.14869(16) 0.5439(5)
H5 H 0.1015 0.1338 0.5704
H6 H 0.1729 0.1596 0.5999
C7 C 0.4653(5) 0.1262(2) 0.2782(6)
H7 H 0.5232 0.1184 0.3193
H8 H 0.4905 0.1412 0.2377
C8 C 0.2717(6) 0.19910(18) 0.4181(6)
H9 H 0.2930 0.2045 0.4864
H10 H 0.3048 0.2118 0.3743
C9 C 0.4163(5) 0.0763(2) 0.2434(5)
H11 H 0.4815 0.0694 0.2757
C10 C 0.3872(6) 0.06088(19) 0.1470(5)
H12 H 0.4387 0.0467 0.1341
C11 C 0.2656(6) 0.05310(15) 0.2529(5)
C12 C 0.4059(5) 0.1079(2) 0.1158(5)
C13 C 0.2457(7) 0.02656(16) 0.0991(5)
H13 H 0.2967 0.0132 0.0802
H14 H 0.1984 0.0163 0.1371
C14 C 0.3816(5) 0.07747(18) -0.0299(5)
H15 H 0.4264 0.0616 -0.0401
H16 H 0.4085 0.0940 -0.0616
C15 C 0.2377(6) 0.04399(15) -0.0766(5)
H17 H 0.2857 0.0292 -0.0931
C16 C 0.1473(6) 0.04621(13) -0.1548(5)
H18 H 0.1515 0.0322 -0.2082
C17 C 0.0919(6) 0.03519(13) -0.0043(5)
C18 C 0.2367(6) 0.08797(15) -0.1477(5)
C19 C -0.0353(6) 0.03404(13) -0.1469(5)
H19 H -0.0267 0.0230 -0.2065
H20 H -0.0699 0.0221 -0.1019
C20 C 0.0941(5) 0.08472(14) -0.2747(5)
H21 H 0.1278 0.1010 -0.3014
H22 H 0.0889 0.0701 -0.3257
C21 C -0.0882(5) 0.07371(12) -0.2611(5)
H23 H -0.0899 0.0617 -0.3207
C22 C -0.1810(6) 0.09339(12) -0.2632(5)
H24 H -0.2275 0.0904 -0.3235
C23 C -0.1826(6) 0.06355(13) -0.1297(5)
C24 C -0.0347(6) 0.12027(13) -0.2602(4)
C25 C -0.3263(6) 0.09499(15) -0.1585(6)
H25 H -0.3674 0.0964 -0.2220
H26 H -0.3573 0.0807 -0.1191
C26 C -0.1937(7) 0.14588(14) -0.2772(5)
H27 H -0.2501 0.1425 -0.3274
H28 H -0.1506 0.1604 -0.3025
C27 C -0.3275(5) 0.14776(14) -0.1572(5)
H29 H -0.3818 0.1492 -0.2119
C28 C -0.3440(5) 0.16872(14) -0.0737(5)
H30 H -0.4067 0.1797 -0.0884
C29 C -0.3464(5) 0.12364(16) -0.0122(6)
C30 C -0.1951(5) 0.17944(13) -0.1406(5)
C31 C -0.3787(5) 0.16113(16) 0.1016(5)
H31 H -0.4012 0.1451 0.1393
H32 H -0.4366 0.1738 0.0887
C32 C -0.2550(6) 0.21338(13) -0.0265(5)
H33 H -0.2104 0.2255 -0.0612
H34 H -0.3231 0.2215 -0.0349
C33 C -0.2823(5) 0.20538(13) 0.1521(5)
H35 H -0.3462 0.2162 0.1475
C34 C -0.2158(5) 0.21241(13) 0.2461(5)
H36 H -0.2457 0.2277 0.2833
C35 C -0.2643(5) 0.16601(14) 0.2512(5)
C36 C -0.1296(6) 0.22323(14) 0.1126(6)
C37 C -0.1772(5) 0.18467(15) 0.4040(5)
H37 H -0.2068 0.1680 0.4323
H38 H -0.1998 0.2012 0.4388
C38 C -0.0456(6) 0.23590(16) 0.2693(7)
H39 H -0.0769 0.2491 0.3126
H40 H -0.0055 0.2468 0.2257
C39 C -0.0038(6) 0.20696(14) 0.4234(6)
H41 H -0.0310 0.2222 0.4629
C40 C 0.0963(5) 0.19590(15) 0.4718(6)
H42 H 0.1155 0.2051 0.5360
C41 C -0.0231(5) 0.16034(13) 0.4617(4)
C42 C 0.1208(6) 0.21550(15) 0.3205(7)
N1 N 0.3044(4) 0.10358(13) 0.4243(4)
N2 N 0.2198(4) 0.13630(12) 0.4931(4)
N3 N 0.3968(5) 0.13781(17) 0.3405(4)
N4 N 0.3037(4) 0.17085(15) 0.4019(4)
N5 N 0.2949(5) 0.04814(13) 0.1611(4)
N6 N 0.3346(4) 0.06981(14) 0.3004(4)
N7 N 0.3823(4) 0.08264(14) 0.0730(4)
N8 N 0.4225(4) 0.10452(17) 0.2144(4)
N9 N 0.0628(5) 0.04121(11) -0.1004(4)
N10 N 0.1919(5) 0.03762(12) 0.0117(4)
N11 N 0.1562(5) 0.07434(11) -0.1904(4)
N12 N 0.2824(5) 0.07136(12) -0.0766(4)
N13 N -0.2276(4) 0.08590(11) -0.1762(4)
N14 N -0.0979(5) 0.05769(10) -0.1737(4)
N15 N -0.1372(5) 0.12086(11) -0.2619(4)
N16 N -0.0053(4) 0.09281(10) -0.2548(4)
N17 N -0.3498(4) 0.15117(11) 0.0099(4)
N18 N -0.3294(4) 0.12115(11) -0.1088(4)
N19 N -0.2572(4) 0.18597(10) -0.0707(4)
N20 N -0.2331(4) 0.15606(11) -0.1879(4)
N21 N -0.2125(4) 0.18668(11) 0.3005(4)
N22 N -0.3001(4) 0.17580(11) 0.1619(4)
N23 N -0.1229(5) 0.22104(12) 0.2109(5)
N24 N -0.2209(4) 0.21302(11) 0.0764(4)
N25 N 0.0769(4) 0.16655(11) 0.4833(4)
N26 N -0.0680(4) 0.18283(11) 0.4186(4)
N27 N 0.1660(5) 0.20217(13) 0.4006(5)
N28 N 0.0213(5) 0.21688(12) 0.3298(5)
O1 O 0.1499(4) 0.09304(11) 0.4741(4)
O2 O 0.3702(4) 0.17921(14) 0.2554(4)
O3 O 0.1907(4) 0.04352(11) 0.2856(4)
O4 O 0.4117(3) 0.12993(13) 0.0709(4)
O5 O 0.0340(5) 0.02868(9) 0.0571(3)
O6 O 0.2632(4) 0.11112(10) -0.1708(4)
O7 O -0.2130(4) 0.05096(9) -0.0620(3)
O8 O 0.0210(4) 0.13995(9) -0.2632(3)
O9 O -0.3568(4) 0.10434(10) 0.0441(4)
O10 O -0.1214(4) 0.19241(10) -0.1583(4)
O11 O -0.2786(4) 0.14261(10) 0.2834(4)
O12 O -0.0668(4) 0.23272(11) 0.0634(5)
O13 O -0.0630(3) 0.13819(9) 0.4778(3)
O14 O 0.1636(5) 0.22439(12) 0.2525(5)
C43 C 0.3592(4) 0.21277(13) 0.0264(4)
C44 C 0.3511(4) 0.21880(13) -0.0725(5)
H43 H 0.3038 0.2092 -0.1160
C45 C 0.4118(5) 0.23869(13) -0.1074(4)
H44 H 0.4068 0.2430 -0.1752
C46 C 0.4811(4) 0.25265(12) -0.0426(4)
C47 C 0.4877(4) 0.24665(13) 0.0548(4)
H45 H 0.5342 0.2564 0.0985
C48 C 0.4270(4) 0.22635(13) 0.0909(5)
H46 H 0.4323 0.2220 0.1587
C49 C 0.1709(5) 0.16142(14) 0.0528(5)
C50 C 0.1573(5) 0.16040(19) 0.1520(5)
H47 H 0.1958 0.1722 0.1961
C51 C 0.0889(6) 0.14243(19) 0.1875(5)
H48 H 0.0809 0.1421 0.2555
C52 C 0.0299(5) 0.12431(14) 0.1229(5)
C53 C 0.0453(7) 0.12548(17) 0.0214(6)
H49 H 0.0081 0.1136 -0.0237
C54 C 0.1133(6) 0.14357(18) -0.0114(5)
H50 H 0.1219 0.1441 -0.0793
C55 C -0.1027(6) 0.09042(16) 0.0918(6)
H51 H -0.1393 0.1023 0.0428
H52 H -0.1503 0.0806 0.1294
H53 H -0.0627 0.0769 0.0589
C56 C -0.0486(7) 0.1052(2) 0.2608(6)
H54 H 0.0167 0.1017 0.2966
H55 H -0.0940 0.0898 0.2717
H56 H -0.0763 0.1225 0.2840
N29 N 0.2976(4) 0.19293(11) 0.0658(4)
H57 H 0.3020 0.1904 0.1295
N30 N 0.2346(4) 0.17838(11) 0.0105(4)
N31 N -0.0369(4) 0.10748(12) 0.1576(4)
O15 O 0.5615(3) 0.27333(10) -0.1913(3)
O16 O 0.6579(3) 0.27340(9) -0.0336(3)
O17 O 0.5190(3) 0.30495(9) -0.0652(4)
S1 S 0.56126(11) 0.27820(3) -0.08693(12)
O18 O 0.5000 0.0000 1.0000
O19 O 0.0195(6) 0.02218(12) 0.6057(4)
O20 O 0.4258(4) 0.15105(14) 0.8803(5)
O21 O 0.8202(6) 0.01884(13) 0.1180(5)
O22 O 0.6097(7) 0.21738(13) 0.7643(4)
O23 O 0.8821(7) 0.08571(13) 0.5099(5)
O24 O 0.7666(7) 0.28043(16) 0.1492(5)
O25 O 0.1745(6) 0.99570(14) 0.3963(5)
O26 O 0.9719(6) 0.02915(16) 0.2541(5)
O27 O 0.9593(7) 0.2021(2) 0.6396(6)
O28 O 0.5687(7) 0.3385(2) 0.0872(7)
O29 O 0.6868(8) 0.03792(19) 0.6778(7)
O30 O 0.0847(8) 0.2291(2) 0.9402(10)
O31 O 0.1875(11) 0.2523(3) 0.0938(11)
O32 O 0.6396(8) 0.0484(3) 0.1103(12)
O33 O 0.4359(13) 0.1879(3) 0.7114(11)
O34 O 0.0988(8) 0.1983(2) 0.7918(12)
O35 O 0.2253(8) 0.00028(19) 0.5987(7)
O36 O 0.7235(11) 0.0944(3) 0.3890(12)
O37 O 0.3634(10) 0.0974(3) 0.6476(7)
O38 O 0.3393(8) 0.0426(3) 0.7042(9)
O39 O 0.2791(12) 0.2920(3) 0.1701(12)
O40 O 0.5554(13) 0.3895(4) 0.1180(13)
O41 O 0.2345(11) 0.1669(3) 0.7702(11)
O42 O 0.5288(13) 0.0208(4) 0.7777(12)
O43 O 0.6706(14) 0.0446(4) 0.3147(13)
O44 O 0.5934(15) 0.4307(4) 0.0189(15)
O45 O 0.6631(19) 0.0851(6) 0.2329(19)
O46 O 0.0167(5) 0.05046(13) 0.4354(4)
loop_
_geom_bond_atom_site_label_1
_geom_bond_atom_site_label_2
_geom_bond_site_symmetry_1
_geom_bond_site_symmetry_2
C1 H1 1_555 1_555
C2 C1 1_555 1_555
H2 C2 1_555 1_555
C3 N1 1_555 1_555
C4 N3 1_555 1_555
C5 H3 1_555 1_555
H4 C5 1_555 1_555
C6 H5 1_555 1_555
H6 C6 1_555 1_555
C7 H7 1_555 1_555
H8 C7 1_555 1_555
C8 H9 1_555 1_555
H10 C8 1_555 1_555
C9 H11 1_555 1_555
C10 C9 1_555 1_555
H12 C10 1_555 1_555
C11 N5 1_555 1_555
C12 N7 1_555 1_555
C13 H13 1_555 1_555
H14 C13 1_555 1_555
C14 H15 1_555 1_555
H16 C14 1_555 1_555
C15 H17 1_555 1_555
C16 C15 1_555 1_555
H18 C16 1_555 1_555
C17 N9 1_555 1_555
C18 N11 1_555 1_555
C19 H19 1_555 1_555
H20 C19 1_555 1_555
C20 H21 1_555 1_555
H22 C20 1_555 1_555
C21 H23 1_555 1_555
C22 C21 1_555 1_555
H24 C22 1_555 1_555
C23 N13 1_555 1_555
C24 N15 1_555 1_555
C25 H25 1_555 1_555
H26 C25 1_555 1_555
C26 H27 1_555 1_555
H28 C26 1_555 1_555
C27 H29 1_555 1_555
C28 C27 1_555 1_555
H30 C28 1_555 1_555
C29 N17 1_555 1_555
C30 N19 1_555 1_555
C31 H31 1_555 1_555
H32 C31 1_555 1_555
C32 H33 1_555 1_555
H34 C32 1_555 1_555
C33 H35 1_555 1_555
C34 C33 1_555 1_555
H36 C34 1_555 1_555
C35 N21 1_555 1_555
C36 N23 1_555 1_555
C37 H37 1_555 1_555
H38 C37 1_555 1_555
C38 H39 1_555 1_555
H40 C38 1_555 1_555
C39 H41 1_555 1_555
C40 C39 1_555 1_555
H42 C40 1_555 1_555
C41 N25 1_555 1_555
C42 N27 1_555 1_555
N1 C2 1_555 1_555
N2 C1 1_555 1_555
N3 C2 1_555 1_555
N4 C1 1_555 1_555
N5 C10 1_555 1_555
N6 C5 1_555 1_555
N7 C10 1_555 1_555
N8 C7 1_555 1_555
N9 C16 1_555 1_555
N10 C13 1_555 1_555
N11 C16 1_555 1_555
N12 C14 1_555 1_555
N13 C22 1_555 1_555
N14 C19 1_555 1_555
N15 C22 1_555 1_555
N16 C20 1_555 1_555
N17 C28 1_555 1_555
N18 C25 1_555 1_555
N19 C28 1_555 1_555
N20 C26 1_555 1_555
N21 C34 1_555 1_555
N22 C31 1_555 1_555
N23 C34 1_555 1_555
N24 C32 1_555 1_555
N25 C6 1_555 1_555
N26 C37 1_555 1_555
N27 C8 1_555 1_555
N28 C38 1_555 1_555
O1 C3 1_555 1_555
O2 C4 1_555 1_555
O3 C11 1_555 1_555
O4 C12 1_555 1_555
O5 C17 1_555 1_555
O6 C18 1_555 1_555
O7 C23 1_555 1_555
O8 C24 1_555 1_555
O9 C29 1_555 1_555
O10 C30 1_555 1_555
O11 C35 1_555 1_555
O12 C36 1_555 1_555
O13 C41 1_555 1_555
O14 C42 1_555 1_555
C43 C44 1_555 1_555
C44 H43 1_555 1_555
C45 C44 1_555 1_555
H44 C45 1_555 1_555
C46 C45 1_555 1_555
C47 C46 1_555 1_555
H45 C47 1_555 1_555
C48 C43 1_555 1_555
H46 C48 1_555 1_555
C49 C50 1_555 1_555
C50 H47 1_555 1_555
C51 C50 1_555 1_555
H48 C51 1_555 1_555
C52 C51 1_555 1_555
C53 C52 1_555 1_555
H49 C53 1_555 1_555
C54 C49 1_555 1_555
H50 C54 1_555 1_555
C55 H51 1_555 1_555
H52 C55 1_555 1_555
H53 C55 1_555 1_555
C56 H54 1_555 1_555
H55 C56 1_555 1_555
H56 C56 1_555 1_555
N29 C43 1_555 1_555
H57 N29 1_555 1_555
N30 C49 1_555 1_555
N31 C52 1_555 1_555
O15 S1 1_555 1_555
O16 S1 1_555 1_555
O17 S1 1_555 1_555
S1 C46 1_555 1_555
C3 N2 1_555 1_555
C4 N4 1_555 1_555
C5 N1 1_555 1_555
C6 N2 1_555 1_555
C7 N3 1_555 1_555
C8 N4 1_555 1_555
C9 N6 1_555 1_555
C9 N8 1_555 1_555
C11 N6 1_555 1_555
C12 N8 1_555 1_555
C13 N5 1_555 1_555
C14 N7 1_555 1_555
C15 N10 1_555 1_555
C15 N12 1_555 1_555
C17 N10 1_555 1_555
C18 N12 1_555 1_555
C19 N9 1_555 1_555
C20 N11 1_555 1_555
C21 N14 1_555 1_555
C21 N16 1_555 1_555
C23 N14 1_555 1_555
C24 N16 1_555 1_555
C25 N13 1_555 1_555
C26 N15 1_555 1_555
C27 N18 1_555 1_555
C27 N20 1_555 1_555
C29 N18 1_555 1_555
C30 N20 1_555 1_555
C31 N17 1_555 1_555
C32 N19 1_555 1_555
C33 N22 1_555 1_555
C33 N24 1_555 1_555
C35 N22 1_555 1_555
C36 N24 1_555 1_555
C37 N21 1_555 1_555
C38 N23 1_555 1_555
C39 N26 1_555 1_555
C39 N28 1_555 1_555
C40 N25 1_555 1_555
C40 N27 1_555 1_555
C41 N26 1_555 1_555
C42 N28 1_555 1_555
C47 C48 1_555 1_555
C53 C54 1_555 1_555
C55 N31 1_555 1_555
C56 N31 1_555 1_555
N29 N30 1_555 1_555

#END
