
#######################################################################
#
#                 Cambridge Crystallographic Data Centre
#                                CCDC 
#
#######################################################################
#
# If this CIF has been generated from an entry in the Cambridge 
# Structural Database, then it will include bibliographic, chemical, 
# crystal, experimental, refinement or atomic coordinate data resulting 
# from the CCDC's data processing and validation procedures.
#
#######################################################################

data_CABWUY
_chemical_formula_moiety         'C21 H19 N3 O4'
_chemical_name_systematic        
N,N'-bis(2-Methoxyphenyl)pyridine-2,6-dicarboxamide
_symmetry_cell_setting           orthorhombic
_symmetry_space_group_name_H-M   'P 21 21 21'
_symmetry_Int_Tables_number      19
_space_group_name_Hall           'P 2ac 2ab'
loop_
_symmetry_equiv_pos_site_id
_symmetry_equiv_pos_as_xyz
1 x,y,z
2 1/2-x,-y,1/2+z
3 -x,1/2+y,1/2-z
4 1/2+x,1/2-y,-z
_cell_length_a                   4.7919(9)
_cell_length_b                   15.775(3)
_cell_length_c                   25.228(5)
_cell_angle_alpha                90
_cell_angle_beta                 90
_cell_angle_gamma                90
_cell_volume                     1907.04
_exptl_crystal_colour            colorless
_exptl_crystal_description       plate
_cell_formula_units_Z            4
_exptl_crystal_recrystallization_method DMF/water
loop_
_atom_site_label
_atom_site_type_symbol
_atom_site_fract_x
_atom_site_fract_y
_atom_site_fract_z
O1 O 0.3689(8) 0.20900(18) 0.25572(11)
O2 O 1.0181(7) -0.02251(16) 0.23433(10)
O3 O 1.1365(7) 0.10741(15) 0.48373(10)
O4 O 1.0396(6) -0.11966(15) 0.36016(9)
N1 N 0.7888(6) 0.13141(16) 0.36080(11)
N2 N 0.6785(7) 0.10072(17) 0.25762(10)
H1 H 0.7890 0.0741 0.2787
N3 N 1.1108(7) 0.01954(17) 0.41213(10)
H2 H 1.0491 0.0171 0.3801
C1 C 1.2034(10) -0.0912(2) 0.22548(16)
H3 H 1.3066 -0.1025 0.2573
H4 H 1.3304 -0.0769 0.1974
H5 H 1.0985 -0.1406 0.2157
C2 C 0.8516(9) 0.0033(3) 0.19318(16)
C3 C 0.8550(10) -0.0318(2) 0.14311(18)
H6 H 0.9765 -0.0758 0.1350
C4 C 0.6727(12) 0.0001(3) 0.10503(18)
H7 H 0.6746 -0.0231 0.0711
C5 C 0.4911(11) 0.0645(3) 0.11623(16)
H8 H 0.3690 0.0846 0.0905
C6 C 0.4926(10) 0.0994(2) 0.16694(15)
H9 H 0.3711 0.1435 0.1750
C7 C 0.6699(9) 0.0697(2) 0.20503(14)
C8 C 0.5389(10) 0.1658(2) 0.27928(15)
C9 C 0.6133(9) 0.1839(2) 0.33589(14)
C10 C 0.5008(9) 0.2547(2) 0.35993(15)
H10 H 0.3745 0.2890 0.3419
C11 C 0.5789(10) 0.2738(2) 0.41112(15)
H11 H 0.5092 0.3219 0.4278
C12 C 0.7589(10) 0.2216(2) 0.43699(14)
H12 H 0.8129 0.2331 0.4717
C13 C 0.8609(9) 0.1505(2) 0.41071(14)
C14 C 1.0511(9) 0.0906(2) 0.43950(15)
C15 C 1.2627(8) -0.0510(2) 0.43016(13)
C16 C 1.4442(9) -0.0510(2) 0.47177(14)
H13 H 1.4746 -0.0013 0.4907
C17 C 1.5841(9) -0.1246(3) 0.48614(15)
H14 H 1.7064 -0.1243 0.5148
C18 C 1.5413(9) -0.1976(2) 0.45809(15)
H15 H 1.6358 -0.2468 0.4676
C19 C 1.3606(9) -0.1988(2) 0.41614(14)
H16 H 1.3315 -0.2488 0.3975
C20 C 1.2214(8) -0.1260(2) 0.40137(13)
C21 C 0.9571(11) -0.1966(2) 0.33382(14)
H17 H 0.8291 -0.1834 0.3057
H18 H 0.8680 -0.2337 0.3588
H19 H 1.1189 -0.2240 0.3194
loop_
_geom_bond_atom_site_label_1
_geom_bond_atom_site_label_2
_geom_bond_site_symmetry_1
_geom_bond_site_symmetry_2
O1 C8 1_555 1_555
O2 C1 1_555 1_555
O3 C14 1_555 1_555
O4 C20 1_555 1_555
N1 C9 1_555 1_555
N2 H1 1_555 1_555
N3 H2 1_555 1_555
C1 H3 1_555 1_555
H4 C1 1_555 1_555
H5 C1 1_555 1_555
C2 O2 1_555 1_555
C3 C2 1_555 1_555
H6 C3 1_555 1_555
C4 C3 1_555 1_555
H7 C4 1_555 1_555
C5 C4 1_555 1_555
H8 C5 1_555 1_555
C6 C5 1_555 1_555
H9 C6 1_555 1_555
C7 N2 1_555 1_555
C8 N2 1_555 1_555
C9 C8 1_555 1_555
C10 C9 1_555 1_555
H10 C10 1_555 1_555
C11 C10 1_555 1_555
H11 C11 1_555 1_555
C12 C11 1_555 1_555
H12 C12 1_555 1_555
C13 N1 1_555 1_555
C14 N3 1_555 1_555
C15 N3 1_555 1_555
C16 C15 1_555 1_555
H13 C16 1_555 1_555
C17 C16 1_555 1_555
H14 C17 1_555 1_555
C18 C17 1_555 1_555
H15 C18 1_555 1_555
C19 C18 1_555 1_555
H16 C19 1_555 1_555
C20 C15 1_555 1_555
C21 O4 1_555 1_555
H17 C21 1_555 1_555
H18 C21 1_555 1_555
H19 C21 1_555 1_555
C2 C7 1_555 1_555
C6 C7 1_555 1_555
C12 C13 1_555 1_555
C13 C14 1_555 1_555
C19 C20 1_555 1_555

#END
