
#######################################################################
#
#                 Cambridge Crystallographic Data Centre
#                                CCDC 
#
#######################################################################
#
# If this CIF has been generated from an entry in the Cambridge 
# Structural Database, then it will include bibliographic, chemical, 
# crystal, experimental, refinement or atomic coordinate data resulting 
# from the CCDC's data processing and validation procedures.
#
#######################################################################

data_CABWEK
_chemical_compound_source        'roots of Eupatorium chinense'
_chemical_formula_moiety         'C26 H24 O7'
_chemical_name_systematic        
1-(2-(8-acetyl-4,7-dihydroxy-1,4-dimethyl-1,2,3,4-tetrahydrodibenzo[b,d]furan-1-yl)-6-hydroxy-1-benzofuran-5-yl)ethanone
_chemical_properties_biological  'antiviral activity'
_symmetry_cell_setting           triclinic
_symmetry_space_group_name_H-M   'P -1'
_symmetry_Int_Tables_number      2
_space_group_name_Hall           '-P 1'
loop_
_symmetry_equiv_pos_site_id
_symmetry_equiv_pos_as_xyz
1 x,y,z
2 -x,-y,-z
_cell_length_a                   7.8552(8)
_cell_length_b                   11.5079(13)
_cell_length_c                   12.9010(16)
_cell_angle_alpha                98.985(4)
_cell_angle_beta                 106.841(3)
_cell_angle_gamma                90.947(3)
_cell_volume                     1100.14
_exptl_crystal_colour            colorless
_exptl_crystal_description       block
_cell_formula_units_Z            2
loop_
_atom_site_label
_atom_site_type_symbol
_atom_site_fract_x
_atom_site_fract_y
_atom_site_fract_z
O1 O 0.3500(3) 0.8717(2) 0.9561(2)
O2 O 0.3123(4) 0.8068(3) 1.1702(2)
H1 H 0.4227 0.8128 1.2012
O3 O -0.0037(4) 1.1467(3) 0.5685(3)
O4 O 0.3085(4) 1.1335(3) 0.6982(2)
H2 H 0.2296 1.1672 0.6564
C1 C 0.2184(5) 0.8051(3) 0.9772(3)
C2 C 0.0551(5) 0.8147(3) 0.9095(3)
C3 C -0.0312(5) 0.9447(3) 0.7517(3)
H3 H -0.1558 0.9242 0.7261
C4 C 0.0438(5) 1.0241(3) 0.7032(3)
C5 C 0.2297(5) 1.0556(3) 0.7424(3)
C6 C 0.3415(5) 1.0045(3) 0.8254(3)
H4 H 0.4669 1.0214 0.8488
C7 C 0.2612(5) 0.9281(3) 0.8719(3)
C8 C 0.0778(5) 0.8954(3) 0.8381(3)
C9 C 0.2742(5) 0.7307(4) 1.0657(3)
C10 C 0.4361(5) 0.6633(4) 1.0565(4)
H5 H 0.5369 0.7193 1.0659
H6 H 0.4080 0.6134 0.9841
H7 H 0.4674 0.6138 1.1137
C11 C 0.1120(5) 0.6468(4) 1.0515(3)
H8 H 0.1037 0.5817 0.9898
H9 H 0.1292 0.6120 1.1190
C12 C -0.0702(5) 1.0779(4) 0.6124(4)
C13 C -0.2678(6) 1.0473(4) 0.5732(4)
H10 H -0.3234 1.0898 0.5131
H11 H -0.3184 1.0699 0.6339
H12 H -0.2904 0.9622 0.5470
O5 O -0.3417(3) 0.5995(2) 0.8114(2)
O6 O -0.7021(4) 0.3011(3) 0.5312(2)
H13 H -0.6989 0.2593 0.4724
O7 O -0.5681(4) 0.2184(3) 0.3782(3)
C14 C -0.1729(5) 0.6525(3) 0.8240(3)
C15 C -0.1042(5) 0.6024(4) 0.7451(3)
H14 H 0.0087 0.6226 0.7373
C16 C -0.2508(6) 0.4332(4) 0.5787(3)
H15 H -0.1547 0.4273 0.5477
C17 C -0.4063(5) 0.3628(4) 0.5280(3)
C18 C -0.5468(6) 0.3670(4) 0.5774(3)
C19 C -0.5327(5) 0.4443(4) 0.6754(3)
H16 H -0.6250 0.4482 0.7096
C20 C -0.3764(5) 0.5140(4) 0.7189(3)
C21 C -0.2345(5) 0.5120(4) 0.6741(3)
C22 C -0.1095(5) 0.7534(3) 0.9173(3)
C23 C -0.2598(5) 0.8405(4) 0.9129(4)
H17 H -0.2902 0.8694 0.8426
H18 H -0.2185 0.9072 0.9733
H19 H -0.3655 0.7998 0.9199
C24 C -0.0607(5) 0.7079(4) 1.0290(3)
H20 H -0.0504 0.7753 1.0889
H21 H -0.1581 0.6522 1.0290
C25 C -0.4281(6) 0.2822(4) 0.4228(3)
C26 C -0.2830(7) 0.2790(5) 0.3692(4)
H22 H -0.3182 0.2212 0.3011
H23 H -0.1734 0.2565 0.4190
H24 H -0.2623 0.3571 0.3522
loop_
_geom_bond_atom_site_label_1
_geom_bond_atom_site_label_2
_geom_bond_site_symmetry_1
_geom_bond_site_symmetry_2
O1 C1 1_555 1_555
O2 H1 1_555 1_555
O3 C12 1_555 1_555
O4 H2 1_555 1_555
C1 C2 1_555 1_555
C2 C8 1_555 1_555
C3 H3 1_555 1_555
C4 C3 1_555 1_555
C5 O4 1_555 1_555
C6 C5 1_555 1_555
H4 C6 1_555 1_555
C7 O1 1_555 1_555
C8 C3 1_555 1_555
C9 O2 1_555 1_555
C10 C9 1_555 1_555
H5 C10 1_555 1_555
H6 C10 1_555 1_555
H7 C10 1_555 1_555
C11 C9 1_555 1_555
H8 C11 1_555 1_555
H9 C11 1_555 1_555
C12 C4 1_555 1_555
C13 C12 1_555 1_555
H10 C13 1_555 1_555
H11 C13 1_555 1_555
H12 C13 1_555 1_555
O5 C14 1_555 1_555
O6 H13 1_555 1_555
O7 C25 1_555 1_555
C14 C15 1_555 1_555
C15 H14 1_555 1_555
C16 H15 1_555 1_555
C17 C16 1_555 1_555
C18 O6 1_555 1_555
C19 C18 1_555 1_555
H16 C19 1_555 1_555
C20 O5 1_555 1_555
C21 C15 1_555 1_555
C22 C2 1_555 1_555
C23 C22 1_555 1_555
H17 C23 1_555 1_555
H18 C23 1_555 1_555
H19 C23 1_555 1_555
C24 C11 1_555 1_555
H20 C24 1_555 1_555
H21 C24 1_555 1_555
C25 C17 1_555 1_555
C26 C25 1_555 1_555
H22 C26 1_555 1_555
H23 C26 1_555 1_555
H24 C26 1_555 1_555
C1 C9 1_555 1_555
C4 C5 1_555 1_555
C6 C7 1_555 1_555
C7 C8 1_555 1_555
C14 C22 1_555 1_555
C16 C21 1_555 1_555
C17 C18 1_555 1_555
C19 C20 1_555 1_555
C20 C21 1_555 1_555
C22 C24 1_555 1_555

#END
