
#######################################################################
#
#                 Cambridge Crystallographic Data Centre
#                                CCDC 
#
#######################################################################
#
# If this CIF has been generated from an entry in the Cambridge 
# Structural Database, then it will include bibliographic, chemical, 
# crystal, experimental, refinement or atomic coordinate data resulting 
# from the CCDC's data processing and validation procedures.
#
#######################################################################

data_CABXEL01
_chemical_compound_source        'aerial parts of Isodon phyllostachys'
_chemical_name_common            
'7,18-Dihydroxy-7,19,19-trimethyl-11,15,17-trioxahexacyclo[12.4.1.1$6,9!.0$2,12!.0$2,16!.0$3,9!]icosane-8,10-dione monohydrate'
_chemical_formula_moiety         'C20 H26 O7,H2 O1'
_chemical_name_systematic        'Phyllostacin J monohydrate'
_symmetry_cell_setting           monoclinic
_symmetry_space_group_name_H-M   'P 21'
_symmetry_Int_Tables_number      4
_space_group_name_Hall           'P 2yb'
loop_
_symmetry_equiv_pos_site_id
_symmetry_equiv_pos_as_xyz
1 x,y,z
2 -x,1/2+y,-z
_cell_length_a                   7.43150(10)
_cell_length_b                   9.3881(2)
_cell_length_c                   13.1958(3)
_cell_angle_alpha                90
_cell_angle_beta                 91.3240(10)
_cell_angle_gamma                90
_cell_volume                     920.394
_exptl_crystal_colour            colorless
_exptl_crystal_description       prism
_cell_formula_units_Z            2
loop_
_atom_site_label
_atom_site_type_symbol
_atom_site_fract_x
_atom_site_fract_y
_atom_site_fract_z
O1 O 0.5711(2) 0.24258(17) 0.04225(11)
H1 H 0.4903 0.2163 0.0022
H2 H 0.6204 0.1624 0.0606
O2 O -0.04319(17) 1.04640(14) 0.14470(9)
O3 O -0.3544(2) 0.53285(16) 0.07762(11)
H3 H -0.3789 0.4465 0.0679
O4 O -0.36347(16) 0.73383(17) 0.25252(10)
O5 O -0.30227(19) 0.96073(16) 0.09242(11)
O6 O -0.00145(17) 1.13710(15) 0.37004(10)
O7 O -0.01368(17) 0.91455(15) 0.44773(9)
O8 O 0.16819(17) 0.71046(16) 0.44881(10)
H4 H 0.1252 0.6750 0.5014
C1 C 0.1790(2) 1.1824(2) 0.34304(14)
H5 H 0.1991 1.2826 0.3664
C2 C 0.1876(3) 1.1769(2) 0.22799(14)
H6 H 0.3110 1.1987 0.2060
H7 H 0.1040 1.2476 0.1972
C3 C 0.1339(2) 1.0266(2) 0.19525(13)
H8 H 0.2227 0.9865 0.1471
C4 C -0.1555(2) 0.9381(2) 0.13070(13)
C5 C -0.0931(2) 0.79042(19) 0.15865(13)
C6 C -0.2463(2) 0.6971(2) 0.19701(13)
C7 C -0.2169(2) 0.5449(2) 0.15573(14)
C8 C -0.2409(3) 0.4327(2) 0.23642(15)
H9 H -0.3655 0.4341 0.2591
H10 H -0.1591 0.4524 0.2940
H11 H -0.2136 0.3386 0.2084
C9 C -0.0372(2) 0.7087(2) 0.06249(13)
H12 H -0.1278 0.7190 0.0067
H13 H 0.0819 0.7400 0.0388
C10 C -0.0312(2) 0.55568(19) 0.10434(13)
H14 H -0.0252 0.4860 0.0472
C11 C 0.1388(2) 0.5414(2) 0.17411(15)
H15 H 0.1096 0.4811 0.2330
H16 H 0.2345 0.4927 0.1363
C12 C 0.2104(2) 0.6853(2) 0.21252(14)
H17 H 0.2960 0.6698 0.2701
H18 H 0.2755 0.7339 0.1578
C13 C 0.0547(2) 0.77836(18) 0.24651(13)
H19 H -0.0026 0.7278 0.3042
C14 C 0.1102(2) 0.92717(19) 0.28553(12)
C15 C -0.0324(2) 0.9891(2) 0.35504(13)
H20 H -0.1554 0.9733 0.3248
C16 C 0.1674(2) 0.8581(2) 0.45643(14)
H21 H 0.2248 0.8882 0.5223
C17 C 0.2651(2) 0.9269(2) 0.36838(13)
H22 H 0.3702 0.8685 0.3471
C18 C 0.3211(2) 1.0849(2) 0.39344(14)
C19 C 0.5086(3) 1.1127(2) 0.35070(16)
H23 H 0.5328 1.2154 0.3510
H24 H 0.5127 1.0767 0.2811
H25 H 0.5998 1.0639 0.3928
C20 C 0.3328(3) 1.1225(2) 0.50656(15)
H26 H 0.3724 1.2215 0.5146
H27 H 0.4194 1.0591 0.5410
H28 H 0.2142 1.1109 0.5364
loop_
_geom_bond_atom_site_label_1
_geom_bond_atom_site_label_2
_geom_bond_site_symmetry_1
_geom_bond_site_symmetry_2
O1 H1 1_555 1_555
H2 O1 1_555 1_555
O2 C3 1_555 1_555
O3 H3 1_555 1_555
O4 C6 1_555 1_555
O5 C4 1_555 1_555
O6 C1 1_555 1_555
O7 C15 1_555 1_555
O8 H4 1_555 1_555
C1 H5 1_555 1_555
C2 C1 1_555 1_555
H6 C2 1_555 1_555
H7 C2 1_555 1_555
C3 C2 1_555 1_555
H8 C3 1_555 1_555
C4 O2 1_555 1_555
C5 C4 1_555 1_555
C6 C5 1_555 1_555
C7 O3 1_555 1_555
C8 C7 1_555 1_555
H9 C8 1_555 1_555
H10 C8 1_555 1_555
H11 C8 1_555 1_555
C9 C5 1_555 1_555
H12 C9 1_555 1_555
H13 C9 1_555 1_555
C10 C7 1_555 1_555
H14 C10 1_555 1_555
C11 C10 1_555 1_555
H15 C11 1_555 1_555
H16 C11 1_555 1_555
C12 C11 1_555 1_555
H17 C12 1_555 1_555
H18 C12 1_555 1_555
C13 C5 1_555 1_555
H19 C13 1_555 1_555
C14 C3 1_555 1_555
C15 O6 1_555 1_555
H20 C15 1_555 1_555
C16 O7 1_555 1_555
H21 C16 1_555 1_555
C17 C14 1_555 1_555
H22 C17 1_555 1_555
C18 C1 1_555 1_555
C19 C18 1_555 1_555
H23 C19 1_555 1_555
H24 C19 1_555 1_555
H25 C19 1_555 1_555
C20 C18 1_555 1_555
H26 C20 1_555 1_555
H27 C20 1_555 1_555
H28 C20 1_555 1_555
O8 C16 1_555 1_555
C6 C7 1_555 1_555
C9 C10 1_555 1_555
C12 C13 1_555 1_555
C13 C14 1_555 1_555
C14 C15 1_555 1_555
C16 C17 1_555 1_555
C17 C18 1_555 1_555

#END
