
#######################################################################
#
#                 Cambridge Crystallographic Data Centre
#                                CCDC 
#
#######################################################################
#
# If this CIF has been generated from an entry in the Cambridge 
# Structural Database, then it will include bibliographic, chemical, 
# crystal, experimental, refinement or atomic coordinate data resulting 
# from the CCDC's data processing and validation procedures.
#
#######################################################################

data_CACBEO
_chemical_name_common            
'6,9,12,19-Tetra-azatricyclo(7.7.5.1$3,15!)docosa-1,3(22),15-triene-5,13,18-trione monohydrate'
_chemical_formula_moiety         'C18 H24 N4 O3,H2 O1'
_chemical_name_systematic        
'2,10,19-Trioxo-3,6,9,20-tetra-aza-(5^6,14^)(11)metacyclophane monohydrate'
_symmetry_cell_setting           monoclinic
_symmetry_space_group_name_H-M   'P 21/n'
_symmetry_Int_Tables_number      14
_space_group_name_Hall           '-P 2yn'
loop_
_symmetry_equiv_pos_site_id
_symmetry_equiv_pos_as_xyz
1 x,y,z
2 1/2+x,1/2-y,1/2+z
3 -x,-y,-z
4 1/2-x,1/2+y,1/2-z
_cell_length_a                   9.3436(8)
_cell_length_b                   13.4554(12)
_cell_length_c                   14.2888(12)
_cell_angle_alpha                90
_cell_angle_beta                 94.748(2)
_cell_angle_gamma                90
_cell_volume                     1790.25
_exptl_crystal_colour            colorless
_exptl_crystal_description       plate
_cell_formula_units_Z            4
_exptl_crystal_recrystallization_method methanol
loop_
_atom_site_label
_atom_site_type_symbol
_atom_site_fract_x
_atom_site_fract_y
_atom_site_fract_z
O1 O 0.30412(14) 1.00794(9) -0.07705(8)
O2 O 0.55060(12) 0.71597(10) 0.38548(7)
O3 O 0.10149(13) 0.51426(10) 0.14048(9)
N1 N 0.11802(11) 0.81686(9) 0.17809(8)
N2 N 0.28539(15) 0.91248(11) 0.04910(9)
N3 N 0.37479(13) 0.73510(11) 0.27019(9)
N4 N 0.05146(14) 0.64347(10) 0.04433(9)
C1 C 0.1412(3) 0.9259(2) 0.1779(2)
C2 C 0.1199(3) 0.7762(3) 0.26965(19)
C3 C -0.0214(3) 0.7968(2) 0.1207(2)
C4 C 0.17556(18) 0.96932(13) 0.09021(13)
C5 C 0.26724(17) 0.77481(13) 0.32671(10)
C6 C -0.05292(15) 0.68939(13) 0.09992(11)
C7 C 0.33745(16) 0.93241(12) -0.03227(10)
C8 C 0.50883(16) 0.71157(11) 0.30184(10)
C9 C 0.12280(15) 0.56057(11) 0.06912(10)
C10 C 0.44457(17) 0.85959(12) -0.06695(10)
C11 C 0.61011(15) 0.67943(13) 0.22977(10)
C12 C 0.23802(16) 0.52953(12) 0.00620(10)
C13 C 0.45930(15) 0.76359(11) -0.01214(9)
C14 C 0.54648(15) 0.75839(12) 0.07174(10)
C15 C 0.54160(13) 0.67648(11) 0.13075(10)
C16 C 0.45057(15) 0.59806(12) 0.10344(10)
C17 C 0.36057(14) 0.60276(11) 0.02132(9)
C18 C 0.36816(15) 0.68439(11) -0.03682(10)
H1 H 0.05500 0.95780 0.19680
H2 H 0.21850 0.94150 0.22520
H3 H 0.3493(19) 0.7325(14) 0.2103(13)
H4 H -0.09910 0.82390 0.15380
H5 H -0.02050 0.83220 0.06160
H6 H 0.0706(19) 0.6719(14) -0.0053(14)
H7 H 0.3033(19) 0.8557(15) 0.0727(13)
H8 H 0.08430 0.70850 0.26450
H9 H 0.05360 0.81380 0.30460
H10 H 0.26190 0.73420 0.38240
H11 H -0.05500 0.65350 0.15870
H12 H -0.14730 0.68400 0.06660
H13 H 0.41620 0.84400 -0.13210
H14 H 0.53780 0.89160 -0.06470
H15 H 0.69100 0.72480 0.23240
H16 H 0.64710 0.61380 0.24640
H17 H 0.27120 0.46290 0.02210
H18 H 0.19990 0.53010 -0.05900
H19 H 0.6043(17) 0.8165(12) 0.0905(11)
H20 H 0.4443(15) 0.5404(12) 0.1449(10)
H21 H 0.3049(16) 0.6893(11) -0.0925(11)
H22 H 0.20870 1.03700 0.10100
H23 H 0.08990 0.97140 0.04700
H24 H 0.29350 0.84180 0.34650
O4 O 0.3533(2) 1.05659(15) -0.26470(12)
H37 H 0.346(3) 1.040(2) -0.208(2)
H38 H 0.447(5) 1.038(4) -0.274(3)
C19? C 0.0615(4) 0.9004(3) 0.1263(3)
C20? C 0.1752(3) 0.8470(3) 0.2763(2)
C21? C 0.0087(3) 0.7392(3) 0.1899(2)
H25? H 0.13050 1.01430 0.04360
H26? H 0.21890 1.00880 0.14180
H27? H 0.31440 0.80600 0.38220
H28? H 0.20880 0.72070 0.34720
H29? H -0.12080 0.63900 0.11610
H30? H -0.10580 0.73870 0.06150
H31? H 0.00260 0.93870 0.16590
H32? H -0.00020 0.87680 0.07300
H33? H 0.22840 0.90850 0.27230
H34? H 0.09420 0.86040 0.31270
H35? H -0.06970 0.76890 0.22050
H36? H 0.05130 0.68840 0.23150
loop_
_geom_bond_atom_site_label_1
_geom_bond_atom_site_label_2
_geom_bond_site_symmetry_1
_geom_bond_site_symmetry_2
O1 C7 1_555 1_555
O2 C8 1_555 1_555
O3 C9 1_555 1_555
N1 C1 1_555 1_555
N2 C4 1_555 1_555
N3 C5 1_555 1_555
N4 C6 1_555 1_555
C1 C4 1_555 1_555
C2 N1 1_555 1_555
C3 N1 1_555 1_555
C4 H22 1_555 1_555
C5 C2 1_555 1_555
C6 C3 1_555 1_555
C7 N2 1_555 1_555
C8 N3 1_555 1_555
C9 N4 1_555 1_555
C10 C7 1_555 1_555
C11 C8 1_555 1_555
C12 C9 1_555 1_555
C13 C10 1_555 1_555
C14 C13 1_555 1_555
C15 C11 1_555 1_555
C16 C15 1_555 1_555
C17 C12 1_555 1_555
C18 C13 1_555 1_555
O4 H37 1_555 1_555
H1 C1 1_555 1_555
H2 C1 1_555 1_555
H3 N3 1_555 1_555
H4 C3 1_555 1_555
H5 C3 1_555 1_555
H6 N4 1_555 1_555
H7 N2 1_555 1_555
H8 C2 1_555 1_555
H9 C2 1_555 1_555
H10 C5 1_555 1_555
H11 C6 1_555 1_555
H12 C6 1_555 1_555
H13 C10 1_555 1_555
H14 C10 1_555 1_555
H15 C11 1_555 1_555
H16 C11 1_555 1_555
H17 C12 1_555 1_555
H18 C12 1_555 1_555
H19 C14 1_555 1_555
H20 C16 1_555 1_555
H21 C18 1_555 1_555
H23 C4 1_555 1_555
H24 C5 1_555 1_555
H38 O4 1_555 1_555
C14 C15 1_555 1_555
C16 C17 1_555 1_555
C17 C18 1_555 1_555

#END
