
#######################################################################
#
#                 Cambridge Crystallographic Data Centre
#                                CCDC 
#
#######################################################################
#
# If this CIF has been generated from an entry in the Cambridge 
# Structural Database, then it will include bibliographic, chemical, 
# crystal, experimental, refinement or atomic coordinate data resulting 
# from the CCDC's data processing and validation procedures.
#
#######################################################################

data_CACGUL
_chemical_formula_moiety         'C47 H31 N3 O2,C1 H2 Cl2'
_chemical_name_systematic        
"N,N'-bis(pentacyclo[6.6.6.0^2,7^.0^9,14^.0^15,20^]icosa-2,4,6,9,11,13,15,17,19-nonaen-1-yl)pyridine-2,6-dicarboxamide dichloromethane solvate"
_symmetry_cell_setting           orthorhombic
_symmetry_space_group_name_H-M   'P 21 21 21'
_symmetry_Int_Tables_number      19
_space_group_name_Hall           'P 2ac 2ab'
loop_
_symmetry_equiv_pos_site_id
_symmetry_equiv_pos_as_xyz
1 x,y,z
2 1/2-x,-y,1/2+z
3 -x,1/2+y,1/2-z
4 1/2+x,1/2-y,-z
_cell_length_a                   8.7530(18)
_cell_length_b                   14.773(3)
_cell_length_c                   28.489(6)
_cell_angle_alpha                90
_cell_angle_beta                 90
_cell_angle_gamma                90
_cell_volume                     3683.86
_exptl_crystal_colour            colorless
_exptl_crystal_description       rod
_cell_formula_units_Z            4
loop_
_atom_site_label
_atom_site_type_symbol
_atom_site_fract_x
_atom_site_fract_y
_atom_site_fract_z
Cl1 Cl 0.91840(19) 0.25468(13) 0.40727(7)
Cl2 Cl 0.7442(3) 0.40281(14) 0.36576(7)
C1 C 0.7439(8) 0.2890(4) 0.3835(3)
H1 H 0.6641 0.2802 0.4067
H2 H 0.7202 0.2512 0.3566
O1 O 0.0961(4) 0.3310(2) 0.52650(11)
O2 O 0.2939(5) 0.4374(2) 0.29590(12)
N1 N 0.2067(4) 0.4201(2) 0.41734(13)
N2 N 0.1181(4) 0.4788(2) 0.50427(13)
H3 H 0.1663 0.5145 0.4856
N3 N 0.1666(5) 0.5324(3) 0.34541(13)
H4 H 0.1306 0.5359 0.3734
C2 C 0.1374(5) 0.3884(3) 0.49819(16)
C3 C 0.2157(5) 0.3617(3) 0.45346(15)
C4 C 0.2832(5) 0.2777(3) 0.44981(16)
H5 H 0.2880 0.2394 0.4757
C5 C 0.3435(5) 0.2513(3) 0.40718(17)
H6 H 0.3910 0.1954 0.4038
C6 C 0.3313(5) 0.3102(3) 0.36946(17)
H7 H 0.3693 0.2941 0.3401
C7 C 0.2620(5) 0.3930(3) 0.37605(16)
C8 C 0.2445(6) 0.4561(3) 0.33434(15)
C9 C 0.1377(5) 0.6094(3) 0.31446(15)
C10 C 0.0404(5) 0.5869(3) 0.27088(16)
C11 C -0.0275(5) 0.5063(3) 0.25956(17)
H8 H -0.0114 0.4553 0.2781
C12 C -0.1206(6) 0.5013(4) 0.22016(19)
H9 H -0.1660 0.4465 0.2122
C13 C -0.1469(6) 0.5767(4) 0.19261(19)
H10 H -0.2088 0.5723 0.1662
C14 C -0.0812(6) 0.6585(3) 0.20441(17)
H11 H -0.1000 0.7096 0.1862
C15 C 0.0121(5) 0.6645(3) 0.24309(16)
C16 C 0.0819(5) 0.7504(3) 0.26295(17)
H12 H 0.0614 0.8037 0.2435
C17 C 0.0109(5) 0.7571(3) 0.31157(16)
C18 C -0.0886(6) 0.8238(3) 0.32702(19)
H13 H -0.1119 0.8728 0.3078
C19 C -0.1528(6) 0.8171(4) 0.37105(19)
H14 H -0.2191 0.8620 0.3815
C20 C -0.1197(6) 0.7445(4) 0.39973(19)
H15 H -0.1619 0.7414 0.4296
C21 C -0.0231(6) 0.6754(3) 0.38408(17)
H16 H -0.0024 0.6259 0.4032
C22 C 0.0411(5) 0.6816(3) 0.34007(16)
C23 C 0.2522(5) 0.7328(3) 0.26980(15)
C24 C 0.3719(6) 0.7829(3) 0.25159(18)
H17 H 0.3516 0.8319 0.2321
C25 C 0.5207(6) 0.7607(4) 0.26220(19)
H18 H 0.6005 0.7955 0.2504
C26 C 0.5515(6) 0.6869(4) 0.29030(19)
H19 H 0.6522 0.6718 0.2971
C27 C 0.4325(6) 0.6345(3) 0.30856(17)
H20 H 0.4534 0.5848 0.3276
C28 C 0.2835(5) 0.6574(3) 0.29795(16)
C29 C 0.0218(5) 0.5195(3) 0.54005(15)
C30 C 0.0234(5) 0.6244(3) 0.53796(16)
C31 C 0.1056(5) 0.6776(3) 0.50726(16)
H21 H 0.1702 0.6515 0.4851
C32 C 0.0896(6) 0.7715(3) 0.51017(18)
H22 H 0.1419 0.8085 0.4892
C33 C -0.0031(6) 0.8101(4) 0.54382(19)
H23 H -0.0108 0.8728 0.5458
C34 C -0.0850(6) 0.7562(3) 0.57487(18)
H24 H -0.1469 0.7824 0.5977
C35 C -0.0732(5) 0.6628(3) 0.57135(17)
C36 C -0.1553(5) 0.5943(3) 0.60252(17)
H25 H -0.2215 0.6227 0.6260
C37 C -0.2422(5) 0.5342(3) 0.56836(16)
C38 C -0.3981(5) 0.5215(3) 0.56661(18)
H26 H -0.4607 0.5458 0.5898
C39 C -0.4611(6) 0.4718(4) 0.52982(19)
H27 H -0.5663 0.4634 0.5284
C40 C -0.3692(6) 0.4353(4) 0.49557(19)
H28 H -0.4126 0.4029 0.4710
C41 C -0.2110(6) 0.4466(3) 0.49760(17)
H29 H -0.1485 0.4217 0.4746
C42 C -0.1486(5) 0.4951(3) 0.53412(16)
C43 C 0.0679(5) 0.4976(3) 0.59104(15)
C44 C 0.1948(5) 0.4497(3) 0.60553(16)
H30 H 0.2593 0.4231 0.5836
C45 C 0.2256(6) 0.4415(4) 0.65340(17)
H31 H 0.3107 0.4091 0.6634
C46 C 0.1295(6) 0.4814(4) 0.68597(17)
H32 H 0.1501 0.4757 0.7179
C47 C 0.0036(6) 0.5295(3) 0.67130(16)
H33 H -0.0604 0.5565 0.6933
C48 C -0.0277(5) 0.5378(3) 0.62412(16)
loop_
_geom_bond_atom_site_label_1
_geom_bond_atom_site_label_2
_geom_bond_site_symmetry_1
_geom_bond_site_symmetry_2
Cl1 C1 1_555 1_555
Cl2 C1 1_555 1_555
C1 H1 1_555 1_555
H2 C1 1_555 1_555
O1 C2 1_555 1_555
O2 C8 1_555 1_555
N1 C3 1_555 1_555
N2 H3 1_555 1_555
N3 H4 1_555 1_555
C2 N2 1_555 1_555
C3 C2 1_555 1_555
C4 C3 1_555 1_555
H5 C4 1_555 1_555
C5 C4 1_555 1_555
H6 C5 1_555 1_555
C6 C5 1_555 1_555
H7 C6 1_555 1_555
C7 N1 1_555 1_555
C8 N3 1_555 1_555
C9 N3 1_555 1_555
C10 C9 1_555 1_555
C11 C10 1_555 1_555
H8 C11 1_555 1_555
C12 C11 1_555 1_555
H9 C12 1_555 1_555
C13 C12 1_555 1_555
H10 C13 1_555 1_555
C14 C13 1_555 1_555
H11 C14 1_555 1_555
C15 C10 1_555 1_555
C16 C15 1_555 1_555
H12 C16 1_555 1_555
C17 C16 1_555 1_555
C18 C17 1_555 1_555
H13 C18 1_555 1_555
C19 C18 1_555 1_555
H14 C19 1_555 1_555
C20 C19 1_555 1_555
H15 C20 1_555 1_555
C21 C20 1_555 1_555
H16 C21 1_555 1_555
C22 C9 1_555 1_555
C23 C16 1_555 1_555
C24 C23 1_555 1_555
H17 C24 1_555 1_555
C25 C24 1_555 1_555
H18 C25 1_555 1_555
C26 C25 1_555 1_555
H19 C26 1_555 1_555
C27 C26 1_555 1_555
H20 C27 1_555 1_555
C28 C9 1_555 1_555
C29 N2 1_555 1_555
C30 C29 1_555 1_555
C31 C30 1_555 1_555
H21 C31 1_555 1_555
C32 C31 1_555 1_555
H22 C32 1_555 1_555
C33 C32 1_555 1_555
H23 C33 1_555 1_555
C34 C33 1_555 1_555
H24 C34 1_555 1_555
C35 C30 1_555 1_555
C36 C35 1_555 1_555
H25 C36 1_555 1_555
C37 C36 1_555 1_555
C38 C37 1_555 1_555
H26 C38 1_555 1_555
C39 C38 1_555 1_555
H27 C39 1_555 1_555
C40 C39 1_555 1_555
H28 C40 1_555 1_555
C41 C40 1_555 1_555
H29 C41 1_555 1_555
C42 C29 1_555 1_555
C43 C29 1_555 1_555
C44 C43 1_555 1_555
H30 C44 1_555 1_555
C45 C44 1_555 1_555
H31 C45 1_555 1_555
C46 C45 1_555 1_555
H32 C46 1_555 1_555
C47 C46 1_555 1_555
H33 C47 1_555 1_555
C48 C36 1_555 1_555
C6 C7 1_555 1_555
C7 C8 1_555 1_555
C14 C15 1_555 1_555
C17 C22 1_555 1_555
C21 C22 1_555 1_555
C23 C28 1_555 1_555
C27 C28 1_555 1_555
C34 C35 1_555 1_555
C37 C42 1_555 1_555
C41 C42 1_555 1_555
C43 C48 1_555 1_555
C47 C48 1_555 1_555

#END
