
#######################################################################
#
#                 Cambridge Crystallographic Data Centre
#                                CCDC 
#
#######################################################################
#
# If this CIF has been generated from an entry in the Cambridge 
# Structural Database, then it will include bibliographic, chemical, 
# crystal, experimental, refinement or atomic coordinate data resulting 
# from the CCDC's data processing and validation procedures.
#
#######################################################################

data_CACHEW
_chemical_formula_moiety         'C59 H55 N3 O2'
_chemical_name_systematic        
N,N'-bis(4,5,11,12,17,18-hexamethylpentacyclo[6.6.6.0^2,7^.0^9,14^.0^15,20^]icosa-2,4,6,9,11,13,15,17,19-nonaen-1-yl)pyridine-2,6-dicarboxamide
_symmetry_cell_setting           monoclinic
_symmetry_space_group_name_H-M   'P 21/n'
_symmetry_Int_Tables_number      14
_space_group_name_Hall           '-P 2yn'
loop_
_symmetry_equiv_pos_site_id
_symmetry_equiv_pos_as_xyz
1 x,y,z
2 1/2-x,1/2+y,1/2-z
3 -x,-y,-z
4 1/2+x,1/2-y,1/2+z
_cell_length_a                   16.930(3)
_cell_length_b                   16.114(3)
_cell_length_c                   20.594(4)
_cell_angle_alpha                90
_cell_angle_beta                 114.06(3)
_cell_angle_gamma                90
_cell_volume                     5130.13
_exptl_crystal_colour            colorless
_exptl_crystal_description       block
_cell_formula_units_Z            4
loop_
_atom_site_label
_atom_site_type_symbol
_atom_site_fract_x
_atom_site_fract_y
_atom_site_fract_z
O1 O 0.7959(2) 0.2980(2) 0.94577(16)
O2 O 0.4031(2) 0.22311(17) 0.97283(15)
N1 N 0.7668(3) 0.3224(2) 1.04286(17)
H1 H 0.7261 0.3157 1.0586
N2 N 0.5367(2) 0.2030(2) 1.06181(17)
H2 H 0.5904 0.1908 1.0691
N3 N 0.6112(3) 0.25734(19) 0.97792(18)
C1 C 0.5282(4) 0.2485(3) 0.8312(2)
H3 H 0.5003 0.2460 0.7808
C2 C 0.6142(4) 0.2668(3) 0.8649(2)
H4 H 0.6470 0.2761 0.8376
C3 C 0.4824(4) 0.2335(3) 0.8731(2)
H5 H 0.4224 0.2209 0.8518
C4 C 0.6541(4) 0.2720(2) 0.9377(2)
C5 C 0.5263(4) 0.2374(2) 0.9470(2)
C6 C 0.7473(4) 0.2978(3) 0.9765(2)
C7 C 0.4827(3) 0.2205(2) 0.9951(2)
C8 C 0.8472(3) 0.3591(2) 1.0925(2)
C9 C 0.8735(3) 0.4390(2) 1.0653(2)
C10 C 0.9260(4) 0.3007(3) 1.1136(2)
C11 C 0.9496(3) 0.4733(3) 1.1137(2)
C12 C 1.0016(3) 0.3376(3) 1.1623(2)
C13 C 0.9893(3) 0.4257(3) 1.1832(2)
H6 H 1.0440 0.4512 1.2180
C14 C 0.9824(3) 0.5443(3) 1.0953(2)
H7 H 1.0361 0.5665 1.1276
C15 C 0.9384(3) 0.5831(2) 1.0306(2)
C16 C 0.8615(3) 0.5486(3) 0.9817(2)
C17 C 0.8280(3) 0.4776(3) 1.0000(2)
H8 H 0.7742 0.4555 0.9679
C18 C 0.9786(3) 0.6591(3) 1.0132(3)
H9 H 0.9451 0.7084 1.0138
H10 H 0.9785 0.6527 0.9658
H11 H 1.0382 0.6653 1.0485
C19 C 0.8136(4) 0.5850(4) 0.9085(3)
H12 H 0.8347 0.5596 0.8753
H13 H 0.8235 0.6451 0.9102
H14 H 0.7516 0.5741 0.8923
C20 C 1.0797(4) 0.2953(4) 1.1844(3)
H15 H 1.1306 0.3220 1.2169
C21 C 0.9279(4) 0.2208(3) 1.0911(3)
H16 H 0.8761 0.1935 1.0612
C22 C 1.0865(5) 0.2187(5) 1.1621(4)
C23 C 1.0094(6) 0.1794(4) 1.1136(4)
C24 C 1.1726(5) 0.1759(5) 1.1850(4)
H17 H 1.2188 0.2147 1.2123
H18 H 1.1809 0.1572 1.1430
H19 H 1.1741 0.1279 1.2148
C25 C 1.0061(6) 0.0916(4) 1.0821(4)
H20 H 1.0238 0.0505 1.1204
H21 H 1.0454 0.0891 1.0580
H22 H 0.9470 0.0797 1.0478
C26 C 0.8416(3) 0.3827(2) 1.1622(2)
C27 C 0.9189(3) 0.4197(2) 1.2113(2)
C28 C 0.7745(3) 0.3705(2) 1.1827(2)
H23 H 0.7229 0.3450 1.1502
C29 C 0.9245(3) 0.4457(2) 1.2765(2)
H24 H 0.9758 0.4723 1.3083
C30 C 0.7797(3) 0.3944(2) 1.2496(2)
C31 C 0.8564(3) 0.4339(2) 1.2972(2)
C32 C 0.7082(3) 0.3757(3) 1.2715(2)
H25 H 0.6996 0.4229 1.2978
H26 H 0.7228 0.3263 1.3019
H27 H 0.6548 0.3654 1.2291
C33 C 0.8666(3) 0.4602(2) 1.3707(2)
H28 H 0.9199 0.4926 1.3934
H29 H 0.8696 0.4108 1.3994
H30 H 0.8169 0.4941 1.3669
C34 C 0.5161(3) 0.2019(2) 1.1234(2)
C35 C 0.5959(3) 0.1795(2) 1.19198(19)
C36 C 0.4863(3) 0.2875(2) 1.1395(2)
C37 C 0.5784(3) 0.1802(2) 1.2530(2)
C38 C 0.4705(3) 0.2877(2) 1.2006(2)
C39 C 0.4861(3) 0.2049(3) 1.2384(2)
H31 H 0.4741 0.2057 1.2822
C40 C 0.6766(3) 0.1574(2) 1.1972(2)
H32 H 0.6887 0.1595 1.1561
C41 C 0.6415(3) 0.1553(2) 1.3182(2)
H33 H 0.6295 0.1552 1.3594
C42 C 0.7420(3) 0.1316(2) 1.2624(2)
C43 C 0.7224(3) 0.1303(2) 1.3226(2)
C44 C 0.8272(3) 0.1057(3) 1.2662(3)
H34 H 0.8365 0.0469 1.2792
H35 H 0.8725 0.1389 1.3020
H36 H 0.8292 0.1140 1.2197
C45 C 0.7900(3) 0.0992(3) 1.3936(2)
H37 H 0.8427 0.1326 1.4073
H38 H 0.8035 0.0409 1.3889
H39 H 0.7672 0.1040 1.4302
C46 C 0.4479(3) 0.1382(2) 1.12267(19)
C47 C 0.4296(3) 0.1418(2) 1.1821(2)
C48 C 0.4098(3) 0.0783(2) 1.0721(2)
H40 H 0.4234 0.0752 1.0318
C49 C 0.3708(3) 0.0871(3) 1.1903(2)
H41 H 0.3574 0.0902 1.2308
C50 C 0.3508(3) 0.0215(2) 1.0792(2)
C51 C 0.3312(3) 0.0268(3) 1.1369(3)
C52 C 0.3116(4) -0.0439(3) 1.0224(3)
H42 H 0.3215 -0.0990 1.0445
H43 H 0.3386 -0.0411 0.9885
H44 H 0.2493 -0.0341 0.9974
C53 C 0.2675(3) -0.0324(3) 1.1489(3)
H45 H 0.2642 -0.0191 1.1941
H46 H 0.2876 -0.0897 1.1503
H47 H 0.2102 -0.0264 1.1100
C54 C 0.4806(3) 0.3602(2) 1.1016(2)
H48 H 0.4939 0.3596 1.0611
C55 C 0.4461(3) 0.3621(3) 1.2209(2)
H49 H 0.4334 0.3629 1.2618
C56 C 0.4551(3) 0.4347(3) 1.1230(2)
C57 C 0.4394(3) 0.4354(3) 1.1837(2)
C58 C 0.4465(4) 0.5120(3) 1.0799(3)
H50 H 0.4645 0.5004 1.0412
H51 H 0.4833 0.5558 1.1105
H52 H 0.3861 0.5305 1.0599
C59 C 0.4147(4) 0.5146(3) 1.2108(3)
H53 H 0.3890 0.5006 1.2443
H54 H 0.3727 0.5456 1.1706
H55 H 0.4664 0.5487 1.2349
loop_
_geom_bond_atom_site_label_1
_geom_bond_atom_site_label_2
_geom_bond_site_symmetry_1
_geom_bond_site_symmetry_2
O1 C6 1_555 1_555
O2 C7 1_555 1_555
N1 H1 1_555 1_555
N2 H2 1_555 1_555
N3 C4 1_555 1_555
C1 H3 1_555 1_555
C2 C1 1_555 1_555
H4 C2 1_555 1_555
C3 C1 1_555 1_555
H5 C3 1_555 1_555
C4 C2 1_555 1_555
C5 N3 1_555 1_555
C6 N1 1_555 1_555
C7 N2 1_555 1_555
C8 N1 1_555 1_555
C9 C8 1_555 1_555
C10 C8 1_555 1_555
C11 C9 1_555 1_555
C12 C10 1_555 1_555
C13 C11 1_555 1_555
H6 C13 1_555 1_555
C14 C11 1_555 1_555
H7 C14 1_555 1_555
C15 C14 1_555 1_555
C16 C15 1_555 1_555
C17 C9 1_555 1_555
H8 C17 1_555 1_555
C18 C15 1_555 1_555
H9 C18 1_555 1_555
H10 C18 1_555 1_555
H11 C18 1_555 1_555
C19 C16 1_555 1_555
H12 C19 1_555 1_555
H13 C19 1_555 1_555
H14 C19 1_555 1_555
C20 C12 1_555 1_555
H15 C20 1_555 1_555
C21 C10 1_555 1_555
H16 C21 1_555 1_555
C22 C20 1_555 1_555
C23 C21 1_555 1_555
C24 C22 1_555 1_555
H17 C24 1_555 1_555
H18 C24 1_555 1_555
H19 C24 1_555 1_555
C25 C23 1_555 1_555
H20 C25 1_555 1_555
H21 C25 1_555 1_555
H22 C25 1_555 1_555
C26 C8 1_555 1_555
C27 C13 1_555 1_555
C28 C26 1_555 1_555
H23 C28 1_555 1_555
C29 C27 1_555 1_555
H24 C29 1_555 1_555
C30 C28 1_555 1_555
C31 C29 1_555 1_555
C32 C30 1_555 1_555
H25 C32 1_555 1_555
H26 C32 1_555 1_555
H27 C32 1_555 1_555
C33 C31 1_555 1_555
H28 C33 1_555 1_555
H29 C33 1_555 1_555
H30 C33 1_555 1_555
C34 N2 1_555 1_555
C35 C34 1_555 1_555
C36 C34 1_555 1_555
C37 C35 1_555 1_555
C38 C36 1_555 1_555
C39 C37 1_555 1_555
H31 C39 1_555 1_555
C40 C35 1_555 1_555
H32 C40 1_555 1_555
C41 C37 1_555 1_555
H33 C41 1_555 1_555
C42 C40 1_555 1_555
C43 C41 1_555 1_555
C44 C42 1_555 1_555
H34 C44 1_555 1_555
H35 C44 1_555 1_555
H36 C44 1_555 1_555
C45 C43 1_555 1_555
H37 C45 1_555 1_555
H38 C45 1_555 1_555
H39 C45 1_555 1_555
C46 C34 1_555 1_555
C47 C39 1_555 1_555
C48 C46 1_555 1_555
H40 C48 1_555 1_555
C49 C47 1_555 1_555
H41 C49 1_555 1_555
C50 C48 1_555 1_555
C51 C49 1_555 1_555
C52 C50 1_555 1_555
H42 C52 1_555 1_555
H43 C52 1_555 1_555
H44 C52 1_555 1_555
C53 C51 1_555 1_555
H45 C53 1_555 1_555
H46 C53 1_555 1_555
H47 C53 1_555 1_555
C54 C36 1_555 1_555
H48 C54 1_555 1_555
C55 C38 1_555 1_555
H49 C55 1_555 1_555
C56 C54 1_555 1_555
C57 C55 1_555 1_555
C58 C56 1_555 1_555
H50 C58 1_555 1_555
H51 C58 1_555 1_555
H52 C58 1_555 1_555
C59 C57 1_555 1_555
H53 C59 1_555 1_555
H54 C59 1_555 1_555
H55 C59 1_555 1_555
C3 C5 1_555 1_555
C4 C6 1_555 1_555
C5 C7 1_555 1_555
C12 C13 1_555 1_555
C16 C17 1_555 1_555
C22 C23 1_555 1_555
C26 C27 1_555 1_555
C30 C31 1_555 1_555
C38 C39 1_555 1_555
C42 C43 1_555 1_555
C46 C47 1_555 1_555
C50 C51 1_555 1_555
C56 C57 1_555 1_555

#END
