
#######################################################################
#
#                 Cambridge Crystallographic Data Centre
#                                CCDC 
#
#######################################################################
#
# If this CIF has been generated from an entry in the Cambridge 
# Structural Database, then it will include bibliographic, chemical, 
# crystal, experimental, refinement or atomic coordinate data resulting 
# from the CCDC's data processing and validation procedures.
#
#######################################################################

data_CACJIB
_chemical_formula_moiety         'C11 H11 Cl2 N1 O2'
_chemical_name_systematic        
4-dichloroacetyl-3,4-dihydro-6-methyl-2H-1,4-benzoxazine
_symmetry_cell_setting           orthorhombic
_symmetry_space_group_name_H-M   'F d d 2'
_symmetry_Int_Tables_number      43
_space_group_name_Hall           'F 2 -2d'
loop_
_symmetry_equiv_pos_site_id
_symmetry_equiv_pos_as_xyz
1 x,y,z
2 -x,-y,z
3 1/4+x,1/4-y,1/4+z
4 1/4-x,1/4+y,1/4+z
5 x,1/2+y,1/2+z
6 -x,1/2-y,1/2+z
7 1/4+x,3/4-y,3/4+z
8 1/4-x,3/4+y,3/4+z
9 1/2+x,y,1/2+z
10 1/2-x,-y,1/2+z
11 3/4+x,1/4-y,3/4+z
12 3/4-x,1/4+y,3/4+z
13 1/2+x,1/2+y,z
14 1/2-x,1/2-y,z
15 3/4+x,3/4-y,1/4+z
16 3/4-x,3/4+y,1/4+z
_cell_length_a                   22.4703(18)
_cell_length_b                   32.154(3)
_cell_length_c                   6.4726(5)
_cell_angle_alpha                90
_cell_angle_beta                 90
_cell_angle_gamma                90
_cell_volume                     4676.52
_exptl_crystal_description       block
_cell_formula_units_Z            16
loop_
_atom_site_label
_atom_site_type_symbol
_atom_site_fract_x
_atom_site_fract_y
_atom_site_fract_z
C1 C 0.11852(8) 0.03363(5) 0.3463(3)
H1 H 0.1142 0.0621 0.2947
C2 C 0.18474(9) 0.02306(5) 0.3760(3)
C3 C 0.28512(8) 0.04961(7) 0.4119(4)
H3 H 0.3137 0.0511 0.3000
H4 H 0.2902 0.0233 0.4827
C4 C 0.29461(11) 0.08497(8) 0.5594(4)
H5 H 0.2686 0.0813 0.6777
H6 H 0.3354 0.0842 0.6087
C5 C 0.24512(7) 0.12630(6) 0.3038(3)
C6 C 0.21436(7) 0.09165(5) 0.2287(3)
C7 C 0.18108(7) 0.09530(5) 0.0488(3)
H7 H 0.1633 0.0717 -0.0069
C8 C 0.17369(8) 0.13331(6) -0.0503(3)
C9 C 0.20250(9) 0.16745(6) 0.0324(4)
H8 H 0.1978 0.1933 -0.0301
C10 C 0.23812(9) 0.16405(6) 0.2060(4)
H9 H 0.2575 0.1874 0.2571
C11 C 0.13750(11) 0.13719(7) -0.2443(4)
H10 H 0.1302 0.1660 -0.2728
H11 H 0.1003 0.1230 -0.2267
H12 H 0.1589 0.1250 -0.3575
Cl1 Cl 0.08752(2) -0.001932(19) 0.16878(11)
Cl2 Cl 0.08416(4) 0.02876(2) 0.59032(12)
N1 N 0.22454(6) 0.05295(5) 0.3305(2)
O1 O 0.19904(8) -0.01106(5) 0.4417(3)
O2 O 0.28325(7) 0.12478(5) 0.4683(3)
H2? H 0.1869 0.0126 0.2339
loop_
_geom_bond_atom_site_label_1
_geom_bond_atom_site_label_2
_geom_bond_site_symmetry_1
_geom_bond_site_symmetry_2
C1 H1 1_555 1_555
C2 C1 1_555 1_555
C3 H3 1_555 1_555
H4 C3 1_555 1_555
C4 C3 1_555 1_555
H5 C4 1_555 1_555
H6 C4 1_555 1_555
C5 C6 1_555 1_555
C6 C7 1_555 1_555
C7 H7 1_555 1_555
C8 C7 1_555 1_555
C9 C8 1_555 1_555
H8 C9 1_555 1_555
C10 C5 1_555 1_555
H9 C10 1_555 1_555
C11 C8 1_555 1_555
H10 C11 1_555 1_555
H11 C11 1_555 1_555
H12 C11 1_555 1_555
Cl1 C1 1_555 1_555
Cl2 C1 1_555 1_555
N1 C2 1_555 1_555
O1 C2 1_555 1_555
O2 C4 1_555 1_555
C3 N1 1_555 1_555
C5 O2 1_555 1_555
C6 N1 1_555 1_555
C9 C10 1_555 1_555

#END
