
#######################################################################
#
#                 Cambridge Crystallographic Data Centre
#                                CCDC 
#
#######################################################################
#
# If this CIF has been generated from an entry in the Cambridge 
# Structural Database, then it will include bibliographic, chemical, 
# crystal, experimental, refinement or atomic coordinate data resulting 
# from the CCDC's data processing and validation procedures.
#
#######################################################################

data_CACQEF
_chemical_formula_moiety         'C12 H11 N3 O1 S1'
_chemical_name_systematic        
5-(3-methoxyphenyl)-6-methyl[1,3]thiazolo[3,2-b][1,2,4]triazole
_symmetry_cell_setting           orthorhombic
_symmetry_space_group_name_H-M   'P 21 21 21'
_symmetry_Int_Tables_number      19
_space_group_name_Hall           'P 2ac 2ab'
loop_
_symmetry_equiv_pos_site_id
_symmetry_equiv_pos_as_xyz
1 x,y,z
2 1/2-x,-y,1/2+z
3 -x,1/2+y,1/2-z
4 1/2+x,1/2-y,-z
_cell_length_a                   7.0809(7)
_cell_length_b                   7.6178(8)
_cell_length_c                   21.146(2)
_cell_angle_alpha                90
_cell_angle_beta                 90
_cell_angle_gamma                90
_cell_volume                     1140.63
_exptl_crystal_colour            colorless
_exptl_crystal_description       block
_cell_formula_units_Z            4
loop_
_atom_site_label
_atom_site_type_symbol
_atom_site_fract_x
_atom_site_fract_y
_atom_site_fract_z
S1 S 0.61649(8) 0.94346(9) 0.21551(3)
O1 O 1.3682(2) 0.9554(2) 0.36582(7)
C1 C 1.1916(3) 0.8861(3) 0.35845(10)
N1 N 0.8049(3) 0.8769(2) 0.11659(8)
C2 C 1.1153(3) 0.9028(3) 0.29833(9)
H1 H 1.1863 0.9548 0.2664
C3 C 0.8524(3) 0.8668(3) 0.22142(10)
C4 C 0.9324(3) 0.8380(3) 0.16459(10)
C5 C 0.6334(3) 0.9347(3) 0.13418(9)
C6 C 0.6452(3) 0.9242(3) 0.03658(10)
H2 H 0.6086 0.9328 -0.0056
C7 C 0.9349(3) 0.8431(3) 0.28532(10)
N2 N 0.5249(3) 0.9686(3) 0.08431(9)
C8 C 0.9062(4) 0.7477(3) 0.39293(10)
H3 H 0.8358 0.6948 0.4248
N3 N 0.8160(3) 0.8684(3) 0.05233(8)
C9 C 1.0866(4) 0.8063(3) 0.40609(10)
H4 H 1.1373 0.7926 0.4464
C10 C 1.1215(3) 0.7696(3) 0.14760(10)
H5 H 1.1895 0.7401 0.1854
H6 H 1.1899 0.8576 0.1246
H7 H 1.1077 0.6667 0.1218
C11 C 0.8285(3) 0.7661(3) 0.33360(10)
H8 H 0.7061 0.7276 0.3257
C12 C 1.4458(4) 0.9624(4) 0.42789(12)
H9 H 1.3599 1.0228 0.4555
H10 H 1.5641 1.0239 0.4268
H11 H 1.4657 0.8452 0.4432
loop_
_geom_bond_atom_site_label_1
_geom_bond_atom_site_label_2
_geom_bond_site_symmetry_1
_geom_bond_site_symmetry_2
S1 C3 1_555 1_555
O1 C1 1_555 1_555
C1 C2 1_555 1_555
N1 C4 1_555 1_555
C2 H1 1_555 1_555
C3 C4 1_555 1_555
C4 C10 1_555 1_555
C5 S1 1_555 1_555
C6 H2 1_555 1_555
C7 C2 1_555 1_555
N2 C5 1_555 1_555
C8 H3 1_555 1_555
N3 N1 1_555 1_555
C9 C1 1_555 1_555
H4 C9 1_555 1_555
C10 H5 1_555 1_555
H6 C10 1_555 1_555
H7 C10 1_555 1_555
C11 C7 1_555 1_555
H8 C11 1_555 1_555
C12 O1 1_555 1_555
H9 C12 1_555 1_555
H10 C12 1_555 1_555
H11 C12 1_555 1_555
N1 C5 1_555 1_555
C3 C7 1_555 1_555
C6 N2 1_555 1_555
C6 N3 1_555 1_555
C8 C9 1_555 1_555
C8 C11 1_555 1_555

#END
