
#######################################################################
#
#                 Cambridge Crystallographic Data Centre
#                                CCDC 
#
#######################################################################
#
# If this CIF has been generated from an entry in the Cambridge 
# Structural Database, then it will include bibliographic, chemical, 
# crystal, experimental, refinement or atomic coordinate data resulting 
# from the CCDC's data processing and validation procedures.
#
#######################################################################

data_CACVUZ
_chemical_formula_moiety         'C19 H15 N1 O3'
_chemical_name_systematic        
1-(3-(4-Nitrophenyl)prop-2-en-1-ylidene)-3,4-dihydronaphthalen-2(1H)-one
_symmetry_cell_setting           orthorhombic
_symmetry_space_group_name_H-M   'P b c a'
_symmetry_Int_Tables_number      61
_space_group_name_Hall           '-P 2ac 2ab'
loop_
_symmetry_equiv_pos_site_id
_symmetry_equiv_pos_as_xyz
1 x,y,z
2 1/2-x,-y,1/2+z
3 -x,1/2+y,1/2-z
4 1/2+x,1/2-y,-z
5 -x,-y,-z
6 1/2+x,y,1/2-z
7 x,1/2-y,1/2+z
8 1/2-x,1/2+y,z
_cell_length_a                   7.5097(5)
_cell_length_b                   14.8345(10)
_cell_length_c                   27.016(2)
_cell_angle_alpha                90
_cell_angle_beta                 90
_cell_angle_gamma                90
_cell_volume                     3009.65
_exptl_crystal_colour            colorless
_exptl_crystal_description       prism
_chemical_melting_point          '463.4 K'
_cell_formula_units_Z            8
loop_
_atom_site_label
_atom_site_type_symbol
_atom_site_fract_x
_atom_site_fract_y
_atom_site_fract_z
C1 C 0.1379(2) 0.55378(11) 1.08366(6)
C2 C 0.0995(2) 0.63391(12) 1.10710(6)
H1 H 0.0811 0.6358 1.1419
C3 C 0.0883(2) 0.71128(12) 1.07906(6)
H2 H 0.0605 0.7667 1.0948
C4 C 0.1170(2) 0.71005(11) 1.02803(6)
C5 C 0.1556(2) 0.62721(12) 1.00558(6)
H3 H 0.1757 0.6249 0.9709
C6 C 0.1648(2) 0.54897(12) 1.03305(6)
H4 H 0.1892 0.4928 1.0175
C7 C 0.1035(2) 0.79419(12) 1.00060(6)
H5 H 0.0767 0.8464 1.0195
C8 C 0.1246(2) 0.80692(12) 0.95161(6)
H6 H 0.1534 0.7570 0.9311
C9 C 0.1041(2) 0.89471(12) 0.92982(6)
H7 H 0.0899 0.9423 0.9530
C10 C 0.1015(2) 0.92102(11) 0.88172(6)
C11 C 0.1036(2) 0.86164(11) 0.83782(6)
C12 C 0.0287(2) 0.77512(11) 0.83805(6)
H8 H -0.0274 0.7534 0.8672
C13 C 0.0353(2) 0.72089(12) 0.79650(6)
H9 H -0.0151 0.6622 0.7974
C14 C 0.1152(2) 0.75196(12) 0.75368(7)
H10 H 0.1227 0.7142 0.7254
C15 C 0.1840(2) 0.83813(11) 0.75230(6)
H11 H 0.2367 0.8596 0.7226
C16 C 0.1779(2) 0.89404(11) 0.79333(6)
C17 C 0.2452(2) 0.98965(11) 0.79122(6)
H12 H 0.2513 1.0098 0.7563
H13 H 0.3667 0.9926 0.8053
C18 C 0.1217(2) 1.05191(11) 0.82030(6)
H14 H 0.1716 1.1137 0.8203
H15 H 0.0040 1.0541 0.8038
C19 C 0.0982(2) 1.02066(11) 0.87260(6)
N1 N 0.15128(19) 0.47111(10) 1.11284(6)
O1 O 0.17336(18) 0.47824(9) 1.15796(5)
O2 O 0.14122(19) 0.39818(9) 1.09136(5)
O3 O 0.0781(2) 1.07477(9) 0.90627(5)
loop_
_geom_bond_atom_site_label_1
_geom_bond_atom_site_label_2
_geom_bond_site_symmetry_1
_geom_bond_site_symmetry_2
C1 C2 1_555 1_555
C2 H1 1_555 1_555
C3 C2 1_555 1_555
H2 C3 1_555 1_555
C4 C3 1_555 1_555
C5 C4 1_555 1_555
H3 C5 1_555 1_555
C6 C1 1_555 1_555
H4 C6 1_555 1_555
C7 C4 1_555 1_555
H5 C7 1_555 1_555
C8 C7 1_555 1_555
H6 C8 1_555 1_555
C9 C8 1_555 1_555
H7 C9 1_555 1_555
C10 C9 1_555 1_555
C11 C10 1_555 1_555
C12 C11 1_555 1_555
H8 C12 1_555 1_555
C13 C12 1_555 1_555
H9 C13 1_555 1_555
C14 C13 1_555 1_555
H10 C14 1_555 1_555
C15 C14 1_555 1_555
H11 C15 1_555 1_555
C16 C11 1_555 1_555
C17 C16 1_555 1_555
H12 C17 1_555 1_555
H13 C17 1_555 1_555
C18 C17 1_555 1_555
H14 C18 1_555 1_555
H15 C18 1_555 1_555
C19 C10 1_555 1_555
N1 C1 1_555 1_555
O1 N1 1_555 1_555
O2 N1 1_555 1_555
O3 C19 1_555 1_555
C5 C6 1_555 1_555
C15 C16 1_555 1_555
C18 C19 1_555 1_555

#END
