
#######################################################################
#
#                 Cambridge Crystallographic Data Centre
#                                CCDC 
#
#######################################################################
#
# If this CIF has been generated from an entry in the Cambridge 
# Structural Database, then it will include bibliographic, chemical, 
# crystal, experimental, refinement or atomic coordinate data resulting 
# from the CCDC's data processing and validation procedures.
#
#######################################################################

data_CACVIN
_chemical_formula_moiety         
'C16 H14 N6 O4,C2 H8 N1 1+,C1 F3 O3 S1 1-,0.5(H2 O1)'
_chemical_name_systematic        
'dimethylammonium trifluoromethanesulfonate 3,17-dioxa-4,6,14,16,23,24-hexaazatricyclo[17.3.1.1^8,12^]tetracosa-1(23),4,8(24),9,11,15,19,21-octaene-7,13-dione hemihydrate'
_symmetry_cell_setting           triclinic
_symmetry_space_group_name_H-M   'P -1'
_symmetry_Int_Tables_number      2
_space_group_name_Hall           '-P 1'
loop_
_symmetry_equiv_pos_site_id
_symmetry_equiv_pos_as_xyz
1 x,y,z
2 -x,-y,-z
_cell_length_a                   14.4432(8)
_cell_length_b                   14.6020(8)
_cell_length_c                   14.6895(8)
_cell_angle_alpha                64.0350(10)
_cell_angle_beta                 76.9770(10)
_cell_angle_gamma                61.12
_cell_volume                     2438.52
_exptl_crystal_colour            colorless
_exptl_crystal_description       block
_cell_formula_units_Z            4
loop_
_atom_site_label
_atom_site_type_symbol
_atom_site_fract_x
_atom_site_fract_y
_atom_site_fract_z
N1 N 0.54643(16) 0.33983(19) 0.89152(15)
N2 N 0.35846(17) 0.53230(18) 0.86793(16)
H1 H 0.3618 0.4681 0.8741
N3 N 0.17249(18) 0.63470(17) 0.84293(17)
N4 N 0.17197(15) 0.35089(17) 0.83826(15)
N5 N 0.45792(17) 0.06153(18) 0.86752(18)
N6 N 0.54717(16) 0.15175(18) 0.88751(17)
H2 H 0.4887 0.2131 0.8856
O1 O 0.44852(17) 0.62431(18) 0.86697(16)
O2 O 0.18359(14) 0.52872(14) 0.85417(14)
O3 O 0.36814(14) 0.15967(15) 0.87285(15)
O4 O 0.72461(17) 0.06013(19) 0.9075(2)
C1 C 0.6390(2) 0.2469(2) 0.90377(19)
C2 C 0.7346(2) 0.2418(3) 0.9160(2)
H7 H 0.7982 0.1740 0.9254
C3 C 0.7354(3) 0.3364(3) 0.9144(2)
H8 H 0.7995 0.3348 0.9229
C4 C 0.6419(2) 0.4331(3) 0.9002(2)
H9 H 0.6403 0.5001 0.8974
C5 C 0.5495(2) 0.4309(2) 0.88991(18)
C6 C 0.4487(2) 0.5377(2) 0.87410(18)
C7 C 0.2618(2) 0.6273(2) 0.8521(2)
H10 H 0.2621 0.6941 0.8476
C8 C 0.0882(2) 0.5452(2) 0.8215(2)
H11 H 0.0867 0.5757 0.7467
H12 H 0.0254 0.5989 0.8460
C9 C 0.08951(18) 0.4304(2) 0.86639(18)
C10 C 0.01268(19) 0.4074(2) 0.93490(19)
H13 H -0.0455 0.4657 0.9526
C11 C 0.0220(2) 0.2981(2) 0.97714(19)
H14 H -0.0303 0.2804 1.0234
C12 C 0.1087(2) 0.2149(2) 0.95100(19)
H15 H 0.1180 0.1388 0.9805
C13 C 0.18159(19) 0.2448(2) 0.88101(18)
C14 C 0.2774(2) 0.1589(2) 0.8496(2)
H16 H 0.2794 0.0827 0.8868
H17 H 0.2760 0.1786 0.7761
C15 C 0.5415(2) 0.0648(2) 0.8771(2)
H18 H 0.6066 0.0012 0.8772
C16 C 0.6414(2) 0.1442(2) 0.9007(2)
N7 N 0.48950(15) 0.44695(16) 0.62772(14)
N8 N 0.48059(15) 0.26842(16) 0.61751(15)
H3 H 0.4247 0.3337 0.6091
N9 N 0.39380(17) 0.18731(16) 0.57852(17)
N10 N 0.13079(15) 0.49805(17) 0.50266(15)
N11 N 0.12239(18) 0.75448(17) 0.56614(17)
N12 N 0.30457(16) 0.63939(16) 0.60590(15)
H4 H 0.3084 0.5804 0.5996
O5 O 0.65720(14) 0.16577(16) 0.64340(16)
O6 O 0.31898(13) 0.30162(14) 0.53695(14)
O7 O 0.14054(14) 0.67170(15) 0.53026(15)
O8 O 0.39325(15) 0.72111(16) 0.62736(15)
C17 C 0.49479(19) 0.5340(2) 0.63181(17)
C18 C 0.5884(2) 0.5315(2) 0.64545(19)
H19 H 0.5887 0.5956 0.6474
C19 C 0.6807(2) 0.4336(3) 0.6561(2)
H20 H 0.7459 0.4289 0.6660
C20 C 0.6772(2) 0.3426(2) 0.6523(2)
H21 H 0.7398 0.2744 0.6592
C21 C 0.58013(19) 0.3529(2) 0.63821(17)
C22 C 0.57635(19) 0.2538(2) 0.63403(18)
C23 C 0.4711(2) 0.1799(2) 0.61397(19)
H22 H 0.5278 0.1065 0.6406
C24 C 0.2295(2) 0.3065(2) 0.5063(2)
H23 H 0.1931 0.2703 0.5660
H24 H 0.2517 0.2663 0.4600
C25 C 0.15674(18) 0.4300(2) 0.45308(19)
C26 C 0.11946(19) 0.4695(2) 0.3576(2)
H25 H 0.1398 0.4194 0.3243
C27 C 0.0524(2) 0.5828(2) 0.3119(2)
H26 H 0.0246 0.6115 0.2471
C28 C 0.02584(19) 0.6542(2) 0.36127(19)
H27 H -0.0194 0.7328 0.3307
C29 C 0.06676(18) 0.6085(2) 0.45646(18)
C30 C 0.04172(19) 0.6831(2) 0.5127(2)
H28 H -0.0041 0.7630 0.4718
H29 H 0.0048 0.6586 0.5778
C31 C 0.2079(2) 0.7324(2) 0.59941(19)
H30 H 0.2052 0.7854 0.6222
C32 C 0.3934(2) 0.6398(2) 0.62201(17)
O9 O 0.27992(14) 0.43607(15) 0.65316(16)
H5 H 0.259(3) 0.410(3) 0.709(3)
H6 H 0.239(3) 0.449(3) 0.617(3)
S1 S 0.11729(6) 0.00016(7) 0.71670(6)
C33 C 0.0643(3) 0.0034(3) 0.8398(3)
O10 O 0.0174(3) 0.0483(3) 0.6681(3)
O11 O 0.1894(4) -0.1068(3) 0.7301(3)
O12 O 0.1588(5) 0.0859(5) 0.6796(4)
F1 F -0.0038(3) 0.1046(3) 0.8428(3)
F2 F 0.0223(4) -0.0645(4) 0.8973(3)
F3 F 0.1509(3) -0.0263(4) 0.8947(3)
S2 S 0.29508(5) 0.23127(6) 0.24489(5)
C34 C 0.2924(2) 0.2942(3) 0.1081(2)
O13 O 0.18461(16) 0.27254(19) 0.27277(18)
O14 O 0.35143(16) 0.2771(2) 0.26819(17)
O15 O 0.34961(18) 0.11228(17) 0.26810(18)
F4 F 0.3835(5) 0.2827(7) 0.0648(4)
F5 F 0.2527(7) 0.2458(8) 0.0739(4)
F6 F 0.2534(5) 0.3983(6) 0.0632(5)
N13 N 0.1418(3) 0.0085(3) 0.3413(3)
H31 H 0.0987 -0.0264 0.3555
H32 H 0.2100 -0.0444 0.3378
C35 C 0.1352(3) 0.0346(3) 0.4251(3)
H33 H 0.1520 -0.0343 0.4869
H34 H 0.0633 0.0911 0.4310
H35 H 0.1856 0.0651 0.4155
C36 C 0.116(2) 0.096(2) 0.243(2)
H36 H 0.1240 0.0637 0.1938
H37 H 0.1634 0.1324 0.2232
H38 H 0.0426 0.1529 0.2429
N14 N 0.42326(19) 0.85030(19) 0.71153(18)
H39 H 0.4884 0.7885 0.7246
H40 H 0.3738 0.8251 0.7181
C37 C 0.4234(3) 0.9305(3) 0.6067(2)
H41 H 0.4394 0.8928 0.5601
H42 H 0.4772 0.9562 0.5986
H43 H 0.3537 0.9958 0.5915
C38 C 0.3996(2) 0.9000(3) 0.7874(3)
H44 H 0.4015 0.8425 0.8554
H45 H 0.3291 0.9642 0.7755
H46 H 0.4524 0.9262 0.7815
C39? C 0.1352(3) 0.0346(3) 0.4251(3)
C40? C 0.130(6) 0.085(6) 0.244(6)
F7? F -0.0390(6) 0.0946(6) 0.8087(6)
F8? F 0.0514(7) -0.0954(7) 0.8902(7)
F9? F 0.1084(7) 0.0213(7) 0.8856(6)
F10? F 0.3941(5) 0.2440(7) 0.0690(5)
F11? F 0.2217(7) 0.2889(8) 0.0708(4)
F12? F 0.2397(5) 0.4173(6) 0.0894(6)
H47? H 0.0260 0.1329 0.3272
H48? H 0.1078 0.1720 0.3086
H49? H 0.1084 0.0784 0.4680
H50? H 0.2127 -0.0015 0.4244
H51? H 0.1098 -0.0239 0.4519
H52? H 0.0975 0.1528 0.1838
H53? H 0.1104 0.0266 0.2504
H54? H 0.2073 0.0557 0.2374
N15? N 0.0980(7) 0.1091(9) 0.3234(9)
O16? O 0.0508(5) -0.0182(7) 0.6703(5)
O17? O 0.2150(5) -0.1247(6) 0.7640(6)
O18? O 0.1493(8) 0.0799(9) 0.6637(8)
loop_
_geom_bond_atom_site_label_1
_geom_bond_atom_site_label_2
_geom_bond_site_symmetry_1
_geom_bond_site_symmetry_2
N1 C1 1_555 1_555
N2 H1 1_555 1_555
N3 O2 1_555 1_555
N4 C9 1_555 1_555
N5 O3 1_555 1_555
N6 H2 1_555 1_555
N7 C17 1_555 1_555
N8 H3 1_555 1_555
N9 O6 1_555 1_555
N10 C25 1_555 1_555
N11 O7 1_555 1_555
N12 H4 1_555 1_555
O1 C6 1_555 1_555
O2 C8 1_555 1_555
O3 C14 1_555 1_555
O4 C16 1_555 1_555
O5 C22 1_555 1_555
O6 C24 1_555 1_555
O7 C30 1_555 1_555
O8 C32 1_555 1_555
O9 H5 1_555 1_555
H6 O9 1_555 1_555
C1 C2 1_555 1_555
C2 H7 1_555 1_555
C3 C2 1_555 1_555
H8 C3 1_555 1_555
C4 C3 1_555 1_555
H9 C4 1_555 1_555
C5 N1 1_555 1_555
C6 N2 1_555 1_555
C7 N2 1_555 1_555
H10 C7 1_555 1_555
C8 H11 1_555 1_555
H12 C8 1_555 1_555
C9 C8 1_555 1_555
C10 C9 1_555 1_555
H13 C10 1_555 1_555
C11 C10 1_555 1_555
H14 C11 1_555 1_555
C12 C11 1_555 1_555
H15 C12 1_555 1_555
C13 N4 1_555 1_555
C14 C13 1_555 1_555
H16 C14 1_555 1_555
H17 C14 1_555 1_555
C15 N5 1_555 1_555
H18 C15 1_555 1_555
C16 N6 1_555 1_555
C17 C18 1_555 1_555
C18 H19 1_555 1_555
C19 C18 1_555 1_555
H20 C19 1_555 1_555
C20 C19 1_555 1_555
H21 C20 1_555 1_555
C21 N7 1_555 1_555
C22 N8 1_555 1_555
C23 N8 1_555 1_555
H22 C23 1_555 1_555
C24 H23 1_555 1_555
H24 C24 1_555 1_555
C25 C24 1_555 1_555
C26 C25 1_555 1_555
H25 C26 1_555 1_555
C27 C26 1_555 1_555
H26 C27 1_555 1_555
C28 C27 1_555 1_555
H27 C28 1_555 1_555
C29 N10 1_555 1_555
C30 C29 1_555 1_555
H28 C30 1_555 1_555
H29 C30 1_555 1_555
C31 N11 1_555 1_555
H30 C31 1_555 1_555
C32 N12 1_555 1_555
S1 C33 1_555 1_555
C33 F1 1_555 1_555
O10 S1 1_555 1_555
O11 S1 1_555 1_555
O12 S1 1_555 1_555
F2 C33 1_555 1_555
F3 C33 1_555 1_555
S2 C34 1_555 1_555
C34 F4 1_555 1_555
O13 S2 1_555 1_555
O14 S2 1_555 1_555
O15 S2 1_555 1_555
F5 C34 1_555 1_555
F6 C34 1_555 1_555
N13 H31 1_555 1_555
H32 N13 1_555 1_555
C35 N13 1_555 1_555
H33 C35 1_555 1_555
H34 C35 1_555 1_555
H35 C35 1_555 1_555
C36 N13 1_555 1_555
H36 C36 1_555 1_555
H37 C36 1_555 1_555
H38 C36 1_555 1_555
N14 H39 1_555 1_555
H40 N14 1_555 1_555
C37 N14 1_555 1_555
H41 C37 1_555 1_555
H42 C37 1_555 1_555
H43 C37 1_555 1_555
C38 N14 1_555 1_555
H44 C38 1_555 1_555
H45 C38 1_555 1_555
H46 C38 1_555 1_555
N3 C7 1_555 1_555
N6 C15 1_555 1_555
N9 C23 1_555 1_555
N12 C31 1_555 1_555
C1 C16 1_555 1_555
C4 C5 1_555 1_555
C5 C6 1_555 1_555
C12 C13 1_555 1_555
C17 C32 1_555 1_555
C20 C21 1_555 1_555
C21 C22 1_555 1_555
C28 C29 1_555 1_555

#END
