
#######################################################################
#
#                 Cambridge Crystallographic Data Centre
#                                CCDC 
#
#######################################################################
#
# If this CIF has been generated from an entry in the Cambridge 
# Structural Database, then it will include bibliographic, chemical, 
# crystal, experimental, refinement or atomic coordinate data resulting 
# from the CCDC's data processing and validation procedures.
#
#######################################################################

data_CACVOT
_chemical_formula_moiety         'C48 H42 N18 O12,H2 O1'
_chemical_name_systematic        
'3,17,25,39,47,61-Hexaoxa-4,6,14,16,26,28,36,38,48,50,58,60,67,68,69,70,71,72-octadecaaza-heptacyclo[61.3.1.1^8,12^.1^19,23^.1^30,34^.1^41,45^.1^52,56^]doheptaconta-1(67),4,8(72),9,11,15,19(71),20,22,26,30(70),31,33,37,41(69),42,44,48,52(68),53,55,59,63,65-tetracosaene-7,13,29,35,51,57-hexone monohydrate'
_symmetry_cell_setting           monoclinic
_symmetry_space_group_name_H-M   'C c'
_symmetry_Int_Tables_number      9
_space_group_name_Hall           'C -2yc'
loop_
_symmetry_equiv_pos_site_id
_symmetry_equiv_pos_as_xyz
1 x,y,z
2 x,-y,1/2+z
3 1/2+x,1/2+y,z
4 1/2+x,1/2-y,1/2+z
_cell_length_a                   11.3994(2)
_cell_length_b                   17.3955(4)
_cell_length_c                   25.7476(5)
_cell_angle_alpha                90
_cell_angle_beta                 102.6120(10)
_cell_angle_gamma                90
_cell_volume                     4982.51
_exptl_crystal_colour            colorless
_exptl_crystal_description       block
_cell_formula_units_Z            4
loop_
_atom_site_label
_atom_site_type_symbol
_atom_site_fract_x
_atom_site_fract_y
_atom_site_fract_z
O1 O 1.15999(19) 0.24795(11) 0.56266(8)
O2 O 1.18385(19) 0.11369(12) 0.40650(8)
O3 O 0.8459(2) 0.45184(12) 0.34322(8)
O4 O 0.87982(18) 0.38606(12) 0.52315(8)
O5 O 1.21164(19) 0.49586(12) 0.76364(8)
O6 O 1.30109(18) 0.66407(11) 0.91009(8)
O7 O 0.9705(2) 0.35327(12) 0.97671(8)
O8 O 0.9252(2) 0.35918(13) 0.79049(8)
O9 O 0.58338(18) 0.28435(12) 0.55753(8)
O10 O 0.5913(2) 0.35399(12) 0.38176(8)
O11 O 0.9504(2) 0.02558(12) 0.44773(9)
O12 O 0.81104(18) 0.11323(12) 0.59557(8)
N1 N 1.0135(2) 0.20730(14) 0.63746(9)
N2 N 1.2174(2) 0.17643(15) 0.56145(10)
N3 N 1.1421(2) 0.19433(14) 0.46952(9)
H1 H 1.1031 0.2362 0.4749
N4 N 1.0146(2) 0.28576(13) 0.39312(9)
N5 N 0.8826(2) 0.39709(13) 0.42565(9)
H2 H 0.9194 0.3592 0.4454
N6 N 0.8111(2) 0.44814(14) 0.49710(10)
N7 N 1.0247(2) 0.43157(14) 0.64204(9)
N8 N 1.2727(3) 0.56682(16) 0.76547(11)
N9 N 1.2360(2) 0.56636(13) 0.85262(9)
H3 H 1.1974 0.5222 0.8480
N10 N 1.1262(2) 0.50043(12) 0.92478(9)
N11 N 0.9735(2) 0.38214(13) 0.89078(9)
H4 H 0.9970 0.4154 0.8694
N12 N 0.8800(2) 0.30183(14) 0.82006(10)
N13 N 0.7024(2) 0.31200(15) 0.67269(10)
N14 N 0.5335(2) 0.35291(15) 0.53200(10)
N15 N 0.6174(2) 0.29972(14) 0.46414(9)
H5 H 0.6487 0.2609 0.4844
N16 N 0.7622(2) 0.18985(14) 0.43437(9)
N17 N 0.8751(2) 0.09078(15) 0.50975(9)
H6 H 0.8372 0.1329 0.5157
N18 N 0.8881(2) 0.04817(15) 0.59715(10)
C1 C 0.9626(3) 0.16243(17) 0.66877(11)
C2 C 1.0267(3) 0.13274(18) 0.71654(12)
H7 H 0.9874 0.1022 0.7382
C3 C 1.1463(3) 0.14766(19) 0.73226(12)
H8 H 1.1922 0.1268 0.7644
C4 C 1.1997(3) 0.19428(18) 0.70004(12)
H9 H 1.2829 0.2064 0.7102
C5 C 1.1306(3) 0.22280(16) 0.65305(11)
C6 C 1.1833(3) 0.27409(18) 0.61717(12)
H10 H 1.1497 0.3264 0.6181
H11 H 1.2713 0.2774 0.6310
C7 C 1.2036(3) 0.15422(18) 0.51316(12)
H12 H 1.2385 0.1064 0.5069
C8 C 1.1385(3) 0.17248(17) 0.41845(12)
C9 C 1.0760(3) 0.22806(16) 0.37682(11)
C10 C 1.0871(3) 0.21910(18) 0.32483(12)
H13 H 1.1304 0.1768 0.3151
C11 C 1.0342(3) 0.27255(19) 0.28714(12)
H14 H 1.0404 0.2679 0.2511
C12 C 0.9720(3) 0.33321(18) 0.30356(11)
H15 H 0.9361 0.3716 0.2789
C13 C 0.9630(2) 0.33716(16) 0.35613(11)
C14 C 0.8913(3) 0.40097(17) 0.37350(12)
C15 C 0.8195(3) 0.44935(17) 0.44858(12)
H16 H 0.7791 0.4894 0.4267
C16 C 0.8585(3) 0.3790(2) 0.57643(12)
H17 H 0.8919 0.3295 0.5920
H18 H 0.7708 0.3785 0.5745
C17 C 0.9150(3) 0.44416(18) 0.61222(12)
C18 C 0.8557(3) 0.5130(2) 0.61484(13)
H19 H 0.7763 0.5203 0.5945
C19 C 0.9135(4) 0.5713(2) 0.64745(14)
H20 H 0.8761 0.6199 0.6484
C20 C 1.0250(4) 0.5575(2) 0.67807(13)
H21 H 1.0661 0.5963 0.7011
C21 C 1.0769(3) 0.48727(17) 0.67523(12)
C22 C 1.1953(3) 0.4644(2) 0.71042(12)
H22 H 1.1998 0.4076 0.7127
H23 H 1.2615 0.4824 0.6942
C23 C 1.2811(3) 0.59647(19) 0.81120(12)
H24 H 1.3226 0.6441 0.8176
C24 C 1.2495(2) 0.60327(16) 0.90039(11)
C25 C 1.1940(2) 0.56294(15) 0.94065(10)
C26 C 1.2143(3) 0.59176(17) 0.99219(11)
H25 H 1.2616 0.6366 1.0017
C27 C 1.1645(3) 0.55412(17) 1.02929(11)
H26 H 1.1775 0.5724 1.0649
C28 C 1.0952(3) 0.48913(16) 1.01384(11)
H27 H 1.0602 0.4619 1.0387
C29 C 1.0779(2) 0.46469(16) 0.96160(11)
C30 C 1.0026(3) 0.39469(16) 0.94458(11)
C31 C 0.9085(3) 0.31865(17) 0.86940(12)
H28 H 0.8827 0.2845 0.8934
C32 C 0.8863(3) 0.3400(3) 0.73534(12)
H29 H 0.9012 0.2846 0.7306
H30 H 0.9349 0.3693 0.7147
C33 C 0.7551(3) 0.35671(19) 0.71335(12)
C34 C 0.6926(4) 0.4149(2) 0.73259(14)
H31 H 0.7312 0.4456 0.7619
C35 C 0.5743(4) 0.4275(2) 0.70860(16)
H32 H 0.5295 0.4665 0.7214
C36 C 0.5213(4) 0.3824(2) 0.66534(14)
H33 H 0.4401 0.3908 0.6475
C37 C 0.5873(3) 0.32597(19) 0.64887(12)
C38 C 0.5339(3) 0.2723(2) 0.60341(13)
H34 H 0.5488 0.2185 0.6155
H35 H 0.4458 0.2802 0.5935
C39 C 0.5559(3) 0.35526(18) 0.48561(12)
H36 H 0.5279 0.3987 0.4641
C40 C 0.6321(3) 0.30222(17) 0.41302(12)
C41 C 0.7025(3) 0.23748(16) 0.39692(11)
C42 C 0.7030(3) 0.22929(18) 0.34339(12)
H37 H 0.6579 0.2633 0.3177
C43 C 0.7698(3) 0.17095(19) 0.32809(12)
H38 H 0.7710 0.1642 0.2916
C44 C 0.8345(3) 0.12281(17) 0.36569(12)
H39 H 0.8833 0.0833 0.3562
C45 C 0.8263(3) 0.13374(16) 0.41852(12)
C46 C 0.8914(3) 0.07835(18) 0.45955(12)
C47 C 0.9143(3) 0.04127(18) 0.55181(13)
H40 H 0.9641 -0.0006 0.5466
C48 C 0.8317(3) 0.1449(2) 0.64831(12)
H41 H 0.8047 0.1078 0.6724
H42 H 0.7841 0.1926 0.6478
O13 O 0.5444(2) 0.50218(16) 0.32590(10)
H43 H 0.536(3) 0.4567(17) 0.3448(14)
H44 H 0.599(3) 0.539(2) 0.3468(14)
loop_
_geom_bond_atom_site_label_1
_geom_bond_atom_site_label_2
_geom_bond_site_symmetry_1
_geom_bond_site_symmetry_2
O1 N2 1_555 1_555
O2 C8 1_555 1_555
O3 C14 1_555 1_555
O4 N6 1_555 1_555
O5 N8 1_555 1_555
O6 C24 1_555 1_555
O7 C30 1_555 1_555
O8 N12 1_555 1_555
O9 N14 1_555 1_555
O10 C40 1_555 1_555
O11 C46 1_555 1_555
O12 N18 1_555 1_555
N1 C1 1_555 1_555
N2 C7 1_555 1_555
N3 H1 1_555 1_555
N4 C9 1_555 1_555
N5 H2 1_555 1_555
N6 C15 1_555 1_555
N7 C17 1_555 1_555
N8 C23 1_555 1_555
N9 H3 1_555 1_555
N10 C25 1_555 1_555
N11 H4 1_555 1_555
N12 C31 1_555 1_555
N13 C33 1_555 1_555
N14 C39 1_555 1_555
N15 H5 1_555 1_555
N16 C41 1_555 1_555
N17 H6 1_555 1_555
N18 C47 1_555 1_555
C1 C2 1_555 1_555
C2 H7 1_555 1_555
C3 C2 1_555 1_555
H8 C3 1_555 1_555
C4 C3 1_555 1_555
H9 C4 1_555 1_555
C5 N1 1_555 1_555
C6 O1 1_555 1_555
H10 C6 1_555 1_555
H11 C6 1_555 1_555
C7 N3 1_555 1_555
H12 C7 1_555 1_555
C8 N3 1_555 1_555
C9 C8 1_555 1_555
C10 C9 1_555 1_555
H13 C10 1_555 1_555
C11 C10 1_555 1_555
H14 C11 1_555 1_555
C12 C11 1_555 1_555
H15 C12 1_555 1_555
C13 N4 1_555 1_555
C14 N5 1_555 1_555
C15 N5 1_555 1_555
H16 C15 1_555 1_555
C16 O4 1_555 1_555
H17 C16 1_555 1_555
H18 C16 1_555 1_555
C17 C16 1_555 1_555
C18 C17 1_555 1_555
H19 C18 1_555 1_555
C19 C18 1_555 1_555
H20 C19 1_555 1_555
C20 C19 1_555 1_555
H21 C20 1_555 1_555
C21 N7 1_555 1_555
C22 O5 1_555 1_555
H22 C22 1_555 1_555
H23 C22 1_555 1_555
C23 N9 1_555 1_555
H24 C23 1_555 1_555
C24 N9 1_555 1_555
C25 C24 1_555 1_555
C26 C25 1_555 1_555
H25 C26 1_555 1_555
C27 C26 1_555 1_555
H26 C27 1_555 1_555
C28 C27 1_555 1_555
H27 C28 1_555 1_555
C29 N10 1_555 1_555
C30 N11 1_555 1_555
C31 N11 1_555 1_555
H28 C31 1_555 1_555
C32 O8 1_555 1_555
H29 C32 1_555 1_555
H30 C32 1_555 1_555
C33 C32 1_555 1_555
C34 C33 1_555 1_555
H31 C34 1_555 1_555
C35 C34 1_555 1_555
H32 C35 1_555 1_555
C36 C35 1_555 1_555
H33 C36 1_555 1_555
C37 N13 1_555 1_555
C38 O9 1_555 1_555
H34 C38 1_555 1_555
H35 C38 1_555 1_555
C39 N15 1_555 1_555
H36 C39 1_555 1_555
C40 N15 1_555 1_555
C41 C40 1_555 1_555
C42 C41 1_555 1_555
H37 C42 1_555 1_555
C43 C42 1_555 1_555
H38 C43 1_555 1_555
C44 C43 1_555 1_555
H39 C44 1_555 1_555
C45 N16 1_555 1_555
C46 N17 1_555 1_555
C47 N17 1_555 1_555
H40 C47 1_555 1_555
C48 O12 1_555 1_555
H41 C48 1_555 1_555
H42 C48 1_555 1_555
O13 H43 1_555 1_555
H44 O13 1_555 1_555
C1 C48 1_555 1_555
C4 C5 1_555 1_555
C5 C6 1_555 1_555
C12 C13 1_555 1_555
C13 C14 1_555 1_555
C20 C21 1_555 1_555
C21 C22 1_555 1_555
C28 C29 1_555 1_555
C29 C30 1_555 1_555
C36 C37 1_555 1_555
C37 C38 1_555 1_555
C44 C45 1_555 1_555
C45 C46 1_555 1_555

#END
