
#######################################################################
#
#                 Cambridge Crystallographic Data Centre
#                                CCDC 
#
#######################################################################
#
# If this CIF has been generated from an entry in the Cambridge 
# Structural Database, then it will include bibliographic, chemical, 
# crystal, experimental, refinement or atomic coordinate data resulting 
# from the CCDC's data processing and validation procedures.
#
#######################################################################

data_CACWIO
_chemical_formula_moiety         'C17 H16 Cl2 O6'
_chemical_name_systematic        
'Methyl 1-(dichloromethyl)-1-hydroxy-4-methyl-3,9-dioxo-2,3,4,4a,9,9a-hexahydro-1H-xanthene-2-carboxylate'
_symmetry_cell_setting           monoclinic
_symmetry_space_group_name_H-M   'C 2/c'
_symmetry_Int_Tables_number      15
_space_group_name_Hall           '-C 2yn'
loop_
_symmetry_equiv_pos_site_id
_symmetry_equiv_pos_as_xyz
1 x,y,z
2 -x,y,1/2-z
3 1/2+x,1/2+y,z
4 1/2-x,1/2+y,1/2-z
5 -x,-y,-z
6 x,-y,1/2+z
7 1/2-x,1/2-y,-z
8 1/2+x,1/2-y,1/2+z
_cell_length_a                   27.4384(10)
_cell_length_b                   5.6289(2)
_cell_length_c                   22.7063(8)
_cell_angle_alpha                90
_cell_angle_beta                 112.241(3)
_cell_angle_gamma                90
_cell_volume                     3246.03
_exptl_crystal_colour            colorless
_exptl_crystal_description       prism
_cell_formula_units_Z            8
loop_
_atom_site_label
_atom_site_type_symbol
_atom_site_fract_x
_atom_site_fract_y
_atom_site_fract_z
C1 C 0.11256(4) 0.38393(19) 0.07259(5)
H1 H 0.0899 0.5165 0.0475
C2 C 0.10578(4) 0.1702(2) 0.02763(5)
C3 C 0.13793(4) 0.1811(2) -0.01154(5)
C4 C 0.13187(5) 0.0089(2) -0.05873(6)
H2 H 0.1094 -0.1236 -0.0626
C5 C 0.15827(5) 0.0310(2) -0.09939(6)
H3 H 0.1545 -0.0871 -0.1307
C6 C 0.19045(5) 0.2272(3) -0.09441(6)
H4 H 0.2076 0.2447 -0.1235
C7 C 0.19792(5) 0.3972(2) -0.04781(6)
H5 H 0.2202 0.5299 -0.0445
C8 C 0.17223(4) 0.3704(2) -0.00583(5)
C9 C 0.17010(4) 0.46288(19) 0.09452(5)
H6 H 0.1935 0.3269 0.1161
C10 C 0.18366(4) 0.67608(19) 0.13887(5)
H7 H 0.1636 0.8143 0.1135
C11 C 0.16537(4) 0.64241(18) 0.19295(5)
C12 C 0.10970(4) 0.54572(19) 0.17602(5)
H8 H 0.0842 0.6759 0.1551
C13 C 0.09693(4) 0.33080(19) 0.12971(5)
C14 C 0.03694(4) 0.2669(2) 0.10448(6)
H9 H 0.0293 0.1584 0.0672
C15 C 0.10374(4) 0.4824(2) 0.23786(5)
C16 C 0.06297(5) 0.5745(3) 0.30886(6)
H10 H 0.0442 0.4226 0.3023
H11 H 0.0414 0.6993 0.3169
H12 H 0.0964 0.5616 0.3454
C17 C 0.24178(5) 0.7416(2) 0.16251(6)
H13 H 0.2477 0.8897 0.1869
H14 H 0.2522 0.7632 0.1261
H15 H 0.2628 0.6142 0.1898
Cl1 Cl -0.003401(11) 0.52357(5) 0.077907(14)
Cl2 Cl 0.019595(13) 0.11537(6) 0.162335(17)
O1 O 0.07542(4) 0.00712(16) 0.02274(4)
O2 O 0.12675(3) 0.13007(14) 0.16027(4)
O3 O 0.12502(4) 0.31291(16) 0.26980(4)
O4 O 0.07318(3) 0.63375(15) 0.25244(4)
O5 O 0.19109(3) 0.70473(16) 0.24679(4)
O6 O 0.18175(3) 0.53677(15) 0.04073(4)
H16 H 0.1297(7) 0.135(3) 0.1975(9)
loop_
_geom_bond_atom_site_label_1
_geom_bond_atom_site_label_2
_geom_bond_site_symmetry_1
_geom_bond_site_symmetry_2
C1 H1 1_555 1_555
C2 C1 1_555 1_555
C3 C2 1_555 1_555
C4 C3 1_555 1_555
H2 C4 1_555 1_555
C5 C4 1_555 1_555
H3 C5 1_555 1_555
C6 C5 1_555 1_555
H4 C6 1_555 1_555
C7 C6 1_555 1_555
H5 C7 1_555 1_555
C8 C3 1_555 1_555
C9 C1 1_555 1_555
H6 C9 1_555 1_555
C10 C9 1_555 1_555
H7 C10 1_555 1_555
C11 C10 1_555 1_555
C12 C11 1_555 1_555
H8 C12 1_555 1_555
C13 C1 1_555 1_555
C14 C13 1_555 1_555
H9 C14 1_555 1_555
C15 C12 1_555 1_555
C16 H10 1_555 1_555
H11 C16 1_555 1_555
H12 C16 1_555 1_555
C17 C10 1_555 1_555
H13 C17 1_555 1_555
H14 C17 1_555 1_555
H15 C17 1_555 1_555
Cl1 C14 1_555 1_555
Cl2 C14 1_555 1_555
O1 C2 1_555 1_555
O2 C13 1_555 1_555
O3 C15 1_555 1_555
O4 C15 1_555 1_555
O5 C11 1_555 1_555
O6 C8 1_555 1_555
H16 O2 1_555 1_555
C7 C8 1_555 1_555
C9 O6 1_555 1_555
C12 C13 1_555 1_555
C16 O4 1_555 1_555

#END
