
#######################################################################
#
#                 Cambridge Crystallographic Data Centre
#                                CCDC 
#
#######################################################################
#
# If this CIF has been generated from an entry in the Cambridge 
# Structural Database, then it will include bibliographic, chemical, 
# crystal, experimental, refinement or atomic coordinate data resulting 
# from the CCDC's data processing and validation procedures.
#
#######################################################################

data_CACWOU
_chemical_formula_moiety         'C18 H18 O8'
_chemical_name_systematic        
'2-Ethyl 1-methyl 1,3-dihydroxy-9-oxo-4,4a,9,9a-tetrahydro-1H-xanthene-1,2-dicarboxylate'
_symmetry_cell_setting           triclinic
_symmetry_space_group_name_H-M   'P -1'
_symmetry_Int_Tables_number      2
_space_group_name_Hall           '-P 1'
loop_
_symmetry_equiv_pos_site_id
_symmetry_equiv_pos_as_xyz
1 x,y,z
2 -x,-y,-z
_cell_length_a                   8.2989(6)
_cell_length_b                   10.1312(7)
_cell_length_c                   10.4773(7)
_cell_angle_alpha                86.560(5)
_cell_angle_beta                 83.809(5)
_cell_angle_gamma                70.127(5)
_cell_volume                     823.361
_exptl_crystal_colour            colorless
_exptl_crystal_description       prism
_cell_formula_units_Z            2
loop_
_atom_site_label
_atom_site_type_symbol
_atom_site_fract_x
_atom_site_fract_y
_atom_site_fract_z
C1 C 0.21725(15) 0.60148(12) 0.16701(12)
H1 H 0.2825 0.6687 0.1610
C2 C 0.34496(15) 0.45305(13) 0.16889(12)
C3 C 0.37666(16) 0.37548(13) 0.04888(12)
C4 C 0.47917(18) 0.23377(14) 0.04460(14)
H2 H 0.5239 0.1861 0.1207
C5 C 0.51593(18) 0.16263(15) -0.06839(15)
H3 H 0.5835 0.0658 -0.0702
C6 C 0.45311(18) 0.23385(16) -0.18027(15)
H4 H 0.4793 0.1849 -0.2585
C7 C 0.35362(17) 0.37409(15) -0.17959(14)
H5 H 0.3132 0.4220 -0.2568
C8 C 0.31336(15) 0.44436(14) -0.06416(13)
C9 C 0.11114(16) 0.62845(13) 0.05251(12)
H6 H 0.0258 0.5780 0.0677
C10 C 0.01599(18) 0.78343(14) 0.03701(14)
H7 H 0.0979 0.8312 0.0020
H8 H -0.0711 0.7986 -0.0249
C11 C -0.07051(17) 0.84521(13) 0.16194(14)
C12 C -0.04113(16) 0.77843(13) 0.27813(13)
C13 C 0.09156(15) 0.63140(12) 0.29022(12)
C14 C 0.19242(15) 0.61778(13) 0.40859(12)
C15 C -0.15104(17) 0.84623(14) 0.38989(14)
C16 C -0.2224(2) 0.82743(17) 0.61571(16)
H9 H -0.2392 0.7516 0.6739
H10 H -0.3371 0.8932 0.5974
C17 C -0.1279(3) 0.9038(3) 0.6795(2)
H11 H -0.0138 0.8388 0.6965
H12 H -0.1928 0.9415 0.7607
H13 H -0.1153 0.9811 0.6231
C18 C 0.37166(19) 0.70856(15) 0.50882(14)
H14 H 0.3049 0.7010 0.5903
H15 H 0.4012 0.7945 0.5071
H16 H 0.4774 0.6269 0.5005
O1 O 0.42053(12) 0.40396(10) 0.26296(9)
O2 O 0.01559(12) 0.52511(9) 0.29888(10)
O3 O -0.26016(14) 0.96437(11) 0.38700(11)
O4 O -0.12497(13) 0.76755(10) 0.49613(10)
O5 O -0.18532(14) 0.97349(11) 0.14785(12)
O6 O 0.21465(11) 0.58321(10) -0.06595(9)
O7 O 0.19746(12) 0.53305(10) 0.49477(9)
O8 O 0.27015(12) 0.71350(9) 0.40313(9)
H17 H -0.029(3) 0.521(2) 0.372(2)
H18 H -0.232(3) 0.997(2) 0.231(2)
loop_
_geom_bond_atom_site_label_1
_geom_bond_atom_site_label_2
_geom_bond_site_symmetry_1
_geom_bond_site_symmetry_2
C1 H1 1_555 1_555
C2 C1 1_555 1_555
C3 C2 1_555 1_555
C4 C3 1_555 1_555
H2 C4 1_555 1_555
C5 C4 1_555 1_555
H3 C5 1_555 1_555
C6 C5 1_555 1_555
H4 C6 1_555 1_555
C7 C6 1_555 1_555
H5 C7 1_555 1_555
C8 C3 1_555 1_555
C9 C1 1_555 1_555
H6 C9 1_555 1_555
C10 C9 1_555 1_555
H7 C10 1_555 1_555
H8 C10 1_555 1_555
C11 C10 1_555 1_555
C12 C11 1_555 1_555
C13 C1 1_555 1_555
C14 C13 1_555 1_555
C15 C12 1_555 1_555
C16 H9 1_555 1_555
H10 C16 1_555 1_555
C17 C16 1_555 1_555
H11 C17 1_555 1_555
H12 C17 1_555 1_555
H13 C17 1_555 1_555
C18 H14 1_555 1_555
H15 C18 1_555 1_555
H16 C18 1_555 1_555
O1 C2 1_555 1_555
O2 C13 1_555 1_555
O3 C15 1_555 1_555
O4 C15 1_555 1_555
O5 C11 1_555 1_555
O6 C8 1_555 1_555
O7 C14 1_555 1_555
O8 C14 1_555 1_555
H17 O2 1_555 1_555
H18 O5 1_555 1_555
C7 C8 1_555 1_555
C9 O6 1_555 1_555
C12 C13 1_555 1_555
C16 O4 1_555 1_555
C18 O8 1_555 1_555

#END
