
#######################################################################
#
#                 Cambridge Crystallographic Data Centre
#                                CCDC 
#
#######################################################################
#
# If this CIF has been generated from an entry in the Cambridge 
# Structural Database, then it will include bibliographic, chemical, 
# crystal, experimental, refinement or atomic coordinate data resulting 
# from the CCDC's data processing and validation procedures.
#
#######################################################################

data_CACXIQ
_chemical_formula_moiety         'C20 H19 N3 O4'
_chemical_name_systematic        
4-(4-methoxyphenyl)-3-methyl-5-nitro-1-phenyl-1,4,5,6-tetrahydropyrano[2,3-c]pyrazole
_symmetry_cell_setting           orthorhombic
_symmetry_space_group_name_H-M   'P 21 21 21'
_symmetry_Int_Tables_number      19
_space_group_name_Hall           'P 2ac 2ab'
loop_
_symmetry_equiv_pos_site_id
_symmetry_equiv_pos_as_xyz
1 x,y,z
2 1/2-x,-y,1/2+z
3 -x,1/2+y,1/2-z
4 1/2+x,1/2-y,-z
_cell_length_a                   11.4288(7)
_cell_length_b                   11.6975(7)
_cell_length_c                   13.6633(8)
_cell_angle_alpha                90
_cell_angle_beta                 90
_cell_angle_gamma                90
_cell_volume                     1826.62
_exptl_crystal_colour            colorless
_exptl_crystal_description       block
_cell_formula_units_Z            4
loop_
_atom_site_label
_atom_site_type_symbol
_atom_site_fract_x
_atom_site_fract_y
_atom_site_fract_z
O1 O 0.10739(13) 0.31444(14) 0.25779(11)
O2 O -0.0126(2) 0.10888(16) 0.37260(18)
O3 O -0.13160(19) 0.10954(17) 0.25053(15)
O4 O -0.31990(15) 0.72866(14) 0.53160(13)
N1 N 0.25086(15) 0.35445(15) 0.37968(12)
N2 N 0.25435(16) 0.37760(14) 0.47923(12)
N3 N -0.07754(18) 0.15703(17) 0.31584(16)
C1 C 0.13856(18) 0.33781(18) 0.35165(14)
C2 C 0.06730(18) 0.34780(18) 0.43087(14)
C3 C -0.06283(18) 0.33075(18) 0.42617(15)
H1 H -0.0844 0.2718 0.4738
C4 C -0.0920(2) 0.28607(18) 0.32320(17)
H2 H -0.1737 0.3050 0.3087
C5 C -0.0152(2) 0.3375(2) 0.24316(17)
H3 H -0.0391 0.3067 0.1803
H4 H -0.0272 0.4196 0.2414
C6 C 0.14356(19) 0.37354(17) 0.50865(14)
C7 C 0.1114(2) 0.3940(2) 0.61285(17)
H5 H 0.0792 0.3253 0.6403
H6 H 0.0544 0.4541 0.6164
H7 H 0.1799 0.4158 0.6490
C8 C -0.13165(18) 0.43911(17) 0.44981(14)
C9 C -0.0915(2) 0.54648(19) 0.42417(17)
H8 H -0.0218 0.5529 0.3894
C10 C -0.1524(2) 0.64512(19) 0.44892(17)
H9 H -0.1237 0.7164 0.4307
C11 C -0.25507(19) 0.63681(17) 0.50031(15)
C12 C -0.2978(2) 0.53063(19) 0.52498(18)
H10 H -0.3683 0.5246 0.5587
C13 C -0.2368(2) 0.43283(17) 0.50004(17)
H11 H -0.2667 0.3617 0.5173
C14 C -0.2702(3) 0.8396(2) 0.5201(2)
H12 H -0.1963 0.8427 0.5534
H13 H -0.3221 0.8957 0.5473
H14 H -0.2587 0.8550 0.4517
C15 C 0.35587(19) 0.35421(19) 0.32417(15)
C16 C 0.3663(2) 0.2859(2) 0.24219(17)
H15 H 0.3050 0.2386 0.2231
C17 C 0.4691(3) 0.2886(3) 0.18873(19)
H16 H 0.4765 0.2431 0.1333
C18 C 0.5602(2) 0.3576(3) 0.21666(19)
H17 H 0.6285 0.3596 0.1798
C19 C 0.5501(2) 0.4236(3) 0.2992(2)
H18 H 0.6124 0.4693 0.3188
C20 C 0.4480(2) 0.4226(2) 0.35339(19)
H19 H 0.4414 0.4677 0.4092
loop_
_geom_bond_atom_site_label_1
_geom_bond_atom_site_label_2
_geom_bond_site_symmetry_1
_geom_bond_site_symmetry_2
O1 C1 1_555 1_555
O2 N3 1_555 1_555
O3 N3 1_555 1_555
O4 C11 1_555 1_555
N1 N2 1_555 1_555
N2 C6 1_555 1_555
N3 C4 1_555 1_555
C1 N1 1_555 1_555
C2 C1 1_555 1_555
C3 C2 1_555 1_555
H1 C3 1_555 1_555
C4 C3 1_555 1_555
H2 C4 1_555 1_555
C5 O1 1_555 1_555
H3 C5 1_555 1_555
H4 C5 1_555 1_555
C6 C2 1_555 1_555
C7 C6 1_555 1_555
H5 C7 1_555 1_555
H6 C7 1_555 1_555
H7 C7 1_555 1_555
C8 C3 1_555 1_555
C9 C8 1_555 1_555
H8 C9 1_555 1_555
C10 C9 1_555 1_555
H9 C10 1_555 1_555
C11 C10 1_555 1_555
C12 C11 1_555 1_555
H10 C12 1_555 1_555
C13 C8 1_555 1_555
H11 C13 1_555 1_555
C14 O4 1_555 1_555
H12 C14 1_555 1_555
H13 C14 1_555 1_555
H14 C14 1_555 1_555
C15 N1 1_555 1_555
C16 C15 1_555 1_555
H15 C16 1_555 1_555
C17 C16 1_555 1_555
H16 C17 1_555 1_555
C18 C17 1_555 1_555
H17 C18 1_555 1_555
C19 C18 1_555 1_555
H18 C19 1_555 1_555
C20 C15 1_555 1_555
H19 C20 1_555 1_555
C4 C5 1_555 1_555
C12 C13 1_555 1_555
C19 C20 1_555 1_555

#END
