
#######################################################################
#
#                 Cambridge Crystallographic Data Centre
#                                CCDC 
#
#######################################################################
#
# If this CIF has been generated from an entry in the Cambridge 
# Structural Database, then it will include bibliographic, chemical, 
# crystal, experimental, refinement or atomic coordinate data resulting 
# from the CCDC's data processing and validation procedures.
#
#######################################################################

data_CACXAH
_chemical_formula_moiety         'C23 H20 O8'
_chemical_name_systematic        
'2-Benzyl 1-methyl 1,3-dihydroxy-9-oxo-4,4a,9,9a-tetrahydro-1H-xanthene-1,2-dicarboxylate'
_symmetry_cell_setting           triclinic
_symmetry_space_group_name_H-M   'P -1'
_symmetry_Int_Tables_number      2
_space_group_name_Hall           '-P 1'
loop_
_symmetry_equiv_pos_site_id
_symmetry_equiv_pos_as_xyz
1 x,y,z
2 -x,-y,-z
_cell_length_a                   7.9176(4)
_cell_length_b                   11.1261(6)
_cell_length_c                   11.5814(7)
_cell_angle_alpha                89.052(5)
_cell_angle_beta                 80.895(4)
_cell_angle_gamma                77.206(4)
_cell_volume                     982.182
_exptl_crystal_colour            colorless
_exptl_crystal_description       prism
_cell_formula_units_Z            2
loop_
_atom_site_label
_atom_site_type_symbol
_atom_site_fract_x
_atom_site_fract_y
_atom_site_fract_z
C1 C 0.23877(16) -0.06932(12) 0.53009(11)
C2 C 0.24694(17) -0.13355(13) 0.63410(12)
H1 H 0.2499 -0.0922 0.7046
C3 C 0.25060(18) -0.25783(13) 0.63310(13)
H2 H 0.2558 -0.3019 0.7038
C4 C 0.24682(19) -0.32008(13) 0.53093(13)
H3 H 0.2523 -0.4063 0.5313
C5 C 0.23498(19) -0.25525(12) 0.42892(13)
H4 H 0.2302 -0.2970 0.3590
C6 C 0.22996(17) -0.12889(12) 0.42713(11)
C7 C 0.20164(17) -0.05685(11) 0.32077(11)
C8 C 0.21943(16) 0.07563(11) 0.32465(10)
H5 H 0.0989 0.1299 0.3362
C9 C 0.32205(16) 0.11241(11) 0.20956(10)
C10 C 0.34718(16) 0.24324(11) 0.22305(11)
C11 C 0.33034(17) 0.29764(11) 0.32938(11)
C12 C 0.28781(19) 0.23698(12) 0.44294(11)
H6 H 0.1654 0.2734 0.4787
H7 H 0.3661 0.2521 0.4972
C13 C 0.30971(17) 0.10033(11) 0.42546(10)
H8 H 0.4375 0.0608 0.4073
C14 C 0.22049(17) 0.10229(11) 0.10798(11)
C15 C -0.0467(2) 0.17844(14) 0.03772(13)
H9 H 0.0208 0.1845 -0.0399
H10 H -0.1476 0.2486 0.0513
H11 H -0.0881 0.1015 0.0421
C16 C 0.40715(16) 0.30899(11) 0.12060(11)
C17 C 0.49379(18) 0.30035(12) -0.08766(11)
H12 H 0.5832 0.2411 -0.1406
H13 H 0.5440 0.3716 -0.0731
C18 C 0.33258(18) 0.34273(11) -0.14320(11)
C19 C 0.28044(19) 0.26193(12) -0.21306(11)
H14 H 0.3506 0.1811 -0.2287
C20 C 0.1277(2) 0.29785(13) -0.26000(12)
H15 H 0.0918 0.2415 -0.3065
C21 C 0.0273(2) 0.41592(14) -0.23917(14)
H16 H -0.0770 0.4413 -0.2723
C22 C 0.0782(2) 0.49720(13) -0.17040(15)
H17 H 0.0090 0.5785 -0.1562
C23 C 0.2296(2) 0.46059(12) -0.12215(13)
H18 H 0.2634 0.5166 -0.0741
O1 O 0.23544(12) 0.05393(8) 0.53415(7)
O2 O 0.15871(13) -0.09884(8) 0.23664(8)
O3 O 0.48494(12) 0.02602(8) 0.18936(8)
O4 O 0.27703(12) 0.03504(8) 0.02438(8)
O5 O 0.06396(12) 0.17959(8) 0.12610(8)
O6 O 0.42357(14) 0.41632(8) 0.12367(8)
O7 O 0.44612(12) 0.24105(8) 0.02334(7)
O8 O 0.35324(13) 0.41141(8) 0.34458(9)
H19 H 0.526(2) 0.0219(15) 0.1189(16)
H20 H 0.381(2) 0.4376(17) 0.2687(17)
loop_
_geom_bond_atom_site_label_1
_geom_bond_atom_site_label_2
_geom_bond_site_symmetry_1
_geom_bond_site_symmetry_2
C1 C2 1_555 1_555
C2 H1 1_555 1_555
C3 C2 1_555 1_555
H2 C3 1_555 1_555
C4 C3 1_555 1_555
H3 C4 1_555 1_555
C5 C4 1_555 1_555
H4 C5 1_555 1_555
C6 C1 1_555 1_555
C7 C6 1_555 1_555
C8 C7 1_555 1_555
H5 C8 1_555 1_555
C9 C8 1_555 1_555
C10 C9 1_555 1_555
C11 C10 1_555 1_555
C12 C11 1_555 1_555
H6 C12 1_555 1_555
H7 C12 1_555 1_555
C13 C8 1_555 1_555
H8 C13 1_555 1_555
C14 C9 1_555 1_555
C15 H9 1_555 1_555
H10 C15 1_555 1_555
H11 C15 1_555 1_555
C16 C10 1_555 1_555
C17 H12 1_555 1_555
H13 C17 1_555 1_555
C18 C17 1_555 1_555
C19 C18 1_555 1_555
H14 C19 1_555 1_555
C20 C19 1_555 1_555
H15 C20 1_555 1_555
C21 C20 1_555 1_555
H16 C21 1_555 1_555
C22 C21 1_555 1_555
H17 C22 1_555 1_555
C23 C18 1_555 1_555
H18 C23 1_555 1_555
O1 C1 1_555 1_555
O2 C7 1_555 1_555
O3 C9 1_555 1_555
O4 C14 1_555 1_555
O5 C14 1_555 1_555
O6 C16 1_555 1_555
O7 C16 1_555 1_555
O8 C11 1_555 1_555
H19 O3 1_555 1_555
H20 O8 1_555 1_555
C5 C6 1_555 1_555
C12 C13 1_555 1_555
C13 O1 1_555 1_555
C15 O5 1_555 1_555
C17 O7 1_555 1_555
C22 C23 1_555 1_555

#END
