
#######################################################################
#
#                 Cambridge Crystallographic Data Centre
#                                CCDC 
#
#######################################################################
#
# If this CIF has been generated from an entry in the Cambridge 
# Structural Database, then it will include bibliographic, chemical, 
# crystal, experimental, refinement or atomic coordinate data resulting 
# from the CCDC's data processing and validation procedures.
#
#######################################################################

data_CACXEL
_chemical_formula_moiety         'C20 H19 Cl1 O7'
_chemical_name_systematic        
'Dimethyl 4-(3-chloropropyl)-3-hydroxy-6-(2-hydroxybenzoyl)phthalate'
_symmetry_cell_setting           monoclinic
_symmetry_space_group_name_H-M   'P 21/n'
_symmetry_Int_Tables_number      14
_space_group_name_Hall           '-P 2yn'
loop_
_symmetry_equiv_pos_site_id
_symmetry_equiv_pos_as_xyz
1 x,y,z
2 1/2-x,1/2+y,1/2-z
3 -x,-y,-z
4 1/2+x,1/2-y,1/2+z
_cell_length_a                   9.7224(3)
_cell_length_b                   8.1879(2)
_cell_length_c                   23.1457(8)
_cell_angle_alpha                90
_cell_angle_beta                 95.519(3)
_cell_angle_gamma                90
_cell_volume                     1834
_exptl_crystal_colour            'light yellow'
_exptl_crystal_description       prism
_cell_formula_units_Z            4
loop_
_atom_site_label
_atom_site_type_symbol
_atom_site_fract_x
_atom_site_fract_y
_atom_site_fract_z
C1 C 0.76816(12) 0.25564(15) 0.38823(5)
C2 C 0.86717(13) 0.19611(16) 0.43042(5)
H1 H 0.8601 0.2194 0.4702
C3 C 0.97539(13) 0.10347(16) 0.41442(6)
H2 H 1.0418 0.0618 0.4435
C4 C 0.98911(12) 0.06993(15) 0.35624(6)
H3 H 1.0651 0.0074 0.3456
C5 C 0.89153(12) 0.12827(14) 0.31435(5)
H4 H 0.9005 0.1049 0.2747
C6 C 0.77861(12) 0.22195(14) 0.32905(5)
C7 C 0.66765(12) 0.27449(14) 0.28576(5)
C8 C 0.66967(12) 0.23368(14) 0.22297(5)
C9 C 0.55434(12) 0.16133(14) 0.19344(5)
C10 C 0.54900(12) 0.13643(14) 0.13308(5)
C11 C 0.65658(13) 0.19864(14) 0.10284(5)
C12 C 0.77209(12) 0.27518(14) 0.13239(5)
C13 C 0.77807(12) 0.28788(14) 0.19202(5)
H5 H 0.8577 0.3346 0.2126
C14 C 0.43648(12) 0.11439(14) 0.22741(5)
C15 C 0.20181(13) 0.15484(18) 0.23810(7)
H6 H 0.1755 0.0424 0.2275
H7 H 0.1258 0.2288 0.2252
H8 H 0.2217 0.1628 0.2803
C16 C 0.43573(12) 0.04657(14) 0.09977(5)
C17 C 0.24731(13) -0.13329(16) 0.10103(6)
H9 H 0.1806 -0.0545 0.0829
H10 H 0.2022 -0.2018 0.1283
H11 H 0.2818 -0.2022 0.0710
C18 C 0.88302(13) 0.34492(15) 0.09860(5)
H12 H 0.9406 0.4212 0.1238
H13 H 0.8392 0.4080 0.0653
C19 C 0.97583(13) 0.21332(16) 0.07611(6)
H14 H 1.0311 0.1625 0.1095
H15 H 0.9170 0.1272 0.0565
C20 C 1.07235(14) 0.27798(17) 0.03433(6)
H16 H 1.0176 0.3288 0.0008
H17 H 1.1253 0.1861 0.0196
O1 O 0.66227(10) 0.34201(12) 0.40624(4)
O2 O 0.56691(9) 0.35216(11) 0.30020(4)
O3 O 0.44564(9) 0.01574(11) 0.26599(4)
O4 O 0.32344(8) 0.19975(10) 0.21045(4)
O5 O 0.41410(10) 0.05336(12) 0.04715(4)
O6 O 0.36167(9) -0.04664(11) 0.13185(4)
O7 O 0.65623(10) 0.18862(12) 0.04499(4)
Cl1 Cl 1.19038(4) 0.42576(5) 0.067964(19)
H18 H 0.6091(19) 0.360(2) 0.3744(9)
H19 H 0.580(2) 0.139(2) 0.0306(9)
loop_
_geom_bond_atom_site_label_1
_geom_bond_atom_site_label_2
_geom_bond_site_symmetry_1
_geom_bond_site_symmetry_2
C1 C2 1_555 1_555
C2 H1 1_555 1_555
C3 C2 1_555 1_555
H2 C3 1_555 1_555
C4 C3 1_555 1_555
H3 C4 1_555 1_555
C5 C4 1_555 1_555
H4 C5 1_555 1_555
C6 C1 1_555 1_555
C7 C6 1_555 1_555
C8 C7 1_555 1_555
C9 C8 1_555 1_555
C10 C9 1_555 1_555
C11 C10 1_555 1_555
C12 C11 1_555 1_555
C13 C8 1_555 1_555
H5 C13 1_555 1_555
C14 C9 1_555 1_555
C15 H6 1_555 1_555
H7 C15 1_555 1_555
H8 C15 1_555 1_555
C16 C10 1_555 1_555
C17 H9 1_555 1_555
H10 C17 1_555 1_555
H11 C17 1_555 1_555
C18 C12 1_555 1_555
H12 C18 1_555 1_555
H13 C18 1_555 1_555
C19 C18 1_555 1_555
H14 C19 1_555 1_555
H15 C19 1_555 1_555
C20 C19 1_555 1_555
H16 C20 1_555 1_555
H17 C20 1_555 1_555
O1 C1 1_555 1_555
O2 C7 1_555 1_555
O3 C14 1_555 1_555
O4 C14 1_555 1_555
O5 C16 1_555 1_555
O6 C16 1_555 1_555
O7 C11 1_555 1_555
Cl1 C20 1_555 1_555
H18 O1 1_555 1_555
H19 O7 1_555 1_555
C5 C6 1_555 1_555
C12 C13 1_555 1_555
C15 O4 1_555 1_555
C17 O6 1_555 1_555

#END
