
#######################################################################
#
#                 Cambridge Crystallographic Data Centre
#                                CCDC 
#
#######################################################################
#
# If this CIF has been generated from an entry in the Cambridge 
# Structural Database, then it will include bibliographic, chemical, 
# crystal, experimental, refinement or atomic coordinate data resulting 
# from the CCDC's data processing and validation procedures.
#
#######################################################################

data_CADBAN
_chemical_formula_moiety         'C20 H18 Cl1 N3 O4'
_chemical_name_systematic        
'(E)-methyl (2-(((1-(4-chlorophenyl)-1H-pyrazol-3-yl)oxy)methyl)phenyl)(methoxyimino)acetate'
_symmetry_cell_setting           monoclinic
_symmetry_space_group_name_H-M   'P 21/c'
_symmetry_Int_Tables_number      14
_space_group_name_Hall           '-P 2ybc'
loop_
_symmetry_equiv_pos_site_id
_symmetry_equiv_pos_as_xyz
1 x,y,z
2 -x,1/2+y,1/2-z
3 -x,-y,-z
4 x,1/2-y,1/2+z
_cell_length_a                   11.868(2)
_cell_length_b                   7.6930(15)
_cell_length_c                   21.303(4)
_cell_angle_alpha                90
_cell_angle_beta                 92.26(3)
_cell_angle_gamma                90
_cell_volume                     1943.46
_exptl_crystal_colour            colorless
_exptl_crystal_description       plate
_cell_formula_units_Z            4
loop_
_atom_site_label
_atom_site_type_symbol
_atom_site_fract_x
_atom_site_fract_y
_atom_site_fract_z
Cl1 Cl 1.00938(8) 0.25962(19) 0.21948(5)
C1 C 0.3581(3) 0.3062(5) 0.52109(14)
N1 N 0.1800(3) 0.6033(5) 0.47491(14)
O1 O 0.0338(3) 0.4248(6) 0.40412(16)
N2 N 0.5387(2) 0.1956(4) 0.29585(12)
O2 O 0.0914(2) 0.1819(4) 0.45304(12)
C2 C 0.4223(3) 0.2248(5) 0.56851(18)
H1 H 0.4971 0.1973 0.5617
N3 N 0.5118(2) 0.2609(4) 0.35356(11)
O3 O 0.2628(2) 0.6824(4) 0.51258(13)
C3 C 0.3783(3) 0.1845(5) 0.62458(17)
H2 H 0.4239 0.1341 0.6561
O4 O 0.34944(18) 0.2444(4) 0.41145(11)
C4 C 0.2680(3) 0.2172(5) 0.63501(16)
H3 H 0.2375 0.1847 0.6728
C5 C 0.2012(3) 0.2990(5) 0.58911(15)
H4 H 0.1262 0.3242 0.5965
C6 C 0.2461(3) 0.3430(5) 0.53242(14)
C7 C 0.1751(3) 0.4399(5) 0.48520(15)
C8 C 0.0922(3) 0.3472(6) 0.44336(16)
C9 C 0.0224(4) 0.0776(7) 0.4095(2)
H5 H 0.0276 -0.0425 0.4214
H6 H 0.0489 0.0915 0.3677
H7 H -0.0546 0.1150 0.4104
C10 C 0.2665(4) 0.8604(7) 0.5010(3)
H8 H 0.3248 0.9124 0.5272
H9 H 0.1952 0.9116 0.5100
H10 H 0.2822 0.8799 0.4576
C11 C 0.4081(3) 0.3457(6) 0.45924(15)
H11 H 0.4004 0.4686 0.4498
H12 H 0.4877 0.3165 0.4608
C12 C 0.4071(3) 0.2124(5) 0.35964(15)
C13 C 0.3633(3) 0.1197(6) 0.30708(17)
H13 H 0.2913 0.0736 0.3007
C14 C 0.4502(3) 0.1132(5) 0.26801(16)
H14 H 0.4490 0.0607 0.2287
C15 C 0.6514(3) 0.2111(4) 0.27639(14)
C16 C 0.6842(3) 0.1384(6) 0.22121(16)
H15 H 0.6315 0.0807 0.1953
C17 C 0.7940(3) 0.1500(6) 0.20388(19)
H16 H 0.8171 0.0949 0.1677
C18 C 0.8697(3) 0.2446(5) 0.24092(17)
C19 C 0.8373(3) 0.3184(6) 0.29532(16)
H17 H 0.8894 0.3803 0.3203
C20 C 0.7284(3) 0.3023(5) 0.31364(15)
H18 H 0.7066 0.3525 0.3510
loop_
_geom_bond_atom_site_label_1
_geom_bond_atom_site_label_2
_geom_bond_site_symmetry_1
_geom_bond_site_symmetry_2
Cl1 C18 1_555 1_555
C1 C2 1_555 1_555
N1 O3 1_555 1_555
O1 C8 1_555 1_555
N2 N3 1_555 1_555
O2 C8 1_555 1_555
C2 H1 1_555 1_555
N3 C12 1_555 1_555
O3 C10 1_555 1_555
C3 C2 1_555 1_555
H2 C3 1_555 1_555
O4 C11 1_555 1_555
C4 C3 1_555 1_555
H3 C4 1_555 1_555
C5 C4 1_555 1_555
H4 C5 1_555 1_555
C6 C1 1_555 1_555
C7 N1 1_555 1_555
C8 C7 1_555 1_555
C9 O2 1_555 1_555
H5 C9 1_555 1_555
H6 C9 1_555 1_555
H7 C9 1_555 1_555
C10 H8 1_555 1_555
H9 C10 1_555 1_555
H10 C10 1_555 1_555
C11 C1 1_555 1_555
H11 C11 1_555 1_555
H12 C11 1_555 1_555
C12 O4 1_555 1_555
C13 C12 1_555 1_555
H13 C13 1_555 1_555
C14 N2 1_555 1_555
H14 C14 1_555 1_555
C15 N2 1_555 1_555
C16 C15 1_555 1_555
H15 C16 1_555 1_555
C17 C16 1_555 1_555
H16 C17 1_555 1_555
C18 C17 1_555 1_555
C19 C18 1_555 1_555
H17 C19 1_555 1_555
C20 C15 1_555 1_555
H18 C20 1_555 1_555
C5 C6 1_555 1_555
C6 C7 1_555 1_555
C13 C14 1_555 1_555
C19 C20 1_555 1_555

#END
