
#######################################################################
#
#                 Cambridge Crystallographic Data Centre
#                                CCDC 
#
#######################################################################
#
# If this CIF has been generated from an entry in the Cambridge 
# Structural Database, then it will include bibliographic, chemical, 
# crystal, experimental, refinement or atomic coordinate data resulting 
# from the CCDC's data processing and validation procedures.
#
#######################################################################

data_CADFEV
_chemical_formula_moiety         
'C108 H108 N12 O8,C6 H6,5(C2 H6 O1),2(C1 H2 Cl2)'
_chemical_name_systematic        
"2,8,14,20-tetrahexyl-4,24:6,10:12,16:18,22-O,O'-tetrakis(2-(3,5-dimethylpyridin-4-yl)-1H-benzimidazole-5,6-diyl)calix[4]resorcinarene cavitand benzene dichloromethane ethanol solvate"
_symmetry_cell_setting           monoclinic
_symmetry_space_group_name_H-M   'P 21/c'
_symmetry_Int_Tables_number      14
_space_group_name_Hall           '-P 2ybc'
loop_
_symmetry_equiv_pos_site_id
_symmetry_equiv_pos_as_xyz
1 x,y,z
2 -x,1/2+y,1/2-z
3 -x,-y,-z
4 x,1/2-y,1/2+z
_cell_length_a                   16.7626(6)
_cell_length_b                   39.1349(16)
_cell_length_c                   24.1277(8)
_cell_angle_alpha                90
_cell_angle_beta                 131.400(2)
_cell_angle_gamma                90
_cell_volume                     11872.6
_exptl_crystal_colour            yellow
_exptl_crystal_description       plate
_cell_formula_units_Z            4
loop_
_atom_site_label
_atom_site_type_symbol
_atom_site_fract_x
_atom_site_fract_y
_atom_site_fract_z
O1 O 0.6417(3) 0.19527(11) 0.3727(2)
O2 O 0.3921(3) 0.19272(11) 0.4078(2)
O3 O 0.8557(3) 0.19647(10) 0.4638(2)
C1 C 0.6857(6) 0.39783(19) 0.3854(4)
C2 C 0.8015(5) 0.37655(18) 0.8002(4)
C3 C 0.8622(6) 0.39715(19) 0.8637(4)
C4 C 0.8160(7) 0.3929(2) 0.5181(5)
C5 C 0.9464(6) 0.3835(2) 0.9405(4)
H1 H 0.9512 0.3592 0.9386
H2 H 1.0137 0.3937 0.9622
H3 H 0.9283 0.3890 0.9698
O4 O 1.1648(3) 0.19583(11) 0.8438(2)
C6 C 0.8011(6) 0.09802(18) 0.7826(4)
H4 H 0.7981 0.0910 0.7427
H5 H 0.7355 0.0905 0.7698
C7 C 1.1435(6) 0.08531(18) 0.7313(5)
H6 H 1.1145 0.0952 0.6844
H7 H 1.2153 0.0940 0.7683
C8 C 1.0838(7) 0.43267(19) 0.7840(4)
H8 H 1.0377 0.4453 0.7849
C9 C 1.3003(6) 0.37845(19) 0.7829(4)
H9 H 1.2903 0.3542 0.7803
H10 H 1.2913 0.3859 0.7412
H11 H 1.3707 0.3841 0.8277
C10 C 0.4008(6) 0.37469(19) 0.4691(4)
C11 C 0.3243(6) 0.3912(2) 0.4672(4)
C12 C 0.6079(7) 0.3841(2) 0.3100(4)
H12 H 0.6060 0.3597 0.3121
H13 H 0.5388 0.3932 0.2865
H14 H 0.6279 0.3905 0.2823
N1 N 0.7715(9) 0.4482(2) 0.4610(5)
C13 C 0.7012(9) 0.4333(2) 0.3951(6)
H15 H 0.6602 0.4472 0.3534
C14 C 0.7469(6) 0.37710(19) 0.4495(4)
C15 C 0.7423(6) 0.33980(18) 0.4432(4)
N2 N 0.6559(5) 0.32042(14) 0.4039(3)
C16 C 0.6915(5) 0.28682(16) 0.4135(3)
C17 C 0.6349(5) 0.25660(16) 0.3829(3)
H16 H 0.5611 0.2562 0.3508
C18 C 0.6932(5) 0.22697(16) 0.4022(3)
C19 C 0.6084(5) 0.18085(16) 0.4074(3)
C20 C 0.5180(5) 0.19380(16) 0.3915(3)
H17 H 0.4803 0.2118 0.3583
C21 C 0.4852(5) 0.17966(16) 0.4255(3)
C22 C 0.5348(5) 0.15134(16) 0.4717(3)
C23 C 0.4918(5) 0.13564(15) 0.5054(3)
H18 H 0.4173 0.1428 0.4737
C24 C 0.5481(5) 0.15155(15) 0.5808(3)
C25 C 0.5065(5) 0.17923(16) 0.5891(3)
C26 C 0.5568(5) 0.19374(16) 0.6578(3)
H19 H 0.5258 0.2120 0.6624
C27 C 0.6529(5) 0.18075(16) 0.7189(3)
O5 O 0.7018(3) 0.19540(11) 0.7882(2)
C28 C 0.7516(5) 0.22697(16) 0.8008(3)
C29 C 0.6941(5) 0.25622(16) 0.7716(3)
H20 H 0.6204 0.2562 0.7413
C30 C 0.7515(5) 0.28656(16) 0.7894(3)
N3 N 0.7183(4) 0.31982(14) 0.7708(3)
H21 H 0.6537 0.3270 0.7424
C31 C 0.8077(5) 0.33928(18) 0.8062(3)
C32 C 0.8443(7) 0.4324(2) 0.8559(5)
H22 H 0.8865 0.4460 0.8979
C33 C 0.7176(8) 0.4279(2) 0.7305(6)
H23 H 0.6699 0.4387 0.6848
C34 C 0.8275(9) 0.4286(2) 0.5210(6)
H24 H 0.8764 0.4390 0.5670
N4 N 0.8320(4) 0.32068(13) 0.4782(3)
H25 H 0.8960 0.3284 0.5066
C35 C 0.8027(5) 0.28712(16) 0.4603(3)
C36 C 0.4050(5) 0.22381(16) 0.4407(3)
C37 C 0.4102(5) 0.22390(17) 0.5014(3)
O6 O 0.4069(3) 0.19227(11) 0.5272(2)
C38 C 0.6458(5) 0.13849(16) 0.6450(3)
H26 H 0.6755 0.1198 0.6405
C39 C 0.7000(5) 0.15231(16) 0.7152(3)
C40 C 0.7297(6) 0.3926(2) 0.7309(4)
C41 C 0.6727(7) 0.3734(3) 0.6595(5)
H27 H 0.6897 0.3496 0.6699
H28 H 0.5973 0.3764 0.6290
H29 H 0.6946 0.3820 0.6341
N5 N 0.8957(4) 0.32030(14) 0.8462(3)
C42 C 0.8618(5) 0.28691(17) 0.8362(3)
C43 C 0.9196(5) 0.25658(16) 0.8677(3)
H30 H 0.9935 0.2565 0.9004
C44 C 0.8632(5) 0.22687(17) 0.8488(3)
O7 O 0.9156(3) 0.19540(12) 0.8787(2)
C45 C 0.9502(5) 0.18102(17) 0.8448(3)
C46 C 1.0389(5) 0.19534(17) 0.8600(3)
H31 H 1.0740 0.2137 0.8923
C47 C 1.0736(5) 0.18209(16) 0.8271(3)
C48 C 1.1496(4) 0.22719(16) 0.8112(3)
C49 C 1.1442(4) 0.22789(16) 0.7498(3)
O8 O 1.1503(3) 0.19649(11) 0.7253(2)
C50 C 1.0525(5) 0.18203(16) 0.6633(3)
C51 C 1.0010(5) 0.19647(16) 0.5948(3)
H32 H 1.0297 0.2153 0.5898
C52 C 0.9054(5) 0.18220(15) 0.5335(3)
C53 C 0.8037(5) 0.22765(15) 0.4500(3)
C54 C 0.8612(5) 0.25738(15) 0.4790(3)
H33 H 0.9349 0.2576 0.5093
C55 C 0.8621(5) 0.15313(16) 0.5382(3)
C56 C 0.9179(5) 0.13968(16) 0.6086(3)
H34 H 0.8903 0.1205 0.6136
C57 C 1.0144(5) 0.15354(16) 0.6730(3)
C58 C 1.0726(5) 0.13814(16) 0.7495(3)
H35 H 1.1463 0.1462 0.7811
C59 C 1.0268(5) 0.15286(16) 0.7813(3)
C60 C 0.9394(5) 0.13932(17) 0.7690(3)
H36 H 0.9058 0.1203 0.7385
C61 C 0.8997(5) 0.15268(16) 0.7998(3)
C62 C 0.8027(5) 0.13721(17) 0.7846(3)
H37 H 0.8076 0.1439 0.8259
C63 C 1.0775(5) 0.09881(16) 0.7501(4)
H38 H 1.1085 0.0906 0.7986
H39 H 1.0058 0.0898 0.7146
C64 C 0.7596(5) 0.13755(15) 0.4690(3)
H40 H 0.7541 0.1442 0.4274
C65 C 0.6631(5) 0.15262(16) 0.4543(3)
C66 C 0.6244(5) 0.13870(17) 0.4856(3)
H41 H 0.6598 0.1201 0.5172
C67 C 0.4912(6) 0.09649(16) 0.5062(4)
H42 H 0.4535 0.0882 0.4565
H43 H 0.5639 0.0883 0.5373
C68 C 0.4399(5) 0.08172(19) 0.5341(4)
H44 H 0.4791 0.0895 0.5843
H45 H 0.4455 0.0570 0.5353
C69 C 0.3224(6) 0.0915(3) 0.4871(4)
H46 H 0.2844 0.0845 0.4365
H47 H 0.3177 0.1162 0.4874
C70 C 0.2653(8) 0.0760(3) 0.5115(5)
H48 H 0.1901 0.0814 0.4743
H49 H 0.2722 0.0513 0.5131
C71 C 0.7618(5) 0.09864(16) 0.4716(4)
H50 H 0.7636 0.0911 0.5107
H51 H 0.8261 0.0906 0.4831
C72 C 0.6636(6) 0.08269(18) 0.3972(4)
H52 H 0.5991 0.0917 0.3841
H53 H 0.6640 0.0891 0.3585
C73 C 1.1382(5) 0.25760(16) 0.7178(3)
H54 H 1.1347 0.2575 0.6777
C74 C 1.1376(5) 0.28811(16) 0.7474(3)
N6 N 1.1355(4) 0.32181(13) 0.7291(3)
C75 C 1.1407(5) 0.34096(17) 0.7775(3)
N7 N 1.1446(4) 0.32118(13) 0.8259(3)
H55 H 1.1471 0.3284 0.8607
C76 C 1.1438(5) 0.28785(16) 0.8088(3)
C77 C 1.1505(4) 0.25736(16) 0.8416(3)
H56 H 1.1554 0.2573 0.8823
C78 C 1.1445(5) 0.37842(17) 0.7799(3)
C79 C 1.0747(6) 0.39728(18) 0.7814(4)
N8 N 1.1538(5) 0.45000(18) 0.7854(4)
C80 C 1.2200(6) 0.43139(19) 0.7857(4)
H57 H 1.2710 0.4430 0.7885
C81 C 1.2199(5) 0.39593(17) 0.7823(3)
C82 C 0.9914(6) 0.3821(2) 0.7805(4)
H58 H 0.9934 0.3577 0.7787
H59 H 1.0052 0.3888 0.8245
H60 H 0.9225 0.3902 0.7379
C83 C 0.4131(5) 0.25399(16) 0.5326(3)
H61 H 0.4148 0.2538 0.5719
C84 C 0.4136(5) 0.28425(16) 0.5037(3)
C85 C 0.4091(5) 0.28438(17) 0.4434(3)
N9 N 0.4062(4) 0.31784(14) 0.4257(3)
H62 H 0.4032 0.3252 0.3908
C86 C 0.4090(5) 0.33696(18) 0.4732(3)
C87 C 0.4664(7) 0.39402(19) 0.4650(4)
C88 C 0.4533(9) 0.4294(2) 0.4597(6)
H63 H 0.4971 0.4425 0.4572
C89 C 0.3188(9) 0.4267(2) 0.4613(6)
H64 H 0.2683 0.4380 0.4596
C90 C 0.2499(6) 0.3738(2) 0.4711(4)
H65 H 0.2616 0.3496 0.4750
H66 H 0.2616 0.3818 0.5136
H67 H 0.1781 0.3788 0.4272
C91 C 0.5524(8) 0.3792(2) 0.4681(5)
H68 H 0.5872 0.3973 0.4643
H69 H 0.6033 0.3674 0.5141
H70 H 0.5213 0.3635 0.4279
N10 N 0.4132(4) 0.31767(14) 0.5216(3)
C92 C 0.4033(5) 0.25360(16) 0.4107(3)
H71 H 0.3985 0.2536 0.3700
N11 N 0.7695(8) 0.4474(2) 0.7908(5)
N12 N 0.3822(8) 0.4456(2) 0.4580(6)
C93 C 0.3057(9) 0.0881(3) 0.5859(6)
H72 H 0.3790 0.0809 0.6241
H73 H 0.3044 0.1129 0.5863
C94 C 0.2401(11) 0.0744(4) 0.6031(8)
H74 H 0.1749 0.0651 0.5591
H75 H 0.2243 0.0926 0.6213
H76 H 0.2792 0.0569 0.6400
C95 C 0.6641(9) 0.0436(2) 0.4023(6)
H77 H 0.7098 0.0337 0.3952
H78 H 0.6904 0.0368 0.4506
C96 C 0.8737(8) 0.3725(3) 0.5904(5)
H79 H 0.9178 0.3877 0.6318
H80 H 0.8222 0.3620 0.5906
H81 H 0.9171 0.3551 0.5936
C97 C 0.761(3) -0.0278(9) 0.899(2)
H82 H 0.7592 -0.0524 0.9003
H83 H 0.7815 -0.0189 0.9444
H84 H 0.6918 -0.0194 0.8580
C98 C 0.845(3) -0.0161(7) 0.892(2)
H85 H 0.8251 -0.0253 0.8474
H86 H 0.9150 -0.0248 0.9340
C99 C 0.848(3) 0.0248(7) 0.8911(18)
H87 H 0.7829 0.0339 0.8768
H88 H 0.9070 0.0331 0.9403
C100 C 0.8606(19) 0.0381(4) 0.8359(12)
H89 H 0.7943 0.0353 0.7854
H90 H 0.9153 0.0252 0.8420
C101 C 0.8932(16) 0.0786(4) 0.8526(8)
H91 H 0.9026 0.0861 0.8949
H92 H 0.9590 0.0824 0.8628
C102 C 0.929(2) -0.0070(8) 0.5591(15)
H93 H 0.9068 -0.0121 0.5117
H94 H 0.9544 -0.0275 0.5881
H95 H 0.8695 0.0017 0.5524
C103 C 1.0205(16) 0.0204(6) 0.6000(10)
H96 H 0.9960 0.0414 0.5715
H97 H 1.0814 0.0120 0.6074
C104 C 1.051(3) 0.0268(7) 0.6765(13)
H98 H 0.9929 0.0386 0.6684
H99 H 1.0612 0.0050 0.6999
C105 C 1.1506(15) 0.0478(4) 0.7262(11)
H100 H 1.1927 0.0386 0.7758
H101 H 1.1907 0.0440 0.7108
C106 C 0.4263(15) -0.0161(5) 0.2958(11)
H102 H 0.4160 -0.0400 0.2985
H103 H 0.3893 -0.0028 0.3061
H104 H 0.3991 -0.0108 0.2472
C107 C 0.5463(14) -0.0077(4) 0.3532(12)
H105 H 0.5854 -0.0206 0.3436
H106 H 0.5756 -0.0125 0.4030
C108 C 0.5497(14) 0.0314(4) 0.3420(11)
H107 H 0.5268 0.0355 0.2936
H108 H 0.5026 0.0436 0.3452
Cl1 Cl 0.5656(3) -0.05021(12) 0.1959(2)
Cl2 Cl 0.4635(6) 0.01234(19) 0.1238(5)
C109 C 0.5709(12) -0.0110(3) 0.1715(8)
H109 H 0.5928 -0.0130 0.1433
H110 H 0.6264 0.0015 0.2164
O9 O 1.1138(4) 0.33015(14) 0.9263(2)
H111 H 1.0641 0.3179 0.8939
C110 C 1.1766(6) 0.3127(3) 0.9940(4)
H112 H 1.2484 0.3218 1.0249
H113 H 1.1798 0.2889 0.9848
C111 C 1.1416(7) 0.3146(3) 1.0349(4)
H114 H 1.1419 0.3379 1.0470
H115 H 1.1888 0.3015 1.0795
H116 H 1.0709 0.3055 1.0053
O10 O 0.4365(4) 0.17881(17) 0.8261(3)
H117 H 0.4987 0.1787 0.8445
C112 C 0.3710(7) 0.1733(3) 0.7509(4)
H118 H 0.3046 0.1853 0.7269
H119 H 0.3547 0.1491 0.7417
C113 C 0.4115(9) 0.1836(3) 0.7163(5)
H120 H 0.4782 0.1725 0.7402
H121 H 0.4216 0.2080 0.7206
H122 H 0.3616 0.1774 0.6651
C114 C 1.2424(12) 0.2761(4) 0.5995(9)
H123 H 1.2442 0.2954 0.5753
H124 H 1.2646 0.2559 0.5895
O11 O 1.1384(7) 0.2715(2) 0.5725(5)
H125 H 1.1178 0.2894 0.5773
C115 C 1.3205(11) 0.2827(5) 0.6868(8)
H126 H 1.3918 0.2858 0.7062
H127 H 1.2981 0.3027 0.6962
H128 H 1.3185 0.2633 0.7104
O12 O 0.4966(4) 0.16992(13) 0.1665(2)
H129 H 0.4905 0.1657 0.1306
C116 C 0.4504(10) 0.1444(3) 0.1756(6)
C117 C 0.492(2) 0.1345(6) 0.2440(11)
H130 H 0.5419 0.1512 0.2797
H131 H 0.5268 0.1128 0.2558
H132 H 0.4355 0.1323 0.2449
H133 H 0.3773 0.1511 0.1487
H134 H 0.4480 0.1243 0.1510
C118 C 0.7224(10) 0.2865(3) 0.5926(7)
H135 H 0.6874 0.3071 0.5709
C119 C 0.6722(8) 0.2559(4) 0.5564(6)
H136 H 0.6036 0.2560 0.5105
C120 C 0.7246(11) 0.2250(3) 0.5888(7)
H137 H 0.6910 0.2046 0.5646
C121 C 0.8272(11) 0.2248(3) 0.6574(7)
H138 H 0.8622 0.2041 0.6790
C122 C 0.8774(8) 0.2553(4) 0.6935(6)
H139 H 0.9461 0.2552 0.7394
C123 C 0.8250(10) 0.2862(3) 0.6612(7)
H140 H 0.8586 0.3067 0.6854
O13 O 1.0549(4) 0.16790(13) 1.0854(3)
H141 H 1.0734 0.1677 1.1264
C124 C 1.0943(11) 0.1384(3) 1.0765(7)
H142 H 1.1705 0.1411 1.1071
H143 H 1.0833 0.1191 1.0959
C125 C 1.0512(18) 0.1299(5) 1.0043(9)
H144 H 1.0845 0.1095 1.0060
H145 H 0.9760 0.1262 0.9734
H146 H 1.0637 0.1483 0.9846
Cl3 Cl 0.7925(2) 0.05611(6) 0.63115(14)
Cl4 Cl 0.6303(3) 0.00430(8) 0.5639(2)
C126 C 0.719(2) 0.0291(7) 0.6439(10)
H147 H 0.7675 0.0144 0.6865
H148 H 0.6802 0.0430 0.6525
H149? H 0.8106 0.0897 0.7494
H150? H 0.7341 0.0894 0.7660
H151? H 1.2114 0.0970 0.7613
H152? H 1.1063 0.0899 0.6798
C127? C 0.896(2) 0.0861(5) 0.8641(9)
H153? H 0.9598 0.0988 0.8841
H154? H 0.8791 0.0905 0.8950
C128? C 0.9150(19) 0.0475(4) 0.8637(12)
H155? H 0.8503 0.0399 0.8159
H156? H 0.9693 0.0469 0.8601
C129? C 1.1620(19) 0.0463(3) 0.7457(13)
H157? H 1.2181 0.0396 0.7462
H158? H 1.1863 0.0416 0.7942
H159? H 0.6516 0.0371 0.4349
H160? H 0.7331 0.0349 0.4231
C130? C 1.063(3) 0.0244(7) 0.6883(12)
H161? H 1.0141 0.0255 0.6971
H162? H 1.0834 0.0007 0.6925
C131? C 0.575(2) 0.0277(6) 0.3235(9)
H163? H 0.5927 0.0041 0.3232
H164? H 0.5076 0.0281 0.3117
C132? C 1.008(2) 0.0381(7) 0.6098(12)
H165? H 1.0610 0.0460 0.6082
H166? H 0.9625 0.0574 0.5985
C133? C 0.939(3) 0.0094(8) 0.5515(14)
H167? H 0.9057 0.0181 0.5032
H168? H 0.9845 -0.0095 0.5625
H169? H 0.8862 0.0019 0.5528
C134? C 0.473(3) 0.0371(12) 0.1834(11)
H170? H 0.4733 0.0510 0.1507
H171? H 0.4826 0.0136 0.1774
H172? H 0.4069 0.0398 0.1720
C135? C 0.567(3) 0.0483(10) 0.2651(12)
H173? H 0.6331 0.0461 0.2755
H174? H 0.5575 0.0723 0.2701
C136? C 0.9430(19) 0.0186(4) 0.9128(11)
H175? H 0.9176 0.0249 0.9377
H176? H 1.0200 0.0188 0.9504
C137? C 0.8089(19) -0.0365(7) 0.8719(15)
H177? H 0.8052 -0.0601 0.8600
H178? H 0.8139 -0.0345 0.9138
H179? H 0.7460 -0.0249 0.8304
C138? C 0.9119(18) -0.0193(5) 0.8911(14)
H180? H 0.9726 -0.0326 0.9312
H181? H 0.9052 -0.0231 0.8485
C139? C 1.236(2) 0.2858(10) 0.5730(15)
H182? H 1.1661 0.2907 0.5556
H183? H 1.2628 0.3056 0.5670
H184? H 1.2311 0.2671 0.5452
C140? C 1.314(2) 0.2755(10) 0.6595(16)
H185? H 1.3192 0.2942 0.6881
H186? H 1.2873 0.2555 0.6663
O14? O 1.4161(16) 0.2685(6) 0.6833(12)
H187? H 1.4605 0.2811 0.7178
C141? C 0.4737(18) 0.1101(4) 0.1803(12)
H188? H 0.5494 0.1071 0.2140
H189? H 0.4431 0.1018 0.1324
H190? H 0.4448 0.0976 0.1978
C142? C 0.8585(15) 0.2324(6) 0.6405(12)
H191? H 0.9127 0.2185 0.6519
C143? C 0.7709(19) 0.2179(4) 0.6263(12)
H192? H 0.7663 0.1944 0.6282
C144? C 0.6900(15) 0.2387(6) 0.6093(12)
H193? H 0.6313 0.2290 0.5998
C145? C 0.6968(16) 0.2740(5) 0.6065(12)
H194? H 0.6427 0.2879 0.5951
C146? C 0.784(2) 0.2885(4) 0.6207(13)
H195? H 0.7890 0.3121 0.6188
C147? C 0.8653(16) 0.2677(6) 0.6377(14)
H196? H 0.9240 0.2774 0.6472
H197? H 1.1688 0.1363 1.1206
H198? H 1.0918 0.1428 1.0358
C148? C 1.047(3) 0.1061(4) 1.064(2)
H199? H 1.0836 0.0891 1.0589
H200? H 1.0512 0.1003 1.1041
H201? H 0.9736 0.1069 1.0187
C149? C 0.743(2) 0.0215(7) 0.6476(10)
H202? H 0.7969 0.0040 0.6759
H203? H 0.7243 0.0293 0.6761
Cl5? Cl 1.1040(5) 0.00565(14) 0.8561(4)
C150? C 1.2368(13) -0.0102(4) 0.9150(10)
H204? H 1.2620 -0.0148 0.9639
H205? H 1.2834 0.0066 0.9196
Cl6? Cl 1.2373(5) -0.04856(13) 0.8754(3)
H206? H 0.4635 0.1499 0.2202
H207? H 0.3743 0.1466 0.1350
loop_
_geom_bond_atom_site_label_1
_geom_bond_atom_site_label_2
_geom_bond_site_symmetry_1
_geom_bond_site_symmetry_2
O1 C18 1_555 1_555
O2 C21 1_555 1_555
O3 C52 1_555 1_555
C1 C12 1_555 1_555
C2 C3 1_555 1_555
C3 C5 1_555 1_555
C4 C14 1_555 1_555
C5 H1 1_555 1_555
H2 C5 1_555 1_555
H3 C5 1_555 1_555
O4 C47 1_555 1_555
C6 H4 1_555 1_555
H5 C6 1_555 1_555
C7 H6 1_555 1_555
H7 C7 1_555 1_555
C8 H8 1_555 1_555
C9 H9 1_555 1_555
H10 C9 1_555 1_555
H11 C9 1_555 1_555
C10 C11 1_555 1_555
C11 C89 1_555 1_555
C12 H12 1_555 1_555
H13 C12 1_555 1_555
H14 C12 1_555 1_555
N1 C13 1_555 1_555
C13 C1 1_555 1_555
H15 C13 1_555 1_555
C14 C1 1_555 1_555
C15 C14 1_555 1_555
N2 C15 1_555 1_555
C16 N2 1_555 1_555
C17 C16 1_555 1_555
H16 C17 1_555 1_555
C18 C17 1_555 1_555
C19 O1 1_555 1_555
C20 C19 1_555 1_555
H17 C20 1_555 1_555
C21 C20 1_555 1_555
C22 C21 1_555 1_555
C23 C22 1_555 1_555
H18 C23 1_555 1_555
C24 C23 1_555 1_555
C25 C24 1_555 1_555
C26 C25 1_555 1_555
H19 C26 1_555 1_555
C27 C26 1_555 1_555
O5 C27 1_555 1_555
C28 O5 1_555 1_555
C29 C28 1_555 1_555
H20 C29 1_555 1_555
C30 C29 1_555 1_555
N3 C30 1_555 1_555
H21 N3 1_555 1_555
C31 C2 1_555 1_555
C32 C3 1_555 1_555
H22 C32 1_555 1_555
C33 H23 1_555 1_555
C34 C4 1_555 1_555
H24 C34 1_555 1_555
N4 C15 1_555 1_555
H25 N4 1_555 1_555
C35 C16 1_555 1_555
C36 O2 1_555 1_555
C37 C36 1_555 1_555
O6 C25 1_555 1_555
C38 C24 1_555 1_555
H26 C38 1_555 1_555
C39 C27 1_555 1_555
C40 C2 1_555 1_555
C41 C40 1_555 1_555
H27 C41 1_555 1_555
H28 C41 1_555 1_555
H29 C41 1_555 1_555
N5 C31 1_555 1_555
C42 C30 1_555 1_555
C43 C42 1_555 1_555
H30 C43 1_555 1_555
C44 C28 1_555 1_555
O7 C44 1_555 1_555
C45 O7 1_555 1_555
C46 C45 1_555 1_555
H31 C46 1_555 1_555
C47 C46 1_555 1_555
C48 O4 1_555 1_555
C49 C48 1_555 1_555
O8 C49 1_555 1_555
C50 O8 1_555 1_555
C51 C50 1_555 1_555
H32 C51 1_555 1_555
C52 C51 1_555 1_555
C53 O3 1_555 1_555
C54 C35 1_555 1_555
H33 C54 1_555 1_555
C55 C52 1_555 1_555
C56 C55 1_555 1_555
H34 C56 1_555 1_555
C57 C50 1_555 1_555
C58 C57 1_555 1_555
H35 C58 1_555 1_555
C59 C47 1_555 1_555
C60 C59 1_555 1_555
H36 C60 1_555 1_555
C61 C45 1_555 1_555
C62 C6 1_555 1_555
H37 C62 1_555 1_555
C63 C7 1_555 1_555
H38 C63 1_555 1_555
H39 C63 1_555 1_555
C64 C55 1_555 1_555
H40 C64 1_555 1_555
C65 C19 1_555 1_555
C66 C22 1_555 1_555
H41 C66 1_555 1_555
C67 C23 1_555 1_555
H42 C67 1_555 1_555
H43 C67 1_555 1_555
C68 C67 1_555 1_555
H44 C68 1_555 1_555
H45 C68 1_555 1_555
C69 C68 1_555 1_555
H46 C69 1_555 1_555
H47 C69 1_555 1_555
C70 C69 1_555 1_555
H48 C70 1_555 1_555
H49 C70 1_555 1_555
C71 C64 1_555 1_555
H50 C71 1_555 1_555
H51 C71 1_555 1_555
C72 C71 1_555 1_555
H52 C72 1_555 1_555
H53 C72 1_555 1_555
C73 C49 1_555 1_555
H54 C73 1_555 1_555
C74 C73 1_555 1_555
N6 C74 1_555 1_555
C75 N6 1_555 1_555
N7 C75 1_555 1_555
H55 N7 1_555 1_555
C76 C74 1_555 1_555
C77 C48 1_555 1_555
H56 C77 1_555 1_555
C78 C75 1_555 1_555
C79 C8 1_555 1_555
N8 C8 1_555 1_555
C80 N8 1_555 1_555
H57 C80 1_555 1_555
C81 C9 1_555 1_555
C82 C79 1_555 1_555
H58 C82 1_555 1_555
H59 C82 1_555 1_555
H60 C82 1_555 1_555
C83 C37 1_555 1_555
H61 C83 1_555 1_555
C84 C83 1_555 1_555
C85 C84 1_555 1_555
N9 C85 1_555 1_555
H62 N9 1_555 1_555
C86 C10 1_555 1_555
C87 C10 1_555 1_555
C88 C87 1_555 1_555
H63 C88 1_555 1_555
C89 H64 1_555 1_555
C90 C11 1_555 1_555
H65 C90 1_555 1_555
H66 C90 1_555 1_555
H67 C90 1_555 1_555
C91 C87 1_555 1_555
H68 C91 1_555 1_555
H69 C91 1_555 1_555
H70 C91 1_555 1_555
N10 C84 1_555 1_555
C92 C36 1_555 1_555
H71 C92 1_555 1_555
N11 C32 1_555 1_555
N12 C88 1_555 1_555
C93 C70 1_555 1_555
H72 C93 1_555 1_555
H73 C93 1_555 1_555
C94 C93 1_555 1_555
H74 C94 1_555 1_555
H75 C94 1_555 1_555
H76 C94 1_555 1_555
C95 C72 1_555 1_555
H77 C95 1_555 1_555
H78 C95 1_555 1_555
C96 C4 1_555 1_555
H79 C96 1_555 1_555
H80 C96 1_555 1_555
H81 C96 1_555 1_555
C97 H82 1_555 1_555
H83 C97 1_555 1_555
H84 C97 1_555 1_555
C98 C97 1_555 1_555
H85 C98 1_555 1_555
H86 C98 1_555 1_555
C99 C98 1_555 1_555
H87 C99 1_555 1_555
H88 C99 1_555 1_555
C100 C99 1_555 1_555
H89 C100 1_555 1_555
H90 C100 1_555 1_555
C101 C6 1_555 1_555
H91 C101 1_555 1_555
H92 C101 1_555 1_555
C102 H93 1_555 1_555
H94 C102 1_555 1_555
H95 C102 1_555 1_555
C103 C102 1_555 1_555
H96 C103 1_555 1_555
H97 C103 1_555 1_555
C104 C103 1_555 1_555
H98 C104 1_555 1_555
H99 C104 1_555 1_555
C105 C7 1_555 1_555
H100 C105 1_555 1_555
H101 C105 1_555 1_555
C106 H102 1_555 1_555
H103 C106 1_555 1_555
H104 C106 1_555 1_555
C107 C106 1_555 1_555
H105 C107 1_555 1_555
H106 C107 1_555 1_555
C108 C95 1_555 1_555
H107 C108 1_555 1_555
H108 C108 1_555 1_555
Cl1 C109 1_555 1_555
Cl2 C109 1_555 1_555
C109 H109 1_555 1_555
H110 C109 1_555 1_555
O9 H111 1_555 1_555
C110 O9 1_555 1_555
H112 C110 1_555 1_555
H113 C110 1_555 1_555
C111 C110 1_555 1_555
H114 C111 1_555 1_555
H115 C111 1_555 1_555
H116 C111 1_555 1_555
O10 H117 1_555 1_555
C112 O10 1_555 1_555
H118 C112 1_555 1_555
H119 C112 1_555 1_555
C113 C112 1_555 1_555
H120 C113 1_555 1_555
H121 C113 1_555 1_555
H122 C113 1_555 1_555
C114 H123 1_555 1_555
H124 C114 1_555 1_555
O11 C114 1_555 1_555
H125 O11 1_555 1_555
C115 C114 1_555 1_555
H126 C115 1_555 1_555
H127 C115 1_555 1_555
H128 C115 1_555 1_555
O12 H129 1_555 1_555
C116 O12 1_555 1_555
C117 C116 1_555 1_555
H130 C117 1_555 1_555
H131 C117 1_555 1_555
H132 C117 1_555 1_555
H133 C116 1_555 1_555
H134 C116 1_555 1_555
C118 H135 1_555 1_555
C119 C118 1_555 1_555
H136 C119 1_555 1_555
C120 C119 1_555 1_555
H137 C120 1_555 1_555
C121 C120 1_555 1_555
H138 C121 1_555 1_555
C122 C121 1_555 1_555
H139 C122 1_555 1_555
C123 C118 1_555 1_555
H140 C123 1_555 1_555
O13 H141 1_555 1_555
C124 O13 1_555 1_555
H142 C124 1_555 1_555
H143 C124 1_555 1_555
C125 C124 1_555 1_555
H144 C125 1_555 1_555
H145 C125 1_555 1_555
H146 C125 1_555 1_555
Cl3 C126 1_555 1_555
Cl4 C126 1_555 1_555
C126 H147 1_555 1_555
H148 C126 1_555 1_555
N1 C34 1_555 1_555
C18 C53 1_555 1_555
N3 C31 1_555 1_555
C33 C40 1_555 1_555
C33 N11 1_555 1_555
N4 C35 1_555 1_555
C37 O6 1_555 1_555
C38 C39 1_555 1_555
C39 C62 1_555 1_555
N5 C42 1_555 1_555
C43 C44 1_555 1_555
C53 C54 1_555 1_555
C56 C57 1_555 1_555
C58 C59 1_555 1_555
C58 C63 1_555 1_555
C60 C61 1_555 1_555
C61 C62 1_555 1_555
C64 C65 1_555 1_555
C65 C66 1_555 1_555
N7 C76 1_555 1_555
C76 C77 1_555 1_555
C78 C79 1_555 1_555
C78 C81 1_555 1_555
C80 C81 1_555 1_555
C85 C92 1_555 1_555
N9 C86 1_555 1_555
C86 N10 1_555 1_555
C89 N12 1_555 1_555
C100 C101 1_555 1_555
C104 C105 1_555 1_555
C107 C108 1_555 1_555
C122 C123 1_555 1_555

#END
