
#######################################################################
#
#                 Cambridge Crystallographic Data Centre
#                                CCDC 
#
#######################################################################
#
# If this CIF has been generated from an entry in the Cambridge 
# Structural Database, then it will include bibliographic, chemical, 
# crystal, experimental, refinement or atomic coordinate data resulting 
# from the CCDC's data processing and validation procedures.
#
#######################################################################

data_CADKEX01
_chemical_formula_moiety         'C20 H27 N3 O2'
_chemical_name_systematic        
6,7,8,9,10,11,12,13,19,20-Decahydro-5H-dibenzo(e,p)-1,4,8,11,14-dioxatriazacycloheptadecine
_symmetry_cell_setting           triclinic
_symmetry_space_group_name_H-M   'P -1'
_symmetry_Int_Tables_number      2
_space_group_name_Hall           '-P 1'
loop_
_symmetry_equiv_pos_site_id
_symmetry_equiv_pos_as_xyz
1 x,y,z
2 -x,-y,-z
_cell_length_a                   11.15(1)
_cell_length_b                   10.29(1)
_cell_length_c                   8.82(1)
_cell_angle_alpha                75.38(4)
_cell_angle_beta                 82.23(4)
_cell_angle_gamma                71.762(2)
_cell_volume                     928.253
_cell_formula_units_Z            2
loop_
_atom_site_label
_atom_site_type_symbol
_atom_site_fract_x
_atom_site_fract_y
_atom_site_fract_z
C1 C 0.6926(2) 0.1917(2) 0.3427(2)
C2 C 0.6703(2) 0.3312(2) 0.2223(2)
C3 C 0.7637(2) 0.3564(2) 0.1071(2)
C4 C 0.7480(2) 0.4890(3) 0.0053(2)
C5 C 0.6391(2) 0.5959(2) 0.0178(2)
C6 C 0.5422(2) 0.5738(2) 0.1314(2)
C7 C 0.5584(2) 0.4414(2) 0.2323(2)
C8 C 0.3627(2) 0.5199(2) 0.3786(2)
C9 C 0.2882(2) 0.4584(2) 0.5199(2)
C10 C 0.1393(2) 0.3264(2) 0.5784(2)
C11 C 0.1461(2) 0.3070(2) 0.7406(2)
C12 C 0.0654(2) 0.2414(3) 0.8451(2)
C13 C -0.0202(2) 0.1939(3) 0.7866(2)
C14 C -0.0253(2) 0.2148(2) 0.6258(2)
C15 C 0.0523(2) 0.2818(2) 0.5191(2)
C16 C 0.0419(2) 0.3108(2) 0.3434(2)
C17 C 0.1688(2) 0.0813(2) 0.2971(2)
C18 C 0.2950(2) 0.0057(2) 0.2269(2)
C19 C 0.5240(2) -0.0370(2) 0.2357(2)
C20 C 0.6129(2) 0.0553(2) 0.2098(2)
N1 N 0.6040(2) 0.1097(2) 0.3502(2)
N2 N 0.1483(1) 0.2327(1) 0.2549(1)
N3 N 0.3958(1) 0.0387(1) 0.2834(1)
O1 O 0.4703(2) 0.4098(2) 0.3486(2)
O2 O 0.2157(2) 0.3879(2) 0.4674(2)
H1 H 0.5176(5) 0.1679(8) 0.3642(5)
H2 H 0.6861(5) 0.2134(5) 0.4601(4)
H3 H 0.7861(4) 0.1277(5) 0.3207(5)
H4 H 0.8491(5) 0.2725(6) 0.0970(5)
H5 H 0.8241(5) 0.5081(7) -0.0806(5)
H6 H 0.6278(5) 0.6986(5) -0.0591(5)
H7 H 0.4565(5) 0.6573(5) 0.1391(5)
H8 H 0.3924(4) 0.6035(4) 0.4044(5)
H9 H 0.3063(4) 0.5635(5) 0.2784(4)
H10 H 0.3509(4) 0.3897(5) 0.6054(4)
H11 H 0.2235(5) 0.5445(5) 0.5710(5)
H12 H 0.2077(5) 0.3452(6) 0.7862(4)
H13 H 0.0698(6) 0.2283(6) 0.9681(5)
H14 H -0.0810(6) 0.1414(7) 0.8685(5)
H15 H -0.0938(4) 0.1798(6) 0.5786(5)
H16 H -0.0435(4) 0.2869(5) 0.3253(5)
H17 H 0.0297(5) 0.4217(5) 0.2919(5)
H18 H 0.2264(4) 0.2529(4) 0.2710(4)
H19 H 0.1648(5) 0.0412(5) 0.4246(4)
H20 H 0.0916(5) 0.0578(5) 0.2574(6)
H21 H 0.3044(5) -0.1081(5) 0.2569(5)
H22 H 0.2969(5) 0.0399(6) 0.0998(4)
H23 H 0.3867(4) 0.0178(5) 0.4026(4)
H24 H 0.5620(6) -0.1332(5) 0.3263(6)
H25 H 0.5211(5) -0.0663(6) 0.1248(5)
H26 H 0.7139(5) -0.0115(6) 0.1933(6)
H27 H 0.5896(5) 0.1371(5) 0.1074(4)
loop_
_geom_bond_atom_site_label_1
_geom_bond_atom_site_label_2
_geom_bond_site_symmetry_1
_geom_bond_site_symmetry_2
C1 C2 1_555 1_555
C2 C3 1_555 1_555
C3 C4 1_555 1_555
C4 C5 1_555 1_555
C5 C6 1_555 1_555
C6 C7 1_555 1_555
C7 C2 1_555 1_555
C8 C9 1_555 1_555
C9 O2 1_555 1_555
C10 C11 1_555 1_555
C11 C12 1_555 1_555
C12 C13 1_555 1_555
C13 C14 1_555 1_555
C14 C15 1_555 1_555
C15 C10 1_555 1_555
C16 C15 1_555 1_555
C17 C18 1_555 1_555
C18 N3 1_555 1_555
C19 C20 1_555 1_555
C20 N1 1_555 1_555
N1 C1 1_555 1_555
N2 C16 1_555 1_555
N3 C19 1_555 1_555
O1 C7 1_555 1_555
O2 C10 1_555 1_555
H1 N1 1_555 1_555
H2 C1 1_555 1_555
H3 C1 1_555 1_555
H4 C3 1_555 1_555
H5 C4 1_555 1_555
H6 C5 1_555 1_555
H7 C6 1_555 1_555
H8 C8 1_555 1_555
H9 C8 1_555 1_555
H10 C9 1_555 1_555
H11 C9 1_555 1_555
H12 C11 1_555 1_555
H13 C12 1_555 1_555
H14 C13 1_555 1_555
H15 C14 1_555 1_555
H16 C16 1_555 1_555
H17 C16 1_555 1_555
H18 N2 1_555 1_555
H19 C17 1_555 1_555
H20 C17 1_555 1_555
H21 C18 1_555 1_555
H22 C18 1_555 1_555
H23 N3 1_555 1_555
H24 C19 1_555 1_555
H25 C19 1_555 1_555
H26 C20 1_555 1_555
H27 C20 1_555 1_555
C8 O1 1_555 1_555
C17 N2 1_555 1_555

#END
