
#######################################################################
#
#                 Cambridge Crystallographic Data Centre
#                                CCDC 
#
#######################################################################
#
# If this CIF has been generated from an entry in the Cambridge 
# Structural Database, then it will include bibliographic, chemical, 
# crystal, experimental, refinement or atomic coordinate data resulting 
# from the CCDC's data processing and validation procedures.
#
#######################################################################

data_CADMAY
_chemical_name_common            'vortioxetine (p-nitrophenyl)acetic acid'
_chemical_formula_moiety         'C18 H23 N2 S1 1+,C8 H6 N1 O4 1-'
_chemical_name_systematic        
'1-[2-(2,4-dimethy(phenylsulfanyl)phenyl)piperazine] (p-nitrophenyl)acetic acid'
_symmetry_cell_setting           monoclinic
_symmetry_space_group_name_H-M   'P 21'
_symmetry_Int_Tables_number      4
_space_group_name_Hall           'P 2yb'
loop_
_symmetry_equiv_pos_site_id
_symmetry_equiv_pos_as_xyz
1 x,y,z
2 -x,1/2+y,-z
_cell_length_a                   12.960(3)
_cell_length_b                   6.8530(14)
_cell_length_c                   15.480(3)
_cell_angle_alpha                90
_cell_angle_beta                 113.14(3)
_cell_angle_gamma                90
_cell_volume                     1264.24
_exptl_crystal_colour            colorless
_exptl_crystal_description       block
_cell_formula_units_Z            2
loop_
_atom_site_label
_atom_site_type_symbol
_atom_site_fract_x
_atom_site_fract_y
_atom_site_fract_z
C1 C 0.4283(3) 0.7526(6) 0.3561(2)
H1 H 0.3535 0.7763 0.3092
H2 H 0.4212 0.7072 0.4129
C2 C 0.5208(3) 1.0017(5) 0.2965(3)
H3 H 0.5720 1.1117 0.3160
H4 H 0.4528 1.0446 0.2455
C3 C 0.5735(3) 0.8406(5) 0.2628(2)
H5 H 0.5869 0.8840 0.2085
H6 H 0.6450 0.8051 0.3118
C4 C 0.4854(3) 0.5983(5) 0.3212(2)
H7 H 0.5583 0.5678 0.3695
H8 H 0.4407 0.4800 0.3062
C5 C 0.5180(3) 0.5240(5) 0.1803(2)
C6 C 0.6208(3) 0.4912(7) 0.1772(2)
H9 H 0.6824 0.5647 0.2148
C7 C 0.6333(4) 0.3488(8) 0.1182(3)
H10 H 0.7033 0.3286 0.1161
C8 C 0.5448(4) 0.2389(7) 0.0637(3)
H11 H 0.5545 0.1414 0.0259
C9 C 0.4411(4) 0.2716(6) 0.0645(3)
H12 H 0.3804 0.1960 0.0270
C10 C 0.4255(3) 0.4167(5) 0.1208(2)
C11 C 0.1967(3) 0.3540(6) 0.0229(3)
C12 C 0.1531(4) 0.4406(8) -0.0656(4)
H13 H 0.1801 0.5613 -0.0746
C13 C 0.0715(4) 0.3498(10) -0.1388(3)
H14 H 0.0440 0.4091 -0.1975
C14 C 0.0293(3) 0.1749(7) -0.1280(3)
C15 C 0.0705(3) 0.0903(7) -0.0422(3)
H15 H 0.0411 -0.0294 -0.0349
C16 C 0.1550(3) 0.1739(6) 0.0358(3)
C17 C 0.1967(4) 0.0698(9) 0.1272(3)
H16 H 0.1353 0.0048 0.1350
H17 H 0.2298 0.1619 0.1773
H18 H 0.2520 -0.0246 0.1286
C18 C -0.0648(4) 0.0784(11) -0.2094(3)
H19 H -0.0680 -0.0578 -0.1961
H20 H -0.0511 0.0928 -0.2657
H21 H -0.1349 0.1392 -0.2179
H22 H 0.459(3) 1.026(6) 0.388(2)
H23 H 0.563(5) 0.929(8) 0.431(4)
N1 N 0.4937(3) 0.9366(5) 0.3760(2)
N2 N 0.4984(2) 0.6709(4) 0.23754(17)
S1 S 0.29335(9) 0.48974(19) 0.11757(9)
C19 C 0.8327(3) 0.5490(6) 0.5372(2)
C20 C 0.8047(3) 0.3514(6) 0.5269(3)
H24 H 0.7781 0.2925 0.5683
C21 C 0.8157(3) 0.2429(6) 0.4568(3)
H25 H 0.7963 0.1115 0.4504
C22 C 0.8552(3) 0.3279(6) 0.3966(3)
C23 C 0.8846(3) 0.5225(6) 0.4045(3)
H26 H 0.9116 0.5794 0.3629
C24 C 0.8732(3) 0.6305(6) 0.4748(3)
H27 H 0.8932 0.7616 0.4808
C25 C 0.8148(4) 0.6680(8) 0.6116(3)
H28 H 0.8751 0.7622 0.6373
H29 H 0.8165 0.5831 0.6622
C26 C 0.7039(3) 0.7736(5) 0.5718(2)
N3 N 0.8670(3) 0.2076(7) 0.3226(3)
O1 O 0.6256(3) 0.7192(5) 0.5896(2)
O2 O 0.6955(2) 0.9135(4) 0.51896(19)
O3 O 0.9033(3) 0.2857(6) 0.2696(2)
O4 O 0.8405(4) 0.0358(6) 0.3171(3)
loop_
_geom_bond_atom_site_label_1
_geom_bond_atom_site_label_2
_geom_bond_site_symmetry_1
_geom_bond_site_symmetry_2
C1 H1 1_555 1_555
H2 C1 1_555 1_555
C2 H3 1_555 1_555
H4 C2 1_555 1_555
C3 C2 1_555 1_555
H5 C3 1_555 1_555
H6 C3 1_555 1_555
C4 C1 1_555 1_555
H7 C4 1_555 1_555
H8 C4 1_555 1_555
C5 C6 1_555 1_555
C6 H9 1_555 1_555
C7 C6 1_555 1_555
H10 C7 1_555 1_555
C8 C7 1_555 1_555
H11 C8 1_555 1_555
C9 C8 1_555 1_555
H12 C9 1_555 1_555
C10 C5 1_555 1_555
C11 C12 1_555 1_555
C12 H13 1_555 1_555
C13 C12 1_555 1_555
H14 C13 1_555 1_555
C14 C13 1_555 1_555
C15 C14 1_555 1_555
H15 C15 1_555 1_555
C16 C11 1_555 1_555
C17 C16 1_555 1_555
H16 C17 1_555 1_555
H17 C17 1_555 1_555
H18 C17 1_555 1_555
C18 C14 1_555 1_555
H19 C18 1_555 1_555
H20 C18 1_555 1_555
H21 C18 1_555 1_555
H22 N1 1_555 1_555
H23 N1 1_555 1_555
N1 C1 1_555 1_555
N2 C3 1_555 1_555
S1 C10 1_555 1_555
C19 C20 1_555 1_555
C20 H24 1_555 1_555
C21 C20 1_555 1_555
H25 C21 1_555 1_555
C22 C21 1_555 1_555
C23 C22 1_555 1_555
H26 C23 1_555 1_555
C24 C19 1_555 1_555
H27 C24 1_555 1_555
C25 C19 1_555 1_555
H28 C25 1_555 1_555
H29 C25 1_555 1_555
C26 C25 1_555 1_555
N3 C22 1_555 1_555
O1 C26 1_555 1_555
O2 C26 1_555 1_555
O3 N3 1_555 1_555
O4 N3 1_555 1_555
C2 N1 1_555 1_555
C4 N2 1_555 1_555
C5 N2 1_555 1_555
C9 C10 1_555 1_555
C11 S1 1_555 1_555
C15 C16 1_555 1_555
C23 C24 1_555 1_555

#END
