
#######################################################################
#
#                 Cambridge Crystallographic Data Centre
#                                CCDC 
#
#######################################################################
#
# If this CIF has been generated from an entry in the Cambridge 
# Structural Database, then it will include bibliographic, chemical, 
# crystal, experimental, refinement or atomic coordinate data resulting 
# from the CCDC's data processing and validation procedures.
#
#######################################################################

data_CADMUS
_chemical_formula_moiety         'C30 H42 N4 O6 S1,0.5(H2 O1)'
_chemical_name_systematic        
'(3S,4aS, 8aS)-N-(1,1-dimethyl)decahydro-2-[(2R,3S)-2-hydroxy-3-[[(4-nitrophenyl)sulfonyl]amino]-4-phenylbutyl]-3-isoquinolinecarboxamide hemihydrate'
_symmetry_cell_setting           monoclinic
_symmetry_space_group_name_H-M   'C 2'
_symmetry_Int_Tables_number      5
_space_group_name_Hall           'C 2y'
loop_
_symmetry_equiv_pos_site_id
_symmetry_equiv_pos_as_xyz
1 x,y,z
2 -x,y,-z
3 1/2+x,1/2+y,z
4 1/2-x,1/2+y,-z
_cell_length_a                   21.1431(9)
_cell_length_b                   10.4886(6)
_cell_length_c                   15.4597(9)
_cell_angle_alpha                90
_cell_angle_beta                 111.145(3)
_cell_angle_gamma                90
_cell_volume                     3197.54
_exptl_crystal_colour            colorless
_exptl_crystal_description       plate
_cell_formula_units_Z            4
loop_
_atom_site_label
_atom_site_type_symbol
_atom_site_fract_x
_atom_site_fract_y
_atom_site_fract_z
S1 S -0.02401(5) 0.42330(10) 0.33749(7)
O1 O 0.17217(14) 0.4690(3) 0.5411(2)
O2 O -0.06980(13) 0.4405(3) 0.3859(2)
O3 O -0.00143(14) 0.2979(3) 0.3261(2)
O4 O 0.38556(15) 0.3219(3) 0.4061(3)
N1 N 0.03935(17) 0.5129(4) 0.3849(3)
H1 H 0.035(2) 0.562(5) 0.417(3)
N2 N -0.1904(2) 0.6072(6) -0.0427(4)
N3 N 0.30448(16) 0.4693(3) 0.3383(2)
H2 H 0.2614 0.4823 0.3168
N4 N 0.20465(15) 0.3027(3) 0.3500(2)
C1 C 0.14891(19) 0.4035(4) 0.4540(3)
H3 H 0.1212 0.3305 0.4582
C2 C 0.10572(18) 0.4921(4) 0.3758(3)
H4 H 0.0980 0.4496 0.3164
C3 C -0.1235(2) 0.6530(5) 0.1223(4)
H5 H -0.1349 0.7387 0.1111
C4 C -0.06729(19) 0.4815(4) 0.2238(3)
C5 C 0.1444(2) 0.1320(4) 0.2360(3)
H6 H 0.1147 0.0586 0.2317
O5 O -0.2056(2) 0.5283(5) -0.1051(3)
C6 C 0.3482(2) 0.5788(4) 0.3372(3)
O6 O -0.2090(2) 0.7187(5) -0.0495(3)
C7 C 0.21330(19) 0.3543(4) 0.4421(3)
H7 H 0.2458 0.4236 0.4556
H8 H 0.2327 0.2881 0.4879
C8 C 0.1555(2) 0.1962(4) 0.3286(3)
H9 H 0.1124 0.2282 0.3283
H10 H 0.1715 0.1329 0.3775
C9 C 0.1088(2) 0.2161(5) 0.1529(3)
H11 H 0.1353 0.2928 0.1565
H12 H 0.0648 0.2412 0.1536
C10 C 0.0633(2) 0.8066(4) 0.2983(4)
H13 H 0.0657 0.8349 0.3564
C11 C 0.2644(2) 0.1869(4) 0.2614(3)
H14 H 0.3082 0.1527 0.2664
H15 H 0.2513 0.2497 0.2120
C12 C -0.0895(2) 0.3970(5) 0.1511(3)
H16 H -0.0778 0.3113 0.1610
C13 C 0.3026(2) 0.6955(4) 0.3059(3)
H17 H 0.2807 0.7120 0.3494
H18 H 0.2689 0.6798 0.2457
H19 H 0.3294 0.7680 0.3029
C14 C 0.3252(2) 0.3526(4) 0.3695(3)
C15 C 0.09846(19) 0.6995(4) 0.2906(3)
C16 C 0.0940(2) 0.6603(5) 0.2020(3)
H20 H 0.1174 0.5879 0.1957
C17 C 0.3995(2) 0.6029(5) 0.4350(4)
H21 H 0.3759 0.6135 0.4772
H22 H 0.4250 0.6787 0.4350
H23 H 0.4299 0.5316 0.4543
C18 C 0.2121(2) 0.0788(4) 0.2361(3)
H24 H 0.2277 0.0138 0.2848
C19 C -0.1290(3) 0.4386(6) 0.0638(4)
H25 H -0.1439 0.3821 0.0142
C20 C -0.1456(2) 0.5637(5) 0.0519(3)
C21 C -0.0833(2) 0.6102(5) 0.2106(3)
H26 H -0.0676 0.6671 0.2600
C22 C 0.0558(2) 0.7270(6) 0.1244(4)
H27 H 0.0546 0.7010 0.0662
C23 C 0.0228(2) 0.8745(5) 0.2162(4)
H28 H -0.0010 0.9472 0.2206
C24 C 0.2038(3) 0.0152(5) 0.1439(4)
H29 H 0.2483 -0.0069 0.1435
H30 H 0.1784 -0.0633 0.1384
C25 C 0.1679(3) 0.0985(5) 0.0610(4)
H31 H 0.1607 0.0506 0.0045
H32 H 0.1963 0.1713 0.0613
C26 C 0.3840(3) 0.5479(5) 0.2692(4)
H33 H 0.3509 0.5394 0.2078
H34 H 0.4086 0.4694 0.2872
H35 H 0.4149 0.6154 0.2702
C27 C 0.0994(3) 0.1454(6) 0.0620(4)
H36 H 0.0694 0.0732 0.0555
H37 H 0.0787 0.2021 0.0098
C28 C 0.0198(3) 0.8307(5) 0.1321(4)
H38 H -0.0075 0.8728 0.0787
C29 C 0.2709(2) 0.2524(4) 0.3529(3)
H39 H 0.2867 0.1892 0.4028
C30 C 0.13809(19) 0.6210(4) 0.3742(3)
H40 H 0.1416 0.6678 0.4299
H41 H 0.1836 0.6081 0.3747
H42 H 0.144(2) 0.456(5) 0.570(3)
O7 O 0.0000 0.6886(4) 0.5000
H43 H -0.035(2) 0.734(5) 0.471(4)
H43A H 0.035(2) 0.734(5) 0.529(4)
loop_
_geom_bond_atom_site_label_1
_geom_bond_atom_site_label_2
_geom_bond_site_symmetry_1
_geom_bond_site_symmetry_2
S1 O2 1_555 1_555
O1 C1 1_555 1_555
O3 S1 1_555 1_555
O4 C14 1_555 1_555
N1 S1 1_555 1_555
H1 N1 1_555 1_555
N2 O5 1_555 1_555
N3 H2 1_555 1_555
N4 C7 1_555 1_555
C1 H3 1_555 1_555
C2 N1 1_555 1_555
H4 C2 1_555 1_555
C3 H5 1_555 1_555
C4 S1 1_555 1_555
C5 H6 1_555 1_555
C6 N3 1_555 1_555
O6 N2 1_555 1_555
C7 C1 1_555 1_555
H7 C7 1_555 1_555
H8 C7 1_555 1_555
C8 N4 1_555 1_555
H9 C8 1_555 1_555
H10 C8 1_555 1_555
C9 C5 1_555 1_555
H11 C9 1_555 1_555
H12 C9 1_555 1_555
C10 H13 1_555 1_555
C11 H14 1_555 1_555
H15 C11 1_555 1_555
C12 C4 1_555 1_555
H16 C12 1_555 1_555
C13 C6 1_555 1_555
H17 C13 1_555 1_555
H18 C13 1_555 1_555
H19 C13 1_555 1_555
C14 N3 1_555 1_555
C15 C10 1_555 1_555
C16 C15 1_555 1_555
H20 C16 1_555 1_555
C17 C6 1_555 1_555
H21 C17 1_555 1_555
H22 C17 1_555 1_555
H23 C17 1_555 1_555
C18 C5 1_555 1_555
H24 C18 1_555 1_555
C19 C12 1_555 1_555
H25 C19 1_555 1_555
C20 N2 1_555 1_555
C21 C3 1_555 1_555
H26 C21 1_555 1_555
C22 C16 1_555 1_555
H27 C22 1_555 1_555
C23 C10 1_555 1_555
H28 C23 1_555 1_555
C24 C18 1_555 1_555
H29 C24 1_555 1_555
H30 C24 1_555 1_555
C25 C24 1_555 1_555
H31 C25 1_555 1_555
H32 C25 1_555 1_555
C26 C6 1_555 1_555
H33 C26 1_555 1_555
H34 C26 1_555 1_555
H35 C26 1_555 1_555
C27 C9 1_555 1_555
H36 C27 1_555 1_555
H37 C27 1_555 1_555
C28 C22 1_555 1_555
H38 C28 1_555 1_555
C29 N4 1_555 1_555
H39 C29 1_555 1_555
C30 C2 1_555 1_555
H40 C30 1_555 1_555
H41 C30 1_555 1_555
H42 O1 1_555 1_555
O7 H43 1_555 1_555
H43A O7 1_555 1_555
C1 C2 1_555 1_555
C3 C20 1_555 1_555
C4 C21 1_555 1_555
C5 C8 1_555 1_555
C11 C18 1_555 1_555
C11 C29 1_555 1_555
C14 C29 1_555 1_555
C15 C30 1_555 1_555
C19 C20 1_555 1_555
C23 C28 1_555 1_555
C25 C27 1_555 1_555

#END
