
#######################################################################
#
#                 Cambridge Crystallographic Data Centre
#                                CCDC 
#
#######################################################################
#
# If this CIF has been generated from an entry in the Cambridge 
# Structural Database, then it will include bibliographic, chemical, 
# crystal, experimental, refinement or atomic coordinate data resulting 
# from the CCDC's data processing and validation procedures.
#
#######################################################################

data_CADMOK01
_chemical_formula_moiety         'C32 H30 Si2'
_chemical_name_systematic        6,13-bis(trimethylsilylethynyl)pentacene
_symmetry_cell_setting           triclinic
_symmetry_space_group_name_H-M   'P -1'
_symmetry_Int_Tables_number      2
_space_group_name_Hall           '-P 1'
loop_
_symmetry_equiv_pos_site_id
_symmetry_equiv_pos_as_xyz
1 x,y,z
2 -x,-y,-z
_cell_length_a                   5.7152(14)
_cell_length_b                   15.149(3)
_cell_length_c                   16.000(4)
_cell_angle_alpha                83.045(9)
_cell_angle_beta                 82.557(9)
_cell_angle_gamma                81.403(9)
_cell_volume                     1350.84
_exptl_crystal_colour            blue
_exptl_crystal_description       plate
_cell_formula_units_Z            2
_exptl_crystal_recrystallization_method 
'Re-crystallisation from solvent: Chloroform-d'
loop_
_atom_site_label
_atom_site_type_symbol
_atom_site_fract_x
_atom_site_fract_y
_atom_site_fract_z
C1 C 0.3480(7) 0.4946(3) 0.4367(3)
C2 C 0.1969(7) 0.4910(3) 0.3757(3)
H1 H 0.0976 0.4467 0.3836
C3 C 0.1907(7) 0.5524(3) 0.3031(3)
C4 C 0.0358(7) 0.5493(3) 0.2425(3)
H2 H -0.0695 0.5070 0.2509
C5 C 0.0409(9) 0.6095(3) 0.1703(3)
H3 H -0.0587 0.6070 0.1293
C6 C 0.1953(9) 0.6738(3) 0.1591(3)
H4 H 0.1963 0.7138 0.1101
C7 C 0.3420(8) 0.6806(3) 0.2157(3)
H5 H 0.4411 0.7251 0.2062
C8 C 0.3467(7) 0.6188(3) 0.2917(3)
C9 C 0.4930(7) 0.6233(3) 0.3526(3)
H6 H 0.5923 0.6677 0.3441
C10 C 0.4986(6) 0.5635(3) 0.4272(3)
C11 C 0.6468(7) 0.5697(2) 0.4891(3)
C12 C 0.7797(7) 0.6435(3) 0.4830(2)
C13 C 0.8879(7) 0.7058(3) 0.4853(3)
C14 C 1.2248(8) 0.8407(3) 0.4117(3)
H7 H 1.3660 0.7979 0.4045
H8 H 1.2679 0.8975 0.4202
H9 H 1.1432 0.8473 0.3621
C15 C 0.7867(8) 0.8915(3) 0.5311(3)
H10 H 0.7079 0.9138 0.4818
H11 H 0.8520 0.9393 0.5503
H12 H 0.6742 0.8685 0.5752
C16 C 1.2013(9) 0.7634(4) 0.5951(3)
H13 H 1.1047 0.7332 0.6399
H14 H 1.2492 0.8145 0.6151
H15 H 1.3401 0.7230 0.5775
Si1 Si 1.0283(2) 0.80094(8) 0.50443(8)
C1A C 0.6520(7) 0.5054(3) 0.5633(3)
C2A C 0.8031(7) 0.5090(3) 0.6243(3)
H1A H 0.9024 0.5533 0.6164
C3A C 0.8093(7) 0.4476(3) 0.6969(3)
C4A C 0.9642(7) 0.4507(3) 0.7575(3)
H2A H 1.0695 0.4930 0.7491
C5A C 0.9591(9) 0.3905(3) 0.8297(3)
H3A H 1.0587 0.3930 0.8707
C6A C 0.8047(9) 0.3262(3) 0.8409(3)
H4A H 0.8037 0.2862 0.8899
C7A C 0.6580(8) 0.3194(3) 0.7843(3)
H5A H 0.5589 0.2749 0.7938
C8A C 0.6533(7) 0.3812(3) 0.7083(3)
C9A C 0.5070(7) 0.3767(3) 0.6474(3)
H6A H 0.4077 0.3323 0.6559
C10A C 0.5014(6) 0.4365(3) 0.5728(3)
C11A C 0.3532(7) 0.4303(2) 0.5109(3)
C12A C 0.2203(7) 0.3565(3) 0.5170(2)
C13A C 0.1121(7) 0.2942(3) 0.5147(3)
C14A C -0.2248(8) 0.1593(3) 0.5883(3)
H7A H -0.3660 0.2021 0.5955
H8A H -0.2679 0.1025 0.5798
H9A H -0.1432 0.1527 0.6379
C15A C 0.2133(8) 0.1085(3) 0.4689(3)
H10A H 0.2921 0.0862 0.5182
H11A H 0.1480 0.0607 0.4497
H12A H 0.3258 0.1315 0.4248
C16A C -0.2013(9) 0.2366(4) 0.4049(3)
H13A H -0.1047 0.2668 0.3601
H14A H -0.2492 0.1855 0.3849
H15A H -0.3401 0.2770 0.4225
Si1A Si -0.0283(2) 0.19906(8) 0.49557(8)
C17 C 1.2028(8) 0.9464(3) 0.0319(3)
C18 C 1.4013(8) 0.8971(3) 0.0655(3)
H16 H 1.4702 0.8448 0.0419
C19 C 1.5014(8) 0.9215(3) 0.1317(3)
C20 C 1.7038(8) 0.8710(3) 0.1645(3)
H17 H 1.7763 0.8198 0.1398
C21 C 1.7936(9) 0.8950(4) 0.2301(3)
H18 H 1.9241 0.8596 0.2517
C22 C 1.6899(10) 0.9748(4) 0.2671(3)
H19 H 1.7556 0.9919 0.3118
C23 C 1.4992(9) 1.0250(3) 0.2381(3)
H20 H 1.4332 1.0766 0.2632
C24 C 1.3956(8) 1.0011(3) 0.1699(3)
C25 C 1.2008(8) 1.0521(3) 0.1360(3)
H21 H 1.1348 1.1048 0.1593
C26 C 1.0990(8) 1.0283(3) 0.0687(3)
C27 C 0.8980(8) 1.0800(3) 0.0348(3)
C28 C 0.7912(8) 1.1619(3) 0.0693(3)
C29 C 0.6891(8) 1.2303(3) 0.0948(3)
C30 C 0.3002(10) 1.2959(3) 0.2244(3)
H22 H 0.2068 1.2517 0.2136
H23 H 0.1962 1.3475 0.2426
H24 H 0.3990 1.2711 0.2680
C31 C 0.6586(10) 1.4162(4) 0.1463(4)
H25 H 0.7693 1.3917 0.1861
H26 H 0.5514 1.4649 0.1689
H27 H 0.7442 1.4379 0.0940
C32 C 0.3070(10) 1.3667(4) 0.0400(3)
H28 H 0.4087 1.3784 -0.0116
H29 H 0.2034 1.4206 0.0524
H30 H 0.2134 1.3208 0.0336
Si2 Si 0.4890(2) 1.32900(8) 0.12681(8)
C17A C 0.7972(8) 1.0536(3) -0.0319(3)
C18A C 0.5987(8) 1.1029(3) -0.0655(3)
H16A H 0.5298 1.1552 -0.0419
C19A C 0.4986(8) 1.0785(3) -0.1317(3)
C20A C 0.2962(8) 1.1290(3) -0.1645(3)
H17A H 0.2237 1.1802 -0.1398
C21A C 0.2064(9) 1.1050(4) -0.2301(3)
H18A H 0.0759 1.1404 -0.2517
C22A C 0.3101(10) 1.0252(4) -0.2671(3)
H19A H 0.2444 1.0081 -0.3118
C23A C 0.5008(9) 0.9750(3) -0.2381(3)
H20A H 0.5668 0.9234 -0.2632
C24A C 0.6044(8) 0.9989(3) -0.1699(3)
C25A C 0.7992(8) 0.9479(3) -0.1360(3)
H21A H 0.8652 0.8952 -0.1593
C26A C 0.9010(8) 0.9717(3) -0.0687(3)
C27A C 1.1020(8) 0.9200(3) -0.0348(3)
C28A C 1.2088(8) 0.8381(3) -0.0693(3)
C29A C 1.3109(8) 0.7697(3) -0.0948(3)
C30A C 1.6998(10) 0.7041(3) -0.2244(3)
H22A H 1.7932 0.7483 -0.2136
H23A H 1.8038 0.6525 -0.2426
H24A H 1.6010 0.7289 -0.2680
C31A C 1.3414(10) 0.5838(4) -0.1463(4)
H25A H 1.2307 0.6083 -0.1861
H26A H 1.4486 0.5351 -0.1689
H27A H 1.2558 0.5621 -0.0940
C32A C 1.6930(10) 0.6333(4) -0.0400(3)
H28A H 1.5913 0.6216 0.0116
H29A H 1.7966 0.5794 -0.0524
H30A H 1.7866 0.6792 -0.0336
Si2A Si 1.5110(2) 0.67100(8) -0.12681(8)
loop_
_geom_bond_atom_site_label_1
_geom_bond_atom_site_label_2
_geom_bond_site_symmetry_1
_geom_bond_site_symmetry_2
C1 C2 1_555 1_555
C2 H1 1_555 1_555
C3 C2 1_555 1_555
C4 C3 1_555 1_555
H2 C4 1_555 1_555
C5 C4 1_555 1_555
H3 C5 1_555 1_555
C6 C5 1_555 1_555
H4 C6 1_555 1_555
C7 C6 1_555 1_555
H5 C7 1_555 1_555
C8 C3 1_555 1_555
C9 C8 1_555 1_555
H6 C9 1_555 1_555
C10 C1 1_555 1_555
C11 C10 1_555 1_555
C12 C11 1_555 1_555
C13 C12 1_555 1_555
C14 H7 1_555 1_555
H8 C14 1_555 1_555
H9 C14 1_555 1_555
C15 H10 1_555 1_555
H11 C15 1_555 1_555
H12 C15 1_555 1_555
C16 H13 1_555 1_555
H14 C16 1_555 1_555
H15 C16 1_555 1_555
Si1 C13 1_555 1_555
C17 C18 1_555 1_555
C18 H16 1_555 1_555
C19 C18 1_555 1_555
C20 C19 1_555 1_555
H17 C20 1_555 1_555
C21 C20 1_555 1_555
H18 C21 1_555 1_555
C22 C21 1_555 1_555
H19 C22 1_555 1_555
C23 C22 1_555 1_555
H20 C23 1_555 1_555
C24 C19 1_555 1_555
C25 C24 1_555 1_555
H21 C25 1_555 1_555
C26 C17 1_555 1_555
C27 C26 1_555 1_555
C28 C27 1_555 1_555
C29 C28 1_555 1_555
C30 H22 1_555 1_555
H23 C30 1_555 1_555
H24 C30 1_555 1_555
C31 H25 1_555 1_555
H26 C31 1_555 1_555
H27 C31 1_555 1_555
C32 H28 1_555 1_555
H29 C32 1_555 1_555
H30 C32 1_555 1_555
Si2 C29 1_555 1_555
C1A C11 1_555 1_555
C2A C1A 1_555 1_555
H1A C2A 1_555 1_555
C3A C2A 1_555 1_555
C4A C3A 1_555 1_555
H2A C4A 1_555 1_555
C5A C4A 1_555 1_555
H3A C5A 1_555 1_555
C6A C5A 1_555 1_555
H4A C6A 1_555 1_555
C7A C6A 1_555 1_555
H5A C7A 1_555 1_555
C8A C3A 1_555 1_555
C9A C8A 1_555 1_555
H6A C9A 1_555 1_555
C10A C1A 1_555 1_555
C11A C1 1_555 1_555
C12A C11A 1_555 1_555
C13A C12A 1_555 1_555
C14A H7A 1_555 1_555
H8A C14A 1_555 1_555
H9A C14A 1_555 1_555
C15A H10A 1_555 1_555
H11A C15A 1_555 1_555
H12A C15A 1_555 1_555
C16A H13A 1_555 1_555
H14A C16A 1_555 1_555
H15A C16A 1_555 1_555
Si1A C13A 1_555 1_555
C17A C27 1_555 1_555
C18A C17A 1_555 1_555
H16A C18A 1_555 1_555
C19A C18A 1_555 1_555
C20A C19A 1_555 1_555
H17A C20A 1_555 1_555
C21A C20A 1_555 1_555
H18A C21A 1_555 1_555
C22A C21A 1_555 1_555
H19A C22A 1_555 1_555
C23A C22A 1_555 1_555
H20A C23A 1_555 1_555
C24A C19A 1_555 1_555
C25A C24A 1_555 1_555
H21A C25A 1_555 1_555
C26A C17A 1_555 1_555
C27A C17 1_555 1_555
C28A C27A 1_555 1_555
C29A C28A 1_555 1_555
C30A H22A 1_555 1_555
H23A C30A 1_555 1_555
H24A C30A 1_555 1_555
C31A H25A 1_555 1_555
H26A C31A 1_555 1_555
H27A C31A 1_555 1_555
C32A H28A 1_555 1_555
H29A C32A 1_555 1_555
H30A C32A 1_555 1_555
Si2A C29A 1_555 1_555
C7 C8 1_555 1_555
C9 C10 1_555 1_555
C14 Si1 1_555 1_555
C15 Si1 1_555 1_555
C16 Si1 1_555 1_555
C23 C24 1_555 1_555
C25 C26 1_555 1_555
C30 Si2 1_555 1_555
C31 Si2 1_555 1_555
C32 Si2 1_555 1_555
C7A C8A 1_555 1_555
C9A C10A 1_555 1_555
C10A C11A 1_555 1_555
C14A Si1A 1_555 1_555
C15A Si1A 1_555 1_555
C16A Si1A 1_555 1_555
C23A C24A 1_555 1_555
C25A C26A 1_555 1_555
C26A C27A 1_555 1_555
C30A Si2A 1_555 1_555
C31A Si2A 1_555 1_555
C32A Si2A 1_555 1_555

#END
