
#######################################################################
#
#                 Cambridge Crystallographic Data Centre
#                                CCDC 
#
#######################################################################
#
# If this CIF has been generated from an entry in the Cambridge 
# Structural Database, then it will include bibliographic, chemical, 
# crystal, experimental, refinement or atomic coordinate data resulting 
# from the CCDC's data processing and validation procedures.
#
#######################################################################

data_CADNAZ
_chemical_formula_moiety         'C30 H42 Br1 N3 O4 S1,0.5(H2 O1)'
_chemical_name_systematic        
'(3S,4aS, 8aS)-N-(1,1-dimethyl)decahydro-2-[(2R,3S)-2-hydroxy-3-[[(4-bromophenyl)sulfonyl]amino]-4-phenylbutyl]-3-isoquinolinecarboxamide hemihydrate'
_symmetry_cell_setting           monoclinic
_symmetry_space_group_name_H-M   'P 21'
_symmetry_Int_Tables_number      4
_space_group_name_Hall           'P 2yb'
loop_
_symmetry_equiv_pos_site_id
_symmetry_equiv_pos_as_xyz
1 x,y,z
2 -x,1/2+y,-z
_cell_length_a                   11.0860(9)
_cell_length_b                   28.559(2)
_cell_length_c                   11.5220(10)
_cell_angle_alpha                90
_cell_angle_beta                 117.585(3)
_cell_angle_gamma                90
_cell_volume                     3233.25
_exptl_crystal_colour            colorless
_exptl_crystal_description       slab
_cell_formula_units_Z            4
loop_
_atom_site_label
_atom_site_type_symbol
_atom_site_fract_x
_atom_site_fract_y
_atom_site_fract_z
Br1 Br 0.72954(13) 0.50449(5) 0.51536(14)
S1 S 0.6460(3) 0.71868(11) 0.6237(3)
O1 O 0.8347(9) 0.8230(3) 0.9098(9)
H1 H 0.846(15) 0.826(4) 0.836(8)
N1 N 0.7580(9) 0.7280(3) 1.0839(10)
C1 C 0.6070(11) 0.5794(5) 0.5816(12)
H2 H 0.5452 0.5557 0.5777
C2 C 0.7135(12) 0.5684(4) 0.5619(13)
O2 O 0.5494(9) 0.7185(3) 0.6734(10)
C3 C 0.7808(11) 0.7293(4) 1.2246(13)
H3 H 0.7242 0.7552 1.2324
C4 C 0.6826(11) 0.6591(4) 0.6145(11)
N2 N 0.7866(10) 0.7430(4) 0.7240(10)
H4 H 0.782(9) 0.7692(17) 0.693(6)
N3 N 1.0226(9) 0.7177(4) 1.2936(10)
H5 H 0.9911 0.7003 1.2227
C5 C 0.9899(11) 0.7409(4) 0.9361(12)
H6 H 1.0209 0.7703 0.9128
H7 H 1.0229 0.7410 1.0320
C6 C 1.0523(11) 0.6996(4) 0.9003(12)
C7 C 0.5616(12) 0.6734(5) 1.0288(15)
H8 H 0.4608 0.6722 0.9727
C8 C 0.9301(13) 0.7394(4) 1.3199(13)
C9 C 0.6112(11) 0.7183(4) 0.9962(13)
H9 H 0.5962 0.7166 0.9046
H10 H 0.5563 0.7446 1.0020
C10 C 1.0389(12) 0.6545(4) 0.9382(13)
H11 H 0.9909 0.6493 0.9873
C11 C 0.7733(11) 0.7792(4) 0.9107(12)
H12 H 0.6738 0.7812 0.8488
C12 C 0.5864(11) 0.6253(4) 0.6077(13)
H13 H 0.5104 0.6337 0.6204
C13 C 0.8121(12) 0.6002(5) 0.5709(13)
H14 H 0.8867 0.5909 0.5570
O3 O 0.6104(11) 0.7382(3) 0.4985(10)
O4 O 0.9604(10) 0.7634(4) 1.4150(10)
C14 C 0.5889(13) 0.6727(5) 1.1752(14)
H15 H 0.5340 0.6984 1.1862
C15 C 0.7909(13) 0.7738(4) 1.0500(12)
H16 H 0.8867 0.7811 1.1123
H17 H 0.7332 0.7975 1.0630
C16 C 1.1719(12) 0.7205(5) 1.3726(11)
C17 C 0.8336(11) 0.7398(4) 0.8668(11)
H18 H 0.8027 0.7093 0.8863
C18 C 1.2367(14) 0.6904(6) 1.3086(15)
H19 H 1.2153 0.6574 1.3138
H20 H 1.3356 0.6948 1.3539
H21 H 1.2011 0.6995 1.2165
C19 C 1.0964(13) 0.6169(4) 0.9038(14)
H22 H 1.0883 0.5860 0.9302
C20 C 1.1650(14) 0.6245(5) 0.8317(15)
H23 H 1.2026 0.5989 0.8066
C21 C 0.7376(13) 0.6839(5) 1.2623(14)
H24 H 0.7541 0.6861 1.3542
H25 H 0.7942 0.6580 1.2568
C22 C 1.2176(13) 0.7708(4) 1.3793(14)
H26 H 1.1791 0.7838 1.2907
H27 H 1.3172 0.7720 1.4197
H28 H 1.1861 0.7892 1.4319
C23 C 0.7972(13) 0.6459(5) 0.6006(13)
H29 H 0.8647 0.6685 0.6117
C24 C 0.6213(15) 0.6300(5) 0.9967(16)
H30 H 0.5979 0.6305 0.9027
H31 H 0.7217 0.6308 1.0481
C25 C 1.2103(13) 0.7022(6) 1.5118(14)
H32 H 1.1532 0.7176 1.5447
H33 H 1.3062 0.7092 1.5702
H34 H 1.1959 0.6683 1.5086
C26 C 1.1230(13) 0.7070(4) 0.8283(12)
H35 H 1.1325 0.7377 0.8018
C27 C 0.5697(14) 0.5855(5) 1.0262(16)
H36 H 0.6145 0.5585 1.0079
H37 H 0.4705 0.5829 0.9681
C28 C 1.1787(14) 0.6690(6) 0.7965(15)
H38 H 1.2280 0.6739 0.7486
C29 C 0.5981(13) 0.5834(5) 1.1739(16)
H39 H 0.5543 0.5553 1.1879
H40 H 0.6973 0.5812 1.2322
C30 C 0.5418(14) 0.6274(5) 1.2077(17)
H41 H 0.4412 0.6263 1.1599
H42 H 0.5690 0.6270 1.3025
Br2 Br 0.97650(14) 1.08198(5) 0.61677(16)
S2 S 0.6305(3) 0.89415(10) 0.5424(3)
O5 O 0.4888(9) 0.7830(3) 0.2619(8)
H43 H 0.522(14) 0.771(3) 0.346(5)
O6 O 0.4909(8) 0.9086(3) 0.4992(9)
N4 N 0.3051(11) 0.8806(4) -0.1403(10)
H44 H 0.3506 0.8975 -0.0692
O7 O 0.1170(9) 0.8353(3) -0.2467(9)
N5 N 0.2607(9) 0.8798(3) 0.0803(9)
C31 C 0.8716(13) 1.0269(5) 0.5913(13)
N6 N 0.6404(9) 0.8620(3) 0.4360(10)
H45 H 0.721(4) 0.867(4) 0.453(7)
O8 O 0.7014(9) 0.8712(3) 0.6655(8)
C32 C 0.7245(11) 0.9471(4) 0.5566(11)
C33 C 0.5455(11) 0.8662(4) 0.2950(12)
H46 H 0.5008 0.8976 0.2788
C34 C 0.9238(13) 0.9850(5) 0.5752(14)
H47 H 1.0102 0.9839 0.5769
C35 C 0.6721(13) 0.9889(4) 0.5722(13)
H48 H 0.5863 0.9897 0.5720
C36 C 0.7156(12) 0.9025(4) 0.2300(12)
C37 C 0.1447(12) 0.8758(4) -0.0522(13)
H49 H 0.0810 0.8514 -0.0498
C38 C 0.4349(11) 0.8283(4) 0.2561(12)
H50 H 0.3977 0.8295 0.3203
C39 C 0.3172(12) 0.8317(4) 0.1209(12)
H51 H 0.3467 0.8198 0.0574
H52 H 0.2434 0.8109 0.1161
C40 C 0.0252(12) 0.9443(4) -0.0040(13)
H53 H -0.0439 0.9236 0.0031
C41 C 0.6223(13) 0.8623(4) 0.2120(13)
H54 H 0.6760 0.8329 0.2357
H55 H 0.5548 0.8601 0.1183
C42 C 0.8548(13) 0.8964(5) 0.2862(13)
H56 H 0.8919 0.8660 0.3140
C43 C 0.2515(12) 0.9840(4) 0.1398(13)
H57 H 0.2950 0.9751 0.0848
H58 H 0.3236 0.9865 0.2316
C44 C 0.2107(11) 0.8988(4) 0.1704(12)
H59 H 0.2875 0.9006 0.2600
H60 H 0.1420 0.8771 0.1725
C45 C 0.0656(13) 0.9214(5) -0.1023(13)
H61 H -0.0178 0.9151 -0.1850
H62 H 0.1220 0.9438 -0.1220
C46 C -0.0402(14) 0.9927(5) -0.0508(13)
H63 H -0.1118 0.9904 -0.1429
H64 H -0.0842 1.0027 0.0029
C47 C 0.1486(12) 0.9464(4) 0.1297(12)
H65 H 0.1144 0.9555 0.1930
C48 C 0.3658(14) 0.8778(5) -0.2318(14)
C49 C 0.1904(11) 0.8609(4) -0.1526(13)
C50 C 0.6636(13) 0.9469(5) 0.1918(13)
H66 H 0.5687 0.9527 0.1558
C51 C 0.0624(15) 1.0292(5) -0.0411(15)
H67 H 0.0968 1.0217 -0.1043
H68 H 0.0175 1.0602 -0.0646
C52 C 0.8881(13) 0.9774(5) 0.2636(14)
H69 H 0.9459 1.0035 0.2763
C53 C 0.4014(18) 0.8267(6) -0.2403(17)
H70 H 0.4657 0.8154 -0.1529
H71 H 0.4429 0.8241 -0.2989
H72 H 0.3184 0.8077 -0.2746
C54 C 0.7536(16) 0.9824(5) 0.2073(15)
H73 H 0.7172 1.0126 0.1757
C55 C 0.7471(13) 1.0304(4) 0.5884(14)
H74 H 0.7123 1.0598 0.5971
C56 C 0.2574(14) 0.8955(5) -0.3688(13)
H75 H 0.1822 0.8730 -0.4063
H76 H 0.2993 0.8985 -0.4269
H77 H 0.2225 0.9260 -0.3593
C57 C 0.8472(12) 0.9441(4) 0.5565(12)
H78 H 0.8801 0.9148 0.5440
C58 C 0.9411(15) 0.9333(6) 0.3028(14)
H79 H 1.0366 0.9284 0.3410
C59 C 0.1795(15) 1.0315(4) 0.0939(16)
H80 H 0.1460 1.0420 0.1557
H81 H 0.2459 1.0550 0.0954
C60 C 0.4927(19) 0.9081(8) -0.1727(18)
H82 H 0.4664 0.9411 -0.1766
H83 H 0.5438 0.9038 -0.2222
H84 H 0.5497 0.8990 -0.0812
O9 O 0.8722(8) 0.8019(3) 0.5760(9)
H85 H 0.852(13) 0.779(4) 0.514(11)
H86 H 0.963(6) 0.808(5) 0.596(14)
loop_
_geom_bond_atom_site_label_1
_geom_bond_atom_site_label_2
_geom_bond_site_symmetry_1
_geom_bond_site_symmetry_2
Br1 C2 1_555 1_555
S1 O2 1_555 1_555
O1 H1 1_555 1_555
N1 C3 1_555 1_555
C1 H2 1_555 1_555
C2 C1 1_555 1_555
C3 H3 1_555 1_555
C4 S1 1_555 1_555
N2 S1 1_555 1_555
H4 N2 1_555 1_555
N3 H5 1_555 1_555
C5 H6 1_555 1_555
H7 C5 1_555 1_555
C6 C5 1_555 1_555
C7 H8 1_555 1_555
C8 C3 1_555 1_555
C9 N1 1_555 1_555
H9 C9 1_555 1_555
H10 C9 1_555 1_555
C10 C6 1_555 1_555
H11 C10 1_555 1_555
C11 O1 1_555 1_555
H12 C11 1_555 1_555
C12 C1 1_555 1_555
H13 C12 1_555 1_555
C13 C2 1_555 1_555
H14 C13 1_555 1_555
O3 S1 1_555 1_555
O4 C8 1_555 1_555
C14 C7 1_555 1_555
H15 C14 1_555 1_555
C15 N1 1_555 1_555
H16 C15 1_555 1_555
H17 C15 1_555 1_555
C16 N3 1_555 1_555
C17 N2 1_555 1_555
H18 C17 1_555 1_555
C18 C16 1_555 1_555
H19 C18 1_555 1_555
H20 C18 1_555 1_555
H21 C18 1_555 1_555
C19 C10 1_555 1_555
H22 C19 1_555 1_555
C20 C19 1_555 1_555
H23 C20 1_555 1_555
C21 C3 1_555 1_555
H24 C21 1_555 1_555
H25 C21 1_555 1_555
C22 C16 1_555 1_555
H26 C22 1_555 1_555
H27 C22 1_555 1_555
H28 C22 1_555 1_555
C23 C4 1_555 1_555
H29 C23 1_555 1_555
C24 C7 1_555 1_555
H30 C24 1_555 1_555
H31 C24 1_555 1_555
C25 C16 1_555 1_555
H32 C25 1_555 1_555
H33 C25 1_555 1_555
H34 C25 1_555 1_555
C26 C6 1_555 1_555
H35 C26 1_555 1_555
C27 C24 1_555 1_555
H36 C27 1_555 1_555
H37 C27 1_555 1_555
C28 C20 1_555 1_555
H38 C28 1_555 1_555
C29 C27 1_555 1_555
H39 C29 1_555 1_555
H40 C29 1_555 1_555
C30 C14 1_555 1_555
H41 C30 1_555 1_555
H42 C30 1_555 1_555
Br2 C31 1_555 1_555
S2 O6 1_555 1_555
O5 H43 1_555 1_555
N4 H44 1_555 1_555
O7 C49 1_555 1_555
N5 C37 1_555 1_555
C31 C34 1_555 1_555
N6 S2 1_555 1_555
H45 N6 1_555 1_555
O8 S2 1_555 1_555
C32 S2 1_555 1_555
C33 N6 1_555 1_555
H46 C33 1_555 1_555
C34 H47 1_555 1_555
C35 C32 1_555 1_555
H48 C35 1_555 1_555
C36 C41 1_555 1_555
C37 H49 1_555 1_555
C38 O5 1_555 1_555
H50 C38 1_555 1_555
C39 N5 1_555 1_555
H51 C39 1_555 1_555
H52 C39 1_555 1_555
C40 H53 1_555 1_555
C41 C33 1_555 1_555
H54 C41 1_555 1_555
H55 C41 1_555 1_555
C42 C36 1_555 1_555
H56 C42 1_555 1_555
C43 H57 1_555 1_555
H58 C43 1_555 1_555
C44 N5 1_555 1_555
H59 C44 1_555 1_555
H60 C44 1_555 1_555
C45 C37 1_555 1_555
H61 C45 1_555 1_555
H62 C45 1_555 1_555
C46 C40 1_555 1_555
H63 C46 1_555 1_555
H64 C46 1_555 1_555
C47 C40 1_555 1_555
H65 C47 1_555 1_555
C48 N4 1_555 1_555
C49 N4 1_555 1_555
C50 C36 1_555 1_555
H66 C50 1_555 1_555
C51 C46 1_555 1_555
H67 C51 1_555 1_555
H68 C51 1_555 1_555
C52 H69 1_555 1_555
C53 C48 1_555 1_555
H70 C53 1_555 1_555
H71 C53 1_555 1_555
H72 C53 1_555 1_555
C54 C50 1_555 1_555
H73 C54 1_555 1_555
C55 C31 1_555 1_555
H74 C55 1_555 1_555
C56 C48 1_555 1_555
H75 C56 1_555 1_555
H76 C56 1_555 1_555
H77 C56 1_555 1_555
C57 C32 1_555 1_555
H78 C57 1_555 1_555
C58 C42 1_555 1_555
H79 C58 1_555 1_555
C59 C43 1_555 1_555
H80 C59 1_555 1_555
H81 C59 1_555 1_555
C60 C48 1_555 1_555
H82 C60 1_555 1_555
H83 C60 1_555 1_555
H84 C60 1_555 1_555
O9 H85 1_555 1_555
H86 O9 1_555 1_555
C4 C12 1_555 1_555
N3 C8 1_555 1_555
C5 C17 1_555 1_555
C7 C9 1_555 1_555
C11 C15 1_555 1_555
C11 C17 1_555 1_555
C13 C23 1_555 1_555
C14 C21 1_555 1_555
C26 C28 1_555 1_555
C29 C30 1_555 1_555
C33 C38 1_555 1_555
C34 C57 1_555 1_555
C35 C55 1_555 1_555
C37 C49 1_555 1_555
C38 C39 1_555 1_555
C40 C45 1_555 1_555
C43 C47 1_555 1_555
C44 C47 1_555 1_555
C51 C59 1_555 1_555
C52 C54 1_555 1_555
C52 C58 1_555 1_555

#END
