
#######################################################################
#
#                 Cambridge Crystallographic Data Centre
#                                CCDC 
#
#######################################################################
#
# If this CIF has been generated from an entry in the Cambridge 
# Structural Database, then it will include bibliographic, chemical, 
# crystal, experimental, refinement or atomic coordinate data resulting 
# from the CCDC's data processing and validation procedures.
#
#######################################################################

data_CADQEE
_chemical_formula_moiety         'C12 H20 N2 O4'
_chemical_name_systematic        
'(4S,7R,9R)-7-Hydroxy-1-oxo-hexahydro-pyrrolo(2,1-c)(1,4)oxazine-4-carboxylic acid t-butylamide'
_symmetry_cell_setting           orthorhombic
_symmetry_space_group_name_H-M   'P 21 21 21'
_symmetry_Int_Tables_number      19
_space_group_name_Hall           'P 2ac 2ab'
loop_
_symmetry_equiv_pos_site_id
_symmetry_equiv_pos_as_xyz
1 x,y,z
2 1/2-x,-y,1/2+z
3 -x,1/2+y,1/2-z
4 1/2+x,1/2-y,-z
_cell_length_a                   9.6199(15)
_cell_length_b                   11.7608(18)
_cell_length_c                   12.1665(19)
_cell_angle_alpha                90
_cell_angle_beta                 90
_cell_angle_gamma                90
_cell_volume                     1376.49
_exptl_crystal_colour            white
_chemical_melting_point          122-128deg.C
_cell_formula_units_Z            4
_exptl_crystal_recrystallization_method 'hexane/ethyl acetate'
loop_
_atom_site_label
_atom_site_type_symbol
_atom_site_fract_x
_atom_site_fract_y
_atom_site_fract_z
O1 O 0.9519(3) -1.4219(3) -1.0703(3)
O2 O 0.7314(4) -1.4222(3) -1.3801(3)
N1 N 0.8230(3) -1.2290(3) -1.1603(3)
O3 O 1.0272(4) -1.3213(3) -0.9306(3)
N2 N 0.6125(4) -1.2787(3) -1.2982(3)
H1 H 0.6171 -1.2301 -1.2455
C1 C 0.8371(4) -1.3320(3) -1.2238(3)
H2 H 0.9261 -1.3292 -1.2628
C2 C 0.9504(5) -1.3276(4) -1.0071(4)
C3 C 0.8418(4) -1.2388(4) -1.0398(3)
H3 H 0.7526 -1.2590 -1.0062
C4 C 0.7201(4) -1.3481(3) -1.3095(3)
C5 C 0.8391(5) -1.4334(4) -1.1469(4)
H4 H 0.7517 -1.4378 -1.1073
H5 H 0.8503 -1.5028 -1.1890
C6 C 0.9608(5) -1.0706(4) -1.1026(4)
H6 H 0.9536 -0.9875 -1.1062
C7 C 0.4852(4) -1.2758(4) -1.3668(4)
O4 O 1.1007(4) -1.1056(3) -1.0955(4)
H7 H 1.1518 -1.0502 -1.1026
C8 C 0.8800(5) -1.1172(4) -1.0064(4)
H8 H 0.7971 -1.0723 -0.9931
H9 H 0.9365 -1.1171 -0.9403
C9 C 0.8912(7) -1.1258(4) -1.2005(4)
H10 H 0.8233 -1.0745 -1.2324
H11 H 0.9596 -1.1446 -1.2561
C10 C 0.5257(6) -1.2684(6) -1.4882(4)
H12 H 0.5766 -1.1994 -1.5009
H13 H 0.4433 -1.2687 -1.5327
H14 H 0.5827 -1.3325 -1.5072
C11 C 0.4045(7) -1.1703(6) -1.3338(6)
H15 H 0.4592 -1.1039 -1.3493
H16 H 0.3842 -1.1732 -1.2566
H17 H 0.3193 -1.1670 -1.3747
C12 C 0.4008(6) -1.3833(5) -1.3465(5)
H18 H 0.3747 -1.3870 -1.2705
H19 H 0.4558 -1.4486 -1.3651
H20 H 0.3187 -1.3819 -1.3914
loop_
_geom_bond_atom_site_label_1
_geom_bond_atom_site_label_2
_geom_bond_site_symmetry_1
_geom_bond_site_symmetry_2
O1 C2 1_555 1_555
O2 C4 1_555 1_555
N1 C1 1_555 1_555
O3 C2 1_555 1_555
N2 H1 1_555 1_555
C1 H2 1_555 1_555
C2 C3 1_555 1_555
C3 N1 1_555 1_555
H3 C3 1_555 1_555
C4 N2 1_555 1_555
C5 O1 1_555 1_555
H4 C5 1_555 1_555
H5 C5 1_555 1_555
C6 H6 1_555 1_555
C7 N2 1_555 1_555
O4 C6 1_555 1_555
H7 O4 1_555 1_555
C8 C3 1_555 1_555
H8 C8 1_555 1_555
H9 C8 1_555 1_555
C9 N1 1_555 1_555
H10 C9 1_555 1_555
H11 C9 1_555 1_555
C10 C7 1_555 1_555
H12 C10 1_555 1_555
H13 C10 1_555 1_555
H14 C10 1_555 1_555
C11 C7 1_555 1_555
H15 C11 1_555 1_555
H16 C11 1_555 1_555
H17 C11 1_555 1_555
C12 C7 1_555 1_555
H18 C12 1_555 1_555
H19 C12 1_555 1_555
H20 C12 1_555 1_555
C1 C4 1_555 1_555
C1 C5 1_555 1_555
C6 C8 1_555 1_555
C6 C9 1_555 1_555

#END
