
#######################################################################
#
#                 Cambridge Crystallographic Data Centre
#                                CCDC 
#
#######################################################################
#
# If this CIF has been generated from an entry in the Cambridge 
# Structural Database, then it will include bibliographic, chemical, 
# crystal, experimental, refinement or atomic coordinate data resulting 
# from the CCDC's data processing and validation procedures.
#
#######################################################################

data_CADSIL
_chemical_formula_moiety         'C14 H14 N2 O1'
_chemical_name_systematic        3-Propoxy-2H-\b-carboline
_symmetry_cell_setting           triclinic
_symmetry_space_group_name_H-M   'P 1'
_symmetry_Int_Tables_number      1
_space_group_name_Hall           'P 1'
loop_
_symmetry_equiv_pos_site_id
_symmetry_equiv_pos_as_xyz
1 x,y,z
_cell_length_a                   5.1335(14)
_cell_length_b                   10.319(3)
_cell_length_c                   10.983(3)
_cell_angle_alpha                75.541(9)
_cell_angle_beta                 84.199(10)
_cell_angle_gamma                88.679(10)
_cell_volume                     560.484
_exptl_crystal_colour            colorless
_exptl_crystal_description       'irregular plate'
_cell_formula_units_Z            2
loop_
_atom_site_label
_atom_site_type_symbol
_atom_site_fract_x
_atom_site_fract_y
_atom_site_fract_z
C1 C 0.0134(8) 0.2903(4) 0.1022(4)
N1 N 0.0022(7) 0.3063(4) 0.2190(3)
H1 H -0.1050 0.3652 0.2427
C2 C 0.1574(9) 0.2311(4) 0.3003(4)
H2 H 0.1490 0.2402 0.3846
C3 C 0.3287(8) 0.1408(4) 0.2624(4)
N2 N 0.5113(8) 0.0552(4) 0.3272(4)
C4 C 0.6385(8) -0.0146(4) 0.2472(4)
C5 C 0.8424(9) -0.1057(5) 0.2684(5)
H3 H 0.9151 -0.1284 0.3472
C6 C 0.9355(10) -0.1620(5) 0.1719(5)
H4 H 1.0727 -0.2258 0.1852
C7 C 0.8327(10) -0.1276(5) 0.0527(5)
H5 H 0.9025 -0.1676 -0.0126
C8 C 0.6319(9) -0.0362(4) 0.0316(4)
H6 H 0.5604 -0.0136 -0.0475
C9 C 0.5350(8) 0.0229(4) 0.1291(4)
C10 C 0.3399(8) 0.1203(4) 0.1359(4)
C11 C 0.1737(8) 0.1994(4) 0.0552(4)
H7 H 0.1697 0.1917 -0.0290
O1 O -0.1359(6) 0.3720(3) 0.0199(3)
C12 C -0.3250(9) 0.4564(4) 0.0679(4)
H8 H -0.2368 0.5180 0.1069
H9 H -0.4528 0.4015 0.1328
C13 C -0.4623(10) 0.5348(5) -0.0428(4)
H10 H -0.5483 0.4720 -0.0812
H11 H -0.3318 0.5877 -0.1077
C14 C -0.6654(11) 0.6281(5) -0.0018(6)
H12 H -0.7595 0.6731 -0.0740
H13 H -0.5787 0.6951 0.0297
H14 H -0.7897 0.5764 0.0655
C15 C -0.4838(8) 0.1932(4) 0.6242(4)
N3 N -0.4984(7) 0.1776(4) 0.7478(3)
H15 H -0.6068 0.1187 0.7987
C16 C -0.3432(9) 0.2542(4) 0.7950(4)
H16 H -0.3535 0.2452 0.8836
C17 C -0.1716(9) 0.3445(4) 0.7155(4)
N4 N 0.0078(7) 0.4301(4) 0.7430(3)
C18 C 0.1377(9) 0.5012(4) 0.6309(4)
C19 C 0.3420(9) 0.5931(5) 0.6129(4)
H17 H 0.4084 0.6171 0.6820
C20 C 0.4431(10) 0.6476(5) 0.4892(5)
H18 H 0.5826 0.7103 0.4740
C21 C 0.3490(10) 0.6146(5) 0.3863(5)
H19 H 0.4231 0.6553 0.3031
C22 C 0.1455(9) 0.5213(4) 0.4051(4)
H20 H 0.0792 0.4982 0.3356
C23 C 0.0426(8) 0.4633(4) 0.5293(4)
C24 C -0.1583(8) 0.3645(4) 0.5812(4)
C25 C -0.3218(8) 0.2854(4) 0.5351(4)
H21 H -0.3230 0.2938 0.4471
O2 O -0.6327(6) 0.1126(3) 0.5785(3)
C26 C -0.8194(9) 0.0266(4) 0.6678(4)
H22 H -0.9442 0.0807 0.7092
H23 H -0.7279 -0.0355 0.7338
C27 C -0.9644(10) -0.0517(5) 0.5949(5)
H24 H -1.0618 0.0109 0.5317
H25 H -0.8372 -0.1009 0.5495
C28 C -1.1542(12) -0.1499(5) 0.6855(5)
H26 H -1.2678 -0.1886 0.6371
H27 H -1.2615 -0.1030 0.7399
H28 H -1.0556 -0.2214 0.7378
loop_
_geom_bond_atom_site_label_1
_geom_bond_atom_site_label_2
_geom_bond_site_symmetry_1
_geom_bond_site_symmetry_2
C1 N1 1_555 1_555
N1 H1 1_555 1_555
C2 N1 1_555 1_555
H2 C2 1_555 1_555
C3 C2 1_555 1_555
N2 C3 1_555 1_555
C4 N2 1_555 1_555
C5 C4 1_555 1_555
H3 C5 1_555 1_555
C6 C5 1_555 1_555
H4 C6 1_555 1_555
C7 C6 1_555 1_555
H5 C7 1_555 1_555
C8 C7 1_555 1_555
H6 C8 1_555 1_555
C9 C4 1_555 1_555
C10 C3 1_555 1_555
C11 C1 1_555 1_555
H7 C11 1_555 1_555
O1 C1 1_555 1_555
C12 O1 1_555 1_555
H8 C12 1_555 1_555
H9 C12 1_555 1_555
C13 C12 1_555 1_555
H10 C13 1_555 1_555
H11 C13 1_555 1_555
C14 C13 1_555 1_555
H12 C14 1_555 1_555
H13 C14 1_555 1_555
H14 C14 1_555 1_555
C15 N3 1_555 1_555
N3 H15 1_555 1_555
C16 N3 1_555 1_555
H16 C16 1_555 1_555
C17 C16 1_555 1_555
N4 C17 1_555 1_555
C18 N4 1_555 1_555
C19 C18 1_555 1_555
H17 C19 1_555 1_555
C20 C19 1_555 1_555
H18 C20 1_555 1_555
C21 C20 1_555 1_555
H19 C21 1_555 1_555
C22 C21 1_555 1_555
H20 C22 1_555 1_555
C23 C18 1_555 1_555
C24 C17 1_555 1_555
C25 C15 1_555 1_555
H21 C25 1_555 1_555
O2 C15 1_555 1_555
C26 O2 1_555 1_555
H22 C26 1_555 1_555
H23 C26 1_555 1_555
C27 C26 1_555 1_555
H24 C27 1_555 1_555
H25 C27 1_555 1_555
C28 C27 1_555 1_555
H26 C28 1_555 1_555
H27 C28 1_555 1_555
H28 C28 1_555 1_555
C8 C9 1_555 1_555
C9 C10 1_555 1_555
C10 C11 1_555 1_555
C22 C23 1_555 1_555
C23 C24 1_555 1_555
C24 C25 1_555 1_555

#END
