
#######################################################################
#
#                 Cambridge Crystallographic Data Centre
#                                CCDC 
#
#######################################################################
#
# If this CIF has been generated from an entry in the Cambridge 
# Structural Database, then it will include bibliographic, chemical, 
# crystal, experimental, refinement or atomic coordinate data resulting 
# from the CCDC's data processing and validation procedures.
#
#######################################################################

data_CADSEH
_chemical_formula_moiety         'C14 H14 N2 O1'
_chemical_name_systematic        2-Propoxy-5H-pyrido[3,2-b]indole
_symmetry_cell_setting           orthorhombic
_symmetry_space_group_name_H-M   'P 21 21 2'
_symmetry_Int_Tables_number      18
_space_group_name_Hall           'P 2 2ab'
loop_
_symmetry_equiv_pos_site_id
_symmetry_equiv_pos_as_xyz
1 x,y,z
2 1/2+x,1/2-y,-z
3 1/2-x,1/2+y,-z
4 -x,-y,z
_cell_length_a                   14.2022(11)
_cell_length_b                   14.2864(9)
_cell_length_c                   11.7464(11)
_cell_angle_alpha                90
_cell_angle_beta                 90
_cell_angle_gamma                90
_cell_volume                     2383.32
_exptl_crystal_colour            colorless
_exptl_crystal_description       rod
_cell_formula_units_Z            8
loop_
_atom_site_label
_atom_site_type_symbol
_atom_site_fract_x
_atom_site_fract_y
_atom_site_fract_z
C1 C 0.60555(16) 0.62316(16) 0.53033(17)
C2 C 0.62939(16) 0.61193(16) 0.41510(18)
H1 H 0.6936 0.6075 0.3931
C3 C 0.55987(17) 0.60737(16) 0.33463(18)
H2 H 0.5742 0.5998 0.2562
C4 C 0.46819(16) 0.61422(15) 0.37229(17)
N1 N 0.38420(13) 0.61125(13) 0.31421(15)
H3 H 0.3778 0.6060 0.2400
C5 C 0.31164(16) 0.61797(16) 0.39165(17)
C6 C 0.21534(17) 0.61593(17) 0.37214(19)
H4 H 0.1908 0.6070 0.2977
C7 C 0.15616(17) 0.62737(17) 0.46498(18)
H5 H 0.0899 0.6266 0.4540
C8 C 0.19278(17) 0.64014(16) 0.57517(19)
H6 H 0.1508 0.6488 0.6373
C9 C 0.28826(16) 0.64034(15) 0.59442(18)
H7 H 0.3123 0.6478 0.6693
C10 C 0.34932(15) 0.62933(15) 0.50227(16)
C11 C 0.44984(16) 0.62543(16) 0.48942(17)
N2 N 0.51839(13) 0.63008(13) 0.56881(14)
O1 O 0.67154(10) 0.62673(11) 0.61523(12)
C12 C 0.76849(14) 0.62338(17) 0.58038(18)
H8 H 0.7836 0.6787 0.5330
H9 H 0.7801 0.5663 0.5346
C13 C 0.82958(16) 0.62251(18) 0.68511(18)
H10 H 0.8165 0.5656 0.7306
H11 H 0.8156 0.6780 0.7328
C14 C 0.93441(10) 0.62383(12) 0.64844(17)
H12 H 0.9746 0.6245 0.7163
H13 H 0.9467 0.6799 0.6028
H14 H 0.9482 0.5679 0.6031
C15 C 0.32093(10) 0.49620(12) 1.03461(11)
C16 C 0.31817(10) 0.46935(10) 0.92119(13)
H15 H 0.2803 0.4174 0.8999
C17 C 0.36842(17) 0.51552(15) 0.83877(18)
H16 H 0.3651 0.4975 0.7610
C18 C 0.42371(16) 0.58893(15) 0.87380(18)
N3 N 0.48398(13) 0.64613(12) 0.81446(15)
H17 H 0.4946 0.6437 0.7407
C19 C 0.52493(16) 0.70769(15) 0.88922(18)
C20 C 0.59252(18) 0.77504(18) 0.8684(2)
H18 H 0.6184 0.7831 0.7944
C21 C 0.6213(2) 0.83022(19) 0.9580(2)
H19 H 0.6669 0.8777 0.9451
C22 C 0.58490(19) 0.81776(18) 1.0675(2)
H20 H 0.6059 0.8570 1.1277
C23 C 0.51886(18) 0.74935(16) 1.08950(18)
H21 H 0.4942 0.7412 1.1640
C24 C 0.48892(16) 0.69216(15) 0.99993(17)
C25 C 0.42482(15) 0.61504(16) 0.98972(17)
N4 N 0.37469(13) 0.56907(13) 1.07047(14)
O2 O 0.27619(12) 0.45337(11) 1.12048(12)
C26 C 0.22340(18) 0.37076(17) 1.08929(18)
H22 H 0.2637 0.3280 1.0444
H23 H 0.1686 0.3886 1.0419
C27 C 0.1904(2) 0.32265(19) 1.1948(2)
H24 H 0.2459 0.3078 1.2425
H25 H 0.1605 0.2627 1.1730
C28 C 0.1210(2) 0.3786(2) 1.2659(2)
H26 H 0.0992 0.3404 1.3300
H27 H 0.0670 0.3965 1.2187
H28 H 0.1519 0.4351 1.2950
loop_
_geom_bond_atom_site_label_1
_geom_bond_atom_site_label_2
_geom_bond_site_symmetry_1
_geom_bond_site_symmetry_2
C1 C2 1_555 1_555
C2 H1 1_555 1_555
C3 C2 1_555 1_555
H2 C3 1_555 1_555
C4 C3 1_555 1_555
N1 C4 1_555 1_555
H3 N1 1_555 1_555
C5 N1 1_555 1_555
C6 C5 1_555 1_555
H4 C6 1_555 1_555
C7 C6 1_555 1_555
H5 C7 1_555 1_555
C8 C7 1_555 1_555
H6 C8 1_555 1_555
C9 C8 1_555 1_555
H7 C9 1_555 1_555
C10 C5 1_555 1_555
C11 C4 1_555 1_555
N2 C1 1_555 1_555
O1 C1 1_555 1_555
C12 O1 1_555 1_555
H8 C12 1_555 1_555
H9 C12 1_555 1_555
C13 C12 1_555 1_555
H10 C13 1_555 1_555
H11 C13 1_555 1_555
C14 C13 1_555 1_555
H12 C14 1_555 1_555
H13 C14 1_555 1_555
H14 C14 1_555 1_555
C15 C16 1_555 1_555
C16 H15 1_555 1_555
C17 C16 1_555 1_555
H16 C17 1_555 1_555
C18 C17 1_555 1_555
N3 C18 1_555 1_555
H17 N3 1_555 1_555
C19 N3 1_555 1_555
C20 C19 1_555 1_555
H18 C20 1_555 1_555
C21 C20 1_555 1_555
H19 C21 1_555 1_555
C22 C21 1_555 1_555
H20 C22 1_555 1_555
C23 C22 1_555 1_555
H21 C23 1_555 1_555
C24 C19 1_555 1_555
C25 C18 1_555 1_555
N4 C15 1_555 1_555
O2 C15 1_555 1_555
C26 O2 1_555 1_555
H22 C26 1_555 1_555
H23 C26 1_555 1_555
C27 C26 1_555 1_555
H24 C27 1_555 1_555
H25 C27 1_555 1_555
C28 C27 1_555 1_555
H26 C28 1_555 1_555
H27 C28 1_555 1_555
H28 C28 1_555 1_555
C9 C10 1_555 1_555
C10 C11 1_555 1_555
C11 N2 1_555 1_555
C23 C24 1_555 1_555
C24 C25 1_555 1_555
C25 N4 1_555 1_555

#END
