
#######################################################################
#
#                 Cambridge Crystallographic Data Centre
#                                CCDC 
#
#######################################################################
#
# If this CIF has been generated from an entry in the Cambridge 
# Structural Database, then it will include bibliographic, chemical, 
# crystal, experimental, refinement or atomic coordinate data resulting 
# from the CCDC's data processing and validation procedures.
#
#######################################################################

data_CADTIM
_chemical_formula_moiety         'C26 H23 N1 O2'
_chemical_name_systematic        
1-(4-Methoxyphenyl)-3,3-dimethyl-8-phenyl-3,8-dihydroindeno[2,1-b]pyrrol-2(1H)-one
_symmetry_cell_setting           orthorhombic
_symmetry_space_group_name_H-M   'P c a 21'
_symmetry_Int_Tables_number      29
_space_group_name_Hall           'P 2c -2ac'
loop_
_symmetry_equiv_pos_site_id
_symmetry_equiv_pos_as_xyz
1 x,y,z
2 -x,-y,1/2+z
3 1/2+x,-y,z
4 1/2-x,y,1/2+z
_cell_length_a                   20.497(4)
_cell_length_b                   10.569(2)
_cell_length_c                   19.108(4)
_cell_angle_alpha                90
_cell_angle_beta                 90
_cell_angle_gamma                90
_cell_volume                     4139.42
_cell_formula_units_Z            8
loop_
_atom_site_label
_atom_site_type_symbol
_atom_site_fract_x
_atom_site_fract_y
_atom_site_fract_z
N1 N 0.28868(10) 0.6899(2) 0.49491(12)
O1 O 0.18185(9) 0.6480(2) 0.53051(11)
O2 O 0.42415(9) 0.58475(19) 0.74164(10)
C1 C 0.22130(11) 0.6736(3) 0.48487(14)
C2 C 0.20578(12) 0.6913(3) 0.40629(14)
C3 C 0.27171(12) 0.7277(2) 0.37860(14)
C4 C 0.31631(11) 0.7236(2) 0.42964(14)
C5 C 0.38554(12) 0.7442(2) 0.40362(14)
H1 H 0.4017 0.8272 0.4217
C6 C 0.37105(12) 0.7575(2) 0.32471(14)
C7 C 0.30312(12) 0.7499(2) 0.31145(15)
C8 C 0.27903(13) 0.7634(2) 0.24384(15)
H2 H 0.2335 0.7573 0.2349
C9 C 0.32273(14) 0.7863(3) 0.18931(15)
H3 H 0.3069 0.7960 0.1429
C10 C 0.38952(14) 0.7948(3) 0.20246(15)
H4 H 0.4186 0.8117 0.1649
C11 C 0.41437(13) 0.7789(3) 0.27050(15)
H5 H 0.4600 0.7828 0.2791
C12 C 0.15220(13) 0.7898(3) 0.39579(17)
H6 H 0.1669 0.8716 0.4140
H7 H 0.1128 0.7633 0.4208
H8 H 0.1425 0.7979 0.3458
C13 C 0.18505(13) 0.5613(3) 0.37695(15)
H9 H 0.1787 0.5679 0.3262
H10 H 0.1442 0.5348 0.3991
H11 H 0.2191 0.4988 0.3868
C14 C 0.43376(12) 0.6412(2) 0.42420(14)
C15 C 0.41542(12) 0.5142(3) 0.42366(15)
H12 H 0.3730 0.4910 0.4081
C16 C 0.45877(14) 0.4216(3) 0.44571(16)
H13 H 0.4461 0.3351 0.4448
C17 C 0.52053(13) 0.4548(3) 0.46905(15)
H14 H 0.5498 0.3914 0.4849
C18 C 0.53924(13) 0.5797(3) 0.46914(15)
H15 H 0.5817 0.6022 0.4848
C19 C 0.49625(12) 0.6741(3) 0.44638(15)
H16 H 0.5096 0.7602 0.4461
C20 C 0.32248(12) 0.6699(3) 0.55929(14)
C21 C 0.30253(12) 0.5723(2) 0.60411(14)
H17 H 0.2653 0.5227 0.5928
C22 C 0.33710(12) 0.5483(3) 0.66484(14)
H18 H 0.3232 0.4829 0.6955
C23 C 0.39256(12) 0.6199(3) 0.68145(13)
C24 C 0.41172(13) 0.7180(3) 0.63746(14)
H19 H 0.4489 0.7678 0.6487
C25 C 0.37620(13) 0.7427(3) 0.57699(15)
H20 H 0.3890 0.8105 0.5474
C26 C 0.47973(15) 0.6564(3) 0.76250(17)
H21 H 0.5140 0.6484 0.7270
H22 H 0.4960 0.6244 0.8074
H23 H 0.4675 0.7456 0.7675
N2 N 0.22466(10) 0.1419(2) 0.37732(12)
O3 O 0.15145(9) 0.1747(2) 0.46860(11)
O4 O 0.05746(10) 0.1778(2) 0.14767(11)
C27 C 0.20686(12) 0.1538(3) 0.44781(15)
C28 C 0.26817(13) 0.1336(3) 0.49352(14)
C29 C 0.31844(12) 0.1079(3) 0.43800(14)
C30 C 0.29167(11) 0.1133(2) 0.37419(14)
C31 C 0.33948(12) 0.0933(2) 0.31520(14)
H24 H 0.3286 0.0124 0.2907
C32 C 0.40172(12) 0.0740(2) 0.35854(14)
C33 C 0.38826(12) 0.0820(2) 0.43139(14)
C34 C 0.43789(12) 0.0630(3) 0.48029(16)
H25 H 0.4292 0.0691 0.5290
C35 C 0.50037(13) 0.0348(3) 0.45619(16)
H26 H 0.5346 0.0224 0.4890
C36 C 0.51357(12) 0.0244(3) 0.38465(17)
H27 H 0.5562 0.0024 0.3694
C37 C 0.46421(12) 0.0464(3) 0.33529(16)
H28 H 0.4734 0.0423 0.2866
C38 C 0.25559(14) 0.0244(3) 0.54387(16)
H29 H 0.2456 -0.0523 0.5172
H30 H 0.2186 0.0454 0.5742
H31 H 0.2945 0.0100 0.5726
C39 C 0.28287(14) 0.2556(3) 0.53415(17)
H32 H 0.3220 0.2434 0.5629
H33 H 0.2458 0.2763 0.5644
H34 H 0.2903 0.3250 0.5011
C40 C 0.34437(12) 0.1985(2) 0.26151(14)
C41 C 0.33089(14) 0.3239(3) 0.27884(17)
H35 H 0.3165 0.3442 0.3248
C42 C 0.33824(15) 0.4195(3) 0.22977(18)
H36 H 0.3290 0.5046 0.2423
C43 C 0.35901(14) 0.3912(3) 0.16249(17)
H37 H 0.3639 0.4569 0.1290
C44 C 0.37252(15) 0.2678(3) 0.14406(16)
H38 H 0.3867 0.2481 0.0980
C45 C 0.36511(13) 0.1726(3) 0.19360(14)
H39 H 0.3744 0.0876 0.1808
C46 C 0.18047(11) 0.1516(2) 0.31956(14)
C47 C 0.13996(12) 0.2551(3) 0.31372(15)
H40 H 0.1404 0.3183 0.3491
C48 C 0.09836(13) 0.2680(3) 0.25657(15)
H41 H 0.0713 0.3406 0.2522
C49 C 0.09680(12) 0.1733(3) 0.20569(15)
C50 C 0.13579(13) 0.0677(3) 0.21265(15)
H42 H 0.1339 0.0025 0.1785
C51 C 0.17791(12) 0.0562(3) 0.26939(14)
H43 H 0.2048 -0.0165 0.2739
C52 C 0.03600(15) 0.2997(3) 0.12514(17)
H44 H 0.0070 0.3362 0.1606
H45 H 0.0124 0.2914 0.0808
H46 H 0.0739 0.3550 0.1186
loop_
_geom_bond_atom_site_label_1
_geom_bond_atom_site_label_2
_geom_bond_site_symmetry_1
_geom_bond_site_symmetry_2
N1 C1 1_555 1_555
N2 C27 1_555 1_555
O1 C1 1_555 1_555
O2 C23 1_555 1_555
O3 C27 1_555 1_555
O4 C49 1_555 1_555
C1 C2 1_555 1_555
C2 C3 1_555 1_555
C3 C4 1_555 1_555
C4 N1 1_555 1_555
C5 C4 1_555 1_555
H1 C5 1_555 1_555
C6 C5 1_555 1_555
C7 C3 1_555 1_555
C8 C7 1_555 1_555
H2 C8 1_555 1_555
C9 C8 1_555 1_555
H3 C9 1_555 1_555
C10 C9 1_555 1_555
H4 C10 1_555 1_555
C11 C6 1_555 1_555
H5 C11 1_555 1_555
C12 C2 1_555 1_555
H6 C12 1_555 1_555
H7 C12 1_555 1_555
H8 C12 1_555 1_555
C13 C2 1_555 1_555
H9 C13 1_555 1_555
H10 C13 1_555 1_555
H11 C13 1_555 1_555
C14 C5 1_555 1_555
C15 C14 1_555 1_555
H12 C15 1_555 1_555
C16 C15 1_555 1_555
H13 C16 1_555 1_555
C17 C16 1_555 1_555
H14 C17 1_555 1_555
C18 C17 1_555 1_555
H15 C18 1_555 1_555
C19 C14 1_555 1_555
H16 C19 1_555 1_555
C20 N1 1_555 1_555
C21 C20 1_555 1_555
H17 C21 1_555 1_555
C22 C21 1_555 1_555
H18 C22 1_555 1_555
C23 C22 1_555 1_555
C24 C23 1_555 1_555
H19 C24 1_555 1_555
C25 C20 1_555 1_555
H20 C25 1_555 1_555
C26 O2 1_555 1_555
H21 C26 1_555 1_555
H22 C26 1_555 1_555
H23 C26 1_555 1_555
C27 C28 1_555 1_555
C28 C29 1_555 1_555
C29 C30 1_555 1_555
C30 N2 1_555 1_555
C31 C30 1_555 1_555
H24 C31 1_555 1_555
C32 C31 1_555 1_555
C33 C29 1_555 1_555
C34 C33 1_555 1_555
H25 C34 1_555 1_555
C35 C34 1_555 1_555
H26 C35 1_555 1_555
C36 C35 1_555 1_555
H27 C36 1_555 1_555
C37 C32 1_555 1_555
H28 C37 1_555 1_555
C38 C28 1_555 1_555
H29 C38 1_555 1_555
H30 C38 1_555 1_555
H31 C38 1_555 1_555
C39 C28 1_555 1_555
H32 C39 1_555 1_555
H33 C39 1_555 1_555
H34 C39 1_555 1_555
C40 C31 1_555 1_555
C41 C40 1_555 1_555
H35 C41 1_555 1_555
C42 C41 1_555 1_555
H36 C42 1_555 1_555
C43 C42 1_555 1_555
H37 C43 1_555 1_555
C44 C43 1_555 1_555
H38 C44 1_555 1_555
C45 C40 1_555 1_555
H39 C45 1_555 1_555
C46 N2 1_555 1_555
C47 C46 1_555 1_555
H40 C47 1_555 1_555
C48 C47 1_555 1_555
H41 C48 1_555 1_555
C49 C48 1_555 1_555
C50 C49 1_555 1_555
H42 C50 1_555 1_555
C51 C46 1_555 1_555
H43 C51 1_555 1_555
C52 O4 1_555 1_555
H44 C52 1_555 1_555
H45 C52 1_555 1_555
H46 C52 1_555 1_555
C6 C7 1_555 1_555
C10 C11 1_555 1_555
C18 C19 1_555 1_555
C24 C25 1_555 1_555
C32 C33 1_555 1_555
C36 C37 1_555 1_555
C44 C45 1_555 1_555
C50 C51 1_555 1_555

#END
