
#######################################################################
#
#                 Cambridge Crystallographic Data Centre
#                                CCDC 
#
#######################################################################
#
# If this CIF has been generated from an entry in the Cambridge 
# Structural Database, then it will include bibliographic, chemical, 
# crystal, experimental, refinement or atomic coordinate data resulting 
# from the CCDC's data processing and validation procedures.
#
#######################################################################

data_CADTEI
_chemical_formula_moiety         'C41 H33 Cl1 I1 N3 O6,C1 H2 Cl2'
_chemical_name_systematic        
"Methyl 4-(chloro(phenyl)methyl)-6-iodo-1,3,7,9-tetraoxo-2,5,8-triphenyltetradecahydropyrrolo[3,4-a]pyrrolo[3',4':3,4]pyrrolo[2,1,5-cd]indolizine-9b(1H)-carboxylate dichloromethane solvate"
_symmetry_cell_setting           monoclinic
_symmetry_space_group_name_H-M   'P 21/n'
_symmetry_Int_Tables_number      14
_space_group_name_Hall           '-P 2yn'
loop_
_symmetry_equiv_pos_site_id
_symmetry_equiv_pos_as_xyz
1 x,y,z
2 1/2-x,1/2+y,1/2-z
3 -x,-y,-z
4 1/2+x,1/2-y,1/2+z
_cell_length_a                   12.988(3)
_cell_length_b                   12.188(2)
_cell_length_c                   23.837(5)
_cell_angle_alpha                90
_cell_angle_beta                 98.01(3)
_cell_angle_gamma                90
_cell_volume                     3736.53
_exptl_crystal_colour            colorless
_exptl_crystal_description       plate
_cell_formula_units_Z            4
loop_
_atom_site_label
_atom_site_type_symbol
_atom_site_fract_x
_atom_site_fract_y
_atom_site_fract_z
I1 I 0.767426(16) 0.386347(18) 0.218999(8)
Cl1 Cl 0.39558(6) 0.40880(7) 0.26960(3)
O1 O 0.87724(18) 0.4803(2) 0.48113(12)
O2 O 0.84219(16) 0.63713(18) 0.43332(9)
O3 O 0.73296(17) 0.67596(18) 0.53268(9)
O4 O 0.54879(19) 0.79865(18) 0.36799(10)
O5 O 0.6556(2) 0.19071(18) 0.31323(10)
O6 O 0.54350(18) 0.33577(19) 0.47086(9)
N1 N 0.6415(2) 0.7629(2) 0.45521(10)
N2 N 0.67817(18) 0.5338(2) 0.36832(10)
N3 N 0.5783(2) 0.2482(2) 0.38976(11)
C1 C 0.7062(2) 0.5049(2) 0.42806(11)
C2 C 0.6269(2) 0.5705(2) 0.45875(12)
H1 H 0.5932 0.5226 0.4850
C3 C 0.6749(2) 0.6727(2) 0.48878(12)
C4 C 0.5766(2) 0.7345(2) 0.40578(12)
C5 C 0.5472(2) 0.6142(2) 0.40971(12)
H2 H 0.4746 0.6062 0.4186
C6 C 0.5642(2) 0.5435(2) 0.35863(12)
H3 H 0.5333 0.4694 0.3630
C7 C 0.5281(2) 0.5850(2) 0.29805(12)
H4 H 0.5310 0.6669 0.3001
C8 C 0.6081(2) 0.5498(2) 0.25696(12)
H5 H 0.6652 0.6054 0.2621
C9 C 0.6587(2) 0.4394(2) 0.27514(12)
H6 H 0.6032 0.3826 0.2754
C10 C 0.7217(2) 0.4481(2) 0.33515(12)
H7 H 0.7939 0.4712 0.3304
C11 C 0.7311(2) 0.3407(2) 0.37284(12)
H8 H 0.8039 0.3119 0.3775
C12 C 0.6545(2) 0.2506(2) 0.35315(13)
C13 C 0.5980(2) 0.3229(2) 0.43421(12)
C14 C 0.7021(2) 0.3774(2) 0.43026(12)
H9 H 0.7553 0.3499 0.4615
C15 C 0.8191(2) 0.5371(3) 0.45019(12)
C16 C 0.9415(3) 0.6794(3) 0.45968(16)
H10 H 0.9532 0.7521 0.4441
H11 H 0.9971 0.6296 0.4520
H12 H 0.9414 0.6852 0.5007
C17 C 0.6786(2) 0.8733(2) 0.46590(12)
C18 C 0.6336(3) 0.9391(3) 0.50285(14)
H13 H 0.5794 0.9119 0.5219
C19 C 0.6694(3) 1.0465(3) 0.51160(15)
H14 H 0.6401 1.0929 0.5372
C20 C 0.7472(3) 1.0854(3) 0.48312(16)
H15 H 0.7711 1.1587 0.4892
C21 C 0.7907(3) 1.0191(3) 0.44593(16)
H16 H 0.8438 1.0468 0.4262
C22 C 0.7566(3) 0.9118(3) 0.43751(14)
H17 H 0.7869 0.8652 0.4123
C23 C 0.4132(2) 0.5554(2) 0.27818(13)
H18 H 0.3933 0.5897 0.2401
C24 C 0.3401(2) 0.6002(2) 0.31690(13)
C25 C 0.3014(2) 0.5381(3) 0.35829(13)
H19 H 0.3176 0.4622 0.3615
C26 C 0.2398(3) 0.5843(3) 0.39487(15)
H20 H 0.2147 0.5405 0.4230
C27 C 0.2150(3) 0.6945(3) 0.39043(16)
H21 H 0.1738 0.7271 0.4159
C28 C 0.2505(3) 0.7570(3) 0.34878(17)
H22 H 0.2322 0.8323 0.3451
C29 C 0.3130(3) 0.7104(3) 0.31208(15)
H23 H 0.3372 0.7543 0.2837
C30 C 0.5571(2) 0.5597(3) 0.19574(12)
C31 C 0.5449(2) 0.6646(3) 0.17243(13)
H24 H 0.5755 0.7255 0.1933
C32 C 0.4886(3) 0.6815(3) 0.11897(14)
H25 H 0.4803 0.7536 0.1040
C33 C 0.4447(3) 0.5935(3) 0.08769(14)
H26 H 0.4054 0.6049 0.0515
C34 C 0.4587(3) 0.4889(3) 0.10969(14)
H27 H 0.4300 0.4281 0.0880
C35 C 0.5141(2) 0.4712(3) 0.16302(13)
H28 H 0.5229 0.3986 0.1774
C36 C 0.4870(2) 0.1815(2) 0.37822(12)
C37 C 0.3905(2) 0.2308(3) 0.37600(14)
H29 H 0.3860 0.3064 0.3851
C38 C 0.3009(3) 0.1708(3) 0.36057(15)
H30 H 0.2347 0.2050 0.3586
C39 C 0.3081(3) 0.0601(3) 0.34798(15)
H31 H 0.2469 0.0187 0.3365
C40 C 0.4055(3) 0.0098(3) 0.35226(15)
H32 H 0.4101 -0.0663 0.3443
C41 C 0.4958(2) 0.0702(3) 0.36801(14)
H33 H 0.5621 0.0358 0.3717
Cl2 Cl 0.54891(10) 1.13935(13) 0.17892(5)
Cl3 Cl 0.44800(12) 0.93141(12) 0.19695(9)
C42 C 0.4728(4) 1.0658(4) 0.21987(19)
H34 H 0.4057 1.1045 0.2197
H35 H 0.5080 1.0643 0.2595
loop_
_geom_bond_atom_site_label_1
_geom_bond_atom_site_label_2
_geom_bond_site_symmetry_1
_geom_bond_site_symmetry_2
I1 C9 1_555 1_555
Cl1 C23 1_555 1_555
Cl2 C42 1_555 1_555
Cl3 C42 1_555 1_555
O1 C15 1_555 1_555
O2 C15 1_555 1_555
O3 C3 1_555 1_555
O4 C4 1_555 1_555
O5 C12 1_555 1_555
O6 C13 1_555 1_555
N1 C3 1_555 1_555
N2 C1 1_555 1_555
N3 C12 1_555 1_555
C1 C2 1_555 1_555
C2 H1 1_555 1_555
C3 C2 1_555 1_555
C4 N1 1_555 1_555
C5 C2 1_555 1_555
H2 C5 1_555 1_555
C6 N2 1_555 1_555
H3 C6 1_555 1_555
C7 C6 1_555 1_555
H4 C7 1_555 1_555
C8 C7 1_555 1_555
H5 C8 1_555 1_555
C9 C8 1_555 1_555
H6 C9 1_555 1_555
C10 N2 1_555 1_555
H7 C10 1_555 1_555
C11 C10 1_555 1_555
H8 C11 1_555 1_555
C12 C11 1_555 1_555
C13 N3 1_555 1_555
C14 C1 1_555 1_555
H9 C14 1_555 1_555
C15 C1 1_555 1_555
C16 O2 1_555 1_555
H10 C16 1_555 1_555
H11 C16 1_555 1_555
H12 C16 1_555 1_555
C17 N1 1_555 1_555
C18 C17 1_555 1_555
H13 C18 1_555 1_555
C19 C18 1_555 1_555
H14 C19 1_555 1_555
C20 C19 1_555 1_555
H15 C20 1_555 1_555
C21 C20 1_555 1_555
H16 C21 1_555 1_555
C22 C17 1_555 1_555
H17 C22 1_555 1_555
C23 C7 1_555 1_555
H18 C23 1_555 1_555
C24 C23 1_555 1_555
C25 C24 1_555 1_555
H19 C25 1_555 1_555
C26 C25 1_555 1_555
H20 C26 1_555 1_555
C27 C26 1_555 1_555
H21 C27 1_555 1_555
C28 C27 1_555 1_555
H22 C28 1_555 1_555
C29 C24 1_555 1_555
H23 C29 1_555 1_555
C30 C8 1_555 1_555
C31 C30 1_555 1_555
H24 C31 1_555 1_555
C32 C31 1_555 1_555
H25 C32 1_555 1_555
C33 C32 1_555 1_555
H26 C33 1_555 1_555
C34 C33 1_555 1_555
H27 C34 1_555 1_555
C35 C30 1_555 1_555
H28 C35 1_555 1_555
C36 N3 1_555 1_555
C37 C36 1_555 1_555
H29 C37 1_555 1_555
C38 C37 1_555 1_555
H30 C38 1_555 1_555
C39 C38 1_555 1_555
H31 C39 1_555 1_555
C40 C39 1_555 1_555
H32 C40 1_555 1_555
C41 C36 1_555 1_555
H33 C41 1_555 1_555
C42 H34 1_555 1_555
H35 C42 1_555 1_555
C4 C5 1_555 1_555
C5 C6 1_555 1_555
C9 C10 1_555 1_555
C11 C14 1_555 1_555
C13 C14 1_555 1_555
C21 C22 1_555 1_555
C28 C29 1_555 1_555
C34 C35 1_555 1_555
C40 C41 1_555 1_555

#END
