
#######################################################################
#
#                 Cambridge Crystallographic Data Centre
#                                CCDC 
#
#######################################################################
#
# If this CIF has been generated from an entry in the Cambridge 
# Structural Database, then it will include bibliographic, chemical, 
# crystal, experimental, refinement or atomic coordinate data resulting 
# from the CCDC's data processing and validation procedures.
#
#######################################################################

data_CADWEL
_chemical_formula_moiety         'C17 H17 N3 O4 S1'
_chemical_name_systematic        
N-(2-Nitro-1-(2-oxo-3-(2-thienylmethyl)-2,3-dihydro-1H-indol-3-yl)ethyl)acetamide
_symmetry_cell_setting           monoclinic
_symmetry_space_group_name_H-M   'P 21'
_symmetry_Int_Tables_number      4
_space_group_name_Hall           'P 2yb'
loop_
_symmetry_equiv_pos_site_id
_symmetry_equiv_pos_as_xyz
1 x,y,z
2 -x,1/2+y,-z
_cell_length_a                   6.7056(11)
_cell_length_b                   15.7761(10)
_cell_length_c                   8.0956(8)
_cell_angle_alpha                90
_cell_angle_beta                 97.030(12)
_cell_angle_gamma                90
_cell_volume                     849.981
_exptl_crystal_colour            colorless
_exptl_crystal_description       block
_cell_formula_units_Z            2
loop_
_atom_site_label
_atom_site_type_symbol
_atom_site_fract_x
_atom_site_fract_y
_atom_site_fract_z
C1 C -0.1582(11) 0.8131(4) 1.0132(9)
H1 H -0.2293 0.7613 0.9939
S1 S 0.0939(2) 0.93020(8) 1.00501(18)
O1 O -0.23023(16) 0.79771(7) 0.54192(14)
O2 O 0.25595(18) 0.58079(7) 0.62785(16)
N1 N 0.39268(19) 0.71103(8) 0.60484(16)
H2 H 0.5031 0.7417 0.6194
O3 O 0.1789(2) 0.66670(8) 0.22711(16)
N2 N 0.2812(2) 0.73048(9) 0.24346(16)
N3 N -0.08171(18) 0.92987(8) 0.55493(16)
H3 H -0.1853 0.9599 0.5107
O4 O 0.41744(19) 0.74712(9) 0.16143(15)
C2 C 0.2396(2) 0.89972(9) 0.66820(19)
C3 C 0.1081(2) 0.96448(10) 0.61139(19)
C4 C 0.1134(2) 0.77535(9) 0.82518(18)
H4 H 0.0413 0.7207 0.8084
H5 H 0.2511 0.7631 0.8788
C5 C 0.2064(2) 0.75105(9) 0.53419(18)
H6 H 0.1024 0.7058 0.5101
C6 C 0.1267(2) 0.81650(9) 0.65314(18)
C7 C 0.2361(2) 0.79422(10) 0.37072(18)
H7 H 0.1129 0.8260 0.3286
H8 H 0.3483 0.8352 0.3899
C8 C 0.4022(2) 0.62811(10) 0.6490(2)
C9 C -0.0944(3) 0.94098(13) 1.1181(2)
H9 H -0.0890 0.9940 1.1742
C10 C 0.4920(3) 1.00363(11) 0.7491(2)
H10 H 0.6247 1.0180 0.7954
C11 C 0.4335(2) 0.91890(10) 0.7370(2)
H11 H 0.5249 0.8751 0.7753
C12 C 0.6035(3) 0.59821(12) 0.7317(3)
H12 H 0.6036 0.5986 0.8528
H13 H 0.7091 0.6361 0.7016
H14 H 0.6287 0.5405 0.6946
C13 C -0.0858(2) 0.84489(10) 0.57683(18)
C14 C -0.2242(3) 0.87734(14) 1.1215(2)
H15 H -0.3329 0.8830 1.1858
C15 C 0.1623(3) 1.04832(11) 0.6229(2)
H16 H 0.0706 1.0919 0.5841
C16 C 0.0081(3) 0.82953(10) 0.94046(19)
C17 C 0.3571(3) 1.06686(11) 0.6937(3)
H17 H 0.3985 1.1244 0.7042
C18? C 0.0410(15) 0.9056(7) 1.0007(14)
H18? H 0.1499 0.9383 0.9706
S2? S -0.2004(4) 0.78760(16) 1.0154(3)
loop_
_geom_bond_atom_site_label_1
_geom_bond_atom_site_label_2
_geom_bond_site_symmetry_1
_geom_bond_site_symmetry_2
C1 H1 1_555 1_555
S1 C9 1_555 1_555
O1 C13 1_555 1_555
O2 C8 1_555 1_555
N1 H2 1_555 1_555
O3 N2 1_555 1_555
N2 O4 1_555 1_555
N3 H3 1_555 1_555
C2 C3 1_555 1_555
C3 N3 1_555 1_555
C4 H4 1_555 1_555
H5 C4 1_555 1_555
C5 N1 1_555 1_555
H6 C5 1_555 1_555
C6 C2 1_555 1_555
C7 N2 1_555 1_555
H7 C7 1_555 1_555
H8 C7 1_555 1_555
C8 N1 1_555 1_555
C9 H9 1_555 1_555
C10 H10 1_555 1_555
C11 C2 1_555 1_555
H11 C11 1_555 1_555
C12 C8 1_555 1_555
H12 C12 1_555 1_555
H13 C12 1_555 1_555
H14 C12 1_555 1_555
C13 N3 1_555 1_555
C14 C1 1_555 1_555
H15 C14 1_555 1_555
C15 C3 1_555 1_555
H16 C15 1_555 1_555
C16 C1 1_555 1_555
C17 C10 1_555 1_555
H17 C17 1_555 1_555
S1 C16 1_555 1_555
C4 C6 1_555 1_555
C4 C16 1_555 1_555
C5 C6 1_555 1_555
C5 C7 1_555 1_555
C6 C13 1_555 1_555
C9 C14 1_555 1_555
C10 C11 1_555 1_555
C15 C17 1_555 1_555

#END
