
#######################################################################
#
#                 Cambridge Crystallographic Data Centre
#                                CCDC 
#
#######################################################################
#
# If this CIF has been generated from an entry in the Cambridge 
# Structural Database, then it will include bibliographic, chemical, 
# crystal, experimental, refinement or atomic coordinate data resulting 
# from the CCDC's data processing and validation procedures.
#
#######################################################################

data_CADXEK
_chemical_compound_source        'Rabdosia Rubescens Hemsi'
_chemical_formula_moiety         'C22 H30 O7,C2 H6 O1'
_chemical_name_systematic        '1-Acetoxy-rubescensine A ethanol solvate'
_chemical_properties_biological  'anticancer drug'
_symmetry_cell_setting           monoclinic
_symmetry_space_group_name_H-M   'P 21'
_symmetry_Int_Tables_number      4
_space_group_name_Hall           'P 2yb'
loop_
_symmetry_equiv_pos_site_id
_symmetry_equiv_pos_as_xyz
1 x,y,z
2 -x,1/2+y,-z
_cell_length_a                   8.923(3)
_cell_length_b                   6.551(2)
_cell_length_c                   20.102(3)
_cell_angle_alpha                90
_cell_angle_beta                 99.77(2)
_cell_angle_gamma                90
_cell_volume                     1158.01
_cell_formula_units_Z            2
loop_
_atom_site_label
_atom_site_type_symbol
_atom_site_fract_x
_atom_site_fract_y
_atom_site_fract_z
O1 O 0.34330 0.54640 0.74440
O2 O 0.04470 0.30700 0.82270
O3 O 0.30620 0.57470 0.85310
O4 O 0.26260 0.10790 0.90180
O5 O 0.58870 0.45120 0.88290
O6 O 0.39300 0.08670 0.60070
O7 O 0.33460 -0.22510 0.55660
C1 C 0.24920 0.09000 0.62590
C2 C 0.13070 0.18000 0.56850
C3 C -0.02400 0.19400 0.59160
C4 C -0.01790 0.33900 0.65310
C5 C 0.10930 0.25700 0.70940
C6 C 0.12300 0.39100 0.77410
C7 C 0.29180 0.43800 0.79920
C8 C 0.39460 0.24800 0.81520
C9 C 0.56200 0.29900 0.82930
C10 C 0.62950 0.09500 0.85760
C11 C 0.62630 -0.06400 0.80000
C12 C 0.51130 0.00400 0.73700
C13 C 0.36280 0.09900 0.75130
C14 C 0.27010 0.22100 0.69030
C15 C 0.35120 0.42500 0.68560
C16 C 0.37850 0.12700 0.87790
C17 C 0.52300 0.03800 0.90460
C18 C 0.54510 -0.08300 0.96000
C19 C -0.17020 0.32400 0.67840
C20 C -0.00160 0.56200 0.63020
C21 C 0.42080 -0.08300 0.56810
C22 C 0.57950 -0.08300 0.55120
O8 O 0.87500 0.56140 0.88260
C23 C 0.96630 0.72700 0.91540
C24 C 1.07640 0.68000 0.98000
loop_
_geom_bond_atom_site_label_1
_geom_bond_atom_site_label_2
_geom_bond_site_symmetry_1
_geom_bond_site_symmetry_2
O1 C7 1_555 1_555
O2 C6 1_555 1_555
O3 C7 1_555 1_555
O4 C16 1_555 1_555
O5 C9 1_555 1_555
O6 C1 1_555 1_555
O7 C21 1_555 1_555
C1 C2 1_555 1_555
C2 C3 1_555 1_555
C3 C4 1_555 1_555
C4 C5 1_555 1_555
C5 C6 1_555 1_555
C6 C7 1_555 1_555
C7 C8 1_555 1_555
C8 C9 1_555 1_555
C9 C10 1_555 1_555
C10 C11 1_555 1_555
C11 C12 1_555 1_555
C12 C13 1_555 1_555
C13 C8 1_555 1_555
C14 C1 1_555 1_555
C15 O1 1_555 1_555
C16 C8 1_555 1_555
C17 C10 1_555 1_555
C18 C17 1_555 1_555
C19 C4 1_555 1_555
C20 C4 1_555 1_555
C21 O6 1_555 1_555
C22 C21 1_555 1_555
O8 C23 1_555 1_555
C23 C24 1_555 1_555
C5 C14 1_555 1_555
C13 C14 1_555 1_555
C14 C15 1_555 1_555
C16 C17 1_555 1_555

#END
