
#######################################################################
#
#                 Cambridge Crystallographic Data Centre
#                                CCDC 
#
#######################################################################
#
# If this CIF has been generated from an entry in the Cambridge 
# Structural Database, then it will include bibliographic, chemical, 
# crystal, experimental, refinement or atomic coordinate data resulting 
# from the CCDC's data processing and validation procedures.
#
#######################################################################

data_CAFGAT
_chemical_formula_moiety         'C13 H6 Cl2 N2 O5'
_chemical_name_systematic        
(3,6-Dichloro-2-nitrophenyl)(3-nitrophenyl)methanone
_symmetry_cell_setting           monoclinic
_symmetry_space_group_name_H-M   'P 21/c'
_symmetry_Int_Tables_number      14
_space_group_name_Hall           '-P 2ybc'
loop_
_symmetry_equiv_pos_site_id
_symmetry_equiv_pos_as_xyz
1 x,y,z
2 -x,1/2+y,1/2-z
3 -x,-y,-z
4 x,1/2-y,1/2+z
_cell_length_a                   7.587(4)
_cell_length_b                   24.724(4)
_cell_length_c                   8.081(3)
_cell_angle_alpha                90
_cell_angle_beta                 112.85(2)
_cell_angle_gamma                90
_cell_volume                     1396.89
_exptl_crystal_colour            colorless
_exptl_crystal_description       block
_cell_formula_units_Z            4
loop_
_atom_site_label
_atom_site_type_symbol
_atom_site_fract_x
_atom_site_fract_y
_atom_site_fract_z
Cl1 Cl 0.29369(14) 0.53099(4) 0.09128(11)
Cl2 Cl 0.56394(14) 0.61799(4) 0.87370(11)
O1 O 0.7242(4) 0.52768(10) 0.2539(4)
O2 O 0.7870(4) 0.61245(10) 0.3215(3)
O3 O 0.9459(3) 0.56839(9) 0.7092(3)
O4 O 1.3864(5) 0.68836(17) 1.1780(5)
O5 O 1.3525(5) 0.77501(15) 1.1485(6)
N1 N 0.7005(4) 0.57030(11) 0.3172(3)
N2 N 1.3025(5) 0.72848(18) 1.1009(6)
C1 C 0.5594(4) 0.57232(11) 0.4011(4)
C2 C 0.3726(5) 0.55564(13) 0.3068(4)
C3 C 0.2444(5) 0.56074(14) 0.3894(5)
H1 H 0.1175 0.5506 0.3282
C4 C 0.3027(5) 0.58072(13) 0.5610(5)
H2 H 0.2156 0.5837 0.6157
C5 C 0.4911(5) 0.59643(12) 0.6529(4)
C6 C 0.6218(4) 0.59335(11) 0.5740(4)
C7 C 0.8323(4) 0.60528(13) 0.6778(4)
C8 C 0.8920(4) 0.66166(12) 0.7364(4)
C9 C 1.0649(5) 0.66933(14) 0.8825(5)
H3 H 1.1400 0.6400 0.9407
C10 C 1.1215(5) 0.72121(15) 0.9384(5)
C11 C 1.0180(6) 0.76590(15) 0.8552(6)
H4 H 1.0609 0.8005 0.8964
C12 C 0.8493(6) 0.75834(15) 0.7096(6)
H5 H 0.7786 0.7882 0.6494
C13 C 0.7834(5) 0.70626(13) 0.6512(5)
H6 H 0.6668 0.7014 0.5553
loop_
_geom_bond_atom_site_label_1
_geom_bond_atom_site_label_2
_geom_bond_site_symmetry_1
_geom_bond_site_symmetry_2
Cl1 C2 1_555 1_555
Cl2 C5 1_555 1_555
O1 N1 1_555 1_555
O2 N1 1_555 1_555
O3 C7 1_555 1_555
O4 N2 1_555 1_555
O5 N2 1_555 1_555
N1 C1 1_555 1_555
N2 C10 1_555 1_555
C1 C2 1_555 1_555
C2 C3 1_555 1_555
C3 H1 1_555 1_555
C4 C3 1_555 1_555
H2 C4 1_555 1_555
C5 C4 1_555 1_555
C6 C1 1_555 1_555
C7 C6 1_555 1_555
C8 C7 1_555 1_555
C9 C8 1_555 1_555
H3 C9 1_555 1_555
C10 C9 1_555 1_555
C11 C10 1_555 1_555
H4 C11 1_555 1_555
C12 C11 1_555 1_555
H5 C12 1_555 1_555
C13 C8 1_555 1_555
H6 C13 1_555 1_555
C5 C6 1_555 1_555
C12 C13 1_555 1_555

#END
