
#######################################################################
#
#                 Cambridge Crystallographic Data Centre
#                                CCDC 
#
#######################################################################
#
# If this CIF has been generated from an entry in the Cambridge 
# Structural Database, then it will include bibliographic, chemical, 
# crystal, experimental, refinement or atomic coordinate data resulting 
# from the CCDC's data processing and validation procedures.
#
#######################################################################

data_CAFINE01
_chemical_name_common            'Caffeine monohydrate'
_chemical_formula_moiety         'C8 H10 N4 O2,H2 O1'
_chemical_name_systematic        '1,3,7-Trimethyl-purine-2,6-dione monohydrate'
_chemical_properties_biological  'stimulant agent which increases CNS activity'
_symmetry_cell_setting           monoclinic
_symmetry_space_group_name_H-M   'P 21/c'
_symmetry_Int_Tables_number      14
_space_group_name_Hall           '-P 2ybc'
loop_
_symmetry_equiv_pos_site_id
_symmetry_equiv_pos_as_xyz
1 x,y,z
2 -x,1/2+y,1/2-z
3 -x,-y,-z
4 x,1/2-y,1/2+z
_cell_length_a                   3.9740(10)
_cell_length_b                   16.751(4)
_cell_length_c                   14.800(3)
_cell_angle_alpha                90
_cell_angle_beta                 95.80(2)
_cell_angle_gamma                90
_cell_volume                     980.17
_exptl_crystal_description       needle
_cell_formula_units_Z            4
loop_
_atom_site_label
_atom_site_type_symbol
_atom_site_fract_x
_atom_site_fract_y
_atom_site_fract_z
C1 C 0.1908(5) 0.3252(1) 0.0862(2)
N1 N 0.3339(5) 0.3251(1) 0.0046(1)
N2 N -0.0103(5) 0.2226(1) 0.1797(1)
C2 C -0.1012(6) 0.2789(2) 0.2400(2)
C3 C 0.1349(6) 0.2466(2) 0.1040(2)
N3 N 0.2354(5) 0.1980(1) 0.0387(1)
N4 N -0.0316(5) 0.3581(1) 0.2217(1)
C4 C 0.1126(6) 0.3879(2) 0.1444(2)
O1 O 0.1580(6) 0.4593(1) 0.1348(1)
O2 O -0.2366(6) 0.2596(2) 0.3073(1)
C5 C -0.1167(9) 0.4173(2) 0.2887(2)
C6 C -0.0715(8) 0.1379(2) 0.1971(2)
C7 C 0.4438(7) 0.3938(2) -0.0458(2)
C8 C 0.3534(7) 0.2485(2) -0.0197(2)
O3 O 0.2378(21) 0.4695(3) 0.5232(5)
loop_
_geom_bond_atom_site_label_1
_geom_bond_atom_site_label_2
_geom_bond_site_symmetry_1
_geom_bond_site_symmetry_2
C1 N1 1_555 1_555
N1 C7 1_555 1_555
N2 C2 1_555 1_555
C2 N4 1_555 1_555
C3 C1 1_555 1_555
N3 C3 1_555 1_555
N4 C4 1_555 1_555
C4 C1 1_555 1_555
O1 C4 1_555 1_555
O2 C2 1_555 1_555
C5 N4 1_555 1_555
C6 N2 1_555 1_555
C8 N1 1_555 1_555
N2 C3 1_555 1_555
N3 C8 1_555 1_555

#END
