
#######################################################################
#
#                 Cambridge Crystallographic Data Centre
#                                CCDC 
#
#######################################################################
#
# If this CIF has been generated from an entry in the Cambridge 
# Structural Database, then it will include bibliographic, chemical, 
# crystal, experimental, refinement or atomic coordinate data resulting 
# from the CCDC's data processing and validation procedures.
#
#######################################################################

data_CAFJEB
_chemical_name_common            
'glucosaminium cucurbit[7]uril dihydrogen phosphate phosphoric acid ethanol solvate hydrate'
_chemical_formula_moiety         
'C42 H42 N28 O14,C6 H14 N1 O5 1+,0.6(C2 H6 O1),H2 O4 P1 1-,10.6(H2 O1),0.3(H3 O4 P1)'
_chemical_name_systematic        
'2,4,5-trihydroxy-6-(hydroxymethyl)tetrahydro-2H-pyran-3-aminium cucurbit[7]uril dihydrogen phosphate phosphoric acid ethanol solvate hydrate'
_symmetry_cell_setting           tetragonal
_symmetry_space_group_name_H-M   'I 41'
_symmetry_Int_Tables_number      80
_space_group_name_Hall           'I 4bw'
loop_
_symmetry_equiv_pos_site_id
_symmetry_equiv_pos_as_xyz
1 x,y,z
2 1/2-x,1/2-y,1/2+z
3 -y,1/2+x,1/4+z
4 1/2+y,-x,3/4+z
5 1/2+x,1/2+y,1/2+z
6 -x,-y,z
7 1/2-y,x,3/4+z
8 y,1/2-x,1/4+z
_cell_length_a                   27.8982(11)
_cell_length_b                   27.8982(11)
_cell_length_c                   20.5194(8)
_cell_angle_alpha                90
_cell_angle_beta                 90
_cell_angle_gamma                90
_cell_volume                     15970.4
_exptl_crystal_colour            colorless
_exptl_crystal_description       block
_cell_formula_units_Z            8
loop_
_atom_site_label
_atom_site_type_symbol
_atom_site_fract_x
_atom_site_fract_y
_atom_site_fract_z
O1 O 0.95415(11) 0.44899(12) 0.25191(17)
O2 O 0.90774(11) 0.41294(11) 0.09038(16)
O3 O 0.82821(14) 0.46927(13) -0.00882(19)
O4 O 0.76120(14) 0.58860(13) 0.0407(2)
O5 O 0.76730(13) 0.66686(12) 0.1770(2)
O6 O 0.84223(12) 0.63792(12) 0.31928(19)
O7 O 0.93240(11) 0.55373(12) 0.36048(18)
O8 O 0.79565(11) 0.33267(12) 0.38468(17)
O9 O 0.74873(12) 0.30400(13) 0.21822(18)
O10 O 0.65914(13) 0.35456(13) 0.11120(17)
O11 O 0.60785(12) 0.46465(13) 0.1632(2)
O12 O 0.61678(12) 0.54501(12) 0.3198(2)
O13 O 0.68488(13) 0.53986(12) 0.47247(18)
O14 O 0.76763(12) 0.44348(12) 0.48464(18)
N1 N 0.92942(13) 0.41886(14) 0.3516(2)
N2 N 0.92513(13) 0.37199(14) 0.2636(2)
N3 N 0.89435(13) 0.34901(13) 0.1584(2)
N4 N 0.85410(14) 0.35203(14) 0.06581(19)
N5 N 0.79600(16) 0.39417(15) -0.0008(2)
N6 N 0.74650(17) 0.45633(16) -0.0087(2)
N7 N 0.70537(18) 0.52977(16) 0.0194(2)
N8 N 0.68297(16) 0.59439(15) 0.0755(2)
N9 N 0.68844(15) 0.64436(15) 0.1725(2)
N10 N 0.71857(15) 0.66237(15) 0.2684(2)
N11 N 0.76774(14) 0.65257(14) 0.3643(2)
N12 N 0.82244(14) 0.61622(13) 0.4251(2)
N13 N 0.88091(15) 0.55414(14) 0.4482(2)
N14 N 0.91690(13) 0.48712(13) 0.4221(2)
N15 N 0.86718(13) 0.37153(14) 0.4042(2)
N16 N 0.86135(13) 0.32620(13) 0.3159(2)
N17 N 0.83162(13) 0.30269(13) 0.2101(2)
N18 N 0.78811(14) 0.31070(13) 0.11981(19)
N19 N 0.73045(16) 0.35152(15) 0.05379(19)
N20 N 0.67799(16) 0.40883(16) 0.0310(2)
N21 N 0.63845(16) 0.48275(17) 0.0617(2)
N22 N 0.62531(15) 0.54283(16) 0.1317(2)
N23 N 0.63167(14) 0.59206(15) 0.2287(3)
N24 N 0.65716(13) 0.61740(14) 0.3262(2)
N25 N 0.70436(14) 0.61170(14) 0.4239(2)
N26 N 0.75888(14) 0.57589(15) 0.4852(2)
N27 N 0.81476(15) 0.51001(15) 0.4985(2)
N28 N 0.84941(13) 0.44241(14) 0.4678(2)
C1 C 0.93832(14) 0.41639(16) 0.2858(2)
C2 C 0.93558(16) 0.35502(17) 0.1991(2)
H1 H 0.9577 0.3779 0.1778
H2 H 0.9524 0.3239 0.2025
C3 C 0.88738(16) 0.37496(16) 0.1038(2)
C4 C 0.84012(18) 0.36779(19) 0.0020(2)
H3 H 0.8372 0.3393 -0.0265
H4 H 0.8660 0.3882 -0.0159
C5 C 0.7936(2) 0.44227(19) -0.0061(2)
C6 C 0.7326(2) 0.5038(2) -0.0300(3)
H5 H 0.7130 0.5010 -0.0700
H6 H 0.7618 0.5223 -0.0410
C7 C 0.72006(19) 0.57214(18) 0.0443(3)
C8 C 0.6843(2) 0.64212(19) 0.1022(3)
H7 H 0.6547 0.6591 0.0890
H8 H 0.7118 0.6594 0.0827
C9 C 0.72891(17) 0.65859(16) 0.2030(3)
C10 C 0.75098(16) 0.68513(17) 0.3143(3)
H9 H 0.7789 0.6981 0.2904
H10 H 0.7343 0.7124 0.3353
C11 C 0.81336(17) 0.63563(15) 0.3648(3)
C12 C 0.87054(18) 0.60507(17) 0.4480(3)
H11 H 0.8941 0.6216 0.4198
H12 H 0.8744 0.6177 0.4928
C13 C 0.91228(15) 0.53304(17) 0.4051(3)
C14 C 0.95146(17) 0.45544(18) 0.3905(3)
H13 H 0.9728 0.4749 0.3625
H14 H 0.9715 0.4400 0.4244
C15 C 0.83687(16) 0.34284(15) 0.3691(2)
C16 C 0.84203(17) 0.28818(16) 0.2756(2)
H15 H 0.8653 0.2614 0.2744
H16 H 0.8122 0.2760 0.2959
C17 C 0.78589(16) 0.30565(15) 0.1854(2)
C18 C 0.74656(18) 0.30616(18) 0.0792(2)
H17 H 0.7203 0.2914 0.1047
H18 H 0.7541 0.2845 0.0424
C19 C 0.68620(18) 0.37101(19) 0.0694(2)
C20 C 0.63414(19) 0.43611(19) 0.0338(3)
H19 H 0.6214 0.4395 -0.0110
H20 H 0.6103 0.4177 0.0593
C21 C 0.62291(17) 0.49377(19) 0.1224(3)
C22 C 0.60049(19) 0.5669(2) 0.1841(3)
H21 H 0.5775 0.5901 0.1652
H22 H 0.5818 0.5429 0.2089
C23 C 0.63330(15) 0.58224(17) 0.2922(3)
C24 C 0.65757(17) 0.62179(19) 0.3955(3)
H23 H 0.6337 0.5994 0.4142
H24 H 0.6478 0.6547 0.4076
C25 C 0.71243(18) 0.57244(17) 0.4619(2)
C26 C 0.77933(19) 0.54114(19) 0.5286(3)
H25 H 0.7532 0.5211 0.5466
H26 H 0.7945 0.5582 0.5655
C27 C 0.80691(18) 0.46324(18) 0.4839(2)
C28 C 0.85525(17) 0.39038(16) 0.4680(2)
H27 H 0.8809 0.3816 0.4991
H28 H 0.8251 0.3754 0.4832
C29 C 0.91534(16) 0.37248(16) 0.3779(2)
H29 H 0.9394 0.3599 0.4097
C30 C 0.91113(15) 0.34019(15) 0.3168(2)
H30 H 0.9328 0.3117 0.3197
C31 C 0.86694(17) 0.30448(16) 0.1588(2)
H31 H 0.8882 0.2756 0.1589
C32 C 0.83717(17) 0.30808(16) 0.0960(2)
H32 H 0.8422 0.2797 0.0671
C33 C 0.7486(2) 0.37200(18) -0.0060(2)
H33 H 0.7471 0.3486 -0.0429
C34 C 0.71543(19) 0.41473(18) -0.0172(2)
H34 H 0.7018 0.4140 -0.0623
C35 C 0.6536(2) 0.5245(2) 0.0268(3)
H35 H 0.6371 0.5268 -0.0163
C36 C 0.63887(19) 0.5665(2) 0.0717(3)
H36 H 0.6118 0.5856 0.0529
C37 C 0.64823(18) 0.64034(18) 0.2163(3)
H37 H 0.6212 0.6613 0.2018
C38 C 0.66782(18) 0.65692(17) 0.2824(3)
H38 H 0.6528 0.6876 0.2972
C39 C 0.74341(17) 0.64621(16) 0.4263(2)
H39 H 0.7331 0.6775 0.4456
C40 C 0.78140(17) 0.62106(16) 0.4682(3)
H40 H 0.7895 0.6403 0.5078
C41 C 0.86626(18) 0.52175(17) 0.4994(3)
H41 H 0.8769 0.5332 0.5433
C42 C 0.88996(16) 0.47407(17) 0.4808(2)
H42 H 0.9112 0.4615 0.5162
O15 O 0.80736(13) 0.42866(14) 0.1419(2)
H43 H 0.7819 0.4186 0.1249
O16 O 0.71735(13) 0.45067(15) 0.1896(2)
H44 H 0.6940 0.4451 0.2142
O17 O 0.67594(14) 0.46852(13) 0.3072(2)
H45 H 0.6525 0.4870 0.3124
O18 O 0.79649(13) 0.51561(13) 0.30232(18)
O19 O 0.82421(15) 0.56677(13) 0.2206(2)
H46 H 0.8197 0.5907 0.2447
N29 N 0.88120(16) 0.49563(15) 0.1660(2)
H47 H 0.9081 0.5044 0.1880
H48 H 0.8716 0.5201 0.1398
H49 H 0.8876 0.4693 0.1412
C43 C 0.84259(18) 0.48418(19) 0.2132(3)
H50 H 0.8535 0.4564 0.2401
C44 C 0.79755(18) 0.46970(18) 0.1785(3)
H51 H 0.7875 0.4961 0.1485
C45 C 0.75822(18) 0.46059(18) 0.2274(3)
H52 H 0.7665 0.4315 0.2536
C46 C 0.75126(19) 0.50309(18) 0.2735(3)
H53 H 0.7383 0.5311 0.2487
C47 C 0.7190(2) 0.49177(19) 0.3293(3)
H54 H 0.7360 0.4706 0.3604
H55 H 0.7106 0.5217 0.3524
C48 C 0.83406(19) 0.52657(19) 0.2590(3)
H56 H 0.8639 0.5326 0.2847
P1 P 0.31517(19) 0.27361(18) -0.0690(3)
O20 O 0.2968(5) 0.2415(6) -0.0193(9)
O21 O 0.3430(4) 0.3152(4) -0.0401(5)
O22 O 0.2796(7) 0.3030(9) -0.1005(8)
O23 O 0.3435(5) 0.2454(5) -0.1208(7)
P2 P 0.4145(3) 0.48666(16) -0.1714(2)
O24 O 0.4643(5) 0.4773(4) -0.2015(6)
O25 O 0.4179(8) 0.5217(6) -0.1165(7)
O26 O 0.3858(7) 0.5115(7) -0.2281(6)
O27 O 0.3904(8) 0.4404(7) -0.1540(11)
O28 O 0.5947(4) 0.2802(3) 0.1007(4)
C49 C 0.6071(6) 0.2410(5) 0.0500(5)
H57 H 0.5791 0.2195 0.0459
H58 H 0.6117 0.2568 0.0073
C50 C 0.6497(8) 0.2112(6) 0.0633(13)
H59 H 0.6535 0.1875 0.0284
H60 H 0.6456 0.1947 0.1051
H61 H 0.6782 0.2317 0.0651
O29 O 0.85182(14) 0.55033(13) 0.0593(2)
O30 O 0.5000 0.5000 0.0262(6)
O31 O 0.47331(12) 0.14165(14) -0.1587(2)
O32 O 1.0000 0.5000 1.0549(5)
O33 O 0.4660(2) 0.5631(3) 0.2329(4)
O34 O 0.811(2) 0.464(3) -0.359(3)
O35 O 0.4927(8) 0.6146(9) 0.1230(8)
O36 O 0.4311(6) 0.2142(4) -0.0882(6)
O37 O 0.6904(4) 0.2579(5) -0.0532(8)
O38 O 0.9544(4) 0.5580(3) 0.1925(7)
O39 O 0.8750(8) 0.4207(14) -0.3582(12)
O40 O 0.3982(9) 0.3676(9) -0.1024(18)
O41 O 0.2210(14) 0.4148(10) -0.1403(9)
O42? O 0.6668(6) 0.1581(11) 0.1309(11)
O43? O 0.7493(8) 0.4645(11) -0.3414(12)
O44? O 0.9755(3) 0.5420(3) 0.1527(5)
loop_
_geom_bond_atom_site_label_1
_geom_bond_atom_site_label_2
_geom_bond_site_symmetry_1
_geom_bond_site_symmetry_2
O1 C1 1_555 1_555
O2 C3 1_555 1_555
O3 C5 1_555 1_555
O4 C7 1_555 1_555
O5 C9 1_555 1_555
O6 C11 1_555 1_555
O7 C13 1_555 1_555
O8 C15 1_555 1_555
O9 C17 1_555 1_555
O10 C19 1_555 1_555
O11 C21 1_555 1_555
O12 C23 1_555 1_555
O13 C25 1_555 1_555
O14 C27 1_555 1_555
N1 C1 1_555 1_555
N2 C1 1_555 1_555
N3 C2 1_555 1_555
N4 C3 1_555 1_555
N5 C4 1_555 1_555
N6 C5 1_555 1_555
N7 C6 1_555 1_555
N8 C7 1_555 1_555
N9 C8 1_555 1_555
N10 C9 1_555 1_555
N11 C10 1_555 1_555
N12 C11 1_555 1_555
N13 C12 1_555 1_555
N14 C13 1_555 1_555
N15 C15 1_555 1_555
N16 C15 1_555 1_555
N17 C16 1_555 1_555
N18 C17 1_555 1_555
N19 C18 1_555 1_555
N20 C19 1_555 1_555
N21 C20 1_555 1_555
N22 C21 1_555 1_555
N23 C22 1_555 1_555
N24 C23 1_555 1_555
N25 C24 1_555 1_555
N26 C25 1_555 1_555
N27 C26 1_555 1_555
N28 C27 1_555 1_555
C2 N2 1_555 1_555
H1 C2 1_555 1_555
H2 C2 1_555 1_555
C3 N3 1_555 1_555
C4 N4 1_555 1_555
H3 C4 1_555 1_555
H4 C4 1_555 1_555
C5 N5 1_555 1_555
C6 N6 1_555 1_555
H5 C6 1_555 1_555
H6 C6 1_555 1_555
C7 N7 1_555 1_555
C8 N8 1_555 1_555
H7 C8 1_555 1_555
H8 C8 1_555 1_555
C9 N9 1_555 1_555
C10 N10 1_555 1_555
H9 C10 1_555 1_555
H10 C10 1_555 1_555
C11 N11 1_555 1_555
C12 N12 1_555 1_555
H11 C12 1_555 1_555
H12 C12 1_555 1_555
C13 N13 1_555 1_555
C14 N1 1_555 1_555
H13 C14 1_555 1_555
H14 C14 1_555 1_555
C16 N16 1_555 1_555
H15 C16 1_555 1_555
H16 C16 1_555 1_555
C17 N17 1_555 1_555
C18 N18 1_555 1_555
H17 C18 1_555 1_555
H18 C18 1_555 1_555
C19 N19 1_555 1_555
C20 N20 1_555 1_555
H19 C20 1_555 1_555
H20 C20 1_555 1_555
C21 N21 1_555 1_555
C22 N22 1_555 1_555
H21 C22 1_555 1_555
H22 C22 1_555 1_555
C23 N23 1_555 1_555
C24 N24 1_555 1_555
H23 C24 1_555 1_555
H24 C24 1_555 1_555
C25 N25 1_555 1_555
C26 N26 1_555 1_555
H25 C26 1_555 1_555
H26 C26 1_555 1_555
C27 N27 1_555 1_555
C28 N15 1_555 1_555
H27 C28 1_555 1_555
H28 C28 1_555 1_555
C29 N1 1_555 1_555
H29 C29 1_555 1_555
C30 N2 1_555 1_555
H30 C30 1_555 1_555
C31 N3 1_555 1_555
H31 C31 1_555 1_555
C32 N4 1_555 1_555
H32 C32 1_555 1_555
C33 N5 1_555 1_555
H33 C33 1_555 1_555
C34 N6 1_555 1_555
H34 C34 1_555 1_555
C35 N7 1_555 1_555
H35 C35 1_555 1_555
C36 N8 1_555 1_555
H36 C36 1_555 1_555
C37 N9 1_555 1_555
H37 C37 1_555 1_555
C38 N10 1_555 1_555
H38 C38 1_555 1_555
C39 N11 1_555 1_555
H39 C39 1_555 1_555
C40 N12 1_555 1_555
H40 C40 1_555 1_555
C41 N13 1_555 1_555
H41 C41 1_555 1_555
C42 N14 1_555 1_555
H42 C42 1_555 1_555
O15 H43 1_555 1_555
O16 H44 1_555 1_555
O17 H45 1_555 1_555
O18 C46 1_555 1_555
O19 H46 1_555 1_555
N29 H47 1_555 1_555
H48 N29 1_555 1_555
H49 N29 1_555 1_555
C43 N29 1_555 1_555
H50 C43 1_555 1_555
C44 O15 1_555 1_555
H51 C44 1_555 1_555
C45 O16 1_555 1_555
H52 C45 1_555 1_555
C46 C45 1_555 1_555
H53 C46 1_555 1_555
C47 O17 1_555 1_555
H54 C47 1_555 1_555
H55 C47 1_555 1_555
C48 O18 1_555 1_555
H56 C48 1_555 1_555
P1 O20 1_555 1_555
O21 P1 1_555 1_555
O22 P1 1_555 1_555
O23 P1 1_555 1_555
P2 O24 1_555 1_555
O25 P2 1_555 1_555
O26 P2 1_555 1_555
O27 P2 1_555 1_555
O28 C49 1_555 1_555
C49 H57 1_555 1_555
H58 C49 1_555 1_555
C50 C49 1_555 1_555
H59 C50 1_555 1_555
H60 C50 1_555 1_555
H61 C50 1_555 1_555
N14 C14 1_555 1_555
N15 C29 1_555 1_555
N16 C30 1_555 1_555
N17 C31 1_555 1_555
N18 C32 1_555 1_555
N19 C33 1_555 1_555
N20 C34 1_555 1_555
N21 C35 1_555 1_555
N22 C36 1_555 1_555
N23 C37 1_555 1_555
N24 C38 1_555 1_555
N25 C39 1_555 1_555
N26 C40 1_555 1_555
N27 C41 1_555 1_555
N28 C28 1_555 1_555
N28 C42 1_555 1_555
C29 C30 1_555 1_555
C31 C32 1_555 1_555
C33 C34 1_555 1_555
C35 C36 1_555 1_555
C37 C38 1_555 1_555
C39 C40 1_555 1_555
C41 C42 1_555 1_555
O19 C48 1_555 1_555
C43 C44 1_555 1_555
C43 C48 1_555 1_555
C44 C45 1_555 1_555
C46 C47 1_555 1_555

#END
