
#######################################################################
#
#                 Cambridge Crystallographic Data Centre
#                                CCDC 
#
#######################################################################
#
# If this CIF has been generated from an entry in the Cambridge 
# Structural Database, then it will include bibliographic, chemical, 
# crystal, experimental, refinement or atomic coordinate data resulting 
# from the CCDC's data processing and validation procedures.
#
#######################################################################

data_CAFMUU
_chemical_formula_moiety         'C20 H19 F3 O1'
_chemical_name_systematic        
13-(2,2,2-trifluoroethyl)-7,8,13,14-tetrahydrodibenzo[a,e][10]annulen-5(6H)-one
_symmetry_cell_setting           monoclinic
_symmetry_space_group_name_H-M   'P 21/n'
_symmetry_Int_Tables_number      14
_space_group_name_Hall           '-P 2yn'
loop_
_symmetry_equiv_pos_site_id
_symmetry_equiv_pos_as_xyz
1 x,y,z
2 1/2-x,1/2+y,1/2-z
3 -x,-y,-z
4 1/2+x,1/2-y,1/2+z
_cell_length_a                   11.128(4)
_cell_length_b                   12.344(5)
_cell_length_c                   13.169(5)
_cell_angle_alpha                90
_cell_angle_beta                 110.434(9)
_cell_angle_gamma                90
_cell_volume                     1695.12
_exptl_crystal_colour            yellow
_exptl_crystal_description       prism
_cell_formula_units_Z            4
loop_
_atom_site_label
_atom_site_type_symbol
_atom_site_fract_x
_atom_site_fract_y
_atom_site_fract_z
C1 C 0.4131(3) 0.6435(2) 0.1124(2)
C2 C 0.5125(3) 0.72078(19) 0.1006(2)
H1 H 0.5853 0.7193 0.1692
C3 C 0.5629(3) 0.6834(2) 0.01196(19)
H2 H 0.5537 0.6054 0.0052
H3 H 0.5089 0.7147 -0.0563
C4 C 0.6998(3) 0.7116(2) 0.0288(2)
C5 C 0.9289(3) 0.7100(3) 0.1307(3)
H4 H 0.9972 0.6903 0.1924
C6 C 0.2947(3) 0.6369(3) 0.0277(2)
H5 H 0.2793 0.6817 -0.0323
C7 C 0.7286(4) 0.7693(3) -0.0510(3)
H6 H 0.6617 0.7918 -0.1124
C8 C 0.9519(4) 0.7659(4) 0.0477(4)
H7 H 1.0354 0.7839 0.0542
C9 C 0.8538(5) 0.7941(4) -0.0417(4)
H8 H 0.8697 0.8303 -0.0977
F1 F 0.3112(2) 0.8519(2) 0.1609(3)
C10 C 0.7151(3) 0.5235(2) 0.2074(2)
H9 H 0.7717 0.4645 0.2050
H10 H 0.6447 0.5242 0.1385
C11 C 0.4350(3) 0.5779(2) 0.2042(2)
C12 C 0.7874(3) 0.6274(3) 0.2184(2)
C13 C 0.4690(3) 0.8387(2) 0.0794(3)
H11 H 0.5402 0.8816 0.0753
H12 H 0.4009 0.8428 0.0093
F2 F 0.5016(3) 0.8727(3) 0.2621(2)
C14 C 0.5575(3) 0.5782(3) 0.3017(3)
H13 H 0.5363 0.5616 0.3655
H14 H 0.5931 0.6508 0.3108
F3 F 0.4115(4) 0.99615(19) 0.1522(3)
C15 C 0.2003(4) 0.5657(3) 0.0308(3)
H15 H 0.1228 0.5621 -0.0268
C16 C 0.6605(4) 0.4991(3) 0.2967(3)
H16 H 0.6246 0.4266 0.2857
H17 H 0.7303 0.4998 0.3660
C17 C 0.2216(4) 0.5006(3) 0.1193(4)
H18 H 0.1580 0.4533 0.1225
C18 C 0.3379(4) 0.5051(3) 0.2040(3)
H19 H 0.3521 0.4586 0.2626
O1 O 0.8440(3) 0.6658(3) 0.3088(2)
C19 C 0.4225(3) 0.8881(3) 0.1612(3)
C20 C 0.8039(3) 0.6834(2) 0.1219(2)
loop_
_geom_bond_atom_site_label_1
_geom_bond_atom_site_label_2
_geom_bond_site_symmetry_1
_geom_bond_site_symmetry_2
C1 C2 1_555 1_555
C2 H1 1_555 1_555
C3 C2 1_555 1_555
H2 C3 1_555 1_555
H3 C3 1_555 1_555
C4 C3 1_555 1_555
C5 H4 1_555 1_555
C6 C1 1_555 1_555
H5 C6 1_555 1_555
C7 C4 1_555 1_555
H6 C7 1_555 1_555
C8 C5 1_555 1_555
H7 C8 1_555 1_555
C9 C7 1_555 1_555
H8 C9 1_555 1_555
F1 C19 1_555 1_555
C10 H9 1_555 1_555
H10 C10 1_555 1_555
C11 C1 1_555 1_555
C12 C10 1_555 1_555
C13 C2 1_555 1_555
H11 C13 1_555 1_555
H12 C13 1_555 1_555
F2 C19 1_555 1_555
C14 C11 1_555 1_555
H13 C14 1_555 1_555
H14 C14 1_555 1_555
F3 C19 1_555 1_555
C15 C6 1_555 1_555
H15 C15 1_555 1_555
C16 C10 1_555 1_555
H16 C16 1_555 1_555
H17 C16 1_555 1_555
C17 C15 1_555 1_555
H18 C17 1_555 1_555
C18 C11 1_555 1_555
H19 C18 1_555 1_555
O1 C12 1_555 1_555
C19 C13 1_555 1_555
C20 C4 1_555 1_555
C5 C20 1_555 1_555
C8 C9 1_555 1_555
C12 C20 1_555 1_555
C14 C16 1_555 1_555
C17 C18 1_555 1_555

#END
