
#######################################################################
#
#                 Cambridge Crystallographic Data Centre
#                                CCDC 
#
#######################################################################
#
# If this CIF has been generated from an entry in the Cambridge 
# Structural Database, then it will include bibliographic, chemical, 
# crystal, experimental, refinement or atomic coordinate data resulting 
# from the CCDC's data processing and validation procedures.
#
#######################################################################

data_CAFNUU01
_chemical_formula_moiety         'C30 H28 N2 O4 S2'
_chemical_name_systematic        
(R)-1,1'-bis(Methylsulfonyl)-2,2',5,5'-tetrahydro-1H,1'H-11,11'-binaphtho[2,3-b]azepine
_symmetry_cell_setting           trigonal
_symmetry_space_group_name_H-M   'P 32 2 1'
_symmetry_Int_Tables_number      154
_space_group_name_Hall           'P 32 2"'
loop_
_symmetry_equiv_pos_site_id
_symmetry_equiv_pos_as_xyz
1 x,y,z
2 -y,x-y,2/3+z
3 -x+y,-x,1/3+z
4 y,x,-z
5 -x,-x+y,2/3-z
6 x-y,-y,1/3-z
_cell_length_a                   9.1735(4)
_cell_length_b                   9.1735(4)
_cell_length_c                   25.9022(14)
_cell_angle_alpha                90
_cell_angle_beta                 90
_cell_angle_gamma                120
_cell_volume                     1887.72
_exptl_crystal_colour            grey
_exptl_crystal_description       plate
_cell_formula_units_Z            3
loop_
_atom_site_label
_atom_site_type_symbol
_atom_site_fract_x
_atom_site_fract_y
_atom_site_fract_z
S1 S -0.05256(9) 0.11977(10) -0.06894(3)
O1 O -0.1349(3) 0.0429(3) -0.02144(8)
O2 O -0.1500(3) 0.1244(3) -0.11183(8)
N1 N 0.0946(3) 0.3142(3) -0.05621(9)
C1 C 0.1235(4) 0.4460(4) -0.09419(11)
H1 H 0.0975 0.3947 -0.1290
H2 H 0.2445 0.5322 -0.0937
C2 C 0.0238(4) 0.5319(4) -0.08606(12)
H3 H 0.0258 0.6011 -0.1137
C3 C -0.0685(4) 0.5244(4) -0.04485(13)
H4 H -0.1246 0.5876 -0.0468
C4 C -0.0924(4) 0.4257(4) 0.00436(12)
H5 H -0.1403 0.4668 0.0311
H6 H -0.1753 0.3058 -0.0022
C5 C 0.0671(4) 0.4378(4) 0.02518(11)
C6 C 0.1312(4) 0.5106(3) 0.07232(10)
H7 H 0.0688 0.5451 0.0933
C7 C 0.2873(4) 0.5356(4) 0.09047(10)
C8 C 0.3608(4) 0.6225(4) 0.13712(11)
H8 H 0.2992 0.6561 0.1588
C9 C 0.5184(4) 0.6586(4) 0.15141(11)
H9 H 0.5642 0.7151 0.1831
C10 C 0.6143(4) 0.6129(4) 0.11963(11)
H10 H 0.7264 0.6442 0.1289
C11 C 0.5442(4) 0.5228(4) 0.07507(11)
H11 H 0.6079 0.4905 0.0540
C12 C 0.3767(4) 0.4772(3) 0.06020(11)
C13 C 0.3030(4) 0.3858(4) 0.01381(10)
C14 C 0.1559(4) 0.3750(3) -0.00436(10)
C15 C 0.0552(4) 0.0183(4) -0.09274(11)
H12 H 0.1112 0.0709 -0.1253
H13 H -0.0255 -0.1011 -0.0986
H14 H 0.1395 0.0291 -0.0674
S1C S 0.11977(10) -0.05256(9) 0.06894(3)
O1C O 0.0429(3) -0.1349(3) 0.02144(8)
O2C O 0.1244(3) -0.1500(3) 0.11183(8)
N1C N 0.3142(3) 0.0946(3) 0.05621(9)
C1C C 0.4460(4) 0.1235(4) 0.09419(11)
H1C H 0.3947 0.0975 0.1290
H2C H 0.5322 0.2445 0.0937
C2C C 0.5319(4) 0.0238(4) 0.08606(12)
H3C H 0.6011 0.0258 0.1137
C3C C 0.5244(4) -0.0685(4) 0.04485(13)
H4C H 0.5876 -0.1246 0.0468
C4C C 0.4257(4) -0.0924(4) -0.00436(12)
H5C H 0.4668 -0.1403 -0.0311
H6C H 0.3058 -0.1753 0.0022
C5C C 0.4378(4) 0.0671(4) -0.02518(11)
C6C C 0.5106(3) 0.1312(4) -0.07232(10)
H7C H 0.5451 0.0688 -0.0933
C7C C 0.5356(4) 0.2873(4) -0.09047(10)
C8C C 0.6225(4) 0.3608(4) -0.13712(11)
H8C H 0.6561 0.2992 -0.1588
C9C C 0.6586(4) 0.5184(4) -0.15141(11)
H9C H 0.7151 0.5642 -0.1831
C10C C 0.6129(4) 0.6143(4) -0.11963(11)
H10C H 0.6442 0.7264 -0.1289
C11C C 0.5228(4) 0.5442(4) -0.07507(11)
H11C H 0.4905 0.6079 -0.0540
C12C C 0.4772(3) 0.3767(4) -0.06020(11)
C13C C 0.3858(4) 0.3030(4) -0.01381(10)
C14C C 0.3750(3) 0.1559(4) 0.00436(10)
C15C C 0.0183(4) 0.0552(4) 0.09274(11)
H12C H 0.0709 0.1112 0.1253
H13C H -0.1011 -0.0255 0.0986
H14C H 0.0291 0.1395 0.0674
loop_
_geom_bond_atom_site_label_1
_geom_bond_atom_site_label_2
_geom_bond_site_symmetry_1
_geom_bond_site_symmetry_2
S1 O1 1_555 1_555
O2 S1 1_555 1_555
N1 S1 1_555 1_555
C1 N1 1_555 1_555
H1 C1 1_555 1_555
H2 C1 1_555 1_555
C2 C1 1_555 1_555
H3 C2 1_555 1_555
C3 C2 1_555 1_555
H4 C3 1_555 1_555
C4 C3 1_555 1_555
H5 C4 1_555 1_555
H6 C4 1_555 1_555
C5 C4 1_555 1_555
C6 C5 1_555 1_555
H7 C6 1_555 1_555
C7 C6 1_555 1_555
C8 C7 1_555 1_555
H8 C8 1_555 1_555
C9 C8 1_555 1_555
H9 C9 1_555 1_555
C10 C9 1_555 1_555
H10 C10 1_555 1_555
C11 C10 1_555 1_555
H11 C11 1_555 1_555
C12 C7 1_555 1_555
C13 C12 1_555 1_555
C14 N1 1_555 1_555
C15 S1 1_555 1_555
H12 C15 1_555 1_555
H13 C15 1_555 1_555
H14 C15 1_555 1_555
S1C O1C 1_555 1_555
O2C S1C 1_555 1_555
N1C S1C 1_555 1_555
C1C N1C 1_555 1_555
H1C C1C 1_555 1_555
H2C C1C 1_555 1_555
C2C C1C 1_555 1_555
H3C C2C 1_555 1_555
C3C C2C 1_555 1_555
H4C C3C 1_555 1_555
C4C C3C 1_555 1_555
H5C C4C 1_555 1_555
H6C C4C 1_555 1_555
C5C C4C 1_555 1_555
C6C C5C 1_555 1_555
H7C C6C 1_555 1_555
C7C C6C 1_555 1_555
C8C C7C 1_555 1_555
H8C C8C 1_555 1_555
C9C C8C 1_555 1_555
H9C C9C 1_555 1_555
C10C C9C 1_555 1_555
H10C C10C 1_555 1_555
C11C C10C 1_555 1_555
H11C C11C 1_555 1_555
C12C C7C 1_555 1_555
C13C C13 1_555 1_555
C14C N1C 1_555 1_555
C15C S1C 1_555 1_555
H12C C15C 1_555 1_555
H13C C15C 1_555 1_555
H14C C15C 1_555 1_555
C5 C14 1_555 1_555
C11 C12 1_555 1_555
C13 C14 1_555 1_555
C5C C14C 1_555 1_555
C11C C12C 1_555 1_555
C12C C13C 1_555 1_555
C13C C14C 1_555 1_555

#END
