
#######################################################################
#
#                 Cambridge Crystallographic Data Centre
#                                CCDC 
#
#######################################################################
#
# If this CIF has been generated from an entry in the Cambridge 
# Structural Database, then it will include bibliographic, chemical, 
# crystal, experimental, refinement or atomic coordinate data resulting 
# from the CCDC's data processing and validation procedures.
#
#######################################################################

data_CAFNEF
_chemical_formula_moiety         'C19 H16 Br1 F3 O1'
_chemical_name_systematic        
11-bromo-13-(2,2,2-trifluoroethyl)-6,7,8,13-tetrahydro-5H-dibenzo[a,d][9]annulen-5-one
_symmetry_cell_setting           orthorhombic
_symmetry_space_group_name_H-M   'P 21 21 21'
_symmetry_Int_Tables_number      19
_space_group_name_Hall           'P 2ac 2ab'
loop_
_symmetry_equiv_pos_site_id
_symmetry_equiv_pos_as_xyz
1 x,y,z
2 1/2-x,-y,1/2+z
3 -x,1/2+y,1/2-z
4 1/2+x,1/2-y,-z
_cell_length_a                   11.2030(10)
_cell_length_b                   11.9297(11)
_cell_length_c                   12.7315(11)
_cell_angle_alpha                90
_cell_angle_beta                 90
_cell_angle_gamma                90
_cell_volume                     1701.54
_exptl_crystal_colour            colorless
_exptl_crystal_description       block
_cell_formula_units_Z            4
loop_
_atom_site_label
_atom_site_type_symbol
_atom_site_fract_x
_atom_site_fract_y
_atom_site_fract_z
Br1 Br 0.79320(4) 0.14601(3) -0.27942(3)
C1 C 0.7187(2) 0.3254(2) 0.12061(18)
C2 C 0.8099(2) 0.4879(2) -0.0997(2)
C3 C 0.7399(2) 0.3998(2) -0.06151(18)
O1 O 1.01737(18) 0.38672(18) 0.07302(19)
C4 C 0.8825(2) 0.2564(2) 0.2270(2)
H1 H 0.9616 0.2617 0.2485
C5 C 0.6501(3) 0.2371(2) 0.1601(2)
H2 H 0.5722 0.2279 0.1364
F1 F 0.51142(19) 0.5085(2) -0.12636(15)
C6 C 0.8379(2) 0.3326(2) 0.15403(19)
C7 C 0.9249(2) 0.4174(2) 0.1123(2)
F2 F 0.35730(17) 0.4779(2) -0.03542(19)
C8 C 0.5340(2) 0.3950(2) 0.0238(2)
H3 H 0.5203 0.3281 -0.0179
H4 H 0.4962 0.3837 0.0915
C9 C 0.6688(2) 0.4086(2) 0.04069(19)
H5 H 0.6819 0.4840 0.0690
C10 C 0.8758(2) 0.3680(3) -0.2432(2)
H6 H 0.9217 0.3572 -0.3032
C11 C 0.7370(2) 0.2978(2) -0.1145(2)
H7 H 0.6903 0.2394 -0.0889
F3 F 0.4923(2) 0.58821(18) 0.02104(19)
C12 C 0.8109(3) 0.1735(3) 0.2677(2)
H8 H 0.8407 0.1246 0.3181
C13 C 0.6950(3) 0.1634(2) 0.2334(2)
H9 H 0.6468 0.1065 0.2598
C14 C 0.9016(3) 0.5414(2) 0.1290(2)
H10 H 0.8203 0.5509 0.1536
H11 H 0.9545 0.5685 0.1837
C15 C 0.4752(3) 0.4921(3) -0.0296(2)
C16 C 0.9193(3) 0.6126(2) 0.0316(3)
H12 H 0.9937 0.5912 -0.0017
H13 H 0.9264 0.6905 0.0527
C17 C 0.8781(2) 0.4672(3) -0.1908(2)
H14 H 0.9268 0.5241 -0.2163
C18 C 0.8187(3) 0.6027(2) -0.0490(3)
H15 H 0.7434 0.6195 -0.0147
H16 H 0.8309 0.6583 -0.1035
C19 C 0.8032(3) 0.2830(2) -0.2049(2)
loop_
_geom_bond_atom_site_label_1
_geom_bond_atom_site_label_2
_geom_bond_site_symmetry_1
_geom_bond_site_symmetry_2
Br1 C19 1_555 1_555
C1 C5 1_555 1_555
C2 C3 1_555 1_555
C3 C9 1_555 1_555
O1 C7 1_555 1_555
C4 H1 1_555 1_555
C5 H2 1_555 1_555
F1 C15 1_555 1_555
C6 C1 1_555 1_555
C7 C6 1_555 1_555
F2 C15 1_555 1_555
C8 H3 1_555 1_555
H4 C8 1_555 1_555
C9 C1 1_555 1_555
H5 C9 1_555 1_555
C10 H6 1_555 1_555
C11 C3 1_555 1_555
H7 C11 1_555 1_555
F3 C15 1_555 1_555
C12 C4 1_555 1_555
H8 C12 1_555 1_555
C13 C5 1_555 1_555
H9 C13 1_555 1_555
C14 C7 1_555 1_555
H10 C14 1_555 1_555
H11 C14 1_555 1_555
C15 C8 1_555 1_555
C16 C14 1_555 1_555
H12 C16 1_555 1_555
H13 C16 1_555 1_555
C17 C2 1_555 1_555
H14 C17 1_555 1_555
C18 C2 1_555 1_555
H15 C18 1_555 1_555
H16 C18 1_555 1_555
C19 C10 1_555 1_555
C4 C6 1_555 1_555
C8 C9 1_555 1_555
C10 C17 1_555 1_555
C11 C19 1_555 1_555
C12 C13 1_555 1_555
C16 C18 1_555 1_555

#END
