
#######################################################################
#
#                 Cambridge Crystallographic Data Centre
#                                CCDC 
#
#######################################################################
#
# If this CIF has been generated from an entry in the Cambridge 
# Structural Database, then it will include bibliographic, chemical, 
# crystal, experimental, refinement or atomic coordinate data resulting 
# from the CCDC's data processing and validation procedures.
#
#######################################################################

data_CAFPOQ
_chemical_formula_moiety         'C28 H22 O2,0.5(C6 H6)'
_chemical_name_systematic        
"rac-2,2',5,5'-Tetrahydro-11,11'-binaphtho[2,3-b]oxepine benzene solvate"
_symmetry_cell_setting           orthorhombic
_symmetry_space_group_name_H-M   'P b c n'
_symmetry_Int_Tables_number      60
_space_group_name_Hall           '-P 2n 2ab'
loop_
_symmetry_equiv_pos_site_id
_symmetry_equiv_pos_as_xyz
1 x,y,z
2 1/2-x,1/2-y,1/2+z
3 1/2+x,1/2-y,-z
4 -x,y,1/2-z
5 -x,-y,-z
6 1/2+x,1/2+y,1/2-z
7 1/2-x,1/2+y,z
8 x,-y,1/2+z
_cell_length_a                   16.648(3)
_cell_length_b                   9.1111(18)
_cell_length_c                   29.258(5)
_cell_angle_alpha                90
_cell_angle_beta                 90
_cell_angle_gamma                90
_cell_volume                     4437.9
_exptl_crystal_colour            colorless
_exptl_crystal_description       stick
_cell_formula_units_Z            8
loop_
_atom_site_label
_atom_site_type_symbol
_atom_site_fract_x
_atom_site_fract_y
_atom_site_fract_z
O1 O 0.0569(2) 1.1298(4) 0.18338(11)
O2 O 0.07191(19) 0.7380(4) 0.19870(11)
C1 C -0.0130(3) 1.0645(6) 0.16671(15)
C2 C 0.0807(3) 1.2586(6) 0.15817(19)
H1 H 0.0826 1.2334 0.1253
H2 H 0.1357 1.2862 0.1677
C3 C 0.0270(3) 1.3890(6) 0.16419(18)
H3 H 0.0460 1.4786 0.1516
C4 C -0.0433(3) 1.3951(6) 0.18481(17)
H4 H -0.0678 1.4892 0.1859
C5 C -0.0893(3) 1.2740(6) 0.20652(16)
H5 H -0.1458 1.3055 0.2105
H6 H -0.0667 1.2545 0.2372
C6 C -0.0877(3) 1.1313(6) 0.17846(15)
C7 C -0.1570(3) 1.0659(6) 0.16416(15)
H7 H -0.2072 1.1073 0.1726
C8 C -0.1554(3) 0.9377(6) 0.13710(15)
C9 C -0.2277(3) 0.8732(6) 0.11951(16)
H8 H -0.2783 0.9146 0.1273
C10 C -0.2246(3) 0.7531(6) 0.09170(16)
H9 H -0.2729 0.7140 0.0794
C11 C -0.1511(4) 0.6869(6) 0.08113(17)
H10 H -0.1500 0.6021 0.0622
C12 C -0.0809(3) 0.7429(5) 0.09773(16)
H11 H -0.0317 0.6953 0.0907
C13 C -0.0800(3) 0.8722(6) 0.12564(15)
C14 C -0.0079(3) 0.9393(6) 0.14141(14)
C15 C 0.0721(3) 0.8737(5) 0.12923(16)
C16 C 0.1096(3) 0.7757(5) 0.15784(17)
C17 C 0.1079(3) 0.8009(6) 0.23853(16)
H12 H 0.0712 0.7856 0.2647
H13 H 0.1130 0.9081 0.2338
C18 C 0.1876(3) 0.7419(6) 0.25069(18)
H14 H 0.2083 0.7717 0.2795
C19 C 0.2343(3) 0.6523(6) 0.22650(18)
H15 H 0.2829 0.6221 0.2407
C20 C 0.2191(3) 0.5936(6) 0.17968(16)
H16 H 0.1822 0.5087 0.1820
H17 H 0.2705 0.5575 0.1669
C21 C 0.1831(3) 0.7053(5) 0.14667(17)
C22 C 0.2185(3) 0.7400(6) 0.10562(16)
H18 H 0.2674 0.6929 0.0975
C23 C 0.1851(3) 0.8428(6) 0.07509(17)
C24 C 0.2237(3) 0.8825(6) 0.03344(16)
H19 H 0.2739 0.8398 0.0256
C25 C 0.1887(3) 0.9820(6) 0.00467(17)
H20 H 0.2152 1.0085 -0.0229
C26 C 0.1140(3) 1.0457(6) 0.01528(16)
H21 H 0.0901 1.1139 -0.0052
C27 C 0.0757(3) 1.0095(5) 0.05505(16)
H22 H 0.0250 1.0522 0.0618
C28 C 0.1105(3) 0.9089(5) 0.08640(15)
C29 C 0.5042(5) 0.9038(7) 0.0359(2)
H23 H 0.5072 0.8380 0.0610
C30 C 0.5602(4) 0.8962(7) 0.0015(2)
H24 H 0.6013 0.8240 0.0024
C31 C 0.5562(4) 0.9929(8) -0.0341(2)
H25 H 0.5954 0.9890 -0.0577
C29D C 0.4958(5) 1.0962(7) -0.0359(2)
H23D H 0.4928 1.1620 -0.0610
C30D C 0.4398(4) 1.1038(7) -0.0015(2)
H24D H 0.3987 1.1760 -0.0024
C31D C 0.4438(4) 1.0071(8) 0.0341(2)
H25D H 0.4046 1.0110 0.0577
loop_
_geom_bond_atom_site_label_1
_geom_bond_atom_site_label_2
_geom_bond_site_symmetry_1
_geom_bond_site_symmetry_2
O1 C1 1_555 1_555
O2 C16 1_555 1_555
C1 C6 1_555 1_555
C2 O1 1_555 1_555
H1 C2 1_555 1_555
H2 C2 1_555 1_555
C3 C2 1_555 1_555
H3 C3 1_555 1_555
C4 C3 1_555 1_555
H4 C4 1_555 1_555
C5 C4 1_555 1_555
H5 C5 1_555 1_555
H6 C5 1_555 1_555
C6 C5 1_555 1_555
C7 C6 1_555 1_555
H7 C7 1_555 1_555
C8 C7 1_555 1_555
C9 C8 1_555 1_555
H8 C9 1_555 1_555
C10 C9 1_555 1_555
H9 C10 1_555 1_555
C11 C10 1_555 1_555
H10 C11 1_555 1_555
C12 C11 1_555 1_555
H11 C12 1_555 1_555
C13 C8 1_555 1_555
C14 C1 1_555 1_555
C15 C14 1_555 1_555
C16 C15 1_555 1_555
C17 O2 1_555 1_555
H12 C17 1_555 1_555
H13 C17 1_555 1_555
C18 C17 1_555 1_555
H14 C18 1_555 1_555
C19 C18 1_555 1_555
H15 C19 1_555 1_555
C20 C19 1_555 1_555
H16 C20 1_555 1_555
H17 C20 1_555 1_555
C21 C16 1_555 1_555
C22 C21 1_555 1_555
H18 C22 1_555 1_555
C23 C22 1_555 1_555
C24 C23 1_555 1_555
H19 C24 1_555 1_555
C25 C24 1_555 1_555
H20 C25 1_555 1_555
C26 C25 1_555 1_555
H21 C26 1_555 1_555
C27 C26 1_555 1_555
H22 C27 1_555 1_555
C28 C15 1_555 1_555
C29 H23 1_555 1_555
C30 C29 1_555 1_555
H24 C30 1_555 1_555
C31 C30 1_555 1_555
H25 C31 1_555 1_555
C29D C31 1_555 1_555
H23D C29D 1_555 1_555
C30D C29D 1_555 1_555
H24D C30D 1_555 1_555
C31D C29 1_555 1_555
H25D C31D 1_555 1_555
C12 C13 1_555 1_555
C13 C14 1_555 1_555
C20 C21 1_555 1_555
C23 C28 1_555 1_555
C27 C28 1_555 1_555
C30D C31D 1_555 1_555

#END
