
#######################################################################
#
#                 Cambridge Crystallographic Data Centre
#                                CCDC 
#
#######################################################################
#
# If this CIF has been generated from an entry in the Cambridge 
# Structural Database, then it will include bibliographic, chemical, 
# crystal, experimental, refinement or atomic coordinate data resulting 
# from the CCDC's data processing and validation procedures.
#
#######################################################################

data_CAFQEG
_chemical_formula_moiety         'C23 H28 F2 N1 O1 1+,C4 H3 O4 1-'
_chemical_name_systematic        
'3-(2-(bis(4-Fluorophenyl)methoxy)ethyl)-8-methyl-8-azabicyclo[3.2.1]octane fumaric acid'
_chemical_properties_biological  
'binds to dopamine transporter and inhibits re-uptake'
_symmetry_cell_setting           monoclinic
_symmetry_space_group_name_H-M   'P 21/n'
_symmetry_Int_Tables_number      14
_space_group_name_Hall           '-P 2yn'
loop_
_symmetry_equiv_pos_site_id
_symmetry_equiv_pos_as_xyz
1 x,y,z
2 1/2+x,1/2-y,1/2+z
3 -x,-y,-z
4 1/2-x,1/2+y,1/2-z
_cell_length_a                   12.3610(10)
_cell_length_b                   8.2160(10)
_cell_length_c                   23.862(3)
_cell_angle_alpha                90
_cell_angle_beta                 92.510(10)
_cell_angle_gamma                90
_cell_volume                     2421.05
_chemical_melting_point          177-178deg.C
_cell_formula_units_Z            4
loop_
_atom_site_label
_atom_site_type_symbol
_atom_site_fract_x
_atom_site_fract_y
_atom_site_fract_z
C1 C 0.5740(2) 0.3810(3) 0.37006(11)
H1 H 0.5238 0.3468 0.3985
C2 C 0.5141(2) 0.4768(4) 0.32372(11)
H2 H 0.4781 0.5685 0.3405
H3 H 0.4586 0.4076 0.3064
C3 C 0.5868(2) 0.5411(3) 0.27762(10)
H4 H 0.5527 0.6423 0.2641
C4 C 0.6991(2) 0.5909(3) 0.30286(11)
H5 H 0.7504 0.5885 0.2733
H6 H 0.6949 0.7024 0.3160
C5 C 0.7429(2) 0.4855(3) 0.35098(10)
H7 H 0.8129 0.5268 0.3658
C6 C 0.7501(2) 0.3050(3) 0.33721(12)
H8 H 0.8065 0.2530 0.3604
H9 H 0.7657 0.2892 0.2981
C7 C 0.6386(2) 0.2352(3) 0.34967(13)
H10 H 0.6040 0.1884 0.3161
H11 H 0.6449 0.1518 0.3784
N1 N 0.66050(17) 0.4876(3) 0.39564(8)
H12 H 0.6342 0.5904 0.3989
C8 C 0.7031(3) 0.4309(4) 0.45151(11)
H13 H 0.6465 0.4355 0.4778
H14 H 0.7619 0.4998 0.4643
H15 H 0.7284 0.3209 0.4486
C9 C 0.5912(2) 0.4302(3) 0.22607(11)
H16 H 0.6461 0.4714 0.2019
H17 H 0.6134 0.3223 0.2384
C10 C 0.4852(2) 0.4167(3) 0.19235(11)
H18 H 0.4942 0.3491 0.1596
H19 H 0.4306 0.3674 0.2149
O1 O 0.45234(14) 0.5761(2) 0.17564(8)
C11 C 0.3520(2) 0.5817(3) 0.14331(11)
H20 H 0.3562 0.5057 0.1118
C12 C 0.3418(2) 0.7522(3) 0.12026(10)
C13 C 0.2417(2) 0.8280(4) 0.11154(11)
H21 H 0.1794 0.7719 0.1204
C14 C 0.2319(2) 0.9834(4) 0.09022(12)
H22 H 0.1644 1.0316 0.0841
F1 F 0.31591(15) 1.2189(2) 0.05797(7)
C15 C 0.3244(2) 1.0639(3) 0.07850(11)
C16 C 0.4257(2) 0.9967(4) 0.08516(13)
H23 H 0.4874 1.0538 0.0760
C17 C 0.4319(2) 0.8389(4) 0.10629(12)
H24 H 0.4996 0.7902 0.1112
C18 C 0.2562(2) 0.5342(3) 0.17759(10)
C19 C 0.1686(2) 0.4511(3) 0.15236(11)
H25 H 0.1732 0.4126 0.1159
C20 C 0.0749(2) 0.4251(3) 0.18066(12)
H26 H 0.0158 0.3723 0.1634
C21 C 0.0717(2) 0.4791(3) 0.23450(13)
F2 F -0.02226(15) 0.4582(2) 0.26232(8)
C22 C 0.1567(2) 0.5549(3) 0.26196(11)
H27 H 0.1526 0.5860 0.2993
C23 C 0.2494(2) 0.5844(3) 0.23273(11)
H28 H 0.3075 0.6386 0.2504
O2 O -0.13132(18) 0.3149(3) 0.07750(9)
O3 O 0.02134(18) 0.2211(3) 0.04667(11)
C24 C -0.0492(2) 0.3247(3) 0.04633(11)
C25 C -0.0427(2) 0.4760(4) 0.01209(12)
H30 H -0.107(3) 0.543(4) 0.0114(13)
C25B C 0.0427(2) 0.5240(4) -0.01209(12)
C24B C 0.0492(2) 0.6753(3) -0.04633(11)
O2B O 0.13132(18) 0.6851(3) -0.07750(9)
O3B O -0.02134(18) 0.7789(3) -0.04667(11)
H30B H 0.107(3) 0.457(4) -0.0114(13)
H29? H -0.136(6) 0.261(10) 0.055(3)
C26? C -0.4537(6) 0.5290(19) 0.0150(4)
H31? H -0.446(5) 0.648(9) 0.007(3)
C27? C -0.380(3) 0.399(4) 0.0481(6)
O4? O -0.3898(14) 0.253(2) 0.0630(7)
O5? O -0.2897(15) 0.4993(19) 0.0576(7)
H32? H -0.218(15) 0.44(2) 0.081(7)
C28? C -0.4964(16) 0.4299(13) 0.0118(7)
H33? H -0.5000 0.5000 0.0000
C29? C -0.382(3) 0.403(5) 0.0323(5)
O6? O -0.3016(13) 0.4670(16) 0.0404(7)
H34? H -0.243(10) 0.407(15) 0.057(5)
O7? O -0.3817(14) 0.2699(19) 0.0423(7)
loop_
_geom_bond_atom_site_label_1
_geom_bond_atom_site_label_2
_geom_bond_site_symmetry_1
_geom_bond_site_symmetry_2
C1 H1 1_555 1_555
C2 C1 1_555 1_555
H2 C2 1_555 1_555
H3 C2 1_555 1_555
C3 C2 1_555 1_555
H4 C3 1_555 1_555
C4 C3 1_555 1_555
H5 C4 1_555 1_555
H6 C4 1_555 1_555
C5 C4 1_555 1_555
H7 C5 1_555 1_555
C6 C5 1_555 1_555
H8 C6 1_555 1_555
H9 C6 1_555 1_555
C7 C1 1_555 1_555
H10 C7 1_555 1_555
H11 C7 1_555 1_555
N1 C1 1_555 1_555
H12 N1 1_555 1_555
C8 N1 1_555 1_555
H13 C8 1_555 1_555
H14 C8 1_555 1_555
H15 C8 1_555 1_555
C9 C3 1_555 1_555
H16 C9 1_555 1_555
H17 C9 1_555 1_555
C10 C9 1_555 1_555
H18 C10 1_555 1_555
H19 C10 1_555 1_555
O1 C10 1_555 1_555
C11 O1 1_555 1_555
H20 C11 1_555 1_555
C12 C11 1_555 1_555
C13 C12 1_555 1_555
H21 C13 1_555 1_555
C14 C13 1_555 1_555
H22 C14 1_555 1_555
F1 C15 1_555 1_555
C15 C14 1_555 1_555
C16 C15 1_555 1_555
H23 C16 1_555 1_555
C17 C12 1_555 1_555
H24 C17 1_555 1_555
C18 C11 1_555 1_555
C19 C18 1_555 1_555
H25 C19 1_555 1_555
C20 C19 1_555 1_555
H26 C20 1_555 1_555
C21 C20 1_555 1_555
F2 C21 1_555 1_555
C22 C21 1_555 1_555
H27 C22 1_555 1_555
C23 C18 1_555 1_555
H28 C23 1_555 1_555
O2 C24 1_555 1_555
O3 C24 1_555 1_555
C24 C25 1_555 1_555
C25 H30 1_555 1_555
C25B C25 1_555 1_555
C24B C25B 1_555 1_555
O2B C24B 1_555 1_555
O3B C24B 1_555 1_555
H30B C25B 1_555 1_555
C5 N1 1_555 1_555
C6 C7 1_555 1_555
C16 C17 1_555 1_555
C22 C23 1_555 1_555

#END
