
#######################################################################
#
#                 Cambridge Crystallographic Data Centre
#                                CCDC 
#
#######################################################################
#
# If this CIF has been generated from an entry in the Cambridge 
# Structural Database, then it will include bibliographic, chemical, 
# crystal, experimental, refinement or atomic coordinate data resulting 
# from the CCDC's data processing and validation procedures.
#
#######################################################################

data_CAFSOT
_chemical_formula_moiety         'C30 H45 Mg1 N3'
_chemical_name_systematic        
n-Butyl-(2,6-diisopropyl-N-(2-(((2-(piperidin-1-yl)ethyl)imino)methyl)phenyl)anilino-N,N',N'')-magnesium(ii)
_symmetry_cell_setting           monoclinic
_symmetry_space_group_name_H-M   'P 21/c'
_symmetry_Int_Tables_number      14
_space_group_name_Hall           '-P 2ybc'
loop_
_symmetry_equiv_pos_site_id
_symmetry_equiv_pos_as_xyz
1 x,y,z
2 -x,1/2+y,1/2-z
3 -x,-y,-z
4 x,1/2-y,1/2+z
_cell_length_a                   18.609(2)
_cell_length_b                   9.7753(13)
_cell_length_c                   17.053(2)
_cell_angle_alpha                90
_cell_angle_beta                 112.560(7)
_cell_angle_gamma                90
_cell_volume                     2864.71
_exptl_crystal_colour            yellow
_exptl_crystal_description       columnar
_cell_formula_units_Z            4
loop_
_atom_site_label
_atom_site_type_symbol
_atom_site_fract_x
_atom_site_fract_y
_atom_site_fract_z
Mg1 Mg 0.20873(5) 0.95930(8) -0.00199(5)
N1 N 0.19797(10) 0.92149(18) 0.11191(11)
N2 N 0.11690(12) 1.0942(2) -0.03304(13)
N3 N 0.24841(12) 1.15067(19) -0.05847(12)
C1 C 0.14723(13) 0.9776(2) 0.14279(14)
C2 C 0.09101(13) 1.0794(2) 0.09616(16)
C3 C 0.04072(15) 1.1348(3) 0.13199(19)
H1 H 0.0052 1.2011 0.1014
C4 C 0.04129(17) 1.0965(3) 0.2092(2)
H2 H 0.0067 1.1344 0.2306
C5 C 0.09573(16) 0.9981(3) 0.25489(17)
H3 H 0.0976 0.9703 0.3078
C6 C 0.14641(14) 0.9418(2) 0.22325(15)
H4 H 0.1820 0.8772 0.2559
C7 C 0.08167(14) 1.1324(3) 0.01466(17)
H5 H 0.0458 1.2030 -0.0061
C8 C 0.10418(16) 1.1728(3) -0.11072(17)
H6 H 0.0975 1.2690 -0.1012
H7 H 0.0576 1.1408 -0.1566
C9 C 0.17462(17) 1.1534(3) -0.13396(16)
H8 H 0.1691 1.0682 -0.1649
H9 H 0.1765 1.2273 -0.1711
C10 C 0.31285(18) 1.1231(3) -0.08667(19)
H10 H 0.3123 1.1913 -0.1282
H11 H 0.3052 1.0341 -0.1138
C11 C 0.39103(18) 1.1260(3) -0.0130(2)
H12 H 0.3931 1.0535 0.0266
H13 H 0.4320 1.1098 -0.0339
C12 C 0.40451(19) 1.2615(3) 0.0323(2)
H14 H 0.4088 1.3331 -0.0051
H15 H 0.4528 1.2585 0.0819
C13 C 0.33740(18) 1.2924(3) 0.0589(2)
H16 H 0.3374 1.2271 0.1017
H17 H 0.3441 1.3831 0.0838
C14 C 0.26060(16) 1.2855(3) -0.01585(18)
H18 H 0.2187 1.3027 0.0035
H19 H 0.2590 1.3564 -0.0563
C15 C 0.24544(12) 0.8104(2) 0.15886(13)
C16 C 0.32561(13) 0.8321(2) 0.20501(14)
C17 C 0.37174(15) 0.7206(3) 0.24529(16)
H20 H 0.4247 0.7338 0.2757
C18 C 0.34122(15) 0.5922(3) 0.24134(17)
H21 H 0.3731 0.5196 0.2692
C19 C 0.26319(15) 0.5713(3) 0.19583(16)
H22 H 0.2428 0.4838 0.1928
C20 C 0.21423(13) 0.6778(2) 0.15429(13)
C21 C 0.36108(15) 0.9730(3) 0.21083(17)
H23 H 0.3326 1.0181 0.1563
C22 C 0.44664(16) 0.9742(3) 0.2232(2)
H24 H 0.4536 0.9206 0.1794
H25 H 0.4774 0.9361 0.2777
H26 H 0.4629 1.0666 0.2202
C23 C 0.34867(19) 1.0595(3) 0.2781(2)
H27 H 0.2944 1.0596 0.2688
H28 H 0.3654 1.1515 0.2749
H29 H 0.3783 1.0223 0.3332
C24 C 0.12867(13) 0.6476(2) 0.10397(14)
H30 H 0.1033 0.7345 0.0804
C25 C 0.11725(17) 0.5523(3) 0.02981(18)
H31 H 0.1423 0.5903 -0.0051
H32 H 0.0626 0.5418 -0.0032
H33 H 0.1396 0.4647 0.0509
C26 C 0.08856(15) 0.5904(3) 0.15898(17)
H34 H 0.0956 0.6520 0.2052
H35 H 0.1106 0.5030 0.1811
H36 H 0.0340 0.5799 0.1256
C27 C 0.22269(17) 0.7935(3) -0.07631(16)
H37 H 0.1744 0.7421 -0.0966
H38 H 0.2284 0.8326 -0.1259
C28 C 0.28780(19) 0.6924(3) -0.0380(2)
H39 H 0.2773 0.6407 0.0050
H40 H 0.2863 0.6285 -0.0821
C29 C 0.3657(2) 0.7460(4) 0.0000(2)
H41 H 0.3658 0.8142 0.0414
H42 H 0.3765 0.7936 -0.0441
C30 C 0.4322(2) 0.6511(4) 0.0431(2)
H43 H 0.4798 0.7025 0.0652
H44 H 0.4354 0.5849 0.0029
H45 H 0.4242 0.6049 0.0888
loop_
_geom_bond_atom_site_label_1
_geom_bond_atom_site_label_2
_geom_bond_site_symmetry_1
_geom_bond_site_symmetry_2
Mg1 N1 1_555 1_555
N1 C1 1_555 1_555
N2 Mg1 1_555 1_555
N3 Mg1 1_555 1_555
C1 C2 1_555 1_555
C2 C3 1_555 1_555
C3 H1 1_555 1_555
C4 C3 1_555 1_555
H2 C4 1_555 1_555
C5 C4 1_555 1_555
H3 C5 1_555 1_555
C6 C1 1_555 1_555
H4 C6 1_555 1_555
C7 N2 1_555 1_555
H5 C7 1_555 1_555
C8 N2 1_555 1_555
H6 C8 1_555 1_555
H7 C8 1_555 1_555
C9 N3 1_555 1_555
H8 C9 1_555 1_555
H9 C9 1_555 1_555
C10 N3 1_555 1_555
H10 C10 1_555 1_555
H11 C10 1_555 1_555
C11 C10 1_555 1_555
H12 C11 1_555 1_555
H13 C11 1_555 1_555
C12 C11 1_555 1_555
H14 C12 1_555 1_555
H15 C12 1_555 1_555
C13 C12 1_555 1_555
H16 C13 1_555 1_555
H17 C13 1_555 1_555
C14 N3 1_555 1_555
H18 C14 1_555 1_555
H19 C14 1_555 1_555
C15 N1 1_555 1_555
C16 C15 1_555 1_555
C17 C16 1_555 1_555
H20 C17 1_555 1_555
C18 C17 1_555 1_555
H21 C18 1_555 1_555
C19 C18 1_555 1_555
H22 C19 1_555 1_555
C20 C15 1_555 1_555
C21 C16 1_555 1_555
H23 C21 1_555 1_555
C22 C21 1_555 1_555
H24 C22 1_555 1_555
H25 C22 1_555 1_555
H26 C22 1_555 1_555
C23 C21 1_555 1_555
H27 C23 1_555 1_555
H28 C23 1_555 1_555
H29 C23 1_555 1_555
C24 C20 1_555 1_555
H30 C24 1_555 1_555
C25 C24 1_555 1_555
H31 C25 1_555 1_555
H32 C25 1_555 1_555
H33 C25 1_555 1_555
C26 C24 1_555 1_555
H34 C26 1_555 1_555
H35 C26 1_555 1_555
H36 C26 1_555 1_555
C27 Mg1 1_555 1_555
H37 C27 1_555 1_555
H38 C27 1_555 1_555
C28 C27 1_555 1_555
H39 C28 1_555 1_555
H40 C28 1_555 1_555
C29 C28 1_555 1_555
H41 C29 1_555 1_555
H42 C29 1_555 1_555
C30 C29 1_555 1_555
H43 C30 1_555 1_555
H44 C30 1_555 1_555
H45 C30 1_555 1_555
C2 C7 1_555 1_555
C5 C6 1_555 1_555
C8 C9 1_555 1_555
C13 C14 1_555 1_555
C19 C20 1_555 1_555

#END
