
#######################################################################
#
#                 Cambridge Crystallographic Data Centre
#                                CCDC 
#
#######################################################################
#
# If this CIF has been generated from an entry in the Cambridge 
# Structural Database, then it will include bibliographic, chemical, 
# crystal, experimental, refinement or atomic coordinate data resulting 
# from the CCDC's data processing and validation procedures.
#
#######################################################################

data_CAFTEK
_chemical_name_common            
N-(3beta-Acetoxy-urs-12-en-28-oyl)-4-(2-hydroxyethyl)piperidine
_chemical_formula_moiety         'C39 H63 N1 O4'
_chemical_name_systematic        
'28-(4-(2-Hydroxyethyl)piperidin-1-yl)-28-oxours-12-en-3-yl acetate'
_chemical_properties_biological  'Cytotoxic activity'
_symmetry_cell_setting           monoclinic
_symmetry_space_group_name_H-M   'P 21'
_symmetry_Int_Tables_number      4
_space_group_name_Hall           'P 2yb'
loop_
_symmetry_equiv_pos_site_id
_symmetry_equiv_pos_as_xyz
1 x,y,z
2 -x,1/2+y,-z
_cell_length_a                   7.5158(15)
_cell_length_b                   24.224(5)
_cell_length_c                   10.009(2)
_cell_angle_alpha                90
_cell_angle_beta                 99.71(3)
_cell_angle_gamma                90
_cell_volume                     1796.16
_exptl_crystal_colour            colorless
_exptl_crystal_description       block
_chemical_melting_point          '138-140 deg.C'
_cell_formula_units_Z            2
loop_
_atom_site_label
_atom_site_type_symbol
_atom_site_fract_x
_atom_site_fract_y
_atom_site_fract_z
O1 O 0.5632(9) -0.2010(2) 0.1467(5)
N1 N 1.0218(7) 0.2747(2) 0.4564(5)
C1 C 0.8688(8) -0.0374(2) 0.2276(6)
H1 H 0.9962 -0.0293 0.2326
H2 H 0.8526 -0.0529 0.3141
O2 O 0.5625(6) -0.13324(16) -0.0015(4)
C2 C 0.8135(8) -0.0802(2) 0.1176(7)
H3 H 0.8392 -0.0664 0.0319
H4 H 0.8826 -0.1137 0.1398
O3 O 0.7231(6) 0.28009(17) 0.4437(5)
C3 C 0.6147(9) -0.0927(2) 0.1046(6)
H5 H 0.5945 -0.1092 0.1903
O4 O 1.6702(9) 0.3930(2) 0.3786(8)
H6 H 1.7033 0.3632 0.4129
C4 C 0.4887(9) -0.0429(3) 0.0758(6)
C5 C 0.5565(7) 0.0013(2) 0.1862(5)
H7 H 0.5425 -0.0164 0.2719
C6 C 0.4424(7) 0.0541(2) 0.1814(6)
H8 H 0.4692 0.0779 0.1094
H9 H 0.3153 0.0446 0.1615
C7 C 0.4813(8) 0.0847(2) 0.3153(6)
H10 H 0.4482 0.0613 0.3860
H11 H 0.4065 0.1175 0.3096
C8 C 0.6822(7) 0.1018(2) 0.3555(6)
C9 C 0.8046(7) 0.0514(2) 0.3400(6)
H12 H 0.7844 0.0258 0.4116
C10 C 0.7617(8) 0.0171(2) 0.2049(6)
C11 C 1.0038(8) 0.0676(2) 0.3756(7)
H13 H 1.0734 0.0349 0.4068
H14 H 1.0444 0.0803 0.2939
C12 C 1.0425(8) 0.1115(3) 0.4818(7)
C13 C 0.9237(7) 0.1366(2) 0.5435(6)
C14 C 0.7216(7) 0.1217(2) 0.5088(5)
H15 H 1.150(7) 0.1166(19) 0.502(4)
C15 C 0.5986(7) 0.1712(2) 0.5310(6)
H16 H 0.5716 0.1919 0.4470
H17 H 0.4855 0.1569 0.5510
C16 C 0.6786(8) 0.2107(2) 0.6446(6)
H18 H 0.6784 0.1925 0.7308
H19 H 0.6005 0.2428 0.6414
C17 C 0.8715(7) 0.2307(2) 0.6394(6)
C18 C 0.9932(7) 0.1785(2) 0.6539(5)
H20 H 1.1124 0.1904 0.6378
C19 C 1.0205(8) 0.1542(2) 0.8009(6)
H21 H 0.9039 0.1409 0.8195
C20 C 1.0915(8) 0.1990(2) 0.9053(6)
H22 H 1.2058 0.2129 0.8836
C21 C 0.9592(9) 0.2472(3) 0.8945(7)
H23 H 0.8449 0.2343 0.9154
H24 H 1.0058 0.2751 0.9609
C22 C 0.9281(8) 0.2731(2) 0.7539(6)
H25 H 1.0382 0.2912 0.7393
H26 H 0.8348 0.3010 0.7497
C23 C 0.4787(11) -0.0231(3) -0.0711(7)
H27 H 0.5969 -0.0244 -0.0953
H28 H 0.4341 0.0141 -0.0792
H29 H 0.3988 -0.0467 -0.1306
C24 C 0.2948(9) -0.0609(3) 0.0918(8)
H30 H 0.2109 -0.0322 0.0582
H31 H 0.2906 -0.0674 0.1858
H32 H 0.2633 -0.0941 0.0412
C25 C 0.8150(9) 0.0463(3) 0.0814(7)
H33 H 0.9302 0.0639 0.1072
H34 H 0.7257 0.0737 0.0484
H35 H 0.8223 0.0198 0.0113
C26 C 0.7204(9) 0.1494(2) 0.2605(6)
H36 H 0.6704 0.1402 0.1685
H37 H 0.8483 0.1545 0.2684
H38 H 0.6660 0.1828 0.2859
C27 C 0.6861(8) 0.0766(2) 0.6091(6)
H39 H 0.7717 0.0472 0.6087
H40 H 0.5660 0.0624 0.5827
H41 H 0.6983 0.0920 0.6986
C28 C 0.8700(8) 0.2639(2) 0.5054(6)
C29 C 1.1531(11) 0.1052(3) 0.8118(7)
H42 H 1.2628 0.1167 0.7829
H43 H 1.0997 0.0756 0.7551
H44 H 1.1793 0.0929 0.9042
C30 C 1.1273(11) 0.1777(3) 1.0516(6)
H45 H 1.1469 0.2085 1.1130
H46 H 1.2323 0.1545 1.0646
H47 H 1.0249 0.1569 1.0690
C31 C 1.0126(11) 0.2974(4) 0.3185(7)
H48 H 0.8876 0.2983 0.2738
H49 H 1.0782 0.2733 0.2666
C32 C 1.0914(10) 0.3552(3) 0.3206(7)
H50 H 1.0865 0.3682 0.2284
H51 H 1.0199 0.3801 0.3661
C33 C 1.2850(9) 0.3558(3) 0.3932(6)
H52 H 1.3562 0.3326 0.3416
C34 C 1.2930(8) 0.3302(2) 0.5318(6)
H53 H 1.2299 0.3540 0.5862
H54 H 1.4181 0.3281 0.5758
C35 C 1.2107(8) 0.2731(2) 0.5272(6)
H55 H 1.2800 0.2480 0.4804
H56 H 1.2145 0.2594 0.6188
C36 C 1.3634(11) 0.4145(3) 0.3988(8)
H57 H 1.3439 0.4296 0.3077
H58 H 1.2968 0.4373 0.4529
C37 C 1.5626(12) 0.4190(3) 0.4567(11)
H59 H 1.5959 0.4576 0.4652
H60 H 1.5840 0.4029 0.5468
C38 C 0.5377(9) -0.1849(3) 0.0333(7)
C39 C 0.4810(10) -0.2207(3) -0.0879(7)
H61 H 0.5861 -0.2356 -0.1178
H62 H 0.4129 -0.1993 -0.1594
H63 H 0.4076 -0.2505 -0.0643
loop_
_geom_bond_atom_site_label_1
_geom_bond_atom_site_label_2
_geom_bond_site_symmetry_1
_geom_bond_site_symmetry_2
O1 C38 1_555 1_555
N1 C28 1_555 1_555
C1 H1 1_555 1_555
H2 C1 1_555 1_555
O2 C3 1_555 1_555
C2 C1 1_555 1_555
H3 C2 1_555 1_555
H4 C2 1_555 1_555
O3 C28 1_555 1_555
C3 C2 1_555 1_555
H5 C3 1_555 1_555
O4 H6 1_555 1_555
C4 C3 1_555 1_555
C5 C4 1_555 1_555
H7 C5 1_555 1_555
C6 C5 1_555 1_555
H8 C6 1_555 1_555
H9 C6 1_555 1_555
C7 C6 1_555 1_555
H10 C7 1_555 1_555
H11 C7 1_555 1_555
C8 C7 1_555 1_555
C9 C8 1_555 1_555
H12 C9 1_555 1_555
C10 C1 1_555 1_555
C11 C9 1_555 1_555
H13 C11 1_555 1_555
H14 C11 1_555 1_555
C12 C11 1_555 1_555
C13 C12 1_555 1_555
C14 C8 1_555 1_555
H15 C12 1_555 1_555
C15 C14 1_555 1_555
H16 C15 1_555 1_555
H17 C15 1_555 1_555
C16 C15 1_555 1_555
H18 C16 1_555 1_555
H19 C16 1_555 1_555
C17 C16 1_555 1_555
C18 C13 1_555 1_555
H20 C18 1_555 1_555
C19 C18 1_555 1_555
H21 C19 1_555 1_555
C20 C19 1_555 1_555
H22 C20 1_555 1_555
C21 C20 1_555 1_555
H23 C21 1_555 1_555
H24 C21 1_555 1_555
C22 C17 1_555 1_555
H25 C22 1_555 1_555
H26 C22 1_555 1_555
C23 C4 1_555 1_555
H27 C23 1_555 1_555
H28 C23 1_555 1_555
H29 C23 1_555 1_555
C24 C4 1_555 1_555
H30 C24 1_555 1_555
H31 C24 1_555 1_555
H32 C24 1_555 1_555
C25 C10 1_555 1_555
H33 C25 1_555 1_555
H34 C25 1_555 1_555
H35 C25 1_555 1_555
C26 C8 1_555 1_555
H36 C26 1_555 1_555
H37 C26 1_555 1_555
H38 C26 1_555 1_555
C27 C14 1_555 1_555
H39 C27 1_555 1_555
H40 C27 1_555 1_555
H41 C27 1_555 1_555
C28 C17 1_555 1_555
C29 C19 1_555 1_555
H42 C29 1_555 1_555
H43 C29 1_555 1_555
H44 C29 1_555 1_555
C30 C20 1_555 1_555
H45 C30 1_555 1_555
H46 C30 1_555 1_555
H47 C30 1_555 1_555
C31 N1 1_555 1_555
H48 C31 1_555 1_555
H49 C31 1_555 1_555
C32 C31 1_555 1_555
H50 C32 1_555 1_555
H51 C32 1_555 1_555
C33 C32 1_555 1_555
H52 C33 1_555 1_555
C34 C33 1_555 1_555
H53 C34 1_555 1_555
H54 C34 1_555 1_555
C35 N1 1_555 1_555
H55 C35 1_555 1_555
H56 C35 1_555 1_555
C36 C33 1_555 1_555
H57 C36 1_555 1_555
H58 C36 1_555 1_555
C37 O4 1_555 1_555
H59 C37 1_555 1_555
H60 C37 1_555 1_555
C38 O2 1_555 1_555
C39 C38 1_555 1_555
H61 C39 1_555 1_555
H62 C39 1_555 1_555
H63 C39 1_555 1_555
C5 C10 1_555 1_555
C9 C10 1_555 1_555
C13 C14 1_555 1_555
C17 C18 1_555 1_555
C21 C22 1_555 1_555
C34 C35 1_555 1_555
C36 C37 1_555 1_555

#END
