
#######################################################################
#
#                 Cambridge Crystallographic Data Centre
#                                CCDC 
#
#######################################################################
#
# If this CIF has been generated from an entry in the Cambridge 
# Structural Database, then it will include bibliographic, chemical, 
# crystal, experimental, refinement or atomic coordinate data resulting 
# from the CCDC's data processing and validation procedures.
#
#######################################################################

data_CAFYEQ
_chemical_name_common            
5,11,17,23-tetra-t-butyl-25,26-(1,1'-binaphthalene-2,2'-diylbis(oxyethoxy))-27-n-propoxy-28-(ethoxycarbonylethoxy)calix(4)arene
_chemical_formula_moiety         'C75 H86 O8'
_chemical_name_systematic        
'ethyl ((34,40,46,52-tetra-t-butyl-56-propoxy-3,6,27,30-tetraoxadecacyclo[30.21.1.1^38,42^.1^44,48^.0^2,50^.0^7,16^.0^10,15^.0^17,26^.0^18,23^.0^31,36^]hexapentaconta-1,7(16),8,10,12,14,17(26),18,20,22,24,31,33,35,38(56),39,41,44(55),45,47,50,52-docosaen-55-yl)oxy)acetate'
_symmetry_cell_setting           orthorhombic
_symmetry_space_group_name_H-M   'P 21 21 21'
_symmetry_Int_Tables_number      19
_space_group_name_Hall           'P 2ac 2ab'
loop_
_symmetry_equiv_pos_site_id
_symmetry_equiv_pos_as_xyz
1 x,y,z
2 1/2-x,-y,1/2+z
3 -x,1/2+y,1/2-z
4 1/2+x,1/2-y,-z
_cell_length_a                   13.9145(17)
_cell_length_b                   15.5435(19)
_cell_length_c                   27.655(3)
_cell_angle_alpha                90
_cell_angle_beta                 90
_cell_angle_gamma                90
_cell_volume                     5981.22
_cell_formula_units_Z            4
loop_
_atom_site_label
_atom_site_type_symbol
_atom_site_fract_x
_atom_site_fract_y
_atom_site_fract_z
C1 C 0.0358(3) 0.4222(3) 0.18491(16)
C2 C 0.0152(3) 0.3460(3) 0.21012(17)
C3 C -0.0296(3) 0.3521(3) 0.25519(17)
H1 H -0.0416 0.3008 0.2729
C4 C -0.0572(3) 0.4308(3) 0.27511(17)
C5 C -0.0361(3) 0.5040(3) 0.24897(18)
H2 H -0.0537 0.5583 0.2620
C6 C 0.0101(3) 0.5016(3) 0.20408(18)
C7 C 0.0413(4) 0.2592(3) 0.18877(19)
H3 H 0.0027 0.2142 0.2051
H4 H 0.0236 0.2590 0.1541
C8 C 0.1457(3) 0.2367(3) 0.19333(18)
C9 C 0.1834(4) 0.2116(3) 0.23806(18)
H5 H 0.1416 0.2075 0.2651
C10 C 0.2803(4) 0.1925(3) 0.24415(18)
C11 C 0.3414(4) 0.2123(3) 0.20545(17)
H6 H 0.4088 0.2075 0.2100
C12 C 0.3073(4) 0.2386(3) 0.16080(18)
C13 C 0.2083(4) 0.2423(3) 0.15463(17)
C14 C 0.3771(3) 0.2667(3) 0.12206(18)
H7 H 0.3804 0.2208 0.0973
H8 H 0.4417 0.2714 0.1369
C15 C 0.3551(4) 0.3509(3) 0.09662(17)
C16 C 0.3665(3) 0.4314(4) 0.11942(17)
C17 C 0.3578(4) 0.5071(3) 0.09377(18)
C18 C 0.3322(4) 0.5029(4) 0.04512(18)
H9 H 0.3265 0.5549 0.0273
C19 C 0.3146(4) 0.4250(4) 0.02157(17)
C20 C 0.3287(4) 0.3515(3) 0.04835(18)
H10 H 0.3196 0.2977 0.0327
C21 C 0.3730(4) 0.5952(3) 0.11708(18)
H11 H 0.4374 0.5960 0.1323
H12 H 0.3728 0.6393 0.0912
C22 C 0.2997(4) 0.6204(3) 0.15468(18)
C23 C 0.3285(4) 0.6509(3) 0.19964(18)
H13 H 0.3950 0.6605 0.2052
C24 C 0.2641(4) 0.6679(3) 0.23675(18)
C25 C 0.1687(4) 0.6437(3) 0.22888(17)
H14 H 0.1244 0.6477 0.2549
C26 C 0.1362(3) 0.6139(3) 0.18435(18)
C27 C 0.2025(4) 0.6089(3) 0.14645(18)
C28 C 0.0326(3) 0.5860(3) 0.17891(17)
H15 H 0.0176 0.5802 0.1441
H16 H -0.0096 0.6315 0.1923
C29 C -0.1052(4) 0.4378(3) 0.32471(17)
C30 C -0.0381(4) 0.4822(4) 0.36002(18)
H17 H 0.0208 0.4483 0.3636
H18 H -0.0699 0.4875 0.3915
H19 H -0.0220 0.5396 0.3478
C31 C -0.1989(4) 0.4898(3) 0.32113(19)
H20 H -0.2279 0.4950 0.3533
H21 H -0.2437 0.4604 0.2994
H22 H -0.1848 0.5473 0.3084
C32 C -0.1320(5) 0.3507(3) 0.3450(2)
H23 H -0.0743 0.3148 0.3476
H24 H -0.1786 0.3229 0.3235
H25 H -0.1606 0.3580 0.3772
C33 C 0.3217(4) 0.1535(3) 0.29166(18)
C34 C 0.2423(4) 0.1274(4) 0.32667(19)
H26 H 0.2030 0.0820 0.3120
H27 H 0.2019 0.1774 0.3338
H28 H 0.2711 0.1059 0.3567
C35 C 0.3804(4) 0.0722(3) 0.27895(19)
H29 H 0.4046 0.0458 0.3087
H30 H 0.4347 0.0882 0.2582
H31 H 0.3393 0.0311 0.2618
C36 C 0.3879(4) 0.2169(3) 0.31592(18)
H32 H 0.3514 0.2681 0.3254
H33 H 0.4391 0.2335 0.2934
H34 H 0.4163 0.1904 0.3447
C37 C 0.2829(4) 0.4236(4) -0.03141(18)
C38 C 0.2387(5) 0.3394(4) -0.0458(2)
H35 H 0.2103 0.3448 -0.0781
H36 H 0.1887 0.3237 -0.0225
H37 H 0.2884 0.2947 -0.0463
C39 C 0.1992(5) 0.4915(4) -0.0383(2)
H38 H 0.2242 0.5496 -0.0327
H39 H 0.1476 0.4794 -0.0152
H40 H 0.1739 0.4874 -0.0713
C40 C 0.3621(5) 0.4503(6) -0.0636(2)
H41 H 0.4131 0.4068 -0.0628
H42 H 0.3879 0.5056 -0.0526
H43 H 0.3380 0.4562 -0.0967
C41 C 0.3164(3) 0.4319(3) 0.20240(16)
H44 H 0.2769 0.3797 0.1975
H45 H 0.2748 0.4829 0.1978
C42 C 0.3578(4) 0.4322(4) 0.25245(17)
H46 H 0.3985 0.4839 0.2568
H47 H 0.3987 0.3808 0.2569
C43 C 0.2772(4) 0.4322(4) 0.29056(17)
H48 H 0.2373 0.4837 0.2864
H49 H 0.3055 0.4323 0.3230
H50 H 0.2374 0.3807 0.2865
C44 C 0.2983(4) 0.7111(3) 0.28349(18)
C45 C 0.3725(4) 0.6553(3) 0.30974(18)
H51 H 0.3953 0.6856 0.3387
H52 H 0.4269 0.6441 0.2881
H53 H 0.3429 0.6007 0.3192
C46 C 0.2169(4) 0.7289(4) 0.31901(19)
H54 H 0.1877 0.6744 0.3291
H55 H 0.1682 0.7649 0.3034
H56 H 0.2424 0.7589 0.3474
C47 C 0.3465(4) 0.7978(3) 0.27139(19)
H57 H 0.2980 0.8380 0.2590
H58 H 0.3961 0.7889 0.2468
H59 H 0.3759 0.8217 0.3007
C48 C 0.1783(4) 0.1786(3) 0.07884(18)
H60 H 0.1624 0.1271 0.0983
H61 H 0.2450 0.1725 0.0668
C49 C 0.1103(4) 0.1864(4) 0.0372(2)
C50 C 0.0788(4) 0.1325(4) -0.04141(19)
H62 H 0.0532 0.1905 -0.0488
H63 H 0.0238 0.0938 -0.0350
C51 C 0.1350(5) 0.0999(4) -0.0835(2)
H64 H 0.1874 0.1400 -0.0908
H65 H 0.0927 0.0949 -0.1117
H66 H 0.1618 0.0433 -0.0757
C52 C 0.0361(4) 0.4292(4) 0.09651(17)
H67 H 0.0695 0.3966 0.0708
H68 H 0.0415 0.4911 0.0886
C53 C -0.0691(4) 0.4044(3) 0.09622(18)
H69 H -0.0766 0.3458 0.0828
H70 H -0.0943 0.4043 0.1297
C54 C -0.1012(4) 0.4721(3) 0.01892(19)
C55 C -0.1221(3) 0.5494(3) -0.00270(18)
C56 C -0.1027(3) 0.5609(3) -0.05322(17)
C57 C -0.1235(3) 0.6390(3) -0.07732(18)
H71 H -0.1544 0.6846 -0.0606
C58 C -0.0984(4) 0.6486(4) -0.12589(19)
H72 H -0.1106 0.7017 -0.1418
C59 C -0.0554(4) 0.5812(4) -0.15151(18)
H73 H -0.0396 0.5885 -0.1847
C60 C -0.0363(4) 0.5058(4) -0.12942(19)
H74 H -0.0072 0.4605 -0.1473
C61 C -0.0592(3) 0.4929(3) -0.07959(18)
C62 C -0.0370(4) 0.4154(3) -0.05536(19)
H75 H -0.0060 0.3705 -0.0726
C63 C -0.0592(4) 0.4037(3) -0.00764(18)
H76 H -0.0466 0.3501 0.0076
C64 C -0.1603(4) 0.6247(3) 0.02535(17)
C65 C -0.0958(4) 0.6765(3) 0.04877(18)
C66 C -0.1269(4) 0.7525(3) 0.07142(19)
H77 H -0.0816 0.7891 0.0868
C67 C -0.2231(4) 0.7740(3) 0.07137(19)
H78 H -0.2432 0.8260 0.0863
C68 C -0.2907(4) 0.7215(3) 0.05008(18)
C69 C -0.3906(4) 0.7390(4) 0.0521(2)
H79 H -0.4124 0.7895 0.0680
C70 C -0.4549(5) 0.6856(4) 0.0320(2)
H80 H -0.5214 0.6991 0.0340
C71 C -0.4255(4) 0.6093(4) 0.00794(19)
H81 H -0.4721 0.5721 -0.0059
C72 C -0.3301(4) 0.5899(4) 0.00482(18)
H82 H -0.3106 0.5393 -0.0118
C73 C -0.2589(4) 0.6443(3) 0.02620(17)
C74 C 0.0688(4) 0.7033(3) 0.07208(19)
H83 H 0.0508 0.7107 0.1065
H84 H 0.0721 0.7608 0.0568
C75 C 0.1629(4) 0.6598(3) 0.06843(19)
H85 H 0.1728 0.6404 0.0347
H86 H 0.2144 0.7015 0.0763
O1 O 0.0848(2) 0.4136(2) 0.14210(11)
O2 O -0.1230(2) 0.4655(2) 0.06702(12)
O3 O -0.0014(2) 0.6512(2) 0.04785(12)
O4 O 0.1701(2) 0.5868(2) 0.10048(11)
O5 O 0.1703(2) 0.2545(2) 0.10811(12)
O6 O 0.0382(3) 0.2271(3) 0.03737(16)
O7 O 0.1399(2) 0.1367(2) 0.00080(13)
O8 O 0.3950(2) 0.4335(2) 0.16785(11)
loop_
_geom_bond_atom_site_label_1
_geom_bond_atom_site_label_2
_geom_bond_site_symmetry_1
_geom_bond_site_symmetry_2
C1 C2 1_555 1_555
C2 C3 1_555 1_555
C3 H1 1_555 1_555
C4 C3 1_555 1_555
C5 C4 1_555 1_555
H2 C5 1_555 1_555
C6 C1 1_555 1_555
C7 C2 1_555 1_555
H3 C7 1_555 1_555
H4 C7 1_555 1_555
C8 C7 1_555 1_555
C9 C8 1_555 1_555
H5 C9 1_555 1_555
C10 C9 1_555 1_555
C11 C10 1_555 1_555
H6 C11 1_555 1_555
C12 C11 1_555 1_555
C13 C8 1_555 1_555
C14 C12 1_555 1_555
H7 C14 1_555 1_555
H8 C14 1_555 1_555
C15 C14 1_555 1_555
C16 C15 1_555 1_555
C17 C16 1_555 1_555
C18 C17 1_555 1_555
H9 C18 1_555 1_555
C19 C18 1_555 1_555
C20 C15 1_555 1_555
H10 C20 1_555 1_555
C21 C17 1_555 1_555
H11 C21 1_555 1_555
H12 C21 1_555 1_555
C22 C21 1_555 1_555
C23 C22 1_555 1_555
H13 C23 1_555 1_555
C24 C23 1_555 1_555
C25 C24 1_555 1_555
H14 C25 1_555 1_555
C26 C25 1_555 1_555
C27 C22 1_555 1_555
C28 C6 1_555 1_555
H15 C28 1_555 1_555
H16 C28 1_555 1_555
C29 C4 1_555 1_555
C30 C29 1_555 1_555
H17 C30 1_555 1_555
H18 C30 1_555 1_555
H19 C30 1_555 1_555
C31 C29 1_555 1_555
H20 C31 1_555 1_555
H21 C31 1_555 1_555
H22 C31 1_555 1_555
C32 C29 1_555 1_555
H23 C32 1_555 1_555
H24 C32 1_555 1_555
H25 C32 1_555 1_555
C33 C10 1_555 1_555
C34 C33 1_555 1_555
H26 C34 1_555 1_555
H27 C34 1_555 1_555
H28 C34 1_555 1_555
C35 C33 1_555 1_555
H29 C35 1_555 1_555
H30 C35 1_555 1_555
H31 C35 1_555 1_555
C36 C33 1_555 1_555
H32 C36 1_555 1_555
H33 C36 1_555 1_555
H34 C36 1_555 1_555
C37 C19 1_555 1_555
C38 C37 1_555 1_555
H35 C38 1_555 1_555
H36 C38 1_555 1_555
H37 C38 1_555 1_555
C39 C37 1_555 1_555
H38 C39 1_555 1_555
H39 C39 1_555 1_555
H40 C39 1_555 1_555
C40 C37 1_555 1_555
H41 C40 1_555 1_555
H42 C40 1_555 1_555
H43 C40 1_555 1_555
C41 H44 1_555 1_555
H45 C41 1_555 1_555
C42 C41 1_555 1_555
H46 C42 1_555 1_555
H47 C42 1_555 1_555
C43 C42 1_555 1_555
H48 C43 1_555 1_555
H49 C43 1_555 1_555
H50 C43 1_555 1_555
C44 C24 1_555 1_555
C45 C44 1_555 1_555
H51 C45 1_555 1_555
H52 C45 1_555 1_555
H53 C45 1_555 1_555
C46 C44 1_555 1_555
H54 C46 1_555 1_555
H55 C46 1_555 1_555
H56 C46 1_555 1_555
C47 C44 1_555 1_555
H57 C47 1_555 1_555
H58 C47 1_555 1_555
H59 C47 1_555 1_555
C48 H60 1_555 1_555
H61 C48 1_555 1_555
C49 C48 1_555 1_555
C50 H62 1_555 1_555
H63 C50 1_555 1_555
C51 C50 1_555 1_555
H64 C51 1_555 1_555
H65 C51 1_555 1_555
H66 C51 1_555 1_555
C52 H67 1_555 1_555
H68 C52 1_555 1_555
C53 C52 1_555 1_555
H69 C53 1_555 1_555
H70 C53 1_555 1_555
C54 C55 1_555 1_555
C55 C56 1_555 1_555
C56 C57 1_555 1_555
C57 H71 1_555 1_555
C58 C57 1_555 1_555
H72 C58 1_555 1_555
C59 C58 1_555 1_555
H73 C59 1_555 1_555
C60 C59 1_555 1_555
H74 C60 1_555 1_555
C61 C56 1_555 1_555
C62 C61 1_555 1_555
H75 C62 1_555 1_555
C63 C54 1_555 1_555
H76 C63 1_555 1_555
C64 C55 1_555 1_555
C65 C64 1_555 1_555
C66 C65 1_555 1_555
H77 C66 1_555 1_555
C67 C66 1_555 1_555
H78 C67 1_555 1_555
C68 C67 1_555 1_555
C69 C68 1_555 1_555
H79 C69 1_555 1_555
C70 C69 1_555 1_555
H80 C70 1_555 1_555
C71 C70 1_555 1_555
H81 C71 1_555 1_555
C72 C71 1_555 1_555
H82 C72 1_555 1_555
C73 C64 1_555 1_555
C74 H83 1_555 1_555
H84 C74 1_555 1_555
C75 C74 1_555 1_555
H85 C75 1_555 1_555
H86 C75 1_555 1_555
O1 C1 1_555 1_555
O2 C53 1_555 1_555
O3 C65 1_555 1_555
O4 C27 1_555 1_555
O5 C13 1_555 1_555
O6 C49 1_555 1_555
O7 C49 1_555 1_555
O8 C16 1_555 1_555
C5 C6 1_555 1_555
C12 C13 1_555 1_555
C19 C20 1_555 1_555
C26 C27 1_555 1_555
C26 C28 1_555 1_555
C41 O8 1_555 1_555
C48 O5 1_555 1_555
C50 O7 1_555 1_555
C52 O1 1_555 1_555
C54 O2 1_555 1_555
C60 C61 1_555 1_555
C62 C63 1_555 1_555
C68 C73 1_555 1_555
C72 C73 1_555 1_555
C74 O3 1_555 1_555
C75 O4 1_555 1_555

#END
