
#######################################################################
#
#                 Cambridge Crystallographic Data Centre
#                                CCDC 
#
#######################################################################
#
# If this CIF has been generated from an entry in the Cambridge 
# Structural Database, then it will include bibliographic, chemical, 
# crystal, experimental, refinement or atomic coordinate data resulting 
# from the CCDC's data processing and validation procedures.
#
#######################################################################

data_CAFYIU
_chemical_name_common            
"5,11,17,23-tetra-t-butyl-25,26-(1,1'-binaphthalene-2,2'-diylbis(oxyethoxy))-27-n-propoxy-28-(carboxymethoxy)calix(4)arene methanol solvate"
_chemical_formula_moiety         'C73 H82 O8,C1 H4 O1'
_chemical_name_systematic        
'((34,40,46,52-tetra-t-butyl-56-propoxy-3,6,27,30-tetraoxadecacyclo[30.21.1.1^38,42^.1^44,48^.0^2,50^.0^7,16^.0^10,15^.0^17,26^.0^18,23^.0^31,36^]hexapentaconta-1,7,9,11,13,15,17,19,21,23,25,31,33,35,38(56),39,41,44(55),45,47,50,52-docosaen-55-yl)oxy)acetic acid methanol solvate'
_symmetry_cell_setting           orthorhombic
_symmetry_space_group_name_H-M   'P 21 21 21'
_symmetry_Int_Tables_number      19
_space_group_name_Hall           'P 2ac 2ab'
loop_
_symmetry_equiv_pos_site_id
_symmetry_equiv_pos_as_xyz
1 x,y,z
2 1/2-x,-y,1/2+z
3 1/2+x,1/2-y,-z
4 -x,1/2+y,1/2-z
_cell_length_a                   13.8350(10)
_cell_length_b                   15.473(2)
_cell_length_c                   28.2700(10)
_cell_angle_alpha                90
_cell_angle_beta                 90
_cell_angle_gamma                90
_cell_volume                     6051.73
_cell_formula_units_Z            4
loop_
_atom_site_label
_atom_site_type_symbol
_atom_site_fract_x
_atom_site_fract_y
_atom_site_fract_z
C1 C 0.53629(10) 0.42699(10) 0.68642(5)
C2 C 0.51094(10) 0.50767(9) 0.70500(5)
C3 C 0.46487(10) 0.51045(9) 0.74871(5)
H1 H 0.4472 0.5651 0.7614
C4 C 0.44357(10) 0.43628(10) 0.77470(5)
C5 C 0.47017(10) 0.35711(9) 0.75517(5)
H2 H 0.4568 0.3056 0.7723
C6 C 0.51577(10) 0.35117(9) 0.71132(5)
C7 C 0.53351(10) 0.59155(9) 0.67903(5)
H3 H 0.5188 0.5841 0.6450
H4 H 0.4913 0.6380 0.6914
C8 C 0.63862(10) 0.61851(9) 0.68457(5)
C9 C 0.67161(11) 0.64942(9) 0.72820(5)
H5 H 0.6268 0.6546 0.7535
C10 C 0.76715(11) 0.67272(9) 0.73593(5)
C11 C 0.83275(10) 0.65516(9) 0.69948(5)
H6 H 0.8996 0.6655 0.7048
C12 C 0.80374(11) 0.62329(9) 0.65593(5)
C13 C 0.70458(11) 0.61176(9) 0.64771(5)
C14 C 0.87772(11) 0.59640(10) 0.61911(5)
H7 H 0.9427 0.5991 0.6337
H8 H 0.8763 0.6390 0.5930
C15 C 0.86365(10) 0.50654(10) 0.59817(5)
C16 C 0.87229(10) 0.43162(11) 0.62535(5)
C17 C 0.86584(11) 0.35018(10) 0.60401(5)
C18 C 0.84708(12) 0.34548(10) 0.55552(5)
H9 H 0.8425 0.2902 0.5411
C19 C 0.83486(11) 0.41862(11) 0.52762(5)
C20 C 0.84473(11) 0.49831(10) 0.54986(5)
H10 H 0.8383 0.5493 0.5314
C21 C 0.88595(12) 0.26690(10) 0.63105(6)
H11 H 0.8908 0.2191 0.6079
H12 H 0.9498 0.2725 0.6466
C22 C 0.81265(11) 0.24144(9) 0.66830(5)
C23 C 0.84307(11) 0.21582(9) 0.71284(5)
H13 H 0.9105 0.2103 0.7185
C24 C 0.77915(11) 0.19778(9) 0.74983(5)
C25 C 0.68229(11) 0.21660(9) 0.74166(5)
H14 H 0.6380 0.2126 0.7672
C26 C 0.64762(10) 0.24120(9) 0.69709(5)
C27 C 0.71284(11) 0.24625(9) 0.65986(5)
C28 C 0.54190(11) 0.26329(9) 0.69060(5)
H15 H 0.5020 0.2182 0.7060
H16 H 0.5264 0.2631 0.6564
C29 C 0.39457(12) 0.44403(10) 0.82327(5)
C30 C 0.29986(12) 0.49480(10) 0.81914(6)
H17 H 0.3135 0.5531 0.8073
H18 H 0.2692 0.4987 0.8503
H19 H 0.2563 0.4651 0.7971
C31 C 0.46387(14) 0.49072(14) 0.85682(6)
H20 H 0.5246 0.4584 0.8589
H21 H 0.4345 0.4948 0.8883
H22 H 0.4769 0.5490 0.8448
C32 C 0.37002(17) 0.35554(12) 0.84396(7)
H23 H 0.3441 0.3627 0.8760
H24 H 0.4286 0.3200 0.8452
H25 H 0.3216 0.3271 0.8240
C33 C 0.53816(11) 0.43155(11) 0.59996(5)
H26 H 0.5717 0.3970 0.5755
H27 H 0.5445 0.4932 0.5911
C34 C 0.43105(12) 0.40762(10) 0.59953(6)
H28 H 0.4232 0.3480 0.5874
H29 H 0.4053 0.4095 0.6322
C35 C 0.40116(11) 0.47143(10) 0.52312(5)
C36 C 0.44378(12) 0.40162(10) 0.49836(6)
H30 H 0.4575 0.3491 0.5144
C37 C 0.46507(12) 0.40960(10) 0.45156(6)
H31 H 0.4951 0.3627 0.4356
C38 C 0.44362(11) 0.48590(10) 0.42609(6)
C39 C 0.46589(12) 0.49560(12) 0.37753(6)
H32 H 0.4948 0.4489 0.3609
C40 C 0.44671(12) 0.57060(13) 0.35405(6)
H33 H 0.4627 0.5759 0.3215
C41 C 0.40314(12) 0.64046(12) 0.37811(6)
H34 H 0.3893 0.6926 0.3617
C42 C 0.38070(11) 0.63308(10) 0.42531(5)
H35 H 0.3513 0.6804 0.4411
C43 C 0.40055(10) 0.55609(10) 0.45091(5)
C44 C 0.38096(10) 0.54828(9) 0.50036(5)
C45 C 0.34438(11) 0.62506(9) 0.52674(5)
C46 C 0.24420(11) 0.64651(10) 0.52732(5)
C47 C 0.17374(11) 0.59094(11) 0.50745(6)
H36 H 0.1935 0.5392 0.4921
C48 C 0.07704(12) 0.61093(12) 0.51008(6)
H37 H 0.0302 0.5726 0.4972
C49 C 0.04760(13) 0.68913(13) 0.53209(6)
H38 H -0.0193 0.7026 0.5340
C50 C 0.11262(13) 0.74426(12) 0.55021(6)
H39 H 0.0913 0.7970 0.5639
C51 C 0.21355(12) 0.72483(11) 0.54914(6)
C52 C 0.28323(14) 0.77985(10) 0.56906(6)
H40 H 0.2635 0.8334 0.5824
C53 C 0.37918(13) 0.75779(10) 0.56961(6)
H41 H 0.4251 0.7953 0.5838
C54 C 0.40983(11) 0.67912(10) 0.54903(5)
C55 C 0.57442(12) 0.70492(10) 0.57184(6)
H42 H 0.5554 0.7154 0.6051
H43 H 0.5796 0.7614 0.5556
C56 C 0.66961(12) 0.65858(10) 0.57010(5)
H44 H 0.6804 0.6365 0.5377
H45 H 0.7221 0.7000 0.5774
C57 C 0.80261(11) 0.71634(10) 0.78166(5)
C58 C 0.72036(13) 0.73546(13) 0.81628(6)
H46 H 0.6881 0.6813 0.8249
H47 H 0.6737 0.7745 0.8013
H48 H 0.7467 0.7628 0.8448
C59 C 0.87511(12) 0.65821(11) 0.80754(6)
H49 H 0.9295 0.6452 0.7865
H50 H 0.8432 0.6043 0.8169
H51 H 0.8990 0.6880 0.8358
C60 C 0.85257(15) 0.80228(11) 0.76866(6)
H52 H 0.8053 0.8414 0.7542
H53 H 0.9050 0.7911 0.7462
H54 H 0.8791 0.8289 0.7973
C61 C 0.81020(13) 0.41223(12) 0.47458(6)
C62 C 0.8803(2) 0.46560(19) 0.44572(8)
H55 H 0.8763 0.5262 0.4556
H56 H 0.8638 0.4609 0.4121
H57 H 0.9462 0.4442 0.4508
C63 C 0.8084(4) 0.3227(2) 0.45655(11)
H58 H 0.7945 0.3233 0.4226
H59 H 0.7581 0.2899 0.4731
H60 H 0.8714 0.2955 0.4620
C64 C 0.7073(2) 0.4559(3) 0.46806(10)
H61 H 0.6885 0.4534 0.4347
H62 H 0.7104 0.5164 0.4783
H63 H 0.6595 0.4250 0.4872
C65 C 0.81571(11) 0.43694(10) 0.70548(5)
H64 H 0.7757 0.3848 0.7002
H65 H 0.7747 0.4886 0.7005
C66 C 0.85577(12) 0.43687(10) 0.75516(5)
H66 H 0.8974 0.4883 0.7598
H67 H 0.8959 0.3847 0.7600
C67 C 0.77388(13) 0.43803(11) 0.79109(6)
H68 H 0.7335 0.3865 0.7869
H69 H 0.7345 0.4900 0.7864
H70 H 0.8009 0.4383 0.8231
C68 C 0.81756(11) 0.15910(10) 0.79615(5)
C69 C 0.73537(12) 0.13369(12) 0.83004(6)
H71 H 0.6917 0.0931 0.8141
H72 H 0.6993 0.1855 0.8393
H73 H 0.7627 0.1062 0.8583
C70 C 0.88382(12) 0.22361(11) 0.82112(6)
H74 H 0.8470 0.2756 0.8293
H75 H 0.9373 0.2393 0.8000
H76 H 0.9097 0.1973 0.8500
C71 C 0.87552(12) 0.07634(11) 0.78464(6)
H77 H 0.9283 0.0905 0.7629
H78 H 0.8327 0.0338 0.7698
H79 H 0.9023 0.0522 0.8139
C72 C 0.68542(14) 0.18075(10) 0.58767(6)
H80 H 0.6568 0.1327 0.6061
H81 H 0.7543 0.1669 0.5819
C73 C 0.63454(14) 0.18882(12) 0.54183(6)
O1 O 0.58641(7) 0.41821(7) 0.64451(4)
O2 O 0.37769(9) 0.46661(7) 0.57019(4)
O3 O 0.50386(8) 0.65205(7) 0.54889(4)
O4 O 0.67387(7) 0.58785(6) 0.60285(3)
O5 O 0.89679(7) 0.43775(8) 0.67277(4)
O6 O 0.67870(8) 0.25840(7) 0.61415(4)
O7 O 0.58022(17) 0.24459(13) 0.53153(7)
O8 O 0.65827(11) 0.12469(9) 0.51355(5)
H82 H 0.6288 0.1300 0.4877
C77 C 0.62045(16) 0.06314(14) 0.39780(7)
H92 H 0.5975 0.0754 0.3657
H93 H 0.5985 0.0056 0.4075
H94 H 0.6912 0.0652 0.3984
O9 O 0.58307(11) 0.12567(11) 0.42935(5)
H95 H 0.5123 0.1254 0.4277
C74? C 0.9076(5) 0.3700(5) 0.4492(2)
H83? H 0.9624 0.4094 0.4532
H84? H 0.8952 0.3614 0.4154
H85? H 0.9225 0.3143 0.4640
C75? C 0.7362(5) 0.3404(5) 0.4654(2)
H86? H 0.7219 0.3375 0.4315
H87? H 0.6767 0.3529 0.4829
H88? H 0.7628 0.2850 0.4760
C76? C 0.7924(6) 0.4928(4) 0.4509(2)
H89? H 0.7849 0.4824 0.4169
H90? H 0.8469 0.5320 0.4562
H91? H 0.7331 0.5189 0.4634
loop_
_geom_bond_atom_site_label_1
_geom_bond_atom_site_label_2
_geom_bond_site_symmetry_1
_geom_bond_site_symmetry_2
C1 C2 1_555 1_555
C2 C3 1_555 1_555
C3 H1 1_555 1_555
C4 C3 1_555 1_555
C5 C4 1_555 1_555
H2 C5 1_555 1_555
C6 C1 1_555 1_555
C7 C2 1_555 1_555
H3 C7 1_555 1_555
H4 C7 1_555 1_555
C8 C7 1_555 1_555
C9 C8 1_555 1_555
H5 C9 1_555 1_555
C10 C9 1_555 1_555
C11 C10 1_555 1_555
H6 C11 1_555 1_555
C12 C11 1_555 1_555
C13 C8 1_555 1_555
C14 C12 1_555 1_555
H7 C14 1_555 1_555
H8 C14 1_555 1_555
C15 C14 1_555 1_555
C16 C15 1_555 1_555
C17 C16 1_555 1_555
C18 C17 1_555 1_555
H9 C18 1_555 1_555
C19 C18 1_555 1_555
C20 C15 1_555 1_555
H10 C20 1_555 1_555
C21 C17 1_555 1_555
H11 C21 1_555 1_555
H12 C21 1_555 1_555
C22 C21 1_555 1_555
C23 C22 1_555 1_555
H13 C23 1_555 1_555
C24 C23 1_555 1_555
C25 C24 1_555 1_555
H14 C25 1_555 1_555
C26 C25 1_555 1_555
C27 C22 1_555 1_555
C28 C6 1_555 1_555
H15 C28 1_555 1_555
H16 C28 1_555 1_555
C29 C4 1_555 1_555
C30 C29 1_555 1_555
H17 C30 1_555 1_555
H18 C30 1_555 1_555
H19 C30 1_555 1_555
C31 C29 1_555 1_555
H20 C31 1_555 1_555
H21 C31 1_555 1_555
H22 C31 1_555 1_555
C32 C29 1_555 1_555
H23 C32 1_555 1_555
H24 C32 1_555 1_555
H25 C32 1_555 1_555
C33 H26 1_555 1_555
H27 C33 1_555 1_555
C34 C33 1_555 1_555
H28 C34 1_555 1_555
H29 C34 1_555 1_555
C35 C36 1_555 1_555
C36 H30 1_555 1_555
C37 C36 1_555 1_555
H31 C37 1_555 1_555
C38 C37 1_555 1_555
C39 C38 1_555 1_555
H32 C39 1_555 1_555
C40 C39 1_555 1_555
H33 C40 1_555 1_555
C41 C40 1_555 1_555
H34 C41 1_555 1_555
C42 C41 1_555 1_555
H35 C42 1_555 1_555
C43 C38 1_555 1_555
C44 C35 1_555 1_555
C45 C44 1_555 1_555
C46 C45 1_555 1_555
C47 C46 1_555 1_555
H36 C47 1_555 1_555
C48 C47 1_555 1_555
H37 C48 1_555 1_555
C49 C48 1_555 1_555
H38 C49 1_555 1_555
C50 C49 1_555 1_555
H39 C50 1_555 1_555
C51 C46 1_555 1_555
C52 C51 1_555 1_555
H40 C52 1_555 1_555
C53 C52 1_555 1_555
H41 C53 1_555 1_555
C54 C45 1_555 1_555
C55 H42 1_555 1_555
H43 C55 1_555 1_555
C56 C55 1_555 1_555
H44 C56 1_555 1_555
H45 C56 1_555 1_555
C57 C10 1_555 1_555
C58 C57 1_555 1_555
H46 C58 1_555 1_555
H47 C58 1_555 1_555
H48 C58 1_555 1_555
C59 C57 1_555 1_555
H49 C59 1_555 1_555
H50 C59 1_555 1_555
H51 C59 1_555 1_555
C60 C57 1_555 1_555
H52 C60 1_555 1_555
H53 C60 1_555 1_555
H54 C60 1_555 1_555
C61 C19 1_555 1_555
C62 C61 1_555 1_555
H55 C62 1_555 1_555
H56 C62 1_555 1_555
H57 C62 1_555 1_555
C63 C61 1_555 1_555
H58 C63 1_555 1_555
H59 C63 1_555 1_555
H60 C63 1_555 1_555
C64 C61 1_555 1_555
H61 C64 1_555 1_555
H62 C64 1_555 1_555
H63 C64 1_555 1_555
C65 H64 1_555 1_555
H65 C65 1_555 1_555
C66 C65 1_555 1_555
H66 C66 1_555 1_555
H67 C66 1_555 1_555
C67 C66 1_555 1_555
H68 C67 1_555 1_555
H69 C67 1_555 1_555
H70 C67 1_555 1_555
C68 C24 1_555 1_555
C69 C68 1_555 1_555
H71 C69 1_555 1_555
H72 C69 1_555 1_555
H73 C69 1_555 1_555
C70 C68 1_555 1_555
H74 C70 1_555 1_555
H75 C70 1_555 1_555
H76 C70 1_555 1_555
C71 C68 1_555 1_555
H77 C71 1_555 1_555
H78 C71 1_555 1_555
H79 C71 1_555 1_555
C72 H80 1_555 1_555
H81 C72 1_555 1_555
C73 C72 1_555 1_555
O1 C1 1_555 1_555
O2 C34 1_555 1_555
O3 C54 1_555 1_555
O4 C13 1_555 1_555
O5 C16 1_555 1_555
O6 C27 1_555 1_555
O7 C73 1_555 1_555
O8 C73 1_555 1_555
H82 O8 1_555 1_555
C77 H92 1_555 1_555
H93 C77 1_555 1_555
H94 C77 1_555 1_555
O9 C77 1_555 1_555
H95 O9 1_555 1_555
C5 C6 1_555 1_555
C12 C13 1_555 1_555
C19 C20 1_555 1_555
C26 C27 1_555 1_555
C26 C28 1_555 1_555
C33 O1 1_555 1_555
C35 O2 1_555 1_555
C42 C43 1_555 1_555
C43 C44 1_555 1_555
C50 C51 1_555 1_555
C53 C54 1_555 1_555
C55 O3 1_555 1_555
C56 O4 1_555 1_555
C65 O5 1_555 1_555
C72 O6 1_555 1_555

#END
