
#######################################################################
#
#                 Cambridge Crystallographic Data Centre
#                                CCDC 
#
#######################################################################
#
# If this CIF has been generated from an entry in the Cambridge 
# Structural Database, then it will include bibliographic, chemical, 
# crystal, experimental, refinement or atomic coordinate data resulting 
# from the CCDC's data processing and validation procedures.
#
#######################################################################

data_CAGDOG
_chemical_formula_moiety         'C12 H14 N2 O3'
_chemical_name_systematic        4-benzyl-5-oxomorpholine-3-carboxamide
_symmetry_cell_setting           monoclinic
_symmetry_space_group_name_H-M   'P 21/n'
_symmetry_Int_Tables_number      14
_space_group_name_Hall           '-P 2yn'
loop_
_symmetry_equiv_pos_site_id
_symmetry_equiv_pos_as_xyz
1 x,y,z
2 1/2-x,1/2+y,1/2-z
3 -x,-y,-z
4 1/2+x,1/2-y,1/2+z
_cell_length_a                   9.912(5)
_cell_length_b                   10.371(5)
_cell_length_c                   11.632(6)
_cell_angle_alpha                90
_cell_angle_beta                 102.36(3)
_cell_angle_gamma                90
_cell_volume                     1168.02
_exptl_crystal_colour            colorless
_exptl_crystal_description       block
_cell_formula_units_Z            4
loop_
_atom_site_label
_atom_site_type_symbol
_atom_site_fract_x
_atom_site_fract_y
_atom_site_fract_z
N1 N 0.01560(15) 0.67829(13) 0.00369(12)
O1 O 0.01234(10) 0.83935(10) 0.25016(9)
O2 O 0.14590(13) 0.53403(9) 0.12122(11)
C1 C 0.11476(15) 0.64649(12) 0.09321(12)
C2 C 0.19511(13) 0.75347(12) 0.16836(11)
H1 H 0.2909 0.7239 0.1930
N2 N 0.19816(11) 0.87599(10) 0.10615(10)
C3 C 0.28802(15) 0.88383(16) 0.02127(13)
H2 H 0.2937 0.9729 -0.0027
H3 H 0.2473 0.8342 -0.0482
C4 C 0.43137(15) 0.83432(14) 0.07054(12)
C5 C 0.48118(18) 0.72703(19) 0.02303(15)
H4 H 0.4256 0.6856 -0.0408
C6 C 0.6114(2) 0.6803(2) 0.0683(2)
H5 H 0.6427 0.6072 0.0358
C7 C 0.69414(19) 0.7407(3) 0.1605(2)
H6 H 0.7828 0.7099 0.1905
C8 C 0.6467(2) 0.8470(2) 0.2092(2)
H7 H 0.7033 0.8879 0.2728
C9 C 0.51604(19) 0.89394(18) 0.16478(17)
H8 H 0.4848 0.9662 0.1986
C10 C 0.12334(13) 0.97901(12) 0.12494(12)
C11 C 0.03070(15) 0.96563(14) 0.21057(14)
H9 H 0.0676 1.0188 0.2787
H10 H -0.0593 1.0000 0.1741
C12 C 0.14124(14) 0.77480(14) 0.27860(12)
H11 H 0.1303 0.6925 0.3152
H12 H 0.2067 0.8261 0.3340
O3 O 0.12848(11) 1.08363(9) 0.07611(10)
H13 H -0.0056(17) 0.7587(19) -0.0109(15)
H14 H -0.0305(19) 0.6178(19) -0.0345(17)
loop_
_geom_bond_atom_site_label_1
_geom_bond_atom_site_label_2
_geom_bond_site_symmetry_1
_geom_bond_site_symmetry_2
N1 C1 1_555 1_555
O1 C11 1_555 1_555
O2 C1 1_555 1_555
C1 C2 1_555 1_555
C2 H1 1_555 1_555
N2 C2 1_555 1_555
C3 N2 1_555 1_555
H2 C3 1_555 1_555
H3 C3 1_555 1_555
C4 C3 1_555 1_555
C5 C4 1_555 1_555
H4 C5 1_555 1_555
C6 C5 1_555 1_555
H5 C6 1_555 1_555
C7 C6 1_555 1_555
H6 C7 1_555 1_555
C8 C7 1_555 1_555
H7 C8 1_555 1_555
C9 C4 1_555 1_555
H8 C9 1_555 1_555
C10 N2 1_555 1_555
C11 C10 1_555 1_555
H9 C11 1_555 1_555
H10 C11 1_555 1_555
C12 O1 1_555 1_555
H11 C12 1_555 1_555
H12 C12 1_555 1_555
O3 C10 1_555 1_555
H13 N1 1_555 1_555
H14 N1 1_555 1_555
C2 C12 1_555 1_555
C8 C9 1_555 1_555

#END
