
#######################################################################
#
#                 Cambridge Crystallographic Data Centre
#                                CCDC 
#
#######################################################################
#
# If this CIF has been generated from an entry in the Cambridge 
# Structural Database, then it will include bibliographic, chemical, 
# crystal, experimental, refinement or atomic coordinate data resulting 
# from the CCDC's data processing and validation procedures.
#
#######################################################################

data_CAGFEW
_chemical_name_common            
(N-(6'-Hydroxy-2'-pyridylmethyl)-1-aza-12-crown-4)-isothiocyanato-sodium
_chemical_formula_moiety         'C15 H22 N3 Na1 O4 S1'
_chemical_name_systematic        
(N-(6'-Hydroxy-2'-pyridylmethyl)-1,4,7-trioxa-10-azacyclododecane)-isothiocyanato-sodium
_symmetry_cell_setting           monoclinic
_symmetry_space_group_name_H-M   'P 21/n'
_symmetry_Int_Tables_number      14
_space_group_name_Hall           '-P 2yn'
loop_
_symmetry_equiv_pos_site_id
_symmetry_equiv_pos_as_xyz
1 x,y,z
2 1/2-x,1/2+y,1/2-z
3 -x,-y,-z
4 1/2+x,1/2-y,1/2+z
_cell_length_a                   11.263(4)
_cell_length_b                   8.876(3)
_cell_length_c                   18.625(3)
_cell_angle_alpha                90
_cell_angle_beta                 103.65(2)
_cell_angle_gamma                90
_cell_volume                     1809.36
_exptl_crystal_description       prismatic
_cell_formula_units_Z            4
_exptl_crystal_recrystallization_method acetonitrile
loop_
_atom_site_label
_atom_site_type_symbol
_atom_site_fract_x
_atom_site_fract_y
_atom_site_fract_z
S1 S 0.79081(9) -0.4666(1) 0.35572(5)
Na1 Na 0.68229(9) -0.0561(1) 0.50544(5)
O1 O 0.8436(2) 0.0450(3) 0.4563(1)
O2 O 0.6020(2) 0.0347(2) 0.37658(10)
O3 O 0.5382(1) 0.1723(2) 0.49890(9)
O4 O 1.0108(2) 0.0354(2) 0.7838(1)
N1 N 0.7895(2) 0.1640(2) 0.5897(1)
N2 N 0.8022(2) -0.1454(3) 0.6328(1)
N3 N 0.7153(3) -0.3092(3) 0.4655(2)
C1 C 0.9075(3) 0.1814(4) 0.5688(2)
C2 C 0.8967(3) 0.1839(5) 0.4867(2)
C3 C 0.8098(4) 0.0370(6) 0.3766(2)
C4 C 0.6929(4) 0.1008(5) 0.3450(2)
C5 C 0.4996(3) 0.1328(3) 0.3700(2)
C6 C 0.5185(3) 0.2491(3) 0.4298(2)
C7 C 0.5804(3) 0.2683(3) 0.5615(1)
C8 C 0.7151(3) 0.3013(3) 0.5759(2)
C9 C 0.8108(3) 0.1192(3) 0.6674(2)
C10 C 0.8579(2) -0.0410(3) 0.6801(1)
C11 C 0.9557(2) -0.0783(3) 0.7387(1)
C12 C 0.9937(3) -0.2248(3) 0.7485(1)
C13 C 0.9360(3) -0.3314(3) 0.6998(2)
C14 C 0.8411(3) -0.2874(3) 0.6430(2)
C15 C 0.7476(3) -0.3730(3) 0.4205(2)
H1 H 0.9437 0.2737 0.5885
H2 H 0.9594 0.1000 0.5893
H3 H 0.9753 0.1930 0.4766
H4 H 0.8464 0.2643 0.4646
H5 H 0.8700 0.0932 0.3592
H6 H 0.8119 -0.0642 0.3629
H7 H 0.6742 0.0780 0.2933
H8 H 0.6953 0.2047 0.3524
H9 H 0.4868 0.1830 0.3236
H10 H 0.4305 0.0741 0.3717
H11 H 0.4479 0.3109 0.4235
H12 H 0.5874 0.3098 0.4287
H13 H 0.5371 0.3612 0.5519
H14 H 0.5635 0.2217 0.6034
H15 H 0.7374 0.3642 0.6182
H16 H 0.7318 0.3516 0.5344
H17 H 0.8692 0.1850 0.6962
H18 H 0.7361 0.1259 0.6821
H19 H 1.0597 -0.2516 0.7888
H20 H 0.9602 -0.4339 0.7056
H21 H 0.8014 -0.3616 0.6088
H22 H 1.0759 -0.0070 0.8217
loop_
_geom_bond_atom_site_label_1
_geom_bond_atom_site_label_2
_geom_bond_site_symmetry_1
_geom_bond_site_symmetry_2
S1 C15 1_555 1_555
Na1 O1 1_555 1_555
O1 C2 1_555 1_555
O2 Na1 1_555 1_555
O3 Na1 1_555 1_555
O4 C11 1_555 1_555
N1 Na1 1_555 1_555
N2 Na1 1_555 1_555
N3 Na1 1_555 1_555
C1 N1 1_555 1_555
C2 C1 1_555 1_555
C3 O1 1_555 1_555
C4 O2 1_555 1_555
C5 O2 1_555 1_555
C6 O3 1_555 1_555
C7 O3 1_555 1_555
C8 N1 1_555 1_555
C9 N1 1_555 1_555
C10 N2 1_555 1_555
C11 C10 1_555 1_555
C12 C11 1_555 1_555
C13 C12 1_555 1_555
C14 N2 1_555 1_555
C15 N3 1_555 1_555
H1 C1 1_555 1_555
H2 C1 1_555 1_555
H3 C2 1_555 1_555
H4 C2 1_555 1_555
H5 C3 1_555 1_555
H6 C3 1_555 1_555
H7 C4 1_555 1_555
H8 C4 1_555 1_555
H9 C5 1_555 1_555
H10 C5 1_555 1_555
H11 C6 1_555 1_555
H12 C6 1_555 1_555
H13 C7 1_555 1_555
H14 C7 1_555 1_555
H15 C8 1_555 1_555
H16 C8 1_555 1_555
H17 C9 1_555 1_555
H18 C9 1_555 1_555
H19 C12 1_555 1_555
H20 C13 1_555 1_555
H21 C14 1_555 1_555
H22 O4 1_555 1_555
C3 C4 1_555 1_555
C5 C6 1_555 1_555
C7 C8 1_555 1_555
C9 C10 1_555 1_555
C13 C14 1_555 1_555

#END
