
#######################################################################
#
#                 Cambridge Crystallographic Data Centre
#                                CCDC 
#
#######################################################################
#
# If this CIF has been generated from an entry in the Cambridge 
# Structural Database, then it will include bibliographic, chemical, 
# crystal, experimental, refinement or atomic coordinate data resulting 
# from the CCDC's data processing and validation procedures.
#
#######################################################################

data_CAGHAU
_chemical_formula_moiety         'C15 H10 N4 O1'
_chemical_name_systematic        1-(2-Quinolinyl)benzotriazole-3-N-oxide
_symmetry_cell_setting           monoclinic
_symmetry_space_group_name_H-M   'C 2/c'
_symmetry_Int_Tables_number      15
_space_group_name_Hall           '-C 2yn'
loop_
_symmetry_equiv_pos_site_id
_symmetry_equiv_pos_as_xyz
1 x,y,z
2 1/2+x,1/2+y,z
3 -x,y,1/2-z
4 1/2-x,1/2+y,1/2-z
5 -x,-y,-z
6 1/2-x,1/2-y,-z
7 x,-y,1/2+z
8 1/2+x,1/2-y,1/2+z
_cell_length_a                   11.887(4)
_cell_length_b                   9.442(3)
_cell_length_c                   21.993(7)
_cell_angle_alpha                90
_cell_angle_beta                 98.234(5)
_cell_angle_gamma                90
_cell_volume                     2442.98
_exptl_crystal_colour            red
_exptl_crystal_description       prisms
_chemical_melting_point          216deg.C
_cell_formula_units_Z            8
_exptl_crystal_recrystallization_method 'ethyl acetate/acetone'
loop_
_atom_site_label
_atom_site_type_symbol
_atom_site_fract_x
_atom_site_fract_y
_atom_site_fract_z
N1 N 0.79132(10) -0.05618(13) 0.55247(5)
N2 N 0.71722(10) 0.05180(13) 0.56009(6)
N3 N 0.69251(10) 0.03656(13) 0.61593(6)
O1 O 0.62432(9) 0.11985(12) 0.63864(5)
C1 C 0.74816(12) -0.07833(15) 0.64604(7)
C2 C 0.74849(13) -0.12592(17) 0.70585(7)
H1 H 0.7034 -0.0829 0.7331
C3 C 0.81858(14) -0.23977(17) 0.72304(7)
H2 H 0.8226 -0.2774 0.7634
C4 C 0.88454(13) -0.30103(17) 0.68133(7)
H3 H 0.9326 -0.3784 0.6951
C5 C 0.88300(12) -0.25491(16) 0.62206(7)
H4 H 0.9271 -0.2988 0.5946
C6 C 0.81218(11) -0.13879(15) 0.60473(6)
N4 N 0.89628(10) -0.17895(13) 0.48953(5)
C7 C 0.83890(11) -0.06290(16) 0.49698(7)
C8 C 0.82437(13) 0.05253(16) 0.45563(7)
H5 H 0.7827 0.1343 0.4642
C9 C 0.87205(13) 0.04242(17) 0.40323(7)
H6 H 0.8631 0.1175 0.3742
C10 C 0.93509(12) -0.07967(16) 0.39176(7)
C11 C 0.98951(13) -0.09633(18) 0.33907(7)
H7 H 0.9819 -0.0248 0.3084
C12 C 1.05300(13) -0.21447(19) 0.33192(7)
H8 H 1.0894 -0.2245 0.2964
C13 C 1.06438(13) -0.32097(19) 0.37706(8)
H9 H 1.1086 -0.4027 0.3717
C14 C 1.01288(13) -0.30887(17) 0.42856(7)
H10 H 1.0217 -0.3817 0.4587
C15 C 0.94632(11) -0.18779(16) 0.43714(7)
loop_
_geom_bond_atom_site_label_1
_geom_bond_atom_site_label_2
_geom_bond_site_symmetry_1
_geom_bond_site_symmetry_2
N1 N2 1_555 1_555
N2 N3 1_555 1_555
N3 O1 1_555 1_555
C1 N3 1_555 1_555
C2 C1 1_555 1_555
H1 C2 1_555 1_555
C3 C2 1_555 1_555
H2 C3 1_555 1_555
C4 C3 1_555 1_555
H3 C4 1_555 1_555
C5 C4 1_555 1_555
H4 C5 1_555 1_555
C6 N1 1_555 1_555
N4 C7 1_555 1_555
C7 N1 1_555 1_555
C8 C7 1_555 1_555
H5 C8 1_555 1_555
C9 C8 1_555 1_555
H6 C9 1_555 1_555
C10 C9 1_555 1_555
C11 C10 1_555 1_555
H7 C11 1_555 1_555
C12 C11 1_555 1_555
H8 C12 1_555 1_555
C13 C12 1_555 1_555
H9 C13 1_555 1_555
C14 C13 1_555 1_555
H10 C14 1_555 1_555
C15 N4 1_555 1_555
C1 C6 1_555 1_555
C5 C6 1_555 1_555
C10 C15 1_555 1_555
C14 C15 1_555 1_555

#END
