
#######################################################################
#
#                 Cambridge Crystallographic Data Centre
#                                CCDC 
#
#######################################################################
#
# If this CIF has been generated from an entry in the Cambridge 
# Structural Database, then it will include bibliographic, chemical, 
# crystal, experimental, refinement or atomic coordinate data resulting 
# from the CCDC's data processing and validation procedures.
#
#######################################################################

data_CAGJEB
_chemical_formula_moiety         'C20 H17 N1 O5'
_chemical_name_systematic        
7-(2-Ethylbutyl)-1H-isochromeno[6,5,4-def]isoquinoline-1,3,6,8(7H)-tetrone
_symmetry_cell_setting           monoclinic
_symmetry_space_group_name_H-M   'P 21/c'
_symmetry_Int_Tables_number      14
_space_group_name_Hall           '-P 2ybc'
loop_
_symmetry_equiv_pos_site_id
_symmetry_equiv_pos_as_xyz
1 x,y,z
2 -x,1/2+y,1/2-z
3 -x,-y,-z
4 x,1/2-y,1/2+z
_cell_length_a                   16.5754(6)
_cell_length_b                   5.9062(2)
_cell_length_c                   16.6481(8)
_cell_angle_alpha                90
_cell_angle_beta                 98.622(2)
_cell_angle_gamma                90
_cell_volume                     1611.39
_exptl_crystal_colour            colorless
_exptl_crystal_description       block
_chemical_melting_point          '212 deg.C (dec.)'
_cell_formula_units_Z            4
loop_
_atom_site_label
_atom_site_type_symbol
_atom_site_fract_x
_atom_site_fract_y
_atom_site_fract_z
C1 C 0.22797(11) 0.1177(3) 0.09579(11)
O1 O 0.22667(8) 0.0305(2) 0.02956(8)
N1 N 0.27649(9) 0.0258(2) 0.16409(9)
O2 O -0.01128(9) 0.9940(2) 0.09220(9)
C2 C 0.17926(10) 0.3216(3) 0.10860(11)
C3 C 0.13304(10) 0.4238(3) 0.04334(11)
H1 H 0.1326 0.3637 -0.0096
O3 O 0.04072(8) 0.98538(19) 0.22196(8)
C4 C 0.18180(10) 0.4097(3) 0.18741(11)
C5 C 0.08626(11) 0.6171(3) 0.05437(12)
H2 H 0.0549 0.6883 0.0089
C6 C 0.13409(10) 0.6033(3) 0.19918(11)
C7 C 0.08598(10) 0.7027(3) 0.13106(11)
C8 C 0.03475(11) 0.8992(3) 0.14324(12)
C9 C 0.32032(11) -0.1858(3) 0.15045(12)
H3 H 0.2826 -0.2865 0.1151
H4 H 0.3353 -0.2634 0.2033
C10 C 0.39762(11) -0.1535(3) 0.11174(11)
H5 H 0.3830 -0.0621 0.0611
C11 C 0.42576(12) -0.3882(3) 0.08762(13)
H6 H 0.4821 -0.3753 0.0750
H7 H 0.4273 -0.4910 0.1348
C12 C 0.37274(13) -0.4939(3) 0.01565(14)
H8 H 0.3944 -0.6433 0.0047
H9 H 0.3725 -0.3968 -0.0321
H10 H 0.3169 -0.5102 0.0277
C13 C 0.28168(11) 0.1096(3) 0.24335(12)
O4 O 0.32510(8) 0.0200(2) 0.29920(8)
C14 C 0.23108(10) 0.3113(3) 0.25534(11)
O5 O 0.08576(8) 0.9885(2) 0.35296(9)
C15 C 0.23204(11) 0.4011(3) 0.33154(12)
H11 H 0.2650 0.3336 0.3768
C16 C 0.18449(11) 0.5925(3) 0.34309(12)
H12 H 0.1855 0.6532 0.3961
C17 C 0.13681(10) 0.6915(3) 0.27822(11)
C18 C 0.08796(11) 0.8932(3) 0.29013(12)
C19 C 0.46328(12) -0.0260(3) 0.16787(13)
H13 H 0.4391 0.1144 0.1864
H14 H 0.4811 -0.1205 0.2164
C20 C 0.53764(12) 0.0364(4) 0.12925(14)
H15 H 0.5730 0.1373 0.1657
H16 H 0.5201 0.1135 0.0774
H17 H 0.5678 -0.1013 0.1197
loop_
_geom_bond_atom_site_label_1
_geom_bond_atom_site_label_2
_geom_bond_site_symmetry_1
_geom_bond_site_symmetry_2
C1 O1 1_555 1_555
N1 C1 1_555 1_555
O2 C8 1_555 1_555
C2 C1 1_555 1_555
C3 C2 1_555 1_555
H1 C3 1_555 1_555
O3 C8 1_555 1_555
C4 C2 1_555 1_555
C5 C3 1_555 1_555
H2 C5 1_555 1_555
C6 C4 1_555 1_555
C7 C5 1_555 1_555
C8 C7 1_555 1_555
C9 N1 1_555 1_555
H3 C9 1_555 1_555
H4 C9 1_555 1_555
C10 C9 1_555 1_555
H5 C10 1_555 1_555
C11 C10 1_555 1_555
H6 C11 1_555 1_555
H7 C11 1_555 1_555
C12 C11 1_555 1_555
H8 C12 1_555 1_555
H9 C12 1_555 1_555
H10 C12 1_555 1_555
C13 N1 1_555 1_555
O4 C13 1_555 1_555
C14 C4 1_555 1_555
O5 C18 1_555 1_555
C15 C14 1_555 1_555
H11 C15 1_555 1_555
C16 C15 1_555 1_555
H12 C16 1_555 1_555
C17 C6 1_555 1_555
C18 O3 1_555 1_555
C19 C10 1_555 1_555
H13 C19 1_555 1_555
H14 C19 1_555 1_555
C20 C19 1_555 1_555
H15 C20 1_555 1_555
H16 C20 1_555 1_555
H17 C20 1_555 1_555
C6 C7 1_555 1_555
C13 C14 1_555 1_555
C16 C17 1_555 1_555
C17 C18 1_555 1_555

#END
