
#######################################################################
#
#                 Cambridge Crystallographic Data Centre
#                                CCDC 
#
#######################################################################
#
# If this CIF has been generated from an entry in the Cambridge 
# Structural Database, then it will include bibliographic, chemical, 
# crystal, experimental, refinement or atomic coordinate data resulting 
# from the CCDC's data processing and validation procedures.
#
#######################################################################

data_CAGLIS10
_chemical_formula_moiety         '2(C6 H11 O6 1-),Ca1 2+'
_chemical_name_systematic        'Calcium \a-D-glucoisosaccharate'
_symmetry_cell_setting           orthorhombic
_symmetry_space_group_name_H-M   'P 21 21 2'
_symmetry_Int_Tables_number      18
_space_group_name_Hall           'P 2 2ab'
loop_
_symmetry_equiv_pos_site_id
_symmetry_equiv_pos_as_xyz
1 x,y,z
2 1/2+x,1/2-y,-z
3 1/2-x,1/2+y,-z
4 -x,-y,z
_cell_length_a                   19.609(2)
_cell_length_b                   6.782(1)
_cell_length_c                   5.747(1)
_cell_angle_alpha                90
_cell_angle_beta                 90
_cell_angle_gamma                90
_cell_volume                     764.283
_cell_formula_units_Z            2
loop_
_atom_site_label
_atom_site_type_symbol
_atom_site_fract_x
_atom_site_fract_y
_atom_site_fract_z
Ca1 Ca 0.00000 0.00000 0.27020
C1 C 0.12030 0.20800 -0.01500
C2 C 0.15290 0.25100 0.22500
C3 C 0.22270 0.14900 0.24900
C4 C 0.16130 0.47100 0.29400
C5 C 0.09570 0.59500 0.32600
C6 C 0.08860 0.66000 0.57000
O1 O 0.15790 0.26200 -0.18500
O2 O 0.05980 0.17100 -0.02900
O3 O 0.10590 0.15800 0.39400
O4 O 0.21480 -0.05300 0.19700
O5 O 0.08890 0.75100 0.16000
O6 O 0.02850 0.78100 0.58500
loop_
_geom_bond_atom_site_label_1
_geom_bond_atom_site_label_2
_geom_bond_site_symmetry_1
_geom_bond_site_symmetry_2
C1 C2 1_555 1_555
C2 C3 1_555 1_555
C3 O4 1_555 1_555
C4 C2 1_555 1_555
C5 C4 1_555 1_555
C6 C5 1_555 1_555
O1 C1 1_555 1_555
O2 C1 1_555 1_555
O3 C2 1_555 1_555
O5 C5 1_555 1_555
O6 C6 1_555 1_555

#END
