
#######################################################################
#
#                 Cambridge Crystallographic Data Centre
#                                CCDC 
#
#######################################################################
#
# If this CIF has been generated from an entry in the Cambridge 
# Structural Database, then it will include bibliographic, chemical, 
# crystal, experimental, refinement or atomic coordinate data resulting 
# from the CCDC's data processing and validation procedures.
#
#######################################################################

data_CAGMUV
_chemical_formula_moiety         'C25 H16 O2 S1'
_chemical_name_systematic        
"spiro[fluorene-9,9'-thioxanthene] 10',10'-dioxide"
_symmetry_cell_setting           monoclinic
_symmetry_space_group_name_H-M   'P 21/c'
_symmetry_Int_Tables_number      14
_space_group_name_Hall           '-P 2ybc'
loop_
_symmetry_equiv_pos_site_id
_symmetry_equiv_pos_as_xyz
1 x,y,z
2 -x,1/2+y,1/2-z
3 -x,-y,-z
4 x,1/2-y,1/2+z
_cell_length_a                   16.1470(17)
_cell_length_b                   8.9176(9)
_cell_length_c                   25.570(3)
_cell_angle_alpha                90
_cell_angle_beta                 90.208(2)
_cell_angle_gamma                90
_cell_volume                     3681.86
_exptl_crystal_colour            colorless
_exptl_crystal_description       flake
_cell_formula_units_Z            8
loop_
_atom_site_label
_atom_site_type_symbol
_atom_site_fract_x
_atom_site_fract_y
_atom_site_fract_z
C1 C 0.23909(14) 0.1172(3) 0.05194(9)
C2 C 0.08337(15) 0.1145(3) 0.07539(9)
C3 C 0.15512(15) 0.0405(3) 0.06033(9)
C4 C 0.14852(16) -0.1130(3) 0.05063(10)
H1 H 0.1963 -0.1670 0.0400
C5 C 0.07420(16) -0.1889(3) 0.05613(10)
H2 H 0.0714 -0.2932 0.0488
C6 C 0.00397(16) -0.1132(3) 0.07223(11)
H3 H -0.0468 -0.1654 0.0766
C7 C 0.00836(16) 0.0387(3) 0.08193(10)
H4 H -0.0395 0.0917 0.0930
C8 C 0.18280(14) 0.3609(3) 0.09293(9)
C9 C 0.24859(14) 0.2734(3) 0.07583(9)
C10 C 0.32765(15) 0.3360(3) 0.07963(10)
H5 H 0.3741 0.2796 0.0681
C11 C 0.33984(16) 0.4777(3) 0.09965(10)
H6 H 0.3941 0.5184 0.1011
C12 C 0.27318(16) 0.5614(3) 0.11771(10)
H7 H 0.2819 0.6584 0.1320
C13 C 0.19465(16) 0.5029(3) 0.11470(9)
H8 H 0.1487 0.5586 0.1273
C14 C 0.32672(15) 0.0358(3) -0.01905(10)
C15 C 0.25804(14) 0.1235(3) -0.00700(9)
C16 C 0.21692(15) 0.2050(3) -0.04496(10)
H9 H 0.1697 0.2635 -0.0365
C17 C 0.24656(17) 0.1990(3) -0.09606(10)
H10 H 0.2195 0.2547 -0.1228
C18 C 0.31512(16) 0.1126(3) -0.10823(10)
H11 H 0.3348 0.1102 -0.1432
C19 C 0.35545(16) 0.0296(3) -0.06999(10)
H12 H 0.4020 -0.0306 -0.0786
C20 C 0.35882(15) -0.0316(3) 0.02944(10)
C21 C 0.30997(14) 0.0155(3) 0.07088(10)
C22 C 0.32886(15) -0.0259(3) 0.12178(10)
H13 H 0.2957 0.0071 0.1502
C23 C 0.39741(15) -0.1166(3) 0.13025(11)
H14 H 0.4114 -0.1456 0.1649
C24 C 0.44600(15) -0.1661(3) 0.08885(11)
H15 H 0.4923 -0.2291 0.0955
C25 C 0.42732(15) -0.1240(3) 0.03810(11)
H16 H 0.4604 -0.1572 0.0097
O1 O 0.05330(10) 0.37529(19) 0.03369(7)
O2 O 0.03159(10) 0.3458(2) 0.12850(7)
S1 S 0.07947(4) 0.30951(7) 0.08270(3)
C26 C 0.26060(14) 0.8237(3) 0.30896(9)
C27 C 0.31709(14) 0.8751(3) 0.40194(9)
C28 C 0.25071(15) 0.8568(3) 0.36740(9)
C29 C 0.17139(15) 0.8742(3) 0.38797(9)
H17 H 0.1247 0.8633 0.3656
C30 C 0.15933(16) 0.9070(3) 0.44017(10)
H18 H 0.1048 0.9200 0.4531
C31 C 0.22641(16) 0.9208(3) 0.47367(10)
H19 H 0.2178 0.9417 0.5097
C32 C 0.30551(15) 0.9044(3) 0.45479(10)
H20 H 0.3518 0.9131 0.4776
C33 C 0.41445(15) 0.7557(3) 0.32491(9)
C34 C 0.34255(15) 0.7457(3) 0.29489(9)
C35 C 0.34720(16) 0.6589(3) 0.24949(10)
H21 H 0.2996 0.6496 0.2278
C36 C 0.41932(16) 0.5863(3) 0.23536(10)
H22 H 0.4208 0.5291 0.2040
C37 C 0.48959(17) 0.5964(3) 0.26656(11)
H23 H 0.5389 0.5453 0.2571
C38 C 0.48687(16) 0.6812(3) 0.31126(10)
H24 H 0.5346 0.6891 0.3329
C39 C 0.18093(16) 0.9601(3) 0.24424(10)
C40 C 0.24941(15) 0.9708(3) 0.27759(9)
C41 C 0.29433(16) 1.1020(3) 0.28117(10)
H25 H 0.3412 1.1086 0.3036
C42 C 0.2694(2) 1.2250(3) 0.25108(11)
H26 H 0.2999 1.3159 0.2526
C43 C 0.2002(2) 1.2145(3) 0.21910(11)
H27 H 0.1829 1.2999 0.1997
C44 C 0.15592(19) 1.0833(3) 0.21490(10)
H28 H 0.1091 1.0769 0.1924
C45 C 0.14478(16) 0.8093(3) 0.24922(10)
C46 C 0.18767(15) 0.7312(3) 0.28789(9)
C47 C 0.16486(15) 0.5879(3) 0.30158(10)
H29 H 0.1935 0.5360 0.3286
C48 C 0.09914(17) 0.5204(3) 0.27529(13)
H30 H 0.0829 0.4213 0.2843
C49 C 0.05712(17) 0.5964(4) 0.23599(12)
H31 H 0.0127 0.5487 0.2181
C50 C 0.07934(17) 0.7409(4) 0.22278(11)
H32 H 0.0504 0.7931 0.1960
O3 O 0.47144(10) 0.80038(19) 0.41949(6)
O4 O 0.44444(10) 1.01964(19) 0.36399(7)
S2 S 0.41997(4) 0.87107(7) 0.38045(3)
loop_
_geom_bond_atom_site_label_1
_geom_bond_atom_site_label_2
_geom_bond_site_symmetry_1
_geom_bond_site_symmetry_2
C1 C3 1_555 1_555
C2 C3 1_555 1_555
C3 C4 1_555 1_555
C4 H1 1_555 1_555
C5 C4 1_555 1_555
H2 C5 1_555 1_555
C6 C5 1_555 1_555
H3 C6 1_555 1_555
C7 C2 1_555 1_555
H4 C7 1_555 1_555
C8 C9 1_555 1_555
C9 C1 1_555 1_555
C10 C9 1_555 1_555
H5 C10 1_555 1_555
C11 C10 1_555 1_555
H6 C11 1_555 1_555
C12 C11 1_555 1_555
H7 C12 1_555 1_555
C13 C8 1_555 1_555
H8 C13 1_555 1_555
C14 C15 1_555 1_555
C15 C1 1_555 1_555
C16 C15 1_555 1_555
H9 C16 1_555 1_555
C17 C16 1_555 1_555
H10 C17 1_555 1_555
C18 C17 1_555 1_555
H11 C18 1_555 1_555
C19 C14 1_555 1_555
H12 C19 1_555 1_555
C20 C14 1_555 1_555
C21 C1 1_555 1_555
C22 C21 1_555 1_555
H13 C22 1_555 1_555
C23 C22 1_555 1_555
H14 C23 1_555 1_555
C24 C23 1_555 1_555
H15 C24 1_555 1_555
C25 C20 1_555 1_555
H16 C25 1_555 1_555
O1 S1 1_555 1_555
O2 S1 1_555 1_555
S1 C2 1_555 1_555
C26 C28 1_555 1_555
C27 C28 1_555 1_555
C28 C29 1_555 1_555
C29 H17 1_555 1_555
C30 C29 1_555 1_555
H18 C30 1_555 1_555
C31 C30 1_555 1_555
H19 C31 1_555 1_555
C32 C27 1_555 1_555
H20 C32 1_555 1_555
C33 C34 1_555 1_555
C34 C26 1_555 1_555
C35 C34 1_555 1_555
H21 C35 1_555 1_555
C36 C35 1_555 1_555
H22 C36 1_555 1_555
C37 C36 1_555 1_555
H23 C37 1_555 1_555
C38 C33 1_555 1_555
H24 C38 1_555 1_555
C39 C40 1_555 1_555
C40 C26 1_555 1_555
C41 C40 1_555 1_555
H25 C41 1_555 1_555
C42 C41 1_555 1_555
H26 C42 1_555 1_555
C43 C42 1_555 1_555
H27 C43 1_555 1_555
C44 C39 1_555 1_555
H28 C44 1_555 1_555
C45 C39 1_555 1_555
C46 C26 1_555 1_555
C47 C46 1_555 1_555
H29 C47 1_555 1_555
C48 C47 1_555 1_555
H30 C48 1_555 1_555
C49 C48 1_555 1_555
H31 C49 1_555 1_555
C50 C45 1_555 1_555
H32 C50 1_555 1_555
O3 S2 1_555 1_555
O4 S2 1_555 1_555
S2 C27 1_555 1_555
C6 C7 1_555 1_555
C8 S1 1_555 1_555
C12 C13 1_555 1_555
C18 C19 1_555 1_555
C20 C21 1_555 1_555
C24 C25 1_555 1_555
C31 C32 1_555 1_555
C33 S2 1_555 1_555
C37 C38 1_555 1_555
C43 C44 1_555 1_555
C45 C46 1_555 1_555
C49 C50 1_555 1_555

#END
