
#######################################################################
#
#                 Cambridge Crystallographic Data Centre
#                                CCDC 
#
#######################################################################
#
# If this CIF has been generated from an entry in the Cambridge 
# Structural Database, then it will include bibliographic, chemical, 
# crystal, experimental, refinement or atomic coordinate data resulting 
# from the CCDC's data processing and validation procedures.
#
#######################################################################

data_CAGNUW
_chemical_formula_moiety         'C9 H9 N9'
_chemical_name_systematic        
2-(1-methyl-1H-tetrazol-5-yl)-6-(2-methyl-2H-tetrazol-5-yl)pyridine
_symmetry_cell_setting           triclinic
_symmetry_space_group_name_H-M   'P -1'
_symmetry_Int_Tables_number      2
_space_group_name_Hall           '-P 1'
loop_
_symmetry_equiv_pos_site_id
_symmetry_equiv_pos_as_xyz
1 x,y,z
2 -x,-y,-z
_cell_length_a                   7.138(3)
_cell_length_b                   8.627(4)
_cell_length_c                   17.543(8)
_cell_angle_alpha                88.307(10)
_cell_angle_beta                 86.554(8)
_cell_angle_gamma                89.384(10)
_cell_volume                     1077.82
_exptl_crystal_colour            colorless
_exptl_crystal_description       needle
_cell_formula_units_Z            4
loop_
_atom_site_label
_atom_site_type_symbol
_atom_site_fract_x
_atom_site_fract_y
_atom_site_fract_z
N1 N 0.22846(19) 0.04523(17) 0.49025(8)
N2 N 0.3166(2) -0.21349(18) 0.33242(9)
N3 N 0.3810(2) -0.36092(19) 0.34213(9)
N4 N 0.4021(2) -0.39328(18) 0.41383(9)
N5 N 0.3517(2) -0.26604(17) 0.45244(8)
N6 N 0.0997(2) 0.37774(17) 0.60690(9)
N7 N 0.1174(2) 0.38057(18) 0.68115(9)
N8 N 0.1918(2) 0.24496(17) 0.70049(8)
N9 N 0.2253(2) 0.15063(17) 0.64253(8)
C1 C 0.1742(2) 0.1911(2) 0.50433(9)
C2 C 0.1279(2) 0.2989(2) 0.44735(10)
C3 C 0.1375(3) 0.2527(2) 0.37220(10)
C4 C 0.1922(3) 0.1024(2) 0.35624(10)
C5 C 0.2374(2) 0.0031(2) 0.41728(9)
C6 C 0.2997(2) -0.1557(2) 0.40160(10)
C7 C 0.3597(3) -0.2685(2) 0.53580(10)
C8 C 0.1663(2) 0.23803(19) 0.58442(9)
C9 C 0.2368(3) 0.2040(2) 0.77853(11)
H1 H 0.089(3) 0.404(2) 0.4624(11)
H2 H 0.105(4) 0.325(3) 0.3323(14)
H3 H 0.202(3) 0.065(3) 0.3053(13)
H4 H 0.229(5) -0.261(3) 0.5605(17)
H5 H 0.444(5) -0.181(4) 0.5495(17)
H6 H 0.426(4) -0.370(4) 0.5506(16)
H7 H 0.234(3) 0.299(3) 0.8061(14)
H8 H 0.365(4) 0.160(3) 0.7774(16)
H9 H 0.136(4) 0.136(4) 0.8009(17)
N10 N 0.25812(19) 0.53596(16) 0.02658(8)
N11 N 0.0915(2) 0.27916(17) 0.18313(8)
N12 N 0.0335(2) 0.13278(18) 0.17230(9)
N13 N 0.0471(2) 0.10061(17) 0.10040(9)
N14 N 0.11495(19) 0.22831(16) 0.06257(8)
N15 N 0.4488(2) 0.86192(17) -0.08902(8)
N16 N 0.4642(2) 0.86432(17) -0.16438(9)
N17 N 0.3930(2) 0.73223(17) -0.18500(8)
N18 N 0.3310(2) 0.64013(17) -0.12705(8)
C10 C 0.3199(2) 0.68090(19) 0.01292(9)
C11 C 0.3356(2) 0.7889(2) 0.06967(10)
C12 C 0.2850(3) 0.7443(2) 0.14458(10)
C13 C 0.2215(2) 0.5945(2) 0.16039(10)
C14 C 0.2105(2) 0.49545(19) 0.09945(9)
C15 C 0.1412(2) 0.33695(19) 0.11414(9)
C16 C 0.1536(3) 0.2235(2) -0.02030(10)
C17 C 0.3671(2) 0.72554(19) -0.06769(9)
C18 C 0.3788(3) 0.6932(3) -0.26477(11)
H10 H 0.393(3) 0.888(3) 0.0568(12)
H11 H 0.292(3) 0.813(3) 0.1848(14)
H12 H 0.183(3) 0.561(2) 0.2121(12)
H13 H 0.288(4) 0.217(3) -0.0309(15)
H14 H 0.101(4) 0.314(3) -0.0456(16)
H15 H 0.078(4) 0.146(3) -0.0385(14)
H16 H 0.471(4) 0.612(3) -0.2769(15)
H17 H 0.398(4) 0.781(3) -0.2963(15)
H18 H 0.244(4) 0.659(3) -0.2713(14)
loop_
_geom_bond_atom_site_label_1
_geom_bond_atom_site_label_2
_geom_bond_site_symmetry_1
_geom_bond_site_symmetry_2
N1 C1 1_555 1_555
N2 N3 1_555 1_555
N3 N4 1_555 1_555
N4 N5 1_555 1_555
N5 C6 1_555 1_555
N6 N7 1_555 1_555
N7 N8 1_555 1_555
N8 N9 1_555 1_555
N9 C8 1_555 1_555
C1 C2 1_555 1_555
C2 C3 1_555 1_555
C3 C4 1_555 1_555
C4 C5 1_555 1_555
C5 N1 1_555 1_555
C6 N2 1_555 1_555
C7 N5 1_555 1_555
C8 N6 1_555 1_555
C9 N8 1_555 1_555
H1 C2 1_555 1_555
H2 C3 1_555 1_555
H3 C4 1_555 1_555
H4 C7 1_555 1_555
H5 C7 1_555 1_555
H6 C7 1_555 1_555
H7 C9 1_555 1_555
H8 C9 1_555 1_555
H9 C9 1_555 1_555
N10 C10 1_555 1_555
N11 N12 1_555 1_555
N12 N13 1_555 1_555
N13 N14 1_555 1_555
N14 C15 1_555 1_555
N15 N16 1_555 1_555
N16 N17 1_555 1_555
N17 N18 1_555 1_555
N18 C17 1_555 1_555
C10 C11 1_555 1_555
C11 C12 1_555 1_555
C12 C13 1_555 1_555
C13 C14 1_555 1_555
C14 N10 1_555 1_555
C15 N11 1_555 1_555
C16 N14 1_555 1_555
C17 N15 1_555 1_555
C18 N17 1_555 1_555
H10 C11 1_555 1_555
H11 C12 1_555 1_555
H12 C13 1_555 1_555
H13 C16 1_555 1_555
H14 C16 1_555 1_555
H15 C16 1_555 1_555
H16 C18 1_555 1_555
H17 C18 1_555 1_555
H18 C18 1_555 1_555
C1 C8 1_555 1_555
C5 C6 1_555 1_555
C10 C17 1_555 1_555
C14 C15 1_555 1_555

#END
