
#######################################################################
#
#                 Cambridge Crystallographic Data Centre
#                                CCDC 
#
#######################################################################
#
# If this CIF has been generated from an entry in the Cambridge 
# Structural Database, then it will include bibliographic, chemical, 
# crystal, experimental, refinement or atomic coordinate data resulting 
# from the CCDC's data processing and validation procedures.
#
#######################################################################

data_CAGNIK
_chemical_formula_moiety         'C16 H25 N1 O4,0.17(C6 H12)'
_chemical_name_systematic        
'dimethyl 4-methyl-2,6-dipropyl-1,4-dihydropyridine-3,5-dicarboxylate cyclohexane solvate'
_symmetry_cell_setting           rhombohedral
_symmetry_space_group_name_H-M   'R -3'
_symmetry_Int_Tables_number      148
_space_group_name_Hall           '-R 3'
loop_
_symmetry_equiv_pos_site_id
_symmetry_equiv_pos_as_xyz
1 x,y,z
2 -y,x-y,z
3 -x+y,-x,z
4 2/3+x,1/3+y,1/3+z
5 2/3-y,1/3+x-y,1/3+z
6 2/3-x+y,1/3-x,1/3+z
7 1/3+x,2/3+y,2/3+z
8 1/3-y,2/3+x-y,2/3+z
9 1/3-x+y,2/3-x,2/3+z
10 -x,-y,-z
11 y,-x+y,-z
12 x-y,x,-z
13 1/3-x,2/3-y,2/3-z
14 1/3+y,2/3-x+y,2/3-z
15 1/3+x-y,2/3+x,2/3-z
16 2/3-x,1/3-y,1/3-z
17 2/3+y,1/3-x+y,1/3-z
18 2/3+x-y,1/3+x,1/3-z
_cell_length_a                   32.5484(12)
_cell_length_b                   32.5484(12)
_cell_length_c                   8.2649(3)
_cell_angle_alpha                90
_cell_angle_beta                 90
_cell_angle_gamma                120
_cell_volume                     7582.76
_exptl_crystal_colour            colorless
_exptl_crystal_description       block
_cell_formula_units_Z            18
loop_
_atom_site_label
_atom_site_type_symbol
_atom_site_fract_x
_atom_site_fract_y
_atom_site_fract_z
O1 O 0.49121(6) 0.95351(6) 0.33998(18)
O2 O 0.57711(6) 0.94851(6) 0.77317(18)
O3 O 0.45456(6) 0.89450(6) 0.16019(19)
O4 O 0.57776(6) 0.88200(6) 0.83581(18)
N1 N 0.55036(7) 0.84917(7) 0.3286(2)
H1 H 0.5600 0.8330 0.2701
C1 C 0.57339(8) 0.90621(8) 0.7345(2)
C2 C 0.48445(7) 0.91375(7) 0.2656(2)
C3 C 0.51717(7) 0.89887(8) 0.3269(2)
C4 C 0.52055(7) 0.86276(8) 0.2584(2)
C5 C 0.56574(8) 0.85995(8) 0.4874(2)
C6 C 0.56306(7) 0.89582(8) 0.5614(2)
C7 C 0.55195(8) 0.92786(8) 0.4596(2)
H2 H 0.5366 0.9413 0.5306
C8 C 0.49381(8) 0.83324(8) 0.1143(2)
H3 H 0.5128 0.8210 0.0611
H4 H 0.4891 0.8534 0.0353
C9 C 0.58422(9) 0.82925(8) 0.5547(3)
H5 H 0.5997 0.8425 0.6600
H6 H 0.6088 0.8307 0.4804
C10 C 0.46136(8) 0.97195(9) 0.2865(3)
H7 H 0.4653 0.9778 0.1697
H8 H 0.4704 1.0017 0.3433
H9 H 0.4281 0.9488 0.3102
C11 C 0.59728(9) 0.96910(8) 0.3882(3)
H10 H 0.6116 0.9567 0.3123
H11 H 0.6198 0.9863 0.4756
H12 H 0.5895 0.9907 0.3310
C12 C 0.44569(9) 0.79171(8) 0.1632(3)
H13 H 0.4266 0.8041 0.2149
H14 H 0.4504 0.7719 0.2436
C13 C 0.58461(9) 0.96058(9) 0.9421(3)
H15 H 0.5892 0.9925 0.9578
H16 H 0.6128 0.9599 0.9796
H17 H 0.5569 0.9376 1.0040
C14 C 0.41849(9) 0.76098(9) 0.0181(3)
H18 H 0.4136 0.7804 -0.0617
H19 H 0.3877 0.7351 0.0542
H20 H 0.4367 0.7477 -0.0311
C15 C 0.54623(10) 0.77717(9) 0.5792(3)
H21 H 0.5299 0.7641 0.4749
H22 H 0.5619 0.7591 0.6113
C16 C 0.50970(12) 0.76993(10) 0.7054(4)
H23 H 0.4926 0.7862 0.6716
H24 H 0.5255 0.7830 0.8090
H25 H 0.4872 0.7359 0.7176
C17 C 0.3747(3) 0.7103(3) -0.3699(6)
H26 H 0.3719 0.7073 -0.4891
H27 H 0.4035 0.7407 -0.3423
C17P C 0.3770(3) 0.6689(4) -0.2968(6)
H26P H 0.3740 0.6687 -0.1776
H27P H 0.4074 0.6705 -0.3244
C17Q C 0.3311(4) 0.7080(3) -0.2968(6)
H26Q H 0.3313 0.7052 -0.1776
H27Q H 0.3295 0.7368 -0.3244
C17A C 0.2897(3) 0.6644(4) -0.3699(6)
H26A H 0.2927 0.6646 -0.4891
H27A H 0.2593 0.6628 -0.3423
C17B C 0.3356(4) 0.6253(3) -0.3699(6)
H26B H 0.3354 0.6281 -0.4891
H27B H 0.3372 0.5965 -0.3423
C17O C 0.2920(3) 0.6230(3) -0.2968(6)
H26O H 0.2948 0.6260 -0.1776
H27O H 0.2632 0.5926 -0.3244
loop_
_geom_bond_atom_site_label_1
_geom_bond_atom_site_label_2
_geom_bond_site_symmetry_1
_geom_bond_site_symmetry_2
O1 C2 1_555 1_555
O2 C1 1_555 1_555
O3 C2 1_555 1_555
O4 C1 1_555 1_555
N1 H1 1_555 1_555
C1 C6 1_555 1_555
C2 C3 1_555 1_555
C3 C4 1_555 1_555
C4 N1 1_555 1_555
C5 N1 1_555 1_555
C6 C5 1_555 1_555
C7 C3 1_555 1_555
H2 C7 1_555 1_555
C8 C4 1_555 1_555
H3 C8 1_555 1_555
H4 C8 1_555 1_555
C9 C5 1_555 1_555
H5 C9 1_555 1_555
H6 C9 1_555 1_555
C10 O1 1_555 1_555
H7 C10 1_555 1_555
H8 C10 1_555 1_555
H9 C10 1_555 1_555
C11 C7 1_555 1_555
H10 C11 1_555 1_555
H11 C11 1_555 1_555
H12 C11 1_555 1_555
C12 C8 1_555 1_555
H13 C12 1_555 1_555
H14 C12 1_555 1_555
C13 O2 1_555 1_555
H15 C13 1_555 1_555
H16 C13 1_555 1_555
H17 C13 1_555 1_555
C14 C12 1_555 1_555
H18 C14 1_555 1_555
H19 C14 1_555 1_555
H20 C14 1_555 1_555
C15 C9 1_555 1_555
H21 C15 1_555 1_555
H22 C15 1_555 1_555
C16 C15 1_555 1_555
H23 C16 1_555 1_555
H24 C16 1_555 1_555
H25 C16 1_555 1_555
C17 H26 1_555 1_555
H27 C17 1_555 1_555
C17P C17 1_555 1_555
H26P C17P 1_555 1_555
H27P C17P 1_555 1_555
C17Q C17 1_555 1_555
H26Q C17Q 1_555 1_555
H27Q C17Q 1_555 1_555
C17A C17Q 1_555 1_555
H26A C17A 1_555 1_555
H27A C17A 1_555 1_555
C17B C17P 1_555 1_555
H26B C17B 1_555 1_555
H27B C17B 1_555 1_555
C17O C17A 1_555 1_555
H26O C17O 1_555 1_555
H27O C17O 1_555 1_555
C6 C7 1_555 1_555
C17B C17O 1_555 1_555

#END
