
#######################################################################
#
#                 Cambridge Crystallographic Data Centre
#                                CCDC 
#
#######################################################################
#
# If this CIF has been generated from an entry in the Cambridge 
# Structural Database, then it will include bibliographic, chemical, 
# crystal, experimental, refinement or atomic coordinate data resulting 
# from the CCDC's data processing and validation procedures.
#
#######################################################################

data_CAGNAC
_chemical_formula_moiety         'C24 H25 N1 O4'
_chemical_name_systematic        
'dibenzyl 2,4,6-trimethyl-1,4-dihydropyridine-3,5-dicarboxylate'
_symmetry_cell_setting           monoclinic
_symmetry_space_group_name_H-M   'I 2/a'
_symmetry_Int_Tables_number      15
_space_group_name_Hall           '-I 2ya'
loop_
_symmetry_equiv_pos_site_id
_symmetry_equiv_pos_as_xyz
1 x,y,z
2 1/2-x,y,-z
3 1/2+x,1/2+y,1/2+z
4 -x,1/2+y,1/2-z
5 -x,-y,-z
6 1/2+x,-y,z
7 1/2-x,1/2-y,1/2-z
8 x,1/2-y,1/2+z
_cell_length_a                   14.8761(8)
_cell_length_b                   9.7832(8)
_cell_length_c                   29.3191(19)
_cell_angle_alpha                90
_cell_angle_beta                 102.336(6)
_cell_angle_gamma                90
_cell_volume                     4168.46
_exptl_crystal_colour            colorless
_cell_formula_units_Z            8
loop_
_atom_site_label
_atom_site_type_symbol
_atom_site_fract_x
_atom_site_fract_y
_atom_site_fract_z
O1 O 0.15117(12) 0.6224(2) 0.29316(7)
O2 O 0.03903(11) 0.5174(2) 0.24313(7)
N1 N 0.34074(13) 0.4350(3) 0.22720(8)
H1 H 0.3984 0.4542 0.2349
O3 O 0.10098(14) 0.2039(2) 0.12801(7)
C1 C 0.28231(16) 0.5041(3) 0.24913(9)
C2 C 0.15366(16) 0.4187(3) 0.18707(9)
H2 H 0.0993 0.3658 0.1901
C3 C 0.22350(18) 0.3213(3) 0.17450(9)
C4 C 0.31349(17) 0.3368(3) 0.19358(9)
C5 C 0.12056(17) 0.5436(3) 0.25599(9)
C6 C 0.33177(17) 0.5881(4) 0.28973(10)
H3 H 0.3161 0.5556 0.3179
H4 H 0.3138 0.6821 0.2849
H5 H 0.3970 0.5803 0.2923
C7 C 0.19055(16) 0.4896(3) 0.23306(8)
O4 O 0.24093(16) 0.1452(3) 0.12023(9)
C8 C 0.13462(18) 0.7452(3) 0.36030(10)
C9 C 0.1240(2) 0.5248(3) 0.14840(10)
H6 H 0.1764 0.5778 0.1449
H7 H 0.0784 0.5841 0.1565
H8 H 0.0985 0.4791 0.1196
C10 C 0.1928(2) 0.2152(3) 0.13904(10)
C11 C 0.39212(19) 0.2574(3) 0.18245(11)
H9 H 0.4166 0.3054 0.1593
H10 H 0.3709 0.1689 0.1707
H11 H 0.4393 0.2470 0.2102
C12 C 0.0837(2) 0.6695(4) 0.31857(11)
H12 H 0.0510 0.5926 0.3281
H13 H 0.0394 0.7292 0.2991
C13 C 0.0607(2) 0.1626(3) 0.04371(11)
C14 C 0.1185(2) 0.8825(4) 0.36539(11)
H14 H 0.0748 0.9275 0.3430
C15 C 0.1665(3) 0.9532(4) 0.40320(13)
H15 H 0.1552 1.0460 0.4062
C16 C 0.0639(2) 0.1062(4) 0.09143(11)
H16 H 0.0022 0.0805 0.0940
H17 H 0.1016 0.0244 0.0957
C17 C 0.1985(2) 0.6806(4) 0.39475(12)
H18 H 0.2096 0.5877 0.3923
C18 C 0.2301(3) 0.8895(5) 0.43628(12)
H19 H 0.2633 0.9386 0.4615
C19 C 0.1132(3) 0.1104(5) 0.01518(13)
H20 H 0.1550 0.0409 0.0261
C20 C 0.2454(3) 0.7520(5) 0.43233(12)
H21 H 0.2879 0.7073 0.4554
C21 C -0.0012(3) 0.2636(5) 0.02656(15)
H22 H -0.0387 0.2988 0.0453
C22 C -0.0087(4) 0.3135(6) -0.0176(2)
H23 H -0.0503 0.3832 -0.0284
C23 C 0.1057(4) 0.1592(7) -0.03008(16)
H24 H 0.1417 0.1226 -0.0494
C24 C 0.0443(4) 0.2617(7) -0.04573(17)
H25 H 0.0390 0.2960 -0.0758
loop_
_geom_bond_atom_site_label_1
_geom_bond_atom_site_label_2
_geom_bond_site_symmetry_1
_geom_bond_site_symmetry_2
O1 C5 1_555 1_555
O2 C5 1_555 1_555
N1 H1 1_555 1_555
O3 C10 1_555 1_555
C1 N1 1_555 1_555
C2 H2 1_555 1_555
C3 C2 1_555 1_555
C4 N1 1_555 1_555
C5 C7 1_555 1_555
C6 C1 1_555 1_555
H3 C6 1_555 1_555
H4 C6 1_555 1_555
H5 C6 1_555 1_555
C7 C1 1_555 1_555
O4 C10 1_555 1_555
C8 C12 1_555 1_555
C9 C2 1_555 1_555
H6 C9 1_555 1_555
H7 C9 1_555 1_555
H8 C9 1_555 1_555
C10 C3 1_555 1_555
C11 C4 1_555 1_555
H9 C11 1_555 1_555
H10 C11 1_555 1_555
H11 C11 1_555 1_555
C12 O1 1_555 1_555
H12 C12 1_555 1_555
H13 C12 1_555 1_555
C13 C16 1_555 1_555
C14 C8 1_555 1_555
H14 C14 1_555 1_555
C15 C14 1_555 1_555
H15 C15 1_555 1_555
C16 O3 1_555 1_555
H16 C16 1_555 1_555
H17 C16 1_555 1_555
C17 C8 1_555 1_555
H18 C17 1_555 1_555
C18 C15 1_555 1_555
H19 C18 1_555 1_555
C19 C13 1_555 1_555
H20 C19 1_555 1_555
C20 C17 1_555 1_555
H21 C20 1_555 1_555
C21 C13 1_555 1_555
H22 C21 1_555 1_555
C22 C21 1_555 1_555
H23 C22 1_555 1_555
C23 C19 1_555 1_555
H24 C23 1_555 1_555
C24 C22 1_555 1_555
H25 C24 1_555 1_555
C2 C7 1_555 1_555
C3 C4 1_555 1_555
C18 C20 1_555 1_555
C23 C24 1_555 1_555

#END
