
#######################################################################
#
#                 Cambridge Crystallographic Data Centre
#                                CCDC 
#
#######################################################################
#
# If this CIF has been generated from an entry in the Cambridge 
# Structural Database, then it will include bibliographic, chemical, 
# crystal, experimental, refinement or atomic coordinate data resulting 
# from the CCDC's data processing and validation procedures.
#
#######################################################################

data_CAGTAG
_chemical_formula_moiety         'C23 H21 Cl3 N4 O3,0.75(H2 O1)'
_chemical_name_systematic        
"N-t-Butyl-N'-(2,4-dichlorobenzoyl)-N-(1-(4-chlorophenyl)-1,4-dihydro-6-methylpyridazine-4-oxo-3-carbonyl)hydrazine hydrate"
_symmetry_cell_setting           monoclinic
_symmetry_space_group_name_H-M   'P 21/c'
_symmetry_Int_Tables_number      14
_space_group_name_Hall           '-P 2ybc'
loop_
_symmetry_equiv_pos_site_id
_symmetry_equiv_pos_as_xyz
1 x,y,z
2 -x,1/2+y,1/2-z
3 -x,-y,-z
4 x,1/2-y,1/2+z
_cell_length_a                   11.4948(9)
_cell_length_b                   12.7495(10)
_cell_length_c                   35.854(3)
_cell_angle_alpha                90
_cell_angle_beta                 92.964(2)
_cell_angle_gamma                90
_cell_volume                     5247.48
_chemical_melting_point          '190-192 deg.C'
_cell_formula_units_Z            8
_exptl_crystal_recrystallization_method methanol
loop_
_atom_site_label
_atom_site_type_symbol
_atom_site_fract_x
_atom_site_fract_y
_atom_site_fract_z
Cl1 Cl 0.6251(3) 0.0890(1) 0.0558(1)
Cl2 Cl 0.8269(2) -0.2344(1) 0.1285(1)
Cl3 Cl 0.8531(2) 0.3489(2) -0.1192(1)
N1 N 0.6967(2) 0.2759(2) 0.1290(1)
N2 N 0.6936(2) 0.3855(2) 0.1330(1)
N3 N 0.5668(2) 0.3331(2) 0.0135(1)
N4 N 0.6212(2) 0.3799(2) 0.0434(1)
O1 O 0.8389(2) 0.2791(2) 0.0874(1)
O2 O 0.6304(3) 0.5351(2) 0.1045(1)
O3 O 0.4193(2) 0.3291(2) 0.1126(1)
C1 C 0.7221(4) 0.0432(3) 0.0904(1)
C2 C 0.7372(5) -0.0644(3) 0.0950(1)
C3 C 0.8143(4) -0.0994(3) 0.1224(2)
C4 C 0.8753(5) -0.0320(4) 0.1447(2)
C5 C 0.8602(4) 0.0740(3) 0.1399(2)
C6 C 0.7840(3) 0.1135(3) 0.1122(1)
C7 C 0.7760(3) 0.2315(3) 0.1078(1)
C8 C 0.6355(3) 0.4395(2) 0.1057(1)
C9 C 0.5724(3) 0.3766(2) 0.0750(1)
C10 C 0.4602(3) 0.3283(3) 0.0810(1)
C11 C 0.4078(4) 0.2839(4) 0.0480(1)
C12 C 0.4622(3) 0.2856(4) 0.0148(1)
C13 C 0.6360(3) 0.3351(3) -0.0195(1)
C14 C 0.5953(4) 0.3865(3) -0.0512(1)
C15 C 0.6627(4) 0.3924(4) -0.0817(1)
C16 C 0.7686(4) 0.3451(4) -0.0803(1)
C17 C 0.8104(4) 0.2937(4) -0.0485(1)
C18 C 0.7436(4) 0.2892(3) -0.0175(1)
C19 C 0.7693(3) 0.4366(3) 0.1637(1)
C20 C 0.8680(4) 0.4959(3) 0.1458(1)
C21 C 0.6960(4) 0.5133(5) 0.1854(2)
C22 C 0.8242(5) 0.3519(4) 0.1887(2)
C23 C 0.4117(5) 0.2319(6) -0.0201(2)
Cl4 Cl 0.2990(2) -0.0453(1) 0.1078(1)
Cl5 Cl 0.0914(1) 0.1026(1) -0.0190(1)
Cl6 Cl 0.0080(1) -0.4057(1) 0.2491(1)
N5 N 0.2888(2) 0.2007(2) 0.1577(1)
N6 N 0.3081(2) 0.2338(2) 0.1946(1)
N7 N 0.3672(2) -0.1097(2) 0.1999(1)
N8 N 0.3383(2) -0.0110(2) 0.2106(1)
O4 O 0.1260(2) 0.1071(3) 0.1686(1)
O5 O 0.4060(2) 0.1940(2) 0.2496(1)
O6 O 0.5761(2) 0.1344(2) 0.1771(1)
C24 C 0.2146(4) 0.0497(4) 0.0851(1)
C25 C 0.1894(5) 0.0403(4) 0.0469(1)
C26 C 0.1219(4) 0.1152(4) 0.0289(1)
C27 C 0.0794(4) 0.1975(5) 0.0474(2)
C28 C 0.1056(4) 0.2060(5) 0.0859(1)
C29 C 0.1741(3) 0.1339(3) 0.1053(1)
C30 C 0.1928(3) 0.1453(3) 0.1470(1)
C31 C 0.3732(3) 0.1711(3) 0.2176(1)
C32 C 0.4061(3) 0.0657(3) 0.2025(1)
C33 C 0.5149(3) 0.0556(3) 0.1831(1)
C34 C 0.5379(3) -0.0499(3) 0.1732(1)
C35 C 0.4644(3) -0.1295(3) 0.1806(1)
C36 C 0.2820(3) -0.1865(3) 0.2102(1)
C37 C 0.3138(3) -0.2709(3) 0.2323(1)
C38 C 0.2300(3) -0.3393(3) 0.2438(1)
C39 C 0.1152(3) -0.3225(3) 0.2329(1)
C40 C 0.0817(3) -0.2388(3) 0.2108(1)
C41 C 0.1662(3) -0.1684(3) 0.1995(1)
C42 C 0.2727(3) 0.3438(3) 0.2055(1)
C43 C 0.2085(5) 0.3378(4) 0.2415(2)
C44 C 0.1935(5) 0.3889(4) 0.1747(2)
C45 C 0.3834(4) 0.4099(3) 0.2102(2)
C46 C 0.4834(4) -0.2397(3) 0.1667(1)
O7 O 0.0000 0.5000 0.0000
O8 O -0.1112(11) 0.5336(9) 0.0374(3)
loop_
_geom_bond_atom_site_label_1
_geom_bond_atom_site_label_2
_geom_bond_site_symmetry_1
_geom_bond_site_symmetry_2
Cl1 C1 1_555 1_555
Cl2 C3 1_555 1_555
Cl3 C16 1_555 1_555
N1 N2 1_555 1_555
N2 C8 1_555 1_555
N3 N4 1_555 1_555
N4 C9 1_555 1_555
O1 C7 1_555 1_555
O2 C8 1_555 1_555
O3 C10 1_555 1_555
C1 C2 1_555 1_555
C2 C3 1_555 1_555
C3 C4 1_555 1_555
C4 C5 1_555 1_555
C5 C6 1_555 1_555
C6 C1 1_555 1_555
C7 N1 1_555 1_555
C8 C9 1_555 1_555
C9 C10 1_555 1_555
C10 C11 1_555 1_555
C11 C12 1_555 1_555
C12 N3 1_555 1_555
C13 N3 1_555 1_555
C14 C13 1_555 1_555
C15 C14 1_555 1_555
C16 C15 1_555 1_555
C17 C16 1_555 1_555
C18 C13 1_555 1_555
C19 N2 1_555 1_555
C20 C19 1_555 1_555
C21 C19 1_555 1_555
C22 C19 1_555 1_555
C23 C12 1_555 1_555
Cl4 C24 1_555 1_555
Cl5 C26 1_555 1_555
Cl6 C39 1_555 1_555
N5 N6 1_555 1_555
N6 C31 1_555 1_555
N7 N8 1_555 1_555
N8 C32 1_555 1_555
O4 C30 1_555 1_555
O5 C31 1_555 1_555
O6 C33 1_555 1_555
C24 C25 1_555 1_555
C25 C26 1_555 1_555
C26 C27 1_555 1_555
C27 C28 1_555 1_555
C28 C29 1_555 1_555
C29 C24 1_555 1_555
C30 N5 1_555 1_555
C31 C32 1_555 1_555
C32 C33 1_555 1_555
C33 C34 1_555 1_555
C34 C35 1_555 1_555
C35 N7 1_555 1_555
C36 N7 1_555 1_555
C37 C36 1_555 1_555
C38 C37 1_555 1_555
C39 C38 1_555 1_555
C40 C39 1_555 1_555
C41 C36 1_555 1_555
C42 N6 1_555 1_555
C43 C42 1_555 1_555
C44 C42 1_555 1_555
C45 C42 1_555 1_555
C46 C35 1_555 1_555
C6 C7 1_555 1_555
C17 C18 1_555 1_555
C29 C30 1_555 1_555
C40 C41 1_555 1_555

#END
