
#######################################################################
#
#                 Cambridge Crystallographic Data Centre
#                                CCDC 
#
#######################################################################
#
# If this CIF has been generated from an entry in the Cambridge 
# Structural Database, then it will include bibliographic, chemical, 
# crystal, experimental, refinement or atomic coordinate data resulting 
# from the CCDC's data processing and validation procedures.
#
#######################################################################

data_CAGYAN
_chemical_formula_moiety         'C20 H17 Br1 Cl1 N1 O4'
_chemical_name_systematic        
'ethyl 2-(4-bromophenyl)-1-carbamoyl-3-(4-chlorobenzoyl)cyclopropanecarboxylate'
_symmetry_cell_setting           orthorhombic
_symmetry_space_group_name_H-M   'P b c a'
_symmetry_Int_Tables_number      61
_space_group_name_Hall           '-P 2ac 2ab'
loop_
_symmetry_equiv_pos_site_id
_symmetry_equiv_pos_as_xyz
1 x,y,z
2 1/2-x,-y,1/2+z
3 1/2+x,1/2-y,-z
4 -x,1/2+y,1/2-z
5 -x,-y,-z
6 1/2+x,y,1/2-z
7 1/2-x,1/2+y,z
8 x,1/2-y,1/2+z
_cell_length_a                   17.340(5)
_cell_length_b                   24.663(6)
_cell_length_c                   9.304(3)
_cell_angle_alpha                90
_cell_angle_beta                 90
_cell_angle_gamma                90
_cell_volume                     3978.92
_exptl_crystal_colour            white
_exptl_crystal_description       block
_cell_formula_units_Z            8
loop_
_atom_site_label
_atom_site_type_symbol
_atom_site_fract_x
_atom_site_fract_y
_atom_site_fract_z
Br1 Br 0.26944(5) -0.25970(3) 0.31294(8)
Cl1 Cl -0.01765(17) 0.24642(8) -0.0489(4)
O1 O -0.0376(2) 0.01440(18) 0.3161(5)
O2 O 0.2174(2) 0.10118(14) 0.2914(4)
O3 O 0.12025(18) 0.07405(12) 0.4331(3)
O4 O 0.2168(2) -0.00845(16) 0.0254(3)
N1 N 0.2965(2) -0.00577(18) 0.2180(4)
H1 H 0.3028 -0.0001 0.3076
H2 H 0.3381 -0.0200 0.1691
C1 C -0.0084(5) 0.1837(3) 0.0339(8)
C2 C -0.0625(5) 0.1667(3) 0.1304(8)
H3 H -0.1039 0.1890 0.1538
C3 C -0.0558(3) 0.1167(2) 0.1924(7)
H4 H -0.0927 0.1052 0.2583
C4 C 0.0055(3) 0.0828(2) 0.1582(5)
C5 C 0.0591(3) 0.1008(2) 0.0601(6)
H5 H 0.1005 0.0785 0.0365
C6 C 0.0531(4) 0.1513(3) -0.0046(8)
H6 H 0.0893 0.1629 -0.0716
C7 C 0.0127(3) 0.0301(2) 0.2345(5)
C8 C 0.0827(2) -0.00445(19) 0.2074(5)
H7 H 0.0815 -0.0247 0.1168
C9 C 0.1198(3) -0.03371(18) 0.3295(5)
H8 H 0.0985 -0.0245 0.4239
C10 C 0.1629(2) 0.01407(17) 0.2544(4)
C11 C 0.1528(2) -0.08912(17) 0.3208(5)
C12 C 0.1873(3) -0.1105(2) 0.4439(5)
H9 H 0.1867 -0.0903 0.5284
C13 C 0.2222(3) -0.1609(2) 0.4433(6)
H10 H 0.2453 -0.1747 0.5258
C14 C 0.2219(3) -0.1903(2) 0.3170(6)
C15 C 0.1883(4) -0.1707(2) 0.1944(6)
H11 H 0.1886 -0.1912 0.1105
C16 C 0.1535(3) -0.1194(2) 0.1965(5)
H12 H 0.1308 -0.1058 0.1135
C17 C 0.1715(3) 0.06750(18) 0.3289(5)
C18 C 0.1176(4) 0.1273(2) 0.5019(7)
H13 H 0.1100 0.1553 0.4299
H14 H 0.1659 0.1344 0.5509
C19 C 0.0533(6) 0.1281(3) 0.6061(9)
H15 H 0.0597 0.0991 0.6738
H16 H 0.0053 0.1237 0.5560
H17 H 0.0531 0.1622 0.6563
C20 C 0.2279(2) -0.00080(19) 0.1540(5)
loop_
_geom_bond_atom_site_label_1
_geom_bond_atom_site_label_2
_geom_bond_site_symmetry_1
_geom_bond_site_symmetry_2
Br1 C14 1_555 1_555
Cl1 C1 1_555 1_555
O1 C7 1_555 1_555
O2 C17 1_555 1_555
O3 C17 1_555 1_555
O4 C20 1_555 1_555
N1 H1 1_555 1_555
H2 N1 1_555 1_555
C1 C2 1_555 1_555
C2 H3 1_555 1_555
C3 C2 1_555 1_555
H4 C3 1_555 1_555
C4 C3 1_555 1_555
C5 C4 1_555 1_555
H5 C5 1_555 1_555
C6 C1 1_555 1_555
H6 C6 1_555 1_555
C7 C4 1_555 1_555
C8 C7 1_555 1_555
H7 C8 1_555 1_555
C9 C8 1_555 1_555
H8 C9 1_555 1_555
C10 C8 1_555 1_555
C11 C9 1_555 1_555
C12 C11 1_555 1_555
H9 C12 1_555 1_555
C13 C12 1_555 1_555
H10 C13 1_555 1_555
C14 C13 1_555 1_555
C15 C14 1_555 1_555
H11 C15 1_555 1_555
C16 C11 1_555 1_555
H12 C16 1_555 1_555
C17 C10 1_555 1_555
C18 O3 1_555 1_555
H13 C18 1_555 1_555
H14 C18 1_555 1_555
C19 C18 1_555 1_555
H15 C19 1_555 1_555
H16 C19 1_555 1_555
H17 C19 1_555 1_555
C20 N1 1_555 1_555
C5 C6 1_555 1_555
C9 C10 1_555 1_555
C10 C20 1_555 1_555
C15 C16 1_555 1_555

#END
