
#######################################################################
#
#                 Cambridge Crystallographic Data Centre
#                                CCDC 
#
#######################################################################
#
# If this CIF has been generated from an entry in the Cambridge 
# Structural Database, then it will include bibliographic, chemical, 
# crystal, experimental, refinement or atomic coordinate data resulting 
# from the CCDC's data processing and validation procedures.
#
#######################################################################

data_CAGYIT
_chemical_formula_moiety         'C14 H10 N4 S2'
_chemical_name_systematic        
4-Phenyl-2-phenylazo-1-thio-3,4-diazole-5-thione
_symmetry_cell_setting           monoclinic
_symmetry_space_group_name_H-M   'C 2/c'
_symmetry_Int_Tables_number      15
_space_group_name_Hall           '-C 2yn'
loop_
_symmetry_equiv_pos_site_id
_symmetry_equiv_pos_as_xyz
1 x,y,z
2 -x,y,1/2-z
3 1/2+x,1/2+y,z
4 1/2-x,1/2+y,1/2-z
5 -x,-y,-z
6 x,-y,1/2+z
7 1/2-x,1/2-y,-z
8 1/2+x,1/2-y,1/2+z
_cell_length_a                   25.169(5)
_cell_length_b                   3.9690(8)
_cell_length_c                   30.130(6)
_cell_angle_alpha                90
_cell_angle_beta                 113.79(3)
_cell_angle_gamma                90
_cell_volume                     2754.11
_chemical_melting_point          '178-180 deg.C'
_cell_formula_units_Z            8
loop_
_atom_site_label
_atom_site_type_symbol
_atom_site_fract_x
_atom_site_fract_y
_atom_site_fract_z
S1 S 0.4607(1) 0.8935(2) 0.1352(1)
S2 S 0.4961(1) 0.5658(2) 0.0620(1)
N1 N 0.3935(1) 0.8668(5) 0.0466(1)
N2 N 0.3607(1) 1.0220(6) 0.0673(1)
N3 N 0.3657(1) 1.2034(6) 0.1419(1)
N4 N 0.4012(1) 1.2168(6) 0.1857(1)
C1 C 0.3925(1) 0.8967(7) -0.0344(1)
C2 C 0.3651(1) 0.8292(9) -0.0832(1)
C3 C 0.3122(1) 0.6733(9) -0.1016(1)
C4 C 0.2853(1) 0.5816(9) -0.0717(1)
C5 C 0.3126(1) 0.6431(7) -0.0224(1)
C6 C 0.3658(1) 0.8012(7) -0.0048(1)
C7 C 0.3230(1) 1.4966(7) 0.2025(1)
C8 C 0.3056(1) 1.6296(8) 0.2363(1)
C9 C 0.3425(1) 1.6296(8) 0.2847(1)
C10 C 0.3972(1) 1.4974(9) 0.2997(1)
C11 C 0.4158(1) 1.3674(8) 0.2658(1)
C12 C 0.3787(1) 1.3637(6) 0.2174(1)
C13 C 0.4488(1) 0.7693(6) 0.0763(1)
C14 C 0.3905(1) 1.0514(7) 0.1134(1)
loop_
_geom_bond_atom_site_label_1
_geom_bond_atom_site_label_2
_geom_bond_site_symmetry_1
_geom_bond_site_symmetry_2
S1 C13 1_555 1_555
S2 C13 1_555 1_555
N1 N2 1_555 1_555
N2 C14 1_555 1_555
N3 N4 1_555 1_555
N4 C12 1_555 1_555
C1 C2 1_555 1_555
C2 C3 1_555 1_555
C3 C4 1_555 1_555
C4 C5 1_555 1_555
C5 C6 1_555 1_555
C6 N1 1_555 1_555
C7 C8 1_555 1_555
C8 C9 1_555 1_555
C9 C10 1_555 1_555
C10 C11 1_555 1_555
C11 C12 1_555 1_555
C12 C7 1_555 1_555
C13 N1 1_555 1_555
C14 S1 1_555 1_555
N3 C14 1_555 1_555
C1 C6 1_555 1_555

#END
