
#######################################################################
#
#                 Cambridge Crystallographic Data Centre
#                                CCDC 
#
#######################################################################
#
# If this CIF has been generated from an entry in the Cambridge 
# Structural Database, then it will include bibliographic, chemical, 
# crystal, experimental, refinement or atomic coordinate data resulting 
# from the CCDC's data processing and validation procedures.
#
#######################################################################

data_CAGYUF
_chemical_formula_moiety         'C9 H25 Cl1 N3 Si1 1+,C24 H20 B1 1-'
_chemical_name_systematic        
"Chloro-dihydrido-(N,N,N',N'',N''-pentamethyldiethylenetriamine)-silicon tetraphenylborate"
_symmetry_cell_setting           triclinic
_symmetry_space_group_name_H-M   'P -1'
_symmetry_Int_Tables_number      2
_space_group_name_Hall           '-P 1'
loop_
_symmetry_equiv_pos_site_id
_symmetry_equiv_pos_as_xyz
1 x,y,z
2 -x,-y,-z
_cell_length_a                   9.6572(6)
_cell_length_b                   12.0511(7)
_cell_length_c                   15.0631(9)
_cell_angle_alpha                75.6950(10)
_cell_angle_beta                 84.6380(10)
_cell_angle_gamma                67.6890(10)
_cell_volume                     1571.52
_exptl_crystal_colour            white
_chemical_melting_point          '195-197 deg.C'
_cell_formula_units_Z            2
loop_
_atom_site_label
_atom_site_type_symbol
_atom_site_fract_x
_atom_site_fract_y
_atom_site_fract_z
Si1 Si 0.7221(2) 0.0426(1) 0.3504(1)
Cl1 Cl 0.6820(1) 0.1379(1) 0.4631(1)
N1 N 0.6447(2) 0.2005(2) 0.2508(1)
N2 N 0.7620(2) -0.0459(1) 0.2479(1)
N3 N 0.8185(2) -0.1285(2) 0.4334(1)
C1 C 0.4849(3) 0.2752(2) 0.2673(2)
C2 C 0.7367(3) 0.2772(2) 0.2472(2)
C3 C 0.6591(3) 0.1649(2) 0.1612(2)
C4 C 0.7894(3) 0.0426(2) 0.1666(1)
C5 C 0.6401(3) -0.0841(2) 0.2293(2)
C6 C 0.8997(2) -0.1578(2) 0.2778(2)
C7 C 0.8700(3) -0.2198(2) 0.3735(2)
C8 C 0.7100(3) -0.1585(2) 0.5033(2)
C9 C 0.9514(3) -0.1366(2) 0.4814(2)
H1 H 0.5851(18) 0.0388(15) 0.3605(11)
H2 H 0.8626(19) 0.0443(16) 0.3349(11)
H3 H 0.4767(3) 0.2977(2) 0.3250(2)
H4 H 0.4243(3) 0.2275(2) 0.2685(2)
H5 H 0.4510(3) 0.3484(2) 0.2191(2)
H6 H 0.7284(3) 0.3008(2) 0.3045(2)
H7 H 0.7012(3) 0.3498(2) 0.1986(2)
H8 H 0.8396(3) 0.2303(2) 0.2364(2)
H9 H 0.6764(3) 0.2279(2) 0.1125(2)
H10 H 0.5673(3) 0.1572(2) 0.1477(2)
H11 H 0.7943(3) 0.0135(2) 0.1114(1)
H12 H 0.8831(3) 0.0518(2) 0.1733(1)
H13 H 0.6243(3) -0.1411(2) 0.2825(2)
H14 H 0.6678(3) -0.1231(2) 0.1785(2)
H15 H 0.5496(3) -0.0129(2) 0.2149(2)
H16 H 0.9855(2) -0.1344(2) 0.2774(2)
H17 H 0.9199(2) -0.2130(2) 0.2369(2)
H18 H 0.7938(3) -0.2534(2) 0.3719(2)
H19 H 0.9606(3) -0.2873(2) 0.3987(2)
H20 H 0.6240(3) -0.1535(2) 0.4730(2)
H21 H 0.6795(3) -0.1009(2) 0.5420(2)
H22 H 0.7569(3) -0.2405(2) 0.5398(2)
H23 H 1.0218(3) -0.1175(2) 0.4370(2)
H24 H 0.9976(3) -0.2187(2) 0.5180(2)
H25 H 0.9202(3) -0.0791(2) 0.5202(2)
B1 B 0.6347(2) 0.2737(2) 0.7987(1)
C10 C 0.6928(2) 0.3453(2) 0.7027(1)
C11 C 0.7707(2) 0.4226(2) 0.7017(1)
C12 C 0.8083(2) 0.4911(2) 0.6213(2)
C13 C 0.7702(3) 0.4844(2) 0.5373(1)
C14 C 0.6963(2) 0.4075(2) 0.5345(1)
C15 C 0.6594(2) 0.3400(2) 0.6152(1)
C16 C 0.6836(2) 0.1242(2) 0.8077(1)
C17 C 0.7537(2) 0.0600(2) 0.7406(1)
C18 C 0.7947(3) -0.0670(2) 0.7541(2)
C19 C 0.7667(3) -0.1353(2) 0.8368(2)
C20 C 0.6992(2) -0.0759(2) 0.9049(2)
C21 C 0.6586(2) 0.0496(2) 0.8907(1)
C22 C 0.7112(2) 0.2920(2) 0.8844(1)
C23 C 0.8496(2) 0.2085(2) 0.9225(1)
C24 C 0.9251(2) 0.2339(2) 0.9841(1)
C25 C 0.8650(3) 0.3431(3) 1.0114(1)
C26 C 0.7275(3) 0.4264(2) 0.9781(1)
C27 C 0.6529(2) 0.4004(2) 0.9167(1)
C28 C 0.4494(2) 0.3364(2) 0.8050(1)
C29 C 0.3744(2) 0.3209(2) 0.8892(1)
C30 C 0.2209(2) 0.3658(2) 0.8974(1)
C31 C 0.1316(2) 0.4301(2) 0.8212(2)
C32 C 0.1995(2) 0.4502(2) 0.7376(2)
C33 C 0.3547(2) 0.4039(2) 0.7302(1)
H26 H 0.7986(2) 0.4284(2) 0.7573(1)
H27 H 0.8594(2) 0.5418(2) 0.6241(2)
H28 H 0.7940(3) 0.5310(2) 0.4834(1)
H29 H 0.6711(2) 0.4010(2) 0.4784(1)
H30 H 0.6100(2) 0.2884(2) 0.6115(1)
H31 H 0.7740(2) 0.1039(2) 0.6842(1)
H32 H 0.8411(3) -0.1058(2) 0.7071(2)
H33 H 0.7932(3) -0.2200(2) 0.8461(2)
H34 H 0.6806(2) -0.1208(2) 0.9613(2)
H35 H 0.6124(2) 0.0870(2) 0.9383(1)
H36 H 0.8924(2) 0.1333(2) 0.9058(1)
H37 H 1.0174(2) 0.1763(2) 1.0072(1)
H38 H 0.9166(3) 0.3605(3) 1.0520(1)
H39 H 0.6846(3) 0.5002(2) 0.9968(1)
H40 H 0.5593(2) 0.4577(2) 0.8957(1)
H41 H 0.4314(2) 0.2780(2) 0.9419(1)
H42 H 0.1771(2) 0.3528(2) 0.9547(1)
H43 H 0.0278(2) 0.4591(2) 0.8262(2)
H44 H 0.1412(2) 0.4952(2) 0.6855(2)
H45 H 0.3973(2) 0.4187(2) 0.6727(1)
loop_
_geom_bond_atom_site_label_1
_geom_bond_atom_site_label_2
_geom_bond_site_symmetry_1
_geom_bond_site_symmetry_2
Si1 Cl1 1_555 1_555
N1 Si1 1_555 1_555
N2 Si1 1_555 1_555
N3 Si1 1_555 1_555
C1 N1 1_555 1_555
C2 N1 1_555 1_555
C3 N1 1_555 1_555
C4 N2 1_555 1_555
C5 N2 1_555 1_555
C6 N2 1_555 1_555
C7 N3 1_555 1_555
C8 N3 1_555 1_555
C9 N3 1_555 1_555
H1 Si1 1_555 1_555
H2 Si1 1_555 1_555
H3 C1 1_555 1_555
H4 C1 1_555 1_555
H5 C1 1_555 1_555
H6 C2 1_555 1_555
H7 C2 1_555 1_555
H8 C2 1_555 1_555
H9 C3 1_555 1_555
H10 C3 1_555 1_555
H11 C4 1_555 1_555
H12 C4 1_555 1_555
H13 C5 1_555 1_555
H14 C5 1_555 1_555
H15 C5 1_555 1_555
H16 C6 1_555 1_555
H17 C6 1_555 1_555
H18 C7 1_555 1_555
H19 C7 1_555 1_555
H20 C8 1_555 1_555
H21 C8 1_555 1_555
H22 C8 1_555 1_555
H23 C9 1_555 1_555
H24 C9 1_555 1_555
H25 C9 1_555 1_555
B1 C10 1_555 1_555
C10 C11 1_555 1_555
C11 C12 1_555 1_555
C12 C13 1_555 1_555
C13 C14 1_555 1_555
C14 C15 1_555 1_555
C15 C10 1_555 1_555
C16 B1 1_555 1_555
C17 C16 1_555 1_555
C18 C17 1_555 1_555
C19 C18 1_555 1_555
C20 C19 1_555 1_555
C21 C16 1_555 1_555
C22 B1 1_555 1_555
C23 C22 1_555 1_555
C24 C23 1_555 1_555
C25 C24 1_555 1_555
C26 C25 1_555 1_555
C27 C22 1_555 1_555
C28 B1 1_555 1_555
C29 C28 1_555 1_555
C30 C29 1_555 1_555
C31 C30 1_555 1_555
C32 C31 1_555 1_555
C33 C28 1_555 1_555
H26 C11 1_555 1_555
H27 C12 1_555 1_555
H28 C13 1_555 1_555
H29 C14 1_555 1_555
H30 C15 1_555 1_555
H31 C17 1_555 1_555
H32 C18 1_555 1_555
H33 C19 1_555 1_555
H34 C20 1_555 1_555
H35 C21 1_555 1_555
H36 C23 1_555 1_555
H37 C24 1_555 1_555
H38 C25 1_555 1_555
H39 C26 1_555 1_555
H40 C27 1_555 1_555
H41 C29 1_555 1_555
H42 C30 1_555 1_555
H43 C31 1_555 1_555
H44 C32 1_555 1_555
H45 C33 1_555 1_555
C3 C4 1_555 1_555
C6 C7 1_555 1_555
C20 C21 1_555 1_555
C26 C27 1_555 1_555
C32 C33 1_555 1_555

#END
