
#######################################################################
#
#                 Cambridge Crystallographic Data Centre
#                                CCDC 
#
#######################################################################
#
# If this CIF has been generated from an entry in the Cambridge 
# Structural Database, then it will include bibliographic, chemical, 
# crystal, experimental, refinement or atomic coordinate data resulting 
# from the CCDC's data processing and validation procedures.
#
#######################################################################

data_CAHBUL
_chemical_formula_moiety         'C13 H15 N1 O4'
_chemical_name_systematic        
'(S)-2-(3-methyl-2,3-dihydro-4H-1,4-benzoxazin-4-yl)-2-oxoethyl acetate'
_symmetry_cell_setting           triclinic
_symmetry_space_group_name_H-M   'P -1'
_symmetry_Int_Tables_number      2
_space_group_name_Hall           '-P 1'
loop_
_symmetry_equiv_pos_site_id
_symmetry_equiv_pos_as_xyz
1 x,y,z
2 -x,-y,-z
_cell_length_a                   8.2647(17)
_cell_length_b                   8.7034(17)
_cell_length_c                   9.5479(19)
_cell_angle_alpha                105.33(3)
_cell_angle_beta                 100.95(3)
_cell_angle_gamma                105.14(3)
_cell_volume                     614.121
_exptl_crystal_colour            colorless
_exptl_crystal_description       block
_cell_formula_units_Z            2
loop_
_atom_site_label
_atom_site_type_symbol
_atom_site_fract_x
_atom_site_fract_y
_atom_site_fract_z
C1 C 0.69311(18) 0.11147(17) 0.36017(14)
C2 C 0.8515(2) 0.08680(18) 0.35537(16)
H1 H 0.9525 0.1796 0.3859
C3 C 0.8609(2) -0.0735(2) 0.30592(17)
H2 H 0.9684 -0.0886 0.3069
C4 C 0.7102(3) -0.2122(2) 0.25468(19)
H3 H 0.7165 -0.3205 0.2222
C5 C 0.5514(2) -0.1895(2) 0.25185(18)
H4 H 0.4500 -0.2825 0.2147
C6 C 0.5413(2) -0.02866(19) 0.30400(16)
C7 C 0.3648(2) 0.1499(2) 0.33772(18)
H5 H 0.3679 0.1822 0.4438
H6 H 0.2535 0.1481 0.2806
C8 C 0.50986(19) 0.2805(2) 0.31558(17)
H7 H 0.5004 0.3919 0.3601
C9 C 0.5054(2) 0.2551(2) 0.15096(19)
H8 H 0.6054 0.3370 0.1456
H9 H 0.4009 0.2685 0.0996
H10 H 0.5071 0.1437 0.1037
C10 C 0.77973(19) 0.41116(17) 0.52343(16)
C11 C 0.9158(2) 0.38572(19) 0.63967(17)
H11 H 0.8582 0.3087 0.6859
H12 H 0.9915 0.3368 0.5902
C12 C 0.9472(2) 0.6012(2) 0.86407(17)
C13 C 1.0588(3) 0.7728(2) 0.96639(19)
H13 H 0.9953 0.8197 1.0308
H14 H 1.0912 0.8435 0.9074
H15 H 1.1619 0.7664 1.0272
N1 N 0.67464(16) 0.27428(14) 0.40332(13)
O1 O 0.37749(14) -0.01652(14) 0.29072(14)
O2 O 0.76299(16) 0.54977(13) 0.54308(14)
O3 O 1.01706(14) 0.54444(13) 0.75330(11)
O4 O 0.81391(19) 0.52022(18) 0.87785(17)
loop_
_geom_bond_atom_site_label_1
_geom_bond_atom_site_label_2
_geom_bond_site_symmetry_1
_geom_bond_site_symmetry_2
C1 C2 1_555 1_555
C2 H1 1_555 1_555
C3 C2 1_555 1_555
H2 C3 1_555 1_555
C4 C3 1_555 1_555
H3 C4 1_555 1_555
C5 C4 1_555 1_555
H4 C5 1_555 1_555
C6 C1 1_555 1_555
C7 H5 1_555 1_555
H6 C7 1_555 1_555
C8 C7 1_555 1_555
H7 C8 1_555 1_555
C9 C8 1_555 1_555
H8 C9 1_555 1_555
H9 C9 1_555 1_555
H10 C9 1_555 1_555
C10 C11 1_555 1_555
C11 H11 1_555 1_555
H12 C11 1_555 1_555
C12 C13 1_555 1_555
C13 H13 1_555 1_555
H14 C13 1_555 1_555
H15 C13 1_555 1_555
N1 C1 1_555 1_555
O1 C6 1_555 1_555
O2 C10 1_555 1_555
O3 C11 1_555 1_555
O4 C12 1_555 1_555
C5 C6 1_555 1_555
C7 O1 1_555 1_555
C8 N1 1_555 1_555
C10 N1 1_555 1_555
C12 O3 1_555 1_555

#END
