
#######################################################################
#
#                 Cambridge Crystallographic Data Centre
#                                CCDC 
#
#######################################################################
#
# If this CIF has been generated from an entry in the Cambridge 
# Structural Database, then it will include bibliographic, chemical, 
# crystal, experimental, refinement or atomic coordinate data resulting 
# from the CCDC's data processing and validation procedures.
#
#######################################################################

data_CAHKAX01
_chemical_formula_moiety         '2(C16 H36 N1 1+),S6 2-'
_chemical_name_systematic        'bis(Tetra-n-butylammonium) hexasulfide'
_symmetry_cell_setting           orthorhombic
_symmetry_space_group_name_H-M   'P b n b'
_symmetry_Int_Tables_number      56
_space_group_name_Hall           '-P 2bc 2ab'
loop_
_symmetry_equiv_pos_site_id
_symmetry_equiv_pos_as_xyz
1 x,y,z
2 -x,1/2-y,1/2+z
3 1/2+x,1/2-y,-z
4 1/2-x,y,1/2-z
5 -x,-y,-z
6 x,1/2+y,1/2-z
7 1/2-x,1/2+y,z
8 1/2+x,-y,1/2+z
_cell_length_a                   15.039(5)
_cell_length_b                   16.086(5)
_cell_length_c                   17.078(6)
_cell_angle_alpha                90
_cell_angle_beta                 90
_cell_angle_gamma                90
_cell_volume                     4131.46
_exptl_crystal_colour            red
_exptl_crystal_description       plate
_cell_formula_units_Z            4
loop_
_atom_site_label
_atom_site_type_symbol
_atom_site_fract_x
_atom_site_fract_y
_atom_site_fract_z
S1 S 0.1812(1) 0.0974(1) 0.2526(1)
S2 S 0.1392(1) 0.1870(1) 0.3277(1)
S3 S 0.1551(1) 0.1491(1) 0.4396(1)
S1C S 0.3188(1) 0.0974(1) 0.2474(1)
S2C S 0.3608(1) 0.1870(1) 0.1723(1)
S3C S 0.3449(1) 0.1491(1) 0.0604(1)
N1 N 0.0936(1) 0.8253(2) 0.4241(2)
C1 C 0.0887(3) 0.8067(2) 0.5101(2)
C2 C 0.1298(3) 0.7271(3) 0.5371(3)
C3 C 0.1203(4) 0.7144(4) 0.6231(3)
C4 C 0.1559(5) 0.6400(6) 0.6507(5)
C5 C 0.1893(2) 0.8384(2) 0.3971(2)
C6 C 0.2393(2) 0.9079(2) 0.4340(3)
C7 C 0.3316(3) 0.9152(3) 0.3993(3)
C8 C 0.3876(3) 0.9823(4) 0.4352(4)
C9 C 0.0574(3) 0.7552(2) 0.3762(2)
C10 C -0.0381(3) 0.7332(3) 0.3906(3)
C11 C -0.0655(3) 0.6616(3) 0.3406(3)
C12 C -0.1598(3) 0.6397(4) 0.3432(4)
C13 C 0.0384(2) 0.9037(2) 0.4131(2)
C14 C 0.0256(3) 0.9320(3) 0.3304(3)
C15 C -0.0340(3) 1.0087(3) 0.3276(3)
C16 C -0.1275(3) 0.9945(3) 0.3526(3)
loop_
_geom_bond_atom_site_label_1
_geom_bond_atom_site_label_2
_geom_bond_site_symmetry_1
_geom_bond_site_symmetry_2
S1 S2 1_555 1_555
S2 S3 1_555 1_555
N1 C1 1_555 1_555
C1 C2 1_555 1_555
C2 C3 1_555 1_555
C3 C4 1_555 1_555
C5 N1 1_555 1_555
C6 C5 1_555 1_555
C7 C6 1_555 1_555
C8 C7 1_555 1_555
C9 N1 1_555 1_555
C10 C9 1_555 1_555
C11 C10 1_555 1_555
C12 C11 1_555 1_555
C13 N1 1_555 1_555
C14 C13 1_555 1_555
C15 C14 1_555 1_555
C16 C15 1_555 1_555
S1C S1 1_555 1_555
S2C S1C 1_555 1_555
S3C S2C 1_555 1_555

#END
