
#######################################################################
#
#                 Cambridge Crystallographic Data Centre
#                                CCDC 
#
#######################################################################
#
# If this CIF has been generated from an entry in the Cambridge 
# Structural Database, then it will include bibliographic, chemical, 
# crystal, experimental, refinement or atomic coordinate data resulting 
# from the CCDC's data processing and validation procedures.
#
#######################################################################

data_CAHKOO
_chemical_formula_moiety         'C16 H16 N2 O2'
_chemical_name_systematic        
1,2,2a,4a,5,12a-hexahydropyrrolizino[1,7-cd]carbazole-3,11(4H,10H)-dione
_symmetry_cell_setting           orthorhombic
_symmetry_space_group_name_H-M   'P 21 21 21'
_symmetry_Int_Tables_number      19
_space_group_name_Hall           'P 2ac 2ab'
loop_
_symmetry_equiv_pos_site_id
_symmetry_equiv_pos_as_xyz
1 x,y,z
2 1/2-x,-y,1/2+z
3 -x,1/2+y,1/2-z
4 1/2+x,1/2-y,-z
_cell_length_a                   8.13784(15)
_cell_length_b                   10.2608(2)
_cell_length_c                   15.6066(3)
_cell_angle_alpha                90
_cell_angle_beta                 90
_cell_angle_gamma                90
_cell_volume                     1303.16
_exptl_crystal_colour            colorless
_exptl_crystal_description       block
_cell_formula_units_Z            4
_exptl_crystal_recrystallization_method chloroform/n-hexane
loop_
_atom_site_label
_atom_site_type_symbol
_atom_site_fract_x
_atom_site_fract_y
_atom_site_fract_z
O1 O -0.38382(15) 0.38068(13) 0.49488(7)
O2 O 0.03745(11) 0.60166(9) 0.69999(6)
N1 N -0.11205(13) 0.41295(10) 0.69466(7)
N2 N -0.64078(14) 0.45674(12) 0.71406(8)
H1 H -0.735(3) 0.493(2) 0.6990(13)
C1 C -0.27307(15) 0.36099(11) 0.71959(8)
H2 H -0.263(2) 0.2913(18) 0.7653(12)
C2 C -0.32992(17) 0.30036(12) 0.63490(8)
H3 H -0.424(3) 0.2356(17) 0.6453(12)
C3 C -0.38819(16) 0.40207(13) 0.57091(8)
C4 C -0.4435(2) 0.53289(14) 0.60328(9)
H4 H -0.5362 0.5615 0.5690
H5 H -0.3551 0.5950 0.5947
C5 C -0.49344(16) 0.53602(12) 0.69711(9)
H6 H -0.5164 0.6264 0.7134
C6 C -0.36394(15) 0.47976(11) 0.75939(8)
C7 C -0.22297(16) 0.57528(11) 0.77912(9)
H7 H -0.2565 0.6643 0.7677
H8 H -0.1899 0.5685 0.8387
C8 C -0.08270(16) 0.53536(12) 0.72005(8)
C9 C -0.03734(16) 0.33940(12) 0.62380(8)
H9 H 0.0645 0.2983 0.6415
H10 H -0.0160 0.3953 0.5749
C10 C -0.16932(18) 0.23727(12) 0.60289(9)
H11 H -0.1478 0.1560 0.6326
H12 H -0.1742 0.2205 0.5418
C11 C -0.63369(16) 0.42524(12) 0.80148(9)
C12 C -0.76008(18) 0.38007(13) 0.85372(11)
H13 H -0.8658 0.3681 0.8325
C13 C -0.7221(2) 0.35347(14) 0.93885(11)
H14 H -0.8049 0.3243 0.9752
C14 C -0.5644(2) 0.36918(14) 0.97114(10)
H15 H -0.5430 0.3518 1.0285
C15 C -0.43829(19) 0.41101(13) 0.91748(9)
H16 H -0.3318 0.4201 0.9382
C16 C -0.47403(16) 0.43882(12) 0.83282(8)
loop_
_geom_bond_atom_site_label_1
_geom_bond_atom_site_label_2
_geom_bond_site_symmetry_1
_geom_bond_site_symmetry_2
O1 C3 1_555 1_555
O2 C8 1_555 1_555
N1 C1 1_555 1_555
N2 H1 1_555 1_555
C1 H2 1_555 1_555
C2 C1 1_555 1_555
H3 C2 1_555 1_555
C3 C2 1_555 1_555
C4 C3 1_555 1_555
H4 C4 1_555 1_555
H5 C4 1_555 1_555
C5 N2 1_555 1_555
H6 C5 1_555 1_555
C6 C1 1_555 1_555
C7 C6 1_555 1_555
H7 C7 1_555 1_555
H8 C7 1_555 1_555
C8 N1 1_555 1_555
C9 N1 1_555 1_555
H9 C9 1_555 1_555
H10 C9 1_555 1_555
C10 C2 1_555 1_555
H11 C10 1_555 1_555
H12 C10 1_555 1_555
C11 N2 1_555 1_555
C12 C11 1_555 1_555
H13 C12 1_555 1_555
C13 C12 1_555 1_555
H14 C13 1_555 1_555
C14 C13 1_555 1_555
H15 C14 1_555 1_555
C15 C14 1_555 1_555
H16 C15 1_555 1_555
C16 C6 1_555 1_555
C4 C5 1_555 1_555
C5 C6 1_555 1_555
C7 C8 1_555 1_555
C9 C10 1_555 1_555
C11 C16 1_555 1_555
C15 C16 1_555 1_555

#END
