
#######################################################################
#
#                 Cambridge Crystallographic Data Centre
#                                CCDC 
#
#######################################################################
#
# If this CIF has been generated from an entry in the Cambridge 
# Structural Database, then it will include bibliographic, chemical, 
# crystal, experimental, refinement or atomic coordinate data resulting 
# from the CCDC's data processing and validation procedures.
#
#######################################################################

data_CAHLUV
_chemical_name_common            4,4'-dicyano-3-methoxybiphenyl
_chemical_formula_moiety         'C15 H10 N2 O1'
_chemical_name_systematic        3-methoxybiphenyl-4,4'-dicarbonitrile
_symmetry_cell_setting           triclinic
_symmetry_space_group_name_H-M   'P -1'
_symmetry_Int_Tables_number      2
_space_group_name_Hall           '-P 1'
loop_
_symmetry_equiv_pos_site_id
_symmetry_equiv_pos_as_xyz
1 x,y,z
2 -x,-y,-z
_cell_length_a                   3.9327(2)
_cell_length_b                   16.9027(8)
_cell_length_c                   18.2717(8)
_cell_angle_alpha                83.519(2)
_cell_angle_beta                 88.119(2)
_cell_angle_gamma                88.493(2)
_cell_volume                     1205.85
_exptl_crystal_colour            colorless
_exptl_crystal_description       needle
_chemical_melting_point          '471 K'
_cell_formula_units_Z            4
loop_
_atom_site_label
_atom_site_type_symbol
_atom_site_fract_x
_atom_site_fract_y
_atom_site_fract_z
N1 N 0.3414(5) 1.01870(9) 0.34507(9)
O1 O 0.0834(3) 0.97485(6) 0.17558(6)
C1 C -0.0508(3) 0.76037(8) 0.22769(7)
C2 C -0.0469(3) 0.83411(8) 0.18479(7)
H1 H -0.1188 0.8383 0.1365
C3 C 0.0629(3) 0.90103(8) 0.21346(7)
C4 C 0.1634(4) 0.89485(8) 0.28677(7)
C5 C 0.1613(4) 0.82096(9) 0.32940(8)
H2 H 0.2313 0.8166 0.3778
C6 C 0.0563(4) 0.75449(9) 0.30023(8)
H3 H 0.0566 0.7054 0.3289
C7 C 0.2641(4) 0.96438(9) 0.31794(8)
C8 C -0.0135(4) 0.98373(9) 0.10048(8)
H4 H 0.1181 0.9472 0.0738
H5 H 0.0270 1.0373 0.0790
H6 H -0.2509 0.9727 0.0981
N2 N -0.6593(4) 0.43963(9) 0.07885(8)
C9 C -0.1686(3) 0.68914(8) 0.19576(7)
C10 C -0.1381(4) 0.68440(8) 0.12009(8)
H7 H -0.0369 0.7256 0.0896
C11 C -0.2561(4) 0.61956(9) 0.08978(8)
H8 H -0.2350 0.6173 0.0392
C12 C -0.4059(4) 0.55787(8) 0.13483(8)
C13 C -0.4330(4) 0.56090(9) 0.21056(8)
H9 H -0.5308 0.5192 0.2409
C14 C -0.3146(4) 0.62587(8) 0.24050(8)
H10 H -0.3324 0.6275 0.2912
C15 C -0.5436(4) 0.49163(9) 0.10328(9)
N3 N 1.4517(6) 0.38682(15) 0.56792(10)
O2 O 1.3272(3) 0.20526(9) 0.50319(6)
C16 C 0.9935(4) 0.28336(9) 0.32210(8)
C17 C 1.1020(4) 0.22894(10) 0.38015(8)
H11 H 1.0989 0.1747 0.3758
C18 C 1.2147(4) 0.25481(11) 0.44453(8)
C19 C 1.2221(4) 0.33617(12) 0.45125(9)
C20 C 1.1123(5) 0.39045(12) 0.39390(10)
H12 H 1.1155 0.4447 0.3983
C21 C 0.9979(4) 0.36444(10) 0.33005(9)
H13 H 0.9231 0.4014 0.2921
C22 C 1.3490(5) 0.36353(14) 0.51686(10)
C23 C 1.2996(6) 0.12249(14) 0.50055(11)
H14 H 1.0680 0.1105 0.4919
H15 H 1.3676 0.0944 0.5466
H16 H 1.4443 0.1063 0.4614
N4 N 0.4635(4) 0.15607(9) 0.00149(8)
C24 C 0.8797(3) 0.25487(8) 0.25287(7)
C25 C 0.7353(4) 0.18036(9) 0.25301(8)
H17 H 0.7103 0.1476 0.2972
C26 C 0.6288(4) 0.15426(9) 0.18873(8)
H18 H 0.5309 0.1046 0.1898
C27 C 0.6688(3) 0.20274(9) 0.12232(8)
C28 C 0.8157(4) 0.27664(9) 0.12115(8)
H19 H 0.8449 0.3089 0.0768
C29 C 0.9183(4) 0.30204(9) 0.18580(8)
H20 H 1.0153 0.3518 0.1846
C30 C 0.5552(4) 0.17688(9) 0.05481(8)
loop_
_geom_bond_atom_site_label_1
_geom_bond_atom_site_label_2
_geom_bond_site_symmetry_1
_geom_bond_site_symmetry_2
N1 C7 1_555 1_555
O1 C3 1_555 1_555
C1 C2 1_555 1_555
C2 H1 1_555 1_555
C3 C2 1_555 1_555
C4 C3 1_555 1_555
C5 C4 1_555 1_555
H2 C5 1_555 1_555
C6 C1 1_555 1_555
H3 C6 1_555 1_555
C7 C4 1_555 1_555
C8 O1 1_555 1_555
H4 C8 1_555 1_555
H5 C8 1_555 1_555
H6 C8 1_555 1_555
N2 C15 1_555 1_555
C9 C1 1_555 1_555
C10 C9 1_555 1_555
H7 C10 1_555 1_555
C11 C10 1_555 1_555
H8 C11 1_555 1_555
C12 C11 1_555 1_555
C13 C12 1_555 1_555
H9 C13 1_555 1_555
C14 C9 1_555 1_555
H10 C14 1_555 1_555
C15 C12 1_555 1_555
N3 C22 1_555 1_555
O2 C18 1_555 1_555
C16 C17 1_555 1_555
C17 H11 1_555 1_555
C18 C17 1_555 1_555
C19 C18 1_555 1_555
C20 C19 1_555 1_555
H12 C20 1_555 1_555
C21 C16 1_555 1_555
H13 C21 1_555 1_555
C22 C19 1_555 1_555
C23 O2 1_555 1_555
H14 C23 1_555 1_555
H15 C23 1_555 1_555
H16 C23 1_555 1_555
N4 C30 1_555 1_555
C24 C16 1_555 1_555
C25 C24 1_555 1_555
H17 C25 1_555 1_555
C26 C25 1_555 1_555
H18 C26 1_555 1_555
C27 C26 1_555 1_555
C28 C27 1_555 1_555
H19 C28 1_555 1_555
C29 C24 1_555 1_555
H20 C29 1_555 1_555
C30 C27 1_555 1_555
C5 C6 1_555 1_555
C13 C14 1_555 1_555
C20 C21 1_555 1_555
C28 C29 1_555 1_555

#END
