
#######################################################################
#
#                 Cambridge Crystallographic Data Centre
#                                CCDC 
#
#######################################################################
#
# If this CIF has been generated from an entry in the Cambridge 
# Structural Database, then it will include bibliographic, chemical, 
# crystal, experimental, refinement or atomic coordinate data resulting 
# from the CCDC's data processing and validation procedures.
#
#######################################################################

data_CAHMAL12
_chemical_formula_moiety         'C8 H16 Ca1 O13'
_chemical_name_systematic        'pentaaqua-bis(hydrogen maleato)-calcium'
_symmetry_cell_setting           orthorhombic
_symmetry_space_group_name_H-M   'P n m a'
_symmetry_Int_Tables_number      62
_space_group_name_Hall           '-P 2ac 2n'
loop_
_symmetry_equiv_pos_site_id
_symmetry_equiv_pos_as_xyz
1 x,y,z
2 1/2+x,1/2-y,1/2-z
3 -x,1/2+y,-z
4 1/2-x,-y,1/2+z
5 -x,-y,-z
6 1/2-x,1/2+y,1/2+z
7 x,1/2-y,z
8 1/2+x,y,1/2-z
_cell_length_a                   11.724(2)
_cell_length_b                   19.637(4)
_cell_length_c                   6.3269(13)
_cell_angle_alpha                90
_cell_angle_beta                 90
_cell_angle_gamma                90
_cell_volume                     1456.61
_exptl_crystal_colour            colorless
_exptl_crystal_description       block
_cell_formula_units_Z            4
loop_
_atom_site_label
_atom_site_type_symbol
_atom_site_fract_x
_atom_site_fract_y
_atom_site_fract_z
Ca1 Ca 0.10638(14) 0.2500 0.8857(3)
C1 C 0.11266(9) 0.05910(5) 0.72412(16)
C2 C 0.09444(10) -0.00852(6) 0.73132(16)
C3 C 0.17775(9) -0.06717(6) 0.72828(16)
O1 O 0.13839(10) -0.12549(6) 0.73577(19)
O2 O 0.28537(9) -0.05505(6) 0.7180(2)
O3 O 0.31983(10) 0.06709(6) 0.7090(2)
O4 O 0.21760(10) 0.16156(6) 0.71774(19)
O5 O 0.28710(13) 0.2500 1.0799(2)
O6 O -0.10250(13) 0.2500 0.9383(3)
O7 O 0.07223(9) 0.16356(7) 1.1382(2)
H1 H 0.0374(2) 0.09202(15) 0.7257(4)
H2 H 0.0057(2) -0.02485(18) 0.7353(5)
H3 H 0.3067(2) 0.01037(14) 0.7111(4)
H4 H -0.00307(18) 0.14879(14) 1.1830(5)
H5 H 0.12578(19) 0.12734(12) 1.1744(4)
C4 C 0.22288(8) 0.09857(5) 0.71724(15)
H6 H 0.3021(2) 0.20949(12) 1.1667(4)
H7 H -0.1488(2) 0.21175(14) 0.8970(5)
O8 O 0.02139(17) 0.2500 0.5493(4)
H8 H -0.0590(3) 0.2500 0.5224(7)
H6F H 0.3021(2) 0.29051(12) 1.1667(4)
H7F H -0.1488(2) 0.28825(14) 0.8970(5)
C1F C 0.11266(9) 0.44090(5) 0.72412(16)
C2F C 0.09444(10) 0.50852(6) 0.73132(16)
C3F C 0.17775(9) 0.56717(6) 0.72828(16)
O1F O 0.13839(10) 0.62549(6) 0.73577(19)
O2F O 0.28537(9) 0.55505(6) 0.7180(2)
O3F O 0.31983(10) 0.43291(6) 0.7090(2)
O4F O 0.21760(10) 0.33844(6) 0.71774(19)
O7F O 0.07223(9) 0.33644(7) 1.1382(2)
H1F H 0.0374(2) 0.40798(15) 0.7257(4)
H2F H 0.0057(2) 0.52485(18) 0.7353(5)
H3F H 0.3067(2) 0.48963(14) 0.7111(4)
H4F H -0.00307(18) 0.35121(14) 1.1830(5)
H5F H 0.12578(19) 0.37266(12) 1.1744(4)
C4F C 0.22288(8) 0.40143(5) 0.71724(15)
H9? H 0.0550(5) 0.2223(3) 0.4202(9)
loop_
_geom_bond_atom_site_label_1
_geom_bond_atom_site_label_2
_geom_bond_site_symmetry_1
_geom_bond_site_symmetry_2
Ca1 O4 1_555 1_555
C1 C2 1_555 1_555
C2 C3 1_555 1_555
C3 O1 1_555 1_555
O2 C3 1_555 1_555
O3 H3 1_555 1_555
O4 C4 1_555 1_555
O5 Ca1 1_555 1_555
O6 Ca1 1_555 1_555
O7 Ca1 1_555 1_555
H1 C1 1_555 1_555
H2 C2 1_555 1_555
H4 O7 1_555 1_555
H5 O7 1_555 1_555
C4 C1 1_555 1_555
H6 O5 1_555 1_555
H7 O6 1_555 1_555
O8 Ca1 1_555 1_555
H8 O8 1_555 1_555
H6F O5 1_555 1_555
H7F O6 1_555 1_555
C1F C2F 1_555 1_555
C2F C3F 1_555 1_555
C3F O1F 1_555 1_555
O2F C3F 1_555 1_555
O3F H3F 1_555 1_555
O4F Ca1 1_555 1_555
O7F Ca1 1_555 1_555
H1F C1F 1_555 1_555
H2F C2F 1_555 1_555
H4F O7F 1_555 1_555
H5F O7F 1_555 1_555
C4F C1F 1_555 1_555
O3 C4 1_555 1_555
O3F C4F 1_555 1_555
O4F C4F 1_555 1_555

#END
