
#######################################################################
#
#                 Cambridge Crystallographic Data Centre
#                                CCDC 
#
#######################################################################
#
# If this CIF has been generated from an entry in the Cambridge 
# Structural Database, then it will include bibliographic, chemical, 
# crystal, experimental, refinement or atomic coordinate data resulting 
# from the CCDC's data processing and validation procedures.
#
#######################################################################

data_CAHPEJ
_chemical_name_common            
N-(4-chlorobenzyl)-4-(6-chloro-1H-indol-3-yl)-3-(4-chlorophenyl)-5-hydroxy-1,5-dihydro-2H-pyrrol-2-on
_chemical_formula_moiety         'C25 H17 Cl3 N2 O2'
_chemical_name_systematic        
1-(4-chlorobenzyl)-4-(6-chloro-1H-indol-3-yl)-3-(4-chlorophenyl)-5-hydroxy-1,5-dihydro-2H-pyrrol-2-one
_symmetry_cell_setting           orthorhombic
_symmetry_space_group_name_H-M   'P 21 21 21'
_symmetry_Int_Tables_number      19
_space_group_name_Hall           'P 2ac 2ab'
loop_
_symmetry_equiv_pos_site_id
_symmetry_equiv_pos_as_xyz
1 x,y,z
2 1/2-x,-y,1/2+z
3 -x,1/2+y,1/2-z
4 1/2+x,1/2-y,-z
_cell_length_a                   9.31000(10)
_cell_length_b                   14.9229(2)
_cell_length_c                   15.3798(2)
_cell_angle_alpha                90
_cell_angle_beta                 90
_cell_angle_gamma                90
_cell_volume                     2136.75
_exptl_crystal_colour            yellow
_exptl_crystal_description       cubic
_cell_formula_units_Z            4
loop_
_atom_site_label
_atom_site_type_symbol
_atom_site_fract_x
_atom_site_fract_y
_atom_site_fract_z
Cl1 Cl 1.33216(8) 0.24596(5) 0.17189(5)
Cl2 Cl 0.23913(8) -0.36672(5) 0.44372(5)
Cl3 Cl 1.14519(9) 0.17922(7) 0.67872(5)
O1 O 0.4803(2) 0.10356(13) 0.51879(11)
N1 N 0.9554(2) -0.01130(14) 0.17338(14)
H1 H 0.9871 -0.0466 0.1318
N2 N 0.4547(2) 0.05625(14) 0.37752(13)
O2 O 0.5084(2) 0.06112(18) 0.22637(13)
H2 H 0.544(5) 0.123(3) 0.227(3)
C1 C 0.9850(3) 0.18029(16) 0.31180(16)
H3 H 0.9321 0.2049 0.3589
C2 C 0.6958(3) 0.05163(16) 0.34002(16)
C3 C 0.9422(3) 0.09954(17) 0.27307(15)
C4 C 1.0238(3) 0.06459(17) 0.20330(15)
C5 C 0.9212(3) 0.05454(19) 0.49377(17)
H4 H 0.9308 0.0021 0.4593
C6 C 0.6862(3) 0.08404(15) 0.42168(15)
C7 C 0.2860(3) -0.06943(18) 0.39970(16)
C8 C 1.1473(3) 0.10664(18) 0.17174(16)
H5 H 1.2028 0.0816 0.126
C9 C 0.8183(3) 0.04192(16) 0.28252(15)
C10 C 0.5321(3) 0.08436(16) 0.44740(16)
C11 C 0.8310(3) -0.02280(17) 0.21862(16)
H6 H 0.7627 -0.0688 0.2078
C12 C 1.0269(3) 0.0755(2) 0.55329(18)
H7 H 1.108 0.0375 0.5603
C13 C 1.1057(3) 0.22340(18) 0.28026(17)
H8 H 1.1359 0.2783 0.3057
C14 C 0.8965(3) 0.20851(19) 0.59303(18)
H9 H 0.8891 0.2617 0.6267
C15 C 0.2552(3) -0.25147(18) 0.42752(16)
C16 C 0.3890(3) -0.11732(18) 0.44563(18)
H10 H 0.4709 -0.0869 0.4676
C17 C 0.5474(3) 0.02630(18) 0.30703(16)
H11 H 0.5418 -0.0405 0.3037
C18 C 1.0134(3) 0.1528(2) 0.60271(17)
C19 C 0.1657(3) -0.11479(19) 0.36820(17)
H12 H 0.094 -0.0829 0.337
C20 C 0.8005(3) 0.10898(17) 0.48327(15)
C21 C 0.1501(3) -0.2056(2) 0.38192(17)
H13 H 0.0682 -0.2363 0.3603
C22 C 0.3745(3) -0.20833(18) 0.45998(18)
H14 H 0.4454 -0.2405 0.4916
C23 C 1.1839(3) 0.18666(18) 0.21096(17)
C24 C 0.3042(3) 0.03019(19) 0.38287(18)
H15 H 0.2555 0.046 0.3277
H16 H 0.2574 0.0643 0.4303
C25 C 0.7900(3) 0.18647(17) 0.53390(16)
H17 H 0.7088 0.2245 0.5277
loop_
_geom_bond_atom_site_label_1
_geom_bond_atom_site_label_2
_geom_bond_site_symmetry_1
_geom_bond_site_symmetry_2
Cl1 C23 1_555 1_555
Cl2 C15 1_555 1_555
Cl3 C18 1_555 1_555
O1 C10 1_555 1_555
N1 H1 1_555 1_555
N2 C10 1_555 1_555
O2 H2 1_555 1_555
C1 H3 1_555 1_555
C2 C6 1_555 1_555
C3 C1 1_555 1_555
C4 N1 1_555 1_555
C5 H4 1_555 1_555
C6 C10 1_555 1_555
C7 C16 1_555 1_555
C8 C4 1_555 1_555
H5 C8 1_555 1_555
C9 C2 1_555 1_555
C11 N1 1_555 1_555
H6 C11 1_555 1_555
C12 C5 1_555 1_555
H7 C12 1_555 1_555
C13 C1 1_555 1_555
H8 C13 1_555 1_555
C14 H9 1_555 1_555
C15 C21 1_555 1_555
C16 H10 1_555 1_555
C17 N2 1_555 1_555
H11 C17 1_555 1_555
C18 C12 1_555 1_555
C19 C7 1_555 1_555
H12 C19 1_555 1_555
C20 C5 1_555 1_555
C21 C19 1_555 1_555
H13 C21 1_555 1_555
C22 C15 1_555 1_555
H14 C22 1_555 1_555
C23 C8 1_555 1_555
C24 N2 1_555 1_555
H15 C24 1_555 1_555
H16 C24 1_555 1_555
C25 C14 1_555 1_555
H17 C25 1_555 1_555
O2 C17 1_555 1_555
C2 C17 1_555 1_555
C3 C4 1_555 1_555
C3 C9 1_555 1_555
C6 C20 1_555 1_555
C7 C24 1_555 1_555
C9 C11 1_555 1_555
C13 C23 1_555 1_555
C14 C18 1_555 1_555
C16 C22 1_555 1_555
C20 C25 1_555 1_555

#END
