
#######################################################################
#
#                 Cambridge Crystallographic Data Centre
#                                CCDC 
#
#######################################################################
#
# If this CIF has been generated from an entry in the Cambridge 
# Structural Database, then it will include bibliographic, chemical, 
# crystal, experimental, refinement or atomic coordinate data resulting 
# from the CCDC's data processing and validation procedures.
#
#######################################################################

data_CAHPIN
_chemical_name_common            
N-methyl-5-(4-chlorobenzyl)-3-(6-chloro-1H-indol-3-yl)-4-(4-chlorophenyl)-5-hydroxy-1,5-dihydro-2H-pyrrol-2-one
_chemical_formula_moiety         'C26 H19 Cl3 N2 O2,C2 H6 O1'
_chemical_name_systematic        
'5-(4-chlorobenzyl)-3-(6-chloro-1H-indol-3-yl)-4-(4-chlorophenyl)-5-hydroxy-1-methyl-1,5-dihydro-2H-pyrrol-2-one ethanol solvate'
_symmetry_cell_setting           triclinic
_symmetry_space_group_name_H-M   'P -1'
_symmetry_Int_Tables_number      2
_space_group_name_Hall           '-P 1'
loop_
_symmetry_equiv_pos_site_id
_symmetry_equiv_pos_as_xyz
1 x,y,z
2 -x,-y,-z
_cell_length_a                   9.8522(5)
_cell_length_b                   12.1948(7)
_cell_length_c                   13.1521(8)
_cell_angle_alpha                68.556(6)
_cell_angle_beta                 81.632(5)
_cell_angle_gamma                66.264(5)
_cell_volume                     1346.36
_exptl_crystal_colour            colorless
_exptl_crystal_description       plate
_cell_formula_units_Z            2
loop_
_atom_site_label
_atom_site_type_symbol
_atom_site_fract_x
_atom_site_fract_y
_atom_site_fract_z
Cl1 Cl -0.22558(10) 0.97886(9) -0.13517(8)
Cl2 Cl -0.15039(13) -0.01188(9) 0.36422(9)
Cl3 Cl 0.45379(14) 0.18787(12) -0.04851(11)
O1 O 0.3977(2) 0.4765(2) 0.33486(17)
O2 O -0.0839(2) 0.6463(2) 0.41137(18)
N1 N -0.3005(3) 0.4665(3) 0.2991(2)
H1 H -0.392(4) 0.490(4) 0.298(3)
C1 C 0.1802(3) 0.4794(2) 0.2583(2)
C2 C -0.0604(3) 0.3362(3) 0.3213(2)
N2 N 0.1532(2) 0.6153(2) 0.35205(18)
C3 C -0.2062(3) 0.3427(3) 0.3170(2)
C4 C 0.1597(3) 0.7173(3) 0.0012(2)
H2 H 0.242 0.6562 -0.0176
C5 C 0.0447(3) 0.5073(2) 0.3040(2)
C6 C 0.0259(3) 0.5961(3) 0.3623(2)
C7 C 0.0551(3) 0.2177(3) 0.3444(2)
H3 H 0.1519 0.2104 0.349
C8 C 0.2887(3) 0.6500(3) 0.1768(2)
H4 H 0.3213 0.7046 0.1969
H5 H 0.3692 0.6045 0.1375
C9 C 0.2593(3) 0.5527(3) 0.2819(2)
C10 C 0.2463(3) 0.4048(3) 0.1847(2)
C11 C -0.0724(3) 0.4629(3) 0.3043(2)
C12 C 0.0263(3) 0.1112(3) 0.3605(2)
H6 H 0.1035 0.0318 0.3769
C13 C -0.2363(3) 0.2363(3) 0.3323(2)
H7 H -0.3327 0.242 0.3291
C14 C 0.1628(3) 0.4109(3) 0.1056(3)
H8 H 0.0618 0.4603 0.1008
C15 C -0.0858(4) 0.8986(3) 0.0559(3)
H9 H -0.1691 0.959 0.0748
C16 C -0.0791(3) 0.8821(3) -0.0433(2)
C17 C 0.1577(3) 0.7324(3) 0.1014(2)
C18 C -0.1183(4) 0.1222(3) 0.3524(2)
C19 C -0.2207(3) 0.5377(3) 0.2928(3)
H10 H -0.2609 0.6244 0.2823
C20 C 0.0416(4) 0.7915(3) -0.0710(3)
H11 H 0.0442 0.78 -0.1375
C21 C 0.0338(4) 0.8236(3) 0.1270(3)
H12 H 0.0303 0.8352 0.1936
C22 C 0.1849(4) 0.6880(4) 0.4044(3)
H13 H 0.2699 0.7066 0.3707
H14 H 0.2049 0.6394 0.4805
H15 H 0.101 0.7661 0.3968
C23 C 0.2258(4) 0.3453(3) 0.0336(3)
H16 H 0.1674 0.3508 -0.019
C24 C 0.3731(4) 0.2726(3) 0.0398(3)
C25 C 0.3958(4) 0.3295(5) 0.1883(4)
H17 H 0.4556 0.3235 0.2402
C26 C 0.4583(4) 0.2631(5) 0.1172(5)
H18 H 0.5587 0.2118 0.1222
H19 H 0.397(12) 0.428(11) 0.385(9)
O3 O -0.3667(3) 0.6941(3) 0.4801(3)
H23 H -0.277(3) 0.687(6) 0.458(5)
C27 C -0.4369(10) 0.8242(7) 0.4516(8)
H24 H -0.3705 0.8564 0.4681
H25 H -0.5233 0.8422 0.498
C28 C -0.4828(9) 0.8926(7) 0.3438(7)
H26 H -0.5301 0.9816 0.3342
H27 H -0.5517 0.8644 0.3264
H28 H -0.3984 0.8789 0.2964
H20? H 0.114 0.7015 0.4613
H21? H 0.179 0.7687 0.3515
H22? H 0.2829 0.642 0.4352
loop_
_geom_bond_atom_site_label_1
_geom_bond_atom_site_label_2
_geom_bond_site_symmetry_1
_geom_bond_site_symmetry_2
Cl1 C16 1_555 1_555
Cl2 C18 1_555 1_555
Cl3 C24 1_555 1_555
O1 C9 1_555 1_555
O2 C6 1_555 1_555
N1 H1 1_555 1_555
C1 C5 1_555 1_555
C2 C3 1_555 1_555
N2 C6 1_555 1_555
C3 N1 1_555 1_555
C4 H2 1_555 1_555
C5 C6 1_555 1_555
C7 C2 1_555 1_555
H3 C7 1_555 1_555
C8 H4 1_555 1_555
H5 C8 1_555 1_555
C9 C1 1_555 1_555
C10 C1 1_555 1_555
C11 C2 1_555 1_555
C12 C7 1_555 1_555
H6 C12 1_555 1_555
C13 C3 1_555 1_555
H7 C13 1_555 1_555
C14 C10 1_555 1_555
H8 C14 1_555 1_555
C15 H9 1_555 1_555
C16 C15 1_555 1_555
C17 C4 1_555 1_555
C18 C12 1_555 1_555
C19 N1 1_555 1_555
H10 C19 1_555 1_555
C20 C4 1_555 1_555
H11 C20 1_555 1_555
C21 C15 1_555 1_555
H12 C21 1_555 1_555
C22 N2 1_555 1_555
H13 C22 1_555 1_555
H14 C22 1_555 1_555
H15 C22 1_555 1_555
C23 C14 1_555 1_555
H16 C23 1_555 1_555
C24 C23 1_555 1_555
C25 C10 1_555 1_555
H17 C25 1_555 1_555
C26 C24 1_555 1_555
H18 C26 1_555 1_555
H19 O1 1_555 1_555
O3 H23 1_555 1_555
C27 O3 1_555 1_555
H24 C27 1_555 1_555
H25 C27 1_555 1_555
C28 C27 1_555 1_555
H26 C28 1_555 1_555
H27 C28 1_555 1_555
H28 C28 1_555 1_555
N2 C9 1_555 1_555
C5 C11 1_555 1_555
C8 C9 1_555 1_555
C8 C17 1_555 1_555
C11 C19 1_555 1_555
C13 C18 1_555 1_555
C16 C20 1_555 1_555
C17 C21 1_555 1_555
C25 C26 1_555 1_555

#END
