
#######################################################################
#
#                 Cambridge Crystallographic Data Centre
#                                CCDC 
#
#######################################################################
#
# If this CIF has been generated from an entry in the Cambridge 
# Structural Database, then it will include bibliographic, chemical, 
# crystal, experimental, refinement or atomic coordinate data resulting 
# from the CCDC's data processing and validation procedures.
#
#######################################################################

data_CAHPAF
_chemical_name_common            
N-Methyl-5-(4-chlorobenzyl)-4-(6-chloro-1-methyl-1H-indol-3-yl)-3-(4-chlorophenyl)-5-hydroxy-1,5-dihydro-2H-pyrrol-2-one
_chemical_formula_moiety         'C27 H21 Cl3 N2 O2'
_chemical_name_systematic        
5-(4-chlorobenzyl)-4-(6-chloro-1-methyl-1H-indol-3-yl)-3-(4-chlorophenyl)-5-hydroxy-1-methyl-1,5-dihydro-2H-pyrrol-2-one
_symmetry_cell_setting           triclinic
_symmetry_space_group_name_H-M   'P -1'
_symmetry_Int_Tables_number      2
_space_group_name_Hall           '-P 1'
loop_
_symmetry_equiv_pos_site_id
_symmetry_equiv_pos_as_xyz
1 x,y,z
2 -x,-y,-z
_cell_length_a                   10.4157(5)
_cell_length_b                   11.2754(6)
_cell_length_c                   12.1910(7)
_cell_angle_alpha                110.293(5)
_cell_angle_beta                 90.550(4)
_cell_angle_gamma                114.218(5)
_cell_volume                     1205.22
_exptl_crystal_colour            colorless
_exptl_crystal_description       prism
_cell_formula_units_Z            2
_exptl_crystal_recrystallization_method cyclohexane/acetonitrile
loop_
_atom_site_label
_atom_site_type_symbol
_atom_site_fract_x
_atom_site_fract_y
_atom_site_fract_z
Cl1 Cl 0.12967(7) 0.67289(6) 0.16531(5)
Cl2 Cl 0.87698(6) 0.90270(7) -0.21579(6)
Cl3 Cl 0.42345(7) 1.42111(6) 0.15011(6)
O1 O 0.11497(16) 0.73105(15) -0.57257(13)
H1 H 0.032(3) 0.682(3) -0.567(2)
O2 O 0.16574(16) 0.44642(14) -0.41536(12)
N1 N 0.19844(18) 0.59045(17) -0.51682(14)
C1 C 0.2697(2) 1.0283(2) -0.18627(18)
C2 C 0.1717(2) 0.6828(2) -0.20057(17)
C3 C 0.2027(2) 0.7854(2) -0.36336(17)
C4 C 0.1842(2) 0.5607(2) -0.41865(17)
C5 C 0.3621(2) 0.8221(2) -0.51776(19)
H2 H 0.3667 0.7786 -0.6026
H3 H 0.3688 0.9166 -0.5033
C6 C 0.1886(2) 0.6866(2) -0.31941(17)
C7 C 0.1451(2) 0.6760(2) 0.02393(18)
C8 C 0.4898(2) 0.8395(2) -0.44274(19)
C9 C 0.2123(2) 0.9262(2) -0.30725(18)
N2 N 0.1904(2) 1.12237(19) -0.29220(16)
C10 C 0.0694(2) 0.7295(2) -0.02142(18)
H4 H 0.0082 0.7628 0.0231
C11 C 0.3408(2) 1.0361(2) -0.08442(18)
H5 H 0.3571 0.9588 -0.0854
C12 C 0.0841(2) 0.7340(2) -0.13313(18)
H6 H 0.0338 0.7724 -0.1643
C13 C 0.2519(2) 1.1477(2) -0.18137(19)
C14 C 0.1684(2) 0.9909(2) -0.36694(19)
H7 H 0.1282 0.9494 -0.4491
C15 C 0.5432(2) 0.9437(2) -0.32850(19)
H8 H 0.4982 1.0036 -0.2981
C16 C 0.2455(2) 0.6288(2) -0.15202(18)
H9 H 0.3047 0.5928 -0.1969
C17 C 0.2166(2) 0.7323(2) -0.49452(17)
C18 C 0.5598(2) 0.7552(2) -0.4856(2)
H10 H 0.526 0.6844 -0.5637
C19 C 0.3638(2) 1.2706(2) 0.0189(2)
C20 C 0.6606(2) 0.9620(2) -0.2582(2)
H11 H 0.695 1.0324 -0.18
C21 C 0.3874(2) 1.1568(2) 0.01796(19)
H12 H 0.4353 1.1624 0.0876
C22 C 0.2341(2) 0.6264(2) -0.03934(19)
H13 H 0.2866 0.5912 -0.0064
C23 C 0.2973(2) 1.2700(2) -0.0790(2)
H14 H 0.283 1.3486 -0.0772
C24 C 0.7267(2) 0.8758(2) -0.3040(2)
C25 C 0.1963(2) 0.4920(2) -0.63211(18)
H15 H 0.2932 0.5009 -0.639
H16 H 0.1614 0.5128 -0.6948
H17 H 0.1327 0.3957 -0.6404
C26 C 0.6779(3) 0.7723(2) -0.4167(2)
H18 H 0.7242 0.7135 -0.4468
C27 C 0.1499(3) 1.2174(3) -0.3228(2)
H19 H 0.1222 1.1816 -0.4093
H20 H 0.2312 1.3111 -0.295
H21 H 0.0691 1.2235 -0.2849
loop_
_geom_bond_atom_site_label_1
_geom_bond_atom_site_label_2
_geom_bond_site_symmetry_1
_geom_bond_site_symmetry_2
Cl1 C7 1_555 1_555
Cl2 C24 1_555 1_555
Cl3 C19 1_555 1_555
O1 H1 1_555 1_555
O2 C4 1_555 1_555
N1 C4 1_555 1_555
C1 C9 1_555 1_555
C2 C6 1_555 1_555
C3 C6 1_555 1_555
C4 C6 1_555 1_555
C5 H2 1_555 1_555
H3 C5 1_555 1_555
C7 C10 1_555 1_555
C8 C5 1_555 1_555
C9 C3 1_555 1_555
N2 C13 1_555 1_555
C10 H4 1_555 1_555
C11 C1 1_555 1_555
H5 C11 1_555 1_555
C12 C2 1_555 1_555
H6 C12 1_555 1_555
C13 C1 1_555 1_555
C14 C9 1_555 1_555
H7 C14 1_555 1_555
C15 C8 1_555 1_555
H8 C15 1_555 1_555
C16 C2 1_555 1_555
H9 C16 1_555 1_555
C17 O1 1_555 1_555
C18 C8 1_555 1_555
H10 C18 1_555 1_555
C19 C21 1_555 1_555
C20 C15 1_555 1_555
H11 C20 1_555 1_555
C21 C11 1_555 1_555
H12 C21 1_555 1_555
C22 C7 1_555 1_555
H13 C22 1_555 1_555
C23 C13 1_555 1_555
H14 C23 1_555 1_555
C24 C20 1_555 1_555
C25 N1 1_555 1_555
H15 C25 1_555 1_555
H16 C25 1_555 1_555
H17 C25 1_555 1_555
C26 C18 1_555 1_555
H18 C26 1_555 1_555
C27 N2 1_555 1_555
H19 C27 1_555 1_555
H20 C27 1_555 1_555
H21 C27 1_555 1_555
N1 C17 1_555 1_555
C3 C17 1_555 1_555
C5 C17 1_555 1_555
N2 C14 1_555 1_555
C10 C12 1_555 1_555
C16 C22 1_555 1_555
C19 C23 1_555 1_555
C24 C26 1_555 1_555

#END
