
#######################################################################
#
#                 Cambridge Crystallographic Data Centre
#                                CCDC 
#
#######################################################################
#
# If this CIF has been generated from an entry in the Cambridge 
# Structural Database, then it will include bibliographic, chemical, 
# crystal, experimental, refinement or atomic coordinate data resulting 
# from the CCDC's data processing and validation procedures.
#
#######################################################################

data_CAHTEM03
_chemical_formula_moiety         'C72 H84 N12,0.8(I5)'
_chemical_name_systematic        
'5,12,20,27,35,42,50,57,62,69,74,81-Dodecaazatridecacyclo[29.29.10.10^16,46^.1^3,59^.1^14,18^.1^29,33^.1^44,48^.0^6,11^.0^21,26^.0^36,41^.0^51,56^.0^63,68^.0^75,80^]tetraoctaconta-1,3(71),4,12,14(84),15,17,19,27,29(83),30,32,34,42,44(72),45,47,49,57,59,61,69,73,81-tetracosaene pentaiodine clathrate'
_symmetry_cell_setting           cubic
_symmetry_space_group_name_H-M   'F 41 3 2'
_symmetry_Int_Tables_number      210
_space_group_name_Hall           'F 4d 2 3'
loop_
_symmetry_equiv_pos_site_id
_symmetry_equiv_pos_as_xyz
1 x,y,z
2 -x,1/2-y,1/2+z
3 1/2-x,1/2+y,-z
4 1/2+x,-y,1/2-z
5 z,x,y
6 1/2+z,-x,1/2-y
7 -z,1/2-x,1/2+y
8 1/2-z,1/2+x,-y
9 y,z,x
10 1/2-y,1/2+z,-x
11 1/2+y,-z,1/2-x
12 -y,1/2-z,1/2+x
13 3/4+y,1/4+x,3/4-z
14 1/4-y,1/4-x,1/4-z
15 1/4+y,3/4-x,3/4+z
16 3/4-y,3/4+x,1/4+z
17 3/4+x,1/4+z,3/4-y
18 3/4-x,3/4+z,1/4+y
19 1/4-x,1/4-z,1/4-y
20 1/4+x,3/4-z,3/4+y
21 3/4+z,1/4+y,3/4-x
22 1/4+z,3/4-y,3/4+x
23 3/4-z,3/4+y,1/4+x
24 1/4-z,1/4-y,1/4-x
25 x,1/2+y,1/2+z
26 -x,-y,z
27 1/2-x,y,1/2-z
28 1/2+x,1/2-y,-z
29 z,1/2+x,1/2+y
30 1/2+z,1/2-x,-y
31 -z,-x,y
32 1/2-z,x,1/2-y
33 y,1/2+z,1/2+x
34 1/2-y,z,1/2-x
35 1/2+y,1/2-z,-x
36 -y,-z,x
37 3/4+y,3/4+x,1/4-z
38 1/4-y,3/4-x,3/4-z
39 1/4+y,1/4-x,1/4+z
40 3/4-y,1/4+x,3/4+z
41 3/4+x,3/4+z,1/4-y
42 3/4-x,1/4+z,3/4+y
43 1/4-x,3/4-z,3/4-y
44 1/4+x,1/4-z,1/4+y
45 3/4+z,3/4+y,1/4-x
46 1/4+z,1/4-y,1/4+x
47 3/4-z,1/4+y,3/4+x
48 1/4-z,3/4-y,3/4-x
49 1/2+x,y,1/2+z
50 1/2-x,1/2-y,z
51 -x,1/2+y,1/2-z
52 x,-y,-z
53 1/2+z,x,1/2+y
54 z,-x,-y
55 1/2-z,1/2-x,y
56 -z,1/2+x,1/2-y
57 1/2+y,z,1/2+x
58 -y,1/2+z,1/2-x
59 y,-z,-x
60 1/2-y,1/2-z,x
61 1/4+y,1/4+x,1/4-z
62 3/4-y,1/4-x,3/4-z
63 3/4+y,3/4-x,1/4+z
64 1/4-y,3/4+x,3/4+z
65 1/4+x,1/4+z,1/4-y
66 1/4-x,3/4+z,3/4+y
67 3/4-x,1/4-z,3/4-y
68 3/4+x,3/4-z,1/4+y
69 1/4+z,1/4+y,1/4-x
70 3/4+z,3/4-y,1/4+x
71 1/4-z,3/4+y,3/4+x
72 3/4-z,1/4-y,3/4-x
73 1/2+x,1/2+y,z
74 1/2-x,-y,1/2+z
75 -x,y,-z
76 x,1/2-y,1/2-z
77 1/2+z,1/2+x,y
78 z,1/2-x,1/2-y
79 1/2-z,-x,1/2+y
80 -z,x,-y
81 1/2+y,1/2+z,x
82 -y,z,-x
83 y,1/2-z,1/2-x
84 1/2-y,-z,1/2+x
85 1/4+y,3/4+x,3/4-z
86 3/4-y,3/4-x,1/4-z
87 3/4+y,1/4-x,3/4+z
88 1/4-y,1/4+x,1/4+z
89 1/4+x,3/4+z,3/4-y
90 1/4-x,1/4+z,1/4+y
91 3/4-x,3/4-z,1/4-y
92 3/4+x,1/4-z,3/4+y
93 1/4+z,3/4+y,3/4-x
94 3/4+z,1/4-y,3/4+x
95 1/4-z,1/4+y,1/4+x
96 3/4-z,3/4-y,1/4-x
_cell_length_a                   24.992(3)
_cell_length_b                   24.992(3)
_cell_length_c                   24.992(3)
_cell_angle_alpha                90
_cell_angle_beta                 90
_cell_angle_gamma                90
_cell_volume                     15610
_cell_formula_units_Z            8
loop_
_atom_site_label
_atom_site_type_symbol
_atom_site_fract_x
_atom_site_fract_y
_atom_site_fract_z
N1 N 0.0454(2) 0.7771(2) 0.0369(2)
C1 C 0.1121(2) 0.8697(2) 0.0552(3)
H1 H 0.1207 0.8489 0.0256
C2 C 0.0678(3) 0.8564(2) 0.0862(2)
C3 C 0.0344(3) 0.8100(3) 0.0723(3)
H2 H 0.0028 0.8051 0.0914
C4 C 0.0102(3) 0.7310(2) 0.0284(2)
H3 H -0.0202 0.7332 0.0530
C5 C 0.0419(4) 0.6803(3) 0.0398(4)
H4 H 0.0530 0.6801 0.0770
H5 H 0.0738 0.6798 0.0178
C6 C 0.0081(6) 0.6302(3) 0.0282(4)
H6 H 0.0288 0.5983 0.0360
H7 H -0.0234 0.6300 0.0509
C2IA C 0.1436(2) 0.9138(2) 0.0678(3)
C1IA C 0.1303(2) 0.9448(3) 0.1121(2)
H1IA H 0.1511 0.9744 0.1207
C2AB C 0.0862(2) 0.9322(3) 0.1436(2)
C1AB C 0.0552(3) 0.8879(2) 0.1303(2)
H1AB H 0.0256 0.8793 0.1511
C3AB C 0.0723(3) 0.9656(3) 0.1900(3)
N1AB N 0.0369(2) 0.9546(2) 0.2229(2)
C4AB C 0.0284(2) 0.9898(3) 0.2690(2)
C4AC C -0.0284(2) 1.0102(3) 0.2690(2)
N1AC N -0.0369(2) 1.0454(2) 0.2229(2)
C3AC C -0.0723(3) 1.0344(3) 0.1900(3)
C2AC C -0.0862(2) 1.0678(3) 0.1436(2)
C1AC C -0.0552(3) 1.1121(2) 0.1303(2)
H1AC H -0.0256 1.1207 0.1511
C2Y C -0.0678(3) 1.1436(2) 0.0862(2)
C1Y C -0.1121(2) 1.1303(2) 0.0552(3)
H1Y H -0.1207 1.1511 0.0256
C2H C -0.1436(2) 1.0862(2) 0.0678(3)
C1H C -0.1303(2) 1.0552(3) 0.1121(2)
H1H H -0.1511 1.0256 0.1207
C3H C -0.1900(3) 1.0723(3) 0.0344(3)
N1H N -0.2229(2) 1.0369(2) 0.0454(2)
C4H C -0.2690(2) 1.0284(2) 0.0102(3)
C4FB C -0.2690(2) 0.9716(2) -0.0102(3)
N1FB N -0.2229(2) 0.9631(2) -0.0454(2)
C3FB C -0.1900(3) 0.9277(3) -0.0344(3)
C2FB C -0.1436(2) 0.9138(2) -0.0678(3)
C1FB C -0.1303(2) 0.9448(3) -0.1121(2)
H1FB H -0.1511 0.9744 -0.1207
C2DA C -0.0862(2) 0.9322(3) -0.1436(2)
C1DA C -0.0552(3) 0.8879(2) -0.1303(2)
H1DA H -0.0256 0.8793 -0.1511
C2VB C -0.0678(3) 0.8564(2) -0.0862(2)
C1VB C -0.1121(2) 0.8697(2) -0.0552(3)
H1VB H -0.1207 0.8489 -0.0256
C3VB C -0.0344(3) 0.8100(3) -0.0723(3)
N1VB N -0.0454(2) 0.7771(2) -0.0369(2)
C4VB C -0.0102(3) 0.7310(2) -0.0284(2)
C6VB C -0.0081(6) 0.6302(3) -0.0282(4)
C5VB C -0.0419(4) 0.6803(3) -0.0398(4)
H3VB H 0.0202 0.7332 -0.0530
H4VB H -0.0530 0.6801 -0.0770
H5VB H -0.0738 0.6798 -0.0178
H6VB H -0.0288 0.5983 -0.0360
H7VB H 0.0234 0.6300 -0.0509
H2VB H -0.0028 0.8051 -0.0914
C3DA C -0.0723(3) 0.9656(3) -0.1900(3)
N1DA N -0.0369(2) 0.9546(2) -0.2229(2)
C4DA C -0.0284(2) 0.9898(3) -0.2690(2)
C4D C 0.0284(2) 1.0102(3) -0.2690(2)
N1D N 0.0369(2) 1.0454(2) -0.2229(2)
C3D C 0.0723(3) 1.0344(3) -0.1900(3)
C2D C 0.0862(2) 1.0678(3) -0.1436(2)
C1D C 0.0552(3) 1.1121(2) -0.1303(2)
H1D H 0.0256 1.1207 -0.1511
C2YA C 0.0678(3) 1.1436(2) -0.0862(2)
C1YA C 0.1121(2) 1.1303(2) -0.0552(3)
H1YA H 0.1207 1.1511 -0.0256
C2CC C 0.1436(2) 1.0862(2) -0.0678(3)
C1CC C 0.1303(2) 1.0552(3) -0.1121(2)
H1CC H 0.1511 1.0256 -0.1207
C3CC C 0.1900(3) 1.0723(3) -0.0344(3)
N1CC N 0.2229(2) 1.0369(2) -0.0454(2)
C4CC C 0.2690(2) 1.0284(2) -0.0102(3)
C4IA C 0.2690(2) 0.9716(2) 0.0102(3)
N1IA N 0.2229(2) 0.9631(2) 0.0454(2)
C3IA C 0.1900(3) 0.9277(3) 0.0344(3)
H2IA H 0.1949 0.9086 0.0028
H3IA H 0.2668 0.9470 -0.0202
C5IA C 0.3197(3) 0.9602(4) 0.0419(4)
H4IA H 0.3199 0.9230 0.0530
H5IA H 0.3202 0.9822 0.0738
C6IA C 0.3698(3) 0.9718(4) 0.0081(6)
C6CC C 0.3698(3) 1.0282(4) -0.0081(6)
C5CC C 0.3197(3) 1.0398(4) -0.0419(4)
H3CC H 0.2668 1.0530 0.0202
H4CC H 0.3199 1.0770 -0.0530
H5CC H 0.3202 1.0178 -0.0738
H6CC H 0.4017 1.0360 -0.0288
H7CC H 0.3700 1.0509 0.0234
H6IA H 0.4017 0.9640 0.0288
H7IA H 0.3700 0.9491 -0.0234
H2CC H 0.1949 1.0914 -0.0028
C3YA C 0.0344(3) 1.1900(3) -0.0723(3)
N1YA N 0.0454(2) 1.2229(2) -0.0369(2)
C4YA C 0.0102(3) 1.2690(2) -0.0284(2)
C4Y C -0.0102(3) 1.2690(2) 0.0284(2)
N1Y N -0.0454(2) 1.2229(2) 0.0369(2)
C3Y C -0.0344(3) 1.1900(3) 0.0723(3)
H2Y H -0.0028 1.1949 0.0914
H3Y H 0.0202 1.2668 0.0530
C5Y C -0.0419(4) 1.3197(3) 0.0398(4)
H4Y H -0.0530 1.3199 0.0770
H5Y H -0.0738 1.3202 0.0178
C6Y C -0.0081(6) 1.3698(3) 0.0282(4)
C6YA C 0.0081(6) 1.3698(3) -0.0282(4)
C5YA C 0.0419(4) 1.3197(3) -0.0398(4)
H3YA H -0.0202 1.2668 -0.0530
H4YA H 0.0530 1.3199 -0.0770
H5YA H 0.0738 1.3202 -0.0178
H6YA H 0.0288 1.4017 -0.0360
H7YA H -0.0234 1.3700 -0.0509
H6Y H -0.0288 1.4017 0.0360
H7Y H 0.0234 1.3700 0.0509
H2YA H 0.0028 1.1949 -0.0914
H2D H 0.0914 1.0028 -0.1949
H3D H 0.0530 0.9798 -0.2668
C5D C 0.0398(4) 1.0419(4) -0.3197(3)
H4D H 0.0770 1.0530 -0.3199
H5D H 0.0178 1.0738 -0.3202
C6D C 0.0282(4) 1.0081(6) -0.3698(3)
C6DA C -0.0282(4) 0.9919(6) -0.3698(3)
C5DA C -0.0398(4) 0.9581(4) -0.3197(3)
H3DA H -0.0530 1.0202 -0.2668
H4DA H -0.0770 0.9470 -0.3199
H5DA H -0.0178 0.9262 -0.3202
H6DA H -0.0360 0.9712 -0.4017
H7DA H -0.0509 1.0234 -0.3700
H6D H 0.0360 1.0288 -0.4017
H7D H 0.0509 0.9766 -0.3700
H2DA H -0.0914 0.9972 -0.1949
H2FB H -0.1949 0.9086 -0.0028
H3FB H -0.2668 0.9470 0.0202
C5FB C -0.3197(3) 0.9602(4) -0.0419(4)
H4FB H -0.3199 0.9230 -0.0530
H5FB H -0.3202 0.9822 -0.0738
C6FB C -0.3698(3) 0.9718(4) -0.0081(6)
C6H C -0.3698(3) 1.0282(4) 0.0081(6)
C5H C -0.3197(3) 1.0398(4) 0.0419(4)
H3H H -0.2668 1.0530 -0.0202
H4H H -0.3199 1.0770 0.0530
H5H H -0.3202 1.0178 0.0738
H6H H -0.4017 1.0360 0.0288
H7H H -0.3700 1.0509 -0.0234
H6FB H -0.4017 0.9640 -0.0288
H7FB H -0.3700 0.9491 0.0234
H2H H -0.1949 1.0914 0.0028
H2AC H -0.0914 1.0028 0.1949
H3AC H -0.0530 0.9798 0.2668
C5AC C -0.0398(4) 1.0419(4) 0.3197(3)
H4AC H -0.0770 1.0530 0.3199
H5AC H -0.0178 1.0738 0.3202
C6AC C -0.0282(4) 1.0081(6) 0.3698(3)
C6AB C 0.0282(4) 0.9919(6) 0.3698(3)
C5AB C 0.0398(4) 0.9581(4) 0.3197(3)
H3AB H 0.0530 1.0202 0.2668
H4AB H 0.0770 0.9470 0.3199
H5AB H 0.0178 0.9262 0.3202
H6AB H 0.0360 0.9712 0.4017
H7AB H 0.0509 1.0234 0.3700
H6AC H -0.0360 1.0288 0.4017
H7AC H -0.0509 0.9766 0.3700
H2AB H 0.0914 0.9972 0.1949
I1? I -0.1250 0.8750 0.1250
I2? I -0.06465(10) 0.93535(10) 0.06465(10)
I3? I -0.01477(14) 0.98523(14) 0.01477(14)
loop_
_geom_bond_atom_site_label_1
_geom_bond_atom_site_label_2
_geom_bond_site_symmetry_1
_geom_bond_site_symmetry_2
N1 C3 1_555 1_555
C1 H1 1_555 1_555
C2 C1 1_555 1_555
C3 C2 1_555 1_555
H2 C3 1_555 1_555
C4 N1 1_555 1_555
H3 C4 1_555 1_555
C5 C4 1_555 1_555
H4 C5 1_555 1_555
H5 C5 1_555 1_555
C6 C5 1_555 1_555
H6 C6 1_555 1_555
H7 C6 1_555 1_555
C2IA C1 1_555 1_555
C1IA C2IA 1_555 1_555
H1IA C1IA 1_555 1_555
C2AB C1IA 1_555 1_555
C1AB C2 1_555 1_555
H1AB C1AB 1_555 1_555
C3AB C2AB 1_555 1_555
N1AB C3AB 1_555 1_555
C4AB N1AB 1_555 1_555
C4AC C4AB 1_555 1_555
N1AC C4AC 1_555 1_555
C3AC N1AC 1_555 1_555
C2AC C3AC 1_555 1_555
C1AC C2AC 1_555 1_555
H1AC C1AC 1_555 1_555
C2Y C1AC 1_555 1_555
C1Y C2Y 1_555 1_555
H1Y C1Y 1_555 1_555
C2H C1Y 1_555 1_555
C1H C2AC 1_555 1_555
H1H C1H 1_555 1_555
C3H C2H 1_555 1_555
N1H C3H 1_555 1_555
C4H N1H 1_555 1_555
C4FB C4H 1_555 1_555
N1FB C4FB 1_555 1_555
C3FB N1FB 1_555 1_555
C2FB C3FB 1_555 1_555
C1FB C2FB 1_555 1_555
H1FB C1FB 1_555 1_555
C2DA C1FB 1_555 1_555
C1DA C2DA 1_555 1_555
H1DA C1DA 1_555 1_555
C2VB C1DA 1_555 1_555
C1VB C2FB 1_555 1_555
H1VB C1VB 1_555 1_555
C3VB C2VB 1_555 1_555
N1VB C3VB 1_555 1_555
C4VB C4 1_555 1_555
C6VB C6 1_555 1_555
C5VB C4VB 1_555 1_555
H3VB C4VB 1_555 1_555
H4VB C5VB 1_555 1_555
H5VB C5VB 1_555 1_555
H6VB C6VB 1_555 1_555
H7VB C6VB 1_555 1_555
H2VB C3VB 1_555 1_555
C3DA C2DA 1_555 1_555
N1DA C3DA 1_555 1_555
C4DA N1DA 1_555 1_555
C4D C4DA 1_555 1_555
N1D C4D 1_555 1_555
C3D N1D 1_555 1_555
C2D C3D 1_555 1_555
C1D C2D 1_555 1_555
H1D C1D 1_555 1_555
C2YA C1D 1_555 1_555
C1YA C2YA 1_555 1_555
H1YA C1YA 1_555 1_555
C2CC C1YA 1_555 1_555
C1CC C2D 1_555 1_555
H1CC C1CC 1_555 1_555
C3CC C2CC 1_555 1_555
N1CC C3CC 1_555 1_555
C4CC N1CC 1_555 1_555
C4IA C4CC 1_555 1_555
N1IA C4IA 1_555 1_555
C3IA C2IA 1_555 1_555
H2IA C3IA 1_555 1_555
H3IA C4IA 1_555 1_555
C5IA C4IA 1_555 1_555
H4IA C5IA 1_555 1_555
H5IA C5IA 1_555 1_555
C6IA C5IA 1_555 1_555
C6CC C6IA 1_555 1_555
C5CC C4CC 1_555 1_555
H3CC C4CC 1_555 1_555
H4CC C5CC 1_555 1_555
H5CC C5CC 1_555 1_555
H6CC C6CC 1_555 1_555
H7CC C6CC 1_555 1_555
H6IA C6IA 1_555 1_555
H7IA C6IA 1_555 1_555
H2CC C3CC 1_555 1_555
C3YA C2YA 1_555 1_555
N1YA C3YA 1_555 1_555
C4YA N1YA 1_555 1_555
C4Y C4YA 1_555 1_555
N1Y C4Y 1_555 1_555
C3Y C2Y 1_555 1_555
H2Y C3Y 1_555 1_555
H3Y C4Y 1_555 1_555
C5Y C4Y 1_555 1_555
H4Y C5Y 1_555 1_555
H5Y C5Y 1_555 1_555
C6Y C5Y 1_555 1_555
C6YA C6Y 1_555 1_555
C5YA C4YA 1_555 1_555
H3YA C4YA 1_555 1_555
H4YA C5YA 1_555 1_555
H5YA C5YA 1_555 1_555
H6YA C6YA 1_555 1_555
H7YA C6YA 1_555 1_555
H6Y C6Y 1_555 1_555
H7Y C6Y 1_555 1_555
H2YA C3YA 1_555 1_555
H2D C3D 1_555 1_555
H3D C4D 1_555 1_555
C5D C4D 1_555 1_555
H4D C5D 1_555 1_555
H5D C5D 1_555 1_555
C6D C5D 1_555 1_555
C6DA C6D 1_555 1_555
C5DA C4DA 1_555 1_555
H3DA C4DA 1_555 1_555
H4DA C5DA 1_555 1_555
H5DA C5DA 1_555 1_555
H6DA C6DA 1_555 1_555
H7DA C6DA 1_555 1_555
H6D C6D 1_555 1_555
H7D C6D 1_555 1_555
H2DA C3DA 1_555 1_555
H2FB C3FB 1_555 1_555
H3FB C4FB 1_555 1_555
C5FB C4FB 1_555 1_555
H4FB C5FB 1_555 1_555
H5FB C5FB 1_555 1_555
C6FB C5FB 1_555 1_555
C6H C6FB 1_555 1_555
C5H C4H 1_555 1_555
H3H C4H 1_555 1_555
H4H C5H 1_555 1_555
H5H C5H 1_555 1_555
H6H C6H 1_555 1_555
H7H C6H 1_555 1_555
H6FB C6FB 1_555 1_555
H7FB C6FB 1_555 1_555
H2H C3H 1_555 1_555
H2AC C3AC 1_555 1_555
H3AC C4AC 1_555 1_555
C5AC C4AC 1_555 1_555
H4AC C5AC 1_555 1_555
H5AC C5AC 1_555 1_555
C6AC C5AC 1_555 1_555
C6AB C6AC 1_555 1_555
C5AB C4AB 1_555 1_555
H3AB C4AB 1_555 1_555
H4AB C5AB 1_555 1_555
H5AB C5AB 1_555 1_555
H6AB C6AB 1_555 1_555
H7AB C6AB 1_555 1_555
H6AC C6AC 1_555 1_555
H7AC C6AC 1_555 1_555
H2AB C3AB 1_555 1_555
C2AB C1AB 1_555 1_555
C2H C1H 1_555 1_555
C2VB C1VB 1_555 1_555
N1VB C4VB 1_555 1_555
C6VB C5VB 1_555 1_555
C2CC C1CC 1_555 1_555
N1IA C3IA 1_555 1_555
C6CC C5CC 1_555 1_555
N1Y C3Y 1_555 1_555
C6YA C5YA 1_555 1_555
C6DA C5DA 1_555 1_555
C6H C5H 1_555 1_555
C6AB C5AB 1_555 1_555

#END
