
#######################################################################
#
#                 Cambridge Crystallographic Data Centre
#                                CCDC 
#
#######################################################################
#
# If this CIF has been generated from an entry in the Cambridge 
# Structural Database, then it will include bibliographic, chemical, 
# crystal, experimental, refinement or atomic coordinate data resulting 
# from the CCDC's data processing and validation procedures.
#
#######################################################################

data_CAHWEQ
_chemical_formula_moiety         'C31 H18 O8'
_chemical_name_systematic        
"methyl 4,5',9-trihydroxy-3,4',8-trioxo-3,8-dihydro-4'H,7aH-spiro[indeno[1,2-a]phenalene-7,1'-naphthalene]-7a-carboxylate"
_symmetry_cell_setting           monoclinic
_symmetry_space_group_name_H-M   'P 21/c'
_symmetry_Int_Tables_number      14
_space_group_name_Hall           '-P 2ybc'
loop_
_symmetry_equiv_pos_site_id
_symmetry_equiv_pos_as_xyz
1 x,y,z
2 -x,1/2+y,1/2-z
3 -x,-y,-z
4 x,1/2-y,1/2+z
_cell_length_a                   17.4605(7)
_cell_length_b                   8.5215(3)
_cell_length_c                   15.4752(6)
_cell_angle_alpha                90
_cell_angle_beta                 103.931(3)
_cell_angle_gamma                90
_cell_volume                     2234.82
_cell_formula_units_Z            4
loop_
_atom_site_label
_atom_site_type_symbol
_atom_site_fract_x
_atom_site_fract_y
_atom_site_fract_z
C1 C 0.3426(2) 0.6688(4) 0.28392(19)
C2 C 0.3813(2) 0.7108(4) 0.21543(19)
C3 C 0.4526(2) 0.7910(4) 0.2247(2)
C4 C 0.4760(2) 0.8429(4) 0.1510(2)
H1 H 0.5229 0.8983 0.1569
C5 C 0.4290(2) 0.8113(5) 0.0694(2)
H2 H 0.4452 0.8466 0.0198
C6 C 0.3576(2) 0.7290(4) 0.0552(2)
H3 H 0.3276 0.7075 -0.0019
C7 C 0.3341(2) 0.6810(4) 0.1303(2)
C8 C 0.2622(2) 0.6021(4) 0.14222(18)
C9 C 0.2048(2) 0.5162(4) 0.08455(19)
C10 C 0.2045(2) 0.4931(4) -0.0071(2)
H4 H 0.2471 0.5292 -0.0277
C11 C 0.1446(2) 0.4209(4) -0.0649(2)
H5 H 0.1461 0.4115 -0.1244
C12 C 0.0785(2) 0.3582(4) -0.0358(2)
C13 C 0.0769(2) 0.3686(4) 0.0564(2)
C14 C 0.0175(2) 0.3018(4) 0.0903(2)
C15 C 0.0179(2) 0.3026(4) 0.1787(2)
H6 H -0.0236 0.2596 0.1988
C16 C 0.0827(2) 0.3703(4) 0.2378(2)
H7 H 0.0854 0.3670 0.2986
C17 C 0.1430(2) 0.4423(4) 0.20853(19)
C18 C 0.1408(2) 0.4430(4) 0.1187(2)
C19 C 0.2157(2) 0.5008(4) 0.27992(18)
C20 C 0.2750(2) 0.3612(4) 0.3101(2)
C21 C 0.2991(2) 0.2722(4) 0.2482(2)
H8 H 0.2797 0.2945 0.1881
C22 C 0.3522(2) 0.1487(5) 0.2732(2)
H9 H 0.3677 0.0886 0.2301
C23 C 0.3816(2) 0.1164(5) 0.3625(2)
H10 H 0.4174 0.0348 0.3800
C24 C 0.3581(2) 0.2051(5) 0.4255(2)
C25 C 0.3031(2) 0.3310(4) 0.4018(2)
C26 C 0.2756(2) 0.4088(5) 0.4706(2)
C27 C 0.2141(2) 0.5266(5) 0.4427(2)
H11 H 0.1929 0.5761 0.4852
C28 C 0.1880(2) 0.5643(4) 0.3577(2)
H12 H 0.1478 0.6387 0.3446
C29 C 0.2556(2) 0.6328(4) 0.23608(19)
C30 C 0.2128(2) 0.7940(4) 0.2402(2)
C31 C 0.1235(2) 0.9765(4) 0.1628(3)
H13 H 0.0902 0.9736 0.2039
H14 H 0.0920 0.9973 0.1039
H15 H 0.1622 1.0578 0.1800
O1 O 0.37246(14) 0.6667(3) 0.36366(13)
O2 O 0.50045(15) 0.8181(3) 0.30830(14)
H16 H 0.4804 0.7789 0.3460
O3 O 0.02313(15) 0.2916(3) -0.09085(15)
O4 O -0.04584(15) 0.2305(3) 0.03265(16)
H17 H -0.0392 0.2322 -0.0180
O5 O 0.16285(15) 0.8265(3) 0.16361(15)
O6 O 0.29954(17) 0.3792(4) 0.55098(14)
O7 O 0.39114(17) 0.1707(3) 0.51306(16)
H18 H 0.3753 0.2334 0.5450
O8 O 0.22600(17) 0.8747(3) 0.30402(16)
loop_
_geom_bond_atom_site_label_1
_geom_bond_atom_site_label_2
_geom_bond_site_symmetry_1
_geom_bond_site_symmetry_2
C1 C2 1_555 1_555
C2 C3 1_555 1_555
C3 C4 1_555 1_555
C4 H1 1_555 1_555
C5 C4 1_555 1_555
H2 C5 1_555 1_555
C6 C5 1_555 1_555
H3 C6 1_555 1_555
C7 C2 1_555 1_555
C8 C7 1_555 1_555
C9 C8 1_555 1_555
C10 C9 1_555 1_555
H4 C10 1_555 1_555
C11 C10 1_555 1_555
H5 C11 1_555 1_555
C12 C11 1_555 1_555
C13 C12 1_555 1_555
C14 C13 1_555 1_555
C15 C14 1_555 1_555
H6 C15 1_555 1_555
C16 C15 1_555 1_555
H7 C16 1_555 1_555
C17 C16 1_555 1_555
C18 C9 1_555 1_555
C19 C17 1_555 1_555
C20 C19 1_555 1_555
C21 C20 1_555 1_555
H8 C21 1_555 1_555
C22 C21 1_555 1_555
H9 C22 1_555 1_555
C23 C22 1_555 1_555
H10 C23 1_555 1_555
C24 C23 1_555 1_555
C25 C20 1_555 1_555
C26 C25 1_555 1_555
C27 C26 1_555 1_555
H11 C27 1_555 1_555
C28 C19 1_555 1_555
H12 C28 1_555 1_555
C29 C1 1_555 1_555
C30 C29 1_555 1_555
C31 H13 1_555 1_555
H14 C31 1_555 1_555
H15 C31 1_555 1_555
O1 C1 1_555 1_555
O2 C3 1_555 1_555
H16 O2 1_555 1_555
O3 C12 1_555 1_555
O4 C14 1_555 1_555
H17 O4 1_555 1_555
O5 C30 1_555 1_555
O6 C26 1_555 1_555
O7 C24 1_555 1_555
H18 O7 1_555 1_555
O8 C30 1_555 1_555
C6 C7 1_555 1_555
C8 C29 1_555 1_555
C13 C18 1_555 1_555
C17 C18 1_555 1_555
C19 C29 1_555 1_555
C24 C25 1_555 1_555
C27 C28 1_555 1_555
C31 O5 1_555 1_555

#END
