
#######################################################################
#
#                 Cambridge Crystallographic Data Centre
#                                CCDC 
#
#######################################################################
#
# If this CIF has been generated from an entry in the Cambridge 
# Structural Database, then it will include bibliographic, chemical, 
# crystal, experimental, refinement or atomic coordinate data resulting 
# from the CCDC's data processing and validation procedures.
#
#######################################################################

data_CAHYAN
_chemical_name_common            (+)-(R)-Concentricolide
_chemical_formula_moiety         'C12 H10 O3'
_chemical_name_systematic        6-Ethylfuro[2,3-e][2]benzofuran-8(6H)-one
_chemical_properties_biological  'The (-)-enantiomer is an anti-HIV agent'
_symmetry_cell_setting           monoclinic
_symmetry_space_group_name_H-M   'P 21/c'
_symmetry_Int_Tables_number      14
_space_group_name_Hall           '-P 2ybc'
loop_
_symmetry_equiv_pos_site_id
_symmetry_equiv_pos_as_xyz
1 x,y,z
2 -x,1/2+y,1/2-z
3 -x,-y,-z
4 x,1/2-y,1/2+z
_cell_length_a                   9.4716(11)
_cell_length_b                   8.2895(8)
_cell_length_c                   12.6979(16)
_cell_angle_alpha                90
_cell_angle_beta                 99.295(12)
_cell_angle_gamma                90
_cell_volume                     983.883
_exptl_crystal_colour            colorless
_exptl_crystal_description       plate
_cell_formula_units_Z            4
loop_
_atom_site_label
_atom_site_type_symbol
_atom_site_fract_x
_atom_site_fract_y
_atom_site_fract_z
O1 O 0.75997(19) 0.63347(18) 1.04902(13)
O2 O 0.8426(2) 0.60222(19) 0.89414(15)
O3 O 0.90031(17) 0.96426(17) 0.80712(12)
C1 C 0.7189(3) 0.7659(3) 1.11423(18)
H1 H 0.7776 0.7625 1.1871
C2 C 0.7429(3) 1.0764(3) 1.08231(17)
H2 H 0.7066 1.1059 1.1451
C3 C 0.7847(3) 1.1938(3) 1.01563(17)
H3 H 0.7785 1.3047 1.033
C4 C 0.8879(3) 1.2315(3) 0.83772(18)
H4 H 0.895 1.345 0.8298
C5 C 0.9243(3) 1.1191(3) 0.77199(18)
H5 H 0.9621 1.1421 0.7087
C6 C 0.8078(3) 0.6911(3) 0.96061(19)
C7 C 0.7552(2) 0.9143(3) 1.05551(17)
C8 C 0.8359(2) 1.1480(2) 0.92295(16)
C9 C 0.8463(2) 0.9848(3) 0.89920(17)
C10 C 0.8060(2) 0.8669(3) 0.96497(17)
C11 C 0.5631(3) 0.7483(3) 1.1218(2)
H6 H 0.507 0.7491 1.0488
H7 H 0.5326 0.8423 1.1606
C12 C 0.5289(3) 0.5941(3) 1.1784(2)
H8 H 0.5802 0.5947 1.2518
H9 H 0.5587 0.5002 1.1405
H10 H 0.4257 0.5883 1.1791
loop_
_geom_bond_atom_site_label_1
_geom_bond_atom_site_label_2
_geom_bond_site_symmetry_1
_geom_bond_site_symmetry_2
O1 C1 1_555 1_555
O2 C6 1_555 1_555
O3 C5 1_555 1_555
C1 H1 1_555 1_555
C2 H2 1_555 1_555
C3 C2 1_555 1_555
H3 C3 1_555 1_555
C4 H4 1_555 1_555
C5 C4 1_555 1_555
H5 C5 1_555 1_555
C6 O1 1_555 1_555
C7 C1 1_555 1_555
C8 C3 1_555 1_555
C9 O3 1_555 1_555
C10 C6 1_555 1_555
C11 C1 1_555 1_555
H6 C11 1_555 1_555
H7 C11 1_555 1_555
C12 C11 1_555 1_555
H8 C12 1_555 1_555
H9 C12 1_555 1_555
H10 C12 1_555 1_555
C2 C7 1_555 1_555
C4 C8 1_555 1_555
C7 C10 1_555 1_555
C8 C9 1_555 1_555
C9 C10 1_555 1_555

#END
