
#######################################################################
#
#                 Cambridge Crystallographic Data Centre
#                                CCDC 
#
#######################################################################
#
# If this CIF has been generated from an entry in the Cambridge 
# Structural Database, then it will include bibliographic, chemical, 
# crystal, experimental, refinement or atomic coordinate data resulting 
# from the CCDC's data processing and validation procedures.
#
#######################################################################

data_CAHZET
_chemical_formula_moiety         'C28 H37 Br1 O4'
_chemical_name_systematic        
'3,17-dihydroxypregn-5-en-20-yl 4-bromobenzoate'
_symmetry_cell_setting           orthorhombic
_symmetry_space_group_name_H-M   'P 21 21 21'
_symmetry_Int_Tables_number      19
_space_group_name_Hall           'P 2ac 2ab'
loop_
_symmetry_equiv_pos_site_id
_symmetry_equiv_pos_as_xyz
1 x,y,z
2 1/2-x,-y,1/2+z
3 -x,1/2+y,1/2-z
4 1/2+x,1/2-y,-z
_cell_length_a                   5.9885(6)
_cell_length_b                   12.4904(12)
_cell_length_c                   33.701(4)
_cell_angle_alpha                90
_cell_angle_beta                 90
_cell_angle_gamma                90
_cell_volume                     2520.79
_exptl_crystal_colour            colorless
_exptl_crystal_description       prismatic
_cell_formula_units_Z            4
loop_
_atom_site_label
_atom_site_type_symbol
_atom_site_fract_x
_atom_site_fract_y
_atom_site_fract_z
Br1 Br 0.96449(12) 0.45332(4) -0.050696(13)
O1 O 1.0814(5) 0.2257(3) 0.48798(7)
H1 H 0.9549 0.2277 0.4973
O2 O 0.9331(4) 0.21964(19) 0.18582(6)
O3 O 0.6323(3) 0.25947(17) 0.12667(6)
O4 O 0.3104(5) 0.3368(3) 0.11051(8)
C1 C 0.9257(6) 0.1268(3) 0.38571(9)
H2 H 1.0752 0.1169 0.3753
H3 H 0.8368 0.0658 0.3774
C2 C 0.9377(7) 0.1278(3) 0.43112(9)
H4 H 0.7879 0.1310 0.4420
H5 H 1.0071 0.0622 0.4404
C3 C 1.0686(6) 0.2212(3) 0.44540(9)
H6 H 1.2211 0.2138 0.4352
C4 C 0.9754(7) 0.3242(3) 0.42951(9)
H7 H 1.0745 0.3823 0.4369
H8 H 0.8319 0.3374 0.4419
C5 C 0.9456(5) 0.3250(2) 0.38502(8)
C6 C 1.0160(6) 0.4043(3) 0.36336(9)
H9 H 1.0906 0.4593 0.3764
C7 C 0.9883(6) 0.4153(2) 0.31960(9)
H10 H 1.1311 0.4033 0.3068
H11 H 0.9409 0.4877 0.3135
C8 C 0.8189(5) 0.3371(2) 0.30323(8)
H12 H 0.6692 0.3619 0.3105
C9 C 0.8565(5) 0.2264(2) 0.32177(8)
H13 H 1.0142 0.2094 0.3172
C10 C 0.8256(5) 0.2284(2) 0.36749(8)
C11 C 0.7237(6) 0.1378(2) 0.30108(8)
H14 H 0.5678 0.1444 0.3085
H15 H 0.7764 0.0690 0.3106
C12 C 0.7413(6) 0.1400(2) 0.25561(9)
H16 H 0.8933 0.1235 0.2478
H17 H 0.6442 0.0855 0.2445
C13 C 0.6761(5) 0.2484(2) 0.23922(8)
C14 C 0.8331(5) 0.3304(2) 0.25834(8)
H18 H 0.9851 0.3064 0.2523
C15 C 0.7958(7) 0.4308(2) 0.23404(10)
H19 H 0.9280 0.4757 0.2343
H20 H 0.6709 0.4716 0.2444
C16 C 0.7459(6) 0.3911(2) 0.19198(10)
H21 H 0.6086 0.4227 0.1822
H22 H 0.8665 0.4104 0.1741
C17 C 0.7234(4) 0.2694(2) 0.19454(8)
C18 C 0.4300(5) 0.2725(3) 0.24774(9)
H23 H 0.4060 0.2739 0.2759
H24 H 0.3384 0.2178 0.2361
H25 H 0.3914 0.3407 0.2366
C19 C 0.5763(6) 0.2356(4) 0.37843(10)
H26 H 0.5617 0.2591 0.4054
H27 H 0.5085 0.1664 0.3755
H28 H 0.5035 0.2857 0.3612
C20 C 0.5494(6) 0.2274(2) 0.16546(8)
H29 H 0.4064 0.2630 0.1705
C21 C 0.5137(7) 0.1092(3) 0.16424(10)
H30 H 0.4181 0.0916 0.1423
H31 H 0.4451 0.0863 0.1885
H32 H 0.6548 0.0738 0.1611
C22 C 0.5011(6) 0.3148(3) 0.10280(9)
C23 C 0.6173(5) 0.3467(3) 0.06572(9)
C24 C 0.8257(6) 0.3074(3) 0.05542(10)
H33 H 0.8978 0.2597 0.0723
C25 C 0.9272(7) 0.3377(3) 0.02073(10)
H34 H 1.0657 0.3099 0.0137
C26 C 0.8208(8) 0.4095(3) -0.00318(10)
C27 C 0.6155(8) 0.4503(3) 0.00627(11)
H35 H 0.5456 0.4992 -0.0104
C28 C 0.5148(7) 0.4181(3) 0.04074(11)
H36 H 0.3748 0.4450 0.0473
H37 H 0.976(7) 0.232(3) 0.1636(7)
loop_
_geom_bond_atom_site_label_1
_geom_bond_atom_site_label_2
_geom_bond_site_symmetry_1
_geom_bond_site_symmetry_2
Br1 C26 1_555 1_555
O1 H1 1_555 1_555
O2 C17 1_555 1_555
O3 C20 1_555 1_555
O4 C22 1_555 1_555
C1 H2 1_555 1_555
H3 C1 1_555 1_555
C2 C1 1_555 1_555
H4 C2 1_555 1_555
H5 C2 1_555 1_555
C3 O1 1_555 1_555
H6 C3 1_555 1_555
C4 C3 1_555 1_555
H7 C4 1_555 1_555
H8 C4 1_555 1_555
C5 C4 1_555 1_555
C6 C5 1_555 1_555
H9 C6 1_555 1_555
C7 C6 1_555 1_555
H10 C7 1_555 1_555
H11 C7 1_555 1_555
C8 C7 1_555 1_555
H12 C8 1_555 1_555
C9 C8 1_555 1_555
H13 C9 1_555 1_555
C10 C1 1_555 1_555
C11 C9 1_555 1_555
H14 C11 1_555 1_555
H15 C11 1_555 1_555
C12 C11 1_555 1_555
H16 C12 1_555 1_555
H17 C12 1_555 1_555
C13 C12 1_555 1_555
C14 C8 1_555 1_555
H18 C14 1_555 1_555
C15 C14 1_555 1_555
H19 C15 1_555 1_555
H20 C15 1_555 1_555
C16 C15 1_555 1_555
H21 C16 1_555 1_555
H22 C16 1_555 1_555
C17 C13 1_555 1_555
C18 C13 1_555 1_555
H23 C18 1_555 1_555
H24 C18 1_555 1_555
H25 C18 1_555 1_555
C19 C10 1_555 1_555
H26 C19 1_555 1_555
H27 C19 1_555 1_555
H28 C19 1_555 1_555
C20 C17 1_555 1_555
H29 C20 1_555 1_555
C21 C20 1_555 1_555
H30 C21 1_555 1_555
H31 C21 1_555 1_555
H32 C21 1_555 1_555
C22 O3 1_555 1_555
C23 C22 1_555 1_555
C24 C23 1_555 1_555
H33 C24 1_555 1_555
C25 C24 1_555 1_555
H34 C25 1_555 1_555
C26 C25 1_555 1_555
C27 C26 1_555 1_555
H35 C27 1_555 1_555
C28 C23 1_555 1_555
H36 C28 1_555 1_555
H37 O2 1_555 1_555
C2 C3 1_555 1_555
C5 C10 1_555 1_555
C9 C10 1_555 1_555
C13 C14 1_555 1_555
C16 C17 1_555 1_555
C27 C28 1_555 1_555

#END
