
#######################################################################
#
#                 Cambridge Crystallographic Data Centre
#                                CCDC 
#
#######################################################################
#
# If this CIF has been generated from an entry in the Cambridge 
# Structural Database, then it will include bibliographic, chemical, 
# crystal, experimental, refinement or atomic coordinate data resulting 
# from the CCDC's data processing and validation procedures.
#
#######################################################################

data_CAHZIW
_chemical_formula_moiety         'C23 H19 Br2 N3 O1'
_chemical_name_systematic        
(R,E)-2-Amino-8-(4-bromobenzylidene)-4-(4-bromophenyl)-6-methyl-5,6,7,8-tetrahydro-4H-pyrano[3,2-c]pyridine-3-carbonitrile
_symmetry_cell_setting           monoclinic
_symmetry_space_group_name_H-M   'P 21'
_symmetry_Int_Tables_number      4
_space_group_name_Hall           'P 2yb'
loop_
_symmetry_equiv_pos_site_id
_symmetry_equiv_pos_as_xyz
1 x,y,z
2 -x,1/2+y,-z
_cell_length_a                   10.02500(10)
_cell_length_b                   6.61660(10)
_cell_length_c                   15.4445(2)
_cell_angle_alpha                90
_cell_angle_beta                 90.9830(10)
_cell_angle_gamma                90
_cell_volume                     1024.3
_exptl_crystal_colour            colorless
_exptl_crystal_description       needle
_cell_formula_units_Z            2
loop_
_atom_site_label
_atom_site_type_symbol
_atom_site_fract_x
_atom_site_fract_y
_atom_site_fract_z
Br1 Br 0.88554(2) -0.86443(3) 0.359422(13)
Br2 Br -0.22100(2) 0.59967(4) 0.011629(15)
O1 O 0.29931(14) 0.1284(3) 0.37161(9)
N1 N 0.47724(17) 0.1206(3) 0.13276(10)
C1 C 0.37038(19) 0.1500(4) 0.29482(12)
C2 C 0.7654(2) -0.6424(4) 0.35564(14)
C3 C 0.5659(2) 0.1385(4) 0.05832(12)
H1 H 0.5927 0.0034 0.0393
H2 H 0.6454 0.2163 0.0753
H3 H 0.5188 0.2078 0.0108
N2 N 0.1788(2) 0.2481(3) 0.47873(12)
H4 H 0.1972 0.1321 0.5041
H5 H 0.1294 0.3382 0.5052
C4 C 0.5503(2) 0.0151(4) 0.20212(14)
H6 H 0.6328 0.0912 0.2165
H7 H 0.5767 -0.1204 0.1813
C5 C 0.2264(2) 0.2878(4) 0.39925(14)
C6 C 0.4355(2) 0.3191(3) 0.16148(14)
H8 H 0.3822 0.3848 0.1148
H9 H 0.5154 0.4036 0.1730
C7 C 0.4690(2) -0.0085(3) 0.28318(14)
C8 C 0.7968(2) -0.4747(4) 0.30672(14)
H10 H 0.8789 -0.4693 0.2769
C9 C 0.6488(2) -0.6486(4) 0.40313(14)
H11 H 0.6293 -0.7620 0.4385
C10 C 0.3537(2) 0.3076(3) 0.24232(14)
C11 C 0.5870(2) -0.3180(3) 0.34579(14)
C12 C 0.5622(2) -0.4874(3) 0.39797(15)
H12 H 0.4830 -0.4909 0.4308
C13 C 0.1391(2) 0.6240(4) 0.38891(12)
C14 C 0.4888(2) -0.1532(4) 0.34359(14)
H13 H 0.4308 -0.1478 0.3916
C15 C 0.7082(2) -0.3147(3) 0.30137(14)
H14 H 0.7296 -0.2006 0.2670
C16 C 0.2638(2) 0.4833(4) 0.26153(13)
H15 H 0.3192 0.6089 0.2600
C17 C 0.2113(2) 0.4607(4) 0.35323(14)
C18 C -0.0698(2) 0.5648(4) 0.08695(14)
C19 C 0.1491(2) 0.5092(4) 0.19632(14)
N3 N 0.0817(2) 0.7602(3) 0.41649(14)
C20 C -0.0378(2) 0.3713(4) 0.11472(15)
H16 H -0.0895 0.2584 0.0964
C21 C 0.0715(2) 0.3463(4) 0.16986(14)
H17 H 0.0938 0.2146 0.1900
C22 C 0.1155(3) 0.7010(4) 0.16650(17)
H18 H 0.1680 0.8139 0.1839
C23 C 0.0052(3) 0.7296(4) 0.11104(17)
H19 H -0.0174 0.8608 0.0905
loop_
_geom_bond_atom_site_label_1
_geom_bond_atom_site_label_2
_geom_bond_site_symmetry_1
_geom_bond_site_symmetry_2
Br1 C2 1_555 1_555
Br2 C18 1_555 1_555
O1 C1 1_555 1_555
N1 C3 1_555 1_555
C1 C7 1_555 1_555
C2 C8 1_555 1_555
C3 H1 1_555 1_555
H2 C3 1_555 1_555
H3 C3 1_555 1_555
N2 H4 1_555 1_555
H5 N2 1_555 1_555
C4 N1 1_555 1_555
H6 C4 1_555 1_555
H7 C4 1_555 1_555
C5 O1 1_555 1_555
C6 N1 1_555 1_555
H8 C6 1_555 1_555
H9 C6 1_555 1_555
C7 C4 1_555 1_555
C8 H10 1_555 1_555
C9 C2 1_555 1_555
H11 C9 1_555 1_555
C10 C1 1_555 1_555
C11 C12 1_555 1_555
C12 C9 1_555 1_555
H12 C12 1_555 1_555
C13 C17 1_555 1_555
C14 C7 1_555 1_555
H13 C14 1_555 1_555
C15 C8 1_555 1_555
H14 C15 1_555 1_555
C16 C10 1_555 1_555
H15 C16 1_555 1_555
C17 C5 1_555 1_555
C18 C20 1_555 1_555
C19 C16 1_555 1_555
N3 C13 1_555 1_555
C20 H16 1_555 1_555
C21 C19 1_555 1_555
H17 C21 1_555 1_555
C22 C19 1_555 1_555
H18 C22 1_555 1_555
C23 C18 1_555 1_555
H19 C23 1_555 1_555
N2 C5 1_555 1_555
C6 C10 1_555 1_555
C11 C14 1_555 1_555
C11 C15 1_555 1_555
C16 C17 1_555 1_555
C20 C21 1_555 1_555
C22 C23 1_555 1_555

#END
