
#######################################################################
#
#                 Cambridge Crystallographic Data Centre
#                                CCDC 
#
#######################################################################
#
# If this CIF has been generated from an entry in the Cambridge 
# Structural Database, then it will include bibliographic, chemical, 
# crystal, experimental, refinement or atomic coordinate data resulting 
# from the CCDC's data processing and validation procedures.
#
#######################################################################

data_CAJFEB
_chemical_formula_moiety         'C42 H58 O2'
_chemical_name_systematic        
5,14-di-t-butyl-2,17-dimethyl-7,12-bis(2-methylhex-5-en-2-yl)octadeca-5,6,12,13-tetraene-3,8,10,15-tetrayne-2,17-diol
_symmetry_cell_setting           tetragonal
_symmetry_space_group_name_H-M   'P 43'
_symmetry_Int_Tables_number      78
_space_group_name_Hall           'P 4cw'
loop_
_symmetry_equiv_pos_site_id
_symmetry_equiv_pos_as_xyz
1 x,y,z
2 -y,x,3/4+z
3 y,-x,1/4+z
4 -x,-y,1/2+z
_cell_length_a                   16.5833(6)
_cell_length_b                   16.5833(6)
_cell_length_c                   14.5887(8)
_cell_angle_alpha                90
_cell_angle_beta                 90
_cell_angle_gamma                90
_cell_volume                     4011.98
_exptl_crystal_colour            colorless
_exptl_crystal_description       rod
_cell_formula_units_Z            4
loop_
_atom_site_label
_atom_site_type_symbol
_atom_site_fract_x
_atom_site_fract_y
_atom_site_fract_z
O1 O 1.03278(18) 0.95031(14) 0.2087(3)
H1 H 0.9856 0.9628 0.1709
C1 C 1.0957(2) 0.8415(2) 0.2823(2)
H2 H 1.1479 0.8797 0.2954
H3 H 1.1152 0.7791 0.2751
H4 H 1.0535 0.8463 0.3394
C2 C 1.0549(2) 0.86822(18) 0.1957(3)
C3 C 0.9809(2) 0.81899(19) 0.1807(2)
C4 C 0.9240(2) 0.77639(19) 0.1708(2)
C5 C 0.8592(2) 0.71931(19) 0.1612(2)
C6 C 0.7842(2) 0.74352(19) 0.1714(2)
C7 C 0.7098(2) 0.7637(2) 0.1894(2)
C8 C 0.6866(2) 0.7606(2) 0.2830(3)
C9 C 0.6748(2) 0.7573(2) 0.3644(3)
C10 C 0.6639(2) 0.7544(2) 0.4579(3)
C11 C 0.6581(2) 0.7536(2) 0.5393(3)
C12 C 0.6490(2) 0.7532(2) 0.6366(2)
C13 C 0.67359(19) 0.8166(2) 0.6830(2)
C14 C 0.70074(19) 0.8776(2) 0.7302(2)
C15 C 0.7816(2) 0.8728(2) 0.7646(2)
C16 C 0.8484(2) 0.8705(3) 0.7947(3)
C17 C 0.9357(3) 0.8680(3) 0.8283(4)
O2 O 0.9632(2) 0.9484(2) 0.8423(3)
H5 H 0.9599 0.9783 0.7845
C18 C 0.6496(2) 0.7938(2) 0.1178(3)
C19 C 0.6871(2) 0.7890(2) 0.0226(3)
H6 H 0.7394 0.8287 0.0193
H7 H 0.6429 0.8077 -0.0284
H8 H 0.7058 0.7272 0.0089
C20 C 0.6293(3) 0.8816(2) 0.1398(4)
H9 H 0.6009 0.8850 0.2071
H10 H 0.5881 0.9051 0.0881
H11 H 0.6845 0.9174 0.1399
C21 C 0.5718(2) 0.7435(3) 0.1227(3)
H12 H 0.5463 0.7501 0.1911
H13 H 0.5286 0.7688 0.0743
C22 C 0.5809(2) 0.6547(2) 0.1025(4)
H14 H 0.6168 0.6504 0.0401
H15 H 0.6177 0.6298 0.1575
C23 C 0.6162(2) 0.6762(2) 0.6818(2)
C24 C 0.5322(2) 0.6593(3) 0.6443(3)
H16 H 0.4915 0.7077 0.6647
H17 H 0.5102 0.6022 0.6716
H18 H 0.5347 0.6560 0.5697
C25 C 0.6726(2) 0.6071(2) 0.6557(3)
H19 H 0.6507 0.5521 0.6882
H20 H 0.6690 0.5983 0.5818
C26 C 0.7605(2) 0.6182(2) 0.6816(3)
H21 H 0.7819 0.6758 0.6551
H22 H 0.7660 0.6195 0.7560
C27 C 0.8118(3) 0.5517(3) 0.6440(5)
H23 H 0.8097 0.5411 0.5710
C28 C 0.8584(3) 0.5062(4) 0.6922(8)
H24 H 0.8619 0.5136 0.7567
H25 H 0.8892 0.4651 0.6633
C29 C 0.6111(2) 0.6866(2) 0.7841(3)
H26 H 0.6708 0.7002 0.8113
H27 H 0.5887 0.6312 0.8151
H28 H 0.5701 0.7361 0.8001
C30 C 0.65170(19) 0.9533(2) 0.7502(2)
C31 C 0.57353(19) 0.9515(2) 0.6953(3)
H29 H 0.5874 0.9508 0.6223
H30 H 0.5378 1.0048 0.7114
H31 H 0.5394 0.8975 0.7131
C32 C 0.6332(2) 0.9569(2) 0.8533(3)
H32 H 0.5969 0.9048 0.8727
H33 H 0.6000 1.0121 0.8685
H34 H 0.6895 0.9565 0.8918
C33 C 0.7016(2) 1.0269(2) 0.7233(3)
H35 H 0.7581 1.0268 0.7615
H36 H 0.6680 1.0816 0.7391
H37 H 0.7145 1.0249 0.6500
C34 C 0.9817(3) 0.8196(3) 0.7464(4)
H38 H 0.9528 0.7613 0.7360
H39 H 1.0447 0.8105 0.7652
H40 H 0.9784 0.8547 0.6834
C35 C 0.9397(4) 0.8267(3) 0.9175(4)
H41 H 0.9047 0.8603 0.9679
H42 H 1.0023 0.8230 0.9399
H43 H 0.9151 0.7660 0.9109
C36 C 0.8828(2) 0.63128(19) 0.1454(3)
C37 C 0.9381(3) 0.6263(2) 0.0637(3)
H44 H 0.9072 0.6496 0.0034
H45 H 0.9550 0.5636 0.0520
H46 H 0.9921 0.6620 0.0766
C38 C 0.9269(3) 0.6022(2) 0.2314(3)
H47 H 0.9786 0.6410 0.2445
H48 H 0.9475 0.5404 0.2211
H49 H 0.8860 0.6043 0.2898
C39 C 0.8083(2) 0.5797(2) 0.1312(3)
H50 H 0.7696 0.5839 0.1914
H51 H 0.8263 0.5171 0.1209
H52 H 0.7756 0.6009 0.0711
C40 C 1.1082(3) 0.8629(3) 0.1138(3)
H53 H 1.0762 0.8856 0.0539
H54 H 1.1252 0.8002 0.1023
H55 H 1.1623 0.8989 0.1252
C41 C 0.4407(7) 0.6190(6) 0.1115(7)
H56 H 0.4305 0.6712 0.1357
H57 H 0.3975 0.5821 0.1031
C42 C 0.5116(6) 0.5987(6) 0.0904(7)
H58 H 0.5222 0.5392 0.0630
H59? H 0.6276 0.6271 0.1446
H60? H 0.5939 0.6438 0.0303
C43? C 0.4577(7) 0.5805(6) 0.0642(8)
H61? H 0.4837 0.5703 0.0073
H62? H 0.4052 0.5597 0.0752
C44? C 0.4953(7) 0.6244(7) 0.1293(10)
H63? H 0.4682 0.6375 0.1949
loop_
_geom_bond_atom_site_label_1
_geom_bond_atom_site_label_2
_geom_bond_site_symmetry_1
_geom_bond_site_symmetry_2
O1 H1 1_555 1_555
C1 H2 1_555 1_555
H3 C1 1_555 1_555
H4 C1 1_555 1_555
C2 O1 1_555 1_555
C3 C2 1_555 1_555
C4 C3 1_555 1_555
C5 C4 1_555 1_555
C6 C5 1_555 1_555
C7 C6 1_555 1_555
C8 C7 1_555 1_555
C9 C8 1_555 1_555
C10 C9 1_555 1_555
C11 C10 1_555 1_555
C12 C11 1_555 1_555
C13 C12 1_555 1_555
C14 C13 1_555 1_555
C15 C14 1_555 1_555
C16 C15 1_555 1_555
C17 C16 1_555 1_555
O2 C17 1_555 1_555
H5 O2 1_555 1_555
C18 C7 1_555 1_555
C19 C18 1_555 1_555
H6 C19 1_555 1_555
H7 C19 1_555 1_555
H8 C19 1_555 1_555
C20 C18 1_555 1_555
H9 C20 1_555 1_555
H10 C20 1_555 1_555
H11 C20 1_555 1_555
C21 C18 1_555 1_555
H12 C21 1_555 1_555
H13 C21 1_555 1_555
C22 C21 1_555 1_555
H14 C22 1_555 1_555
H15 C22 1_555 1_555
C23 C12 1_555 1_555
C24 C23 1_555 1_555
H16 C24 1_555 1_555
H17 C24 1_555 1_555
H18 C24 1_555 1_555
C25 C23 1_555 1_555
H19 C25 1_555 1_555
H20 C25 1_555 1_555
C26 C25 1_555 1_555
H21 C26 1_555 1_555
H22 C26 1_555 1_555
C27 C26 1_555 1_555
H23 C27 1_555 1_555
C28 C27 1_555 1_555
H24 C28 1_555 1_555
H25 C28 1_555 1_555
C29 C23 1_555 1_555
H26 C29 1_555 1_555
H27 C29 1_555 1_555
H28 C29 1_555 1_555
C30 C14 1_555 1_555
C31 C30 1_555 1_555
H29 C31 1_555 1_555
H30 C31 1_555 1_555
H31 C31 1_555 1_555
C32 C30 1_555 1_555
H32 C32 1_555 1_555
H33 C32 1_555 1_555
H34 C32 1_555 1_555
C33 C30 1_555 1_555
H35 C33 1_555 1_555
H36 C33 1_555 1_555
H37 C33 1_555 1_555
C34 C17 1_555 1_555
H38 C34 1_555 1_555
H39 C34 1_555 1_555
H40 C34 1_555 1_555
C35 C17 1_555 1_555
H41 C35 1_555 1_555
H42 C35 1_555 1_555
H43 C35 1_555 1_555
C36 C5 1_555 1_555
C37 C36 1_555 1_555
H44 C37 1_555 1_555
H45 C37 1_555 1_555
H46 C37 1_555 1_555
C38 C36 1_555 1_555
H47 C38 1_555 1_555
H48 C38 1_555 1_555
H49 C38 1_555 1_555
C39 C36 1_555 1_555
H50 C39 1_555 1_555
H51 C39 1_555 1_555
H52 C39 1_555 1_555
C40 C2 1_555 1_555
H53 C40 1_555 1_555
H54 C40 1_555 1_555
H55 C40 1_555 1_555
C41 H56 1_555 1_555
H57 C41 1_555 1_555
C42 C22 1_555 1_555
H58 C42 1_555 1_555
C1 C2 1_555 1_555
C41 C42 1_555 1_555

#END
