
#######################################################################
#
#                 Cambridge Crystallographic Data Centre
#                                CCDC 
#
#######################################################################
#
# If this CIF has been generated from an entry in the Cambridge 
# Structural Database, then it will include bibliographic, chemical, 
# crystal, experimental, refinement or atomic coordinate data resulting 
# from the CCDC's data processing and validation procedures.
#
#######################################################################

data_CAJGEB
_chemical_formula_moiety         'C20 H23 N1 O5'
_chemical_name_systematic        
4-Methylene-3-((4-nitrobenzyl)oxy)decahydronaphtho[1,8a-c]furan-1-one
_symmetry_cell_setting           monoclinic
_symmetry_space_group_name_H-M   'P 21/c'
_symmetry_Int_Tables_number      14
_space_group_name_Hall           '-P 2ybc'
loop_
_symmetry_equiv_pos_site_id
_symmetry_equiv_pos_as_xyz
1 x,y,z
2 -x,1/2+y,1/2-z
3 -x,-y,-z
4 x,1/2-y,1/2+z
_cell_length_a                   17.3171(10)
_cell_length_b                   8.9956(7)
_cell_length_c                   12.4459(8)
_cell_angle_alpha                90
_cell_angle_beta                 110.0900(10)
_cell_angle_gamma                90
_cell_volume                     1820.83
_cell_formula_units_Z            4
loop_
_atom_site_label
_atom_site_type_symbol
_atom_site_fract_x
_atom_site_fract_y
_atom_site_fract_z
N1 N -0.14219(14) 0.1602(3) 1.00379(19)
O1 O 0.14242(8) 0.4644(2) 0.86987(12)
O2 O 0.18191(9) 0.4576(2) 0.71101(12)
O3 O 0.22768(11) 0.2681(3) 0.63590(15)
O4 O -0.21553(12) 0.1893(3) 0.97311(18)
O5 O -0.11028(13) 0.0597(3) 1.06989(18)
C1 C -0.09070(13) 0.2477(3) 0.95439(18)
C2 C -0.00913(14) 0.2114(3) 0.98236(19)
H1 H 0.0132 0.1326 1.0316
C3 C 0.03906(13) 0.2932(3) 0.93650(18)
H2 H 0.0943 0.2689 0.9546
C4 C 0.00636(12) 0.4111(3) 0.86378(17)
C5 C -0.07589(13) 0.4455(3) 0.83828(19)
H3 H -0.0985 0.5250 0.7900
C6 C -0.12513(14) 0.3634(4) 0.8834(2)
H4 H -0.1804 0.3868 0.8657
C7 C 0.05780(12) 0.4997(3) 0.81144(19)
H5 H 0.0427 0.4758 0.7308
H6 H 0.0487 0.6052 0.8184
C8 C 0.19729(12) 0.5230(3) 0.82150(17)
H7 H 0.1927 0.6315 0.8159
C9 C 0.28438(12) 0.4759(3) 0.89648(17)
H8 H 0.2842 0.4477 0.9725
C10 C 0.30127(12) 0.3361(3) 0.83511(16)
C11 C 0.23565(13) 0.3445(3) 0.71772(19)
C12 C 0.29015(15) 0.1926(3) 0.8947(2)
H9 H 0.3233 0.1989 0.9752
H10 H 0.2331 0.1847 0.8893
C13 C 0.31381(19) 0.0529(4) 0.8450(3)
H11 H 0.3095 -0.0325 0.8903
H12 H 0.2761 0.0383 0.7675
C14 C 0.40101(18) 0.0643(4) 0.8439(3)
H13 H 0.4392 0.0689 0.9220
H14 H 0.4138 -0.0238 0.8083
C15 C 0.41142(15) 0.1998(3) 0.7798(2)
H15 H 0.3774 0.1899 0.6999
H16 H 0.4683 0.2065 0.7838
C16 C 0.38815(13) 0.3416(3) 0.82749(19)
H17 H 0.4265 0.3507 0.9062
C17 C 0.39988(17) 0.4805(3) 0.7645(2)
H18 H 0.4578 0.4909 0.7752
H19 H 0.3704 0.4677 0.6833
C18 C 0.37022(17) 0.6224(4) 0.8043(3)
H20 H 0.4133 0.6967 0.8215
H21 H 0.3229 0.6605 0.7431
C19 C 0.34713(13) 0.5959(3) 0.9088(2)
C20 C 0.37966(16) 0.6689(4) 1.0047(3)
H22 H 0.3640 0.6469 1.0673
H23 H 0.4184 0.7428 1.0103
loop_
_geom_bond_atom_site_label_1
_geom_bond_atom_site_label_2
_geom_bond_site_symmetry_1
_geom_bond_site_symmetry_2
N1 O4 1_555 1_555
O1 C7 1_555 1_555
O2 C8 1_555 1_555
O3 C11 1_555 1_555
O5 N1 1_555 1_555
C1 N1 1_555 1_555
C2 C1 1_555 1_555
H1 C2 1_555 1_555
C3 C2 1_555 1_555
H2 C3 1_555 1_555
C4 C3 1_555 1_555
C5 C4 1_555 1_555
H3 C5 1_555 1_555
C6 C1 1_555 1_555
H4 C6 1_555 1_555
C7 C4 1_555 1_555
H5 C7 1_555 1_555
H6 C7 1_555 1_555
C8 O1 1_555 1_555
H7 C8 1_555 1_555
C9 C8 1_555 1_555
H8 C9 1_555 1_555
C10 C9 1_555 1_555
C11 O2 1_555 1_555
C12 C10 1_555 1_555
H9 C12 1_555 1_555
H10 C12 1_555 1_555
C13 C12 1_555 1_555
H11 C13 1_555 1_555
H12 C13 1_555 1_555
C14 C13 1_555 1_555
H13 C14 1_555 1_555
H14 C14 1_555 1_555
C15 C14 1_555 1_555
H15 C15 1_555 1_555
H16 C15 1_555 1_555
C16 C10 1_555 1_555
H17 C16 1_555 1_555
C17 C16 1_555 1_555
H18 C17 1_555 1_555
H19 C17 1_555 1_555
C18 C17 1_555 1_555
H20 C18 1_555 1_555
H21 C18 1_555 1_555
C19 C9 1_555 1_555
C20 C19 1_555 1_555
H22 C20 1_555 1_555
H23 C20 1_555 1_555
C5 C6 1_555 1_555
C10 C11 1_555 1_555
C15 C16 1_555 1_555
C18 C19 1_555 1_555

#END
