
#######################################################################
#
#                 Cambridge Crystallographic Data Centre
#                                CCDC 
#
#######################################################################
#
# If this CIF has been generated from an entry in the Cambridge 
# Structural Database, then it will include bibliographic, chemical, 
# crystal, experimental, refinement or atomic coordinate data resulting 
# from the CCDC's data processing and validation procedures.
#
#######################################################################

data_CAJSIS
_chemical_formula_moiety         'C34 H36 N2'
_chemical_name_systematic        
4,4'-Deca-1,3,5,7,9-pentayne-1,10-diylbis(N,N-diisopropylaniline)
_symmetry_cell_setting           triclinic
_symmetry_space_group_name_H-M   'P -1'
_symmetry_Int_Tables_number      2
_space_group_name_Hall           '-P 1'
loop_
_symmetry_equiv_pos_site_id
_symmetry_equiv_pos_as_xyz
1 x,y,z
2 -x,-y,-z
_cell_length_a                   11.6863(11)
_cell_length_b                   12.8737(13)
_cell_length_c                   18.4475(18)
_cell_angle_alpha                93.216(4)
_cell_angle_beta                 95.317(4)
_cell_angle_gamma                93.884(3)
_cell_volume                     2751.62
_exptl_crystal_colour            colorless
_exptl_crystal_description       rod
_cell_formula_units_Z            4
loop_
_atom_site_label
_atom_site_type_symbol
_atom_site_fract_x
_atom_site_fract_y
_atom_site_fract_z
N1 N 1.44906(8) -0.69061(6) 0.33543(5)
N2 N 0.61866(7) 0.83982(6) 0.37394(5)
C1 C 1.33344(12) -0.80461(10) 0.41304(8)
H1 H 1.2936(12) -0.7529(11) 0.4388(8)
H2 H 1.3393(12) -0.8638(11) 0.4469(8)
H3 H 1.2817(13) -0.8307(11) 0.3679(9)
C2 C 1.45191(10) -0.76704(8) 0.39245(6)
H4 H 1.4831(10) -0.8283(9) 0.3682(7)
C3 C 1.39275(8) -0.60060(7) 0.34159(6)
C4 C 1.36114(10) -0.56256(8) 0.40973(6)
H5 H 1.3810(10) -0.5994(9) 0.4538(7)
C5 C 1.30588(10) -0.47250(8) 0.41684(7)
H6 H 1.2855(10) -0.4507(9) 0.4646(7)
C6 C 1.27931(9) -0.41298(8) 0.35727(6)
C7 C 1.22445(9) -0.31886(8) 0.36746(6)
C8 C 1.17873(9) -0.23945(8) 0.37958(6)
C9 C 1.13106(9) -0.14782(8) 0.39190(6)
C10 C 1.09224(9) -0.06380(8) 0.40234(6)
C11 C 1.05090(9) 0.03062(8) 0.41324(6)
C12 C 1.01361(9) 0.11578(8) 0.42164(6)
C13 C 0.96798(9) 0.20900(8) 0.42764(6)
C14 C 0.92514(9) 0.29207(8) 0.42798(6)
C15 C 0.87749(9) 0.38510(8) 0.42472(6)
C16 C 0.83475(9) 0.46733(8) 0.41810(6)
C17 C 0.78050(9) 0.56161(8) 0.40928(6)
C18 C 0.66422(9) 0.55931(8) 0.38330(6)
H7 H 0.6199(10) 0.4902(9) 0.3729(6)
C19 C 0.61075(9) 0.64998(8) 0.37152(6)
H8 H 0.5301(10) 0.6413(9) 0.3507(6)
C20 C 0.67098(9) 0.74858(8) 0.38575(6)
C21 C 0.68352(9) 0.93603(8) 0.35542(6)
H9 H 0.6254(10) 0.9745(9) 0.3284(6)
C22 C 0.73086(10) 1.00536(9) 0.42252(7)
H10 H 0.6712(12) 1.0177(10) 0.4547(8)
H11 H 0.7949(12) 0.9762(10) 0.4503(7)
H12 H 0.7601(12) 1.0742(11) 0.4073(8)
C23 C 0.77300(11) 0.91721(10) 0.30195(7)
H13 H 0.8419(11) 0.8894(9) 0.3242(7)
H14 H 0.7961(12) 0.9853(11) 0.2832(8)
H15 H 0.7392(12) 0.8696(11) 0.2596(8)
C24 C 0.84039(9) 0.65929(8) 0.42523(6)
H16 H 0.9188(10) 0.6646(8) 0.4454(6)
C25 C 0.78744(9) 0.74974(8) 0.41435(6)
H17 H 0.8309(10) 0.8164(9) 0.4292(7)
C26 C 1.36553(9) -0.53999(8) 0.28165(6)
H18 H 1.3828(10) -0.5601(9) 0.2334(7)
C27 C 1.31092(9) -0.44879(8) 0.28966(6)
H19 H 1.2962(10) -0.4092(9) 0.2476(7)
C28 C 1.48433(9) -0.72914(8) 0.26473(6)
H20 H 1.4883(9) -0.6696(9) 0.2338(6)
C29 C 1.60591(10) -0.76567(9) 0.27249(7)
H21 H 1.6610(11) -0.7125(10) 0.2978(7)
H22 H 1.6322(10) -0.7802(9) 0.2221(7)
H23 H 1.6104(11) -0.8326(11) 0.2991(8)
C30 C 1.39660(11) -0.81163(10) 0.22726(7)
H24 H 1.3914(12) -0.8753(11) 0.2551(8)
H25 H 1.4211(11) -0.8354(10) 0.1803(8)
H26 H 1.3189(13) -0.7861(10) 0.2191(8)
C31 C 1.53993(13) -0.73478(11) 0.45719(7)
H27 H 1.5169(12) -0.6789(11) 0.4890(8)
H28 H 1.5539(13) -0.7957(12) 0.4853(9)
H29 H 1.6167(13) -0.7141(11) 0.4385(8)
C32 C 0.49317(9) 0.83532(8) 0.35457(6)
H30 H 0.4624(9) 0.7764(8) 0.3785(6)
C33 C 0.46044(11) 0.81909(10) 0.27289(7)
H31 H 0.3754(12) 0.8116(10) 0.2634(7)
H32 H 0.4945(11) 0.7558(10) 0.2526(7)
H33 H 0.4910(12) 0.8812(11) 0.2476(8)
C34 C 0.44089(10) 0.93101(9) 0.38635(8)
H34 H 0.3563(12) 0.9210(10) 0.3793(7)
H35 H 0.4661(11) 0.9451(10) 0.4398(8)
H36 H 0.4637(11) 0.9950(10) 0.3604(7)
N3 N 0.81692(7) 0.62280(6) 0.13134(5)
N4 N 0.07565(7) 2.19125(7) 0.16390(5)
C35 C 0.94204(12) 0.67899(10) 0.24623(7)
H37 H 0.9628(11) 0.7545(11) 0.2376(8)
H38 H 1.0085(13) 0.6593(11) 0.2792(9)
H39 H 0.8707(13) 0.6723(11) 0.2729(9)
C36 C 0.92620(9) 0.61005(9) 0.17628(6)
H40 H 0.9164(9) 0.5376(9) 0.1923(6)
C37 C 0.77615(9) 0.71926(8) 0.12189(6)
C38 C 0.65680(9) 0.73325(8) 0.11317(6)
H41 H 0.6019(10) 0.6766(9) 0.1148(6)
C39 C 0.61671(9) 0.82953(8) 0.10195(6)
H42 H 0.5327(11) 0.8378(9) 0.0974(7)
C40 C 0.69178(9) 0.91782(8) 0.09897(6)
C41 C 0.64795(10) 1.01637(8) 0.08782(6)
C42 C 0.60657(10) 1.09832(8) 0.07738(6)
C43 C 0.55937(10) 1.19059(8) 0.06867(6)
C44 C 0.51513(9) 1.27282(8) 0.06446(6)
C45 C 0.46683(9) 1.36526(8) 0.06602(6)
C46 C 0.42686(9) 1.44970(8) 0.07235(6)
C47 C 0.38443(9) 1.54367(8) 0.08262(6)
C48 C 0.34760(9) 1.62855(8) 0.09315(6)
C49 C 0.30528(9) 1.72267(8) 0.10533(6)
C50 C 0.26567(9) 1.80530(8) 0.11760(6)
C51 C 0.21742(9) 1.90203(8) 0.13045(6)
C52 C 0.22529(9) 1.97942(8) 0.08053(6)
H43 H 0.2668(11) 1.9694(9) 0.0379(7)
C53 C 0.17777(9) 2.07279(8) 0.09109(6)
H44 H 0.1863(10) 2.1234(9) 0.0547(7)
C54 C 0.11881(8) 2.09546(8) 0.15296(6)
C55 C 0.02942(9) 2.21993(8) 0.23338(6)
H45 H 0.0675(9) 2.1772(8) 0.2706(6)
C56 C -0.10031(10) 2.19566(10) 0.22912(7)
H46 H -0.1411(11) 2.2390(10) 0.1943(7)
H47 H -0.1217(10) 2.1219(10) 0.2132(7)
H48 H -0.1274(11) 2.2090(10) 0.2764(8)
C57 C 0.06432(11) 2.33313(9) 0.25906(7)
H49 H 0.0253(12) 2.3812(11) 0.2251(8)
H50 H 0.0402(11) 2.3447(10) 0.3098(8)
H51 H 0.1482(13) 2.3466(10) 0.2624(8)
C58 C 0.04292(9) 2.25635(8) 0.10269(6)
H52 H -0.0056(10) 2.3052(9) 0.1244(6)
C59 C -0.03384(11) 2.19711(10) 0.04072(7)
H53 H 0.0065(11) 2.1448(10) 0.0116(8)
H54 H -0.0633(11) 2.2447(10) 0.0054(8)
H55 H -0.1003(12) 2.1603(10) 0.0603(8)
C60 C 0.14372(11) 2.32209(9) 0.07746(8)
H56 H 0.1886(13) 2.3597(12) 0.1205(9)
H57 H 0.1972(12) 2.2788(11) 0.0498(8)
H58 H 0.1140(12) 2.3736(11) 0.0452(8)
C61 C 0.15929(9) 1.92317(8) 0.19194(6)
H59 H 0.1526(10) 1.8713(9) 0.2287(7)
C62 C 0.11043(9) 2.01668(8) 0.20274(6)
H60 H 0.0710(10) 2.0261(9) 0.2459(7)
C63 C 0.73681(9) 0.52845(8) 0.12039(6)
H61 H 0.6706(9) 0.5439(8) 0.0857(6)
C64 C 0.68809(11) 0.49859(10) 0.19066(7)
H62 H 0.7488(12) 0.4802(10) 0.2278(8)
H63 H 0.6467(12) 0.5583(10) 0.2124(8)
H64 H 0.6320(12) 0.4358(11) 0.1801(7)
C65 C 0.79318(11) 0.43844(9) 0.08441(8)
H65 H 0.8550(12) 0.4127(10) 0.1188(8)
H66 H 0.8236(12) 0.4591(10) 0.0380(8)
H67 H 0.7337(12) 0.3781(10) 0.0719(7)
C66 C 1.03106(10) 0.61500(10) 0.13310(8)
H68 H 1.0520(12) 0.6885(11) 0.1175(8)
H69 H 1.0183(12) 0.5672(11) 0.0875(8)
H70 H 1.0983(13) 0.5930(11) 0.1633(8)
C67 C 0.85095(9) 0.80897(8) 0.11856(6)
H71 H 0.9346(10) 0.8026(9) 0.1227(6)
C68 C 0.81053(9) 0.90502(8) 0.10749(6)
H72 H 0.8660(10) 0.9638(9) 0.1046(7)
loop_
_geom_bond_atom_site_label_1
_geom_bond_atom_site_label_2
_geom_bond_site_symmetry_1
_geom_bond_site_symmetry_2
N1 C2 1_555 1_555
N2 C20 1_555 1_555
C1 H1 1_555 1_555
H2 C1 1_555 1_555
H3 C1 1_555 1_555
C2 C1 1_555 1_555
H4 C2 1_555 1_555
C3 N1 1_555 1_555
C4 C3 1_555 1_555
H5 C4 1_555 1_555
C5 C4 1_555 1_555
H6 C5 1_555 1_555
C6 C5 1_555 1_555
C7 C6 1_555 1_555
C8 C7 1_555 1_555
C9 C8 1_555 1_555
C10 C9 1_555 1_555
C11 C10 1_555 1_555
C12 C11 1_555 1_555
C13 C12 1_555 1_555
C14 C13 1_555 1_555
C15 C14 1_555 1_555
C16 C15 1_555 1_555
C17 C16 1_555 1_555
C18 C17 1_555 1_555
H7 C18 1_555 1_555
C19 C18 1_555 1_555
H8 C19 1_555 1_555
C20 C19 1_555 1_555
C21 N2 1_555 1_555
H9 C21 1_555 1_555
C22 C21 1_555 1_555
H10 C22 1_555 1_555
H11 C22 1_555 1_555
H12 C22 1_555 1_555
C23 C21 1_555 1_555
H13 C23 1_555 1_555
H14 C23 1_555 1_555
H15 C23 1_555 1_555
C24 C17 1_555 1_555
H16 C24 1_555 1_555
C25 C20 1_555 1_555
H17 C25 1_555 1_555
C26 C3 1_555 1_555
H18 C26 1_555 1_555
C27 C6 1_555 1_555
H19 C27 1_555 1_555
C28 N1 1_555 1_555
H20 C28 1_555 1_555
C29 C28 1_555 1_555
H21 C29 1_555 1_555
H22 C29 1_555 1_555
H23 C29 1_555 1_555
C30 C28 1_555 1_555
H24 C30 1_555 1_555
H25 C30 1_555 1_555
H26 C30 1_555 1_555
C31 C2 1_555 1_555
H27 C31 1_555 1_555
H28 C31 1_555 1_555
H29 C31 1_555 1_555
C32 N2 1_555 1_555
H30 C32 1_555 1_555
C33 C32 1_555 1_555
H31 C33 1_555 1_555
H32 C33 1_555 1_555
H33 C33 1_555 1_555
C34 C32 1_555 1_555
H34 C34 1_555 1_555
H35 C34 1_555 1_555
H36 C34 1_555 1_555
N3 C36 1_555 1_555
N4 C54 1_555 1_555
C35 H37 1_555 1_555
H38 C35 1_555 1_555
H39 C35 1_555 1_555
C36 C35 1_555 1_555
H40 C36 1_555 1_555
C37 N3 1_555 1_555
C38 C37 1_555 1_555
H41 C38 1_555 1_555
C39 C38 1_555 1_555
H42 C39 1_555 1_555
C40 C39 1_555 1_555
C41 C40 1_555 1_555
C42 C41 1_555 1_555
C43 C42 1_555 1_555
C44 C43 1_555 1_555
C45 C44 1_555 1_555
C46 C45 1_555 1_555
C47 C46 1_555 1_555
C48 C47 1_555 1_555
C49 C48 1_555 1_555
C50 C49 1_555 1_555
C51 C50 1_555 1_555
C52 C51 1_555 1_555
H43 C52 1_555 1_555
C53 C52 1_555 1_555
H44 C53 1_555 1_555
C54 C53 1_555 1_555
C55 N4 1_555 1_555
H45 C55 1_555 1_555
C56 C55 1_555 1_555
H46 C56 1_555 1_555
H47 C56 1_555 1_555
H48 C56 1_555 1_555
C57 C55 1_555 1_555
H49 C57 1_555 1_555
H50 C57 1_555 1_555
H51 C57 1_555 1_555
C58 N4 1_555 1_555
H52 C58 1_555 1_555
C59 C58 1_555 1_555
H53 C59 1_555 1_555
H54 C59 1_555 1_555
H55 C59 1_555 1_555
C60 C58 1_555 1_555
H56 C60 1_555 1_555
H57 C60 1_555 1_555
H58 C60 1_555 1_555
C61 C51 1_555 1_555
H59 C61 1_555 1_555
C62 C54 1_555 1_555
H60 C62 1_555 1_555
C63 N3 1_555 1_555
H61 C63 1_555 1_555
C64 C63 1_555 1_555
H62 C64 1_555 1_555
H63 C64 1_555 1_555
H64 C64 1_555 1_555
C65 C63 1_555 1_555
H65 C65 1_555 1_555
H66 C65 1_555 1_555
H67 C65 1_555 1_555
C66 C36 1_555 1_555
H68 C66 1_555 1_555
H69 C66 1_555 1_555
H70 C66 1_555 1_555
C67 C37 1_555 1_555
H71 C67 1_555 1_555
C68 C40 1_555 1_555
H72 C68 1_555 1_555
C24 C25 1_555 1_555
C26 C27 1_555 1_555
C61 C62 1_555 1_555
C67 C68 1_555 1_555

#END
