
#######################################################################
#
#                 Cambridge Crystallographic Data Centre
#                                CCDC 
#
#######################################################################
#
# If this CIF has been generated from an entry in the Cambridge 
# Structural Database, then it will include bibliographic, chemical, 
# crystal, experimental, refinement or atomic coordinate data resulting 
# from the CCDC's data processing and validation procedures.
#
#######################################################################

data_CAJSUE
_chemical_formula_moiety         'C30 H36 N2'
_chemical_name_systematic        
4,4'-Hexa-1,3,5-triyne-1,6-diylbis(N,N-diisopropylaniline)
_symmetry_cell_setting           monoclinic
_symmetry_space_group_name_H-M   'P 21/c'
_symmetry_Int_Tables_number      14
_space_group_name_Hall           '-P 2ybc'
loop_
_symmetry_equiv_pos_site_id
_symmetry_equiv_pos_as_xyz
1 x,y,z
2 -x,1/2+y,1/2-z
3 -x,-y,-z
4 x,1/2-y,1/2+z
_cell_length_a                   7.2596(5)
_cell_length_b                   7.5727(5)
_cell_length_c                   22.6451(17)
_cell_angle_alpha                90
_cell_angle_beta                 90.463(3)
_cell_angle_gamma                90
_cell_volume                     1244.87
_exptl_crystal_colour            yellow
_exptl_crystal_description       plate
_cell_formula_units_Z            2
loop_
_atom_site_label
_atom_site_type_symbol
_atom_site_fract_x
_atom_site_fract_y
_atom_site_fract_z
N1 N 0.10722(14) 0.55851(12) 0.36654(4)
C1 C 0.48128(17) 0.50001(16) 0.02589(5)
C2 C 0.43588(17) 0.49950(16) 0.08453(6)
C3 C 0.39206(17) 0.50246(16) 0.13577(6)
C4 C 0.32867(17) 0.50955(16) 0.19500(6)
C5 C 0.41527(18) 0.61369(17) 0.23809(6)
H1 H 0.5281(19) 0.6799(17) 0.2277(6)
C6 C 0.34648(17) 0.62706(16) 0.29427(6)
H2 H 0.4113(19) 0.6963(18) 0.3221(6)
C7 C 0.18382(16) 0.53933(14) 0.31129(5)
C8 C 0.09951(18) 0.43232(16) 0.26755(6)
H3 H -0.0141(19) 0.3682(17) 0.2771(6)
C9 C 0.17050(18) 0.41763(16) 0.21180(6)
H4 H 0.1087(18) 0.3442(18) 0.1831(6)
C10 C 0.19318(17) 0.67626(16) 0.41081(5)
H5 H 0.2630(17) 0.7665(15) 0.3882(5)
C11 C 0.32855(19) 0.57633(19) 0.45017(6)
H6 H 0.3901(18) 0.6607(18) 0.4776(6)
H7 H 0.262(2) 0.4858(19) 0.4751(6)
H8 H 0.427(2) 0.5147(19) 0.4263(7)
C12 C 0.05065(19) 0.77541(17) 0.44681(6)
H9 H -0.0175(19) 0.6951(18) 0.4741(6)
H10 H -0.0427(19) 0.8363(18) 0.4203(6)
H11 H 0.1168(18) 0.8682(18) 0.4713(6)
C13 C -0.02117(17) 0.42619(15) 0.39085(6)
H12 H -0.0243(16) 0.4532(14) 0.4337(5)
C14 C 0.0475(2) 0.23626(16) 0.38661(7)
H13 H -0.0375(19) 0.1558(18) 0.4109(6)
H14 H 0.174(2) 0.2244(18) 0.4022(6)
H15 H 0.0521(19) 0.1896(18) 0.3454(7)
C15 C -0.21898(19) 0.45208(18) 0.36972(7)
H16 H -0.235(2) 0.4328(18) 0.3257(7)
H17 H -0.261(2) 0.5726(19) 0.3778(6)
H18 H -0.304(2) 0.3683(19) 0.3921(7)
N1B N 0.89278(14) 0.44149(12) -0.36654(4)
C1B C 0.51872(17) 0.49999(16) -0.02589(5)
C2B C 0.56412(17) 0.50050(16) -0.08453(6)
C3B C 0.60794(17) 0.49754(16) -0.13577(6)
C4B C 0.67133(17) 0.49045(16) -0.19500(6)
C5B C 0.58473(18) 0.38631(17) -0.23809(6)
H1B H 0.4719(19) 0.3201(17) -0.2277(6)
C6B C 0.65352(17) 0.37294(16) -0.29427(6)
H2B H 0.5887(19) 0.3037(18) -0.3221(6)
C7B C 0.81618(16) 0.46067(14) -0.31129(5)
C8B C 0.90049(18) 0.56768(16) -0.26755(6)
H3B H 1.0141(19) 0.6318(17) -0.2771(6)
C9B C 0.82950(18) 0.58237(16) -0.21180(6)
H4B H 0.8913(18) 0.6558(18) -0.1831(6)
C10B C 0.80682(17) 0.32374(16) -0.41081(5)
H5B H 0.7370(17) 0.2335(15) -0.3882(5)
C11B C 0.67145(19) 0.42367(19) -0.45017(6)
H6B H 0.6099(18) 0.3393(18) -0.4776(6)
H7B H 0.738(2) 0.5142(19) -0.4751(6)
H8B H 0.573(2) 0.4853(19) -0.4263(7)
C12B C 0.94935(19) 0.22459(17) -0.44681(6)
H9B H 1.0175(19) 0.3049(18) -0.4741(6)
H10B H 1.0427(19) 0.1637(18) -0.4203(6)
H11B H 0.8832(18) 0.1318(18) -0.4713(6)
C13B C 1.02117(17) 0.57381(15) -0.39085(6)
H12B H 1.0243(16) 0.5468(14) -0.4337(5)
C14B C 0.9525(2) 0.76374(16) -0.38661(7)
H13B H 1.0375(19) 0.8442(18) -0.4109(6)
H14B H 0.826(2) 0.7756(18) -0.4022(6)
H15B H 0.9479(19) 0.8104(18) -0.3454(7)
C15B C 1.21898(19) 0.54792(18) -0.36972(7)
H16B H 1.235(2) 0.5672(18) -0.3257(7)
H17B H 1.261(2) 0.4274(19) -0.3778(6)
H18B H 1.304(2) 0.6317(19) -0.3921(7)
loop_
_geom_bond_atom_site_label_1
_geom_bond_atom_site_label_2
_geom_bond_site_symmetry_1
_geom_bond_site_symmetry_2
N1 C7 1_555 1_555
C1 C2 1_555 1_555
C2 C3 1_555 1_555
C3 C4 1_555 1_555
C4 C5 1_555 1_555
C5 H1 1_555 1_555
C6 C5 1_555 1_555
H2 C6 1_555 1_555
C7 C6 1_555 1_555
C8 C7 1_555 1_555
H3 C8 1_555 1_555
C9 C4 1_555 1_555
H4 C9 1_555 1_555
C10 N1 1_555 1_555
H5 C10 1_555 1_555
C11 C10 1_555 1_555
H6 C11 1_555 1_555
H7 C11 1_555 1_555
H8 C11 1_555 1_555
C12 C10 1_555 1_555
H9 C12 1_555 1_555
H10 C12 1_555 1_555
H11 C12 1_555 1_555
C13 N1 1_555 1_555
H12 C13 1_555 1_555
C14 C13 1_555 1_555
H13 C14 1_555 1_555
H14 C14 1_555 1_555
H15 C14 1_555 1_555
C15 C13 1_555 1_555
H16 C15 1_555 1_555
H17 C15 1_555 1_555
H18 C15 1_555 1_555
N1B C7B 1_555 1_555
C1B C1 1_555 1_555
C2B C1B 1_555 1_555
C3B C2B 1_555 1_555
C4B C3B 1_555 1_555
C5B C4B 1_555 1_555
H1B C5B 1_555 1_555
C6B C5B 1_555 1_555
H2B C6B 1_555 1_555
C7B C6B 1_555 1_555
C8B C7B 1_555 1_555
H3B C8B 1_555 1_555
C9B C4B 1_555 1_555
H4B C9B 1_555 1_555
C10B N1B 1_555 1_555
H5B C10B 1_555 1_555
C11B C10B 1_555 1_555
H6B C11B 1_555 1_555
H7B C11B 1_555 1_555
H8B C11B 1_555 1_555
C12B C10B 1_555 1_555
H9B C12B 1_555 1_555
H10B C12B 1_555 1_555
H11B C12B 1_555 1_555
C13B N1B 1_555 1_555
H12B C13B 1_555 1_555
C14B C13B 1_555 1_555
H13B C14B 1_555 1_555
H14B C14B 1_555 1_555
H15B C14B 1_555 1_555
C15B C13B 1_555 1_555
H16B C15B 1_555 1_555
H17B C15B 1_555 1_555
H18B C15B 1_555 1_555
C8 C9 1_555 1_555
C8B C9B 1_555 1_555

#END
