
#######################################################################
#
#                 Cambridge Crystallographic Data Centre
#                                CCDC 
#
#######################################################################
#
# If this CIF has been generated from an entry in the Cambridge 
# Structural Database, then it will include bibliographic, chemical, 
# crystal, experimental, refinement or atomic coordinate data resulting 
# from the CCDC's data processing and validation procedures.
#
#######################################################################

data_CAJSUD
_chemical_formula_moiety         'C22 H32 N2 O2'
_chemical_name_systematic        
N-(10-(4,5-Dihydro-1,3-oxazol-2-yl)decyl)-3-phenylacrylamide
_symmetry_cell_setting           monoclinic
_symmetry_space_group_name_H-M   'C 2/c'
_symmetry_Int_Tables_number      15
_space_group_name_Hall           '-C 2yn'
loop_
_symmetry_equiv_pos_site_id
_symmetry_equiv_pos_as_xyz
1 x,y,z
2 -x,y,1/2-z
3 1/2+x,1/2+y,z
4 1/2-x,1/2+y,1/2-z
5 -x,-y,-z
6 x,-y,1/2+z
7 1/2-x,1/2-y,-z
8 1/2+x,1/2-y,1/2+z
_cell_length_a                   18.4345(7)
_cell_length_b                   5.0221(2)
_cell_length_c                   42.0473(16)
_cell_angle_alpha                90
_cell_angle_beta                 95.2830(10)
_cell_angle_gamma                90
_cell_volume                     3876.2
_exptl_crystal_colour            colorless
_exptl_crystal_description       plate
_cell_formula_units_Z            8
loop_
_atom_site_label
_atom_site_type_symbol
_atom_site_fract_x
_atom_site_fract_y
_atom_site_fract_z
O1 O 0.69235(4) 0.86424(16) 0.918281(19)
O2 O 1.32566(4) 0.10098(17) 1.19844(2)
N1 N 0.73009(5) 0.4460(2) 0.93151(2)
H1 H 0.7247(8) 0.276(3) 0.9283(3)
N2 N 1.24219(5) 0.4273(2) 1.20214(2)
C1 C 0.69005(6) 0.6213(2) 0.91303(3)
C2 C 0.64387(6) 0.5026(2) 0.88590(3)
H2 H 0.6507 0.3217 0.8803
C3 C 0.59290(6) 0.6476(2) 0.86936(3)
H3 H 0.5875 0.8265 0.8761
C4 C 0.54419(6) 0.5591(2) 0.84180(3)
C5 C 0.56018(6) 0.3382(2) 0.82341(3)
H4 H 0.6034 0.2390 0.8288
C6 C 0.51304(7) 0.2636(2) 0.79729(3)
H5 H 0.5244 0.1140 0.7849
C7 C 0.44941(7) 0.4052(2) 0.78918(3)
H6 H 0.4171 0.3513 0.7714
C8 C 0.43302(6) 0.6261(2) 0.80708(3)
H7 H 0.3897 0.7245 0.8016
C9 C 0.48046(6) 0.7023(2) 0.83309(3)
H8 H 0.4694 0.8544 0.8452
C10 C 0.77411(6) 0.5363(2) 0.95994(3)
H9 H 0.7415 0.5857 0.9764
H10 H 0.8013 0.6979 0.9546
C11 C 0.82785(6) 0.3281(2) 0.97363(3)
H11 H 0.8621 0.2830 0.9576
H12 H 0.8013 0.1641 0.9786
C12 C 0.87042(6) 0.4320(2) 1.00398(3)
H13 H 0.8956 0.5982 0.9988
H14 H 0.8354 0.4772 1.0196
C13 C 0.92664(6) 0.2386(2) 1.01959(3)
H15 H 0.9018 0.0727 1.0252
H16 H 0.9620 0.1924 1.0041
C14 C 0.96741(6) 0.3553(2) 1.04954(3)
H17 H 0.9318 0.3953 1.0652
H18 H 0.9900 0.5257 1.0439
C15 C 1.02662(6) 0.1750(2) 1.06550(3)
H19 H 1.0046 0.0033 1.0710
H20 H 1.0631 0.1379 1.0502
C16 C 1.06481(6) 0.2983(2) 1.09565(3)
H21 H 1.0284 0.3259 1.1113
H22 H 1.0838 0.4754 1.0902
C17 C 1.12757(6) 0.1333(2) 1.11151(3)
H23 H 1.1640 0.1034 1.0960
H24 H 1.1088 -0.0426 1.1175
C18 C 1.16447(6) 0.2689(2) 1.14125(3)
H25 H 1.1840 0.4434 1.1352
H26 H 1.1278 0.3018 1.1566
C19 C 1.22630(6) 0.1024(2) 1.15750(3)
H27 H 1.2068 -0.0736 1.1630
H28 H 1.2632 0.0725 1.1422
C20 C 1.26257(6) 0.2268(2) 1.18706(3)
C21 C 1.29826(6) 0.4717(2) 1.22915(3)
H29 H 1.2761 0.4692 1.2497
H30 H 1.3229 0.6449 1.2269
C22 C 1.35236(6) 0.2404(2) 1.22738(3)
H31 H 1.4025 0.3074 1.2259
H32 H 1.3520 0.1230 1.2463
loop_
_geom_bond_atom_site_label_1
_geom_bond_atom_site_label_2
_geom_bond_site_symmetry_1
_geom_bond_site_symmetry_2
O1 C1 1_555 1_555
O2 C20 1_555 1_555
N1 H1 1_555 1_555
N2 C20 1_555 1_555
C1 N1 1_555 1_555
C2 C1 1_555 1_555
H2 C2 1_555 1_555
C3 C2 1_555 1_555
H3 C3 1_555 1_555
C4 C3 1_555 1_555
C5 C4 1_555 1_555
H4 C5 1_555 1_555
C6 C5 1_555 1_555
H5 C6 1_555 1_555
C7 C6 1_555 1_555
H6 C7 1_555 1_555
C8 C7 1_555 1_555
H7 C8 1_555 1_555
C9 C4 1_555 1_555
H8 C9 1_555 1_555
C10 N1 1_555 1_555
H9 C10 1_555 1_555
H10 C10 1_555 1_555
C11 C10 1_555 1_555
H11 C11 1_555 1_555
H12 C11 1_555 1_555
C12 C11 1_555 1_555
H13 C12 1_555 1_555
H14 C12 1_555 1_555
C13 C12 1_555 1_555
H15 C13 1_555 1_555
H16 C13 1_555 1_555
C14 C13 1_555 1_555
H17 C14 1_555 1_555
H18 C14 1_555 1_555
C15 C14 1_555 1_555
H19 C15 1_555 1_555
H20 C15 1_555 1_555
C16 C15 1_555 1_555
H21 C16 1_555 1_555
H22 C16 1_555 1_555
C17 C16 1_555 1_555
H23 C17 1_555 1_555
H24 C17 1_555 1_555
C18 C17 1_555 1_555
H25 C18 1_555 1_555
H26 C18 1_555 1_555
C19 C18 1_555 1_555
H27 C19 1_555 1_555
H28 C19 1_555 1_555
C20 C19 1_555 1_555
C21 N2 1_555 1_555
H29 C21 1_555 1_555
H30 C21 1_555 1_555
C22 O2 1_555 1_555
H31 C22 1_555 1_555
H32 C22 1_555 1_555
C8 C9 1_555 1_555
C21 C22 1_555 1_555

#END
