
#######################################################################
#
#                 Cambridge Crystallographic Data Centre
#                                CCDC 
#
#######################################################################
#
# If this CIF has been generated from an entry in the Cambridge 
# Structural Database, then it will include bibliographic, chemical, 
# crystal, experimental, refinement or atomic coordinate data resulting 
# from the CCDC's data processing and validation procedures.
#
#######################################################################

data_CAJTAJ
_chemical_formula_moiety         'C34 H30 N2 O4,0.5(C2 H6 O1)'
_chemical_name_systematic        
'r-1,c-2,t-3,t-4-1,3-bis(2-(5-methylbenzoxazolyl))-2,4-bis(4-methoxyphenyl)cyclobutane ethanol solvate'
_symmetry_cell_setting           monoclinic
_symmetry_space_group_name_H-M   'P 21/n'
_symmetry_Int_Tables_number      14
_space_group_name_Hall           '-P 2yn'
loop_
_symmetry_equiv_pos_site_id
_symmetry_equiv_pos_as_xyz
1 x,y,z
2 1/2-x,1/2+y,1/2-z
3 -x,-y,-z
4 1/2+x,1/2-y,1/2+z
_cell_length_a                   15.416(3)
_cell_length_b                   5.625(1)
_cell_length_c                   17.875(4)
_cell_angle_alpha                90
_cell_angle_beta                 91.56(3)
_cell_angle_gamma                90
_cell_volume                     1549.46
_exptl_crystal_colour            colorless
_chemical_melting_point          168-170deg.C
_cell_formula_units_Z            2
loop_
_atom_site_label
_atom_site_type_symbol
_atom_site_fract_x
_atom_site_fract_y
_atom_site_fract_z
O1 O 0.8678(1) 0.6136(5) 0.6792(1)
C1 C 0.6171(2) 0.5921(5) 0.5864(1)
C2 C 0.6404(2) 0.7715(5) 0.6362(2)
C3 C 0.7234(2) 0.7877(6) 0.6675(2)
C4 C 0.7848(2) 0.6191(6) 0.6502(2)
C5 C 0.7626(2) 0.4367(6) 0.6011(2)
C6 C 0.6802(2) 0.4239(6) 0.5694(2)
C7 C 0.8944(2) 0.8075(8) 0.7259(3)
O2 O 0.3591(1) 0.0925(4) 0.5582(1)
N1 N 0.3634(2) 0.4432(5) 0.6190(1)
C8 C 0.2839(2) 0.1123(5) 0.5981(2)
C9 C 0.2149(2) -0.0464(6) 0.6016(2)
C10 C 0.1477(2) 0.0240(7) 0.6459(2)
C11 C 0.1471(2) 0.2402(6) 0.6853(2)
C12 C 0.2180(2) 0.3907(6) 0.6812(2)
C13 C 0.2862(2) 0.3237(6) 0.6363(2)
C14 C 0.0710(2) 0.3058(8) 0.7322(2)
C15 C 0.4018(2) 0.3031(5) 0.5742(2)
C16 C 0.4835(2) 0.3439(5) 0.5342(2)
C17 C 0.5269(2) 0.5875(5) 0.5511(2)
C17B C 0.4731(2) 0.4125(5) 0.4489(2)
C1B C 0.3829(2) 0.4079(5) 0.4136(1)
C2B C 0.3596(2) 0.2285(5) 0.3638(2)
C3B C 0.2766(2) 0.2123(6) 0.3325(2)
C4B C 0.2152(2) 0.3809(6) 0.3498(2)
O1B O 0.1322(1) 0.3864(5) 0.3208(1)
C7B C 0.1056(2) 0.1925(8) 0.2741(3)
C5B C 0.2374(2) 0.5633(6) 0.3989(2)
C6B C 0.3198(2) 0.5761(6) 0.4306(2)
C16B C 0.5165(2) 0.6561(5) 0.4658(2)
C15B C 0.5982(2) 0.6969(5) 0.4258(2)
O2B O 0.6409(1) 0.9075(4) 0.4418(1)
C8B C 0.7161(2) 0.8877(5) 0.4019(2)
C9B C 0.7851(2) 1.0464(6) 0.3984(2)
C10B C 0.8523(2) 0.9760(7) 0.3541(2)
C11B C 0.8529(2) 0.7598(6) 0.3147(2)
C12B C 0.7820(2) 0.6093(6) 0.3188(2)
C13B C 0.7138(2) 0.6763(6) 0.3637(2)
N1B N 0.6366(2) 0.5568(5) 0.3810(1)
C14B C 0.9290(2) 0.6942(8) 0.2678(2)
O3? O 0.5000 0.5000 0.0000
C18? C 0.5304(15) 0.1382(40) -0.0081(13)
C19? C 0.4763(7) 0.3241(22) 0.0157(6)
loop_
_geom_bond_atom_site_label_1
_geom_bond_atom_site_label_2
_geom_bond_site_symmetry_1
_geom_bond_site_symmetry_2
O1 C4 1_555 1_555
C1 C2 1_555 1_555
C2 C3 1_555 1_555
C3 C4 1_555 1_555
C4 C5 1_555 1_555
C5 C6 1_555 1_555
C6 C1 1_555 1_555
C7 O1 1_555 1_555
O2 C8 1_555 1_555
N1 C13 1_555 1_555
C8 C9 1_555 1_555
C9 C10 1_555 1_555
C10 C11 1_555 1_555
C11 C12 1_555 1_555
C12 C13 1_555 1_555
C13 C8 1_555 1_555
C14 C11 1_555 1_555
C15 O2 1_555 1_555
C16 C15 1_555 1_555
C17 C1 1_555 1_555
C17B C16 1_555 1_555
C1B C17B 1_555 1_555
C2B C1B 1_555 1_555
C3B C2B 1_555 1_555
C4B C3B 1_555 1_555
O1B C4B 1_555 1_555
C7B O1B 1_555 1_555
C5B C4B 1_555 1_555
C6B C1B 1_555 1_555
C16B C17 1_555 1_555
C15B C16B 1_555 1_555
O2B C15B 1_555 1_555
C8B O2B 1_555 1_555
C9B C8B 1_555 1_555
C10B C9B 1_555 1_555
C11B C10B 1_555 1_555
C12B C11B 1_555 1_555
C13B C8B 1_555 1_555
N1B C15B 1_555 1_555
C14B C11B 1_555 1_555
N1 C15 1_555 1_555
C16 C17 1_555 1_555
C17B C16B 1_555 1_555
C5B C6B 1_555 1_555
C12B C13B 1_555 1_555
C13B N1B 1_555 1_555

#END
