
#######################################################################
#
#                 Cambridge Crystallographic Data Centre
#                                CCDC 
#
#######################################################################
#
# If this CIF has been generated from an entry in the Cambridge 
# Structural Database, then it will include bibliographic, chemical, 
# crystal, experimental, refinement or atomic coordinate data resulting 
# from the CCDC's data processing and validation procedures.
#
#######################################################################

data_CAKMEJ
_chemical_formula_moiety         'C18 H13 N5 O1'
_chemical_name_systematic        
N'-(1-amino-3H-benzo[e]isoindol-3-ylidene)pyridine-2-carbohydrazide
_symmetry_cell_setting           monoclinic
_symmetry_space_group_name_H-M   'P 21/c'
_symmetry_Int_Tables_number      14
_space_group_name_Hall           '-P 2ybc'
loop_
_symmetry_equiv_pos_site_id
_symmetry_equiv_pos_as_xyz
1 x,y,z
2 -x,1/2+y,1/2-z
3 -x,-y,-z
4 x,1/2-y,1/2+z
_cell_length_a                   4.8287(5)
_cell_length_b                   22.607(2)
_cell_length_c                   13.5029(13)
_cell_angle_alpha                90
_cell_angle_beta                 94.337(4)
_cell_angle_gamma                90
_cell_volume                     1469.79
_exptl_crystal_colour            amber
_exptl_crystal_description       plate
_cell_formula_units_Z            4
loop_
_atom_site_label
_atom_site_type_symbol
_atom_site_fract_x
_atom_site_fract_y
_atom_site_fract_z
O1 O 0.0802(4) 0.14003(10) 0.46107(13)
N1 N -0.3041(5) 0.26035(12) 0.71361(15)
N2 N -0.4934(6) 0.31304(12) 0.83943(16)
N3 N -0.2266(5) 0.22356(12) 0.55135(15)
N4 N -0.0264(5) 0.18849(11) 0.60109(16)
N5 N 0.3514(5) 0.12847(12) 0.71183(16)
C1 C -0.4855(6) 0.29924(14) 0.74388(19)
C2 C -0.3521(6) 0.25807(14) 0.61125(18)
C3 C -0.6737(6) 0.31501(15) 0.47908(19)
C4 C -0.8668(6) 0.35914(15) 0.4691(2)
C5 C -1.1672(6) 0.43336(15) 0.5406(2)
C6 C -1.2780(6) 0.45957(16) 0.6195(2)
C7 C -1.1901(6) 0.44108(15) 0.7167(2)
C8 C -0.9918(6) 0.39849(15) 0.7325(2)
C9 C -0.8694(6) 0.37049(14) 0.65177(19)
C10 C -0.9681(6) 0.38783(14) 0.55224(18)
C11 C -0.5708(6) 0.29952(14) 0.57592(18)
C12 C -0.6630(6) 0.32585(14) 0.65955(19)
C13 C 0.1176(6) 0.14933(15) 0.55138(19)
C14 C 0.3314(5) 0.11565(14) 0.61473(17)
C15 C 0.5450(6) 0.09961(15) 0.7688(2)
C16 C 0.7197(6) 0.05714(16) 0.7329(2)
C17 C 0.6944(6) 0.04398(16) 0.6328(2)
C18 C 0.4981(6) 0.07440(15) 0.5726(2)
H1 H -0.605(6) 0.2933(15) 0.421(2)
H2 H -0.954(6) 0.3704(14) 0.399(2)
H3 H -1.236(6) 0.4462(15) 0.474(2)
H4 H -1.431(6) 0.4926(14) 0.6093(18)
H5 H -1.275(6) 0.4615(13) 0.776(2)
H6 H -0.923(6) 0.3842(15) 0.806(2)
H7 H -0.641(8) 0.3338(18) 0.865(3)
H8 H -0.359(8) 0.3000(18) 0.888(3)
H9 H 0.006(6) 0.1933(13) 0.670(2)
H10 H 0.553(7) 0.1112(17) 0.843(3)
H11 H 0.857(6) 0.0363(14) 0.779(2)
H12 H 0.816(6) 0.0168(16) 0.603(2)
H13 H 0.482(8) 0.0696(17) 0.502(3)
loop_
_geom_bond_atom_site_label_1
_geom_bond_atom_site_label_2
_geom_bond_site_symmetry_1
_geom_bond_site_symmetry_2
O1 C13 1_555 1_555
N1 C1 1_555 1_555
N2 C1 1_555 1_555
N3 N4 1_555 1_555
N4 C13 1_555 1_555
N5 C14 1_555 1_555
C1 C12 1_555 1_555
C2 N1 1_555 1_555
C3 C4 1_555 1_555
C4 C10 1_555 1_555
C5 C6 1_555 1_555
C6 C7 1_555 1_555
C7 C8 1_555 1_555
C8 C9 1_555 1_555
C9 C10 1_555 1_555
C10 C5 1_555 1_555
C11 C2 1_555 1_555
C12 C9 1_555 1_555
C13 C14 1_555 1_555
C14 C18 1_555 1_555
C15 N5 1_555 1_555
C16 C15 1_555 1_555
C17 C16 1_555 1_555
C18 C17 1_555 1_555
H1 C3 1_555 1_555
H2 C4 1_555 1_555
H3 C5 1_555 1_555
H4 C6 1_555 1_555
H5 C7 1_555 1_555
H6 C8 1_555 1_555
H7 N2 1_555 1_555
H8 N2 1_555 1_555
H9 N4 1_555 1_555
H10 C15 1_555 1_555
H11 C16 1_555 1_555
H12 C17 1_555 1_555
H13 C18 1_555 1_555
N3 C2 1_555 1_555
C3 C11 1_555 1_555
C11 C12 1_555 1_555

#END
