
#######################################################################
#
#                 Cambridge Crystallographic Data Centre
#                                CCDC 
#
#######################################################################
#
# If this CIF has been generated from an entry in the Cambridge 
# Structural Database, then it will include bibliographic, chemical, 
# crystal, experimental, refinement or atomic coordinate data resulting 
# from the CCDC's data processing and validation procedures.
#
#######################################################################

data_CAKMIN
_chemical_formula_moiety         'C16 H16 N6 O3 S1'
_chemical_name_systematic        
(Z)-3-amino-N,N-dimethyl-1-(2-(pyridine-2-carbonyl)hydrazono)-1H-isoindole-4-sulfonamide
_symmetry_cell_setting           monoclinic
_symmetry_space_group_name_H-M   'P 21/c'
_symmetry_Int_Tables_number      14
_space_group_name_Hall           '-P 2ybc'
loop_
_symmetry_equiv_pos_site_id
_symmetry_equiv_pos_as_xyz
1 x,y,z
2 -x,1/2+y,1/2-z
3 -x,-y,-z
4 x,1/2-y,1/2+z
_cell_length_a                   13.4395(5)
_cell_length_b                   10.4042(4)
_cell_length_c                   12.7467(3)
_cell_angle_alpha                90
_cell_angle_beta                 109.878(2)
_cell_angle_gamma                90
_cell_volume                     1676.14
_exptl_crystal_colour            amber
_exptl_crystal_description       plate
_cell_formula_units_Z            4
loop_
_atom_site_label
_atom_site_type_symbol
_atom_site_fract_x
_atom_site_fract_y
_atom_site_fract_z
S1 S 0.35803(6) -0.20381(7) 0.21639(6)
O1 O 0.30176(17) -0.2003(2) 0.29332(18)
O2 O 0.3627(2) -0.3223(2) 0.1620(2)
O3 O 0.15433(18) 0.5969(2) -0.05694(17)
N1 N 0.20044(18) 0.2216(2) 0.18028(19)
N2 N 0.2356(2) 0.0523(3) 0.3063(2)
N3 N 0.4782(2) -0.1597(3) 0.2836(3)
N4 N 0.18891(17) 0.3470(2) 0.01918(19)
N5 N 0.15359(18) 0.4436(2) 0.0710(2)
C1 C 0.0704(2) 0.7806(3) 0.0551(2)
C2 C 0.2341(2) 0.1030(3) 0.2106(2)
C3 C 0.2676(2) 0.0351(3) 0.1240(2)
C4 C 0.3066(2) -0.0867(3) 0.1099(2)
C5 C 0.3156(2) -0.1164(3) 0.0064(2)
C6 C 0.2894(2) -0.0274(3) -0.0801(3)
C7 C 0.2574(2) 0.0953(3) -0.0647(2)
C8 C 0.2468(2) 0.1241(3) 0.0373(2)
C9 C 0.2085(2) 0.2410(3) 0.0759(2)
C10 C 0.5487(3) -0.1467(5) 0.2188(4)
C11 C 0.4966(4) -0.0637(5) 0.3699(5)
C12 C 0.1359(2) 0.5641(3) 0.0265(2)
C13 C 0.0901(2) 0.6537(3) 0.0897(2)
C14 C 0.0305(2) 0.8631(3) 0.1156(3)
C15 C 0.0091(2) 0.8160(3) 0.2062(3)
C16 C 0.0291(2) 0.6874(3) 0.2338(3)
N6 N 0.06921(19) 0.6060(2) 0.1776(2)
H1 H 0.5244 -0.0653 0.1634
H2 H 0.5450 -0.2330 0.1705
H3 H 0.6288 -0.1323 0.2746
H4 H 0.5754 -0.0754 0.4297
H5 H 0.4393 -0.0749 0.4115
H6 H 0.4891 0.0309 0.3331
H7 H 0.011(2) 0.648(3) 0.297(2)
H8 H 0.295(2) -0.053(3) -0.151(3)
H9 H -0.017(3) 0.864(4) 0.257(3)
H10 H 0.337(3) -0.204(3) -0.008(3)
H11 H 0.140(2) 0.430(3) 0.134(3)
H12 H 0.208(3) 0.087(4) 0.353(4)
H13 H 0.239(3) 0.159(4) -0.126(3)
H14 H 0.097(3) 0.808(3) -0.008(3)
H15 H 0.252(3) -0.034(4) 0.322(3)
H16 H 0.021(3) 0.955(4) 0.101(3)
loop_
_geom_bond_atom_site_label_1
_geom_bond_atom_site_label_2
_geom_bond_site_symmetry_1
_geom_bond_site_symmetry_2
S1 O1 1_555 1_555
O2 S1 1_555 1_555
O3 C12 1_555 1_555
N1 C2 1_555 1_555
N2 C2 1_555 1_555
N3 S1 1_555 1_555
N4 N5 1_555 1_555
N5 C12 1_555 1_555
C1 C13 1_555 1_555
C2 C3 1_555 1_555
C3 C4 1_555 1_555
C4 S1 1_555 1_555
C5 C4 1_555 1_555
C6 C5 1_555 1_555
C7 C6 1_555 1_555
C8 C3 1_555 1_555
C9 N1 1_555 1_555
C10 N3 1_555 1_555
C11 N3 1_555 1_555
C12 C13 1_555 1_555
C13 N6 1_555 1_555
C14 C1 1_555 1_555
C15 C14 1_555 1_555
C16 C15 1_555 1_555
N6 C16 1_555 1_555
H1 C10 1_555 1_555
H2 C10 1_555 1_555
H3 C10 1_555 1_555
H4 C11 1_555 1_555
H5 C11 1_555 1_555
H6 C11 1_555 1_555
H7 C16 1_555 1_555
H8 C6 1_555 1_555
H9 C15 1_555 1_555
H10 C5 1_555 1_555
H11 N5 1_555 1_555
H12 N2 1_555 1_555
H13 C7 1_555 1_555
H14 C1 1_555 1_555
H15 N2 1_555 1_555
H16 C14 1_555 1_555
N4 C9 1_555 1_555
C7 C8 1_555 1_555
C8 C9 1_555 1_555

#END
