
#######################################################################
#
#                 Cambridge Crystallographic Data Centre
#                                CCDC 
#
#######################################################################
#
# If this CIF has been generated from an entry in the Cambridge 
# Structural Database, then it will include bibliographic, chemical, 
# crystal, experimental, refinement or atomic coordinate data resulting 
# from the CCDC's data processing and validation procedures.
#
#######################################################################

data_CAKMAF
_chemical_formula_moiety         'C25 H26 Cl1 N4 O4 S1 1+,Br1 1-'
_chemical_name_systematic        
'1-(3-(4-(5-(5-Chloro-2-thienyl)-1,2-oxazol-3-yl)-1,3-dioxooctahydropyrrolo[3,4-a]pyrrolizin-2(3H)-yl)propyl)-3-(hydroxymethyl)pyridinium bromide'
_symmetry_cell_setting           monoclinic
_symmetry_space_group_name_H-M   'C 2/c'
_symmetry_Int_Tables_number      15
_space_group_name_Hall           '-C 2yn'
loop_
_symmetry_equiv_pos_site_id
_symmetry_equiv_pos_as_xyz
1 x,y,z
2 1/2+x,1/2+y,z
3 -x,y,1/2-z
4 1/2-x,1/2+y,1/2-z
5 -x,-y,-z
6 1/2-x,1/2-y,-z
7 x,-y,1/2+z
8 1/2+x,1/2-y,1/2+z
_cell_length_a                   11.2205(2)
_cell_length_b                   10.5089(2)
_cell_length_c                   43.6149(10)
_cell_angle_alpha                90
_cell_angle_beta                 95.9384(9)
_cell_angle_gamma                90
_cell_volume                     5115.26
_exptl_crystal_colour            colorless
_exptl_crystal_description       Cube
_cell_formula_units_Z            8
loop_
_atom_site_label
_atom_site_type_symbol
_atom_site_fract_x
_atom_site_fract_y
_atom_site_fract_z
Br1 Br 0.07483(4) -0.11907(5) 0.046820(12)
Cl1 Cl 0.51375(13) -0.04311(16) 0.31494(3)
S1 S 0.34229(14) -0.02435(17) 0.25859(4)
O1 O 0.2501(3) -0.0674(4) 0.14289(9)
O2 O 0.1274(3) 0.3080(3) 0.09883(9)
O3 O 0.7790(3) -0.0651(4) -0.00357(9)
O4 O 0.0843(4) -0.2216(4) 0.21377(10)
N1 N 0.2153(3) 0.1261(3) 0.11964(9)
N2 N -0.0532(3) 0.1220(3) 0.15777(9)
N3 N 0.4487(3) -0.0046(4) 0.05254(9)
N4 N 0.0137(4) -0.1914(4) 0.18582(11)
C1 C 0.1816(4) 0.0088(4) 0.13061(11)
C2 C 0.0471(4) -0.0050(4) 0.12347(11)
C3 C -0.0249(4) -0.0126(4) 0.15174(11)
C4 C -0.1650(4) 0.1353(6) 0.17312(13)
C5 C -0.2696(4) 0.1151(6) 0.14779(15)
C6 C -0.2175(4) 0.1382(6) 0.11720(14)
C7 C -0.0858(4) 0.1771(5) 0.12692(11)
C8 C 0.0060(4) 0.1194(4) 0.10722(11)
C9 C 0.1188(4) 0.1988(5) 0.10739(10)
C10 C 0.3401(4) 0.1699(6) 0.12196(13)
C11 C 0.4182(4) 0.0874(6) 0.10304(13)
C12 C 0.3763(4) 0.0851(5) 0.06954(12)
C13 C 0.5580(4) 0.0323(5) 0.04589(11)
C14 C 0.6290(4) -0.0479(4) 0.03083(11)
C15 C 0.5854(4) -0.1673(5) 0.02214(12)
C16 C 0.4722(4) -0.2035(5) 0.02924(12)
C17 C 0.4055(4) -0.1204(5) 0.04456(12)
C18 C 0.7513(4) -0.0045(6) 0.02333(13)
C19 C 0.0360(4) -0.0738(4) 0.18018(11)
C20 C 0.1179(6) -0.0228(6) 0.20338(14)
C21 C 0.1449(5) -0.1171(5) 0.22360(12)
C22 C 0.2239(5) -0.1281(5) 0.25209(13)
C23 C 0.3870(5) -0.0936(6) 0.29311(13)
C24 C 0.3096(6) -0.1870(6) 0.30070(15)
C25 C 0.2149(6) -0.2050(6) 0.27628(14)
H1 H 0.833(5) -0.015(6) -0.0111(15)
H2 H 0.030(4) -0.081(5) 0.1127(11)
H3 H -0.101(4) -0.062(4) 0.1449(10)
H4 H -0.163(5) 0.083(6) 0.1918(15)
H5 H -0.171(5) 0.220(5) 0.1799(13)
H6 H -0.331(5) 0.168(5) 0.1502(12)
H7 H -0.301(6) 0.043(7) 0.1455(16)
H8 H -0.224(4) 0.056(5) 0.1029(12)
H9 H -0.262(5) 0.200(5) 0.1048(14)
H10 H -0.082(4) 0.270(4) 0.1260(10)
H11 H -0.026(4) 0.101(4) 0.0868(12)
H12 H 0.377(4) 0.172(4) 0.1447(11)
H13 H 0.340(5) 0.243(6) 0.1117(16)
H14 H 0.420(5) 0.013(5) 0.1114(13)
H15 H 0.489(5) 0.105(5) 0.1052(13)
H16 H 0.381(4) 0.167(5) 0.0633(10)
H17 H 0.296(5) 0.061(5) 0.0661(13)
H18 H 0.590(3) 0.106(4) 0.0544(10)
H19 H 0.626(4) -0.229(4) 0.0095(11)
H20 H 0.442(4) -0.288(4) 0.0235(10)
H21 H 0.332(5) -0.138(5) 0.0482(13)
H22 H 0.802(4) -0.026(4) 0.0405(11)
H23 H 0.755(5) 0.076(6) 0.0197(14)
H24 H 0.15007 0.07489 0.20313
H25 H 0.32114 -0.23473 0.32298
H26 H 0.141(6) -0.277(6) 0.2745(16)
loop_
_geom_bond_atom_site_label_1
_geom_bond_atom_site_label_2
_geom_bond_site_symmetry_1
_geom_bond_site_symmetry_2
Cl1 C23 1_555 1_555
S1 C22 1_555 1_555
O1 C1 1_555 1_555
O2 C9 1_555 1_555
O3 C18 1_555 1_555
O4 N4 1_555 1_555
N1 C1 1_555 1_555
N2 C3 1_555 1_555
N3 C12 1_555 1_555
N4 C19 1_555 1_555
C1 C2 1_555 1_555
C2 C3 1_555 1_555
C3 C19 1_555 1_555
C4 N2 1_555 1_555
C5 C4 1_555 1_555
C6 C5 1_555 1_555
C7 N2 1_555 1_555
C8 C2 1_555 1_555
C9 N1 1_555 1_555
C10 N1 1_555 1_555
C11 C10 1_555 1_555
C12 C11 1_555 1_555
C13 N3 1_555 1_555
C14 C13 1_555 1_555
C15 C14 1_555 1_555
C16 C15 1_555 1_555
C17 N3 1_555 1_555
C18 C14 1_555 1_555
C19 C20 1_555 1_555
C20 C21 1_555 1_555
C21 O4 1_555 1_555
C22 C21 1_555 1_555
C23 S1 1_555 1_555
C24 C23 1_555 1_555
C25 C22 1_555 1_555
H1 O3 1_555 1_555
H2 C2 1_555 1_555
H3 C3 1_555 1_555
H4 C4 1_555 1_555
H5 C4 1_555 1_555
H6 C5 1_555 1_555
H7 C5 1_555 1_555
H8 C6 1_555 1_555
H9 C6 1_555 1_555
H10 C7 1_555 1_555
H11 C8 1_555 1_555
H12 C10 1_555 1_555
H13 C10 1_555 1_555
H14 C11 1_555 1_555
H15 C11 1_555 1_555
H16 C12 1_555 1_555
H17 C12 1_555 1_555
H18 C13 1_555 1_555
H19 C15 1_555 1_555
H20 C16 1_555 1_555
H21 C17 1_555 1_555
H22 C18 1_555 1_555
H23 C18 1_555 1_555
H24 C20 1_555 1_555
H25 C24 1_555 1_555
H26 C25 1_555 1_555
C6 C7 1_555 1_555
C7 C8 1_555 1_555
C8 C9 1_555 1_555
C16 C17 1_555 1_555
C24 C25 1_555 1_555

#END
