
#######################################################################
#
#                 Cambridge Crystallographic Data Centre
#                                CCDC 
#
#######################################################################
#
# If this CIF has been generated from an entry in the Cambridge 
# Structural Database, then it will include bibliographic, chemical, 
# crystal, experimental, refinement or atomic coordinate data resulting 
# from the CCDC's data processing and validation procedures.
#
#######################################################################

data_CAKNEK
_chemical_formula_moiety         'C23 H19 Br1 O6'
_chemical_name_systematic        
'methyl 6-bromo-2,2-bis(4-methoxyphenyl)-1,3-benzodioxole-4-carboxylate'
_symmetry_cell_setting           triclinic
_symmetry_space_group_name_H-M   'P -1'
_symmetry_Int_Tables_number      2
_space_group_name_Hall           '-P 1'
loop_
_symmetry_equiv_pos_site_id
_symmetry_equiv_pos_as_xyz
1 x,y,z
2 -x,-y,-z
_cell_length_a                   8.7165(2)
_cell_length_b                   10.7662(2)
_cell_length_c                   11.2943(3)
_cell_angle_alpha                80.4569(12)
_cell_angle_beta                 78.9110(11)
_cell_angle_gamma                85.5614(10)
_cell_volume                     1024.58
_exptl_crystal_colour            colorless
_exptl_crystal_description       Cube
_cell_formula_units_Z            2
loop_
_atom_site_label
_atom_site_type_symbol
_atom_site_fract_x
_atom_site_fract_y
_atom_site_fract_z
Br1 Br 1.06243(3) 0.25020(3) 0.82280(2)
O1 O 0.81806(19) 0.32029(15) 0.35535(15)
O2 O 0.9692(2) 0.13868(15) 0.40446(16)
O3 O 0.6713(3) 0.55174(19) 0.4216(2)
O4 O 0.7067(2) 0.59663(16) 0.60168(18)
O5 O 1.4172(2) 0.3737(2) -0.0687(2)
O6 O 0.4829(2) -0.0752(2) 0.1562(2)
C1 C 0.9064(3) 0.2151(2) 0.3039(2)
C2 C 0.8647(2) 0.3227(2) 0.46346(19)
C3 C 0.8276(2) 0.4113(2) 0.5418(2)
C4 C 0.8899(3) 0.3868(2) 0.6504(2)
C5 C 0.9809(3) 0.2790(2) 0.6752(2)
C6 C 1.0161(3) 0.1877(2) 0.5986(2)
C7 C 0.9566(3) 0.2136(2) 0.4929(2)
C8 C 0.7269(3) 0.5264(2) 0.5123(2)
C9 C 0.6085(3) 0.7087(2) 0.5882(3)
C10 C 1.0413(3) 0.2632(2) 0.2049(2)
C11 C 1.1604(3) 0.1771(3) 0.1634(3)
C12 C 1.2834(3) 0.2181(3) 0.0731(3)
C13 C 1.2910(3) 0.3444(3) 0.0204(2)
C14 C 1.1731(3) 0.4303(2) 0.0611(3)
C15 C 1.0494(3) 0.3885(2) 0.1529(2)
C16 C 1.4179(5) 0.4960(4) -0.1404(4)
C17 C 0.7933(3) 0.1381(2) 0.2642(2)
C18 C 0.7836(3) 0.1427(3) 0.1424(2)
C19 C 0.6773(3) 0.0713(3) 0.1092(2)
C20 C 0.5802(3) -0.0066(2) 0.1982(2)
C21 C 0.5875(3) -0.0099(3) 0.3200(2)
C22 C 0.6927(3) 0.0615(2) 0.3524(2)
C23 C 0.4044(5) -0.1745(4) 0.2409(4)
H1 H 0.6527 0.7645 0.5150
H2 H 0.6014 0.7508 0.6587
H3 H 0.5049 0.6869 0.5817
H4 H 1.083(4) 0.109(3) 0.616(3)
H5 H 0.849(3) 0.194(3) 0.083(3)
H6 H 0.972(4) 0.449(3) 0.171(3)
H7 H 0.527(5) -0.056(4) 0.368(4)
H8 H 0.866(4) 0.434(3) 0.701(3)
H9 H 0.682(4) 0.063(3) 0.040(4)
H10 H 0.701(4) 0.054(3) 0.425(3)
H11 H 1.426(4) 0.565(4) -0.089(4)
H12 H 1.335(6) 0.507(4) -0.173(5)
H13 H 1.178(4) 0.514(3) 0.020(3)
H14 H 1.158(3) 0.090(3) 0.206(3)
H15 H 0.333(5) -0.138(4) 0.298(4)
H16 H 1.356(4) 0.155(3) 0.051(3)
H17 H 1.500(7) 0.504(5) -0.196(5)
H18 H 0.487(5) -0.226(4) 0.285(4)
H19 H 0.332(5) -0.216(4) 0.180(4)
loop_
_geom_bond_atom_site_label_1
_geom_bond_atom_site_label_2
_geom_bond_site_symmetry_1
_geom_bond_site_symmetry_2
Br1 C5 1_555 1_555
O1 C1 1_555 1_555
O2 C1 1_555 1_555
O3 C8 1_555 1_555
O4 C8 1_555 1_555
O5 C13 1_555 1_555
O6 C20 1_555 1_555
C1 C10 1_555 1_555
C2 O1 1_555 1_555
C3 C2 1_555 1_555
C4 C3 1_555 1_555
C5 C4 1_555 1_555
C6 C5 1_555 1_555
C7 O2 1_555 1_555
C8 C3 1_555 1_555
C9 O4 1_555 1_555
C10 C11 1_555 1_555
C11 C12 1_555 1_555
C12 C13 1_555 1_555
C13 C14 1_555 1_555
C14 C15 1_555 1_555
C15 C10 1_555 1_555
C16 O5 1_555 1_555
C17 C1 1_555 1_555
C18 C17 1_555 1_555
C19 C18 1_555 1_555
C20 C19 1_555 1_555
C21 C20 1_555 1_555
C22 C17 1_555 1_555
C23 O6 1_555 1_555
H1 C9 1_555 1_555
H2 C9 1_555 1_555
H3 C9 1_555 1_555
H4 C6 1_555 1_555
H5 C18 1_555 1_555
H6 C15 1_555 1_555
H7 C21 1_555 1_555
H8 C4 1_555 1_555
H9 C19 1_555 1_555
H10 C22 1_555 1_555
H11 C16 1_555 1_555
H12 C16 1_555 1_555
H13 C14 1_555 1_555
H14 C11 1_555 1_555
H15 C23 1_555 1_555
H16 C12 1_555 1_555
H17 C16 1_555 1_555
H18 C23 1_555 1_555
H19 C23 1_555 1_555
C2 C7 1_555 1_555
C6 C7 1_555 1_555
C21 C22 1_555 1_555

#END
