
#######################################################################
#
#                 Cambridge Crystallographic Data Centre
#                                CCDC 
#
#######################################################################
#
# If this CIF has been generated from an entry in the Cambridge 
# Structural Database, then it will include bibliographic, chemical, 
# crystal, experimental, refinement or atomic coordinate data resulting 
# from the CCDC's data processing and validation procedures.
#
#######################################################################

data_CAKNUZ
_chemical_formula_moiety         'C27 H26 N2 O2'
_chemical_name_systematic        
2,2'-Spiro[4.4]nona-1,6-diene-1,6-diylbis(4-phenyl-4,5-dihydro-1,3-oxazole)
_symmetry_cell_setting           orthorhombic
_symmetry_space_group_name_H-M   'P 21 21 21'
_symmetry_Int_Tables_number      19
_space_group_name_Hall           'P 2ac 2ab'
loop_
_symmetry_equiv_pos_site_id
_symmetry_equiv_pos_as_xyz
1 x,y,z
2 1/2-x,-y,1/2+z
3 -x,1/2+y,1/2-z
4 1/2+x,1/2-y,-z
_cell_length_a                   6.0632(5)
_cell_length_b                   16.1039(14)
_cell_length_c                   22.0559(19)
_cell_angle_alpha                90
_cell_angle_beta                 90
_cell_angle_gamma                90
_cell_volume                     2153.56
_exptl_crystal_colour            colorless
_exptl_crystal_description       prismatic
_cell_formula_units_Z            4
loop_
_atom_site_label
_atom_site_type_symbol
_atom_site_fract_x
_atom_site_fract_y
_atom_site_fract_z
N1 N 0.6028(4) 0.15091(10) 0.11392(7)
N2 N 0.7585(4) 0.26270(11) 0.30336(8)
O1 O 0.7810(3) 0.03573(9) 0.14478(6)
O2 O 0.6718(3) 0.37761(9) 0.25006(6)
C1 C 0.6437(4) 0.10099(12) 0.15659(9)
C2 C 0.8421(5) 0.04218(15) 0.08212(9)
H1 H 0.7899 -0.0055 0.0593
H2 H 1.0009 0.0462 0.0777
C3 C 0.7284(4) 0.12236(14) 0.06058(9)
H3 H 0.8427 0.1636 0.0516
C4 C 0.5626(4) 0.10576(12) 0.21878(9)
C5 C 0.6363(5) 0.05819(14) 0.26313(10)
H4 H 0.7385 0.0158 0.2574
C6 C 0.5398(6) 0.07911(16) 0.32277(10)
H5 H 0.6480 0.1054 0.3489
H6 H 0.4826 0.0300 0.3428
C7 C 0.3542(5) 0.13933(15) 0.30655(10)
H7 H 0.3583 0.1872 0.3332
H8 H 0.2123 0.1122 0.3112
C8 C 0.3869(4) 0.16711(12) 0.23977(9)
C9 C 0.1714(4) 0.16283(15) 0.20231(13)
H9 H 0.1764 0.1159 0.1748
H10 H 0.0459 0.1559 0.2291
C10 C 0.1488(4) 0.24317(16) 0.16669(11)
H11 H 0.1750 0.2340 0.1238
H12 H 0.0035 0.2673 0.1720
C11 C 0.3218(4) 0.29717(14) 0.19339(9)
H13 H 0.3375 0.3531 0.1838
C12 C 0.4511(4) 0.25790(12) 0.23216(8)
C13 C 0.6343(4) 0.29635(12) 0.26415(9)
C14 C 0.8654(6) 0.40082(16) 0.28418(11)
H14 H 0.8364 0.4496 0.3087
H15 H 0.9878 0.4126 0.2572
C15 C 0.9166(4) 0.32640(14) 0.32403(10)
H16 H 1.0668 0.3073 0.3154
C16 C 0.8937(4) 0.34146(13) 0.39159(10)
C17 C 0.7083(5) 0.37855(17) 0.41456(11)
H17 H 0.5943 0.3935 0.3886
C18 C 0.6891(7) 0.3939(2) 0.47585(12)
H18 H 0.5631 0.4196 0.4909
C19 C 0.8542(8) 0.37166(19) 0.51422(12)
H19 H 0.8416 0.3829 0.5554
C20 C 1.0366(7) 0.33326(18) 0.49274(13)
H20 H 1.1477 0.3168 0.5192
C21 C 1.0573(5) 0.31851(15) 0.43099(12)
H21 H 1.1836 0.2928 0.4162
C22 C 0.5843(4) 0.11266(12) 0.00486(9)
C23 C 0.6547(5) 0.06320(15) -0.04337(9)
H22 H 0.7901 0.0362 -0.0414
C24 C 0.5232(5) 0.05436(17) -0.09406(10)
H23 H 0.5692 0.0203 -0.1257
C25 C 0.3253(6) 0.09524(17) -0.09830(11)
H24 H 0.2382 0.0891 -0.1327
C26 C 0.2564(5) 0.14524(17) -0.05152(11)
H25 H 0.1234 0.1738 -0.0544
C27 C 0.3851(5) 0.15298(15) -0.00030(10)
H26 H 0.3362 0.1862 0.0315
loop_
_geom_bond_atom_site_label_1
_geom_bond_atom_site_label_2
_geom_bond_site_symmetry_1
_geom_bond_site_symmetry_2
N1 C1 1_555 1_555
N2 C13 1_555 1_555
O1 C1 1_555 1_555
O2 C13 1_555 1_555
C1 C4 1_555 1_555
C2 O1 1_555 1_555
H1 C2 1_555 1_555
H2 C2 1_555 1_555
C3 N1 1_555 1_555
H3 C3 1_555 1_555
C4 C5 1_555 1_555
C5 H4 1_555 1_555
C6 C5 1_555 1_555
H5 C6 1_555 1_555
H6 C6 1_555 1_555
C7 C6 1_555 1_555
H7 C7 1_555 1_555
H8 C7 1_555 1_555
C8 C4 1_555 1_555
C9 C8 1_555 1_555
H9 C9 1_555 1_555
H10 C9 1_555 1_555
C10 C9 1_555 1_555
H11 C10 1_555 1_555
H12 C10 1_555 1_555
C11 C10 1_555 1_555
H13 C11 1_555 1_555
C12 C8 1_555 1_555
C13 C12 1_555 1_555
C14 O2 1_555 1_555
H14 C14 1_555 1_555
H15 C14 1_555 1_555
C15 N2 1_555 1_555
H16 C15 1_555 1_555
C16 C15 1_555 1_555
C17 C16 1_555 1_555
H17 C17 1_555 1_555
C18 C17 1_555 1_555
H18 C18 1_555 1_555
C19 C18 1_555 1_555
H19 C19 1_555 1_555
C20 C19 1_555 1_555
H20 C20 1_555 1_555
C21 C16 1_555 1_555
H21 C21 1_555 1_555
C22 C3 1_555 1_555
C23 C22 1_555 1_555
H22 C23 1_555 1_555
C24 C23 1_555 1_555
H23 C24 1_555 1_555
C25 C24 1_555 1_555
H24 C25 1_555 1_555
C26 C25 1_555 1_555
H25 C26 1_555 1_555
C27 C22 1_555 1_555
H26 C27 1_555 1_555
C2 C3 1_555 1_555
C7 C8 1_555 1_555
C11 C12 1_555 1_555
C14 C15 1_555 1_555
C20 C21 1_555 1_555
C26 C27 1_555 1_555

#END
