
#######################################################################
#
#                 Cambridge Crystallographic Data Centre
#                                CCDC 
#
#######################################################################
#
# If this CIF has been generated from an entry in the Cambridge 
# Structural Database, then it will include bibliographic, chemical, 
# crystal, experimental, refinement or atomic coordinate data resulting 
# from the CCDC's data processing and validation procedures.
#
#######################################################################

data_CAKSEP
_chemical_formula_moiety         'C72 H72 O8,C1 H4 O1'
_chemical_name_systematic        
"1,21,23,25-tetrakis(4-phenylbutyl)-1H,5H,9H,13H,17H,21H,23H,25H-19,3:20,2-bis(metheno)[1,3]benzodioxocino[9',8':4,5][1,3]benzodioxocino[9,8-d][1,3]dioxocino[5,4-i][1,3]benzodioxocine methanol solvate"
_symmetry_cell_setting           triclinic
_symmetry_space_group_name_H-M   'P -1'
_symmetry_Int_Tables_number      2
_space_group_name_Hall           '-P 1'
loop_
_symmetry_equiv_pos_site_id
_symmetry_equiv_pos_as_xyz
1 x,y,z
2 -x,-y,-z
_cell_length_a                   10.4857(2)
_cell_length_b                   14.1656(2)
_cell_length_c                   21.1231(3)
_cell_angle_alpha                108.5777(7)
_cell_angle_beta                 95.2911(6)
_cell_angle_gamma                94.9210(7)
_cell_volume                     2939.26
_exptl_crystal_colour            colorless
_exptl_crystal_description       Cube
_cell_formula_units_Z            2
loop_
_atom_site_label
_atom_site_type_symbol
_atom_site_fract_x
_atom_site_fract_y
_atom_site_fract_z
O1 O 0.26456(13) 0.08865(10) 0.01540(8)
O2 O 0.13783(14) 0.20481(11) 0.07860(8)
O3 O 0.19960(14) 0.55902(11) 0.18376(8)
O4 O 0.36904(13) 0.68757(11) 0.19512(8)
O5 O 0.80063(14) 0.71088(11) 0.14484(8)
O6 O 0.93169(14) 0.59233(11) 0.08785(8)
O7 O 0.85403(14) 0.24213(11) -0.03341(8)
O8 O 0.68391(14) 0.11160(11) -0.05104(7)
C1 C 0.80972(19) 0.19151(15) 0.08534(10)
C2 C 0.66448(19) 0.16246(14) 0.06840(10)
C3 C 0.58131(19) 0.17536(14) 0.11770(10)
C4 C 0.44711(19) 0.15377(14) 0.10287(10)
C5 C 0.39615(19) 0.11837(14) 0.03495(11)
C6 C 0.4757(2) 0.10656(15) -0.01544(10)
C7 C 0.60815(19) 0.12901(14) 0.00131(10)
C8 C 0.3581(2) 0.17335(15) 0.15748(11)
C9 C 0.31553(19) 0.27711(15) 0.16802(11)
C10 C 0.38067(19) 0.36437(15) 0.21618(11)
C11 C 0.34463(19) 0.46025(15) 0.22356(11)
C12 C 0.24197(19) 0.46652(15) 0.17944(12)
C13 C 0.1747(2) 0.38117(16) 0.13110(12)
C14 C 0.21161(19) 0.28833(16) 0.12598(11)
C15 C 0.41794(19) 0.55568(15) 0.27377(11)
C16 C 0.52045(19) 0.59564(15) 0.23861(10)
C17 C 0.64512(19) 0.56940(15) 0.24114(10)
C18 C 0.74172(19) 0.60375(15) 0.20998(10)
C19 C 0.7079(2) 0.66659(15) 0.17347(11)
C20 C 0.5845(2) 0.69188(15) 0.16799(11)
C21 C 0.49061(19) 0.65567(15) 0.19970(11)
C22 C 0.87533(19) 0.56920(15) 0.21136(10)
C23 C 0.87327(18) 0.48005(16) 0.14843(10)
C24 C 0.84603(18) 0.38020(15) 0.14579(10)
C25 C 0.83901(18) 0.29872(16) 0.08685(10)
C26 C 0.85640(19) 0.31931(16) 0.02766(11)
C27 C 0.88434(19) 0.41673(16) 0.02800(11)
C28 C 0.89332(19) 0.49527(16) 0.08759(11)
C29 C 0.9246(2) 0.55231(17) 0.27716(11)
C30 C 0.1864(2) 0.16533(17) 0.01672(12)
C31 C 0.2684(2) 0.61723(17) 0.15150(12)
C32 C 0.8334(2) 0.65220(18) 0.08201(12)
C33 C 0.7301(2) 0.19610(16) -0.06780(11)
C34 C 0.8773(5) 0.1797(4) 0.1479(2)
C35 C 0.8957(4) 0.0707(3) 0.13763(19)
C36 C 0.9748(4) 0.0583(3) 0.19888(19)
C37 C 1.0099(4) -0.0463(3) 0.1853(2)
C38 C 1.0866(4) -0.0694(4) 0.2424(2)
C39 C 1.1528(3) 0.0168(2) 0.30220(15)
C40 C 1.2167(3) -0.0118(2) 0.35211(14)
C41 C 1.2237(3) -0.1120(2) 0.34258(15)
C42 C 1.1686(3) -0.1831(2) 0.28366(17)
C43 C 1.1038(3) -0.1557(3) 0.23470(16)
C44 C 0.4153(2) 0.15844(16) 0.22224(11)
C45 C 0.4427(2) 0.05085(17) 0.21311(11)
C46 C 0.5232(3) 0.04432(17) 0.27485(12)
C47 C 0.5509(3) -0.06141(19) 0.27064(14)
C48 C 0.5946(3) -0.0402(2) 0.39375(16)
C49 C 0.6773(4) -0.0318(3) 0.45110(19)
C50 C 0.8048(4) -0.0452(3) 0.4469(2)
C51 C 0.8486(4) -0.0691(3) 0.3854(2)
C52 C 0.7657(3) -0.0772(3) 0.32775(19)
C53 C 0.6391(3) -0.0617(2) 0.33127(15)
C54 C 0.4699(2) 0.54777(17) 0.34144(11)
C55 C 0.5235(3) 0.64925(18) 0.39386(12)
C56 C 0.5992(3) 0.6396(2) 0.45563(13)
C57 C 0.6469(3) 0.7389(2) 0.51088(15)
C58 C 0.7469(3) 0.72776(19) 0.56289(13)
C59 C 0.8755(3) 0.7570(2) 0.56293(15)
C60 C 0.9702(3) 0.7431(2) 0.60779(17)
C61 C 0.9363(3) 0.6996(2) 0.65461(15)
C62 C 0.8086(3) 0.6715(2) 0.65653(14)
C63 C 0.7146(3) 0.6847(2) 0.61074(14)
C64 C 0.9345(2) 0.64758(19) 0.33724(12)
C65 C 0.9980(3) 0.6408(2) 0.40283(13)
C66 C 1.1351(3) 0.6159(2) 0.40246(14)
C67 C 1.2017(3) 0.6397(2) 0.47289(14)
C68 C 1.2588(3) 0.7362(3) 0.50757(17)
C69 C 1.3158(4) 0.7624(3) 0.57380(18)
C70 C 1.3136(4) 0.6924(3) 0.60594(18)
C71 C 1.2556(5) 0.5974(3) 0.57338(19)
C72 C 1.1989(4) 0.5703(3) 0.50651(17)
H1 H 0.8470 0.1480 0.0488
H2 H 0.6156 0.2005 0.1645
H3 H 0.4384 0.0824 -0.0618
H4 H 0.2841 0.1235 0.1411
H5 H 0.4530 0.3602 0.2461
H6 H 0.1038 0.3880 0.1013
H7 H 0.3560 0.6026 0.2852
H8 H 0.6678 0.5248 0.2652
H9 H 0.5636 0.7345 0.1421
H10 H 0.9357 0.6231 0.2097
H11 H 0.8314 0.3653 0.1860
H12 H 0.8970 0.4293 -0.0132
H13 H 0.8661 0.5019 0.2844
H14 H 1.0087 0.5305 0.2742
H15 H 0.2357 0.2195 0.0084
H16 H 0.1139 0.1388 -0.0177
H17 H 0.3068 0.5735 0.1156
H18 H 0.2102 0.6538 0.1335
H19 H 0.7584 0.6083 0.0564
H20 H 0.8628 0.6953 0.0579
H21 H 0.6690 0.2438 -0.0570
H22 H 0.7341 0.1742 -0.1154
H23 H 0.8212 0.2064 0.1890
H24 H 0.9702 0.2248 0.1612
H25 H 0.9443 0.0423 0.0937
H26 H 0.8024 0.0268 0.1285
H27 H 1.0620 0.1105 0.2126
H28 H 0.9196 0.0764 0.2410
H29 H 1.0647 -0.0629 0.1431
H30 H 0.9216 -0.0975 0.1699
H31 H 1.2540 0.0382 0.3938
H32 H 1.2683 -0.1317 0.3772
H33 H 1.1761 -0.2524 0.2777
H34 H 1.0721 -0.2071 0.1926
H35 H 0.4958 0.2010 0.2388
H36 H 0.3569 0.1757 0.2554
H37 H 0.3624 0.0086 0.2056
H38 H 0.4888 0.0276 0.1749
H39 H 0.6053 0.0840 0.2816
H40 H 0.4791 0.0694 0.3136
H41 H 0.4708 -0.1015 0.2682
H42 H 0.5905 -0.0900 0.2308
H43 H 0.5054 -0.0312 0.3970
H44 H 0.6455 -0.0167 0.4940
H45 H 0.8612 -0.0363 0.4873
H46 H 0.9363 -0.0822 0.3814
H47 H 0.7965 -0.0927 0.2846
H48 H 0.4018 0.5188 0.3595
H49 H 0.5382 0.5060 0.3354
H50 H 0.5800 0.6852 0.3738
H51 H 0.4536 0.6871 0.4082
H52 H 0.5455 0.6000 0.4746
H53 H 0.6737 0.6069 0.4427
H54 H 0.6843 0.7857 0.4915
H55 H 0.5755 0.7651 0.5332
H56 H 0.9019 0.7884 0.5314
H57 H 1.0589 0.7648 0.6065
H58 H 1.0027 0.6887 0.6850
H59 H 0.7830 0.6430 0.6897
H60 H 0.6262 0.6625 0.6123
H61 H 0.9842 0.7007 0.3280
H62 H 0.8493 0.6650 0.3444
H63 H 1.0013 0.7043 0.4377
H64 H 0.9488 0.5900 0.4147
H65 H 1.1336 0.5454 0.3793
H66 H 1.1819 0.6533 0.3795
H67 H 1.2609 0.7862 0.4858
H68 H 1.3542 0.8303 0.5965
H69 H 1.3537 0.7103 0.6516
H70 H 1.2532 0.5483 0.5959
H71 H 1.1579 0.5032 0.4836
C73 C 0.5156(3) 0.3977(2) 0.06099(17)
O9 O 0.4370(13) 0.4440(10) 0.0413(7)
C74? C 0.8590(7) 0.1645(5) 0.1510(4)
C75? C 0.8353(7) 0.0537(4) 0.1427(3)
C76? C 0.9053(6) 0.0216(5) 0.1979(3)
C77? C 1.0503(6) 0.0154(5) 0.1922(3)
C78? C 1.1102(6) -0.0289(6) 0.2425(3)
H72? H 0.9613 0.1890 0.1641
H73? H 0.8112 0.2061 0.1924
H74? H 0.8638 0.0113 0.0950
H75? H 0.7329 0.0335 0.1405
H76? H 0.8597 -0.0510 0.1955
H77? H 0.8949 0.0744 0.2463
H78? H 1.0623 -0.0305 0.1418
H79? H 1.0992 0.0897 0.2012
O10? O 0.5695(9) 0.4261(7) 0.0151(5)
O11? O 0.4993(9) 0.3823(7) -0.0087(5)
H80? H 1.2167 0.0544 0.2871
H81? H 1.0905 0.0594 0.3219
loop_
_geom_bond_atom_site_label_1
_geom_bond_atom_site_label_2
_geom_bond_site_symmetry_1
_geom_bond_site_symmetry_2
O1 C5 1_555 1_555
O2 C14 1_555 1_555
O3 C12 1_555 1_555
O4 C21 1_555 1_555
O5 C19 1_555 1_555
O6 C28 1_555 1_555
O7 C26 1_555 1_555
O8 C7 1_555 1_555
C1 C2 1_555 1_555
C2 C3 1_555 1_555
C3 C4 1_555 1_555
C4 C5 1_555 1_555
C5 C6 1_555 1_555
C6 C7 1_555 1_555
C7 C2 1_555 1_555
C8 C4 1_555 1_555
C9 C8 1_555 1_555
C10 C9 1_555 1_555
C11 C10 1_555 1_555
C12 C11 1_555 1_555
C13 C12 1_555 1_555
C14 C9 1_555 1_555
C15 C11 1_555 1_555
C16 C15 1_555 1_555
C17 C16 1_555 1_555
C18 C17 1_555 1_555
C19 C18 1_555 1_555
C20 C19 1_555 1_555
C21 C16 1_555 1_555
C22 C18 1_555 1_555
C23 C22 1_555 1_555
C24 C23 1_555 1_555
C25 C1 1_555 1_555
C26 C25 1_555 1_555
C27 C26 1_555 1_555
C28 C23 1_555 1_555
C29 C22 1_555 1_555
C30 O1 1_555 1_555
C31 O3 1_555 1_555
C32 O5 1_555 1_555
C33 O7 1_555 1_555
C34 C1 1_555 1_555
C35 C34 1_555 1_555
C36 C35 1_555 1_555
C37 C36 1_555 1_555
C38 C37 1_555 1_555
C39 C38 1_555 1_555
C40 C39 1_555 1_555
C41 C40 1_555 1_555
C42 C41 1_555 1_555
C43 C38 1_555 1_555
C44 C8 1_555 1_555
C45 C44 1_555 1_555
C46 C45 1_555 1_555
C47 C46 1_555 1_555
C48 C49 1_555 1_555
C49 C50 1_555 1_555
C50 C51 1_555 1_555
C51 C52 1_555 1_555
C52 C53 1_555 1_555
C53 C47 1_555 1_555
C54 C15 1_555 1_555
C55 C54 1_555 1_555
C56 C55 1_555 1_555
C57 C56 1_555 1_555
C58 C57 1_555 1_555
C59 C58 1_555 1_555
C60 C59 1_555 1_555
C61 C60 1_555 1_555
C62 C61 1_555 1_555
C63 C58 1_555 1_555
C64 C29 1_555 1_555
C65 C64 1_555 1_555
C66 C65 1_555 1_555
C67 C66 1_555 1_555
C68 C67 1_555 1_555
C69 C68 1_555 1_555
C70 C69 1_555 1_555
C71 C70 1_555 1_555
C72 C67 1_555 1_555
H1 C1 1_555 1_555
H2 C3 1_555 1_555
H3 C6 1_555 1_555
H4 C8 1_555 1_555
H5 C10 1_555 1_555
H6 C13 1_555 1_555
H7 C15 1_555 1_555
H8 C17 1_555 1_555
H9 C20 1_555 1_555
H10 C22 1_555 1_555
H11 C24 1_555 1_555
H12 C27 1_555 1_555
H13 C29 1_555 1_555
H14 C29 1_555 1_555
H15 C30 1_555 1_555
H16 C30 1_555 1_555
H17 C31 1_555 1_555
H18 C31 1_555 1_555
H19 C32 1_555 1_555
H20 C32 1_555 1_555
H21 C33 1_555 1_555
H22 C33 1_555 1_555
H23 C34 1_555 1_555
H24 C34 1_555 1_555
H25 C35 1_555 1_555
H26 C35 1_555 1_555
H27 C36 1_555 1_555
H28 C36 1_555 1_555
H29 C37 1_555 1_555
H30 C37 1_555 1_555
H31 C40 1_555 1_555
H32 C41 1_555 1_555
H33 C42 1_555 1_555
H34 C43 1_555 1_555
H35 C44 1_555 1_555
H36 C44 1_555 1_555
H37 C45 1_555 1_555
H38 C45 1_555 1_555
H39 C46 1_555 1_555
H40 C46 1_555 1_555
H41 C47 1_555 1_555
H42 C47 1_555 1_555
H43 C48 1_555 1_555
H44 C49 1_555 1_555
H45 C50 1_555 1_555
H46 C51 1_555 1_555
H47 C52 1_555 1_555
H48 C54 1_555 1_555
H49 C54 1_555 1_555
H50 C55 1_555 1_555
H51 C55 1_555 1_555
H52 C56 1_555 1_555
H53 C56 1_555 1_555
H54 C57 1_555 1_555
H55 C57 1_555 1_555
H56 C59 1_555 1_555
H57 C60 1_555 1_555
H58 C61 1_555 1_555
H59 C62 1_555 1_555
H60 C63 1_555 1_555
H61 C64 1_555 1_555
H62 C64 1_555 1_555
H63 C65 1_555 1_555
H64 C65 1_555 1_555
H65 C66 1_555 1_555
H66 C66 1_555 1_555
H67 C68 1_555 1_555
H68 C69 1_555 1_555
H69 C70 1_555 1_555
H70 C71 1_555 1_555
H71 C72 1_555 1_555
C73 O9 1_555 1_555
O2 C30 1_555 1_555
O4 C31 1_555 1_555
O6 C32 1_555 1_555
O8 C33 1_555 1_555
C13 C14 1_555 1_555
C20 C21 1_555 1_555
C24 C25 1_555 1_555
C27 C28 1_555 1_555
C42 C43 1_555 1_555
C48 C53 1_555 1_555
C62 C63 1_555 1_555
C71 C72 1_555 1_555

#END
