
#######################################################################
#
#                 Cambridge Crystallographic Data Centre
#                                CCDC 
#
#######################################################################
#
# If this CIF has been generated from an entry in the Cambridge 
# Structural Database, then it will include bibliographic, chemical, 
# crystal, experimental, refinement or atomic coordinate data resulting 
# from the CCDC's data processing and validation procedures.
#
#######################################################################

data_CAKTUG
_chemical_formula_moiety         'C35 H58 K1 N6 O10 1+,0.75(C4 H8 O2),I1 1-'
_chemical_name_systematic        
"(tri-t-butyl 2,2',2''-(10-(2-((2-methoxy-6-nitrophenyl)amino)-2-oxoethyl)-1,4,7,10-tetraazacyclododecane-1,4,7-triyl)triacetate)-potassium iodide ethyl acetate unknown solvate"
_symmetry_cell_setting           triclinic
_symmetry_space_group_name_H-M   'P -1'
_symmetry_Int_Tables_number      2
_space_group_name_Hall           '-P 1'
loop_
_symmetry_equiv_pos_site_id
_symmetry_equiv_pos_as_xyz
1 x,y,z
2 -x,-y,-z
_cell_length_a                   16.9830(7)
_cell_length_b                   17.0630(8)
_cell_length_c                   21.3680(9)
_cell_angle_alpha                101.560(5)
_cell_angle_beta                 105.440(7)
_cell_angle_gamma                111.950(9)
_cell_volume                     5215.13
_exptl_crystal_colour            colorless
_exptl_crystal_description       plate
_cell_formula_units_Z            4
loop_
_atom_site_label
_atom_site_type_symbol
_atom_site_fract_x
_atom_site_fract_y
_atom_site_fract_z
C36 C 0.8044(9) 0.6702(10) 0.4923(7)
H59 H 0.7730 0.6146 0.4518
H60 H 0.8624 0.7095 0.4894
C37 C 0.8255(9) 0.6468(9) 0.5568(7)
H61 H 0.7673 0.6056 0.5583
H62 H 0.8628 0.6143 0.5546
C38 C 0.9715(8) 0.7695(8) 0.6312(7)
H63 H 0.9784 0.7721 0.5870
H64 H 1.0030 0.7356 0.6493
C39 C 1.0168(8) 0.8642(8) 0.6821(7)
H65 H 1.0149 0.8612 0.7275
H66 H 1.0819 0.8938 0.6876
C40 C 1.0043(8) 0.9564(9) 0.6117(7)
H67 H 1.0096 0.9103 0.5790
H68 H 1.0662 1.0074 0.6370
C41 C 0.9420(8) 0.9890(9) 0.5708(7)
H69 H 0.9406 1.0386 0.6030
H70 H 0.9677 1.0129 0.5383
C42 C 0.8383(10) 0.8557(10) 0.4684(8)
H71 H 0.8921 0.8436 0.4777
H72 H 0.8379 0.8852 0.4330
C43 C 0.7519(9) 0.7676(10) 0.4406(7)
H73 H 0.6981 0.7797 0.4281
H74 H 0.7497 0.7295 0.3980
C44 C 0.6500(8) 0.6524(9) 0.4736(7)
H75 H 0.6492 0.6057 0.4948
H76 H 0.6187 0.6228 0.4230
C45 C 0.5998(9) 0.7000(10) 0.5003(7)
C46 C 0.4480(9) 0.6676(11) 0.5045(9)
C47 C 0.4857(12) 0.7106(15) 0.5828(11)
H77 H 0.5424 0.7660 0.5975
H78 H 0.4983 0.6689 0.6045
H79 H 0.4404 0.7244 0.5966
C48 C 0.3583(11) 0.5823(13) 0.4729(14)
H80 H 0.3395 0.5616 0.4226
H81 H 0.3111 0.5941 0.4850
H82 H 0.3662 0.5359 0.4906
C49 C 0.4354(11) 0.7373(13) 0.4721(11)
H83 H 0.4095 0.7105 0.4218
H84 H 0.4949 0.7895 0.4867
H85 H 0.3938 0.7561 0.4874
C50 C 0.8608(9) 0.6936(9) 0.6774(7)
H86 H 0.9093 0.7403 0.7208
H87 H 0.8667 0.6375 0.6738
C51 C 0.7678(9) 0.6784(9) 0.6793(8)
C52 C 0.6729(11) 0.6340(12) 0.7480(8)
C53 C 0.6952(12) 0.6083(14) 0.8134(9)
H88 H 0.7483 0.6595 0.8507
H89 H 0.7089 0.5573 0.8038
H90 H 0.6423 0.5918 0.8274
C54 C 0.5906(10) 0.5550(12) 0.6884(9)
H91 H 0.6010 0.5017 0.6826
H92 H 0.5830 0.5697 0.6459
H93 H 0.5352 0.5430 0.6987
C55 C 0.6648(12) 0.7198(12) 0.7630(9)
H94 H 0.7201 0.7667 0.8014
H95 H 0.6112 0.7106 0.7753
H96 H 0.6579 0.7382 0.7220
C56 C 0.7856(10) 0.9580(11) 0.5162(9)
H97 H 0.7287 0.9144 0.4765
H98 H 0.8154 1.0108 0.5031
C57 C 0.7614(9) 0.9875(10) 0.5782(9)
C58 C 0.6871(13) 1.0711(11) 0.6150(11)
C59 C 0.6192(14) 0.9995(15) 0.6301(13)
H99 H 0.6484 0.9663 0.6510
H100 H 0.5673 0.9583 0.5871
H101 H 0.5973 1.0270 0.6620
C60 C 0.7701(14) 1.1396(12) 0.6778(12)
H102 H 0.8097 1.1859 0.6642
H103 H 0.8041 1.1100 0.6988
H104 H 0.7502 1.1674 0.7112
C61 C 0.6424(16) 1.1245(16) 0.5820(13)
H105 H 0.6881 1.1724 0.5736
H106 H 0.6190 1.1508 0.6133
H107 H 0.5917 1.0841 0.5383
C62 C 0.9853(8) 0.9867(8) 0.7188(6)
H108 H 0.9648 1.0292 0.7032
H109 H 1.0513 1.0207 0.7482
C63 C 0.9313(9) 0.9457(9) 0.7612(7)
C64 C 0.9356(9) 0.9560(9) 0.8777(7)
C65 C 0.9407(10) 0.8842(9) 0.8928(8)
C66 C 0.9055(11) 0.8564(11) 0.9393(8)
H110 H 0.9122 0.8082 0.9519
C67 C 0.8624(11) 0.8945(11) 0.9675(8)
H111 H 0.8380 0.8721 0.9990
C68 C 0.8520(9) 0.9646(10) 0.9528(7)
H112 H 0.8219 0.9926 0.9734
C69 C 0.8886(9) 0.9933(9) 0.9048(8)
C70 C 0.9910(12) 0.7722(11) 0.8748(10)
H113 H 1.0254 0.7522 0.8508
H114 H 0.9284 0.7243 0.8585
H115 H 1.0209 0.7867 0.9245
N7 N 0.7450(7) 0.7170(7) 0.4904(5)
N8 N 0.8731(6) 0.7219(6) 0.6189(5)
N9 N 0.8473(7) 0.9168(8) 0.5317(6)
N10 N 0.9724(6) 0.9189(7) 0.6603(5)
N11 N 0.9748(7) 0.9885(7) 0.8300(6)
H116 H 1.0277 1.0368 0.8461
N12 N 0.8787(8) 1.0698(9) 0.8894(8)
O11 O 0.5129(6) 0.6425(6) 0.4817(5)
O12 O 0.6339(6) 0.7787(7) 0.5332(5)
O13 O 0.7583(6) 0.6490(6) 0.7322(5)
O14 O 0.7114(6) 0.6904(6) 0.6391(5)
O15 O 0.7147(7) 1.0338(7) 0.5651(6)
O16 O 0.7861(6) 0.9731(6) 0.6313(6)
O17 O 0.8571(6) 0.8832(6) 0.7358(4)
O18 O 0.9887(7) 0.8479(6) 0.8616(5)
O19 O 0.8614(7) 1.0715(7) 0.8324(7)
O20 O 0.8906(9) 1.1304(9) 0.9373(7)
K2 K 0.7985(3) 0.8294(3) 0.6110(2)
I1 I 0.21520(11) 0.09822(11) 0.87630(9)
I2 I 0.94087(6) 0.24474(7) 0.52778(5)
C71 C 0.1747(11) 0.6380(11) 0.7923(8)
H117 H 0.2367 0.6571 0.8247
H118 H 0.1676 0.6062 0.7460
H119 H 0.1300 0.5980 0.8067
C72 C 0.1589(11) 0.7189(10) 0.7915(9)
C73 C 0.2257(17) 0.8822(10) 0.8458(13)
H120 H 0.2483 0.9094 0.8134
H121 H 0.1614 0.8714 0.8350
C74 C 0.284(3) 0.9434(17) 0.9188(15)
H122 H 0.2850 1.0022 0.9241
H123 H 0.3464 0.9501 0.9298
H124 H 0.2582 0.9177 0.9501
O21 O 0.0890(7) 0.7162(8) 0.7571(7)
O22 O 0.2320(9) 0.7935(8) 0.8390(9)
C75 C 0.354(5) 0.124(3) 0.7936(15)
H125 H 0.3568 0.0831 0.8191
H126 H 0.3221 0.1567 0.8092
H127 H 0.4166 0.1675 0.8018
C76 C 0.304(3) 0.0723(18) 0.7179(14)
C77 C 0.2474(19) -0.072(2) 0.6294(14)
H128 H 0.2170 -0.1363 0.6241
H129 H 0.2013 -0.0565 0.6028
C78 C 0.325(2) -0.053(3) 0.6040(16)
H130 H 0.3007 -0.0887 0.5552
H131 H 0.3696 -0.0686 0.6307
H132 H 0.3542 0.0110 0.6096
O23 O 0.290(3) 0.1040(18) 0.6735(14)
O24 O 0.2888(19) -0.0140(15) 0.7058(13)
O25 O 0.628(5) 0.977(5) 0.828(4)
O26 O 0.555(4) 1.036(4) 0.926(3)
O27 O 0.522(4) 0.267(5) 0.755(3)
C1 C 0.3005(9) 0.3717(9) 0.9770(7)
H1 H 0.2685 0.3071 0.9493
H2 H 0.3269 0.3770 1.0258
C2 C 0.3785(9) 0.4185(9) 0.9546(7)
H3 H 0.4151 0.4817 0.9856
H4 H 0.4191 0.3890 0.9596
C3 C 0.3254(8) 0.3296(8) 0.8366(6)
H5 H 0.2936 0.2819 0.8535
H6 H 0.3835 0.3284 0.8375
C4 C 0.2652(8) 0.3100(8) 0.7620(6)
H7 H 0.2976 0.3562 0.7441
H8 H 0.2539 0.2510 0.7327
C5 C 0.1107(8) 0.2213(8) 0.7595(7)
H9 H 0.0863 0.1745 0.7141
H10 H 0.1443 0.2031 0.7946
C6 C 0.0327(8) 0.2285(8) 0.7762(7)
H11 H -0.0028 0.2428 0.7393
H12 H -0.0084 0.1695 0.7765
C7 C 0.0910(9) 0.2648(9) 0.9014(7)
H13 H 0.0362 0.2224 0.9063
H14 H 0.1262 0.2325 0.8911
C8 C 0.1491(9) 0.3418(9) 0.9680(7)
H15 H 0.1129 0.3734 0.9776
H16 H 0.1623 0.3171 1.0055
C9 C 0.2702(10) 0.4940(9) 1.0246(7)
H17 H 0.3360 0.5299 1.0342
H18 H 0.2646 0.4842 1.0677
C10 C 0.2171(10) 0.5454(9) 1.0015(8)
C11 C 0.2002(13) 0.6757(11) 1.0465(8)
C12 C 0.0952(11) 0.6293(12) 1.0159(10)
H19 H 0.0720 0.5974 1.0454
H20 H 0.0734 0.5866 0.9696
H21 H 0.0731 0.6744 1.0130
C13 C 0.2381(13) 0.7444(12) 1.1226(9)
H22 H 0.3052 0.7738 1.1409
H23 H 0.2164 0.7119 1.1523
H24 H 0.2160 0.7898 1.1213
C14 C 0.2413(15) 0.7289(12) 1.0001(10)
H25 H 0.3084 0.7577 1.0209
H26 H 0.2202 0.7747 0.9972
H27 H 0.2206 0.6869 0.9537
C15 C -0.0113(9) 0.3202(9) 0.8441(7)
H28 H 0.0006 0.3518 0.8924
H29 H -0.0702 0.2650 0.8261
C16 C -0.0185(10) 0.3800(9) 0.8016(7)
C17 C -0.1227(10) 0.4381(10) 0.7515(9)
C18 C -0.2287(12) 0.4007(13) 0.7401(11)
H30 H -0.2349 0.4117 0.7849
H31 H -0.2606 0.3361 0.7147
H32 H -0.2555 0.4313 0.7137
C19 C -0.0683(12) 0.5313(11) 0.7993(9)
H33 H -0.0779 0.5350 0.8428
H34 H -0.0877 0.5708 0.7788
H35 H -0.0033 0.5501 0.8081
C20 C -0.1176(13) 0.4208(12) 0.6826(9)
H36 H -0.1559 0.3570 0.6556
H37 H -0.0540 0.4372 0.6873
H38 H -0.1395 0.4567 0.6591
C21 C 0.4140(8) 0.4914(9) 0.8728(7)
H39 H 0.4003 0.4802 0.8229
H40 H 0.4758 0.4964 0.8942
C22 C 0.4122(10) 0.5785(9) 0.9050(6)
C23 C 0.5074(9) 0.7425(8) 0.9419(7)
C24 C 0.5190(10) 0.7658(10) 1.0156(8)
H41 H 0.4603 0.7329 1.0195
H42 H 0.5400 0.8304 1.0353
H43 H 0.5644 0.7494 1.0407
C25 C 0.4305(10) 0.7562(10) 0.8983(8)
H44 H 0.3737 0.7223 0.9043
H45 H 0.4220 0.7351 0.8497
H46 H 0.4461 0.8202 0.9126
C26 C 0.5981(10) 0.7915(9) 0.9343(9)
H47 H 0.6449 0.7794 0.9628
H48 H 0.6172 0.8562 0.9493
H49 H 0.5906 0.7705 0.8859
C27 C 0.1343(8) 0.3255(8) 0.6959(7)
H50 H 0.0687 0.3076 0.6869
H51 H 0.1387 0.2891 0.6558
C28 C 0.1843(8) 0.4262(8) 0.7052(7)
C29 C 0.2008(9) 0.5333(9) 0.6446(6)
C30 C 0.2924(10) 0.5902(9) 0.6725(7)
C31 C 0.3277(12) 0.6766(12) 0.6748(9)
H52 H 0.3916 0.7150 0.6969
C32 C 0.2675(14) 0.7082(12) 0.6439(10)
H53 H 0.2917 0.7677 0.6428
C33 C 0.1754(12) 0.6557(11) 0.6154(9)
H54 H 0.1352 0.6782 0.5953
C34 C 0.1410(10) 0.5679(10) 0.6163(7)
C35 C -0.0170(12) 0.5407(12) 0.5741(8)
H55 H -0.0783 0.4907 0.5583
H56 H -0.0107 0.5651 0.5369
H57 H -0.0079 0.5876 0.6141
N1 N 0.2341(7) 0.4061(7) 0.9703(5)
N2 N 0.0612(7) 0.2963(7) 0.8424(6)
N3 N 0.3461(6) 0.4165(6) 0.8828(5)
N4 N 0.1758(6) 0.3093(6) 0.7580(5)
N5 N 0.1612(7) 0.4465(7) 0.6488(5)
H58 H 0.1181 0.4029 0.6113
N6 N 0.3616(8) 0.5594(10) 0.7011(7)
O1 O 0.2373(7) 0.6131(6) 1.0553(5)
O2 O 0.1657(6) 0.5260(6) 0.9426(5)
O3 O -0.1002(6) 0.3790(6) 0.7870(5)
O4 O 0.0437(6) 0.4261(6) 0.7853(5)
O5 O 0.4909(5) 0.6492(5) 0.9135(4)
O6 O 0.3527(6) 0.5853(6) 0.9225(5)
O7 O 0.2420(6) 0.4820(6) 0.7598(4)
O8 O 0.0514(6) 0.5089(6) 0.5933(5)
O9 O 0.3468(6) 0.4844(8) 0.6723(5)
O10 O 0.4300(7) 0.6149(7) 0.7512(5)
K1 K 0.2019(3) 0.4412(3) 0.8562(2)
O28? O 0.564(4) 0.974(4) 0.844(3)
O29? O 0.677(5) 1.025(5) 0.905(4)
O30? O 0.560(4) 0.932(4) 0.795(4)
O31? O 0.485(5) 0.330(5) 0.725(4)
O32? O 0.624(5) 1.018(5) 0.908(4)
loop_
_geom_bond_atom_site_label_1
_geom_bond_atom_site_label_2
_geom_bond_site_symmetry_1
_geom_bond_site_symmetry_2
C1 H1 1_555 1_555
H2 C1 1_555 1_555
C2 C1 1_555 1_555
H3 C2 1_555 1_555
H4 C2 1_555 1_555
C3 H5 1_555 1_555
H6 C3 1_555 1_555
C4 C3 1_555 1_555
H7 C4 1_555 1_555
H8 C4 1_555 1_555
C5 H9 1_555 1_555
H10 C5 1_555 1_555
C6 C5 1_555 1_555
H11 C6 1_555 1_555
H12 C6 1_555 1_555
C7 H13 1_555 1_555
H14 C7 1_555 1_555
C8 C7 1_555 1_555
H15 C8 1_555 1_555
H16 C8 1_555 1_555
C9 H17 1_555 1_555
H18 C9 1_555 1_555
C10 C9 1_555 1_555
C11 C12 1_555 1_555
C12 H19 1_555 1_555
H20 C12 1_555 1_555
H21 C12 1_555 1_555
C13 C11 1_555 1_555
H22 C13 1_555 1_555
H23 C13 1_555 1_555
H24 C13 1_555 1_555
C14 C11 1_555 1_555
H25 C14 1_555 1_555
H26 C14 1_555 1_555
H27 C14 1_555 1_555
C15 H28 1_555 1_555
H29 C15 1_555 1_555
C16 C15 1_555 1_555
C17 C18 1_555 1_555
C18 H30 1_555 1_555
H31 C18 1_555 1_555
H32 C18 1_555 1_555
C19 C17 1_555 1_555
H33 C19 1_555 1_555
H34 C19 1_555 1_555
H35 C19 1_555 1_555
C20 C17 1_555 1_555
H36 C20 1_555 1_555
H37 C20 1_555 1_555
H38 C20 1_555 1_555
C21 H39 1_555 1_555
H40 C21 1_555 1_555
C22 C21 1_555 1_555
C23 C24 1_555 1_555
C24 H41 1_555 1_555
H42 C24 1_555 1_555
H43 C24 1_555 1_555
C25 C23 1_555 1_555
H44 C25 1_555 1_555
H45 C25 1_555 1_555
H46 C25 1_555 1_555
C26 C23 1_555 1_555
H47 C26 1_555 1_555
H48 C26 1_555 1_555
H49 C26 1_555 1_555
C27 H50 1_555 1_555
H51 C27 1_555 1_555
C28 C27 1_555 1_555
C29 C30 1_555 1_555
C30 C31 1_555 1_555
C31 H52 1_555 1_555
C32 C31 1_555 1_555
H53 C32 1_555 1_555
C33 C32 1_555 1_555
H54 C33 1_555 1_555
C34 C29 1_555 1_555
C35 H55 1_555 1_555
H56 C35 1_555 1_555
H57 C35 1_555 1_555
N1 C1 1_555 1_555
N2 C6 1_555 1_555
N3 C2 1_555 1_555
N4 C4 1_555 1_555
N5 C28 1_555 1_555
H58 N5 1_555 1_555
N6 C30 1_555 1_555
O1 C10 1_555 1_555
O2 C10 1_555 1_555
O3 C16 1_555 1_555
O4 C16 1_555 1_555
O5 C22 1_555 1_555
O6 C22 1_555 1_555
O7 C28 1_555 1_555
O8 C34 1_555 1_555
O9 N6 1_555 1_555
O10 N6 1_555 1_555
K1 N1 1_555 1_555
C36 H59 1_555 1_555
H60 C36 1_555 1_555
C37 C36 1_555 1_555
H61 C37 1_555 1_555
H62 C37 1_555 1_555
C38 H63 1_555 1_555
H64 C38 1_555 1_555
C39 C38 1_555 1_555
H65 C39 1_555 1_555
H66 C39 1_555 1_555
C40 H67 1_555 1_555
H68 C40 1_555 1_555
C41 C40 1_555 1_555
H69 C41 1_555 1_555
H70 C41 1_555 1_555
C42 H71 1_555 1_555
H72 C42 1_555 1_555
C43 C42 1_555 1_555
H73 C43 1_555 1_555
H74 C43 1_555 1_555
C44 H75 1_555 1_555
H76 C44 1_555 1_555
C45 C44 1_555 1_555
C46 C47 1_555 1_555
C47 H77 1_555 1_555
H78 C47 1_555 1_555
H79 C47 1_555 1_555
C48 C46 1_555 1_555
H80 C48 1_555 1_555
H81 C48 1_555 1_555
H82 C48 1_555 1_555
C49 C46 1_555 1_555
H83 C49 1_555 1_555
H84 C49 1_555 1_555
H85 C49 1_555 1_555
C50 H86 1_555 1_555
H87 C50 1_555 1_555
C51 C50 1_555 1_555
C52 C53 1_555 1_555
C53 H88 1_555 1_555
H89 C53 1_555 1_555
H90 C53 1_555 1_555
C54 C52 1_555 1_555
H91 C54 1_555 1_555
H92 C54 1_555 1_555
H93 C54 1_555 1_555
C55 C52 1_555 1_555
H94 C55 1_555 1_555
H95 C55 1_555 1_555
H96 C55 1_555 1_555
C56 H97 1_555 1_555
H98 C56 1_555 1_555
C57 C56 1_555 1_555
C58 C59 1_555 1_555
C59 H99 1_555 1_555
H100 C59 1_555 1_555
H101 C59 1_555 1_555
C60 C58 1_555 1_555
H102 C60 1_555 1_555
H103 C60 1_555 1_555
H104 C60 1_555 1_555
C61 C58 1_555 1_555
H105 C61 1_555 1_555
H106 C61 1_555 1_555
H107 C61 1_555 1_555
C62 H108 1_555 1_555
H109 C62 1_555 1_555
C63 C62 1_555 1_555
C64 C65 1_555 1_555
C65 C66 1_555 1_555
C66 H110 1_555 1_555
C67 C66 1_555 1_555
H111 C67 1_555 1_555
C68 C67 1_555 1_555
H112 C68 1_555 1_555
C69 C64 1_555 1_555
C70 H113 1_555 1_555
H114 C70 1_555 1_555
H115 C70 1_555 1_555
N7 C36 1_555 1_555
N8 C37 1_555 1_555
N9 C41 1_555 1_555
N10 C39 1_555 1_555
N11 C63 1_555 1_555
H116 N11 1_555 1_555
N12 C69 1_555 1_555
O11 C45 1_555 1_555
O12 C45 1_555 1_555
O13 C51 1_555 1_555
O14 C51 1_555 1_555
O15 C57 1_555 1_555
O16 C57 1_555 1_555
O17 C63 1_555 1_555
O18 C65 1_555 1_555
O19 N12 1_555 1_555
O20 N12 1_555 1_555
K2 N7 1_555 1_555
C71 H117 1_555 1_555
H118 C71 1_555 1_555
H119 C71 1_555 1_555
C72 C71 1_555 1_555
C73 H120 1_555 1_555
H121 C73 1_555 1_555
C74 C73 1_555 1_555
H122 C74 1_555 1_555
H123 C74 1_555 1_555
H124 C74 1_555 1_555
O21 C72 1_555 1_555
O22 C72 1_555 1_555
C75 H125 1_555 1_555
H126 C75 1_555 1_555
H127 C75 1_555 1_555
C76 C75 1_555 1_555
C77 H128 1_555 1_555
H129 C77 1_555 1_555
C78 C77 1_555 1_555
H130 C78 1_555 1_555
H131 C78 1_555 1_555
H132 C78 1_555 1_555
O23 C76 1_555 1_555
O24 C76 1_555 1_555
C3 N3 1_555 1_555
C5 N4 1_555 1_555
C7 N2 1_555 1_555
C8 N1 1_555 1_555
C9 N1 1_555 1_555
C11 O1 1_555 1_555
C15 N2 1_555 1_555
C17 O3 1_555 1_555
C21 N3 1_555 1_555
C23 O5 1_555 1_555
C27 N4 1_555 1_555
C29 N5 1_555 1_555
C33 C34 1_555 1_555
C35 O8 1_555 1_555
N2 K1 1_555 1_555
N3 K1 1_555 1_555
N4 K1 1_555 1_555
O2 K1 1_555 1_555
O4 K1 1_555 1_555
O6 K1 1_555 1_555
O7 K1 1_555 1_555
C38 N8 1_555 1_555
C40 N10 1_555 1_555
C42 N9 1_555 1_555
C43 N7 1_555 1_555
C44 N7 1_555 1_555
C46 O11 1_555 1_555
C50 N8 1_555 1_555
C52 O13 1_555 1_555
C56 N9 1_555 1_555
C58 O15 1_555 1_555
C62 N10 1_555 1_555
C64 N11 1_555 1_555
C68 C69 1_555 1_555
C70 O18 1_555 1_555
N8 K2 1_555 1_555
N9 K2 1_555 1_555
N10 K2 1_555 1_555
O12 K2 1_555 1_555
O14 K2 1_555 1_555
O16 K2 1_555 1_555
O17 K2 1_555 1_555
C73 O22 1_555 1_555
C77 O24 1_555 1_555

#END
