
#######################################################################
#
#                 Cambridge Crystallographic Data Centre
#                                CCDC 
#
#######################################################################
#
# If this CIF has been generated from an entry in the Cambridge 
# Structural Database, then it will include bibliographic, chemical, 
# crystal, experimental, refinement or atomic coordinate data resulting 
# from the CCDC's data processing and validation procedures.
#
#######################################################################

data_CAKVES
_chemical_formula_moiety         'C9 H9 Cl1 N2 O4'
_chemical_name_systematic        2-chloro-N-(2-methoxy-6-nitrophenyl)acetamide
_symmetry_cell_setting           monoclinic
_symmetry_space_group_name_H-M   'P 21/c'
_symmetry_Int_Tables_number      14
_space_group_name_Hall           '-P 2ybc'
loop_
_symmetry_equiv_pos_site_id
_symmetry_equiv_pos_as_xyz
1 x,y,z
2 -x,1/2+y,1/2-z
3 -x,-y,-z
4 x,1/2-y,1/2+z
_cell_length_a                   4.6925(3)
_cell_length_b                   14.8214(8)
_cell_length_c                   14.9223(10)
_cell_angle_alpha                90
_cell_angle_beta                 97.287(4)
_cell_angle_gamma                90
_cell_volume                     1029.45
_exptl_crystal_colour            yellow
_exptl_crystal_description       block
_cell_formula_units_Z            4
loop_
_atom_site_label
_atom_site_type_symbol
_atom_site_fract_x
_atom_site_fract_y
_atom_site_fract_z
Cl1 Cl 0.28412(6) 0.885688(19) 1.007586(19)
C1 C 0.4520(2) 0.51445(7) 0.83580(7)
C2 C 0.3530(2) 0.60198(7) 0.81190(7)
C3 C 0.1323(2) 0.61024(7) 0.74024(7)
C4 C 0.0040(2) 0.53612(8) 0.69461(7)
H1 H -0.1455 0.5483 0.6469
C5 C 0.1059(3) 0.45080(8) 0.71942(8)
H2 H 0.0229 0.3995 0.6856
C6 C 0.3301(2) 0.43954(7) 0.78915(7)
H3 H 0.3921 0.3803 0.8047
C7 C 0.7477(3) 0.42216(8) 0.93999(8)
H4 H 0.5724 0.3897 0.9474
H5 H 0.8304 0.3879 0.8946
H6 H 0.8791 0.4344 0.9931
C8 C 0.3175(2) 0.73688(7) 0.90181(7)
C9 C 0.4958(2) 0.81089(8) 0.95220(9)
H7 H 0.6209 0.8363 0.9228
H8 H 0.6276 0.7847 0.9972
O1 O 0.66545(18) 0.51066(5) 0.90636(5)
O2 O -0.21745(19) 0.70570(6) 0.67144(7)
O3 O 0.20393(19) 0.76207(6) 0.71194(6)
O4 O 0.05478(16) 0.73446(6) 0.89595(6)
N1 N 0.0333(2) 0.69932(6) 0.70638(6)
N2 N 0.47608(18) 0.67514(6) 0.86376(6)
H9 H 0.6772 0.6785 0.8776
loop_
_geom_bond_atom_site_label_1
_geom_bond_atom_site_label_2
_geom_bond_site_symmetry_1
_geom_bond_site_symmetry_2
Cl1 C9 1_555 1_555
C1 C2 1_555 1_555
C2 C3 1_555 1_555
C3 C4 1_555 1_555
C4 H1 1_555 1_555
C5 C4 1_555 1_555
H2 C5 1_555 1_555
C6 C1 1_555 1_555
H3 C6 1_555 1_555
C7 H4 1_555 1_555
H5 C7 1_555 1_555
H6 C7 1_555 1_555
C8 C9 1_555 1_555
C9 H7 1_555 1_555
H8 C9 1_555 1_555
O1 C1 1_555 1_555
O2 N1 1_555 1_555
O3 N1 1_555 1_555
O4 C8 1_555 1_555
N1 C3 1_555 1_555
N2 C2 1_555 1_555
H9 N2 1_555 1_555
C5 C6 1_555 1_555
C7 O1 1_555 1_555
C8 N2 1_555 1_555

#END
