
#######################################################################
#
#                 Cambridge Crystallographic Data Centre
#                                CCDC 
#
#######################################################################
#
# If this CIF has been generated from an entry in the Cambridge 
# Structural Database, then it will include bibliographic, chemical, 
# crystal, experimental, refinement or atomic coordinate data resulting 
# from the CCDC's data processing and validation procedures.
#
#######################################################################

data_CAKZIA
_chemical_formula_moiety         'C19 H20 O4'
_chemical_name_systematic        
5,6-dimethoxy-1-(2-methylphenyl)-11,12-dioxatricyclo[7.2.1.0^2,7^]dodeca-2,4,6-triene
_symmetry_cell_setting           orthorhombic
_symmetry_space_group_name_H-M   'P b c a'
_symmetry_Int_Tables_number      61
_space_group_name_Hall           '-P 2ac 2ab'
loop_
_symmetry_equiv_pos_site_id
_symmetry_equiv_pos_as_xyz
1 x,y,z
2 1/2+x,1/2-y,-z
3 -x,1/2+y,1/2-z
4 1/2-x,-y,1/2+z
5 -x,-y,-z
6 1/2-x,1/2+y,z
7 x,1/2-y,1/2+z
8 1/2+x,y,1/2-z
_cell_length_a                   12.8640(19)
_cell_length_b                   14.501(2)
_cell_length_c                   16.567(3)
_cell_angle_alpha                90
_cell_angle_beta                 90
_cell_angle_gamma                90
_cell_volume                     3090.42
_exptl_crystal_colour            colorless
_cell_formula_units_Z            8
loop_
_atom_site_label
_atom_site_type_symbol
_atom_site_fract_x
_atom_site_fract_y
_atom_site_fract_z
O1 O 0.13951(7) 1.01689(6) 0.67745(5)
O2 O 0.34689(7) 1.04113(6) 0.68380(5)
O3 O 0.50216(7) 0.81196(6) 0.49580(5)
O4 O 0.44439(7) 0.70768(6) 0.58632(6)
C1 C 0.02921(10) 1.00676(10) 0.67152(8)
H1 H 0.0073 1.0181 0.6158
H2 H -0.0048 1.0512 0.7074
H3 H 0.0095 0.9440 0.6873
C2 C 0.19830(10) 0.95653(9) 0.63340(7)
C3 C 0.30616(10) 0.97117(9) 0.63680(7)
C4 C 0.37392(9) 0.91115(9) 0.59835(7)
C5 C 0.33364(10) 0.83583(8) 0.55497(7)
C6 C 0.41024(9) 0.76560(9) 0.52088(7)
C7 C 0.36754(9) 0.70496(9) 0.45415(8)
C8 C 0.34520(9) 0.61287(9) 0.47226(8)
H4 H 0.3600 0.5899 0.5247
C9 C 0.30208(10) 0.55457(9) 0.41536(8)
H5 H 0.2868 0.4924 0.4289
C10 C 0.28121(10) 0.58758(10) 0.33825(8)
H6 H 0.2518 0.5481 0.2986
C11 C 0.32743(10) 1.13271(9) 0.65418(8)
H7 H 0.3603 1.1402 0.6012
H8 H 0.3564 1.1779 0.6920
H9 H 0.2523 1.1424 0.6492
C12 C 0.49022(10) 0.92581(9) 0.60252(8)
H10 H 0.5110 0.9384 0.6590
H11 H 0.5097 0.9798 0.5692
C13 C 0.54672(10) 0.84062(9) 0.57196(8)
H12 H 0.6228 0.8530 0.5661
C14 C 0.52793(10) 0.75571(10) 0.62509(9)
H13 H 0.5909 0.7166 0.6277
H14 H 0.5082 0.7742 0.6805
C15 C 0.22732(9) 0.82403(9) 0.54944(8)
H15 H 0.2003 0.7741 0.5189
C16 C 0.15915(10) 0.88419(9) 0.58794(7)
H16 H 0.0862 0.8757 0.5831
C17 C 0.30367(10) 0.67830(10) 0.31979(8)
H17 H 0.2897 0.7001 0.2668
C18 C 0.34628(10) 0.73927(9) 0.37646(8)
C19 C 0.36773(11) 0.83756(10) 0.35236(9)
H18 H 0.4426 0.8458 0.3439
H19 H 0.3441 0.8791 0.3952
H20 H 0.3305 0.8517 0.3023
loop_
_geom_bond_atom_site_label_1
_geom_bond_atom_site_label_2
_geom_bond_site_symmetry_1
_geom_bond_site_symmetry_2
O1 C1 1_555 1_555
O2 C3 1_555 1_555
O3 C6 1_555 1_555
O4 C6 1_555 1_555
C1 H1 1_555 1_555
H2 C1 1_555 1_555
H3 C1 1_555 1_555
C2 O1 1_555 1_555
C3 C2 1_555 1_555
C4 C3 1_555 1_555
C5 C4 1_555 1_555
C6 C5 1_555 1_555
C7 C6 1_555 1_555
C8 C7 1_555 1_555
H4 C8 1_555 1_555
C9 C8 1_555 1_555
H5 C9 1_555 1_555
C10 C9 1_555 1_555
H6 C10 1_555 1_555
C11 O2 1_555 1_555
H7 C11 1_555 1_555
H8 C11 1_555 1_555
H9 C11 1_555 1_555
C12 C4 1_555 1_555
H10 C12 1_555 1_555
H11 C12 1_555 1_555
C13 O3 1_555 1_555
H12 C13 1_555 1_555
C14 O4 1_555 1_555
H13 C14 1_555 1_555
H14 C14 1_555 1_555
C15 C5 1_555 1_555
H15 C15 1_555 1_555
C16 C2 1_555 1_555
H16 C16 1_555 1_555
C17 C10 1_555 1_555
H17 C17 1_555 1_555
C18 C7 1_555 1_555
C19 C18 1_555 1_555
H18 C19 1_555 1_555
H19 C19 1_555 1_555
H20 C19 1_555 1_555
C12 C13 1_555 1_555
C13 C14 1_555 1_555
C15 C16 1_555 1_555
C17 C18 1_555 1_555

#END
