
#######################################################################
#
#                 Cambridge Crystallographic Data Centre
#                                CCDC 
#
#######################################################################
#
# If this CIF has been generated from an entry in the Cambridge 
# Structural Database, then it will include bibliographic, chemical, 
# crystal, experimental, refinement or atomic coordinate data resulting 
# from the CCDC's data processing and validation procedures.
#
#######################################################################

data_CAKZEW
_chemical_formula_moiety         'C12 H14 O5'
_chemical_name_systematic        
3-(hydroxymethyl)-5,6-dimethoxy-3,4-dihydro-1H-isochromen-1-one
_symmetry_cell_setting           monoclinic
_symmetry_space_group_name_H-M   'P 21/n'
_symmetry_Int_Tables_number      14
_space_group_name_Hall           '-P 2yn'
loop_
_symmetry_equiv_pos_site_id
_symmetry_equiv_pos_as_xyz
1 x,y,z
2 1/2-x,1/2+y,1/2-z
3 -x,-y,-z
4 1/2+x,1/2-y,1/2+z
_cell_length_a                   14.5321(14)
_cell_length_b                   4.2646(5)
_cell_length_c                   17.6646(19)
_cell_angle_alpha                90
_cell_angle_beta                 96.996(5)
_cell_angle_gamma                90
_cell_volume                     1086.59
_exptl_crystal_colour            colorless
_cell_formula_units_Z            4
loop_
_atom_site_label
_atom_site_type_symbol
_atom_site_fract_x
_atom_site_fract_y
_atom_site_fract_z
O1 O 0.53586(9) 0.8324(4) 0.25601(8)
H1 H 0.5433 0.7343 0.2160
O2 O 0.76636(9) 0.2831(4) 0.64413(8)
O3 O 0.76698(9) 1.0709(4) 0.33768(7)
O4 O 0.91541(9) 1.0999(4) 0.38187(8)
O5 O 0.62511(9) 0.4733(4) 0.54283(8)
C1 C 0.61256(13) 1.0357(5) 0.27575(12)
H2 H 0.5908 1.2338 0.2967
H3 H 0.6420 1.0865 0.2296
C2 C 0.68286(12) 0.8804(5) 0.33442(11)
H4 H 0.6966 0.6658 0.3159
C3 C 0.65134(12) 0.8525(5) 0.41264(11)
H5 H 0.6314 1.0604 0.4295
H6 H 0.5978 0.7080 0.4104
C4 C 0.72937(12) 0.7303(5) 0.46855(10)
C5 C 0.71427(12) 0.5555(5) 0.53200(11)
C6 C 0.78939(13) 0.4502(5) 0.58384(11)
C7 C 0.84100(15) 0.1745(5) 0.69861(12)
H7 H 0.8816 0.0370 0.6731
H8 H 0.8157 0.0580 0.7392
H9 H 0.8766 0.3546 0.7207
C8 C 0.83924(13) 0.9962(5) 0.39084(11)
C9 C 0.82104(13) 0.8019(5) 0.45621(10)
C10 C 0.58312(15) 0.6741(7) 0.59340(13)
H10 H 0.6286 0.8284 0.6155
H11 H 0.5616 0.5487 0.6343
H12 H 0.5303 0.7830 0.5651
C11 C 0.87972(13) 0.5230(5) 0.57095(11)
H13 H 0.9307 0.4522 0.6055
C12 C 0.89506(13) 0.6992(5) 0.50759(11)
H14 H 0.9567 0.7501 0.4993
loop_
_geom_bond_atom_site_label_1
_geom_bond_atom_site_label_2
_geom_bond_site_symmetry_1
_geom_bond_site_symmetry_2
O1 H1 1_555 1_555
O2 C6 1_555 1_555
O3 C2 1_555 1_555
O4 C8 1_555 1_555
O5 C5 1_555 1_555
C1 O1 1_555 1_555
H2 C1 1_555 1_555
H3 C1 1_555 1_555
C2 C1 1_555 1_555
H4 C2 1_555 1_555
C3 C2 1_555 1_555
H5 C3 1_555 1_555
H6 C3 1_555 1_555
C4 C3 1_555 1_555
C5 C4 1_555 1_555
C6 C5 1_555 1_555
C7 O2 1_555 1_555
H7 C7 1_555 1_555
H8 C7 1_555 1_555
H9 C7 1_555 1_555
C8 O3 1_555 1_555
C9 C4 1_555 1_555
C10 O5 1_555 1_555
H10 C10 1_555 1_555
H11 C10 1_555 1_555
H12 C10 1_555 1_555
C11 C6 1_555 1_555
H13 C11 1_555 1_555
C12 C9 1_555 1_555
H14 C12 1_555 1_555
C8 C9 1_555 1_555
C11 C12 1_555 1_555

#END
