
#######################################################################
#
#                 Cambridge Crystallographic Data Centre
#                                CCDC 
#
#######################################################################
#
# If this CIF has been generated from an entry in the Cambridge 
# Structural Database, then it will include bibliographic, chemical, 
# crystal, experimental, refinement or atomic coordinate data resulting 
# from the CCDC's data processing and validation procedures.
#
#######################################################################

data_CALBAU
_chemical_name_common            'Pimaric acid'
_chemical_formula_moiety         'C20 H30 O2'
_chemical_name_systematic        
'1,4a,7-trimethyl-7-vinyl-1,2,3,4,4a,4b,5,6,7,9,10,10a-dodecahydrophenanthrene-1-carboxylic acid'
_symmetry_cell_setting           orthorhombic
_symmetry_space_group_name_H-M   'P 21 21 2'
_symmetry_Int_Tables_number      18
_space_group_name_Hall           'P 2 2ab'
loop_
_symmetry_equiv_pos_site_id
_symmetry_equiv_pos_as_xyz
1 x,y,z
2 -x,-y,z
3 1/2-x,1/2+y,-z
4 1/2+x,1/2-y,-z
_cell_length_a                   20.818(4)
_cell_length_b                   10.990(2)
_cell_length_c                   7.7650(16)
_cell_angle_alpha                90
_cell_angle_beta                 90
_cell_angle_gamma                90
_cell_volume                     1776.55
_exptl_crystal_colour            colorless
_exptl_crystal_description       'rectangular plate'
_chemical_melting_point          '490 K'
_cell_formula_units_Z            4
_exptl_crystal_recrystallization_method acetone
loop_
_atom_site_label
_atom_site_type_symbol
_atom_site_fract_x
_atom_site_fract_y
_atom_site_fract_z
O1 O 0.99697(17) 0.6536(3) 0.9540(7)
O2 O 0.91875(17) 0.5243(3) 0.9640(8)
H1 H 0.9493 0.4772 0.9603
C1 C 0.5623(5) 0.9204(9) 0.5670(15)
H2 H 0.5421 0.9085 0.6725
H3 H 0.5589 0.9950 0.5113
C2 C 0.5940(4) 0.8361(8) 0.5000(12)
H4 H 0.6125 0.8558 0.3947
C3 C 0.5645(3) 0.6180(8) 0.4461(11)
H5 H 0.5725 0.6340 0.3264
H6 H 0.5200 0.6321 0.4713
H7 H 0.5752 0.5350 0.4715
C4 C 0.6077(3) 0.7061(6) 0.5606(8)
C5 C 0.6758(2) 0.6766(5) 0.5262(7)
H8 H 0.6874 0.6647 0.4118
C6 C 0.7215(2) 0.6657(4) 0.6420(6)
C7 C 0.7116(2) 0.6929(4) 0.8315(6)
H9 H 0.7139 0.6144 0.8911
C8 C 0.6445(2) 0.7431(5) 0.8672(7)
H10 H 0.6339 0.7301 0.9874
H11 H 0.6442 0.8300 0.8458
C9 C 0.5940(2) 0.6822(6) 0.7544(8)
H12 H 0.5518 0.7136 0.7837
H13 H 0.5940 0.5952 0.7760
C10 C 0.7870(2) 0.6163(5) 0.5973(6)
H14 H 0.7920 0.6179 0.4731
H15 H 0.7892 0.5320 0.6338
C11 C 0.8424(2) 0.6850(5) 0.6776(6)
H16 H 0.8465 0.7645 0.6245
H17 H 0.8822 0.6409 0.6592
C12 C 0.82995(19) 0.6994(4) 0.8726(5)
H18 H 0.8203 0.6169 0.9128
C13 C 0.7675(2) 0.7720(4) 0.9057(5)
C14 C 0.8910(2) 0.7370(4) 0.9743(6)
C15 C 0.8742(3) 0.7497(5) 1.1667(7)
H19 H 0.8647 0.6699 1.2137
H20 H 0.9110 0.7821 1.2280
C16 C 0.8169(3) 0.8327(5) 1.1954(7)
H21 H 0.8081 0.8385 1.3178
H22 H 0.8270 0.9137 1.1535
C17 C 0.7580(2) 0.7849(5) 1.1030(5)
H23 H 0.7224 0.8396 1.1244
H24 H 0.7469 0.7061 1.1505
C18 C 0.7663(2) 0.8972(4) 0.8218(7)
H25 H 0.8006 0.9458 0.8672
H26 H 0.7260 0.9360 0.8456
H27 H 0.7715 0.8887 0.6995
C19 C 0.9237(2) 0.8539(5) 0.9099(8)
H28 H 0.9608 0.8706 0.9794
H29 H 0.8941 0.9206 0.9181
H30 H 0.9366 0.8435 0.7922
C20 C 0.9393(2) 0.6334(4) 0.9643(7)
loop_
_geom_bond_atom_site_label_1
_geom_bond_atom_site_label_2
_geom_bond_site_symmetry_1
_geom_bond_site_symmetry_2
O1 C20 1_555 1_555
O2 H1 1_555 1_555
C1 H2 1_555 1_555
H3 C1 1_555 1_555
C2 C1 1_555 1_555
H4 C2 1_555 1_555
C3 H5 1_555 1_555
H6 C3 1_555 1_555
H7 C3 1_555 1_555
C4 C2 1_555 1_555
C5 C4 1_555 1_555
H8 C5 1_555 1_555
C6 C5 1_555 1_555
C7 C6 1_555 1_555
H9 C7 1_555 1_555
C8 C7 1_555 1_555
H10 C8 1_555 1_555
H11 C8 1_555 1_555
C9 C4 1_555 1_555
H12 C9 1_555 1_555
H13 C9 1_555 1_555
C10 C6 1_555 1_555
H14 C10 1_555 1_555
H15 C10 1_555 1_555
C11 C10 1_555 1_555
H16 C11 1_555 1_555
H17 C11 1_555 1_555
C12 C11 1_555 1_555
H18 C12 1_555 1_555
C13 C7 1_555 1_555
C14 C12 1_555 1_555
C15 C14 1_555 1_555
H19 C15 1_555 1_555
H20 C15 1_555 1_555
C16 C15 1_555 1_555
H21 C16 1_555 1_555
H22 C16 1_555 1_555
C17 C13 1_555 1_555
H23 C17 1_555 1_555
H24 C17 1_555 1_555
C18 C13 1_555 1_555
H25 C18 1_555 1_555
H26 C18 1_555 1_555
H27 C18 1_555 1_555
C19 C14 1_555 1_555
H28 C19 1_555 1_555
H29 C19 1_555 1_555
H30 C19 1_555 1_555
C20 O2 1_555 1_555
C3 C4 1_555 1_555
C8 C9 1_555 1_555
C12 C13 1_555 1_555
C14 C20 1_555 1_555
C16 C17 1_555 1_555

#END
