
#######################################################################
#
#                 Cambridge Crystallographic Data Centre
#                                CCDC 
#
#######################################################################
#
# If this CIF has been generated from an entry in the Cambridge 
# Structural Database, then it will include bibliographic, chemical, 
# crystal, experimental, refinement or atomic coordinate data resulting 
# from the CCDC's data processing and validation procedures.
#
#######################################################################

data_CALKAE
_chemical_formula_moiety         'C14 H18 O3 S1'
_chemical_name_systematic        '2-(phenylsulfinyl)cyclohexyl acetate'
_symmetry_cell_setting           orthorhombic
_symmetry_space_group_name_H-M   'P 21 21 21'
_symmetry_Int_Tables_number      19
_space_group_name_Hall           'P 2ac 2ab'
loop_
_symmetry_equiv_pos_site_id
_symmetry_equiv_pos_as_xyz
1 x,y,z
2 1/2+x,1/2-y,-z
3 -x,1/2+y,1/2-z
4 1/2-x,-y,1/2+z
_cell_length_a                   5.525(3)
_cell_length_b                   10.979(7)
_cell_length_c                   23.301(14)
_cell_angle_alpha                90
_cell_angle_beta                 90
_cell_angle_gamma                90
_cell_volume                     1413.41
_cell_formula_units_Z            4
loop_
_atom_site_label
_atom_site_type_symbol
_atom_site_fract_x
_atom_site_fract_y
_atom_site_fract_z
C1 C 0.1269(8) -0.4130(3) 0.89915(16)
H1 H 0.0641 -0.4912 0.8954
C2 C 0.0064(7) -0.3274(4) 0.93120(16)
H2 H -0.1360 -0.3486 0.9500
C3 C 0.0954(6) -0.2087(3) 0.93591(13)
H3 H 0.0125 -0.1507 0.9573
C4 C 0.3077(6) -0.1791(3) 0.90832(14)
C5 C 0.4297(7) -0.2654(3) 0.87782(15)
H4 H 0.5752 -0.2457 0.8601
C6 C 0.3377(8) -0.3830(3) 0.87308(17)
H5 H 0.4214 -0.4412 0.8519
C7 C 0.2380(6) 0.0493(3) 0.86136(12)
H6 H 0.0726 0.0542 0.8764
C8 C 0.2315(7) -0.0157(3) 0.80381(14)
H7 H 0.1582 -0.0954 0.8085
H8 H 0.3955 -0.0273 0.7899
C9 C 0.0869(10) 0.0578(4) 0.75982(16)
H9 H 0.0932 0.0172 0.7229
H10 H -0.0811 0.0620 0.7717
C10 C 0.1888(10) 0.1861(4) 0.75409(14)
H11 H 0.3519 0.1819 0.7388
H12 H 0.0904 0.2322 0.7273
C11 C 0.1928(7) 0.2510(3) 0.81171(13)
H13 H 0.2650 0.3310 0.8073
H14 H 0.0285 0.2616 0.8256
C12 C 0.3361(6) 0.1780(3) 0.85441(13)
H15 H 0.5050 0.1737 0.8417
C13 C 0.4985(8) 0.3176(3) 0.92338(19)
C14 C 0.4584(9) 0.3698(3) 0.98234(17)
H16 H 0.4848 0.3077 1.0106
H17 H 0.2953 0.3994 0.9853
H18 H 0.5694 0.4358 0.9887
O1 O 0.3266(4) 0.23672(19) 0.91039(9)
O2 O 0.6582(6) 0.3444(3) 0.89148(15)
O3 O 0.6756(4) -0.0311(2) 0.88955(13)
S1 S 0.42860(16) -0.02790(8) 0.91464(4)
loop_
_geom_bond_atom_site_label_1
_geom_bond_atom_site_label_2
_geom_bond_site_symmetry_1
_geom_bond_site_symmetry_2
C1 H1 1_555 1_555
C2 C1 1_555 1_555
H2 C2 1_555 1_555
C3 C2 1_555 1_555
H3 C3 1_555 1_555
C4 C3 1_555 1_555
C5 C4 1_555 1_555
H4 C5 1_555 1_555
C6 C1 1_555 1_555
H5 C6 1_555 1_555
C7 H6 1_555 1_555
C8 C7 1_555 1_555
H7 C8 1_555 1_555
H8 C8 1_555 1_555
C9 C8 1_555 1_555
H9 C9 1_555 1_555
H10 C9 1_555 1_555
C10 C9 1_555 1_555
H11 C10 1_555 1_555
H12 C10 1_555 1_555
C11 C10 1_555 1_555
H13 C11 1_555 1_555
H14 C11 1_555 1_555
C12 C7 1_555 1_555
H15 C12 1_555 1_555
C13 C14 1_555 1_555
C14 H16 1_555 1_555
H17 C14 1_555 1_555
H18 C14 1_555 1_555
O1 C12 1_555 1_555
O2 C13 1_555 1_555
O3 S1 1_555 1_555
S1 C4 1_555 1_555
C5 C6 1_555 1_555
C7 S1 1_555 1_555
C11 C12 1_555 1_555
C13 O1 1_555 1_555

#END
