
#######################################################################
#
#                 Cambridge Crystallographic Data Centre
#                                CCDC 
#
#######################################################################
#
# If this CIF has been generated from an entry in the Cambridge 
# Structural Database, then it will include bibliographic, chemical, 
# crystal, experimental, refinement or atomic coordinate data resulting 
# from the CCDC's data processing and validation procedures.
#
#######################################################################

data_CALYIZ
_chemical_formula_moiety         'C20 H18 O3'
_chemical_name_systematic        
(2E,6E)-2,6-bis((4-hydroxyphenyl)methylene)cyclohexanone
_symmetry_cell_setting           orthorhombic
_symmetry_space_group_name_H-M   'P n a 21'
_symmetry_Int_Tables_number      33
_space_group_name_Hall           'P 2c -2n'
loop_
_symmetry_equiv_pos_site_id
_symmetry_equiv_pos_as_xyz
1 x,y,z
2 -x,-y,1/2+z
3 1/2-x,1/2+y,1/2+z
4 1/2+x,1/2-y,z
_cell_length_a                   11.7874(3)
_cell_length_b                   34.931(2)
_cell_length_c                   7.6321(4)
_cell_angle_alpha                90
_cell_angle_beta                 90
_cell_angle_gamma                90
_cell_volume                     3142.48
_exptl_crystal_colour            'brown yellow'
_exptl_crystal_description       block
_cell_formula_units_Z            8
loop_
_atom_site_label
_atom_site_type_symbol
_atom_site_fract_x
_atom_site_fract_y
_atom_site_fract_z
C1 C 0.2686(3) 0.31743(11) 0.2206(6)
C2 C 0.3691(3) 0.30920(11) 0.1366(6)
H1 H 0.4122 0.3288 0.0882
C3 C 0.4055(3) 0.27175(11) 0.1245(6)
H2 H 0.4735 0.2665 0.0677
C4 C 0.3429(3) 0.24176(10) 0.1952(6)
C5 C 0.2429(3) 0.25107(11) 0.2829(6)
H3 H 0.1997 0.2316 0.3329
C6 C 0.2067(3) 0.28843(11) 0.2970(6)
H4 H 0.1404 0.2941 0.3579
C7 C 0.3896(3) 0.20290(10) 0.1844(6)
H5 H 0.4678 0.2015 0.1691
C8 C 0.3363(3) 0.16905(10) 0.1931(6)
C9 C 0.4096(3) 0.13447(11) 0.2006(7)
C10 C 0.3578(3) 0.09560(11) 0.1927(6)
C11 C 0.2307(3) 0.09269(10) 0.1852(6)
H6 H 0.2009 0.0908 0.3033
H7 H 0.2097 0.0696 0.1228
C12 C 0.1785(3) 0.12699(11) 0.0944(7)
H8 H 0.0966 0.1243 0.0927
H9 H 0.2049 0.1281 -0.0258
C13 C 0.2101(3) 0.16395(10) 0.1882(6)
H10 H 0.1758 0.1855 0.1279
H11 H 0.1807 0.1634 0.3068
C14 C 0.4290(3) 0.06565(10) 0.1891(6)
H12 H 0.5054 0.0721 0.1820
C15 C 0.4058(3) 0.02475(10) 0.1945(6)
C16 C 0.4895(3) -0.00076(11) 0.1353(6)
H13 H 0.5557 0.0090 0.0865
C17 C 0.4765(3) -0.03967(11) 0.1472(7)
H14 H 0.5332 -0.0559 0.1061
C18 C 0.3794(3) -0.05474(12) 0.2201(8)
C19 C 0.2953(3) -0.03046(11) 0.2790(7)
H15 H 0.2294 -0.0406 0.3276
C20 C 0.3080(3) 0.00827(11) 0.2666(6)
H16 H 0.2503 0.0241 0.3070
O1 O 0.2345(2) 0.35503(8) 0.2309(5)
H17 H 0.157(4) 0.3592(2) 0.2325(5)
O2 O 0.5126(2) 0.13790(8) 0.2183(7)
O3 O 0.3619(3) -0.09302(9) 0.2407(8)
H18 H 0.430(4) -0.1079(9) 0.200(3)
C21 C 0.0034(3) 0.31715(10) 0.7245(6)
C22 C 0.1030(3) 0.30639(11) 0.8065(6)
H19 H 0.1447 0.3244 0.8690
C23 C 0.1407(3) 0.26909(11) 0.7960(6)
H20 H 0.2081 0.2623 0.8513
C24 C 0.0801(3) 0.24122(10) 0.7043(5)
C25 C -0.0177(3) 0.25304(11) 0.6170(5)
H21 H -0.0584 0.2354 0.5510
C26 C -0.0556(3) 0.29053(10) 0.6262(5)
H22 H -0.1208 0.2978 0.5662
C27 C 0.1252(3) 0.20225(10) 0.6952(6)
H23 H 0.2027 0.2003 0.7164
C28 C 0.0736(3) 0.16883(10) 0.6615(5)
C29 C 0.1474(3) 0.13428(10) 0.6510(6)
C30 C 0.0948(3) 0.09533(10) 0.6496(5)
C31 C -0.0311(3) 0.09258(11) 0.6253(7)
H24 H -0.0579 0.0686 0.6744
H25 H -0.0485 0.0926 0.5011
C32 C -0.0927(3) 0.12559(10) 0.7128(7)
H26 H -0.0788 0.1249 0.8381
H27 H -0.1737 0.1230 0.6939
C33 C -0.0524(3) 0.16361(11) 0.6392(6)
H28 H -0.0712 0.1649 0.5156
H29 H -0.0918 0.1843 0.6983
C34 C 0.1650(3) 0.06559(10) 0.6775(5)
H30 H 0.2400 0.0722 0.7005
C35 C 0.1419(3) 0.02430(10) 0.6773(5)
C36 C 0.2158(3) 0.00063(10) 0.7692(6)
H31 H 0.2750 0.0115 0.8324
C37 C 0.2034(3) -0.03894(10) 0.7688(6)
H32 H 0.2527 -0.0543 0.8331
C38 C 0.1169(3) -0.05528(11) 0.6718(6)
C39 C 0.0430(3) -0.03222(11) 0.5793(6)
H33 H -0.0158 -0.0433 0.5157
C40 C 0.0556(3) 0.00709(11) 0.5805(6)
H34 H 0.0060 0.0222 0.5160
O4 O -0.0321(2) 0.35403(8) 0.7373(5)
H35 H -0.104(4) 0.3593(3) 0.677(3)
O5 O 0.2509(2) 0.13760(7) 0.6412(5)
O6 O 0.1003(2) -0.09383(7) 0.6612(4)
H36 H 0.170(4) -0.1038(5) 0.6892(16)
loop_
_geom_bond_atom_site_label_1
_geom_bond_atom_site_label_2
_geom_bond_site_symmetry_1
_geom_bond_site_symmetry_2
C1 C2 1_555 1_555
C2 H1 1_555 1_555
C3 C2 1_555 1_555
H2 C3 1_555 1_555
C4 C3 1_555 1_555
C5 C4 1_555 1_555
H3 C5 1_555 1_555
C6 C1 1_555 1_555
H4 C6 1_555 1_555
C7 C4 1_555 1_555
H5 C7 1_555 1_555
C8 C7 1_555 1_555
C9 C8 1_555 1_555
C10 C9 1_555 1_555
C11 C10 1_555 1_555
H6 C11 1_555 1_555
H7 C11 1_555 1_555
C12 C11 1_555 1_555
H8 C12 1_555 1_555
H9 C12 1_555 1_555
C13 C8 1_555 1_555
H10 C13 1_555 1_555
H11 C13 1_555 1_555
C14 C10 1_555 1_555
H12 C14 1_555 1_555
C15 C14 1_555 1_555
C16 C15 1_555 1_555
H13 C16 1_555 1_555
C17 C16 1_555 1_555
H14 C17 1_555 1_555
C18 C17 1_555 1_555
C19 C18 1_555 1_555
H15 C19 1_555 1_555
C20 C15 1_555 1_555
H16 C20 1_555 1_555
O1 C1 1_555 1_555
H17 O1 1_555 1_555
O2 C9 1_555 1_555
O3 C18 1_555 1_555
H18 O3 1_555 1_555
C21 C22 1_555 1_555
C22 H19 1_555 1_555
C23 C22 1_555 1_555
H20 C23 1_555 1_555
C24 C23 1_555 1_555
C25 C24 1_555 1_555
H21 C25 1_555 1_555
C26 C21 1_555 1_555
H22 C26 1_555 1_555
C27 C24 1_555 1_555
H23 C27 1_555 1_555
C28 C27 1_555 1_555
C29 C28 1_555 1_555
C30 C29 1_555 1_555
C31 C30 1_555 1_555
H24 C31 1_555 1_555
H25 C31 1_555 1_555
C32 C31 1_555 1_555
H26 C32 1_555 1_555
H27 C32 1_555 1_555
C33 C28 1_555 1_555
H28 C33 1_555 1_555
H29 C33 1_555 1_555
C34 C30 1_555 1_555
H30 C34 1_555 1_555
C35 C34 1_555 1_555
C36 C35 1_555 1_555
H31 C36 1_555 1_555
C37 C36 1_555 1_555
H32 C37 1_555 1_555
C38 C37 1_555 1_555
C39 C38 1_555 1_555
H33 C39 1_555 1_555
C40 C35 1_555 1_555
H34 C40 1_555 1_555
O4 C21 1_555 1_555
H35 O4 1_555 1_555
O5 C29 1_555 1_555
O6 C38 1_555 1_555
H36 O6 1_555 1_555
C5 C6 1_555 1_555
C12 C13 1_555 1_555
C19 C20 1_555 1_555
C25 C26 1_555 1_555
C32 C33 1_555 1_555
C39 C40 1_555 1_555

#END
