
#######################################################################
#
#                 Cambridge Crystallographic Data Centre
#                                CCDC 
#
#######################################################################
#
# If this CIF has been generated from an entry in the Cambridge 
# Structural Database, then it will include bibliographic, chemical, 
# crystal, experimental, refinement or atomic coordinate data resulting 
# from the CCDC's data processing and validation procedures.
#
#######################################################################

data_CAMGOO
_chemical_formula_moiety         'C25 H22 Cl1 N1 S1'
_chemical_name_systematic        
2-(3-Chloropropyl)-4-(diphenylmethyl)-5-phenyl-1,3-thiazole
_symmetry_cell_setting           triclinic
_symmetry_space_group_name_H-M   'P -1'
_symmetry_Int_Tables_number      2
_space_group_name_Hall           '-P 1'
loop_
_symmetry_equiv_pos_site_id
_symmetry_equiv_pos_as_xyz
1 x,y,z
2 -x,-y,-z
_cell_length_a                   9.6923(11)
_cell_length_b                   10.0308(11)
_cell_length_c                   12.2838(14)
_cell_angle_alpha                101.725(6)
_cell_angle_beta                 100.635(6)
_cell_angle_gamma                115.204(5)
_cell_volume                     1007.26
_exptl_crystal_colour            colorless
_exptl_crystal_description       block
_cell_formula_units_Z            2
loop_
_atom_site_label
_atom_site_type_symbol
_atom_site_fract_x
_atom_site_fract_y
_atom_site_fract_z
C1 C 0.73014(18) 0.33861(17) 0.03528(14)
C2 C 0.65131(19) 0.17765(17) -0.01844(15)
H1 H 0.6904 0.1165 0.0123
C3 C 0.5178(2) 0.10640(18) -0.11536(15)
H2 H 0.4663 -0.0030 -0.1509
C4 C 0.4579(2) 0.1937(2) -0.16154(15)
H3 H 0.3660 0.1444 -0.2284
C5 C 0.5337(2) 0.35310(19) -0.10899(15)
H4 H 0.4933 0.4134 -0.1398
C6 C 0.6688(2) 0.42535(18) -0.01135(14)
H5 H 0.7199 0.5348 0.0240
C7 C 0.88604(19) 0.41519(17) 0.13602(14)
H6 H 0.9701 0.4128 0.1004
C8 C 0.94346(18) 0.58604(17) 0.19877(14)
C9 C 0.8649(2) 0.63411(18) 0.26873(15)
H7 H 0.7698 0.5592 0.2772
C10 C 0.9244(2) 0.79043(19) 0.32609(16)
H8 H 0.8699 0.8219 0.3738
C11 C 1.0637(2) 0.90201(19) 0.31433(17)
H9 H 1.1052 1.0089 0.3550
C12 C 1.1410(2) 0.85590(18) 0.24308(16)
H10 H 1.2346 0.9313 0.2332
C13 C 1.0814(2) 0.69899(18) 0.18610(15)
H11 H 1.1353 0.6679 0.1377
C14 C 0.87788(18) 0.32443(17) 0.22115(14)
C15 C 0.97830(19) 0.26477(17) 0.25017(14)
C16 C 1.10580(19) 0.25774(17) 0.20268(15)
C17 C 1.0773(2) 0.20367(18) 0.08263(16)
H12 H 0.9765 0.1744 0.0301
C18 C 1.1966(2) 0.19257(19) 0.03961(17)
H13 H 1.1765 0.1558 -0.0423
C19 C 1.3444(2) 0.2346(2) 0.11488(18)
H14 H 1.4250 0.2263 0.0848
C20 C 1.3737(2) 0.2888(2) 0.23472(18)
H15 H 1.4749 0.3184 0.2868
C21 C 1.2549(2) 0.29978(19) 0.27848(17)
H16 H 1.2753 0.3361 0.3605
C22 C 0.7808(2) 0.23170(18) 0.35592(15)
C23 C 0.6778(2) 0.19286(19) 0.43438(15)
H17 H 0.6859 0.1106 0.4635
H18 H 0.5646 0.1521 0.3891
C24 C 0.7280(2) 0.3344(2) 0.53747(15)
H19 H 0.8409 0.3742 0.5828
H20 H 0.7217 0.4171 0.5079
C25 C 0.6246(2) 0.2997(2) 0.61773(16)
H21 H 0.6730 0.3902 0.6894
H22 H 0.6212 0.2097 0.6409
N1 N 0.76568(16) 0.30408(15) 0.28014(12)
S1 S 0.93306(5) 0.18461(5) 0.35978(4)
Cl1 Cl 0.42467(6) 0.25779(7) 0.54813(5)
loop_
_geom_bond_atom_site_label_1
_geom_bond_atom_site_label_2
_geom_bond_site_symmetry_1
_geom_bond_site_symmetry_2
C1 C2 1_555 1_555
C2 H1 1_555 1_555
C3 C2 1_555 1_555
H2 C3 1_555 1_555
C4 C3 1_555 1_555
H3 C4 1_555 1_555
C5 C4 1_555 1_555
H4 C5 1_555 1_555
C6 C1 1_555 1_555
H5 C6 1_555 1_555
C7 C1 1_555 1_555
H6 C7 1_555 1_555
C8 C7 1_555 1_555
C9 C8 1_555 1_555
H7 C9 1_555 1_555
C10 C9 1_555 1_555
H8 C10 1_555 1_555
C11 C10 1_555 1_555
H9 C11 1_555 1_555
C12 C11 1_555 1_555
H10 C12 1_555 1_555
C13 C8 1_555 1_555
H11 C13 1_555 1_555
C14 C7 1_555 1_555
C15 C14 1_555 1_555
C16 C15 1_555 1_555
C17 C16 1_555 1_555
H12 C17 1_555 1_555
C18 C17 1_555 1_555
H13 C18 1_555 1_555
C19 C18 1_555 1_555
H14 C19 1_555 1_555
C20 C19 1_555 1_555
H15 C20 1_555 1_555
C21 C16 1_555 1_555
H16 C21 1_555 1_555
C22 C23 1_555 1_555
C23 H17 1_555 1_555
H18 C23 1_555 1_555
C24 C23 1_555 1_555
H19 C24 1_555 1_555
H20 C24 1_555 1_555
C25 C24 1_555 1_555
H21 C25 1_555 1_555
H22 C25 1_555 1_555
N1 C14 1_555 1_555
S1 C15 1_555 1_555
Cl1 C25 1_555 1_555
C5 C6 1_555 1_555
C12 C13 1_555 1_555
C20 C21 1_555 1_555
C22 N1 1_555 1_555
C22 S1 1_555 1_555

#END
