
#######################################################################
#
#                 Cambridge Crystallographic Data Centre
#                                CCDC 
#
#######################################################################
#
# If this CIF has been generated from an entry in the Cambridge 
# Structural Database, then it will include bibliographic, chemical, 
# crystal, experimental, refinement or atomic coordinate data resulting 
# from the CCDC's data processing and validation procedures.
#
#######################################################################

data_CAMHAZ
_chemical_formula_moiety         'C17 H17 N3 O3'
_chemical_name_systematic        
8,10-Dimethyl-4-phenyl-2,4,6-triazatricyclo(5.3.2.0^2,6^)dodec-11-ene-3,5,9-trione
_symmetry_cell_setting           orthorhombic
_symmetry_space_group_name_H-M   'P 21 21 21'
_symmetry_Int_Tables_number      19
_space_group_name_Hall           'P 2ac 2ab'
loop_
_symmetry_equiv_pos_site_id
_symmetry_equiv_pos_as_xyz
1 x,y,z
2 1/2+x,1/2-y,-z
3 -x,1/2+y,1/2-z
4 1/2-x,-y,1/2+z
_cell_length_a                   7.230(3)
_cell_length_b                   9.301(3)
_cell_length_c                   21.854(7)
_cell_angle_alpha                90
_cell_angle_beta                 90
_cell_angle_gamma                90
_cell_volume                     1469.6
_cell_formula_units_Z            4
loop_
_atom_site_label
_atom_site_type_symbol
_atom_site_fract_x
_atom_site_fract_y
_atom_site_fract_z
C1 C 0.84386 -0.11166 0.65238
H1 H 0.90910 -0.04170 0.65040
C2 C 0.87019 -0.18469 0.71305
H2 H 0.85630 -0.11190 0.74300
C3 C 0.73986 -0.31084 0.72632
O1 O 0.77534 -0.38903 0.76813
C4 C 0.55709 -0.33856 0.69242
H3 H 0.45450 -0.29920 0.71580
C5 C 0.53655 -0.26840 0.63000
H4 H 0.45450 -0.30360 0.61110
C6 C 0.70148 -0.29350 0.58771
H5 H 0.69530 -0.34760 0.54710
C7 C 0.84848 -0.21288 0.59874
H6 H 0.95790 -0.20760 0.57590
N1 N 0.66579 -0.03029 0.65249
N2 N 0.50706 -0.11249 0.63632
O2 O 0.24629 -0.06708 0.57692
C8 C 0.39016 -0.02940 0.60243
N3 N 0.46585 0.10726 0.60294
O3 O 0.75315 0.20302 0.63222
C9 C 0.64534 0.10486 0.62883
C10 C 1.07227 -0.23982 0.71901
H7 H 1.10150 -0.30650 0.68460
H8 H 1.16050 -0.15350 0.71560
H9 H 1.09110 -0.28640 0.75880
C11 C 0.52128 -0.49741 0.68894
H10 H 0.39060 -0.51330 0.67310
H11 H 0.60940 -0.54260 0.65930
H12 H 0.53280 -0.54410 0.72940
C12 C 0.37854 0.23375 0.57944
C13 C 0.46916 0.32225 0.53940
H13 H 0.58220 0.29350 0.53090
C14 C 0.38405 0.44381 0.51789
H14 H 0.42570 0.50980 0.48570
C15 C 0.20370 0.47917 0.53726
H15 H 0.18180 0.57220 0.51200
C16 C 0.11546 0.39054 0.57743
H16 H -0.01930 0.43010 0.60010
C17 C 0.19803 0.26726 0.59997
H17 H 0.13640 0.22410 0.63090
loop_
_geom_bond_atom_site_label_1
_geom_bond_atom_site_label_2
_geom_bond_site_symmetry_1
_geom_bond_site_symmetry_2
C1 H1 1_555 1_555
C2 C1 1_555 1_555
H2 C2 1_555 1_555
C3 C2 1_555 1_555
O1 C3 1_555 1_555
C4 C3 1_555 1_555
H3 C4 1_555 1_555
C5 C4 1_555 1_555
H4 C5 1_555 1_555
C6 C5 1_555 1_555
H5 C6 1_555 1_555
C7 C1 1_555 1_555
H6 C7 1_555 1_555
N1 C1 1_555 1_555
N2 C5 1_555 1_555
O2 C8 1_555 1_555
C8 N2 1_555 1_555
N3 C8 1_555 1_555
O3 C9 1_555 1_555
C9 N1 1_555 1_555
C10 C2 1_555 1_555
H7 C10 1_555 1_555
H8 C10 1_555 1_555
H9 C10 1_555 1_555
C11 C4 1_555 1_555
H10 C11 1_555 1_555
H11 C11 1_555 1_555
H12 C11 1_555 1_555
C12 N3 1_555 1_555
C13 C12 1_555 1_555
H13 C13 1_555 1_555
C14 C13 1_555 1_555
H14 C14 1_555 1_555
C15 C14 1_555 1_555
H15 C15 1_555 1_555
C16 C15 1_555 1_555
H16 C16 1_555 1_555
C17 C12 1_555 1_555
H17 C17 1_555 1_555
C6 C7 1_555 1_555
N1 N2 1_555 1_555
N3 C9 1_555 1_555
C16 C17 1_555 1_555

#END
