
#######################################################################
#
#                 Cambridge Crystallographic Data Centre
#                                CCDC 
#
#######################################################################
#
# If this CIF has been generated from an entry in the Cambridge 
# Structural Database, then it will include bibliographic, chemical, 
# crystal, experimental, refinement or atomic coordinate data resulting 
# from the CCDC's data processing and validation procedures.
#
#######################################################################

data_CAMLEH
_chemical_formula_moiety         'C16 H12 Cl2 N2 O5'
_chemical_name_systematic        
'(E) Azoxy bis(methylene)-bis(3-chlorobenzoate)'
_chemical_properties_biological  'high mutagenic activity'
_symmetry_cell_setting           monoclinic
_symmetry_space_group_name_H-M   'P 21/c'
_symmetry_Int_Tables_number      14
_space_group_name_Hall           '-P 2ybc'
loop_
_symmetry_equiv_pos_site_id
_symmetry_equiv_pos_as_xyz
1 x,y,z
2 -x,1/2+y,1/2-z
3 -x,-y,-z
4 x,1/2-y,1/2+z
_cell_length_a                   17.6884(2)
_cell_length_b                   5.7205(8)
_cell_length_c                   8.1491(9)
_cell_angle_alpha                90
_cell_angle_beta                 94.490(11)
_cell_angle_gamma                90
_cell_volume                     822.048
_exptl_crystal_colour            colorless
_chemical_melting_point          124-6deg.C
_cell_formula_units_Z            2
loop_
_atom_site_label
_atom_site_type_symbol
_atom_site_fract_x
_atom_site_fract_y
_atom_site_fract_z
Cl1 Cl -0.44023 0.20460 -0.17380
O1 O -0.09530 0.48450 -0.05990
O2 O -0.14570 0.14080 -0.15200
O3 O -0.07210 -0.01000 0.10620
N1 N -0.03530 0.02120 -0.00250
C1 C -0.29080 0.30290 -0.13280
C2 C -0.36280 0.37730 -0.10940
C3 C -0.37490 0.58810 -0.03250
C4 C -0.31380 0.72290 0.02020
C5 C -0.24040 0.64900 -0.00220
C6 C -0.22900 0.44200 -0.07840
C7 C -0.15050 0.36670 -0.09520
C8 C -0.07140 0.05490 -0.16620
H1 H -0.28310 0.15480 -0.18740
H2 H -0.42630 0.64170 -0.01710
H3 H -0.32180 0.86820 0.07710
H4 H -0.19770 0.74690 0.03630
H5 H -0.07360 -0.08680 -0.23130
H6 H -0.04250 0.16700 -0.22610
N1B N 0.03530 -0.02120 0.00250
O3B O 0.07210 0.01000 -0.10620
C8B C 0.07140 -0.05490 0.16620
O2B O 0.14570 -0.14080 0.15200
H5B H 0.07360 0.08680 0.23130
H6B H 0.04250 -0.16700 0.22610
C7B C 0.15050 -0.36670 0.09520
O1B O 0.09530 -0.48450 0.05990
C6B C 0.22900 -0.44200 0.07840
C1B C 0.29080 -0.30290 0.13280
C5B C 0.24040 -0.64900 0.00220
C2B C 0.36280 -0.37730 0.10940
H1B H 0.28310 -0.15480 0.18740
C4B C 0.31380 -0.72290 -0.02020
H4B H 0.19770 -0.74690 -0.03630
Cl1B Cl 0.44023 -0.20460 0.17380
C3B C 0.37490 -0.58810 0.03250
H3B H 0.32180 -0.86820 -0.07710
H2B H 0.42630 -0.64170 0.01710
loop_
_geom_bond_atom_site_label_1
_geom_bond_atom_site_label_2
_geom_bond_site_symmetry_1
_geom_bond_site_symmetry_2
Cl1 C2 1_555 1_555
O1 C7 1_555 1_555
O2 C7 1_555 1_555
O3 N1 1_555 1_555
N1 C8 1_555 1_555
C1 C2 1_555 1_555
C2 C3 1_555 1_555
C3 C4 1_555 1_555
C4 C5 1_555 1_555
C5 C6 1_555 1_555
C6 C1 1_555 1_555
C7 C6 1_555 1_555
C8 O2 1_555 1_555
H1 C1 1_555 1_555
H2 C3 1_555 1_555
H3 C4 1_555 1_555
H4 C5 1_555 1_555
H5 C8 1_555 1_555
H6 C8 1_555 1_555
N1B N1 1_555 1_555
O3B N1B 1_555 1_555
C8B N1B 1_555 1_555
O2B C8B 1_555 1_555
H5B C8B 1_555 1_555
H6B C8B 1_555 1_555
C7B O2B 1_555 1_555
O1B C7B 1_555 1_555
C6B C7B 1_555 1_555
C1B C6B 1_555 1_555
C5B C6B 1_555 1_555
C2B C1B 1_555 1_555
H1B C1B 1_555 1_555
C4B C5B 1_555 1_555
H4B C5B 1_555 1_555
Cl1B C2B 1_555 1_555
C3B C2B 1_555 1_555
H3B C4B 1_555 1_555
H2B C3B 1_555 1_555
C4B C3B 1_555 1_555

#END
