
#######################################################################
#
#                 Cambridge Crystallographic Data Centre
#                                CCDC 
#
#######################################################################
#
# If this CIF has been generated from an entry in the Cambridge 
# Structural Database, then it will include bibliographic, chemical, 
# crystal, experimental, refinement or atomic coordinate data resulting 
# from the CCDC's data processing and validation procedures.
#
#######################################################################

data_CAMSUF
_chemical_formula_moiety         'C6 H4 I2 N2 O2'
_chemical_name_systematic        2,4-Diiodo-3-nitroaniline
_symmetry_cell_setting           monoclinic
_symmetry_space_group_name_H-M   'P 21/c'
_symmetry_Int_Tables_number      14
_space_group_name_Hall           '-P 2ybc'
loop_
_symmetry_equiv_pos_site_id
_symmetry_equiv_pos_as_xyz
1 x,y,z
2 x,1/2-y,1/2+z
3 -x,-y,-z
4 -x,1/2+y,1/2-z
_cell_length_a                   7.6069(3)
_cell_length_b                   12.5917(4)
_cell_length_c                   10.2546(3)
_cell_angle_alpha                90
_cell_angle_beta                 106.6693(16)
_cell_angle_gamma                90
_cell_volume                     940.948
_exptl_crystal_colour            colorless
_exptl_crystal_description       plate
_chemical_melting_point          '391-392 K'
_cell_formula_units_Z            4
_exptl_crystal_recrystallization_method ethanol
loop_
_atom_site_label
_atom_site_type_symbol
_atom_site_fract_x
_atom_site_fract_y
_atom_site_fract_z
N1 N 1.1845(9) 0.7118(4) 1.0887(5)
C1 C 1.0924(10) 0.6510(5) 0.9783(6)
C2 C 0.9004(9) 0.6434(4) 0.9321(6)
I1 I 0.74257(6) 0.72632(3) 1.03612(4)
C3 C 0.8187(9) 0.5795(4) 0.8200(5)
N2 N 0.6156(8) 0.5717(4) 0.7755(5)
O1 O 0.5473(7) 0.4924(4) 0.8106(5)
O2 O 0.5278(7) 0.6435(4) 0.7058(5)
C4 C 0.9182(9) 0.5253(4) 0.7479(5)
I2 I 0.79798(6) 0.42775(3) 0.58144(4)
C5 C 1.1090(9) 0.5363(5) 0.7901(6)
C6 C 1.1913(9) 0.5982(5) 0.9006(6)
H1 H 1.1226 0.7482 1.1341
H2 H 1.3052 0.7141 1.1138
H3 H 1.1817 0.5009 0.7421
H4 H 1.3210 0.6059 0.9261
loop_
_geom_bond_atom_site_label_1
_geom_bond_atom_site_label_2
_geom_bond_site_symmetry_1
_geom_bond_site_symmetry_2
N1 C1 1_555 1_555
C1 C2 1_555 1_555
C2 I1 1_555 1_555
C3 C2 1_555 1_555
N2 C3 1_555 1_555
O1 N2 1_555 1_555
O2 N2 1_555 1_555
C4 C3 1_555 1_555
I2 C4 1_555 1_555
C5 C4 1_555 1_555
C6 C1 1_555 1_555
H1 N1 1_555 1_555
H2 N1 1_555 1_555
H3 C5 1_555 1_555
H4 C6 1_555 1_555
C5 C6 1_555 1_555

#END
