
#######################################################################
#
#                 Cambridge Crystallographic Data Centre
#                                CCDC 
#
#######################################################################
#
# If this CIF has been generated from an entry in the Cambridge 
# Structural Database, then it will include bibliographic, chemical, 
# crystal, experimental, refinement or atomic coordinate data resulting 
# from the CCDC's data processing and validation procedures.
#
#######################################################################

data_CAMVAQ
_chemical_formula_moiety         'C12 H9 N2 1+,Cl1 O4 1-'
_chemical_name_systematic        'benzo[c]cinnolin-5-ium perchlorate'
_symmetry_cell_setting           triclinic
_symmetry_space_group_name_H-M   'P -1'
_symmetry_Int_Tables_number      2
_space_group_name_Hall           '-P 1'
loop_
_symmetry_equiv_pos_site_id
_symmetry_equiv_pos_as_xyz
1 x,y,z
2 -x,-y,-z
_cell_length_a                   7.8644(19)
_cell_length_b                   9.083(4)
_cell_length_c                   9.094(2)
_cell_angle_alpha                107.036(4)
_cell_angle_beta                 107.811(3)
_cell_angle_gamma                97.209(4)
_cell_volume                     574.586
_exptl_crystal_colour            yellow
_exptl_crystal_description       block
_cell_formula_units_Z            2
loop_
_atom_site_label
_atom_site_type_symbol
_atom_site_fract_x
_atom_site_fract_y
_atom_site_fract_z
C1 C 0.6215(3) 0.8337(3) 0.6518(3)
H1 H 0.5785 0.9156 0.7065
C2 C 0.6459(3) 0.8277(3) 0.5086(3)
H2 H 0.6194 0.9062 0.4647
C3 C 0.7107(3) 0.7036(3) 0.4266(3)
H3 H 0.7253 0.7007 0.3281
C4 C 0.7527(3) 0.5874(3) 0.4882(3)
H4 H 0.7959 0.5065 0.4321
C5 C 0.7307(3) 0.5899(2) 0.6372(2)
C6 C 0.6627(3) 0.7139(2) 0.7151(3)
C7 C 0.7715(3) 0.4757(2) 0.7143(2)
C8 C 0.7317(3) 0.4924(2) 0.8599(3)
C9 C 0.8470(3) 0.3488(2) 0.6566(3)
H5 H 0.8743 0.3350 0.5616
C10 C 0.8807(3) 0.2449(3) 0.7386(3)
H6 H 0.9316 0.1619 0.6990
C11 C 0.8396(3) 0.2616(3) 0.8813(3)
H7 H 0.8635 0.1898 0.9353
C12 C 0.7653(3) 0.3820(3) 0.9410(3)
H8 H 0.7365 0.3918 1.0348
N1 N 0.6351(3) 0.7147(2) 0.8570(2)
N2 N 0.6636(3) 0.6127(2) 0.9297(2)
H9 H 0.595(3) 0.787(3) 0.903(3)
Cl1 Cl 1.21631(7) 0.93713(6) 0.78711(6)
O1 O 1.1224(3) 0.9429(2) 0.6299(2)
O2 O 1.2510(3) 0.7834(2) 0.7706(2)
O3 O 1.1129(3) 0.9762(2) 0.8912(2)
O4 O 1.3897(2) 1.0536(2) 0.8594(2)
loop_
_geom_bond_atom_site_label_1
_geom_bond_atom_site_label_2
_geom_bond_site_symmetry_1
_geom_bond_site_symmetry_2
C1 H1 1_555 1_555
C2 C1 1_555 1_555
H2 C2 1_555 1_555
C3 C2 1_555 1_555
H3 C3 1_555 1_555
C4 C3 1_555 1_555
H4 C4 1_555 1_555
C5 C4 1_555 1_555
C6 C1 1_555 1_555
C7 C5 1_555 1_555
C8 C7 1_555 1_555
C9 C7 1_555 1_555
H5 C9 1_555 1_555
C10 C9 1_555 1_555
H6 C10 1_555 1_555
C11 C10 1_555 1_555
H7 C11 1_555 1_555
C12 C8 1_555 1_555
H8 C12 1_555 1_555
N1 C6 1_555 1_555
N2 C8 1_555 1_555
H9 N1 1_555 1_555
Cl1 O1 1_555 1_555
O2 Cl1 1_555 1_555
O3 Cl1 1_555 1_555
O4 Cl1 1_555 1_555
C5 C6 1_555 1_555
C11 C12 1_555 1_555
N1 N2 1_555 1_555

#END
