
#######################################################################
#
#                 Cambridge Crystallographic Data Centre
#                                CCDC 
#
#######################################################################
#
# If this CIF has been generated from an entry in the Cambridge 
# Structural Database, then it will include bibliographic, chemical, 
# crystal, experimental, refinement or atomic coordinate data resulting 
# from the CCDC's data processing and validation procedures.
#
#######################################################################

data_CAMVUK
_chemical_formula_moiety         'C30 H29 N2 O6 1+,Cl1 O4 1-'
_chemical_name_systematic        
'2-(27-oxo-6,9,12,15,18-pentaoxatetracyclo[21.3.1.0^5,26^.0^19,24^]heptacosa-1(26),2,4,19,21,23-hexaen-25-yl)phthalazin-2-ium perchlorate'
_symmetry_cell_setting           triclinic
_symmetry_space_group_name_H-M   'P -1'
_symmetry_Int_Tables_number      2
_space_group_name_Hall           '-P 1'
loop_
_symmetry_equiv_pos_site_id
_symmetry_equiv_pos_as_xyz
1 x,y,z
2 -x,-y,-z
_cell_length_a                   10.5161(6)
_cell_length_b                   10.9745(6)
_cell_length_c                   13.9790(8)
_cell_angle_alpha                106.5250(10)
_cell_angle_beta                 105.4590(10)
_cell_angle_gamma                97.0380(10)
_cell_volume                     1455.96
_exptl_crystal_colour            yellow
_exptl_crystal_description       block
_cell_formula_units_Z            2
loop_
_atom_site_label
_atom_site_type_symbol
_atom_site_fract_x
_atom_site_fract_y
_atom_site_fract_z
Cl1 Cl 0.34156(5) 0.46543(5) 0.16790(4)
O1 O 0.43196(18) 0.5283(2) 0.12866(16)
O2 O 0.20820(17) 0.47886(19) 0.12130(17)
O3 O 0.3419(2) 0.32939(18) 0.14088(17)
O4 O 0.3773(2) 0.5213(2) 0.27856(15)
O5 O 0.97913(17) 0.26186(14) 0.52443(11)
O6 O 0.76708(17) -0.09471(16) 0.19641(13)
O7 O 0.7871(2) 0.41204(18) 0.47076(16)
N1 N 0.95691(17) 0.14494(15) 0.30863(12)
N2 N 1.06629(17) 0.18031(17) 0.27856(14)
C1 C 1.1124(2) -0.1203(2) 0.30383(18)
C2 C 0.9279(2) 0.29585(19) 0.18408(16)
C3 C 0.8426(2) 0.18227(18) 0.28522(15)
H1 H 0.7750 0.1573 0.3116
C4 C 0.8210(2) 0.26023(19) 0.22018(16)
C5 C 0.9923(2) -0.07463(19) 0.29093(16)
C6 C 0.9809(2) 0.04884(18) 0.36720(15)
H2 H 0.9023 0.0297 0.3897
C7 C 1.1198(3) -0.2327(2) 0.2283(2)
H3 H 1.1993 -0.2634 0.2369
C8 C 1.2306(2) -0.0542(2) 0.3989(2)
C9 C 0.7877(2) 0.3990(2) 0.08145(19)
H4 H 0.7747 0.4436 0.0333
C10 C 1.2229(2) 0.0654(2) 0.47638(18)
C11 C 0.9098(2) 0.3666(2) 0.11416(19)
H5 H 0.9800 0.3913 0.0902
C12 C 1.1033(2) 0.11263(19) 0.46404(16)
C13 C 1.0995(2) 0.2247(2) 0.54059(17)
C14 C 1.0496(2) 0.2543(2) 0.22028(17)
H6 H 1.1228 0.2823 0.2007
C15 C 0.8804(2) -0.1444(2) 0.20261(17)
C16 C 0.6827(2) 0.3665(2) 0.11900(18)
H7 H 0.6015 0.3916 0.0971
C17 C 1.3320(3) 0.2431(3) 0.6353(2)
H8 H 1.4092 0.2882 0.6917
C18 C 1.3362(3) 0.1311(3) 0.5629(2)
H9 H 1.4148 0.0989 0.5716
C19 C 0.9737(3) 0.3837(2) 0.59592(19)
H10 H 1.0285 0.4555 0.5877
H11 H 1.0082 0.3853 0.6680
C20 C 0.6976(2) 0.2979(2) 0.18789(18)
H12 H 0.6273 0.2765 0.2129
C21 C 0.8315(3) 0.3958(2) 0.5711(2)
H13 H 0.7756 0.3184 0.5708
H14 H 0.8226 0.4701 0.6245
C22 C 0.6419(3) -0.1733(3) 0.1186(2)
H15 H 0.6055 -0.2423 0.1408
H16 H 0.6552 -0.2117 0.0514
C23 C 1.0086(3) -0.2970(2) 0.1416(2)
H17 H 1.0142 -0.3708 0.0912
C24 C 0.8892(3) -0.2546(2) 0.12790(19)
H18 H 0.8149 -0.2997 0.0689
C25 C 0.5473(4) 0.3228(4) 0.4263(3)
H19 H 0.5642 0.2931 0.4867
H20 H 0.4604 0.3476 0.4148
C26 C 1.2149(3) 0.2908(2) 0.62632(19)
H21 H 1.2132 0.3663 0.6770
C27 C 0.6562(4) 0.4370(3) 0.4464(3)
H22 H 0.6392 0.4637 0.3845
H23 H 0.6522 0.5089 0.5042
O8 O 1.33281(17) -0.09890(17) 0.41183(17)
O9 O 0.5457(2) 0.2213(2) 0.3358(2)
O10 O 0.5426(3) -0.0221(4) 0.2168(3)
C28 C 0.5458(5) -0.0770(5) 0.1109(4)
H24 H 0.5805 -0.0097 0.0864
H25 H 0.4562 -0.1223 0.0632
C29 C 0.4340(5) 0.0419(5) 0.2256(4)
H26 H 0.4258 0.0967 0.1817
H27 H 0.3502 -0.0226 0.2003
C30 C 0.4548(5) 0.1179(5) 0.3294(4)
H28 H 0.3726 0.1422 0.3398
H29 H 0.4922 0.0750 0.3789
O11? O 0.5224(5) -0.0116(5) 0.1408(5)
C31? C 0.5195(5) -0.1321(6) 0.1541(5)
H30? H 0.4352 -0.1929 0.1100
H31? H 0.5326 -0.1253 0.2270
C32? C 0.4236(11) 0.1084(13) 0.2806(11)
H32? H 0.3429 0.1410 0.2849
H33? H 0.4316 0.0460 0.3178
C33? C 0.4060(6) 0.0364(8) 0.1616(8)
H34? H 0.3295 -0.0367 0.1343
H35? H 0.3843 0.0956 0.1228
loop_
_geom_bond_atom_site_label_1
_geom_bond_atom_site_label_2
_geom_bond_site_symmetry_1
_geom_bond_site_symmetry_2
Cl1 O1 1_555 1_555
O2 Cl1 1_555 1_555
O3 Cl1 1_555 1_555
O4 Cl1 1_555 1_555
O5 C13 1_555 1_555
O6 C15 1_555 1_555
O7 C21 1_555 1_555
N1 N2 1_555 1_555
N2 C14 1_555 1_555
C1 C5 1_555 1_555
C2 C4 1_555 1_555
C3 N1 1_555 1_555
H1 C3 1_555 1_555
C4 C3 1_555 1_555
C5 C6 1_555 1_555
C6 N1 1_555 1_555
H2 C6 1_555 1_555
C7 C1 1_555 1_555
H3 C7 1_555 1_555
C8 C1 1_555 1_555
C9 H4 1_555 1_555
C10 C8 1_555 1_555
C11 C2 1_555 1_555
H5 C11 1_555 1_555
C12 C6 1_555 1_555
C13 C12 1_555 1_555
C14 C2 1_555 1_555
H6 C14 1_555 1_555
C15 C5 1_555 1_555
C16 C9 1_555 1_555
H7 C16 1_555 1_555
C17 H8 1_555 1_555
C18 C10 1_555 1_555
H9 C18 1_555 1_555
C19 O5 1_555 1_555
H10 C19 1_555 1_555
H11 C19 1_555 1_555
C20 C4 1_555 1_555
H12 C20 1_555 1_555
C21 C19 1_555 1_555
H13 C21 1_555 1_555
H14 C21 1_555 1_555
C22 O6 1_555 1_555
H15 C22 1_555 1_555
H16 C22 1_555 1_555
C23 C7 1_555 1_555
H17 C23 1_555 1_555
C24 C15 1_555 1_555
H18 C24 1_555 1_555
C25 H19 1_555 1_555
H20 C25 1_555 1_555
C26 C13 1_555 1_555
H21 C26 1_555 1_555
C27 O7 1_555 1_555
H22 C27 1_555 1_555
H23 C27 1_555 1_555
O8 C8 1_555 1_555
O9 C25 1_555 1_555
O10 C28 1_555 1_555
C28 C22 1_555 1_555
H24 C28 1_555 1_555
H25 C28 1_555 1_555
C29 O10 1_555 1_555
H26 C29 1_555 1_555
H27 C29 1_555 1_555
C30 O9 1_555 1_555
H28 C30 1_555 1_555
H29 C30 1_555 1_555
C9 C11 1_555 1_555
C10 C12 1_555 1_555
C16 C20 1_555 1_555
C17 C18 1_555 1_555
C17 C26 1_555 1_555
C23 C24 1_555 1_555
C25 C27 1_555 1_555
C29 C30 1_555 1_555

#END
