
#######################################################################
#
#                 Cambridge Crystallographic Data Centre
#                                CCDC 
#
#######################################################################
#
# If this CIF has been generated from an entry in the Cambridge 
# Structural Database, then it will include bibliographic, chemical, 
# crystal, experimental, refinement or atomic coordinate data resulting 
# from the CCDC's data processing and validation procedures.
#
#######################################################################

data_CAMWAQ
_chemical_formula_moiety         'C16 H8 N2'
_chemical_name_systematic        Anthracene-9,10-dicarbonitrile
_symmetry_cell_setting           triclinic
_symmetry_space_group_name_H-M   'P -1'
_symmetry_Int_Tables_number      2
_space_group_name_Hall           '-P 1'
loop_
_symmetry_equiv_pos_site_id
_symmetry_equiv_pos_as_xyz
1 x,y,z
2 -x,-y,-z
_cell_length_a                   3.79760(10)
_cell_length_b                   8.3908(3)
_cell_length_c                   9.0986(3)
_cell_angle_alpha                72.193(2)
_cell_angle_beta                 78.465(2)
_cell_angle_gamma                89.756(2)
_cell_volume                     269.958
_exptl_crystal_colour            yellow
_exptl_crystal_description       needle
_cell_formula_units_Z            1
loop_
_atom_site_label
_atom_site_type_symbol
_atom_site_fract_x
_atom_site_fract_y
_atom_site_fract_z
C1 C 0.2971(2) 0.58704(10) 0.16960(8)
H1 H 0.2573 0.5138 0.1121
C2 C 0.4978(2) 0.73484(10) 0.09335(9)
H2 H 0.5971 0.7633 -0.0165
C3 C 0.5587(2) 0.84603(10) 0.17719(9)
H3 H 0.6995 0.9481 0.1229
C4 C 0.4171(2) 0.80801(10) 0.33505(9)
H4 H 0.4581 0.8842 0.3894
C5 C 0.20789(19) 0.65453(9) 0.41877(8)
C6 C 0.14694(19) 0.54183(9) 0.33463(8)
C7 C -0.05951(19) 0.39030(9) 0.41822(8)
C8 C -0.1243(2) 0.27755(10) 0.33322(9)
N1 N -0.1787(2) 0.18918(9) 0.26510(8)
C1A C -0.2971(2) 0.41296(10) 0.83040(8)
H1A H -0.2573 0.4862 0.8879
C2A C -0.4978(2) 0.26516(10) 0.90665(9)
H2A H -0.5971 0.2367 1.0165
C3A C -0.5587(2) 0.15397(10) 0.82281(9)
H3A H -0.6995 0.0519 0.8771
C4A C -0.4171(2) 0.19199(10) 0.66495(9)
H4A H -0.4581 0.1158 0.6106
C5A C -0.20789(19) 0.34547(9) 0.58123(8)
C6A C -0.14694(19) 0.45817(9) 0.66537(8)
C7A C 0.05951(19) 0.60970(9) 0.58178(8)
C8A C 0.1243(2) 0.72245(10) 0.66678(9)
N1A N 0.1787(2) 0.81082(9) 0.73490(8)
loop_
_geom_bond_atom_site_label_1
_geom_bond_atom_site_label_2
_geom_bond_site_symmetry_1
_geom_bond_site_symmetry_2
C1 H1 1_555 1_555
C2 C1 1_555 1_555
H2 C2 1_555 1_555
C3 C2 1_555 1_555
H3 C3 1_555 1_555
C4 C3 1_555 1_555
H4 C4 1_555 1_555
C5 C4 1_555 1_555
C6 C1 1_555 1_555
C7 C6 1_555 1_555
C8 C7 1_555 1_555
N1 C8 1_555 1_555
C1A H1A 1_555 1_555
C2A C1A 1_555 1_555
H2A C2A 1_555 1_555
C3A C2A 1_555 1_555
H3A C3A 1_555 1_555
C4A C3A 1_555 1_555
H4A C4A 1_555 1_555
C5A C7 1_555 1_555
C6A C1A 1_555 1_555
C7A C5 1_555 1_555
C8A C7A 1_555 1_555
N1A C8A 1_555 1_555
C5 C6 1_555 1_555
C4A C5A 1_555 1_555
C5A C6A 1_555 1_555
C6A C7A 1_555 1_555

#END
