
#######################################################################
#
#                 Cambridge Crystallographic Data Centre
#                                CCDC 
#
#######################################################################
#
# If this CIF has been generated from an entry in the Cambridge 
# Structural Database, then it will include bibliographic, chemical, 
# crystal, experimental, refinement or atomic coordinate data resulting 
# from the CCDC's data processing and validation procedures.
#
#######################################################################

data_CAMWAR
_chemical_formula_moiety         'C34 H31 N2 O6 1+,C2 H3 N1,Cl1 O4 1-'
_chemical_name_systematic        
'5-(23-oxo-6,7,9,10,12,13,15,16-octahydro-22H-1,21-methanodibenzo[n,q][1,4,7,10,13]pentaoxacyclooctadecin-22-yl)benzo[c]cinnolin-5-ium perchlorate acetonitrile solvate'
_symmetry_cell_setting           monoclinic
_symmetry_space_group_name_H-M   'P 21/n'
_symmetry_Int_Tables_number      14
_space_group_name_Hall           '-P 2yn'
loop_
_symmetry_equiv_pos_site_id
_symmetry_equiv_pos_as_xyz
1 x,y,z
2 1/2-x,1/2+y,1/2-z
3 -x,-y,-z
4 1/2+x,1/2-y,1/2+z
_cell_length_a                   13.4277(10)
_cell_length_b                   14.6365(11)
_cell_length_c                   16.7031(12)
_cell_angle_alpha                90
_cell_angle_beta                 100.8550(10)
_cell_angle_gamma                90
_cell_volume                     3224
_exptl_crystal_colour            orange
_exptl_crystal_description       block
_cell_formula_units_Z            4
loop_
_atom_site_label
_atom_site_type_symbol
_atom_site_fract_x
_atom_site_fract_y
_atom_site_fract_z
Cl1 Cl 0.22941(6) 0.44566(5) 1.17014(4)
O1 O 0.1555(2) 0.37415(16) 1.15630(15)
O2 O 0.18514(18) 0.52383(17) 1.2001(2)
O3 O 0.31507(19) 0.41968(17) 1.22929(17)
O4 O 0.2613(3) 0.4678(2) 1.09730(16)
O5 O 0.15229(13) 0.11762(12) 0.77408(10)
O6 O 0.41697(14) 0.31926(13) 0.90266(11)
O7 O 0.15090(14) 0.05077(13) 0.93070(11)
O8 O 0.42381(15) 0.24375(15) 0.55493(12)
N1 N 0.22631(15) 0.31358(14) 0.76642(12)
N2 N 0.21478(15) 0.35903(14) 0.69823(13)
C1 C 0.26952(18) 0.17231(17) 0.69835(15)
C2 C 0.19273(18) 0.10976(17) 0.70540(15)
C3 C 0.30538(18) 0.23804(16) 0.76782(15)
H1 H 0.3111 0.2045 0.8193
C4 C 0.10462(18) 0.40483(17) 0.81950(15)
C5 C 0.2074(2) 0.04354(19) 0.57658(16)
H2 H 0.1877 -0.0003 0.5364
C6 C 0.14805(18) 0.42979(17) 0.68653(16)
O9 O 0.25393(19) 0.13703(17) 1.07768(13)
C7 C 0.4620(2) 0.32210(17) 0.83633(17)
C8 C 0.3956(2) 0.23434(19) 0.61979(16)
C9 C 0.1628(2) 0.04450(18) 0.64507(16)
H3 H 0.1132 0.0018 0.6506
C10 C 0.09142(18) 0.45684(17) 0.74566(16)
C11 C 0.5556(2) 0.36215(19) 0.83465(18)
H4 H 0.5920 0.3893 0.8815
C12 C 0.17504(18) 0.33109(17) 0.82975(15)
C13 C 0.40651(19) 0.28162(17) 0.76528(15)
C14 C 0.44756(19) 0.28160(17) 0.69460(16)
C15 C 0.02539(19) 0.53237(18) 0.72724(18)
H5 H -0.0131 0.5522 0.7647
C16 C 0.0827(2) 0.04753(18) 0.78891(16)
H6 H 0.1124 -0.0123 0.7849
H7 H 0.0205 0.0513 0.7487
C17 C 0.2803(2) 0.10643(19) 0.56745(16)
H8 H 0.3085 0.1060 0.5207
C18 C 0.1909(2) 0.27891(18) 0.90204(16)
H9 H 0.2362 0.2301 0.9087
C19 C 0.31219(19) 0.17092(17) 0.62838(15)
C20 C 0.5421(2) 0.32105(19) 0.69428(19)
H10 H 0.5696 0.3198 0.6472
C21 C 0.0184(2) 0.57608(18) 0.65410(19)
H11 H -0.0256 0.6254 0.6424
C22 C 0.0521(2) 0.42382(19) 0.88351(17)
H12 H 0.0054 0.4714 0.8781
C23 C 0.1398(2) 0.47600(19) 0.61141(17)
H13 H 0.1774 0.4571 0.5731
C24 C 0.1319(2) 0.0350(2) 1.01073(17)
H14 H 0.1055 -0.0262 1.0140
H15 H 0.0813 0.0780 1.0221
C25 C 0.1388(2) 0.30120(19) 0.96200(17)
H16 H 0.1499 0.2676 1.0101
C26 C 0.0694(2) 0.3731(2) 0.95295(17)
H17 H 0.0347 0.3864 0.9947
C27 C 0.5945(2) 0.36178(19) 0.7637(2)
H18 H 0.6568 0.3893 0.7630
C28 C 0.0608(2) 0.0613(2) 0.87226(16)
H19 H 0.0332 0.1219 0.8765
H20 H 0.0108 0.0170 0.8824
C29 C 0.0756(2) 0.54884(18) 0.59594(18)
H21 H 0.0698 0.5804 0.5470
C30 C 0.2261(2) 0.0459(2) 1.07194(18)
H22 H 0.2154 0.0242 1.1245
H23 H 0.2799 0.0099 1.0562
C31 C 0.4777(3) 0.3460(2) 0.97988(18)
H24 H 0.5311 0.3861 0.9689
C32 C 0.3229(6) 0.1795(6) 1.1424(5)
H25 H 0.3001 0.2411 1.1507
H26 H 0.3247 0.1454 1.1924
C33 C 0.4146(6) 0.1823(7) 1.1247(5)
H27 H 0.4414 0.1212 1.1366
H28 H 0.4531 0.2214 1.1663
C34 C 0.4316(4) 0.3214(3) 1.0457(3)
H29 H 0.3602 0.3371 1.0351
H30 H 0.4647 0.3508 1.0957
O10 O 0.4483(3) 0.2080(3) 1.0505(2)
C35 C 0.2513(3) 0.2911(2) 1.4132(2)
N3 N 0.1957(2) 0.3209(2) 1.4497(2)
C36 C 0.3224(3) 0.2530(2) 1.3669(2)
H31 H 0.3116 0.1884 1.3610
H32 H 0.3904 0.2645 1.3950
H33 H 0.3122 0.2810 1.3140
C37? C 0.5210(7) 0.2789(6) 1.0294(6)
H34? H 0.5691 0.3026 1.0754
H35? H 0.5542 0.2342 1.0005
C38? C 0.3986(5) 0.2311(5) 1.1267(4)
H36? H 0.3484 0.2769 1.1329
H37? H 0.4580 0.2405 1.1688
C39? C 0.3548(4) 0.1335(4) 1.1338(3)
H38? H 0.3981 0.0873 1.1166
H39? H 0.3472 0.1206 1.1893
O11? O 0.4218(5) 0.2374(4) 1.0571(3)
H40? H 0.4352 0.3815 1.0092
loop_
_geom_bond_atom_site_label_1
_geom_bond_atom_site_label_2
_geom_bond_site_symmetry_1
_geom_bond_site_symmetry_2
Cl1 O1 1_555 1_555
O2 Cl1 1_555 1_555
O3 Cl1 1_555 1_555
O4 Cl1 1_555 1_555
O5 C2 1_555 1_555
O6 C7 1_555 1_555
O7 C24 1_555 1_555
O8 C8 1_555 1_555
N1 N2 1_555 1_555
N2 C6 1_555 1_555
C1 C2 1_555 1_555
C2 C9 1_555 1_555
C3 N1 1_555 1_555
H1 C3 1_555 1_555
C4 C10 1_555 1_555
C5 H2 1_555 1_555
C6 C10 1_555 1_555
O9 C30 1_555 1_555
C7 C11 1_555 1_555
C8 C14 1_555 1_555
C9 C5 1_555 1_555
H3 C9 1_555 1_555
C10 C15 1_555 1_555
C11 H4 1_555 1_555
C12 N1 1_555 1_555
C13 C3 1_555 1_555
C14 C13 1_555 1_555
C15 H5 1_555 1_555
C16 O5 1_555 1_555
H6 C16 1_555 1_555
H7 C16 1_555 1_555
C17 C5 1_555 1_555
H8 C17 1_555 1_555
C18 C12 1_555 1_555
H9 C18 1_555 1_555
C19 C1 1_555 1_555
C20 C14 1_555 1_555
H10 C20 1_555 1_555
C21 C15 1_555 1_555
H11 C21 1_555 1_555
C22 C4 1_555 1_555
H12 C22 1_555 1_555
C23 C6 1_555 1_555
H13 C23 1_555 1_555
C24 H14 1_555 1_555
H15 C24 1_555 1_555
C25 C18 1_555 1_555
H16 C25 1_555 1_555
C26 C22 1_555 1_555
H17 C26 1_555 1_555
C27 C11 1_555 1_555
H18 C27 1_555 1_555
C28 O7 1_555 1_555
H19 C28 1_555 1_555
H20 C28 1_555 1_555
C29 C21 1_555 1_555
H21 C29 1_555 1_555
C30 C24 1_555 1_555
H22 C30 1_555 1_555
H23 C30 1_555 1_555
C31 O6 1_555 1_555
H24 C31 1_555 1_555
C32 O9 1_555 1_555
H25 C32 1_555 1_555
H26 C32 1_555 1_555
C33 C32 1_555 1_555
H27 C33 1_555 1_555
H28 C33 1_555 1_555
C34 C31 1_555 1_555
H29 C34 1_555 1_555
H30 C34 1_555 1_555
O10 C33 1_555 1_555
C35 N3 1_555 1_555
C36 C35 1_555 1_555
H31 C36 1_555 1_555
H32 C36 1_555 1_555
H33 C36 1_555 1_555
C1 C3 1_555 1_555
C4 C12 1_555 1_555
C7 C13 1_555 1_555
C8 C19 1_555 1_555
C16 C28 1_555 1_555
C17 C19 1_555 1_555
C20 C27 1_555 1_555
C23 C29 1_555 1_555
C25 C26 1_555 1_555
C34 O10 1_555 1_555

#END
