
#######################################################################
#
#                 Cambridge Crystallographic Data Centre
#                                CCDC 
#
#######################################################################
#
# If this CIF has been generated from an entry in the Cambridge 
# Structural Database, then it will include bibliographic, chemical, 
# crystal, experimental, refinement or atomic coordinate data resulting 
# from the CCDC's data processing and validation procedures.
#
#######################################################################

data_CANBUP
_chemical_formula_moiety         'C14 H13 N1 O5'
_chemical_name_systematic        
'2-Methoxy-4-((2-methyl-5-oxo-4,5-dihydro-1,3-oxazol-4-ylidene)methyl)phenyl acetate'
_symmetry_cell_setting           monoclinic
_symmetry_space_group_name_H-M   'C 2/c'
_symmetry_Int_Tables_number      15
_space_group_name_Hall           '-C 2yn'
loop_
_symmetry_equiv_pos_site_id
_symmetry_equiv_pos_as_xyz
1 x,y,z
2 1/2+x,1/2+y,z
3 -x,y,1/2-z
4 1/2-x,1/2+y,1/2-z
5 -x,-y,-z
6 1/2-x,1/2-y,-z
7 x,-y,1/2+z
8 1/2+x,1/2-y,1/2+z
_cell_length_a                   26.552(7)
_cell_length_b                   7.3127(19)
_cell_length_c                   15.933(4)
_cell_angle_alpha                90
_cell_angle_beta                 119.648(3)
_cell_angle_gamma                90
_cell_volume                     2688.64
_exptl_crystal_colour            colorless
_exptl_crystal_description       prism
_chemical_melting_point          '423-424 K'
_cell_formula_units_Z            8
_exptl_crystal_recrystallization_method acetone/toluene
loop_
_atom_site_label
_atom_site_type_symbol
_atom_site_fract_x
_atom_site_fract_y
_atom_site_fract_z
N1 N 0.46609(7) 0.6492(2) 0.58121(11)
O1 O 0.53964(6) 0.7494(2) 0.56065(10)
O2 O 0.49183(7) 0.8440(3) 0.40556(12)
O3 O 0.17921(5) 0.59644(19) 0.22897(9)
O4 O 0.17629(5) 0.5246(2) 0.39194(9)
O5 O 0.17013(6) 0.2424(2) 0.33388(10)
C1 C 0.48981(9) 0.7765(3) 0.47190(16)
C2 C 0.44226(8) 0.7083(3) 0.48495(13)
C3 C 0.52034(9) 0.6745(3) 0.61958(15)
C4 C 0.56620(10) 0.6346(4) 0.71952(15)
H1 H 0.5490 0.5857 0.7554
H2 H 0.5866 0.7452 0.7497
H3 H 0.5928 0.5470 0.7184
C5 C 0.38744(8) 0.7068(3) 0.41326(13)
H4 H 0.3821 0.7502 0.3546
C6 C 0.33450(8) 0.6486(3) 0.41149(12)
C7 C 0.28334(8) 0.6494(3) 0.32161(12)
H5 H 0.2849 0.6833 0.2667
C8 C 0.23121(8) 0.6013(3) 0.31324(13)
C9 C 0.22961(8) 0.5533(3) 0.39624(13)
C10 C 0.27916(9) 0.5503(3) 0.48456(14)
H6 H 0.2772 0.5179 0.5393
C11 C 0.33210(9) 0.5954(3) 0.49269(13)
H7 H 0.3658 0.5899 0.5524
C12 C 0.17995(9) 0.6404(3) 0.14211(13)
H8 H 0.1928 0.7642 0.1455
H9 H 0.1416 0.6274 0.0878
H10 H 0.2059 0.5591 0.1347
C13 C 0.14916(9) 0.3625(3) 0.35678(13)
C14 C 0.09145(10) 0.3606(4) 0.35093(18)
H11 H 0.0618 0.3833 0.2856
H12 H 0.0902 0.4539 0.3923
H13 H 0.0851 0.2433 0.3712
loop_
_geom_bond_atom_site_label_1
_geom_bond_atom_site_label_2
_geom_bond_site_symmetry_1
_geom_bond_site_symmetry_2
N1 C2 1_555 1_555
O1 C1 1_555 1_555
O2 C1 1_555 1_555
O3 C8 1_555 1_555
O4 C9 1_555 1_555
O5 C13 1_555 1_555
C1 C2 1_555 1_555
C2 C5 1_555 1_555
C3 N1 1_555 1_555
C4 C3 1_555 1_555
H1 C4 1_555 1_555
H2 C4 1_555 1_555
H3 C4 1_555 1_555
C5 H4 1_555 1_555
C6 C5 1_555 1_555
C7 C6 1_555 1_555
H5 C7 1_555 1_555
C8 C7 1_555 1_555
C9 C8 1_555 1_555
C10 C9 1_555 1_555
H6 C10 1_555 1_555
C11 C6 1_555 1_555
H7 C11 1_555 1_555
C12 O3 1_555 1_555
H8 C12 1_555 1_555
H9 C12 1_555 1_555
H10 C12 1_555 1_555
C13 O4 1_555 1_555
C14 C13 1_555 1_555
H11 C14 1_555 1_555
H12 C14 1_555 1_555
H13 C14 1_555 1_555
O1 C3 1_555 1_555
C10 C11 1_555 1_555

#END
