
#######################################################################
#
#                 Cambridge Crystallographic Data Centre
#                                CCDC 
#
#######################################################################
#
# If this CIF has been generated from an entry in the Cambridge 
# Structural Database, then it will include bibliographic, chemical, 
# crystal, experimental, refinement or atomic coordinate data resulting 
# from the CCDC's data processing and validation procedures.
#
#######################################################################

data_CANCOJ
_chemical_formula_moiety         'C16 H16 O2'
_chemical_name_systematic        
trans-3,4,4a,9,10,10a-Hexahydro-3,4a-ethanophenanthrene-2(1H),12-dione
_symmetry_cell_setting           monoclinic
_symmetry_space_group_name_H-M   'P 21'
_symmetry_Int_Tables_number      4
_space_group_name_Hall           'P 2yb'
loop_
_symmetry_equiv_pos_site_id
_symmetry_equiv_pos_as_xyz
1 x,y,z
2 -x,1/2+y,-z
_cell_length_a                   8.638(1)
_cell_length_b                   7.160(1)
_cell_length_c                   10.554(1)
_cell_angle_alpha                90
_cell_angle_beta                 104.08(1)
_cell_angle_gamma                90
_cell_volume                     633.134
_chemical_melting_point          162deg.C
_cell_formula_units_Z            2
loop_
_atom_site_label
_atom_site_type_symbol
_atom_site_fract_x
_atom_site_fract_y
_atom_site_fract_z
C1 C 0.27610 0.34840 -0.39390
C2 C 0.35060 0.51880 -0.40640
C3 C 0.36830 0.58010 -0.52650
C4 C 0.31070 0.47060 -0.63660
C5 C 0.24090 0.30140 -0.62510
C6 C 0.22310 0.23690 -0.50470
C7 C 0.14970 0.04580 -0.49900
C8 C 0.18500 -0.03310 -0.36050
C9 C 0.14480 0.11970 -0.27070
C10 C 0.13830 0.03930 -0.13700
C11 C 0.13370 0.18720 -0.03700
C12 C 0.23710 0.35710 -0.04170
C13 C 0.19430 0.44000 -0.18190
C14 C 0.26000 0.28830 -0.25910
C15 C 0.42560 0.24550 -0.16660
C16 C 0.40410 0.28360 -0.03070
O1 O 0.50490 0.26150 0.07060
O2 O 0.05870 0.17080 0.04530
loop_
_geom_bond_atom_site_label_1
_geom_bond_atom_site_label_2
_geom_bond_site_symmetry_1
_geom_bond_site_symmetry_2
C1 C2 1_555 1_555
C2 C3 1_555 1_555
C3 C4 1_555 1_555
C4 C5 1_555 1_555
C5 C6 1_555 1_555
C6 C1 1_555 1_555
C7 C6 1_555 1_555
C8 C7 1_555 1_555
C9 C8 1_555 1_555
C10 C9 1_555 1_555
C11 C10 1_555 1_555
C12 C11 1_555 1_555
C13 C12 1_555 1_555
C14 C1 1_555 1_555
C15 C14 1_555 1_555
C16 C12 1_555 1_555
O1 C16 1_555 1_555
O2 C11 1_555 1_555
C9 C14 1_555 1_555
C13 C14 1_555 1_555
C15 C16 1_555 1_555

#END
