
#######################################################################
#
#                 Cambridge Crystallographic Data Centre
#                                CCDC 
#
#######################################################################
#
# If this CIF has been generated from an entry in the Cambridge 
# Structural Database, then it will include bibliographic, chemical, 
# crystal, experimental, refinement or atomic coordinate data resulting 
# from the CCDC's data processing and validation procedures.
#
#######################################################################

data_CANDOL
_chemical_formula_moiety         'C19 H29 Cl1 O1,0.5(C1 H4 O1)'
_chemical_name_systematic        
'3\b-Chloro-5-androsten-17\b-ol methanol solvate'
_symmetry_cell_setting           monoclinic
_symmetry_space_group_name_H-M   'P 21'
_symmetry_Int_Tables_number      4
_space_group_name_Hall           'P 2yb'
loop_
_symmetry_equiv_pos_site_id
_symmetry_equiv_pos_as_xyz
1 x,y,z
2 -x,1/2+y,-z
_cell_length_a                   22.565(5)
_cell_length_b                   12.319(3)
_cell_length_c                   6.656(3)
_cell_angle_alpha                90
_cell_angle_beta                 95.50(2)
_cell_angle_gamma                90
_cell_volume                     1841.71
_cell_formula_units_Z            4
loop_
_atom_site_label
_atom_site_type_symbol
_atom_site_fract_x
_atom_site_fract_y
_atom_site_fract_z
Cl1 Cl 0.20151 0.00000 0.26970
C1 C 0.02785 0.10230 0.16760
C2 C 0.01706 0.10070 -0.06730
C5 C -0.08892 0.17802 -0.08300
C7 C -0.15390 0.16619 -0.15210
C9 C -0.16318 0.13598 -0.37600
C11 C -0.12866 0.03035 -0.40280
C13 C -0.15154 -0.00540 -0.61920
C15 C -0.21610 0.03676 -0.65050
C17 C -0.22604 0.10028 -0.46020
C20 C -0.14256 0.23003 -0.50540
C22 C 0.03919 0.20695 -0.15430
C24 C 0.09295 0.10027 0.25410
C26 C 0.12324 -0.00008 0.17320
C28 C 0.11798 -0.00239 -0.05550
C30 C 0.05345 0.00389 -0.13970
C32 C 0.02997 -0.07020 -0.27280
C34 C -0.03220 -0.06977 -0.37140
C36 C -0.06161 0.04167 -0.35100
C38 C -0.04910 0.07905 -0.12650
H1 H 0.01000 0.17800 0.22800
H2 H -0.02500 -0.06200 -0.54200
H3 H -0.04400 0.08300 -0.44500
H4 H -0.07100 0.01800 -0.04100
H5 H -0.06900 0.23100 -0.13900
H6 H -0.08200 0.20300 0.02000
H7 H -0.17700 0.22500 -0.13300
H8 H -0.16400 0.09400 -0.06600
H9 H -0.14300 -0.01400 -0.30700
H10 H -0.14200 -0.08000 -0.66100
H11 H -0.13100 0.02100 -0.68800
H12 H 0.01800 0.03400 0.22400
H13 H -0.24000 -0.02000 -0.69100
H14 H -0.22300 0.08700 -0.74100
H15 H -0.24700 0.03900 -0.36900
H16 H -0.15300 0.24000 -0.60100
H17 H -0.09500 0.22200 -0.50500
H18 H -0.15100 0.30300 -0.49200
H19 H 0.04500 0.22800 -0.28100
H20 H 0.07700 0.21600 -0.15000
H21 H 0.02600 0.28300 -0.07900
H22 H -0.26700 0.23400 -0.61300
H32 H 0.12000 0.16600 0.23200
H43 H 0.11000 -0.07500 0.24800
H54 H 0.11700 -0.08700 -0.08000
H58 H 0.14100 0.03400 -0.11300
H59 H 0.05200 -0.12300 -0.29000
H60 H -0.05000 -0.12900 -0.26900
O1 O -0.26921 0.18380 -0.48920
Cl2 Cl 0.20517 0.30968 0.04820
C3 C 0.38664 0.33370 0.18910
C4 C 0.39249 0.32254 0.42530
C6 C 0.50494 0.34452 0.44630
C8 C 0.56667 0.29663 0.51040
C10 C 0.57174 0.26789 0.73560
C12 C 0.52152 0.18734 0.76410
C14 C 0.53869 0.13845 0.97930
C16 C 0.60676 0.14318 0.99880
C18 C 0.62502 0.19500 0.80370
C21 C 0.56958 0.36762 0.86960
C23 C 0.38503 0.43266 0.52510
C25 C 0.32235 0.35966 0.09300
C27 C 0.28053 0.27302 0.16210
C29 C 0.28129 0.26793 0.38810
C31 C 0.34242 0.24621 0.48430
C33 C 0.35311 0.16577 0.61610
C35 C 0.41232 0.13890 0.72380
C37 C 0.45920 0.22648 0.70520
C39 C 0.45329 0.27161 0.48770
H26 H 0.41600 0.39500 0.14300
H27 H 0.39400 0.26600 0.13400
H28 H 0.31900 0.36300 -0.06500
H29 H 0.29600 0.43500 0.14100
H30 H 0.27700 0.20500 0.05400
H31 H 0.26000 0.19600 0.41500
H33 H 0.26400 0.33400 0.43800
H34 H 0.30900 0.13800 0.70400
H35 H 0.42200 0.07000 0.68200
H36 H 0.41900 0.12500 0.86800
H37 H 0.44700 0.25900 0.77700
H38 H 0.45800 0.22000 0.41200
H39 H 0.49100 0.41800 0.53000
H40 H 0.50700 0.33200 0.29200
H41 H 0.58900 0.34900 0.47700
H42 H 0.57400 0.22600 0.42400
H44 H 0.53700 0.13800 0.68700
H45 H 0.52000 0.06200 0.97300
H46 H 0.51000 0.17100 1.03900
H47 H 0.61800 0.08400 1.02900
H48 H 0.62000 0.20000 1.12500
H49 H 0.64200 0.13000 0.74400
H50 H 0.57800 0.37600 1.02500
H51 H 0.53200 0.39500 0.88100
H52 H 0.60500 0.40100 0.85900
H53 H 0.40600 0.43000 0.66500
H55 H 0.34500 0.44100 0.52900
H56 H 0.41600 0.49400 0.53100
H57 H 0.69900 0.25000 0.75200
O2 O 0.68022 0.25173 0.84190
C19 C -0.27829 0.41824 0.22500
H23 H -0.26700 0.44500 0.33400
H24 H -0.26500 0.48200 0.13800
H25 H -0.27500 0.31200 0.04100
O3 O -0.26204 0.31509 0.18780
loop_
_geom_bond_atom_site_label_1
_geom_bond_atom_site_label_2
_geom_bond_site_symmetry_1
_geom_bond_site_symmetry_2
Cl1 C26 1_555 1_555
Cl2 C27 1_555 1_555
C1 C2 1_555 1_555
C2 C22 1_555 1_555
C3 C4 1_555 1_555
C4 C23 1_555 1_555
C5 C7 1_555 1_555
C6 C8 1_555 1_555
C7 C9 1_555 1_555
C8 C10 1_555 1_555
C9 C11 1_555 1_555
C10 C12 1_555 1_555
C11 C13 1_555 1_555
C12 C14 1_555 1_555
C13 C15 1_555 1_555
C14 C16 1_555 1_555
C15 C17 1_555 1_555
C16 C18 1_555 1_555
C17 C9 1_555 1_555
C18 C10 1_555 1_555
C19 H23 1_555 1_555
C20 C9 1_555 1_555
C21 C10 1_555 1_555
C22 H19 1_555 1_555
C23 H53 1_555 1_555
C24 C1 1_555 1_555
C25 C3 1_555 1_555
C26 C24 1_555 1_555
C27 C25 1_555 1_555
C28 C26 1_555 1_555
C29 C27 1_555 1_555
C30 C2 1_555 1_555
C31 C4 1_555 1_555
C32 C30 1_555 1_555
C33 C31 1_555 1_555
C34 C32 1_555 1_555
C35 C33 1_555 1_555
C36 C11 1_555 1_555
C37 C12 1_555 1_555
C38 C2 1_555 1_555
C39 C4 1_555 1_555
H1 C1 1_555 1_555
H2 C34 1_555 1_555
H3 C36 1_555 1_555
H4 C38 1_555 1_555
H5 C5 1_555 1_555
H6 C5 1_555 1_555
H7 C7 1_555 1_555
H8 C7 1_555 1_555
H9 C11 1_555 1_555
H10 C13 1_555 1_555
H11 C13 1_555 1_555
H12 C1 1_555 1_555
H13 C15 1_555 1_555
H14 C15 1_555 1_555
H15 C17 1_555 1_555
H16 C20 1_555 1_555
H17 C20 1_555 1_555
H18 C20 1_555 1_555
H20 C22 1_555 1_555
H21 C22 1_555 1_555
H22 O1 1_555 1_555
H24 C19 1_555 1_555
H25 O3 1_555 1_555
H26 C3 1_555 1_555
H27 C3 1_555 1_555
H28 C25 1_555 1_555
H29 C25 1_555 1_555
H30 C27 1_555 1_555
H31 C29 1_555 1_555
H32 C24 1_555 1_555
H33 C29 1_555 1_555
H34 C33 1_555 1_555
H35 C35 1_555 1_555
H36 C35 1_555 1_555
H37 C37 1_555 1_555
H38 C39 1_555 1_555
H39 C6 1_555 1_555
H40 C6 1_555 1_555
H41 C8 1_555 1_555
H42 C8 1_555 1_555
H43 C26 1_555 1_555
H44 C12 1_555 1_555
H45 C14 1_555 1_555
H46 C14 1_555 1_555
H47 C16 1_555 1_555
H48 C16 1_555 1_555
H49 C18 1_555 1_555
H50 C21 1_555 1_555
H51 C21 1_555 1_555
H52 C21 1_555 1_555
H54 C28 1_555 1_555
H55 C23 1_555 1_555
H56 C23 1_555 1_555
H57 O2 1_555 1_555
H58 C28 1_555 1_555
H59 C32 1_555 1_555
H60 C34 1_555 1_555
O1 C17 1_555 1_555
O2 C18 1_555 1_555
O3 C19 1_555 1_555
C5 C38 1_555 1_555
C6 C39 1_555 1_555
C28 C30 1_555 1_555
C29 C31 1_555 1_555
C34 C36 1_555 1_555
C35 C37 1_555 1_555
C36 C38 1_555 1_555
C37 C39 1_555 1_555

#END
