
#######################################################################
#
#                 Cambridge Crystallographic Data Centre
#                                CCDC 
#
#######################################################################
#
# If this CIF has been generated from an entry in the Cambridge 
# Structural Database, then it will include bibliographic, chemical, 
# crystal, experimental, refinement or atomic coordinate data resulting 
# from the CCDC's data processing and validation procedures.
#
#######################################################################

data_CANDIN02
_chemical_formula_moiety         'C10 H12 O4'
_chemical_name_systematic        
2,6-Dimethyl-4,10-dioxatricyclo[5.2.1.0^2,6^]decane-3,5-dione
_symmetry_cell_setting           orthorhombic
_symmetry_space_group_name_H-M   'P n 21 a'
_symmetry_Int_Tables_number      33
_space_group_name_Hall           'P -2ac -2n'
loop_
_symmetry_equiv_pos_site_id
_symmetry_equiv_pos_as_xyz
1 x,y,z
2 -x,1/2+y,-z
3 1/2-x,1/2+y,1/2+z
4 1/2+x,y,1/2-z
_cell_length_a                   11.099(3)
_cell_length_b                   12.506(3)
_cell_length_c                   6.7476(17)
_cell_angle_alpha                90
_cell_angle_beta                 90
_cell_angle_gamma                90
_cell_volume                     936.595
_cell_formula_units_Z            4
loop_
_atom_site_label
_atom_site_type_symbol
_atom_site_fract_x
_atom_site_fract_y
_atom_site_fract_z
C1 C 0.3880(5) 0.0412(5) 0.5136(8)
H1 H 0.3736 0.0586 0.3771
H2 H 0.3790 -0.0345 0.5325
H3 H 0.4683 0.0622 0.5493
C2 C 0.3004(5) 0.0984(4) 0.6397(9)
C3 C 0.1644(5) 0.0743(4) 0.6030(7)
H4 H 0.1381 0.0035 0.6479
C4 C 0.1334(6) 0.0996(5) 0.3857(10)
H5 H 0.0556 0.0703 0.3489
H6 H 0.1945 0.0724 0.2961
C5 C 0.1311(6) 0.2229(6) 0.3867(9)
H7 H 0.1884 0.2524 0.2931
H8 H 0.0513 0.2503 0.3572
C6 C 0.1668(6) 0.2460(4) 0.5963(7)
H9 H 0.1428 0.3179 0.6389
C7 C 0.3001(5) 0.2222(4) 0.6407(8)
C8 C 0.3911(5) 0.2829(6) 0.5003(9)
H10 H 0.3738 0.2653 0.3648
H11 H 0.4721 0.2617 0.5316
H12 H 0.3828 0.3586 0.5193
C9 C 0.3245(6) 0.2535(4) 0.8493(8)
C10 C 0.3253(5) 0.0753(4) 0.8587(7)
O1 O 0.10795(11) 0.1637(4) 0.70728(19)
O2 O 0.3368(6) -0.0140(3) 0.9278(9)
O3 O 0.33493(13) 0.1613(5) 0.9702(2)
O4 O 0.3323(6) 0.3366(4) 0.9305(9)
loop_
_geom_bond_atom_site_label_1
_geom_bond_atom_site_label_2
_geom_bond_site_symmetry_1
_geom_bond_site_symmetry_2
C1 H1 1_555 1_555
H2 C1 1_555 1_555
H3 C1 1_555 1_555
C2 C1 1_555 1_555
C3 C2 1_555 1_555
H4 C3 1_555 1_555
C4 C3 1_555 1_555
H5 C4 1_555 1_555
H6 C4 1_555 1_555
C5 C4 1_555 1_555
H7 C5 1_555 1_555
H8 C5 1_555 1_555
C6 C5 1_555 1_555
H9 C6 1_555 1_555
C7 C2 1_555 1_555
C8 C7 1_555 1_555
H10 C8 1_555 1_555
H11 C8 1_555 1_555
H12 C8 1_555 1_555
C9 C7 1_555 1_555
C10 C2 1_555 1_555
O1 C3 1_555 1_555
O2 C10 1_555 1_555
O3 C9 1_555 1_555
O4 C9 1_555 1_555
C6 C7 1_555 1_555
C6 O1 1_555 1_555
C10 O3 1_555 1_555

#END
