
#######################################################################
#
#                 Cambridge Crystallographic Data Centre
#                                CCDC 
#
#######################################################################
#
# If this CIF has been generated from an entry in the Cambridge 
# Structural Database, then it will include bibliographic, chemical, 
# crystal, experimental, refinement or atomic coordinate data resulting 
# from the CCDC's data processing and validation procedures.
#
#######################################################################

data_CANDEB
_chemical_formula_moiety         'C6 H4 Cl1 N1 O2'
_chemical_name_systematic        '2-Chloropyridine-3-carboxylic acid'
_symmetry_cell_setting           orthorhombic
_symmetry_space_group_name_H-M   'P n a 21'
_symmetry_Int_Tables_number      33
_space_group_name_Hall           'P 2c -2n'
loop_
_symmetry_equiv_pos_site_id
_symmetry_equiv_pos_as_xyz
1 x,y,z
2 1/2-x,1/2+y,1/2+z
3 1/2+x,1/2-y,z
4 -x,-y,1/2+z
_cell_length_a                   8.2741(2)
_cell_length_b                   13.1807(5)
_cell_length_c                   5.7182(3)
_cell_angle_alpha                90
_cell_angle_beta                 90
_cell_angle_gamma                90
_cell_volume                     623.618
_exptl_crystal_colour            colorless
_exptl_crystal_description       slab
_chemical_melting_point          'above 397 K'
_cell_formula_units_Z            4
_exptl_crystal_recrystallization_method ethanol
loop_
_atom_site_label
_atom_site_type_symbol
_atom_site_fract_x
_atom_site_fract_y
_atom_site_fract_z
Cl1 Cl 0.77160(8) 0.61579(4) 0.34183(16)
O1 O 1.0326(3) 0.80953(16) 0.8657(5)
H1 H 1.0800 0.7779 0.9733
O2 O 0.9634(3) 0.65368(18) 0.7529(5)
N1 N 0.6902(3) 0.79347(19) 0.2012(5)
C1 C 0.9567(3) 0.7440(2) 0.7277(5)
C2 C 0.7754(3) 0.7467(2) 0.3639(5)
C3 C 0.8625(3) 0.7967(2) 0.5380(5)
C4 C 0.8583(4) 0.9026(2) 0.5311(5)
H2 H 0.9172 0.9405 0.6438
C5 C 0.7696(3) 0.9529(2) 0.3624(6)
H3 H 0.7663 1.0249 0.3584
C6 C 0.6854(4) 0.8958(2) 0.1991(5)
H4 H 0.6230 0.9294 0.0833
loop_
_geom_bond_atom_site_label_1
_geom_bond_atom_site_label_2
_geom_bond_site_symmetry_1
_geom_bond_site_symmetry_2
Cl1 C2 1_555 1_555
O1 H1 1_555 1_555
O2 C1 1_555 1_555
N1 C2 1_555 1_555
C1 O1 1_555 1_555
C2 C3 1_555 1_555
C3 C1 1_555 1_555
C4 C3 1_555 1_555
H2 C4 1_555 1_555
C5 C4 1_555 1_555
H3 C5 1_555 1_555
C6 N1 1_555 1_555
H4 C6 1_555 1_555
C5 C6 1_555 1_555

#END
