
#######################################################################
#
#                 Cambridge Crystallographic Data Centre
#                                CCDC 
#
#######################################################################
#
# If this CIF has been generated from an entry in the Cambridge 
# Structural Database, then it will include bibliographic, chemical, 
# crystal, experimental, refinement or atomic coordinate data resulting 
# from the CCDC's data processing and validation procedures.
#
#######################################################################

data_CANGEF
_chemical_formula_moiety         'C13 H11 N3 O3'
_chemical_name_systematic        
'2-((1H-Pyrrol-2-ylcarbonyl)carbohydrazonoyl)benzoic acid'
_symmetry_cell_setting           monoclinic
_symmetry_space_group_name_H-M   'P 21/c'
_symmetry_Int_Tables_number      14
_space_group_name_Hall           '-P 2ybc'
loop_
_symmetry_equiv_pos_site_id
_symmetry_equiv_pos_as_xyz
1 x,y,z
2 -x,1/2+y,1/2-z
3 -x,-y,-z
4 x,1/2-y,1/2+z
_cell_length_a                   9.136(2)
_cell_length_b                   5.0135(11)
_cell_length_c                   25.449(6)
_cell_angle_alpha                90
_cell_angle_beta                 98.961(3)
_cell_angle_gamma                90
_cell_volume                     1151.42
_cell_formula_units_Z            4
loop_
_atom_site_label
_atom_site_type_symbol
_atom_site_fract_x
_atom_site_fract_y
_atom_site_fract_z
N1 N 0.7678(2) 0.7537(4) 0.09469(8)
N2 N 0.7770(2) 0.6208(5) 0.04781(8)
H1 H 0.7205 0.6744 0.0196
N3 N 1.0615(2) 0.1060(4) 0.07988(8)
H2 H 1.0618 0.0241 0.0502
O1 O 0.3549(2) 1.5777(4) 0.08539(7)
H3 H 0.2990 1.5978 0.0572
O2 O 0.4193(3) 1.2260(5) 0.04339(8)
O3 O 0.85507(19) 0.3006(4) -0.00160(7)
C1 C 0.4344(3) 1.3624(6) 0.08287(10)
C2 C 0.5360(3) 1.3004(5) 0.13255(10)
C3 C 0.5235(3) 1.4494(5) 0.17813(10)
H4 H 0.4518 1.5823 0.1763
C4 C 0.6146(3) 1.4036(5) 0.22544(11)
H5 H 0.6036 1.5034 0.2554
C5 C 0.7221(3) 1.2104(5) 0.22855(10)
H6 H 0.7854 1.1817 0.2604
C6 C 0.7357(3) 1.0590(5) 0.18431(10)
H7 H 0.8079 0.9268 0.1871
C7 C 0.6451(3) 1.0976(5) 0.13563(9)
C8 C 0.6697(3) 0.9385(5) 0.08966(10)
H8 H 0.6137 0.9715 0.0565
C9 C 0.8679(3) 0.4132(5) 0.04291(10)
C10 C 0.9736(3) 0.3214(5) 0.08741(10)
C11 C 1.0082(3) 0.3922(6) 0.14001(10)
H9 H 0.9669 0.5328 0.1565
C12 C 1.1160(3) 0.2163(6) 0.16423(11)
H10 H 1.1590 0.2165 0.1998
C13 C 1.1468(3) 0.0438(6) 0.12609(11)
H11 H 1.2155 -0.0943 0.1312
loop_
_geom_bond_atom_site_label_1
_geom_bond_atom_site_label_2
_geom_bond_site_symmetry_1
_geom_bond_site_symmetry_2
N1 N2 1_555 1_555
N2 H1 1_555 1_555
N3 H2 1_555 1_555
O1 H3 1_555 1_555
O2 C1 1_555 1_555
O3 C9 1_555 1_555
C1 O1 1_555 1_555
C2 C1 1_555 1_555
C3 C2 1_555 1_555
H4 C3 1_555 1_555
C4 C3 1_555 1_555
H5 C4 1_555 1_555
C5 C4 1_555 1_555
H6 C5 1_555 1_555
C6 C5 1_555 1_555
H7 C6 1_555 1_555
C7 C2 1_555 1_555
C8 N1 1_555 1_555
H8 C8 1_555 1_555
C9 N2 1_555 1_555
C10 N3 1_555 1_555
C11 C10 1_555 1_555
H9 C11 1_555 1_555
C12 C11 1_555 1_555
H10 C12 1_555 1_555
C13 N3 1_555 1_555
H11 C13 1_555 1_555
C6 C7 1_555 1_555
C7 C8 1_555 1_555
C9 C10 1_555 1_555
C12 C13 1_555 1_555

#END
