
#######################################################################
#
#                 Cambridge Crystallographic Data Centre
#                                CCDC 
#
#######################################################################
#
# If this CIF has been generated from an entry in the Cambridge 
# Structural Database, then it will include bibliographic, chemical, 
# crystal, experimental, refinement or atomic coordinate data resulting 
# from the CCDC's data processing and validation procedures.
#
#######################################################################

data_CANHUX
_chemical_formula_moiety         'C10 H12 N2 O1'
_chemical_name_systematic        3-phenylpiperazin-2-one
_symmetry_cell_setting           orthorhombic
_symmetry_space_group_name_H-M   'P 21 21 21'
_symmetry_Int_Tables_number      19
_space_group_name_Hall           'P 2ac 2ab'
loop_
_symmetry_equiv_pos_site_id
_symmetry_equiv_pos_as_xyz
1 x,y,z
2 1/2-x,-y,1/2+z
3 -x,1/2+y,1/2-z
4 1/2+x,1/2-y,-z
_cell_length_a                   5.5306(2)
_cell_length_b                   9.1821(3)
_cell_length_c                   17.6219(5)
_cell_angle_alpha                90
_cell_angle_beta                 90
_cell_angle_gamma                90
_cell_volume                     894.885
_exptl_crystal_colour            colorless
_exptl_crystal_description       block
_cell_formula_units_Z            4
loop_
_atom_site_label
_atom_site_type_symbol
_atom_site_fract_x
_atom_site_fract_y
_atom_site_fract_z
O1 O 0.6685(3) 0.70336(16) 0.56493(8)
C1 C 0.3889(4) 0.4558(2) 0.61127(11)
N1 N 0.7962(4) 0.58700(19) 0.46009(11)
H1 H 0.9047 0.6559 0.4533
N2 N 0.5036(3) 0.35283(16) 0.48720(9)
H2 H 0.5051 0.2650 0.5072
C2 C 0.5340(4) 0.3625(2) 0.65304(11)
H3 H 0.6795 0.3263 0.6315
C3 C 0.2577(5) 0.3758(3) 0.75821(12)
H4 H 0.2100 0.3462 0.8077
C4 C 0.4684(5) 0.3214(3) 0.72631(11)
H5 H 0.5677 0.2562 0.7543
C5 C 0.1802(4) 0.5124(2) 0.64419(12)
H6 H 0.0808 0.5778 0.6164
C6 C 0.1175(4) 0.4731(3) 0.71778(12)
H7 H -0.0231 0.5135 0.7405
C7 C 0.5564(4) 0.3874(2) 0.40768(11)
H8 H 0.4253 0.4481 0.3861
H9 H 0.5678 0.2966 0.3776
C8 C 0.7930(4) 0.4687(2) 0.40458(12)
H10 H 0.9277 0.4007 0.4152
H11 H 0.8167 0.5092 0.3530
C9 C 0.6509(4) 0.60055(19) 0.51987(11)
C10 C 0.4476(3) 0.4885(2) 0.52853(10)
H12 H 0.2991 0.5312 0.5050
loop_
_geom_bond_atom_site_label_1
_geom_bond_atom_site_label_2
_geom_bond_site_symmetry_1
_geom_bond_site_symmetry_2
O1 C9 1_555 1_555
C1 C2 1_555 1_555
N1 H1 1_555 1_555
N2 H2 1_555 1_555
C2 H3 1_555 1_555
C3 H4 1_555 1_555
C4 C2 1_555 1_555
H5 C4 1_555 1_555
C5 C1 1_555 1_555
H6 C5 1_555 1_555
C6 C3 1_555 1_555
H7 C6 1_555 1_555
C7 N2 1_555 1_555
H8 C7 1_555 1_555
H9 C7 1_555 1_555
C8 N1 1_555 1_555
H10 C8 1_555 1_555
H11 C8 1_555 1_555
C9 N1 1_555 1_555
C10 C1 1_555 1_555
H12 C10 1_555 1_555
N2 C10 1_555 1_555
C3 C4 1_555 1_555
C5 C6 1_555 1_555
C7 C8 1_555 1_555
C9 C10 1_555 1_555

#END
