
#######################################################################
#
#                 Cambridge Crystallographic Data Centre
#                                CCDC 
#
#######################################################################
#
# If this CIF has been generated from an entry in the Cambridge 
# Structural Database, then it will include bibliographic, chemical, 
# crystal, experimental, refinement or atomic coordinate data resulting 
# from the CCDC's data processing and validation procedures.
#
#######################################################################

data_CANJEJ
_chemical_compound_source        
'hybrid soft coral Sinularia maxima x S. polydactyla'
_chemical_name_common            
"Methyl 19'-acetoxy-3,3,4',7b-tetramethyl-2',8'-dioxo-12'-(prop-1-en-2-yl)-1,1a,2,3,4,4a,6,7,7a,7b-decahydrospiro[cyclopropa[e]azulene-5,16'-[7,15]dioxatricyclo[12.3.1.1$6,9!]nonadeca[3,9,14(18)]triene]-18'-carboxylate"
_chemical_formula_moiety         'C38 H50 O8'
_chemical_name_systematic        7E-polymaxenolide
_symmetry_cell_setting           monoclinic
_symmetry_space_group_name_H-M   'P 21'
_symmetry_Int_Tables_number      4
_space_group_name_Hall           'P 2yb'
loop_
_symmetry_equiv_pos_site_id
_symmetry_equiv_pos_as_xyz
1 x,y,z
2 -x,1/2+y,-z
_cell_length_a                   10.714(2)
_cell_length_b                   11.305(2)
_cell_length_c                   14.462(3)
_cell_angle_alpha                90
_cell_angle_beta                 103.689(7)
_cell_angle_gamma                90
_cell_volume                     1701.91
_exptl_crystal_colour            colorless
_exptl_crystal_description       prism
_chemical_melting_point          '120-127 deg.C'
_cell_formula_units_Z            2
_exptl_crystal_recrystallization_method methanol
loop_
_atom_site_label
_atom_site_type_symbol
_atom_site_fract_x
_atom_site_fract_y
_atom_site_fract_z
O1 O 0.88762(13) 0.49550(12) 0.67958(9)
O2 O 0.42875(15) 0.41080(15) 0.47681(11)
O3 O 0.48556(16) 0.84864(15) 0.79639(11)
O4 O 0.6721(2) 0.94591(18) 0.81852(15)
O5 O 0.61866(15) 0.58420(15) 0.38303(10)
O6 O 0.76146(15) 0.72677(14) 0.44325(10)
O7 O 0.56222(15) 0.61511(16) 0.89958(10)
O8 O 0.49541(18) 0.43169(18) 0.84798(12)
C1 C 0.89396(19) 0.78944(17) 0.66415(13)
H1 H 0.8068 0.8112 0.6253
C2 C 0.93804(18) 0.67664(17) 0.62027(13)
H2 H 0.9531 0.6975 0.5573
H3 H 1.0214 0.6513 0.6612
C3 C 0.84740(18) 0.57301(17) 0.60748(12)
C4 C 0.74077(18) 0.55462(18) 0.53670(12)
C5 C 0.65243(19) 0.45040(18) 0.53873(12)
H4 H 0.6660 0.3905 0.4911
C6 C 0.50846(19) 0.4817(2) 0.51741(12)
C7 C 0.47834(18) 0.59626(19) 0.55782(13)
H5 H 0.5241 0.6639 0.5450
C8 C 0.39242(19) 0.61284(18) 0.61077(13)
C9 C 0.39037(19) 0.7317(2) 0.65730(13)
H6 H 0.3012 0.7621 0.6413
H7 H 0.4437 0.7874 0.6304
C10 C 0.4397(2) 0.7300(2) 0.76650(14)
H8 H 0.3688 0.7071 0.7971
C11 C 0.55612(19) 0.6497(2) 0.80160(13)
H9 H 0.5544 0.5795 0.7593
C12 C 0.6644(2) 0.7318(2) 0.79785(13)
C13 C 0.7777(2) 0.6986(2) 0.78274(13)
H10 H 0.7917 0.6158 0.7801
C14 C 0.8851(2) 0.7762(2) 0.76958(13)
H11 H 0.9672 0.7435 0.8072
H12 H 0.8741 0.8557 0.7953
C15 C 0.9867(2) 0.88831(18) 0.65361(14)
C16 C 1.1012(2) 0.9026(2) 0.71300(17)
H13 H 1.1579 0.9622 0.7010
H14 H 1.1262 0.8533 0.7674
C17 C 0.9422(3) 0.9633(2) 0.56696(16)
H15 H 1.0102 1.0191 0.5619
H16 H 0.8651 1.0072 0.5719
H17 H 0.9221 0.9127 0.5103
C18 C 0.71192(19) 0.63361(18) 0.45288(13)
C19 C 0.3033(2) 0.5210(2) 0.63375(15)
H18 H 0.3153 0.4465 0.6024
H19 H 0.2143 0.5477 0.6111
H20 H 0.3222 0.5090 0.7028
C20 C 0.6155(2) 0.8537(2) 0.80484(15)
C21 C 0.5827(2) 0.6528(2) 0.29576(14)
H21 H 0.6547 0.6547 0.2647
H22 H 0.5611 0.7337 0.3108
H23 H 0.5080 0.6163 0.2529
C22 C 0.5260(2) 0.5012(2) 0.91185(15)
C23 C 0.5315(2) 0.4759(3) 1.01469(17)
H24 H 0.6194 0.4542 1.0474
H25 H 0.4733 0.4105 1.0192
H26 H 0.5054 0.5466 1.0446
C24 C 0.99262(19) 0.24881(18) 0.77433(13)
H27 H 0.9612 0.1654 0.7727
C25 C 1.1013(2) 0.2620(2) 0.86244(15)
C26 C 1.1674(3) 0.1517(2) 0.90837(18)
H28 H 1.2599 0.1571 0.9398
H29 H 1.1400 0.0750 0.8771
C27 C 1.0732(2) 0.2164(2) 0.95419(15)
H30 H 1.1143 0.2632 1.0121
C28 C 0.9455(2) 0.1632(2) 0.95675(15)
H31 H 0.9520 0.1299 1.0210
H32 H 0.9285 0.0965 0.9111
C29 C 0.8280(2) 0.24807(19) 0.93331(13)
C30 C 0.7802(2) 0.27117(19) 0.82450(13)
H33 H 0.7552 0.1946 0.7922
H34 H 0.7022 0.3212 0.8138
C31 C 0.87771(18) 0.33103(17) 0.77842(13)
H35 H 0.9133 0.4004 0.8191
C32 C 0.82780(18) 0.37769(17) 0.67513(13)
C33 C 0.8922(2) 0.29908(19) 0.61351(13)
H36 H 0.8433 0.2250 0.5955
H37 H 0.9000 0.3409 0.5550
C34 C 1.0242(2) 0.2740(2) 0.67821(14)
H38 H 1.0817 0.3433 0.6822
H39 H 1.0650 0.2047 0.6556
C35 C 1.1816(2) 0.3734(2) 0.86921(18)
H40 H 1.2378 0.3680 0.8249
H41 H 1.2339 0.3822 0.9343
H42 H 1.1248 0.4421 0.8528
C36 C 0.8611(2) 0.36583(19) 0.98630(14)
H43 H 0.8807 0.3516 1.0551
H44 H 0.7878 0.4198 0.9686
H45 H 0.9360 0.4012 0.9691
C37 C 0.7172(3) 0.1885(2) 0.96572(16)
H46 H 0.6411 0.2395 0.9500
H47 H 0.7419 0.1757 1.0347
H48 H 0.6975 0.1123 0.9332
C38 C 0.68358(17) 0.39242(17) 0.63816(12)
H49 H 0.6495 0.4423 0.6828
H50 H 0.6414 0.3141 0.6345
loop_
_geom_bond_atom_site_label_1
_geom_bond_atom_site_label_2
_geom_bond_site_symmetry_1
_geom_bond_site_symmetry_2
O1 C3 1_555 1_555
O2 C6 1_555 1_555
O3 C10 1_555 1_555
O4 C20 1_555 1_555
O5 C18 1_555 1_555
O6 C18 1_555 1_555
O7 C11 1_555 1_555
O8 C22 1_555 1_555
C1 H1 1_555 1_555
C2 C1 1_555 1_555
H2 C2 1_555 1_555
H3 C2 1_555 1_555
C3 C2 1_555 1_555
C4 C3 1_555 1_555
C5 C4 1_555 1_555
H4 C5 1_555 1_555
C6 C5 1_555 1_555
C7 C6 1_555 1_555
H5 C7 1_555 1_555
C8 C7 1_555 1_555
C9 C8 1_555 1_555
H6 C9 1_555 1_555
H7 C9 1_555 1_555
C10 C9 1_555 1_555
H8 C10 1_555 1_555
C11 C10 1_555 1_555
H9 C11 1_555 1_555
C12 C11 1_555 1_555
C13 C12 1_555 1_555
H10 C13 1_555 1_555
C14 C1 1_555 1_555
H11 C14 1_555 1_555
H12 C14 1_555 1_555
C15 C1 1_555 1_555
C16 C15 1_555 1_555
H13 C16 1_555 1_555
H14 C16 1_555 1_555
C17 C15 1_555 1_555
H15 C17 1_555 1_555
H16 C17 1_555 1_555
H17 C17 1_555 1_555
C18 C4 1_555 1_555
C19 C8 1_555 1_555
H18 C19 1_555 1_555
H19 C19 1_555 1_555
H20 C19 1_555 1_555
C20 O3 1_555 1_555
C21 O5 1_555 1_555
H21 C21 1_555 1_555
H22 C21 1_555 1_555
H23 C21 1_555 1_555
C22 O7 1_555 1_555
C23 C22 1_555 1_555
H24 C23 1_555 1_555
H25 C23 1_555 1_555
H26 C23 1_555 1_555
C24 H27 1_555 1_555
C25 C24 1_555 1_555
C26 C25 1_555 1_555
H28 C26 1_555 1_555
H29 C26 1_555 1_555
C27 C25 1_555 1_555
H30 C27 1_555 1_555
C28 C27 1_555 1_555
H31 C28 1_555 1_555
H32 C28 1_555 1_555
C29 C28 1_555 1_555
C30 C29 1_555 1_555
H33 C30 1_555 1_555
H34 C30 1_555 1_555
C31 C24 1_555 1_555
H35 C31 1_555 1_555
C32 O1 1_555 1_555
C33 C32 1_555 1_555
H36 C33 1_555 1_555
H37 C33 1_555 1_555
C34 C24 1_555 1_555
H38 C34 1_555 1_555
H39 C34 1_555 1_555
C35 C25 1_555 1_555
H40 C35 1_555 1_555
H41 C35 1_555 1_555
H42 C35 1_555 1_555
C36 C29 1_555 1_555
H43 C36 1_555 1_555
H44 C36 1_555 1_555
H45 C36 1_555 1_555
C37 C29 1_555 1_555
H46 C37 1_555 1_555
H47 C37 1_555 1_555
H48 C37 1_555 1_555
C38 C5 1_555 1_555
H49 C38 1_555 1_555
H50 C38 1_555 1_555
C12 C20 1_555 1_555
C13 C14 1_555 1_555
C26 C27 1_555 1_555
C30 C31 1_555 1_555
C31 C32 1_555 1_555
C32 C38 1_555 1_555
C33 C34 1_555 1_555

#END
