
#######################################################################
#
#                 Cambridge Crystallographic Data Centre
#                                CCDC 
#
#######################################################################
#
# If this CIF has been generated from an entry in the Cambridge 
# Structural Database, then it will include bibliographic, chemical, 
# crystal, experimental, refinement or atomic coordinate data resulting 
# from the CCDC's data processing and validation procedures.
#
#######################################################################

data_CANJOT
_chemical_formula_moiety         'C4 H2 N9 O4 1-,C2 H7 N6 1+'
_chemical_name_systematic        
'3,4,5-triamino-4H-1,2,4-triazol-1-ium 3,5-dinitro-4-((1H-tetrazol-5-yl)amino)pyrazol-1-ide'
_symmetry_cell_setting           triclinic
_symmetry_space_group_name_H-M   'P -1'
_symmetry_Int_Tables_number      2
_space_group_name_Hall           '-P 1'
loop_
_symmetry_equiv_pos_site_id
_symmetry_equiv_pos_as_xyz
1 x,y,z
2 -x,-y,-z
_cell_length_a                   6.2881(5)
_cell_length_b                   9.3424(8)
_cell_length_c                   11.2935(11)
_cell_angle_alpha                87.455(8)
_cell_angle_beta                 79.856(8)
_cell_angle_gamma                82.934(7)
_cell_volume                     647.941
_cell_formula_units_Z            2
loop_
_atom_site_label
_atom_site_type_symbol
_atom_site_fract_x
_atom_site_fract_y
_atom_site_fract_z
N1 N 0.1845(3) 0.32498(18) 0.70314(17)
H1 H 0.2106 0.3854 0.6442
O1 O 0.5239(2) 0.50871(15) 0.75301(14)
N2 N 0.5482(3) 0.19918(18) 0.69791(16)
H2 H 0.6031 0.1111 0.7065
O2 O 0.6765(2) 0.64994(15) 0.61205(15)
O3 O 0.8492(3) 0.02629(17) 0.34910(15)
O4 O 0.7259(2) -0.02962(16) 0.53470(15)
N3 N 0.7775(3) 0.05943(18) 0.45363(17)
N4 N 0.8294(3) 0.30673(18) 0.40427(16)
N5 N 0.2320(3) 0.15264(18) 0.83399(16)
C1 C 0.3308(3) 0.2263(2) 0.74240(19)
N6 N 0.7848(3) 0.43445(18) 0.45726(17)
N7 N 0.0188(3) 0.20840(18) 0.84862(17)
C2 C 0.6501(3) 0.2672(2) 0.5945(2)
N8 N 0.6234(3) 0.53097(18) 0.65005(17)
N9 N -0.0114(3) 0.31315(18) 0.77223(17)
C3 C 0.7521(3) 0.2078(2) 0.48573(19)
C4 C 0.6805(3) 0.4124(2) 0.57105(19)
N10 N 0.3101(3) 0.21637(17) 0.11878(16)
N11 N -0.0375(3) 0.35527(18) 0.14169(17)
H3 H -0.1231 0.4254 0.1180
H4 H -0.0738 0.3313 0.2162
N12 N 0.4784(3) 0.33337(17) -0.02720(16)
H5 H 0.5794 0.3591 -0.0828
N13 N 0.2694(3) 0.40962(18) -0.00080(17)
N14 N 0.6748(3) 0.12159(18) 0.04032(17)
H6 H 0.7931 0.1364 -0.0073
H7 H 0.6706 0.0491 0.0900
N15 N 0.2706(3) 0.11565(18) 0.21356(17)
H8 H 0.2696 0.1594 0.2791
H9 H 0.1472 0.0868 0.2101
C5 C 0.1708(3) 0.3349(2) 0.0884(2)
C6 C 0.5022(3) 0.2177(2) 0.0431(2)
loop_
_geom_bond_atom_site_label_1
_geom_bond_atom_site_label_2
_geom_bond_site_symmetry_1
_geom_bond_site_symmetry_2
N1 H1 1_555 1_555
O1 N8 1_555 1_555
N2 H2 1_555 1_555
O2 N8 1_555 1_555
O3 N3 1_555 1_555
O4 N3 1_555 1_555
N3 C3 1_555 1_555
N4 N6 1_555 1_555
N5 C1 1_555 1_555
C1 N1 1_555 1_555
N6 C4 1_555 1_555
N7 N5 1_555 1_555
C2 N2 1_555 1_555
N8 C4 1_555 1_555
N9 N1 1_555 1_555
C3 N4 1_555 1_555
C4 C2 1_555 1_555
N10 N15 1_555 1_555
N11 H3 1_555 1_555
H4 N11 1_555 1_555
N12 H5 1_555 1_555
N13 N12 1_555 1_555
N14 H6 1_555 1_555
H7 N14 1_555 1_555
N15 H8 1_555 1_555
H9 N15 1_555 1_555
C5 N10 1_555 1_555
C6 N10 1_555 1_555
N2 C1 1_555 1_555
N7 N9 1_555 1_555
C2 C3 1_555 1_555
N11 C5 1_555 1_555
N12 C6 1_555 1_555
N13 C5 1_555 1_555
N14 C6 1_555 1_555

#END
