
#######################################################################
#
#                 Cambridge Crystallographic Data Centre
#                                CCDC 
#
#######################################################################
#
# If this CIF has been generated from an entry in the Cambridge 
# Structural Database, then it will include bibliographic, chemical, 
# crystal, experimental, refinement or atomic coordinate data resulting 
# from the CCDC's data processing and validation procedures.
#
#######################################################################

data_CANREO
_chemical_compound_source        'Morus alba'
_chemical_formula_moiety         'C39 H36 O8'
_chemical_name_systematic        'Albanol A methyl ether'
_symmetry_cell_setting           orthorhombic
_symmetry_space_group_name_H-M   'P 21 21 21'
_symmetry_Int_Tables_number      19
_space_group_name_Hall           'P 2ac 2ab'
loop_
_symmetry_equiv_pos_site_id
_symmetry_equiv_pos_as_xyz
1 x,y,z
2 1/2+x,1/2-y,-z
3 -x,1/2+y,1/2-z
4 1/2-x,-y,1/2+z
_cell_length_a                   28.337(5)
_cell_length_b                   15.961(3)
_cell_length_c                   8.188(4)
_cell_angle_alpha                90
_cell_angle_beta                 90
_cell_angle_gamma                90
_cell_volume                     3703.32
_exptl_crystal_colour            colorless
_chemical_melting_point          177-8deg.C
_cell_formula_units_Z            4
loop_
_atom_site_label
_atom_site_type_symbol
_atom_site_fract_x
_atom_site_fract_y
_atom_site_fract_z
C1 C -0.07060 0.21260 1.18830
C2 C -0.06450 0.18160 1.33380
C3 C -0.10300 0.20200 1.42970
C4 C -0.10830 0.18220 1.60270
C5 C -0.15230 0.20500 1.66880
C6 C -0.18240 0.25570 1.56910
C7 C -0.17400 0.27640 1.37970
C8 C -0.12610 0.25340 1.35330
C9 C -0.25410 0.32960 1.54860
C10 C -0.04810 0.22950 1.03830
C11 C -0.05460 0.28950 0.92680
C12 C -0.02990 0.30710 0.77860
C13 C 0.01690 0.25850 0.76070
C14 C 0.02380 0.19930 0.86870
C15 C -0.00200 0.17760 1.01440
C16 C -0.07990 0.40110 0.67190
C17 C 0.10240 0.40730 0.62570
C18 C 0.06370 0.37100 0.59970
C19 C 0.05050 0.28050 0.61860
C20 C 0.09930 0.22840 0.64430
C21 C 0.12960 0.27290 0.77760
C22 C 0.14450 0.36060 0.71310
C23 C 0.11150 0.49950 0.59060
C24 C 0.08820 0.13630 0.69850
C25 C 0.05880 0.08490 0.59290
C26 C 0.07390 0.07370 0.42160
C27 C 0.05240 0.01910 0.31920
C28 C 0.00530 -0.02170 0.37070
C29 C -0.01190 -0.01110 0.52960
C30 C 0.01370 0.04110 0.64140
C31 C 0.12980 0.09630 0.20070
C32 C -0.05910 -0.11930 0.31840
C33 C 0.16750 0.21880 0.82510
C34 C 0.16560 0.13100 0.79900
C35 C 0.20140 0.07520 0.84530
C36 C 0.23960 0.11260 0.91570
C37 C 0.24450 0.19400 0.95180
C38 C 0.20680 0.24490 0.89600
C39 C 0.32210 0.08110 1.02790
O1 O -0.11300 0.26110 1.19600
O2 O -0.22520 0.28140 1.63740
O3 O -0.03550 0.36140 0.65820
O4 O 0.06440 0.13910 0.85150
O5 O 0.12360 0.09390 0.72160
O6 O 0.11520 0.10800 0.36680
O7 O -0.01940 -0.07150 0.27430
O8 O 0.27450 0.05410 0.94710
loop_
_geom_bond_atom_site_label_1
_geom_bond_atom_site_label_2
_geom_bond_site_symmetry_1
_geom_bond_site_symmetry_2
C1 C2 1_555 1_555
C2 C3 1_555 1_555
C3 C4 1_555 1_555
C4 C5 1_555 1_555
C5 C6 1_555 1_555
C6 C7 1_555 1_555
C7 C8 1_555 1_555
C8 C3 1_555 1_555
C9 O2 1_555 1_555
C10 C1 1_555 1_555
C11 C10 1_555 1_555
C12 C11 1_555 1_555
C13 C12 1_555 1_555
C14 C13 1_555 1_555
C15 C10 1_555 1_555
C16 O3 1_555 1_555
C17 C18 1_555 1_555
C18 C19 1_555 1_555
C19 C13 1_555 1_555
C20 C19 1_555 1_555
C21 C20 1_555 1_555
C22 C17 1_555 1_555
C23 C17 1_555 1_555
C24 C20 1_555 1_555
C25 C24 1_555 1_555
C26 C25 1_555 1_555
C27 C26 1_555 1_555
C28 C27 1_555 1_555
C29 C28 1_555 1_555
C30 C25 1_555 1_555
C31 O6 1_555 1_555
C32 O7 1_555 1_555
C33 C21 1_555 1_555
C34 C33 1_555 1_555
C35 C34 1_555 1_555
C36 C35 1_555 1_555
C37 C36 1_555 1_555
C38 C33 1_555 1_555
C39 O8 1_555 1_555
O1 C1 1_555 1_555
O2 C6 1_555 1_555
O3 C12 1_555 1_555
O4 C14 1_555 1_555
O5 C24 1_555 1_555
O6 C26 1_555 1_555
O7 C28 1_555 1_555
O8 C36 1_555 1_555
C8 O1 1_555 1_555
C14 C15 1_555 1_555
C21 C22 1_555 1_555
C24 O4 1_555 1_555
C29 C30 1_555 1_555
C34 O5 1_555 1_555
C37 C38 1_555 1_555

#END
