
#######################################################################
#
#                 Cambridge Crystallographic Data Centre
#                                CCDC 
#
#######################################################################
#
# If this CIF has been generated from an entry in the Cambridge 
# Structural Database, then it will include bibliographic, chemical, 
# crystal, experimental, refinement or atomic coordinate data resulting 
# from the CCDC's data processing and validation procedures.
#
#######################################################################

data_CANVAP
_chemical_formula_moiety         'C10 H10 N2 O2 S1'
_chemical_name_systematic        
2,3,4,9-Tetrahydro-1,2-thiazino(5,6-b)indole-1,1-dioxide
_symmetry_cell_setting           monoclinic
_symmetry_space_group_name_H-M   'P 21/c'
_symmetry_Int_Tables_number      14
_space_group_name_Hall           '-P 2ybc'
loop_
_symmetry_equiv_pos_site_id
_symmetry_equiv_pos_as_xyz
1 x,y,z
2 -x,1/2+y,1/2-z
3 -x,-y,-z
4 x,1/2-y,1/2+z
_cell_length_a                   10.2820(8)
_cell_length_b                   10.3452(6)
_cell_length_c                   10.4122(14)
_cell_angle_alpha                90
_cell_angle_beta                 116.027(8)
_cell_angle_gamma                90
_cell_volume                     995.22
_exptl_crystal_colour            colorless
_exptl_crystal_description       block
_chemical_melting_point          '473-518 K decomposition'
_cell_formula_units_Z            4
_exptl_crystal_recrystallization_method chloroform
loop_
_atom_site_label
_atom_site_type_symbol
_atom_site_fract_x
_atom_site_fract_y
_atom_site_fract_z
S1 S 0.52002(7) 0.06343(6) 0.22986(7)
O1 O 0.4901(2) -0.06030(19) 0.2723(3)
O2 O 0.4297(2) 0.1045(2) 0.0864(2)
N1 N 0.7600(2) 0.0099(2) 0.1848(2)
H1 H 0.7154 -0.0403 0.1129
N2 N 0.5113(3) 0.1739(2) 0.3351(3)
H2 H 0.4415 0.2288 0.3081
C1 C 0.7007(3) 0.0709(2) 0.2643(3)
C2 C 0.8020(3) 0.1401(3) 0.3739(3)
C3 C 0.9340(3) 0.1243(3) 0.3606(3)
C4 C 1.0754(3) 0.1729(3) 0.4367(4)
H3 H 1.0996 0.2235 0.5178
C5 C 1.1769(4) 0.1437(4) 0.3883(4)
H4 H 1.2700 0.1770 0.4361
C6 C 1.1427(4) 0.0653(4) 0.2692(5)
H5 H 1.2140 0.0477 0.2395
C7 C 1.0076(3) 0.0130(3) 0.1940(4)
H6 H 0.9862 -0.0403 0.1154
C8 C 0.9033(3) 0.0439(3) 0.2418(3)
C9 C 0.7736(3) 0.2142(3) 0.4825(3)
H7 H 0.7713 0.3060 0.4624
H8 H 0.8515 0.1989 0.5768
C10 C 0.6311(4) 0.1745(3) 0.4811(3)
H9 H 0.6411 0.0888 0.5221
H10 H 0.6078 0.2338 0.5401
loop_
_geom_bond_atom_site_label_1
_geom_bond_atom_site_label_2
_geom_bond_site_symmetry_1
_geom_bond_site_symmetry_2
S1 O1 1_555 1_555
O2 S1 1_555 1_555
N1 H1 1_555 1_555
N2 S1 1_555 1_555
H2 N2 1_555 1_555
C1 S1 1_555 1_555
C2 C1 1_555 1_555
C3 C2 1_555 1_555
C4 C3 1_555 1_555
H3 C4 1_555 1_555
C5 C4 1_555 1_555
H4 C5 1_555 1_555
C6 C5 1_555 1_555
H5 C6 1_555 1_555
C7 C6 1_555 1_555
H6 C7 1_555 1_555
C8 N1 1_555 1_555
C9 C2 1_555 1_555
H7 C9 1_555 1_555
H8 C9 1_555 1_555
C10 N2 1_555 1_555
H9 C10 1_555 1_555
H10 C10 1_555 1_555
N1 C1 1_555 1_555
C3 C8 1_555 1_555
C7 C8 1_555 1_555
C9 C10 1_555 1_555

#END
