
#######################################################################
#
#                 Cambridge Crystallographic Data Centre
#                                CCDC 
#
#######################################################################
#
# If this CIF has been generated from an entry in the Cambridge 
# Structural Database, then it will include bibliographic, chemical, 
# crystal, experimental, refinement or atomic coordinate data resulting 
# from the CCDC's data processing and validation procedures.
#
#######################################################################

data_CANXIA
_chemical_formula_moiety         'C6 H12 N2 O8'
_chemical_name_systematic        
2,3-bis(hydroxymethyl)-2,3-dinitrobutane-1,4-diol
_symmetry_cell_setting           triclinic
_symmetry_space_group_name_H-M   'P 1'
_symmetry_Int_Tables_number      1
_space_group_name_Hall           'P 1'
loop_
_symmetry_equiv_pos_site_id
_symmetry_equiv_pos_as_xyz
1 x,y,z
_cell_length_a                   6.324(2)
_cell_length_b                   6.454(3)
_cell_length_c                   7.062(3)
_cell_angle_alpha                111.550(4)
_cell_angle_beta                 95.505(4)
_cell_angle_gamma                113.395(4)
_cell_volume                     235.972
_exptl_crystal_colour            colorless
_chemical_melting_point          '424 K'
_cell_formula_units_Z            1
loop_
_atom_site_label
_atom_site_type_symbol
_atom_site_fract_x
_atom_site_fract_y
_atom_site_fract_z
N1 N 0.5387(3) 0.8821(3) 1.1060(3)
N2 N 0.4684(3) 0.3881(3) 0.7867(3)
O1 O 0.5129(4) 1.0682(3) 1.1686(3)
O2 O 0.7180(3) 0.8757(4) 1.0567(3)
O3 O 0.5208(4) 0.4357(4) 0.6406(3)
O4 O 0.5674(3) 0.3045(3) 0.8729(3)
O5 O 0.2450(3) 0.7158(3) 0.7174(2)
H1 H 0.3394 0.7229 0.6451
O6 O 0.0203(3) -0.0292(3) 0.6370(2)
H2 H 0.0794 -0.1216 0.6371
O7 O 0.0093(3) 0.5111(4) 1.2407(3)
H3 H -0.1062 0.3903 1.1431
O8 O 0.5448(3) 0.7965(3) 1.4607(2)
H4 H 0.6899 0.8593 1.5129
C1 C 0.1241(3) 0.4671(4) 0.6966(3)
H5 H 0.1055 0.3494 0.5548
H6 H -0.0353 0.4332 0.7124
C2 C 0.2546(3) 0.4207(3) 0.8590(3)
C3 C 0.0868(4) 0.1611(4) 0.8461(3)
H7 H 0.1687 0.1267 0.9449
H8 H -0.0558 0.1628 0.8848
C4 C 0.1401(4) 0.6849(5) 1.1668(4)
H9 H 0.2080 0.8548 1.2797
H10 H 0.0331 0.6711 1.0497
C5 C 0.3447(3) 0.6331(3) 1.0922(3)
C6 C 0.4728(4) 0.5885(4) 1.2593(3)
H11 H 0.3648 0.4338 1.2624
H12 H 0.6122 0.5735 1.2238
loop_
_geom_bond_atom_site_label_1
_geom_bond_atom_site_label_2
_geom_bond_site_symmetry_1
_geom_bond_site_symmetry_2
N1 O1 1_555 1_555
N2 O3 1_555 1_555
O2 N1 1_555 1_555
O4 N2 1_555 1_555
O5 H1 1_555 1_555
O6 H2 1_555 1_555
O7 H3 1_555 1_555
O8 H4 1_555 1_555
C1 O5 1_555 1_555
H5 C1 1_555 1_555
H6 C1 1_555 1_555
C2 N2 1_555 1_555
C3 O6 1_555 1_555
H7 C3 1_555 1_555
H8 C3 1_555 1_555
C4 O7 1_555 1_555
H9 C4 1_555 1_555
H10 C4 1_555 1_555
C5 N1 1_555 1_555
C6 O8 1_555 1_555
H11 C6 1_555 1_555
H12 C6 1_555 1_555
C1 C2 1_555 1_555
C2 C3 1_555 1_555
C2 C5 1_555 1_555
C4 C5 1_555 1_555
C5 C6 1_555 1_555

#END
