
#######################################################################
#
#                 Cambridge Crystallographic Data Centre
#                                CCDC 
#
#######################################################################
#
# If this CIF has been generated from an entry in the Cambridge 
# Structural Database, then it will include bibliographic, chemical, 
# crystal, experimental, refinement or atomic coordinate data resulting 
# from the CCDC's data processing and validation procedures.
#
#######################################################################

data_CANXIY
_chemical_formula_moiety         'C42 H38 B6 N2 O6,2(C6 H8 N2)'
_chemical_name_systematic        
"(\m~2~-p-Phenylenediamine-N,N')-bis(1,3,5-triphenylboroxine) p-phenylenediamine solvate"
_symmetry_cell_setting           triclinic
_symmetry_space_group_name_H-M   'P -1'
_symmetry_Int_Tables_number      2
_space_group_name_Hall           '-P 1'
loop_
_symmetry_equiv_pos_site_id
_symmetry_equiv_pos_as_xyz
1 x,y,z
2 -x,-y,-z
_cell_length_a                   9.903(2)
_cell_length_b                   11.332(4)
_cell_length_c                   12.739(3)
_cell_angle_alpha                79.52(2)
_cell_angle_beta                 73.70(2)
_cell_angle_gamma                70.48(3)
_cell_volume                     1287.11
_cell_formula_units_Z            1
loop_
_atom_site_label
_atom_site_type_symbol
_atom_site_fract_x
_atom_site_fract_y
_atom_site_fract_z
B1 B 0.35580 0.34290 0.28400
B2 B 0.50040 0.46110 0.32730
B3 B 0.62320 0.25380 0.26680
O1 O 0.62670 0.35900 0.30610
O2 O 0.37040 0.45360 0.31970
O3 O 0.49510 0.24690 0.25360
N1 N 0.30030 0.39900 0.16820
C1 C 0.22720 0.29010 0.36700
C2 C 0.08760 0.37250 0.40550
C3 C -0.01970 0.32760 0.48250
C4 C 0.01270 0.20040 0.52100
C5 C 0.15230 0.11790 0.48250
C6 C 0.25960 0.16280 0.40550
C7 C 0.51430 0.58440 0.35420
C8 C 0.64460 0.58480 0.37570
C9 C 0.65760 0.69600 0.39820
C10 C 0.54030 0.80670 0.39920
C11 C 0.40980 0.80620 0.37780
C12 C 0.39680 0.69510 0.35530
C13 C 0.76900 0.14650 0.23530
C14 C 0.89010 0.13830 0.27470
C15 C 1.00230 0.04300 0.24510
C16 C 1.03330 -0.04410 0.17610
C17 C 0.91220 -0.03580 0.13670
C18 C 0.78000 0.05950 0.16630
C19 C 0.40200 0.45190 0.08100
C20 C 0.50620 0.37510 0.00560
C21 C 0.39620 0.57550 0.07600
H1 H 0.06530 0.46010 0.37900
H2 H -0.11580 0.38440 0.50900
H3 H -0.06120 0.16950 0.57400
H4 H 0.17460 0.03040 0.50900
H5 H 0.35570 0.10610 0.37900
H6 H 0.72540 0.50860 0.37490
H7 H 0.74740 0.69630 0.41290
H8 H 0.54920 0.88310 0.41470
H9 H 0.32910 0.88240 0.37850
H10 H 0.30700 0.69480 0.34060
H11 H 0.88250 0.19820 0.32220
H12 H 1.10550 0.03730 0.27220
H13 H 1.12430 -0.10960 0.15580
C21A C 0.60380 0.42450 -0.07600
C20A C 0.49380 0.62490 -0.00560
C19A C 0.59800 0.54810 -0.08100
N1A N 0.69970 0.60100 -0.16820
B1A B 0.64420 0.65710 -0.28400
O2A O 0.62960 0.54640 -0.31970
O3A O 0.50490 0.75310 -0.25360
C1A C 0.77280 0.70990 -0.36700
B2A B 0.49960 0.53890 -0.32730
B3A B 0.37680 0.74620 -0.26680
C2A C 0.91240 0.62750 -0.40550
C6A C 0.74040 0.83720 -0.40550
O1A O 0.37330 0.64100 -0.30610
C7A C 0.48570 0.41560 -0.35420
C13A C 0.23100 0.85350 -0.23530
C3A C 1.01970 0.67240 -0.48250
H1A H 0.93470 0.53990 -0.37900
C5A C 0.84770 0.88210 -0.48250
H5A H 0.64430 0.89390 -0.37900
C8A C 0.35540 0.41520 -0.37570
C12A C 0.60320 0.30490 -0.35530
C14A C 0.10990 0.86170 -0.27470
C18A C 0.22000 0.94050 -0.16630
C4A C 0.98730 0.79960 -0.52100
H2A H 1.11580 0.61560 -0.50900
H4A H 0.82540 0.96960 -0.50900
C9A C 0.34240 0.30400 -0.39820
H6A H 0.27460 0.49140 -0.37490
C11A C 0.59020 0.19380 -0.37780
H10A H 0.69300 0.30520 -0.34060
C15A C -0.00230 0.95700 -0.24510
H11A H 0.11750 0.80180 -0.32220
C17A C 0.08780 1.03580 -0.13670
H3A H 1.06120 0.83050 -0.57400
C10A C 0.45970 0.19330 -0.39920
H7A H 0.25260 0.30370 -0.41290
H9A H 0.67090 0.11760 -0.37850
C16A C -0.03330 1.04410 -0.17610
H12A H -0.10550 0.96270 -0.27220
H8A H 0.45080 0.11690 -0.41470
H13A H -0.12430 1.10960 -0.15580
N2 N 0.24650 0.20610 0.06340
C22 C 0.37280 0.10200 0.03130
C23 C 0.42640 0.00760 0.10780
C24 C 0.44950 0.09300 -0.07690
C24A C 0.55050 -0.09300 0.07690
C23A C 0.57360 -0.00760 -0.10780
C22A C 0.62720 -0.10200 -0.03130
N2A N 0.75350 -0.20610 -0.06340
N3 N 1.00050 0.38630 -0.17760
C25 C 1.07980 0.52920 -0.10410
C26 C 0.92610 0.41270 0.01700
C27 C 1.00660 0.43950 -0.08770
C26A C 1.07390 0.58730 -0.01700
C25A C 0.92020 0.47080 0.10410
C27A C 0.99340 0.56050 0.08770
N3A N 0.99950 0.61370 0.17760
loop_
_geom_bond_atom_site_label_1
_geom_bond_atom_site_label_2
_geom_bond_site_symmetry_1
_geom_bond_site_symmetry_2
B1 O2 1_555 1_555
B2 O1 1_555 1_555
B3 O1 1_555 1_555
O2 B2 1_555 1_555
O3 B1 1_555 1_555
N1 B1 1_555 1_555
C1 B1 1_555 1_555
C2 C1 1_555 1_555
C3 C2 1_555 1_555
C4 C3 1_555 1_555
C5 C4 1_555 1_555
C6 C1 1_555 1_555
C7 B2 1_555 1_555
C8 C7 1_555 1_555
C9 C8 1_555 1_555
C10 C9 1_555 1_555
C11 C10 1_555 1_555
C12 C7 1_555 1_555
C13 B3 1_555 1_555
C14 C13 1_555 1_555
C15 C14 1_555 1_555
C16 C15 1_555 1_555
C17 C16 1_555 1_555
C18 C13 1_555 1_555
C19 N1 1_555 1_555
C20 C19 1_555 1_555
C21 C19 1_555 1_555
H1 C2 1_555 1_555
H2 C3 1_555 1_555
H3 C4 1_555 1_555
H4 C5 1_555 1_555
H5 C6 1_555 1_555
H6 C8 1_555 1_555
H7 C9 1_555 1_555
H8 C10 1_555 1_555
H9 C11 1_555 1_555
H10 C12 1_555 1_555
H11 C14 1_555 1_555
H12 C15 1_555 1_555
H13 C16 1_555 1_555
N2 C22 1_555 1_555
C22 C23 1_555 1_555
C23 C24A 1_555 1_555
C24 C22 1_555 1_555
N3 C27 1_555 1_555
C25 C27 1_555 1_555
C26 C27 1_555 1_555
C21A C20 1_555 1_555
C20A C21 1_555 1_555
C19A C21A 1_555 1_555
N1A C19A 1_555 1_555
B1A N1A 1_555 1_555
O2A B1A 1_555 1_555
O3A B1A 1_555 1_555
C1A B1A 1_555 1_555
B2A O2A 1_555 1_555
B3A O3A 1_555 1_555
C2A C1A 1_555 1_555
C6A C1A 1_555 1_555
O1A B2A 1_555 1_555
C7A B2A 1_555 1_555
C13A B3A 1_555 1_555
C3A C2A 1_555 1_555
H1A C2A 1_555 1_555
C5A C6A 1_555 1_555
H5A C6A 1_555 1_555
C8A C7A 1_555 1_555
C12A C7A 1_555 1_555
C14A C13A 1_555 1_555
C18A C13A 1_555 1_555
C4A C3A 1_555 1_555
H2A C3A 1_555 1_555
H4A C5A 1_555 1_555
C9A C8A 1_555 1_555
H6A C8A 1_555 1_555
C11A C12A 1_555 1_555
H10A C12A 1_555 1_555
C15A C14A 1_555 1_555
H11A C14A 1_555 1_555
C17A C18A 1_555 1_555
H3A C4A 1_555 1_555
C10A C9A 1_555 1_555
H7A C9A 1_555 1_555
H9A C11A 1_555 1_555
C16A C15A 1_555 1_555
H12A C15A 1_555 1_555
H8A C10A 1_555 1_555
H13A C16A 1_555 1_555
C24A C22A 1_555 1_555
C23A C24 1_555 1_555
C22A C23A 1_555 1_555
N2A C22A 1_555 1_555
C26A C25 1_555 1_555
C25A C26 1_555 1_555
C27A C26A 1_555 1_555
N3A C27A 1_555 1_555
B3 O3 1_555 1_555
C5 C6 1_555 1_555
C11 C12 1_555 1_555
C17 C18 1_555 1_555
C20A C19A 1_555 1_555
B3A O1A 1_555 1_555
C5A C4A 1_555 1_555
C11A C10A 1_555 1_555
C17A C16A 1_555 1_555
C25A C27A 1_555 1_555

#END
