
#######################################################################
#
#                 Cambridge Crystallographic Data Centre
#                                CCDC 
#
#######################################################################
#
# If this CIF has been generated from an entry in the Cambridge 
# Structural Database, then it will include bibliographic, chemical, 
# crystal, experimental, refinement or atomic coordinate data resulting 
# from the CCDC's data processing and validation procedures.
#
#######################################################################

data_CANYAT
_chemical_name_common            
'C-ethyl-5,11,17,23-tetrabromocalix(4)resorcinarene ethyl acetate solvate'
_chemical_formula_moiety         'C36 H36 Br4 O8,2(C4 H8 O2)'
_chemical_name_systematic        
'2,8,14,20-tetraethyl-5,11,17,23-tetrabromo-4,6,10,,12,16,18,22,24-octahydroxycalix(4)arene ethyl acetate solvate'
_symmetry_cell_setting           orthorhombic
_symmetry_space_group_name_H-M   'C m c m'
_symmetry_Int_Tables_number      63
_space_group_name_Hall           '-C 2n 2'
loop_
_symmetry_equiv_pos_site_id
_symmetry_equiv_pos_as_xyz
1 x,y,z
2 -x,-y,1/2+z
3 x,-y,-z
4 -x,y,1/2-z
5 1/2+x,1/2+y,z
6 1/2-x,1/2-y,1/2+z
7 1/2+x,1/2-y,-z
8 1/2-x,1/2+y,1/2-z
9 -x,-y,-z
10 x,y,1/2-z
11 -x,y,z
12 x,-y,1/2+z
13 1/2-x,1/2-y,-z
14 1/2+x,1/2+y,1/2-z
15 1/2-x,1/2+y,z
16 1/2+x,1/2-y,1/2+z
_cell_length_a                   17.0779(3)
_cell_length_b                   16.1073(2)
_cell_length_c                   16.2766(3)
_cell_angle_alpha                90
_cell_angle_beta                 90
_cell_angle_gamma                90
_cell_volume                     4477.35
_exptl_crystal_colour            colorless
_exptl_crystal_description       block
_cell_formula_units_Z            4
loop_
_atom_site_label
_atom_site_type_symbol
_atom_site_fract_x
_atom_site_fract_y
_atom_site_fract_z
Br1 Br 0.00000 0.46605(3) -0.63707(3)
O1 O -0.14228(13) 0.39065(15) -0.54348(15)
H1 H -0.1357 0.4221 -0.5825
O2 O -0.19578(15) 0.45595(15) -0.39401(16)
H2 H -0.1879 0.4269 -0.4346
C1 C 0.00000 0.3920(3) -0.5470(3)
C2 C -0.1947(3) 0.4504(3) -0.25
C3 C -0.1531(2) 0.1879(2) -0.4030(2)
H3 H -0.1123 0.1675 -0.3668
H4 H -0.2032 0.1718 -0.3799
C4 C -0.1438(2) 0.1481(2) -0.4876(2)
H5 H -0.1486 0.0889 -0.4827
H6 H -0.0931 0.1615 -0.5094
H7 H -0.1836 0.1687 -0.5238
C5 C -0.07154(18) 0.31216(19) -0.4457(2)
C6 C -0.14847(18) 0.28310(19) -0.4077(2)
H8 H -0.1905 0.3013 -0.4445
C7 C -0.1510(3) 0.2866(3) -0.25
H9 H -0.1361 0.2311 -0.25
C8 C -0.16158(18) 0.3263(2) -0.3255(2)
C9 C -0.07110(19) 0.3654(2) -0.5139(2)
C10 C -0.18402(18) 0.4100(2) -0.3246(2)
C11 C 0.00000 0.2884(3) -0.4126(3)
H10 H 0.000 0.2549 -0.3661
Br2 Br -0.22375(4) 0.56364(3) -0.25
Br1C Br 0.00000 0.46605(3) 0.13707(3)
O1I O -0.14228(13) 0.39065(15) 0.04348(15)
O1C O 0.14228(13) 0.39065(15) 0.04348(15)
O1J O 0.14228(13) 0.39065(15) -0.54348(15)
H1I H -0.1357 0.4221 0.0825
H1C H 0.1357 0.4221 0.0825
H1J H 0.1357 0.4221 -0.5825
O2J O 0.19578(15) 0.45595(15) -0.39401(16)
O2C O 0.19578(15) 0.45595(15) -0.10599(16)
O2I O -0.19578(15) 0.45595(15) -0.10599(16)
H2J H 0.1879 0.4269 -0.4346
H2C H 0.1879 0.4269 -0.0654
H2I H -0.1879 0.4269 -0.0654
C1C C 0.00000 0.3920(3) 0.0470(3)
C2C C 0.1947(3) 0.4504(3) -0.25
C3I C -0.1531(2) 0.1879(2) -0.0970(2)
C3C C 0.1531(2) 0.1879(2) -0.0970(2)
C3J C 0.1531(2) 0.1879(2) -0.4030(2)
H3I H -0.1123 0.1675 -0.1332
H3C H 0.1123 0.1675 -0.1332
H3J H 0.1123 0.1675 -0.3668
H4I H -0.2032 0.1718 -0.1201
H4C H 0.2032 0.1718 -0.1201
H4J H 0.2032 0.1718 -0.3799
C4I C -0.1438(2) 0.1481(2) -0.0124(2)
C4C C 0.1438(2) 0.1481(2) -0.0124(2)
C4J C 0.1438(2) 0.1481(2) -0.4876(2)
H5I H -0.1486 0.0889 -0.0173
H5C H 0.1486 0.0889 -0.0173
H5J H 0.1486 0.0889 -0.4827
H6I H -0.0931 0.1615 0.0094
H6C H 0.0931 0.1615 0.0094
H6J H 0.0931 0.1615 -0.5094
H7I H -0.1836 0.1687 0.0238
H7C H 0.1836 0.1687 0.0238
H7J H 0.1836 0.1687 -0.5238
C5I C -0.07154(18) 0.31216(19) -0.0543(2)
C5C C 0.07154(18) 0.31216(19) -0.0543(2)
C5J C 0.07154(18) 0.31216(19) -0.4457(2)
C6I C -0.14847(18) 0.28310(19) -0.0923(2)
C6C C 0.14847(18) 0.28310(19) -0.0923(2)
C6J C 0.14847(18) 0.28310(19) -0.4077(2)
H8C H 0.1905 0.3013 -0.0555
H8J H 0.1905 0.3013 -0.4445
H8I H -0.1905 0.3013 -0.0555
C7C C 0.1510(3) 0.2866(3) -0.25
H9C H 0.1361 0.2311 -0.25
C8I C -0.16158(18) 0.3263(2) -0.1745(2)
C8C C 0.16158(18) 0.3263(2) -0.1745(2)
C8J C 0.16158(18) 0.3263(2) -0.3255(2)
C9I C -0.07110(19) 0.3654(2) 0.0139(2)
C9C C 0.07110(19) 0.3654(2) 0.0139(2)
C9J C 0.07110(19) 0.3654(2) -0.5139(2)
C10J C 0.18402(18) 0.4100(2) -0.3246(2)
C10C C 0.18402(18) 0.4100(2) -0.1754(2)
C10I C -0.18402(18) 0.4100(2) -0.1754(2)
C11C C 0.00000 0.2884(3) -0.0874(3)
H10C H 0.000 0.2549 -0.1339
Br2C Br 0.22375(4) 0.56364(3) -0.25
Br3? Br 0.00000 0.1003(8) -0.25
C12? C -0.0449(7) -0.0337(7) -0.25
C13? C 0.00000 -0.0042(9) -0.1170(9)
C14? C -0.0707(13) -0.0154(14) -0.3422(15)
C15? C 0.00000 -0.2385(8) -0.2118(8)
C16? C -0.0691(9) -0.2428(9) -0.25
C17? C -0.1335(9) -0.2130(10) -0.2205(10)
C18? C 0.00000 0.0303(14) -0.2081(15)
loop_
_geom_bond_atom_site_label_1
_geom_bond_atom_site_label_2
_geom_bond_site_symmetry_1
_geom_bond_site_symmetry_2
Br1 C1 1_555 1_555
O1 H1 1_555 1_555
O2 H2 1_555 1_555
C1 C9 1_555 1_555
C2 C10 1_555 1_555
C3 H3 1_555 1_555
H4 C3 1_555 1_555
C4 C3 1_555 1_555
H5 C4 1_555 1_555
H6 C4 1_555 1_555
H7 C4 1_555 1_555
C5 C6 1_555 1_555
C6 C3 1_555 1_555
H8 C6 1_555 1_555
C7 H9 1_555 1_555
C8 C6 1_555 1_555
C9 O1 1_555 1_555
C10 O2 1_555 1_555
C11 C5 1_555 1_555
H10 C11 1_555 1_555
Br2 C2 1_555 1_555
Br1C C1C 1_555 1_555
O1I H1I 1_555 1_555
O1C H1C 1_555 1_555
O1J H1J 1_555 1_555
O2J H2J 1_555 1_555
O2C H2C 1_555 1_555
O2I H2I 1_555 1_555
C1C C9I 1_555 1_555
C2C C10J 1_555 1_555
C3I H3I 1_555 1_555
C3C H3C 1_555 1_555
C3J H3J 1_555 1_555
H4I C3I 1_555 1_555
H4C C3C 1_555 1_555
H4J C3J 1_555 1_555
C4I C3I 1_555 1_555
C4C C3C 1_555 1_555
C4J C3J 1_555 1_555
H5I C4I 1_555 1_555
H5C C4C 1_555 1_555
H5J C4J 1_555 1_555
H6I C4I 1_555 1_555
H6C C4C 1_555 1_555
H6J C4J 1_555 1_555
H7I C4I 1_555 1_555
H7C C4C 1_555 1_555
H7J C4J 1_555 1_555
C5I C6I 1_555 1_555
C5C C6C 1_555 1_555
C5J C11 1_555 1_555
C6I C3I 1_555 1_555
C6C C3C 1_555 1_555
C6J C3J 1_555 1_555
H8C C6C 1_555 1_555
H8J C6J 1_555 1_555
H8I C6I 1_555 1_555
C7C H9C 1_555 1_555
C8I C7 1_555 1_555
C8C C6C 1_555 1_555
C8J C6J 1_555 1_555
C9I O1I 1_555 1_555
C9C O1C 1_555 1_555
C9J C1 1_555 1_555
C10J O2J 1_555 1_555
C10C O2C 1_555 1_555
C10I C2 1_555 1_555
C11C C5I 1_555 1_555
H10C C11C 1_555 1_555
Br2C C2C 1_555 1_555
C5 C9 1_555 1_555
C7 C8 1_555 1_555
C8 C10 1_555 1_555
O1J C9J 1_555 1_555
O2I C10I 1_555 1_555
C1C C9C 1_555 1_555
C2C C10C 1_555 1_555
C5I C9I 1_555 1_555
C5C C9C 1_555 1_555
C5C C11C 1_555 1_555
C5J C6J 1_555 1_555
C5J C9J 1_555 1_555
C6I C8I 1_555 1_555
C7C C8C 1_555 1_555
C7C C8J 1_555 1_555
C8I C10I 1_555 1_555
C8C C10C 1_555 1_555
C8J C10J 1_555 1_555

#END
