
#######################################################################
#
#                 Cambridge Crystallographic Data Centre
#                                CCDC 
#
#######################################################################
#
# If this CIF has been generated from an entry in the Cambridge 
# Structural Database, then it will include bibliographic, chemical, 
# crystal, experimental, refinement or atomic coordinate data resulting 
# from the CCDC's data processing and validation procedures.
#
#######################################################################

data_CAPCON
_chemical_formula_moiety         'C40 H39 N7 O2,C2 H3 N1'
_chemical_name_systematic        
'6-(2-(2-(3,5-dimethylbenzyl)piperidin-1-yl)-2-oxoethyl)-4-(1H-indazol-3-ylmethyl)-1-phenyl-4H-[1,2,4]-triazolo[4,3-a][1,5]benzodiazepin-5(6H)-one acetonitrile solvate'
_symmetry_cell_setting           monoclinic
_symmetry_space_group_name_H-M   'P 21'
_symmetry_Int_Tables_number      4
_space_group_name_Hall           'P 2yb'
loop_
_symmetry_equiv_pos_site_id
_symmetry_equiv_pos_as_xyz
1 x,y,z
2 -x,1/2+y,-z
_cell_length_a                   9.0251(2)
_cell_length_b                   22.0343(6)
_cell_length_c                   10.2136(3)
_cell_angle_alpha                90
_cell_angle_beta                 105.2600(10)
_cell_angle_gamma                90
_cell_volume                     1959.48
_exptl_crystal_colour            colorless
_exptl_crystal_description       prism
_cell_formula_units_Z            2
loop_
_atom_site_label
_atom_site_type_symbol
_atom_site_fract_x
_atom_site_fract_y
_atom_site_fract_z
N1 N -0.2047(3) 0.50715(13) 0.1751(3)
N2 N -0.1173(3) 0.49790(14) 0.3076(3)
C1 C 0.0194(3) 0.47779(15) 0.3032(3)
N3 N 0.0224(2) 0.47302(11) 0.1710(2)
C2 C -0.1186(3) 0.49186(14) 0.0964(3)
C3 C -0.1575(3) 0.48627(13) -0.0538(3)
H1 H -0.0714 0.5026 -0.0847
C4 C -0.1654(3) 0.41762(14) -0.0799(3)
N4 N -0.0271(3) 0.38754(11) -0.0462(2)
C5 C 0.1186(3) 0.41561(14) 0.0070(3)
C6 C 0.1449(3) 0.45714(14) 0.1130(3)
C7 C 0.2879(3) 0.48407(16) 0.1624(3)
H2 H 0.3029 0.5129 0.2313
C8 C 0.4073(3) 0.46805(18) 0.1092(4)
H3 H 0.5036 0.4855 0.1428
C9 C 0.3843(4) 0.42661(18) 0.0073(4)
H4 H 0.4660 0.4153 -0.0270
C10 C 0.2409(3) 0.40079(17) -0.0464(3)
H5 H 0.2265 0.3736 -0.1183
C11 C 0.1428(3) 0.45957(16) 0.4214(3)
C12 C 0.2345(4) 0.41031(18) 0.4151(4)
H6 H 0.2174 0.3875 0.3359
C13 C 0.3512(4) 0.3950(2) 0.5261(4)
H7 H 0.4143 0.3622 0.5209
C14 C 0.3761(5) 0.4270(2) 0.6434(4)
H8 H 0.4562 0.4163 0.7177
C15 C 0.2828(4) 0.47506(19) 0.6519(4)
H9 H 0.2974 0.4961 0.7332
C16 C 0.1688(4) 0.49210(18) 0.5418(4)
H10 H 0.1082 0.5256 0.5473
C17 C -0.3030(3) 0.51941(14) -0.1297(3)
H11 H -0.3918 0.4955 -0.1253
H12 H -0.3089 0.5580 -0.0856
C18 C -0.3074(3) 0.53044(15) -0.2747(3)
N5 N -0.2156(3) 0.50247(14) -0.3342(3)
N6 N -0.2543(4) 0.52217(16) -0.4666(3)
H13 H -0.210(5) 0.512(2) -0.522(4)
C19 C -0.4102(3) 0.56989(15) -0.3674(3)
C20 C -0.3706(4) 0.56250(17) -0.4905(3)
C21 C -0.4471(5) 0.5935(2) -0.6081(4)
H14 H -0.4201 0.5886 -0.6892
C22 C -0.5637(5) 0.6314(2) -0.5984(5)
H15 H -0.6176 0.6524 -0.6751
C23 C -0.6044(5) 0.6395(2) -0.4765(5)
H16 H -0.6853 0.6653 -0.4741
C24 C -0.5276(4) 0.61025(17) -0.3617(4)
H17 H -0.5528 0.6170 -0.2803
O1 O -0.2871(2) 0.39093(11) -0.1191(2)
C25 C -0.0311(4) 0.32109(14) -0.0471(3)
H18 H 0.0571 0.3056 -0.0740
H19 H -0.1231 0.3073 -0.1130
C26 C -0.0294(4) 0.29644(17) 0.0926(4)
O2 O -0.0264(3) 0.33202(12) 0.1856(3)
N7 N -0.0330(3) 0.23536(13) 0.1062(3)
C27 C -0.0392(5) 0.19201(17) -0.0020(5)
H20 H -0.0619 0.2143 -0.0880
C28 C -0.1713(6) 0.1478(2) -0.0072(6)
H21 H -0.2676 0.1697 -0.0365
H22 H -0.1705 0.1169 -0.0747
C29 C -0.1646(7) 0.1173(3) 0.1252(7)
H23 H -0.0749 0.0913 0.1510
H24 H -0.2553 0.0924 0.1168
C30 C -0.1565(7) 0.1656(3) 0.2319(6)
H25 H -0.1439 0.1463 0.3195
H26 H -0.2526 0.1879 0.2110
C31 C -0.0253(6) 0.2097(2) 0.2405(5)
H27 H -0.0309 0.2422 0.3032
H28 H 0.0718 0.1888 0.2747
C32 C 0.1146(6) 0.1595(2) 0.0159(6)
H29 H 0.1029 0.1292 -0.0549
H30 H 0.1390 0.1384 0.1022
C33 C 0.2522(6) 0.2010(2) 0.0118(6)
C34 C 0.3371(6) 0.2286(3) 0.1264(6)
H31 H 0.3139 0.2212 0.2084
C35 C 0.4576(7) 0.2675(3) 0.1237(8)
C36 C 0.4901(8) 0.2772(3) 0.0046(9)
H32 H 0.5720 0.3025 0.0029
C37 C 0.4069(8) 0.2511(2) -0.1166(8)
C38 C 0.2844(7) 0.2114(2) -0.1073(7)
H33 H 0.2260 0.1925 -0.1853
C39 C 0.5496(8) 0.3001(4) 0.2497(9)
H34 H 0.6279 0.3243 0.2272
H35 H 0.5966 0.2708 0.3175
H36 H 0.4827 0.3258 0.2841
C40 C 0.4358(10) 0.2630(3) -0.2465(8)
H37 H 0.3638 0.2407 -0.3157
H38 H 0.5384 0.2507 -0.2443
H39 H 0.4243 0.3056 -0.2660
C41 C -0.1120(11) 0.3608(3) -0.4586(9)
H40 H -0.0110 0.3683 -0.4691
H41 H -0.1326 0.3884 -0.3929
H42 H -0.1865 0.3667 -0.5441
C42 C -0.1207(11) 0.3020(5) -0.4152(8)
N8 N -0.1322(13) 0.2557(4) -0.3753(8)
loop_
_geom_bond_atom_site_label_1
_geom_bond_atom_site_label_2
_geom_bond_site_symmetry_1
_geom_bond_site_symmetry_2
N1 N2 1_555 1_555
N2 C1 1_555 1_555
C1 N3 1_555 1_555
N3 C2 1_555 1_555
C2 N1 1_555 1_555
C3 C2 1_555 1_555
H1 C3 1_555 1_555
C4 C3 1_555 1_555
N4 C4 1_555 1_555
C5 N4 1_555 1_555
C6 N3 1_555 1_555
C7 C6 1_555 1_555
H2 C7 1_555 1_555
C8 C7 1_555 1_555
H3 C8 1_555 1_555
C9 C8 1_555 1_555
H4 C9 1_555 1_555
C10 C5 1_555 1_555
H5 C10 1_555 1_555
C11 C1 1_555 1_555
C12 C11 1_555 1_555
H6 C12 1_555 1_555
C13 C12 1_555 1_555
H7 C13 1_555 1_555
C14 C13 1_555 1_555
H8 C14 1_555 1_555
C15 C14 1_555 1_555
H9 C15 1_555 1_555
C16 C11 1_555 1_555
H10 C16 1_555 1_555
C17 C3 1_555 1_555
H11 C17 1_555 1_555
H12 C17 1_555 1_555
C18 C17 1_555 1_555
N5 C18 1_555 1_555
N6 N5 1_555 1_555
H13 N6 1_555 1_555
C19 C18 1_555 1_555
C20 N6 1_555 1_555
C21 C20 1_555 1_555
H14 C21 1_555 1_555
C22 C21 1_555 1_555
H15 C22 1_555 1_555
C23 C22 1_555 1_555
H16 C23 1_555 1_555
C24 C19 1_555 1_555
H17 C24 1_555 1_555
O1 C4 1_555 1_555
C25 N4 1_555 1_555
H18 C25 1_555 1_555
H19 C25 1_555 1_555
C26 C25 1_555 1_555
O2 C26 1_555 1_555
N7 C26 1_555 1_555
C27 N7 1_555 1_555
H20 C27 1_555 1_555
C28 C27 1_555 1_555
H21 C28 1_555 1_555
H22 C28 1_555 1_555
C29 C28 1_555 1_555
H23 C29 1_555 1_555
H24 C29 1_555 1_555
C30 C29 1_555 1_555
H25 C30 1_555 1_555
H26 C30 1_555 1_555
C31 N7 1_555 1_555
H27 C31 1_555 1_555
H28 C31 1_555 1_555
C32 C27 1_555 1_555
H29 C32 1_555 1_555
H30 C32 1_555 1_555
C33 C32 1_555 1_555
C34 C33 1_555 1_555
H31 C34 1_555 1_555
C35 C34 1_555 1_555
C36 C35 1_555 1_555
H32 C36 1_555 1_555
C37 C36 1_555 1_555
C38 C33 1_555 1_555
H33 C38 1_555 1_555
C39 C35 1_555 1_555
H34 C39 1_555 1_555
H35 C39 1_555 1_555
H36 C39 1_555 1_555
C40 C37 1_555 1_555
H37 C40 1_555 1_555
H38 C40 1_555 1_555
H39 C40 1_555 1_555
C41 H40 1_555 1_555
H41 C41 1_555 1_555
H42 C41 1_555 1_555
C42 C41 1_555 1_555
N8 C42 1_555 1_555
C5 C6 1_555 1_555
C9 C10 1_555 1_555
C15 C16 1_555 1_555
C19 C20 1_555 1_555
C23 C24 1_555 1_555
C30 C31 1_555 1_555
C37 C38 1_555 1_555

#END
