
#######################################################################
#
#                 Cambridge Crystallographic Data Centre
#                                CCDC 
#
#######################################################################
#
# If this CIF has been generated from an entry in the Cambridge 
# Structural Database, then it will include bibliographic, chemical, 
# crystal, experimental, refinement or atomic coordinate data resulting 
# from the CCDC's data processing and validation procedures.
#
#######################################################################

data_CAPDUV
_chemical_formula_moiety         'C20 H23 N1 O2 S1'
_chemical_name_systematic        
4-methyl-N-(2-phenylcyclohept-2-en-1-yl)benzenesulfonamide
_symmetry_cell_setting           triclinic
_symmetry_space_group_name_H-M   'P -1'
_symmetry_Int_Tables_number      2
_space_group_name_Hall           '-P 1'
loop_
_symmetry_equiv_pos_site_id
_symmetry_equiv_pos_as_xyz
1 x,y,z
2 -x,-y,-z
_cell_length_a                   9.434(2)
_cell_length_b                   9.966(2)
_cell_length_c                   10.434(2)
_cell_angle_alpha                105.163(4)
_cell_angle_beta                 100.697(4)
_cell_angle_gamma                103.644(5)
_cell_volume                     887.562
_exptl_crystal_colour            colorless
_cell_formula_units_Z            2
loop_
_atom_site_label
_atom_site_type_symbol
_atom_site_fract_x
_atom_site_fract_y
_atom_site_fract_z
S1 S 1.12915(4) 0.56270(4) 0.22040(4)
O1 O 1.19258(13) 0.65939(13) 0.35908(12)
O2 O 1.17228(13) 0.60757(13) 0.10873(12)
N1 N 0.94764(15) 0.52941(15) 0.18685(14)
H1 H 0.8978 0.5198 0.1032
C1 C 0.6836(2) 0.9733(2) 0.3996(2)
H2 H 0.6775 1.0693 0.4347
C2 C 0.8196(2) 0.9509(2) 0.3810(2)
H3 H 0.9069 1.0322 0.4040
C3 C 0.82860(19) 0.8110(2) 0.32923(19)
H4 H 0.9222 0.7975 0.3171
C4 C 0.70142(19) 0.6891(2) 0.29444(17)
C5 C 0.70930(18) 0.53805(19) 0.23728(17)
C6 C 0.86090(18) 0.51418(19) 0.28978(17)
H5 H 0.9164 0.5975 0.3758
C7 C 1.17340(17) 0.39763(18) 0.21102(17)
C8 C 1.2275(2) 0.3684(2) 0.33080(18)
H6 H 1.2501 0.4403 0.4181
C9 C 1.2483(2) 0.2331(2) 0.32163(18)
H7 H 1.2846 0.2128 0.4035
C10 C 1.21691(19) 0.12666(19) 0.19456(19)
C11 C 1.2359(2) -0.0214(2) 0.1868(2)
H8 H 1.3373 -0.0215 0.1772
H9 H 1.1599 -0.0957 0.1070
H10 H 1.2228 -0.0430 0.2710
C12 C 0.8530(2) 0.37441(19) 0.32767(18)
H11 H 0.9561 0.3815 0.3773
H12 H 0.7890 0.3705 0.3926
C13 C 0.7921(2) 0.2315(2) 0.2094(2)
H13 H 0.8435 0.2405 0.1361
H14 H 0.8173 0.1535 0.2427
C14 C 0.6227(2) 0.1871(2) 0.1482(2)
H15 H 0.5724 0.1929 0.2239
H16 H 0.5885 0.0842 0.0884
C15 C 0.5712(2) 0.2797(2) 0.06400(19)
H17 H 0.6272 0.2786 -0.0075
H18 H 0.4627 0.2321 0.0159
C16 C 0.59075(19) 0.4364(2) 0.14137(18)
H19 H 0.5050 0.4684 0.1184
C17 C 0.5573(2) 0.8539(2) 0.36638(19)
H20 H 0.4640 0.8682 0.3786
C18 C 0.5660(2) 0.7139(2) 0.31544(18)
H21 H 0.4786 0.6332 0.2944
C19 C 1.14516(19) 0.29440(19) 0.08282(17)
H22 H 1.1111 0.3158 0.0010
C20 C 1.16719(19) 0.15986(19) 0.07544(18)
H23 H 1.1481 0.0894 -0.0120
loop_
_geom_bond_atom_site_label_1
_geom_bond_atom_site_label_2
_geom_bond_site_symmetry_1
_geom_bond_site_symmetry_2
S1 O1 1_555 1_555
O2 S1 1_555 1_555
N1 S1 1_555 1_555
H1 N1 1_555 1_555
C1 H2 1_555 1_555
C2 C1 1_555 1_555
H3 C2 1_555 1_555
C3 C2 1_555 1_555
H4 C3 1_555 1_555
C4 C3 1_555 1_555
C5 C4 1_555 1_555
C6 N1 1_555 1_555
H5 C6 1_555 1_555
C7 S1 1_555 1_555
C8 C7 1_555 1_555
H6 C8 1_555 1_555
C9 C8 1_555 1_555
H7 C9 1_555 1_555
C10 C9 1_555 1_555
C11 C10 1_555 1_555
H8 C11 1_555 1_555
H9 C11 1_555 1_555
H10 C11 1_555 1_555
C12 C6 1_555 1_555
H11 C12 1_555 1_555
H12 C12 1_555 1_555
C13 C12 1_555 1_555
H13 C13 1_555 1_555
H14 C13 1_555 1_555
C14 C13 1_555 1_555
H15 C14 1_555 1_555
H16 C14 1_555 1_555
C15 C14 1_555 1_555
H17 C15 1_555 1_555
H18 C15 1_555 1_555
C16 C5 1_555 1_555
H19 C16 1_555 1_555
C17 C1 1_555 1_555
H20 C17 1_555 1_555
C18 C4 1_555 1_555
H21 C18 1_555 1_555
C19 C7 1_555 1_555
H22 C19 1_555 1_555
C20 C10 1_555 1_555
H23 C20 1_555 1_555
C5 C6 1_555 1_555
C15 C16 1_555 1_555
C17 C18 1_555 1_555
C19 C20 1_555 1_555

#END
