
#######################################################################
#
#                 Cambridge Crystallographic Data Centre
#                                CCDC 
#
#######################################################################
#
# If this CIF has been generated from an entry in the Cambridge 
# Structural Database, then it will include bibliographic, chemical, 
# crystal, experimental, refinement or atomic coordinate data resulting 
# from the CCDC's data processing and validation procedures.
#
#######################################################################

data_CAPFEH
_chemical_formula_moiety         'C24 H24 N2 O4 S2'
_chemical_name_systematic        
4-methyl-N-(4-phenyl-1-(phenylsulfonyl)-1,2,3,6-tetrahydropyridin-3-yl)benzenesulfonamide
_symmetry_cell_setting           monoclinic
_symmetry_space_group_name_H-M   'P 21/c'
_symmetry_Int_Tables_number      14
_space_group_name_Hall           '-P 2ybc'
loop_
_symmetry_equiv_pos_site_id
_symmetry_equiv_pos_as_xyz
1 x,y,z
2 -x,1/2+y,1/2-z
3 -x,-y,-z
4 x,1/2-y,1/2+z
_cell_length_a                   5.8944(7)
_cell_length_b                   23.933(3)
_cell_length_c                   15.3952(18)
_cell_angle_alpha                90
_cell_angle_beta                 95.407(3)
_cell_angle_gamma                90
_cell_volume                     2162.15
_exptl_crystal_colour            colorless
_exptl_crystal_description       Tabullar
_cell_formula_units_Z            4
loop_
_atom_site_label
_atom_site_type_symbol
_atom_site_fract_x
_atom_site_fract_y
_atom_site_fract_z
S1 S 0.5122(5) 0.23076(12) 0.94845(19)
S2 S -0.0225(4) 0.36779(9) 0.73006(16)
O1 O 0.7101(15) 0.2086(4) 0.9129(6)
O2 O 0.4314(19) 0.2072(4) 1.0266(6)
O3 O -0.2655(12) 0.3690(3) 0.7300(5)
O4 O 0.1176(12) 0.3948(3) 0.7985(5)
N1 N 0.2998(17) 0.2264(4) 0.8733(6)
H1 H 0.1617 0.2219 0.8895
N2 N 0.0497(13) 0.3011(3) 0.7349(6)
C1 C 0.0449(16) 0.3946(4) 0.6305(7)
C2 C 0.742(3) 0.4720(6) 1.0388(12)
H2 H 0.6454 0.4853 1.0831
H3 H 0.7173 0.4955 0.9867
H4 H 0.9020 0.4738 1.0620
C3 C 0.680(2) 0.4121(5) 1.0151(8)
C4 C 0.487(2) 0.3868(5) 1.0437(8)
H5 H 0.3922 0.4077 1.0781
C5 C 0.4316(19) 0.3314(5) 1.0231(8)
H6 H 0.3016 0.3143 1.0440
C6 C 0.572(2) 0.3014(5) 0.9710(7)
C7 C 0.3270(17) 0.2297(4) 0.7809(7)
H7 H 0.4872 0.2183 0.7734
C8 C 0.2943(15) 0.2889(4) 0.7430(6)
H8 H 0.3773 0.3164 0.7821
H9 H 0.3542 0.2910 0.6851
C9 C -0.1108(18) 0.3901(4) 0.5563(7)
H10 H -0.2538 0.3723 0.5596
C10 C -0.054(2) 0.4117(4) 0.4794(7)
H11 H -0.1611 0.4103 0.4292
C11 C 0.156(2) 0.4355(4) 0.4735(7)
H12 H 0.1940 0.4492 0.4189
C12 C 0.811(2) 0.3819(5) 0.9641(8)
H13 H 0.9401 0.3991 0.9433
C13 C 0.762(2) 0.3271(5) 0.9414(8)
H14 H 0.8583 0.3070 0.9061
C14 C 0.2577(16) 0.4184(4) 0.6248(6)
H15 H 0.3654 0.4201 0.6747
C15 C 0.3113(18) 0.4397(4) 0.5453(7)
H16 H 0.4546 0.4571 0.5407
C16 C -0.0729(15) 0.2661(4) 0.6659(6)
H17 H -0.0343 0.2786 0.6078
H18 H -0.2394 0.2702 0.6680
C17 C -0.0066(16) 0.2058(4) 0.6794(7)
H19 H -0.0994 0.1784 0.6488
C18 C 0.1724(16) 0.1879(4) 0.7312(6)
C19 C 0.2275(17) 0.1272(4) 0.7414(7)
C20 C 0.4436(17) 0.1083(4) 0.7720(7)
H20 H 0.5594 0.1345 0.7901
C21 C 0.4916(17) 0.0517(4) 0.7764(8)
H21 H 0.6410 0.0397 0.7966
C22 C 0.3273(18) 0.0122(4) 0.7520(8)
H22 H 0.3633 -0.0265 0.7525
C23 C 0.1087(18) 0.0306(4) 0.7268(8)
H23 H -0.0089 0.0041 0.7126
C24 C 0.0582(18) 0.0875(4) 0.7220(8)
H24 H -0.0936 0.0993 0.7054
loop_
_geom_bond_atom_site_label_1
_geom_bond_atom_site_label_2
_geom_bond_site_symmetry_1
_geom_bond_site_symmetry_2
S1 O1 1_555 1_555
S2 O3 1_555 1_555
O2 S1 1_555 1_555
O4 S2 1_555 1_555
N1 S1 1_555 1_555
H1 N1 1_555 1_555
N2 S2 1_555 1_555
C1 S2 1_555 1_555
C2 H2 1_555 1_555
H3 C2 1_555 1_555
H4 C2 1_555 1_555
C3 C2 1_555 1_555
C4 C3 1_555 1_555
H5 C4 1_555 1_555
C5 C4 1_555 1_555
H6 C5 1_555 1_555
C6 S1 1_555 1_555
C7 N1 1_555 1_555
H7 C7 1_555 1_555
C8 N2 1_555 1_555
H8 C8 1_555 1_555
H9 C8 1_555 1_555
C9 C1 1_555 1_555
H10 C9 1_555 1_555
C10 C9 1_555 1_555
H11 C10 1_555 1_555
C11 C10 1_555 1_555
H12 C11 1_555 1_555
C12 C3 1_555 1_555
H13 C12 1_555 1_555
C13 C6 1_555 1_555
H14 C13 1_555 1_555
C14 C1 1_555 1_555
H15 C14 1_555 1_555
C15 C11 1_555 1_555
H16 C15 1_555 1_555
C16 N2 1_555 1_555
H17 C16 1_555 1_555
H18 C16 1_555 1_555
C17 C16 1_555 1_555
H19 C17 1_555 1_555
C18 C7 1_555 1_555
C19 C18 1_555 1_555
C20 C19 1_555 1_555
H20 C20 1_555 1_555
C21 C20 1_555 1_555
H21 C21 1_555 1_555
C22 C21 1_555 1_555
H22 C22 1_555 1_555
C23 C22 1_555 1_555
H23 C23 1_555 1_555
C24 C19 1_555 1_555
H24 C24 1_555 1_555
C5 C6 1_555 1_555
C7 C8 1_555 1_555
C12 C13 1_555 1_555
C14 C15 1_555 1_555
C17 C18 1_555 1_555
C23 C24 1_555 1_555

#END
