
#######################################################################
#
#                 Cambridge Crystallographic Data Centre
#                                CCDC 
#
#######################################################################
#
# If this CIF has been generated from an entry in the Cambridge 
# Structural Database, then it will include bibliographic, chemical, 
# crystal, experimental, refinement or atomic coordinate data resulting 
# from the CCDC's data processing and validation procedures.
#
#######################################################################

data_CAPHIN
_chemical_formula_moiety         'C17 H14 O4'
_chemical_name_systematic        7-hydroxy-4-(4-methoxybenzoyl)indan-1-one
_symmetry_cell_setting           monoclinic
_symmetry_space_group_name_H-M   'P 21/c'
_symmetry_Int_Tables_number      14
_space_group_name_Hall           '-P 2ybc'
loop_
_symmetry_equiv_pos_site_id
_symmetry_equiv_pos_as_xyz
1 x,y,z
2 -x,1/2+y,1/2-z
3 -x,-y,-z
4 x,1/2-y,1/2+z
_cell_length_a                   10.8910(19)
_cell_length_b                   11.973(2)
_cell_length_c                   10.0539(17)
_cell_angle_alpha                90
_cell_angle_beta                 92.309(4)
_cell_angle_gamma                90
_cell_volume                     1309.94
_exptl_crystal_colour            colorless
_exptl_crystal_description       Tabullar
_cell_formula_units_Z            4
loop_
_atom_site_label
_atom_site_type_symbol
_atom_site_fract_x
_atom_site_fract_y
_atom_site_fract_z
O1 O 0.54760(14) 0.26360(14) 0.36208(16)
H1 H 0.4994 0.3153 0.3381
O2 O 1.35423(13) 0.05051(13) -0.01385(15)
O3 O 0.48082(13) 0.45492(14) 0.21027(15)
O4 O 1.05910(13) 0.46364(12) 0.19152(15)
C1 C 0.66072(19) 0.28457(17) 0.31667(19)
C2 C 0.7586(2) 0.21253(17) 0.3456(2)
H2 H 0.7465 0.1468 0.3963
C3 C 0.87417(19) 0.23772(17) 0.29972(19)
H3 H 0.9395 0.1865 0.3172
C4 C 0.89839(18) 0.33610(16) 0.22836(19)
C5 C 1.02449(18) 0.36560(17) 0.18785(19)
C6 C 1.10760(18) 0.27607(16) 0.14120(19)
C7 C 1.23507(19) 0.29232(17) 0.15233(19)
H4 H 1.2671 0.3573 0.1955
C8 C 1.31460(19) 0.21495(17) 0.1013(2)
H5 H 1.4009 0.2260 0.1113
C9 C 1.26807(18) 0.12019(17) 0.03478(19)
C10 C 1.3109(2) -0.04618(17) -0.0862(2)
H6 H 1.2612 -0.0924 -0.0286
H7 H 1.3812 -0.0896 -0.1153
H8 H 1.2606 -0.0225 -0.1642
C11 C 0.59077(19) 0.45929(17) 0.1896(2)
C12 C 0.68298(18) 0.37985(17) 0.24036(19)
C13 C 1.14132(19) 0.10328(17) 0.02157(19)
H9 H 1.1093 0.0396 -0.0244
C14 C 1.06232(18) 0.18059(17) 0.07638(19)
H10 H 0.9761 0.1681 0.0695
C15 C 0.79950(18) 0.40817(16) 0.19973(19)
C16 C 0.79465(18) 0.51772(17) 0.12286(19)
H11 H 0.8337 0.5098 0.0361
H12 H 0.8367 0.5780 0.1744
C17 C 0.65555(19) 0.54268(18) 0.1028(2)
H13 H 0.6372 0.6201 0.1304
H14 H 0.6288 0.5333 0.0082
loop_
_geom_bond_atom_site_label_1
_geom_bond_atom_site_label_2
_geom_bond_site_symmetry_1
_geom_bond_site_symmetry_2
O1 H1 1_555 1_555
O2 C9 1_555 1_555
O3 C11 1_555 1_555
O4 C5 1_555 1_555
C1 O1 1_555 1_555
C2 C1 1_555 1_555
H2 C2 1_555 1_555
C3 C2 1_555 1_555
H3 C3 1_555 1_555
C4 C3 1_555 1_555
C5 C4 1_555 1_555
C6 C5 1_555 1_555
C7 C6 1_555 1_555
H4 C7 1_555 1_555
C8 C7 1_555 1_555
H5 C8 1_555 1_555
C9 C8 1_555 1_555
C10 O2 1_555 1_555
H6 C10 1_555 1_555
H7 C10 1_555 1_555
H8 C10 1_555 1_555
C11 C12 1_555 1_555
C12 C1 1_555 1_555
C13 C9 1_555 1_555
H9 C13 1_555 1_555
C14 C6 1_555 1_555
H10 C14 1_555 1_555
C15 C4 1_555 1_555
C16 C15 1_555 1_555
H11 C16 1_555 1_555
H12 C16 1_555 1_555
C17 C11 1_555 1_555
H13 C17 1_555 1_555
H14 C17 1_555 1_555
C12 C15 1_555 1_555
C13 C14 1_555 1_555
C16 C17 1_555 1_555

#END
