
#######################################################################
#
#                 Cambridge Crystallographic Data Centre
#                                CCDC 
#
#######################################################################
#
# If this CIF has been generated from an entry in the Cambridge 
# Structural Database, then it will include bibliographic, chemical, 
# crystal, experimental, refinement or atomic coordinate data resulting 
# from the CCDC's data processing and validation procedures.
#
#######################################################################

data_CAPKIP
_chemical_formula_moiety         'C3 H5 N2 1+,C1 H1 N4 O5 1-'
_chemical_name_systematic        
'1H-Imidazol-3-ium nitro(nitrocarbamoyl)azanide'
_symmetry_cell_setting           orthorhombic
_symmetry_space_group_name_H-M   'P 21 21 21'
_symmetry_Int_Tables_number      19
_space_group_name_Hall           'P 2ac 2ab'
loop_
_symmetry_equiv_pos_site_id
_symmetry_equiv_pos_as_xyz
1 x,y,z
2 1/2-x,-y,1/2+z
3 -x,1/2+y,1/2-z
4 1/2+x,1/2-y,-z
_cell_length_a                   5.4173(12)
_cell_length_b                   8.162(2)
_cell_length_c                   19.978(5)
_cell_angle_alpha                90
_cell_angle_beta                 90
_cell_angle_gamma                90
_cell_volume                     883.347
_exptl_crystal_colour            colorless
_exptl_crystal_description       block
_cell_formula_units_Z            4
loop_
_atom_site_label
_atom_site_type_symbol
_atom_site_fract_x
_atom_site_fract_y
_atom_site_fract_z
O1 O 1.1957(3) 0.86930(19) 0.15943(7)
O2 O 1.2618(3) 0.94228(17) 0.05742(6)
O3 O 0.8101(3) 0.67850(19) 0.17907(6)
O4 O 0.4087(3) 0.49676(19) 0.15877(7)
O5 O 0.3517(3) 0.42482(18) 0.05572(7)
N3 N 1.1381(3) 0.86052(18) 0.09949(7)
N4 N 0.9554(3) 0.77440(18) 0.07411(7)
N5 N 0.6372(3) 0.60674(19) 0.07735(7)
N6 N 0.4566(3) 0.50423(18) 0.09915(7)
C4 C 0.8091(3) 0.6889(2) 0.11896(8)
H4 H 0.662(5) 0.600(3) 0.0331(13)
N1 N 0.6189(3) 0.10704(19) 0.13252(7)
N2 N 0.8118(3) 0.1971(2) 0.21834(8)
C1 C 0.8218(4) 0.1889(2) 0.10924(9)
H1 H 0.8684 0.2029 0.0638
C2 C 0.9428(4) 0.2458(2) 0.16343(10)
H2 H 1.0911 0.3080 0.1634
C3 C 0.6157(4) 0.1141(2) 0.19878(9)
H3 H 0.4937 0.0676 0.2272
H5 H 0.510(5) 0.053(3) 0.1083(11)
H6 H 0.855(4) 0.218(3) 0.2618(12)
loop_
_geom_bond_atom_site_label_1
_geom_bond_atom_site_label_2
_geom_bond_site_symmetry_1
_geom_bond_site_symmetry_2
O1 N3 1_555 1_555
O2 N3 1_555 1_555
O3 C4 1_555 1_555
O4 N6 1_555 1_555
O5 N6 1_555 1_555
N1 C1 1_555 1_555
N2 C2 1_555 1_555
N3 N4 1_555 1_555
N4 C4 1_555 1_555
N5 N6 1_555 1_555
C1 H1 1_555 1_555
C2 C1 1_555 1_555
H2 C2 1_555 1_555
C3 N1 1_555 1_555
H3 C3 1_555 1_555
C4 N5 1_555 1_555
H4 N5 1_555 1_555
H5 N1 1_555 1_555
H6 N2 1_555 1_555
N2 C3 1_555 1_555

#END
