
#######################################################################
#
#                 Cambridge Crystallographic Data Centre
#                                CCDC 
#
#######################################################################
#
# If this CIF has been generated from an entry in the Cambridge 
# Structural Database, then it will include bibliographic, chemical, 
# crystal, experimental, refinement or atomic coordinate data resulting 
# from the CCDC's data processing and validation procedures.
#
#######################################################################

data_CAPLAH
_chemical_formula_moiety         'C6 H3 Cl3 O3'
_chemical_name_systematic        
2,2,4-Trichloro-5-methoxycyclopent-4-ene-1,3-dione
_symmetry_cell_setting           monoclinic
_symmetry_space_group_name_H-M   'P 21/m'
_symmetry_Int_Tables_number      11
_space_group_name_Hall           '-P 2yb'
loop_
_symmetry_equiv_pos_site_id
_symmetry_equiv_pos_as_xyz
1 x,y,z
2 -x,1/2+y,-z
3 -x,-y,-z
4 x,1/2-y,z
_cell_length_a                   7.8800(16)
_cell_length_b                   6.7950(14)
_cell_length_c                   8.8350(18)
_cell_angle_alpha                90
_cell_angle_beta                 115.02(3)
_cell_angle_gamma                90
_cell_volume                     428.674
_exptl_crystal_colour            'light yellow'
_cell_formula_units_Z            2
_exptl_crystal_recrystallization_method dichloromethane/hexane
loop_
_atom_site_label
_atom_site_type_symbol
_atom_site_fract_x
_atom_site_fract_y
_atom_site_fract_z
Cl1 Cl 0.17864(18) 0.2500 0.9197(2)
Cl2 Cl -0.51396(15) 0.0364(2) 0.69359(14)
O1 O -0.3939(5) 0.2500 1.0448(5)
O2 O -0.2048(6) 0.2500 0.6034(5)
O3 O 0.0307(5) 0.2500 1.1880(5)
C1 C -0.0280(10) 0.2500 1.3260(8)
H1 H 0.0808 0.2500 1.4308
H2 H -0.1015 0.1346 1.3184
H3 H -0.1015 0.3654 1.3184
C2 C -0.0950(7) 0.2500 1.0307(6)
C3 C -0.0449(7) 0.2500 0.9007(7)
C4 C -0.2049(7) 0.2500 0.7394(6)
C5 C -0.3792(7) 0.2500 0.7748(6)
C6 C -0.3031(7) 0.2500 0.9650(7)
Cl2C Cl -0.51396(15) 0.4636(2) 0.69359(14)
loop_
_geom_bond_atom_site_label_1
_geom_bond_atom_site_label_2
_geom_bond_site_symmetry_1
_geom_bond_site_symmetry_2
Cl1 C3 1_555 1_555
Cl2 C5 1_555 1_555
O1 C6 1_555 1_555
O2 C4 1_555 1_555
O3 C1 1_555 1_555
C1 H1 1_555 1_555
H2 C1 1_555 1_555
H3 C1 1_555 1_555
C2 O3 1_555 1_555
C3 C2 1_555 1_555
C4 C3 1_555 1_555
C5 C4 1_555 1_555
C6 C2 1_555 1_555
Cl2C C5 1_555 1_555
C5 C6 1_555 1_555

#END
