
#######################################################################
#
#                 Cambridge Crystallographic Data Centre
#                                CCDC 
#
#######################################################################
#
# If this CIF has been generated from an entry in the Cambridge 
# Structural Database, then it will include bibliographic, chemical, 
# crystal, experimental, refinement or atomic coordinate data resulting 
# from the CCDC's data processing and validation procedures.
#
#######################################################################

data_CAPPOB
_chemical_formula_moiety         'C25 H25 Br2 N1 O6'
_chemical_name_systematic        
'diethyl 4-(3-bromophenyl)-2-(4-bromophenyl)-6-oxo-7-oxa-1-azaspiro[4.4]nonane-3,3-dicarboxylate'
_symmetry_cell_setting           orthorhombic
_symmetry_space_group_name_H-M   'P b c a'
_symmetry_Int_Tables_number      61
_space_group_name_Hall           '-P 2ac 2ab'
loop_
_symmetry_equiv_pos_site_id
_symmetry_equiv_pos_as_xyz
1 x,y,z
2 1/2-x,-y,1/2+z
3 -x,1/2+y,1/2-z
4 1/2+x,1/2-y,-z
5 -x,-y,-z
6 1/2+x,y,1/2-z
7 x,1/2-y,1/2+z
8 1/2-x,1/2+y,z
_cell_length_a                   10.9326(18)
_cell_length_b                   19.665(3)
_cell_length_c                   22.338(4)
_cell_angle_alpha                90
_cell_angle_beta                 90
_cell_angle_gamma                90
_cell_volume                     4802.44
_exptl_crystal_colour            colorless
_exptl_crystal_description       Prism
_cell_formula_units_Z            8
loop_
_atom_site_label
_atom_site_type_symbol
_atom_site_fract_x
_atom_site_fract_y
_atom_site_fract_z
Br1 Br 0.44069(4) 0.619593(18) 0.237093(18)
Br2 Br 0.45916(5) 0.07972(2) 0.56169(2)
O1 O 0.3536(3) 0.25845(14) 0.21144(13)
O2 O 0.2601(3) 0.26188(15) 0.30014(14)
O3 O 0.6101(2) 0.39305(14) 0.47785(11)
O4 O 0.4075(3) 0.38988(16) 0.46130(12)
O5 O 0.6357(2) 0.47937(13) 0.37973(12)
O6 O 0.7097(3) 0.40375(14) 0.31351(13)
N1 N 0.5486(3) 0.27371(15) 0.31059(13)
C1 C 0.4622(4) 0.2890(2) 0.18411(18)
H1 H 0.4445 0.3043 0.1428
H2 H 0.5307 0.2561 0.1830
C2 C 0.4934(3) 0.34960(18) 0.22442(16)
H3 H 0.4448 0.3903 0.2136
H4 H 0.5816 0.3609 0.2226
C3 C 0.4574(3) 0.32217(17) 0.28615(16)
C4 C 0.3450(3) 0.27882(18) 0.26885(16)
C5 C 0.4269(3) 0.36937(18) 0.33894(16)
H5 H 0.3648 0.3440 0.3631
C6 C 0.5446(3) 0.36984(17) 0.37833(15)
C7 C 0.5930(3) 0.29485(17) 0.36972(15)
H6 H 0.6844 0.2964 0.3683
C8 C 0.3681(3) 0.43759(16) 0.32571(15)
C9 C 0.2524(3) 0.45042(19) 0.35013(16)
H7 H 0.2127 0.4164 0.3732
C10 C 0.1947(3) 0.51313(19) 0.34078(18)
H8 H 0.1161 0.5212 0.3575
C11 C 0.2510(3) 0.56323(19) 0.30760(18)
H9 H 0.2125 0.6060 0.3016
C12 C 0.3655(3) 0.54989(18) 0.28315(16)
C13 C 0.4244(3) 0.48831(17) 0.29129(15)
H10 H 0.5023 0.4805 0.2737
C14 C 0.5555(3) 0.24530(17) 0.41875(16)
C15 C 0.4442(3) 0.2102(2) 0.41690(19)
H11 H 0.3878 0.2191 0.3855
C16 C 0.4154(4) 0.1625(2) 0.46038(19)
H12 H 0.3392 0.1393 0.4593
C17 C 0.4985(4) 0.14919(18) 0.50525(17)
C18 C 0.6091(4) 0.18235(19) 0.50889(17)
H13 H 0.6650 0.1728 0.5404
C19 C 0.6371(3) 0.23079(18) 0.46473(17)
H14 H 0.7132 0.2541 0.4663
C20 C 0.5110(3) 0.38573(17) 0.44346(15)
C21 C 0.5868(4) 0.4128(2) 0.54008(17)
H15 H 0.5149 0.4434 0.5417
H16 H 0.6583 0.4380 0.5558
C22 C 0.5635(4) 0.3509(2) 0.57868(18)
H17 H 0.4948 0.3250 0.5621
H18 H 0.5436 0.3655 0.6195
H19 H 0.6368 0.3223 0.5794
C23 C 0.6406(3) 0.41874(17) 0.35368(15)
C24 C 0.7211(4) 0.5309(2) 0.35739(19)
H20 H 0.6809 0.5587 0.3261
H21 H 0.7936 0.5086 0.3395
C25 C 0.7594(4) 0.5752(2) 0.4082(2)
H22 H 0.6879 0.5993 0.4241
H23 H 0.8200 0.6083 0.3942
H24 H 0.7954 0.5471 0.4399
H25 H 0.609(4) 0.270(2) 0.286(2)
loop_
_geom_bond_atom_site_label_1
_geom_bond_atom_site_label_2
_geom_bond_site_symmetry_1
_geom_bond_site_symmetry_2
Br1 C12 1_555 1_555
Br2 C17 1_555 1_555
O1 C1 1_555 1_555
O2 C4 1_555 1_555
O3 C20 1_555 1_555
O4 C20 1_555 1_555
O5 C23 1_555 1_555
O6 C23 1_555 1_555
N1 C3 1_555 1_555
C1 H1 1_555 1_555
H2 C1 1_555 1_555
C2 C1 1_555 1_555
H3 C2 1_555 1_555
H4 C2 1_555 1_555
C3 C2 1_555 1_555
C4 O1 1_555 1_555
C5 C3 1_555 1_555
H5 C5 1_555 1_555
C6 C5 1_555 1_555
C7 N1 1_555 1_555
H6 C7 1_555 1_555
C8 C5 1_555 1_555
C9 C8 1_555 1_555
H7 C9 1_555 1_555
C10 C9 1_555 1_555
H8 C10 1_555 1_555
C11 C10 1_555 1_555
H9 C11 1_555 1_555
C12 C11 1_555 1_555
C13 C8 1_555 1_555
H10 C13 1_555 1_555
C14 C7 1_555 1_555
C15 C14 1_555 1_555
H11 C15 1_555 1_555
C16 C15 1_555 1_555
H12 C16 1_555 1_555
C17 C16 1_555 1_555
C18 C17 1_555 1_555
H13 C18 1_555 1_555
C19 C14 1_555 1_555
H14 C19 1_555 1_555
C20 C6 1_555 1_555
C21 O3 1_555 1_555
H15 C21 1_555 1_555
H16 C21 1_555 1_555
C22 C21 1_555 1_555
H17 C22 1_555 1_555
H18 C22 1_555 1_555
H19 C22 1_555 1_555
C23 C6 1_555 1_555
C24 O5 1_555 1_555
H20 C24 1_555 1_555
H21 C24 1_555 1_555
C25 C24 1_555 1_555
H22 C25 1_555 1_555
H23 C25 1_555 1_555
H24 C25 1_555 1_555
H25 N1 1_555 1_555
C3 C4 1_555 1_555
C6 C7 1_555 1_555
C12 C13 1_555 1_555
C18 C19 1_555 1_555

#END
