
#######################################################################
#
#                 Cambridge Crystallographic Data Centre
#                                CCDC 
#
#######################################################################
#
# If this CIF has been generated from an entry in the Cambridge 
# Structural Database, then it will include bibliographic, chemical, 
# crystal, experimental, refinement or atomic coordinate data resulting 
# from the CCDC's data processing and validation procedures.
#
#######################################################################

data_CAPSIX
_chemical_formula_moiety         'C25 H26 F3 N3 O2 S1'
_chemical_name_systematic        
(S)-6-((4-t-Butylphenyl)sulfonyl)-7,8-dimethyl-2-(trifluoromethyl)-6,11-dihydro-5H-pyrido[2,3-b][1,5]benzodiazepine
_symmetry_cell_setting           monoclinic
_symmetry_space_group_name_H-M   'P 21'
_symmetry_Int_Tables_number      4
_space_group_name_Hall           'P 2yb'
loop_
_symmetry_equiv_pos_site_id
_symmetry_equiv_pos_as_xyz
1 x,y,z
2 -x,1/2+y,-z
_cell_length_a                   8.686(8)
_cell_length_b                   7.752(8)
_cell_length_c                   17.511(17)
_cell_angle_alpha                90
_cell_angle_beta                 99.619(17)
_cell_angle_gamma                90
_cell_volume                     1162.51
_cell_formula_units_Z            2
loop_
_atom_site_label
_atom_site_type_symbol
_atom_site_fract_x
_atom_site_fract_y
_atom_site_fract_z
S1 S -0.06434(8) -0.06576(8) 0.26489(4)
O1 O -0.0153(2) -0.2435(2) 0.27227(12)
O2 O -0.2269(2) -0.0230(2) 0.25447(11)
N1 N 0.0188(3) 0.0340(3) 0.34397(13)
C1 C 0.1892(3) 0.0318(4) 0.36345(17)
H1 H 0.2269 -0.0819 0.3485
H2 H 0.2188 0.0427 0.4203
C2 C 0.2732(3) 0.1716(4) 0.32560(15)
C3 C 0.4167(3) 0.1348(4) 0.30443(16)
H3 H 0.4562 0.0205 0.3106
C4 C 0.5048(3) 0.2609(4) 0.27438(17)
H4 H 0.6030 0.2364 0.2598
C5 C 0.4393(3) 0.4240(4) 0.26734(15)
N2 N 0.2998(3) 0.4655(3) 0.28465(13)
C6 C 0.2157(3) 0.3413(4) 0.31267(15)
N3 N 0.0712(3) 0.4007(3) 0.32479(13)
H5 H 0.0445 0.4994 0.3015
C7 C -0.0414(3) 0.3372(4) 0.36624(15)
C8 C -0.1379(3) 0.4587(3) 0.39460(16)
H6 H -0.1255 0.5781 0.3850
C9 C -0.2516(3) 0.4047(4) 0.43667(15)
H7 H -0.3195 0.4880 0.4529
C10 C -0.2687(3) 0.2318(4) 0.45563(16)
C11 C -0.1741(3) 0.1090(3) 0.42715(16)
C12 C -0.0667(3) 0.1617(3) 0.37956(15)
C13 C -0.1899(3) -0.0805(4) 0.44513(16)
H8 H -0.2222 -0.0929 0.4959
H9 H -0.0892 -0.1381 0.4458
H10 H -0.2685 -0.1332 0.4053
C14 C -0.3908(4) 0.1799(4) 0.50487(18)
H11 H -0.3384 0.1327 0.5543
H12 H -0.4603 0.0924 0.4773
H13 H -0.4520 0.2814 0.5145
C15 C 0.5256(3) 0.5768(4) 0.24090(18)
F1 F 0.4445(2) 0.6543(2) 0.17839(11)
F2 F 0.66404(19) 0.5314(2) 0.22193(10)
F3 F 0.5537(2) 0.6961(2) 0.29639(11)
C16 C 0.0225(3) 0.0231(4) 0.18939(16)
C17 C 0.1410(3) -0.0643(4) 0.16118(15)
H14 H 0.1700 -0.1771 0.1794
C18 C 0.2170(3) 0.0132(4) 0.10638(17)
H15 H 0.2969 -0.0477 0.0868
C19 C 0.1770(3) 0.1807(4) 0.07965(16)
C20 C 0.0559(3) 0.2656(4) 0.10843(16)
H16 H 0.0266 0.3785 0.0905
C21 C -0.0223(3) 0.1878(4) 0.16282(16)
H17 H -0.1048 0.2462 0.1814
C22 C 0.2639(4) 0.2656(4) 0.01930(17)
C23 C 0.2207(4) 0.1669(5) -0.05771(18)
H18 H 0.2739 0.2195 -0.0970
H19 H 0.1075 0.1722 -0.0749
H20 H 0.2532 0.0461 -0.0502
C24 C 0.4423(4) 0.2547(5) 0.0465(2)
H21 H 0.4709 0.3207 0.0945
H22 H 0.4962 0.3027 0.0064
H23 H 0.4729 0.1339 0.0558
C25 C 0.2186(4) 0.4547(4) 0.00512(18)
H24 H 0.2403 0.5183 0.0541
H25 H 0.1070 0.4626 -0.0161
H26 H 0.2794 0.5046 -0.0318
loop_
_geom_bond_atom_site_label_1
_geom_bond_atom_site_label_2
_geom_bond_site_symmetry_1
_geom_bond_site_symmetry_2
S1 O1 1_555 1_555
O2 S1 1_555 1_555
N1 S1 1_555 1_555
C1 N1 1_555 1_555
H1 C1 1_555 1_555
H2 C1 1_555 1_555
C2 C1 1_555 1_555
C3 C2 1_555 1_555
H3 C3 1_555 1_555
C4 C3 1_555 1_555
H4 C4 1_555 1_555
C5 C4 1_555 1_555
N2 C5 1_555 1_555
C6 C2 1_555 1_555
N3 C6 1_555 1_555
H5 N3 1_555 1_555
C7 N3 1_555 1_555
C8 C7 1_555 1_555
H6 C8 1_555 1_555
C9 C8 1_555 1_555
H7 C9 1_555 1_555
C10 C9 1_555 1_555
C11 C10 1_555 1_555
C12 N1 1_555 1_555
C13 C11 1_555 1_555
H8 C13 1_555 1_555
H9 C13 1_555 1_555
H10 C13 1_555 1_555
C14 C10 1_555 1_555
H11 C14 1_555 1_555
H12 C14 1_555 1_555
H13 C14 1_555 1_555
C15 C5 1_555 1_555
F1 C15 1_555 1_555
F2 C15 1_555 1_555
F3 C15 1_555 1_555
C16 S1 1_555 1_555
C17 C16 1_555 1_555
H14 C17 1_555 1_555
C18 C17 1_555 1_555
H15 C18 1_555 1_555
C19 C18 1_555 1_555
C20 C19 1_555 1_555
H16 C20 1_555 1_555
C21 C16 1_555 1_555
H17 C21 1_555 1_555
C22 C19 1_555 1_555
C23 C22 1_555 1_555
H18 C23 1_555 1_555
H19 C23 1_555 1_555
H20 C23 1_555 1_555
C24 C22 1_555 1_555
H21 C24 1_555 1_555
H22 C24 1_555 1_555
H23 C24 1_555 1_555
C25 C22 1_555 1_555
H24 C25 1_555 1_555
H25 C25 1_555 1_555
H26 C25 1_555 1_555
N2 C6 1_555 1_555
C7 C12 1_555 1_555
C11 C12 1_555 1_555
C20 C21 1_555 1_555

#END
