
#######################################################################
#
#                 Cambridge Crystallographic Data Centre
#                                CCDC 
#
#######################################################################
#
# If this CIF has been generated from an entry in the Cambridge 
# Structural Database, then it will include bibliographic, chemical, 
# crystal, experimental, refinement or atomic coordinate data resulting 
# from the CCDC's data processing and validation procedures.
#
#######################################################################

data_CAPSOD
_chemical_formula_moiety         'C25 H26 F3 N3 O2 S1'
_chemical_name_systematic        
(R)-6-((4-t-Butylphenyl)sulfonyl)-7,8-dimethyl-2-(trifluoromethyl)-6,11-dihydro-5H-pyrido[2,3-b][1,5]benzodiazepine
_symmetry_cell_setting           monoclinic
_symmetry_space_group_name_H-M   'P 21'
_symmetry_Int_Tables_number      4
_space_group_name_Hall           'P 2yb'
loop_
_symmetry_equiv_pos_site_id
_symmetry_equiv_pos_as_xyz
1 x,y,z
2 -x,1/2+y,-z
_cell_length_a                   8.657(3)
_cell_length_b                   7.745(2)
_cell_length_c                   17.510(5)
_cell_angle_alpha                90
_cell_angle_beta                 99.233(4)
_cell_angle_gamma                90
_cell_volume                     1158.81
_cell_formula_units_Z            2
loop_
_atom_site_label
_atom_site_type_symbol
_atom_site_fract_x
_atom_site_fract_y
_atom_site_fract_z
S1 S 1.06453(4) 0.90971(5) 0.73516(2)
O1 O 1.01616(15) 1.08740(15) 0.72777(7)
O2 O 1.22715(13) 0.86725(15) 0.74570(7)
N1 N 0.98234(15) 0.80957(18) 0.65598(8)
C1 C 0.81093(18) 0.8129(2) 0.63665(10)
H1 H 0.7816 0.8029 0.5798
H2 H 0.7734 0.9265 0.6520
C2 C 0.72696(18) 0.6730(2) 0.67417(9)
C3 C 0.58289(19) 0.7094(2) 0.69544(10)
H3 H 0.5427 0.8236 0.6893
C4 C 0.4956(2) 0.5828(2) 0.72557(10)
H4 H 0.3969 0.6070 0.7402
C5 C 0.56084(18) 0.4205(3) 0.73285(9)
N2 N 0.70076(16) 0.37851(18) 0.71551(8)
C6 C 0.78448(19) 0.5026(2) 0.68754(9)
N3 N 0.92913(16) 0.44236(18) 0.67549(8)
H5 H 0.9559 0.3438 0.6989
C7 C 1.04166(19) 0.5064(2) 0.63359(9)
C8 C 1.13822(19) 0.3854(2) 0.60538(9)
H6 H 1.1259 0.2660 0.6151
C9 C 1.25155(19) 0.4391(2) 0.56342(9)
H7 H 1.3200 0.3557 0.5472
C10 C 1.26860(19) 0.6119(2) 0.54404(9)
C11 C 1.17438(19) 0.7353(2) 0.57277(9)
C12 C 1.06723(18) 0.6817(2) 0.62061(9)
C13 C 1.18997(19) 0.9248(2) 0.55479(10)
H8 H 1.2672 0.9781 0.5949
H9 H 1.0885 0.9818 0.5534
H10 H 1.2243 0.9372 0.5044
C14 C 1.3905(2) 0.6639(2) 0.49531(10)
H11 H 1.4520 0.5625 0.4855
H12 H 1.4599 0.7514 0.5229
H13 H 1.3384 0.7116 0.4460
C15 C 0.4745(2) 0.2678(2) 0.75916(10)
F1 F 0.55548(12) 0.18980(15) 0.82169(7)
F2 F 0.33595(11) 0.31281(15) 0.77791(6)
F3 F 0.44676(13) 0.14788(14) 0.70351(7)
C16 C 0.97798(18) 0.8203(2) 0.81053(9)
C17 C 0.85914(18) 0.9087(2) 0.83876(9)
H14 H 0.8303 1.0217 0.8208
C18 C 0.78345(19) 0.8303(2) 0.89328(10)
H15 H 0.7031 0.8912 0.9130
C19 C 0.82264(19) 0.6628(2) 0.92025(10)
C20 C 0.9442(2) 0.5782(2) 0.89141(9)
H16 H 0.9736 0.4652 0.9091
C21 C 1.02247(19) 0.6568(2) 0.83730(10)
H17 H 1.1058 0.5987 0.8189
C22 C 0.7364(2) 0.5790(3) 0.98091(10)
C23 C 0.7794(2) 0.6775(3) 1.05775(11)
H18 H 0.7469 0.7984 1.0503
H19 H 0.8928 0.6722 1.0747
H20 H 0.7258 0.6248 1.0971
C24 C 0.5580(2) 0.5893(3) 0.95350(12)
H21 H 0.5272 0.7102 0.9440
H22 H 0.5031 0.5414 0.9935
H23 H 0.5303 0.5230 0.9056
C25 C 0.7817(2) 0.3899(3) 0.99525(10)
H24 H 0.7216 0.3407 1.0329
H25 H 0.8938 0.3819 1.0155
H26 H 0.7589 0.3256 0.9465
loop_
_geom_bond_atom_site_label_1
_geom_bond_atom_site_label_2
_geom_bond_site_symmetry_1
_geom_bond_site_symmetry_2
S1 O1 1_555 1_555
O2 S1 1_555 1_555
N1 S1 1_555 1_555
C1 N1 1_555 1_555
H1 C1 1_555 1_555
H2 C1 1_555 1_555
C2 C1 1_555 1_555
C3 C2 1_555 1_555
H3 C3 1_555 1_555
C4 C3 1_555 1_555
H4 C4 1_555 1_555
C5 C4 1_555 1_555
N2 C5 1_555 1_555
C6 C2 1_555 1_555
N3 C6 1_555 1_555
H5 N3 1_555 1_555
C7 N3 1_555 1_555
C8 C7 1_555 1_555
H6 C8 1_555 1_555
C9 C8 1_555 1_555
H7 C9 1_555 1_555
C10 C9 1_555 1_555
C11 C10 1_555 1_555
C12 N1 1_555 1_555
C13 C11 1_555 1_555
H8 C13 1_555 1_555
H9 C13 1_555 1_555
H10 C13 1_555 1_555
C14 C10 1_555 1_555
H11 C14 1_555 1_555
H12 C14 1_555 1_555
H13 C14 1_555 1_555
C15 C5 1_555 1_555
F1 C15 1_555 1_555
F2 C15 1_555 1_555
F3 C15 1_555 1_555
C16 S1 1_555 1_555
C17 C16 1_555 1_555
H14 C17 1_555 1_555
C18 C17 1_555 1_555
H15 C18 1_555 1_555
C19 C18 1_555 1_555
C20 C19 1_555 1_555
H16 C20 1_555 1_555
C21 C16 1_555 1_555
H17 C21 1_555 1_555
C22 C19 1_555 1_555
C23 C22 1_555 1_555
H18 C23 1_555 1_555
H19 C23 1_555 1_555
H20 C23 1_555 1_555
C24 C22 1_555 1_555
H21 C24 1_555 1_555
H22 C24 1_555 1_555
H23 C24 1_555 1_555
C25 C22 1_555 1_555
H24 C25 1_555 1_555
H25 C25 1_555 1_555
H26 C25 1_555 1_555
N2 C6 1_555 1_555
C7 C12 1_555 1_555
C11 C12 1_555 1_555
C20 C21 1_555 1_555

#END
