
#######################################################################
#
#                 Cambridge Crystallographic Data Centre
#                                CCDC 
#
#######################################################################
#
# If this CIF has been generated from an entry in the Cambridge 
# Structural Database, then it will include bibliographic, chemical, 
# crystal, experimental, refinement or atomic coordinate data resulting 
# from the CCDC's data processing and validation procedures.
#
#######################################################################

data_CAPTAQ
_chemical_formula_moiety         'C9 H15 N1 O5 S1'
_chemical_name_systematic        
2-(3,4-Dihydroxy-5-(hydroxymethyl)tetrahydrofuran-2-yl)-3-methyl-1,3-thiazolidin-4-one
_symmetry_cell_setting           orthorhombic
_symmetry_space_group_name_H-M   'P 21 21 21'
_symmetry_Int_Tables_number      19
_space_group_name_Hall           'P 2ac 2ab'
loop_
_symmetry_equiv_pos_site_id
_symmetry_equiv_pos_as_xyz
1 x,y,z
2 1/2+x,1/2-y,-z
3 -x,1/2+y,1/2-z
4 1/2-x,-y,1/2+z
_cell_length_a                   7.952(2)
_cell_length_b                   11.670(4)
_cell_length_c                   12.175(4)
_cell_angle_alpha                90
_cell_angle_beta                 90
_cell_angle_gamma                90
_cell_volume                     1129.84
_cell_formula_units_Z            4
loop_
_atom_site_label
_atom_site_type_symbol
_atom_site_fract_x
_atom_site_fract_y
_atom_site_fract_z
C1 C 0.19978(17) 0.62330(13) 0.32033(12)
H1 H 0.1664 0.5768 0.2580
H2 H 0.1697 0.5820 0.3866
C2 C 0.38949(16) 0.63993(12) 0.31764(10)
H3 H 0.4447 0.5650 0.3217
C3 C 0.46272(16) 0.71875(12) 0.40629(9)
H4 H 0.3864 0.7833 0.4192
C4 C 0.62543(16) 0.76183(11) 0.35380(9)
H5 H 0.7161 0.7064 0.3659
C5 C 0.57893(15) 0.76582(11) 0.23071(10)
H6 H 0.5490 0.8448 0.2116
C6 C 0.72351(17) 0.72741(12) 0.15625(10)
H7 H 0.8237 0.7726 0.1740
C7 C 0.64916(17) 0.64971(12) -0.02108(11)
C8 C 0.6710(2) 0.53899(13) 0.04289(13)
H8 H 0.7390 0.4853 0.0014
H9 H 0.5624 0.5041 0.0570
C9 C 0.6700(2) 0.85878(13) -0.00507(12)
H10 H 0.6854 0.8565 -0.0832
H11 H 0.7546 0.9068 0.0273
H12 H 0.5607 0.8892 0.0114
N1 N 0.68412(15) 0.74276(10) 0.03962(8)
O1 O 0.60212(16) 0.65140(10) -0.11817(9)
O2 O 0.43350(12) 0.69460(9) 0.21512(7)
O3 O 0.10978(13) 0.72882(11) 0.31741(8)
H13 H 0.1188 0.7576 0.2563
O4 O 0.48464(13) 0.65500(9) 0.50608(7)
H14 H 0.5304 0.6957 0.5522
O5 O 0.67550(13) 0.87221(9) 0.39182(9)
H15 H 0.7716 0.8688 0.4160
S1 S 0.77409(5) 0.57479(3) 0.17131(3)
loop_
_geom_bond_atom_site_label_1
_geom_bond_atom_site_label_2
_geom_bond_site_symmetry_1
_geom_bond_site_symmetry_2
C1 H1 1_555 1_555
H2 C1 1_555 1_555
C2 C1 1_555 1_555
H3 C2 1_555 1_555
C3 C2 1_555 1_555
H4 C3 1_555 1_555
C4 C3 1_555 1_555
H5 C4 1_555 1_555
C5 C4 1_555 1_555
H6 C5 1_555 1_555
C6 C5 1_555 1_555
H7 C6 1_555 1_555
C7 C8 1_555 1_555
C8 H8 1_555 1_555
H9 C8 1_555 1_555
C9 H10 1_555 1_555
H11 C9 1_555 1_555
H12 C9 1_555 1_555
N1 C6 1_555 1_555
O1 C7 1_555 1_555
O2 C2 1_555 1_555
O3 C1 1_555 1_555
H13 O3 1_555 1_555
O4 C3 1_555 1_555
H14 O4 1_555 1_555
O5 C4 1_555 1_555
H15 O5 1_555 1_555
S1 C6 1_555 1_555
C5 O2 1_555 1_555
C7 N1 1_555 1_555
C8 S1 1_555 1_555
C9 N1 1_555 1_555

#END
