
#######################################################################
#
#                 Cambridge Crystallographic Data Centre
#                                CCDC 
#
#######################################################################
#
# If this CIF has been generated from an entry in the Cambridge 
# Structural Database, then it will include bibliographic, chemical, 
# crystal, experimental, refinement or atomic coordinate data resulting 
# from the CCDC's data processing and validation procedures.
#
#######################################################################

data_CAPZIF
_chemical_formula_moiety         'C22 H15 N3 O2'
_chemical_name_systematic        
5-methyl-9H-tribenzo[c,g,i][1,2,3]triazolo[1,5-e][1,5]oxazecin-9-one
_symmetry_cell_setting           monoclinic
_symmetry_space_group_name_H-M   'P 21/c'
_symmetry_Int_Tables_number      14
_space_group_name_Hall           '-P 2ybc'
loop_
_symmetry_equiv_pos_site_id
_symmetry_equiv_pos_as_xyz
1 x,y,z
2 -x,1/2+y,1/2-z
3 -x,-y,-z
4 x,1/2-y,1/2+z
_cell_length_a                   12.2392(19)
_cell_length_b                   9.6932(15)
_cell_length_c                   14.620(2)
_cell_angle_alpha                90
_cell_angle_beta                 95.352(13)
_cell_angle_gamma                90
_cell_volume                     1726.91
_exptl_crystal_colour            colorless
_exptl_crystal_description       block
_cell_formula_units_Z            4
loop_
_atom_site_label
_atom_site_type_symbol
_atom_site_fract_x
_atom_site_fract_y
_atom_site_fract_z
O1 O 0.36221(8) 0.48359(10) 0.19333(6)
N1 N 0.23369(10) 0.58399(11) 0.05183(7)
C1 C 0.30249(11) 0.50238(14) -0.00132(9)
C2 C 0.15966(11) 0.33207(14) 0.21133(9)
O2 O 0.40827(10) 0.26157(12) 0.17424(7)
C3 C 0.32742(11) 0.46377(14) 0.28135(9)
C4 C 0.22771(11) 0.39772(14) 0.28993(9)
N2 N 0.24866(12) 0.72288(13) 0.05602(8)
C5 C 0.37380(11) 0.40378(14) 0.04151(9)
C6 C 0.38339(11) 0.37177(15) 0.14166(9)
C7 C 0.13078(10) 0.39818(14) 0.12662(9)
C8 C 0.43938(12) 0.32714(15) -0.01189(10)
H1 H 0.4862 0.2604 0.0155
C9 C 0.16170(11) 0.54300(15) 0.11198(9)
C10 C 0.12340(12) 0.19721(16) 0.22171(11)
H2 H 0.1416 0.1516 0.2770
C11 C 0.35324(13) 0.51371(16) 0.44151(10)
H3 H 0.3944 0.5527 0.4916
C12 C 0.29634(12) 0.52474(15) -0.09636(9)
C13 C 0.38995(12) 0.52132(15) 0.35511(9)
H4 H 0.4561 0.5647 0.3467
C14 C 0.43571(13) 0.34915(16) -0.10535(10)
H5 H 0.4808 0.2984 -0.1406
C15 C 0.19452(12) 0.39046(16) 0.37879(9)
H6 H 0.1294 0.3453 0.3880
C16 C 0.06843(11) 0.32782(16) 0.05631(10)
H7 H 0.0506 0.3716 0.0003
N3 N 0.18538(12) 0.77043(13) 0.11592(9)
C17 C 0.36528(13) 0.44632(17) -0.14639(10)
H8 H 0.3637 0.4600 -0.2095
C18 C 0.25573(13) 0.44844(17) 0.45333(10)
H9 H 0.2310 0.4433 0.5115
C19 C 0.03288(13) 0.19456(17) 0.06871(11)
H10 H -0.0094 0.1492 0.0218
C20 C 0.21834(15) 0.62777(19) -0.14477(10)
H11 H 0.2267 0.6267 -0.2094
H12 H 0.2345 0.7184 -0.1207
H13 H 0.1443 0.6037 -0.1350
C21 C 0.13208(13) 0.66332(16) 0.15131(10)
H14 H 0.0827 0.6707 0.1957
C22 C 0.06085(13) 0.12934(17) 0.15162(11)
H15 H 0.0376 0.0394 0.1605
loop_
_geom_bond_atom_site_label_1
_geom_bond_atom_site_label_2
_geom_bond_site_symmetry_1
_geom_bond_site_symmetry_2
O1 C3 1_555 1_555
N1 C1 1_555 1_555
C1 C5 1_555 1_555
C2 C4 1_555 1_555
O2 C6 1_555 1_555
C3 C4 1_555 1_555
C4 C15 1_555 1_555
N2 N1 1_555 1_555
C5 C6 1_555 1_555
C6 O1 1_555 1_555
C7 C2 1_555 1_555
C8 C5 1_555 1_555
H1 C8 1_555 1_555
C9 N1 1_555 1_555
C10 C2 1_555 1_555
H2 C10 1_555 1_555
C11 H3 1_555 1_555
C12 C1 1_555 1_555
C13 C3 1_555 1_555
H4 C13 1_555 1_555
C14 C8 1_555 1_555
H5 C14 1_555 1_555
C15 H6 1_555 1_555
C16 C7 1_555 1_555
H7 C16 1_555 1_555
N3 N2 1_555 1_555
C17 C12 1_555 1_555
H8 C17 1_555 1_555
C18 C11 1_555 1_555
H9 C18 1_555 1_555
C19 C16 1_555 1_555
H10 C19 1_555 1_555
C20 C12 1_555 1_555
H11 C20 1_555 1_555
H12 C20 1_555 1_555
H13 C20 1_555 1_555
C21 C9 1_555 1_555
H14 C21 1_555 1_555
C22 C10 1_555 1_555
H15 C22 1_555 1_555
C7 C9 1_555 1_555
C11 C13 1_555 1_555
C14 C17 1_555 1_555
C15 C18 1_555 1_555
N3 C21 1_555 1_555
C19 C22 1_555 1_555

#END
