
#######################################################################
#
#                 Cambridge Crystallographic Data Centre
#                                CCDC 
#
#######################################################################
#
# If this CIF has been generated from an entry in the Cambridge 
# Structural Database, then it will include bibliographic, chemical, 
# crystal, experimental, refinement or atomic coordinate data resulting 
# from the CCDC's data processing and validation procedures.
#
#######################################################################

data_CAPZUR
_chemical_formula_moiety         'C28 H30 N2'
_chemical_name_systematic        
6-methyl-3,4-diphenyl-N,1-bis(propan-2-yl)quinolin-2(1H)-imine
_symmetry_cell_setting           triclinic
_symmetry_space_group_name_H-M   'P -1'
_symmetry_Int_Tables_number      2
_space_group_name_Hall           '-P 1'
loop_
_symmetry_equiv_pos_site_id
_symmetry_equiv_pos_as_xyz
1 x,y,z
2 -x,-y,-z
_cell_length_a                   10.3930(7)
_cell_length_b                   11.0108(13)
_cell_length_c                   11.0248(12)
_cell_angle_alpha                87.324(9)
_cell_angle_beta                 66.406(9)
_cell_angle_gamma                79.801(8)
_cell_volume                     1137.48
_exptl_crystal_colour            'light yellow'
_exptl_crystal_description       block
_cell_formula_units_Z            2
loop_
_atom_site_label
_atom_site_type_symbol
_atom_site_fract_x
_atom_site_fract_y
_atom_site_fract_z
C1 C 0.0635(3) 0.7392(3) 0.9613(3)
N1 N 0.1000(2) 0.7290(2) 0.7309(2)
C2 C -0.0206(3) 0.8181(3) 0.7531(3)
N2 N 0.3019(3) 0.6918(2) 0.7715(2)
C3 C -0.0668(3) 0.8602(3) 0.6541(3)
H1 H -0.0154(3) 0.8284(3) 0.5682(3)
C4 C -0.0623(3) 0.8155(3) 0.9884(3)
C5 C -0.2230(3) 0.9569(3) 0.9045(3)
H2 H -0.2761(3) 0.9896(3) 0.9898(3)
C6 C 0.0970(3) 0.6682(3) 1.0659(3)
C7 C -0.1014(3) 0.8675(3) 0.8835(3)
C8 C -0.2677(3) 0.9985(3) 0.8075(3)
C9 C -0.1676(3) 0.8419(3) 1.1283(3)
C10 C 0.1664(3) 0.7184(3) 0.8210(3)
C11 C -0.2501(3) 0.7562(3) 1.1964(3)
H3 H -0.2441(3) 0.6832(3) 1.1536(3)
C12 C 0.1261(3) 0.5408(3) 1.0560(3)
H4 H 0.1290(3) 0.5016(3) 0.9817(3)
C13 C -0.3416(3) 0.7777(3) 1.3275(3)
H5 H -0.3955(3) 0.7184(3) 1.3730(3)
C14 C -0.1868(3) 0.9480(3) 0.6807(3)
H6 H -0.2148(3) 0.9744(3) 0.6123(3)
C15 C 0.0933(3) 0.7242(3) 1.1774(3)
H7 H 0.0743(3) 0.8098(3) 1.1863(3)
C16 C 0.1173(3) 0.6544(4) 1.2744(3)
H8 H 0.1140(3) 0.6932(4) 1.3490(3)
C17 C 0.4686(3) 0.5434(3) 0.8280(4)
H9 H 0.4004(4) 0.4894(4) 0.867(2)
H10 H 0.520(2) 0.5233(8) 0.7353(4)
H11 H 0.5339(19) 0.5335(6) 0.871(2)
C18 C -0.3979(3) 1.0969(3) 0.8342(3)
H12 H -0.4585(13) 1.0998(16) 0.9268(5)
H13 H -0.3689(4) 1.1756(5) 0.809(2)
H14 H -0.4489(14) 1.0779(12) 0.7837(19)
C19 C 0.3918(3) 0.6756(3) 0.8458(3)
H15 H 0.3337(3) 0.6954(3) 0.9398(3)
C20 C 0.1713(3) 0.6608(3) 0.6023(3)
H16 H 0.0971(3) 0.6587(3) 0.5693(3)
C21 C 0.1461(3) 0.5287(4) 1.2638(4)
H17 H 0.1625(3) 0.4824(4) 1.3306(4)
C22 C 0.1508(3) 0.4706(3) 1.1537(4)
H18 H 0.1705(3) 0.3849(3) 1.1454(4)
C23 C 0.2310(3) 0.5270(3) 0.6166(3)
H19 H 0.3153(12) 0.5234(3) 0.6334(19)
H20 H 0.1611(8) 0.4919(6) 0.6890(13)
H21 H 0.254(2) 0.4813(5) 0.5363(8)
C24 C 0.2817(3) 0.7255(3) 0.4990(3)
H22 H 0.2381(6) 0.8074(7) 0.4884(15)
H23 H 0.3573(11) 0.7298(17) 0.5269(10)
H24 H 0.3198(16) 0.6802(11) 0.4162(6)
C25 C -0.1836(3) 0.9512(3) 1.1927(3)
H25 H -0.1316(3) 1.0115(3) 1.1474(3)
C26 C -0.2760(4) 0.9724(4) 1.3238(3)
H26 H -0.2852(4) 1.0463(4) 1.3664(3)
C27 C -0.3537(4) 0.8849(3) 1.3908(3)
H27 H -0.4148(4) 0.8984(3) 1.4795(3)
C28 C 0.4980(4) 0.7631(4) 0.7896(4)
H28 H 0.5525(16) 0.7445(14) 0.6969(6)
H29 H 0.4477(4) 0.8466(4) 0.801(2)
H30 H 0.5608(15) 0.7537(15) 0.8350(15)
loop_
_geom_bond_atom_site_label_1
_geom_bond_atom_site_label_2
_geom_bond_site_symmetry_1
_geom_bond_site_symmetry_2
C1 C4 1_555 1_555
N1 C2 1_555 1_555
C2 C3 1_555 1_555
N2 C10 1_555 1_555
C3 H1 1_555 1_555
C4 C7 1_555 1_555
C5 H2 1_555 1_555
C6 C1 1_555 1_555
C7 C2 1_555 1_555
C8 C5 1_555 1_555
C9 C4 1_555 1_555
C10 C1 1_555 1_555
C11 C9 1_555 1_555
H3 C11 1_555 1_555
C12 C6 1_555 1_555
H4 C12 1_555 1_555
C13 C11 1_555 1_555
H5 C13 1_555 1_555
C14 C3 1_555 1_555
H6 C14 1_555 1_555
C15 C6 1_555 1_555
H7 C15 1_555 1_555
C16 C15 1_555 1_555
H8 C16 1_555 1_555
C17 H9 1_555 1_555
H10 C17 1_555 1_555
H11 C17 1_555 1_555
C18 C8 1_555 1_555
H12 C18 1_555 1_555
H13 C18 1_555 1_555
H14 C18 1_555 1_555
C19 N2 1_555 1_555
H15 C19 1_555 1_555
C20 N1 1_555 1_555
H16 C20 1_555 1_555
C21 C16 1_555 1_555
H17 C21 1_555 1_555
C22 C12 1_555 1_555
H18 C22 1_555 1_555
C23 C20 1_555 1_555
H19 C23 1_555 1_555
H20 C23 1_555 1_555
H21 C23 1_555 1_555
C24 C20 1_555 1_555
H22 C24 1_555 1_555
H23 C24 1_555 1_555
H24 C24 1_555 1_555
C25 C9 1_555 1_555
H25 C25 1_555 1_555
C26 C25 1_555 1_555
H26 C26 1_555 1_555
C27 C13 1_555 1_555
H27 C27 1_555 1_555
C28 C19 1_555 1_555
H28 C28 1_555 1_555
H29 C28 1_555 1_555
H30 C28 1_555 1_555
N1 C10 1_555 1_555
C5 C7 1_555 1_555
C8 C14 1_555 1_555
C17 C19 1_555 1_555
C21 C22 1_555 1_555
C26 C27 1_555 1_555

#END
