
#######################################################################
#
#                 Cambridge Crystallographic Data Centre
#                                CCDC 
#
#######################################################################
#
# If this CIF has been generated from an entry in the Cambridge 
# Structural Database, then it will include bibliographic, chemical, 
# crystal, experimental, refinement or atomic coordinate data resulting 
# from the CCDC's data processing and validation procedures.
#
#######################################################################

data_CAQBAA
_chemical_formula_moiety         'C30 H25 N1 S1'
_chemical_name_systematic        
3,4-diphenyl-2-[(2,4,6-trimethylphenyl)sulfanyl]quinoline
_symmetry_cell_setting           monoclinic
_symmetry_space_group_name_H-M   'P 21/n'
_symmetry_Int_Tables_number      14
_space_group_name_Hall           '-P 2yn'
loop_
_symmetry_equiv_pos_site_id
_symmetry_equiv_pos_as_xyz
1 x,y,z
2 1/2-x,1/2+y,1/2-z
3 -x,-y,-z
4 1/2+x,1/2-y,1/2+z
_cell_length_a                   10.3505(9)
_cell_length_b                   8.6159(8)
_cell_length_c                   27.293(3)
_cell_angle_alpha                90
_cell_angle_beta                 99.307(9)
_cell_angle_gamma                90
_cell_volume                     2401.92
_exptl_crystal_colour            'light red'
_exptl_crystal_description       block
_cell_formula_units_Z            4
loop_
_atom_site_label
_atom_site_type_symbol
_atom_site_fract_x
_atom_site_fract_y
_atom_site_fract_z
S1 S 0.16894(7) 0.77325(9) 0.42776(3)
N1 N -0.0073(2) 0.9495(3) 0.37039(8)
C1 C -0.0425(3) 1.0650(3) 0.33608(10)
C2 C -0.1782(3) 1.0896(4) 0.31942(11)
H1 H -0.2411 1.0304 0.3332
C3 C -0.2184(3) 1.1972(4) 0.28399(12)
H2 H -0.3093 1.2109 0.2725
C4 C -0.1277(3) 1.2879(4) 0.26425(11)
H3 H -0.1577 1.3625 0.2394
C5 C 0.0035(3) 1.2711(3) 0.28018(11)
H4 H 0.0641 1.3348 0.2668
C6 C 0.0493(2) 1.1578(3) 0.31694(10)
C7 C 0.1850(2) 1.1301(3) 0.33432(9)
C8 C 0.2204(2) 1.0129(3) 0.36805(10)
C9 C 0.1179(3) 0.9248(3) 0.38462(10)
C10 C 0.2866(3) 1.2292(3) 0.31651(10)
C11 C 0.3216(3) 1.2056(4) 0.27008(11)
H5 H 0.2809 1.1256 0.2491
C12 C 0.4161(3) 1.2989(4) 0.25431(14)
H6 H 0.4388 1.2833 0.2223
C13 C 0.4771(3) 1.4136(4) 0.28449(15)
H7 H 0.5434 1.4751 0.2737
C14 C 0.4424(4) 1.4391(4) 0.33000(16)
H8 H 0.4834 1.5196 0.3507
C15 C 0.3471(3) 1.3474(4) 0.34610(12)
H9 H 0.3232 1.3659 0.3778
C16 C 0.3613(2) 0.9755(3) 0.38572(10)
C17 C 0.4278(3) 0.8752(3) 0.35928(11)
H10 H 0.3825 0.8243 0.3307
C18 C 0.5610(3) 0.8480(4) 0.37419(12)
H11 H 0.6057 0.7788 0.3556
C19 C 0.6284(3) 0.9200(3) 0.41541(12)
H12 H 0.7195 0.9022 0.4253
C20 C 0.5623(3) 1.0179(4) 0.44206(12)
H13 H 0.6081 1.0674 0.4708
C21 C 0.4296(3) 1.0462(4) 0.42793(11)
H14 H 0.3853 1.1140 0.4471
C22 C 0.0185(3) 0.7080(3) 0.44468(11)
C23 C -0.0682(3) 0.6157(3) 0.41236(11)
C24 C -0.1818(3) 0.5629(3) 0.42838(12)
H15 H -0.2419 0.5014 0.4065
C25 C -0.2097(3) 0.5973(3) 0.47514(13)
C26 C -0.1198(3) 0.6845(4) 0.50644(11)
H16 H -0.1371 0.7072 0.5388
C27 C -0.0059(3) 0.7399(3) 0.49271(10)
C28 C -0.0439(4) 0.5726(4) 0.36111(13)
H17 H -0.0617 0.6625 0.3390
H18 H -0.1018 0.4868 0.3483
H19 H 0.0475 0.5406 0.3627
C29 C 0.0891(3) 0.8324(4) 0.52961(12)
H20 H 0.1701 0.7731 0.5389
H21 H 0.0498 0.8531 0.5593
H22 H 0.1088 0.9310 0.5145
C30 C -0.3361(3) 0.5422(4) 0.49065(15)
H23 H -0.4050 0.6193 0.4808
H24 H -0.3230 0.5285 0.5268
H25 H -0.3621 0.4430 0.4744
loop_
_geom_bond_atom_site_label_1
_geom_bond_atom_site_label_2
_geom_bond_site_symmetry_1
_geom_bond_site_symmetry_2
S1 C9 1_555 1_555
N1 C1 1_555 1_555
C1 C2 1_555 1_555
C2 H1 1_555 1_555
C3 C2 1_555 1_555
H2 C3 1_555 1_555
C4 C3 1_555 1_555
H3 C4 1_555 1_555
C5 C4 1_555 1_555
H4 C5 1_555 1_555
C6 C1 1_555 1_555
C7 C6 1_555 1_555
C8 C7 1_555 1_555
C9 N1 1_555 1_555
C10 C7 1_555 1_555
C11 C10 1_555 1_555
H5 C11 1_555 1_555
C12 C11 1_555 1_555
H6 C12 1_555 1_555
C13 C12 1_555 1_555
H7 C13 1_555 1_555
C14 C13 1_555 1_555
H8 C14 1_555 1_555
C15 C10 1_555 1_555
H9 C15 1_555 1_555
C16 C8 1_555 1_555
C17 C16 1_555 1_555
H10 C17 1_555 1_555
C18 C17 1_555 1_555
H11 C18 1_555 1_555
C19 C18 1_555 1_555
H12 C19 1_555 1_555
C20 C19 1_555 1_555
H13 C20 1_555 1_555
C21 C16 1_555 1_555
H14 C21 1_555 1_555
C22 S1 1_555 1_555
C23 C22 1_555 1_555
C24 C23 1_555 1_555
H15 C24 1_555 1_555
C25 C24 1_555 1_555
C26 C25 1_555 1_555
H16 C26 1_555 1_555
C27 C22 1_555 1_555
C28 C23 1_555 1_555
H17 C28 1_555 1_555
H18 C28 1_555 1_555
H19 C28 1_555 1_555
C29 C27 1_555 1_555
H20 C29 1_555 1_555
H21 C29 1_555 1_555
H22 C29 1_555 1_555
C30 C25 1_555 1_555
H23 C30 1_555 1_555
H24 C30 1_555 1_555
H25 C30 1_555 1_555
C5 C6 1_555 1_555
C8 C9 1_555 1_555
C14 C15 1_555 1_555
C20 C21 1_555 1_555
C26 C27 1_555 1_555

#END
