
#######################################################################
#
#                 Cambridge Crystallographic Data Centre
#                                CCDC 
#
#######################################################################
#
# If this CIF has been generated from an entry in the Cambridge 
# Structural Database, then it will include bibliographic, chemical, 
# crystal, experimental, refinement or atomic coordinate data resulting 
# from the CCDC's data processing and validation procedures.
#
#######################################################################

data_CAQBOO
_chemical_formula_moiety         'C33 H30 N2 O4'
_chemical_name_systematic        
'ethyl [2-(benzyloxy)-9-methyl-4-(naphthalen-2-yl)-3-oxo-2,3,4,9-tetrahydro-1H-\b-carbolin-1-yl]acetate'
_symmetry_cell_setting           triclinic
_symmetry_space_group_name_H-M   'P -1'
_symmetry_Int_Tables_number      2
_space_group_name_Hall           '-P 1'
loop_
_symmetry_equiv_pos_site_id
_symmetry_equiv_pos_as_xyz
1 x,y,z
2 -x,-y,-z
_cell_length_a                   14.008(3)
_cell_length_b                   14.182(4)
_cell_length_c                   15.949(4)
_cell_angle_alpha                115.266(5)
_cell_angle_beta                 90.430(5)
_cell_angle_gamma                105.169(5)
_cell_volume                     2739.6
_exptl_crystal_colour            colorless
_exptl_crystal_description       block
_cell_formula_units_Z            4
loop_
_atom_site_label
_atom_site_type_symbol
_atom_site_fract_x
_atom_site_fract_y
_atom_site_fract_z
O1 O 0.84827(15) 0.94580(16) 0.64231(15)
N1 N 0.66438(17) 0.56049(19) 0.50235(17)
O2 O 0.67563(19) 0.89174(19) 0.48870(18)
O3 O 0.96183(19) 0.90728(18) 0.74697(19)
N2 N 0.83279(19) 0.84059(19) 0.63379(18)
O4 O 0.6154(2) 0.96396(19) 0.62387(18)
C1 C 0.7482(2) 0.5221(2) 0.5997(2)
C2 C 0.7338(2) 0.6545(2) 0.5638(2)
C3 C 0.9625(2) 0.6859(2) 0.6963(2)
C4 C 0.7463(2) 0.7629(2) 0.5646(2)
H1 H 0.7604 0.7571 0.5015
C5 C 0.6518(2) 0.8901(2) 0.5605(3)
C6 C 0.6722(2) 0.4772(2) 0.5230(2)
C7 C 1.1263(2) 0.6038(2) 0.6865(2)
C8 C 1.0049(2) 0.6871(2) 0.7738(2)
H2 H 0.9784 0.7158 0.8309
C9 C 0.8687(2) 0.7214(2) 0.6980(2)
H3 H 0.8448 0.7325 0.7596
C10 C 1.0880(2) 0.6466(2) 0.7714(2)
C11 C 0.7866(2) 0.6357(2) 0.6239(2)
C12 C 0.5990(2) 0.5456(3) 0.4236(2)
H4 H 0.5358 0.5583 0.4442
H5 H 0.5859 0.4710 0.3740
H6 H 0.6311 0.5974 0.3996
C13 C 1.0032(2) 0.6456(3) 0.6123(2)
H7 H 0.9745 0.6459 0.5583
C14 C 0.8925(2) 0.8305(2) 0.6949(2)
C15 C 0.6539(2) 0.8027(2) 0.5883(2)
H8 H 0.5933 0.7402 0.5562
H9 H 0.6520 0.8307 0.6566
C16 C 0.6210(2) 0.3663(2) 0.4780(2)
H10 H 0.5725 0.3370 0.4245
C17 C 0.9436(3) 1.0814(3) 0.6005(3)
C18 C 1.0829(2) 0.6061(3) 0.6069(2)
H11 H 1.1097 0.5801 0.5496
C19 C 0.7691(2) 0.4530(3) 0.6342(2)
H12 H 0.8189 0.4809 0.6865
C20 C 0.6431(3) 0.3015(3) 0.5138(3)
H13 H 0.6079 0.2259 0.4856
C21 C 1.1327(3) 0.6468(4) 0.8507(3)
H14 H 1.1078 0.6763 0.9087
C22 C 0.8906(3) 1.1102(3) 0.5467(3)
H15 H 0.8374 1.0564 0.5000
C23 C 1.2064(3) 0.5593(3) 0.6821(3)
H16 H 1.2319 0.5292 0.6246
C24 C 0.9215(3) 0.9649(3) 0.5833(3)
H17 H 0.8950 0.9156 0.5167
H18 H 0.9832 0.9505 0.5985
C25 C 1.0194(3) 1.1610(3) 0.6684(3)
H19 H 1.0553 1.1424 0.7069
C26 C 0.7163(3) 0.3436(3) 0.5912(2)
H20 H 0.7299 0.2963 0.6144
C27 C 0.9147(4) 1.2170(4) 0.5607(4)
H21 H 0.8777 1.2366 0.5239
C28 C 1.2473(3) 0.5592(4) 0.7600(3)
H22 H 1.3003 0.5280 0.7562
C29 C 1.2113(3) 0.6052(4) 0.8458(3)
H23 H 1.2415 0.6074 0.9004
C30 C 0.9903(4) 1.2934(4) 0.6260(4)
H24 H 1.0073 1.3665 0.6343
C31 C 0.6093(4) 1.0546(4) 0.6070(4)
H25 H 0.5885 1.0297 0.5397
H26 H 0.6752 1.1107 0.6260
C32 C 1.0436(4) 1.2664(3) 0.6813(4)
H27 H 1.0968 1.3208 0.7278
C33 C 0.5336(4) 1.1010(5) 0.6640(4)
H28 H 0.4691 1.0445 0.6452
H29 H 0.5265 1.1622 0.6535
H30 H 0.5556 1.1266 0.7305
O5 O 0.45001(16) 0.10085(17) 0.18568(15)
O6 O 0.46309(18) 0.30607(18) 0.28307(16)
N3 N 0.16652(18) 0.07508(19) -0.01047(18)
O7 O 0.3313(2) -0.1420(2) 0.0426(2)
O8 O 0.2331(2) -0.16527(19) 0.14624(18)
N4 N 0.38879(19) 0.1486(2) 0.15658(18)
C34 C 0.2454(2) 0.1257(2) 0.0612(2)
C35 C 0.1312(2) 0.1548(2) -0.0157(2)
C36 C 0.1899(2) 0.2564(2) 0.0535(2)
C37 C 0.4013(2) 0.2561(2) 0.2131(2)
C38 C 0.4641(2) 0.4975(2) 0.2183(2)
H31 H 0.4371 0.5264 0.2752
C39 C 0.3044(2) 0.0660(2) 0.0867(2)
H32 H 0.3313 0.0222 0.0298
C40 C 0.2769(3) -0.1116(3) 0.0993(2)
C41 C 0.2624(2) 0.2353(2) 0.1018(2)
C42 C 0.3440(2) 0.3135(2) 0.1792(2)
H33 H 0.3134 0.3580 0.2328
C43 C 0.4225(2) 0.3913(2) 0.1546(2)
C44 C 0.5482(2) 0.5656(2) 0.2002(2)
C45 C 0.0533(2) 0.1459(3) -0.0757(2)
H34 H 0.0143 0.0769 -0.1224
C46 C 0.6100(3) 0.0717(3) 0.1811(2)
C47 C 0.4606(2) 0.3515(3) 0.0686(2)
H35 H 0.4307 0.2785 0.0230
C48 C 0.0346(2) 0.2406(3) -0.0650(3)
H36 H -0.0182 0.2366 -0.1053
C49 C 0.1680(2) 0.3509(3) 0.0621(2)
H37 H 0.2062 0.4206 0.1084
C50 C 0.5404(3) 0.4165(3) 0.0493(3)
H38 H 0.5640 0.3883 -0.0095
C51 C 0.5863(3) 0.5223(3) 0.1150(3)
C52 C 0.2443(2) -0.0113(2) 0.1245(2)
H39 H 0.2508 0.0287 0.1935
H40 H 0.1729 -0.0336 0.0996
C53 C 0.1276(3) -0.0413(3) -0.0719(2)
H41 H 0.1825 -0.0742 -0.0832
H42 H 0.0956 -0.0523 -0.1316
H43 H 0.0784 -0.0757 -0.0423
C54 C 0.5432(3) 0.1176(3) 0.1475(3)
H44 H 0.5750 0.1964 0.1682
H45 H 0.5304 0.0808 0.0782
C55 C 0.0908(3) 0.3415(3) 0.0029(3)
H46 H 0.0755 0.4053 0.0086
C56 C 0.5996(3) -0.0378(3) 0.1389(3)
H47 H 0.5476 -0.0853 0.0885
C57 C 0.6744(3) 0.5907(3) 0.1002(3)
H48 H 0.6999 0.5649 0.0421
C58 C 0.5974(3) 0.6719(3) 0.2685(3)
H49 H 0.5712 0.7018 0.3257
C59 C 0.6854(3) 0.1393(3) 0.2548(3)
H50 H 0.6927 0.2152 0.2858
C60 C 0.6632(3) -0.0805(3) 0.1683(3)
H51 H 0.6547 -0.1568 0.1388
C61 C 0.7194(3) 0.6891(3) 0.1673(3)
H52 H 0.7785 0.7321 0.1573
C62 C 0.7388(3) -0.0122(4) 0.2403(3)
H53 H 0.7837 -0.0409 0.2603
C63 C 0.6821(3) 0.7324(3) 0.2534(3)
H54 H 0.7161 0.8034 0.3005
C64 C 0.7499(3) 0.0975(4) 0.2835(3)
H55 H 0.8024 0.1448 0.3335
C65 C 0.2513(5) -0.2686(3) 0.1244(3)
H56 H 0.3225 -0.2570 0.1432
H57 H 0.2346 -0.3166 0.0563
C66 C 0.1878(5) -0.3195(4) 0.1764(5)
H58 H 0.1173 -0.3357 0.1539
H59 H 0.2017 -0.2693 0.2433
H60 H 0.2022 -0.3873 0.1662
loop_
_geom_bond_atom_site_label_1
_geom_bond_atom_site_label_2
_geom_bond_site_symmetry_1
_geom_bond_site_symmetry_2
O1 N2 1_555 1_555
N1 C2 1_555 1_555
O2 C5 1_555 1_555
O3 C14 1_555 1_555
N2 C4 1_555 1_555
O4 C5 1_555 1_555
C1 C6 1_555 1_555
C2 C4 1_555 1_555
C3 C8 1_555 1_555
C4 H1 1_555 1_555
C5 C15 1_555 1_555
C6 N1 1_555 1_555
C7 C10 1_555 1_555
C8 H2 1_555 1_555
C9 C3 1_555 1_555
H3 C9 1_555 1_555
C10 C8 1_555 1_555
C11 C1 1_555 1_555
C12 N1 1_555 1_555
H4 C12 1_555 1_555
H5 C12 1_555 1_555
H6 C12 1_555 1_555
C13 C3 1_555 1_555
H7 C13 1_555 1_555
C14 N2 1_555 1_555
C15 C4 1_555 1_555
H8 C15 1_555 1_555
H9 C15 1_555 1_555
C16 C6 1_555 1_555
H10 C16 1_555 1_555
C17 C22 1_555 1_555
C18 C7 1_555 1_555
H11 C18 1_555 1_555
C19 C1 1_555 1_555
H12 C19 1_555 1_555
C20 C16 1_555 1_555
H13 C20 1_555 1_555
C21 C10 1_555 1_555
H14 C21 1_555 1_555
C22 H15 1_555 1_555
C23 C7 1_555 1_555
H16 C23 1_555 1_555
C24 O1 1_555 1_555
H17 C24 1_555 1_555
H18 C24 1_555 1_555
C25 C17 1_555 1_555
H19 C25 1_555 1_555
C26 C19 1_555 1_555
H20 C26 1_555 1_555
C27 C22 1_555 1_555
H21 C27 1_555 1_555
C28 C23 1_555 1_555
H22 C28 1_555 1_555
C29 C21 1_555 1_555
H23 C29 1_555 1_555
C30 C27 1_555 1_555
H24 C30 1_555 1_555
C31 O4 1_555 1_555
H25 C31 1_555 1_555
H26 C31 1_555 1_555
C32 C25 1_555 1_555
H27 C32 1_555 1_555
C33 C31 1_555 1_555
H28 C33 1_555 1_555
H29 C33 1_555 1_555
H30 C33 1_555 1_555
O5 N4 1_555 1_555
O6 C37 1_555 1_555
N3 C34 1_555 1_555
O7 C40 1_555 1_555
O8 C40 1_555 1_555
N4 C37 1_555 1_555
C34 C39 1_555 1_555
C35 N3 1_555 1_555
C36 C35 1_555 1_555
C37 C42 1_555 1_555
C38 H31 1_555 1_555
C39 N4 1_555 1_555
H32 C39 1_555 1_555
C40 C52 1_555 1_555
C41 C34 1_555 1_555
C42 C41 1_555 1_555
H33 C42 1_555 1_555
C43 C38 1_555 1_555
C44 C38 1_555 1_555
C45 C35 1_555 1_555
H34 C45 1_555 1_555
C46 C54 1_555 1_555
C47 C43 1_555 1_555
H35 C47 1_555 1_555
C48 C45 1_555 1_555
H36 C48 1_555 1_555
C49 C36 1_555 1_555
H37 C49 1_555 1_555
C50 C47 1_555 1_555
H38 C50 1_555 1_555
C51 C44 1_555 1_555
C52 C39 1_555 1_555
H39 C52 1_555 1_555
H40 C52 1_555 1_555
C53 N3 1_555 1_555
H41 C53 1_555 1_555
H42 C53 1_555 1_555
H43 C53 1_555 1_555
C54 O5 1_555 1_555
H44 C54 1_555 1_555
H45 C54 1_555 1_555
C55 C48 1_555 1_555
H46 C55 1_555 1_555
C56 C46 1_555 1_555
H47 C56 1_555 1_555
C57 C51 1_555 1_555
H48 C57 1_555 1_555
C58 C44 1_555 1_555
H49 C58 1_555 1_555
C59 C46 1_555 1_555
H50 C59 1_555 1_555
C60 C56 1_555 1_555
H51 C60 1_555 1_555
C61 C57 1_555 1_555
H52 C61 1_555 1_555
C62 C60 1_555 1_555
H53 C62 1_555 1_555
C63 C58 1_555 1_555
H54 C63 1_555 1_555
C64 C59 1_555 1_555
H55 C64 1_555 1_555
C65 O8 1_555 1_555
H56 C65 1_555 1_555
H57 C65 1_555 1_555
C66 C65 1_555 1_555
H58 C66 1_555 1_555
H59 C66 1_555 1_555
H60 C66 1_555 1_555
C2 C11 1_555 1_555
C9 C11 1_555 1_555
C9 C14 1_555 1_555
C13 C18 1_555 1_555
C17 C24 1_555 1_555
C20 C26 1_555 1_555
C28 C29 1_555 1_555
C30 C32 1_555 1_555
C36 C41 1_555 1_555
C42 C43 1_555 1_555
C49 C55 1_555 1_555
C50 C51 1_555 1_555
C61 C63 1_555 1_555
C62 C64 1_555 1_555

#END
