
#######################################################################
#
#                 Cambridge Crystallographic Data Centre
#                                CCDC 
#
#######################################################################
#
# If this CIF has been generated from an entry in the Cambridge 
# Structural Database, then it will include bibliographic, chemical, 
# crystal, experimental, refinement or atomic coordinate data resulting 
# from the CCDC's data processing and validation procedures.
#
#######################################################################

data_CAQLEO
_chemical_name_common            
"tetraethyl 2,2'-(2-(4-phenylquinazolin-2-yl)-1,3-phenylene)dimalonate"
_chemical_formula_moiety         'C34 H34 N2 O8'
_chemical_name_systematic        
"tetraethyl 2,2'-(2-(4-phenylquinazolin-2-yl)-1,3-phenylene)dipropanedioate"
_symmetry_cell_setting           monoclinic
_symmetry_space_group_name_H-M   'P 21/c'
_symmetry_Int_Tables_number      14
_space_group_name_Hall           '-P 2ybc'
loop_
_symmetry_equiv_pos_site_id
_symmetry_equiv_pos_as_xyz
1 x,y,z
2 -x,1/2+y,1/2-z
3 -x,-y,-z
4 x,1/2-y,1/2+z
_cell_length_a                   8.2171(7)
_cell_length_b                   23.4947(19)
_cell_length_c                   16.1341(13)
_cell_angle_alpha                90
_cell_angle_beta                 90.9790(10)
_cell_angle_gamma                90
_cell_volume                     3114.37
_exptl_crystal_colour            white
_exptl_crystal_description       block
_cell_formula_units_Z            4
loop_
_atom_site_label
_atom_site_type_symbol
_atom_site_fract_x
_atom_site_fract_y
_atom_site_fract_z
N1 N 0.19393(15) 0.57367(5) 0.88291(7)
N2 N 0.29581(15) 0.48052(5) 0.85453(7)
O1 O 0.14417(15) 0.69766(5) 0.76383(8)
O2 O 0.35565(14) 0.70973(5) 0.85122(7)
O3 O 0.50984(17) 0.70585(5) 0.67633(9)
O4 O 0.63602(14) 0.62312(5) 0.70200(7)
O5 O -0.12140(15) 0.39431(5) 0.63612(8)
O6 O -0.21487(13) 0.46233(6) 0.71939(7)
O7 O 0.27582(16) 0.39906(5) 0.64726(9)
O8 O 0.17326(16) 0.35713(5) 0.75871(8)
C1 C 0.0775(4) 0.71204(12) 1.10539(16)
H1 H 0.0504 0.7445 1.1352
C2 C -0.0046(3) 0.69884(11) 1.03406(15)
H2 H -0.0892 0.7222 1.0157
C3 C 0.0361(2) 0.65117(9) 0.98847(12)
H3 H -0.0190 0.6435 0.9389
C4 C 0.1580(2) 0.61474(8) 1.01596(9)
C5 C 0.2411(3) 0.62814(10) 1.08943(11)
H4 H 0.3236 0.6044 1.1094
C6 C 0.2003(4) 0.67717(13) 1.13284(13)
H5 H 0.2574 0.6863 1.1813
C7 C 0.20116(18) 0.56483(7) 0.96406(8)
C8 C 0.24672(18) 0.51050(7) 0.99629(8)
C9 C 0.2408(2) 0.49417(10) 1.08104(10)
H6 H 0.2004 0.5195 1.1200
C10 C 0.2935(3) 0.44199(11) 1.10562(12)
H7 H 0.2908 0.4322 1.1614
C11 C 0.3514(3) 0.40304(10) 1.04841(13)
H8 H 0.3900 0.3679 1.0666
C12 C 0.3523(2) 0.41576(8) 0.96527(11)
H9 H 0.3876 0.3889 0.9272
C13 C 0.29919(18) 0.46982(7) 0.93831(9)
C14 C 0.23787(16) 0.53027(6) 0.83205(8)
C15 C 0.21418(15) 0.54187(5) 0.74148(7)
C16 C 0.27361(16) 0.59246(6) 0.70682(8)
C17 C 0.24107(18) 0.60452(6) 0.62379(8)
H10 H 0.2784 0.6384 0.6011
C18 C 0.15434(19) 0.56698(6) 0.57482(8)
H11 H 0.1328 0.5756 0.5194
C19 C 0.09943(18) 0.51661(6) 0.60793(8)
H12 H 0.0428 0.4911 0.5742
C20 C 0.12726(16) 0.50323(6) 0.69110(8)
C21 C 0.37499(17) 0.63423(6) 0.75767(8)
H13 H 0.4231 0.6138 0.8050
C22 C 0.27432(19) 0.68338(6) 0.79044(9)
C23 C 0.2823(3) 0.76188(8) 0.88201(13)
H14 H 0.1747 0.7540 0.9030
H15 H 0.2719 0.7895 0.8376
C24 C 0.3883(4) 0.78457(11) 0.94905(16)
H16 H 0.3420 0.8190 0.9702
H17 H 0.3974 0.7570 0.9928
H18 H 0.4943 0.7924 0.9277
C25 C 0.51258(19) 0.65947(6) 0.70707(9)
C26 C 0.7804(2) 0.64169(11) 0.65683(13)
H19 H 0.8727 0.6184 0.6737
H20 H 0.8051 0.6808 0.6715
C27 C 0.7571(3) 0.63750(12) 0.56573(14)
H21 H 0.8541 0.6500 0.5388
H22 H 0.7348 0.5987 0.5508
H23 H 0.6672 0.6611 0.5486
C28 C 0.06645(16) 0.44646(6) 0.72348(8)
H24 H 0.0571 0.4492 0.7838
C29 C -0.09924(18) 0.43060(6) 0.68717(8)
C30 C -0.3819(2) 0.45146(10) 0.69028(12)
H25 H -0.4573 0.4626 0.7330
H26 H -0.3958 0.4110 0.6802
C31 C -0.4202(2) 0.48328(9) 0.61330(14)
H27 H -0.5301 0.4753 0.5958
H28 H -0.4084 0.5233 0.6234
H29 H -0.3470 0.4719 0.5707
C32 C 0.18527(19) 0.39895(6) 0.70415(10)
C33 C 0.2765(3) 0.30765(8) 0.74530(15)
H30 H 0.2890 0.2867 0.7968
H31 H 0.3835 0.3202 0.7286
C34 C 0.2061(3) 0.26952(9) 0.68040(16)
H32 H 0.2765 0.2374 0.6730
H33 H 0.1009 0.2565 0.6972
H34 H 0.1953 0.2900 0.6291
loop_
_geom_bond_atom_site_label_1
_geom_bond_atom_site_label_2
_geom_bond_site_symmetry_1
_geom_bond_site_symmetry_2
N1 C7 1_555 1_555
N2 C13 1_555 1_555
O1 C22 1_555 1_555
O2 C22 1_555 1_555
O3 C25 1_555 1_555
O4 C25 1_555 1_555
O5 C29 1_555 1_555
O6 C29 1_555 1_555
O7 C32 1_555 1_555
O8 C32 1_555 1_555
C1 H1 1_555 1_555
C2 C1 1_555 1_555
H2 C2 1_555 1_555
C3 C2 1_555 1_555
H3 C3 1_555 1_555
C4 C3 1_555 1_555
C5 C4 1_555 1_555
H4 C5 1_555 1_555
C6 C1 1_555 1_555
H5 C6 1_555 1_555
C7 C4 1_555 1_555
C8 C7 1_555 1_555
C9 C8 1_555 1_555
H6 C9 1_555 1_555
C10 C9 1_555 1_555
H7 C10 1_555 1_555
C11 C10 1_555 1_555
H8 C11 1_555 1_555
C12 C11 1_555 1_555
H9 C12 1_555 1_555
C13 C8 1_555 1_555
C14 N1 1_555 1_555
C15 C14 1_555 1_555
C16 C15 1_555 1_555
C17 C16 1_555 1_555
H10 C17 1_555 1_555
C18 C17 1_555 1_555
H11 C18 1_555 1_555
C19 C18 1_555 1_555
H12 C19 1_555 1_555
C20 C15 1_555 1_555
C21 C16 1_555 1_555
H13 C21 1_555 1_555
C22 C21 1_555 1_555
C23 O2 1_555 1_555
H14 C23 1_555 1_555
H15 C23 1_555 1_555
C24 C23 1_555 1_555
H16 C24 1_555 1_555
H17 C24 1_555 1_555
H18 C24 1_555 1_555
C25 C21 1_555 1_555
C26 O4 1_555 1_555
H19 C26 1_555 1_555
H20 C26 1_555 1_555
C27 C26 1_555 1_555
H21 C27 1_555 1_555
H22 C27 1_555 1_555
H23 C27 1_555 1_555
C28 C20 1_555 1_555
H24 C28 1_555 1_555
C29 C28 1_555 1_555
C30 O6 1_555 1_555
H25 C30 1_555 1_555
H26 C30 1_555 1_555
C31 C30 1_555 1_555
H27 C31 1_555 1_555
H28 C31 1_555 1_555
H29 C31 1_555 1_555
C32 C28 1_555 1_555
C33 O8 1_555 1_555
H30 C33 1_555 1_555
H31 C33 1_555 1_555
C34 C33 1_555 1_555
H32 C34 1_555 1_555
H33 C34 1_555 1_555
H34 C34 1_555 1_555
N2 C14 1_555 1_555
C5 C6 1_555 1_555
C12 C13 1_555 1_555
C19 C20 1_555 1_555

#END
