
#######################################################################
#
#                 Cambridge Crystallographic Data Centre
#                                CCDC 
#
#######################################################################
#
# If this CIF has been generated from an entry in the Cambridge 
# Structural Database, then it will include bibliographic, chemical, 
# crystal, experimental, refinement or atomic coordinate data resulting 
# from the CCDC's data processing and validation procedures.
#
#######################################################################

data_CAQLAJ
_chemical_formula_moiety         'C10 H16 N4 S2 2+,2(C1 F3 O3 S1 1-)'
_chemical_name_systematic        
"2,2'-Disulfanediylbis(1,3-dimethyl-1H-imidazol-3-ium) bis(trifluoromethanesulfonate)"
_symmetry_cell_setting           monoclinic
_symmetry_space_group_name_H-M   'P 21/c'
_symmetry_Int_Tables_number      14
_space_group_name_Hall           '-P 2ybc'
loop_
_symmetry_equiv_pos_site_id
_symmetry_equiv_pos_as_xyz
1 x,y,z
2 -x,1/2+y,1/2-z
3 -x,-y,-z
4 x,1/2-y,1/2+z
_cell_length_a                   8.5235(17)
_cell_length_b                   19.874(4)
_cell_length_c                   12.926(3)
_cell_angle_alpha                90
_cell_angle_beta                 98.29(3)
_cell_angle_gamma                90
_cell_volume                     2166.73
_exptl_crystal_colour            yellow
_exptl_crystal_description       rod
_cell_formula_units_Z            4
loop_
_atom_site_label
_atom_site_type_symbol
_atom_site_fract_x
_atom_site_fract_y
_atom_site_fract_z
S1 S 0.17167(7) 0.36249(3) 0.56727(5)
S2 S 0.38417(7) 0.41487(3) 0.61430(5)
C1 C 0.1611(3) 0.31445(13) 0.67912(19)
C2 C 0.3826(3) 0.23536(16) 0.6625(2)
H1 H 0.3453 0.2267 0.5900
H2 H 0.4211 0.1943 0.6961
H3 H 0.4668 0.2678 0.6681
C3 C 0.2034(3) 0.23633(15) 0.8017(2)
H4 H 0.2472 0.1999 0.8407
C4 C 0.0795(3) 0.27441(15) 0.8219(2)
H5 H 0.0218 0.2688 0.8772
C5 C -0.0754(4) 0.37143(16) 0.7337(2)
H6 H -0.0388 0.4138 0.7107
H7 H -0.1127 0.3773 0.7998
H8 H -0.1604 0.3550 0.6831
C6 C 0.3217(3) 0.47849(14) 0.6919(2)
C7 C 0.2168(4) 0.55675(16) 0.5491(2)
H9 H 0.1433 0.5251 0.5129
H10 H 0.3120 0.5574 0.5174
H11 H 0.1701 0.6008 0.5450
C8 C 0.2318(4) 0.57474(17) 0.7425(3)
H12 H 0.1871 0.6175 0.7406
C9 C 0.2850(4) 0.53938(18) 0.8290(3)
H13 H 0.2846 0.5531 0.8977
C10 C 0.4147(5) 0.42583(19) 0.8650(2)
H14 H 0.5115 0.4121 0.8414
H15 H 0.3441 0.3881 0.8630
H16 H 0.4375 0.4424 0.9354
N1 N 0.2523(2) 0.26168(11) 0.71295(16)
N2 N 0.0550(3) 0.32293(11) 0.74523(17)
N3 N 0.2548(3) 0.53692(12) 0.65811(19)
N4 N 0.3401(3) 0.47912(13) 0.79686(18)
S3 S 0.73048(8) 0.54399(3) 0.70161(5)
C11 C 0.8082(4) 0.55460(17) 0.8395(2)
O1 O 0.6716(2) 0.47617(10) 0.69779(17)
O2 O 0.8673(3) 0.55451(12) 0.65049(16)
O3 O 0.6097(3) 0.59480(11) 0.68294(19)
F1 F 0.8702(3) 0.61565(11) 0.85926(16)
F2 F 0.9201(3) 0.51018(11) 0.87257(16)
F3 F 0.6932(3) 0.54788(15) 0.89867(17)
S4 S 0.20094(8) 0.71255(4) -0.03477(5)
C12 C 0.3644(4) 0.75244(18) 0.0470(2)
O4 O 0.0744(3) 0.75862(14) -0.02545(17)
O5 O 0.2513(3) 0.71074(12) -0.13589(16)
O6 O 0.1887(3) 0.64884(12) 0.0157(2)
F4 F 0.3296(3) 0.76552(16) 0.14158(16)
F5 F 0.4069(3) 0.81003(11) 0.00639(19)
F6 F 0.4938(2) 0.71369(13) 0.05866(19)
loop_
_geom_bond_atom_site_label_1
_geom_bond_atom_site_label_2
_geom_bond_site_symmetry_1
_geom_bond_site_symmetry_2
S1 S2 1_555 1_555
S2 C6 1_555 1_555
S3 C11 1_555 1_555
S4 C12 1_555 1_555
C1 S1 1_555 1_555
C2 H1 1_555 1_555
H2 C2 1_555 1_555
H3 C2 1_555 1_555
C3 H4 1_555 1_555
C4 C3 1_555 1_555
H5 C4 1_555 1_555
C5 H6 1_555 1_555
H7 C5 1_555 1_555
H8 C5 1_555 1_555
C6 N3 1_555 1_555
C7 H9 1_555 1_555
H10 C7 1_555 1_555
H11 C7 1_555 1_555
C8 H12 1_555 1_555
C9 C8 1_555 1_555
H13 C9 1_555 1_555
C10 H14 1_555 1_555
H15 C10 1_555 1_555
H16 C10 1_555 1_555
C11 F1 1_555 1_555
C12 F4 1_555 1_555
N1 C1 1_555 1_555
N2 C1 1_555 1_555
N3 C7 1_555 1_555
N4 C6 1_555 1_555
O1 S3 1_555 1_555
O2 S3 1_555 1_555
O3 S3 1_555 1_555
O4 S4 1_555 1_555
O5 S4 1_555 1_555
O6 S4 1_555 1_555
F2 C11 1_555 1_555
F3 C11 1_555 1_555
F5 C12 1_555 1_555
F6 C12 1_555 1_555
C2 N1 1_555 1_555
C3 N1 1_555 1_555
C4 N2 1_555 1_555
C5 N2 1_555 1_555
C8 N3 1_555 1_555
C9 N4 1_555 1_555
C10 N4 1_555 1_555

#END
