
#######################################################################
#
#                 Cambridge Crystallographic Data Centre
#                                CCDC 
#
#######################################################################
#
# If this CIF has been generated from an entry in the Cambridge 
# Structural Database, then it will include bibliographic, chemical, 
# crystal, experimental, refinement or atomic coordinate data resulting 
# from the CCDC's data processing and validation procedures.
#
#######################################################################

data_CAQSOC
_chemical_formula_moiety         'C18 H29 N1 O2 S2'
_chemical_name_systematic        'Dodecyl 2-nitrophenyl disulfide'
_symmetry_cell_setting           monoclinic
_symmetry_space_group_name_H-M   'P 21/c'
_symmetry_Int_Tables_number      14
_space_group_name_Hall           '-P 2ybc'
loop_
_symmetry_equiv_pos_site_id
_symmetry_equiv_pos_as_xyz
1 x,y,z
2 x,1/2-y,1/2+z
3 -x,-y,-z
4 -x,1/2+y,1/2-z
_cell_length_a                   34.497(7)
_cell_length_b                   7.796(2)
_cell_length_c                   7.503(2)
_cell_angle_alpha                90
_cell_angle_beta                 95.12(3)
_cell_angle_gamma                90
_cell_volume                     2009.8
_exptl_crystal_colour            yellow
_exptl_crystal_description       plate
_chemical_melting_point          314-316K
_cell_formula_units_Z            4
_exptl_crystal_recrystallization_method ethanol
loop_
_atom_site_label
_atom_site_type_symbol
_atom_site_fract_x
_atom_site_fract_y
_atom_site_fract_z
S1 S 0.35213(3) 0.25025(12) 0.36073(13)
S2 S 0.33501(3) 0.49561(14) 0.29997(15)
C1 C 0.40041(11) 0.2693(5) 0.4629(5)
C2 C 0.42386(11) 0.1282(4) 0.5119(5)
N1 N 0.41001(11) -0.0454(4) 0.4774(5)
O1 O 0.37634(9) -0.0662(3) 0.4133(4)
O2 O 0.43224(10) -0.1645(4) 0.5108(6)
C3 C 0.46132(12) 0.1437(5) 0.5930(5)
C4 C 0.47690(11) 0.3013(5) 0.6288(5)
C5 C 0.45451(12) 0.4459(5) 0.5844(5)
C6 C 0.41702(11) 0.4310(5) 0.5021(5)
C7 C 0.31782(12) 0.5715(5) 0.5102(5)
C8 C 0.28194(12) 0.4854(5) 0.5614(6)
C9 C 0.26980(12) 0.5515(6) 0.7359(6)
C10 C 0.23242(13) 0.4705(6) 0.7960(6)
C11 C 0.22145(14) 0.5338(6) 0.9766(6)
C12 C 0.18329(14) 0.4626(7) 1.0310(7)
C13 C 0.17285(14) 0.5258(7) 1.2155(7)
C14 C 0.13423(16) 0.4617(8) 1.2636(7)
C15 C 0.12373(16) 0.5269(8) 1.4497(7)
C16 C 0.08466(17) 0.4673(10) 1.4975(8)
C17 C 0.0747(2) 0.5385(12) 1.6870(9)
C18 C 0.0356(2) 0.4906(17) 1.7686(14)
H1 H 0.4762 0.0438 0.6237
H2 H 0.5027 0.3125 0.6833
H3 H 0.4650 0.5566 0.6108
H4 H 0.4024 0.5317 0.4719
H5 H 0.3388 0.5543 0.6075
H6 H 0.3128 0.6963 0.5001
H7 H 0.2866 0.3603 0.5712
H8 H 0.2606 0.5044 0.4663
H9 H 0.2659 0.6771 0.7257
H10 H 0.2913 0.5311 0.8301
H11 H 0.2107 0.4952 0.7045
H12 H 0.2358 0.3445 0.8018
H13 H 0.2425 0.5025 1.0693
H14 H 0.2197 0.6605 0.9733
H15 H 0.1848 0.3358 1.0329
H16 H 0.1621 0.4955 0.9396
H17 H 0.1933 0.4877 1.3080
H18 H 0.1726 0.6528 1.2158
H19 H 0.1345 0.3347 1.2641
H20 H 0.1138 0.4993 1.1708
H21 H 0.1439 0.4868 1.5426
H22 H 0.1242 0.6538 1.4501
H23 H 0.0842 0.3403 1.4997
H24 H 0.0644 0.5061 1.4044
H25 H 0.0962 0.5029 1.7753
H26 H 0.0756 0.6652 1.6802
H27 H 0.0207 0.5952 1.7862
H28 H 0.0415 0.4330 1.8839
H29 H 0.0203 0.4136 1.6865
H30? H 0.0343 0.3660 1.7849
H31? H 0.0134 0.5282 1.6871
H32? H 0.0347 0.5476 1.8846
loop_
_geom_bond_atom_site_label_1
_geom_bond_atom_site_label_2
_geom_bond_site_symmetry_1
_geom_bond_site_symmetry_2
S1 S2 1_555 1_555
S2 C7 1_555 1_555
C1 S1 1_555 1_555
C2 C1 1_555 1_555
N1 C2 1_555 1_555
O1 N1 1_555 1_555
O2 N1 1_555 1_555
C3 C2 1_555 1_555
C4 C3 1_555 1_555
C5 C4 1_555 1_555
C6 C1 1_555 1_555
C7 C8 1_555 1_555
C8 C9 1_555 1_555
C9 C10 1_555 1_555
C10 C11 1_555 1_555
C11 C12 1_555 1_555
C12 C13 1_555 1_555
C13 C14 1_555 1_555
C14 C15 1_555 1_555
C15 C16 1_555 1_555
C16 C17 1_555 1_555
C17 C18 1_555 1_555
C18 H27 1_555 1_555
H1 C3 1_555 1_555
H2 C4 1_555 1_555
H3 C5 1_555 1_555
H4 C6 1_555 1_555
H5 C7 1_555 1_555
H6 C7 1_555 1_555
H7 C8 1_555 1_555
H8 C8 1_555 1_555
H9 C9 1_555 1_555
H10 C9 1_555 1_555
H11 C10 1_555 1_555
H12 C10 1_555 1_555
H13 C11 1_555 1_555
H14 C11 1_555 1_555
H15 C12 1_555 1_555
H16 C12 1_555 1_555
H17 C13 1_555 1_555
H18 C13 1_555 1_555
H19 C14 1_555 1_555
H20 C14 1_555 1_555
H21 C15 1_555 1_555
H22 C15 1_555 1_555
H23 C16 1_555 1_555
H24 C16 1_555 1_555
H25 C17 1_555 1_555
H26 C17 1_555 1_555
H28 C18 1_555 1_555
H29 C18 1_555 1_555
C5 C6 1_555 1_555

#END
