
#######################################################################
#
#                 Cambridge Crystallographic Data Centre
#                                CCDC 
#
#######################################################################
#
# If this CIF has been generated from an entry in the Cambridge 
# Structural Database, then it will include bibliographic, chemical, 
# crystal, experimental, refinement or atomic coordinate data resulting 
# from the CCDC's data processing and validation procedures.
#
#######################################################################

data_CAQSUJ
_chemical_formula_moiety         'C20 H15 N1 O3,C1 H2 Cl2'
_chemical_name_systematic        
'1-Methyl-4-(4-methoxyphenyl)-1H-indeno(1,2-b)pyridine-2,5-dione dichloromethane solvate'
_chemical_properties_biological  
'potential inhibitor of tumour cell proliferation'
_symmetry_cell_setting           orthorhombic
_symmetry_space_group_name_H-M   'P 21 21 21'
_symmetry_Int_Tables_number      19
_space_group_name_Hall           'P 2ac 2ab'
loop_
_symmetry_equiv_pos_site_id
_symmetry_equiv_pos_as_xyz
1 x,y,z
2 1/2-x,-y,1/2+z
3 -x,1/2+y,1/2-z
4 1/2+x,1/2-y,-z
_cell_length_a                   7.412(2)
_cell_length_b                   21.360(5)
_cell_length_c                   23.310(7)
_cell_angle_alpha                90
_cell_angle_beta                 90
_cell_angle_gamma                90
_cell_volume                     3690.45
_exptl_crystal_colour            orange
_exptl_crystal_description       Irregular
_chemical_melting_point          118-120deg.C
_cell_formula_units_Z            8
loop_
_atom_site_label
_atom_site_type_symbol
_atom_site_fract_x
_atom_site_fract_y
_atom_site_fract_z
C1 C 0.982(3) 0.5671(9) -0.0020(5)
H1 H 1.0720 0.5425 -0.0220
H2 H 0.9066 0.5877 -0.0303
Cl1 Cl 1.0871(8) 0.6229(3) 0.0409(3)
Cl2 Cl 0.8487(8) 0.5179(2) 0.0415(2)
C2 C 0.473(2) 0.4314(6) -0.0012(7)
H3 H 0.3927 0.4103 -0.0277
H4 H 0.5594 0.4553 -0.0236
Cl3 Cl 0.3485(7) 0.4824(3) 0.0413(2)
Cl4 Cl 0.5872(8) 0.3761(2) 0.0391(3)
O1 O 0.5732(11) 1.2067(4) 0.3049(3)
O2 O 0.7080(16) 1.0029(6) 0.1085(5)
O3 O 0.6430(14) 1.2009(5) -0.0659(4)
N1 N 0.5398(18) 1.1018(7) 0.2822(6)
C3 C 0.743(2) 1.2534(7) -0.0854(6)
H5 H 0.7287 1.2575 -0.1262
H6 H 0.8681 1.2476 -0.0764
H7 H 0.6992 1.2905 -0.0669
C4 C 0.649(2) 1.1831(7) -0.0097(6)
C5 C 0.757(2) 1.2194(8) 0.0324(6)
H8 H 0.8271 1.2535 0.0215
C6 C 0.746(2) 1.1987(8) 0.0910(6)
H9 H 0.8126 1.2187 0.1193
C7 C 0.637(2) 1.1498(7) 0.1048(6)
C8 C 0.530(2) 1.1171(8) 0.0668(6)
H10 H 0.4502 1.0859 0.0783
C9 C 0.551(2) 1.1347(8) 0.0103(7)
H11 H 0.4920 1.1104 -0.0169
C10 C 0.625(2) 1.1322(8) 0.1685(6)
C11 C 0.605(2) 1.1772(9) 0.2096(7)
H12 H 0.6267 1.2185 0.1992
C12 C 0.5548(17) 1.1656(6) 0.2656(5)
C13 C 0.531(2) 1.0901(8) 0.3425(6)
H13 H 0.5039 1.1284 0.3622
H14 H 0.6453 1.0743 0.3555
H15 H 0.4386 1.0598 0.3502
C14 C 0.580(2) 1.0569(7) 0.2432(6)
C15 C 0.612(3) 1.0707(8) 0.1875(7)
C16 C 0.6562(19) 1.0098(6) 0.1577(6)
C17 C 0.618(2) 0.9616(6) 0.2051(6)
C18 C 0.618(2) 0.8972(8) 0.1900(7)
H16 H 0.6474 0.8821 0.1537
C19 C 0.570(2) 0.8606(9) 0.2345(7)
H17 H 0.5572 0.8178 0.2285
C20 C 0.541(2) 0.8834(9) 0.2866(8)
H18 H 0.5339 0.8555 0.3171
C21 C 0.519(2) 0.9508(8) 0.2984(8)
H19 H 0.4722 0.9659 0.3328
C22 C 0.571(2) 0.9884(7) 0.2556(6)
O4 O 0.0156(11) 0.7921(4) 0.3010(3)
O5 O 0.2232(13) 0.9977(5) 0.1114(4)
O6 O 0.1508(15) 0.8034(5) -0.0657(5)
N2 N 0.0596(16) 0.8958(6) 0.2821(5)
C23 C 0.253(2) 0.7528(8) -0.0889(7)
H20 H 0.2337 0.7504 -0.1295
H21 H 0.2162 0.7143 -0.0713
H22 H 0.3792 0.7597 -0.0815
C24 C 0.155(2) 0.8114(6) -0.0076(6)
C25 C 0.0424(19) 0.8638(7) 0.0062(6)
H23 H -0.0280 0.8841 -0.0210
C26 C 0.0463(17) 0.8816(6) 0.0626(5)
H24 H -0.0185 0.9172 0.0726
C27 C 0.140(2) 0.8506(8) 0.1066(6)
C28 C 0.243(2) 0.7994(7) 0.0857(6)
H25 H 0.3085 0.7755 0.1118
C29 C 0.250(2) 0.7839(7) 0.0301(6)
H26 H 0.3278 0.7520 0.0186
C30 C 0.116(2) 0.8658(7) 0.1658(6)
C31 C 0.0901(19) 0.8206(6) 0.2061(5)
H27 H 0.0777 0.7796 0.1933
C32 C 0.081(3) 0.8314(9) 0.2674(8)
C33 C 0.002(2) 0.9089(8) 0.3423(6)
H28 H -0.0037 0.8704 0.3634
H29 H -0.1142 0.9285 0.3421
H30 H 0.0884 0.9364 0.3601
C34 C 0.072(3) 0.9418(9) 0.2429(7)
C35 C 0.072(2) 1.0129(7) 0.2487(6)
C36 C 0.037(2) 1.0504(9) 0.2978(8)
H31 H 0.0178 1.0316 0.3333
C37 C 0.031(2) 1.1135(8) 0.2926(7)
H32 H -0.0097 1.1383 0.3227
C38 C 0.086(2) 1.1400(8) 0.2423(6)
H33 H 0.0968 1.1833 0.2391
C39 C 0.127(2) 1.1013(8) 0.1955(7)
H34 H 0.1618 1.1206 0.1615
C40 C 0.1205(19) 1.0402(6) 0.1958(5)
C41 C 0.157(2) 0.9883(8) 0.1587(8)
C42 C 0.116(2) 0.9301(6) 0.1868(6)
loop_
_geom_bond_atom_site_label_1
_geom_bond_atom_site_label_2
_geom_bond_site_symmetry_1
_geom_bond_site_symmetry_2
C1 H1 1_555 1_555
H2 C1 1_555 1_555
Cl1 C1 1_555 1_555
Cl2 C1 1_555 1_555
C2 H3 1_555 1_555
H4 C2 1_555 1_555
Cl3 C2 1_555 1_555
Cl4 C2 1_555 1_555
O1 C12 1_555 1_555
O2 C16 1_555 1_555
O3 C3 1_555 1_555
N1 C12 1_555 1_555
C3 H5 1_555 1_555
H6 C3 1_555 1_555
H7 C3 1_555 1_555
C4 O3 1_555 1_555
C5 C4 1_555 1_555
H8 C5 1_555 1_555
C6 C5 1_555 1_555
H9 C6 1_555 1_555
C7 C6 1_555 1_555
C8 C7 1_555 1_555
H10 C8 1_555 1_555
C9 C4 1_555 1_555
H11 C9 1_555 1_555
C10 C7 1_555 1_555
C11 C10 1_555 1_555
H12 C11 1_555 1_555
C12 C11 1_555 1_555
C13 N1 1_555 1_555
H13 C13 1_555 1_555
H14 C13 1_555 1_555
H15 C13 1_555 1_555
C14 N1 1_555 1_555
C15 C10 1_555 1_555
C16 C15 1_555 1_555
C17 C16 1_555 1_555
C18 C17 1_555 1_555
H16 C18 1_555 1_555
C19 C18 1_555 1_555
H17 C19 1_555 1_555
C20 C19 1_555 1_555
H18 C20 1_555 1_555
C21 C20 1_555 1_555
H19 C21 1_555 1_555
C22 C14 1_555 1_555
O4 C32 1_555 1_555
O5 C41 1_555 1_555
O6 C23 1_555 1_555
N2 C32 1_555 1_555
C23 H20 1_555 1_555
H21 C23 1_555 1_555
H22 C23 1_555 1_555
C24 O6 1_555 1_555
C25 C24 1_555 1_555
H23 C25 1_555 1_555
C26 C25 1_555 1_555
H24 C26 1_555 1_555
C27 C26 1_555 1_555
C28 C27 1_555 1_555
H25 C28 1_555 1_555
C29 C24 1_555 1_555
H26 C29 1_555 1_555
C30 C27 1_555 1_555
C31 C30 1_555 1_555
H27 C31 1_555 1_555
C32 C31 1_555 1_555
C33 N2 1_555 1_555
H28 C33 1_555 1_555
H29 C33 1_555 1_555
H30 C33 1_555 1_555
C34 N2 1_555 1_555
C35 C34 1_555 1_555
C36 C35 1_555 1_555
H31 C36 1_555 1_555
C37 C36 1_555 1_555
H32 C37 1_555 1_555
C38 C37 1_555 1_555
H33 C38 1_555 1_555
C39 C38 1_555 1_555
H34 C39 1_555 1_555
C40 C35 1_555 1_555
C41 C40 1_555 1_555
C42 C30 1_555 1_555
C8 C9 1_555 1_555
C14 C15 1_555 1_555
C17 C22 1_555 1_555
C21 C22 1_555 1_555
C28 C29 1_555 1_555
C34 C42 1_555 1_555
C39 C40 1_555 1_555
C41 C42 1_555 1_555

#END
