
#######################################################################
#
#                 Cambridge Crystallographic Data Centre
#                                CCDC 
#
#######################################################################
#
# If this CIF has been generated from an entry in the Cambridge 
# Structural Database, then it will include bibliographic, chemical, 
# crystal, experimental, refinement or atomic coordinate data resulting 
# from the CCDC's data processing and validation procedures.
#
#######################################################################

data_CAQTUL
_chemical_formula_moiety         'C20 H38 P1 Si1 1+,C18 H1 B1 F15 1-'
_chemical_name_systematic        
'tri-t-butyl(dimethyl(phenyl)silyl)phosphonium hydrido(tris(pentafluorophenyl))borate'
_symmetry_cell_setting           monoclinic
_symmetry_space_group_name_H-M   'P 21/c'
_symmetry_Int_Tables_number      14
_space_group_name_Hall           '-P 2ybc'
loop_
_symmetry_equiv_pos_site_id
_symmetry_equiv_pos_as_xyz
1 x,y,z
2 -x,1/2+y,1/2-z
3 -x,-y,-z
4 x,1/2-y,1/2+z
_cell_length_a                   9.2800(5)
_cell_length_b                   16.2795(9)
_cell_length_c                   25.4828(13)
_cell_angle_alpha                90
_cell_angle_beta                 102.133(2)
_cell_angle_gamma                90
_cell_volume                     3763.79
_exptl_crystal_colour            colorless
_exptl_crystal_description       block
_cell_formula_units_Z            4
loop_
_atom_site_label
_atom_site_type_symbol
_atom_site_fract_x
_atom_site_fract_y
_atom_site_fract_z
F1 F 0.75976(13) 0.25479(7) 0.96168(5)
F2 F 0.88550(14) 0.39494(8) 0.99819(5)
F3 F 0.73090(16) 0.53892(8) 0.98334(5)
F4 F 0.44788(16) 0.53840(8) 0.92579(6)
F5 F 0.31743(13) 0.39737(8) 0.88936(5)
F6 F 0.41961(16) 0.29470(8) 1.01603(5)
F7 F 0.2078(2) 0.25890(10) 1.06743(6)
F8 F -0.02148(17) 0.16070(11) 1.02151(7)
F9 F -0.03765(15) 0.10282(10) 0.91986(7)
F10 F 0.17145(14) 0.14064(8) 0.86638(5)
F11 F 0.50199(13) 0.14545(7) 0.81006(4)
F12 F 0.64859(15) 0.00505(8) 0.81226(5)
F13 F 0.75229(16) -0.07386(8) 0.90655(6)
F14 F 0.70883(17) -0.00725(8) 1.00017(6)
F15 F 0.57051(14) 0.13678(8) 0.99968(5)
C1 C 0.5306(2) 0.31781(11) 0.92389(8)
C2 C 0.6757(2) 0.32304(12) 0.95139(8)
C3 C 0.7448(2) 0.39551(13) 0.97102(8)
C4 C 0.6679(2) 0.46830(12) 0.96318(8)
C5 C 0.5242(2) 0.46749(12) 0.93463(8)
C6 C 0.4604(2) 0.39371(12) 0.91589(8)
C7 C 0.3061(2) 0.22021(11) 0.93777(8)
C8 C 0.3073(2) 0.24856(13) 0.98937(8)
C9 C 0.1975(3) 0.23026(15) 1.01696(9)
C10 C 0.0824(3) 0.18170(16) 0.99421(10)
C11 C 0.0742(2) 0.15191(14) 0.94306(10)
C12 C 0.1850(2) 0.17226(12) 0.91641(8)
C13 C 0.5297(2) 0.14972(11) 0.90510(8)
C14 C 0.5539(2) 0.11168(12) 0.85905(8)
C15 C 0.6289(2) 0.03832(13) 0.85882(8)
C16 C 0.6810(2) -0.00209(12) 0.90634(9)
C17 C 0.6584(2) 0.03169(13) 0.95340(9)
C18 C 0.5855(2) 0.10591(12) 0.95182(8)
B1 B 0.4349(2) 0.23515(13) 0.90347(8)
H1 H 0.3826 0.2453 0.8606
P1 P 0.15313(5) 0.81262(3) 0.794171(19)
Si1 Si 0.24770(6) 0.82574(3) 0.71485(2)
C19 C 0.1839(2) 0.92184(12) 0.67627(8)
C20 C 0.2778(2) 0.98962(13) 0.67905(8)
H2 H 0.3682 0.9891 0.7032
C21 C 0.2391(3) 1.05782(13) 0.64611(9)
H3 H 0.3026 1.1025 0.6488
C22 C 0.1057(2) 1.05891(13) 0.60964(9)
H4 H 0.0798 1.1044 0.5876
C23 C 0.0114(3) 0.99287(14) 0.60585(9)
H5 H -0.0783 0.9940 0.5813
C24 C 0.0501(2) 0.92468(14) 0.63844(8)
H6 H -0.0137 0.8801 0.6352
C25 C 0.4534(2) 0.82920(14) 0.73302(9)
H7 H 0.4915 0.8375 0.7012
H8 H 0.4902 0.7783 0.7496
H9 H 0.4842 0.8736 0.7576
C26 C 0.1848(2) 0.73532(13) 0.67157(8)
H10 H 0.0795 0.7369 0.6599
H11 H 0.2130 0.6858 0.6915
H12 H 0.2294 0.7366 0.6408
C27 C 0.1507(2) 0.91870(13) 0.82498(9)
C28 C 0.2943(2) 0.96354(14) 0.82171(9)
H13 H 0.2956 1.0166 0.8383
H14 H 0.3000 0.9701 0.7848
H15 H 0.3771 0.9319 0.8400
C29 C 0.1377(3) 0.91601(15) 0.88418(9)
H16 H 0.2243 0.8908 0.9053
H17 H 0.0524 0.8846 0.8873
H18 H 0.1284 0.9709 0.8968
C30 C 0.0247(3) 0.97148(13) 0.79267(9)
H19 H -0.0682 0.9464 0.7937
H20 H 0.0356 0.9755 0.7561
H21 H 0.0284 1.0254 0.8081
C31 C 0.2784(3) 0.74010(15) 0.84145(9)
C32 C 0.3178(3) 0.66560(15) 0.81001(10)
H22 H 0.3798 0.6288 0.8342
H23 H 0.3690 0.6840 0.7831
H24 H 0.2291 0.6376 0.7931
C33 C 0.4256(3) 0.78261(18) 0.86651(10)
H25 H 0.4071 0.8279 0.8883
H26 H 0.4713 0.8024 0.8385
H27 H 0.4898 0.7440 0.8883
C34 C 0.2079(3) 0.70832(15) 0.88728(9)
H28 H 0.1218 0.6765 0.8725
H29 H 0.1804 0.7541 0.9068
H30 H 0.2775 0.6746 0.9111
C35 C -0.0429(2) 0.77039(14) 0.77610(9)
C36 C -0.0425(3) 0.67760(14) 0.76399(10)
H31 H -0.1418 0.6592 0.7508
H32 H -0.0003 0.6483 0.7963
H33 H 0.0149 0.6675 0.7374
C37 C -0.1271(2) 0.78446(15) 0.82152(9)
H34 H -0.1417 0.8423 0.8257
H35 H -0.0710 0.7624 0.8545
H36 H -0.2210 0.7574 0.8127
C38 C -0.1271(2) 0.81053(14) 0.72489(8)
H37 H -0.2280 0.7928 0.7180
H38 H -0.0835 0.7949 0.6954
H39 H -0.1230 0.8692 0.7289
loop_
_geom_bond_atom_site_label_1
_geom_bond_atom_site_label_2
_geom_bond_site_symmetry_1
_geom_bond_site_symmetry_2
F1 C2 1_555 1_555
F2 C3 1_555 1_555
F3 C4 1_555 1_555
F4 C5 1_555 1_555
F5 C6 1_555 1_555
F6 C8 1_555 1_555
F7 C9 1_555 1_555
F8 C10 1_555 1_555
F9 C11 1_555 1_555
F10 C12 1_555 1_555
F11 C14 1_555 1_555
F12 C15 1_555 1_555
F13 C16 1_555 1_555
F14 C17 1_555 1_555
F15 C18 1_555 1_555
C1 C2 1_555 1_555
C2 C3 1_555 1_555
C3 C4 1_555 1_555
C4 C5 1_555 1_555
C5 C6 1_555 1_555
C6 C1 1_555 1_555
C7 C8 1_555 1_555
C8 C9 1_555 1_555
C9 C10 1_555 1_555
C10 C11 1_555 1_555
C11 C12 1_555 1_555
C12 C7 1_555 1_555
C13 C14 1_555 1_555
C14 C15 1_555 1_555
C15 C16 1_555 1_555
C16 C17 1_555 1_555
C17 C18 1_555 1_555
C18 C13 1_555 1_555
B1 C1 1_555 1_555
H1 B1 1_555 1_555
P1 Si1 1_555 1_555
Si1 C19 1_555 1_555
C19 C20 1_555 1_555
C20 H2 1_555 1_555
C21 C20 1_555 1_555
H3 C21 1_555 1_555
C22 C21 1_555 1_555
H4 C22 1_555 1_555
C23 C22 1_555 1_555
H5 C23 1_555 1_555
C24 C19 1_555 1_555
H6 C24 1_555 1_555
C25 Si1 1_555 1_555
H7 C25 1_555 1_555
H8 C25 1_555 1_555
H9 C25 1_555 1_555
C26 Si1 1_555 1_555
H10 C26 1_555 1_555
H11 C26 1_555 1_555
H12 C26 1_555 1_555
C27 P1 1_555 1_555
C28 C27 1_555 1_555
H13 C28 1_555 1_555
H14 C28 1_555 1_555
H15 C28 1_555 1_555
C29 C27 1_555 1_555
H16 C29 1_555 1_555
H17 C29 1_555 1_555
H18 C29 1_555 1_555
C30 C27 1_555 1_555
H19 C30 1_555 1_555
H20 C30 1_555 1_555
H21 C30 1_555 1_555
C31 P1 1_555 1_555
C32 C31 1_555 1_555
H22 C32 1_555 1_555
H23 C32 1_555 1_555
H24 C32 1_555 1_555
C33 C31 1_555 1_555
H25 C33 1_555 1_555
H26 C33 1_555 1_555
H27 C33 1_555 1_555
C34 C31 1_555 1_555
H28 C34 1_555 1_555
H29 C34 1_555 1_555
H30 C34 1_555 1_555
C35 P1 1_555 1_555
C36 C35 1_555 1_555
H31 C36 1_555 1_555
H32 C36 1_555 1_555
H33 C36 1_555 1_555
C37 C35 1_555 1_555
H34 C37 1_555 1_555
H35 C37 1_555 1_555
H36 C37 1_555 1_555
C38 C35 1_555 1_555
H37 C38 1_555 1_555
H38 C38 1_555 1_555
H39 C38 1_555 1_555
C7 B1 1_555 1_555
C13 B1 1_555 1_555
C23 C24 1_555 1_555

#END
