
#######################################################################
#
#                 Cambridge Crystallographic Data Centre
#                                CCDC 
#
#######################################################################
#
# If this CIF has been generated from an entry in the Cambridge 
# Structural Database, then it will include bibliographic, chemical, 
# crystal, experimental, refinement or atomic coordinate data resulting 
# from the CCDC's data processing and validation procedures.
#
#######################################################################

data_CAQWIB
_chemical_formula_moiety         'C48 H72 Li4 N6 O2'
_chemical_name_systematic        
bis(\m~4~-\h^2^-9,9-Dimethylxanthene-1,1,8,10-tetrayl)-(\m~2~-N,N,N',N'-tetramethylethylenediamine)-bis(N,N,N',N'-tetramethylethylenediamine)-tetra-lithium
_symmetry_cell_setting           orthorhombic
_symmetry_space_group_name_H-M   'P b c n'
_symmetry_Int_Tables_number      60
_space_group_name_Hall           '-P 2n 2ab'
loop_
_symmetry_equiv_pos_site_id
_symmetry_equiv_pos_as_xyz
1 x,y,z
2 1/2-x,1/2-y,1/2+z
3 -x,y,1/2-z
4 1/2+x,1/2-y,-z
5 -x,-y,-z
6 1/2+x,1/2+y,1/2-z
7 x,-y,1/2+z
8 1/2-x,1/2+y,z
_cell_length_a                   13.030(2)
_cell_length_b                   17.639(3)
_cell_length_c                   20.807(4)
_cell_angle_alpha                90
_cell_angle_beta                 90
_cell_angle_gamma                90
_cell_volume                     4782.2
_exptl_crystal_colour            pink
_cell_formula_units_Z            4
_chemical_properties_physical    
'extremely air-sensitive, ignites on exposure to air'
loop_
_atom_site_label
_atom_site_type_symbol
_atom_site_fract_x
_atom_site_fract_y
_atom_site_fract_z
Li1 Li 0.62317(19) 0.11350(15) 0.37468(13)
Li2 Li 0.5085(2) 0.21294(14) 0.31901(12)
O1 O 0.38413(7) 0.14232(6) 0.31508(5)
N1 N 0.63232(10) -0.00212(7) 0.34571(6)
N2 N 0.74320(10) 0.07755(7) 0.44652(7)
N3 N 0.46960(10) 0.33284(7) 0.32887(6)
C1 C 0.28271(12) 0.18136(8) 0.47677(7)
H1 H 0.2211 0.1903 0.4980
C2 C 0.37484(12) 0.18488(9) 0.51024(7)
H2 H 0.3748 0.1967 0.5538
C3 C 0.46703(12) 0.17080(8) 0.47899(7)
H3 H 0.5271 0.1721 0.5031
C4 C 0.47494(11) 0.15460(8) 0.41269(7)
C5 C 0.66217(11) 0.19525(8) 0.28567(7)
C6 C 0.74021(11) 0.23237(8) 0.32036(7)
H4 H 0.7263 0.2468 0.3625
C7 C 0.83731(12) 0.24878(9) 0.29536(7)
H5 H 0.8850 0.2753 0.3199
C8 C 0.86200(11) 0.22531(9) 0.23377(7)
H6 H 0.9268 0.2356 0.2172
C9 C 0.18593(11) 0.15506(8) 0.37044(7)
C10 C 0.37887(11) 0.15317(8) 0.38292(7)
C11 C 0.28254(11) 0.16440(8) 0.41107(7)
C12 C 0.79043(11) 0.18632(8) 0.19638(7)
C13 C 0.30649(10) 0.17521(7) 0.27632(7)
C14 C 0.16204(13) 0.06977(9) 0.36398(8)
H7 H 0.2199 0.0443 0.3452
H8 H 0.1030 0.0630 0.3370
H9 H 0.1484 0.0489 0.4057
C15 C 0.09253(12) 0.19438(11) 0.40080(8)
H10 H 0.1063 0.2476 0.4053
H11 H 0.0793 0.1728 0.4423
H12 H 0.0337 0.1874 0.3737
C16 C 0.72078(13) -0.03636(9) 0.37910(8)
H13 H 0.7829 -0.0260 0.3549
H14 H 0.7118 -0.0909 0.3810
C17 C 0.73216(13) -0.00578(9) 0.44614(8)
H15 H 0.6724 -0.0198 0.4713
H16 H 0.7920 -0.0284 0.4661
C18 C 0.64342(16) -0.01145(11) 0.27609(8)
H17 H 0.6470 -0.0645 0.2659
H18 H 0.7051 0.0133 0.2620
H19 H 0.5854 0.0108 0.2548
C19 C 0.53534(13) -0.03602(10) 0.36712(9)
H20 H 0.5341 -0.0887 0.3556
H21 H 0.4790 -0.0104 0.3469
H22 H 0.5295 -0.0312 0.4129
C20 C 0.84473(14) 0.10003(11) 0.42354(11)
H23 H 0.8958 0.0847 0.4542
H24 H 0.8469 0.1541 0.4184
H25 H 0.8582 0.0761 0.3830
C21 C 0.73201(16) 0.10407(11) 0.51338(9)
H26 H 0.7877 0.0848 0.5388
H27 H 0.6681 0.0861 0.5306
H28 H 0.7329 0.1585 0.5142
C22 C 0.51378(14) 0.34743(9) 0.39298(8)
H29 H 0.5027 0.3995 0.4045
H30 H 0.5861 0.3371 0.3921
H31 H 0.4813 0.3151 0.4241
C23 C 0.51793(13) 0.38789(9) 0.28462(7)
H32 H 0.5913 0.3787 0.2848
H33 H 0.5070 0.4383 0.3019
C24 C 0.35819(12) 0.34652(9) 0.33271(8)
H34 H 0.3456 0.3999 0.3370
H35 H 0.3306 0.3204 0.3693
H36 H 0.3258 0.3282 0.2943
Li1B Li 0.37683(19) 0.11350(15) 0.12532(13)
Li2B Li 0.4915(2) 0.21294(14) 0.18099(12)
O1B O 0.61587(7) 0.14232(6) 0.18492(5)
N1B N 0.36768(10) -0.00212(7) 0.15429(6)
N2B N 0.25680(10) 0.07755(7) 0.05348(7)
N3B N 0.53040(10) 0.33284(7) 0.17113(6)
C1B C 0.71729(12) 0.18136(8) 0.02323(7)
H1B H 0.7789 0.1903 0.0020
C2B C 0.62516(12) 0.18488(9) -0.01024(7)
H2B H 0.6252 0.1967 -0.0538
C3B C 0.53297(12) 0.17080(8) 0.02101(7)
H3B H 0.4729 0.1721 -0.0031
C4B C 0.52506(11) 0.15460(8) 0.08731(7)
C5B C 0.33783(11) 0.19525(8) 0.21433(7)
C6B C 0.25979(11) 0.23237(8) 0.17964(7)
H4B H 0.2737 0.2468 0.1375
C7B C 0.16269(12) 0.24878(9) 0.20464(7)
H5B H 0.1150 0.2753 0.1801
C8B C 0.13800(11) 0.22531(9) 0.26623(7)
H6B H 0.0732 0.2356 0.2828
C9B C 0.81407(11) 0.15506(8) 0.12956(7)
C10B C 0.62113(11) 0.15317(8) 0.11708(7)
C11B C 0.71746(11) 0.16440(8) 0.08893(7)
C12B C 0.20957(11) 0.18632(8) 0.30362(7)
C13B C 0.69351(10) 0.17521(7) 0.22368(7)
C14B C 0.83796(13) 0.06977(9) 0.13602(8)
H7B H 0.7801 0.0443 0.1548
H8B H 0.8970 0.0630 0.1630
H9B H 0.8516 0.0489 0.0943
C15B C 0.90747(12) 0.19438(11) 0.09920(8)
H10B H 0.8937 0.2476 0.0947
H11B H 0.9207 0.1728 0.0577
H12B H 0.9663 0.1874 0.1263
C16B C 0.27922(13) -0.03636(9) 0.12090(8)
H13B H 0.2171 -0.0260 0.1451
H14B H 0.2882 -0.0909 0.1190
C17B C 0.26784(13) -0.00578(9) 0.05386(8)
H15B H 0.3276 -0.0198 0.0287
H16B H 0.2080 -0.0284 0.0339
C18B C 0.35658(16) -0.01145(11) 0.22391(8)
H17B H 0.3530 -0.0645 0.2341
H18B H 0.2949 0.0133 0.2380
H19B H 0.4146 0.0108 0.2452
C19B C 0.46466(13) -0.03602(10) 0.13288(9)
H20B H 0.4659 -0.0887 0.1444
H21B H 0.5210 -0.0104 0.1531
H22B H 0.4705 -0.0312 0.0871
C20B C 0.15527(14) 0.10003(11) 0.07646(11)
H23B H 0.1042 0.0847 0.0458
H24B H 0.1531 0.1541 0.0816
H25B H 0.1418 0.0761 0.1170
C21B C 0.26799(16) 0.10407(11) -0.01338(9)
H26B H 0.2123 0.0848 -0.0388
H27B H 0.3319 0.0861 -0.0306
H28B H 0.2671 0.1585 -0.0142
C22B C 0.48622(14) 0.34743(9) 0.10702(8)
H29B H 0.4973 0.3995 0.0955
H30B H 0.4139 0.3371 0.1079
H31B H 0.5187 0.3151 0.0759
C23B C 0.48207(13) 0.38789(9) 0.21538(7)
H32B H 0.4087 0.3787 0.2152
H33B H 0.4930 0.4383 0.1981
C24B C 0.64181(12) 0.34652(9) 0.16729(8)
H34B H 0.6544 0.3999 0.1630
H35B H 0.6694 0.3204 0.1307
H36B H 0.6742 0.3282 0.2057
loop_
_geom_bond_atom_site_label_1
_geom_bond_atom_site_label_2
_geom_bond_site_symmetry_1
_geom_bond_site_symmetry_2
Li1 N1 1_555 1_555
Li2 O1 1_555 1_555
O1 C10 1_555 1_555
N1 C16 1_555 1_555
N2 Li1 1_555 1_555
N3 Li2 1_555 1_555
C1 H1 1_555 1_555
C2 C1 1_555 1_555
H2 C2 1_555 1_555
C3 C2 1_555 1_555
H3 C3 1_555 1_555
C4 Li1 1_555 1_555
C5 Li1 1_555 1_555
C6 C5 1_555 1_555
H4 C6 1_555 1_555
C7 C6 1_555 1_555
H5 C7 1_555 1_555
C8 C7 1_555 1_555
H6 C8 1_555 1_555
C9 C11 1_555 1_555
C10 Li2 1_555 1_555
C11 C1 1_555 1_555
C12 C8 1_555 1_555
C13 O1 1_555 1_555
C14 C9 1_555 1_555
H7 C14 1_555 1_555
H8 C14 1_555 1_555
H9 C14 1_555 1_555
C15 C9 1_555 1_555
H10 C15 1_555 1_555
H11 C15 1_555 1_555
H12 C15 1_555 1_555
C16 H13 1_555 1_555
H14 C16 1_555 1_555
C17 N2 1_555 1_555
H15 C17 1_555 1_555
H16 C17 1_555 1_555
C18 N1 1_555 1_555
H17 C18 1_555 1_555
H18 C18 1_555 1_555
H19 C18 1_555 1_555
C19 N1 1_555 1_555
H20 C19 1_555 1_555
H21 C19 1_555 1_555
H22 C19 1_555 1_555
C20 N2 1_555 1_555
H23 C20 1_555 1_555
H24 C20 1_555 1_555
H25 C20 1_555 1_555
C21 N2 1_555 1_555
H26 C21 1_555 1_555
H27 C21 1_555 1_555
H28 C21 1_555 1_555
C22 N3 1_555 1_555
H29 C22 1_555 1_555
H30 C22 1_555 1_555
H31 C22 1_555 1_555
C23 N3 1_555 1_555
H32 C23 1_555 1_555
H33 C23 1_555 1_555
C24 N3 1_555 1_555
H34 C24 1_555 1_555
H35 C24 1_555 1_555
H36 C24 1_555 1_555
Li1B N1B 1_555 1_555
Li2B O1B 1_555 1_555
O1B C10B 1_555 1_555
N1B C16B 1_555 1_555
N2B Li1B 1_555 1_555
N3B Li2B 1_555 1_555
C1B H1B 1_555 1_555
C2B C1B 1_555 1_555
H2B C2B 1_555 1_555
C3B C2B 1_555 1_555
H3B C3B 1_555 1_555
C4B Li1B 1_555 1_555
C5B C13 1_555 1_555
C6B C5B 1_555 1_555
H4B C6B 1_555 1_555
C7B C6B 1_555 1_555
H5B C7B 1_555 1_555
C8B C7B 1_555 1_555
H6B C8B 1_555 1_555
C9B C12 1_555 1_555
C10B Li2B 1_555 1_555
C11B C1B 1_555 1_555
C12B C9 1_555 1_555
C13B C5 1_555 1_555
C14B C9B 1_555 1_555
H7B C14B 1_555 1_555
H8B C14B 1_555 1_555
H9B C14B 1_555 1_555
C15B C9B 1_555 1_555
H10B C15B 1_555 1_555
H11B C15B 1_555 1_555
H12B C15B 1_555 1_555
C16B H13B 1_555 1_555
H14B C16B 1_555 1_555
C17B N2B 1_555 1_555
H15B C17B 1_555 1_555
H16B C17B 1_555 1_555
C18B N1B 1_555 1_555
H17B C18B 1_555 1_555
H18B C18B 1_555 1_555
H19B C18B 1_555 1_555
C19B N1B 1_555 1_555
H20B C19B 1_555 1_555
H21B C19B 1_555 1_555
H22B C19B 1_555 1_555
C20B N2B 1_555 1_555
H23B C20B 1_555 1_555
H24B C20B 1_555 1_555
H25B C20B 1_555 1_555
C21B N2B 1_555 1_555
H26B C21B 1_555 1_555
H27B C21B 1_555 1_555
H28B C21B 1_555 1_555
C22B N3B 1_555 1_555
H29B C22B 1_555 1_555
H30B C22B 1_555 1_555
H31B C22B 1_555 1_555
C23B C23 1_555 1_555
H32B C23B 1_555 1_555
H33B C23B 1_555 1_555
C24B N3B 1_555 1_555
H34B C24B 1_555 1_555
H35B C24B 1_555 1_555
H36B C24B 1_555 1_555
Li2 C4 1_555 1_555
Li2 C5 1_555 1_555
C3 C4 1_555 1_555
C4 C10 1_555 1_555
C10 C11 1_555 1_555
C12 C13B 1_555 1_555
C13 C12B 1_555 1_555
C16 C17 1_555 1_555
Li1B C5B 1_555 1_555
Li2B C4B 1_555 1_555
Li2B C5B 1_555 1_555
O1B C13B 1_555 1_555
N3B C23B 1_555 1_555
C3B C4B 1_555 1_555
C4B C10B 1_555 1_555
C8B C12B 1_555 1_555
C9B C11B 1_555 1_555
C10B C11B 1_555 1_555
C16B C17B 1_555 1_555

#END
