
#######################################################################
#
#                 Cambridge Crystallographic Data Centre
#                                CCDC 
#
#######################################################################
#
# If this CIF has been generated from an entry in the Cambridge 
# Structural Database, then it will include bibliographic, chemical, 
# crystal, experimental, refinement or atomic coordinate data resulting 
# from the CCDC's data processing and validation procedures.
#
#######################################################################

data_CAQZUS
_chemical_formula_moiety         'C16 H38 N4 Na1 O1 1+,C22 H29 B1 N1 Si2 1-'
_chemical_name_systematic        
'(N,N,N-tris[2-(dimethylamino)ethyl]amine)-(tetrahydrofuran)-sodium(i) [N,N-(dimethylsilyl)amino](triphenyl)borate'
_symmetry_cell_setting           monoclinic
_symmetry_space_group_name_H-M   'P 21/c'
_symmetry_Int_Tables_number      14
_space_group_name_Hall           '-P 2ybc'
loop_
_symmetry_equiv_pos_site_id
_symmetry_equiv_pos_as_xyz
1 x,y,z
2 -x,1/2+y,1/2-z
3 -x,-y,-z
4 x,1/2-y,1/2+z
_cell_length_a                   10.5151(9)
_cell_length_b                   16.4043(13)
_cell_length_c                   24.1955(19)
_cell_angle_alpha                90
_cell_angle_beta                 90.6930(14)
_cell_angle_gamma                90
_cell_volume                     4173.25
_exptl_crystal_colour            colorless
_exptl_crystal_description       block
_cell_formula_units_Z            4
_chemical_properties_physical    
Air-sensitive,Moisture-sensitive,Oxygen-sensitive
_exptl_crystal_recrystallization_method 'tetrahydrofuran / pentane'
loop_
_atom_site_label
_atom_site_type_symbol
_atom_site_fract_x
_atom_site_fract_y
_atom_site_fract_z
Na1 Na 0.33156(12) 0.86126(8) 0.70880(5)
O1 O 0.3528(3) 0.93580(17) 0.78794(11)
N1 N 0.1464(3) 0.93356(19) 0.67113(13)
N2 N 0.2813(3) 0.7170(2) 0.72671(16)
N3 N 0.5386(3) 0.87978(19) 0.66181(12)
N4 N 0.3004(3) 0.80223(18) 0.61730(13)
C1 C 0.1874(9) 1.0136(3) 0.6594(3)
H1 H 0.2662 1.0114 0.6382
H2 H 0.2030 1.0430 0.6941
H3 H 0.1216 1.0420 0.6378
C2 C 0.0458(6) 0.9472(5) 0.7118(3)
H4 H -0.0186 0.9839 0.6961
H5 H 0.0829 0.9718 0.7452
H6 H 0.0062 0.8950 0.7212
C3 C 0.1569(5) 0.7080(3) 0.7512(2)
H7 H 0.0929 0.7345 0.7276
H8 H 0.1572 0.7333 0.7879
H9 H 0.1366 0.6499 0.7547
C4 C 0.3726(6) 0.6807(4) 0.7683(4)
H10 H 0.3517 0.6231 0.7740
H11 H 0.3658 0.7101 0.8035
H12 H 0.4596 0.6853 0.7546
C5 C 0.6299(5) 0.8224(5) 0.6845(3)
H13 H 0.7066 0.8226 0.6618
H14 H 0.5928 0.7676 0.6845
H15 H 0.6523 0.8382 0.7224
C6 C 0.5885(6) 0.9610(3) 0.6659(3)
H16 H 0.6006 0.9754 0.7049
H17 H 0.5288 0.9993 0.6485
H18 H 0.6704 0.9637 0.6470
C7 C 0.1101(8) 0.8913(5) 0.6239(3)
H19 H 0.0629 0.9303 0.6001
H20 H 0.0480 0.8495 0.6356
C8 C 0.2023(4) 0.8499(2) 0.58841(16)
H21 H 0.1550 0.8131 0.5631
H22 H 0.2448 0.8915 0.5655
C9 C 0.2926(8) 0.6760(3) 0.6758(3)
H23 H 0.2444 0.6244 0.6783
H24 H 0.3832 0.6615 0.6711
C10 C 0.2511(7) 0.7172(3) 0.6271(3)
H25 H 0.1571 0.7199 0.6277
H26 H 0.2746 0.6833 0.5950
C11 C 0.5118(6) 0.8609(4) 0.60428(19)
H27 H 0.4873 0.9127 0.5860
H28 H 0.5930 0.8434 0.5877
C12 C 0.4198(4) 0.8027(4) 0.5893(2)
H29 H 0.4587 0.7482 0.5942
H30 H 0.4015 0.8094 0.5494
C13 C 0.3764(5) 1.0216(3) 0.79427(17)
H31 H 0.2970 1.0530 0.7885
H32 H 0.4401 1.0403 0.7673
C14 C 0.4252(4) 1.0323(3) 0.85175(16)
H33 H 0.4061 1.0876 0.8658
H34 H 0.5182 1.0229 0.8540
C15 C 0.3532(4) 0.9676(2) 0.88346(15)
H35 H 0.4032 0.9485 0.9159
H36 H 0.2703 0.9887 0.8961
C16 C 0.3353(5) 0.9008(3) 0.84212(17)
H37 H 0.3982 0.8569 0.8488
H38 H 0.2489 0.8773 0.8450
Si1 Si 0.87431(9) 0.66558(6) 0.36153(4)
H39 H 1.015(4) 0.652(2) 0.3512(16)
Si2 Si 0.69495(8) 0.61653(5) 0.44773(4)
H40 H 0.603(4) 0.631(2) 0.4071(17)
N5 N 0.8311(2) 0.66815(16) 0.42969(11)
B1 B 0.8985(3) 0.7303(2) 0.47173(15)
C17 C 1.0455(3) 0.75282(19) 0.45195(13)
C18 C 1.1514(3) 0.7041(2) 0.46568(14)
H41 H 1.1384 0.6555 0.4862
C19 C 1.2740(3) 0.7243(3) 0.45038(15)
H42 H 1.3427 0.6896 0.4605
C20 C 1.2974(3) 0.7945(3) 0.42057(16)
H43 H 1.3816 0.8086 0.4104
C21 C 1.1955(4) 0.8438(2) 0.40574(16)
H44 H 1.2096 0.8920 0.3849
C22 C 1.0724(3) 0.8229(2) 0.42128(15)
H45 H 1.0041 0.8577 0.4106
C23 C 0.9092(3) 0.6854(2) 0.53293(14)
C24 C 0.9479(3) 0.6034(2) 0.53651(15)
H46 H 0.9667 0.5753 0.5033
C25 C 0.9599(3) 0.5616(2) 0.58615(16)
H47 H 0.9873 0.5064 0.5865
C26 C 0.9318(3) 0.6010(2) 0.63557(16)
H48 H 0.9405 0.5733 0.6699
C27 C 0.8909(3) 0.6809(2) 0.63384(15)
H49 H 0.8697 0.7080 0.6672
C28 C 0.8805(3) 0.7222(2) 0.58370(14)
H50 H 0.8530 0.7774 0.5838
C29 C 0.8181(3) 0.81660(19) 0.47655(13)
C30 C 0.6967(3) 0.83006(19) 0.45408(13)
H51 H 0.6586 0.7884 0.4322
C31 C 0.6294(3) 0.9022(2) 0.46255(14)
H52 H 0.5464 0.9082 0.4471
C32 C 0.6826(3) 0.9650(2) 0.49327(14)
H53 H 0.6364 1.0138 0.4996
C33 C 0.8048(3) 0.9552(2) 0.51471(14)
H54 H 0.8437 0.9981 0.5352
C34 C 0.8698(3) 0.8828(2) 0.50617(14)
H55 H 0.9534 0.8776 0.5211
C35 C 0.8258(4) 0.7579(2) 0.32107(16)
H56 H 0.7330 0.7631 0.3212
H57 H 0.8550 0.7526 0.2829
H58 H 0.8641 0.8066 0.3379
C36 C 0.8055(4) 0.5761(2) 0.32325(15)
H59 H 0.8390 0.5255 0.3393
H60 H 0.8289 0.5793 0.2842
H61 H 0.7126 0.5767 0.3263
C37 C 0.7110(3) 0.5028(2) 0.45351(16)
H62 H 0.7481 0.4812 0.4195
H63 H 0.6270 0.4785 0.4589
H64 H 0.7665 0.4894 0.4851
C38 C 0.6176(3) 0.6488(2) 0.51350(15)
H65 H 0.6680 0.6291 0.5451
H66 H 0.5317 0.6259 0.5150
H67 H 0.6128 0.7085 0.5148
loop_
_geom_bond_atom_site_label_1
_geom_bond_atom_site_label_2
_geom_bond_site_symmetry_1
_geom_bond_site_symmetry_2
Na1 O1 1_555 1_555
O1 C13 1_555 1_555
N1 Na1 1_555 1_555
N2 Na1 1_555 1_555
N3 Na1 1_555 1_555
N4 Na1 1_555 1_555
C1 N1 1_555 1_555
H1 C1 1_555 1_555
H2 C1 1_555 1_555
H3 C1 1_555 1_555
C2 N1 1_555 1_555
H4 C2 1_555 1_555
H5 C2 1_555 1_555
H6 C2 1_555 1_555
C3 N2 1_555 1_555
H7 C3 1_555 1_555
H8 C3 1_555 1_555
H9 C3 1_555 1_555
C4 N2 1_555 1_555
H10 C4 1_555 1_555
H11 C4 1_555 1_555
H12 C4 1_555 1_555
C5 N3 1_555 1_555
H13 C5 1_555 1_555
H14 C5 1_555 1_555
H15 C5 1_555 1_555
C6 N3 1_555 1_555
H16 C6 1_555 1_555
H17 C6 1_555 1_555
H18 C6 1_555 1_555
C7 N1 1_555 1_555
H19 C7 1_555 1_555
H20 C7 1_555 1_555
C8 N4 1_555 1_555
H21 C8 1_555 1_555
H22 C8 1_555 1_555
C9 N2 1_555 1_555
H23 C9 1_555 1_555
H24 C9 1_555 1_555
C10 N4 1_555 1_555
H25 C10 1_555 1_555
H26 C10 1_555 1_555
C11 N3 1_555 1_555
H27 C11 1_555 1_555
H28 C11 1_555 1_555
C12 N4 1_555 1_555
H29 C12 1_555 1_555
H30 C12 1_555 1_555
C13 H31 1_555 1_555
H32 C13 1_555 1_555
C14 C13 1_555 1_555
H33 C14 1_555 1_555
H34 C14 1_555 1_555
C15 C14 1_555 1_555
H35 C15 1_555 1_555
H36 C15 1_555 1_555
C16 O1 1_555 1_555
H37 C16 1_555 1_555
H38 C16 1_555 1_555
Si1 H39 1_555 1_555
Si2 H40 1_555 1_555
N5 Si1 1_555 1_555
B1 N5 1_555 1_555
C17 B1 1_555 1_555
C18 C17 1_555 1_555
H41 C18 1_555 1_555
C19 C18 1_555 1_555
H42 C19 1_555 1_555
C20 C19 1_555 1_555
H43 C20 1_555 1_555
C21 C20 1_555 1_555
H44 C21 1_555 1_555
C22 C17 1_555 1_555
H45 C22 1_555 1_555
C23 B1 1_555 1_555
C24 C23 1_555 1_555
H46 C24 1_555 1_555
C25 C24 1_555 1_555
H47 C25 1_555 1_555
C26 C25 1_555 1_555
H48 C26 1_555 1_555
C27 C26 1_555 1_555
H49 C27 1_555 1_555
C28 C23 1_555 1_555
H50 C28 1_555 1_555
C29 B1 1_555 1_555
C30 C29 1_555 1_555
H51 C30 1_555 1_555
C31 C30 1_555 1_555
H52 C31 1_555 1_555
C32 C31 1_555 1_555
H53 C32 1_555 1_555
C33 C32 1_555 1_555
H54 C33 1_555 1_555
C34 C29 1_555 1_555
H55 C34 1_555 1_555
C35 Si1 1_555 1_555
H56 C35 1_555 1_555
H57 C35 1_555 1_555
H58 C35 1_555 1_555
C36 Si1 1_555 1_555
H59 C36 1_555 1_555
H60 C36 1_555 1_555
H61 C36 1_555 1_555
C37 Si2 1_555 1_555
H62 C37 1_555 1_555
H63 C37 1_555 1_555
H64 C37 1_555 1_555
C38 Si2 1_555 1_555
H65 C38 1_555 1_555
H66 C38 1_555 1_555
H67 C38 1_555 1_555
C7 C8 1_555 1_555
C9 C10 1_555 1_555
C11 C12 1_555 1_555
C15 C16 1_555 1_555
Si2 N5 1_555 1_555
C21 C22 1_555 1_555
C27 C28 1_555 1_555
C33 C34 1_555 1_555

#END
