
#######################################################################
#
#                 Cambridge Crystallographic Data Centre
#                                CCDC 
#
#######################################################################
#
# If this CIF has been generated from an entry in the Cambridge 
# Structural Database, then it will include bibliographic, chemical, 
# crystal, experimental, refinement or atomic coordinate data resulting 
# from the CCDC's data processing and validation procedures.
#
#######################################################################

data_CARBUV
_chemical_formula_moiety         'C21 H21 N3'
_chemical_name_systematic        
2-(t-butylamino)-1-((4-methylphenyl)imino)-1H-indene-3-carbonitrile
_symmetry_cell_setting           monoclinic
_symmetry_space_group_name_H-M   'P 21'
_symmetry_Int_Tables_number      4
_space_group_name_Hall           'P 2yb'
loop_
_symmetry_equiv_pos_site_id
_symmetry_equiv_pos_as_xyz
1 x,y,z
2 -x,1/2+y,-z
_cell_length_a                   9.6502(2)
_cell_length_b                   10.11860(10)
_cell_length_c                   9.8060(2)
_cell_angle_alpha                90
_cell_angle_beta                 112.655(2)
_cell_angle_gamma                90
_cell_volume                     883.64
_exptl_crystal_colour            red
_exptl_crystal_description       block
_cell_formula_units_Z            2
loop_
_atom_site_label
_atom_site_type_symbol
_atom_site_fract_x
_atom_site_fract_y
_atom_site_fract_z
N1 N 0.37889(17) 0.73230(16) 0.14367(17)
H1 H 0.2842 0.7157 0.1046
N2 N 0.23756(17) 0.51038(17) 0.17882(17)
N3 N 0.85032(19) 0.7332(2) 0.3058(2)
C1 C 0.3799(2) 0.51376(18) 0.24364(19)
C2 C 0.4837(2) 0.29396(19) 0.38960(19)
H2 H 0.3910 0.2528 0.3648
C3 C 0.4634(2) 0.63439(19) 0.22453(19)
C4 C 0.1568(2) 0.3967(2) 0.1928(2)
C5 C 0.6350(2) 0.48145(19) 0.3731(2)
C6 C 0.49409(19) 0.42029(19) 0.33913(19)
C7 C 0.1162(2) 0.3001(2) 0.0833(2)
H3 H 0.1443 0.3084 0.0030
C8 C 0.6152(2) 0.6111(2) 0.2993(2)
C9 C 0.7417(2) 0.6833(2) 0.3018(2)
C10 C 0.6160(2) 0.2303(2) 0.4786(2)
H4 H 0.6116 0.1454 0.5131
C11 C 0.0336(2) 0.1912(2) 0.0943(2)
H5 H 0.0082 0.1263 0.0217
C12 C 0.1107(2) 0.3854(2) 0.3098(2)
H6 H 0.1351 0.4509 0.3818
C13 C 0.7649(2) 0.4187(2) 0.4630(2)
H7 H 0.8578 0.4596 0.4877
C14 C -0.0123(2) 0.1774(2) 0.2125(2)
C15 C 0.4223(2) 0.8650(2) 0.1106(2)
C16 C 0.7544(2) 0.2922(2) 0.5163(2)
H8 H 0.8411 0.2491 0.5778
C17 C 0.0281(2) 0.2760(2) 0.3192(2)
H9 H -0.0010 0.2685 0.3990
C18 C 0.5118(2) 0.9383(2) 0.2542(2)
H10 H 0.4536 0.9431 0.3143
H11 H 0.5343 1.0261 0.2315
H12 H 0.6037 0.8918 0.3067
C19 C 0.5098(3) 0.8515(2) 0.0108(2)
H13 H 0.5992 0.8008 0.0605
H14 H 0.5366 0.9377 -0.0120
H15 H 0.4486 0.8075 -0.0790
C20 C 0.2760(2) 0.9388(2) 0.0286(3)
H16 H 0.2200 0.8938 -0.0622
H17 H 0.2980 1.0272 0.0075
H18 H 0.2178 0.9418 0.0889
C21 C -0.1050(3) 0.0604(3) 0.2219(3)
H19 H -0.1952 0.0563 0.1342
H20 H -0.1307 0.0697 0.3067
H21 H -0.0482 -0.0193 0.2307
loop_
_geom_bond_atom_site_label_1
_geom_bond_atom_site_label_2
_geom_bond_site_symmetry_1
_geom_bond_site_symmetry_2
N1 H1 1_555 1_555
N2 C1 1_555 1_555
N3 C9 1_555 1_555
C1 C3 1_555 1_555
C2 H2 1_555 1_555
C3 N1 1_555 1_555
C4 N2 1_555 1_555
C5 C6 1_555 1_555
C6 C1 1_555 1_555
C7 C4 1_555 1_555
H3 C7 1_555 1_555
C8 C3 1_555 1_555
C9 C8 1_555 1_555
C10 C2 1_555 1_555
H4 C10 1_555 1_555
C11 C7 1_555 1_555
H5 C11 1_555 1_555
C12 C4 1_555 1_555
H6 C12 1_555 1_555
C13 C5 1_555 1_555
H7 C13 1_555 1_555
C14 C11 1_555 1_555
C15 N1 1_555 1_555
C16 C10 1_555 1_555
H8 C16 1_555 1_555
C17 C12 1_555 1_555
H9 C17 1_555 1_555
C18 C15 1_555 1_555
H10 C18 1_555 1_555
H11 C18 1_555 1_555
H12 C18 1_555 1_555
C19 C15 1_555 1_555
H13 C19 1_555 1_555
H14 C19 1_555 1_555
H15 C19 1_555 1_555
C20 C15 1_555 1_555
H16 C20 1_555 1_555
H17 C20 1_555 1_555
H18 C20 1_555 1_555
C21 C14 1_555 1_555
H19 C21 1_555 1_555
H20 C21 1_555 1_555
H21 C21 1_555 1_555
C2 C6 1_555 1_555
C5 C8 1_555 1_555
C13 C16 1_555 1_555
C14 C17 1_555 1_555

#END
