
#######################################################################
#
#                 Cambridge Crystallographic Data Centre
#                                CCDC 
#
#######################################################################
#
# If this CIF has been generated from an entry in the Cambridge 
# Structural Database, then it will include bibliographic, chemical, 
# crystal, experimental, refinement or atomic coordinate data resulting 
# from the CCDC's data processing and validation procedures.
#
#######################################################################

data_CARBIJ
_chemical_formula_moiety         'C32 H23 N1'
_chemical_name_systematic        3-(anthracen-9-yl)-N,N-diphenylaniline
_symmetry_cell_setting           monoclinic
_symmetry_space_group_name_H-M   'P 21/n'
_symmetry_Int_Tables_number      14
_space_group_name_Hall           '-P 2yn'
loop_
_symmetry_equiv_pos_site_id
_symmetry_equiv_pos_as_xyz
1 x,y,z
2 1/2-x,1/2+y,1/2-z
3 -x,-y,-z
4 1/2+x,1/2-y,1/2+z
_cell_length_a                   14.901(3)
_cell_length_b                   8.3206(17)
_cell_length_c                   18.900(4)
_cell_angle_alpha                90
_cell_angle_beta                 101.42(3)
_cell_angle_gamma                90
_cell_volume                     2296.93
_exptl_crystal_colour            green
_exptl_crystal_description       block
_chemical_melting_point          '454 K'
_cell_formula_units_Z            4
_chemical_properties_physical    ', Heat-sensitive'
_exptl_crystal_recrystallization_method dichloromethane/methanol
_exptl_crystal_preparation       ', Luminescent'
loop_
_atom_site_label
_atom_site_type_symbol
_atom_site_fract_x
_atom_site_fract_y
_atom_site_fract_z
C1 C 0.54009(8) 0.06508(15) 0.14948(7)
C2 C 0.61141(9) 0.13260(16) 0.19891(8)
H1 H 0.6645 0.0736 0.2152
C3 C 0.60414(11) 0.28693(17) 0.22415(9)
H2 H 0.6528 0.3315 0.2567
C4 C 0.52558(11) 0.37541(17) 0.20168(9)
H3 H 0.5205 0.4785 0.2195
C5 C 0.45501(11) 0.30959(18) 0.15274(10)
H4 H 0.4018 0.3688 0.1372
C6 C 0.46189(10) 0.15621(17) 0.12614(9)
H5 H 0.4137 0.1139 0.0924
C7 C 0.46813(8) -0.18874(15) 0.10019(7)
C8 C 0.39808(9) -0.19412(18) 0.13901(9)
H6 H 0.4041 -0.1391 0.1825
C9 C 0.31974(10) -0.2811(2) 0.11297(11)
H7 H 0.2724 -0.2819 0.1385
C10 C 0.31060(11) -0.3666(2) 0.04982(13)
H8 H 0.2576 -0.4250 0.0326
C11 C 0.38085(12) -0.3646(2) 0.01236(11)
H9 H 0.3755 -0.4237 -0.0301
C12 C 0.45897(10) -0.27659(17) 0.03674(8)
H10 H 0.5057 -0.2759 0.0107
C13 C 0.63309(8) -0.14908(14) 0.11069(7)
C14 C 0.68774(8) -0.05000(14) 0.07803(7)
H11 H 0.6680 0.0536 0.0645
C15 C 0.77179(8) -0.10344(15) 0.06523(7)
C16 C 0.79944(9) -0.26022(15) 0.08419(8)
H12 H 0.8549 -0.2981 0.0753
C17 C 0.74463(9) -0.35963(16) 0.11616(8)
H13 H 0.7634 -0.4643 0.1284
C18 C 0.66225(9) -0.30493(15) 0.13005(7)
H14 H 0.6263 -0.3721 0.1523
C19 C 0.83117(8) 0.00613(15) 0.03208(7)
C20 C 0.87702(8) 0.13397(15) 0.07280(7)
C21 C 0.86843(10) 0.16685(16) 0.14527(8)
H15 H 0.8307 0.1021 0.1669
C22 C 0.91396(11) 0.29008(17) 0.18319(9)
H16 H 0.9064 0.3092 0.2301
C23 C 0.97258(12) 0.38983(19) 0.15270(10)
H17 H 1.0032 0.4743 0.1793
C24 C 0.98420(11) 0.36235(18) 0.08458(10)
H18 H 1.0242 0.4271 0.0652
C25 C 0.93657(9) 0.23626(16) 0.04170(8)
C26 C 0.94590(9) 0.20894(18) -0.02889(9)
H19 H 0.9848 0.2747 -0.0488
C27 C 0.89941(9) 0.08743(18) -0.07057(8)
C28 C 0.90665(12) 0.0640(2) -0.14388(10)
H20 H 0.9447 0.1308 -0.1643
C29 C 0.85944(14) -0.0530(3) -0.18412(10)
H21 H 0.8650 -0.0658 -0.2320
C30 C 0.80176(13) -0.1561(2) -0.15444(10)
H22 H 0.7693 -0.2360 -0.1831
C31 C 0.79291(10) -0.1407(2) -0.08463(9)
H23 H 0.7551 -0.2111 -0.0658
C32 C 0.84080(9) -0.01798(16) -0.03981(8)
N1 N 0.54775(7) -0.09440(13) 0.12449(6)
loop_
_geom_bond_atom_site_label_1
_geom_bond_atom_site_label_2
_geom_bond_site_symmetry_1
_geom_bond_site_symmetry_2
C1 C2 1_555 1_555
C2 H1 1_555 1_555
C3 C2 1_555 1_555
H2 C3 1_555 1_555
C4 C3 1_555 1_555
H3 C4 1_555 1_555
C5 C4 1_555 1_555
H4 C5 1_555 1_555
C6 C1 1_555 1_555
H5 C6 1_555 1_555
C7 C8 1_555 1_555
C8 H6 1_555 1_555
C9 C8 1_555 1_555
H7 C9 1_555 1_555
C10 C9 1_555 1_555
H8 C10 1_555 1_555
C11 C10 1_555 1_555
H9 C11 1_555 1_555
C12 C7 1_555 1_555
H10 C12 1_555 1_555
C13 C14 1_555 1_555
C14 H11 1_555 1_555
C15 C14 1_555 1_555
C16 C15 1_555 1_555
H12 C16 1_555 1_555
C17 C16 1_555 1_555
H13 C17 1_555 1_555
C18 C13 1_555 1_555
H14 C18 1_555 1_555
C19 C15 1_555 1_555
C20 C19 1_555 1_555
C21 C20 1_555 1_555
H15 C21 1_555 1_555
C22 C21 1_555 1_555
H16 C22 1_555 1_555
C23 C22 1_555 1_555
H17 C23 1_555 1_555
C24 C23 1_555 1_555
H18 C24 1_555 1_555
C25 C20 1_555 1_555
C26 C25 1_555 1_555
H19 C26 1_555 1_555
C27 C26 1_555 1_555
C28 C27 1_555 1_555
H20 C28 1_555 1_555
C29 C28 1_555 1_555
H21 C29 1_555 1_555
C30 C29 1_555 1_555
H22 C30 1_555 1_555
C31 C30 1_555 1_555
H23 C31 1_555 1_555
C32 C19 1_555 1_555
N1 C1 1_555 1_555
C5 C6 1_555 1_555
C7 N1 1_555 1_555
C11 C12 1_555 1_555
C13 N1 1_555 1_555
C17 C18 1_555 1_555
C24 C25 1_555 1_555
C27 C32 1_555 1_555
C31 C32 1_555 1_555

#END
