
#######################################################################
#
#                 Cambridge Crystallographic Data Centre
#                                CCDC 
#
#######################################################################
#
# If this CIF has been generated from an entry in the Cambridge 
# Structural Database, then it will include bibliographic, chemical, 
# crystal, experimental, refinement or atomic coordinate data resulting 
# from the CCDC's data processing and validation procedures.
#
#######################################################################

data_CARDEH
_chemical_formula_moiety         
'C20 H40 K1 O8 1+,0.5(C54 H64 B2 2-),2(C4 H8 O1)'
_chemical_name_systematic        
"(18-crown-6)-bis(tetrahydrofuran)-potassium(i) hemikis((2,2',4,4',6,6'-hexamethyl[1,1'-biphenyl]-3,3'-diyl)bis[bis(2,4,6-trimethylphenyl)borane] diradical) tetrahydrofuran solvate"
_symmetry_cell_setting           monoclinic
_symmetry_space_group_name_H-M   'P 21/n'
_symmetry_Int_Tables_number      14
_space_group_name_Hall           '-P 2yn'
loop_
_symmetry_equiv_pos_site_id
_symmetry_equiv_pos_as_xyz
1 x,y,z
2 1/2-x,1/2+y,1/2-z
3 -x,-y,-z
4 1/2+x,1/2-y,1/2+z
_cell_length_a                   25.6168(11)
_cell_length_b                   15.8963(6)
_cell_length_c                   28.3208(11)
_cell_angle_alpha                90
_cell_angle_beta                 105.0300(10)
_cell_angle_gamma                90
_cell_volume                     11138.1
_exptl_crystal_colour            'dark blue'
_exptl_crystal_description       column
_cell_formula_units_Z            8
loop_
_atom_site_label
_atom_site_type_symbol
_atom_site_fract_x
_atom_site_fract_y
_atom_site_fract_z
B1 B 0.62973(10) 0.71290(16) 0.61781(9)
B2 B 0.46100(9) 0.72195(15) 0.82805(9)
C1 C 0.62385(7) 0.75513(12) 0.75373(7)
C2 C 0.61585(7) 0.71936(12) 0.70697(7)
C3 C 0.63881(8) 0.75410(12) 0.67063(7)
C4 C 0.66970(8) 0.82851(13) 0.68399(8)
C5 C 0.67671(8) 0.86384(13) 0.73010(8)
H1 H 0.6975 0.9138 0.7377
C6 C 0.65451(8) 0.82913(13) 0.76549(7)
C7 C 0.57977(9) 0.64296(14) 0.69517(8)
H2 H 0.6020 0.5919 0.7006
H3 H 0.5589 0.6454 0.6609
H4 H 0.5550 0.6420 0.7164
C8 C 0.69809(9) 0.87051(15) 0.64954(9)
H5 H 0.7212 0.9159 0.6668
H6 H 0.6711 0.8938 0.6215
H7 H 0.7203 0.8290 0.6381
C9 C 0.66315(10) 0.86995(16) 0.81484(8)
H8 H 0.6814 0.9241 0.8148
H9 H 0.6856 0.8333 0.8399
H10 H 0.6281 0.8790 0.8220
C10 C 0.63537(8) 0.61431(14) 0.61225(8)
C11 C 0.59776(10) 0.56675(15) 0.57677(8)
C12 C 0.60414(12) 0.48026(17) 0.57224(10)
H11 H 0.5780 0.4505 0.5481
C13 C 0.64701(13) 0.43600(16) 0.60150(11)
C14 C 0.68368(11) 0.48115(16) 0.63628(10)
H12 H 0.7136 0.4525 0.6568
C15 C 0.67857(9) 0.56710(15) 0.64255(8)
C16 C 0.54827(10) 0.60772(17) 0.54371(9)
H13 H 0.5589 0.6404 0.5184
H14 H 0.5315 0.6452 0.5631
H15 H 0.5223 0.5642 0.5283
C17 C 0.72130(9) 0.60961(17) 0.68178(10)
H16 H 0.7063 0.6244 0.7092
H17 H 0.7335 0.6608 0.6685
H18 H 0.7520 0.5714 0.6932
C18 C 0.61434(9) 0.76985(14) 0.57041(8)
C19 C 0.57375(9) 0.83316(15) 0.56385(9)
C20 C 0.55860(11) 0.88067(17) 0.52129(10)
H19 H 0.5306 0.9211 0.5182
C21 C 0.58258(14) 0.8713(2) 0.48340(11)
C22 C 0.62281(14) 0.8114(2) 0.48929(10)
H20 H 0.6406 0.8044 0.4640
C23 C 0.63855(11) 0.76022(16) 0.53123(9)
C24 C 0.54400(11) 0.84956(18) 0.60254(10)
H21 H 0.5677 0.8801 0.6299
H22 H 0.5333 0.7959 0.6143
H23 H 0.5117 0.8834 0.5886
H24 H 0.5649 0.9832 0.4440
H25 H 0.5307 0.9064 0.4187
H26 H 0.5908 0.9144 0.4177
C25 C 0.68217(14) 0.6962(2) 0.53342(12)
H27 H 0.6663 0.6397 0.5297
H28 H 0.7091 0.7002 0.5650
H29 H 0.6996 0.7068 0.5070
C26 C 0.59949(7) 0.71628(12) 0.79129(7)
C27 C 0.54695(7) 0.73769(12) 0.79377(7)
C28 C 0.52127(8) 0.69817(12) 0.82657(7)
C29 C 0.55196(8) 0.63689(13) 0.85813(8)
C30 C 0.60477(8) 0.61900(14) 0.85694(8)
H30 H 0.6249 0.5792 0.8795
C31 C 0.62922(8) 0.65690(13) 0.82414(8)
C32 C 0.51732(8) 0.80435(14) 0.75922(8)
H31 H 0.5250 0.8597 0.7746
H32 H 0.4784 0.7935 0.7515
H33 H 0.5293 0.8032 0.7291
C33 C 0.52935(9) 0.59219(15) 0.89562(9)
H34 H 0.5577 0.5579 0.9168
H35 H 0.4993 0.5558 0.8789
H36 H 0.5163 0.6338 0.9154
C34 C 0.68653(8) 0.63449(16) 0.82408(9)
H37 H 0.7101 0.6831 0.8351
H38 H 0.6878 0.6189 0.7909
H39 H 0.6989 0.5870 0.8462
C35 C 0.44524(8) 0.81574(13) 0.83447(7)
C36 C 0.39440(8) 0.85100(14) 0.80932(8)
C37 C 0.38226(9) 0.93494(15) 0.81456(9)
H40 H 0.3479 0.9556 0.7971
C38 C 0.41834(10) 0.98994(15) 0.84435(10)
C39 C 0.46775(9) 0.95690(15) 0.86932(9)
H41 H 0.4933 0.9928 0.8902
C40 C 0.48148(8) 0.87312(14) 0.86512(8)
C41 C 0.35220(9) 0.79899(17) 0.77429(9)
H42 H 0.3358 0.7594 0.7928
H43 H 0.3692 0.7677 0.7524
H44 H 0.3242 0.8361 0.7549
C42 C 0.40422(13) 1.08091(18) 0.85052(13)
H45 H 0.3947 1.0878 0.8817
H46 H 0.3734 1.0973 0.8236
H47 H 0.4354 1.1166 0.8503
C43 C 0.53562(9) 0.84470(16) 0.89653(9)
H48 H 0.5607 0.8366 0.8760
H49 H 0.5312 0.7915 0.9126
H50 H 0.5501 0.8875 0.9214
C44 C 0.41845(8) 0.64734(14) 0.82241(8)
C45 C 0.41136(9) 0.58640(14) 0.78448(9)
C46 C 0.37464(10) 0.52052(15) 0.78098(11)
H51 H 0.3712 0.4808 0.7553
C47 C 0.34307(10) 0.51071(17) 0.81345(11)
C48 C 0.34890(10) 0.57020(18) 0.85006(11)
H52 H 0.3274 0.5654 0.8727
C49 C 0.38520(9) 0.63705(16) 0.85496(9)
C50 C 0.44078(11) 0.59403(17) 0.74479(11)
H53 H 0.4271 0.5515 0.7196
H54 H 0.4796 0.5853 0.7589
H55 H 0.4348 0.6502 0.7302
C51 C 0.30352(15) 0.4383(2) 0.80875(16)
H56 H 0.3181 0.3963 0.8340
H57 H 0.2979 0.4125 0.7764
H58 H 0.2690 0.4594 0.8128
C52 C 0.38916(11) 0.6976(2) 0.89693(10)
H59 H 0.3730 0.7516 0.8842
H60 H 0.4272 0.7061 0.9141
H61 H 0.3698 0.6744 0.9196
C53 C 0.65367(18) 0.3419(2) 0.59580(15)
H62 H 0.6207 0.3193 0.5755
H63 H 0.6829 0.3285 0.5816
H64 H 0.6601 0.3155 0.6273
C54 C 0.5659(2) 0.9241(3) 0.43725(15)
C55 C 0.69141(14) 0.1310(2) 0.55256(13)
H65 H 0.7022 0.1690 0.5812
H66 H 0.7244 0.1063 0.5462
C56 C 0.65490(16) 0.0645(2) 0.56129(14)
H67 H 0.6641 0.0477 0.5961
H68 H 0.6562 0.0143 0.5409
C57 C 0.60024(15) 0.1066(2) 0.54635(14)
H69 H 0.5708 0.0648 0.5363
H70 H 0.5937 0.1415 0.5732
C58 C 0.60511(14) 0.1596(2) 0.50423(11)
H71 H 0.5901 0.1296 0.4730
H72 H 0.5852 0.2131 0.5036
K1 K 0.70879(2) 0.25536(4) 0.449194(18)
O1 O 0.66113(9) 0.17534(16) 0.51096(8)
O2 O 0.6130(2) 0.3337(4) 0.4042(2)
C59 C 0.5702(2) 0.2788(5) 0.3817(3)
H73 H 0.5411 0.3111 0.3591
H74 H 0.5550 0.2527 0.4069
C60 C 0.5907(3) 0.2118(6) 0.3540(2)
H75 H 0.5603 0.1763 0.3360
H76 H 0.6077 0.2380 0.3299
O3 O 0.6295(3) 0.1610(4) 0.38738(19)
C61 C 0.6495(4) 0.0954(6) 0.3625(3)
H77 H 0.6669 0.1196 0.3383
H78 H 0.6193 0.0589 0.3451
C62 C 0.6898(4) 0.0448(5) 0.3998(3)
H79 H 0.6743 0.0292 0.4272
H80 H 0.6989 -0.0075 0.3847
O4 O 0.7372(3) 0.0943(5) 0.4174(3)
C63 C 0.7755(4) 0.0494(4) 0.4533(3)
H81 H 0.7883 -0.0003 0.4383
H82 H 0.7590 0.0296 0.4792
C64 C 0.8222(3) 0.1068(5) 0.4747(3)
H83 H 0.8517 0.0750 0.4972
H84 H 0.8364 0.1313 0.4484
O5 O 0.8036(2) 0.1717(4) 0.5007(2)
C65 C 0.8461(2) 0.2261(5) 0.5227(3)
H85 H 0.8601 0.2547 0.4974
H86 H 0.8761 0.1940 0.5443
C66 C 0.8247(2) 0.2891(5) 0.5517(2)
H87 H 0.8068 0.2600 0.5742
H88 H 0.8547 0.3234 0.5715
O6 O 0.78667(18) 0.3422(4) 0.51932(18)
C67 C 0.7676(3) 0.4048(5) 0.5461(3)
H89 H 0.7982 0.4394 0.5647
H90 H 0.7499 0.3784 0.5695
C68 C 0.7275(3) 0.4598(4) 0.5104(3)
H91 H 0.7151 0.5064 0.5280
H92 H 0.7444 0.4840 0.4858
O7 O 0.6831(2) 0.4075(3) 0.4873(2)
C69 C 0.6411(3) 0.4530(4) 0.4554(3)
H93 H 0.6547 0.4793 0.4292
H94 H 0.6284 0.4982 0.4737
C70 C 0.5955(2) 0.3950(4) 0.4334(3)
H95 H 0.5830 0.3667 0.4597
H96 H 0.5649 0.4274 0.4130
O8 O 0.7437(5) 0.3292(8) 0.3790(4)
C71 C 0.7833(3) 0.2825(4) 0.3646(3)
H97 H 0.7805 0.2224 0.3727
H98 H 0.8197 0.3029 0.3820
C72 C 0.7746(3) 0.2927(4) 0.3113(3)
H99 H 0.7522 0.2465 0.2931
H100 H 0.8094 0.2947 0.3022
C73 C 0.7452(7) 0.3767(8) 0.3015(5)
H101 H 0.7713 0.4238 0.3054
H102 H 0.7210 0.3783 0.2681
C74 C 0.7143(4) 0.3818(7) 0.3379(3)
H103 H 0.6772 0.3604 0.3244
H104 H 0.7123 0.4407 0.3486
K2 K 0.55213(2) 0.23132(3) 0.741903(19)
O9 O 0.64963(15) 0.2857(2) 0.7204(2)
C75 C 0.67288(19) 0.3574(3) 0.7464(2)
H105 H 0.7016 0.3799 0.7323
H106 H 0.6892 0.3429 0.7810
C76 C 0.62919(18) 0.4223(3) 0.74271(19)
H107 H 0.6450 0.4759 0.7575
H108 H 0.6103 0.4327 0.7080
O10 O 0.59257(15) 0.3903(2) 0.76809(15)
C77 C 0.55128(19) 0.4505(2) 0.76918(18)
H109 H 0.5302 0.4638 0.7355
H110 H 0.5678 0.5031 0.7850
C78 C 0.5152(2) 0.4133(3) 0.79744(17)
H111 H 0.5370 0.3915 0.8292
H112 H 0.4903 0.4569 0.8040
O11 O 0.48515(16) 0.3469(2) 0.76939(13)
C79 C 0.4476(2) 0.3096(3) 0.7925(2)
H113 H 0.4216 0.3523 0.7978
H114 H 0.4669 0.2857 0.8246
C80 C 0.41834(17) 0.2411(3) 0.7591(2)
H115 H 0.3880 0.2193 0.7712
H116 H 0.4035 0.2635 0.7257
O12 O 0.45589(14) 0.1757(2) 0.75847(16)
C81 C 0.4320(2) 0.1055(3) 0.7298(3)
H117 H 0.4182 0.1223 0.6951
H118 H 0.4014 0.0837 0.7415
C82 C 0.47511(19) 0.0387(3) 0.73473(16)
H119 H 0.4914 0.0259 0.7697
H120 H 0.4592 -0.0137 0.7182
O13 O 0.51538(15) 0.07031(19) 0.71265(13)
C83 C 0.5563(2) 0.0102(2) 0.71301(19)
H121 H 0.5400 -0.0421 0.6966
H122 H 0.5757 -0.0037 0.7471
C84 C 0.5949(2) 0.0463(2) 0.68667(17)
H123 H 0.6209 0.0025 0.6826
H124 H 0.5748 0.0659 0.6538
O14 O 0.62327(16) 0.1147(2) 0.71401(13)
C85 C 0.66199(19) 0.1493(3) 0.69151(19)
H125 H 0.6439 0.1677 0.6578
H126 H 0.6893 0.1062 0.6897
C86 C 0.68894(16) 0.2228(3) 0.72097(18)
H127 H 0.7057 0.2050 0.7550
H128 H 0.7177 0.2453 0.7069
O15 O 0.5947(6) 0.1984(9) 0.8405(7)
C87 C 0.6509(6) 0.1798(9) 0.8516(6)
H129 H 0.6722 0.2302 0.8654
H130 H 0.6611 0.1632 0.8215
C88 C 0.6624(5) 0.1111(9) 0.8871(4)
H131 H 0.6739 0.1325 0.9210
H132 H 0.6906 0.0729 0.8811
C89 C 0.6072(7) 0.0672(11) 0.8768(8)
H133 H 0.6019 0.0280 0.8488
H134 H 0.6029 0.0361 0.9059
C90 C 0.5691(7) 0.1401(12) 0.8652(10)
H135 H 0.5338 0.1223 0.8439
H136 H 0.5634 0.1652 0.8954
O16 O 0.5005(6) 0.2837(8) 0.6507(5)
C91 C 0.5211(4) 0.3305(6) 0.6163(3)
H137 H 0.5147 0.3003 0.5847
H138 H 0.5603 0.3410 0.6290
C92 C 0.4906(3) 0.4093(6) 0.6106(4)
H139 H 0.4874 0.4343 0.5780
H140 H 0.5081 0.4505 0.6361
C93 C 0.4360(3) 0.3827(6) 0.6166(5)
H141 H 0.4226 0.4232 0.6373
H142 H 0.4092 0.3784 0.5845
C94 C 0.4456(3) 0.3037(6) 0.6393(3)
H143 H 0.4331 0.3042 0.6696
H144 H 0.4248 0.2603 0.6172
O17 O 0.9189(4) 0.1842(6) 0.4076(3)
C95 C 0.9553(4) 0.2399(5) 0.4360(3)
H145 H 0.9356 0.2846 0.4487
H146 H 0.9772 0.2668 0.4160
C96 C 0.9908(4) 0.1938(5) 0.4770(3)
H147 H 1.0289 0.2112 0.4816
H148 H 0.9802 0.2046 0.5076
C97 C 0.9841(5) 0.1049(6) 0.4639(3)
H149 H 0.9709 0.0731 0.4886
H150 H 1.0188 0.0802 0.4615
C98 C 0.9431(4) 0.1030(5) 0.4150(3)
H151 H 0.9609 0.0899 0.3887
H152 H 0.9153 0.0595 0.4148
O18 O 0.6051(3) 0.1459(3) -0.0028(2)
C99 C 0.6539(4) 0.1172(7) 0.0266(3)
H153 H 0.6706 0.1613 0.0504
H154 H 0.6790 0.1045 0.0062
C100 C 0.6447(3) 0.0392(7) 0.0534(3)
H155 H 0.6422 0.0522 0.0869
H156 H 0.6734 -0.0032 0.0548
C101 C 0.5907(4) 0.0104(8) 0.0208(7)
H157 H 0.5960 -0.0248 -0.0064
H158 H 0.5704 -0.0226 0.0399
C102 C 0.5620(4) 0.0874(7) 0.0023(4)
H159 H 0.5425 0.1098 0.0256
H160 H 0.5357 0.0776 -0.0296
O19 O 0.8667(3) 0.8678(7) 0.5788(3)
C103 C 0.8542(6) 0.8598(15) 0.5258(5)
H161 H 0.8586 0.9138 0.5099
H162 H 0.8764 0.8158 0.5156
C104 C 0.7987(5) 0.8356(8) 0.5162(4)
H163 H 0.7947 0.7768 0.5264
H164 H 0.7795 0.8425 0.4813
C105 C 0.7782(5) 0.9008(9) 0.5497(5)
H165 H 0.7790 0.9593 0.5379
H166 H 0.7415 0.8871 0.5527
C106 C 0.8184(5) 0.8863(10) 0.5940(4)
H167 H 0.8084 0.8383 0.6121
H168 H 0.8236 0.9368 0.6152
O20 O 0.2259(8) 0.7185(9) 0.8388(5)
C107 C 0.2188(7) 0.7235(10) 0.8887(5)
H169 H 0.1855 0.6939 0.8909
H170 H 0.2502 0.6987 0.9127
C108 C 0.2150(9) 0.8091(10) 0.8968(5)
H171 H 0.2502 0.8302 0.9166
H172 H 0.1877 0.8190 0.9153
C109 C 0.1991(8) 0.8563(9) 0.8491(6)
H173 H 0.1595 0.8636 0.8377
H174 H 0.2168 0.9121 0.8518
C110 C 0.2184(8) 0.8027(11) 0.8183(5)
H175 H 0.2532 0.8243 0.8142
H176 H 0.1923 0.8011 0.7856
O21? O 0.6427(5) 0.2289(8) 0.7154(5)
C111? C 0.6846(7) 0.2858(11) 0.7366(8)
H177? H 0.7089 0.2934 0.7148
H178? H 0.7062 0.2639 0.7684
C112? C 0.6585(11) 0.3700(11) 0.7439(11)
H179? H 0.6866 0.4128 0.7568
H180? H 0.6351 0.3905 0.7125
O22? O 0.6273(6) 0.3549(9) 0.7777(5)
C113? C 0.6057(7) 0.4300(10) 0.7908(8)
H181? H 0.5873 0.4614 0.7609
H182? H 0.6352 0.4656 0.8103
C114? C 0.5658(6) 0.4109(12) 0.8203(6)
H183? H 0.5833 0.3753 0.8487
H184? H 0.5541 0.4639 0.8327
O23? O 0.5207(5) 0.3687(10) 0.7910(5)
C115? C 0.4812(6) 0.3531(11) 0.8168(6)
H185? H 0.4693 0.4065 0.8286
H186? H 0.4960 0.3161 0.8452
C116? C 0.4332(7) 0.3096(12) 0.7802(11)
H187? H 0.4009 0.3091 0.7933
H188? H 0.4240 0.3400 0.7486
O24? O 0.4499(6) 0.2265(9) 0.7738(5)
C117? C 0.4101(6) 0.1839(11) 0.7384(7)
H189? H 0.4050 0.2111 0.7061
H190? H 0.3752 0.1851 0.7473
C118? C 0.4295(10) 0.0924(12) 0.7366(14)
H191? H 0.4399 0.0682 0.7699
H192? H 0.4002 0.0576 0.7161
O25? O 0.4744(6) 0.0938(8) 0.7163(5)
C119? C 0.5034(7) 0.0173(10) 0.7246(8)
H193? H 0.4783 -0.0307 0.7151
H194? H 0.5220 0.0116 0.7598
C120? C 0.5444(7) 0.0167(12) 0.6947(9)
H195? H 0.5613 -0.0396 0.6959
H196? H 0.5267 0.0305 0.6601
O26? O 0.5844(5) 0.0785(8) 0.7153(4)
C121? C 0.6189(7) 0.0914(11) 0.6847(7)
H197? H 0.5987 0.1177 0.6537
H198? H 0.6334 0.0368 0.6770
C122? C 0.6651(7) 0.1482(10) 0.7104(10)
H199? H 0.6832 0.1251 0.7430
H200? H 0.6920 0.1528 0.6911
O27? O 0.6458(10) 0.2667(15) 0.7125(12)
C123? C 0.6778(10) 0.3292(15) 0.7419(12)
H201? H 0.7061 0.3484 0.7263
H202? H 0.6958 0.3052 0.7743
C124? C 0.6435(10) 0.4026(13) 0.7483(10)
H203? H 0.6668 0.4486 0.7656
H204? H 0.6230 0.4238 0.7159
O28? O 0.6072(9) 0.3774(15) 0.7755(9)
C125? C 0.5740(9) 0.4436(13) 0.7834(9)
H205? H 0.5529 0.4664 0.7516
H206? H 0.5966 0.4895 0.8017
C126? C 0.5363(8) 0.4115(15) 0.8121(8)
H207? H 0.5570 0.3801 0.8411
H208? H 0.5181 0.4594 0.8235
O29? O 0.4973(9) 0.3581(18) 0.7822(7)
C127? C 0.4638(9) 0.3216(14) 0.8096(8)
H209? H 0.4429 0.3661 0.8209
H210? H 0.4865 0.2926 0.8387
C128? C 0.4259(8) 0.2599(13) 0.7781(8)
H211? H 0.3972 0.2439 0.7940
H212? H 0.4085 0.2860 0.7461
O30? O 0.4549(10) 0.1874(15) 0.7708(9)
C129? C 0.4228(9) 0.1365(16) 0.7330(10)
H213? H 0.4140 0.1676 0.7017
H214? H 0.3885 0.1214 0.7409
C130? C 0.4545(9) 0.0581(13) 0.7289(9)
H215? H 0.4689 0.0328 0.7616
H216? H 0.4308 0.0164 0.7078
O31? O 0.4975(8) 0.0803(13) 0.7087(9)
C131? C 0.5324(7) 0.0114(13) 0.7093(10)
H217? H 0.5113 -0.0377 0.6933
H218? H 0.5503 -0.0040 0.7435
C132? C 0.5739(8) 0.0335(14) 0.6832(10)
H219? H 0.5967 -0.0163 0.6819
H220? H 0.5559 0.0504 0.6492
O32? O 0.6068(8) 0.1000(14) 0.7071(8)
C133? C 0.6424(8) 0.1287(13) 0.6793(8)
H221? H 0.6215 0.1531 0.6480
H222? H 0.6643 0.0814 0.6722
C134? C 0.6787(7) 0.1949(12) 0.7097(9)
H223? H 0.6956 0.1729 0.7428
H224? H 0.7078 0.2106 0.6941
O33? O 0.5927(7) 0.1786(12) 0.8345(7)
C135? C 0.6476(6) 0.1562(11) 0.8389(5)
H225? H 0.6514 0.1326 0.8076
H226? H 0.6709 0.2067 0.8468
C136? C 0.6636(7) 0.0953(12) 0.8768(7)
H227? H 0.6857 0.1219 0.9070
H228? H 0.6852 0.0502 0.8668
C137? C 0.6123(7) 0.0599(12) 0.8851(7)
H229? H 0.6021 0.0068 0.8668
H230? H 0.6162 0.0492 0.9203
C138? C 0.5722(8) 0.1267(15) 0.8666(11)
H231? H 0.5373 0.1015 0.8489
H232? H 0.5664 0.1605 0.8941
O34? O 0.4914(9) 0.2946(10) 0.6592(5)
C139? C 0.5062(7) 0.2500(8) 0.6215(4)
H233? H 0.4849 0.1974 0.6146
H234? H 0.5449 0.2343 0.6326
C140? C 0.4977(5) 0.2975(6) 0.5779(4)
H235? H 0.4752 0.2666 0.5495
H236? H 0.5323 0.3136 0.5710
C141? C 0.4686(6) 0.3725(8) 0.5906(4)
H237? H 0.4291 0.3657 0.5771
H238? H 0.4801 0.4240 0.5764
C142? C 0.4818(7) 0.3803(8) 0.6457(4)
H239? H 0.5142 0.4155 0.6587
H240? H 0.4510 0.4035 0.6567
O35? O 0.1985(6) 0.6991(9) 0.8574(7)
C143? C 0.1834(10) 0.7687(13) 0.8834(8)
H241? H 0.1941 0.7560 0.9188
H242? H 0.1436 0.7746 0.8733
C144? C 0.2075(11) 0.8482(12) 0.8753(9)
H243? H 0.2307 0.8705 0.9063
H244? H 0.1792 0.8902 0.8613
C145? C 0.2391(9) 0.8292(11) 0.8415(8)
H245? H 0.2284 0.8662 0.8124
H246? H 0.2780 0.8381 0.8571
C146? C 0.2292(13) 0.7410(14) 0.8269(11)
H247? H 0.2641 0.7118 0.8305
H248? H 0.2086 0.7380 0.7922
O36? O 0.9206(7) 0.1722(11) 0.4227(7)
C147? C 0.9566(7) 0.2325(11) 0.4522(8)
H249? H 0.9478 0.2403 0.4840
H250? H 0.9537 0.2875 0.4354
C148? C 1.0107(5) 0.1979(8) 0.4594(7)
H251? H 1.0285 0.2212 0.4352
H252? H 1.0332 0.2104 0.4927
C149? C 1.0022(5) 0.1089(8) 0.4527(6)
H253? H 1.0195 0.0791 0.4834
H254? H 1.0191 0.0888 0.4270
C150? C 0.9446(5) 0.0903(9) 0.4385(8)
H255? H 0.9323 0.0685 0.4665
H256? H 0.9357 0.0489 0.4115
O37? O 0.6211(4) 0.3711(6) 0.4181(4)
C151? C 0.5708(4) 0.3318(7) 0.3939(4)
H257? H 0.5441 0.3747 0.3779
H258? H 0.5561 0.3004 0.4178
C152? C 0.5825(5) 0.2716(7) 0.3557(4)
H259? H 0.5481 0.2509 0.3340
H260? H 0.6028 0.3012 0.3354
O38? O 0.6127(4) 0.2044(5) 0.3800(3)
C153? C 0.6259(5) 0.1466(8) 0.3466(4)
H261? H 0.6488 0.1742 0.3278
H262? H 0.5926 0.1257 0.3233
C154? C 0.6569(5) 0.0730(8) 0.3771(7)
H263? H 0.6395 0.0564 0.4030
H264? H 0.6578 0.0237 0.3560
O39? O 0.7090(3) 0.1032(6) 0.3975(3)
C155? C 0.7413(5) 0.0390(8) 0.4264(5)
H265? H 0.7445 -0.0099 0.4057
H266? H 0.7246 0.0199 0.4523
C156? C 0.7973(5) 0.0767(9) 0.4492(5)
H267? H 0.8227 0.0324 0.4657
H268? H 0.8120 0.1031 0.4237
O40? O 0.7902(4) 0.1371(6) 0.4830(4)
C157? C 0.8389(5) 0.1735(8) 0.5084(5)
H269? H 0.8566 0.1995 0.4848
H270? H 0.8632 0.1294 0.5265
C158? C 0.8298(6) 0.2399(8) 0.5438(5)
H271? H 0.8100 0.2152 0.5662
H272? H 0.8650 0.2610 0.5637
O41? O 0.8004(4) 0.3052(6) 0.5176(4)
C159? C 0.7902(5) 0.3677(8) 0.5501(5)
H273? H 0.8247 0.3893 0.5712
H274? H 0.7687 0.3437 0.5713
C160? C 0.7586(5) 0.4394(8) 0.5185(6)
H275? H 0.7558 0.4896 0.5384
H276? H 0.7753 0.4557 0.4920
O42? O 0.7061(4) 0.3996(8) 0.4992(4)
C161? C 0.6675(5) 0.4630(9) 0.4804(6)
H277? H 0.6792 0.4970 0.4557
H278? H 0.6635 0.5007 0.5070
C162? C 0.6143(5) 0.4203(9) 0.4572(5)
H279? H 0.6034 0.3844 0.4815
H280? H 0.5858 0.4630 0.4452
O43? O 0.6113(7) 0.3133(9) 0.3932(7)
C163? C 0.5745(6) 0.2487(8) 0.3732(7)
H281? H 0.5438 0.2728 0.3481
H282? H 0.5601 0.2239 0.3993
C164? C 0.6003(7) 0.1811(10) 0.3505(7)
H283? H 0.5725 0.1394 0.3347
H284? H 0.6154 0.2060 0.3248
O44? O 0.6412(6) 0.1408(10) 0.3847(6)
C165? C 0.6681(6) 0.0790(10) 0.3645(6)
H285? H 0.6844 0.1050 0.3399
H286? H 0.6420 0.0357 0.3479
C166? C 0.7117(6) 0.0386(10) 0.4043(6)
H287? H 0.6955 0.0111 0.4285
H288? H 0.7310 -0.0047 0.3901
O45? O 0.7480(6) 0.1014(12) 0.4272(6)
C167? C 0.7915(7) 0.0701(9) 0.4642(7)
H289? H 0.8083 0.0222 0.4513
H290? H 0.7779 0.0495 0.4918
C168? C 0.8333(6) 0.1377(9) 0.4822(7)
H291? H 0.8647 0.1144 0.5068
H292? H 0.8461 0.1608 0.4547
O46? O 0.8076(6) 0.2017(7) 0.5034(6)
C169? C 0.8449(6) 0.2620(8) 0.5267(7)
H293? H 0.8630 0.2870 0.5031
H294? H 0.8729 0.2353 0.5533
C170? C 0.8164(6) 0.3294(8) 0.5475(5)
H295? H 0.7971 0.3039 0.5701
H296? H 0.8431 0.3701 0.5662
O47? O 0.7796(5) 0.3710(8) 0.5101(5)
C171? C 0.7527(7) 0.4362(10) 0.5292(6)
H297? H 0.7790 0.4777 0.5478
H298? H 0.7316 0.4129 0.5509
C172? C 0.7151(5) 0.4770(8) 0.4832(6)
H299? H 0.7002 0.5308 0.4918
H300? H 0.7350 0.4883 0.4583
O48? O 0.6729(5) 0.4179(8) 0.4655(4)
C173? C 0.6299(6) 0.4491(9) 0.4308(6)
H301? H 0.6424 0.4717 0.4030
H302? H 0.6132 0.4958 0.4448
C174? C 0.5879(6) 0.3801(10) 0.4124(7)
H303? H 0.5738 0.3597 0.4398
H304? H 0.5572 0.4032 0.3869
O49? O 0.6606(4) 0.0532(7) 0.0221(4)
C175? C 0.6286(5) -0.0208(7) 0.0240(5)
H305? H 0.6428 -0.0503 0.0556
H306? H 0.6304 -0.0599 -0.0027
C176? C 0.5734(6) 0.0047(10) 0.0191(9)
H307? H 0.5603 -0.0165 0.0468
H308? H 0.5495 -0.0172 -0.0117
C177? C 0.5740(6) 0.0995(9) 0.0188(6)
H309? H 0.5623 0.1222 -0.0149
H310? H 0.5508 0.1232 0.0386
C178? C 0.6299(7) 0.1157(11) 0.0405(8)
H311? H 0.6377 0.1118 0.0766
H312? H 0.6396 0.1728 0.0318
O50? O 0.8504(4) 0.9357(6) 0.5589(3)
C179? C 0.8485(6) 0.8562(13) 0.5302(6)
H313? H 0.8726 0.8565 0.5078
H314? H 0.8537 0.8046 0.5503
C180? C 0.7934(5) 0.8746(9) 0.5067(4)
H315? H 0.7784 0.8347 0.4797
H316? H 0.7890 0.9328 0.4938
C181? C 0.7684(4) 0.8638(7) 0.5471(4)
H317? H 0.7733 0.8066 0.5613
H318? H 0.7298 0.8799 0.5386
C182? C 0.8039(4) 0.9269(6) 0.5775(4)
H319? H 0.7848 0.9814 0.5759
H320? H 0.8148 0.9082 0.6120
O51? O 0.7305(5) 0.3203(8) 0.3670(4)
C183? C 0.7595(4) 0.2939(6) 0.3339(4)
H321? H 0.7461 0.2386 0.3198
H322? H 0.7984 0.2885 0.3507
C184? C 0.7518(7) 0.3574(8) 0.2951(5)
H323? H 0.7189 0.3454 0.2686
H324? H 0.7834 0.3597 0.2811
C185? C 0.7458(3) 0.4380(5) 0.3207(3)
H325? H 0.7814 0.4649 0.3345
H326? H 0.7220 0.4779 0.2982
C186? C 0.7219(6) 0.4105(6) 0.3587(5)
H327? H 0.6827 0.4227 0.3492
H328? H 0.7383 0.4416 0.3893
H329? H 0.6263 0.3118 0.6078
H330? H 0.6898 0.3247 0.6146
H331? H 0.6492 0.3286 0.5612
H332? H 0.5949 0.9637 0.4362
H333? H 0.5329 0.9554 0.4372
H334? H 0.5590 0.8872 0.4086
C187? C 0.65367(18) 0.3419(2) 0.59580(15)
C188? C 0.5659(2) 0.9241(3) 0.43725(15)
loop_
_geom_bond_atom_site_label_1
_geom_bond_atom_site_label_2
_geom_bond_site_symmetry_1
_geom_bond_site_symmetry_2
B1 C3 1_555 1_555
B2 C28 1_555 1_555
C1 C2 1_555 1_555
C2 C3 1_555 1_555
C3 C4 1_555 1_555
C4 C5 1_555 1_555
C5 H1 1_555 1_555
C6 C1 1_555 1_555
C7 C2 1_555 1_555
H2 C7 1_555 1_555
H3 C7 1_555 1_555
H4 C7 1_555 1_555
C8 C4 1_555 1_555
H5 C8 1_555 1_555
H6 C8 1_555 1_555
H7 C8 1_555 1_555
C9 C6 1_555 1_555
H8 C9 1_555 1_555
H9 C9 1_555 1_555
H10 C9 1_555 1_555
C10 B1 1_555 1_555
C11 C10 1_555 1_555
C12 C11 1_555 1_555
H11 C12 1_555 1_555
C13 C12 1_555 1_555
C14 C13 1_555 1_555
H12 C14 1_555 1_555
C15 C10 1_555 1_555
C16 C11 1_555 1_555
H13 C16 1_555 1_555
H14 C16 1_555 1_555
H15 C16 1_555 1_555
C17 C15 1_555 1_555
H16 C17 1_555 1_555
H17 C17 1_555 1_555
H18 C17 1_555 1_555
C18 B1 1_555 1_555
C19 C18 1_555 1_555
C20 C19 1_555 1_555
H19 C20 1_555 1_555
C21 C20 1_555 1_555
C22 C21 1_555 1_555
H20 C22 1_555 1_555
C23 C18 1_555 1_555
C24 C19 1_555 1_555
H21 C24 1_555 1_555
H22 C24 1_555 1_555
H23 C24 1_555 1_555
H24 C54 1_555 1_555
H25 C54 1_555 1_555
H26 C54 1_555 1_555
C25 C23 1_555 1_555
H27 C25 1_555 1_555
H28 C25 1_555 1_555
H29 C25 1_555 1_555
C26 C1 1_555 1_555
C27 C26 1_555 1_555
C28 C27 1_555 1_555
C29 C28 1_555 1_555
C30 C29 1_555 1_555
H30 C30 1_555 1_555
C31 C26 1_555 1_555
C32 C27 1_555 1_555
H31 C32 1_555 1_555
H32 C32 1_555 1_555
H33 C32 1_555 1_555
C33 C29 1_555 1_555
H34 C33 1_555 1_555
H35 C33 1_555 1_555
H36 C33 1_555 1_555
C34 C31 1_555 1_555
H37 C34 1_555 1_555
H38 C34 1_555 1_555
H39 C34 1_555 1_555
C35 B2 1_555 1_555
C36 C35 1_555 1_555
C37 C36 1_555 1_555
H40 C37 1_555 1_555
C38 C37 1_555 1_555
C39 C38 1_555 1_555
H41 C39 1_555 1_555
C40 C35 1_555 1_555
C41 C36 1_555 1_555
H42 C41 1_555 1_555
H43 C41 1_555 1_555
H44 C41 1_555 1_555
C42 C38 1_555 1_555
H45 C42 1_555 1_555
H46 C42 1_555 1_555
H47 C42 1_555 1_555
C43 C40 1_555 1_555
H48 C43 1_555 1_555
H49 C43 1_555 1_555
H50 C43 1_555 1_555
C44 B2 1_555 1_555
C45 C44 1_555 1_555
C46 C45 1_555 1_555
H51 C46 1_555 1_555
C47 C46 1_555 1_555
C48 C47 1_555 1_555
H52 C48 1_555 1_555
C49 C44 1_555 1_555
C50 C45 1_555 1_555
H53 C50 1_555 1_555
H54 C50 1_555 1_555
H55 C50 1_555 1_555
C51 C47 1_555 1_555
H56 C51 1_555 1_555
H57 C51 1_555 1_555
H58 C51 1_555 1_555
C52 C49 1_555 1_555
H59 C52 1_555 1_555
H60 C52 1_555 1_555
H61 C52 1_555 1_555
C53 C13 1_555 1_555
H62 C53 1_555 1_555
H63 C53 1_555 1_555
H64 C53 1_555 1_555
C54 C21 1_555 1_555
C55 H65 1_555 1_555
H66 C55 1_555 1_555
C56 C55 1_555 1_555
H67 C56 1_555 1_555
H68 C56 1_555 1_555
C57 C56 1_555 1_555
H69 C57 1_555 1_555
H70 C57 1_555 1_555
C58 C57 1_555 1_555
H71 C58 1_555 1_555
H72 C58 1_555 1_555
K1 O1 1_555 1_555
O1 C55 1_555 1_555
O2 K1 1_555 1_555
C59 O2 1_555 1_555
H73 C59 1_555 1_555
H74 C59 1_555 1_555
C60 C59 1_555 1_555
H75 C60 1_555 1_555
H76 C60 1_555 1_555
O3 K1 1_555 1_555
C61 O3 1_555 1_555
H77 C61 1_555 1_555
H78 C61 1_555 1_555
C62 C61 1_555 1_555
H79 C62 1_555 1_555
H80 C62 1_555 1_555
O4 K1 1_555 1_555
C63 O4 1_555 1_555
H81 C63 1_555 1_555
H82 C63 1_555 1_555
C64 C63 1_555 1_555
H83 C64 1_555 1_555
H84 C64 1_555 1_555
O5 K1 1_555 1_555
C65 O5 1_555 1_555
H85 C65 1_555 1_555
H86 C65 1_555 1_555
C66 C65 1_555 1_555
H87 C66 1_555 1_555
H88 C66 1_555 1_555
O6 K1 1_555 1_555
C67 O6 1_555 1_555
H89 C67 1_555 1_555
H90 C67 1_555 1_555
C68 C67 1_555 1_555
H91 C68 1_555 1_555
H92 C68 1_555 1_555
O7 K1 1_555 1_555
C69 O7 1_555 1_555
H93 C69 1_555 1_555
H94 C69 1_555 1_555
C70 O2 1_555 1_555
H95 C70 1_555 1_555
H96 C70 1_555 1_555
O8 K1 1_555 1_555
C71 O8 1_555 1_555
H97 C71 1_555 1_555
H98 C71 1_555 1_555
C72 C71 1_555 1_555
H99 C72 1_555 1_555
H100 C72 1_555 1_555
C73 C72 1_555 1_555
H101 C73 1_555 1_555
H102 C73 1_555 1_555
C74 O8 1_555 1_555
H103 C74 1_555 1_555
H104 C74 1_555 1_555
K2 O9 1_555 1_555
O9 C75 1_555 1_555
C75 H105 1_555 1_555
H106 C75 1_555 1_555
C76 C75 1_555 1_555
H107 C76 1_555 1_555
H108 C76 1_555 1_555
O10 K2 1_555 1_555
C77 O10 1_555 1_555
H109 C77 1_555 1_555
H110 C77 1_555 1_555
C78 C77 1_555 1_555
H111 C78 1_555 1_555
H112 C78 1_555 1_555
O11 K2 1_555 1_555
C79 O11 1_555 1_555
H113 C79 1_555 1_555
H114 C79 1_555 1_555
C80 C79 1_555 1_555
H115 C80 1_555 1_555
H116 C80 1_555 1_555
O12 K2 1_555 1_555
C81 O12 1_555 1_555
H117 C81 1_555 1_555
H118 C81 1_555 1_555
C82 C81 1_555 1_555
H119 C82 1_555 1_555
H120 C82 1_555 1_555
O13 K2 1_555 1_555
C83 O13 1_555 1_555
H121 C83 1_555 1_555
H122 C83 1_555 1_555
C84 C83 1_555 1_555
H123 C84 1_555 1_555
H124 C84 1_555 1_555
O14 K2 1_555 1_555
C85 O14 1_555 1_555
H125 C85 1_555 1_555
H126 C85 1_555 1_555
C86 O9 1_555 1_555
H127 C86 1_555 1_555
H128 C86 1_555 1_555
O15 K2 1_555 1_555
C87 O15 1_555 1_555
H129 C87 1_555 1_555
H130 C87 1_555 1_555
C88 C87 1_555 1_555
H131 C88 1_555 1_555
H132 C88 1_555 1_555
C89 C88 1_555 1_555
H133 C89 1_555 1_555
H134 C89 1_555 1_555
C90 O15 1_555 1_555
H135 C90 1_555 1_555
H136 C90 1_555 1_555
O16 K2 1_555 1_555
C91 O16 1_555 1_555
H137 C91 1_555 1_555
H138 C91 1_555 1_555
C92 C91 1_555 1_555
H139 C92 1_555 1_555
H140 C92 1_555 1_555
C93 C92 1_555 1_555
H141 C93 1_555 1_555
H142 C93 1_555 1_555
C94 O16 1_555 1_555
H143 C94 1_555 1_555
H144 C94 1_555 1_555
O17 C95 1_555 1_555
C95 H145 1_555 1_555
H146 C95 1_555 1_555
C96 C95 1_555 1_555
H147 C96 1_555 1_555
H148 C96 1_555 1_555
C97 C96 1_555 1_555
H149 C97 1_555 1_555
H150 C97 1_555 1_555
C98 O17 1_555 1_555
H151 C98 1_555 1_555
H152 C98 1_555 1_555
O18 C99 1_555 1_555
C99 H153 1_555 1_555
H154 C99 1_555 1_555
C100 C99 1_555 1_555
H155 C100 1_555 1_555
H156 C100 1_555 1_555
C101 C100 1_555 1_555
H157 C101 1_555 1_555
H158 C101 1_555 1_555
C102 O18 1_555 1_555
H159 C102 1_555 1_555
H160 C102 1_555 1_555
O19 C103 1_555 1_555
C103 H161 1_555 1_555
H162 C103 1_555 1_555
C104 C103 1_555 1_555
H163 C104 1_555 1_555
H164 C104 1_555 1_555
C105 C104 1_555 1_555
H165 C105 1_555 1_555
H166 C105 1_555 1_555
C106 O19 1_555 1_555
H167 C106 1_555 1_555
H168 C106 1_555 1_555
O20 C107 1_555 1_555
C107 H169 1_555 1_555
H170 C107 1_555 1_555
C108 C107 1_555 1_555
H171 C108 1_555 1_555
H172 C108 1_555 1_555
C109 C108 1_555 1_555
H173 C109 1_555 1_555
H174 C109 1_555 1_555
C110 O20 1_555 1_555
H175 C110 1_555 1_555
H176 C110 1_555 1_555
C5 C6 1_555 1_555
C14 C15 1_555 1_555
C22 C23 1_555 1_555
C30 C31 1_555 1_555
C39 C40 1_555 1_555
C48 C49 1_555 1_555
C58 O1 1_555 1_555
C60 O3 1_555 1_555
C62 O4 1_555 1_555
C64 O5 1_555 1_555
C66 O6 1_555 1_555
C68 O7 1_555 1_555
C69 C70 1_555 1_555
C73 C74 1_555 1_555
C76 O10 1_555 1_555
C78 O11 1_555 1_555
C80 O12 1_555 1_555
C82 O13 1_555 1_555
C84 O14 1_555 1_555
C85 C86 1_555 1_555
C89 C90 1_555 1_555
C93 C94 1_555 1_555
C97 C98 1_555 1_555
C101 C102 1_555 1_555
C105 C106 1_555 1_555
C109 C110 1_555 1_555

#END
