
#######################################################################
#
#                 Cambridge Crystallographic Data Centre
#                                CCDC 
#
#######################################################################
#
# If this CIF has been generated from an entry in the Cambridge 
# Structural Database, then it will include bibliographic, chemical, 
# crystal, experimental, refinement or atomic coordinate data resulting 
# from the CCDC's data processing and validation procedures.
#
#######################################################################

data_CARDAD
_chemical_formula_moiety         'C20 H40 K1 O8 1+,0.5(C45 H54 B2 2-)'
_chemical_name_systematic        
'(18-crown-6)-bis(tetrahydrofuran)-potassium(i) hemikis((2-methanidyl-4,6-dimethylphenyl)(hydrido)(tetramesityl)diborate)'
_symmetry_cell_setting           triclinic
_symmetry_space_group_name_H-M   'P -1'
_symmetry_Int_Tables_number      2
_space_group_name_Hall           '-P 1'
loop_
_symmetry_equiv_pos_site_id
_symmetry_equiv_pos_as_xyz
1 x,y,z
2 -x,-y,-z
_cell_length_a                   13.0440(7)
_cell_length_b                   13.5218(8)
_cell_length_c                   26.9598(16)
_cell_angle_alpha                92.876(2)
_cell_angle_beta                 98.875(2)
_cell_angle_gamma                100.016(2)
_cell_volume                     4612.08
_exptl_crystal_colour            colorless
_exptl_crystal_description       block
_cell_formula_units_Z            4
loop_
_atom_site_label
_atom_site_type_symbol
_atom_site_fract_x
_atom_site_fract_y
_atom_site_fract_z
B1 B 0.52458(18) 0.77737(17) 0.20748(9)
B2 B 0.29557(19) 0.94308(18) 0.29434(9)
H1 H 0.3089 1.0120 0.3121
C1 C 0.40453(16) 0.81177(15) 0.20870(8)
H2 H 0.3871 0.8607 0.1841
H3 H 0.3452 0.7544 0.2072
C2 C 0.54886(15) 0.82876(15) 0.26642(7)
C3 C 0.45037(15) 0.85900(14) 0.26165(7)
C4 C 0.41323(16) 0.91340(14) 0.29920(8)
C5 C 0.48826(17) 0.94091(15) 0.34351(8)
C6 C 0.58817(17) 0.91494(15) 0.34828(8)
H4 H 0.6363 0.9367 0.3786
C7 C 0.62118(16) 0.85859(15) 0.31075(8)
C8 C 0.60567(16) 0.92491(15) 0.15113(7)
C9 C 0.61371(16) 0.83596(15) 0.17583(7)
C10 C 0.70661(16) 0.79708(15) 0.17290(8)
C11 C 0.78183(17) 0.84045(16) 0.14458(8)
H5 H 0.8437 0.8126 0.1440
C12 C 0.76842(17) 0.92285(16) 0.11741(8)
C13 C 0.68071(17) 0.96464(16) 0.12212(8)
H6 H 0.6710 1.0228 0.1049
C14 C 0.51648(19) 0.98188(17) 0.15384(9)
H7 H 0.5362 1.0499 0.1432
H8 H 0.5026 0.9863 0.1885
H9 H 0.4528 0.9464 0.1315
C15 C 0.73053(18) 0.70490(17) 0.19923(9)
H10 H 0.6979 0.6439 0.1774
H11 H 0.7020 0.7029 0.2308
H12 H 0.8071 0.7084 0.2065
C16 C 0.8475(2) 0.9661(2) 0.08492(10)
H13 H 0.8278 1.0270 0.0710
H14 H 0.8479 0.9162 0.0573
H15 H 0.9180 0.9830 0.1054
C17 C 0.46777(17) 0.62052(16) 0.14068(8)
C18 C 0.49800(16) 0.65502(15) 0.19209(8)
C19 C 0.49069(17) 0.57876(16) 0.22652(8)
C20 C 0.45882(19) 0.47698(17) 0.20969(10)
H16 H 0.4547 0.4284 0.2339
C21 C 0.4332(2) 0.44450(17) 0.15945(11)
C22 C 0.4376(2) 0.51844(17) 0.12523(10)
H17 H 0.4193 0.4985 0.0902
C23 C 0.4645(2) 0.69344(17) 0.09989(8)
H18 H 0.5364 0.7181 0.0939
H19 H 0.4336 0.7504 0.1106
H20 H 0.4214 0.6590 0.0688
C24 C 0.5168(2) 0.60387(18) 0.28263(9)
H21 H 0.5056 0.5418 0.2999
H22 H 0.4711 0.6488 0.2928
H23 H 0.5908 0.6374 0.2917
C25 C 0.3980(3) 0.3336(2) 0.14190(14)
H24 H 0.4442 0.2942 0.1612
H25 H 0.4019 0.3237 0.1060
H26 H 0.3251 0.3112 0.1471
C26 C 0.22333(16) 0.77806(16) 0.34346(8)
C27 C 0.21451(17) 0.87405(17) 0.32668(8)
C28 C 0.1313(2) 0.9164(2) 0.34238(9)
C29 C 0.0648(2) 0.8666(2) 0.37288(10)
H27 H 0.0092 0.8970 0.3819
C30 C 0.0776(2) 0.7745(2) 0.39036(9)
C31 C 0.15631(19) 0.73107(19) 0.37480(9)
H28 H 0.1657 0.6670 0.3856
C32 C 0.30225(18) 0.71884(16) 0.32726(10)
H29 H 0.3736 0.7509 0.3434
H30 H 0.2976 0.7173 0.2906
H31 H 0.2867 0.6498 0.3373
C33 C 0.1109(3) 1.0169(3) 0.32573(13)
H32 H 0.0433 1.0283 0.3343
H33 H 0.1082 1.0173 0.2892
H34 H 0.1677 1.0704 0.3428
C34 C 0.0065(3) 0.7236(3) 0.42508(12)
H35 H 0.0119 0.6522 0.4254
H36 H -0.0668 0.7295 0.4129
H37 H 0.0286 0.7562 0.4593
C35 C 0.16345(17) 0.90003(15) 0.20273(8)
C36 C 0.24795(16) 0.96050(15) 0.23520(8)
C37 C 0.29974(17) 1.04557(15) 0.21415(8)
C38 C 0.26997(18) 1.06446(15) 0.16397(8)
H38 H 0.3082 1.1211 0.1511
C39 C 0.18712(18) 1.00381(16) 0.13250(8)
C40 C 0.13336(18) 0.92185(16) 0.15266(8)
H39 H 0.0748 0.8794 0.1322
C41 C 0.10224(19) 0.80502(17) 0.21895(9)
H40 H 0.0507 0.7705 0.1903
H41 H 0.0653 0.8225 0.2462
H42 H 0.1511 0.7605 0.2308
C42 C 0.38987(19) 1.12008(16) 0.24509(9)
H43 H 0.4247 1.1648 0.2228
H44 H 0.4409 1.0835 0.2630
H45 H 0.3623 1.1601 0.2695
C43 C 0.1571(2) 1.0260(2) 0.07797(10)
H46 H 0.1599 1.0986 0.0761
H47 H 0.0854 0.9900 0.0647
H48 H 0.2067 1.0037 0.0579
C44 C 0.4630(2) 0.99912(18) 0.38846(9)
H49 H 0.5206 1.0037 0.4170
H50 H 0.3972 0.9641 0.3978
H51 H 0.4549 1.0671 0.3796
C45 C 0.73155(17) 0.83330(18) 0.32018(9)
H52 H 0.7270 0.7632 0.3287
H53 H 0.7750 0.8782 0.3481
H54 H 0.7637 0.8423 0.2898
C46 C 0.5343(2) 0.25260(19) 0.54246(11)
H55 H 0.5792 0.2106 0.5615
H56 H 0.4947 0.2123 0.5116
C47 C 0.4592(2) 0.2838(2) 0.57395(11)
H57 H 0.4149 0.2236 0.5841
H58 H 0.4987 0.3242 0.6048
C48 C 0.3149(2) 0.3670(2) 0.57139(10)
H59 H 0.3477 0.4059 0.6037
H60 H 0.2695 0.3047 0.5788
C49 C 0.2501(2) 0.4279(2) 0.53964(10)
H61 H 0.2259 0.3932 0.5055
H62 H 0.1871 0.4358 0.5547
C50 C 0.2542(2) 0.5850(2) 0.50514(11)
H63 H 0.1939 0.5994 0.5207
H64 H 0.2259 0.5481 0.4718
C51 C 0.3248(2) 0.6821(2) 0.49863(11)
H65 H 0.2830 0.7278 0.4806
H66 H 0.3592 0.7160 0.5319
K1 K 0.5000 0.5000 0.5000
O1 O 0.59834(14) 0.34045(12) 0.52933(7)
O2 O 0.39448(13) 0.34206(13) 0.54540(6)
O3 O 0.31221(12) 0.52445(13) 0.53633(6)
O4 O 0.3402(9) 0.3999(8) 0.4269(4)
C52 C 0.3206(9) 0.2933(8) 0.4165(3)
H67 H 0.2478 0.2693 0.3983
H68 H 0.3298 0.2593 0.4481
C53 C 0.4004(4) 0.2725(3) 0.38416(19)
H69 H 0.4660 0.2608 0.4050
H70 H 0.3714 0.2134 0.3597
C54 C 0.4197(7) 0.3676(6) 0.3579(3)
H71 H 0.4963 0.3956 0.3627
H72 H 0.3930 0.3539 0.3213
C55 C 0.3628(8) 0.4397(7) 0.3804(4)
H73 H 0.4074 0.5077 0.3868
H74 H 0.2967 0.4441 0.3577
C46A C 0.4657(2) 0.74740(19) 0.45754(11)
H55A H 0.4208 0.7894 0.4385
H56A H 0.5053 0.7877 0.4884
C47A C 0.5408(2) 0.7162(2) 0.42605(11)
H57A H 0.5851 0.7764 0.4159
H58A H 0.5013 0.6758 0.3952
C48A C 0.6851(2) 0.6330(2) 0.42861(10)
H59A H 0.6523 0.5941 0.3963
H60A H 0.7305 0.6953 0.4212
C49A C 0.7499(2) 0.5721(2) 0.46036(10)
H61A H 0.7741 0.6068 0.4945
H62A H 0.8129 0.5642 0.4453
C50A C 0.7458(2) 0.4150(2) 0.49486(11)
H63A H 0.8061 0.4006 0.4793
H64A H 0.7741 0.4519 0.5282
C51A C 0.6752(2) 0.3179(2) 0.50137(11)
H65A H 0.7170 0.2722 0.5194
H66A H 0.6408 0.2840 0.4681
O1A O 0.40166(14) 0.65955(12) 0.47067(7)
O2A O 0.60552(13) 0.65794(13) 0.45460(6)
O3A O 0.68779(12) 0.47555(13) 0.46367(6)
O4A O 0.6598(9) 0.6001(8) 0.5731(4)
C52A C 0.6794(9) 0.7067(8) 0.5835(3)
H67A H 0.7522 0.7307 0.6017
H68A H 0.6702 0.7407 0.5519
C53A C 0.5996(4) 0.7275(3) 0.61584(19)
H69A H 0.5340 0.7392 0.5950
H70A H 0.6286 0.7866 0.6403
C54A C 0.5803(7) 0.6324(6) 0.6421(3)
H71A H 0.5037 0.6044 0.6373
H72A H 0.6070 0.6461 0.6787
C55A C 0.6372(8) 0.5603(7) 0.6196(4)
H73A H 0.5926 0.4923 0.6132
H74A H 0.7033 0.5559 0.6423
K2 K 1.0000 0.5000 0.0000
O5 O 0.8582(7) 0.4984(5) -0.0886(3)
C56 C 0.8387(8) 0.4099(6) -0.1215(3)
H75 H 0.9018 0.4046 -0.1370
H76 H 0.7788 0.4116 -0.1487
C57 C 0.8124(7) 0.3190(7) -0.0906(4)
H77 H 0.7507 0.3254 -0.0742
H78 H 0.7949 0.2559 -0.1129
O6 O 0.9001(6) 0.3169(5) -0.0544(2)
C58 C 0.8768(8) 0.2404(7) -0.0211(4)
H79 H 0.8502 0.1748 -0.0409
H80 H 0.8208 0.2559 -0.0027
C59 C 0.9733(10) 0.2329(6) 0.0161(3)
H81 H 0.9566 0.1766 0.0373
H82 H 1.0304 0.2193 -0.0021
O7 O 1.0069(8) 0.3240(6) 0.0466(3)
C60 C 1.0990(11) 0.3227(7) 0.0812(4)
H83 H 1.1579 0.3166 0.0628
H84 H 1.0876 0.2636 0.1012
C61 C 1.1272(11) 0.4160(7) 0.1154(4)
H85 H 1.0705 0.4195 0.1355
H86 H 1.1930 0.4141 0.1389
O8 O 0.8297(3) 0.5437(4) 0.03988(17)
C62 C 0.8271(4) 0.6387(4) 0.0655(2)
H87 H 0.8917 0.6884 0.0639
H88 H 0.8203 0.6310 0.1012
C63 C 0.7303(4) 0.6706(5) 0.0369(3)
H89 H 0.7051 0.7223 0.0568
H90 H 0.7427 0.6954 0.0040
C64 C 0.6561(4) 0.5707(5) 0.0309(2)
H91 H 0.6271 0.5567 0.0622
H92 H 0.5970 0.5686 0.0028
C65 C 0.7254(4) 0.4974(5) 0.0198(2)
H93 H 0.7056 0.4339 0.0357
H94 H 0.7181 0.4818 -0.0170
O5A O 1.1418(7) 0.5016(5) 0.0886(3)
C56A C 1.1613(8) 0.5901(6) 0.1215(3)
H75A H 1.0982 0.5954 0.1370
H76A H 1.2212 0.5884 0.1487
C57A C 1.1876(7) 0.6810(7) 0.0906(4)
H77A H 1.2493 0.6746 0.0742
H78A H 1.2051 0.7441 0.1129
O6A O 1.0999(6) 0.6831(5) 0.0544(2)
C58A C 1.1232(8) 0.7596(7) 0.0211(4)
H79A H 1.1498 0.8252 0.0409
H80A H 1.1792 0.7441 0.0027
C59A C 1.0267(10) 0.7671(6) -0.0161(3)
H81A H 1.0434 0.8234 -0.0373
H82A H 0.9696 0.7807 0.0021
O7A O 0.9931(8) 0.6760(6) -0.0466(3)
C60A C 0.9010(11) 0.6773(7) -0.0812(4)
H83A H 0.8421 0.6834 -0.0628
H84A H 0.9124 0.7364 -0.1012
C61A C 0.8728(11) 0.5840(7) -0.1154(4)
H85A H 0.9295 0.5805 -0.1355
H86A H 0.8070 0.5859 -0.1389
O8A O 1.1703(3) 0.4563(4) -0.03988(17)
C62A C 1.1729(4) 0.3613(4) -0.0655(2)
H87A H 1.1083 0.3116 -0.0639
H88A H 1.1797 0.3690 -0.1012
C63A C 1.2697(4) 0.3294(5) -0.0369(3)
H89A H 1.2949 0.2777 -0.0568
H90A H 1.2573 0.3046 -0.0040
C64A C 1.3439(4) 0.4293(5) -0.0309(2)
H91A H 1.3729 0.4433 -0.0622
H92A H 1.4030 0.4314 -0.0028
C65A C 1.2746(4) 0.5026(5) -0.0198(2)
H93A H 1.2944 0.5661 -0.0357
H94A H 1.2819 0.5182 0.0170
K3 K 0.90419(4) 0.31598(3) 0.26661(2)
O9 O 0.9962(10) 0.1601(11) 0.2419(6)
C66 C 0.9261(7) 0.0735(8) 0.2162(5)
H95 H 0.9639 0.0163 0.2145
H96 H 0.8999 0.0879 0.1813
C67 C 0.8342(7) 0.0465(8) 0.2441(4)
H97 H 0.7888 -0.0173 0.2285
H98 H 0.8607 0.0368 0.2796
O10 O 0.7747(5) 0.1252(6) 0.2420(2)
C68 C 0.6817(5) 0.1048(4) 0.2632(2)
H99 H 0.6562 0.0311 0.2609
H100 H 0.6263 0.1356 0.2438
C69 C 0.6991(5) 0.1444(4) 0.3165(2)
H101 H 0.6314 0.1299 0.3294
H102 H 0.7494 0.1087 0.3364
O11 O 0.7388(3) 0.2497(3) 0.32386(17)
C70 C 0.6634(6) 0.3109(5) 0.3128(3)
H103 H 0.6035 0.2904 0.3309
H104 H 0.6360 0.3038 0.2762
C71 C 0.7155(6) 0.4206(5) 0.3294(3)
H105 H 0.6613 0.4639 0.3273
H106 H 0.7523 0.4260 0.3647
O12 O 0.7884(5) 0.4519(4) 0.2971(3)
C72 C 0.8463(6) 0.5507(5) 0.3109(3)
H107 H 0.8825 0.5550 0.3463
H108 H 0.7975 0.5993 0.3085
C73 C 0.9262(6) 0.5772(4) 0.2772(3)
H109 H 0.8905 0.5722 0.2418
H110 H 0.9642 0.6474 0.2862
O13 O 0.9987(5) 0.5102(5) 0.2828(3)
C74 C 1.0769(5) 0.5323(5) 0.2518(3)
H111 H 1.1185 0.6007 0.2620
H112 H 1.0426 0.5309 0.2163
C75 C 1.1495(6) 0.4560(5) 0.2565(3)
H113 H 1.2110 0.4783 0.2397
H114 H 1.1757 0.4495 0.2924
O14 O 1.0917(10) 0.3618(6) 0.2333(6)
C76 C 1.1500(8) 0.2830(6) 0.2417(4)
H115 H 1.1679 0.2767 0.2783
H116 H 1.2166 0.2984 0.2279
C77 C 1.0844(7) 0.1863(6) 0.2163(4)
H117 H 1.0594 0.1949 0.1805
H118 H 1.1269 0.1323 0.2179
O15 O 0.8274(3) 0.3948(4) 0.17951(17)
C78 C 0.8535(4) 0.3391(4) 0.1393(2)
H119 H 0.9194 0.3137 0.1504
H120 H 0.8641 0.3819 0.1112
C79 C 0.7666(6) 0.2559(6) 0.1235(3)
H121 H 0.7822 0.1933 0.1380
H122 H 0.7512 0.2443 0.0863
C80 C 0.6733(7) 0.2903(7) 0.1443(4)
H123 H 0.6133 0.2897 0.1168
H124 H 0.6492 0.2457 0.1698
C81 C 0.7152(5) 0.3929(6) 0.1668(3)
H125 H 0.7004 0.4432 0.1426
H126 H 0.6845 0.4065 0.1973
O16 O 1.0346(17) 0.3098(12) 0.3567(5)
C82 C 1.0699(13) 0.3974(10) 0.3912(6)
H127 H 1.0708 0.4594 0.3731
H128 H 1.1419 0.3976 0.4094
C83 C 0.9926(11) 0.3913(7) 0.4268(5)
H129 H 0.9447 0.4400 0.4194
H130 H 1.0297 0.4062 0.4620
C84 C 0.9303(9) 0.2829(6) 0.4188(4)
H131 H 0.9290 0.2517 0.4512
H132 H 0.8569 0.2807 0.4019
C85 C 0.9907(17) 0.2314(10) 0.3859(7)
H133 H 1.0474 0.2038 0.4064
H134 H 0.9436 0.1758 0.3638
O17? O 0.3611(13) 0.3995(11) 0.4239(5)
C86? C 0.3433(14) 0.2913(12) 0.4214(4)
H135? H 0.2872 0.2648 0.4408
H136? H 0.4087 0.2671 0.4350
C87? C 0.3100(5) 0.2595(4) 0.3666(2)
H137? H 0.2350 0.2635 0.3552
H138? H 0.3210 0.1903 0.3586
C88? C 0.3835(6) 0.3371(7) 0.3435(3)
H139? H 0.4529 0.3169 0.3434
H140? H 0.3526 0.3469 0.3086
C89? C 0.3935(11) 0.4300(8) 0.3774(5)
H141? H 0.4676 0.4666 0.3839
H142? H 0.3481 0.4753 0.3617
O18? O 0.8424(5) 0.4448(5) -0.0843(2)
C90? C 0.8266(11) 0.3473(8) -0.1061(4)
H143? H 0.8861 0.3385 -0.1237
H144? H 0.7607 0.3332 -0.1311
C91? C 0.8192(7) 0.2748(6) -0.0646(3)
H145? H 0.7620 0.2859 -0.0459
H146? H 0.8029 0.2043 -0.0796
O19? O 0.9175(5) 0.2923(5) -0.0313(3)
C92? C 0.9131(7) 0.2322(6) 0.0093(3)
H147? H 0.8943 0.1602 -0.0033
H148? H 0.8582 0.2479 0.0284
C93? C 1.0203(8) 0.2520(7) 0.0436(4)
H149? H 1.0198 0.2045 0.0703
H150? H 1.0759 0.2410 0.0238
O20? O 1.0423(5) 0.3504(6) 0.0653(3)
C94? C 1.1426(7) 0.3767(8) 0.0944(4)
H151? H 1.1975 0.3762 0.0728
H152? H 1.1522 0.3278 0.1201
C95? C 1.1521(7) 0.4817(8) 0.1198(3)
H153? H 1.0903 0.4843 0.1367
H154? H 1.2163 0.4967 0.1458
O21? O 0.9166(7) 0.5339(6) -0.0974(4)
C96? C 0.8148(9) 0.4772(9) -0.1155(6)
H155? H 0.7952 0.4844 -0.1520
H156? H 0.7622 0.5019 -0.0977
C97? C 0.8162(19) 0.3681(10) -0.1067(5)
H157? H 0.7474 0.3264 -0.1221
H158? H 0.8719 0.3451 -0.1229
O22? O 0.8351(8) 0.3558(7) -0.0552(3)
C98? C 0.8271(11) 0.2561(8) -0.0420(4)
H159? H 0.8774 0.2234 -0.0580
H160? H 0.7550 0.2187 -0.0552
C99? C 0.8494(11) 0.2506(11) 0.0129(4)
H161? H 0.7920 0.2728 0.0281
H162? H 0.8499 0.1796 0.0201
O23? O 0.9449(6) 0.3092(7) 0.0353(3)
C100? C 0.9778(11) 0.2985(10) 0.0853(4)
H163? H 0.9881 0.2282 0.0890
H164? H 0.9212 0.3099 0.1043
C101? C 1.0752(12) 0.3664(9) 0.1077(6)
H165? H 1.0836 0.3635 0.1447
H166? H 1.1349 0.3406 0.0964
O24? O 0.8333(10) 0.5915(10) 0.0144(6)
C102? C 0.8301(12) 0.6945(11) 0.0274(8)
H167? H 0.8678 0.7386 0.0052
H168? H 0.8650 0.7139 0.0627
C103? C 0.7193(14) 0.7061(14) 0.0215(11)
H169? H 0.7022 0.7456 -0.0076
H170? H 0.7057 0.7416 0.0521
C104? C 0.6545(13) 0.6041(15) 0.0132(11)
H171? H 0.5978 0.5998 -0.0163
H172? H 0.6219 0.5865 0.0432
C105? C 0.7285(13) 0.5353(13) 0.0040(11)
H173? H 0.7212 0.4791 0.0261
H174? H 0.7121 0.5066 -0.0314
O25? O 0.9772(11) 0.1482(13) 0.2392(6)
C106? C 0.8975(9) 0.0624(10) 0.2209(6)
H175? H 0.9298 0.0016 0.2185
H176? H 0.8616 0.0724 0.1869
C107? C 0.8180(9) 0.0484(9) 0.2568(5)
H177? H 0.7607 -0.0096 0.2441
H178? H 0.8530 0.0349 0.2904
O26? O 0.7760(7) 0.1378(7) 0.2603(3)
C108? C 0.6967(7) 0.1265(6) 0.2906(4)
H179? H 0.7283 0.1193 0.3258
H180? H 0.6440 0.0648 0.2785
C109? C 0.6432(5) 0.2173(5) 0.2889(3)
H181? H 0.6121 0.2253 0.2537
H182? H 0.5859 0.2086 0.3094
O27? O 0.7217(4) 0.3045(4) 0.3086(2)
C110? C 0.6819(7) 0.3919(6) 0.3152(5)
H183? H 0.6408 0.3846 0.3432
H184? H 0.6322 0.3982 0.2843
C111? C 0.7579(6) 0.4836(5) 0.3258(3)
H185? H 0.7201 0.5411 0.3243
H186? H 0.7963 0.4852 0.3606
O28? O 0.8324(4) 0.4964(5) 0.2925(2)
C112? C 0.9074(6) 0.5848(5) 0.3078(3)
H187? H 0.9431 0.5817 0.3428
H188? H 0.8724 0.6441 0.3068
C113? C 0.9870(6) 0.5937(5) 0.2725(3)
H189? H 0.9509 0.5935 0.2374
H190? H 1.0383 0.6577 0.2811
O29? O 1.0399(5) 0.5113(5) 0.2773(3)
C114? C 1.1175(7) 0.5158(6) 0.2453(4)
H191? H 1.1706 0.5784 0.2544
H192? H 1.0837 0.5166 0.2099
C115? C 1.1707(7) 0.4252(6) 0.2510(4)
H193? H 1.2329 0.4338 0.2336
H194? H 1.1952 0.4185 0.2871
O30? O 1.0976(12) 0.3377(7) 0.2298(8)
C116? C 1.1429(9) 0.2496(7) 0.2344(5)
H195? H 1.1665 0.2411 0.2704
H196? H 1.2050 0.2556 0.2170
C117? C 1.0601(9) 0.1592(8) 0.2109(5)
H197? H 1.0329 0.1697 0.1756
H198? H 1.0916 0.0977 0.2111
O31? O 1.0339(10) 0.1835(10) 0.2411(6)
C118? C 0.9808(11) 0.0927(11) 0.2136(6)
H199? H 1.0313 0.0469 0.2103
H200? H 0.9497 0.1066 0.1794
C119? C 0.8941(11) 0.0432(10) 0.2411(7)
H201? H 0.8537 -0.0185 0.2210
H202? H 0.9261 0.0235 0.2740
O32? O 0.8262(9) 0.1099(10) 0.2486(5)
C120? C 0.7461(11) 0.0679(10) 0.2753(6)
H203? H 0.7773 0.0612 0.3105
H204? H 0.7121 0.0000 0.2596
C121? C 0.6639(12) 0.1354(12) 0.2745(9)
H205? H 0.6315 0.1409 0.2393
H206? H 0.6075 0.1056 0.2929
O33? O 0.7119(12) 0.2311(9) 0.2971(6)
C122? C 0.6368(16) 0.2921(11) 0.3035(12)
H207? H 0.6223 0.2899 0.3384
H208? H 0.5700 0.2641 0.2805
C123? C 0.6710(14) 0.3971(11) 0.2935(9)
H209? H 0.6387 0.4067 0.2588
H210? H 0.6432 0.4408 0.3168
O34? O 0.7782(16) 0.4291(13) 0.2985(12)
C124? C 0.8151(14) 0.5300(15) 0.3166(9)
H211? H 0.8480 0.5341 0.3525
H212? H 0.7558 0.5673 0.3138
C125? C 0.8962(14) 0.5754(16) 0.2850(11)
H213? H 0.8627 0.5735 0.2493
H214? H 0.9253 0.6465 0.2973
O35? O 0.9778(14) 0.5184(17) 0.2893(8)
C126? C 1.0532(15) 0.5524(13) 0.2587(9)
H215? H 1.0843 0.6241 0.2686
H216? H 1.0188 0.5467 0.2231
C127? C 1.1396(13) 0.4892(12) 0.2648(9)
H217? H 1.2006 0.5218 0.2500
H218? H 1.1640 0.4833 0.3010
O36? O 1.0982(16) 0.3920(11) 0.2399(8)
C128? C 1.1713(12) 0.3269(10) 0.2510(8)
H219? H 1.1849 0.3203 0.2877
H220? H 1.2390 0.3551 0.2403
C129? C 1.1261(14) 0.2246(11) 0.2233(9)
H221? H 1.1100 0.2316 0.1867
H222? H 1.1783 0.1795 0.2290
O37? O 0.8148(7) 0.3359(5) 0.1717(3)
C130? C 0.7508(12) 0.2475(8) 0.1445(5)
H223? H 0.7264 0.1983 0.1681
H224? H 0.7916 0.2154 0.1223
C131? C 0.6627(11) 0.2787(9) 0.1152(6)
H225? H 0.5958 0.2386 0.1217
H226? H 0.6659 0.2691 0.0788
C132? C 0.6686(9) 0.3869(8) 0.1302(6)
H227? H 0.6532 0.4243 0.1001
H228? H 0.6168 0.3949 0.1526
C133? C 0.7769(10) 0.4252(6) 0.1568(4)
H229? H 0.8209 0.4613 0.1342
H230? H 0.7767 0.4712 0.1865
O38? O 1.043(2) 0.3233(16) 0.3564(7)
C134? C 1.062(2) 0.4093(15) 0.3918(9)
H231? H 1.0496 0.4699 0.3745
H232? H 1.1364 0.4217 0.4094
C135? C 0.9887(15) 0.3867(10) 0.4281(6)
H233? H 0.9195 0.4051 0.4158
H234? H 1.0180 0.4230 0.4615
C136? C 0.9788(15) 0.2751(8) 0.4307(5)
H235? H 0.9061 0.2442 0.4344
H236? H 1.0285 0.2594 0.4596
C137? C 1.005(2) 0.2368(13) 0.3817(8)
H237? H 1.0601 0.1947 0.3880
H238? H 0.9416 0.1955 0.3608
O39? O 0.8376(10) 0.5115(9) 0.0484(5)
C138? C 0.8269(10) 0.5903(11) 0.0827(5)
H239? H 0.8869 0.6474 0.0852
H240? H 0.8233 0.5663 0.1166
C139? C 0.7239(11) 0.6214(11) 0.0605(7)
H241? H 0.6904 0.6505 0.0869
H242? H 0.7347 0.6705 0.0348
C140? C 0.6596(11) 0.5214(12) 0.0371(7)
H243? H 0.6194 0.4869 0.0615
H244? H 0.6094 0.5312 0.0070
C141? C 0.7372(12) 0.4620(11) 0.0229(7)
H245? H 0.7209 0.3924 0.0330
H246? H 0.7356 0.4589 -0.0140
loop_
_geom_bond_atom_site_label_1
_geom_bond_atom_site_label_2
_geom_bond_site_symmetry_1
_geom_bond_site_symmetry_2
B1 C1 1_555 1_555
B2 H1 1_555 1_555
C1 H2 1_555 1_555
H3 C1 1_555 1_555
C2 B1 1_555 1_555
C3 C1 1_555 1_555
C4 B2 1_555 1_555
C5 C4 1_555 1_555
C6 C5 1_555 1_555
H4 C6 1_555 1_555
C7 C2 1_555 1_555
C8 C9 1_555 1_555
C9 B1 1_555 1_555
C10 C9 1_555 1_555
C11 C10 1_555 1_555
H5 C11 1_555 1_555
C12 C11 1_555 1_555
C13 C8 1_555 1_555
H6 C13 1_555 1_555
C14 C8 1_555 1_555
H7 C14 1_555 1_555
H8 C14 1_555 1_555
H9 C14 1_555 1_555
C15 C10 1_555 1_555
H10 C15 1_555 1_555
H11 C15 1_555 1_555
H12 C15 1_555 1_555
C16 C12 1_555 1_555
H13 C16 1_555 1_555
H14 C16 1_555 1_555
H15 C16 1_555 1_555
C17 C18 1_555 1_555
C18 B1 1_555 1_555
C19 C18 1_555 1_555
C20 C19 1_555 1_555
H16 C20 1_555 1_555
C21 C20 1_555 1_555
C22 C17 1_555 1_555
H17 C22 1_555 1_555
C23 C17 1_555 1_555
H18 C23 1_555 1_555
H19 C23 1_555 1_555
H20 C23 1_555 1_555
C24 C19 1_555 1_555
H21 C24 1_555 1_555
H22 C24 1_555 1_555
H23 C24 1_555 1_555
C25 C21 1_555 1_555
H24 C25 1_555 1_555
H25 C25 1_555 1_555
H26 C25 1_555 1_555
C26 C27 1_555 1_555
C27 B2 1_555 1_555
C28 C27 1_555 1_555
C29 C28 1_555 1_555
H27 C29 1_555 1_555
C30 C29 1_555 1_555
C31 C26 1_555 1_555
H28 C31 1_555 1_555
C32 C26 1_555 1_555
H29 C32 1_555 1_555
H30 C32 1_555 1_555
H31 C32 1_555 1_555
C33 C28 1_555 1_555
H32 C33 1_555 1_555
H33 C33 1_555 1_555
H34 C33 1_555 1_555
C34 C30 1_555 1_555
H35 C34 1_555 1_555
H36 C34 1_555 1_555
H37 C34 1_555 1_555
C35 C36 1_555 1_555
C36 B2 1_555 1_555
C37 C36 1_555 1_555
C38 C37 1_555 1_555
H38 C38 1_555 1_555
C39 C38 1_555 1_555
C40 C35 1_555 1_555
H39 C40 1_555 1_555
C41 C35 1_555 1_555
H40 C41 1_555 1_555
H41 C41 1_555 1_555
H42 C41 1_555 1_555
C42 C37 1_555 1_555
H43 C42 1_555 1_555
H44 C42 1_555 1_555
H45 C42 1_555 1_555
C43 C39 1_555 1_555
H46 C43 1_555 1_555
H47 C43 1_555 1_555
H48 C43 1_555 1_555
C44 C5 1_555 1_555
H49 C44 1_555 1_555
H50 C44 1_555 1_555
H51 C44 1_555 1_555
C45 C7 1_555 1_555
H52 C45 1_555 1_555
H53 C45 1_555 1_555
H54 C45 1_555 1_555
C46 H55 1_555 1_555
H56 C46 1_555 1_555
C47 C46 1_555 1_555
H57 C47 1_555 1_555
H58 C47 1_555 1_555
C48 H59 1_555 1_555
H60 C48 1_555 1_555
C49 C48 1_555 1_555
H61 C49 1_555 1_555
H62 C49 1_555 1_555
C50 H63 1_555 1_555
H64 C50 1_555 1_555
C51 C50 1_555 1_555
H65 C51 1_555 1_555
H66 C51 1_555 1_555
K1 O1 1_555 1_555
O1 C46 1_555 1_555
O2 C47 1_555 1_555
O3 C49 1_555 1_555
O4 K1 1_555 1_555
C52 O4 1_555 1_555
H67 C52 1_555 1_555
H68 C52 1_555 1_555
C53 C52 1_555 1_555
H69 C53 1_555 1_555
H70 C53 1_555 1_555
C54 C53 1_555 1_555
H71 C54 1_555 1_555
H72 C54 1_555 1_555
C55 O4 1_555 1_555
H73 C55 1_555 1_555
H74 C55 1_555 1_555
K2 O5 1_555 1_555
O5 C56 1_555 1_555
C56 H75 1_555 1_555
H76 C56 1_555 1_555
C57 C56 1_555 1_555
H77 C57 1_555 1_555
H78 C57 1_555 1_555
O6 K2 1_555 1_555
C58 O6 1_555 1_555
H79 C58 1_555 1_555
H80 C58 1_555 1_555
C59 C58 1_555 1_555
H81 C59 1_555 1_555
H82 C59 1_555 1_555
O7 K2 1_555 1_555
C60 O7 1_555 1_555
H83 C60 1_555 1_555
H84 C60 1_555 1_555
C61 C60 1_555 1_555
H85 C61 1_555 1_555
H86 C61 1_555 1_555
O8 K2 1_555 1_555
C62 O8 1_555 1_555
H87 C62 1_555 1_555
H88 C62 1_555 1_555
C63 C62 1_555 1_555
H89 C63 1_555 1_555
H90 C63 1_555 1_555
C64 C63 1_555 1_555
H91 C64 1_555 1_555
H92 C64 1_555 1_555
C65 O8 1_555 1_555
H93 C65 1_555 1_555
H94 C65 1_555 1_555
K3 O9 1_555 1_555
O9 C66 1_555 1_555
C66 H95 1_555 1_555
H96 C66 1_555 1_555
C67 C66 1_555 1_555
H97 C67 1_555 1_555
H98 C67 1_555 1_555
O10 K3 1_555 1_555
C68 O10 1_555 1_555
H99 C68 1_555 1_555
H100 C68 1_555 1_555
C69 C68 1_555 1_555
H101 C69 1_555 1_555
H102 C69 1_555 1_555
O11 K3 1_555 1_555
C70 O11 1_555 1_555
H103 C70 1_555 1_555
H104 C70 1_555 1_555
C71 C70 1_555 1_555
H105 C71 1_555 1_555
H106 C71 1_555 1_555
O12 K3 1_555 1_555
C72 O12 1_555 1_555
H107 C72 1_555 1_555
H108 C72 1_555 1_555
C73 C72 1_555 1_555
H109 C73 1_555 1_555
H110 C73 1_555 1_555
O13 K3 1_555 1_555
C74 O13 1_555 1_555
H111 C74 1_555 1_555
H112 C74 1_555 1_555
C75 C74 1_555 1_555
H113 C75 1_555 1_555
H114 C75 1_555 1_555
O14 K3 1_555 1_555
C76 O14 1_555 1_555
H115 C76 1_555 1_555
H116 C76 1_555 1_555
C77 O9 1_555 1_555
H117 C77 1_555 1_555
H118 C77 1_555 1_555
O15 K3 1_555 1_555
C78 O15 1_555 1_555
H119 C78 1_555 1_555
H120 C78 1_555 1_555
C79 C78 1_555 1_555
H121 C79 1_555 1_555
H122 C79 1_555 1_555
C80 C79 1_555 1_555
H123 C80 1_555 1_555
H124 C80 1_555 1_555
C81 O15 1_555 1_555
H125 C81 1_555 1_555
H126 C81 1_555 1_555
O16 K3 1_555 1_555
C82 O16 1_555 1_555
H127 C82 1_555 1_555
H128 C82 1_555 1_555
C83 C82 1_555 1_555
H129 C83 1_555 1_555
H130 C83 1_555 1_555
C84 C83 1_555 1_555
H131 C84 1_555 1_555
H132 C84 1_555 1_555
C85 O16 1_555 1_555
H133 C85 1_555 1_555
H134 C85 1_555 1_555
C46A H55A 1_555 1_555
H56A C46A 1_555 1_555
C47A C46A 1_555 1_555
H57A C47A 1_555 1_555
H58A C47A 1_555 1_555
C48A H59A 1_555 1_555
H60A C48A 1_555 1_555
C49A C48A 1_555 1_555
H61A C49A 1_555 1_555
H62A C49A 1_555 1_555
C50A H63A 1_555 1_555
H64A C50A 1_555 1_555
C51A O1 1_555 1_555
H65A C51A 1_555 1_555
H66A C51A 1_555 1_555
O1A C51 1_555 1_555
O2A K1 1_555 1_555
O3A K1 1_555 1_555
O4A K1 1_555 1_555
C52A O4A 1_555 1_555
H67A C52A 1_555 1_555
H68A C52A 1_555 1_555
C53A C52A 1_555 1_555
H69A C53A 1_555 1_555
H70A C53A 1_555 1_555
C54A C53A 1_555 1_555
H71A C54A 1_555 1_555
H72A C54A 1_555 1_555
C55A O4A 1_555 1_555
H73A C55A 1_555 1_555
H74A C55A 1_555 1_555
O5A K2 1_555 1_555
C56A O5A 1_555 1_555
H75A C56A 1_555 1_555
H76A C56A 1_555 1_555
C57A C56A 1_555 1_555
H77A C57A 1_555 1_555
H78A C57A 1_555 1_555
O6A K2 1_555 1_555
C58A O6A 1_555 1_555
H79A C58A 1_555 1_555
H80A C58A 1_555 1_555
C59A C58A 1_555 1_555
H81A C59A 1_555 1_555
H82A C59A 1_555 1_555
O7A K2 1_555 1_555
C60A O7A 1_555 1_555
H83A C60A 1_555 1_555
H84A C60A 1_555 1_555
C61A O5 1_555 1_555
H85A C61A 1_555 1_555
H86A C61A 1_555 1_555
O8A K2 1_555 1_555
C62A O8A 1_555 1_555
H87A C62A 1_555 1_555
H88A C62A 1_555 1_555
C63A C62A 1_555 1_555
H89A C63A 1_555 1_555
H90A C63A 1_555 1_555
C64A C63A 1_555 1_555
H91A C64A 1_555 1_555
H92A C64A 1_555 1_555
C65A O8A 1_555 1_555
H93A C65A 1_555 1_555
H94A C65A 1_555 1_555
C2 C3 1_555 1_555
C3 C4 1_555 1_555
C6 C7 1_555 1_555
C12 C13 1_555 1_555
C21 C22 1_555 1_555
C30 C31 1_555 1_555
C39 C40 1_555 1_555
C48 O2 1_555 1_555
C50 O3 1_555 1_555
K1 O2 1_555 1_555
K1 O3 1_555 1_555
K1 O1A 1_555 1_555
C54 C55 1_555 1_555
C57 O6 1_555 1_555
C59 O7 1_555 1_555
C61 O5A 1_555 1_555
C64 C65 1_555 1_555
C67 O10 1_555 1_555
C69 O11 1_555 1_555
C71 O12 1_555 1_555
C73 O13 1_555 1_555
C75 O14 1_555 1_555
C76 C77 1_555 1_555
C80 C81 1_555 1_555
C84 C85 1_555 1_555
C46A O1A 1_555 1_555
C47A O2A 1_555 1_555
C48A O2A 1_555 1_555
C49A O3A 1_555 1_555
C50A C51A 1_555 1_555
C50A O3A 1_555 1_555
C54A C55A 1_555 1_555
C57A O6A 1_555 1_555
C59A O7A 1_555 1_555
C60A C61A 1_555 1_555
C64A C65A 1_555 1_555

#END
