
#######################################################################
#
#                 Cambridge Crystallographic Data Centre
#                                CCDC 
#
#######################################################################
#
# If this CIF has been generated from an entry in the Cambridge 
# Structural Database, then it will include bibliographic, chemical, 
# crystal, experimental, refinement or atomic coordinate data resulting 
# from the CCDC's data processing and validation procedures.
#
#######################################################################

data_CARJIQ
_chemical_formula_moiety         'C16 H10 O2'
_chemical_name_systematic        Pyrene-2,7-diol
_symmetry_cell_setting           monoclinic
_symmetry_space_group_name_H-M   'P 21/c'
_symmetry_Int_Tables_number      14
_space_group_name_Hall           '-P 2ybc'
loop_
_symmetry_equiv_pos_site_id
_symmetry_equiv_pos_as_xyz
1 x,y,z
2 -x,1/2+y,1/2-z
3 -x,-y,-z
4 x,1/2-y,1/2+z
_cell_length_a                   7.8951(4)
_cell_length_b                   4.6096(3)
_cell_length_c                   14.3506(10)
_cell_angle_alpha                90
_cell_angle_beta                 91.51(1)
_cell_angle_gamma                90
_cell_volume                     522.084
_exptl_crystal_colour            'light brown'
_exptl_crystal_description       plate
_chemical_melting_point          '594 K'
_cell_formula_units_Z            2
loop_
_atom_site_label
_atom_site_type_symbol
_atom_site_fract_x
_atom_site_fract_y
_atom_site_fract_z
O1 O 0.08681(14) 0.2472(3) 0.73466(8)
H1 H 0.013(3) 0.405(5) 0.7406(17)
C1 C 0.20105(19) 0.3210(3) 0.66678(11)
C2 C 0.15852(19) 0.5212(3) 0.59779(11)
H2 H 0.045(2) 0.622(4) 0.5959(11)
C3 C 0.27644(18) 0.5956(3) 0.53076(10)
C4 C 0.43925(18) 0.4641(3) 0.53400(10)
C5 C 0.47915(18) 0.2566(3) 0.60462(10)
C6 C 0.35879(19) 0.1881(3) 0.67069(10)
H3 H 0.3864(19) 0.046(4) 0.7195(11)
C7 C 0.2392(2) 0.8024(4) 0.45811(10)
H4 H 0.124(2) 0.904(4) 0.4574(11)
C8 C 0.3550(2) 0.8736(4) 0.39417(11)
H5 H 0.328(2) 1.015(4) 0.3459(12)
O1B O 0.91319(14) 0.7528(3) 0.26534(8)
H1B H 0.987(3) 0.595(5) 0.2594(17)
C1B C 0.79895(19) 0.6790(3) 0.33322(11)
C2B C 0.84148(19) 0.4788(3) 0.40221(11)
H2B H 0.955(2) 0.378(4) 0.4041(11)
C3B C 0.72356(18) 0.4044(3) 0.46924(10)
C4B C 0.56075(18) 0.5359(3) 0.46600(10)
C5B C 0.52085(18) 0.7434(3) 0.39538(10)
C6B C 0.64121(19) 0.8119(3) 0.32931(10)
H3B H 0.6136(19) 0.954(4) 0.2805(11)
C7B C 0.7608(2) 0.1976(4) 0.54189(10)
H4B H 0.876(2) 0.096(4) 0.5426(11)
C8B C 0.6450(2) 0.1264(4) 0.60583(11)
H5B H 0.672(2) -0.015(4) 0.6541(12)
loop_
_geom_bond_atom_site_label_1
_geom_bond_atom_site_label_2
_geom_bond_site_symmetry_1
_geom_bond_site_symmetry_2
O1 H1 1_555 1_555
C1 O1 1_555 1_555
C2 C1 1_555 1_555
H2 C2 1_555 1_555
C3 C2 1_555 1_555
C4 C3 1_555 1_555
C5 C4 1_555 1_555
C6 C1 1_555 1_555
H3 C6 1_555 1_555
C7 C3 1_555 1_555
H4 C7 1_555 1_555
C8 C7 1_555 1_555
H5 C8 1_555 1_555
O1B H1B 1_555 1_555
C1B O1B 1_555 1_555
C2B C1B 1_555 1_555
H2B C2B 1_555 1_555
C3B C2B 1_555 1_555
C4B C4 1_555 1_555
C5B C8 1_555 1_555
C6B C1B 1_555 1_555
H3B C6B 1_555 1_555
C7B C3B 1_555 1_555
H4B C7B 1_555 1_555
C8B C5 1_555 1_555
H5B C8B 1_555 1_555
C5 C6 1_555 1_555
C3B C4B 1_555 1_555
C4B C5B 1_555 1_555
C5B C6B 1_555 1_555
C7B C8B 1_555 1_555

#END
