
#######################################################################
#
#                 Cambridge Crystallographic Data Centre
#                                CCDC 
#
#######################################################################
#
# If this CIF has been generated from an entry in the Cambridge 
# Structural Database, then it will include bibliographic, chemical, 
# crystal, experimental, refinement or atomic coordinate data resulting 
# from the CCDC's data processing and validation procedures.
#
#######################################################################

data_CARJUB
_chemical_formula_moiety         'C19 H21 N1 O6'
_chemical_name_systematic        
'(2S*,3S*)-Methyl 3-hydroxy-2-isopropoxy-3-(2-nitrophenyl)-2-phenylpropionate'
_symmetry_cell_setting           monoclinic
_symmetry_space_group_name_H-M   'P 21/c'
_symmetry_Int_Tables_number      14
_space_group_name_Hall           '-P 2ybc'
loop_
_symmetry_equiv_pos_site_id
_symmetry_equiv_pos_as_xyz
1 x,y,z
2 -x,1/2+y,1/2-z
3 -x,-y,-z
4 x,1/2-y,1/2+z
_cell_length_a                   13.289(2)
_cell_length_b                   8.1727(12)
_cell_length_c                   16.588(3)
_cell_angle_alpha                90
_cell_angle_beta                 91.999(3)
_cell_angle_gamma                90
_cell_volume                     1800.48
_exptl_crystal_colour            colorless
_exptl_crystal_description       prism
_cell_formula_units_Z            4
loop_
_atom_site_label
_atom_site_type_symbol
_atom_site_fract_x
_atom_site_fract_y
_atom_site_fract_z
O1 O 0.09320(8) 0.64293(12) 0.59902(6)
H1 H 0.0659 0.6927 0.5613
O2 O 0.06162(9) 0.18631(16) 0.48899(7)
O3 O 0.16822(10) 0.00585(15) 0.52892(8)
O4 O 0.27445(7) 0.36260(11) 0.52013(6)
O5 O 0.32555(9) 0.72061(16) 0.46466(7)
O6 O 0.16596(8) 0.65277(12) 0.43497(6)
N1 N 0.11722(9) 0.12606(15) 0.54079(7)
C1 C 0.24550(9) 0.51896(16) 0.54918(8)
C2 C 0.13284(9) 0.49338(16) 0.57060(8)
H2 H 0.0942(6) 0.4593(6) 0.5219(8)
C3 C 0.12169(9) 0.36498(16) 0.63564(8)
C4 C 0.11990(10) 0.19664(17) 0.62253(8)
C5 C 0.11628(12) 0.08307(19) 0.68446(9)
H3 H 0.1173 -0.0284 0.6733
C6 C 0.11120(14) 0.1379(2) 0.76272(10)
H4 H 0.1078 0.0635 0.8050
C7 C 0.11118(13) 0.3037(2) 0.77811(9)
H5 H 0.1071 0.3409 0.8309
C8 C 0.11715(11) 0.41482(19) 0.71579(8)
H6 H 0.1182 0.5261 0.7276
C9 C 0.30777(9) 0.57720(17) 0.62270(8)
C10 C 0.35007(11) 0.4646(2) 0.67683(9)
H7 H 0.3453 0.3533 0.6658
C11 C 0.39949(13) 0.5174(3) 0.74743(10)
H8 H 0.4280 0.4412 0.7830
C12 C 0.40645(14) 0.6818(3) 0.76495(11)
H9 H 0.4391 0.7166 0.8124
C13 C 0.36512(13) 0.7933(3) 0.71221(11)
H10 H 0.3700 0.9045 0.7237
C14 C 0.31593(11) 0.7418(2) 0.64165(9)
H11 H 0.2879 0.8192 0.6064
C15 C 0.25170(11) 0.64473(16) 0.47941(8)
C16 C 0.16563(14) 0.7648(2) 0.36730(9)
H12 H 0.1839 0.8722 0.3860
H13 H 0.0995 0.7681 0.3421
H14 H 0.2132 0.7283 0.3289
C17 C 0.37471(12) 0.3427(2) 0.48902(12)
H15 H 0.4193(9) 0.4277(18) 0.5118(5)
C18 C 0.3710(2) 0.3559(3) 0.39810(14)
H16 H 0.3275 0.2726 0.3757
H17 H 0.4376 0.3420 0.3784
H18 H 0.3457 0.4617 0.3824
C19 C 0.41207(16) 0.1766(3) 0.51653(18)
H19 H 0.4092 0.1692 0.5742
H20 H 0.4803 0.1620 0.5008
H21 H 0.3704 0.0930 0.4921
loop_
_geom_bond_atom_site_label_1
_geom_bond_atom_site_label_2
_geom_bond_site_symmetry_1
_geom_bond_site_symmetry_2
O1 H1 1_555 1_555
O2 N1 1_555 1_555
O3 N1 1_555 1_555
O4 C1 1_555 1_555
O5 C15 1_555 1_555
O6 C15 1_555 1_555
N1 C4 1_555 1_555
C1 C2 1_555 1_555
C2 O1 1_555 1_555
H2 C2 1_555 1_555
C3 C2 1_555 1_555
C4 C3 1_555 1_555
C5 C4 1_555 1_555
H3 C5 1_555 1_555
C6 C5 1_555 1_555
H4 C6 1_555 1_555
C7 C6 1_555 1_555
H5 C7 1_555 1_555
C8 C3 1_555 1_555
H6 C8 1_555 1_555
C9 C1 1_555 1_555
C10 C9 1_555 1_555
H7 C10 1_555 1_555
C11 C10 1_555 1_555
H8 C11 1_555 1_555
C12 C11 1_555 1_555
H9 C12 1_555 1_555
C13 C12 1_555 1_555
H10 C13 1_555 1_555
C14 C9 1_555 1_555
H11 C14 1_555 1_555
C15 C1 1_555 1_555
C16 O6 1_555 1_555
H12 C16 1_555 1_555
H13 C16 1_555 1_555
H14 C16 1_555 1_555
C17 O4 1_555 1_555
H15 C17 1_555 1_555
C18 C17 1_555 1_555
H16 C18 1_555 1_555
H17 C18 1_555 1_555
H18 C18 1_555 1_555
C19 C17 1_555 1_555
H19 C19 1_555 1_555
H20 C19 1_555 1_555
H21 C19 1_555 1_555
C7 C8 1_555 1_555
C13 C14 1_555 1_555

#END
