
#######################################################################
#
#                 Cambridge Crystallographic Data Centre
#                                CCDC 
#
#######################################################################
#
# If this CIF has been generated from an entry in the Cambridge 
# Structural Database, then it will include bibliographic, chemical, 
# crystal, experimental, refinement or atomic coordinate data resulting 
# from the CCDC's data processing and validation procedures.
#
#######################################################################

data_CARKUD
_chemical_name_common            
'2-(4-mesitylborylbenzene)pyrene deuterochloroform solvate'
_chemical_formula_moiety         'C40 H35 B1,C1 D1 Cl3'
_chemical_name_systematic        
'Dimesityl(4-(pyren-2-yl)phenyl)borane deuterochloroform solvate'
_symmetry_cell_setting           triclinic
_symmetry_space_group_name_H-M   'P -1'
_symmetry_Int_Tables_number      2
_space_group_name_Hall           '-P 1'
loop_
_symmetry_equiv_pos_site_id
_symmetry_equiv_pos_as_xyz
1 x,y,z
2 -x,-y,-z
_cell_length_a                   8.0386(5)
_cell_length_b                   12.8471(8)
_cell_length_c                   16.5252(7)
_cell_angle_alpha                91.765(10)
_cell_angle_beta                 98.809(9)
_cell_angle_gamma                97.637(10)
_cell_volume                     1669.23
_exptl_crystal_colour            colorless
_exptl_crystal_description       tabular
_chemical_melting_point          '490 K'
_cell_formula_units_Z            2
loop_
_atom_site_label
_atom_site_type_symbol
_atom_site_fract_x
_atom_site_fract_y
_atom_site_fract_z
C1 C 0.62297(18) 0.23619(11) 0.77961(9)
C2 C 0.50338(19) 0.17593(12) 0.81875(9)
H1 H 0.51474 0.18191 0.87684
C3 C 0.36897(19) 0.10770(12) 0.77513(9)
H2 H 0.28853 0.06942 0.80351
C4 C 0.35083(18) 0.09476(11) 0.68962(9)
C5 C 0.47038(19) 0.15302(12) 0.64964(9)
H3 H 0.46144 0.14458 0.59175
C6 C 0.60222(18) 0.22336(12) 0.69364(9)
H4 H 0.68012 0.26355 0.66500
C7 C -0.05763(17) -0.13317(11) 0.56688(8)
C8 C -0.18802(18) -0.21511(11) 0.53170(8)
C9 C 0.83201(17) 0.28141(11) 0.92243(8)
C10 C 0.88083(18) 0.18170(11) 0.93954(9)
C11 C 0.93265(19) 0.15678(12) 1.02023(9)
H5 H 0.96486 0.08931 1.03052
C12 C 0.93833(19) 0.22802(12) 1.08608(9)
C13 C 0.88773(19) 0.32561(12) 1.06951(9)
H6 H 0.88946 0.37490 1.11379
C14 C 0.83435(18) 0.35308(11) 0.98943(9)
C15 C 0.8898(2) 0.10100(12) 0.87231(10)
H7 H 0.7927 0.04522 0.86870
H8 H 0.9958 0.07057 0.88472
H9 H 0.8866 0.13495 0.81990
C16 C 1.0018(3) 0.19936(15) 1.17220(10)
H10 H 1.0009 0.12306 1.17332
H11 H 0.9277 0.22150 1.20943
H12 H 1.1180 0.23487 1.18979
C17 C 0.7750(2) 0.45884(12) 0.97586(10)
H13 H 0.7953 0.50031 1.02808
H14 H 0.6532 0.44873 0.95405
H15 H 0.8380 0.49616 0.93667
C18 C 0.87548(18) 0.40189(11) 0.78867(8)
C19 C 0.78945(18) 0.47809(11) 0.74579(9)
C20 C 0.87639(19) 0.55345(12) 0.70251(9)
H16 H 0.81581 0.60290 0.67334
C21 C 1.0498(2) 0.55776(12) 0.70132(9)
C22 C 1.13554(19) 0.48607(12) 0.74583(9)
H17 H 1.25481 0.48988 0.74728
C23 C 1.05286(18) 0.40851(12) 0.78867(9)
C24 C 0.60426(19) 0.48490(13) 0.74887(10)
H18 H 0.56471 0.53653 0.71064
H19 H 0.59102 0.50670 0.80462
H20 H 0.53684 0.41591 0.73333
C25 C 1.1426(2) 0.63861(15) 0.65371(11)
H21 H 1.2636 0.65153 0.67750
H22 H 1.0939 0.70458 0.65608
H23 H 1.1309 0.61289 0.59627
C26 C 1.1591(2) 0.33101(13) 0.83062(11)
H24 H 1.2800 0.35949 0.83645
H25 H 1.1380 0.26439 0.79767
H26 H 1.1283 0.31858 0.88505
C27 C 0.20801(18) 0.02013(11) 0.64407(8)
C28 C 0.04895(18) 0.00850(12) 0.66986(9)
H27 H 0.03145 0.05282 0.71398
C29 C -0.08456(18) -0.06630(12) 0.63248(8)
C30 C -0.24797(19) -0.08045(13) 0.65939(9)
H28 H -0.26915 -0.03441 0.70157
C31 C -0.37213(19) -0.15847(13) 0.62541(9)
H29 H -0.47854 -0.16619 0.64447
C32 C -0.34615(19) -0.22961(12) 0.56118(9)
C33 C -0.4718(2) -0.31182(13) 0.52629(10)
H30 H -0.5781 -0.32178 0.54541
C34 C -0.4422(2) -0.37855(13) 0.46430(10)
H31 H -0.5283 -0.43403 0.44139
C35 C -0.2879(2) -0.36522(13) 0.43516(10)
H32 H -0.2696 -0.41195 0.39275
C36 C -0.15895(19) -0.28362(12) 0.46750(9)
C37 C 0.0011(2) -0.26631(13) 0.43802(10)
H33 H 0.0211 -0.31068 0.39448
C38 C 0.1243(2) -0.18745(12) 0.47135(9)
H34 H 0.2284 -0.17725 0.45026
C39 C 0.10081(18) -0.11899(11) 0.53798(8)
C40 C 0.23070(18) -0.04197(12) 0.57677(9)
H35 H 0.33626 -0.03177 0.55696
B1 B 0.7769(2) 0.30947(13) 0.83076(9)
Cl1 Cl 0.65364(7) 0.91245(5) 0.99293(4)
Cl2 Cl 0.60351(9) 0.69248(5) 0.94556(5)
Cl3 Cl 0.47798(16) 0.84227(11) 0.83152(6)
C41 C 0.5153(2) 0.80949(16) 0.93380(12)
D1 D 0.410(3) 0.8013(16) 0.9523(13)
Cl4? Cl 0.6757(12) 0.8589(8) 0.9924(6)
Cl5? Cl 0.5497(11) 0.6830(6) 0.8952(6)
Cl6? Cl 0.468(2) 0.8696(10) 0.8452(7)
loop_
_geom_bond_atom_site_label_1
_geom_bond_atom_site_label_2
_geom_bond_site_symmetry_1
_geom_bond_site_symmetry_2
C1 C2 1_555 1_555
C2 H1 1_555 1_555
C3 C2 1_555 1_555
H2 C3 1_555 1_555
C4 C3 1_555 1_555
C5 C4 1_555 1_555
H3 C5 1_555 1_555
C6 C1 1_555 1_555
H4 C6 1_555 1_555
C7 C8 1_555 1_555
C8 C32 1_555 1_555
C9 C10 1_555 1_555
C10 C11 1_555 1_555
C11 H5 1_555 1_555
C12 C11 1_555 1_555
C13 C12 1_555 1_555
H6 C13 1_555 1_555
C14 C9 1_555 1_555
C15 C10 1_555 1_555
H7 C15 1_555 1_555
H8 C15 1_555 1_555
H9 C15 1_555 1_555
C16 C12 1_555 1_555
H10 C16 1_555 1_555
H11 C16 1_555 1_555
H12 C16 1_555 1_555
C17 C14 1_555 1_555
H13 C17 1_555 1_555
H14 C17 1_555 1_555
H15 C17 1_555 1_555
C18 C19 1_555 1_555
C19 C20 1_555 1_555
C20 H16 1_555 1_555
C21 C20 1_555 1_555
C22 C21 1_555 1_555
H17 C22 1_555 1_555
C23 C18 1_555 1_555
C24 C19 1_555 1_555
H18 C24 1_555 1_555
H19 C24 1_555 1_555
H20 C24 1_555 1_555
C25 C21 1_555 1_555
H21 C25 1_555 1_555
H22 C25 1_555 1_555
H23 C25 1_555 1_555
C26 C23 1_555 1_555
H24 C26 1_555 1_555
H25 C26 1_555 1_555
H26 C26 1_555 1_555
C27 C4 1_555 1_555
C28 C27 1_555 1_555
H27 C28 1_555 1_555
C29 C7 1_555 1_555
C30 C29 1_555 1_555
H28 C30 1_555 1_555
C31 C30 1_555 1_555
H29 C31 1_555 1_555
C32 C31 1_555 1_555
C33 C32 1_555 1_555
H30 C33 1_555 1_555
C34 C33 1_555 1_555
H31 C34 1_555 1_555
C35 C34 1_555 1_555
H32 C35 1_555 1_555
C36 C8 1_555 1_555
C37 C36 1_555 1_555
H33 C37 1_555 1_555
C38 C37 1_555 1_555
H34 C38 1_555 1_555
C39 C7 1_555 1_555
C40 C27 1_555 1_555
H35 C40 1_555 1_555
B1 C1 1_555 1_555
Cl1 C41 1_555 1_555
Cl2 C41 1_555 1_555
Cl3 C41 1_555 1_555
C41 D1 1_555 1_555
C5 C6 1_555 1_555
C9 B1 1_555 1_555
C13 C14 1_555 1_555
C18 B1 1_555 1_555
C22 C23 1_555 1_555
C28 C29 1_555 1_555
C35 C36 1_555 1_555
C38 C39 1_555 1_555
C39 C40 1_555 1_555

#END
