
#######################################################################
#
#                 Cambridge Crystallographic Data Centre
#                                CCDC 
#
#######################################################################
#
# If this CIF has been generated from an entry in the Cambridge 
# Structural Database, then it will include bibliographic, chemical, 
# crystal, experimental, refinement or atomic coordinate data resulting 
# from the CCDC's data processing and validation procedures.
#
#######################################################################

data_CARKOX
_chemical_name_common            Pyren-2-ol
_chemical_formula_moiety         'C16 H10 O1'
_chemical_name_systematic        2-Hydroxypyrene
_symmetry_cell_setting           monoclinic
_symmetry_space_group_name_H-M   'P 21'
_symmetry_Int_Tables_number      4
_space_group_name_Hall           'P 2yb'
loop_
_symmetry_equiv_pos_site_id
_symmetry_equiv_pos_as_xyz
1 x,y,z
2 -x,1/2+y,-z
_cell_length_a                   7.9899(10)
_cell_length_b                   4.6472(6)
_cell_length_c                   13.8986(17)
_cell_angle_alpha                90
_cell_angle_beta                 93.680(10)
_cell_angle_gamma                90
_cell_volume                     515
_exptl_crystal_colour            brown
_exptl_crystal_description       prism
_chemical_melting_point          '474 K'
_cell_formula_units_Z            2
loop_
_atom_site_label
_atom_site_type_symbol
_atom_site_fract_x
_atom_site_fract_y
_atom_site_fract_z
O1 O 0.91241(12) 0.0070(3) 0.48373(7)
H1 H 0.978(3) 0.164(7) 0.487(2)
C1 C 0.81612(17) 0.2798(3) 0.34286(10)
H2 H 0.929(2) 0.365(5) 0.3387(14)
C2 C 0.78750(16) 0.0788(3) 0.41427(9)
C3 C 0.33827(17) -0.1179(3) 0.35523(10)
H3 H 0.322(2) -0.254(6) 0.4062(15)
C4 C 0.63335(17) -0.0569(3) 0.41890(10)
H4 H 0.620(2) -0.209(5) 0.4687(14)
C5 C 0.21050(17) -0.0428(3) 0.29102(10)
H5 H 0.097(2) -0.138(6) 0.2927(14)
C6 C 0.10227(18) 0.2457(4) 0.14995(10)
H6 H -0.012(2) 0.152(6) 0.1536(14)
C7 C 0.12856(19) 0.4489(4) 0.07920(10)
H7 H 0.035(3) 0.496(8) 0.0331(16)
C8 C 0.2850(2) 0.5751(4) 0.07227(10)
H8 H 0.304(3) 0.725(6) 0.0233(16)
C9 C 0.58304(19) 0.6277(4) 0.13357(10)
H9 H 0.597(2) 0.768(6) 0.0811(15)
C10 C 0.70989(18) 0.5578(3) 0.19859(10)
H10 H 0.821(2) 0.650(6) 0.1988(14)
C11 C 0.68684(16) 0.3515(3) 0.27410(9)
C12 C 0.52708(17) 0.2198(3) 0.27873(10)
C13 C 0.50112(16) 0.0129(3) 0.35177(9)
C14 C 0.39340(17) 0.2940(3) 0.21058(9)
C15 C 0.41968(17) 0.4997(4) 0.13719(10)
C16 C 0.23290(16) 0.1657(3) 0.21665(10)
loop_
_geom_bond_atom_site_label_1
_geom_bond_atom_site_label_2
_geom_bond_site_symmetry_1
_geom_bond_site_symmetry_2
O1 H1 1_555 1_555
C1 H2 1_555 1_555
C2 O1 1_555 1_555
C3 H3 1_555 1_555
C4 C2 1_555 1_555
H4 C4 1_555 1_555
C5 C3 1_555 1_555
H5 C5 1_555 1_555
C6 H6 1_555 1_555
C7 C6 1_555 1_555
H7 C7 1_555 1_555
C8 C7 1_555 1_555
H8 C8 1_555 1_555
C9 H9 1_555 1_555
C10 C9 1_555 1_555
H10 C10 1_555 1_555
C11 C1 1_555 1_555
C12 C11 1_555 1_555
C13 C3 1_555 1_555
C14 C12 1_555 1_555
C15 C8 1_555 1_555
C16 C5 1_555 1_555
C1 C2 1_555 1_555
C4 C13 1_555 1_555
C6 C16 1_555 1_555
C9 C15 1_555 1_555
C10 C11 1_555 1_555
C12 C13 1_555 1_555
C14 C15 1_555 1_555
C14 C16 1_555 1_555

#END
