
#######################################################################
#
#                 Cambridge Crystallographic Data Centre
#                                CCDC 
#
#######################################################################
#
# If this CIF has been generated from an entry in the Cambridge 
# Structural Database, then it will include bibliographic, chemical, 
# crystal, experimental, refinement or atomic coordinate data resulting 
# from the CCDC's data processing and validation procedures.
#
#######################################################################

data_CARKAJ
_chemical_name_common            2,7-bis(trimethylsilylethynyl)pyrene
_chemical_formula_moiety         'C26 H26 Si2'
_chemical_name_systematic        
(Pyrene-2,7-diyldiethyne-2,1-diyl)bis(trimethylsilane)
_symmetry_cell_setting           monoclinic
_symmetry_space_group_name_H-M   'P 21/c'
_symmetry_Int_Tables_number      14
_space_group_name_Hall           '-P 2ybc'
loop_
_symmetry_equiv_pos_site_id
_symmetry_equiv_pos_as_xyz
1 x,y,z
2 -x,1/2+y,1/2-z
3 -x,-y,-z
4 x,1/2-y,1/2+z
_cell_length_a                   17.7684(19)
_cell_length_b                   5.3992(5)
_cell_length_c                   11.7032(13)
_cell_angle_alpha                90
_cell_angle_beta                 98.76(1)
_cell_angle_gamma                90
_cell_volume                     1109.65
_exptl_crystal_colour            colorless
_exptl_crystal_description       plate
_chemical_melting_point          '432 K'
_cell_formula_units_Z            2
loop_
_atom_site_label
_atom_site_type_symbol
_atom_site_fract_x
_atom_site_fract_y
_atom_site_fract_z
Si1 Si 0.14427(3) 1.28899(9) 0.64277(4)
C1 C 0.41489(10) 0.8964(3) 0.61847(15)
H1 H 0.4218(10) 1.035(4) 0.6730(16)
C2 C 0.34144(9) 0.8298(3) 0.56707(15)
C3 C 0.33115(10) 0.6309(3) 0.48972(15)
H2 H 0.2801(11) 0.583(4) 0.4533(17)
C4 C 0.38441(10) 0.2909(3) 0.38312(15)
H3 H 0.3339(12) 0.248(4) 0.3505(17)
C5 C 0.44520(10) 0.1643(3) 0.35722(15)
H4 H 0.4377(11) 0.025(4) 0.3016(17)
C6 C 0.39305(9) 0.4970(3) 0.46221(14)
C7 C 0.46800(9) 0.5664(3) 0.51395(13)
C8 C 0.47840(9) 0.7681(3) 0.59266(14)
C9 C 0.27711(10) 0.9716(3) 0.59229(15)
C10 C 0.22399(10) 1.0935(3) 0.61318(15)
C11 C 0.11214(12) 1.4833(4) 0.51282(17)
H5 H 0.1483(13) 1.598(4) 0.5014(19)
H6 H 0.0678(15) 1.578(5) 0.527(2)
H7 H 0.0989(13) 1.382(5) 0.447(2)
C12 C 0.06376(11) 1.0877(4) 0.67001(19)
H8 H 0.0424(13) 0.990(5) 0.603(2)
H9 H 0.0792(14) 0.973(5) 0.734(2)
H10 H 0.0232(15) 1.184(5) 0.687(2)
C13 C 0.17746(12) 1.4821(4) 0.77200(17)
H11 H 0.2165(14) 1.596(5) 0.759(2)
H12 H 0.1967(13) 1.377(4) 0.840(2)
H13 H 0.1366(14) 1.578(5) 0.793(2)
Si1B Si 0.85573(3) -0.28899(9) 0.35723(4)
C1B C 0.58511(10) 0.1036(3) 0.38153(15)
H1B H 0.5782(10) -0.035(4) 0.3270(16)
C2B C 0.65856(9) 0.1702(3) 0.43293(15)
C3B C 0.66885(10) 0.3691(3) 0.51028(15)
H2B H 0.7199(11) 0.417(4) 0.5467(17)
C4B C 0.61559(10) 0.7091(3) 0.61688(15)
H3B H 0.6661(12) 0.752(4) 0.6495(17)
C5B C 0.55480(10) 0.8357(3) 0.64278(15)
H4B H 0.5623(11) 0.975(4) 0.6984(17)
C6B C 0.60695(9) 0.5030(3) 0.53779(14)
C7B C 0.53200(9) 0.4336(3) 0.48605(13)
C8B C 0.52160(9) 0.2319(3) 0.40734(14)
C9B C 0.72289(10) 0.0284(3) 0.40771(15)
C10B C 0.77601(10) -0.0935(3) 0.38682(15)
C11B C 0.88786(12) -0.4833(4) 0.48718(17)
H5B H 0.8517(13) -0.598(4) 0.4986(19)
H6B H 0.9322(15) -0.578(5) 0.473(2)
H7B H 0.9011(13) -0.382(5) 0.553(2)
C12B C 0.93624(11) -0.0877(4) 0.32999(19)
H8B H 0.9576(13) 0.010(5) 0.397(2)
H9B H 0.9208(14) 0.027(5) 0.266(2)
H10B H 0.9768(15) -0.184(5) 0.313(2)
C13B C 0.82254(12) -0.4821(4) 0.22800(17)
H11B H 0.7835(14) -0.596(5) 0.241(2)
H12B H 0.8033(13) -0.377(4) 0.160(2)
H13B H 0.8634(14) -0.578(5) 0.207(2)
loop_
_geom_bond_atom_site_label_1
_geom_bond_atom_site_label_2
_geom_bond_site_symmetry_1
_geom_bond_site_symmetry_2
Si1 C10 1_555 1_555
C1 H1 1_555 1_555
C2 C1 1_555 1_555
C3 C2 1_555 1_555
H2 C3 1_555 1_555
C4 H3 1_555 1_555
C5 C4 1_555 1_555
H4 C5 1_555 1_555
C6 C3 1_555 1_555
C7 C6 1_555 1_555
C8 C1 1_555 1_555
C9 C2 1_555 1_555
C10 C9 1_555 1_555
C11 Si1 1_555 1_555
H5 C11 1_555 1_555
H6 C11 1_555 1_555
H7 C11 1_555 1_555
C12 Si1 1_555 1_555
H8 C12 1_555 1_555
H9 C12 1_555 1_555
H10 C12 1_555 1_555
C13 Si1 1_555 1_555
H11 C13 1_555 1_555
H12 C13 1_555 1_555
H13 C13 1_555 1_555
Si1B C10B 1_555 1_555
C1B H1B 1_555 1_555
C2B C1B 1_555 1_555
C3B C2B 1_555 1_555
H2B C3B 1_555 1_555
C4B H3B 1_555 1_555
C5B C8 1_555 1_555
H4B C5B 1_555 1_555
C6B C3B 1_555 1_555
C7B C7 1_555 1_555
C8B C5 1_555 1_555
C9B C2B 1_555 1_555
C10B C9B 1_555 1_555
C11B Si1B 1_555 1_555
H5B C11B 1_555 1_555
H6B C11B 1_555 1_555
H7B C11B 1_555 1_555
C12B Si1B 1_555 1_555
H8B C12B 1_555 1_555
H9B C12B 1_555 1_555
H10B C12B 1_555 1_555
C13B Si1B 1_555 1_555
H11B C13B 1_555 1_555
H12B C13B 1_555 1_555
H13B C13B 1_555 1_555
C4 C6 1_555 1_555
C7 C8 1_555 1_555
C1B C8B 1_555 1_555
C4B C5B 1_555 1_555
C4B C6B 1_555 1_555
C6B C7B 1_555 1_555
C7B C8B 1_555 1_555

#END
