
#######################################################################
#
#                 Cambridge Crystallographic Data Centre
#                                CCDC 
#
#######################################################################
#
# If this CIF has been generated from an entry in the Cambridge 
# Structural Database, then it will include bibliographic, chemical, 
# crystal, experimental, refinement or atomic coordinate data resulting 
# from the CCDC's data processing and validation procedures.
#
#######################################################################

data_CARKEN
_chemical_name_common            pyrene-2-bpin-7-t-butyl
_chemical_formula_moiety         'C26 H29 B1 O2'
_chemical_name_systematic        
2-(7-t-Butylpyren-2-yl)-4,4,5,5-tetramethyl-1,3,2-dioxaborolane
_symmetry_cell_setting           monoclinic
_symmetry_space_group_name_H-M   'P 21'
_symmetry_Int_Tables_number      4
_space_group_name_Hall           'P 2yb'
loop_
_symmetry_equiv_pos_site_id
_symmetry_equiv_pos_as_xyz
1 x,y,z
2 -x,1/2+y,-z
_cell_length_a                   9.7268(5)
_cell_length_b                   12.3550(6)
_cell_length_c                   9.8841(5)
_cell_angle_alpha                90
_cell_angle_beta                 115.812(7)
_cell_angle_gamma                90
_cell_volume                     1069.31
_exptl_crystal_colour            colorless
_exptl_crystal_description       tabular
_chemical_melting_point          '513.7 K'
_cell_formula_units_Z            2
loop_
_atom_site_label
_atom_site_type_symbol
_atom_site_fract_x
_atom_site_fract_y
_atom_site_fract_z
O1 O -0.07348(15) 0.35949(10) 0.05441(13)
O2 O -0.09545(14) 0.17494(10) 0.06316(12)
C1 C 0.07219(18) 0.36675(13) 0.39843(18)
H1 H 0.0362 0.4332 0.3467
C2 C 0.04623(17) 0.27049(14) 0.31607(16)
C3 C 0.10096(18) 0.17288(13) 0.39337(17)
H2 H 0.0828 0.1074 0.3379
C4 C 0.23858(19) 0.06978(13) 0.63002(18)
H3 H 0.2233 0.0040 0.5756
C5 C 0.3141(2) 0.06792(13) 0.78217(19)
H4 H 0.3511 0.0010 0.8322
C6 C 0.41192(18) 0.16491(14) 1.02607(18)
H5 H 0.4532 0.0989 1.0766
C7 C 0.42588(17) 0.25880(14) 1.11114(17)
C8 C 0.36982(18) 0.35562(13) 1.03468(17)
H6 H 0.3791 0.4199 1.0909
C9 C 0.24294(18) 0.46105(13) 0.79676(18)
H7 H 0.2543 0.5262 0.8517
C10 C 0.17310(18) 0.46370(13) 0.64410(18)
H8 H 0.1386 0.5311 0.5946
C11 C 0.15034(17) 0.36681(12) 0.55608(17)
C12 C 0.20552(17) 0.26708(13) 0.63288(16)
C13 C 0.18107(18) 0.16926(13) 0.54963(17)
C14 C 0.28253(17) 0.26483(14) 0.79244(16)
C15 C 0.30012(18) 0.36113(12) 0.87667(18)
C16 C 0.33939(17) 0.16594(12) 0.86947(18)
C17 C 0.50486(18) 0.25266(14) 1.28299(17)
C18 C 0.67821(19) 0.25507(16) 1.33373(19)
H9 H 0.7079 0.1941 1.2887
H10 H 0.7311 0.2496 1.4435
H11 H 0.7063 0.3232 1.3015
C19 C 0.4616(2) 0.14745(17) 1.3384(2)
H12 H 0.5063 0.0855 1.3097
H13 H 0.3501 0.1397 1.2929
H14 H 0.5010 0.1495 1.4482
C20 C 0.4602(2) 0.34817(17) 1.3556(2)
H15 H 0.4923 0.4163 1.3272
H16 H 0.5104 0.3403 1.4652
H17 H 0.3491 0.3487 1.3206
C21 C -0.17568(19) 0.32581(15) -0.09887(18)
C22 C -0.14250(19) 0.20176(14) -0.09502(17)
C23 C -0.1373(2) 0.39134(17) -0.2074(2)
H18 H -0.1598 0.4679 -0.2005
H19 H -0.1988 0.3654 -0.3100
H20 H -0.0286 0.3830 -0.1822
C24 C -0.3373(2) 0.35103(19) -0.1202(2)
H21 H -0.3455 0.4284 -0.1029
H22 H -0.3603 0.3088 -0.0485
H23 H -0.4106 0.3324 -0.2229
C25 C -0.2792(2) 0.13234(18) -0.1904(2)
H24 H -0.2487 0.0561 -0.1796
H25 H -0.3177 0.1538 -0.2960
H26 H -0.3597 0.1423 -0.1572
C26 C -0.0072(2) 0.17469(17) -0.1275(2)
H27 H 0.0195 0.0981 -0.1053
H28 H 0.0805 0.2196 -0.0644
H29 H -0.0341 0.1888 -0.2337
B1 B -0.0420(2) 0.26938(16) 0.14253(19)
loop_
_geom_bond_atom_site_label_1
_geom_bond_atom_site_label_2
_geom_bond_site_symmetry_1
_geom_bond_site_symmetry_2
O1 C21 1_555 1_555
O2 C22 1_555 1_555
C1 H1 1_555 1_555
C2 C1 1_555 1_555
C3 C2 1_555 1_555
H2 C3 1_555 1_555
C4 H3 1_555 1_555
C5 C4 1_555 1_555
H4 C5 1_555 1_555
C6 H5 1_555 1_555
C7 C6 1_555 1_555
C8 C7 1_555 1_555
H6 C8 1_555 1_555
C9 H7 1_555 1_555
C10 C9 1_555 1_555
H8 C10 1_555 1_555
C11 C1 1_555 1_555
C12 C11 1_555 1_555
C13 C3 1_555 1_555
C14 C12 1_555 1_555
C15 C8 1_555 1_555
C16 C5 1_555 1_555
C17 C7 1_555 1_555
C18 C17 1_555 1_555
H9 C18 1_555 1_555
H10 C18 1_555 1_555
H11 C18 1_555 1_555
C19 C17 1_555 1_555
H12 C19 1_555 1_555
H13 C19 1_555 1_555
H14 C19 1_555 1_555
C20 C17 1_555 1_555
H15 C20 1_555 1_555
H16 C20 1_555 1_555
H17 C20 1_555 1_555
C21 C22 1_555 1_555
C22 C25 1_555 1_555
C23 C21 1_555 1_555
H18 C23 1_555 1_555
H19 C23 1_555 1_555
H20 C23 1_555 1_555
C24 C21 1_555 1_555
H21 C24 1_555 1_555
H22 C24 1_555 1_555
H23 C24 1_555 1_555
C25 H24 1_555 1_555
H25 C25 1_555 1_555
H26 C25 1_555 1_555
C26 C22 1_555 1_555
H27 C26 1_555 1_555
H28 C26 1_555 1_555
H29 C26 1_555 1_555
B1 O1 1_555 1_555
O2 B1 1_555 1_555
C2 B1 1_555 1_555
C4 C13 1_555 1_555
C6 C16 1_555 1_555
C9 C15 1_555 1_555
C10 C11 1_555 1_555
C12 C13 1_555 1_555
C14 C15 1_555 1_555
C14 C16 1_555 1_555

#END
