
#######################################################################
#
#                 Cambridge Crystallographic Data Centre
#                                CCDC 
#
#######################################################################
#
# If this CIF has been generated from an entry in the Cambridge 
# Structural Database, then it will include bibliographic, chemical, 
# crystal, experimental, refinement or atomic coordinate data resulting 
# from the CCDC's data processing and validation procedures.
#
#######################################################################

data_CARLAK
_chemical_formula_moiety         'C24 H14'
_chemical_name_systematic        2-(Phenylethynyl)pyrene
_symmetry_cell_setting           triclinic
_symmetry_space_group_name_H-M   'P -1'
_symmetry_Int_Tables_number      2
_space_group_name_Hall           '-P 1'
loop_
_symmetry_equiv_pos_site_id
_symmetry_equiv_pos_as_xyz
1 x,y,z
2 -x,-y,-z
_cell_length_a                   7.9968(8)
_cell_length_b                   8.0398(7)
_cell_length_c                   24.367(2)
_cell_angle_alpha                89.741(13)
_cell_angle_beta                 89.677(12)
_cell_angle_gamma                79.308(12)
_cell_volume                     1539.39
_exptl_crystal_colour            'off white'
_exptl_crystal_description       plate
_chemical_melting_point          '408.7 K'
_cell_formula_units_Z            4
loop_
_atom_site_label
_atom_site_type_symbol
_atom_site_fract_x
_atom_site_fract_y
_atom_site_fract_z
C1 C 0.20227(17) 0.63486(17) 0.02267(5)
H1 H 0.0920 0.6105 0.0167
C2 C 0.26195(17) 0.75257(17) -0.01120(5)
C3 C 0.42541(17) 0.78678(17) -0.00311(5)
H2 H 0.4672 0.8638 -0.0269
C4 C 0.69433(17) 0.74540(18) 0.04983(6)
H3 H 0.7383 0.8220 0.0265
C5 C 0.78956(17) 0.67244(18) 0.09233(6)
H4 H 0.8985 0.6999 0.0984
C6 C 0.82518(18) 0.47870(19) 0.17300(6)
H5 H 0.9339 0.5055 0.1800
C7 C 0.76306(19) 0.3651(2) 0.20701(6)
H6 H 0.8295 0.3149 0.2370
C8 C 0.60428(19) 0.32422(19) 0.19751(6)
H7 H 0.5632 0.2464 0.2211
C9 C 0.33972(18) 0.35742(18) 0.14199(6)
H8 H 0.2975 0.2777 0.1646
C10 C 0.24340(18) 0.43102(18) 0.09997(6)
H9 H 0.1355 0.4017 0.0935
C11 C 0.30161(16) 0.55321(17) 0.06487(5)
C12 C 0.46576(16) 0.59115(16) 0.07440(5)
C13 C 0.52784(17) 0.70952(17) 0.03941(5)
C14 C 0.56700(16) 0.51331(16) 0.11857(5)
C15 C 0.50438(17) 0.39625(17) 0.15352(5)
C16 C 0.72978(17) 0.55405(18) 0.12852(5)
C17 C 0.15475(18) 0.83725(18) -0.05375(6)
C18 C 0.06317(18) 0.90948(18) -0.08838(6)
C19 C -0.04326(18) 0.99909(18) -0.13016(6)
C20 C 0.03004(19) 1.06435(19) -0.17585(6)
H10 H 0.1503 1.0466 -0.1796
C21 C -0.0721(2) 1.1546(2) -0.21531(6)
H11 H -0.0217 1.1998 -0.2460
C22 C -0.2479(2) 1.1797(2) -0.21049(7)
H12 H -0.3175 1.2417 -0.2379
C23 C -0.3218(2) 1.1145(2) -0.16586(7)
H13 H -0.4422 1.1307 -0.1628
C24 C -0.22060(18) 1.02573(18) -0.12563(6)
H14 H -0.2719 0.9826 -0.0947
C25 C 0.64867(17) 0.68964(17) 0.51960(5)
H15 H 0.6278 0.5786 0.5136
C26 C 0.76379(17) 0.75304(18) 0.48563(6)
C27 C 0.79300(17) 0.91731(18) 0.49379(6)
H16 H 0.8688 0.9614 0.4700
C28 C 0.74409(17) 1.18420(18) 0.54742(6)
H17 H 0.8199 1.2303 0.5242
C29 C 0.66842(18) 1.27725(18) 0.59015(6)
H18 H 0.6933 1.3866 0.5965
C30 C 0.47125(19) 1.30719(19) 0.67036(6)
H19 H 0.4931 1.4174 0.6772
C31 C 0.3602(2) 1.2404(2) 0.70434(6)
H20 H 0.3068 1.3053 0.7342
C32 C 0.32676(19) 1.0802(2) 0.69506(6)
H21 H 0.2510 1.0360 0.7188
C33 C 0.37113(18) 0.81614(19) 0.64034(6)
H22 H 0.2957 0.7701 0.6637
C34 C 0.44585(17) 0.72316(19) 0.59758(6)
H23 H 0.4198 0.6144 0.5909
C35 C 0.56398(16) 0.78642(17) 0.56212(5)
C36 C 0.59707(16) 0.95141(17) 0.57147(5)
C37 C 0.71209(16) 1.01766(17) 0.53658(5)
C38 C 0.51622(16) 1.04976(17) 0.61605(5)
C39 C 0.40319(17) 0.98204(19) 0.65106(6)
C40 C 0.55144(17) 1.21334(18) 0.62592(6)
C41 C 0.85202(17) 0.64714(18) 0.44361(6)
C42 C 0.92615(18) 0.55281(18) 0.40961(6)
C43 C 1.01386(17) 0.44248(18) 0.36837(5)
C44 C 1.08964(19) 0.50949(19) 0.32356(6)
H24 H 1.0828 0.6284 0.3205
C45 C 1.1747(2) 0.4034(2) 0.28363(6)
H25 H 1.2266 0.4496 0.2535
C46 C 1.18406(19) 0.2301(2) 0.28769(6)
H26 H 1.2412 0.1576 0.2601
C47 C 1.11021(18) 0.16228(19) 0.33190(6)
H27 H 1.1173 0.0433 0.3347
C48 C 1.02617(17) 0.26753(18) 0.37218(6)
H28 H 0.9765 0.2201 0.4026
loop_
_geom_bond_atom_site_label_1
_geom_bond_atom_site_label_2
_geom_bond_site_symmetry_1
_geom_bond_site_symmetry_2
C1 H1 1_555 1_555
C2 C1 1_555 1_555
C3 C2 1_555 1_555
H2 C3 1_555 1_555
C4 H3 1_555 1_555
C5 C4 1_555 1_555
H4 C5 1_555 1_555
C6 H5 1_555 1_555
C7 C6 1_555 1_555
H6 C7 1_555 1_555
C8 C7 1_555 1_555
H7 C8 1_555 1_555
C9 H8 1_555 1_555
C10 C9 1_555 1_555
H9 C10 1_555 1_555
C11 C1 1_555 1_555
C12 C11 1_555 1_555
C13 C3 1_555 1_555
C14 C12 1_555 1_555
C15 C8 1_555 1_555
C16 C5 1_555 1_555
C17 C2 1_555 1_555
C18 C17 1_555 1_555
C19 C18 1_555 1_555
C20 C19 1_555 1_555
H10 C20 1_555 1_555
C21 C20 1_555 1_555
H11 C21 1_555 1_555
C22 C21 1_555 1_555
H12 C22 1_555 1_555
C23 C22 1_555 1_555
H13 C23 1_555 1_555
C24 C19 1_555 1_555
H14 C24 1_555 1_555
C25 H15 1_555 1_555
C26 C25 1_555 1_555
C27 C26 1_555 1_555
H16 C27 1_555 1_555
C28 H17 1_555 1_555
C29 C28 1_555 1_555
H18 C29 1_555 1_555
C30 H19 1_555 1_555
C31 C30 1_555 1_555
H20 C31 1_555 1_555
C32 C31 1_555 1_555
H21 C32 1_555 1_555
C33 H22 1_555 1_555
C34 C33 1_555 1_555
H23 C34 1_555 1_555
C35 C25 1_555 1_555
C36 C35 1_555 1_555
C37 C27 1_555 1_555
C38 C36 1_555 1_555
C39 C32 1_555 1_555
C40 C29 1_555 1_555
C41 C26 1_555 1_555
C42 C41 1_555 1_555
C43 C42 1_555 1_555
C44 C43 1_555 1_555
H24 C44 1_555 1_555
C45 C44 1_555 1_555
H25 C45 1_555 1_555
C46 C45 1_555 1_555
H26 C46 1_555 1_555
C47 C46 1_555 1_555
H27 C47 1_555 1_555
C48 C43 1_555 1_555
H28 C48 1_555 1_555
C4 C13 1_555 1_555
C6 C16 1_555 1_555
C9 C15 1_555 1_555
C10 C11 1_555 1_555
C12 C13 1_555 1_555
C14 C15 1_555 1_555
C14 C16 1_555 1_555
C23 C24 1_555 1_555
C28 C37 1_555 1_555
C30 C40 1_555 1_555
C33 C39 1_555 1_555
C34 C35 1_555 1_555
C36 C37 1_555 1_555
C38 C39 1_555 1_555
C38 C40 1_555 1_555
C47 C48 1_555 1_555

#END
