
#######################################################################
#
#                 Cambridge Crystallographic Data Centre
#                                CCDC 
#
#######################################################################
#
# If this CIF has been generated from an entry in the Cambridge 
# Structural Database, then it will include bibliographic, chemical, 
# crystal, experimental, refinement or atomic coordinate data resulting 
# from the CCDC's data processing and validation procedures.
#
#######################################################################

data_CARMIR
_chemical_formula_moiety         'C12 H20 N2 O1 S2'
_chemical_name_systematic        
5-Methyl-3-(1-oxo-nonyl)-1,3,4-thiadiazole-2(3H)-2-thione
_symmetry_cell_setting           monoclinic
_symmetry_space_group_name_H-M   'P 21/a'
_symmetry_Int_Tables_number      14
_space_group_name_Hall           '-P 2yab'
loop_
_symmetry_equiv_pos_site_id
_symmetry_equiv_pos_as_xyz
1 x,y,z
2 1/2-x,1/2+y,-z
3 -x,-y,-z
4 1/2+x,1/2-y,z
_cell_length_a                   8.1911(3)
_cell_length_b                   9.0791(3)
_cell_length_c                   19.2164(8)
_cell_angle_alpha                90
_cell_angle_beta                 97.7742(19)
_cell_angle_gamma                90
_cell_volume                     1415.95
_exptl_crystal_colour            yellow
_exptl_crystal_description       plate
_cell_formula_units_Z            4
loop_
_atom_site_label
_atom_site_type_symbol
_atom_site_fract_x
_atom_site_fract_y
_atom_site_fract_z
S1 S 0.69792(5) 0.52445(5) 0.05704(2)
C1 C 0.62207(18) 0.67390(16) 0.09873(8)
S2 S 0.64323(5) 0.84412(5) 0.07236(2)
N1 N 0.54827(14) 0.61885(13) 0.15403(6)
N2 N 0.54431(15) 0.46627(12) 0.16128(7)
C2 C 0.61823(17) 0.40388(17) 0.11405(8)
C3 C 0.6329(2) 0.23965(17) 0.10888(10)
C4 C 0.47361(17) 0.70394(16) 0.20408(7)
O1 O 0.47292(15) 0.83600(11) 0.20148(6)
C5 C 0.40179(18) 0.61454(15) 0.25871(7)
C6 C 0.35733(18) 0.71045(16) 0.31825(7)
C7 C 0.31077(18) 0.61876(15) 0.37904(7)
C8 C 0.27691(18) 0.71030(16) 0.44186(7)
C9 C 0.24143(18) 0.61707(15) 0.50415(7)
C10 C 0.20905(18) 0.70534(16) 0.56810(7)
C11 C 0.17604(19) 0.60892(17) 0.62960(8)
C12 C 0.1448(2) 0.69425(19) 0.69486(8)
H1 H 0.5800 0.1940 0.1450
H2 H 0.7472 0.2125 0.1147
H3 H 0.5809 0.2074 0.0637
H4 H 0.4810 0.5406 0.2777
H5 H 0.3038 0.5640 0.2368
H6 H 0.2656 0.7737 0.3006
H7 H 0.4504 0.7729 0.3352
H8 H 0.2133 0.5613 0.3625
H9 H 0.3995 0.5504 0.3941
H10 H 0.1833 0.7740 0.4276
H11 H 0.3716 0.7725 0.4565
H12 H 0.1462 0.5556 0.4893
H13 H 0.3346 0.5524 0.5177
H14 H 0.1148 0.7690 0.5550
H15 H 0.3036 0.7675 0.5829
H16 H 0.2698 0.5444 0.6420
H17 H 0.0810 0.5474 0.6146
H18 H 0.2404 0.7518 0.7117
H19 H 0.1225 0.6264 0.7307
H20 H 0.0519 0.7583 0.6833
loop_
_geom_bond_atom_site_label_1
_geom_bond_atom_site_label_2
_geom_bond_site_symmetry_1
_geom_bond_site_symmetry_2
S1 C1 1_555 1_555
C1 S2 1_555 1_555
N1 C1 1_555 1_555
N2 N1 1_555 1_555
C2 S1 1_555 1_555
C3 C2 1_555 1_555
C4 N1 1_555 1_555
O1 C4 1_555 1_555
C5 C4 1_555 1_555
C6 C5 1_555 1_555
C7 C6 1_555 1_555
C8 C7 1_555 1_555
C9 C8 1_555 1_555
C10 C9 1_555 1_555
C11 C10 1_555 1_555
C12 C11 1_555 1_555
H1 C3 1_555 1_555
H2 C3 1_555 1_555
H3 C3 1_555 1_555
H4 C5 1_555 1_555
H5 C5 1_555 1_555
H6 C6 1_555 1_555
H7 C6 1_555 1_555
H8 C7 1_555 1_555
H9 C7 1_555 1_555
H10 C8 1_555 1_555
H11 C8 1_555 1_555
H12 C9 1_555 1_555
H13 C9 1_555 1_555
H14 C10 1_555 1_555
H15 C10 1_555 1_555
H16 C11 1_555 1_555
H17 C11 1_555 1_555
H18 C12 1_555 1_555
H19 C12 1_555 1_555
H20 C12 1_555 1_555
N2 C2 1_555 1_555

#END
