
#######################################################################
#
#                 Cambridge Crystallographic Data Centre
#                                CCDC 
#
#######################################################################
#
# If this CIF has been generated from an entry in the Cambridge 
# Structural Database, then it will include bibliographic, chemical, 
# crystal, experimental, refinement or atomic coordinate data resulting 
# from the CCDC's data processing and validation procedures.
#
#######################################################################

data_CARREU
_chemical_name_common            
5,7,14,16-Tetraphenyl-8:9,12:13-bisbenzo-hexatwistacene
_chemical_formula_moiety         'C56 H34'
_chemical_name_systematic        9,11,16,18-Tetraphenyldibenzo[de,yz]hexacene
_symmetry_cell_setting           triclinic
_symmetry_space_group_name_H-M   'P -1'
_symmetry_Int_Tables_number      2
_space_group_name_Hall           '-P 1'
loop_
_symmetry_equiv_pos_site_id
_symmetry_equiv_pos_as_xyz
1 x,y,z
2 -x,-y,-z
_cell_length_a                   7.7160(3)
_cell_length_b                   11.1718(5)
_cell_length_c                   22.5538(10)
_cell_angle_alpha                92.110(2)
_cell_angle_beta                 99.101(2)
_cell_angle_gamma                102.127(2)
_cell_volume                     1871.91
_exptl_crystal_colour            red
_exptl_crystal_description       plate
_cell_formula_units_Z            2
loop_
_atom_site_label
_atom_site_type_symbol
_atom_site_fract_x
_atom_site_fract_y
_atom_site_fract_z
C1 C 0.6495(2) 0.55129(16) 0.42800(9)
C2 C 0.7802(3) 0.53456(18) 0.47758(9)
H1 H 0.8427 0.4727 0.4740
C3 C 0.8155(3) 0.60616(19) 0.52945(10)
H2 H 0.8986 0.5914 0.5614
C4 C 0.7271(3) 0.7030(2) 0.53540(10)
H3 H 0.7543 0.7532 0.5710
C5 C 0.6034(3) 0.72365(18) 0.48992(9)
H4 H 0.5480 0.7889 0.4946
C6 C 0.5550(2) 0.64836(16) 0.43491(8)
C7 C 0.4185(2) 0.66455(16) 0.38925(9)
C8 C 0.3179(3) 0.76341(16) 0.39741(8)
C9 C 0.3825(3) 0.8813(2) 0.38397(12)
H5 H 0.4894 0.9002 0.3688
C10 C 0.2907(4) 0.9724(2) 0.39275(14)
H6 H 0.3358 1.0519 0.3831
C11 C 0.1343(4) 0.9465(2) 0.41543(13)
H7 H 0.0744 1.0083 0.4223
C12 C 0.0672(4) 0.8296(3) 0.42781(14)
H8 H -0.0407 0.8107 0.4425
C13 C 0.1590(3) 0.7385(2) 0.41866(12)
H9 H 0.1114 0.6587 0.4272
C14 C 0.3729(2) 0.58648(16) 0.33589(8)
C15 C 0.2337(2) 0.59756(17) 0.28958(9)
H10 H 0.1713 0.6590 0.2944
C16 C 0.1847(2) 0.52096(16) 0.23686(8)
C17 C 0.0476(2) 0.53596(16) 0.18795(8)
C18 C -0.0498(2) 0.63551(17) 0.19845(9)
C19 C 0.0351(3) 0.7587(2) 0.20687(11)
H11 H 0.1541 0.7833 0.2015
C20 C -0.0571(4) 0.8455(2) 0.22326(13)
H12 H 0.0003 0.9281 0.2287
C21 C -0.2327(5) 0.8097(3) 0.23137(13)
H13 H -0.2926 0.8677 0.2437
C22 C -0.3196(4) 0.6892(3) 0.22138(12)
H14 H -0.4398 0.6655 0.2255
C23 C -0.2285(3) 0.6027(2) 0.20512(9)
H15 H -0.2883 0.5208 0.1985
C24 C 0.0016(2) 0.45435(16) 0.13749(8)
C25 C -0.1067(2) 0.47901(18) 0.08062(9)
C26 C -0.1259(3) 0.5965(2) 0.06706(9)
H16 H -0.0698 0.6625 0.0947
C27 C -0.2269(3) 0.6179(2) 0.01338(10)
H17 H -0.2379 0.6973 0.0055
C28 C -0.3097(3) 0.5230(2) -0.02768(10)
H18 H -0.3813 0.5377 -0.0627
C29 C -0.2889(3) 0.4047(2) -0.01815(10)
C30 C -0.1825(2) 0.38208(19) 0.03596(9)
C31 C -0.3737(4) 0.3044(3) -0.06109(11)
H19 H -0.4441 0.3188 -0.0964
C32 C -0.3546(3) 0.1905(3) -0.05183(11)
H20 H -0.4135 0.1272 -0.0806
C33 C -0.2454(3) 0.1630(2) 0.00133(10)
C34 C -0.2280(3) 0.0437(2) 0.01188(11)
H21 H -0.2865 -0.0204 -0.0165
C35 C -0.1264(3) 0.0200(2) 0.06314(12)
H22 H -0.1217 -0.0606 0.0708
C36 C -0.0296(3) 0.11559(18) 0.10428(10)
H23 H 0.0410 0.0977 0.1388
C37 C -0.0353(2) 0.23743(18) 0.09527(9)
C38 C -0.1537(2) 0.26083(18) 0.04453(9)
C39 C 0.0655(2) 0.34032(16) 0.13885(8)
C40 C 0.2105(2) 0.33081(16) 0.18173(8)
C41 C 0.3109(2) 0.23027(16) 0.18053(8)
C42 C 0.4171(3) 0.22372(19) 0.13726(9)
H24 H 0.4186 0.2786 0.1072
C43 C 0.5203(3) 0.1377(2) 0.13781(11)
H25 H 0.5909 0.1347 0.1082
C44 C 0.5204(4) 0.0568(2) 0.18140(12)
H26 H 0.5910 -0.0013 0.1815
C45 C 0.4166(4) 0.0606(2) 0.22510(11)
H27 H 0.4160 0.0049 0.2547
C46 C 0.3122(3) 0.14776(18) 0.22511(10)
H28 H 0.2428 0.1509 0.2551
C47 C 0.2774(2) 0.42315(16) 0.23049(8)
C48 C 0.4207(2) 0.41561(16) 0.27520(8)
H29 H 0.4858 0.3561 0.2696
C49 C 0.4718(2) 0.49291(16) 0.32802(8)
C50 C 0.6116(2) 0.47717(16) 0.37433(8)
C51 C 0.7109(2) 0.37858(17) 0.36451(8)
C52 C 0.8298(3) 0.3900(2) 0.32436(10)
H30 H 0.8547 0.4624 0.3052
C53 C 0.9123(3) 0.2959(2) 0.31213(11)
H31 H 0.9911 0.3052 0.2845
C54 C 0.8794(3) 0.1898(2) 0.34009(11)
H32 H 0.9337 0.1259 0.3312
C55 C 0.7661(3) 0.1778(2) 0.38126(12)
H33 H 0.7458 0.1064 0.4014
C56 C 0.6817(3) 0.27101(19) 0.39310(11)
H34 H 0.6036 0.2612 0.4209
loop_
_geom_bond_atom_site_label_1
_geom_bond_atom_site_label_2
_geom_bond_site_symmetry_1
_geom_bond_site_symmetry_2
C1 C2 1_555 1_555
C2 H1 1_555 1_555
C3 C2 1_555 1_555
H2 C3 1_555 1_555
C4 C3 1_555 1_555
H3 C4 1_555 1_555
C5 C4 1_555 1_555
H4 C5 1_555 1_555
C6 C1 1_555 1_555
C7 C6 1_555 1_555
C8 C7 1_555 1_555
C9 C8 1_555 1_555
H5 C9 1_555 1_555
C10 C9 1_555 1_555
H6 C10 1_555 1_555
C11 C10 1_555 1_555
H7 C11 1_555 1_555
C12 C11 1_555 1_555
H8 C12 1_555 1_555
C13 C8 1_555 1_555
H9 C13 1_555 1_555
C14 C7 1_555 1_555
C15 C14 1_555 1_555
H10 C15 1_555 1_555
C16 C15 1_555 1_555
C17 C16 1_555 1_555
C18 C17 1_555 1_555
C19 C18 1_555 1_555
H11 C19 1_555 1_555
C20 C19 1_555 1_555
H12 C20 1_555 1_555
C21 C20 1_555 1_555
H13 C21 1_555 1_555
C22 C21 1_555 1_555
H14 C22 1_555 1_555
C23 C18 1_555 1_555
H15 C23 1_555 1_555
C24 C17 1_555 1_555
C25 C24 1_555 1_555
C26 C25 1_555 1_555
H16 C26 1_555 1_555
C27 C26 1_555 1_555
H17 C27 1_555 1_555
C28 C27 1_555 1_555
H18 C28 1_555 1_555
C29 C28 1_555 1_555
C30 C25 1_555 1_555
C31 C29 1_555 1_555
H19 C31 1_555 1_555
C32 C31 1_555 1_555
H20 C32 1_555 1_555
C33 C32 1_555 1_555
C34 C33 1_555 1_555
H21 C34 1_555 1_555
C35 C34 1_555 1_555
H22 C35 1_555 1_555
C36 C35 1_555 1_555
H23 C36 1_555 1_555
C37 C36 1_555 1_555
C38 C30 1_555 1_555
C39 C24 1_555 1_555
C40 C39 1_555 1_555
C41 C40 1_555 1_555
C42 C41 1_555 1_555
H24 C42 1_555 1_555
C43 C42 1_555 1_555
H25 C43 1_555 1_555
C44 C43 1_555 1_555
H26 C44 1_555 1_555
C45 C44 1_555 1_555
H27 C45 1_555 1_555
C46 C41 1_555 1_555
H28 C46 1_555 1_555
C47 C16 1_555 1_555
C48 C47 1_555 1_555
H29 C48 1_555 1_555
C49 C14 1_555 1_555
C50 C1 1_555 1_555
C51 C50 1_555 1_555
C52 C51 1_555 1_555
H30 C52 1_555 1_555
C53 C52 1_555 1_555
H31 C53 1_555 1_555
C54 C53 1_555 1_555
H32 C54 1_555 1_555
C55 C54 1_555 1_555
H33 C55 1_555 1_555
C56 C51 1_555 1_555
H34 C56 1_555 1_555
C5 C6 1_555 1_555
C12 C13 1_555 1_555
C22 C23 1_555 1_555
C29 C30 1_555 1_555
C33 C38 1_555 1_555
C37 C38 1_555 1_555
C37 C39 1_555 1_555
C40 C47 1_555 1_555
C45 C46 1_555 1_555
C48 C49 1_555 1_555
C49 C50 1_555 1_555
C55 C56 1_555 1_555

#END
