
#######################################################################
#
#                 Cambridge Crystallographic Data Centre
#                                CCDC 
#
#######################################################################
#
# If this CIF has been generated from an entry in the Cambridge 
# Structural Database, then it will include bibliographic, chemical, 
# crystal, experimental, refinement or atomic coordinate data resulting 
# from the CCDC's data processing and validation procedures.
#
#######################################################################

data_CARVEZ
_chemical_formula_moiety         'C30 H29 O2 P1'
_chemical_name_systematic        
(S)-[6,6'-(2R,5R-hexadioxy)]-2-diphenylphosphino-(1,1')-biphenyl
_symmetry_cell_setting           monoclinic
_symmetry_space_group_name_H-M   'P 21'
_symmetry_Int_Tables_number      4
_space_group_name_Hall           'P 2yb'
loop_
_symmetry_equiv_pos_site_id
_symmetry_equiv_pos_as_xyz
1 x,y,z
2 -x,1/2+y,-z
_cell_length_a                   9.6219(2)
_cell_length_b                   14.0431(3)
_cell_length_c                   10.3983(2)
_cell_angle_alpha                90
_cell_angle_beta                 117.3780(10)
_cell_angle_gamma                90
_cell_volume                     1247.66
_exptl_crystal_colour            colorless
_exptl_crystal_description       prism
_cell_formula_units_Z            2
_chemical_properties_physical    Air-sensitive
loop_
_atom_site_label
_atom_site_type_symbol
_atom_site_fract_x
_atom_site_fract_y
_atom_site_fract_z
P1 P 0.23565(3) 0.369613(17) 0.29002(2)
O1 O -0.28098(7) 0.50445(5) 0.23231(7)
O2 O -0.01934(8) 0.49899(5) 0.50194(8)
C1 C 0.02173(10) 0.35833(7) 0.21621(9)
C2 C -0.05979(12) 0.27462(8) 0.15757(11)
H1 H -0.0096(14) 0.2240(10) 0.1410(13)
C3 C -0.21562(13) 0.26705(9) 0.12425(12)
H2 H -0.2694 0.2110 0.0836
C4 C -0.29275(11) 0.34122(8) 0.15023(10)
H3 H -0.3969 0.3346 0.1303
C5 C -0.21396(11) 0.42614(8) 0.20637(10)
C6 C -0.05613(10) 0.43602(7) 0.23836(10)
C7 C 0.02541(11) 0.52735(7) 0.30265(12)
C8 C 0.08487(13) 0.58442(9) 0.22938(16)
H4 H 0.0766(15) 0.5625(11) 0.1409(14)
C9 C 0.16099(15) 0.66926(11) 0.2908(2)
H5 H 0.195(2) 0.7081(15) 0.236(2)
C10 C 0.17771(16) 0.69691(10) 0.4240(2)
H6 H 0.2290 0.7536 0.4648
C11 C 0.11991(15) 0.64215(9) 0.49773(18)
H7 H 0.1431(19) 0.6611(13) 0.5956(19)
C12 C 0.04139(12) 0.55779(8) 0.43662(13)
C13 C -0.07878(14) 0.53766(9) 0.59580(12)
H8 H -0.0749(14) 0.6064(11) 0.5866(13)
C14 C -0.24466(14) 0.50137(10) 0.54275(12)
H9 H -0.2738 0.5110 0.6196
H10 H -0.2442 0.4332 0.5276
C15 C -0.37229(13) 0.54535(9) 0.40445(12)
H11 H -0.4670 0.5500 0.4152
H12 H -0.3406 0.6097 0.3962
C16 C -0.41171(11) 0.49404(8) 0.26461(11)
H13 H -0.4292(12) 0.4267(8) 0.2723(11)
C17 C -0.55597(13) 0.53300(12) 0.13830(14)
H14 H -0.6449 0.5244 0.1557
H15 H -0.5730 0.4998 0.0516
H16 H -0.5418 0.5996 0.1273
C18 C 0.0293(2) 0.50663(14) 0.74937(15)
H17 H 0.0175 0.4395 0.7587
H18 H 0.0031 0.5405 0.8155
H19 H 0.1357 0.5202 0.7713
C19 C 0.29200(11) 0.26076(8) 0.22756(10)
C20 C 0.23874(15) 0.24839(11) 0.07891(12)
H20 H 0.1700 0.2924 0.0139
C21 C 0.28801(16) 0.17071(12) 0.02767(13)
H21 H 0.2497 0.1621 -0.0715
C22 C 0.39162(15) 0.10720(11) 0.12121(13)
H22 H 0.4234 0.0552 0.0858
C23 C 0.44977(15) 0.11958(10) 0.26833(14)
H23 H 0.5238(15) 0.0750(11) 0.3374(14)
C24 C 0.39838(13) 0.19591(8) 0.32026(11)
H24 H 0.4366 0.2034 0.4196
C25 C 0.29438(11) 0.34346(7) 0.48166(10)
C26 C 0.19343(12) 0.30998(9) 0.53235(11)
H25 H 0.0897 0.2977 0.4668
C27 C 0.24337(15) 0.29429(11) 0.67842(13)
H26 H 0.1712(18) 0.2739(12) 0.7123(16)
C28 C 0.39525(17) 0.31059(12) 0.77599(13)
H27 H 0.4373(17) 0.2985(11) 0.8855(15)
C29 C 0.49866(17) 0.34451(11) 0.72882(15)
H28 H 0.6078(17) 0.3592(12) 0.7914(15)
C30 C 0.44812(13) 0.36112(11) 0.58242(13)
H29 H 0.5183 0.3844 0.5515
loop_
_geom_bond_atom_site_label_1
_geom_bond_atom_site_label_2
_geom_bond_site_symmetry_1
_geom_bond_site_symmetry_2
P1 C1 1_555 1_555
O1 C5 1_555 1_555
O2 C12 1_555 1_555
C1 C2 1_555 1_555
C2 H1 1_555 1_555
C3 C2 1_555 1_555
H2 C3 1_555 1_555
C4 C3 1_555 1_555
H3 C4 1_555 1_555
C5 C4 1_555 1_555
C6 C1 1_555 1_555
C7 C6 1_555 1_555
C8 C7 1_555 1_555
H4 C8 1_555 1_555
C9 C8 1_555 1_555
H5 C9 1_555 1_555
C10 C9 1_555 1_555
H6 C10 1_555 1_555
C11 C10 1_555 1_555
H7 C11 1_555 1_555
C12 C7 1_555 1_555
C13 O2 1_555 1_555
H8 C13 1_555 1_555
C14 C13 1_555 1_555
H9 C14 1_555 1_555
H10 C14 1_555 1_555
C15 C14 1_555 1_555
H11 C15 1_555 1_555
H12 C15 1_555 1_555
C16 O1 1_555 1_555
H13 C16 1_555 1_555
C17 C16 1_555 1_555
H14 C17 1_555 1_555
H15 C17 1_555 1_555
H16 C17 1_555 1_555
C18 C13 1_555 1_555
H17 C18 1_555 1_555
H18 C18 1_555 1_555
H19 C18 1_555 1_555
C19 P1 1_555 1_555
C20 C19 1_555 1_555
H20 C20 1_555 1_555
C21 C20 1_555 1_555
H21 C21 1_555 1_555
C22 C21 1_555 1_555
H22 C22 1_555 1_555
C23 C22 1_555 1_555
H23 C23 1_555 1_555
C24 C19 1_555 1_555
H24 C24 1_555 1_555
C25 P1 1_555 1_555
C26 C25 1_555 1_555
H25 C26 1_555 1_555
C27 C26 1_555 1_555
H26 C27 1_555 1_555
C28 C27 1_555 1_555
H27 C28 1_555 1_555
C29 C28 1_555 1_555
H28 C29 1_555 1_555
C30 C25 1_555 1_555
H29 C30 1_555 1_555
C5 C6 1_555 1_555
C11 C12 1_555 1_555
C15 C16 1_555 1_555
C23 C24 1_555 1_555
C29 C30 1_555 1_555

#END
