
#######################################################################
#
#                 Cambridge Crystallographic Data Centre
#                                CCDC 
#
#######################################################################
#
# If this CIF has been generated from an entry in the Cambridge 
# Structural Database, then it will include bibliographic, chemical, 
# crystal, experimental, refinement or atomic coordinate data resulting 
# from the CCDC's data processing and validation procedures.
#
#######################################################################

data_CARVAV
_chemical_formula_moiety         'C32 H33 O2 P1'
_chemical_name_systematic        
(R)-[6,6'-(2S,3S-butadioxy)]-2-di-(3,5-di-methyl-phenyl)phosphino-(1,1')-biphenyl
_symmetry_cell_setting           orthorhombic
_symmetry_space_group_name_H-M   'P 21 21 21'
_symmetry_Int_Tables_number      19
_space_group_name_Hall           'P 2ac 2ab'
loop_
_symmetry_equiv_pos_site_id
_symmetry_equiv_pos_as_xyz
1 x,y,z
2 1/2-x,-y,1/2+z
3 -x,1/2+y,1/2-z
4 1/2+x,1/2-y,-z
_cell_length_a                   8.9046(8)
_cell_length_b                   15.8525(14)
_cell_length_c                   19.3570(16)
_cell_angle_alpha                90
_cell_angle_beta                 90
_cell_angle_gamma                90
_cell_volume                     2732.44
_exptl_crystal_colour            colorless
_exptl_crystal_description       block
_cell_formula_units_Z            4
_chemical_properties_physical    Air-sensitive
loop_
_atom_site_label
_atom_site_type_symbol
_atom_site_fract_x
_atom_site_fract_y
_atom_site_fract_z
P1 P 0.23741(6) 0.39520(4) 0.21421(3)
O1 O 0.34412(15) 0.22847(10) 0.44113(7)
O2 O 0.25321(15) 0.39062(10) 0.46136(7)
C1 C 0.2051(2) 0.30758(12) 0.27415(10)
C2 C 0.1052(3) 0.24274(13) 0.25925(11)
H1 H 0.0497 0.2451 0.2186
C3 C 0.0862(3) 0.17556(14) 0.30272(11)
H2 H 0.0200 0.1326 0.2908
C4 C 0.1641(3) 0.17114(14) 0.36375(12)
H3 H 0.1502 0.1257 0.3935
C5 C 0.2629(2) 0.23450(13) 0.38048(10)
C6 C 0.28817(19) 0.30259(12) 0.33666(10)
C7 C 0.3944(2) 0.36974(12) 0.35802(9)
C8 C 0.3748(2) 0.41117(13) 0.41993(10)
C9 C 0.4678(3) 0.47711(15) 0.43946(12)
H4 H 0.4512 0.5055 0.4808
C10 C 0.5840(3) 0.49990(15) 0.39743(13)
H5 H 0.6464 0.5443 0.4101
C11 C 0.6093(2) 0.45805(15) 0.33707(12)
H6 H 0.691(2) 0.4733(14) 0.3114(10)
C12 C 0.5163(2) 0.39313(13) 0.31687(10)
H7 H 0.5348 0.3648 0.2757
C13 C 0.2650(3) 0.24925(18) 0.50398(11)
H8 H 0.1572 0.2401 0.4970
C14 C 0.2917(3) 0.34050(17) 0.52085(10)
H9 H 0.3981 0.3488 0.5319
C15 C 0.3206(3) 0.1901(2) 0.55898(13)
H10 H 0.2994 0.1330 0.5457
H11 H 0.2710 0.2025 0.6018
H12 H 0.4270 0.1971 0.5646
C16 C 0.1968(3) 0.3731(2) 0.57974(13)
H13 H 0.2208 0.4312 0.5883
H14 H 0.2167 0.3405 0.6205
H15 H 0.0925 0.3683 0.5678
C17 C 0.0740(2) 0.38836(14) 0.15684(9)
C18 C 0.0974(3) 0.34468(14) 0.09495(10)
H16 H 0.1909 0.3211 0.0859
C19 C -0.0177(3) 0.33609(14) 0.04666(10)
C20 C -0.1542(3) 0.37325(15) 0.06066(11)
H17 H -0.224(3) 0.3716(16) 0.0247(13)
C21 C -0.1810(2) 0.41761(15) 0.12055(11)
C22 C -0.0653(2) 0.42510(14) 0.16831(10)
H18 H -0.0815 0.4554 0.2088
C23 C 0.0105(4) 0.28925(17) -0.02003(11)
H19 H -0.0796 0.2889 -0.0473
H20 H 0.0398 0.2323 -0.0099
H21 H 0.0892 0.3168 -0.0453
C24 C -0.3316(3) 0.4578(2) 0.13319(13)
H22 H -0.3253 0.4944 0.1726
H23 H -0.4050 0.4147 0.1417
H24 H -0.3605 0.4900 0.0933
C25 C 0.1981(2) 0.48677(13) 0.26831(10)
C26 C 0.1002(2) 0.48926(14) 0.32301(11)
H25 H 0.0491(18) 0.4410(11) 0.3347(8)
C27 C 0.0869(2) 0.56008(15) 0.36479(12)
C28 C 0.1720(3) 0.62920(15) 0.34978(12)
H26 H 0.1626 0.6771 0.3772
C29 C 0.2710(3) 0.63028(14) 0.29565(11)
C30 C 0.2866(3) 0.55807(13) 0.25517(11)
H27 H 0.3560 0.5572 0.2193
C31 C -0.0125(3) 0.5592(2) 0.42749(15)
H28 H -0.0982 0.5239 0.4189
H29 H -0.0455 0.6155 0.4374
H30 H 0.0425 0.5375 0.4662
C32 C 0.3682(4) 0.70658(18) 0.27991(15)
H31 H 0.3907 0.7080 0.2314
H32 H 0.4600 0.7030 0.3057
H33 H 0.3154 0.7570 0.2926
loop_
_geom_bond_atom_site_label_1
_geom_bond_atom_site_label_2
_geom_bond_site_symmetry_1
_geom_bond_site_symmetry_2
P1 C1 1_555 1_555
O1 C5 1_555 1_555
O2 C8 1_555 1_555
C1 C2 1_555 1_555
C2 H1 1_555 1_555
C3 C2 1_555 1_555
H2 C3 1_555 1_555
C4 C3 1_555 1_555
H3 C4 1_555 1_555
C5 C4 1_555 1_555
C6 C1 1_555 1_555
C7 C6 1_555 1_555
C8 C7 1_555 1_555
C9 C8 1_555 1_555
H4 C9 1_555 1_555
C10 C9 1_555 1_555
H5 C10 1_555 1_555
C11 C10 1_555 1_555
H6 C11 1_555 1_555
C12 C7 1_555 1_555
H7 C12 1_555 1_555
C13 O1 1_555 1_555
H8 C13 1_555 1_555
C14 O2 1_555 1_555
H9 C14 1_555 1_555
C15 C13 1_555 1_555
H10 C15 1_555 1_555
H11 C15 1_555 1_555
H12 C15 1_555 1_555
C16 C14 1_555 1_555
H13 C16 1_555 1_555
H14 C16 1_555 1_555
H15 C16 1_555 1_555
C17 P1 1_555 1_555
C18 C17 1_555 1_555
H16 C18 1_555 1_555
C19 C18 1_555 1_555
C20 C19 1_555 1_555
H17 C20 1_555 1_555
C21 C20 1_555 1_555
C22 C17 1_555 1_555
H18 C22 1_555 1_555
C23 C19 1_555 1_555
H19 C23 1_555 1_555
H20 C23 1_555 1_555
H21 C23 1_555 1_555
C24 C21 1_555 1_555
H22 C24 1_555 1_555
H23 C24 1_555 1_555
H24 C24 1_555 1_555
C25 P1 1_555 1_555
C26 C25 1_555 1_555
H25 C26 1_555 1_555
C27 C26 1_555 1_555
C28 C27 1_555 1_555
H26 C28 1_555 1_555
C29 C28 1_555 1_555
C30 C25 1_555 1_555
H27 C30 1_555 1_555
C31 C27 1_555 1_555
H28 C31 1_555 1_555
H29 C31 1_555 1_555
H30 C31 1_555 1_555
C32 C29 1_555 1_555
H31 C32 1_555 1_555
H32 C32 1_555 1_555
H33 C32 1_555 1_555
C5 C6 1_555 1_555
C11 C12 1_555 1_555
C13 C14 1_555 1_555
C21 C22 1_555 1_555
C29 C30 1_555 1_555

#END
