
#######################################################################
#
#                 Cambridge Crystallographic Data Centre
#                                CCDC 
#
#######################################################################
#
# If this CIF has been generated from an entry in the Cambridge 
# Structural Database, then it will include bibliographic, chemical, 
# crystal, experimental, refinement or atomic coordinate data resulting 
# from the CCDC's data processing and validation procedures.
#
#######################################################################

data_CARYAX
_chemical_formula_moiety         'C17 H16 N4'
_chemical_name_systematic        
(Z)-4-(4-(Diethylamino)phenyl)buta-1,3-diene-1,1,3-tricarbonitrile
_symmetry_cell_setting           monoclinic
_symmetry_space_group_name_H-M   'P 21/c'
_symmetry_Int_Tables_number      14
_space_group_name_Hall           '-P 2ybc'
loop_
_symmetry_equiv_pos_site_id
_symmetry_equiv_pos_as_xyz
1 x,y,z
2 -x,1/2+y,1/2-z
3 -x,-y,-z
4 x,1/2-y,1/2+z
_cell_length_a                   9.1714(8)
_cell_length_b                   11.5010(10)
_cell_length_c                   13.9031(12)
_cell_angle_alpha                90
_cell_angle_beta                 100.253(4)
_cell_angle_gamma                90
_cell_volume                     1443.08
_exptl_crystal_colour            red
_exptl_crystal_description       plate
_chemical_melting_point          '208.0-209.0 deg.C'
_cell_formula_units_Z            4
_exptl_crystal_recrystallization_method dichloromethane/pentane
loop_
_atom_site_label
_atom_site_type_symbol
_atom_site_fract_x
_atom_site_fract_y
_atom_site_fract_z
N1 N 1.1975(2) -0.48439(16) 1.26160(13)
N2 N 1.2270(2) -0.47585(17) 0.95735(13)
N3 N 1.0192(2) -0.27140(16) 0.83460(12)
N4 N 0.58133(17) 0.23026(14) 0.77758(11)
C1 C 1.1166(2) -0.37994(17) 1.09627(13)
C2 C 1.0291(2) -0.28369(18) 1.08945(13)
C3 C 0.9691(2) -0.21521(17) 1.00600(13)
C4 C 0.8828(2) -0.12035(17) 1.01846(13)
C5 C 1.1608(2) -0.43712(17) 1.18874(14)
C6 C 1.1754(2) -0.43172(16) 1.01748(14)
C7 C 0.9982(2) -0.24708(16) 0.91074(14)
C8 C 0.8083(2) -0.03624(17) 0.95227(14)
C9 C 0.8160(2) -0.02544(17) 0.85143(14)
C10 C 0.7411(2) 0.06034(17) 0.79435(14)
C11 C 0.6519(2) 0.14261(16) 0.83294(13)
C12 C 0.6449(2) 0.13272(18) 0.93416(14)
C13 C 0.7196(2) 0.04669(17) 0.99005(14)
C14 C 0.4893(2) 0.31409(18) 0.81895(14)
C15 C 0.3396(2) 0.2677(2) 0.83270(16)
C16 C 0.5763(2) 0.23463(18) 0.67160(14)
C17 C 0.4593(3) 0.1556(2) 0.61466(16)
H1 H 1.000(2) -0.259(2) 1.1508(16)
H2 H 0.871(2) -0.1060(18) 1.0895(14)
H3 H 0.881(2) -0.0787(18) 0.8220(13)
H4 H 0.746(2) 0.065(2) 0.7275(17)
H5 H 0.583(3) 0.188(2) 0.9616(16)
H6 H 0.719(2) 0.0427(18) 1.0619(16)
H7 H 0.549(2) 0.3371(18) 0.8854(16)
H8 H 0.476(3) 0.380(2) 0.7740(16)
H9 H 0.280(3) 0.245(2) 0.7702(18)
H10 H 0.284(3) 0.328(2) 0.8638(17)
H11 H 0.352(3) 0.199(3) 0.8783(19)
H12 H 0.556(2) 0.317(2) 0.6528(14)
H13 H 0.673(3) 0.218(2) 0.6565(17)
H14 H 0.362(3) 0.183(2) 0.6238(19)
H15 H 0.464(3) 0.161(2) 0.545(2)
H16 H 0.470(3) 0.075(3) 0.6357(19)
loop_
_geom_bond_atom_site_label_1
_geom_bond_atom_site_label_2
_geom_bond_site_symmetry_1
_geom_bond_site_symmetry_2
N1 C5 1_555 1_555
N2 C6 1_555 1_555
N3 C7 1_555 1_555
N4 C11 1_555 1_555
C1 C2 1_555 1_555
C2 C3 1_555 1_555
C3 C4 1_555 1_555
C4 C8 1_555 1_555
C5 C1 1_555 1_555
C6 C1 1_555 1_555
C7 C3 1_555 1_555
C8 C9 1_555 1_555
C9 C10 1_555 1_555
C10 C11 1_555 1_555
C11 C12 1_555 1_555
C12 C13 1_555 1_555
C13 C8 1_555 1_555
C14 N4 1_555 1_555
C15 C14 1_555 1_555
C16 N4 1_555 1_555
C17 C16 1_555 1_555
H1 C2 1_555 1_555
H2 C4 1_555 1_555
H3 C9 1_555 1_555
H4 C10 1_555 1_555
H5 C12 1_555 1_555
H6 C13 1_555 1_555
H7 C14 1_555 1_555
H8 C14 1_555 1_555
H9 C15 1_555 1_555
H10 C15 1_555 1_555
H11 C15 1_555 1_555
H12 C16 1_555 1_555
H13 C16 1_555 1_555
H14 C17 1_555 1_555
H15 C17 1_555 1_555
H16 C17 1_555 1_555

#END
