
#######################################################################
#
#                 Cambridge Crystallographic Data Centre
#                                CCDC 
#
#######################################################################
#
# If this CIF has been generated from an entry in the Cambridge 
# Structural Database, then it will include bibliographic, chemical, 
# crystal, experimental, refinement or atomic coordinate data resulting 
# from the CCDC's data processing and validation procedures.
#
#######################################################################

data_CARYOL
_chemical_formula_moiety         'C18 H15 N5'
_chemical_name_systematic        
(E)-4-(4-(Diethylamino)phenyl)buta-1,3-diene-1,1,3,4-tetracarbonitrile
_symmetry_cell_setting           monoclinic
_symmetry_space_group_name_H-M   'P 21/c'
_symmetry_Int_Tables_number      14
_space_group_name_Hall           '-P 2ybc'
loop_
_symmetry_equiv_pos_site_id
_symmetry_equiv_pos_as_xyz
1 x,y,z
2 -x,1/2+y,1/2-z
3 -x,-y,-z
4 x,1/2-y,1/2+z
_cell_length_a                   9.0050(3)
_cell_length_b                   30.3773(11)
_cell_length_c                   11.6083(4)
_cell_angle_alpha                90
_cell_angle_beta                 90.9970(10)
_cell_angle_gamma                90
_cell_volume                     3174.94
_exptl_crystal_colour            'metallic purple'
_exptl_crystal_description       plate
_chemical_melting_point          '188.3-189.7 deg.C'
_cell_formula_units_Z            8
_exptl_crystal_recrystallization_method dichloromethane/pentane
loop_
_atom_site_label
_atom_site_type_symbol
_atom_site_fract_x
_atom_site_fract_y
_atom_site_fract_z
N1 N 0.0459(4) 0.24844(9) 0.1422(3)
N2 N -0.2787(4) 0.18824(9) 0.3616(3)
N3 N -0.2421(3) 0.08236(8) 0.3606(3)
N4 N 0.2340(3) 0.08284(9) 0.0126(3)
N5 N 0.0287(3) -0.12375(8) 0.2469(2)
C1 C -0.0017(4) 0.21712(10) 0.1792(3)
C2 C -0.0613(4) 0.17643(10) 0.2240(3)
C3 C -0.0007(3) 0.13793(10) 0.1856(3)
H1 H 0.081(3) 0.1410(8) 0.128(3)
C4 C -0.0358(3) 0.09351(9) 0.2129(3)
C5 C 0.0397(3) 0.05800(9) 0.1611(3)
C6 C 0.0274(3) 0.01182(9) 0.1793(3)
C7 C 0.1205(3) -0.01758(10) 0.1179(3)
H2 H 0.192(4) -0.0055(9) 0.059(3)
C8 C 0.1215(3) -0.06178(10) 0.1383(3)
H3 H 0.184(3) -0.0797(9) 0.092(3)
C9 C 0.0254(3) -0.08079(10) 0.2209(3)
C10 C -0.0745(4) -0.05175(10) 0.2763(3)
H4 H -0.143(3) -0.0625(9) 0.333(3)
C11 C -0.0719(4) -0.00784(10) 0.2584(3)
H5 H -0.140(3) 0.0101(9) 0.301(3)
C12 C -0.1817(4) 0.18161(9) 0.3014(3)
C13 C -0.1495(4) 0.08629(9) 0.2949(3)
C14 C 0.1481(4) 0.07131(9) 0.0769(3)
C15 C 0.1481(4) -0.15315(11) 0.2099(3)
H6 H 0.227(4) -0.1360(9) 0.184(3)
H7 H 0.166(4) -0.1739(11) 0.276(3)
C16 C 0.1081(4) -0.18040(13) 0.1042(4)
H8 H 0.091(5) -0.1631(14) 0.031(4)
H9 H 0.021(4) -0.1994(11) 0.125(3)
H10 H 0.193(4) -0.2006(12) 0.085(3)
C17 C -0.0762(4) -0.14316(10) 0.3285(3)
H11 H -0.177(4) -0.1296(10) 0.314(3)
H12 H -0.085(4) -0.1747(11) 0.308(3)
C18 C -0.0261(5) -0.13809(14) 0.4537(4)
H13 H -0.017(4) -0.1070(13) 0.478(3)
H14 H 0.075(5) -0.1501(12) 0.461(4)
H15 H -0.101(5) -0.1558(13) 0.508(4)
N6 N 0.6826(3) -0.18612(9) -0.3338(3)
N7 N 0.3830(3) -0.13657(8) -0.0803(3)
N8 N 0.3704(3) -0.02923(8) -0.0846(3)
N9 N 0.7355(4) -0.01476(9) -0.5028(3)
N10 N 0.4625(3) 0.18398(7) -0.2658(2)
C19 C 0.6267(4) -0.15590(10) -0.2958(3)
C20 C 0.5595(3) -0.11724(9) -0.2457(3)
C21 C 0.5928(3) -0.07685(10) -0.2914(3)
H16 H 0.666(3) -0.0774(9) -0.358(3)
C22 C 0.5431(3) -0.03415(9) -0.2587(3)
C23 C 0.5804(3) 0.00329(9) -0.3232(3)
C24 C 0.5452(3) 0.04872(9) -0.3061(3)
C25 C 0.4928(3) 0.06643(10) -0.2016(3)
H17 H 0.479(4) 0.0485(10) -0.139(3)
C26 C 0.4669(3) 0.11025(10) -0.1890(3)
H18 H 0.430(3) 0.1204(9) -0.117(3)
C27 C 0.4855(3) 0.14030(9) -0.2820(3)
C28 C 0.5338(3) 0.12269(10) -0.3877(3)
H19 H 0.545(3) 0.1417(9) -0.448(3)
C29 C 0.5658(4) 0.07909(10) -0.3979(3)
H20 H 0.600(3) 0.0678(9) -0.473(3)
C30 C 0.4610(4) -0.12654(9) -0.1536(3)
C31 C 0.4478(4) -0.03059(9) -0.1617(3)
C32 C 0.6670(4) -0.00619(9) -0.4238(3)
C33 C 0.4560(4) 0.21549(10) -0.3616(3)
H21 H 0.422(4) 0.2001(10) -0.436(3)
H22 H 0.378(4) 0.2391(11) -0.340(3)
C34 C 0.6049(4) 0.23749(11) -0.3818(4)
H23 H 0.681(4) 0.2147(10) -0.409(3)
H24 H 0.644(5) 0.2534(13) -0.310(4)
H25 H 0.594(4) 0.2629(12) -0.435(3)
C35 C 0.4496(4) 0.20282(10) -0.1496(3)
H26 H 0.510(4) 0.1847(10) -0.096(3)
H27 H 0.487(3) 0.2331(10) -0.150(3)
C36 C 0.2904(4) 0.20409(11) -0.1077(4)
H28 H 0.249(4) 0.1736(11) -0.103(3)
H29 H 0.289(4) 0.2192(10) -0.030(3)
H30 H 0.223(4) 0.2251(12) -0.162(4)
loop_
_geom_bond_atom_site_label_1
_geom_bond_atom_site_label_2
_geom_bond_site_symmetry_1
_geom_bond_site_symmetry_2
N1 C1 1_555 1_555
N2 C12 1_555 1_555
N3 C13 1_555 1_555
N4 C14 1_555 1_555
N5 C9 1_555 1_555
C1 C2 1_555 1_555
C2 C3 1_555 1_555
C3 H1 1_555 1_555
C4 C3 1_555 1_555
C5 C4 1_555 1_555
C6 C5 1_555 1_555
C7 C6 1_555 1_555
H2 C7 1_555 1_555
C8 C7 1_555 1_555
H3 C8 1_555 1_555
C9 C8 1_555 1_555
C10 C9 1_555 1_555
H4 C10 1_555 1_555
C11 C6 1_555 1_555
H5 C11 1_555 1_555
C12 C2 1_555 1_555
C13 C4 1_555 1_555
C14 C5 1_555 1_555
C15 N5 1_555 1_555
H6 C15 1_555 1_555
H7 C15 1_555 1_555
C16 C15 1_555 1_555
H8 C16 1_555 1_555
H9 C16 1_555 1_555
H10 C16 1_555 1_555
C17 N5 1_555 1_555
H11 C17 1_555 1_555
H12 C17 1_555 1_555
C18 C17 1_555 1_555
H13 C18 1_555 1_555
H14 C18 1_555 1_555
H15 C18 1_555 1_555
N6 C19 1_555 1_555
N7 C30 1_555 1_555
N8 C31 1_555 1_555
N9 C32 1_555 1_555
N10 C27 1_555 1_555
C19 C20 1_555 1_555
C20 C21 1_555 1_555
C21 H16 1_555 1_555
C22 C21 1_555 1_555
C23 C22 1_555 1_555
C24 C23 1_555 1_555
C25 C24 1_555 1_555
H17 C25 1_555 1_555
C26 C25 1_555 1_555
H18 C26 1_555 1_555
C27 C26 1_555 1_555
C28 C27 1_555 1_555
H19 C28 1_555 1_555
C29 C24 1_555 1_555
H20 C29 1_555 1_555
C30 C20 1_555 1_555
C31 C22 1_555 1_555
C32 C23 1_555 1_555
C33 N10 1_555 1_555
H21 C33 1_555 1_555
H22 C33 1_555 1_555
C34 C33 1_555 1_555
H23 C34 1_555 1_555
H24 C34 1_555 1_555
H25 C34 1_555 1_555
C35 N10 1_555 1_555
H26 C35 1_555 1_555
H27 C35 1_555 1_555
C36 C35 1_555 1_555
H28 C36 1_555 1_555
H29 C36 1_555 1_555
H30 C36 1_555 1_555
C10 C11 1_555 1_555
C28 C29 1_555 1_555

#END
