
#######################################################################
#
#                 Cambridge Crystallographic Data Centre
#                                CCDC 
#
#######################################################################
#
# If this CIF has been generated from an entry in the Cambridge 
# Structural Database, then it will include bibliographic, chemical, 
# crystal, experimental, refinement or atomic coordinate data resulting 
# from the CCDC's data processing and validation procedures.
#
#######################################################################

data_CARZOM
_chemical_formula_moiety         'C17 H15 Cl1 N4'
_chemical_name_systematic        
(Z)-4-Chloro-4-(4-(diethylamino)phenyl)buta-1,3-diene-1,1,2-tricarbonitrile
_symmetry_cell_setting           triclinic
_symmetry_space_group_name_H-M   'P -1'
_symmetry_Int_Tables_number      2
_space_group_name_Hall           '-P 1'
loop_
_symmetry_equiv_pos_site_id
_symmetry_equiv_pos_as_xyz
1 x,y,z
2 -x,-y,-z
_cell_length_a                   9.3591(1)
_cell_length_b                   12.0451(2)
_cell_length_c                   15.4976(3)
_cell_angle_alpha                112.3455(8)
_cell_angle_beta                 99.0001(7)
_cell_angle_gamma                96.4152(9)
_cell_volume                     1567.7
_exptl_crystal_colour            'deep purple'
_exptl_crystal_description       plate
_chemical_melting_point          '181.3-182.2 deg.C'
_cell_formula_units_Z            4
_exptl_crystal_recrystallization_method dichloromethane/pentane
loop_
_atom_site_label
_atom_site_type_symbol
_atom_site_fract_x
_atom_site_fract_y
_atom_site_fract_z
Cl1 Cl 0.84152(4) 0.01130(4) 0.03141(3)
N1 N 0.80849(15) -0.19334(12) -0.18980(10)
N2 N 0.52644(15) -0.25457(12) -0.40487(10)
N3 N 0.30222(16) 0.03866(14) -0.24599(11)
N4 N 0.64495(13) 0.48244(11) 0.34262(9)
C1 C 0.51457(15) -0.08017(12) -0.24640(10)
C2 C 0.61825(15) -0.04938(12) -0.16251(10)
C3 C 0.61478(15) 0.04933(12) -0.07633(10)
C4 C 0.70308(14) 0.08896(12) 0.01312(10)
C5 C 0.72829(15) -0.12630(13) -0.17203(10)
C6 C 0.52057(15) -0.17737(13) -0.33413(10)
C7 C 0.39620(16) -0.01527(14) -0.24777(11)
C8 C 0.69009(14) 0.19189(12) 0.09601(10)
C9 C 0.80359(15) 0.24342(12) 0.17958(10)
C10 C 0.79129(15) 0.34052(13) 0.25933(10)
C11 C 0.66098(15) 0.39069(12) 0.26263(10)
C12 C 0.54803(15) 0.34048(12) 0.17784(10)
C13 C 0.56337(15) 0.24593(12) 0.09766(10)
C14 C 0.76746(16) 0.54718(14) 0.42600(11)
C15 C 0.78817(19) 0.48438(18) 0.49466(12)
C16 C 0.49996(16) 0.51349(14) 0.35514(12)
C17 C 0.46210(19) 0.61325(16) 0.32322(15)
H1 H 0.5402(19) 0.0968(16) -0.0831(12)
H2 H 0.891(2) 0.2126(17) 0.1812(13)
H3 H 0.869(2) 0.3714(16) 0.3124(14)
H4 H 0.4562(18) 0.3714(14) 0.1745(11)
H5 H 0.4796(19) 0.2138(16) 0.0383(13)
H6 H 0.8593(19) 0.5589(15) 0.4045(12)
H7 H 0.7469(19) 0.6286(17) 0.4570(13)
H8 H 0.870(2) 0.532(2) 0.5515(17)
H9 H 0.811(2) 0.403(2) 0.4654(15)
H10 H 0.699(2) 0.4767(19) 0.5194(15)
H11 H 0.4215(19) 0.4398(16) 0.3201(13)
H12 H 0.5034(19) 0.5417(16) 0.4239(13)
H13 H 0.462(2) 0.5884(17) 0.2526(15)
H14 H 0.362(2) 0.6268(18) 0.3301(14)
H15 H 0.536(2) 0.691(2) 0.3586(15)
Cl2 Cl 0.10641(4) 0.39431(3) 0.10174(3)
N5 N 0.07468(14) 0.59164(12) 0.31029(9)
N6 N -0.18676(16) 0.79385(12) 0.36557(10)
N7 N -0.44616(16) 0.64475(14) 0.07235(10)
N8 N -0.17301(13) 0.03086(11) -0.35002(8)
C18 C -0.22539(15) 0.63669(12) 0.19122(10)
C19 C -0.13093(14) 0.55471(12) 0.16382(10)
C20 C -0.15274(15) 0.46254(12) 0.07018(10)
C21 C -0.06272(14) 0.38328(12) 0.03131(10)
C22 C -0.01066(15) 0.57069(12) 0.24183(10)
C23 C -0.20388(16) 0.72432(13) 0.28722(10)
C24 C -0.34794(16) 0.63985(13) 0.12451(11)
C25 C -0.09379(14) 0.29106(12) -0.06468(10)
C26 C 0.00225(15) 0.20937(12) -0.09736(10)
C27 C -0.02383(15) 0.12347(12) -0.18955(10)
C28 C -0.15014(14) 0.11352(12) -0.25818(10)
C29 C -0.24927(15) 0.19369(12) -0.22569(10)
C30 C -0.22205(15) 0.27847(12) -0.13286(10)
C31 C -0.05920(16) -0.03780(13) -0.38622(11)
C32 C -0.06282(19) -0.15562(14) -0.37104(13)
C33 C -0.30123(16) 0.01877(14) -0.42312(11)
C34 C -0.27321(18) 0.10404(15) -0.47242(12)
H16 H -0.2418(19) 0.4536(15) 0.0307(12)
H17 H 0.0883(18) 0.2156(15) -0.0526(12)
H18 H 0.046(2) 0.0681(17) -0.2072(13)
H19 H -0.3358(19) 0.1916(16) -0.2687(13)
H20 H -0.292(2) 0.3301(17) -0.1140(13)
H21 H 0.0370(18) 0.0163(15) -0.3576(12)
H22 H -0.0736(19) -0.0531(16) -0.4533(14)
H23 H 0.006(2) -0.1993(18) -0.4043(15)
H24 H -0.157(3) -0.208(2) -0.3969(16)
H25 H -0.032(2) -0.135(2) -0.3020(18)
H26 H -0.3864(18) 0.0352(15) -0.3912(12)
H27 H -0.3235(18) -0.0652(16) -0.4687(13)
H28 H -0.251(2) 0.189(2) -0.4240(15)
H29 H -0.195(3) 0.084(2) -0.5067(17)
H30 H -0.369(2) 0.0948(18) -0.5196(15)
loop_
_geom_bond_atom_site_label_1
_geom_bond_atom_site_label_2
_geom_bond_site_symmetry_1
_geom_bond_site_symmetry_2
Cl1 C4 1_555 1_555
Cl2 C21 1_555 1_555
N1 C5 1_555 1_555
N2 C6 1_555 1_555
N3 C7 1_555 1_555
N4 C11 1_555 1_555
N5 C22 1_555 1_555
N6 C23 1_555 1_555
N7 C24 1_555 1_555
N8 C28 1_555 1_555
C1 C2 1_555 1_555
C2 C3 1_555 1_555
C3 C4 1_555 1_555
C4 C8 1_555 1_555
C5 C2 1_555 1_555
C6 C1 1_555 1_555
C7 C1 1_555 1_555
C8 C9 1_555 1_555
C9 C10 1_555 1_555
C10 C11 1_555 1_555
C11 C12 1_555 1_555
C12 C13 1_555 1_555
C13 C8 1_555 1_555
C14 N4 1_555 1_555
C15 C14 1_555 1_555
C16 N4 1_555 1_555
C17 C16 1_555 1_555
C18 C19 1_555 1_555
C19 C20 1_555 1_555
C20 C21 1_555 1_555
C21 C25 1_555 1_555
C22 C19 1_555 1_555
C23 C18 1_555 1_555
C24 C18 1_555 1_555
C25 C26 1_555 1_555
C26 C27 1_555 1_555
C27 C28 1_555 1_555
C28 C29 1_555 1_555
C29 C30 1_555 1_555
C30 C25 1_555 1_555
C31 N8 1_555 1_555
C32 C31 1_555 1_555
C33 N8 1_555 1_555
C34 C33 1_555 1_555
H1 C3 1_555 1_555
H2 C9 1_555 1_555
H3 C10 1_555 1_555
H4 C12 1_555 1_555
H5 C13 1_555 1_555
H6 C14 1_555 1_555
H7 C14 1_555 1_555
H8 C15 1_555 1_555
H9 C15 1_555 1_555
H10 C15 1_555 1_555
H11 C16 1_555 1_555
H12 C16 1_555 1_555
H13 C17 1_555 1_555
H14 C17 1_555 1_555
H15 C17 1_555 1_555
H16 C20 1_555 1_555
H17 C26 1_555 1_555
H18 C27 1_555 1_555
H19 C29 1_555 1_555
H20 C30 1_555 1_555
H21 C31 1_555 1_555
H22 C31 1_555 1_555
H23 C32 1_555 1_555
H24 C32 1_555 1_555
H25 C32 1_555 1_555
H26 C33 1_555 1_555
H27 C33 1_555 1_555
H28 C34 1_555 1_555
H29 C34 1_555 1_555
H30 C34 1_555 1_555

#END
