
#######################################################################
#
#                 Cambridge Crystallographic Data Centre
#                                CCDC 
#
#######################################################################
#
# If this CIF has been generated from an entry in the Cambridge 
# Structural Database, then it will include bibliographic, chemical, 
# crystal, experimental, refinement or atomic coordinate data resulting 
# from the CCDC's data processing and validation procedures.
#
#######################################################################

data_CARZAY
_chemical_formula_moiety         'C19 H14 N6'
_chemical_name_systematic        
(Z)-4-(4-(Diethylamino)phenyl)buta-1,3-diene-1,1,2,3,4-pentacarbonitrile
_symmetry_cell_setting           orthorhombic
_symmetry_space_group_name_H-M   'P b c a'
_symmetry_Int_Tables_number      61
_space_group_name_Hall           '-P 2ac 2ab'
loop_
_symmetry_equiv_pos_site_id
_symmetry_equiv_pos_as_xyz
1 x,y,z
2 1/2-x,-y,1/2+z
3 1/2+x,1/2-y,-z
4 -x,1/2+y,1/2-z
5 -x,-y,-z
6 1/2+x,y,1/2-z
7 1/2-x,1/2+y,z
8 x,1/2-y,1/2+z
_cell_length_a                   13.0961(6)
_cell_length_b                   12.4572(8)
_cell_length_c                   21.3130(13)
_cell_angle_alpha                90
_cell_angle_beta                 90
_cell_angle_gamma                90
_cell_volume                     3477.02
_exptl_crystal_colour            'dark green'
_exptl_crystal_description       plate
_chemical_melting_point          '187.3-188.1 deg.C'
_cell_formula_units_Z            8
_exptl_crystal_recrystallization_method dichloromethane/pentane
loop_
_atom_site_label
_atom_site_type_symbol
_atom_site_fract_x
_atom_site_fract_y
_atom_site_fract_z
C1 C 0.3244(2) 0.1204(2) 0.25909(13)
N1 N 0.30111(19) 0.2542(2) 0.11386(12)
C2 C 0.49219(19) 0.0255(2) 0.26845(13)
C3 C 0.52433(19) 0.0657(2) 0.32725(13)
C4 C 0.2841(2) 0.2234(2) 0.16366(16)
C5 C 0.2978(2) 0.1039(2) 0.32363(16)
C6 C 0.5967(2) 0.1459(2) 0.44424(14)
N2 N 0.63365(17) 0.1851(2) 0.49775(11)
C7 C 0.3966(2) 0.0209(2) 0.17020(16)
C8 C 0.40772(19) 0.0584(2) 0.23324(13)
N3 N 0.61448(19) -0.1135(2) 0.21754(12)
C9 C 0.5045(2) 0.1726(3) 0.34673(15)
C10 C 0.5843(2) 0.0024(3) 0.36872(15)
C11 C 0.5570(2) -0.0548(2) 0.24028(14)
N4 N 0.27298(19) 0.0917(2) 0.37459(14)
C12 C 0.2630(2) 0.1895(2) 0.22636(13)
N5 N 0.38603(19) -0.0140(2) 0.12086(13)
C13 C 0.5393(2) 0.2114(3) 0.40210(14)
C14 C 0.1780(2) 0.2414(2) 0.25764(14)
N6 N 0.1120(2) 0.2837(2) 0.28312(13)
C15 C 0.6159(2) 0.0379(3) 0.42530(15)
C16 C 0.7996(2) 0.1161(4) 0.53610(19)
C17 C 0.6848(2) 0.1182(3) 0.54535(17)
C18 C 0.5419(3) 0.3309(4) 0.5531(2)
C19 C 0.6315(3) 0.3009(3) 0.51222(17)
H1 H 0.5283(17) 0.286(2) 0.4123(11)
H2 H 0.5963(18) -0.066(2) 0.3580(11)
H3 H 0.4691(18) 0.219(2) 0.3192(12)
H4 H 0.664(2) 0.149(2) 0.5863(16)
H5 H 0.6528(17) -0.012(2) 0.4546(12)
H6 H 0.830(2) 0.072(2) 0.5739(15)
H7 H 0.626(2) 0.348(3) 0.4733(16)
H8 H 0.823(2) 0.081(3) 0.4926(17)
H9 H 0.544(2) 0.291(3) 0.5962(18)
H10 H 0.654(2) 0.042(3) 0.5446(14)
H11 H 0.477(3) 0.310(2) 0.5326(15)
H12 H 0.543(3) 0.417(4) 0.557(2)
H13 H 0.826(2) 0.188(3) 0.5397(15)
H14 H 0.699(3) 0.318(2) 0.5352(15)
loop_
_geom_bond_atom_site_label_1
_geom_bond_atom_site_label_2
_geom_bond_site_symmetry_1
_geom_bond_site_symmetry_2
C1 C5 1_555 1_555
N1 C4 1_555 1_555
C2 C3 1_555 1_555
C3 C9 1_555 1_555
C4 C12 1_555 1_555
C5 N4 1_555 1_555
C6 N2 1_555 1_555
N2 C17 1_555 1_555
C7 C8 1_555 1_555
C8 C1 1_555 1_555
N3 C11 1_555 1_555
C9 C13 1_555 1_555
C10 C3 1_555 1_555
C11 C2 1_555 1_555
C12 C1 1_555 1_555
N5 C7 1_555 1_555
C13 C6 1_555 1_555
C14 C12 1_555 1_555
N6 C14 1_555 1_555
C15 C6 1_555 1_555
C16 C17 1_555 1_555
C17 H4 1_555 1_555
C18 C19 1_555 1_555
C19 N2 1_555 1_555
H1 C13 1_555 1_555
H2 C10 1_555 1_555
H3 C9 1_555 1_555
H5 C15 1_555 1_555
H6 C16 1_555 1_555
H7 C19 1_555 1_555
H8 C16 1_555 1_555
H9 C18 1_555 1_555
H10 C17 1_555 1_555
H11 C18 1_555 1_555
H12 C18 1_555 1_555
H13 C16 1_555 1_555
H14 C19 1_555 1_555
C2 C8 1_555 1_555
C10 C15 1_555 1_555

#END
