
#######################################################################
#
#                 Cambridge Crystallographic Data Centre
#                                CCDC 
#
#######################################################################
#
# If this CIF has been generated from an entry in the Cambridge 
# Structural Database, then it will include bibliographic, chemical, 
# crystal, experimental, refinement or atomic coordinate data resulting 
# from the CCDC's data processing and validation procedures.
#
#######################################################################

data_CARZUT
_chemical_formula_moiety         'C19 H22 N5 O1 S3 1+,C7 H7 O3 S1 1-,C3 H6 O1'
_chemical_name_systematic        
'2-(butylsulfinyl)-4-(1,2-dimethyl-1H-imidazol-5-yl)-6-(1,3-thiazol-2-yl)thieno[2,3-b]pyridin-3-aminium 4-methylbenzene-1-sulfonate acetone solvate'
_symmetry_cell_setting           monoclinic
_symmetry_space_group_name_H-M   'P 21'
_symmetry_Int_Tables_number      4
_space_group_name_Hall           'P 2yb'
loop_
_symmetry_equiv_pos_site_id
_symmetry_equiv_pos_as_xyz
1 x,y,z
2 -x,1/2+y,-z
_cell_length_a                   10.8556(16)
_cell_length_b                   8.4638(13)
_cell_length_c                   17.443(3)
_cell_angle_alpha                90
_cell_angle_beta                 96.664(4)
_cell_angle_gamma                90
_cell_volume                     1591.83
_exptl_crystal_colour            yellow
_exptl_crystal_description       needle
_cell_formula_units_Z            2
loop_
_atom_site_label
_atom_site_type_symbol
_atom_site_fract_x
_atom_site_fract_y
_atom_site_fract_z
S1 S -0.05541(14) 0.7260(2) 0.67118(9)
S2 S -0.15695(17) 0.5471(3) 0.79813(15)
S3 S 0.22839(18) 1.0062(2) 0.48388(10)
O1 O -0.2625(4) 0.6522(7) 0.7683(4)
N1 N 0.1505(5) 0.8157(6) 0.6117(3)
N2 N 0.1315(5) 0.4805(7) 0.8394(3)
H1 H 0.0701 0.4704 0.8705
H2 H 0.1998 0.5235 0.8668
H3 H 0.1508 0.3837 0.8216
N3 N 0.4404(7) 0.9040(13) 0.5427(5)
N4 N 0.4734(4) 0.6415(6) 0.8394(3)
N5 N 0.4981(5) 0.3922(6) 0.8592(3)
C1 C -0.0301(5) 0.6069(8) 0.7536(3)
C2 C 0.0919(5) 0.5766(7) 0.7785(3)
C3 C 0.1728(5) 0.6509(7) 0.7274(3)
C4 C 0.1034(6) 0.7341(7) 0.6680(3)
C5 C 0.3033(6) 0.6518(7) 0.7274(3)
C6 C 0.3522(6) 0.7360(8) 0.6713(4)
H4 H 0.4397 0.7401 0.6713
C7 C 0.2754(7) 0.8170(8) 0.6135(4)
C8 C 0.3246(7) 0.9005(10) 0.5517(4)
C9 C 0.4587(10) 0.9968(15) 0.4778(6)
H5 H 0.5382 1.0111 0.4611
C10 C 0.3552(8) 1.0639(12) 0.4409(5)
H6 H 0.3532 1.1326 0.3977
C11 C 0.3893(5) 0.5658(7) 0.7863(3)
C12 C 0.5380(5) 0.5347(7) 0.8837(3)
C13 C 0.4068(6) 0.4087(7) 0.7991(4)
H7 H 0.3633 0.3254 0.7712
C14 C 0.4938(5) 0.8135(7) 0.8476(4)
H8 H 0.5186 0.8391 0.9020
H9 H 0.4168 0.8695 0.8295
H10 H 0.5593 0.8460 0.8167
C15 C 0.6330(6) 0.5686(8) 0.9491(4)
H11 H 0.6952 0.6407 0.9322
H12 H 0.6733 0.4698 0.9675
H13 H 0.5938 0.6177 0.9910
C16 C -0.1828(13) 0.3615(14) 0.7288(7)
H14 H -0.1842 0.3961 0.6745
H15 H -0.1132 0.2863 0.7403
C17 C -0.2986(16) 0.2836(19) 0.7390(9)
H16 H -0.3708 0.3486 0.7185
H17 H -0.3042 0.2597 0.7941
C18 C -0.2906(17) 0.140(2) 0.6943(13)
H18 H -0.2710 0.1633 0.6415
H19 H -0.2278 0.0664 0.7198
C19 C -0.415(2) 0.078(4) 0.6937(19)
H20 H -0.4222 -0.0217 0.6646
H21 H -0.4324 0.0581 0.7468
H22 H -0.4751 0.1541 0.6692
S4 S 0.69726(12) 0.09559(18) 0.98415(8)
O2 O 0.6051(4) 0.1238(5) 0.9171(2)
O3 O 0.6828(4) -0.0599(5) 1.0171(3)
O4 O 0.7027(4) 0.2223(5) 1.0400(2)
C24 C 0.8438(5) 0.0926(7) 0.9476(3)
C25 C 0.9402(5) 0.1883(7) 0.9791(4)
H32 H 0.9280 0.2589 1.0199
C26 C 1.0544(5) 0.1811(7) 0.9511(4)
H33 H 1.1206 0.2455 0.9736
C27 C 1.0730(5) 0.0809(7) 0.8907(3)
C28 C 0.9753(6) -0.0135(7) 0.8588(4)
H34 H 0.9870 -0.0815 0.8169
C29 C 0.8606(5) -0.0099(7) 0.8873(3)
H35 H 0.7949 -0.0764 0.8659
C30 C 1.1976(6) 0.0682(9) 0.8600(4)
H36 H 1.2509 0.1557 0.8802
H37 H 1.1856 0.0731 0.8035
H38 H 1.2367 -0.0325 0.8765
O5 O 0.2795(11) 0.3041(14) 0.6340(7)
C31 C 0.1737(13) 0.3128(16) 0.6013(7)
C32 C 0.0688(16) 0.239(2) 0.6260(10)
H39 H 0.0947 0.1447 0.6561
H40 H 0.0111 0.2093 0.5810
H41 H 0.0277 0.3128 0.6583
C33 C 0.1519(16) 0.4173(17) 0.5333(9)
H42 H 0.1028 0.5088 0.5460
H43 H 0.1068 0.3591 0.4903
H44 H 0.2316 0.4533 0.5186
C20? C -0.1912(16) 0.3582(18) 0.7906(11)
H23? H -0.2327 0.3275 0.8360
H24? H -0.1126 0.2981 0.7932
C21? C -0.281(7) 0.302(8) 0.711(4)
H25? H -0.3401 0.3916 0.7066
H26? H -0.2243 0.3246 0.6723
C22? C -0.358(2) 0.182(3) 0.6700(16)
H27? H -0.4324 0.1606 0.6965
H28? H -0.3862 0.2180 0.6167
C23? C -0.282(2) 0.042(2) 0.6687(13)
H29? H -0.3308 -0.0430 0.6412
H30? H -0.2095 0.0649 0.6423
H31? H -0.2555 0.0078 0.7217
loop_
_geom_bond_atom_site_label_1
_geom_bond_atom_site_label_2
_geom_bond_site_symmetry_1
_geom_bond_site_symmetry_2
S1 C1 1_555 1_555
S2 O1 1_555 1_555
S3 C8 1_555 1_555
N1 C4 1_555 1_555
N2 H1 1_555 1_555
H2 N2 1_555 1_555
H3 N2 1_555 1_555
N3 C8 1_555 1_555
N4 C11 1_555 1_555
N5 C12 1_555 1_555
C1 S2 1_555 1_555
C2 N2 1_555 1_555
C3 C2 1_555 1_555
C4 S1 1_555 1_555
C5 C3 1_555 1_555
C6 C5 1_555 1_555
H4 C6 1_555 1_555
C7 N1 1_555 1_555
C8 C7 1_555 1_555
C9 N3 1_555 1_555
H5 C9 1_555 1_555
C10 S3 1_555 1_555
H6 C10 1_555 1_555
C11 C5 1_555 1_555
C12 N4 1_555 1_555
C13 N5 1_555 1_555
H7 C13 1_555 1_555
C14 N4 1_555 1_555
H8 C14 1_555 1_555
H9 C14 1_555 1_555
H10 C14 1_555 1_555
C15 C12 1_555 1_555
H11 C15 1_555 1_555
H12 C15 1_555 1_555
H13 C15 1_555 1_555
C16 S2 1_555 1_555
H14 C16 1_555 1_555
H15 C16 1_555 1_555
C17 C16 1_555 1_555
H16 C17 1_555 1_555
H17 C17 1_555 1_555
C18 C17 1_555 1_555
H18 C18 1_555 1_555
H19 C18 1_555 1_555
C19 C18 1_555 1_555
H20 C19 1_555 1_555
H21 C19 1_555 1_555
H22 C19 1_555 1_555
S4 O2 1_555 1_555
O3 S4 1_555 1_555
O4 S4 1_555 1_555
C24 S4 1_555 1_555
C25 C24 1_555 1_555
H32 C25 1_555 1_555
C26 C25 1_555 1_555
H33 C26 1_555 1_555
C27 C26 1_555 1_555
C28 C27 1_555 1_555
H34 C28 1_555 1_555
C29 C24 1_555 1_555
H35 C29 1_555 1_555
C30 C27 1_555 1_555
H36 C30 1_555 1_555
H37 C30 1_555 1_555
H38 C30 1_555 1_555
O5 C31 1_555 1_555
C31 C32 1_555 1_555
C32 H39 1_555 1_555
H40 C32 1_555 1_555
H41 C32 1_555 1_555
C33 C31 1_555 1_555
H42 C33 1_555 1_555
H43 C33 1_555 1_555
H44 C33 1_555 1_555
C1 C2 1_555 1_555
C3 C4 1_555 1_555
C6 C7 1_555 1_555
C9 C10 1_555 1_555
C11 C13 1_555 1_555
C28 C29 1_555 1_555

#END
