
#######################################################################
#
#                 Cambridge Crystallographic Data Centre
#                                CCDC 
#
#######################################################################
#
# If this CIF has been generated from an entry in the Cambridge 
# Structural Database, then it will include bibliographic, chemical, 
# crystal, experimental, refinement or atomic coordinate data resulting 
# from the CCDC's data processing and validation procedures.
#
#######################################################################

data_CARZIF10
_chemical_formula_moiety         'C20 H15 N1 O2'
_chemical_name_systematic        'methyl 2-(9H-carbazol-9-yl)benzoate'
_symmetry_cell_setting           monoclinic
_symmetry_space_group_name_H-M   'P n'
_symmetry_Int_Tables_number      7
_space_group_name_Hall           'P -2yac'
loop_
_symmetry_equiv_pos_site_id
_symmetry_equiv_pos_as_xyz
1 x,y,z
2 1/2+x,-y,1/2+z
_cell_length_a                   7.60302(11)
_cell_length_b                   15.2081(3)
_cell_length_c                   52.3345(10)
_cell_angle_alpha                90
_cell_angle_beta                 89.8995(16)
_cell_angle_gamma                90
_cell_volume                     6051.3
_exptl_crystal_colour            colorless
_exptl_crystal_description       block
_cell_formula_units_Z            16
_exptl_crystal_preparation       Luminescent
loop_
_atom_site_label
_atom_site_type_symbol
_atom_site_fract_x
_atom_site_fract_y
_atom_site_fract_z
O1 O 0.2266(6) -0.3922(3) 0.36714(7)
O2 O 0.0522(6) -0.3699(3) 0.40083(8)
N1 N 0.2330(6) -0.3069(3) 0.44346(9)
C1 C 0.3761(7) -0.3535(3) 0.43188(10)
C2 C 0.5314(8) -0.3603(4) 0.44553(11)
H1 H 0.5397 -0.3345 0.4620
C3 C 0.6740(8) -0.4040(4) 0.43538(11)
H2 H 0.7791 -0.4100 0.4450
C4 C 0.6628(8) -0.4393(3) 0.41083(11)
H3 H 0.7611 -0.4690 0.4036
C5 C 0.5089(8) -0.4311(4) 0.39691(11)
H4 H 0.5033 -0.4553 0.3802
C6 C 0.3612(8) -0.3880(3) 0.40693(11)
C7 C 0.1949(8) -0.3814(3) 0.39191(10)
C8 C 0.0722(10) -0.3863(4) 0.35111(12)
H5 H 0.1055 -0.3969 0.3333
H6 H 0.0205 -0.3275 0.3527
H7 H -0.0140 -0.4305 0.3565
C9 C 0.1757(8) -0.2232(4) 0.43697(9)
C10 C 0.2407(9) -0.1664(4) 0.41842(10)
H8 H 0.3352 -0.1833 0.4076
C11 C 0.1631(8) -0.0843(4) 0.41623(10)
H9 H 0.2063 -0.0444 0.4038
C12 C 0.0220(8) -0.0584(4) 0.43202(10)
H10 H -0.0272 -0.0013 0.4303
C13 C -0.0452(8) -0.1165(3) 0.45007(10)
H11 H -0.1417 -0.0999 0.4606
C14 C 0.0309(7) -0.2000(4) 0.45258(10)
C15 C -0.0005(8) -0.2746(4) 0.46919(10)
C16 C -0.1198(8) -0.2924(4) 0.48889(11)
H12 H -0.2059 -0.2499 0.4935
C17 C -0.1118(9) -0.3719(4) 0.50163(11)
H13 H -0.1917 -0.3838 0.5152
C18 C 0.0132(9) -0.4349(4) 0.49468(11)
H14 H 0.0151 -0.4895 0.5035
C19 C 0.1347(8) -0.4203(4) 0.47527(10)
H15 H 0.2191 -0.4635 0.4705
C20 C 0.1261(7) -0.3382(3) 0.46298(9)
O3 O 0.5929(5) -0.1961(3) 0.37804(7)
O4 O 0.7625(5) -0.2157(3) 0.34342(8)
N2 N 0.5805(7) -0.2715(3) 0.30057(8)
C21 C 0.4357(7) -0.2324(3) 0.31354(10)
C22 C 0.2750(8) -0.2274(4) 0.30092(10)
H16 H 0.2630 -0.2528 0.2844
C23 C 0.1308(8) -0.1852(4) 0.31221(11)
H17 H 0.0222 -0.1808 0.3034
C24 C 0.1487(8) -0.1501(4) 0.33643(10)
H18 H 0.0521 -0.1210 0.3443
C25 C 0.3056(8) -0.1572(4) 0.34919(10)
H19 H 0.3156 -0.1334 0.3659
C26 C 0.4509(8) -0.1987(3) 0.33815(10)
C27 C 0.6207(8) -0.2049(3) 0.35281(10)
C28 C 0.7512(9) -0.2015(4) 0.39380(11)
H20 H 0.8311 -0.1533 0.3893
H21 H 0.8101 -0.2579 0.3908
H22 H 0.7186 -0.1970 0.4119
C29 C 0.6500(8) -0.3544(4) 0.30459(10)
C30 C 0.5992(8) -0.4188(3) 0.32161(10)
H23 H 0.5052 -0.4090 0.3333
C31 C 0.6890(9) -0.4986(4) 0.32133(11)
H24 H 0.6549 -0.5440 0.3328
C32 C 0.8296(8) -0.5130(4) 0.30432(10)
H25 H 0.8908 -0.5675 0.3045
C33 C 0.8793(9) -0.4471(4) 0.28710(11)
H26 H 0.9724 -0.4572 0.2753
C34 C 0.7924(8) -0.3676(4) 0.28730(10)
C35 C 0.8105(8) -0.2866(4) 0.27295(10)
C36 C 0.9256(8) -0.2591(4) 0.25346(10)
H27 H 1.0124 -0.2977 0.2467
C37 C 0.9086(9) -0.1740(4) 0.24437(11)
H28 H 0.9839 -0.1539 0.2311
C38 C 0.7820(8) -0.1175(4) 0.25449(10)
H29 H 0.7763 -0.0589 0.2483
C39 C 0.6653(8) -0.1434(4) 0.27307(10)
H30 H 0.5781 -0.1043 0.2794
C40 C 0.6793(7) -0.2283(4) 0.28216(10)
O5 O 0.0564(5) -0.3446(3) 0.11858(7)
O6 O 0.2539(5) -0.4000(3) 0.14637(7)
N3 N 0.0910(6) -0.3741(3) 0.19634(8)
C41 C -0.0555(8) -0.4083(3) 0.18245(10)
C42 C -0.2041(8) -0.4361(4) 0.19570(10)
H31 H -0.2067 -0.4317 0.2138
C43 C -0.3458(8) -0.4695(4) 0.18320(10)
H32 H -0.4434 -0.4906 0.1928
C44 C -0.3502(8) -0.4734(3) 0.15655(12)
H33 H -0.4505 -0.4955 0.1479
C45 C -0.2041(8) -0.4441(4) 0.14312(10)
H34 H -0.2050 -0.4457 0.1250
C46 C -0.0543(7) -0.4120(3) 0.15595(10)
C47 C 0.1026(7) -0.3852(3) 0.14051(10)
C48 C 0.1999(8) -0.3134(4) 0.10296(11)
H35 H 0.1541 -0.2925 0.0866
H36 H 0.2833 -0.3614 0.1000
H37 H 0.2598 -0.2650 0.1117
C49 C 0.1609(8) -0.2901(3) 0.19445(10)
C50 C 0.1100(8) -0.2195(4) 0.17938(10)
H38 H 0.0169 -0.2255 0.1674
C51 C 0.1969(8) -0.1409(4) 0.18210(10)
H39 H 0.1639 -0.0925 0.1717
C52 C 0.3333(8) -0.1302(4) 0.19989(10)
H40 H 0.3896 -0.0748 0.2017
C53 C 0.3859(8) -0.2009(4) 0.21491(10)
H41 H 0.4789 -0.1947 0.2269
C54 C 0.2991(8) -0.2811(3) 0.21206(9)
C55 C 0.3138(8) -0.3643(3) 0.22510(10)
C56 C 0.4276(8) -0.3958(4) 0.24448(10)
H42 H 0.5182 -0.3596 0.2512
C57 C 0.4036(8) -0.4803(4) 0.25335(11)
H43 H 0.4786 -0.5023 0.2664
C58 C 0.2698(9) -0.5348(4) 0.24343(10)
H44 H 0.2567 -0.5928 0.2499
C59 C 0.1573(8) -0.5059(4) 0.22445(10)
H45 H 0.0667 -0.5427 0.2180
C60 C 0.1816(8) -0.4201(3) 0.21505(9)
O7 O 0.2305(5) -0.7886(3) 0.63549(7)
O8 O 0.0297(6) -0.8433(3) 0.60781(8)
N4 N 0.1942(6) -0.8174(3) 0.55775(8)
C61 C 0.3403(7) -0.8516(3) 0.57176(10)
C62 C 0.4887(8) -0.8799(4) 0.55816(10)
H46 H 0.4903 -0.8766 0.5400
C63 C 0.6341(8) -0.9129(4) 0.57118(11)
H47 H 0.7344 -0.9325 0.5619
C64 C 0.6321(8) -0.9171(4) 0.59749(11)
H48 H 0.7302 -0.9407 0.6064
C65 C 0.4877(8) -0.8869(3) 0.61101(10)
H49 H 0.4906 -0.8872 0.6292
C66 C 0.3395(8) -0.8562(3) 0.59867(10)
C67 C 0.1808(8) -0.8287(3) 0.61396(10)
C68 C 0.0881(9) -0.7572(4) 0.65170(12)
H50 H 0.0181 -0.7138 0.6423
H51 H 0.1373 -0.7298 0.6671
H52 H 0.0129 -0.8067 0.6566
C69 C 0.1255(7) -0.7333(3) 0.55977(9)
C70 C 0.1781(7) -0.6627(4) 0.57511(10)
H53 H 0.2696 -0.6691 0.5873
C71 C 0.0929(8) -0.5834(4) 0.57196(10)
H54 H 0.1272 -0.5346 0.5821
C72 C -0.0440(8) -0.5730(4) 0.55406(10)
H55 H -0.0992 -0.5174 0.5520
C73 C -0.0977(8) -0.6435(4) 0.53949(10)
H56 H -0.1918 -0.6368 0.5277
C74 C -0.0139(7) -0.7248(4) 0.54199(10)
C75 C -0.0300(7) -0.8084(4) 0.52898(9)
C76 C -0.1387(8) -0.8390(4) 0.50963(10)
H57 H -0.2267 -0.8021 0.5025
C77 C -0.1160(9) -0.9250(4) 0.50090(10)
H58 H -0.1896 -0.9470 0.4877
C78 C 0.0137(9) -0.9787(4) 0.51134(10)
H59 H 0.0261 -1.0372 0.5052
C79 C 0.1248(8) -0.9491(3) 0.53036(10)
H60 H 0.2138 -0.9858 0.5373
C80 C 0.1009(8) -0.8629(4) 0.53894(9)
O9 O 0.7175(6) -0.7161(3) 0.37447(7)
O10 O 0.5275(6) -0.6820(3) 0.40590(8)
N5 N 0.7005(6) -0.7184(3) 0.45315(8)
C81 C 0.8445(8) -0.6812(3) 0.43950(10)
C82 C 0.9955(8) -0.6600(4) 0.45316(10)
H61 H 0.9999 -0.6694 0.4711
C83 C 1.1405(8) -0.6247(4) 0.44031(11)
H62 H 1.2437 -0.6099 0.4496
C84 C 1.1346(8) -0.6111(4) 0.41421(12)
H63 H 1.2329 -0.5867 0.4055
C85 C 0.9842(8) -0.6336(4) 0.40084(11)
H64 H 0.9816 -0.6253 0.3828
C86 C 0.8367(7) -0.6680(3) 0.41302(10)
C87 C 0.6758(8) -0.6893(3) 0.39834(9)
C88 C 0.5691(9) -0.7399(5) 0.35842(11)
H65 H 0.6112 -0.7538 0.3412
H66 H 0.4863 -0.6907 0.3576
H67 H 0.5099 -0.7915 0.3656
C89 C 0.6305(8) -0.8016(4) 0.45079(10)
C90 C 0.6851(8) -0.8704(4) 0.43452(10)
H68 H 0.7801 -0.8637 0.4229
C91 C 0.5919(8) -0.9482(4) 0.43656(11)
H69 H 0.6242 -0.9957 0.4258
C92 C 0.4535(9) -0.9606(4) 0.45358(10)
H70 H 0.3965 -1.0161 0.4545
C93 C 0.3985(8) -0.8923(4) 0.46913(11)
H71 H 0.3020 -0.8997 0.4805
C94 C 0.4886(8) -0.8120(4) 0.46780(9)
C95 C 0.4709(7) -0.7288(3) 0.48095(9)
C96 C 0.3562(8) -0.6981(4) 0.50010(9)
H72 H 0.2674 -0.7354 0.5069
C97 C 0.3751(9) -0.6120(4) 0.50896(10)
H73 H 0.2996 -0.5907 0.5221
C98 C 0.5054(8) -0.5563(4) 0.49862(11)
H74 H 0.5143 -0.4975 0.5046
C99 C 0.6215(8) -0.5858(4) 0.47977(10)
H75 H 0.7092 -0.5485 0.4727
C100 C 0.6021(8) -0.6731(4) 0.47181(10)
O11 O 0.0517(5) 0.1347(2) 0.39111(7)
O12 O 0.2472(6) 0.0909(3) 0.36149(7)
N6 N 0.0798(7) 0.1365(3) 0.31333(8)
C101 C -0.0641(7) 0.0965(3) 0.32619(10)
C102 C -0.2124(8) 0.0753(4) 0.31216(11)
H76 H -0.2148 0.0863 0.2943
C103 C -0.3591(8) 0.0377(4) 0.32420(11)
H77 H -0.4597 0.0222 0.3145
C104 C -0.3570(8) 0.0232(4) 0.35047(11)
H78 H -0.4557 -0.0027 0.3587
C105 C -0.2117(7) 0.0463(3) 0.36443(10)
H79 H -0.2121 0.0374 0.3824
C106 C -0.0618(7) 0.0830(3) 0.35267(10)
C107 C 0.0972(8) 0.1027(3) 0.36822(10)
C108 C 0.1976(9) 0.1592(4) 0.40794(11)
H80 H 0.2620 0.2087 0.4005
H81 H 0.2772 0.1089 0.4099
H82 H 0.1511 0.1762 0.4247
C109 C 0.1409(7) 0.2209(3) 0.31751(10)
C110 C 0.0804(8) 0.2848(4) 0.33458(10)
H83 H -0.0118 0.2729 0.3464
C111 C 0.1618(8) 0.3668(4) 0.33352(11)
H84 H 0.1259 0.4116 0.3451
C112 C 0.2935(9) 0.3843(4) 0.31606(11)
H85 H 0.3413 0.4420 0.3154
C113 C 0.3572(8) 0.3221(4) 0.29982(10)
H86 H 0.4505 0.3353 0.2883
C114 C 0.2816(8) 0.2383(4) 0.30051(10)
C115 C 0.3031(8) 0.1596(4) 0.28520(10)
C116 C 0.4182(8) 0.1363(4) 0.26518(11)
H87 H 0.5074 0.1758 0.2597
C117 C 0.3992(9) 0.0560(4) 0.25388(11)
H88 H 0.4746 0.0404 0.2401
C118 C 0.2693(9) -0.0049(4) 0.26225(11)
H89 H 0.2594 -0.0603 0.2540
C119 C 0.1574(9) 0.0153(4) 0.28222(11)
H90 H 0.0717 -0.0254 0.2881
C120 C 0.1758(8) 0.0986(4) 0.29336(9)
O13 O 0.0879(5) -0.3246(3) 0.62536(7)
O14 O 0.2538(5) -0.2886(3) 0.65912(7)
N7 N 0.0632(6) -0.2098(3) 0.69805(8)
C121 C -0.0768(8) -0.2590(3) 0.68703(9)
C122 C -0.2401(8) -0.2588(3) 0.70008(10)
H91 H -0.2533 -0.2279 0.7157
C123 C -0.3804(8) -0.3046(4) 0.68968(11)
H92 H -0.4914 -0.3030 0.6980
C124 C -0.3620(8) -0.3525(4) 0.66740(11)
H93 H -0.4585 -0.3850 0.6609
C125 C -0.2031(8) -0.3528(4) 0.65474(10)
H94 H -0.1906 -0.3859 0.6394
C126 C -0.0599(8) -0.3050(3) 0.66412(10)
C127 C 0.1117(7) -0.3044(3) 0.65006(10)
C128 C 0.2477(8) -0.3260(4) 0.60986(10)
H95 H 0.2182 -0.3429 0.5923
H96 H 0.3308 -0.3686 0.6170
H97 H 0.3012 -0.2674 0.6098
C129 C 0.1179(8) -0.1274(3) 0.68992(10)
C130 C 0.0504(8) -0.0754(4) 0.67057(10)
H98 H -0.0466 -0.0941 0.6605
C131 C 0.1307(8) 0.0052(4) 0.66651(10)
H99 H 0.0868 0.0427 0.6535
C132 C 0.2746(9) 0.0328(4) 0.68107(10)
H100 H 0.3269 0.0884 0.6778
C133 C 0.3408(8) -0.0200(4) 0.70008(10)
H101 H 0.4381 -0.0008 0.7100
C134 C 0.2636(8) -0.1030(4) 0.70489(10)
C135 C 0.2974(8) -0.1730(4) 0.72259(10)
C136 C 0.4220(8) -0.1874(4) 0.74199(11)
H102 H 0.5081 -0.1442 0.7459
C137 C 0.4159(8) -0.2660(4) 0.75519(12)
H103 H 0.4972 -0.2761 0.7686
C138 C 0.2924(9) -0.3310(4) 0.74916(11)
H104 H 0.2950 -0.3850 0.7583
C139 C 0.1665(8) -0.3193(4) 0.73033(10)
H105 H 0.0814 -0.3631 0.7265
C140 C 0.1722(8) -0.2394(4) 0.71728(9)
O15 O 0.7061(6) -0.1173(3) 0.63110(7)
O16 O 0.5431(6) -0.1556(3) 0.59729(8)
N8 N 0.7351(6) -0.2333(3) 0.55822(8)
C141 C 0.8764(7) -0.1843(3) 0.56945(10)
C142 C 1.0369(8) -0.1853(4) 0.55667(10)
H106 H 1.0501 -0.2184 0.5414
C143 C 1.1776(8) -0.1378(4) 0.56627(10)
H107 H 1.2872 -0.1375 0.5575
C144 C 1.1572(8) -0.0904(4) 0.58881(10)
H108 H 1.2538 -0.0584 0.5956
C145 C 0.9978(8) -0.0896(3) 0.60145(10)
H109 H 0.9848 -0.0556 0.6166
C146 C 0.8546(7) -0.1385(3) 0.59228(10)
C147 C 0.6847(8) -0.1390(4) 0.60649(10)
C148 C 0.5476(9) -0.1176(4) 0.64635(12)
H110 H 0.4656 -0.0734 0.6398
H111 H 0.5768 -0.1038 0.6641
H112 H 0.4927 -0.1759 0.6455
C149 C 0.6760(7) -0.3154(3) 0.56604(10)
C150 C 0.7438(8) -0.3690(4) 0.58529(10)
H113 H 0.8416 -0.3509 0.5953
C151 C 0.6629(8) -0.4498(4) 0.58930(10)
H114 H 0.7052 -0.4872 0.6025
C152 C 0.5202(8) -0.4776(3) 0.57433(10)
H115 H 0.4692 -0.5338 0.5771
C153 C 0.4532(8) -0.4224(4) 0.55536(10)
H116 H 0.3551 -0.4401 0.5454
C154 C 0.5325(7) -0.3410(4) 0.55128(9)
C155 C 0.4992(7) -0.2685(4) 0.53355(10)
C156 C 0.3768(8) -0.2543(4) 0.51420(10)
H117 H 0.2928 -0.2980 0.5098
C157 C 0.3823(9) -0.1728(4) 0.50145(11)
H118 H 0.2993 -0.1610 0.4883
C158 C 0.5057(9) -0.1098(4) 0.50756(11)
H119 H 0.5052 -0.0556 0.4985
C159 C 0.6292(8) -0.1228(3) 0.52633(10)
H120 H 0.7126 -0.0787 0.5306
C160 C 0.6266(7) -0.2042(3) 0.53892(9)
loop_
_geom_bond_atom_site_label_1
_geom_bond_atom_site_label_2
_geom_bond_site_symmetry_1
_geom_bond_site_symmetry_2
O1 C7 1_555 1_555
O2 C7 1_555 1_555
N1 C1 1_555 1_555
C1 C2 1_555 1_555
C2 H1 1_555 1_555
C3 C2 1_555 1_555
H2 C3 1_555 1_555
C4 C3 1_555 1_555
H3 C4 1_555 1_555
C5 C4 1_555 1_555
H4 C5 1_555 1_555
C6 C1 1_555 1_555
C7 C6 1_555 1_555
C8 O1 1_555 1_555
H5 C8 1_555 1_555
H6 C8 1_555 1_555
H7 C8 1_555 1_555
C9 N1 1_555 1_555
C10 C9 1_555 1_555
H8 C10 1_555 1_555
C11 C10 1_555 1_555
H9 C11 1_555 1_555
C12 C11 1_555 1_555
H10 C12 1_555 1_555
C13 C12 1_555 1_555
H11 C13 1_555 1_555
C14 C9 1_555 1_555
C15 C14 1_555 1_555
C16 C15 1_555 1_555
H12 C16 1_555 1_555
C17 C16 1_555 1_555
H13 C17 1_555 1_555
C18 C17 1_555 1_555
H14 C18 1_555 1_555
C19 C18 1_555 1_555
H15 C19 1_555 1_555
C20 N1 1_555 1_555
O3 C27 1_555 1_555
O4 C27 1_555 1_555
N2 C21 1_555 1_555
C21 C22 1_555 1_555
C22 H16 1_555 1_555
C23 C22 1_555 1_555
H17 C23 1_555 1_555
C24 C23 1_555 1_555
H18 C24 1_555 1_555
C25 C24 1_555 1_555
H19 C25 1_555 1_555
C26 C21 1_555 1_555
C27 C26 1_555 1_555
C28 O3 1_555 1_555
H20 C28 1_555 1_555
H21 C28 1_555 1_555
H22 C28 1_555 1_555
C29 N2 1_555 1_555
C30 C29 1_555 1_555
H23 C30 1_555 1_555
C31 C30 1_555 1_555
H24 C31 1_555 1_555
C32 C31 1_555 1_555
H25 C32 1_555 1_555
C33 C32 1_555 1_555
H26 C33 1_555 1_555
C34 C29 1_555 1_555
C35 C34 1_555 1_555
C36 C35 1_555 1_555
H27 C36 1_555 1_555
C37 C36 1_555 1_555
H28 C37 1_555 1_555
C38 C37 1_555 1_555
H29 C38 1_555 1_555
C39 C38 1_555 1_555
H30 C39 1_555 1_555
C40 N2 1_555 1_555
O5 C47 1_555 1_555
O6 C47 1_555 1_555
N3 C41 1_555 1_555
C41 C42 1_555 1_555
C42 H31 1_555 1_555
C43 C42 1_555 1_555
H32 C43 1_555 1_555
C44 C43 1_555 1_555
H33 C44 1_555 1_555
C45 C44 1_555 1_555
H34 C45 1_555 1_555
C46 C41 1_555 1_555
C47 C46 1_555 1_555
C48 O5 1_555 1_555
H35 C48 1_555 1_555
H36 C48 1_555 1_555
H37 C48 1_555 1_555
C49 N3 1_555 1_555
C50 C49 1_555 1_555
H38 C50 1_555 1_555
C51 C50 1_555 1_555
H39 C51 1_555 1_555
C52 C51 1_555 1_555
H40 C52 1_555 1_555
C53 C52 1_555 1_555
H41 C53 1_555 1_555
C54 C49 1_555 1_555
C55 C54 1_555 1_555
C56 C55 1_555 1_555
H42 C56 1_555 1_555
C57 C56 1_555 1_555
H43 C57 1_555 1_555
C58 C57 1_555 1_555
H44 C58 1_555 1_555
C59 C58 1_555 1_555
H45 C59 1_555 1_555
C60 N3 1_555 1_555
O7 C67 1_555 1_555
O8 C67 1_555 1_555
N4 C61 1_555 1_555
C61 C62 1_555 1_555
C62 H46 1_555 1_555
C63 C62 1_555 1_555
H47 C63 1_555 1_555
C64 C63 1_555 1_555
H48 C64 1_555 1_555
C65 C64 1_555 1_555
H49 C65 1_555 1_555
C66 C61 1_555 1_555
C67 C66 1_555 1_555
C68 O7 1_555 1_555
H50 C68 1_555 1_555
H51 C68 1_555 1_555
H52 C68 1_555 1_555
C69 N4 1_555 1_555
C70 C69 1_555 1_555
H53 C70 1_555 1_555
C71 C70 1_555 1_555
H54 C71 1_555 1_555
C72 C71 1_555 1_555
H55 C72 1_555 1_555
C73 C72 1_555 1_555
H56 C73 1_555 1_555
C74 C69 1_555 1_555
C75 C74 1_555 1_555
C76 C75 1_555 1_555
H57 C76 1_555 1_555
C77 C76 1_555 1_555
H58 C77 1_555 1_555
C78 C77 1_555 1_555
H59 C78 1_555 1_555
C79 C78 1_555 1_555
H60 C79 1_555 1_555
C80 N4 1_555 1_555
O9 C87 1_555 1_555
O10 C87 1_555 1_555
N5 C81 1_555 1_555
C81 C82 1_555 1_555
C82 H61 1_555 1_555
C83 C82 1_555 1_555
H62 C83 1_555 1_555
C84 C83 1_555 1_555
H63 C84 1_555 1_555
C85 C84 1_555 1_555
H64 C85 1_555 1_555
C86 C81 1_555 1_555
C87 C86 1_555 1_555
C88 O9 1_555 1_555
H65 C88 1_555 1_555
H66 C88 1_555 1_555
H67 C88 1_555 1_555
C89 N5 1_555 1_555
C90 C89 1_555 1_555
H68 C90 1_555 1_555
C91 C90 1_555 1_555
H69 C91 1_555 1_555
C92 C91 1_555 1_555
H70 C92 1_555 1_555
C93 C92 1_555 1_555
H71 C93 1_555 1_555
C94 C89 1_555 1_555
C95 C94 1_555 1_555
C96 C95 1_555 1_555
H72 C96 1_555 1_555
C97 C96 1_555 1_555
H73 C97 1_555 1_555
C98 C97 1_555 1_555
H74 C98 1_555 1_555
C99 C98 1_555 1_555
H75 C99 1_555 1_555
C100 N5 1_555 1_555
O11 C107 1_555 1_555
O12 C107 1_555 1_555
N6 C101 1_555 1_555
C101 C102 1_555 1_555
C102 H76 1_555 1_555
C103 C102 1_555 1_555
H77 C103 1_555 1_555
C104 C103 1_555 1_555
H78 C104 1_555 1_555
C105 C104 1_555 1_555
H79 C105 1_555 1_555
C106 C101 1_555 1_555
C107 C106 1_555 1_555
C108 O11 1_555 1_555
H80 C108 1_555 1_555
H81 C108 1_555 1_555
H82 C108 1_555 1_555
C109 N6 1_555 1_555
C110 C109 1_555 1_555
H83 C110 1_555 1_555
C111 C110 1_555 1_555
H84 C111 1_555 1_555
C112 C111 1_555 1_555
H85 C112 1_555 1_555
C113 C112 1_555 1_555
H86 C113 1_555 1_555
C114 C109 1_555 1_555
C115 C114 1_555 1_555
C116 C115 1_555 1_555
H87 C116 1_555 1_555
C117 C116 1_555 1_555
H88 C117 1_555 1_555
C118 C117 1_555 1_555
H89 C118 1_555 1_555
C119 C118 1_555 1_555
H90 C119 1_555 1_555
C120 N6 1_555 1_555
O13 C127 1_555 1_555
O14 C127 1_555 1_555
N7 C121 1_555 1_555
C121 C122 1_555 1_555
C122 H91 1_555 1_555
C123 C122 1_555 1_555
H92 C123 1_555 1_555
C124 C123 1_555 1_555
H93 C124 1_555 1_555
C125 C124 1_555 1_555
H94 C125 1_555 1_555
C126 C121 1_555 1_555
C127 C126 1_555 1_555
C128 O13 1_555 1_555
H95 C128 1_555 1_555
H96 C128 1_555 1_555
H97 C128 1_555 1_555
C129 N7 1_555 1_555
C130 C129 1_555 1_555
H98 C130 1_555 1_555
C131 C130 1_555 1_555
H99 C131 1_555 1_555
C132 C131 1_555 1_555
H100 C132 1_555 1_555
C133 C132 1_555 1_555
H101 C133 1_555 1_555
C134 C129 1_555 1_555
C135 C134 1_555 1_555
C136 C135 1_555 1_555
H102 C136 1_555 1_555
C137 C136 1_555 1_555
H103 C137 1_555 1_555
C138 C137 1_555 1_555
H104 C138 1_555 1_555
C139 C138 1_555 1_555
H105 C139 1_555 1_555
C140 N7 1_555 1_555
O15 C147 1_555 1_555
O16 C147 1_555 1_555
N8 C141 1_555 1_555
C141 C142 1_555 1_555
C142 H106 1_555 1_555
C143 C142 1_555 1_555
H107 C143 1_555 1_555
C144 C143 1_555 1_555
H108 C144 1_555 1_555
C145 C144 1_555 1_555
H109 C145 1_555 1_555
C146 C141 1_555 1_555
C147 C146 1_555 1_555
C148 O15 1_555 1_555
H110 C148 1_555 1_555
H111 C148 1_555 1_555
H112 C148 1_555 1_555
C149 N8 1_555 1_555
C150 C149 1_555 1_555
H113 C150 1_555 1_555
C151 C150 1_555 1_555
H114 C151 1_555 1_555
C152 C151 1_555 1_555
H115 C152 1_555 1_555
C153 C152 1_555 1_555
H116 C153 1_555 1_555
C154 C149 1_555 1_555
C155 C154 1_555 1_555
C156 C155 1_555 1_555
H117 C156 1_555 1_555
C157 C156 1_555 1_555
H118 C157 1_555 1_555
C158 C157 1_555 1_555
H119 C158 1_555 1_555
C159 C158 1_555 1_555
H120 C159 1_555 1_555
C160 N8 1_555 1_555
C5 C6 1_555 1_555
C13 C14 1_555 1_555
C15 C20 1_555 1_555
C19 C20 1_555 1_555
C25 C26 1_555 1_555
C33 C34 1_555 1_555
C35 C40 1_555 1_555
C39 C40 1_555 1_555
C45 C46 1_555 1_555
C53 C54 1_555 1_555
C55 C60 1_555 1_555
C59 C60 1_555 1_555
C65 C66 1_555 1_555
C73 C74 1_555 1_555
C75 C80 1_555 1_555
C79 C80 1_555 1_555
C85 C86 1_555 1_555
C93 C94 1_555 1_555
C95 C100 1_555 1_555
C99 C100 1_555 1_555
C105 C106 1_555 1_555
C113 C114 1_555 1_555
C115 C120 1_555 1_555
C119 C120 1_555 1_555
C125 C126 1_555 1_555
C133 C134 1_555 1_555
C135 C140 1_555 1_555
C139 C140 1_555 1_555
C145 C146 1_555 1_555
C153 C154 1_555 1_555
C155 C160 1_555 1_555
C159 C160 1_555 1_555

#END
