
#######################################################################
#
#                 Cambridge Crystallographic Data Centre
#                                CCDC 
#
#######################################################################
#
# If this CIF has been generated from an entry in the Cambridge 
# Structural Database, then it will include bibliographic, chemical, 
# crystal, experimental, refinement or atomic coordinate data resulting 
# from the CCDC's data processing and validation procedures.
#
#######################################################################

data_CASCEF
_chemical_formula_moiety         'C12 H11 Cl1 N2 O1'
_chemical_name_systematic        
1-(4-Chlorophenyl)-3-(1H-imidazol-1-yl)propan-1-one
_symmetry_cell_setting           monoclinic
_symmetry_space_group_name_H-M   'P 21/n'
_symmetry_Int_Tables_number      14
_space_group_name_Hall           '-P 2yn'
loop_
_symmetry_equiv_pos_site_id
_symmetry_equiv_pos_as_xyz
1 x,y,z
2 1/2-x,1/2+y,1/2-z
3 -x,-y,-z
4 1/2+x,1/2-y,1/2+z
_cell_length_a                   10.4902(9)
_cell_length_b                   8.1611(7)
_cell_length_c                   13.8691(12)
_cell_angle_alpha                90
_cell_angle_beta                 107.2520(10)
_cell_angle_gamma                90
_cell_volume                     1133.94
_exptl_crystal_colour            colorless
_exptl_crystal_description       flattened
_cell_formula_units_Z            4
_exptl_crystal_recrystallization_method 'dichloromethane/cyclohexane 1:2'
loop_
_atom_site_label
_atom_site_type_symbol
_atom_site_fract_x
_atom_site_fract_y
_atom_site_fract_z
Cl1 Cl 0.03977(5) 1.08089(7) 0.36239(4)
O1 O 0.59667(14) 0.66317(19) 0.58137(9)
N1 N 0.83076(14) 0.54895(18) 0.39364(10)
N2 N 0.88810(19) 0.4584(2) 0.26214(13)
C1 C 0.36623(18) 0.8551(2) 0.52882(12)
H1 H 0.4077 0.8355 0.5970
C2 C 0.24869(19) 0.9413(2) 0.50041(13)
H2 H 0.2105 0.9797 0.5487
C3 C 0.18798(17) 0.9703(2) 0.39911(13)
C4 C 0.24348(19) 0.9149(2) 0.32667(13)
H3 H 0.2016 0.9354 0.2587
C5 C 0.36164(18) 0.8288(2) 0.35615(12)
H4 H 0.3998 0.7919 0.3076
C6 C 0.42471(16) 0.7964(2) 0.45756(12)
C7 C 0.55162(17) 0.7017(2) 0.49302(12)
C8 C 0.62225(17) 0.6537(2) 0.41750(12)
H5 H 0.6368 0.7508 0.3819
H6 H 0.5657 0.5798 0.3683
C9 C 0.75452(18) 0.5715(2) 0.46592(13)
H7 H 0.8061 0.6377 0.5221
H8 H 0.7392 0.4656 0.4923
C10 C 0.93759(18) 0.6373(3) 0.38862(14)
H9 H 0.9793 0.7212 0.4320
C11 C 0.9717(2) 0.5804(3) 0.30872(15)
H10 H 1.0429 0.6193 0.2882
C12 C 0.8046(2) 0.4441(3) 0.31576(16)
H11 H 0.7346 0.3693 0.3013
loop_
_geom_bond_atom_site_label_1
_geom_bond_atom_site_label_2
_geom_bond_site_symmetry_1
_geom_bond_site_symmetry_2
Cl1 C3 1_555 1_555
O1 C7 1_555 1_555
N1 C9 1_555 1_555
N2 C11 1_555 1_555
C1 H1 1_555 1_555
C2 C1 1_555 1_555
H2 C2 1_555 1_555
C3 C2 1_555 1_555
C4 C3 1_555 1_555
H3 C4 1_555 1_555
C5 C4 1_555 1_555
H4 C5 1_555 1_555
C6 C1 1_555 1_555
C7 C6 1_555 1_555
C8 C7 1_555 1_555
H5 C8 1_555 1_555
H6 C8 1_555 1_555
C9 C8 1_555 1_555
H7 C9 1_555 1_555
H8 C9 1_555 1_555
C10 N1 1_555 1_555
H9 C10 1_555 1_555
C11 C10 1_555 1_555
H10 C11 1_555 1_555
C12 N1 1_555 1_555
H11 C12 1_555 1_555
N2 C12 1_555 1_555
C5 C6 1_555 1_555

#END
