
#######################################################################
#
#                 Cambridge Crystallographic Data Centre
#                                CCDC 
#
#######################################################################
#
# If this CIF has been generated from an entry in the Cambridge 
# Structural Database, then it will include bibliographic, chemical, 
# crystal, experimental, refinement or atomic coordinate data resulting 
# from the CCDC's data processing and validation procedures.
#
#######################################################################

data_CASDIM
_chemical_formula_moiety         'C42 H29 N1 O2'
_chemical_name_systematic        
6-(4-methoxyphenyl)-2-(4-(triphenylvinyl)phenyl)-1-benzofuran-3-carbonitrile
_symmetry_cell_setting           triclinic
_symmetry_space_group_name_H-M   'P -1'
_symmetry_Int_Tables_number      2
_space_group_name_Hall           '-P 1'
loop_
_symmetry_equiv_pos_site_id
_symmetry_equiv_pos_as_xyz
1 x,y,z
2 -x,-y,-z
_cell_length_a                   9.4456(6)
_cell_length_b                   9.9577(6)
_cell_length_c                   16.2906(10)
_cell_angle_alpha                102.183(5)
_cell_angle_beta                 93.914(5)
_cell_angle_gamma                93.086(5)
_cell_volume                     1490.57
_exptl_crystal_colour            'light yellow'
_exptl_crystal_description       block
_cell_formula_units_Z            2
loop_
_atom_site_label
_atom_site_type_symbol
_atom_site_fract_x
_atom_site_fract_y
_atom_site_fract_z
O1 O 0.9178(2) 0.5746(2) 0.12076(13)
O2 O 0.2232(3) 0.8367(3) -0.18212(16)
C1 C 1.0224(3) 0.7022(3) 0.03869(18)
C2 C 1.0614(3) 0.5828(3) 0.14055(19)
C3 C 1.0198(4) 0.7831(4) -0.0217(2)
H1 H 1.1055 0.8217 -0.0372
C4 C 0.3572(4) 0.8235(4) -0.1486(2)
C5 C 1.1087(3) 0.5214(3) 0.21037(19)
C6 C 1.2420(3) 0.5579(3) 0.25283(19)
H2 H 1.3074 0.6171 0.2330
C7 C 0.7622(4) 0.6671(3) 0.0230(2)
H3 H 0.6771 0.6274 0.0386
C8 C 1.1298(3) 0.6570(3) 0.09149(19)
C9 C 0.8939(4) 0.6476(3) 0.05833(19)
N1 N 1.3990(3) 0.7115(3) 0.09310(19)
C10 C 0.7606(4) 0.7485(3) -0.03723(19)
C11 C 1.2788(4) 0.6862(3) 0.0925(2)
C12 C 0.5892(4) 0.9051(4) -0.0860(2)
H4 H 0.6590 0.9796 -0.0670
C13 C 1.0165(4) 0.4303(3) 0.2392(2)
H5 H 0.9252 0.4031 0.2105
C14 C 0.6228(4) 0.7745(3) -0.07789(19)
C15 C 1.269(2) 0.546(2) 0.5170(19)
C16 C 0.4588(4) 0.9315(4) -0.1203(2)
H6 H 0.4392 1.0225 -0.1244
C17 C 1.2805(4) 0.5087(4) 0.3237(2)
H7 H 1.3709 0.5370 0.3534
C18 C 0.8892(4) 0.8055(3) -0.0582(2)
H8 H 0.8862 0.8614 -0.0989
C19 C 0.5186(4) 0.6678(4) -0.1073(2)
H9 H 0.5377 0.5768 -0.1029
C20 C 0.3887(4) 0.6916(4) -0.1427(2)
H10 H 0.3198 0.6169 -0.1633
C21 C 1.0570(4) 0.3799(4) 0.3083(3)
H11 H 0.9934 0.3172 0.3266
C22 C 1.2565(4) 0.1273(4) 0.3085(3)
H12 H 1.3089 0.1923 0.2853
C23 C 1.1884(4) 0.4182(4) 0.3522(3)
C24 C 0.1822(4) 0.9719(4) -0.1848(3)
H13 H 0.2448 1.0132 -0.2197
H14 H 0.1900 1.0289 -0.1276
H15 H 0.0836 0.9662 -0.2090
C25 C 1.2129(4) 0.1652(4) 0.3879(2)
C26 C 1.2930(7) 0.2840(5) 0.6974(3)
H16 H 1.2495 0.3101 0.7487
C27 C 1.1426(5) 0.0657(5) 0.4198(2)
H17 H 1.1170 0.0865 0.4762
C28 C 1.3059(4) 0.2897(5) 0.5533(2)
C29 C 1.2428(6) 0.3265(5) 0.6273(3)
H18 H 1.1637 0.3818 0.6298
C30 C 1.4177(4) 0.2070(5) 0.5505(3)
H19 H 1.4602 0.1785 0.4990
C31 C 1.1091(6) -0.0635(5) 0.3708(5)
H20 H 1.0566 -0.1301 0.3927
C32 C 1.2615(7) 0.3904(7) 0.4909(5)
C33 C 1.1359(8) 0.6085(7) 0.4994(4)
H21 H 1.0567 0.5538 0.4682
C34 C 1.2250(6) -0.0035(7) 0.2625(3)
H22 H 1.2570 -0.0297 0.2077
C35 C 1.3615(8) 0.6184(8) 0.5771(5)
H23 H 1.4346 0.5734 0.6012
C36 C 1.1489(7) -0.0954(6) 0.2943(5)
H24 H 1.1237 -0.1849 0.2608
C37 C 1.2210(7) 0.3262(7) 0.4105(4)
C38 C 1.4677(6) 0.1660(5) 0.6193(6)
H25 H 1.5465 0.1102 0.6166
C39 C 1.4064(8) 0.2037(7) 0.6934(5)
H26 H 1.4423 0.1742 0.7421
C40 C 1.2407(10) 0.8236(8) 0.5838(6)
H27 H 1.2360 0.9197 0.6049
C41 C 1.3530(9) 0.7600(8) 0.6055(5)
H28 H 1.4293 0.8121 0.6413
C42 C 1.1278(8) 0.7466(7) 0.5286(4)
H29 H 1.0473 0.7910 0.5122
C43? C 1.2416(8) 0.4115(8) 0.4485(5)
C44? C 1.2519(7) 0.2858(7) 0.4639(4)
C45? C 1.3887(9) 0.5556(8) 0.5754(5)
H30? H 1.4526 0.4845 0.5718
C46? C 1.4173(8) 0.6796(7) 0.6347(5)
H31? H 1.4950 0.6879 0.6761
C47? C 1.3366(10) 0.7886(9) 0.6346(5)
H32? H 1.3558 0.8704 0.6769
C48? C 1.2219(12) 0.7799(9) 0.5702(7)
H33? H 1.1676 0.8564 0.5668
C49? C 1.258(3) 0.538(2) 0.519(2)
C50? C 1.1949(9) 0.6559(8) 0.5137(5)
H34? H 1.1268 0.6521 0.4674
loop_
_geom_bond_atom_site_label_1
_geom_bond_atom_site_label_2
_geom_bond_site_symmetry_1
_geom_bond_site_symmetry_2
O1 C2 1_555 1_555
O2 C4 1_555 1_555
C1 C3 1_555 1_555
C2 C5 1_555 1_555
C3 H1 1_555 1_555
C4 C16 1_555 1_555
C5 C6 1_555 1_555
C6 H2 1_555 1_555
C7 H3 1_555 1_555
C8 C1 1_555 1_555
C9 O1 1_555 1_555
N1 C11 1_555 1_555
C10 C7 1_555 1_555
C11 C8 1_555 1_555
C12 H4 1_555 1_555
C13 C5 1_555 1_555
H5 C13 1_555 1_555
C14 C10 1_555 1_555
C15 C32 1_555 1_555
C16 C12 1_555 1_555
H6 C16 1_555 1_555
C17 C6 1_555 1_555
H7 C17 1_555 1_555
C18 C3 1_555 1_555
H8 C18 1_555 1_555
C19 C14 1_555 1_555
H9 C19 1_555 1_555
C20 C4 1_555 1_555
H10 C20 1_555 1_555
C21 C13 1_555 1_555
H11 C21 1_555 1_555
C22 H12 1_555 1_555
C23 C17 1_555 1_555
C24 O2 1_555 1_555
H13 C24 1_555 1_555
H14 C24 1_555 1_555
H15 C24 1_555 1_555
C25 C22 1_555 1_555
C26 H16 1_555 1_555
C27 C25 1_555 1_555
H17 C27 1_555 1_555
C28 C29 1_555 1_555
C29 C26 1_555 1_555
H18 C29 1_555 1_555
C30 C28 1_555 1_555
H19 C30 1_555 1_555
C31 C27 1_555 1_555
H20 C31 1_555 1_555
C32 C28 1_555 1_555
C33 C15 1_555 1_555
H21 C33 1_555 1_555
C34 C22 1_555 1_555
H22 C34 1_555 1_555
C35 C15 1_555 1_555
H23 C35 1_555 1_555
C36 C31 1_555 1_555
H24 C36 1_555 1_555
C37 C23 1_555 1_555
C38 C30 1_555 1_555
H25 C38 1_555 1_555
C39 C26 1_555 1_555
H26 C39 1_555 1_555
C40 H27 1_555 1_555
C41 C35 1_555 1_555
H28 C41 1_555 1_555
C42 C33 1_555 1_555
H29 C42 1_555 1_555
C1 C9 1_555 1_555
C2 C8 1_555 1_555
C7 C9 1_555 1_555
C10 C18 1_555 1_555
C12 C14 1_555 1_555
C19 C20 1_555 1_555
C21 C23 1_555 1_555
C25 C37 1_555 1_555
C32 C37 1_555 1_555
C34 C36 1_555 1_555
C38 C39 1_555 1_555
C40 C41 1_555 1_555
C40 C42 1_555 1_555

#END
