
#######################################################################
#
#                 Cambridge Crystallographic Data Centre
#                                CCDC 
#
#######################################################################
#
# If this CIF has been generated from an entry in the Cambridge 
# Structural Database, then it will include bibliographic, chemical, 
# crystal, experimental, refinement or atomic coordinate data resulting 
# from the CCDC's data processing and validation procedures.
#
#######################################################################

data_CASHUB
_chemical_formula_moiety         'C16 H23 N3 O1'
_chemical_name_systematic        
2-Ethyl-3-(isopropylideneamino)-2-propyl-2,3-dihydroquinazolin-4(1H)-one
_symmetry_cell_setting           orthorhombic
_symmetry_space_group_name_H-M   'P n a 21'
_symmetry_Int_Tables_number      33
_space_group_name_Hall           'P 2c -2n'
loop_
_symmetry_equiv_pos_site_id
_symmetry_equiv_pos_as_xyz
1 x,y,z
2 -x,-y,1/2+z
3 1/2+x,1/2-y,z
4 1/2-x,1/2+y,1/2+z
_cell_length_a                   18.3691(8)
_cell_length_b                   8.2962(4)
_cell_length_c                   10.9459(5)
_cell_angle_alpha                90
_cell_angle_beta                 90
_cell_angle_gamma                90
_cell_volume                     1668.09
_exptl_crystal_colour            colorless
_exptl_crystal_description       sheet
_chemical_melting_point          '154-156 deg.C'
_cell_formula_units_Z            4
loop_
_atom_site_label
_atom_site_type_symbol
_atom_site_fract_x
_atom_site_fract_y
_atom_site_fract_z
C1 C 0.18163(15) 0.4390(3) 0.2027(3)
N1 N 0.30154(13) 0.4020(3) 0.0530(2)
N2 N 0.24598(14) 0.5157(4) 0.2259(3)
O1 O 0.23961(10) 0.2306(3) -0.06961(19)
N3 N 0.36912(12) 0.3649(3) -0.0042(2)
C2 C 0.24145(15) 0.3173(4) 0.0227(3)
C3 C 0.31437(14) 0.4538(3) 0.1833(2)
C4 C 0.17692(16) 0.3407(3) 0.0992(3)
C5 C 0.05564(18) 0.3922(4) 0.2421(4)
H1 H 0.0148 0.4082 0.2908
C6 C 0.11982(18) 0.4633(4) 0.2733(3)
H2 H 0.1223 0.5285 0.3423
C7 C 0.37015(15) 0.5876(4) 0.1867(3)
H3 H 0.4164 0.5448 0.1587
H4 H 0.3765 0.6214 0.2708
C8 C 0.11132(17) 0.2711(4) 0.0693(3)
H5 H 0.1083 0.2056 0.0006
C9 C 0.05048(18) 0.2966(4) 0.1388(4)
H6 H 0.0063 0.2502 0.1170
C10 C 0.37423(16) 0.4068(4) -0.1162(3)
C11 C 0.33879(16) 0.3041(4) 0.2564(3)
H7 H 0.3021 0.2209 0.2470
H8 H 0.3835 0.2637 0.2207
C12 C 0.31911(17) 0.4917(5) -0.1901(3)
H9 H 0.2832 0.5383 -0.1372
H10 H 0.2961 0.4167 -0.2446
H11 H 0.3422 0.5754 -0.2367
C13 C 0.3514(2) 0.3310(6) 0.3922(3)
H12 H 0.3873 0.4161 0.4009
H13 H 0.3063 0.3703 0.4273
C14 C 0.44581(16) 0.3715(4) -0.1752(3)
H14 H 0.4751 0.3077 -0.1210
H15 H 0.4704 0.4709 -0.1928
H16 H 0.4379 0.3132 -0.2498
C15 C 0.35164(18) 0.7358(4) 0.1100(3)
H17 H 0.3524 0.7069 0.0241
H18 H 0.3029 0.7721 0.1300
C16 C 0.4022(4) 0.8643(7) 0.1311(7)
H19 H 0.3906 0.9536 0.0790
H20 H 0.4507 0.8276 0.1137
H21 H 0.3993 0.8977 0.2150
H22 H 0.2449(12) 0.572(3) 0.287(2)
C17? C 0.3731(5) 0.2086(14) 0.4571(10)
H23? H 0.4176 0.2358 0.4981
H24? H 0.3811 0.1176 0.4046
H25? H 0.3365 0.1823 0.5165
loop_
_geom_bond_atom_site_label_1
_geom_bond_atom_site_label_2
_geom_bond_site_symmetry_1
_geom_bond_site_symmetry_2
C1 N2 1_555 1_555
N1 N3 1_555 1_555
N2 C3 1_555 1_555
O1 C2 1_555 1_555
N3 C10 1_555 1_555
C2 N1 1_555 1_555
C3 N1 1_555 1_555
C4 C1 1_555 1_555
C5 H1 1_555 1_555
C6 C1 1_555 1_555
H2 C6 1_555 1_555
C7 C3 1_555 1_555
H3 C7 1_555 1_555
H4 C7 1_555 1_555
C8 C4 1_555 1_555
H5 C8 1_555 1_555
C9 C5 1_555 1_555
H6 C9 1_555 1_555
C10 C12 1_555 1_555
C11 C3 1_555 1_555
H7 C11 1_555 1_555
H8 C11 1_555 1_555
C12 H9 1_555 1_555
H10 C12 1_555 1_555
H11 C12 1_555 1_555
C13 C11 1_555 1_555
H12 C13 1_555 1_555
H13 C13 1_555 1_555
C14 C10 1_555 1_555
H14 C14 1_555 1_555
H15 C14 1_555 1_555
H16 C14 1_555 1_555
C15 C7 1_555 1_555
H17 C15 1_555 1_555
H18 C15 1_555 1_555
C16 C15 1_555 1_555
H19 C16 1_555 1_555
H20 C16 1_555 1_555
H21 C16 1_555 1_555
H22 N2 1_555 1_555
C2 C4 1_555 1_555
C5 C6 1_555 1_555
C8 C9 1_555 1_555

#END
