
#######################################################################
#
#                 Cambridge Crystallographic Data Centre
#                                CCDC 
#
#######################################################################
#
# If this CIF has been generated from an entry in the Cambridge 
# Structural Database, then it will include bibliographic, chemical, 
# crystal, experimental, refinement or atomic coordinate data resulting 
# from the CCDC's data processing and validation procedures.
#
#######################################################################

data_CASJIR
_chemical_compound_source        
'root of medicinal herb Aconitum sinomontanum Nakai'
_chemical_name_common            'Ranaconitine unknown solvate monohydrate'
_chemical_formula_moiety         'C32 H44 N2 O9,H2 O1'
_chemical_name_systematic        
'(1S,4S,5S,7R,8S,9S,10S,11S,13R,14S,16S,17S)-20-Ethyl-7,8,9-trihydroxy-1,14,16-trimethoxyaconitan-4-yl 2-acetamidobenzoate unknown solvate monohydrate'
_symmetry_cell_setting           monoclinic
_symmetry_space_group_name_H-M   'C 2'
_symmetry_Int_Tables_number      5
_space_group_name_Hall           'C 2y'
loop_
_symmetry_equiv_pos_site_id
_symmetry_equiv_pos_as_xyz
1 x,y,z
2 -x,y,-z
3 1/2+x,1/2+y,z
4 1/2-x,1/2+y,-z
_cell_length_a                   30.972(19)
_cell_length_b                   7.688(5)
_cell_length_c                   19.632(12)
_cell_angle_alpha                90
_cell_angle_beta                 128.742(7)
_cell_angle_gamma                90
_cell_volume                     3646.08
_exptl_crystal_colour            colorless
_exptl_crystal_description       block
_chemical_melting_point          '131-132 deg.C'
_cell_formula_units_Z            4
_exptl_crystal_recrystallization_method acetone
loop_
_atom_site_label
_atom_site_type_symbol
_atom_site_fract_x
_atom_site_fract_y
_atom_site_fract_z
C1 C 0.5601(5) 0.3045(17) 0.2806(7)
H1 H 0.5633 0.3428 0.3302
H2 H 0.5411 0.1949 0.2605
H3 H 0.5395 0.3890 0.2346
C2 C 0.6157(5) 0.2846(13) 0.3057(6)
C3 C 0.7129(3) 0.2239(9) 0.4382(4)
C4 C 0.7362(5) 0.2232(10) 0.3967(5)
H4 H 0.7135 0.2296 0.3361
C5 C 0.7933(5) 0.2129(13) 0.4450(6)
H5 H 0.8093 0.2154 0.4177
C6 C 0.8249(4) 0.1993(13) 0.5325(5)
H6 H 0.8631 0.1940 0.5652
C7 C 0.8037(3) 0.1930(11) 0.5741(5)
H7 H 0.8271 0.1780 0.6344
C8 C 0.7465(3) 0.2088(9) 0.5282(4)
C9 C 0.7238(3) 0.2073(10) 0.5775(4)
C10 C 0.7566(2) 0.1903(8) 0.7282(3)
C11 C 0.7245(3) 0.0356(8) 0.7199(4)
H8 H 0.7436 -0.0704 0.7260
H9 H 0.6882 0.0350 0.6630
C12 C 0.7188(2) 0.0449(8) 0.7905(4)
H10 H 0.6959 0.1441 0.7796
H11 H 0.7001 -0.0591 0.7881
C13 C 0.7732(2) 0.0610(7) 0.8795(3)
H12 H 0.7912 -0.0531 0.8957
C14 C 0.8147(2) 0.1975(8) 0.8906(3)
C15 C 0.8163(2) 0.1878(8) 0.8128(3)
H13 H 0.8359 0.0835 0.8166
C16 C 0.8004(2) 0.3890(8) 0.8832(4)
H14 H 0.8050 0.4273 0.9350
C17 C 0.8462(2) 0.4704(8) 0.8824(4)
C18 C 0.8457(2) 0.3526(8) 0.8189(4)
H15 H 0.8258 0.4076 0.7622
H16 H 0.8831 0.3270 0.8410
C19 C 0.7306(2) 0.3675(8) 0.7219(4)
H17 H 0.7445 0.4570 0.7052
H18 H 0.6907 0.3614 0.6770
C20 C 0.7187(2) 0.5798(8) 0.7997(5)
H19 H 0.7186 0.6570 0.7605
H20 H 0.7405 0.6338 0.8569
C21 C 0.6599(3) 0.5541(11) 0.7665(6)
H21 H 0.6398 0.4846 0.7144
H22 H 0.6422 0.6652 0.7538
H23 H 0.6604 0.4961 0.8104
C22 C 0.7540(3) -0.0476(10) 0.9708(5)
H24 H 0.7209 -0.1055 0.9235
H25 H 0.7502 -0.0135 1.0139
H26 H 0.7850 -0.1251 0.9969
C23 C 0.8730(2) 0.1628(8) 0.9803(4)
H27 H 0.8825 0.0420 0.9790
C24 C 0.8759(3) 0.1802(10) 1.0611(4)
H28 H 0.8414 0.2267 1.0446
H29 H 0.8823 0.0675 1.0882
C25 C 0.9231(3) 0.3020(12) 1.1234(5)
H30 H 0.9407 0.2715 1.1842
C26 C 0.9037(3) 0.4895(13) 1.1046(5)
H31 H 0.8649 0.4917 1.0810
C27 C 0.9077(3) 0.5796(10) 1.0408(5)
H32 H 0.9423 0.6431 1.0739
H33 H 0.8781 0.6648 1.0092
C28 C 0.9046(2) 0.4659(8) 0.9726(4)
C29 C 0.9218(2) 0.2757(8) 1.0037(4)
C30 C 0.9610(3) 0.2675(10) 1.1024(4)
H34 H 0.9744 0.1475 1.1196
C31 C 1.0522(3) 0.3314(14) 1.2263(5)
H35 H 1.0399 0.3262 1.2606
H36 H 1.0807 0.4177 1.2502
H37 H 1.0666 0.2200 1.2272
C32 C 0.9116(6) 0.671(2) 1.2068(9)
H38 H 0.9383 0.7289 1.2615
H39 H 0.8898 0.5935 1.2125
H40 H 0.8879 0.7563 1.1626
N1 N 0.6567(3) 0.2425(8) 0.3924(4)
H41 H 0.6454 0.2253 0.4223
N2 N 0.74379(18) 0.4141(6) 0.8054(3)
O1 O 0.6247(3) 0.3106(12) 0.2562(4)
O2 O 0.6761(2) 0.2212(8) 0.5452(3)
O3 O 0.76438(17) 0.1865(6) 0.6613(3)
O4 O 0.76287(16) 0.1010(6) 0.9390(3)
O5 O 0.83064(17) 0.6447(5) 0.8517(3)
H42 H 0.8534 0.6876 0.8481
O6 O 0.94060(19) 0.5406(6) 0.9592(4)
H43 H 0.9486 0.6399 0.9787
O7 O 0.94706(15) 0.2045(6) 0.9700(3)
H44 H 0.9618 0.2824 0.9626
O8 O 0.9362(3) 0.5871(11) 1.1859(4)
O9 O 1.00712(17) 0.3759(7) 1.1392(3)
O10 O 0.5666(4) 0.3760(13) 0.0883(5)
H45 H 0.5734 0.3692 0.1374
H46 H 0.5414 0.3744 0.0331
loop_
_geom_bond_atom_site_label_1
_geom_bond_atom_site_label_2
_geom_bond_site_symmetry_1
_geom_bond_site_symmetry_2
C1 H1 1_555 1_555
H2 C1 1_555 1_555
H3 C1 1_555 1_555
C2 C1 1_555 1_555
C3 C4 1_555 1_555
C4 H4 1_555 1_555
C5 C4 1_555 1_555
H5 C5 1_555 1_555
C6 C5 1_555 1_555
H6 C6 1_555 1_555
C7 C6 1_555 1_555
H7 C7 1_555 1_555
C8 C3 1_555 1_555
C9 C8 1_555 1_555
C10 C11 1_555 1_555
C11 H8 1_555 1_555
H9 C11 1_555 1_555
C12 C11 1_555 1_555
H10 C12 1_555 1_555
H11 C12 1_555 1_555
C13 C12 1_555 1_555
H12 C13 1_555 1_555
C14 C13 1_555 1_555
C15 C10 1_555 1_555
H13 C15 1_555 1_555
C16 C14 1_555 1_555
H14 C16 1_555 1_555
C17 C16 1_555 1_555
C18 C15 1_555 1_555
H15 C18 1_555 1_555
H16 C18 1_555 1_555
C19 C10 1_555 1_555
H17 C19 1_555 1_555
H18 C19 1_555 1_555
C20 H19 1_555 1_555
H20 C20 1_555 1_555
C21 C20 1_555 1_555
H21 C21 1_555 1_555
H22 C21 1_555 1_555
H23 C21 1_555 1_555
C22 H24 1_555 1_555
H25 C22 1_555 1_555
H26 C22 1_555 1_555
C23 C14 1_555 1_555
H27 C23 1_555 1_555
C24 C23 1_555 1_555
H28 C24 1_555 1_555
H29 C24 1_555 1_555
C25 C24 1_555 1_555
H30 C25 1_555 1_555
C26 C25 1_555 1_555
H31 C26 1_555 1_555
C27 C26 1_555 1_555
H32 C27 1_555 1_555
H33 C27 1_555 1_555
C28 C17 1_555 1_555
C29 C23 1_555 1_555
C30 C25 1_555 1_555
H34 C30 1_555 1_555
C31 H35 1_555 1_555
H36 C31 1_555 1_555
H37 C31 1_555 1_555
C32 H38 1_555 1_555
H39 C32 1_555 1_555
H40 C32 1_555 1_555
N1 C2 1_555 1_555
H41 N1 1_555 1_555
N2 C16 1_555 1_555
O1 C2 1_555 1_555
O2 C9 1_555 1_555
O3 C9 1_555 1_555
O4 C13 1_555 1_555
O5 C17 1_555 1_555
H42 O5 1_555 1_555
O6 C28 1_555 1_555
H43 O6 1_555 1_555
O7 C29 1_555 1_555
H44 O7 1_555 1_555
O8 C26 1_555 1_555
O9 C30 1_555 1_555
O10 H45 1_555 1_555
H46 O10 1_555 1_555
C3 N1 1_555 1_555
C7 C8 1_555 1_555
C10 O3 1_555 1_555
C14 C15 1_555 1_555
C17 C18 1_555 1_555
C19 N2 1_555 1_555
C20 N2 1_555 1_555
C22 O4 1_555 1_555
C27 C28 1_555 1_555
C28 C29 1_555 1_555
C29 C30 1_555 1_555
C31 O9 1_555 1_555
C32 O8 1_555 1_555

#END
