
#######################################################################
#
#                 Cambridge Crystallographic Data Centre
#                                CCDC 
#
#######################################################################
#
# If this CIF has been generated from an entry in the Cambridge 
# Structural Database, then it will include bibliographic, chemical, 
# crystal, experimental, refinement or atomic coordinate data resulting 
# from the CCDC's data processing and validation procedures.
#
#######################################################################

data_CASLUE
_chemical_formula_moiety         'C18 H18 Br2 N4 O6'
_chemical_name_systematic        
'Diethyl 6,9-dibromo-1,4-dioxo-1,2,3,4,5,10-hexahydro-2,3,4a,10a-tetraazabenzo(g)cyclopenta(cd)azulene-2a,10b-dicarboxylate'
_symmetry_cell_setting           monoclinic
_symmetry_space_group_name_H-M   'P 21/c'
_symmetry_Int_Tables_number      14
_space_group_name_Hall           '-P 2ybc'
loop_
_symmetry_equiv_pos_site_id
_symmetry_equiv_pos_as_xyz
1 x,y,z
2 -x,1/2+y,1/2-z
3 -x,-y,-z
4 x,1/2-y,1/2+z
_cell_length_a                   12.0665(11)
_cell_length_b                   10.3050(10)
_cell_length_c                   17.4969(17)
_cell_angle_alpha                90
_cell_angle_beta                 108.371(2)
_cell_angle_gamma                90
_cell_volume                     2064.78
_exptl_crystal_colour            colorless
_exptl_crystal_description       Block
_cell_formula_units_Z            4
_exptl_crystal_recrystallization_method chloroform
loop_
_atom_site_label
_atom_site_type_symbol
_atom_site_fract_x
_atom_site_fract_y
_atom_site_fract_z
Br1 Br 0.56196(8) -0.17811(9) 0.13680(5)
Br2 Br 0.50146(6) 0.45198(8) 0.12237(5)
C1 C 0.6161(4) 0.0780(5) 0.0923(3)
C2 C 0.5496(5) 0.0062(7) 0.1299(3)
C3 C 0.4727(6) 0.0634(10) 0.1628(4)
H1 H 0.4290 0.0127 0.1868
C4 C 0.4607(5) 0.1950(10) 0.1602(4)
H2 H 0.4082 0.2350 0.1819
C5 C 0.5272(5) 0.2684(7) 0.1250(3)
C6 C 0.6049(4) 0.2136(5) 0.0909(3)
C7 C 0.6759(4) 0.2960(4) 0.0515(3)
H3 H 0.6539 0.2733 -0.0052
H4 H 0.6555 0.3864 0.0549
C8 C 0.6970(4) 0.0137(5) 0.0533(3)
H5 H 0.6907 -0.0797 0.0576
H6 H 0.6719 0.0356 -0.0035
C9 C 0.8613(4) 0.3401(4) 0.1585(3)
C10 C 0.8957(4) -0.0167(5) 0.1494(3)
C11 C 0.8628(4) 0.1721(4) 0.0697(3)
C12 C 0.8637(5) 0.1644(5) -0.0180(3)
C13 C 0.8198(7) 0.2541(8) -0.1450(4)
H7 H 0.7625 0.1895 -0.1722
H8 H 0.8953 0.2282 -0.1485
C14 C 0.7864(9) 0.3838(8) -0.1825(5)
H9 H 0.7085 0.4045 -0.1833
H10 H 0.7896 0.3825 -0.2366
H11 H 0.8395 0.4481 -0.1519
C15 C 0.9860(4) 0.1790(4) 0.1374(3)
C16 C 1.0959(4) 0.2038(5) 0.1142(3)
C17 C 1.1765(7) 0.3042(9) 0.0252(5)
H12 H 1.2057 0.2240 0.0097
H13 H 1.2383 0.3431 0.0689
C18 C 1.1405(8) 0.3935(9) -0.0438(5)
H14 H 1.0786 0.3548 -0.0864
H15 H 1.2058 0.4107 -0.0625
H16 H 1.1137 0.4734 -0.0275
N1 N 0.8018(3) 0.2825(3) 0.0863(2)
N2 N 0.8187(3) 0.0509(4) 0.0888(2)
N3 N 0.9693(3) 0.2866(4) 0.1851(2)
N4 N 0.9948(3) 0.0555(4) 0.1762(2)
O1 O 0.8233(3) 0.4247(3) 0.19158(19)
O2 O 0.8767(3) -0.1218(4) 0.1735(2)
O3 O 0.8898(6) 0.0649(6) -0.0430(3)
O4 O 0.8245(4) 0.2659(4) -0.0603(2)
O5 O 1.1883(3) 0.1675(5) 0.1547(3)
O6 O 1.0746(3) 0.2779(5) 0.0512(3)
H17 H 1.020(5) 0.314(7) 0.224(3)
H18 H 1.056(5) 0.025(7) 0.211(4)
loop_
_geom_bond_atom_site_label_1
_geom_bond_atom_site_label_2
_geom_bond_site_symmetry_1
_geom_bond_site_symmetry_2
Br1 C2 1_555 1_555
Br2 C5 1_555 1_555
C1 C2 1_555 1_555
C2 C3 1_555 1_555
C3 H1 1_555 1_555
C4 C3 1_555 1_555
H2 C4 1_555 1_555
C5 C4 1_555 1_555
C6 C1 1_555 1_555
C7 C6 1_555 1_555
H3 C7 1_555 1_555
H4 C7 1_555 1_555
C8 C1 1_555 1_555
H5 C8 1_555 1_555
H6 C8 1_555 1_555
C9 N1 1_555 1_555
C10 N2 1_555 1_555
C11 C12 1_555 1_555
C12 O3 1_555 1_555
C13 H7 1_555 1_555
H8 C13 1_555 1_555
C14 C13 1_555 1_555
H9 C14 1_555 1_555
H10 C14 1_555 1_555
H11 C14 1_555 1_555
C15 C11 1_555 1_555
C16 C15 1_555 1_555
C17 H12 1_555 1_555
H13 C17 1_555 1_555
C18 C17 1_555 1_555
H14 C18 1_555 1_555
H15 C18 1_555 1_555
H16 C18 1_555 1_555
N1 C7 1_555 1_555
N2 C8 1_555 1_555
N3 C9 1_555 1_555
N4 C10 1_555 1_555
O1 C9 1_555 1_555
O2 C10 1_555 1_555
O4 C12 1_555 1_555
O5 C16 1_555 1_555
O6 C16 1_555 1_555
H17 N3 1_555 1_555
H18 N4 1_555 1_555
C5 C6 1_555 1_555
C11 N1 1_555 1_555
C11 N2 1_555 1_555
C13 O4 1_555 1_555
C15 N3 1_555 1_555
C15 N4 1_555 1_555
C17 O6 1_555 1_555

#END
