
#######################################################################
#
#                 Cambridge Crystallographic Data Centre
#                                CCDC 
#
#######################################################################
#
# If this CIF has been generated from an entry in the Cambridge 
# Structural Database, then it will include bibliographic, chemical, 
# crystal, experimental, refinement or atomic coordinate data resulting 
# from the CCDC's data processing and validation procedures.
#
#######################################################################

data_CASRIY
_chemical_formula_moiety         'C20 H26 N2 2+,2(Cl1 1-),C1 H4 O1'
_chemical_name_systematic        
'(1S,2S,4S,5S)-2,5-Dibenzyl-1,4-diazoniabicyclo(2.2.2)octane dichloride methanol solvate'
_symmetry_cell_setting           monoclinic
_symmetry_space_group_name_H-M   'P 21'
_symmetry_Int_Tables_number      4
_space_group_name_Hall           'P 2yb'
loop_
_symmetry_equiv_pos_site_id
_symmetry_equiv_pos_as_xyz
1 x,y,z
2 -x,1/2+y,-z
_cell_length_a                   11.7262(13)
_cell_length_b                   7.6968(7)
_cell_length_c                   11.8788(13)
_cell_angle_alpha                90
_cell_angle_beta                 109.970(5)
_cell_angle_gamma                90
_cell_volume                     1007.65
_exptl_crystal_colour            colorless
_exptl_crystal_description       prism
_cell_formula_units_Z            2
loop_
_atom_site_label
_atom_site_type_symbol
_atom_site_fract_x
_atom_site_fract_y
_atom_site_fract_z
Cl1 Cl 0.40910(7) 0.56743(12) 0.32834(8)
Cl2 Cl 0.09437(7) 0.65047(12) 0.48121(10)
O1 O 0.6239(6) 0.1698(12) 0.3596(6)
H1 H 0.6978 0.1647 0.4014
C21 C 0.5785(10) 0.1697(18) 0.2341(9)
H26 H 0.5069 0.2449 0.2059
H27 H 0.5560 0.0510 0.2051
H28 H 0.6410 0.2130 0.2036
N1 N 0.2888(2) 0.2593(4) 0.3883(3)
N2 N 0.1871(2) 0.0101(4) 0.4494(3)
C1 C 0.1563(3) 0.2582(5) 0.3125(3)
H2 H 0.1146 0.3536 0.3406
C2 C 0.1036(3) 0.0827(5) 0.3340(3)
H3 H 0.0216 0.0997 0.3384
H4 H 0.0973 0.0016 0.2674
C3 C 0.2144(3) 0.1487(5) 0.5453(3)
H5 H 0.1370 0.2101 0.5380
C4 C 0.3004(3) 0.2787(5) 0.5180(3)
H6 H 0.2790 0.3986 0.5335
H7 H 0.3850 0.2555 0.5701
C5 C 0.3495(3) 0.0946(5) 0.3740(3)
H8 H 0.4385 0.1058 0.4124
H9 H 0.3313 0.0694 0.2879
C6 C 0.3024(3) -0.0531(5) 0.4327(3)
H10 H 0.2856 -0.1576 0.3810
H11 H 0.3636 -0.0836 0.5111
C7 C 0.1402(3) 0.2903(5) 0.1815(3)
H12 H 0.1818 0.3999 0.1752
H13 H 0.1799 0.1949 0.1528
C8 C 0.0086(3) 0.3021(5) 0.1006(3)
C9 C -0.0819(3) 0.3776(6) 0.1361(4)
H14 H -0.0625 0.4208 0.2154
C10 C -0.2006(3) 0.3904(6) 0.0562(4)
H15 H -0.2613 0.4418 0.0817
C11 C -0.2310(3) 0.3292(6) -0.0595(4)
H16 H -0.3119 0.3384 -0.1136
C12 C -0.1416(4) 0.2540(6) -0.0956(3)
H17 H -0.1613 0.2116 -0.1751
C13 C -0.0236(3) 0.2404(5) -0.0160(3)
H18 H 0.0364 0.1877 -0.0418
C14 C 0.2644(3) 0.0669(6) 0.6694(3)
H19 H 0.2059 -0.0208 0.6777
H20 H 0.3413 0.0062 0.6777
C15 C 0.2872(3) 0.1989(5) 0.7685(3)
C16 C 0.4021(3) 0.2126(7) 0.8542(4)
H21 H 0.4672 0.1467 0.8457
C17 C 0.4230(4) 0.3220(8) 0.9525(4)
H22 H 0.5025 0.3317 1.0096
C18 C 0.3295(4) 0.4162(7) 0.9678(4)
H23 H 0.3433 0.4867 1.0368
C19 C 0.2154(4) 0.4068(6) 0.8812(4)
H24 H 0.1514 0.4762 0.8889
C20 C 0.1932(3) 0.2974(5) 0.7832(3)
H25 H 0.1137 0.2893 0.7259
H29 H 0.324(4) 0.357(6) 0.366(3)
H30 H 0.158(4) -0.084(7) 0.479(4)
loop_
_geom_bond_atom_site_label_1
_geom_bond_atom_site_label_2
_geom_bond_site_symmetry_1
_geom_bond_site_symmetry_2
O1 H1 1_555 1_555
N1 C1 1_555 1_555
N2 C2 1_555 1_555
C1 H2 1_555 1_555
C2 C1 1_555 1_555
H3 C2 1_555 1_555
H4 C2 1_555 1_555
C3 N2 1_555 1_555
H5 C3 1_555 1_555
C4 N1 1_555 1_555
H6 C4 1_555 1_555
H7 C4 1_555 1_555
C5 N1 1_555 1_555
H8 C5 1_555 1_555
H9 C5 1_555 1_555
C6 N2 1_555 1_555
H10 C6 1_555 1_555
H11 C6 1_555 1_555
C7 C1 1_555 1_555
H12 C7 1_555 1_555
H13 C7 1_555 1_555
C8 C7 1_555 1_555
C9 C8 1_555 1_555
H14 C9 1_555 1_555
C10 C9 1_555 1_555
H15 C10 1_555 1_555
C11 C10 1_555 1_555
H16 C11 1_555 1_555
C12 C11 1_555 1_555
H17 C12 1_555 1_555
C13 C8 1_555 1_555
H18 C13 1_555 1_555
C14 C3 1_555 1_555
H19 C14 1_555 1_555
H20 C14 1_555 1_555
C15 C14 1_555 1_555
C16 C15 1_555 1_555
H21 C16 1_555 1_555
C17 C16 1_555 1_555
H22 C17 1_555 1_555
C18 C17 1_555 1_555
H23 C18 1_555 1_555
C19 C18 1_555 1_555
H24 C19 1_555 1_555
C20 C15 1_555 1_555
H25 C20 1_555 1_555
C21 O1 1_555 1_555
H26 C21 1_555 1_555
H27 C21 1_555 1_555
H28 C21 1_555 1_555
H29 N1 1_555 1_555
H30 N2 1_555 1_555
C3 C4 1_555 1_555
C5 C6 1_555 1_555
C12 C13 1_555 1_555
C19 C20 1_555 1_555

#END
