
#######################################################################
#
#                 Cambridge Crystallographic Data Centre
#                                CCDC 
#
#######################################################################
#
# If this CIF has been generated from an entry in the Cambridge 
# Structural Database, then it will include bibliographic, chemical, 
# crystal, experimental, refinement or atomic coordinate data resulting 
# from the CCDC's data processing and validation procedures.
#
#######################################################################

data_CASSEU
_chemical_formula_moiety         'C21 H25 N1 O4,H2 O1'
_chemical_name_systematic        'Corydalis B monohydrate'
_symmetry_cell_setting           orthorhombic
_symmetry_space_group_name_H-M   'P 21 21 21'
_symmetry_Int_Tables_number      19
_space_group_name_Hall           'P 2ac 2ab'
loop_
_symmetry_equiv_pos_site_id
_symmetry_equiv_pos_as_xyz
1 x,y,z
2 1/2+x,1/2-y,-z
3 -x,1/2+y,1/2-z
4 1/2-x,-y,1/2+z
_cell_length_a                   22.296
_cell_length_b                   11.795
_cell_length_c                   7.452
_cell_angle_alpha                90
_cell_angle_beta                 90
_cell_angle_gamma                90
_cell_volume                     1959.74
_cell_formula_units_Z            4
loop_
_atom_site_label
_atom_site_type_symbol
_atom_site_fract_x
_atom_site_fract_y
_atom_site_fract_z
C1 C 0.19620 -0.36240 -0.00860
C2 C 0.17340 -0.41410 0.16200
C3 C 0.12800 -0.49450 0.15530
C4 C 0.10460 -0.54340 0.31180
C5 C 0.12730 -0.50950 0.47720
C6 C 0.17310 -0.42990 0.48380
C7 C 0.19660 -0.38140 0.32980
C8 C 0.24520 -0.29240 0.34180
C9 C 0.27410 -0.26940 0.15860
C10 C 0.31610 -0.16740 0.16630
C11 C 0.35850 -0.16070 0.30660
C12 C 0.39610 -0.06870 0.31920
C13 C 0.39330 0.01920 0.19450
C14 C 0.35320 0.01130 0.05210
C15 C 0.31470 -0.08170 0.03910
C16 C 0.27070 -0.08770 -0.11740
C17 C 0.24990 -0.20820 -0.14520
C18 C 0.04820 -0.47870 -0.05510
C19 C 0.03570 -0.67380 0.44590
C20 C 0.43840 -0.13240 0.60000
C21 C 0.42960 0.20020 0.09820
N1 N 0.22590 -0.25370 0.02470
O1 O 0.10670 -0.52830 -0.01220
O2 O 0.06020 -0.62170 0.28730
O3 O 0.43930 -0.05440 0.45170
O4 O 0.43140 0.10790 0.22300
O5 O 0.11820 -0.14270 0.15190
H1 H 0.16440 -0.16720 0.10340
loop_
_geom_bond_atom_site_label_1
_geom_bond_atom_site_label_2
_geom_bond_site_symmetry_1
_geom_bond_site_symmetry_2
C1 C2 1_555 1_555
C2 C3 1_555 1_555
C3 C4 1_555 1_555
C4 C5 1_555 1_555
C5 C6 1_555 1_555
C6 C7 1_555 1_555
C7 C2 1_555 1_555
C8 C7 1_555 1_555
C9 C8 1_555 1_555
C10 C9 1_555 1_555
C11 C10 1_555 1_555
C12 C11 1_555 1_555
C13 C12 1_555 1_555
C14 C13 1_555 1_555
C15 C10 1_555 1_555
C16 C15 1_555 1_555
C17 C16 1_555 1_555
C18 O1 1_555 1_555
C19 O2 1_555 1_555
C20 O3 1_555 1_555
C21 O4 1_555 1_555
N1 C1 1_555 1_555
O1 C3 1_555 1_555
O2 C4 1_555 1_555
O3 C12 1_555 1_555
O4 C13 1_555 1_555
O5 H1 1_555 1_555
C9 N1 1_555 1_555
C14 C15 1_555 1_555
C17 N1 1_555 1_555

#END
