
#######################################################################
#
#                 Cambridge Crystallographic Data Centre
#                                CCDC 
#
#######################################################################
#
# If this CIF has been generated from an entry in the Cambridge 
# Structural Database, then it will include bibliographic, chemical, 
# crystal, experimental, refinement or atomic coordinate data resulting 
# from the CCDC's data processing and validation procedures.
#
#######################################################################

data_CASVEY
_chemical_compound_source        'soft coral Sinularia microclavata'
_chemical_formula_moiety         'C20 H28 O3'
_chemical_name_systematic        Microclavatin
_chemical_properties_biological  
'cytotoxic activity against tumour cell lines KB and MCF'
_symmetry_cell_setting           monoclinic
_symmetry_space_group_name_H-M   'P 21'
_symmetry_Int_Tables_number      4
_space_group_name_Hall           'P 2yb'
loop_
_symmetry_equiv_pos_site_id
_symmetry_equiv_pos_as_xyz
1 x,y,z
2 -x,1/2+y,-z
_cell_length_a                   5.9969(7)
_cell_length_b                   13.5643(16)
_cell_length_c                   11.2749(14)
_cell_angle_alpha                90
_cell_angle_beta                 90.294(2)
_cell_angle_gamma                90
_cell_volume                     917.131
_exptl_crystal_colour            colorless
_exptl_crystal_description       block
_chemical_melting_point          '145-146 deg.C'
_cell_formula_units_Z            2
_exptl_crystal_recrystallization_method 'ethyl acetate/petroleum ether'
loop_
_atom_site_label
_atom_site_type_symbol
_atom_site_fract_x
_atom_site_fract_y
_atom_site_fract_z
C1 C 0.3977(4) 1.07015(17) 0.49937(18)
H1 H 0.3041 1.1281 0.5138
C2 C 0.6041(4) 1.09220(19) 0.42906(18)
H2 H 0.6938 1.0329 0.4235
H3 H 0.6915 1.1416 0.4706
C3 C 0.5511(4) 1.12915(19) 0.3048(2)
H4 H 0.4418 1.0853 0.2693
H5 H 0.4830 1.1938 0.3111
C4 C 0.7495(4) 1.13662(19) 0.2220(2)
H6 H 0.8182 1.0712 0.2167
C5 C 0.6727(5) 1.1669(2) 0.0958(2)
H7 H 0.5817 1.2258 0.1010
H8 H 0.8026 1.1826 0.0485
C6 C 0.5424(6) 1.0879(2) 0.0351(2)
C7 C 0.6798(5) 1.0057(2) -0.0141(2)
H9 H 0.8230 1.0264 -0.0474
C8 C 0.6781(4) 0.9041(2) 0.03370(19)
C9 C 0.5125(4) 0.87688(17) 0.12495(18)
H10 H 0.4014 0.9224 0.1423
C10 C 0.5113(4) 0.79258(18) 0.18345(18)
H11 H 0.6342 0.7513 0.1761
C11 C 0.3245(4) 0.75972(17) 0.26068(19)
C12 C 0.2243(3) 0.82743(16) 0.34808(18)
C13 C 0.3419(3) 0.90268(17) 0.39197(18)
H12 H 0.4874 0.9094 0.3651
C14 C 0.2653(4) 0.97572(18) 0.47806(18)
H13 H 0.1031 0.9836 0.4817
C15 C 0.3887(4) 0.99530(16) 0.59601(18)
C16 C 0.2400(5) 1.0181(2) 0.7015(2)
H14 H 0.3229 1.0553 0.7592
H15 H 0.1898 0.9576 0.7364
H16 H 0.1136 1.0558 0.6753
C17 C 0.5906(4) 0.93542(19) 0.6278(2)
H17 H 0.6682 0.9173 0.5569
H18 H 0.5453 0.8770 0.6692
H19 H 0.6876 0.9737 0.6778
C18 C 0.9236(5) 1.2076(3) 0.2682(3)
H20 H 0.8595 1.2722 0.2751
H21 H 1.0468 1.2098 0.2142
H22 H 0.9752 1.1860 0.3446
C19 C 0.8835(5) 0.8425(3) 0.0231(3)
H23 H 0.8422 0.7756 0.0059
H24 H 0.9656 0.8447 0.0963
H25 H 0.9745 0.8676 -0.0399
C20 C -0.0049(4) 0.8019(2) 0.3887(2)
H26 H -0.0166 0.8142 0.4723
H27 H -0.0338 0.7335 0.3731
H28 H -0.1119 0.8417 0.3468
O1 O 0.3418(4) 1.08822(18) 0.02803(18)
O2 O 0.5717(4) 0.92909(16) -0.07789(15)
O3 O 0.2528(4) 0.67667(14) 0.24548(19)
loop_
_geom_bond_atom_site_label_1
_geom_bond_atom_site_label_2
_geom_bond_site_symmetry_1
_geom_bond_site_symmetry_2
C1 H1 1_555 1_555
C2 C1 1_555 1_555
H2 C2 1_555 1_555
H3 C2 1_555 1_555
C3 C2 1_555 1_555
H4 C3 1_555 1_555
H5 C3 1_555 1_555
C4 C3 1_555 1_555
H6 C4 1_555 1_555
C5 C4 1_555 1_555
H7 C5 1_555 1_555
H8 C5 1_555 1_555
C6 C5 1_555 1_555
C7 C6 1_555 1_555
H9 C7 1_555 1_555
C8 C7 1_555 1_555
C9 C8 1_555 1_555
H10 C9 1_555 1_555
C10 C9 1_555 1_555
H11 C10 1_555 1_555
C11 C10 1_555 1_555
C12 C11 1_555 1_555
C13 C12 1_555 1_555
H12 C13 1_555 1_555
C14 C1 1_555 1_555
H13 C14 1_555 1_555
C15 C1 1_555 1_555
C16 C15 1_555 1_555
H14 C16 1_555 1_555
H15 C16 1_555 1_555
H16 C16 1_555 1_555
C17 C15 1_555 1_555
H17 C17 1_555 1_555
H18 C17 1_555 1_555
H19 C17 1_555 1_555
C18 C4 1_555 1_555
H20 C18 1_555 1_555
H21 C18 1_555 1_555
H22 C18 1_555 1_555
C19 C8 1_555 1_555
H23 C19 1_555 1_555
H24 C19 1_555 1_555
H25 C19 1_555 1_555
C20 C12 1_555 1_555
H26 C20 1_555 1_555
H27 C20 1_555 1_555
H28 C20 1_555 1_555
O1 C6 1_555 1_555
O2 C7 1_555 1_555
O3 C11 1_555 1_555
C8 O2 1_555 1_555
C13 C14 1_555 1_555
C14 C15 1_555 1_555

#END
