
#######################################################################
#
#                 Cambridge Crystallographic Data Centre
#                                CCDC 
#
#######################################################################
#
# If this CIF has been generated from an entry in the Cambridge 
# Structural Database, then it will include bibliographic, chemical, 
# crystal, experimental, refinement or atomic coordinate data resulting 
# from the CCDC's data processing and validation procedures.
#
#######################################################################

data_CASXUR
_chemical_formula_moiety         'C37 H31 N1 Si1,C7 H8'
_chemical_name_systematic        
'4-(2-(1-Methyl-2,3,4,5-tetraphenyl-1H-silol-1-yl)vinyl)aniline toluene solvate'
_symmetry_cell_setting           triclinic
_symmetry_space_group_name_H-M   'P -1'
_symmetry_Int_Tables_number      2
_space_group_name_Hall           '-P 1'
loop_
_symmetry_equiv_pos_site_id
_symmetry_equiv_pos_as_xyz
1 x,y,z
2 -x,-y,-z
_cell_length_a                   11.8995(14)
_cell_length_b                   12.4232(16)
_cell_length_c                   13.3886(16)
_cell_angle_alpha                91.821(8)
_cell_angle_beta                 106.264(8)
_cell_angle_gamma                113.046(8)
_cell_volume                     1725.84
_exptl_crystal_colour            yellow
_exptl_crystal_description       plate
_cell_formula_units_Z            2
loop_
_atom_site_label
_atom_site_type_symbol
_atom_site_fract_x
_atom_site_fract_y
_atom_site_fract_z
Si1 Si 0.39451(7) 0.64770(7) 0.20334(6)
N1 N 0.2439(4) 1.2059(3) 0.4152(3)
H1 H 0.3001 1.2700 0.4605
H2 H 0.1622 1.1932 0.3917
C1 C 0.2762(2) 0.5025(2) 0.21920(19)
C2 C 0.2094(2) 0.4367(2) 0.12170(19)
C3 C 0.2546(2) 0.4898(2) 0.03248(19)
C4 C 0.3509(3) 0.5999(2) 0.0584(2)
C5 C 0.2501(2) 0.4765(2) 0.3196(2)
C6 C 0.3527(3) 0.5229(2) 0.4134(2)
H3 H 0.4368 0.5687 0.4105
C7 C 0.3359(3) 0.5043(3) 0.5105(2)
H4 H 0.4079 0.5360 0.5729
C8 C 0.2148(3) 0.4401(3) 0.5165(2)
H5 H 0.2026 0.4262 0.5829
C9 C 0.1117(3) 0.3962(3) 0.4253(2)
H6 H 0.0276 0.3532 0.4292
C10 C 0.1280(3) 0.4134(3) 0.3281(2)
H7 H 0.0551 0.3820 0.2663
C11 C 0.0974(2) 0.3190(2) 0.09537(19)
C12 C -0.0247(3) 0.3049(3) 0.0337(2)
H8 H -0.0374 0.3722 0.0111
C13 C -0.1273(3) 0.1951(3) 0.0049(2)
H9 H -0.2103 0.1874 -0.0357
C14 C -0.1092(3) 0.0963(3) 0.0350(2)
H10 H -0.1794 0.0202 0.0137
C15 C 0.0107(3) 0.1081(3) 0.0960(2)
H11 H 0.0232 0.0401 0.1166
C16 C 0.1128(3) 0.2188(2) 0.1271(2)
H12 H 0.1945 0.2264 0.1708
C17 C 0.1923(2) 0.4181(2) -0.0753(2)
C18 C 0.1264(3) 0.4582(3) -0.1581(2)
H13 H 0.1209 0.5314 -0.1458
C19 C 0.0692(3) 0.3917(4) -0.2579(2)
H14 H 0.0240 0.4194 -0.3137
C20 C 0.0772(3) 0.2856(3) -0.2773(2)
H15 H 0.0385 0.2409 -0.3463
C21 C 0.1417(3) 0.2450(3) -0.1959(2)
H16 H 0.1470 0.1718 -0.2089
C22 C 0.1988(3) 0.3105(3) -0.0952(2)
H17 H 0.2427 0.2816 -0.0395
C23 C 0.4219(2) 0.6680(2) -0.0100(2)
C24 C 0.4515(3) 0.6143(3) -0.0872(2)
H18 H 0.4231 0.5307 -0.0983
C25 C 0.5216(3) 0.6821(3) -0.1468(2)
H19 H 0.5405 0.6443 -0.1987
C26 C 0.5648(3) 0.8042(3) -0.1322(2)
H20 H 0.6119 0.8501 -0.1742
C27 C 0.5384(3) 0.8579(3) -0.0560(3)
H21 H 0.5679 0.9416 -0.0450
C28 C 0.4690(3) 0.7909(3) 0.0049(2)
H22 H 0.4532 0.8299 0.0582
C29 C 0.5680(3) 0.6929(3) 0.2695(2)
H23 H 0.5896 0.6255 0.2601
H24 H 0.5890 0.7189 0.3449
H25 H 0.6178 0.7582 0.2388
C30 C 0.3347(3) 0.7594(3) 0.2361(2)
H26 H 0.2441 0.7357 0.2116
C31 C 0.4049(3) 0.8664(3) 0.2892(2)
H27 H 0.4955 0.8907 0.3121
C32 C 0.3586(3) 0.9524(3) 0.3168(2)
C33 C 0.4471(3) 1.0570(3) 0.3846(3)
H28 H 0.5353 1.0707 0.4100
C34 C 0.4100(4) 1.1408(3) 0.4154(3)
H29 H 0.4728 1.2113 0.4615
C35 C 0.2843(4) 1.1244(3) 0.3809(2)
C36 C 0.1942(3) 1.0210(3) 0.3122(2)
H30 H 0.1064 1.0086 0.2868
C37 C 0.2305(3) 0.9370(3) 0.2809(2)
H31 H 0.1674 0.8671 0.2339
C38 C 0.8211(4) 0.0991(5) 0.3884(6)
C39 C 0.8040(4) 0.1624(5) 0.4566(4)
H32 H 0.8132 0.1392 0.5243
C40 C 0.7742(4) 0.2589(5) 0.4443(5)
H33 H 0.7672 0.3052 0.4981
C41 C 0.7552(4) 0.2780(7) 0.3360(5)
H34 H 0.7328 0.3413 0.3153
C42 C 0.7684(7) 0.2066(11) 0.2594(6)
H35 H 0.7527 0.2232 0.1893
C43 C 0.8018(7) 0.1179(12) 0.2806(6)
H36 H 0.8120 0.0710 0.2294
C44 C 0.8542(7) 0.0034(6) 0.3986(7)
H37 H 0.8111 -0.0466 0.4436
H38 H 0.9477 0.0325 0.4305
H39 H 0.8272 -0.0431 0.3288
loop_
_geom_bond_atom_site_label_1
_geom_bond_atom_site_label_2
_geom_bond_site_symmetry_1
_geom_bond_site_symmetry_2
Si1 C1 1_555 1_555
N1 H1 1_555 1_555
H2 N1 1_555 1_555
C1 C2 1_555 1_555
C2 C3 1_555 1_555
C3 C4 1_555 1_555
C4 Si1 1_555 1_555
C5 C1 1_555 1_555
C6 C5 1_555 1_555
H3 C6 1_555 1_555
C7 C6 1_555 1_555
H4 C7 1_555 1_555
C8 C7 1_555 1_555
H5 C8 1_555 1_555
C9 C8 1_555 1_555
H6 C9 1_555 1_555
C10 C5 1_555 1_555
H7 C10 1_555 1_555
C11 C2 1_555 1_555
C12 C11 1_555 1_555
H8 C12 1_555 1_555
C13 C12 1_555 1_555
H9 C13 1_555 1_555
C14 C13 1_555 1_555
H10 C14 1_555 1_555
C15 C14 1_555 1_555
H11 C15 1_555 1_555
C16 C11 1_555 1_555
H12 C16 1_555 1_555
C17 C3 1_555 1_555
C18 C17 1_555 1_555
H13 C18 1_555 1_555
C19 C18 1_555 1_555
H14 C19 1_555 1_555
C20 C19 1_555 1_555
H15 C20 1_555 1_555
C21 C20 1_555 1_555
H16 C21 1_555 1_555
C22 C17 1_555 1_555
H17 C22 1_555 1_555
C23 C4 1_555 1_555
C24 C23 1_555 1_555
H18 C24 1_555 1_555
C25 C24 1_555 1_555
H19 C25 1_555 1_555
C26 C25 1_555 1_555
H20 C26 1_555 1_555
C27 C26 1_555 1_555
H21 C27 1_555 1_555
C28 C23 1_555 1_555
H22 C28 1_555 1_555
C29 Si1 1_555 1_555
H23 C29 1_555 1_555
H24 C29 1_555 1_555
H25 C29 1_555 1_555
C30 Si1 1_555 1_555
H26 C30 1_555 1_555
C31 C30 1_555 1_555
H27 C31 1_555 1_555
C32 C31 1_555 1_555
C33 C32 1_555 1_555
H28 C33 1_555 1_555
C34 C33 1_555 1_555
H29 C34 1_555 1_555
C35 N1 1_555 1_555
C36 C35 1_555 1_555
H30 C36 1_555 1_555
C37 C32 1_555 1_555
H31 C37 1_555 1_555
C38 C39 1_555 1_555
C39 H32 1_555 1_555
C40 C39 1_555 1_555
H33 C40 1_555 1_555
C41 C40 1_555 1_555
H34 C41 1_555 1_555
C42 C41 1_555 1_555
H35 C42 1_555 1_555
C43 C38 1_555 1_555
H36 C43 1_555 1_555
C44 C38 1_555 1_555
H37 C44 1_555 1_555
H38 C44 1_555 1_555
H39 C44 1_555 1_555
C9 C10 1_555 1_555
C15 C16 1_555 1_555
C21 C22 1_555 1_555
C27 C28 1_555 1_555
C34 C35 1_555 1_555
C36 C37 1_555 1_555
C42 C43 1_555 1_555

#END
