
#######################################################################
#
#                 Cambridge Crystallographic Data Centre
#                                CCDC 
#
#######################################################################
#
# If this CIF has been generated from an entry in the Cambridge 
# Structural Database, then it will include bibliographic, chemical, 
# crystal, experimental, refinement or atomic coordinate data resulting 
# from the CCDC's data processing and validation procedures.
#
#######################################################################

data_CASYAY
_chemical_formula_moiety         'C67 H52 O2 Si2'
_chemical_name_systematic        
'4-(1,2-bis(1-methyl-2,3,4,5-tetraphenyl-1H-silol-1-yl)vinyl)benzoic acid'
_symmetry_cell_setting           triclinic
_symmetry_space_group_name_H-M   'P -1'
_symmetry_Int_Tables_number      2
_space_group_name_Hall           '-P 1'
loop_
_symmetry_equiv_pos_site_id
_symmetry_equiv_pos_as_xyz
1 x,y,z
2 -x,-y,-z
_cell_length_a                   13.0207(14)
_cell_length_b                   13.6546(15)
_cell_length_c                   16.0449(17)
_cell_angle_alpha                71.296(7)
_cell_angle_beta                 89.997(7)
_cell_angle_gamma                74.980(7)
_cell_volume                     2598.92
_exptl_crystal_colour            yellow
_exptl_crystal_description       platelet
_cell_formula_units_Z            2
loop_
_atom_site_label
_atom_site_type_symbol
_atom_site_fract_x
_atom_site_fract_y
_atom_site_fract_z
Si1 Si 0.03181(5) 0.78951(5) 0.20690(4)
Si2 Si 0.20162(5) 0.54602(5) 0.41255(4)
O1 O -0.37219(14) 0.95149(17) 0.52064(14)
O2 O -0.46747(14) 0.96394(17) 0.40087(13)
H1 H -0.5143 0.9958 0.4264
C1 C -0.09519(18) 0.8331(2) 0.13406(15)
C2 C -0.13986(18) 0.9390(2) 0.12334(15)
C3 C -0.07158(18) 0.99327(19) 0.15905(16)
C4 C 0.02703(18) 0.9310(2) 0.19747(16)
C5 C -0.13330(18) 0.7663(2) 0.09116(16)
C6 C -0.0968(2) 0.6541(2) 0.12726(18)
H2 H -0.0531 0.6221 0.1816
C7 C -0.1237(2) 0.5892(2) 0.0848(2)
H3 H -0.0979 0.5132 0.1103
C8 C -0.1869(2) 0.6331(3) 0.0064(2)
H4 H -0.2059 0.5881 -0.0219
C9 C -0.2228(2) 0.7443(3) -0.0310(2)
H5 H -0.2659 0.7754 -0.0856
C10 C -0.1965(2) 0.8098(2) 0.01056(17)
H6 H -0.2218 0.8856 -0.0160
C11 C -0.24899(18) 1.0036(2) 0.08054(16)
C12 C -0.3380(2) 0.9742(2) 0.11549(18)
H7 H -0.3288 0.9106 0.1649
C13 C -0.4401(2) 1.0357(3) 0.0799(2)
H8 H -0.5002 1.0148 0.1055
C14 C -0.4547(2) 1.1268(2) 0.0073(2)
H9 H -0.5247 1.1687 -0.0177
C15 C -0.3667(2) 1.1571(2) -0.0290(2)
H10 H -0.3761 1.2200 -0.0792
C16 C -0.2653(2) 1.0959(2) 0.00776(18)
H11 H -0.2054 1.1176 -0.0174
C17 C -0.11462(19) 1.1100(2) 0.14647(17)
C18 C -0.2038(2) 1.1466(2) 0.18724(19)
H12 H -0.2349 1.0963 0.2268
C19 C -0.2477(2) 1.2554(2) 0.1709(2)
H13 H -0.3077 1.2792 0.2001
C20 C -0.2049(3) 1.3293(2) 0.1124(2)
H14 H -0.2367 1.4040 0.0998
C21 C -0.1158(3) 1.2943(2) 0.0723(2)
H15 H -0.0854 1.3451 0.0326
C22 C -0.0703(2) 1.1854(2) 0.08958(17)
H16 H -0.0083 1.1620 0.0623
C23 C 0.10915(19) 0.9670(2) 0.23381(16)
C24 C 0.0876(2) 1.0322(2) 0.28672(19)
H17 H 0.0172 1.0541 0.3026
C25 C 0.1687(3) 1.0651(2) 0.3162(2)
H18 H 0.1534 1.1092 0.3525
C26 C 0.2714(3) 1.0347(3) 0.2935(2)
H19 H 0.3259 1.0592 0.3128
C27 C 0.2945(2) 0.9694(3) 0.2433(2)
H20 H 0.3653 0.9475 0.2282
C28 C 0.2143(2) 0.9352(2) 0.21442(19)
H21 H 0.2316 0.8886 0.1804
C29 C 0.32093(18) 0.59677(19) 0.38502(16)
C30 C 0.37405(18) 0.5480(2) 0.32941(16)
C31 C 0.32176(18) 0.47514(19) 0.30243(16)
C32 C 0.22864(18) 0.46386(19) 0.33762(16)
C33 C 0.35787(19) 0.6621(2) 0.43028(16)
C34 C 0.2826(2) 0.7409(2) 0.45197(18)
H22 H 0.2092 0.7541 0.4343
C35 C 0.3113(2) 0.8004(2) 0.4985(2)
H23 H 0.2580 0.8538 0.5123
C36 C 0.4170(2) 0.7826(2) 0.5250(2)
H24 H 0.4372 0.8235 0.5569
C37 C 0.4936(2) 0.7043(2) 0.50449(18)
H25 H 0.5667 0.6912 0.5230
C38 C 0.4649(2) 0.6451(2) 0.45750(17)
H26 H 0.5186 0.5923 0.4435
C39 C 0.47432(19) 0.5684(2) 0.29210(17)
C40 C 0.4772(2) 0.6744(3) 0.25256(18)
H27 H 0.4156 0.7314 0.2496
C41 C 0.5685(3) 0.6978(3) 0.2175(2)
H28 H 0.5695 0.7705 0.1908
C42 C 0.6571(3) 0.6165(4) 0.2214(2)
H29 H 0.7195 0.6328 0.1969
C43 C 0.6566(2) 0.5109(3) 0.2606(2)
H30 H 0.7189 0.4548 0.2634
C44 C 0.5653(2) 0.4860(3) 0.29607(19)
H31 H 0.5651 0.4131 0.3229
C45 C 0.37088(19) 0.4234(2) 0.23756(18)
C46 C 0.3787(2) 0.4861(3) 0.1518(2)
H32 H 0.3554 0.5622 0.1350
C47 C 0.4204(3) 0.4376(4) 0.0902(2)
H33 H 0.4239 0.4806 0.0311
C48 C 0.4564(3) 0.3285(4) 0.1149(3)
H34 H 0.4863 0.2960 0.0730
C49 C 0.4498(2) 0.2646(3) 0.1998(3)
H35 H 0.4752 0.1886 0.2163
C50 C 0.4057(2) 0.3120(2) 0.2615(2)
H36 H 0.3996 0.2684 0.3198
C51 C 0.15295(18) 0.4096(2) 0.31588(17)
C52 C 0.1433(2) 0.3920(2) 0.23533(18)
H37 H 0.1905 0.4118 0.1918
C53 C 0.0660(2) 0.3463(2) 0.21812(19)
H38 H 0.0616 0.3342 0.1633
C54 C -0.0046(2) 0.3180(2) 0.2790(2)
H39 H -0.0575 0.2869 0.2665
C55 C 0.0026(2) 0.3356(3) 0.3583(2)
H40 H -0.0458 0.3168 0.4010
C56 C 0.0801(2) 0.3807(2) 0.37574(19)
H41 H 0.0837 0.3925 0.4308
C57 C 0.14791(18) 0.7081(2) 0.17050(16)
H42 H 0.1517 0.7415 0.1071
H43 H 0.1403 0.6354 0.1821
H44 H 0.2134 0.7040 0.2030
C58 C 0.2146(2) 0.4692(2) 0.53233(17)
H45 H 0.2770 0.4064 0.5463
H46 H 0.1502 0.4454 0.5478
H47 H 0.2236 0.5152 0.5662
C59 C 0.00511(17) 0.72823(19) 0.32575(16)
C60 C 0.06759(18) 0.64619(19) 0.39289(16)
H48 H 0.0331 0.6366 0.4459
C61 C -0.09670(18) 0.78831(19) 0.35134(15)
C62 C -0.19596(18) 0.7831(2) 0.32473(16)
H49 H -0.2008 0.7446 0.2856
C63 C -0.28832(19) 0.8335(2) 0.35444(16)
H50 H -0.3559 0.8301 0.3351
C64 C -0.28172(19) 0.8885(2) 0.41216(16)
C65 C -0.1836(2) 0.8952(2) 0.43867(18)
H51 H -0.1790 0.9328 0.4785
C66 C -0.0923(2) 0.8471(2) 0.40730(18)
H52 H -0.0253 0.8542 0.4241
C67 C -0.3782(2) 0.9371(2) 0.44907(19)
loop_
_geom_bond_atom_site_label_1
_geom_bond_atom_site_label_2
_geom_bond_site_symmetry_1
_geom_bond_site_symmetry_2
Si1 C1 1_555 1_555
Si2 C29 1_555 1_555
O1 C67 1_555 1_555
O2 H1 1_555 1_555
C1 C2 1_555 1_555
C2 C3 1_555 1_555
C3 C4 1_555 1_555
C4 Si1 1_555 1_555
C5 C1 1_555 1_555
C6 C5 1_555 1_555
H2 C6 1_555 1_555
C7 C6 1_555 1_555
H3 C7 1_555 1_555
C8 C7 1_555 1_555
H4 C8 1_555 1_555
C9 C8 1_555 1_555
H5 C9 1_555 1_555
C10 C5 1_555 1_555
H6 C10 1_555 1_555
C11 C2 1_555 1_555
C12 C11 1_555 1_555
H7 C12 1_555 1_555
C13 C12 1_555 1_555
H8 C13 1_555 1_555
C14 C13 1_555 1_555
H9 C14 1_555 1_555
C15 C14 1_555 1_555
H10 C15 1_555 1_555
C16 C11 1_555 1_555
H11 C16 1_555 1_555
C17 C3 1_555 1_555
C18 C17 1_555 1_555
H12 C18 1_555 1_555
C19 C18 1_555 1_555
H13 C19 1_555 1_555
C20 C19 1_555 1_555
H14 C20 1_555 1_555
C21 C20 1_555 1_555
H15 C21 1_555 1_555
C22 C17 1_555 1_555
H16 C22 1_555 1_555
C23 C4 1_555 1_555
C24 C23 1_555 1_555
H17 C24 1_555 1_555
C25 C24 1_555 1_555
H18 C25 1_555 1_555
C26 C25 1_555 1_555
H19 C26 1_555 1_555
C27 C26 1_555 1_555
H20 C27 1_555 1_555
C28 C23 1_555 1_555
H21 C28 1_555 1_555
C29 C30 1_555 1_555
C30 C31 1_555 1_555
C31 C32 1_555 1_555
C32 Si2 1_555 1_555
C33 C29 1_555 1_555
C34 C33 1_555 1_555
H22 C34 1_555 1_555
C35 C34 1_555 1_555
H23 C35 1_555 1_555
C36 C35 1_555 1_555
H24 C36 1_555 1_555
C37 C36 1_555 1_555
H25 C37 1_555 1_555
C38 C33 1_555 1_555
H26 C38 1_555 1_555
C39 C30 1_555 1_555
C40 C39 1_555 1_555
H27 C40 1_555 1_555
C41 C40 1_555 1_555
H28 C41 1_555 1_555
C42 C41 1_555 1_555
H29 C42 1_555 1_555
C43 C42 1_555 1_555
H30 C43 1_555 1_555
C44 C39 1_555 1_555
H31 C44 1_555 1_555
C45 C31 1_555 1_555
C46 C45 1_555 1_555
H32 C46 1_555 1_555
C47 C46 1_555 1_555
H33 C47 1_555 1_555
C48 C47 1_555 1_555
H34 C48 1_555 1_555
C49 C48 1_555 1_555
H35 C49 1_555 1_555
C50 C45 1_555 1_555
H36 C50 1_555 1_555
C51 C32 1_555 1_555
C52 C51 1_555 1_555
H37 C52 1_555 1_555
C53 C52 1_555 1_555
H38 C53 1_555 1_555
C54 C53 1_555 1_555
H39 C54 1_555 1_555
C55 C54 1_555 1_555
H40 C55 1_555 1_555
C56 C51 1_555 1_555
H41 C56 1_555 1_555
C57 Si1 1_555 1_555
H42 C57 1_555 1_555
H43 C57 1_555 1_555
H44 C57 1_555 1_555
C58 Si2 1_555 1_555
H45 C58 1_555 1_555
H46 C58 1_555 1_555
H47 C58 1_555 1_555
C59 Si1 1_555 1_555
C60 Si2 1_555 1_555
H48 C60 1_555 1_555
C61 C59 1_555 1_555
C62 C61 1_555 1_555
H49 C62 1_555 1_555
C63 C62 1_555 1_555
H50 C63 1_555 1_555
C64 C63 1_555 1_555
C65 C64 1_555 1_555
H51 C65 1_555 1_555
C66 C61 1_555 1_555
H52 C66 1_555 1_555
C67 O2 1_555 1_555
C9 C10 1_555 1_555
C15 C16 1_555 1_555
C21 C22 1_555 1_555
C27 C28 1_555 1_555
C37 C38 1_555 1_555
C43 C44 1_555 1_555
C49 C50 1_555 1_555
C55 C56 1_555 1_555
C59 C60 1_555 1_555
C64 C67 1_555 1_555
C65 C66 1_555 1_555

#END
