
#######################################################################
#
#                 Cambridge Crystallographic Data Centre
#                                CCDC 
#
#######################################################################
#
# If this CIF has been generated from an entry in the Cambridge 
# Structural Database, then it will include bibliographic, chemical, 
# crystal, experimental, refinement or atomic coordinate data resulting 
# from the CCDC's data processing and validation procedures.
#
#######################################################################

data_CASZIG
_chemical_formula_moiety         'C10 H9 N2 1+,C10 H5 O8 1-,3(H2 O1)'
_chemical_name_systematic        
"2,2'-Bipyridinium trihydrogen 1,2,4,5-benzenetetracarboxylate trihydrate"
_symmetry_cell_setting           triclinic
_symmetry_space_group_name_H-M   'P -1'
_symmetry_Int_Tables_number      2
_space_group_name_Hall           '-P 1'
loop_
_symmetry_equiv_pos_site_id
_symmetry_equiv_pos_as_xyz
1 x,y,z
2 -x,-y,-z
_cell_length_a                   9.6528(15)
_cell_length_b                   9.6823(15)
_cell_length_c                   12.0799(19)
_cell_angle_alpha                89.625(2)
_cell_angle_beta                 72.672(2)
_cell_angle_gamma                72.316(2)
_cell_volume                     1022.45
_exptl_crystal_colour            colorless
_exptl_crystal_description       block
_cell_formula_units_Z            2
loop_
_atom_site_label
_atom_site_type_symbol
_atom_site_fract_x
_atom_site_fract_y
_atom_site_fract_z
O1 O 0.50404(13) 0.25880(15) 0.91384(12)
O2 O 0.48879(14) 0.46741(16) 0.83828(13)
O3 O 0.15332(15) 0.68179(18) 0.63893(13)
H1 H 0.1264 0.7307 0.5889
O4 O -0.09087(14) 0.69435(15) 0.70417(12)
O5 O -0.13876(14) 0.40942(16) 0.69370(11)
O6 O -0.27129(13) 0.48173(16) 0.87943(11)
H2 H -0.3417 0.4710 0.8594
O7 O 0.09501(14) 0.14343(15) 1.05043(12)
O8 O 0.33403(14) 0.12836(16) 1.01212(13)
H3 H 0.3925 0.1714 0.9766
C11 C 0.27430(17) 0.38754(18) 0.86766(14)
C12 C 0.22485(18) 0.49465(18) 0.79875(14)
H13 H 0.2874 0.5504 0.7661
C13 C 0.08687(17) 0.52274(18) 0.77618(13)
C14 C -0.00723(17) 0.43953(18) 0.82443(13)
C15 C 0.03720(18) 0.33675(18) 0.89724(14)
H14 H -0.0284 0.2848 0.9326
C16 C 0.17627(17) 0.30716(18) 0.92025(14)
C17 C 0.43351(18) 0.3706(2) 0.87470(15)
C18 C 0.04075(19) 0.64123(19) 0.70268(15)
C19 C -0.14713(18) 0.44470(18) 0.79150(15)
C20 C 0.20151(19) 0.1870(2) 1.00020(15)
N1 N 0.48561(17) -0.02569(17) 0.71588(13)
H4 H 0.5634 0.0031 0.6848
N2 N 0.48901(18) 0.1868(2) 0.57885(16)
C1 C 0.2322(2) -0.0082(2) 0.74111(19)
H5 H 0.1404 0.0333 0.7255
C2 C 0.2441(3) -0.1160(2) 0.81638(19)
H6 H 0.1600 -0.1465 0.8515
C3 C 0.3786(3) -0.1782(2) 0.83976(18)
H7 H 0.3873 -0.2513 0.8899
C4 C 0.5001(3) -0.1302(2) 0.78753(18)
H8 H 0.5927 -0.1707 0.8022
C5 C 0.3559(2) 0.0378(2) 0.68920(15)
C6 C 0.3599(2) 0.1527(2) 0.60860(16)
C7 C 0.4980(3) 0.2904(3) 0.5063(2)
H9 H 0.5877 0.3150 0.4843
C8 C 0.3836(3) 0.3624(3) 0.46240(19)
H10 H 0.3953 0.4340 0.4120
C9 C 0.2517(3) 0.3268(3) 0.4943(2)
H11 H 0.1711 0.3747 0.4667
C10 C 0.2394(2) 0.2195(2) 0.56786(18)
H12 H 0.1511 0.1924 0.5898
O9 O 0.78224(15) 0.98684(15) 0.66186(13)
H15 H 0.7857 1.0293 0.7219
H16 H 0.8323 0.8965 0.6519
O10 O 0.17228(15) 0.88754(16) 0.15615(13)
H17 H 0.2657 0.8354 0.1301
H18 H 0.1466 0.9600 0.1181
O11 O 0.09943(18) 0.81699(17) 0.46538(12)
H19 H 0.1164 0.7461 0.4167
H20 H 0.1314 0.8861 0.4365
loop_
_geom_bond_atom_site_label_1
_geom_bond_atom_site_label_2
_geom_bond_site_symmetry_1
_geom_bond_site_symmetry_2
O1 C17 1_555 1_555
O2 C17 1_555 1_555
O3 H1 1_555 1_555
O4 C18 1_555 1_555
O5 C19 1_555 1_555
O6 H2 1_555 1_555
O7 C20 1_555 1_555
O8 H3 1_555 1_555
N1 H4 1_555 1_555
N2 C6 1_555 1_555
C1 H5 1_555 1_555
C2 C1 1_555 1_555
H6 C2 1_555 1_555
C3 C2 1_555 1_555
H7 C3 1_555 1_555
C4 N1 1_555 1_555
H8 C4 1_555 1_555
C5 N1 1_555 1_555
C6 C5 1_555 1_555
C7 N2 1_555 1_555
H9 C7 1_555 1_555
C8 C7 1_555 1_555
H10 C8 1_555 1_555
C9 C8 1_555 1_555
H11 C9 1_555 1_555
C10 C6 1_555 1_555
H12 C10 1_555 1_555
C11 C12 1_555 1_555
C12 H13 1_555 1_555
C13 C12 1_555 1_555
C14 C13 1_555 1_555
C15 C14 1_555 1_555
H14 C15 1_555 1_555
C16 C11 1_555 1_555
C17 C11 1_555 1_555
C18 O3 1_555 1_555
C19 O6 1_555 1_555
C20 O8 1_555 1_555
O9 H15 1_555 1_555
H16 O9 1_555 1_555
O10 H17 1_555 1_555
H18 O10 1_555 1_555
O11 H19 1_555 1_555
H20 O11 1_555 1_555
C1 C5 1_555 1_555
C3 C4 1_555 1_555
C9 C10 1_555 1_555
C13 C18 1_555 1_555
C14 C19 1_555 1_555
C15 C16 1_555 1_555
C16 C20 1_555 1_555

#END
