
#######################################################################
#
#                 Cambridge Crystallographic Data Centre
#                                CCDC 
#
#######################################################################
#
# If this CIF has been generated from an entry in the Cambridge 
# Structural Database, then it will include bibliographic, chemical, 
# crystal, experimental, refinement or atomic coordinate data resulting 
# from the CCDC's data processing and validation procedures.
#
#######################################################################

data_CATCOL13
_chemical_name_common            Catechol
_chemical_formula_moiety         'C6 H6 O2'
_chemical_name_systematic        1,2-Benzenediol
_symmetry_cell_setting           monoclinic
_symmetry_space_group_name_H-M   'P 21/n'
_symmetry_Int_Tables_number      14
_space_group_name_Hall           '-P 2yn'
loop_
_symmetry_equiv_pos_site_id
_symmetry_equiv_pos_as_xyz
1 x,y,z
2 1/2-x,1/2+y,1/2-z
3 -x,-y,-z
4 1/2+x,1/2-y,1/2+z
_cell_length_a                   9.732(3)
_cell_length_b                   5.620(2)
_cell_length_c                   10.332(3)
_cell_angle_alpha                90
_cell_angle_beta                 114.240(18)
_cell_angle_gamma                90
_cell_volume                     515.274
_exptl_crystal_colour            colorless
_exptl_crystal_description       needle
_cell_formula_units_Z            4
_exptl_crystal_recrystallization_method 'hexane/ethyl acetate'
loop_
_atom_site_label
_atom_site_type_symbol
_atom_site_fract_x
_atom_site_fract_y
_atom_site_fract_z
O1 O 0.45168(8) 0.21272(14) 0.37527(7)
H1 H 0.3730(18) 0.257(3) 0.3031(17)
O2 O 0.70973(9) 0.19258(15) 0.61906(7)
H2 H 0.6313(17) 0.104(3) 0.5936(16)
C1 C 0.56565(11) 0.36953(18) 0.38999(10)
C2 C 0.69741(11) 0.35364(18) 0.51454(10)
C3 C 0.81660(11) 0.5058(2) 0.53610(10)
H3 H 0.9109(15) 0.492(2) 0.6251(14)
C4 C 0.80482(13) 0.6776(2) 0.43485(11)
H4 H 0.8896(16) 0.784(3) 0.4494(15)
C5 C 0.67324(13) 0.6948(2) 0.31143(11)
H5 H 0.6648(15) 0.817(3) 0.2422(14)
C6 C 0.55443(11) 0.5404(2) 0.28920(10)
H6 H 0.4596(15) 0.548(2) 0.2029(14)
loop_
_geom_bond_atom_site_label_1
_geom_bond_atom_site_label_2
_geom_bond_site_symmetry_1
_geom_bond_site_symmetry_2
O1 H1 1_555 1_555
O2 H2 1_555 1_555
C1 O1 1_555 1_555
C2 O2 1_555 1_555
C3 C2 1_555 1_555
H3 C3 1_555 1_555
C4 C3 1_555 1_555
H4 C4 1_555 1_555
C5 C4 1_555 1_555
H5 C5 1_555 1_555
C6 C1 1_555 1_555
H6 C6 1_555 1_555
C1 C2 1_555 1_555
C5 C6 1_555 1_555

#END
