
#######################################################################
#
#                 Cambridge Crystallographic Data Centre
#                                CCDC 
#
#######################################################################
#
# If this CIF has been generated from an entry in the Cambridge 
# Structural Database, then it will include bibliographic, chemical, 
# crystal, experimental, refinement or atomic coordinate data resulting 
# from the CCDC's data processing and validation procedures.
#
#######################################################################

data_CATCEG
_chemical_name_common            '18-Crown-6 2,4-dithiouracil monohydrate'
_chemical_formula_moiety         'C12 H24 O6,C4 H4 N2 S2,H2 O1'
_chemical_name_systematic        
'1,4,7,10,13,16-Hexaoxacyclo-octadecane pyrimidine-2,4(1H,3H)-dithione monohydrate'
_symmetry_cell_setting           monoclinic
_symmetry_space_group_name_H-M   'P 21/n'
_symmetry_Int_Tables_number      14
_space_group_name_Hall           '-P 2yn'
loop_
_symmetry_equiv_pos_site_id
_symmetry_equiv_pos_as_xyz
1 x,y,z
2 1/2-x,1/2+y,1/2-z
3 -x,-y,-z
4 1/2+x,1/2-y,1/2+z
_cell_length_a                   7.7070(15)
_cell_length_b                   17.374(4)
_cell_length_c                   16.622(3)
_cell_angle_alpha                90
_cell_angle_beta                 92.17(3)
_cell_angle_gamma                90
_cell_volume                     2224.11
_exptl_crystal_colour            yellow
_exptl_crystal_description       prism
_chemical_melting_point          265deg.C.(dec.)
_cell_formula_units_Z            4
loop_
_atom_site_label
_atom_site_type_symbol
_atom_site_fract_x
_atom_site_fract_y
_atom_site_fract_z
S1 S 0.83374(8) 0.39910(3) 0.34792(3)
S2 S 0.90385(9) 0.09654(3) 0.32263(3)
N1 N 0.85880(18) 0.24579(8) 0.34830(8)
H1 H 0.893(3) 0.2521(12) 0.3038(10)
N2 N 0.7549(2) 0.30024(10) 0.46245(9)
H2 H 0.721(3) 0.3391(10) 0.4874(13)
C1 C 0.8146(2) 0.31173(10) 0.38777(10)
C2 C 0.8470(2) 0.17167(10) 0.37762(10)
C3 C 0.7848(3) 0.16582(11) 0.45675(11)
H3 H 0.7749 0.1179 0.4811
C4 C 0.7407(3) 0.22962(12) 0.49606(11)
H4 H 0.6992 0.2254 0.5477
O1 O 0.9162(2) 0.32898(9) 0.64854(9)
C5 C 0.9858(4) 0.28521(18) 0.71391(19)
H5 H 0.9097 0.2891 0.7589
H6 H 1.0981 0.3060 0.7309
C6 C 1.0052(4) 0.20461(19) 0.6919(2)
H7 H 1.0577 0.2010 0.6400
H8 H 1.0812 0.1791 0.7314
O2 O 0.8400(2) 0.16735(9) 0.68838(10)
C7 C 0.8564(4) 0.08763(14) 0.67455(16)
H9 H 0.9269 0.0644 0.7176
H10 H 0.9131 0.0789 0.6242
C8 C 0.6823(4) 0.05225(14) 0.67100(15)
H11 H 0.6928 -0.0033 0.6688
H12 H 0.6209 0.0656 0.7189
O3 O 0.5880(2) 0.07928(9) 0.60152(10)
C9 C 0.4120(4) 0.05721(14) 0.6000(2)
H13 H 0.3571 0.0756 0.6479
H14 H 0.4022 0.0016 0.5983
C10 C 0.3265(4) 0.09157(18) 0.5270(2)
H15 H 0.3951 0.0810 0.4805
H16 H 0.2127 0.0687 0.5177
O4 O 0.3096(2) 0.17287(10) 0.53730(12)
C11 C 0.2823(4) 0.2163(2) 0.46502(18)
H17 H 0.1852 0.1951 0.4334
H18 H 0.3848 0.2139 0.4330
C12 C 0.2452(4) 0.2980(2) 0.4870(2)
H19 H 0.2258 0.3285 0.4386
H20 H 0.1415 0.3004 0.5182
O5 O 0.38787(19) 0.32708(9) 0.53231(11)
C13 C 0.3706(3) 0.40575(14) 0.5567(2)
H21 H 0.2652 0.4119 0.5862
H22 H 0.3623 0.4387 0.5096
C14 C 0.5207(4) 0.42821(14) 0.60773(16)
H23 H 0.5055 0.4802 0.6274
H24 H 0.5323 0.3940 0.6537
O6 O 0.67023(19) 0.42417(8) 0.56227(8)
C15 C 0.8272(3) 0.45128(13) 0.60243(16)
H25 H 0.8087 0.5038 0.6200
H26 H 0.9185 0.4523 0.5639
C16 C 0.8867(4) 0.40592(14) 0.67159(18)
H27 H 0.9933 0.4278 0.6945
H28 H 0.8001 0.4073 0.7124
O7 O 0.9930(2) 0.26086(9) 0.19317(9)
H29 H 0.940(3) 0.2604(16) 0.1481(13)
H30 H 1.090(3) 0.2827(16) 0.1953(16)
loop_
_geom_bond_atom_site_label_1
_geom_bond_atom_site_label_2
_geom_bond_site_symmetry_1
_geom_bond_site_symmetry_2
S1 C1 1_555 1_555
S2 C2 1_555 1_555
N1 H1 1_555 1_555
N2 H2 1_555 1_555
C1 N1 1_555 1_555
C2 N1 1_555 1_555
C3 C2 1_555 1_555
H3 C3 1_555 1_555
C4 N2 1_555 1_555
H4 C4 1_555 1_555
O1 C5 1_555 1_555
C5 H5 1_555 1_555
H6 C5 1_555 1_555
C6 C5 1_555 1_555
H7 C6 1_555 1_555
H8 C6 1_555 1_555
O2 C6 1_555 1_555
C7 O2 1_555 1_555
H9 C7 1_555 1_555
H10 C7 1_555 1_555
C8 C7 1_555 1_555
H11 C8 1_555 1_555
H12 C8 1_555 1_555
O3 C8 1_555 1_555
C9 O3 1_555 1_555
H13 C9 1_555 1_555
H14 C9 1_555 1_555
C10 C9 1_555 1_555
H15 C10 1_555 1_555
H16 C10 1_555 1_555
O4 C10 1_555 1_555
C11 O4 1_555 1_555
H17 C11 1_555 1_555
H18 C11 1_555 1_555
C12 C11 1_555 1_555
H19 C12 1_555 1_555
H20 C12 1_555 1_555
O5 C12 1_555 1_555
C13 O5 1_555 1_555
H21 C13 1_555 1_555
H22 C13 1_555 1_555
C14 C13 1_555 1_555
H23 C14 1_555 1_555
H24 C14 1_555 1_555
O6 C14 1_555 1_555
C15 O6 1_555 1_555
H25 C15 1_555 1_555
H26 C15 1_555 1_555
C16 O1 1_555 1_555
H27 C16 1_555 1_555
H28 C16 1_555 1_555
O7 H29 1_555 1_555
H30 O7 1_555 1_555
N2 C1 1_555 1_555
C3 C4 1_555 1_555
C15 C16 1_555 1_555

#END
