
#######################################################################
#
#                 Cambridge Crystallographic Data Centre
#                                CCDC 
#
#######################################################################
#
# If this CIF has been generated from an entry in the Cambridge 
# Structural Database, then it will include bibliographic, chemical, 
# crystal, experimental, refinement or atomic coordinate data resulting 
# from the CCDC's data processing and validation procedures.
#
#######################################################################

data_CATCOQ
_chemical_name_common            
'cis,syn,cis-Dicyclohexano-18-crown-6 2,4-dithiouracil monohydrate'
_chemical_formula_moiety         'C20 H36 O6,C4 H4 N2 S2,H2 O1'
_chemical_name_systematic        
'cis,syn,cis-(2,3:11,12-Dicyclohexano-1,4,7,10,13,16-hexaoxacyclo-octadecane) pyrimidine-2,4(1H,3H)-dithione monohydrate'
_symmetry_cell_setting           monoclinic
_symmetry_space_group_name_H-M   'P 21/n'
_symmetry_Int_Tables_number      14
_space_group_name_Hall           '-P 2yn'
loop_
_symmetry_equiv_pos_site_id
_symmetry_equiv_pos_as_xyz
1 x,y,z
2 1/2-x,1/2+y,1/2-z
3 -x,-y,-z
4 1/2+x,1/2-y,1/2+z
_cell_length_a                   7.9880(16)
_cell_length_b                   21.627(4)
_cell_length_c                   16.439(3)
_cell_angle_alpha                90
_cell_angle_beta                 93.17(3)
_cell_angle_gamma                90
_cell_volume                     2835.6
_exptl_crystal_colour            'pale yellow'
_exptl_crystal_description       prism
_chemical_melting_point          'above 260deg.C.(dec.)'
_cell_formula_units_Z            4
loop_
_atom_site_label
_atom_site_type_symbol
_atom_site_fract_x
_atom_site_fract_y
_atom_site_fract_z
S1 S 1.20392(15) 0.86034(5) 0.37252(7)
S2 S 1.27116(16) 0.61986(5) 0.32588(7)
N1 N 1.2214(3) 0.73770(15) 0.36092(17)
H1 H 1.2615 0.7443 0.3142
N2 N 1.1080(4) 0.77532(16) 0.4750(2)
H2 H 1.0708 0.8052 0.5034
C1 C 1.1773(5) 0.78905(19) 0.4037(3)
C2 C 1.2088(5) 0.67663(18) 0.3840(2)
C3 C 1.1426(5) 0.66778(19) 0.4612(2)
H3 H 1.1325 0.6281 0.4822
C4 C 1.0942(5) 0.7170(2) 0.5039(2)
H4 H 1.0503 0.7109 0.5545
O1 O 0.7365(3) 0.77925(12) 0.52398(16)
C5 C 0.5984(5) 0.74244(19) 0.4939(3)
H5 H 0.5527 0.7592 0.4427
H6 H 0.5108 0.7430 0.5325
C6 C 0.6556(5) 0.6785(2) 0.4819(3)
H7 H 0.5626 0.6534 0.4605
H8 H 0.7420 0.6780 0.4427
O2 O 0.7198(3) 0.65351(13) 0.55645(17)
C7 C 0.7568(5) 0.58988(19) 0.5493(3)
H9 H 0.8323 0.5836 0.5058
H10 H 0.6546 0.5669 0.5361
C8 C 0.8360(5) 0.56736(18) 0.6274(3)
H11 H 0.7714 0.5809 0.6723
H12 H 0.8392 0.5225 0.6276
O3 O 1.0016(3) 0.59138(11) 0.63646(16)
C9 C 1.0809(5) 0.57852(18) 0.7143(2)
H13 H 1.0094 0.5933 0.7568
C10 C 1.2434(5) 0.6138(2) 0.7195(2)
H14 H 1.2960 0.6079 0.7742
O4 O 1.2067(3) 0.67844(13) 0.70911(15)
C11 C 1.3416(6) 0.7176(2) 0.7382(3)
H15 H 1.4392 0.7101 0.7071
H16 H 1.3713 0.7082 0.7949
C12 C 1.2912(6) 0.7833(2) 0.7304(3)
H17 H 1.1851 0.7894 0.7552
H18 H 1.3747 0.8091 0.7588
O5 O 1.2753(3) 0.80052(13) 0.64780(17)
C13 C 1.2542(5) 0.86536(19) 0.6348(3)
H19 H 1.2861 0.8751 0.5802
H20 H 1.3306 0.8872 0.6727
C14 C 1.0846(5) 0.88860(18) 0.6443(3)
H21 H 1.0467 0.8760 0.6969
H22 H 1.0849 0.9334 0.6424
O6 O 0.9727(3) 0.86511(11) 0.58110(14)
C15 C 0.7999(5) 0.87117(18) 0.5998(2)
H23 H 0.7802 0.8487 0.6501
C16 C 0.6947(5) 0.84350(18) 0.5302(3)
H24 H 0.5772 0.8461 0.5440
C17 C 0.7113(5) 0.87801(19) 0.4514(2)
H25 H 0.6371 0.8599 0.4092
H26 H 0.8254 0.8745 0.4346
C18 C 0.6674(6) 0.9456(2) 0.4621(3)
H27 H 0.5494 0.9491 0.4725
H28 H 0.6864 0.9678 0.4122
C19 C 0.7716(6) 0.97474(19) 0.5322(3)
H29 H 0.8889 0.9750 0.5197
H30 H 0.7363 1.0172 0.5396
C20 C 0.7503(5) 0.93876(19) 0.6092(3)
H31 H 0.6342 0.9410 0.6234
H32 H 0.8189 0.9572 0.6533
C21 C 1.3645(5) 0.59062(18) 0.6579(2)
H33 H 1.4693 0.6131 0.6646
H34 H 1.3174 0.5980 0.6031
C22 C 1.3974(6) 0.5213(2) 0.6699(3)
H35 H 1.4560 0.5145 0.7224
H36 H 1.4683 0.5065 0.6280
C23 C 1.2320(6) 0.48500(19) 0.6658(3)
H37 H 1.1790 0.4884 0.6114
H38 H 1.2550 0.4416 0.6765
C24 C 1.1149(5) 0.50923(18) 0.7270(2)
H39 H 1.1639 0.5025 0.7816
H40 H 1.0099 0.4867 0.7217
O7 O 1.3612(4) 0.76812(14) 0.20607(17)
H41 H 1.446(3) 0.7892(17) 0.216(2)
H42 H 1.297(4) 0.7730(19) 0.1649(18)
loop_
_geom_bond_atom_site_label_1
_geom_bond_atom_site_label_2
_geom_bond_site_symmetry_1
_geom_bond_site_symmetry_2
S1 C1 1_555 1_555
S2 C2 1_555 1_555
N1 H1 1_555 1_555
N2 H2 1_555 1_555
C1 N1 1_555 1_555
C2 N1 1_555 1_555
C3 C2 1_555 1_555
H3 C3 1_555 1_555
C4 N2 1_555 1_555
H4 C4 1_555 1_555
O1 C5 1_555 1_555
C5 H5 1_555 1_555
H6 C5 1_555 1_555
C6 C5 1_555 1_555
H7 C6 1_555 1_555
H8 C6 1_555 1_555
O2 C6 1_555 1_555
C7 O2 1_555 1_555
H9 C7 1_555 1_555
H10 C7 1_555 1_555
C8 C7 1_555 1_555
H11 C8 1_555 1_555
H12 C8 1_555 1_555
O3 C8 1_555 1_555
C9 O3 1_555 1_555
H13 C9 1_555 1_555
C10 C9 1_555 1_555
H14 C10 1_555 1_555
O4 C10 1_555 1_555
C11 O4 1_555 1_555
H15 C11 1_555 1_555
H16 C11 1_555 1_555
C12 C11 1_555 1_555
H17 C12 1_555 1_555
H18 C12 1_555 1_555
O5 C12 1_555 1_555
C13 O5 1_555 1_555
H19 C13 1_555 1_555
H20 C13 1_555 1_555
C14 C13 1_555 1_555
H21 C14 1_555 1_555
H22 C14 1_555 1_555
O6 C14 1_555 1_555
C15 O6 1_555 1_555
H23 C15 1_555 1_555
C16 O1 1_555 1_555
H24 C16 1_555 1_555
C17 C16 1_555 1_555
H25 C17 1_555 1_555
H26 C17 1_555 1_555
C18 C17 1_555 1_555
H27 C18 1_555 1_555
H28 C18 1_555 1_555
C19 C18 1_555 1_555
H29 C19 1_555 1_555
H30 C19 1_555 1_555
C20 C15 1_555 1_555
H31 C20 1_555 1_555
H32 C20 1_555 1_555
C21 C10 1_555 1_555
H33 C21 1_555 1_555
H34 C21 1_555 1_555
C22 C21 1_555 1_555
H35 C22 1_555 1_555
H36 C22 1_555 1_555
C23 C22 1_555 1_555
H37 C23 1_555 1_555
H38 C23 1_555 1_555
C24 C9 1_555 1_555
H39 C24 1_555 1_555
H40 C24 1_555 1_555
O7 H41 1_555 1_555
H42 O7 1_555 1_555
N2 C1 1_555 1_555
C3 C4 1_555 1_555
C15 C16 1_555 1_555
C19 C20 1_555 1_555
C23 C24 1_555 1_555

#END
