
#######################################################################
#
#                 Cambridge Crystallographic Data Centre
#                                CCDC 
#
#######################################################################
#
# If this CIF has been generated from an entry in the Cambridge 
# Structural Database, then it will include bibliographic, chemical, 
# crystal, experimental, refinement or atomic coordinate data resulting 
# from the CCDC's data processing and validation procedures.
#
#######################################################################

data_CATCUW
_chemical_name_common            'Benzo-18-crown-6 2,4-dithiouracil monohydrate'
_chemical_formula_moiety         'C16 H24 O6,C4 H4 N2 S2,H2 O1'
_chemical_name_systematic        
'2,3-Benzo-1,4,7,10,13,16-hexaoxacyclo-octadeca-2-ene pyrimidine-2,4(1H,3H)-dithione monohydrate'
_symmetry_cell_setting           orthorhombic
_symmetry_space_group_name_H-M   'P 21 21 21'
_symmetry_Int_Tables_number      19
_space_group_name_Hall           'P 2ac 2ab'
loop_
_symmetry_equiv_pos_site_id
_symmetry_equiv_pos_as_xyz
1 x,y,z
2 1/2-x,-y,1/2+z
3 -x,1/2+y,1/2-z
4 1/2+x,1/2-y,-z
_cell_length_a                   7.9730(16)
_cell_length_b                   16.918(3)
_cell_length_c                   17.566(4)
_cell_angle_alpha                90
_cell_angle_beta                 90
_cell_angle_gamma                90
_cell_volume                     2369.43
_exptl_crystal_colour            pale-yellow
_exptl_crystal_description       prism
_chemical_melting_point          'above 250deg.C.(dec.)'
_cell_formula_units_Z            4
loop_
_atom_site_label
_atom_site_type_symbol
_atom_site_fract_x
_atom_site_fract_y
_atom_site_fract_z
S1 S -0.5897(2) -0.35452(6) 0.16174(7)
S2 S -0.61006(19) -0.66532(6) 0.18934(7)
N1 N -0.6005(5) -0.51152(19) 0.16074(17)
H1 H -0.634(5) -0.507(2) 0.2064(13)
N2 N -0.5290(5) -0.4540(2) 0.0475(2)
H2 H -0.522(6) -0.4119(18) 0.020(2)
C1 C -0.5738(6) -0.4435(2) 0.1224(2)
C2 C -0.5787(5) -0.5879(2) 0.1340(2)
C3 C -0.5303(5) -0.5919(3) 0.0568(2)
H3 H -0.5135 -0.6410 0.0343
C4 C -0.5086(5) -0.5270(3) 0.0161(2)
H4 H -0.4788 -0.5313 -0.0349
O1 O -0.8743(3) -0.59234(15) -0.04749(14)
C5 C -0.8676(6) -0.6767(2) -0.0554(2)
H5 H -0.9802 -0.6981 -0.0591
H6 H -0.8133 -0.7000 -0.0113
C6 C -0.7713(6) -0.6957(3) -0.1254(2)
H7 H -0.7800 -0.7518 -0.1365
H8 H -0.8167 -0.6666 -0.1683
O2 O -0.6019(4) -0.67493(16) -0.11417(16)
C7 C -0.5036(6) -0.6868(2) -0.1813(3)
H9 H -0.5590 -0.6630 -0.2247
H10 H -0.4913 -0.7430 -0.1911
C8 C -0.3376(6) -0.6507(3) -0.1703(3)
H11 H -0.2896 -0.6686 -0.1226
H12 H -0.2633 -0.6665 -0.2113
O3 O -0.3541(4) -0.56711(16) -0.16941(15)
C9 C -0.1959(6) -0.5293(3) -0.1606(3)
H13 H -0.1193 -0.5480 -0.1995
H14 H -0.1489 -0.5427 -0.1113
C10 C -0.2151(8) -0.4424(3) -0.1667(2)
H15 H -0.1060 -0.4184 -0.1749
H16 H -0.2853 -0.4299 -0.2102
O4 O -0.2868(4) -0.4111(2) -0.10094(19)
C11 C -0.3191(7) -0.3281(3) -0.1070(4)
H17 H -0.2425 -0.3053 -0.1439
H18 H -0.2976 -0.3033 -0.0582
C12 C -0.4963(7) -0.3108(3) -0.1309(3)
H19 H -0.5100 -0.2546 -0.1401
H20 H -0.5228 -0.3390 -0.1775
O5 O -0.6035(4) -0.33515(16) -0.07223(16)
C13 C -0.7774(6) -0.3226(3) -0.0903(3)
H21 H -0.8045 -0.3481 -0.1382
H22 H -0.7995 -0.2664 -0.0954
C14 C -0.8817(7) -0.3562(2) -0.0284(3)
H23 H -0.8371 -0.3404 0.0207
H24 H -0.9957 -0.3366 -0.0324
O6 O -0.8804(4) -0.44034(15) -0.03475(16)
C15 C -0.9611(5) -0.4820(3) 0.0224(2)
C16 C -0.9566(5) -0.5636(3) 0.0157(2)
C17 C -1.0347(6) -0.6099(3) 0.0696(3)
H25 H -1.0335 -0.6646 0.0646
C18 C -1.1140(7) -0.5761(3) 0.1306(3)
H26 H -1.1657 -0.6078 0.1670
C19 C -1.1168(7) -0.4972(4) 0.1377(3)
H27 H -1.1701 -0.4748 0.1796
C20 C -1.0415(7) -0.4475(3) 0.0836(3)
H28 H -1.0455 -0.3928 0.0888
O7 O -0.7771(4) -0.4995(2) 0.30943(17)
H29 H -0.882(2) -0.489(3) 0.309(2)
H30 H -0.727(5) -0.490(3) 0.3516(18)
loop_
_geom_bond_atom_site_label_1
_geom_bond_atom_site_label_2
_geom_bond_site_symmetry_1
_geom_bond_site_symmetry_2
S1 C1 1_555 1_555
S2 C2 1_555 1_555
N1 H1 1_555 1_555
N2 H2 1_555 1_555
C1 N1 1_555 1_555
C2 N1 1_555 1_555
C3 C2 1_555 1_555
H3 C3 1_555 1_555
C4 N2 1_555 1_555
H4 C4 1_555 1_555
O1 C5 1_555 1_555
C5 H5 1_555 1_555
H6 C5 1_555 1_555
C6 C5 1_555 1_555
H7 C6 1_555 1_555
H8 C6 1_555 1_555
O2 C6 1_555 1_555
C7 O2 1_555 1_555
H9 C7 1_555 1_555
H10 C7 1_555 1_555
C8 C7 1_555 1_555
H11 C8 1_555 1_555
H12 C8 1_555 1_555
O3 C8 1_555 1_555
C9 O3 1_555 1_555
H13 C9 1_555 1_555
H14 C9 1_555 1_555
C10 C9 1_555 1_555
H15 C10 1_555 1_555
H16 C10 1_555 1_555
O4 C10 1_555 1_555
C11 O4 1_555 1_555
H17 C11 1_555 1_555
H18 C11 1_555 1_555
C12 C11 1_555 1_555
H19 C12 1_555 1_555
H20 C12 1_555 1_555
O5 C12 1_555 1_555
C13 O5 1_555 1_555
H21 C13 1_555 1_555
H22 C13 1_555 1_555
C14 C13 1_555 1_555
H23 C14 1_555 1_555
H24 C14 1_555 1_555
O6 C14 1_555 1_555
C15 O6 1_555 1_555
C16 O1 1_555 1_555
C17 C16 1_555 1_555
H25 C17 1_555 1_555
C18 C17 1_555 1_555
H26 C18 1_555 1_555
C19 C18 1_555 1_555
H27 C19 1_555 1_555
C20 C15 1_555 1_555
H28 C20 1_555 1_555
O7 H29 1_555 1_555
H30 O7 1_555 1_555
N2 C1 1_555 1_555
C3 C4 1_555 1_555
C15 C16 1_555 1_555
C19 C20 1_555 1_555

#END
