
#######################################################################
#
#                 Cambridge Crystallographic Data Centre
#                                CCDC 
#
#######################################################################
#
# If this CIF has been generated from an entry in the Cambridge 
# Structural Database, then it will include bibliographic, chemical, 
# crystal, experimental, refinement or atomic coordinate data resulting 
# from the CCDC's data processing and validation procedures.
#
#######################################################################

data_CATDIM01
_chemical_formula_moiety         'C19 H13 N5'
_chemical_name_systematic        2,2'-Pyridine-3,4-diylbis(1H-benzimidazole)
_symmetry_cell_setting           orthorhombic
_symmetry_space_group_name_H-M   'P b c n'
_symmetry_Int_Tables_number      60
_space_group_name_Hall           '-P 2n 2ab'
loop_
_symmetry_equiv_pos_site_id
_symmetry_equiv_pos_as_xyz
1 x,y,z
2 1/2-x,1/2-y,1/2+z
3 1/2+x,1/2-y,-z
4 -x,y,1/2-z
5 -x,-y,-z
6 1/2+x,1/2+y,1/2-z
7 1/2-x,1/2+y,z
8 x,-y,1/2+z
_cell_length_a                   18.197(2)
_cell_length_b                   8.6359(5)
_cell_length_c                   9.7282(6)
_cell_angle_alpha                90
_cell_angle_beta                 90
_cell_angle_gamma                90
_cell_volume                     1528.76
_exptl_crystal_colour            yellow
_exptl_crystal_description       block
_cell_formula_units_Z            4
loop_
_atom_site_label
_atom_site_type_symbol
_atom_site_fract_x
_atom_site_fract_y
_atom_site_fract_z
N1 N 0.41000(6) 0.08435(13) 0.26430(12)
H1 H 0.4207 0.0819 0.3504
N2 N 0.40564(7) 0.01803(16) 0.04293(13)
C1 C 0.36551(7) 0.15326(18) 0.05845(15)
C2 C 0.36792(8) 0.19432(16) 0.19741(15)
C3 C 0.47040(8) -0.16021(17) 0.20391(15)
C4 C 0.33038(9) 0.32312(18) 0.24568(18)
H2 H 0.3324 0.3513 0.3379
C5 C 0.43075(8) -0.01737(17) 0.16818(14)
C6 C 0.32539(9) 0.2408(2) -0.03551(17)
H3 H 0.3242 0.2151 -0.1283
C7 C 0.29012(9) 0.4076(2) 0.15285(18)
H4 H 0.2641 0.4939 0.1829
C8 C 0.28755(9) 0.3666(2) 0.01434(19)
H5 H 0.2595 0.4259 -0.0459
C9 C 0.44502(10) -0.30158(19) 0.1558(2)
H6 H 0.4058 -0.2996 0.0945
C10 C 0.472(2) -0.441(2) 0.190(3)
H8 H 0.4581 -0.5316 0.1450
N1C N 0.59000(6) 0.08435(13) 0.23570(12)
H1C H 0.5793 0.0819 0.1496
N2C N 0.59436(7) 0.01803(16) 0.45707(13)
C1C C 0.63449(7) 0.15326(18) 0.44155(15)
C2C C 0.63208(8) 0.19432(16) 0.30259(15)
C3C C 0.52960(8) -0.16021(17) 0.29609(15)
C4C C 0.66962(9) 0.32312(18) 0.25432(18)
H2C H 0.6676 0.3513 0.1621
C5C C 0.56925(8) -0.01737(17) 0.33182(14)
C6C C 0.67461(9) 0.2408(2) 0.53551(17)
H3C H 0.6758 0.2151 0.6283
C7C C 0.70988(9) 0.4076(2) 0.34715(18)
H4C H 0.7359 0.4939 0.3171
C8C C 0.71245(9) 0.3666(2) 0.48566(19)
H5C H 0.7405 0.4259 0.5459
C9C C 0.55498(10) -0.30158(19) 0.3442(2)
H6C H 0.5942 -0.2996 0.4055
C10C C 0.528(2) -0.441(2) 0.310(3)
H8C H 0.5419 -0.5316 0.3550
H7? H 0.4094 -0.3069 0.0874
N3? N 0.4744(16) -0.4342(18) 0.213(3)
H9? H 0.4114(15) -0.031(3) -0.040(3)
loop_
_geom_bond_atom_site_label_1
_geom_bond_atom_site_label_2
_geom_bond_site_symmetry_1
_geom_bond_site_symmetry_2
N1 H1 1_555 1_555
N2 C1 1_555 1_555
C1 C2 1_555 1_555
C2 N1 1_555 1_555
C3 C5 1_555 1_555
C4 C2 1_555 1_555
H2 C4 1_555 1_555
C5 N1 1_555 1_555
C6 C1 1_555 1_555
H3 C6 1_555 1_555
C7 C4 1_555 1_555
H4 C7 1_555 1_555
C8 C6 1_555 1_555
H5 C8 1_555 1_555
C9 C3 1_555 1_555
H6 C9 1_555 1_555
C10 C9 1_555 1_555
H8 C10 1_555 1_555
N1C H1C 1_555 1_555
N2C C1C 1_555 1_555
C1C C2C 1_555 1_555
C2C N1C 1_555 1_555
C3C C3 1_555 1_555
C4C C2C 1_555 1_555
H2C C4C 1_555 1_555
C5C N1C 1_555 1_555
C6C C1C 1_555 1_555
H3C C6C 1_555 1_555
C7C C4C 1_555 1_555
H4C C7C 1_555 1_555
C8C C6C 1_555 1_555
H5C C8C 1_555 1_555
C9C C3C 1_555 1_555
H6C C9C 1_555 1_555
C10C C10 1_555 1_555
H8C C10C 1_555 1_555
N2 C5 1_555 1_555
C7 C8 1_555 1_555
N2C C5C 1_555 1_555
C3C C5C 1_555 1_555
C7C C8C 1_555 1_555
C9C C10C 1_555 1_555

#END
