
#######################################################################
#
#                 Cambridge Crystallographic Data Centre
#                                CCDC 
#
#######################################################################
#
# If this CIF has been generated from an entry in the Cambridge 
# Structural Database, then it will include bibliographic, chemical, 
# crystal, experimental, refinement or atomic coordinate data resulting 
# from the CCDC's data processing and validation procedures.
#
#######################################################################

data_CATDIM
_chemical_formula_moiety         'C19 H13 N5'
_chemical_name_systematic        2,2'-Pyridine-3,4-diylbis(1H-benzimidazole)
_symmetry_cell_setting           hexagonal
_symmetry_space_group_name_H-M   'P 65 2 2'
_symmetry_Int_Tables_number      179
_space_group_name_Hall           "P 65 2' (0,0,1)"
loop_
_symmetry_equiv_pos_site_id
_symmetry_equiv_pos_as_xyz
1 x,y,z
2 x-y,x,5/6+z
3 -y,x-y,2/3+z
4 -x,-y,1/2+z
5 -x+y,-x,1/3+z
6 y,-x+y,1/6+z
7 -y,-x,1/6-z
8 x-y,-y,-z
9 x,x-y,5/6-z
10 y,x,2/3-z
11 -x+y,y,1/2-z
12 -x,-x+y,1/3-z
_cell_length_a                   10.34580(10)
_cell_length_b                   10.34580(10)
_cell_length_c                   26.0867(5)
_cell_angle_alpha                90
_cell_angle_beta                 90
_cell_angle_gamma                120
_cell_volume                     2418.12
_exptl_crystal_colour            'light green'
_exptl_crystal_description       prism
_cell_formula_units_Z            6
loop_
_atom_site_label
_atom_site_type_symbol
_atom_site_fract_x
_atom_site_fract_y
_atom_site_fract_z
N1 N 0.1639(2) 0.8844(2) 0.18757(6)
N2 N 0.2611(2) 1.0125(2) 0.11567(6)
H2 H 0.263(5) 1.059(5) 0.0881(19)
C1 C 0.1648(2) 0.9826(2) 0.15426(7)
C2 C 0.3276(2) 0.9268(3) 0.12441(7)
C3 C 0.2655(2) 0.8454(3) 0.16938(7)
C4 C 0.3076(3) 0.7462(4) 0.18789(9)
H3 H 0.2654 0.6914 0.2176
C5 C 0.4132(3) 0.7315(4) 0.16108(11)
H4 H 0.4430 0.6653 0.1726
C6 C 0.4766(3) 0.8143(4) 0.11682(11)
H5 H 0.5497 0.8035 0.0998
C7 C 0.4350(3) 0.9115(3) 0.09737(8)
H6 H 0.4769 0.9649 0.0674
C8 C 0.0756(2) 1.0563(3) 0.15973(8)
C9 C 0.1463(3) 1.2105(3) 0.15325(10)
H7 H 0.2463 1.2635 0.1438
C10 C 0.061(3) 1.291(4) 0.1615(6)
H8 H 0.1038 1.3934 0.1574
N1K N -0.1639(2) 0.7205(3) 0.14576(6)
N2K N -0.2611(2) 0.7514(3) 0.21766(6)
H2K H -0.263(5) 0.796(7) 0.2452(19)
C1K C -0.1648(2) 0.8178(3) 0.17907(7)
C2K C -0.3276(2) 0.5992(4) 0.20892(7)
C3K C -0.2655(2) 0.5799(4) 0.16395(7)
C4K C -0.3076(3) 0.4386(5) 0.14544(9)
H3K H -0.2654 0.4260 0.1157
C5K C -0.4132(3) 0.3183(5) 0.17225(11)
H4K H -0.4430 0.2223 0.1607
C6K C -0.4766(3) 0.3377(5) 0.21651(11)
H5K H -0.5497 0.2538 0.2335
C7K C -0.4350(3) 0.4765(4) 0.23596(8)
H6K H -0.4769 0.4880 0.2659
C8K C -0.0756(2) 0.9807(4) 0.17360(8)
C9K C -0.1463(3) 1.0642(4) 0.18008(10)
H7K H -0.2463 1.0172 0.1895
C10K C -0.061(3) 1.230(5) 0.1718(6)
H8K H -0.1038 1.2896 0.1759
H1? H 0.125(6) 0.862(6) 0.214(2)
N3? N -0.080(2) 1.2024(12) 0.1752(5)
loop_
_geom_bond_atom_site_label_1
_geom_bond_atom_site_label_2
_geom_bond_site_symmetry_1
_geom_bond_site_symmetry_2
N1 C1 1_555 1_555
N2 H2 1_555 1_555
C1 N2 1_555 1_555
C2 N2 1_555 1_555
C3 N1 1_555 1_555
C4 C3 1_555 1_555
H3 C4 1_555 1_555
C5 C4 1_555 1_555
H4 C5 1_555 1_555
C6 C5 1_555 1_555
H5 C6 1_555 1_555
C7 C2 1_555 1_555
H6 C7 1_555 1_555
C8 C1 1_555 1_555
C9 C8 1_555 1_555
H7 C9 1_555 1_555
C10 C9 1_555 1_555
H8 C10 1_555 1_555
N1K C1K 1_555 1_555
N2K H2K 1_555 1_555
C1K N2K 1_555 1_555
C2K N2K 1_555 1_555
C3K N1K 1_555 1_555
C4K C3K 1_555 1_555
H3K C4K 1_555 1_555
C5K C4K 1_555 1_555
H4K C5K 1_555 1_555
C6K C5K 1_555 1_555
H5K C6K 1_555 1_555
C7K C2K 1_555 1_555
H6K C7K 1_555 1_555
C8K C8 1_555 1_555
C9K C8K 1_555 1_555
H7K C9K 1_555 1_555
C10K C10 1_555 1_555
H8K C10K 1_555 1_555
C2 C3 1_555 1_555
C6 C7 1_555 1_555
C1K C8K 1_555 1_555
C2K C3K 1_555 1_555
C6K C7K 1_555 1_555
C9K C10K 1_555 1_555

#END
