
#######################################################################
#
#                 Cambridge Crystallographic Data Centre
#                                CCDC 
#
#######################################################################
#
# If this CIF has been generated from an entry in the Cambridge 
# Structural Database, then it will include bibliographic, chemical, 
# crystal, experimental, refinement or atomic coordinate data resulting 
# from the CCDC's data processing and validation procedures.
#
#######################################################################

data_CATGEK
_chemical_name_common            
p-t-butyl-3,6-syn-bis(ethoxycarbonylmethoxy)calix[6]-1,4-2,5-biscrown-4
_chemical_formula_moiety         'C86 H116 O14'
_chemical_name_systematic        
5,11,17,23,29,35-hexa-t-butyl-37,40-bis(ethoxycarbonylmethoxy)-38:41,39:42-bis(3,6-dioxaoctane-1,8-dioxy)calix[6]arene
_symmetry_cell_setting           tetragonal
_symmetry_space_group_name_H-M   'P 43 21 2'
_symmetry_Int_Tables_number      96
_space_group_name_Hall           'P 4nw 2abw'
loop_
_symmetry_equiv_pos_site_id
_symmetry_equiv_pos_as_xyz
1 x,y,z
2 -x,-y,1/2+z
3 1/2-y,1/2+x,3/4+z
4 1/2+y,1/2-x,1/4+z
5 1/2-x,1/2+y,3/4-z
6 1/2+x,1/2-y,1/4-z
7 y,x,-z
8 -y,-x,1/2-z
_cell_length_a                   13.1344(6)
_cell_length_b                   13.1344(6)
_cell_length_c                   47.415(3)
_cell_angle_alpha                90
_cell_angle_beta                 90
_cell_angle_gamma                90
_cell_volume                     8179.68
_exptl_crystal_colour            colorless
_chemical_melting_point          'above 270 deg.C'
_cell_formula_units_Z            4
loop_
_atom_site_label
_atom_site_type_symbol
_atom_site_fract_x
_atom_site_fract_y
_atom_site_fract_z
O1 O 0.8194(3) 0.6413(3) 0.01630(6)
O2 O 0.6385(5) 0.4999(6) 0.01576(16)
O3 O 0.8140(2) 0.8512(2) 0.07578(5)
O4 O 0.9431(4) 0.9406(4) 0.03352(9)
O5 O 0.5491(2) 0.7596(2) 0.07106(5)
O6 O 0.3705(5) 0.5816(4) 0.08852(12)
O7 O 0.3465(4) 0.7114(4) 0.05995(9)
C1 C 0.8937(3) 0.5736(4) 0.02401(8)
C2 C 0.9122(4) 0.4917(3) 0.00633(8)
C3 C 0.9831(4) 0.4185(4) 0.01451(9)
H1 H 0.9938 0.3626 0.0029
C4 C 1.0383(4) 0.4259(4) 0.03951(10)
C5 C 1.0209(4) 0.5130(4) 0.05585(9)
H2 H 1.0575 0.5207 0.0725
C6 C 0.9532(3) 0.5873(3) 0.04860(8)
C7 C 0.9445(4) 0.6845(4) 0.06567(8)
H3 H 0.9280 0.7397 0.0529
H4 H 1.0106 0.6993 0.0738
C8 C 0.8665(3) 0.6844(3) 0.08930(8)
C9 C 0.8516(4) 0.5991(3) 0.10585(8)
H5 H 0.8936 0.5429 0.1034
C10 C 0.7746(4) 0.5955(3) 0.12626(8)
C11 C 0.7147(4) 0.6814(4) 0.12933(8)
H6 H 0.6642 0.6804 0.1431
C12 C 0.7249(3) 0.7681(3) 0.11341(7)
C13 C 0.8059(3) 0.7701(3) 0.09352(8)
C14 C 0.6579(4) 0.8588(4) 0.11781(8)
H7 H 0.6962 0.9084 0.1286
H8 H 0.6009 0.8375 0.1294
C15 C 0.6151(3) 0.9128(3) 0.09210(8)
C16 C 0.6277(4) 1.0170(4) 0.08968(9)
H9 H 0.6588 1.0513 0.1045
C17 C 0.5968(5) 1.0731(4) 0.06656(10)
C18 C 0.5569(4) 1.0195(4) 0.04459(10)
H10 H 0.5426 1.0542 0.0280
C19 C 0.5364(4) 0.9159(3) 0.04575(8)
C20 C 0.5657(3) 0.8653(3) 0.07028(8)
C21 C 0.8599(4) 0.4835(4) -0.02176(8)
H11 H 0.8521 0.4121 -0.0265
H12 H 0.7923 0.5127 -0.0202
C22 C 0.7279(4) 0.6418(5) 0.03375(11)
H13 H 0.7442 0.6752 0.0514
H14 H 0.6769 0.6831 0.0243
C23 C 0.6829(5) 0.5447(7) 0.04015(16)
H15 H 0.7348 0.4995 0.0476
H16 H 0.6310 0.5534 0.0545
C24 C 0.5365(7) 0.5039(9) 0.01376(15)
H17 H 0.5103 0.5507 0.0278
H18 H 0.5084 0.4370 0.0177
C25 C 0.8900(5) 0.9212(4) 0.08164(10)
H19 H 0.9536 0.8856 0.0850
H20 H 0.8727 0.9588 0.0986
C26 C 0.9028(6) 0.9934(5) 0.05755(12)
H21 H 0.8375 1.0233 0.0528
H22 H 0.9487 1.0479 0.0629
C27 C 0.8780(12) 0.9294(14) 0.01096(16)
H23 H 0.8556 0.9957 0.0045
H24 H 0.8185 0.8907 0.0167
C28 C 0.4805(4) 0.7241(4) 0.09198(9)
H25 H 0.4521 0.7819 0.1020
H26 H 0.5172 0.6824 0.1055
C29 C 0.3960(5) 0.6632(4) 0.07938(11)
C30 C 0.2587(7) 0.6636(9) 0.0468(2)
H27 H 0.2819 0.6106 0.0341
H28 H 0.2175 0.6318 0.0614
C31 C 0.1975(12) 0.7337(13) 0.0316(2)
H29 H 0.1572 0.7729 0.0445
H30 H 0.1535 0.6971 0.0190
H31 H 0.2406 0.7785 0.0209
C32 C 1.1117(5) 0.3435(5) 0.04906(13)
C33 C 1.2069(9) 0.3487(12) 0.0295(3)
H32 H 1.2431 0.4110 0.0329
H33 H 1.1856 0.3464 0.0101
H34 H 1.2507 0.2919 0.0333
C34 C 1.0589(12) 0.2429(7) 0.0481(4)
H35 H 1.1087 0.1893 0.0478
H36 H 1.0178 0.2391 0.0314
H37 H 1.0164 0.2356 0.0644
C35 C 1.1528(10) 0.3587(8) 0.07782(19)
H38 H 1.1004 0.3858 0.0898
H39 H 1.2089 0.4055 0.0771
H40 H 1.1758 0.2947 0.0852
C36 C 0.7553(4) 0.4986(4) 0.14353(11)
C37 C 0.8278(7) 0.4141(6) 0.1357(2)
H41 H 0.8938 0.4281 0.1435
H42 H 0.8327 0.4096 0.1155
H43 H 0.8030 0.3507 0.1431
C38 C 0.6470(5) 0.4601(5) 0.13637(17)
H44 H 0.6437 0.4424 0.1167
H45 H 0.5984 0.5128 0.1403
H46 H 0.6317 0.4013 0.1476
C39 C 0.7577(11) 0.5274(7) 0.17498(13)
H47 H 0.6894 0.5336 0.1819
H48 H 0.7925 0.5912 0.1772
H49 H 0.7929 0.4755 0.1854
C40 C 0.6157(7) 1.1911(5) 0.06505(12)
C41 C 0.6962(15) 1.2267(8) 0.0877(3)
H50 H 0.6718 1.2869 0.0970
H51 H 0.7597 1.2414 0.0785
H52 H 0.7061 1.1736 0.1013
C42 C 0.5286(14) 1.2351(14) 0.0486(3)
H53 H 0.4656 1.2085 0.0558
H54 H 0.5355 1.2171 0.0291
H55 H 0.5289 1.3079 0.0505
C43 C 0.6725(12) 1.2163(12) 0.0368(2)
H56 H 0.6575 1.1647 0.0231
H57 H 0.7445 1.2183 0.0402
H58 H 0.6501 1.2813 0.0299
O1F O 0.6413(3) 0.8194(3) -0.01630(6)
O2F O 0.4999(6) 0.6385(5) -0.01576(16)
O3F O 0.8512(2) 0.8140(2) -0.07578(5)
O4F O 0.9406(4) 0.9431(4) -0.03352(9)
O5F O 0.7596(2) 0.5491(2) -0.07106(5)
O6F O 0.5816(4) 0.3705(5) -0.08852(12)
O7F O 0.7114(4) 0.3465(4) -0.05995(9)
C1F C 0.5736(4) 0.8937(3) -0.02401(8)
C2F C 0.4917(3) 0.9122(4) -0.00633(8)
C3F C 0.4185(4) 0.9831(4) -0.01451(9)
H1F H 0.3626 0.9938 -0.0029
C4F C 0.4259(4) 1.0383(4) -0.03951(10)
C5F C 0.5130(4) 1.0209(4) -0.05585(9)
H2F H 0.5207 1.0575 -0.0725
C6F C 0.5873(3) 0.9532(3) -0.04860(8)
C7F C 0.6845(4) 0.9445(4) -0.06567(8)
H3F H 0.7397 0.9280 -0.0529
H4F H 0.6993 1.0106 -0.0738
C8F C 0.6844(3) 0.8665(3) -0.08930(8)
C9F C 0.5991(3) 0.8516(4) -0.10585(8)
H5F H 0.5429 0.8936 -0.1034
C10F C 0.5955(3) 0.7746(4) -0.12626(8)
C11F C 0.6814(4) 0.7147(4) -0.12933(8)
H6F H 0.6804 0.6642 -0.1431
C12F C 0.7681(3) 0.7249(3) -0.11341(7)
C13F C 0.7701(3) 0.8059(3) -0.09352(8)
C14F C 0.8588(4) 0.6579(4) -0.11781(8)
H7F H 0.9084 0.6962 -0.1286
H8F H 0.8375 0.6009 -0.1294
C15F C 0.9128(3) 0.6151(3) -0.09210(8)
C16F C 1.0170(4) 0.6277(4) -0.08968(9)
H9F H 1.0513 0.6588 -0.1045
C17F C 1.0731(4) 0.5968(5) -0.06656(10)
C18F C 1.0195(4) 0.5569(4) -0.04459(10)
H10F H 1.0542 0.5426 -0.0280
C19F C 0.9159(3) 0.5364(4) -0.04575(8)
C20F C 0.8653(3) 0.5657(3) -0.07028(8)
C21F C 0.4835(4) 0.8599(4) 0.02176(8)
H11F H 0.4121 0.8521 0.0265
H12F H 0.5127 0.7923 0.0202
C22F C 0.6418(5) 0.7279(4) -0.03375(11)
H13F H 0.6752 0.7442 -0.0514
H14F H 0.6831 0.6769 -0.0243
C23F C 0.5447(7) 0.6829(5) -0.04015(16)
H15F H 0.4995 0.7348 -0.0476
H16F H 0.5534 0.6310 -0.0545
C24F C 0.5039(9) 0.5365(7) -0.01376(15)
H17F H 0.5507 0.5103 -0.0278
H18F H 0.4370 0.5084 -0.0177
C25F C 0.9212(4) 0.8900(5) -0.08164(10)
H19F H 0.8856 0.9536 -0.0850
H20F H 0.9588 0.8727 -0.0986
C26F C 0.9934(5) 0.9028(6) -0.05755(12)
H21F H 1.0233 0.8375 -0.0528
H22F H 1.0479 0.9487 -0.0629
C27F C 0.9294(14) 0.8780(12) -0.01096(16)
H23F H 0.9957 0.8556 -0.0045
H24F H 0.8907 0.8185 -0.0167
C28F C 0.7241(4) 0.4805(4) -0.09198(9)
H25F H 0.7819 0.4521 -0.1020
H26F H 0.6824 0.5172 -0.1055
C29F C 0.6632(4) 0.3960(5) -0.07938(11)
C30F C 0.6636(9) 0.2587(7) -0.0468(2)
H27F H 0.6106 0.2819 -0.0341
H28F H 0.6318 0.2175 -0.0614
C31F C 0.7337(13) 0.1975(12) -0.0316(2)
H29F H 0.7729 0.1572 -0.0445
H30F H 0.6971 0.1535 -0.0190
H31F H 0.7785 0.2406 -0.0209
C32F C 0.3435(5) 1.1117(5) -0.04906(13)
C33F C 0.3487(12) 1.2069(9) -0.0295(3)
H32F H 0.4110 1.2431 -0.0329
H33F H 0.3464 1.1856 -0.0101
H34F H 0.2919 1.2507 -0.0333
C34F C 0.2429(7) 1.0589(12) -0.0481(4)
H35F H 0.1893 1.1087 -0.0478
H36F H 0.2391 1.0178 -0.0314
H37F H 0.2356 1.0164 -0.0644
C35F C 0.3587(8) 1.1528(10) -0.07782(19)
H38F H 0.3858 1.1004 -0.0898
H39F H 0.4055 1.2089 -0.0771
H40F H 0.2947 1.1758 -0.0852
C36F C 0.4986(4) 0.7553(4) -0.14353(11)
C37F C 0.4141(6) 0.8278(7) -0.1357(2)
H41F H 0.4281 0.8938 -0.1435
H42F H 0.4096 0.8327 -0.1155
H43F H 0.3507 0.8030 -0.1431
C38F C 0.4601(5) 0.6470(5) -0.13637(17)
H44F H 0.4424 0.6437 -0.1167
H45F H 0.5128 0.5984 -0.1403
H46F H 0.4013 0.6317 -0.1476
C39F C 0.5274(7) 0.7577(11) -0.17498(13)
H47F H 0.5336 0.6894 -0.1819
H48F H 0.5912 0.7925 -0.1772
H49F H 0.4755 0.7929 -0.1854
C40F C 1.1911(5) 0.6157(7) -0.06505(12)
C41F C 1.2267(8) 0.6962(15) -0.0877(3)
H50F H 1.2869 0.6718 -0.0970
H51F H 1.2414 0.7597 -0.0785
H52F H 1.1736 0.7061 -0.1013
C42F C 1.2351(14) 0.5286(14) -0.0486(3)
H53F H 1.2085 0.4656 -0.0558
H54F H 1.2171 0.5355 -0.0291
H55F H 1.3079 0.5289 -0.0505
C43F C 1.2163(12) 0.6725(12) -0.0368(2)
H56F H 1.1647 0.6575 -0.0231
H57F H 1.2183 0.7445 -0.0402
H58F H 1.2813 0.6501 -0.0299
loop_
_geom_bond_atom_site_label_1
_geom_bond_atom_site_label_2
_geom_bond_site_symmetry_1
_geom_bond_site_symmetry_2
O1 C1 1_555 1_555
O2 C23 1_555 1_555
O3 C13 1_555 1_555
O4 C26 1_555 1_555
O5 C20 1_555 1_555
O6 C29 1_555 1_555
O7 C29 1_555 1_555
C1 C2 1_555 1_555
C2 C3 1_555 1_555
C3 H1 1_555 1_555
C4 C3 1_555 1_555
C5 C4 1_555 1_555
H2 C5 1_555 1_555
C6 C1 1_555 1_555
C7 C6 1_555 1_555
H3 C7 1_555 1_555
H4 C7 1_555 1_555
C8 C7 1_555 1_555
C9 C8 1_555 1_555
H5 C9 1_555 1_555
C10 C9 1_555 1_555
C11 C10 1_555 1_555
H6 C11 1_555 1_555
C12 C11 1_555 1_555
C13 C8 1_555 1_555
C14 C12 1_555 1_555
H7 C14 1_555 1_555
H8 C14 1_555 1_555
C15 C14 1_555 1_555
C16 C15 1_555 1_555
H9 C16 1_555 1_555
C17 C16 1_555 1_555
C18 C17 1_555 1_555
H10 C18 1_555 1_555
C19 C18 1_555 1_555
C20 C15 1_555 1_555
C21 C2 1_555 1_555
H11 C21 1_555 1_555
H12 C21 1_555 1_555
C22 O1 1_555 1_555
H13 C22 1_555 1_555
H14 C22 1_555 1_555
C23 C22 1_555 1_555
H15 C23 1_555 1_555
H16 C23 1_555 1_555
C24 O2 1_555 1_555
H17 C24 1_555 1_555
H18 C24 1_555 1_555
C25 O3 1_555 1_555
H19 C25 1_555 1_555
H20 C25 1_555 1_555
C26 C25 1_555 1_555
H21 C26 1_555 1_555
H22 C26 1_555 1_555
C27 O4 1_555 1_555
H23 C27 1_555 1_555
H24 C27 1_555 1_555
C28 O5 1_555 1_555
H25 C28 1_555 1_555
H26 C28 1_555 1_555
C29 C28 1_555 1_555
C30 O7 1_555 1_555
H27 C30 1_555 1_555
H28 C30 1_555 1_555
C31 C30 1_555 1_555
H29 C31 1_555 1_555
H30 C31 1_555 1_555
H31 C31 1_555 1_555
C32 C4 1_555 1_555
C33 C32 1_555 1_555
H32 C33 1_555 1_555
H33 C33 1_555 1_555
H34 C33 1_555 1_555
C34 C32 1_555 1_555
H35 C34 1_555 1_555
H36 C34 1_555 1_555
H37 C34 1_555 1_555
C35 C32 1_555 1_555
H38 C35 1_555 1_555
H39 C35 1_555 1_555
H40 C35 1_555 1_555
C36 C10 1_555 1_555
C37 C36 1_555 1_555
H41 C37 1_555 1_555
H42 C37 1_555 1_555
H43 C37 1_555 1_555
C38 C36 1_555 1_555
H44 C38 1_555 1_555
H45 C38 1_555 1_555
H46 C38 1_555 1_555
C39 C36 1_555 1_555
H47 C39 1_555 1_555
H48 C39 1_555 1_555
H49 C39 1_555 1_555
C40 C17 1_555 1_555
C41 C40 1_555 1_555
H50 C41 1_555 1_555
H51 C41 1_555 1_555
H52 C41 1_555 1_555
C42 C40 1_555 1_555
H53 C42 1_555 1_555
H54 C42 1_555 1_555
H55 C42 1_555 1_555
C43 C40 1_555 1_555
H56 C43 1_555 1_555
H57 C43 1_555 1_555
H58 C43 1_555 1_555
O1F C1F 1_555 1_555
O2F C23F 1_555 1_555
O3F C13F 1_555 1_555
O4F C26F 1_555 1_555
O5F C20F 1_555 1_555
O6F C29F 1_555 1_555
O7F C29F 1_555 1_555
C1F C2F 1_555 1_555
C2F C3F 1_555 1_555
C3F H1F 1_555 1_555
C4F C3F 1_555 1_555
C5F C4F 1_555 1_555
H2F C5F 1_555 1_555
C6F C1F 1_555 1_555
C7F C6F 1_555 1_555
H3F C7F 1_555 1_555
H4F C7F 1_555 1_555
C8F C7F 1_555 1_555
C9F C8F 1_555 1_555
H5F C9F 1_555 1_555
C10F C9F 1_555 1_555
C11F C10F 1_555 1_555
H6F C11F 1_555 1_555
C12F C11F 1_555 1_555
C13F C8F 1_555 1_555
C14F C12F 1_555 1_555
H7F C14F 1_555 1_555
H8F C14F 1_555 1_555
C15F C14F 1_555 1_555
C16F C15F 1_555 1_555
H9F C16F 1_555 1_555
C17F C16F 1_555 1_555
C18F C17F 1_555 1_555
H10F C18F 1_555 1_555
C19F C21 1_555 1_555
C20F C15F 1_555 1_555
C21F C19 1_555 1_555
H11F C21F 1_555 1_555
H12F C21F 1_555 1_555
C22F O1F 1_555 1_555
H13F C22F 1_555 1_555
H14F C22F 1_555 1_555
C23F C22F 1_555 1_555
H15F C23F 1_555 1_555
H16F C23F 1_555 1_555
C24F C24 1_555 1_555
H17F C24F 1_555 1_555
H18F C24F 1_555 1_555
C25F O3F 1_555 1_555
H19F C25F 1_555 1_555
H20F C25F 1_555 1_555
C26F C25F 1_555 1_555
H21F C26F 1_555 1_555
H22F C26F 1_555 1_555
C27F C27 1_555 1_555
H23F C27F 1_555 1_555
H24F C27F 1_555 1_555
C28F O5F 1_555 1_555
H25F C28F 1_555 1_555
H26F C28F 1_555 1_555
C29F C28F 1_555 1_555
C30F O7F 1_555 1_555
H27F C30F 1_555 1_555
H28F C30F 1_555 1_555
C31F C30F 1_555 1_555
H29F C31F 1_555 1_555
H30F C31F 1_555 1_555
H31F C31F 1_555 1_555
C32F C4F 1_555 1_555
C33F C32F 1_555 1_555
H32F C33F 1_555 1_555
H33F C33F 1_555 1_555
H34F C33F 1_555 1_555
C34F C32F 1_555 1_555
H35F C34F 1_555 1_555
H36F C34F 1_555 1_555
H37F C34F 1_555 1_555
C35F C32F 1_555 1_555
H38F C35F 1_555 1_555
H39F C35F 1_555 1_555
H40F C35F 1_555 1_555
C36F C10F 1_555 1_555
C37F C36F 1_555 1_555
H41F C37F 1_555 1_555
H42F C37F 1_555 1_555
H43F C37F 1_555 1_555
C38F C36F 1_555 1_555
H44F C38F 1_555 1_555
H45F C38F 1_555 1_555
H46F C38F 1_555 1_555
C39F C36F 1_555 1_555
H47F C39F 1_555 1_555
H48F C39F 1_555 1_555
H49F C39F 1_555 1_555
C40F C17F 1_555 1_555
C41F C40F 1_555 1_555
H50F C41F 1_555 1_555
H51F C41F 1_555 1_555
H52F C41F 1_555 1_555
C42F C40F 1_555 1_555
H53F C42F 1_555 1_555
H54F C42F 1_555 1_555
H55F C42F 1_555 1_555
C43F C40F 1_555 1_555
H56F C43F 1_555 1_555
H57F C43F 1_555 1_555
H58F C43F 1_555 1_555
C5 C6 1_555 1_555
C12 C13 1_555 1_555
C19 C20 1_555 1_555
O2F C24F 1_555 1_555
O4F C27F 1_555 1_555
C2F C21F 1_555 1_555
C5F C6F 1_555 1_555
C12F C13F 1_555 1_555
C18F C19F 1_555 1_555
C19F C20F 1_555 1_555

#END
