
#######################################################################
#
#                 Cambridge Crystallographic Data Centre
#                                CCDC 
#
#######################################################################
#
# If this CIF has been generated from an entry in the Cambridge 
# Structural Database, then it will include bibliographic, chemical, 
# crystal, experimental, refinement or atomic coordinate data resulting 
# from the CCDC's data processing and validation procedures.
#
#######################################################################

data_CATJUE
_chemical_formula_moiety         'C20 H14 O2,C9 H8 N2 S1'
_chemical_name_systematic        
"1,1'-Binaphthalene-2,2'-diol 4-phenyl-1,3-thiazol-2-amine"
_symmetry_cell_setting           triclinic
_symmetry_space_group_name_H-M   'P -1'
_symmetry_Int_Tables_number      2
_space_group_name_Hall           '-P 1'
loop_
_symmetry_equiv_pos_site_id
_symmetry_equiv_pos_as_xyz
1 x,y,z
2 -x,-y,-z
_cell_length_a                   9.4798(8)
_cell_length_b                   11.0126(11)
_cell_length_c                   13.0166(16)
_cell_angle_alpha                68.2120(10)
_cell_angle_beta                 87.980(2)
_cell_angle_gamma                64.8140(10)
_cell_volume                     1129.62
_exptl_crystal_colour            colorless
_exptl_crystal_description       block
_cell_formula_units_Z            2
loop_
_atom_site_label
_atom_site_type_symbol
_atom_site_fract_x
_atom_site_fract_y
_atom_site_fract_z
N1 N 0.0907(3) 0.3086(2) 0.3916(2)
N2 N 0.0306(3) 0.3259(3) 0.5645(2)
H1 H -0.0692 0.3611 0.5454
H2 H 0.0666 0.3119 0.6297
S1 S 0.33383(10) 0.21280(10) 0.53394(7)
C1 C 0.13113(19) 0.2923(3) 0.49184(15)
C2 C 0.2240(3) 0.2554(2) 0.34231(18)
C3 C 0.36233(18) 0.2004(2) 0.40682(14)
H5 H 0.4606 0.1608 0.3851
C4 C 0.2061(3) 0.2678(3) 0.2269(2)
C5 C 0.3306(4) 0.2558(3) 0.1644(3)
H6 H 0.4269 0.2376 0.1972
C6 C 0.3141(4) 0.2699(3) 0.0570(3)
H7 H 0.3987 0.2621 0.0172
C7 C 0.1740(4) 0.2957(4) 0.0064(3)
H8 H 0.1628 0.3061 -0.0675
C8 C 0.0515(4) 0.3057(4) 0.0663(3)
H9 H -0.0439 0.3226 0.0328
C9 C 0.0669(4) 0.2910(4) 0.1754(3)
H10 H -0.0176 0.2969 0.2151
O1 O 0.1787(2) 0.4147(2) 0.71074(17)
H3 H 0.1426 0.5039 0.6816
O2 O 0.3251(3) 0.5861(2) 0.49512(17)
H4 H 0.3781 0.4990 0.5333
C10 C 0.4198(3) 0.4349(3) 0.7312(2)
C11 C 0.3373(3) 0.3552(3) 0.7446(2)
C12 C 0.4141(4) 0.2019(3) 0.7947(3)
H11 H 0.3562 0.1494 0.8037
C13 C 0.5712(4) 0.1299(3) 0.8301(3)
H12 H 0.6200 0.0284 0.8621
C14 C 0.6619(3) 0.2055(3) 0.8194(2)
C15 C 0.5857(3) 0.3602(3) 0.7692(2)
C16 C 0.6781(3) 0.4350(3) 0.7588(2)
H13 H 0.6303 0.5365 0.7258
C17 C 0.8356(3) 0.3622(3) 0.7961(3)
H14 H 0.8934 0.4144 0.7892
C18 C 0.9109(4) 0.2111(4) 0.8442(3)
H15 H 1.0187 0.1622 0.8690
C19 C 0.8267(4) 0.1342(3) 0.8550(3)
H16 H 0.8785 0.0328 0.8864
C20 C 0.3397(3) 0.5984(3) 0.6745(2)
C21 C 0.3010(3) 0.6644(3) 0.5603(2)
C22 C 0.2302(4) 0.8177(3) 0.5029(3)
H17 H 0.2043 0.8601 0.4255
C23 C 0.2005(4) 0.9022(3) 0.5622(3)
H18 H 0.1549 1.0031 0.5241
C24 C 0.2363(3) 0.8426(3) 0.6788(3)
C25 C 0.3091(3) 0.6866(3) 0.7366(2)
C26 C 0.3437(3) 0.6276(3) 0.8536(2)
H19 H 0.3886 0.5268 0.8923
C27 C 0.3135(3) 0.7140(3) 0.9121(3)
H20 H 0.3392 0.6722 0.9895
C28 C 0.2432(4) 0.8665(4) 0.8549(3)
H21 H 0.2226 0.9256 0.8947
C29 C 0.2053(4) 0.9279(3) 0.7420(3)
H22 H 0.1575 1.0290 0.7056
loop_
_geom_bond_atom_site_label_1
_geom_bond_atom_site_label_2
_geom_bond_site_symmetry_1
_geom_bond_site_symmetry_2
N1 C1 1_555 1_555
N2 H1 1_555 1_555
H2 N2 1_555 1_555
O1 H3 1_555 1_555
O2 H4 1_555 1_555
S1 C1 1_555 1_555
C1 N2 1_555 1_555
C2 N1 1_555 1_555
C3 S1 1_555 1_555
H5 C3 1_555 1_555
C4 C2 1_555 1_555
C5 C4 1_555 1_555
H6 C5 1_555 1_555
C6 C5 1_555 1_555
H7 C6 1_555 1_555
C7 C6 1_555 1_555
H8 C7 1_555 1_555
C8 C7 1_555 1_555
H9 C8 1_555 1_555
C9 C4 1_555 1_555
H10 C9 1_555 1_555
C10 C11 1_555 1_555
C11 O1 1_555 1_555
C12 C11 1_555 1_555
H11 C12 1_555 1_555
C13 C12 1_555 1_555
H12 C13 1_555 1_555
C14 C13 1_555 1_555
C15 C10 1_555 1_555
C16 C15 1_555 1_555
H13 C16 1_555 1_555
C17 C16 1_555 1_555
H14 C17 1_555 1_555
C18 C17 1_555 1_555
H15 C18 1_555 1_555
C19 C14 1_555 1_555
H16 C19 1_555 1_555
C20 C10 1_555 1_555
C21 O2 1_555 1_555
C22 C21 1_555 1_555
H17 C22 1_555 1_555
C23 C22 1_555 1_555
H18 C23 1_555 1_555
C24 C23 1_555 1_555
C25 C20 1_555 1_555
C26 C25 1_555 1_555
H19 C26 1_555 1_555
C27 C26 1_555 1_555
H20 C27 1_555 1_555
C28 C27 1_555 1_555
H21 C28 1_555 1_555
C29 C24 1_555 1_555
H22 C29 1_555 1_555
C2 C3 1_555 1_555
C8 C9 1_555 1_555
C14 C15 1_555 1_555
C18 C19 1_555 1_555
C20 C21 1_555 1_555
C24 C25 1_555 1_555
C28 C29 1_555 1_555

#END
