
#######################################################################
#
#                 Cambridge Crystallographic Data Centre
#                                CCDC 
#
#######################################################################
#
# If this CIF has been generated from an entry in the Cambridge 
# Structural Database, then it will include bibliographic, chemical, 
# crystal, experimental, refinement or atomic coordinate data resulting 
# from the CCDC's data processing and validation procedures.
#
#######################################################################

data_CATKAL
_chemical_formula_moiety         'C20 H14 O2,C10 H14 N4'
_chemical_name_systematic        
"1,1'-Binaphthalene-2,2'-diol 1,1'-butane-1,4-diylbis-1H-imidazole"
_symmetry_cell_setting           monoclinic
_symmetry_space_group_name_H-M   'C 2/c'
_symmetry_Int_Tables_number      15
_space_group_name_Hall           '-C 2yn'
loop_
_symmetry_equiv_pos_site_id
_symmetry_equiv_pos_as_xyz
1 x,y,z
2 -x,y,1/2-z
3 1/2+x,1/2+y,z
4 1/2-x,1/2+y,1/2-z
5 -x,-y,-z
6 x,-y,1/2+z
7 1/2-x,1/2-y,-z
8 1/2+x,1/2-y,1/2+z
_cell_length_a                   14.9212(13)
_cell_length_b                   9.8700(8)
_cell_length_c                   17.9897(15)
_cell_angle_alpha                90
_cell_angle_beta                 109.2730(10)
_cell_angle_gamma                90
_cell_volume                     2500.9
_exptl_crystal_colour            colorless
_exptl_crystal_description       block
_cell_formula_units_Z            4
loop_
_atom_site_label
_atom_site_type_symbol
_atom_site_fract_x
_atom_site_fract_y
_atom_site_fract_z
N1 N 0.10451(12) 0.71171(16) 0.48435(9)
N2 N 0.06042(13) 0.90192(18) 0.41870(11)
C11 C 0.06113(16) 0.8306(2) 0.48059(13)
H8 H 0.0343 0.8600 0.5176
C12 C 0.10623(18) 0.8220(2) 0.38123(14)
H9 H 0.1172 0.8452 0.3349
C13 C 0.13330(17) 0.7058(2) 0.42018(14)
H10 H 0.1655 0.6348 0.4062
C14 C 0.11532(16) 0.6063(2) 0.54387(13)
H11 H 0.0997 0.6437 0.5879
H12 H 0.1810 0.5770 0.5632
C15 C 0.05232(14) 0.4849(2) 0.51167(12)
H13 H 0.0660 0.4506 0.4661
H14 H 0.0678 0.4140 0.5513
N1D N -0.10451(12) 0.28829(16) 0.51565(9)
N2D N -0.06042(13) 0.09808(18) 0.58130(11)
C11D C -0.06113(16) 0.1694(2) 0.51941(13)
H8D H -0.0343 0.1400 0.4824
C12D C -0.10623(18) 0.1780(2) 0.61877(14)
H9D H -0.1172 0.1548 0.6651
C13D C -0.13330(17) 0.2942(2) 0.57982(14)
H10D H -0.1655 0.3652 0.5938
C14D C -0.11532(16) 0.3937(2) 0.45613(13)
H11D H -0.0997 0.3563 0.4121
H12D H -0.1810 0.4230 0.4368
C15D C -0.05232(14) 0.5151(2) 0.48833(12)
H13D H -0.0660 0.5494 0.5339
H14D H -0.0678 0.5860 0.4487
O1 O -0.00107(9) 0.13585(14) 0.34023(8)
H1 H 0.0201 0.0815 0.3763
C1 C 0.04803(11) 0.32080(17) 0.28107(9)
C2 C 0.06895(12) 0.22177(18) 0.33790(10)
C3 C 0.16117(13) 0.2105(2) 0.39344(11)
H2 H 0.1744 0.1427 0.4314
C4 C 0.23049(13) 0.2981(2) 0.39154(11)
H3 H 0.2911 0.2885 0.4279
C5 C 0.21263(12) 0.40313(19) 0.33580(10)
C6 C 0.11931(11) 0.41570(18) 0.28037(10)
C7 C 0.10124(13) 0.52523(19) 0.22661(10)
H4 H 0.0408 0.5361 0.1902
C8 C 0.17089(15) 0.6151(2) 0.22729(12)
H5 H 0.1568 0.6878 0.1925
C9 C 0.26314(15) 0.5993(2) 0.27950(13)
H6 H 0.3107 0.6593 0.2782
C10 C 0.28317(13) 0.4959(2) 0.33218(12)
H7 H 0.3448 0.4859 0.3667
O1A O 0.00107(9) 0.13585(14) 0.15977(8)
H1A H -0.0201 0.0815 0.1237
C1A C -0.04803(11) 0.32080(17) 0.21893(9)
C2A C -0.06895(12) 0.22177(18) 0.16210(10)
C3A C -0.16117(13) 0.2105(2) 0.10656(11)
H2A H -0.1744 0.1427 0.0686
C4A C -0.23049(13) 0.2981(2) 0.10846(11)
H3A H -0.2911 0.2885 0.0721
C5A C -0.21263(12) 0.40313(19) 0.16420(10)
C6A C -0.11931(11) 0.41570(18) 0.21963(10)
C7A C -0.10124(13) 0.52523(19) 0.27339(10)
H4A H -0.0408 0.5361 0.3098
C8A C -0.17089(15) 0.6151(2) 0.27271(12)
H5A H -0.1568 0.6878 0.3075
C9A C -0.26314(15) 0.5993(2) 0.22050(13)
H6A H -0.3107 0.6593 0.2218
C10A C -0.28317(13) 0.4959(2) 0.16782(12)
H7A H -0.3448 0.4859 0.1333
loop_
_geom_bond_atom_site_label_1
_geom_bond_atom_site_label_2
_geom_bond_site_symmetry_1
_geom_bond_site_symmetry_2
N1 C11 1_555 1_555
N2 C11 1_555 1_555
O1 H1 1_555 1_555
C1 C2 1_555 1_555
C2 O1 1_555 1_555
C3 C2 1_555 1_555
H2 C3 1_555 1_555
C4 C3 1_555 1_555
H3 C4 1_555 1_555
C5 C4 1_555 1_555
C6 C1 1_555 1_555
C7 C6 1_555 1_555
H4 C7 1_555 1_555
C8 C7 1_555 1_555
H5 C8 1_555 1_555
C9 C8 1_555 1_555
H6 C9 1_555 1_555
C10 C5 1_555 1_555
H7 C10 1_555 1_555
C11 H8 1_555 1_555
C12 N2 1_555 1_555
H9 C12 1_555 1_555
C13 N1 1_555 1_555
H10 C13 1_555 1_555
C14 N1 1_555 1_555
H11 C14 1_555 1_555
H12 C14 1_555 1_555
C15 C14 1_555 1_555
H13 C15 1_555 1_555
H14 C15 1_555 1_555
N1D C11D 1_555 1_555
N2D C11D 1_555 1_555
O1A H1A 1_555 1_555
C1A C1 1_555 1_555
C2A O1A 1_555 1_555
C3A C2A 1_555 1_555
H2A C3A 1_555 1_555
C4A C3A 1_555 1_555
H3A C4A 1_555 1_555
C5A C4A 1_555 1_555
C6A C1A 1_555 1_555
C7A C6A 1_555 1_555
H4A C7A 1_555 1_555
C8A C7A 1_555 1_555
H5A C8A 1_555 1_555
C9A C8A 1_555 1_555
H6A C9A 1_555 1_555
C10A C5A 1_555 1_555
H7A C10A 1_555 1_555
C11D H8D 1_555 1_555
C12D N2D 1_555 1_555
H9D C12D 1_555 1_555
C13D N1D 1_555 1_555
H10D C13D 1_555 1_555
C14D N1D 1_555 1_555
H11D C14D 1_555 1_555
H12D C14D 1_555 1_555
C15D C15 1_555 1_555
H13D C15D 1_555 1_555
H14D C15D 1_555 1_555
C5 C6 1_555 1_555
C9 C10 1_555 1_555
C12 C13 1_555 1_555
C1A C2A 1_555 1_555
C5A C6A 1_555 1_555
C9A C10A 1_555 1_555
C12D C13D 1_555 1_555
C14D C15D 1_555 1_555

#END
