
#######################################################################
#
#                 Cambridge Crystallographic Data Centre
#                                CCDC 
#
#######################################################################
#
# If this CIF has been generated from an entry in the Cambridge 
# Structural Database, then it will include bibliographic, chemical, 
# crystal, experimental, refinement or atomic coordinate data resulting 
# from the CCDC's data processing and validation procedures.
#
#######################################################################

data_CATKIT
_chemical_formula_moiety         'C18 H18 N4,2(C20 H14 O2)'
_chemical_name_systematic        
"1,1'-Binaphthalene-2,2'-diol 1,1'-butane-1,4-diylbis-1H-benzimidazole"
_symmetry_cell_setting           triclinic
_symmetry_space_group_name_H-M   'P -1'
_symmetry_Int_Tables_number      2
_space_group_name_Hall           '-P 1'
loop_
_symmetry_equiv_pos_site_id
_symmetry_equiv_pos_as_xyz
1 x,y,z
2 -x,-y,-z
_cell_length_a                   10.7325(9)
_cell_length_b                   10.9564(10)
_cell_length_c                   11.9692(15)
_cell_angle_alpha                115.088(2)
_cell_angle_beta                 99.5660(10)
_cell_angle_gamma                108.6580(10)
_cell_volume                     1130.5
_exptl_crystal_colour            colorless
_exptl_crystal_description       block
_cell_formula_units_Z            1
loop_
_atom_site_label
_atom_site_type_symbol
_atom_site_fract_x
_atom_site_fract_y
_atom_site_fract_z
N1 N 0.2581(2) 0.5368(2) 0.5032(2)
N2 N 0.3298(2) 0.3655(3) 0.5029(2)
C1 C 0.2927(3) 0.4711(3) 0.5681(3)
H3 H 0.2907 0.4981 0.6524
C2 C 0.3192(2) 0.3623(3) 0.3832(2)
C3 C 0.2737(2) 0.4684(3) 0.3827(2)
C4 C 0.2547(3) 0.4925(3) 0.2777(3)
H4 H 0.2263 0.5648 0.2793
C5 C 0.2802(3) 0.4038(4) 0.1718(3)
H5 H 0.2673 0.4154 0.0988
C6 C 0.3243(3) 0.2976(4) 0.1695(3)
H6 H 0.3399 0.2397 0.0949
C7 C 0.3458(3) 0.2748(3) 0.2747(3)
H7 H 0.3767 0.2040 0.2730
C8 C 0.1927(3) 0.6398(3) 0.5437(3)
H8 H 0.2269 0.7136 0.5180
H9 H 0.2198 0.6925 0.6389
C9 C 0.0333(3) 0.5573(3) 0.4816(3)
H10 H -0.0047 0.6302 0.5079
H11 H 0.0072 0.5073 0.3866
N1A N -0.2581(2) 0.4632(2) 0.4968(2)
N2A N -0.3298(2) 0.6345(3) 0.4971(2)
C1A C -0.2927(3) 0.5289(3) 0.4319(3)
H3A H -0.2907 0.5019 0.3476
C2A C -0.3192(2) 0.6377(3) 0.6168(2)
C3A C -0.2737(2) 0.5316(3) 0.6173(2)
C4A C -0.2547(3) 0.5075(3) 0.7223(3)
H4A H -0.2263 0.4352 0.7207
C5A C -0.2802(3) 0.5962(4) 0.8282(3)
H5A H -0.2673 0.5846 0.9012
C6A C -0.3243(3) 0.7024(4) 0.8305(3)
H6A H -0.3399 0.7603 0.9051
C7A C -0.3458(3) 0.7252(3) 0.7253(3)
H7A H -0.3767 0.7960 0.7270
C8A C -0.1927(3) 0.3602(3) 0.4563(3)
H8A H -0.2269 0.2864 0.4820
H9A H -0.2198 0.3075 0.3611
C9A C -0.0333(3) 0.4427(3) 0.5184(3)
H10A H 0.0047 0.3698 0.4921
H11A H -0.0072 0.4927 0.6134
O1 O 0.47675(15) -0.08097(16) 0.57363(14)
H1 H 0.5149 -0.1280 0.5314
O2 O 0.41327(15) 0.22060(17) 0.60603(13)
H2 H 0.3702 0.2429 0.5604
C10 C 0.5311(2) 0.1387(2) 0.77038(19)
C11 C 0.5763(2) 0.0452(2) 0.6867(2)
C12 C 0.7205(2) 0.0784(3) 0.7177(2)
H12 H 0.7499 0.0165 0.6585
C13 C 0.8168(2) 0.2013(3) 0.8346(2)
H13 H 0.9111 0.2210 0.8543
C14 C 0.7761(2) 0.2993(2) 0.9261(2)
C15 C 0.6314(2) 0.2673(2) 0.8926(2)
C16 C 0.5913(2) 0.3668(3) 0.9841(2)
H14 H 0.4974 0.3488 0.9637
C17 C 0.6879(3) 0.4885(3) 1.1016(2)
H15 H 0.6594 0.5530 1.1594
C18 C 0.8299(3) 0.5165(3) 1.1352(2)
H16 H 0.8949 0.5985 1.2158
C19 C 0.8729(2) 0.4244(3) 1.0506(2)
H17 H 0.9671 0.4435 1.0743
C20 C 0.3792(2) 0.1065(2) 0.73447(19)
C21 C 0.3255(2) 0.1524(2) 0.65470(19)
C22 C 0.1852(2) 0.1321(3) 0.6266(2)
H18 H 0.1505 0.1644 0.5735
C23 C 0.0998(2) 0.0652(3) 0.6769(2)
H19 H 0.0079 0.0542 0.6586
C24 C 0.1479(2) 0.0123(3) 0.7562(2)
C25 C 0.2899(2) 0.0336(2) 0.7857(2)
C26 C 0.3379(3) -0.0196(3) 0.8648(2)
H20 H 0.4304 -0.0066 0.8854
C27 C 0.2503(3) -0.0898(3) 0.9114(3)
H21 H 0.2841 -0.1239 0.9632
C28 C 0.1105(3) -0.1114(4) 0.8825(3)
H22 H 0.0518 -0.1595 0.9148
C29 C 0.0610(3) -0.0611(3) 0.8067(3)
H23 H -0.0319 -0.0753 0.7878
loop_
_geom_bond_atom_site_label_1
_geom_bond_atom_site_label_2
_geom_bond_site_symmetry_1
_geom_bond_site_symmetry_2
N1 C1 1_555 1_555
N2 C1 1_555 1_555
O1 H1 1_555 1_555
O2 H2 1_555 1_555
C1 H3 1_555 1_555
C2 N2 1_555 1_555
C3 N1 1_555 1_555
C4 C3 1_555 1_555
H4 C4 1_555 1_555
C5 C4 1_555 1_555
H5 C5 1_555 1_555
C6 C5 1_555 1_555
H6 C6 1_555 1_555
C7 C2 1_555 1_555
H7 C7 1_555 1_555
C8 N1 1_555 1_555
H8 C8 1_555 1_555
H9 C8 1_555 1_555
C9 C8 1_555 1_555
H10 C9 1_555 1_555
H11 C9 1_555 1_555
C10 C11 1_555 1_555
C11 O1 1_555 1_555
C12 C11 1_555 1_555
H12 C12 1_555 1_555
C13 C12 1_555 1_555
H13 C13 1_555 1_555
C14 C13 1_555 1_555
C15 C10 1_555 1_555
C16 C15 1_555 1_555
H14 C16 1_555 1_555
C17 C16 1_555 1_555
H15 C17 1_555 1_555
C18 C17 1_555 1_555
H16 C18 1_555 1_555
C19 C14 1_555 1_555
H17 C19 1_555 1_555
C20 C10 1_555 1_555
C21 O2 1_555 1_555
C22 C21 1_555 1_555
H18 C22 1_555 1_555
C23 C22 1_555 1_555
H19 C23 1_555 1_555
C24 C23 1_555 1_555
C25 C20 1_555 1_555
C26 C25 1_555 1_555
H20 C26 1_555 1_555
C27 C26 1_555 1_555
H21 C27 1_555 1_555
C28 C27 1_555 1_555
H22 C28 1_555 1_555
C29 C24 1_555 1_555
H23 C29 1_555 1_555
N1A C1A 1_555 1_555
N2A C1A 1_555 1_555
C1A H3A 1_555 1_555
C2A N2A 1_555 1_555
C3A N1A 1_555 1_555
C4A C3A 1_555 1_555
H4A C4A 1_555 1_555
C5A C4A 1_555 1_555
H5A C5A 1_555 1_555
C6A C5A 1_555 1_555
H6A C6A 1_555 1_555
C7A C2A 1_555 1_555
H7A C7A 1_555 1_555
C8A N1A 1_555 1_555
H8A C8A 1_555 1_555
H9A C8A 1_555 1_555
C9A C9 1_555 1_555
H10A C9A 1_555 1_555
H11A C9A 1_555 1_555
C2 C3 1_555 1_555
C6 C7 1_555 1_555
C14 C15 1_555 1_555
C18 C19 1_555 1_555
C20 C21 1_555 1_555
C24 C25 1_555 1_555
C28 C29 1_555 1_555
C2A C3A 1_555 1_555
C6A C7A 1_555 1_555
C8A C9A 1_555 1_555

#END
