
#######################################################################
#
#                 Cambridge Crystallographic Data Centre
#                                CCDC 
#
#######################################################################
#
# If this CIF has been generated from an entry in the Cambridge 
# Structural Database, then it will include bibliographic, chemical, 
# crystal, experimental, refinement or atomic coordinate data resulting 
# from the CCDC's data processing and validation procedures.
#
#######################################################################

data_CATKEP
_chemical_formula_moiety         'C17 H16 N4,C20 H14 O2'
_chemical_name_systematic        
"1,1'-Binaphthalene-2,2'-diol 1,1'-propane-1,3-diylbis-1H-benzimidazole"
_symmetry_cell_setting           monoclinic
_symmetry_space_group_name_H-M   'P 21/c'
_symmetry_Int_Tables_number      14
_space_group_name_Hall           '-P 2ybc'
loop_
_symmetry_equiv_pos_site_id
_symmetry_equiv_pos_as_xyz
1 x,y,z
2 -x,1/2+y,1/2-z
3 -x,-y,-z
4 x,1/2-y,1/2+z
_cell_length_a                   12.0744(15)
_cell_length_b                   9.6562(13)
_cell_length_c                   26.593(3)
_cell_angle_alpha                90
_cell_angle_beta                 100.473(2)
_cell_angle_gamma                90
_cell_volume                     3048.9
_exptl_crystal_colour            colorless
_exptl_crystal_description       block
_cell_formula_units_Z            4
loop_
_atom_site_label
_atom_site_type_symbol
_atom_site_fract_x
_atom_site_fract_y
_atom_site_fract_z
N1 N 0.4707(3) 0.7461(4) 0.31656(11)
N2 N 0.5368(3) 0.7599(4) 0.24490(12)
N3 N 0.5529(3) 1.1139(3) 0.40603(10)
N4 N 0.6226(3) 1.2681(3) 0.46594(10)
C21 C 0.4611(4) 0.8023(4) 0.27003(15)
H15 H 0.4052 0.8657 0.2570
C22 C 0.6026(4) 0.6688(4) 0.27763(15)
C23 C 0.5609(4) 0.6581(4) 0.32274(14)
C24 C 0.6069(5) 0.5714(6) 0.36155(17)
H16 H 0.5771 0.5636 0.3913
C25 C 0.6984(6) 0.4972(6) 0.3544(2)
H17 H 0.7311 0.4357 0.3797
C26 C 0.7446(5) 0.5105(6) 0.3103(3)
H18 H 0.8086 0.4600 0.3072
C27 C 0.6973(4) 0.5965(5) 0.27171(18)
H19 H 0.7281 0.6058 0.2423
C28 C 0.5334(3) 1.2081(4) 0.44054(14)
H20 H 0.4612 1.2289 0.4459
C29 C 0.7097(3) 1.2084(4) 0.44594(13)
C30 C 0.6664(3) 1.1127(4) 0.40853(12)
C31 C 0.7341(4) 1.0386(5) 0.38207(15)
H21 H 0.7052 0.9735 0.3574
C32 C 0.8453(4) 1.0664(6) 0.39410(19)
H22 H 0.8939 1.0188 0.3768
C33 C 0.8903(4) 1.1607(6) 0.43032(19)
H23 H 0.9678 1.1744 0.4370
C34 C 0.8235(4) 1.2360(4) 0.45725(16)
H24 H 0.8534 1.3015 0.4816
C35 C 0.4026(4) 0.7820(5) 0.35453(15)
H25 H 0.3849 0.6984 0.3717
H26 H 0.3323 0.8226 0.3375
C36 C 0.4629(4) 0.8844(5) 0.39446(13)
H27 H 0.4223 0.8897 0.4227
H28 H 0.5380 0.8500 0.4078
C37 C 0.4718(3) 1.0274(4) 0.37297(14)
H29 H 0.4939 1.0198 0.3398
H30 H 0.3985 1.0715 0.3681
O1 O 0.6212(2) 0.6445(3) 0.66512(8)
H1 H 0.5831 0.6538 0.6875
O2 O 0.6888(2) 0.3968(3) 0.55736(8)
H2 H 0.6649 0.3671 0.5286
C1 C 0.7791(3) 0.5265(4) 0.64856(12)
C2 C 0.7055(4) 0.5548(4) 0.68113(13)
C3 C 0.7184(4) 0.4886(4) 0.72916(13)
H3 H 0.6682 0.5082 0.7509
C4 C 0.8019(5) 0.3979(5) 0.74374(16)
H4 H 0.8088 0.3561 0.7757
C5 C 0.8790(4) 0.3641(4) 0.71242(17)
C6 C 0.8673(4) 0.4307(4) 0.66387(14)
C7 C 0.9455(4) 0.3983(4) 0.63223(17)
H5 H 0.9402 0.4412 0.6006
C8 C 1.0300(4) 0.3032(5) 0.6480(2)
H6 H 1.0808 0.2814 0.6268
C9 C 1.0391(5) 0.2401(5) 0.6955(3)
H7 H 1.0964 0.1762 0.7057
C10 C 0.9674(5) 0.2690(5) 0.7269(2)
H8 H 0.9759 0.2258 0.7586
C11 C 0.7633(3) 0.6002(4) 0.59816(12)
C12 C 0.7192(3) 0.5326(4) 0.55435(12)
C13 C 0.7050(3) 0.5993(4) 0.50691(13)
H9 H 0.6766 0.5506 0.4772
C14 C 0.7326(3) 0.7346(5) 0.50423(15)
H10 H 0.7240 0.7776 0.4725
C15 C 0.7740(3) 0.8114(4) 0.54847(15)
C16 C 0.7918(3) 0.7431(4) 0.59630(13)
C17 C 0.8348(3) 0.8209(4) 0.64013(14)
H11 H 0.8485 0.7777 0.6719
C18 C 0.8567(3) 0.9596(5) 0.63680(19)
H12 H 0.8852 1.0091 0.6663
C19 C 0.8370(4) 1.0272(5) 0.5899(2)
H13 H 0.8498 1.1219 0.5880
C20 C 0.7992(4) 0.9539(5) 0.54715(19)
H14 H 0.7893 0.9987 0.5157
loop_
_geom_bond_atom_site_label_1
_geom_bond_atom_site_label_2
_geom_bond_site_symmetry_1
_geom_bond_site_symmetry_2
N1 C21 1_555 1_555
N2 C21 1_555 1_555
N3 C28 1_555 1_555
N4 C28 1_555 1_555
O1 H1 1_555 1_555
O2 H2 1_555 1_555
C1 C2 1_555 1_555
C2 O1 1_555 1_555
C3 C2 1_555 1_555
H3 C3 1_555 1_555
C4 C3 1_555 1_555
H4 C4 1_555 1_555
C5 C4 1_555 1_555
C6 C1 1_555 1_555
C7 C6 1_555 1_555
H5 C7 1_555 1_555
C8 C7 1_555 1_555
H6 C8 1_555 1_555
C9 C8 1_555 1_555
H7 C9 1_555 1_555
C10 C5 1_555 1_555
H8 C10 1_555 1_555
C11 C1 1_555 1_555
C12 O2 1_555 1_555
C13 C12 1_555 1_555
H9 C13 1_555 1_555
C14 C13 1_555 1_555
H10 C14 1_555 1_555
C15 C14 1_555 1_555
C16 C11 1_555 1_555
C17 C16 1_555 1_555
H11 C17 1_555 1_555
C18 C17 1_555 1_555
H12 C18 1_555 1_555
C19 C18 1_555 1_555
H13 C19 1_555 1_555
C20 C15 1_555 1_555
H14 C20 1_555 1_555
C21 H15 1_555 1_555
C22 N2 1_555 1_555
C23 N1 1_555 1_555
C24 C23 1_555 1_555
H16 C24 1_555 1_555
C25 C24 1_555 1_555
H17 C25 1_555 1_555
C26 C25 1_555 1_555
H18 C26 1_555 1_555
C27 C22 1_555 1_555
H19 C27 1_555 1_555
C28 H20 1_555 1_555
C29 N4 1_555 1_555
C30 N3 1_555 1_555
C31 C30 1_555 1_555
H21 C31 1_555 1_555
C32 C31 1_555 1_555
H22 C32 1_555 1_555
C33 C32 1_555 1_555
H23 C33 1_555 1_555
C34 C29 1_555 1_555
H24 C34 1_555 1_555
C35 N1 1_555 1_555
H25 C35 1_555 1_555
H26 C35 1_555 1_555
C36 C35 1_555 1_555
H27 C36 1_555 1_555
H28 C36 1_555 1_555
C37 N3 1_555 1_555
H29 C37 1_555 1_555
H30 C37 1_555 1_555
C5 C6 1_555 1_555
C9 C10 1_555 1_555
C11 C12 1_555 1_555
C15 C16 1_555 1_555
C19 C20 1_555 1_555
C22 C23 1_555 1_555
C26 C27 1_555 1_555
C29 C30 1_555 1_555
C33 C34 1_555 1_555
C36 C37 1_555 1_555

#END
