
#######################################################################
#
#                 Cambridge Crystallographic Data Centre
#                                CCDC 
#
#######################################################################
#
# If this CIF has been generated from an entry in the Cambridge 
# Structural Database, then it will include bibliographic, chemical, 
# crystal, experimental, refinement or atomic coordinate data resulting 
# from the CCDC's data processing and validation procedures.
#
#######################################################################

data_CATTOJ
_chemical_formula_moiety         'C12 H13 Cl3 O1'
_chemical_name_systematic        2,3,4-trichloro-1-phenylhexan-1-one
_symmetry_cell_setting           monoclinic
_symmetry_space_group_name_H-M   'P 21'
_symmetry_Int_Tables_number      4
_space_group_name_Hall           'P 2yb'
loop_
_symmetry_equiv_pos_site_id
_symmetry_equiv_pos_as_xyz
1 x,y,z
2 -x,1/2+y,-z
_cell_length_a                   9.8618(4)
_cell_length_b                   6.3632(2)
_cell_length_c                   11.4050(6)
_cell_angle_alpha                90
_cell_angle_beta                 112.453(5)
_cell_angle_gamma                90
_cell_volume                     661.439
_exptl_crystal_colour            colorless
_exptl_crystal_description       Block
_cell_formula_units_Z            2
loop_
_atom_site_label
_atom_site_type_symbol
_atom_site_fract_x
_atom_site_fract_y
_atom_site_fract_z
Cl1 Cl 0.41772(8) 0.26917(15) 0.34244(8)
Cl2 Cl 0.67652(9) 0.19886(13) 0.17146(10)
Cl3 Cl 0.47980(10) 0.74859(13) 0.25921(11)
O1 O 0.7010(2) 0.7113(4) 0.1119(2)
C1 C 0.3801(3) 0.3514(5) 0.1821(3)
H1 H 0.3901 0.2278 0.1348
C2 C 0.9088(3) 0.6120(5) 0.2901(3)
C3 C 0.4915(3) 0.5124(5) 0.1785(3)
H2 H 0.4687 0.5481 0.0894
C4 C 0.7520(3) 0.6021(5) 0.2053(3)
C5 C 0.6512(3) 0.4460(5) 0.2363(3)
H3 H 0.6822 0.4335 0.3285
C6 C 0.2222(3) 0.4278(6) 0.1202(3)
H4 H 0.2070 0.5404 0.1712
H5 H 0.2069 0.4852 0.0373
C7 C 0.9908(4) 0.7812(6) 0.2768(3)
H6 H 0.9463 0.8846 0.2168
C8 C 0.9763(4) 0.4601(6) 0.3803(3)
H7 H 0.9221 0.3480 0.3917
C9 C 1.1251(4) 0.4752(8) 0.4539(4)
H8 H 1.1710 0.3713 0.5131
C10 C 1.2045(4) 0.6426(8) 0.4395(4)
H9 H 1.3041 0.6522 0.4891
C11 C 1.1374(4) 0.7965(7) 0.3521(4)
H10 H 1.1914 0.9113 0.3438
C12 C 0.1095(4) 0.2580(8) 0.1049(4)
H11 H 0.0131 0.3128 0.0582
H12 H 0.1159 0.2121 0.1870
H13 H 0.1279 0.1414 0.0597
loop_
_geom_bond_atom_site_label_1
_geom_bond_atom_site_label_2
_geom_bond_site_symmetry_1
_geom_bond_site_symmetry_2
Cl1 C1 1_555 1_555
Cl2 C5 1_555 1_555
Cl3 C3 1_555 1_555
O1 C4 1_555 1_555
C1 H1 1_555 1_555
C2 C4 1_555 1_555
C3 C1 1_555 1_555
H2 C3 1_555 1_555
C4 C5 1_555 1_555
C5 C3 1_555 1_555
H3 C5 1_555 1_555
C6 C1 1_555 1_555
H4 C6 1_555 1_555
H5 C6 1_555 1_555
C7 C2 1_555 1_555
H6 C7 1_555 1_555
C8 C2 1_555 1_555
H7 C8 1_555 1_555
C9 C8 1_555 1_555
H8 C9 1_555 1_555
C10 C9 1_555 1_555
H9 C10 1_555 1_555
C11 C7 1_555 1_555
H10 C11 1_555 1_555
C12 C6 1_555 1_555
H11 C12 1_555 1_555
H12 C12 1_555 1_555
H13 C12 1_555 1_555
C10 C11 1_555 1_555

#END
