
#######################################################################
#
#                 Cambridge Crystallographic Data Centre
#                                CCDC 
#
#######################################################################
#
# If this CIF has been generated from an entry in the Cambridge 
# Structural Database, then it will include bibliographic, chemical, 
# crystal, experimental, refinement or atomic coordinate data resulting 
# from the CCDC's data processing and validation procedures.
#
#######################################################################

data_CATVEB
_chemical_formula_moiety         'C16 H10 F1 N3 O3'
_chemical_name_systematic        4-fluoro-N-(5-nitroquinolin-8-yl)benzamide
_symmetry_cell_setting           tetragonal
_symmetry_space_group_name_H-M   'P 4/n'
_symmetry_Int_Tables_number      85
_space_group_name_Hall           '-P 4a'
loop_
_symmetry_equiv_pos_site_id
_symmetry_equiv_pos_as_xyz
1 x,y,z
2 1/2-y,x,z
3 y,1/2-x,z
4 1/2-x,1/2-y,z
5 -x,-y,-z
6 1/2+y,-x,-z
7 -y,1/2+x,-z
8 1/2+x,1/2+y,-z
_cell_length_a                   27.686(3)
_cell_length_b                   27.686(3)
_cell_length_c                   3.7678(5)
_cell_angle_alpha                90
_cell_angle_beta                 90
_cell_angle_gamma                90
_cell_volume                     2888.07
_cell_formula_units_Z            8
loop_
_atom_site_label
_atom_site_type_symbol
_atom_site_fract_x
_atom_site_fract_y
_atom_site_fract_z
F1 F 0.87414(17) 0.23504(12) 0.1543(14)
O1 O 0.96375(13) 0.42718(13) 0.7225(13)
O2 O 0.94583(18) 0.67137(19) 0.891(2)
O3 O 0.8716(2) 0.68193(16) 0.806(2)
N1 N 0.89300(15) 0.45782(14) 0.5187(14)
H1 H 0.8659 0.4499 0.4232
N2 N 0.82020(14) 0.51287(16) 0.3513(15)
N3 N 0.90686(19) 0.65533(18) 0.8074(18)
C1 C 0.8861(3) 0.2805(2) 0.254(2)
C2 C 0.9315(2) 0.2888(2) 0.381(2)
H2 H 0.9540 0.2640 0.3989
C3 C 0.9429(2) 0.33513(19) 0.482(2)
H3 H 0.9737 0.3418 0.5666
C4 C 0.90896(19) 0.37236(18) 0.4588(17)
C5 C 0.8633(2) 0.3610(2) 0.3330(19)
H4 H 0.8401 0.3852 0.3184
C6 C 0.8517(2) 0.3158(2) 0.231(2)
H5 H 0.8209 0.3087 0.1474
C7 C 0.92476(19) 0.42095(18) 0.5779(17)
C8 C 0.89896(17) 0.50621(18) 0.5932(17)
C9 C 0.93958(19) 0.5269(2) 0.7351(19)
H6 H 0.9663 0.5080 0.7901
C10 C 0.94055(19) 0.5768(2) 0.7967(17)
H7 H 0.9681 0.5905 0.8949
C11 C 0.90281(18) 0.60547(18) 0.7184(17)
C12 C 0.85937(18) 0.58628(19) 0.5619(17)
C13 C 0.81807(19) 0.6130(2) 0.4540(19)
H8 H 0.8168 0.6463 0.4847
C14 C 0.7804(2) 0.5889(2) 0.3048(19)
H9 H 0.7530 0.6056 0.2326
C15 C 0.7830(2) 0.5396(2) 0.2613(18)
H10 H 0.7566 0.5242 0.1607
C16 C 0.85859(16) 0.53610(19) 0.4952(16)
loop_
_geom_bond_atom_site_label_1
_geom_bond_atom_site_label_2
_geom_bond_site_symmetry_1
_geom_bond_site_symmetry_2
F1 C1 1_555 1_555
O1 C7 1_555 1_555
O2 N3 1_555 1_555
O3 N3 1_555 1_555
N1 H1 1_555 1_555
N2 C15 1_555 1_555
N3 C11 1_555 1_555
C1 C2 1_555 1_555
C2 H2 1_555 1_555
C3 C2 1_555 1_555
H3 C3 1_555 1_555
C4 C3 1_555 1_555
C5 C4 1_555 1_555
H4 C5 1_555 1_555
C6 C1 1_555 1_555
H5 C6 1_555 1_555
C7 N1 1_555 1_555
C8 N1 1_555 1_555
C9 C8 1_555 1_555
H6 C9 1_555 1_555
C10 C9 1_555 1_555
H7 C10 1_555 1_555
C11 C10 1_555 1_555
C12 C11 1_555 1_555
C13 C12 1_555 1_555
H8 C13 1_555 1_555
C14 C13 1_555 1_555
H9 C14 1_555 1_555
C15 C14 1_555 1_555
H10 C15 1_555 1_555
C16 N2 1_555 1_555
C4 C7 1_555 1_555
C5 C6 1_555 1_555
C8 C16 1_555 1_555
C12 C16 1_555 1_555

#END
