
#######################################################################
#
#                 Cambridge Crystallographic Data Centre
#                                CCDC 
#
#######################################################################
#
# If this CIF has been generated from an entry in the Cambridge 
# Structural Database, then it will include bibliographic, chemical, 
# crystal, experimental, refinement or atomic coordinate data resulting 
# from the CCDC's data processing and validation procedures.
#
#######################################################################

data_CATWEB01
_chemical_formula_moiety         'C28 H24 N2 Se2'
_chemical_name_systematic        
N,N'-(Diselane-1,2-diylbis(2,1-phenylenemethylylidene))bis(1-phenylmethanamine)
_symmetry_cell_setting           monoclinic
_symmetry_space_group_name_H-M   'P 21/c'
_symmetry_Int_Tables_number      14
_space_group_name_Hall           '-P 2ybc'
loop_
_symmetry_equiv_pos_site_id
_symmetry_equiv_pos_as_xyz
1 x,y,z
2 -x,1/2+y,1/2-z
3 -x,-y,-z
4 x,1/2-y,1/2+z
_cell_length_a                   10.8124(5)
_cell_length_b                   22.6756(9)
_cell_length_c                   9.3971(4)
_cell_angle_alpha                90
_cell_angle_beta                 90.00
_cell_angle_gamma                90
_cell_volume                     2303.96
_exptl_crystal_colour            white
_exptl_crystal_description       plate
_cell_formula_units_Z            4
loop_
_atom_site_label
_atom_site_type_symbol
_atom_site_fract_x
_atom_site_fract_y
_atom_site_fract_z
Se1 Se 0.05989(3) 0.473793(9) 0.68232(3)
Se2 Se 0.08408(3) 0.390692(9) 0.53351(3)
N1 N 0.0909(2) 0.27810(8) 0.4147(2)
N2 N 0.0296(2) 0.57045(8) 0.8345(2)
C1 C 0.2282(2) 0.35306(10) 0.6144(3)
C2 C 0.2636(2) 0.29656(9) 0.5690(3)
C3 C 0.3694(2) 0.27030(10) 0.6283(3)
H1 H 0.3940 0.2332 0.5969
C4 C 0.4378(2) 0.29867(10) 0.7330(3)
H2 H 0.5070 0.2806 0.7725
C5 C 0.4016(2) 0.35404(10) 0.7775(3)
H3 H 0.4462 0.3732 0.8484
C6 C 0.2993(2) 0.38144(9) 0.7178(3)
H4 H 0.2778 0.4193 0.7471
C7 C 0.1923(2) 0.26049(10) 0.4684(3)
H5 H 0.2223 0.2235 0.4431
C8 C 0.0241(3) 0.23671(10) 0.3225(3)
H6 H 0.0743 0.2017 0.3084
H7 H 0.0110 0.2549 0.2302
C9 C -0.0989(2) 0.21891(9) 0.3839(3)
C10 C -0.1570(3) 0.16748(10) 0.3357(3)
H8 H -0.1197 0.1450 0.2649
C11 C -0.2681(3) 0.14977(10) 0.3913(3)
H9 H -0.3053 0.1155 0.3576
C12 C -0.3256(3) 0.18222(10) 0.4972(3)
H10 H -0.4006 0.1698 0.5354
C13 C -0.2698(3) 0.23347(10) 0.5453(3)
H11 H -0.3079 0.2558 0.6159
C14 C -0.1577(2) 0.25174(10) 0.4890(3)
H12 H -0.1214 0.2863 0.5218
C15 C 0.1877(2) 0.52634(9) 0.6133(2)
C16 C 0.1963(2) 0.58352(10) 0.6729(3)
C17 C 0.1105(3) 0.60445(10) 0.7808(3)
H13 H 0.1149 0.6434 0.8111
C18 C -0.0568(3) 0.59437(11) 0.9391(3)
H14 H -0.0457 0.6367 0.9458
H15 H -0.0394 0.5774 1.0317
C19 C -0.1885(3) 0.58099(10) 0.8981(3)
C20 C -0.2556(3) 0.62035(10) 0.8155(3)
H16 H -0.2188 0.6553 0.7857
C21 C -0.3766(3) 0.60821(10) 0.7768(3)
H17 H -0.4201 0.6349 0.7206
C22 C -0.4324(3) 0.55728(11) 0.8209(3)
H18 H -0.5139 0.5494 0.7959
C23 C -0.3661(3) 0.51738(10) 0.9033(3)
H19 H -0.4035 0.4826 0.9331
C24 C -0.2459(3) 0.52893(10) 0.9410(3)
H20 H -0.2024 0.5018 0.9957
C25 C 0.2885(3) 0.62127(10) 0.6240(3)
H21 H 0.2949 0.6588 0.6632
C26 C 0.3700(3) 0.60478(10) 0.5200(3)
H22 H 0.4308 0.6308 0.4890
C27 C 0.3608(3) 0.54872(10) 0.4611(3)
H23 H 0.4155 0.5370 0.3901
C28 C 0.2696(3) 0.51014(10) 0.5082(3)
H24 H 0.2639 0.4728 0.4681
loop_
_geom_bond_atom_site_label_1
_geom_bond_atom_site_label_2
_geom_bond_site_symmetry_1
_geom_bond_site_symmetry_2
Se1 Se2 1_555 1_555
Se2 C1 1_555 1_555
N1 C7 1_555 1_555
N2 C17 1_555 1_555
C1 C2 1_555 1_555
C2 C3 1_555 1_555
C3 H1 1_555 1_555
C4 C3 1_555 1_555
H2 C4 1_555 1_555
C5 C4 1_555 1_555
H3 C5 1_555 1_555
C6 C1 1_555 1_555
H4 C6 1_555 1_555
C7 C2 1_555 1_555
H5 C7 1_555 1_555
C8 N1 1_555 1_555
H6 C8 1_555 1_555
H7 C8 1_555 1_555
C9 C8 1_555 1_555
C10 C9 1_555 1_555
H8 C10 1_555 1_555
C11 C10 1_555 1_555
H9 C11 1_555 1_555
C12 C11 1_555 1_555
H10 C12 1_555 1_555
C13 C12 1_555 1_555
H11 C13 1_555 1_555
C14 C9 1_555 1_555
H12 C14 1_555 1_555
C15 Se1 1_555 1_555
C16 C15 1_555 1_555
C17 C16 1_555 1_555
H13 C17 1_555 1_555
C18 N2 1_555 1_555
H14 C18 1_555 1_555
H15 C18 1_555 1_555
C19 C18 1_555 1_555
C20 C19 1_555 1_555
H16 C20 1_555 1_555
C21 C20 1_555 1_555
H17 C21 1_555 1_555
C22 C21 1_555 1_555
H18 C22 1_555 1_555
C23 C22 1_555 1_555
H19 C23 1_555 1_555
C24 C19 1_555 1_555
H20 C24 1_555 1_555
C25 C16 1_555 1_555
H21 C25 1_555 1_555
C26 C25 1_555 1_555
H22 C26 1_555 1_555
C27 C26 1_555 1_555
H23 C27 1_555 1_555
C28 C15 1_555 1_555
H24 C28 1_555 1_555
C5 C6 1_555 1_555
C13 C14 1_555 1_555
C23 C24 1_555 1_555
C27 C28 1_555 1_555

#END
