
#######################################################################
#
#                 Cambridge Crystallographic Data Centre
#                                CCDC 
#
#######################################################################
#
# If this CIF has been generated from an entry in the Cambridge 
# Structural Database, then it will include bibliographic, chemical, 
# crystal, experimental, refinement or atomic coordinate data resulting 
# from the CCDC's data processing and validation procedures.
#
#######################################################################

data_CAVDOU
_chemical_formula_moiety         'C75 H110 O10,C4 H8 I2'
_chemical_name_systematic        
'4,9,14,19,24,26,28,30,32,34-Decabutoxyhexacyclo[21.2.2.2^3,6^.2^8,11^.2^13,16^.2^18,21^]pentatriaconta-1(25),3,5,8,10,13,15,18,20,23,26,28,30,32,34-pentadecaene 1,4-di-iodobutane'
_symmetry_cell_setting           triclinic
_symmetry_space_group_name_H-M   'P -1'
_symmetry_Int_Tables_number      2
_space_group_name_Hall           '-P 1'
loop_
_symmetry_equiv_pos_site_id
_symmetry_equiv_pos_as_xyz
1 x,y,z
2 -x,-y,-z
_cell_length_a                   15.136(2)
_cell_length_b                   24.590(4)
_cell_length_c                   24.775(4)
_cell_angle_alpha                61.226(2)
_cell_angle_beta                 81.302(2)
_cell_angle_gamma                74.159(2)
_cell_volume                     7773.44
_exptl_crystal_colour            colorless
_exptl_crystal_description       block
_cell_formula_units_Z            4
loop_
_atom_site_label
_atom_site_type_symbol
_atom_site_fract_x
_atom_site_fract_y
_atom_site_fract_z
I1 I 0.28617(15) 0.30757(9) 0.20723(8)
I4 I -0.18221(18) 0.23704(9) 0.29104(9)
C155 C 0.1761(18) 0.276(2) 0.240(2)
H229 H 0.1970 0.2325 0.2444
H230 H 0.1742 0.2706 0.2823
C156 C 0.0781(19) 0.2899(17) 0.2291(19)
H231 H 0.0470 0.3309 0.2292
H232 H 0.0707 0.2947 0.1879
C157 C 0.0358(17) 0.2429(16) 0.2728(14)
H233 H 0.0433 0.2383 0.3139
H234 H 0.0675 0.2019 0.2729
C158 C -0.0615(15) 0.255(2) 0.263(2)
H235 H -0.0566 0.2514 0.2246
H236 H -0.0784 0.3011 0.2496
O1 O 0.8436(6) 0.1543(4) 0.6314(4)
O2 O 1.0303(6) 0.3477(4) 0.5197(4)
O3 O 0.9817(6) 0.0002(4) 0.8507(4)
O4 O 1.2014(6) 0.1224(4) 0.6512(4)
O5 O 0.8941(5) 0.1269(4) 0.9628(4)
O6 O 1.2435(5) 0.0925(4) 0.8713(4)
O7 O 0.7290(6) 0.3503(4) 0.8202(4)
O8 O 1.0909(6) 0.3025(4) 0.8746(4)
O9 O 0.6900(7) 0.3756(5) 0.6117(4)
O10 O 0.9697(6) 0.4526(4) 0.6548(4)
C1 C 0.8869(8) 0.2044(5) 0.6022(5)
C2 C 0.9831(8) 0.1870(5) 0.5980(5)
C3 C 1.0305(8) 0.2349(5) 0.5706(5)
H1 H 1.0956 0.2234 0.5675
C4 C 0.9873(8) 0.2985(6) 0.5476(5)
C5 C 0.8886(8) 0.3179(5) 0.5508(5)
C6 C 0.8409(8) 0.2687(5) 0.5783(5)
H2 H 0.7757 0.2794 0.5808
C7 C 0.8414(8) 0.3854(5) 0.5300(5)
H3 H 0.7794 0.3933 0.5155
H4 H 0.8765 0.4129 0.4952
C8 C 0.8331(8) 0.4015(5) 0.5826(5)
C9 C 0.9044(8) 0.4226(5) 0.5918(5)
H5 H 0.9552 0.4290 0.5636
C10 C 0.9013(8) 0.4341(5) 0.6415(5)
C11 C 0.8266(8) 0.4260(6) 0.6836(5)
C12 C 0.7564(8) 0.4080(6) 0.6724(5)
H6 H 0.7038 0.4043 0.6991
C13 C 0.7586(8) 0.3949(5) 0.6241(5)
C14 C 0.8243(9) 0.4387(5) 0.7381(5)
H7 H 0.7597 0.4530 0.7491
H8 H 0.8556 0.4736 0.7261
C15 C 0.8708(8) 0.3799(5) 0.7941(5)
C16 C 0.9585(8) 0.3690(5) 0.8080(5)
H9 H 0.9930 0.3994 0.7813
C17 C 1.0022(8) 0.3149(6) 0.8601(5)
C18 C 0.9504(8) 0.2693(5) 0.9003(5)
C19 C 0.8589(8) 0.2817(5) 0.8872(5)
H10 H 0.8231 0.2521 0.9138
C20 C 0.8180(8) 0.3366(5) 0.8357(5)
C21 C 0.9952(9) 0.2091(5) 0.9544(5)
H11 H 0.9494 0.1963 0.9885
H12 H 1.0453 0.2174 0.9689
C22 C 1.0348(8) 0.1544(5) 0.9375(5)
C23 C 0.9826(8) 0.1165(5) 0.9397(5)
C24 C 1.0212(8) 0.0681(5) 0.9235(5)
H13 H 0.9854 0.0393 0.9293
C25 C 1.1099(8) 0.0600(5) 0.8991(5)
C26 C 1.1563(7) 0.1013(5) 0.8954(5)
C27 C 1.1240(8) 0.1479(6) 0.9130(5)
H14 H 1.1612 0.1752 0.9088
C28 C 1.1459(8) 0.0093(5) 0.8776(5)
H15 H 1.2137 -0.0041 0.8802
H16 H 1.1205 -0.0285 0.9047
C29 C 1.1184(7) 0.0355(5) 0.8121(5)
C30 C 1.1744(8) 0.0650(5) 0.7633(5)
H17 H 1.2321 0.0675 0.7714
C31 C 1.1490(8) 0.0916(5) 0.7018(5)
C32 C 1.0647(7) 0.0889(5) 0.6891(5)
C33 C 1.0070(8) 0.0584(5) 0.7383(5)
H18 H 0.9497 0.0558 0.7297
C34 C 1.0316(7) 0.0317(5) 0.8000(5)
C35 C 1.0340(8) 0.1169(5) 0.6237(5)
H19 H 0.9933 0.0921 0.6227
H20 H 1.0885 0.1130 0.5970
C36 C 0.7457(9) 0.1707(6) 0.6326(6)
H21 H 0.7228 0.1953 0.5901
H22 H 0.7229 0.1974 0.6538
C37 C 0.7110(9) 0.1096(7) 0.6667(6)
H23 H 0.7394 0.0816 0.6474
H24 H 0.7313 0.0870 0.7098
C38 C 0.6106(11) 0.1203(8) 0.6667(8)
H25 H 0.5903 0.1408 0.6237
H26 H 0.5818 0.1499 0.6842
C39 C 0.5783(15) 0.0593(10) 0.7034(10)
H27 H 0.5112 0.0687 0.7019
H28 H 0.5967 0.0395 0.7463
H29 H 0.6060 0.0301 0.6860
C40 C 1.1273(9) 0.3310(6) 0.5196(5)
H30 H 1.1503 0.3059 0.4968
H31 H 1.1485 0.3042 0.5625
C41 C 1.1649(9) 0.3892(6) 0.4901(6)
H32 H 1.1369 0.4161 0.5106
H33 H 1.1474 0.4140 0.4464
C42 C 1.2704(10) 0.3738(7) 0.4937(7)
H34 H 1.2874 0.3492 0.5376
H35 H 1.2980 0.3463 0.4738
C43 C 1.3118(14) 0.4323(9) 0.4634(9)
H36 H 1.3787 0.4185 0.4673
H37 H 1.2868 0.4591 0.4838
H38 H 1.2964 0.4567 0.4197
C44 C 0.8882(8) 0.0024(6) 0.8410(5)
H39 H 0.8878 -0.0119 0.8100
H40 H 0.8502 0.0465 0.8260
C45 C 0.8507(8) -0.0407(6) 0.9012(5)
H41 H 0.8545 -0.0273 0.9324
H42 H 0.8883 -0.0848 0.9151
C46 C 0.7508(9) -0.0395(7) 0.8958(6)
H43 H 0.7469 -0.0504 0.8628
H44 H 0.7131 0.0042 0.8838
C47 C 0.7109(11) -0.0858(8) 0.9555(7)
H45 H 0.6471 -0.0830 0.9494
H46 H 0.7129 -0.0746 0.9883
H47 H 0.7471 -0.1293 0.9673
C48 C 1.2878(10) 0.1266(7) 0.6602(6)
H48 H 1.3283 0.0833 0.6789
H49 H 1.2813 0.1442 0.6895
C49 C 1.3310(13) 0.1667(8) 0.6031(7)
H50 H 1.2963 0.2117 0.5872
H51 H 1.3947 0.1642 0.6108
C50 C 1.332(2) 0.1452(18) 0.5593(11)
H52 H 1.2793 0.1252 0.5678
H53 H 1.3252 0.1819 0.5174
C51 C 1.415(3) 0.100(2) 0.563(2)
H54 H 1.4156 0.0854 0.5324
H55 H 1.4213 0.0642 0.6040
H56 H 1.4669 0.1207 0.5535
C52 C 0.8338(8) 0.0910(6) 0.9611(5)
H57 H 0.8561 0.0450 0.9889
H58 H 0.8325 0.0968 0.9187
C53 C 0.7395(9) 0.1149(6) 0.9812(6)
H59 H 0.7156 0.1596 0.9506
H60 H 0.7434 0.1143 1.0210
C54 C 0.6725(11) 0.0754(8) 0.9886(7)
H61 H 0.6697 0.0746 0.9493
H62 H 0.6944 0.0310 1.0207
C55 C 0.5786(15) 0.1028(12) 1.0063(11)
H63 H 0.5366 0.0767 1.0110
H64 H 0.5565 0.1465 0.9742
H65 H 0.5813 0.1032 1.0454
C56 C 1.3044(10) 0.1382(7) 0.8557(6)
H66 H 1.2708 0.1824 0.8295
H67 H 1.3212 0.1359 0.8940
C57 C 1.3876(11) 0.1213(8) 0.8230(8)
H68 H 1.3681 0.1168 0.7893
H69 H 1.4171 0.1579 0.8036
C58 C 1.4564(19) 0.0655(12) 0.8562(13)
H70 H 1.5071 0.0609 0.8272
H71 H 1.4297 0.0277 0.8731
C59 C 1.493(2) 0.0665(16) 0.9059(14)
H72 H 1.5430 0.0285 0.9249
H73 H 1.4448 0.0669 0.9368
H74 H 1.5175 0.1048 0.8898
C60 C 0.6682(11) 0.3111(8) 0.8651(7)
H75 H 0.6657 0.3131 0.9043
H76 H 0.6916 0.2660 0.8736
C61 C 0.5738(11) 0.3366(8) 0.8383(8)
H77 H 0.5334 0.3078 0.8653
H78 H 0.5779 0.3383 0.7973
C62 C 0.5328(12) 0.4033(9) 0.8322(9)
H79 H 0.5251 0.4013 0.8735
H80 H 0.5750 0.4315 0.8073
C63 C 0.4394(15) 0.4309(12) 0.8012(11)
H81 H 0.4130 0.4732 0.7985
H82 H 0.3979 0.4027 0.8257
H83 H 0.4474 0.4344 0.7598
C64 C 1.1351(13) 0.3563(9) 0.8476(9)
H84 H 1.0911 0.3946 0.8472
H85 H 1.1555 0.3661 0.8047
C65 C 1.2161(16) 0.3383(12) 0.8860(12)
H86 H 1.2472 0.3741 0.8683
H87 H 1.1944 0.3306 0.9283
C66 C 1.276(2) 0.2857(17) 0.8884(19)
H88 H 1.3046 0.2944 0.8471
H89 H 1.2450 0.2506 0.9022
C67 C 1.3569(17) 0.2656(13) 0.9381(11)
H90 H 1.4044 0.2291 0.9387
H91 H 1.3289 0.2541 0.9794
H92 H 1.3846 0.3018 0.9255
C68 C 0.6104(14) 0.3664(10) 0.6530(9)
H93 H 0.5838 0.4039 0.6603
H94 H 0.6261 0.3279 0.6930
C69 C 0.545(3) 0.358(3) 0.618(2)
H95 H 0.5779 0.3344 0.5957
H96 H 0.5079 0.3999 0.5892
C70 C 0.480(3) 0.315(2) 0.6786(19)
H97 H 0.5214 0.2810 0.7118
H98 H 0.4404 0.3437 0.6949
C71 C 0.415(3) 0.283(2) 0.660(2)
H99 H 0.3802 0.2585 0.6972
H100 H 0.4531 0.2545 0.6446
H101 H 0.3713 0.3167 0.6289
C72 C 1.0568(9) 0.4534(6) 0.6196(6)
H102 H 1.0759 0.4156 0.6123
H103 H 1.0501 0.4922 0.5792
C73 C 1.1256(11) 0.4527(8) 0.6562(8)
H104 H 1.1312 0.4137 0.6963
H105 H 1.1043 0.4899 0.6642
C74 C 1.2176(12) 0.4544(9) 0.6246(8)
H106 H 1.2125 0.4929 0.5840
H107 H 1.2405 0.4165 0.6176
C75 C 1.2852(19) 0.4552(17) 0.6643(16)
H108 H 1.3453 0.4570 0.6431
H109 H 1.2914 0.4164 0.7039
H110 H 1.2622 0.4926 0.6713
O11 O -0.2025(7) 0.3767(5) 0.3514(4)
O12 O 0.0213(6) 0.4975(4) 0.1544(4)
O13 O -0.2512(6) 0.4098(5) 0.1302(4)
O14 O 0.1052(6) 0.3771(4) 0.0365(4)
O15 O -0.0945(6) 0.2031(4) 0.1208(4)
O16 O 0.2696(6) 0.1531(5) 0.1724(4)
O17 O 0.0249(6) 0.0520(4) 0.3362(4)
O18 O 0.3132(6) 0.1184(4) 0.3858(4)
O19 O -0.0314(6) 0.1478(4) 0.4816(4)
O20 O 0.1580(7) 0.3406(4) 0.3688(4)
C76 C -0.1479(9) 0.4080(6) 0.3006(5)
C77 C -0.1739(9) 0.4346(6) 0.2407(6)
H111 H -0.2321 0.4325 0.2327
C78 C -0.1168(8) 0.4650(5) 0.1908(5)
C79 C -0.0297(8) 0.4672(5) 0.2041(5)
C80 C -0.0055(8) 0.4381(5) 0.2657(5)
H112 H 0.0531 0.4383 0.2748
C81 C -0.0638(8) 0.4088(5) 0.3143(5)
C82 C -0.1431(9) 0.4916(6) 0.1246(5)
H113 H -0.2108 0.5057 0.1216
H114 H -0.1169 0.5292 0.0981
C83 C -0.1085(9) 0.4423(6) 0.1018(5)
C84 C -0.1627(7) 0.4043(5) 0.1052(4)
C85 C -0.1261(9) 0.3574(6) 0.0834(5)
H115 H -0.1643 0.3318 0.0848
C86 C -0.0352(8) 0.3487(6) 0.0602(5)
C87 C 0.0171(8) 0.3880(6) 0.0586(5)
C88 C -0.0223(8) 0.4336(6) 0.0783(5)
H116 H 0.0144 0.4610 0.0749
C89 C -0.0008(9) 0.2972(6) 0.0420(5)
H117 H -0.0529 0.2904 0.0281
H118 H 0.0434 0.3106 0.0070
C90 C 0.0450(8) 0.2359(5) 0.0937(5)
C91 C -0.0039(8) 0.1887(5) 0.1354(5)
C92 C 0.0370(9) 0.1351(6) 0.1858(5)
H119 H 0.0017 0.1053 0.2126
C93 C 0.1256(8) 0.1236(5) 0.1983(5)
C94 C 0.1803(8) 0.1674(5) 0.1575(5)
C95 C 0.1404(8) 0.2224(5) 0.1059(5)
H120 H 0.1769 0.2512 0.0785
C96 C 0.1720(9) 0.0635(6) 0.2544(5)
H121 H 0.2367 0.0494 0.2433
H122 H 0.1407 0.0289 0.2654
C97 C 0.1697(8) 0.0745(5) 0.3111(5)
C98 C 0.0952(9) 0.0694(6) 0.3497(5)
C99 C 0.0919(9) 0.0785(6) 0.4022(5)
H123 H 0.0402 0.0734 0.4297
C100 C 0.1677(8) 0.0955(5) 0.4130(5)
C101 C 0.2410(8) 0.1028(6) 0.3714(5)
C102 C 0.2434(9) 0.0909(5) 0.3226(5)
H124 H 0.2962 0.0939 0.2961
C103 C 0.1606(9) 0.1098(5) 0.4670(5)
H125 H 0.1271 0.0811 0.5019
H126 H 0.2229 0.1024 0.4807
C104 C 0.1101(8) 0.1787(6) 0.4475(5)
C105 C 0.0128(8) 0.1978(5) 0.4530(5)
C106 C -0.0290(9) 0.2606(6) 0.4314(5)
H127 H -0.0940 0.2723 0.4354
C107 C 0.0190(9) 0.3080(6) 0.4040(6)
C108 C 0.1135(9) 0.2914(6) 0.3977(5)
C109 C 0.1586(9) 0.2257(6) 0.4202(5)
H128 H 0.2235 0.2141 0.4162
C110 C -0.0310(9) 0.3773(6) 0.3806(5)
H129 H 0.0105 0.4012 0.3826
H130 H -0.0847 0.3803 0.4080
C111 C -0.2882(15) 0.3784(11) 0.3414(10)
H131 H -0.2866 0.3567 0.3163
H132 H -0.3232 0.4231 0.3192
C112 C -0.335(3) 0.3427(18) 0.4074(18)
H133 H -0.3558 0.3096 0.4041
H134 H -0.2820 0.3191 0.4351
C113 C -0.385(6) 0.356(4) 0.434(3)
H135 H -0.4377 0.3836 0.4067
H136 H -0.3619 0.3826 0.4453
C114 C -0.420(4) 0.308(3) 0.490(2)
H137 H -0.4520 0.3280 0.5158
H138 H -0.3686 0.2731 0.5127
H139 H -0.4626 0.2914 0.4793
C115 C 0.1143(8) 0.4938(6) 0.1649(5)
H140 H 0.1514 0.4496 0.1789
H141 H 0.1152 0.5066 0.1970
C116 C 0.1535(9) 0.5387(6) 0.1042(6)
H142 H 0.1494 0.5269 0.0719
H143 H 0.1172 0.5830 0.0913
C117 C 0.2533(9) 0.5347(7) 0.1119(6)
H144 H 0.2895 0.4906 0.1235
H145 H 0.2572 0.5444 0.1458
C118 C 0.2951(12) 0.5815(9) 0.0523(8)
H146 H 0.3595 0.5771 0.0589
H147 H 0.2607 0.6253 0.0415
H148 H 0.2917 0.5719 0.0188
C119 C -0.3177(17) 0.3768(11) 0.1341(9)
H149 H -0.3315 0.3868 0.0921
H150 H -0.2921 0.3303 0.1571
C120 C -0.3973(11) 0.3933(9) 0.1630(8)
H151 H -0.4062 0.4382 0.1543
H152 H -0.3910 0.3663 0.2081
C121 C -0.477(2) 0.3865(17) 0.144(2)
H153 H -0.4730 0.3975 0.1001
H154 H -0.5339 0.4141 0.1518
C122 C -0.478(3) 0.3197(19) 0.183(2)
H155 H -0.5307 0.3106 0.1728
H156 H -0.4817 0.3098 0.2261
H157 H -0.4210 0.2933 0.1748
C123 C 0.1656(9) 0.4125(6) 0.0407(6)
H158 H 0.1682 0.4039 0.0839
H159 H 0.1424 0.4589 0.0150
C124 C 0.2595(10) 0.3901(7) 0.0178(6)
H160 H 0.2846 0.3447 0.0463
H161 H 0.2546 0.3938 -0.0233
C125 C 0.3227(12) 0.4289(9) 0.0136(8)
H162 H 0.3266 0.4252 0.0548
H163 H 0.2967 0.4742 -0.0146
C126 C 0.4224(18) 0.4083(14) -0.0101(13)
H164 H 0.4606 0.4355 -0.0118
H165 H 0.4193 0.4129 -0.0513
H166 H 0.4493 0.3638 0.0181
C127 C -0.1329(12) 0.1506(8) 0.1400(8)
H167 H -0.1440 0.1312 0.1852
H168 H -0.0896 0.1181 0.1302
C128 C -0.2207(17) 0.1715(11) 0.1084(11)
H169 H -0.2043 0.1677 0.0699
H170 H -0.2558 0.1386 0.1346
C129 C -0.280(3) 0.226(2) 0.093(3)
H171 H -0.2451 0.2602 0.0694
H172 H -0.3030 0.2290 0.1312
C130 C -0.3626(15) 0.2440(11) 0.0552(11)
H173 H -0.4050 0.2824 0.0546
H174 H -0.3938 0.2088 0.0737
H175 H -0.3426 0.2523 0.0130
C131 C 0.3297(11) 0.1887(8) 0.1291(8)
H176 H 0.3070 0.2342 0.1189
H177 H 0.3322 0.1851 0.0908
C132 C 0.4259(13) 0.1637(9) 0.1557(8)
H178 H 0.4668 0.1911 0.1267
H179 H 0.4228 0.1656 0.1950
C133 C 0.4642(12) 0.0973(9) 0.1665(8)
H180 H 0.4701 0.0960 0.1267
H181 H 0.4214 0.0705 0.1936
C134 C 0.5589(16) 0.0699(12) 0.1964(11)
H182 H 0.5823 0.0260 0.2029
H183 H 0.5529 0.0704 0.2362
H184 H 0.6016 0.0959 0.1693
C135 C -0.0580(9) 0.0515(6) 0.3715(6)
H185 H -0.0753 0.0887 0.3798
H186 H -0.0517 0.0120 0.4113
C136 C -0.1297(10) 0.0549(7) 0.3316(7)
H187 H -0.1380 0.0965 0.2940
H188 H -0.1055 0.0212 0.3187
C137 C -0.2218(13) 0.0472(9) 0.3627(8)
H189 H -0.2448 0.0791 0.3782
H190 H -0.2150 0.0043 0.3986
C138 C -0.2916(14) 0.0558(11) 0.3192(10)
H191 H -0.3505 0.0500 0.3412
H192 H -0.2692 0.0241 0.3040
H193 H -0.2999 0.0987 0.2843
C139 C 0.3972(13) 0.1129(11) 0.3502(9)
H194 H 0.3891 0.1453 0.3065
H195 H 0.4173 0.0700 0.3526
C140 C 0.4677(17) 0.1246(14) 0.3811(12)
H196 H 0.4528 0.1093 0.4256
H197 H 0.5305 0.1013 0.3763
C141 C 0.463(4) 0.189(3) 0.353(3)
H198 H 0.3996 0.2131 0.3556
H199 H 0.4817 0.2045 0.3086
C142 C 0.538(3) 0.197(2) 0.393(2)
H200 H 0.5529 0.2385 0.3690
H201 H 0.5948 0.1631 0.3997
H202 H 0.5101 0.1923 0.4325
C143 C -0.1267(9) 0.1658(6) 0.4796(6)
H203 H -0.1463 0.1931 0.4364
H204 H -0.1509 0.1905 0.5027
C144 C -0.1638(8) 0.1064(6) 0.5080(6)
H205 H -0.1490 0.0819 0.5522
H206 H -0.1323 0.0794 0.4881
C145 C -0.2682(11) 0.1199(7) 0.5017(7)
H207 H -0.2993 0.1466 0.5219
H208 H -0.2827 0.1452 0.4574
C146 C -0.3068(13) 0.0643(9) 0.5274(9)
H209 H -0.3731 0.0779 0.5210
H210 H -0.2951 0.0395 0.5716
H211 H -0.2781 0.0379 0.5070
C147 C 0.2537(10) 0.3257(7) 0.3642(7)
H212 H 0.2742 0.2987 0.3432
H213 H 0.2799 0.3017 0.4059
C148 C 0.2865(10) 0.3872(7) 0.3277(6)
H214 H 0.2636 0.4093 0.2853
H215 H 0.2606 0.4156 0.3469
C149 C 0.3866(12) 0.3754(9) 0.3255(9)
H216 H 0.4124 0.3451 0.3084
H217 H 0.4090 0.3553 0.3679
C150 C 0.4224(14) 0.4383(10) 0.2850(10)
H218 H 0.4897 0.4278 0.2847
H219 H 0.3985 0.4680 0.3024
H220 H 0.4012 0.4582 0.2428
I2 I 0.68974(9) 0.18047(7) 0.79636(6)
I3 I 1.14587(9) 0.26606(6) 0.70955(6)
C151 C 0.790(2) 0.222(3) 0.754(2)
H221 H 0.7976 0.2204 0.7145
H222 H 0.7642 0.2671 0.7439
C152 C 0.8843(10) 0.2095(8) 0.7719(7)
H223 H 0.8819 0.2123 0.8107
H224 H 0.9158 0.1653 0.7806
C153 C 0.9369(18) 0.2502(15) 0.7287(12)
H225 H 0.9067 0.2944 0.7210
H226 H 0.9380 0.2485 0.6895
C154 C 1.032(2) 0.236(3) 0.746(2)
H227 H 1.0526 0.1895 0.7603
H228 H 1.0238 0.2402 0.7848
loop_
_geom_bond_atom_site_label_1
_geom_bond_atom_site_label_2
_geom_bond_site_symmetry_1
_geom_bond_site_symmetry_2
I1 C155 1_555 1_555
O1 C1 1_555 1_555
O2 C4 1_555 1_555
O3 C34 1_555 1_555
O4 C31 1_555 1_555
O5 C23 1_555 1_555
O6 C26 1_555 1_555
O7 C20 1_555 1_555
O8 C17 1_555 1_555
O9 C13 1_555 1_555
O10 C10 1_555 1_555
O11 C76 1_555 1_555
O12 C79 1_555 1_555
O13 C84 1_555 1_555
O14 C87 1_555 1_555
O15 C91 1_555 1_555
O16 C94 1_555 1_555
O17 C98 1_555 1_555
O18 C101 1_555 1_555
O19 C105 1_555 1_555
O20 C108 1_555 1_555
C1 C2 1_555 1_555
C2 C3 1_555 1_555
C3 H1 1_555 1_555
C4 C3 1_555 1_555
C5 C4 1_555 1_555
C6 C1 1_555 1_555
H2 C6 1_555 1_555
C7 C5 1_555 1_555
H3 C7 1_555 1_555
H4 C7 1_555 1_555
C8 C7 1_555 1_555
C9 C8 1_555 1_555
H5 C9 1_555 1_555
C10 C9 1_555 1_555
C11 C10 1_555 1_555
C12 C11 1_555 1_555
H6 C12 1_555 1_555
C13 C8 1_555 1_555
C14 C11 1_555 1_555
H7 C14 1_555 1_555
H8 C14 1_555 1_555
C15 C14 1_555 1_555
C16 C15 1_555 1_555
H9 C16 1_555 1_555
C17 C16 1_555 1_555
C18 C17 1_555 1_555
C19 C18 1_555 1_555
H10 C19 1_555 1_555
C20 C15 1_555 1_555
C21 C18 1_555 1_555
H11 C21 1_555 1_555
H12 C21 1_555 1_555
C22 C21 1_555 1_555
C23 C22 1_555 1_555
C24 C23 1_555 1_555
H13 C24 1_555 1_555
C25 C24 1_555 1_555
C26 C25 1_555 1_555
C27 C22 1_555 1_555
H14 C27 1_555 1_555
C28 C25 1_555 1_555
H15 C28 1_555 1_555
H16 C28 1_555 1_555
C29 C28 1_555 1_555
C30 C29 1_555 1_555
H17 C30 1_555 1_555
C31 C30 1_555 1_555
C32 C31 1_555 1_555
C33 C32 1_555 1_555
H18 C33 1_555 1_555
C34 C29 1_555 1_555
C35 C2 1_555 1_555
H19 C35 1_555 1_555
H20 C35 1_555 1_555
C36 O1 1_555 1_555
H21 C36 1_555 1_555
H22 C36 1_555 1_555
C37 C36 1_555 1_555
H23 C37 1_555 1_555
H24 C37 1_555 1_555
C38 C37 1_555 1_555
H25 C38 1_555 1_555
H26 C38 1_555 1_555
C39 C38 1_555 1_555
H27 C39 1_555 1_555
H28 C39 1_555 1_555
H29 C39 1_555 1_555
C40 O2 1_555 1_555
H30 C40 1_555 1_555
H31 C40 1_555 1_555
C41 C40 1_555 1_555
H32 C41 1_555 1_555
H33 C41 1_555 1_555
C42 C41 1_555 1_555
H34 C42 1_555 1_555
H35 C42 1_555 1_555
C43 C42 1_555 1_555
H36 C43 1_555 1_555
H37 C43 1_555 1_555
H38 C43 1_555 1_555
C44 O3 1_555 1_555
H39 C44 1_555 1_555
H40 C44 1_555 1_555
C45 C44 1_555 1_555
H41 C45 1_555 1_555
H42 C45 1_555 1_555
C46 C45 1_555 1_555
H43 C46 1_555 1_555
H44 C46 1_555 1_555
C47 C46 1_555 1_555
H45 C47 1_555 1_555
H46 C47 1_555 1_555
H47 C47 1_555 1_555
C48 O4 1_555 1_555
H48 C48 1_555 1_555
H49 C48 1_555 1_555
C49 C48 1_555 1_555
H50 C49 1_555 1_555
H51 C49 1_555 1_555
C50 C49 1_555 1_555
H52 C50 1_555 1_555
H53 C50 1_555 1_555
C51 C50 1_555 1_555
H54 C51 1_555 1_555
H55 C51 1_555 1_555
H56 C51 1_555 1_555
C52 O5 1_555 1_555
H57 C52 1_555 1_555
H58 C52 1_555 1_555
C53 C52 1_555 1_555
H59 C53 1_555 1_555
H60 C53 1_555 1_555
C54 C53 1_555 1_555
H61 C54 1_555 1_555
H62 C54 1_555 1_555
C55 C54 1_555 1_555
H63 C55 1_555 1_555
H64 C55 1_555 1_555
H65 C55 1_555 1_555
C56 O6 1_555 1_555
H66 C56 1_555 1_555
H67 C56 1_555 1_555
C57 C56 1_555 1_555
H68 C57 1_555 1_555
H69 C57 1_555 1_555
C58 C57 1_555 1_555
H70 C58 1_555 1_555
H71 C58 1_555 1_555
C59 C58 1_555 1_555
H72 C59 1_555 1_555
H73 C59 1_555 1_555
H74 C59 1_555 1_555
C60 O7 1_555 1_555
H75 C60 1_555 1_555
H76 C60 1_555 1_555
C61 C60 1_555 1_555
H77 C61 1_555 1_555
H78 C61 1_555 1_555
C62 C61 1_555 1_555
H79 C62 1_555 1_555
H80 C62 1_555 1_555
C63 C62 1_555 1_555
H81 C63 1_555 1_555
H82 C63 1_555 1_555
H83 C63 1_555 1_555
C64 O8 1_555 1_555
H84 C64 1_555 1_555
H85 C64 1_555 1_555
C65 C64 1_555 1_555
H86 C65 1_555 1_555
H87 C65 1_555 1_555
C66 C65 1_555 1_555
H88 C66 1_555 1_555
H89 C66 1_555 1_555
C67 C66 1_555 1_555
H90 C67 1_555 1_555
H91 C67 1_555 1_555
H92 C67 1_555 1_555
C68 O9 1_555 1_555
H93 C68 1_555 1_555
H94 C68 1_555 1_555
C69 C68 1_555 1_555
H95 C69 1_555 1_555
H96 C69 1_555 1_555
C70 C69 1_555 1_555
H97 C70 1_555 1_555
H98 C70 1_555 1_555
C71 C70 1_555 1_555
H99 C71 1_555 1_555
H100 C71 1_555 1_555
H101 C71 1_555 1_555
C72 O10 1_555 1_555
H102 C72 1_555 1_555
H103 C72 1_555 1_555
C73 C72 1_555 1_555
H104 C73 1_555 1_555
H105 C73 1_555 1_555
C74 C73 1_555 1_555
H106 C74 1_555 1_555
H107 C74 1_555 1_555
C75 C74 1_555 1_555
H108 C75 1_555 1_555
H109 C75 1_555 1_555
H110 C75 1_555 1_555
C76 C77 1_555 1_555
C77 H111 1_555 1_555
C78 C77 1_555 1_555
C79 C78 1_555 1_555
C80 C79 1_555 1_555
H112 C80 1_555 1_555
C81 C76 1_555 1_555
C82 C78 1_555 1_555
H113 C82 1_555 1_555
H114 C82 1_555 1_555
C83 C82 1_555 1_555
C84 C83 1_555 1_555
C85 C84 1_555 1_555
H115 C85 1_555 1_555
C86 C85 1_555 1_555
C87 C86 1_555 1_555
C88 C83 1_555 1_555
H116 C88 1_555 1_555
C89 C86 1_555 1_555
H117 C89 1_555 1_555
H118 C89 1_555 1_555
C90 C89 1_555 1_555
C91 C90 1_555 1_555
C92 C91 1_555 1_555
H119 C92 1_555 1_555
C93 C92 1_555 1_555
C94 C93 1_555 1_555
C95 C90 1_555 1_555
H120 C95 1_555 1_555
C96 C93 1_555 1_555
H121 C96 1_555 1_555
H122 C96 1_555 1_555
C97 C96 1_555 1_555
C98 C97 1_555 1_555
C99 C98 1_555 1_555
H123 C99 1_555 1_555
C100 C99 1_555 1_555
C101 C100 1_555 1_555
C102 C97 1_555 1_555
H124 C102 1_555 1_555
C103 C100 1_555 1_555
H125 C103 1_555 1_555
H126 C103 1_555 1_555
C104 C103 1_555 1_555
C105 C104 1_555 1_555
C106 C105 1_555 1_555
H127 C106 1_555 1_555
C107 C106 1_555 1_555
C108 C107 1_555 1_555
C109 C104 1_555 1_555
H128 C109 1_555 1_555
C110 C81 1_555 1_555
H129 C110 1_555 1_555
H130 C110 1_555 1_555
C111 O11 1_555 1_555
H131 C111 1_555 1_555
H132 C111 1_555 1_555
C112 C111 1_555 1_555
H133 C112 1_555 1_555
H134 C112 1_555 1_555
C113 C112 1_555 1_555
H135 C113 1_555 1_555
H136 C113 1_555 1_555
C114 C113 1_555 1_555
H137 C114 1_555 1_555
H138 C114 1_555 1_555
H139 C114 1_555 1_555
C115 O12 1_555 1_555
H140 C115 1_555 1_555
H141 C115 1_555 1_555
C116 C115 1_555 1_555
H142 C116 1_555 1_555
H143 C116 1_555 1_555
C117 C116 1_555 1_555
H144 C117 1_555 1_555
H145 C117 1_555 1_555
C118 C117 1_555 1_555
H146 C118 1_555 1_555
H147 C118 1_555 1_555
H148 C118 1_555 1_555
C119 O13 1_555 1_555
H149 C119 1_555 1_555
H150 C119 1_555 1_555
C120 C119 1_555 1_555
H151 C120 1_555 1_555
H152 C120 1_555 1_555
C121 C120 1_555 1_555
H153 C121 1_555 1_555
H154 C121 1_555 1_555
C122 C121 1_555 1_555
H155 C122 1_555 1_555
H156 C122 1_555 1_555
H157 C122 1_555 1_555
C123 O14 1_555 1_555
H158 C123 1_555 1_555
H159 C123 1_555 1_555
C124 C123 1_555 1_555
H160 C124 1_555 1_555
H161 C124 1_555 1_555
C125 C124 1_555 1_555
H162 C125 1_555 1_555
H163 C125 1_555 1_555
C126 C125 1_555 1_555
H164 C126 1_555 1_555
H165 C126 1_555 1_555
H166 C126 1_555 1_555
C127 O15 1_555 1_555
H167 C127 1_555 1_555
H168 C127 1_555 1_555
C128 C127 1_555 1_555
H169 C128 1_555 1_555
H170 C128 1_555 1_555
C129 C128 1_555 1_555
H171 C129 1_555 1_555
H172 C129 1_555 1_555
C130 C129 1_555 1_555
H173 C130 1_555 1_555
H174 C130 1_555 1_555
H175 C130 1_555 1_555
C131 O16 1_555 1_555
H176 C131 1_555 1_555
H177 C131 1_555 1_555
C132 C131 1_555 1_555
H178 C132 1_555 1_555
H179 C132 1_555 1_555
C133 C132 1_555 1_555
H180 C133 1_555 1_555
H181 C133 1_555 1_555
C134 C133 1_555 1_555
H182 C134 1_555 1_555
H183 C134 1_555 1_555
H184 C134 1_555 1_555
C135 O17 1_555 1_555
H185 C135 1_555 1_555
H186 C135 1_555 1_555
C136 C135 1_555 1_555
H187 C136 1_555 1_555
H188 C136 1_555 1_555
C137 C136 1_555 1_555
H189 C137 1_555 1_555
H190 C137 1_555 1_555
C138 C137 1_555 1_555
H191 C138 1_555 1_555
H192 C138 1_555 1_555
H193 C138 1_555 1_555
C139 O18 1_555 1_555
H194 C139 1_555 1_555
H195 C139 1_555 1_555
C140 C139 1_555 1_555
H196 C140 1_555 1_555
H197 C140 1_555 1_555
C141 C140 1_555 1_555
H198 C141 1_555 1_555
H199 C141 1_555 1_555
C142 C141 1_555 1_555
H200 C142 1_555 1_555
H201 C142 1_555 1_555
H202 C142 1_555 1_555
C143 O19 1_555 1_555
H203 C143 1_555 1_555
H204 C143 1_555 1_555
C144 C143 1_555 1_555
H205 C144 1_555 1_555
H206 C144 1_555 1_555
C145 C144 1_555 1_555
H207 C145 1_555 1_555
H208 C145 1_555 1_555
C146 C145 1_555 1_555
H209 C146 1_555 1_555
H210 C146 1_555 1_555
H211 C146 1_555 1_555
C147 O20 1_555 1_555
H212 C147 1_555 1_555
H213 C147 1_555 1_555
C148 C147 1_555 1_555
H214 C148 1_555 1_555
H215 C148 1_555 1_555
C149 C148 1_555 1_555
H216 C149 1_555 1_555
H217 C149 1_555 1_555
C150 C149 1_555 1_555
H218 C150 1_555 1_555
H219 C150 1_555 1_555
H220 C150 1_555 1_555
I2 C151 1_555 1_555
I3 C154 1_555 1_555
C151 H221 1_555 1_555
H222 C151 1_555 1_555
C152 C151 1_555 1_555
H223 C152 1_555 1_555
H224 C152 1_555 1_555
C153 C152 1_555 1_555
H225 C153 1_555 1_555
H226 C153 1_555 1_555
C154 C153 1_555 1_555
H227 C154 1_555 1_555
H228 C154 1_555 1_555
I4 C158 1_555 1_555
C155 H229 1_555 1_555
H230 C155 1_555 1_555
C156 C155 1_555 1_555
H231 C156 1_555 1_555
H232 C156 1_555 1_555
C157 C156 1_555 1_555
H233 C157 1_555 1_555
H234 C157 1_555 1_555
C158 C157 1_555 1_555
H235 C158 1_555 1_555
H236 C158 1_555 1_555
C5 C6 1_555 1_555
C12 C13 1_555 1_555
C19 C20 1_555 1_555
C26 C27 1_555 1_555
C32 C35 1_555 1_555
C33 C34 1_555 1_555
C80 C81 1_555 1_555
C87 C88 1_555 1_555
C94 C95 1_555 1_555
C101 C102 1_555 1_555
C107 C110 1_555 1_555
C108 C109 1_555 1_555

#END
