
#######################################################################
#
#                 Cambridge Crystallographic Data Centre
#                                CCDC 
#
#######################################################################
#
# If this CIF has been generated from an entry in the Cambridge 
# Structural Database, then it will include bibliographic, chemical, 
# crystal, experimental, refinement or atomic coordinate data resulting 
# from the CCDC's data processing and validation procedures.
#
#######################################################################

data_CAVDIP
_chemical_formula_moiety         'C14 H10 Br1 N3 O3'
_chemical_name_systematic        
5-(4-(4-bromophenyl)-1H-pyrrol-3-yl)-3-methyl-4-nitro-1,2-oxazole
_symmetry_cell_setting           orthorhombic
_symmetry_space_group_name_H-M   'P 21 21 21'
_symmetry_Int_Tables_number      19
_space_group_name_Hall           'P 2ac 2ab'
loop_
_symmetry_equiv_pos_site_id
_symmetry_equiv_pos_as_xyz
1 x,y,z
2 1/2-x,-y,1/2+z
3 1/2+x,1/2-y,-z
4 -x,1/2+y,1/2-z
_cell_length_a                   7.6080(11)
_cell_length_b                   7.7910(11)
_cell_length_c                   23.078(3)
_cell_angle_alpha                90
_cell_angle_beta                 90
_cell_angle_gamma                90
_cell_volume                     1367.92
_exptl_crystal_colour            colorless
_exptl_crystal_description       block
_cell_formula_units_Z            4
loop_
_atom_site_label
_atom_site_type_symbol
_atom_site_fract_x
_atom_site_fract_y
_atom_site_fract_z
Br1 Br 0.11788(13) -0.18840(11) 0.06798(4)
O1 O 0.3593(9) -0.4832(6) -0.18103(19)
C1 C 0.2859(11) -0.6261(9) -0.2030(3)
O2 O 0.0632(9) -0.6226(8) -0.3388(2)
N1 N 0.3497(10) -0.3471(8) -0.2211(3)
N2 N 0.1322(10) -0.6917(9) -0.2959(3)
O3 O 0.1243(11) -0.8441(7) -0.2870(2)
C2 C 0.2305(11) -0.6348(9) -0.0637(3)
C3 C 0.1222(11) -0.4955(8) -0.0771(3)
H1 H 0.0688 -0.4920 -0.1134
C4 C 0.2815(10) -0.7732(9) -0.1661(3)
N3 N 0.3121(10) -1.0405(9) -0.1353(3)
C5 C 0.2683(12) -0.4098(11) -0.2661(3)
C6 C 0.2711(11) -0.7762(9) -0.1031(3)
C7 C 0.1633(12) -0.3697(9) 0.0154(3)
C8 C 0.0912(12) -0.3630(9) -0.0388(3)
H2 H 0.0221 -0.2700 -0.0498
C9 C 0.3053(12) -0.6338(9) -0.0073(3)
H3 H 0.3787 -0.7232 0.0040
C10 C 0.2709(12) -0.5026(10) 0.0310(3)
H4 H 0.3212 -0.5042 0.0677
C11 C 0.2282(11) -0.5843(9) -0.2571(3)
C12 C 0.2379(14) -0.2954(12) -0.3174(3)
H5 H 0.2826 -0.1828 -0.3093
H6 H 0.1142 -0.2886 -0.3253
H7 H 0.2975 -0.3418 -0.3506
C13 C 0.2889(12) -0.9435(10) -0.0872(4)
H8 H 0.2857 -0.9847 -0.0494
C14 C 0.3078(13) -0.9422(10) -0.1829(4)
H9 H 0.3204 -0.9807 -0.2208
H10 H 0.315(10) -1.173(10) -0.138(3)
loop_
_geom_bond_atom_site_label_1
_geom_bond_atom_site_label_2
_geom_bond_site_symmetry_1
_geom_bond_site_symmetry_2
Br1 C7 1_555 1_555
O1 C1 1_555 1_555
C1 C4 1_555 1_555
O2 N2 1_555 1_555
N1 O1 1_555 1_555
N2 O3 1_555 1_555
C2 C3 1_555 1_555
C3 H1 1_555 1_555
C4 C6 1_555 1_555
N3 C13 1_555 1_555
C5 N1 1_555 1_555
C6 C2 1_555 1_555
C7 C8 1_555 1_555
C8 C3 1_555 1_555
H2 C8 1_555 1_555
C9 C2 1_555 1_555
H3 C9 1_555 1_555
C10 C7 1_555 1_555
H4 C10 1_555 1_555
C11 C1 1_555 1_555
C12 C5 1_555 1_555
H5 C12 1_555 1_555
H6 C12 1_555 1_555
H7 C12 1_555 1_555
C13 C6 1_555 1_555
H8 C13 1_555 1_555
C14 C4 1_555 1_555
H9 C14 1_555 1_555
H10 N3 1_555 1_555
N2 C11 1_555 1_555
N3 C14 1_555 1_555
C5 C11 1_555 1_555
C9 C10 1_555 1_555

#END
