
#######################################################################
#
#                 Cambridge Crystallographic Data Centre
#                                CCDC 
#
#######################################################################
#
# If this CIF has been generated from an entry in the Cambridge 
# Structural Database, then it will include bibliographic, chemical, 
# crystal, experimental, refinement or atomic coordinate data resulting 
# from the CCDC's data processing and validation procedures.
#
#######################################################################

data_CAVHAJ
_chemical_compound_source        'fruits of Idesia polycarpa Maxim'
_chemical_name_common            
"Dimethyl (2S*,2'R*,3aR*,7aS*)-2',7a-dihydroxy-6,7,3a,7a-tetrahydrospiro(1,3-benzodioxole-2,1'-cyclohex-3-ene)-2',3a-dicarboxylate"
_chemical_formula_moiety         'C16 H20 O8'
_chemical_name_systematic        Idesolide
_chemical_properties_biological  
'seeds used as an insecticide and the leaves are known to have hemostatic activity'
_symmetry_cell_setting           orthorhombic
_symmetry_space_group_name_H-M   'P 21 21 21'
_symmetry_Int_Tables_number      19
_space_group_name_Hall           'P 2ac 2ab'
loop_
_symmetry_equiv_pos_site_id
_symmetry_equiv_pos_as_xyz
1 x,y,z
2 1/2-x,-y,1/2+z
3 -x,1/2+y,1/2-z
4 1/2+x,1/2-y,-z
_cell_length_a                   7.3062(5)
_cell_length_b                   11.4421(8)
_cell_length_c                   19.1006(8)
_cell_angle_alpha                90
_cell_angle_beta                 90
_cell_angle_gamma                90
_cell_volume                     1596.78
_exptl_crystal_colour            colorless
_exptl_crystal_description       Hexahedron
_chemical_melting_point          '141.0-143.0 deg.C'
_cell_formula_units_Z            4
loop_
_atom_site_label
_atom_site_type_symbol
_atom_site_fract_x
_atom_site_fract_y
_atom_site_fract_z
O1 O 0.0981(4) 1.1868(2) 0.06188(13)
O2 O 0.3090(5) 1.1336(3) 0.13979(16)
O3 O 0.2745(4) 0.9315(2) 0.02570(13)
O4 O 0.1182(4) 0.9424(2) 0.17472(10)
O5 O 0.0853(3) 0.8068(2) 0.08810(10)
O6 O 0.4357(4) 0.8026(3) 0.13464(12)
O7 O 0.2501(4) 0.8022(3) 0.30688(12)
O8 O 0.5009(5) 0.8788(3) 0.25821(15)
C1 C 0.1907(8) 1.2955(4) 0.0519(2)
H1 H 0.2069 1.3334 0.0963
H2 H 0.1194 1.3447 0.0217
H3 H 0.3082 1.2815 0.0310
C2 C 0.1705(6) 1.1144(3) 0.10753(19)
C3 C 0.0559(5) 1.0038(3) 0.11325(16)
C4 C -0.1430(6) 1.0318(3) 0.12069(18)
H4 H -0.1782 1.0812 0.1570
C5 C -0.2725(6) 0.9906(4) 0.07874(19)
H5 H -0.3931 1.0126 0.0872
C6 C -0.2349(6) 0.9108(4) 0.0187(2)
H6 H -0.3160 0.9301 -0.0198
H7 H -0.2596 0.8309 0.0326
C7 C -0.0368(6) 0.9209(3) -0.00569(17)
H8 H -0.0107 0.8578 -0.0381
H9 H -0.0213 0.9940 -0.0306
C8 C 0.0974(5) 0.9161(3) 0.05323(17)
C9 C 0.1103(5) 0.8203(3) 0.16218(16)
C10 C -0.0489(6) 0.7611(4) 0.19788(18)
H10 H -0.1625 0.7960 0.1820
H11 H -0.0400 0.7728 0.2481
C11 C -0.0507(7) 0.6309(4) 0.1819(2)
H12 H -0.1339 0.5919 0.2139
H13 H -0.0954 0.6187 0.1347
C12 C 0.1358(8) 0.5782(4) 0.18880(19)
H14 H 0.1437 0.4973 0.1924
C13 C 0.2896(7) 0.6383(4) 0.19005(19)
H15 H 0.3990 0.5974 0.1946
C14 C 0.2985(5) 0.7699(3) 0.18447(18)
C15 C 0.3620(6) 0.8235(4) 0.2539(2)
C16 C 0.3070(8) 0.8484(4) 0.3743(2)
H16 H 0.4210 0.8132 0.3877
H17 H 0.2154 0.8309 0.4088
H18 H 0.3221 0.9315 0.3708
loop_
_geom_bond_atom_site_label_1
_geom_bond_atom_site_label_2
_geom_bond_site_symmetry_1
_geom_bond_site_symmetry_2
O1 C1 1_555 1_555
O2 C2 1_555 1_555
O3 C8 1_555 1_555
O4 C3 1_555 1_555
O5 C8 1_555 1_555
O6 C14 1_555 1_555
O7 C15 1_555 1_555
O8 C15 1_555 1_555
C1 H1 1_555 1_555
H2 C1 1_555 1_555
H3 C1 1_555 1_555
C2 O1 1_555 1_555
C3 C2 1_555 1_555
C4 C3 1_555 1_555
H4 C4 1_555 1_555
C5 C4 1_555 1_555
H5 C5 1_555 1_555
C6 C5 1_555 1_555
H6 C6 1_555 1_555
H7 C6 1_555 1_555
C7 C6 1_555 1_555
H8 C7 1_555 1_555
H9 C7 1_555 1_555
C8 C3 1_555 1_555
C9 O4 1_555 1_555
C10 C9 1_555 1_555
H10 C10 1_555 1_555
H11 C10 1_555 1_555
C11 C10 1_555 1_555
H12 C11 1_555 1_555
H13 C11 1_555 1_555
C12 C11 1_555 1_555
H14 C12 1_555 1_555
C13 C12 1_555 1_555
H15 C13 1_555 1_555
C14 C9 1_555 1_555
C15 C14 1_555 1_555
C16 O7 1_555 1_555
H16 C16 1_555 1_555
H17 C16 1_555 1_555
H18 C16 1_555 1_555
O5 C9 1_555 1_555
C7 C8 1_555 1_555
C13 C14 1_555 1_555

#END
