
#######################################################################
#
#                 Cambridge Crystallographic Data Centre
#                                CCDC 
#
#######################################################################
#
# If this CIF has been generated from an entry in the Cambridge 
# Structural Database, then it will include bibliographic, chemical, 
# crystal, experimental, refinement or atomic coordinate data resulting 
# from the CCDC's data processing and validation procedures.
#
#######################################################################

data_CAVHIR
_chemical_compound_source        'leaves and stems of Kadsura philippinensis'
_chemical_formula_moiety         'C30 H42 O5,0.5(H2 O1)'
_chemical_name_systematic        'Kadsuphilactone B hemihydrate'
_chemical_properties_biological  
'antihepatitis activity and inhibits cholesterol biosynthesis'
_symmetry_cell_setting           monoclinic
_symmetry_space_group_name_H-M   'P 21'
_symmetry_Int_Tables_number      4
_space_group_name_Hall           'P 2yb'
loop_
_symmetry_equiv_pos_site_id
_symmetry_equiv_pos_as_xyz
1 x,y,z
2 -x,1/2+y,-z
_cell_length_a                   15.305(2)
_cell_length_b                   11.735(3)
_cell_length_c                   15.339(3)
_cell_angle_alpha                90
_cell_angle_beta                 106.938(13)
_cell_angle_gamma                90
_cell_volume                     2635.44
_exptl_crystal_colour            colorless
_exptl_crystal_description       prism
_chemical_melting_point          '167 deg.C'
_cell_formula_units_Z            4
loop_
_atom_site_label
_atom_site_type_symbol
_atom_site_fract_x
_atom_site_fract_y
_atom_site_fract_z
O1 O 0.1491(2) -0.0515(5) 0.7661(2)
O2 O 0.26506(16) -0.0542(3) 0.88695(18)
O3 O 0.91492(19) 0.1556(3) 0.7842(2)
O4 O 1.08700(19) 0.1347(3) 0.5716(2)
O5 O 0.97735(17) 0.1073(2) 0.63436(19)
C1 C 0.3612(3) 0.0770(4) 0.7616(3)
H1 H 0.3717 0.1243 0.7171
C2 C 0.2740(3) 0.0498(4) 0.7496(3)
H2 H 0.2344 0.0827 0.6979
C3 C 0.2275(3) -0.0206(5) 0.8007(3)
C4 C 0.3577(2) -0.0270(3) 0.9456(2)
C5 C 0.4291(2) -0.0539(3) 0.8950(2)
H3 H 0.4038 -0.1173 0.8538
C6 C 0.5073(2) 0.1423(3) 0.8746(3)
H4 H 0.4891 0.2180 0.8507
H5 H 0.5389 0.1399 0.9393
C7 C 0.5849(3) -0.1261(4) 0.9033(3)
H6 H 0.5546 -0.1769 0.8539
H7 H 0.6374 -0.1658 0.9423
C8 C 0.6168(2) -0.0199(3) 0.8644(2)
H8 H 0.6540 0.0232 0.9169
C9 C 0.5368(2) 0.0603(3) 0.8146(2)
C10 C 0.4434(2) 0.0436(3) 0.8343(2)
C11 C 0.5353(3) 0.1019(4) 0.7192(3)
H9 H 0.5039 0.1747 0.7089
H10 H 0.4985 0.0487 0.6751
C12 C 0.6337(3) -0.1304(4) 0.7283(3)
H11 H 0.6158 -0.1983 0.7536
H12 H 0.6758 -0.1498 0.6950
H13 H 0.5807 -0.0949 0.6881
C13 C 0.7101(2) 0.0659(3) 0.7689(2)
C14 C 0.6798(2) -0.0475(3) 0.8057(2)
C15 C 0.7712(2) -0.1003(4) 0.8596(3)
H14 H 0.7661 -0.1825 0.8625
H15 H 0.7910 -0.0703 0.9211
C16 C 0.8389(3) -0.0669(4) 0.8068(3)
H16 H 0.8562 -0.1335 0.7782
H17 H 0.8936 -0.0337 0.8478
C17 C 0.7902(2) 0.0207(3) 0.7339(3)
H18 H 0.7607 -0.0245 0.6795
C18 C 0.7452(3) 0.1545(4) 0.8453(3)
H19 H 0.7634 0.2224 0.8202
H20 H 0.7966 0.1237 0.8911
H21 H 0.6974 0.1726 0.8720
C19 C 0.5195(2) -0.0964(4) 0.9578(3)
H22 H 0.5465 -0.0379 1.0022
H23 H 0.5089 -0.1633 0.9905
C20 C 0.8568(3) 0.1001(4) 0.7051(3)
C21 C 0.8078(3) 0.1910(4) 0.6388(4)
H24 H 0.7695 0.2349 0.6658
H25 H 0.7709 0.1555 0.5840
H26 H 0.8519 0.2402 0.6245
C22 C 0.9195(2) 0.0268(4) 0.6651(3)
H27 H 0.9588 -0.0189 0.7146
C23 C 0.8743(3) -0.0525(4) 0.5875(3)
H28 H 0.8417 -0.1120 0.6089
H29 H 0.8307 -0.0105 0.5397
C24 C 0.9455(3) -0.1040(4) 0.5510(3)
H30 H 0.9356 -0.1762 0.5250
C25 C 1.0230(3) -0.0498(4) 0.5545(3)
C26 C 1.0336(3) 0.0683(4) 0.5876(3)
C27 C 1.0969(3) -0.0964(5) 0.5183(3)
H31 H 1.0824 -0.1736 0.4984
H32 H 1.1541 -0.0948 0.5655
H33 H 1.1014 -0.0508 0.4678
C28 C 0.6278(3) 0.1168(4) 0.6976(3)
H34 H 0.6230 0.0816 0.6392
H35 H 0.6387 0.1976 0.6920
C29 C 0.3587(3) 0.0942(4) 0.9794(3)
H36 H 0.3127 0.1030 1.0101
H37 H 0.3465 0.1457 0.9286
H38 H 0.4176 0.1109 1.0209
C30 C 0.3638(3) -0.1092(4) 1.0239(3)
H39 H 0.3187 -0.0894 1.0536
H40 H 0.4235 -0.1045 1.0668
H41 H 0.3531 -0.1855 1.0006
O6 O 0.3185(2) 0.0184(6) 1.2413(3)
O7 O 0.20057(18) -0.0141(3) 1.1279(2)
O8 O -0.4551(2) 0.1411(3) 1.2187(2)
O9 O -0.6237(2) 0.1701(3) 1.4357(2)
O10 O -0.51519(17) 0.1267(2) 1.37530(18)
C31 C 0.0986(3) 0.1139(4) 1.2494(3)
H42 H 0.0851 0.1643 1.2904
C32 C 0.1873(3) 0.1011(5) 1.2585(3)
H43 H 0.2248 0.1450 1.3050
C33 C 0.2373(3) 0.0319(5) 1.2101(3)
C34 C 0.1039(2) -0.0092(4) 1.0727(3)
C35 C 0.0427(2) -0.0399(3) 1.1343(2)
H44 H 0.0796 -0.0909 1.1814
C36 C -0.0564(3) 0.1450(4) 1.1378(3)
H45 H -0.0467 0.2249 1.1540
H46 H -0.0889 0.1310 1.0743
C37 C -0.0987(3) -0.1368(4) 1.1467(3)
H47 H -0.1453 -0.1920 1.1177
H48 H -0.0602 -0.1704 1.2024
C38 C -0.1439(2) -0.0303(3) 1.1694(2)
H49 H -0.1835 -0.0023 1.1111
C39 C -0.0747(2) 0.0666(3) 1.2069(2)
C40 C 0.0192(2) 0.0612(3) 1.1849(3)
C41 C -0.0741(2) 0.1176(4) 1.2995(3)
H50 H -0.0455 0.1920 1.3050
H51 H -0.0360 0.0698 1.3472
C42 C -0.1579(3) -0.1195(4) 1.3146(3)
H52 H -0.1357 -0.1898 1.2971
H53 H -0.1997 -0.1353 1.3491
H54 H -0.1074 -0.0757 1.3511
C43 C -0.2453(2) 0.0642(3) 1.2519(2)
C44 C -0.2072(2) -0.0515(3) 1.2288(2)
C45 C -0.2949(3) -0.1175(4) 1.1801(3)
H55 H -0.3161 -0.0974 1.1160
H56 H -0.2844 -0.1991 1.1854
C46 C -0.3642(3) -0.0811(4) 1.2292(3)
H57 H -0.3757 -0.1435 1.2659
H58 H -0.4215 -0.0600 1.1852
C47 C -0.3240(2) 0.0216(3) 1.2904(2)
H59 H -0.2934 -0.0106 1.3505
C48 C -0.2839(3) 0.1375(4) 1.1659(3)
H60 H -0.2348 0.1622 1.1432
H61 H -0.3146 0.2028 1.1808
H62 H -0.3264 0.0932 1.1200
C49 C -0.0412(3) -0.1092(4) 1.0832(3)
H63 H -0.0774 -0.0661 1.0312
H64 H -0.0220 -0.1794 1.0608
C50 C -0.3964(3) 0.1031(4) 1.3054(3)
C51 C -0.3531(3) 0.2081(4) 1.3604(4)
H65 H -0.3144 0.2458 1.3301
H66 H -0.3173 0.1849 1.4202
H67 H -0.4002 0.2594 1.3655
C52 C -0.4587(3) 0.0382(3) 1.3518(3)
H68 H -0.4990 -0.0113 1.3059
C53 C -0.4163(3) -0.0328(4) 1.4346(3)
H69 H -0.3744 0.0129 1.4810
H70 H -0.3826 -0.0957 1.4190
C54 C -0.4920(3) -0.0774(4) 1.4697(3)
H71 H -0.4843 -0.1467 1.5004
C55 C -0.5696(3) -0.0196(4) 1.4578(3)
C56 C -0.5738(3) 0.0976(4) 1.4219(3)
C57 C -0.6504(3) -0.0581(5) 1.4866(4)
H72 H -0.6409 -0.1350 1.5086
H73 H -0.7044 -0.0547 1.4354
H74 H -0.6578 -0.0092 1.5341
C58 C -0.1677(3) 0.1312(4) 1.3174(3)
H75 H -0.1621 0.1065 1.3792
H76 H -0.1839 0.2113 1.3132
C59 C 0.0860(3) 0.1073(4) 1.0271(3)
H77 H 0.1262 0.1184 0.9901
H78 H 0.0969 0.1656 1.0730
H79 H 0.0238 0.1114 0.9896
C60 C 0.1023(3) -0.1005(5) 1.0022(3)
H80 H 0.1410 -0.0779 0.9660
H81 H 0.0410 -0.1103 0.9636
H82 H 0.1241 -0.1710 1.0325
O11 O -0.7397(3) 0.2328(5) 1.5437(3)
loop_
_geom_bond_atom_site_label_1
_geom_bond_atom_site_label_2
_geom_bond_site_symmetry_1
_geom_bond_site_symmetry_2
O1 C3 1_555 1_555
O2 C3 1_555 1_555
O3 C20 1_555 1_555
O4 C26 1_555 1_555
O5 C22 1_555 1_555
O6 C33 1_555 1_555
O7 C33 1_555 1_555
O8 C50 1_555 1_555
O9 C56 1_555 1_555
O10 C52 1_555 1_555
C1 H1 1_555 1_555
C2 C1 1_555 1_555
H2 C2 1_555 1_555
C3 C2 1_555 1_555
C4 O2 1_555 1_555
C5 C4 1_555 1_555
H3 C5 1_555 1_555
C6 H4 1_555 1_555
H5 C6 1_555 1_555
C7 H6 1_555 1_555
H7 C7 1_555 1_555
C8 C7 1_555 1_555
H8 C8 1_555 1_555
C9 C6 1_555 1_555
C10 C1 1_555 1_555
C11 C9 1_555 1_555
H9 C11 1_555 1_555
H10 C11 1_555 1_555
C12 H11 1_555 1_555
H12 C12 1_555 1_555
H13 C12 1_555 1_555
C13 C14 1_555 1_555
C14 C8 1_555 1_555
C15 C14 1_555 1_555
H14 C15 1_555 1_555
H15 C15 1_555 1_555
C16 C15 1_555 1_555
H16 C16 1_555 1_555
H17 C16 1_555 1_555
C17 C13 1_555 1_555
H18 C17 1_555 1_555
C18 C13 1_555 1_555
H19 C18 1_555 1_555
H20 C18 1_555 1_555
H21 C18 1_555 1_555
C19 C5 1_555 1_555
H22 C19 1_555 1_555
H23 C19 1_555 1_555
C20 C17 1_555 1_555
C21 C20 1_555 1_555
H24 C21 1_555 1_555
H25 C21 1_555 1_555
H26 C21 1_555 1_555
C22 C20 1_555 1_555
H27 C22 1_555 1_555
C23 C22 1_555 1_555
H28 C23 1_555 1_555
H29 C23 1_555 1_555
C24 C23 1_555 1_555
H30 C24 1_555 1_555
C25 C24 1_555 1_555
C26 O5 1_555 1_555
C27 C25 1_555 1_555
H31 C27 1_555 1_555
H32 C27 1_555 1_555
H33 C27 1_555 1_555
C28 C11 1_555 1_555
H34 C28 1_555 1_555
H35 C28 1_555 1_555
C29 C4 1_555 1_555
H36 C29 1_555 1_555
H37 C29 1_555 1_555
H38 C29 1_555 1_555
C30 C4 1_555 1_555
H39 C30 1_555 1_555
H40 C30 1_555 1_555
H41 C30 1_555 1_555
C31 H42 1_555 1_555
C32 C31 1_555 1_555
H43 C32 1_555 1_555
C33 C32 1_555 1_555
C34 O7 1_555 1_555
C35 C34 1_555 1_555
H44 C35 1_555 1_555
C36 H45 1_555 1_555
H46 C36 1_555 1_555
C37 H47 1_555 1_555
H48 C37 1_555 1_555
C38 C37 1_555 1_555
H49 C38 1_555 1_555
C39 C36 1_555 1_555
C40 C31 1_555 1_555
C41 C39 1_555 1_555
H50 C41 1_555 1_555
H51 C41 1_555 1_555
C42 H52 1_555 1_555
H53 C42 1_555 1_555
H54 C42 1_555 1_555
C43 C44 1_555 1_555
C44 C38 1_555 1_555
C45 C44 1_555 1_555
H55 C45 1_555 1_555
H56 C45 1_555 1_555
C46 C45 1_555 1_555
H57 C46 1_555 1_555
H58 C46 1_555 1_555
C47 C43 1_555 1_555
H59 C47 1_555 1_555
C48 C43 1_555 1_555
H60 C48 1_555 1_555
H61 C48 1_555 1_555
H62 C48 1_555 1_555
C49 C35 1_555 1_555
H63 C49 1_555 1_555
H64 C49 1_555 1_555
C50 C47 1_555 1_555
C51 C50 1_555 1_555
H65 C51 1_555 1_555
H66 C51 1_555 1_555
H67 C51 1_555 1_555
C52 C50 1_555 1_555
H68 C52 1_555 1_555
C53 C52 1_555 1_555
H69 C53 1_555 1_555
H70 C53 1_555 1_555
C54 C53 1_555 1_555
H71 C54 1_555 1_555
C55 C54 1_555 1_555
C56 O10 1_555 1_555
C57 C55 1_555 1_555
H72 C57 1_555 1_555
H73 C57 1_555 1_555
H74 C57 1_555 1_555
C58 C41 1_555 1_555
H75 C58 1_555 1_555
H76 C58 1_555 1_555
C59 C34 1_555 1_555
H77 C59 1_555 1_555
H78 C59 1_555 1_555
H79 C59 1_555 1_555
C60 C34 1_555 1_555
H80 C60 1_555 1_555
H81 C60 1_555 1_555
H82 C60 1_555 1_555
C5 C10 1_555 1_555
C6 C10 1_555 1_555
C7 C19 1_555 1_555
C8 C9 1_555 1_555
C9 C10 1_555 1_555
C12 C14 1_555 1_555
C13 C28 1_555 1_555
C16 C17 1_555 1_555
C25 C26 1_555 1_555
C35 C40 1_555 1_555
C36 C40 1_555 1_555
C37 C49 1_555 1_555
C38 C39 1_555 1_555
C39 C40 1_555 1_555
C42 C44 1_555 1_555
C43 C58 1_555 1_555
C46 C47 1_555 1_555
C55 C56 1_555 1_555

#END
