
#######################################################################
#
#                 Cambridge Crystallographic Data Centre
#                                CCDC 
#
#######################################################################
#
# If this CIF has been generated from an entry in the Cambridge 
# Structural Database, then it will include bibliographic, chemical, 
# crystal, experimental, refinement or atomic coordinate data resulting 
# from the CCDC's data processing and validation procedures.
#
#######################################################################

data_CAVLOD
_chemical_formula_moiety         'C41 H41 B1 O1 P3 1+,As1 F6 1-'
_chemical_name_systematic        
'5-[(diphenylphosphoryl)methyl]-5-methyl-1,1,3,3-tetraphenyl-1,3,2-diphosphaborinan-2-ium hexafluoroarsenate'
_symmetry_cell_setting           monoclinic
_symmetry_space_group_name_H-M   'P 21/n'
_symmetry_Int_Tables_number      14
_space_group_name_Hall           '-P 2yn'
loop_
_symmetry_equiv_pos_site_id
_symmetry_equiv_pos_as_xyz
1 x,y,z
2 1/2-x,1/2+y,1/2-z
3 -x,-y,-z
4 1/2+x,1/2-y,1/2+z
_cell_length_a                   12.7639(3)
_cell_length_b                   21.4218(5)
_cell_length_c                   14.4115(2)
_cell_angle_alpha                90
_cell_angle_beta                 95.4493(13)
_cell_angle_gamma                90
_cell_volume                     3922.67
_exptl_crystal_colour            colorless
_exptl_crystal_description       prism
_cell_formula_units_Z            4
loop_
_atom_site_label
_atom_site_type_symbol
_atom_site_fract_x
_atom_site_fract_y
_atom_site_fract_z
As1 As 0.38114(4) 0.60629(2) 1.20550(3)
F1 F 0.4260(4) 0.57004(19) 1.1146(2)
F2 F 0.3663(3) 0.67193(18) 1.1412(3)
F3 F 0.5095(2) 0.62527(16) 1.2416(2)
F4 F 0.3434(3) 0.6425(2) 1.3002(3)
F5 F 0.4007(3) 0.54087(16) 1.2711(2)
F6 F 0.2566(3) 0.5882(2) 1.1735(3)
B1 B 0.6197(4) 0.7580(2) 0.8040(3)
O1 O 0.2471(2) 0.64311(13) 0.8247(2)
P1 P 0.29297(8) 0.58015(5) 0.81502(7)
P2 P 0.63290(8) 0.67940(5) 0.74226(6)
P3 P 0.56337(8) 0.74600(5) 0.92211(7)
C1 C 0.4212(3) 0.56940(17) 0.8802(2)
C2 C 0.5287(3) 0.62731(17) 0.7708(2)
C3 C 0.4710(3) 0.68124(17) 0.9166(2)
C4 C 0.5090(3) 0.61918(16) 0.8743(2)
C5 C 0.6078(3) 0.59431(19) 0.9321(3)
C6 C 0.3080(3) 0.56016(17) 0.6946(3)
C7 C 0.2661(3) 0.60122(18) 0.6253(3)
C8 C 0.2814(3) 0.5896(2) 0.5327(3)
C9 C 0.3363(3) 0.5381(2) 0.5089(3)
C10 C 0.3764(3) 0.4969(2) 0.5765(3)
C11 C 0.3625(3) 0.50789(18) 0.6694(3)
C12 C 0.2151(3) 0.51877(18) 0.8603(3)
C13 C 0.1685(3) 0.47103(19) 0.8055(3)
C14 C 0.1032(3) 0.4285(2) 0.8427(4)
C15 C 0.0852(3) 0.4315(2) 0.9348(4)
C16 C 0.1317(3) 0.4779(3) 0.9899(4)
C17 C 0.1954(3) 0.5220(2) 0.9529(3)
C18 C 0.6087(3) 0.69436(17) 0.6187(3)
C19 C 0.6485(3) 0.7481(2) 0.5820(3)
C20 C 0.6305(3) 0.7611(2) 0.4875(3)
C21 C 0.5711(3) 0.7203(2) 0.4303(3)
C22 C 0.5299(3) 0.6671(2) 0.4656(3)
C23 C 0.5499(3) 0.65367(19) 0.5596(3)
C24 C 0.7591(3) 0.64098(18) 0.7565(2)
C25 C 0.8498(3) 0.6769(2) 0.7711(3)
C26 C 0.9478(4) 0.6484(3) 0.7731(3)
C27 C 0.9552(4) 0.5852(3) 0.7613(3)
C28 C 0.8658(4) 0.5491(2) 0.7467(2)
C29 C 0.7680(3) 0.5770(2) 0.7437(2)
C30 C 0.4892(3) 0.81517(18) 0.9442(2)
C31 C 0.3999(3) 0.8143(2) 0.9918(3)
C32 C 0.3474(4) 0.8694(2) 1.0071(3)
C33 C 0.3831(4) 0.9247(2) 0.9771(3)
C34 C 0.4712(4) 0.9267(2) 0.9285(3)
C35 C 0.5240(3) 0.8722(2) 0.9118(3)
C36 C 0.6597(3) 0.73668(16) 1.0214(3)
C37 C 0.6266(4) 0.72529(18) 1.1092(3)
C38 C 0.7005(4) 0.71922(17) 1.1857(3)
C39 C 0.8058(4) 0.72414(16) 1.1752(3)
C40 C 0.8386(4) 0.73440(16) 1.0884(4)
C41 C 0.7660(3) 0.74111(16) 1.0114(3)
H1 H 0.5514 0.7826 0.7591
H2 H 0.6980 0.7884 0.8138
H3 H 0.4077 0.5664 0.9448
H4 H 0.4494 0.5293 0.8604
H5 H 0.5430 0.5864 0.7458
H6 H 0.4641 0.6449 0.7386
H7 H 0.4534 0.6725 0.9799
H8 H 0.4072 0.6947 0.8790
H9 H 0.6256 0.5542 0.9077
H10 H 0.6658 0.6219 0.9274
H11 H 0.5941 0.5897 0.9966
H12 H 0.2268 0.6362 0.6418
H13 H 0.2535 0.6168 0.4862
H14 H 0.3467 0.5311 0.4459
H15 H 0.4131 0.4614 0.5597
H16 H 0.3898 0.4796 0.7154
H17 H 0.1823 0.4684 0.7429
H18 H 0.0687 0.3974 0.8058
H19 H 0.0421 0.4017 0.9601
H20 H 0.1199 0.4800 1.0532
H21 H 0.2262 0.5542 0.9898
H22 H 0.6874 0.7760 0.6215
H23 H 0.6585 0.7977 0.4626
H24 H 0.5577 0.7291 0.3665
H25 H 0.4889 0.6399 0.4259
H26 H 0.5237 0.6168 0.5842
H27 H 0.8442 0.7201 0.7796
H28 H 1.0101 0.6721 0.7830
H29 H 1.0223 0.5666 0.7640
H30 H 0.8716 0.5053 0.7374
H31 H 0.7074 0.5525 0.7341
H32 H 0.3746 0.7762 1.0126
H33 H 0.2863 0.8683 1.0384
H34 H 0.3472 0.9618 0.9881
H35 H 0.4952 0.9652 0.9069
H36 H 0.5842 0.8734 0.8779
H37 H 0.5533 0.7213 1.1163
H38 H 0.6786 0.7115 1.2445
H39 H 0.8556 0.7211 1.2271
H40 H 0.9117 0.7371 1.0821
H41 H 0.7892 0.7493 0.9515
loop_
_geom_bond_atom_site_label_1
_geom_bond_atom_site_label_2
_geom_bond_site_symmetry_1
_geom_bond_site_symmetry_2
As1 F1 1_555 1_555
F2 As1 1_555 1_555
F3 As1 1_555 1_555
F4 As1 1_555 1_555
F5 As1 1_555 1_555
F6 As1 1_555 1_555
B1 P2 1_555 1_555
O1 P1 1_555 1_555
P1 C1 1_555 1_555
P2 C2 1_555 1_555
P3 B1 1_555 1_555
C1 C4 1_555 1_555
C2 C4 1_555 1_555
C3 P3 1_555 1_555
C4 C3 1_555 1_555
C5 C4 1_555 1_555
C6 P1 1_555 1_555
C7 C6 1_555 1_555
C8 C7 1_555 1_555
C9 C8 1_555 1_555
C10 C9 1_555 1_555
C11 C6 1_555 1_555
C12 P1 1_555 1_555
C13 C12 1_555 1_555
C14 C13 1_555 1_555
C15 C14 1_555 1_555
C16 C15 1_555 1_555
C17 C12 1_555 1_555
C18 P2 1_555 1_555
C19 C18 1_555 1_555
C20 C19 1_555 1_555
C21 C20 1_555 1_555
C22 C21 1_555 1_555
C23 C18 1_555 1_555
C24 P2 1_555 1_555
C25 C24 1_555 1_555
C26 C25 1_555 1_555
C27 C26 1_555 1_555
C28 C27 1_555 1_555
C29 C24 1_555 1_555
C30 P3 1_555 1_555
C31 C30 1_555 1_555
C32 C31 1_555 1_555
C33 C32 1_555 1_555
C34 C33 1_555 1_555
C35 C30 1_555 1_555
C36 P3 1_555 1_555
C37 C36 1_555 1_555
C38 C37 1_555 1_555
C39 C38 1_555 1_555
C40 C39 1_555 1_555
C41 C36 1_555 1_555
H1 B1 1_555 1_555
H2 B1 1_555 1_555
H3 C1 1_555 1_555
H4 C1 1_555 1_555
H5 C2 1_555 1_555
H6 C2 1_555 1_555
H7 C3 1_555 1_555
H8 C3 1_555 1_555
H9 C5 1_555 1_555
H10 C5 1_555 1_555
H11 C5 1_555 1_555
H12 C7 1_555 1_555
H13 C8 1_555 1_555
H14 C9 1_555 1_555
H15 C10 1_555 1_555
H16 C11 1_555 1_555
H17 C13 1_555 1_555
H18 C14 1_555 1_555
H19 C15 1_555 1_555
H20 C16 1_555 1_555
H21 C17 1_555 1_555
H22 C19 1_555 1_555
H23 C20 1_555 1_555
H24 C21 1_555 1_555
H25 C22 1_555 1_555
H26 C23 1_555 1_555
H27 C25 1_555 1_555
H28 C26 1_555 1_555
H29 C27 1_555 1_555
H30 C28 1_555 1_555
H31 C29 1_555 1_555
H32 C31 1_555 1_555
H33 C32 1_555 1_555
H34 C33 1_555 1_555
H35 C34 1_555 1_555
H36 C35 1_555 1_555
H37 C37 1_555 1_555
H38 C38 1_555 1_555
H39 C39 1_555 1_555
H40 C40 1_555 1_555
H41 C41 1_555 1_555
C10 C11 1_555 1_555
C16 C17 1_555 1_555
C22 C23 1_555 1_555
C28 C29 1_555 1_555
C34 C35 1_555 1_555
C40 C41 1_555 1_555

#END
