
#######################################################################
#
#                 Cambridge Crystallographic Data Centre
#                                CCDC 
#
#######################################################################
#
# If this CIF has been generated from an entry in the Cambridge 
# Structural Database, then it will include bibliographic, chemical, 
# crystal, experimental, refinement or atomic coordinate data resulting 
# from the CCDC's data processing and validation procedures.
#
#######################################################################

data_CAVROH
_chemical_formula_moiety         'C18 H9 I3 N6 O3,0.5(C9 H12)'
_chemical_name_systematic        
'2,4,6-tris(2-Iodo-3-pyridyloxy)-1,3,5-triazine mesitylene clathrate'
_symmetry_cell_setting           rhombohedral
_symmetry_space_group_name_H-M   'R -3'
_symmetry_Int_Tables_number      148
_space_group_name_Hall           '-R 3'
loop_
_symmetry_equiv_pos_site_id
_symmetry_equiv_pos_as_xyz
1 x,y,z
2 -y,x-y,z
3 -x+y,-x,z
4 2/3+x,1/3+y,1/3+z
5 2/3-y,1/3+x-y,1/3+z
6 2/3-x+y,1/3-x,1/3+z
7 1/3+x,2/3+y,2/3+z
8 1/3-y,2/3+x-y,2/3+z
9 1/3-x+y,2/3-x,2/3+z
10 -x,-y,-z
11 y,-x+y,-z
12 x-y,x,-z
13 1/3-x,2/3-y,2/3-z
14 1/3+y,2/3-x+y,2/3-z
15 1/3+x-y,2/3+x,2/3-z
16 2/3-x,1/3-y,1/3-z
17 2/3+y,1/3-x+y,1/3-z
18 2/3+x-y,1/3+x,1/3-z
_cell_length_a                   16.750(2)
_cell_length_b                   16.750(2)
_cell_length_c                   16.800(3)
_cell_angle_alpha                90
_cell_angle_beta                 90
_cell_angle_gamma                120
_cell_volume                     4081.97
_exptl_crystal_colour            colorless
_exptl_crystal_description       block
_chemical_melting_point          '212 deg.C'
_cell_formula_units_Z            6
loop_
_atom_site_label
_atom_site_type_symbol
_atom_site_fract_x
_atom_site_fract_y
_atom_site_fract_z
I1 I 0.65032(4) 0.16284(3) 0.54794(3)
C3 C 0.7211(4) 0.0369(4) 0.7789(4)
H1 H 0.7354 0.0109 0.8217
O1 O 0.5913(2) 0.1532(2) 0.7331(2)
C4 C 0.6325(3) 0.2461(3) 0.7347(3)
C5 C 0.6494(4) 0.1152(4) 0.7247(3)
C6 C 0.6692(4) 0.0787(4) 0.7897(4)
H2 H 0.6480 0.0821 0.8401
C7 C 0.6805(4) 0.1080(4) 0.6503(3)
N1 N 0.7316(4) 0.0685(4) 0.6385(3)
C8 C 0.7517(5) 0.0342(5) 0.7030(4)
H3 H 0.7881 0.0073 0.6962
N2 N 0.5718(3) 0.2760(3) 0.7353(2)
I1B I 0.51252(5) 0.34968(4) 0.54794(3)
I1A I 0.83716(3) 0.48748(5) 0.54794(3)
C3B C 0.3158(6) 0.2789(4) 0.7789(4)
C3A C 0.9631(4) 0.6842(6) 0.7789(4)
H1B H 0.2755 0.2646 0.8217
H1A H 0.9891 0.7245 0.8217
O1B O 0.5619(3) 0.4087(2) 0.7331(2)
O1A O 0.8468(2) 0.4381(3) 0.7331(2)
C4B C 0.6136(4) 0.3675(3) 0.7347(3)
C4A C 0.7539(3) 0.3864(4) 0.7347(3)
C5B C 0.4658(6) 0.3506(4) 0.7247(3)
C5A C 0.8848(4) 0.5342(6) 0.7247(3)
C6B C 0.4095(6) 0.3308(4) 0.7897(4)
C6A C 0.9213(4) 0.5905(6) 0.7897(4)
H2B H 0.4341 0.3520 0.8401
H2A H 0.9179 0.5659 0.8401
C7B C 0.4275(6) 0.3195(4) 0.6503(3)
C7A C 0.8920(4) 0.5725(6) 0.6503(3)
N1B N 0.3369(6) 0.2684(4) 0.6385(3)
N1A N 0.9315(4) 0.6631(6) 0.6385(3)
C8B C 0.2825(7) 0.2483(5) 0.7030(4)
C8A C 0.9658(5) 0.7175(7) 0.7030(4)
H3B H 0.2192 0.2119 0.6962
H3A H 0.9927 0.7808 0.6962
N2B N 0.7042(4) 0.4282(3) 0.7353(2)
N2A N 0.7240(3) 0.2958(4) 0.7353(2)
C1 C 0.7114(10) 0.2836(10) 0.3330(8)
C2 C 0.756(2) 0.225(2) 0.334(2)
C1M C 0.6169(10) 0.2389(14) 0.3337(8)
C1B C 0.5722(14) 0.2886(10) 0.3330(8)
C1L C 0.6219(10) 0.3831(10) 0.3337(8)
C1A C 0.7164(10) 0.4278(14) 0.3330(8)
C1N C 0.7611(14) 0.3781(10) 0.3337(8)
C2N C 0.864(3) 0.423(2) 0.333(2)
C2A C 0.775(2) 0.531(3) 0.334(2)
C2L C 0.577(2) 0.442(2) 0.333(2)
C2B C 0.469(3) 0.244(2) 0.334(2)
C2M C 0.558(2) 0.136(3) 0.333(2)
loop_
_geom_bond_atom_site_label_1
_geom_bond_atom_site_label_2
_geom_bond_site_symmetry_1
_geom_bond_site_symmetry_2
C1 C2 1_555 1_555
I1 C7 1_555 1_555
C3 H1 1_555 1_555
O1 C4 1_555 1_555
C4 N2 1_555 1_555
C5 O1 1_555 1_555
C6 C3 1_555 1_555
H2 C6 1_555 1_555
C7 C5 1_555 1_555
N1 C7 1_555 1_555
C8 C3 1_555 1_555
H3 C8 1_555 1_555
N2 C4B 1_555 1_555
C1M C1 1_555 1_555
C1B C1M 1_555 1_555
C1L C1B 1_555 1_555
C1A C1L 1_555 1_555
C1N C1 1_555 1_555
C2N C1N 1_555 1_555
C2A C1A 1_555 1_555
C2L C1L 1_555 1_555
C2B C1B 1_555 1_555
C2M C1M 1_555 1_555
I1B C7B 1_555 1_555
I1A C7A 1_555 1_555
C3B H1B 1_555 1_555
C3A H1A 1_555 1_555
O1B C4B 1_555 1_555
O1A C4A 1_555 1_555
C4B N2B 1_555 1_555
C4A N2B 1_555 1_555
C5B O1B 1_555 1_555
C5A O1A 1_555 1_555
C6B C3B 1_555 1_555
C6A C3A 1_555 1_555
H2B C6B 1_555 1_555
H2A C6A 1_555 1_555
C7B C5B 1_555 1_555
C7A C5A 1_555 1_555
N1B C7B 1_555 1_555
N1A C7A 1_555 1_555
C8B C3B 1_555 1_555
C8A C3A 1_555 1_555
H3B C8B 1_555 1_555
H3A C8A 1_555 1_555
N2A C4 1_555 1_555
C5 C6 1_555 1_555
N1 C8 1_555 1_555
C1A C1N 1_555 1_555
C4A N2A 1_555 1_555
C5B C6B 1_555 1_555
C5A C6A 1_555 1_555
N1B C8B 1_555 1_555
N1A C8A 1_555 1_555

#END
