
#######################################################################
#
#                 Cambridge Crystallographic Data Centre
#                                CCDC 
#
#######################################################################
#
# If this CIF has been generated from an entry in the Cambridge 
# Structural Database, then it will include bibliographic, chemical, 
# crystal, experimental, refinement or atomic coordinate data resulting 
# from the CCDC's data processing and validation procedures.
#
#######################################################################

data_CAVSAU
_chemical_formula_moiety         'C21 H18 N6 O3'
_chemical_name_systematic        
2,4,6-tris(6-Methyl-3-pyridyloxy)-1,3,5-triazine
_symmetry_cell_setting           monoclinic
_symmetry_space_group_name_H-M   'P 21/n'
_symmetry_Int_Tables_number      14
_space_group_name_Hall           '-P 2yn'
loop_
_symmetry_equiv_pos_site_id
_symmetry_equiv_pos_as_xyz
1 x,y,z
2 1/2-x,1/2+y,1/2-z
3 -x,-y,-z
4 1/2+x,1/2-y,1/2+z
_cell_length_a                   9.569(2)
_cell_length_b                   18.851(4)
_cell_length_c                   11.255(2)
_cell_angle_alpha                90
_cell_angle_beta                 93.496(4)
_cell_angle_gamma                90
_cell_volume                     2026.46
_exptl_crystal_colour            colorless
_exptl_crystal_description       block
_chemical_melting_point          '203 deg.C'
_cell_formula_units_Z            4
_exptl_crystal_recrystallization_method 'ethyl acetate'
loop_
_atom_site_label
_atom_site_type_symbol
_atom_site_fract_x
_atom_site_fract_y
_atom_site_fract_z
O1 O 0.75915(15) -0.09848(7) 0.51406(13)
O2 O 0.97903(18) 0.01035(8) 0.21952(14)
O3 O 0.80389(17) 0.14078(7) 0.50995(12)
N1 N 0.86848(17) -0.04881(9) 0.36594(14)
N2 N 0.89949(17) 0.07659(9) 0.36270(14)
N3 N 0.78271(17) 0.02280(8) 0.52032(14)
N4 N 0.44541(19) -0.07399(11) 0.67701(16)
N5 N 0.9331(2) -0.12347(11) -0.00954(17)
N6 N 1.0188(2) 0.28526(10) 0.40692(19)
C1 C 0.80453(19) -0.03798(10) 0.46652(17)
C2 C 0.9131(2) 0.01145(11) 0.32048(17)
C3 C 0.8313(2) 0.07799(11) 0.46058(17)
C4 C 0.6728(2) -0.09346(10) 0.61121(18)
C5 C 0.7249(2) -0.11036(13) 0.7242(2)
H1 H 0.8184 -0.1226 0.7402
C6 C 0.6316(3) -0.10821(14) 0.8125(2)
H2 H 0.6620 -0.1196 0.8902
C7 C 0.4939(2) -0.08942(12) 0.78757(19)
C8 C 0.5349(2) -0.07724(12) 0.59160(19)
H3 H 0.5014 -0.0679 0.5139
C9 C 0.3897(3) -0.08492(18) 0.8821(2)
H4 H 0.3001 -0.0711 0.8465
H5 H 0.4207 -0.0504 0.9407
H6 H 0.3819 -0.1304 0.9196
C10 C 0.9987(2) -0.05361(11) 0.15927(18)
C11 C 1.1085(3) -0.09686(15) 0.1895(2)
H7 H 1.1675 -0.0880 0.2566
C12 C 1.1295(3) -0.15452(16) 0.1167(2)
H8 H 1.2034 -0.1856 0.1347
C13 C 1.0414(3) -0.16573(14) 0.0182(2)
C14 C 0.9141(2) -0.06823(12) 0.0607(2)
H9 H 0.8393 -0.0380 0.0416
C15 C 1.0638(4) -0.22679(18) -0.0650(3)
H10 H 0.9921 -0.2264 -0.1284
H11 H 1.0598 -0.2707 -0.0220
H12 H 1.1538 -0.2222 -0.0974
C16 C 0.8434(2) 0.20185(11) 0.44766(18)
C17 C 0.7458(2) 0.23728(13) 0.3760(2)
H13 H 0.6541 0.2210 0.3656
C18 C 0.7880(3) 0.29785(12) 0.3198(2)
H14 H 0.7243 0.3235 0.2711
C19 C 0.9240(3) 0.32029(12) 0.33584(19)
C20 C 0.9766(3) 0.22737(13) 0.4618(2)
H15 H 1.0409 0.2032 0.5121
C21 C 0.9748(3) 0.38513(14) 0.2735(3)
H16 H 1.0722 0.3925 0.2956
H17 H 0.9220 0.4257 0.2962
H18 H 0.9626 0.3785 0.1889
loop_
_geom_bond_atom_site_label_1
_geom_bond_atom_site_label_2
_geom_bond_site_symmetry_1
_geom_bond_site_symmetry_2
O1 C1 1_555 1_555
O2 C2 1_555 1_555
O3 C3 1_555 1_555
N1 C1 1_555 1_555
N2 C2 1_555 1_555
N3 C1 1_555 1_555
N4 C7 1_555 1_555
N5 C13 1_555 1_555
N6 C19 1_555 1_555
C2 N1 1_555 1_555
C3 N2 1_555 1_555
C4 O1 1_555 1_555
C5 C4 1_555 1_555
H1 C5 1_555 1_555
C6 C5 1_555 1_555
H2 C6 1_555 1_555
C7 C6 1_555 1_555
C8 N4 1_555 1_555
H3 C8 1_555 1_555
C9 C7 1_555 1_555
H4 C9 1_555 1_555
H5 C9 1_555 1_555
H6 C9 1_555 1_555
C10 O2 1_555 1_555
C11 C10 1_555 1_555
H7 C11 1_555 1_555
C12 C11 1_555 1_555
H8 C12 1_555 1_555
C13 C12 1_555 1_555
C14 N5 1_555 1_555
H9 C14 1_555 1_555
C15 C13 1_555 1_555
H10 C15 1_555 1_555
H11 C15 1_555 1_555
H12 C15 1_555 1_555
C16 O3 1_555 1_555
C17 C16 1_555 1_555
H13 C17 1_555 1_555
C18 C17 1_555 1_555
H14 C18 1_555 1_555
C19 C18 1_555 1_555
C20 N6 1_555 1_555
H15 C20 1_555 1_555
C21 C19 1_555 1_555
H16 C21 1_555 1_555
H17 C21 1_555 1_555
H18 C21 1_555 1_555
N3 C3 1_555 1_555
C4 C8 1_555 1_555
C10 C14 1_555 1_555
C16 C20 1_555 1_555

#END
