
#######################################################################
#
#                 Cambridge Crystallographic Data Centre
#                                CCDC 
#
#######################################################################
#
# If this CIF has been generated from an entry in the Cambridge 
# Structural Database, then it will include bibliographic, chemical, 
# crystal, experimental, refinement or atomic coordinate data resulting 
# from the CCDC's data processing and validation procedures.
#
#######################################################################

data_CAVSIE
_chemical_formula_moiety         'C26 H50 B1 P2 1+,H1 B1 Br3 1-'
_chemical_name_systematic        
'1,1,3,3-tetracyclohexyl-1,3,2-diphosphaborolan-2-ium tribromo(hydrido)borate'
_symmetry_cell_setting           monoclinic
_symmetry_space_group_name_H-M   'P 21/n'
_symmetry_Int_Tables_number      14
_space_group_name_Hall           '-P 2yn'
loop_
_symmetry_equiv_pos_site_id
_symmetry_equiv_pos_as_xyz
1 x,y,z
2 1/2-x,1/2+y,1/2-z
3 -x,-y,-z
4 1/2+x,1/2-y,1/2+z
_cell_length_a                   11.13810(10)
_cell_length_b                   12.5367(2)
_cell_length_c                   22.3536(3)
_cell_angle_alpha                90
_cell_angle_beta                 97.2547(8)
_cell_angle_gamma                90
_cell_volume                     3096.36
_exptl_crystal_colour            colorless
_exptl_crystal_description       lath
_cell_formula_units_Z            4
loop_
_atom_site_label
_atom_site_type_symbol
_atom_site_fract_x
_atom_site_fract_y
_atom_site_fract_z
B1 B 0.6301(3) 0.8814(3) 0.43219(15)
P1 P 0.69703(6) 0.77856(6) 0.49229(3)
P2 P 0.59385(6) 0.79067(6) 0.36168(3)
C1 C 0.7164(3) 0.6570(2) 0.44854(13)
C2 C 0.6230(3) 0.6549(2) 0.39107(13)
C3 C 0.5960(2) 0.7476(2) 0.54879(13)
C4 C 0.4847(3) 0.6853(3) 0.52024(14)
C5 C 0.3988(3) 0.6620(3) 0.56672(16)
C6 C 0.3613(3) 0.7633(3) 0.59627(16)
C7 C 0.4707(3) 0.8246(3) 0.62522(15)
C8 C 0.5583(3) 0.8489(3) 0.57975(15)
C9 C 0.8486(2) 0.8131(2) 0.52890(13)
C10 C 0.8998(3) 0.7286(3) 0.57471(17)
C11 C 1.0309(3) 0.7546(3) 0.59904(18)
C12 C 1.0440(3) 0.8665(3) 0.62550(16)
C13 C 0.9918(3) 0.9492(3) 0.57934(16)
C14 C 0.8594(3) 0.9256(3) 0.55647(15)
C15 C 0.4344(2) 0.7928(2) 0.32851(13)
C16 C 0.4112(3) 0.7215(3) 0.27252(15)
C17 C 0.2763(3) 0.7209(3) 0.24780(17)
C18 C 0.2301(3) 0.8336(3) 0.23458(16)
C19 C 0.2504(3) 0.9028(3) 0.29074(17)
C20 C 0.3848(3) 0.9057(3) 0.31615(17)
C21 C 0.6923(2) 0.8136(3) 0.30306(13)
C22 C 0.8240(3) 0.7825(3) 0.32543(16)
C23 C 0.9045(3) 0.7973(3) 0.27570(17)
C24 C 0.8999(3) 0.9117(3) 0.25244(17)
C25 C 0.7700(3) 0.9453(4) 0.23126(18)
C26 C 0.6871(3) 0.9284(3) 0.28023(17)
H1 H 0.552(3) 0.916(3) 0.4432(16)
H2 H 0.698(4) 0.940(3) 0.4243(18)
H3 H 0.706(2) 0.5939(16) 0.4723(9)
H4 H 0.7984(17) 0.6569(19) 0.4374(10)
H5 H 0.5478(17) 0.6277(18) 0.4012(10)
H6 H 0.652(2) 0.6103(17) 0.3601(9)
H7 H 0.6422(19) 0.7014(16) 0.5791(9)
H8 H 0.442(2) 0.7296(18) 0.4887(10)
H9 H 0.509(2) 0.6197(16) 0.5033(11)
H10 H 0.440(2) 0.6170(18) 0.5970(9)
H11 H 0.3294(18) 0.6238(19) 0.5477(11)
H12 H 0.316(2) 0.8079(17) 0.5658(10)
H13 H 0.311(2) 0.7450(19) 0.6268(10)
H14 H 0.443(2) 0.8917(16) 0.6413(11)
H15 H 0.512(2) 0.7828(19) 0.6583(10)
H16 H 0.6296(18) 0.8831(19) 0.6006(10)
H17 H 0.516(2) 0.8947(18) 0.5491(9)
H18 H 0.8998(18) 0.8119(18) 0.4969(9)
H19 H 0.853(2) 0.728(2) 0.6079(9)
H20 H 0.895(2) 0.6601(16) 0.5567(11)
H21 H 1.079(2) 0.750(2) 0.5658(10)
H22 H 1.062(2) 0.7027(18) 0.6307(10)
H23 H 1.1282(17) 0.8815(18) 0.6376(11)
H24 H 1.003(2) 0.8716(18) 0.6608(9)
H25 H 0.996(2) 1.0191(16) 0.5978(11)
H26 H 1.038(2) 0.949(2) 0.5457(9)
H27 H 0.814(2) 0.9289(19) 0.5899(9)
H28 H 0.827(2) 0.9786(16) 0.5280(10)
H29 H 0.3881(19) 0.7631(17) 0.3584(9)
H30 H 0.459(2) 0.7474(19) 0.2423(9)
H31 H 0.437(2) 0.6503(15) 0.2832(10)
H32 H 0.232(2) 0.6884(19) 0.2778(10)
H33 H 0.266(2) 0.6787(19) 0.2106(9)
H34 H 0.1439(17) 0.8320(19) 0.2188(11)
H35 H 0.275(2) 0.8647(18) 0.2046(10)
H36 H 0.225(2) 0.9751(15) 0.2799(11)
H37 H 0.205(2) 0.874(2) 0.3209(9)
H38 H 0.393(2) 0.9448(18) 0.3536(9)
H39 H 0.428(2) 0.9418(19) 0.2862(10)
H40 H 0.6626(19) 0.7696(17) 0.2689(9)
H41 H 0.854(2) 0.8270(19) 0.3592(10)
H42 H 0.829(2) 0.7091(16) 0.3383(11)
H43 H 0.879(2) 0.7487(18) 0.2433(10)
H44 H 0.9875(17) 0.779(2) 0.2919(11)
H45 H 0.934(2) 0.9592(18) 0.2856(10)
H46 H 0.947(2) 0.917(2) 0.2187(10)
H47 H 0.769(2) 1.0205(16) 0.2199(12)
H48 H 0.739(2) 0.904(2) 0.1960(10)
H49 H 0.6062(18) 0.945(2) 0.2619(11)
H50 H 0.712(2) 0.9762(18) 0.3136(10)
B2 B 0.8635(4) 0.4126(4) 0.5755(2)
Br1 Br 0.86146(4) 0.25114(3) 0.568905(18)
Br2 Br 0.70171(3) 0.46511(3) 0.597717(18)
Br3 Br 0.99294(5) 0.46070(4) 0.64068(3)
H51 H 0.897(3) 0.448(2) 0.5284(18)
loop_
_geom_bond_atom_site_label_1
_geom_bond_atom_site_label_2
_geom_bond_site_symmetry_1
_geom_bond_site_symmetry_2
B1 P1 1_555 1_555
P1 C1 1_555 1_555
P2 B1 1_555 1_555
C1 C2 1_555 1_555
C2 P2 1_555 1_555
C3 P1 1_555 1_555
C4 C3 1_555 1_555
C5 C4 1_555 1_555
C6 C5 1_555 1_555
C7 C6 1_555 1_555
C8 C3 1_555 1_555
C9 P1 1_555 1_555
C10 C9 1_555 1_555
C11 C10 1_555 1_555
C12 C11 1_555 1_555
C13 C12 1_555 1_555
C14 C9 1_555 1_555
C15 P2 1_555 1_555
C16 C15 1_555 1_555
C17 C16 1_555 1_555
C18 C17 1_555 1_555
C19 C18 1_555 1_555
C20 C15 1_555 1_555
C21 P2 1_555 1_555
C22 C21 1_555 1_555
C23 C22 1_555 1_555
C24 C23 1_555 1_555
C25 C24 1_555 1_555
C26 C21 1_555 1_555
H1 B1 1_555 1_555
H2 B1 1_555 1_555
H3 C1 1_555 1_555
H4 C1 1_555 1_555
H5 C2 1_555 1_555
H6 C2 1_555 1_555
H7 C3 1_555 1_555
H8 C4 1_555 1_555
H9 C4 1_555 1_555
H10 C5 1_555 1_555
H11 C5 1_555 1_555
H12 C6 1_555 1_555
H13 C6 1_555 1_555
H14 C7 1_555 1_555
H15 C7 1_555 1_555
H16 C8 1_555 1_555
H17 C8 1_555 1_555
H18 C9 1_555 1_555
H19 C10 1_555 1_555
H20 C10 1_555 1_555
H21 C11 1_555 1_555
H22 C11 1_555 1_555
H23 C12 1_555 1_555
H24 C12 1_555 1_555
H25 C13 1_555 1_555
H26 C13 1_555 1_555
H27 C14 1_555 1_555
H28 C14 1_555 1_555
H29 C15 1_555 1_555
H30 C16 1_555 1_555
H31 C16 1_555 1_555
H32 C17 1_555 1_555
H33 C17 1_555 1_555
H34 C18 1_555 1_555
H35 C18 1_555 1_555
H36 C19 1_555 1_555
H37 C19 1_555 1_555
H38 C20 1_555 1_555
H39 C20 1_555 1_555
H40 C21 1_555 1_555
H41 C22 1_555 1_555
H42 C22 1_555 1_555
H43 C23 1_555 1_555
H44 C23 1_555 1_555
H45 C24 1_555 1_555
H46 C24 1_555 1_555
H47 C25 1_555 1_555
H48 C25 1_555 1_555
H49 C26 1_555 1_555
H50 C26 1_555 1_555
B2 Br1 1_555 1_555
Br2 B2 1_555 1_555
Br3 B2 1_555 1_555
H51 B2 1_555 1_555
C7 C8 1_555 1_555
C13 C14 1_555 1_555
C19 C20 1_555 1_555
C25 C26 1_555 1_555

#END
