
#######################################################################
#
#                 Cambridge Crystallographic Data Centre
#                                CCDC 
#
#######################################################################
#
# If this CIF has been generated from an entry in the Cambridge 
# Structural Database, then it will include bibliographic, chemical, 
# crystal, experimental, refinement or atomic coordinate data resulting 
# from the CCDC's data processing and validation procedures.
#
#######################################################################

data_CAVSEY
_chemical_formula_moiety         'C39 H24 Br3 N3 O3'
_chemical_name_systematic        
2,4,6-tris(4-(4-Bromophenyl)phenoxy)-1,3,5-triazine
_symmetry_cell_setting           triclinic
_symmetry_space_group_name_H-M   'P -1'
_symmetry_Int_Tables_number      2
_space_group_name_Hall           '-P 1'
loop_
_symmetry_equiv_pos_site_id
_symmetry_equiv_pos_as_xyz
1 x,y,z
2 -x,-y,-z
_cell_length_a                   9.5665(17)
_cell_length_b                   10.0986(18)
_cell_length_c                   19.349(3)
_cell_angle_alpha                86.198(4)
_cell_angle_beta                 77.005(3)
_cell_angle_gamma                67.205(3)
_cell_volume                     1678.69
_exptl_crystal_colour            colorless
_exptl_crystal_description       block
_cell_formula_units_Z            2
_exptl_crystal_recrystallization_method chloroform
loop_
_atom_site_label
_atom_site_type_symbol
_atom_site_fract_x
_atom_site_fract_y
_atom_site_fract_z
Br1 Br 0.03961(7) 0.78134(5) 1.25391(2)
Br2 Br 1.03804(5) 1.45231(4) 0.32472(2)
Br3 Br 0.11355(5) 0.16283(5) 1.18208(2)
N1 N 0.6179(4) 0.6858(3) 0.60361(18)
N2 N 0.6327(4) 0.4544(3) 0.57168(18)
N3 N 0.5369(4) 0.5393(3) 0.69229(17)
O1 O 0.5245(3) 0.7642(3) 0.71701(15)
O2 O 0.7192(4) 0.5899(3) 0.49041(15)
O3 O 0.5467(3) 0.3221(3) 0.65481(15)
C1 C 0.5610(4) 0.6574(4) 0.6692(2)
C2 C 0.6548(4) 0.5787(4) 0.5587(2)
C3 C 0.5722(4) 0.4442(4) 0.6395(2)
C4 C 0.4587(4) 0.7457(4) 0.7889(2)
C5 C 0.3048(5) 0.7680(7) 0.8097(3)
H1 H 0.2415 0.7895 0.7758
C6 C 0.2428(5) 0.7583(6) 0.8800(3)
H2 H 0.1367 0.7706 0.8939
C7 C 0.3283(4) 0.7315(3) 0.9316(2)
C8 C 0.4852(4) 0.7101(4) 0.9085(2)
H3 H 0.5483 0.6909 0.9424
C9 C 0.5508(5) 0.7162(4) 0.8376(2)
H4 H 0.6578 0.7002 0.8229
C10 C 0.2580(4) 0.7318(3) 1.0086(2)
C11 C 0.3489(5) 0.6632(4) 1.0586(2)
H5 H 0.4568 0.6090 1.0425
C12 C 0.2840(6) 0.6735(4) 1.1309(2)
H6 H 0.3465 0.6253 1.1638
C13 C 0.1279(6) 0.7543(4) 1.1545(2)
C14 C 0.0340(5) 0.8197(5) 1.1070(2)
H7 H -0.0739 0.8727 1.1238
C15 C 0.0984(5) 0.8073(5) 1.0351(2)
H8 H 0.0330 0.8511 1.0028
C16 C 0.7616(5) 0.7095(4) 0.4716(2)
C17 C 0.6658(5) 0.8231(4) 0.4383(2)
H9 H 0.5708 0.8236 0.4308
C18 C 0.7126(5) 0.9366(4) 0.4161(2)
H10 H 0.6475 1.0160 0.3939
C19 C 0.8531(4) 0.9363(4) 0.4258(2)
C20 C 0.9469(5) 0.8175(4) 0.4585(2)
H11 H 1.0438 0.8145 0.4648
C21 C 0.9020(5) 0.7045(4) 0.4817(2)
H12 H 0.9664 0.6252 0.5042
C22 C 0.9009(4) 1.0605(4) 0.4029(2)
C23 C 0.7879(5) 1.2003(4) 0.4069(2)
H13 H 0.6816 1.2161 0.4249
C24 C 0.8296(5) 1.3157(4) 0.3847(2)
H14 H 0.7523 1.4103 0.3879
C25 C 0.9842(5) 1.2930(4) 0.3579(2)
C26 C 1.0997(5) 1.1556(4) 0.3557(2)
H15 H 1.2061 1.1407 0.3392
C27 C 1.0549(5) 1.0408(4) 0.3779(2)
H16 H 1.1326 0.9466 0.3760
C28 C 0.4755(5) 0.3027(4) 0.7255(2)
C29 C 0.3314(5) 0.3975(5) 0.7586(3)
H17 H 0.2749 0.4784 0.7342
C30 C 0.2696(5) 0.3736(5) 0.8280(3)
H18 H 0.1716 0.4407 0.8516
C31 C 0.3478(4) 0.2533(4) 0.8638(2)
C32 C 0.4885(5) 0.1551(4) 0.8267(2)
H19 H 0.5413 0.0693 0.8490
C33 C 0.5537(5) 0.1797(4) 0.7577(2)
H20 H 0.6508 0.1125 0.7334
C34 C 0.2873(4) 0.2322(4) 0.9396(2)
C35 C 0.3160(4) 0.0944(4) 0.9672(2)
H21 H 0.3734 0.0129 0.9363
C36 C 0.2632(5) 0.0737(4) 1.0380(2)
H22 H 0.2820 -0.0206 1.0552
C37 C 0.1824(4) 0.1923(4) 1.0840(2)
C38 C 0.1507(4) 0.3308(4) 1.0591(2)
H23 H 0.0934 0.4113 1.0906
C39 C 0.2041(4) 0.3510(4) 0.9875(2)
H24 H 0.1843 0.4457 0.9706
loop_
_geom_bond_atom_site_label_1
_geom_bond_atom_site_label_2
_geom_bond_site_symmetry_1
_geom_bond_site_symmetry_2
Br1 C13 1_555 1_555
Br2 C25 1_555 1_555
Br3 C37 1_555 1_555
N1 C1 1_555 1_555
N2 C2 1_555 1_555
N3 C1 1_555 1_555
O1 C1 1_555 1_555
O2 C2 1_555 1_555
O3 C3 1_555 1_555
C2 N1 1_555 1_555
C3 N2 1_555 1_555
C4 O1 1_555 1_555
C5 C4 1_555 1_555
H1 C5 1_555 1_555
C6 C5 1_555 1_555
H2 C6 1_555 1_555
C7 C6 1_555 1_555
C8 C7 1_555 1_555
H3 C8 1_555 1_555
C9 C4 1_555 1_555
H4 C9 1_555 1_555
C10 C7 1_555 1_555
C11 C10 1_555 1_555
H5 C11 1_555 1_555
C12 C11 1_555 1_555
H6 C12 1_555 1_555
C13 C12 1_555 1_555
C14 C13 1_555 1_555
H7 C14 1_555 1_555
C15 C10 1_555 1_555
H8 C15 1_555 1_555
C16 O2 1_555 1_555
C17 C16 1_555 1_555
H9 C17 1_555 1_555
C18 C17 1_555 1_555
H10 C18 1_555 1_555
C19 C18 1_555 1_555
C20 C19 1_555 1_555
H11 C20 1_555 1_555
C21 C16 1_555 1_555
H12 C21 1_555 1_555
C22 C19 1_555 1_555
C23 C22 1_555 1_555
H13 C23 1_555 1_555
C24 C23 1_555 1_555
H14 C24 1_555 1_555
C25 C24 1_555 1_555
C26 C25 1_555 1_555
H15 C26 1_555 1_555
C27 C22 1_555 1_555
H16 C27 1_555 1_555
C28 O3 1_555 1_555
C29 C28 1_555 1_555
H17 C29 1_555 1_555
C30 C29 1_555 1_555
H18 C30 1_555 1_555
C31 C30 1_555 1_555
C32 C31 1_555 1_555
H19 C32 1_555 1_555
C33 C28 1_555 1_555
H20 C33 1_555 1_555
C34 C31 1_555 1_555
C35 C34 1_555 1_555
H21 C35 1_555 1_555
C36 C35 1_555 1_555
H22 C36 1_555 1_555
C37 C36 1_555 1_555
C38 C37 1_555 1_555
H23 C38 1_555 1_555
C39 C34 1_555 1_555
H24 C39 1_555 1_555
N3 C3 1_555 1_555
C8 C9 1_555 1_555
C14 C15 1_555 1_555
C20 C21 1_555 1_555
C26 C27 1_555 1_555
C32 C33 1_555 1_555
C38 C39 1_555 1_555

#END
