
#######################################################################
#
#                 Cambridge Crystallographic Data Centre
#                                CCDC 
#
#######################################################################
#
# If this CIF has been generated from an entry in the Cambridge 
# Structural Database, then it will include bibliographic, chemical, 
# crystal, experimental, refinement or atomic coordinate data resulting 
# from the CCDC's data processing and validation procedures.
#
#######################################################################

data_CAVTOL
_chemical_formula_moiety         'C26 H50 B2 Br4 P2'
_chemical_name_systematic        
1,1,6,6-tetrabromo-2,2,5,5-tetracyclohexyl-2,5-diphospha-1,6-diboroniahexane
_symmetry_cell_setting           monoclinic
_symmetry_space_group_name_H-M   'C 2/c'
_symmetry_Int_Tables_number      15
_space_group_name_Hall           '-C 2yn'
loop_
_symmetry_equiv_pos_site_id
_symmetry_equiv_pos_as_xyz
1 x,y,z
2 1/2+x,1/2+y,z
3 -x,y,1/2-z
4 1/2-x,1/2+y,1/2-z
5 -x,-y,-z
6 1/2-x,1/2-y,-z
7 x,-y,1/2+z
8 1/2+x,1/2-y,1/2+z
_cell_length_a                   18.4285(7)
_cell_length_b                   8.5936(3)
_cell_length_c                   20.9657(8)
_cell_angle_alpha                90
_cell_angle_beta                 94.666(2)
_cell_angle_gamma                90
_cell_volume                     3309.27
_exptl_crystal_colour            colorless
_exptl_crystal_description       prism
_cell_formula_units_Z            4
_exptl_crystal_recrystallization_method dichloromethane/ethanol
loop_
_atom_site_label
_atom_site_type_symbol
_atom_site_fract_x
_atom_site_fract_y
_atom_site_fract_z
B1 B 0.2857(6) 0.1545(12) 0.3556(5)
Br1 Br 0.19845(8) 0.01813(14) 0.35748(6)
Br2 Br 0.37517(9) 0.05262(18) 0.39844(7)
P1 P 0.27195(10) 0.3457(2) 0.40369(8)
C1 C 0.2778(4) 0.3093(9) 0.4893(3)
C2 C 0.3426(4) 0.4875(12) 0.3896(3)
C3 C 0.4020(5) 0.5112(13) 0.4405(4)
C4 C 0.4595(4) 0.6240(11) 0.4256(4)
C5 C 0.4736(4) 0.6467(11) 0.3597(4)
C6 C 0.4194(4) 0.6108(10) 0.3124(3)
C7 C 0.3668(4) 0.4895(10) 0.3230(3)
C8 C 0.1828(4) 0.4321(9) 0.3824(3)
C9 C 0.1690(5) 0.4600(11) 0.3098(4)
C10 C 0.0921(5) 0.5152(12) 0.2934(5)
C11 C 0.0740(5) 0.6571(12) 0.3303(5)
C12 C 0.0885(6) 0.6343(14) 0.4018(5)
C13 C 0.1666(5) 0.5791(12) 0.4196(4)
H1 H 0.2950 0.1837 0.3048
H2 H 0.2703 0.4051 0.5105
H3 H 0.3253 0.2715 0.5019
H4 H 0.3167 0.5829 0.3909
H5 H 0.3809 0.5470 0.4776
H6 H 0.4248 0.4134 0.4492
H7 H 0.5039 0.5898 0.4475
H8 H 0.4464 0.7221 0.4422
H9 H 0.4847 0.7538 0.3548
H10 H 0.5149 0.5856 0.3519
H11 H 0.3923 0.7035 0.3036
H12 H 0.4431 0.5816 0.2757
H13 H 0.3883 0.3918 0.3148
H14 H 0.3253 0.5050 0.2938
H15 H 0.1480 0.3569 0.3931
H16 H 0.2020 0.5368 0.2970
H17 H 0.1765 0.3656 0.2877
H18 H 0.0595 0.4341 0.3027
H19 H 0.0861 0.5385 0.2490
H20 H 0.1027 0.7414 0.3174
H21 H 0.0239 0.6807 0.3210
H22 H 0.0812 0.7304 0.4227
H23 H 0.0556 0.5589 0.4157
H24 H 0.1724 0.5573 0.4642
H25 H 0.1996 0.6587 0.4097
B1E B 0.2143(6) 0.3455(12) 0.6444(5)
Br1E Br 0.30155(8) 0.48187(14) 0.64252(6)
Br2E Br 0.12483(9) 0.44738(18) 0.60156(7)
P1E P 0.22805(10) 0.1543(2) 0.59631(8)
C1E C 0.2222(4) 0.1907(9) 0.5107(3)
C2E C 0.1574(4) 0.0125(12) 0.6104(3)
C3E C 0.0980(5) -0.0112(13) 0.5595(4)
C4E C 0.0405(4) -0.1240(11) 0.5744(4)
C5E C 0.0264(4) -0.1467(11) 0.6403(4)
C6E C 0.0806(4) -0.1108(10) 0.6876(3)
C7E C 0.1332(4) 0.0105(10) 0.6770(3)
C8E C 0.3172(4) 0.0679(9) 0.6176(3)
C9E C 0.3310(5) 0.0400(11) 0.6902(4)
C10E C 0.4079(5) -0.0152(12) 0.7066(5)
C11E C 0.4260(5) -0.1571(12) 0.6697(5)
C12E C 0.4115(6) -0.1343(14) 0.5982(5)
C13E C 0.3334(5) -0.0791(12) 0.5804(4)
H1E H 0.2050 0.3163 0.6952
H2E H 0.2297 0.0949 0.4895
H3E H 0.1747 0.2285 0.4981
H4E H 0.1833 -0.0829 0.6091
H5E H 0.1191 -0.0470 0.5224
H6E H 0.0752 0.0866 0.5508
H7E H -0.0039 -0.0898 0.5525
H8E H 0.0536 -0.2221 0.5578
H9E H 0.0153 -0.2538 0.6452
H10E H -0.0149 -0.0856 0.6481
H11E H 0.1077 -0.2035 0.6964
H12E H 0.0569 -0.0816 0.7243
H13E H 0.1117 0.1082 0.6852
H14E H 0.1747 -0.0050 0.7062
H15E H 0.3520 0.1431 0.6069
H16E H 0.2980 -0.0368 0.7030
H17E H 0.3235 0.1344 0.7123
H18E H 0.4405 0.0659 0.6973
H19E H 0.4139 -0.0385 0.7510
H20E H 0.3973 -0.2414 0.6826
H21E H 0.4761 -0.1807 0.6790
H22E H 0.4188 -0.2304 0.5773
H23E H 0.4444 -0.0589 0.5843
H24E H 0.3276 -0.0573 0.5358
H25E H 0.3004 -0.1587 0.5903
loop_
_geom_bond_atom_site_label_1
_geom_bond_atom_site_label_2
_geom_bond_site_symmetry_1
_geom_bond_site_symmetry_2
B1 Br1 1_555 1_555
Br2 B1 1_555 1_555
P1 B1 1_555 1_555
C1 P1 1_555 1_555
C2 P1 1_555 1_555
C3 C2 1_555 1_555
C4 C3 1_555 1_555
C5 C4 1_555 1_555
C6 C5 1_555 1_555
C7 C2 1_555 1_555
C8 P1 1_555 1_555
C9 C8 1_555 1_555
C10 C9 1_555 1_555
C11 C10 1_555 1_555
C12 C11 1_555 1_555
C13 C8 1_555 1_555
H1 B1 1_555 1_555
H2 C1 1_555 1_555
H3 C1 1_555 1_555
H4 C2 1_555 1_555
H5 C3 1_555 1_555
H6 C3 1_555 1_555
H7 C4 1_555 1_555
H8 C4 1_555 1_555
H9 C5 1_555 1_555
H10 C5 1_555 1_555
H11 C6 1_555 1_555
H12 C6 1_555 1_555
H13 C7 1_555 1_555
H14 C7 1_555 1_555
H15 C8 1_555 1_555
H16 C9 1_555 1_555
H17 C9 1_555 1_555
H18 C10 1_555 1_555
H19 C10 1_555 1_555
H20 C11 1_555 1_555
H21 C11 1_555 1_555
H22 C12 1_555 1_555
H23 C12 1_555 1_555
H24 C13 1_555 1_555
H25 C13 1_555 1_555
B1E Br1E 1_555 1_555
Br2E B1E 1_555 1_555
P1E B1E 1_555 1_555
C1E C1 1_555 1_555
C2E P1E 1_555 1_555
C3E C2E 1_555 1_555
C4E C3E 1_555 1_555
C5E C4E 1_555 1_555
C6E C5E 1_555 1_555
C7E C2E 1_555 1_555
C8E P1E 1_555 1_555
C9E C8E 1_555 1_555
C10E C9E 1_555 1_555
C11E C10E 1_555 1_555
C12E C11E 1_555 1_555
C13E C8E 1_555 1_555
H1E B1E 1_555 1_555
H2E C1E 1_555 1_555
H3E C1E 1_555 1_555
H4E C2E 1_555 1_555
H5E C3E 1_555 1_555
H6E C3E 1_555 1_555
H7E C4E 1_555 1_555
H8E C4E 1_555 1_555
H9E C5E 1_555 1_555
H10E C5E 1_555 1_555
H11E C6E 1_555 1_555
H12E C6E 1_555 1_555
H13E C7E 1_555 1_555
H14E C7E 1_555 1_555
H15E C8E 1_555 1_555
H16E C9E 1_555 1_555
H17E C9E 1_555 1_555
H18E C10E 1_555 1_555
H19E C10E 1_555 1_555
H20E C11E 1_555 1_555
H21E C11E 1_555 1_555
H22E C12E 1_555 1_555
H23E C12E 1_555 1_555
H24E C13E 1_555 1_555
H25E C13E 1_555 1_555
C6 C7 1_555 1_555
C12 C13 1_555 1_555
P1E C1E 1_555 1_555
C6E C7E 1_555 1_555
C12E C13E 1_555 1_555

#END
