
#######################################################################
#
#                 Cambridge Crystallographic Data Centre
#                                CCDC 
#
#######################################################################
#
# If this CIF has been generated from an entry in the Cambridge 
# Structural Database, then it will include bibliographic, chemical, 
# crystal, experimental, refinement or atomic coordinate data resulting 
# from the CCDC's data processing and validation procedures.
#
#######################################################################

data_CAVXEF
_chemical_formula_moiety         'C8 H9 N4 1+,C9 H5 O6 1-'
_chemical_name_systematic        
'2,3-dimethylquinoxalin-1-ium 3,5-dicarboxybenzoate'
_symmetry_cell_setting           monoclinic
_symmetry_space_group_name_H-M   'P n'
_symmetry_Int_Tables_number      7
_space_group_name_Hall           'P -2yac'
loop_
_symmetry_equiv_pos_site_id
_symmetry_equiv_pos_as_xyz
1 x,y,z
2 1/2+x,-y,1/2+z
_cell_length_a                   9.868(2)
_cell_length_b                   5.3172(11)
_cell_length_c                   15.387(3)
_cell_angle_alpha                90
_cell_angle_beta                 91.10(3)
_cell_angle_gamma                90
_cell_volume                     807.209
_exptl_crystal_colour            colorless
_exptl_crystal_description       Prism
_cell_formula_units_Z            2
loop_
_atom_site_label
_atom_site_type_symbol
_atom_site_fract_x
_atom_site_fract_y
_atom_site_fract_z
C1 C 0.5936(2) 0.5786(5) 0.23143(15)
C2 C 0.5004(2) 0.7925(5) 0.21834(16)
C3 C 0.5679(3) 0.8283(5) 0.07361(16)
C4 C 0.5577(3) 0.9474(5) -0.00701(17)
H1 H 0.4984 1.0820 -0.0146
C5 C 0.6342(3) 0.8680(6) -0.07510(18)
H2 H 0.6254 0.9477 -0.1287
C6 C 0.7251(3) 0.6687(6) -0.06487(17)
H3 H 0.7784 0.6184 -0.1110
C7 C 0.7354(3) 0.5469(5) 0.01400(17)
H4 H 0.7950 0.4125 0.0211
C8 C 0.6570(3) 0.6246(5) 0.08273(16)
N1 N 0.4209(2) 0.8589(4) 0.28332(13)
H5 H 0.3627 0.9777 0.2761
H6 H 0.4278 0.7829 0.3326
N2 N 0.6027(2) 0.4601(4) 0.30653(13)
H7 H 0.6565 0.3338 0.3126
H8 H 0.5548 0.5090 0.3495
N3 N 0.6657(2) 0.5088(4) 0.16395(13)
H9 H 0.7211 0.3850 0.1705
N4 N 0.4906(2) 0.9077(4) 0.14273(13)
C9 C 0.5640(2) 1.3508(4) 0.70260(16)
H10 H 0.5548 1.4415 0.7538
C10 C 0.6634(2) 1.4156(5) 0.64410(14)
C11 C 0.6777(2) 1.2822(5) 0.56699(15)
H11 H 0.7441 1.3284 0.5280
C12 C 0.5930(2) 1.0804(5) 0.54841(15)
C13 C 0.4932(2) 1.0159(5) 0.60669(15)
H12 H 0.4356 0.8819 0.5939
C14 C 0.4777(2) 1.1485(5) 0.68420(16)
C15 C 0.3723(2) 1.0711(5) 0.74553(16)
C16 C 0.7533(2) 1.6321(5) 0.66685(16)
C17 C 0.6096(2) 0.9304(5) 0.46626(15)
O1 O 0.29438(18) 0.8963(4) 0.72988(13)
O2 O 0.36675(18) 1.2007(3) 0.81714(11)
H13 H 0.282(4) 1.138(7) 0.851(2)
O3 O 0.73941(18) 1.7551(3) 0.73277(12)
O4 O 0.84804(18) 1.6778(3) 0.60943(12)
H14 H 0.898(3) 1.839(7) 0.625(2)
O5 O 0.70124(18) 1.0053(3) 0.41571(12)
O6 O 0.53209(18) 0.7467(3) 0.45264(11)
loop_
_geom_bond_atom_site_label_1
_geom_bond_atom_site_label_2
_geom_bond_site_symmetry_1
_geom_bond_site_symmetry_2
C1 C2 1_555 1_555
C2 N1 1_555 1_555
C3 C4 1_555 1_555
C4 H1 1_555 1_555
C5 C4 1_555 1_555
H2 C5 1_555 1_555
C6 C5 1_555 1_555
H3 C6 1_555 1_555
C7 C6 1_555 1_555
H4 C7 1_555 1_555
C8 C3 1_555 1_555
N1 H5 1_555 1_555
H6 N1 1_555 1_555
N2 C1 1_555 1_555
H7 N2 1_555 1_555
H8 N2 1_555 1_555
N3 C1 1_555 1_555
H9 N3 1_555 1_555
N4 C2 1_555 1_555
C9 H10 1_555 1_555
C10 C9 1_555 1_555
C11 C10 1_555 1_555
H11 C11 1_555 1_555
C12 C11 1_555 1_555
C13 C12 1_555 1_555
H12 C13 1_555 1_555
C14 C9 1_555 1_555
C15 C14 1_555 1_555
C16 C10 1_555 1_555
C17 C12 1_555 1_555
O1 C15 1_555 1_555
O2 C15 1_555 1_555
H13 O2 1_555 1_555
O3 C16 1_555 1_555
O4 C16 1_555 1_555
H14 O4 1_555 1_555
O5 C17 1_555 1_555
O6 C17 1_555 1_555
C3 N4 1_555 1_555
C7 C8 1_555 1_555
C8 N3 1_555 1_555
C13 C14 1_555 1_555

#END
