
#######################################################################
#
#                 Cambridge Crystallographic Data Centre
#                                CCDC 
#
#######################################################################
#
# If this CIF has been generated from an entry in the Cambridge 
# Structural Database, then it will include bibliographic, chemical, 
# crystal, experimental, refinement or atomic coordinate data resulting 
# from the CCDC's data processing and validation procedures.
#
#######################################################################

data_CAVZEH
_chemical_formula_moiety         'C24 H24 B1 P2 1+,Br1 1-'
_chemical_name_systematic        'bis(diphenylphosphane)boronium bromide'
_symmetry_cell_setting           monoclinic
_symmetry_space_group_name_H-M   'P 21/n'
_symmetry_Int_Tables_number      14
_space_group_name_Hall           '-P 2yn'
loop_
_symmetry_equiv_pos_site_id
_symmetry_equiv_pos_as_xyz
1 x,y,z
2 1/2-x,1/2+y,1/2-z
3 -x,-y,-z
4 1/2+x,1/2-y,1/2+z
_cell_length_a                   8.30660(10)
_cell_length_b                   18.0004(3)
_cell_length_c                   15.1242(2)
_cell_angle_alpha                90
_cell_angle_beta                 97.2060(9)
_cell_angle_gamma                90
_cell_volume                     2243.54
_exptl_crystal_colour            colorless
_exptl_crystal_description       block
_cell_formula_units_Z            4
loop_
_atom_site_label
_atom_site_type_symbol
_atom_site_fract_x
_atom_site_fract_y
_atom_site_fract_z
B1 B 0.8185(3) 0.60256(13) 0.27918(14)
P1 P 0.78757(6) 0.60301(3) 0.15072(3)
P2 P 0.61437(6) 0.59322(2) 0.32581(3)
C1 C 0.9788(2) 0.58433(10) 0.10995(12)
C2 C 1.0573(3) 0.51773(11) 0.13511(14)
C3 C 1.2057(3) 0.50193(12) 0.10681(15)
C4 C 1.2745(2) 0.55164(13) 0.05334(14)
C5 C 1.1972(3) 0.61706(14) 0.02758(16)
C6 C 1.0489(2) 0.63412(12) 0.05623(14)
C7 C 0.7013(2) 0.68606(10) 0.09861(12)
C8 C 0.6118(2) 0.68173(11) 0.01408(13)
C9 C 0.5435(3) 0.74536(12) -0.02610(14)
C10 C 0.5613(3) 0.81282(13) 0.01775(17)
C11 C 0.6516(3) 0.81748(12) 0.10110(17)
C12 C 0.7217(3) 0.75452(11) 0.14164(14)
C13 C 0.6490(2) 0.57421(10) 0.44438(12)
C14 C 0.5658(3) 0.61258(13) 0.50398(14)
C15 C 0.5972(3) 0.59820(13) 0.59473(15)
C16 C 0.7124(3) 0.54607(13) 0.62544(14)
C17 C 0.7926(3) 0.50701(13) 0.56689(15)
C18 C 0.7621(3) 0.52076(12) 0.47602(14)
C19 C 0.4849(2) 0.67324(10) 0.30950(12)
C20 C 0.3225(2) 0.66622(12) 0.27539(14)
C21 C 0.2252(3) 0.72873(13) 0.26627(17)
C22 C 0.2868(3) 0.79755(12) 0.29078(15)
C23 C 0.4497(3) 0.80498(12) 0.32394(16)
C24 C 0.5482(3) 0.74285(11) 0.33290(15)
H1 H 1.0067 0.4843 0.1695
H2 H 1.2582 0.4576 0.1236
H3 H 1.3737 0.5405 0.0340
H4 H 1.2434 0.6495 -0.0092
H5 H 0.9961 0.6790 0.0392
H6 H 0.5965 0.6364 -0.0149
H7 H 0.4845 0.7419 -0.0836
H8 H 0.5118 0.8563 -0.0085
H9 H 0.6660 0.8641 0.1307
H10 H 0.7822 0.7578 0.1992
H11 H 0.4907 0.6488 0.4839
H12 H 0.5400 0.6229 0.6358
H13 H 0.7349 0.5362 0.6861
H14 H 0.8669 0.4703 0.5883
H15 H 0.8153 0.4941 0.4357
H16 H 0.2789 0.6193 0.2581
H17 H 0.1143 0.7241 0.2434
H18 H 0.2186 0.8396 0.2861
H19 H 0.4921 0.8517 0.3416
H20 H 0.6582 0.7480 0.3545
H21 H 0.6911 0.5505 0.1199
H22 H 0.8827 0.6536 0.3064
H23 H 0.8884 0.5564 0.2992
H24 H 0.5261 0.5406 0.2879
Br1 Br 0.61609(2) 0.409032(10) 0.191816(13)
loop_
_geom_bond_atom_site_label_1
_geom_bond_atom_site_label_2
_geom_bond_site_symmetry_1
_geom_bond_site_symmetry_2
B1 P1 1_555 1_555
P1 C1 1_555 1_555
P2 B1 1_555 1_555
C1 C2 1_555 1_555
C2 C3 1_555 1_555
C3 C4 1_555 1_555
C4 C5 1_555 1_555
C5 C6 1_555 1_555
C6 C1 1_555 1_555
C7 P1 1_555 1_555
C8 C7 1_555 1_555
C9 C8 1_555 1_555
C10 C9 1_555 1_555
C11 C10 1_555 1_555
C12 C7 1_555 1_555
C13 P2 1_555 1_555
C14 C13 1_555 1_555
C15 C14 1_555 1_555
C16 C15 1_555 1_555
C17 C16 1_555 1_555
C18 C13 1_555 1_555
C19 P2 1_555 1_555
C20 C19 1_555 1_555
C21 C20 1_555 1_555
C22 C21 1_555 1_555
C23 C22 1_555 1_555
C24 C19 1_555 1_555
H1 C2 1_555 1_555
H2 C3 1_555 1_555
H3 C4 1_555 1_555
H4 C5 1_555 1_555
H5 C6 1_555 1_555
H6 C8 1_555 1_555
H7 C9 1_555 1_555
H8 C10 1_555 1_555
H9 C11 1_555 1_555
H10 C12 1_555 1_555
H11 C14 1_555 1_555
H12 C15 1_555 1_555
H13 C16 1_555 1_555
H14 C17 1_555 1_555
H15 C18 1_555 1_555
H16 C20 1_555 1_555
H17 C21 1_555 1_555
H18 C22 1_555 1_555
H19 C23 1_555 1_555
H20 C24 1_555 1_555
H21 P1 1_555 1_555
H22 B1 1_555 1_555
H23 B1 1_555 1_555
H24 P2 1_555 1_555
C11 C12 1_555 1_555
C17 C18 1_555 1_555
C23 C24 1_555 1_555

#END
