
#######################################################################
#
#                 Cambridge Crystallographic Data Centre
#                                CCDC 
#
#######################################################################
#
# If this CIF has been generated from an entry in the Cambridge 
# Structural Database, then it will include bibliographic, chemical, 
# crystal, experimental, refinement or atomic coordinate data resulting 
# from the CCDC's data processing and validation procedures.
#
#######################################################################

data_CAWDUZ
_chemical_formula_moiety         'C14 H10 O2'
_chemical_name_systematic        
anti-1,4:5,8-Diepoxy-1,4,5,8-tetrahydroanthracene
_symmetry_cell_setting           orthorhombic
_symmetry_space_group_name_H-M   'P b c a'
_symmetry_Int_Tables_number      61
_space_group_name_Hall           '-P 2ac 2ab'
loop_
_symmetry_equiv_pos_site_id
_symmetry_equiv_pos_as_xyz
1 x,y,z
2 1/2-x,-y,1/2+z
3 1/2+x,1/2-y,-z
4 -x,1/2+y,1/2-z
5 -x,-y,-z
6 1/2+x,y,1/2-z
7 1/2-x,1/2+y,z
8 x,1/2-y,1/2+z
_cell_length_a                   15.540(6)
_cell_length_b                   9.425(5)
_cell_length_c                   6.779(3)
_cell_angle_alpha                90
_cell_angle_beta                 90
_cell_angle_gamma                90
_cell_volume                     992.883
_exptl_crystal_colour            white
_chemical_melting_point          245deg.C.(dec.)
_cell_formula_units_Z            4
loop_
_atom_site_label
_atom_site_type_symbol
_atom_site_fract_x
_atom_site_fract_y
_atom_site_fract_z
O1 O 0.88110 0.04500 0.10220
C1 C 0.84190 0.05480 0.29570
C2 C 0.79600 -0.08850 0.30440
C3 C 0.84530 -0.17650 0.20890
C4 C 0.92200 -0.09020 0.13780
C5 C 0.97440 -0.05280 0.32280
C6 C 1.05370 -0.09600 0.39480
C7 C 0.92240 0.04140 0.42560
H1 H 0.80700 0.14000 0.31500
H2 H 0.74300 -0.10600 0.37700
H3 H 0.83900 -0.28000 0.19700
H4 H 0.95400 -0.12200 0.02200
H5 H 1.08700 -0.16500 0.31900
C7D C 1.07760 -0.04140 0.57440
C6D C 0.94630 0.09600 0.60520
C1D C 1.15810 -0.05480 0.70430
C5D C 1.02560 0.05280 0.67720
H5D H 0.91300 0.16500 0.68100
O1D O 1.11890 -0.04500 0.89780
C2D C 1.20400 0.08850 0.69560
H1D H 1.19300 -0.14000 0.68500
C4D C 1.07800 0.09020 0.86220
C3D C 1.15470 0.17650 0.79110
H2D H 1.25700 0.10600 0.62300
H4D H 1.04600 0.12200 0.97800
H3D H 1.16100 0.28000 0.80300
loop_
_geom_bond_atom_site_label_1
_geom_bond_atom_site_label_2
_geom_bond_site_symmetry_1
_geom_bond_site_symmetry_2
O1 C1 1_555 1_555
C1 C2 1_555 1_555
C2 C3 1_555 1_555
C3 C4 1_555 1_555
C4 O1 1_555 1_555
C5 C4 1_555 1_555
C6 C5 1_555 1_555
C7 C1 1_555 1_555
H1 C1 1_555 1_555
H2 C2 1_555 1_555
H3 C3 1_555 1_555
H4 C4 1_555 1_555
H5 C6 1_555 1_555
C7D C6 1_555 1_555
C6D C7 1_555 1_555
C1D C7D 1_555 1_555
C5D C7D 1_555 1_555
H5D C6D 1_555 1_555
O1D C1D 1_555 1_555
C2D C1D 1_555 1_555
H1D C1D 1_555 1_555
C4D C5D 1_555 1_555
C3D C2D 1_555 1_555
H2D C2D 1_555 1_555
H4D C4D 1_555 1_555
H3D C3D 1_555 1_555
C5 C7 1_555 1_555
C6D C5D 1_555 1_555
O1D C4D 1_555 1_555
C4D C3D 1_555 1_555

#END
