
#######################################################################
#
#                 Cambridge Crystallographic Data Centre
#                                CCDC 
#
#######################################################################
#
# If this CIF has been generated from an entry in the Cambridge 
# Structural Database, then it will include bibliographic, chemical, 
# crystal, experimental, refinement or atomic coordinate data resulting 
# from the CCDC's data processing and validation procedures.
#
#######################################################################

data_CAWFEO
_chemical_formula_moiety         'C80 H94 B2 N2,C1 H2 Cl2'
_chemical_name_systematic        
'([1^4^,3^4^-bis(4-heptylpyridin-2-yl)-3^3^-methanidyl[1^1^,2^1^:2^4^,3^1^-terphenyl]-1^3^-yl]methanide)(tetramesityl)diboron dichloromethane solvate'
_symmetry_cell_setting           triclinic
_symmetry_space_group_name_H-M   'P -1'
_symmetry_Int_Tables_number      2
_space_group_name_Hall           '-P 1'
loop_
_symmetry_equiv_pos_site_id
_symmetry_equiv_pos_as_xyz
1 x,y,z
2 -x,-y,-z
_cell_length_a                   8.5114(17)
_cell_length_b                   13.742(3)
_cell_length_c                   16.307(3)
_cell_angle_alpha                73.720(3)
_cell_angle_beta                 88.909(4)
_cell_angle_gamma                89.536(3)
_cell_volume                     1830.51
_exptl_crystal_colour            yellow
_exptl_crystal_description       thin
_cell_formula_units_Z            1
loop_
_atom_site_label
_atom_site_type_symbol
_atom_site_fract_x
_atom_site_fract_y
_atom_site_fract_z
B1 B 0.6680(7) 0.1916(3) 0.7080(3)
N1 N 0.7908(5) 0.0961(2) 0.7172(2)
C1 C 0.5927(6) 0.2002(3) 0.6132(3)
H1 H 0.5136 0.2553 0.5993
H2 H 0.6769 0.2166 0.5688
C2 C 0.5168(6) 0.1009(3) 0.6142(3)
C3 C 0.3756(6) 0.0959(3) 0.5768(3)
H3 H 0.3214 0.1574 0.5514
C4 C 0.3077(6) 0.0051(3) 0.5740(2)
C5 C 0.3921(6) -0.0842(3) 0.6103(3)
H4 H 0.3492 -0.1474 0.6094
C6 C 0.5349(6) -0.0821(3) 0.6470(3)
H5 H 0.5892 -0.1441 0.6705
C7 C 0.6043(6) 0.0107(3) 0.6508(3)
C8 C 0.1514(6) 0.0027(3) 0.5354(3)
C9 C 0.0458(6) 0.0837(3) 0.5207(3)
H6 H 0.0765 0.1433 0.5348
C10 C 0.0999(6) -0.0816(3) 0.5132(3)
H7 H 0.1668 -0.1392 0.5216
C11 C 0.7534(6) 0.0118(3) 0.6913(2)
C12 C 0.8591(6) -0.0685(3) 0.7049(3)
H8 H 0.8322 -0.1258 0.6864
C13 C 1.0012(6) -0.0685(3) 0.7440(3)
C14 C 1.0400(7) 0.0188(3) 0.7669(3)
H9 H 1.1382 0.0236 0.7922
C15 C 0.9341(6) 0.0981(3) 0.7524(3)
H10 H 0.9627 0.1572 0.7678
C16 C 0.5144(6) 0.1651(3) 0.7754(3)
C17 C 0.4883(6) 0.0746(3) 0.8444(3)
C18 C 0.3594(6) 0.0634(3) 0.8989(3)
H11 H 0.3477 0.0026 0.9440
C19 C 0.2447(6) 0.1402(4) 0.8889(3)
C20 C 0.2679(7) 0.2294(3) 0.8222(3)
H12 H 0.1934 0.2829 0.8142
C21 C 0.3990(6) 0.2407(3) 0.7677(3)
C22 C 0.4049(7) 0.3439(3) 0.7027(3)
H13 H 0.3454 0.3928 0.7248
H14 H 0.3585 0.3397 0.6492
H15 H 0.5144 0.3660 0.6920
C23 C 0.6019(6) -0.0151(3) 0.8681(3)
H16 H 0.5719 -0.0601 0.9242
H17 H 0.7089 0.0097 0.8702
H18 H 0.5977 -0.0526 0.8251
C24 C 0.1082(8) 0.1288(4) 0.9479(3)
H19 H 0.1447 0.1128 1.0068
H20 H 0.0412 0.0737 0.9415
H21 H 0.0479 0.1922 0.9345
C25 C 0.7746(6) 0.2872(3) 0.7190(3)
C26 C 0.8722(6) 0.3502(3) 0.6525(3)
C27 C 0.9573(7) 0.4309(3) 0.6642(4)
H22 H 1.0145 0.4729 0.6171
C28 C 0.9618(7) 0.4523(4) 0.7424(4)
C29 C 0.8759(7) 0.3907(4) 0.8087(4)
H23 H 0.8777 0.4038 0.8629
C30 C 0.7862(7) 0.3098(3) 0.8000(3)
C31 C 0.7118(8) 0.2450(4) 0.8831(3)
H24 H 0.7606 0.2610 0.9317
H25 H 0.7281 0.1731 0.8873
H26 H 0.5988 0.2594 0.8837
C32 C 0.8850(7) 0.3367(4) 0.5634(3)
H27 H 0.9669 0.3816 0.5306
H28 H 0.7842 0.3537 0.5348
H29 H 0.9123 0.2661 0.5674
C33 C 1.0678(8) 0.5360(4) 0.7556(4)
H30 H 1.0975 0.5196 0.8157
H31 H 1.0111 0.6008 0.7399
H32 H 1.1626 0.5412 0.7196
C34 C 1.1086(7) -0.1590(3) 0.7662(3)
H33 H 1.0827 -0.2047 0.7310
H34 H 1.2186 -0.1364 0.7528
C35 C 1.0935(8) -0.2154(4) 0.8583(3)
H35 H 0.9865 -0.2444 0.8693
H36 H 1.1044 -0.1667 0.8925
C36 C 1.2123(8) -0.3008(4) 0.8897(4)
H37 H 1.2122 -0.3448 0.8510
H38 H 1.1790 -0.3426 0.9473
C37 C 1.3794(7) -0.2631(4) 0.8943(3)
H39 H 1.3765 -0.2091 0.9237
H40 H 1.4205 -0.2329 0.8355
C38 C 1.4933(10) -0.3482(5) 0.9420(4)
H41 H 1.4489 -0.3808 0.9996
H42 H 1.5003 -0.4003 0.9108
C39 C 1.6552(10) -0.3117(5) 0.9511(5)
H43 H 1.6478 -0.2580 0.9808
H44 H 1.7007 -0.2809 0.8934
C40 C 1.7656(11) -0.3936(5) 0.9999(6)
H45 H 1.8629 -0.3626 1.0114
H46 H 1.7899 -0.4404 0.9657
H47 H 1.7154 -0.4310 1.0540
B1A B -0.6680(7) -0.1916(3) 0.2920(3)
N1A N -0.7908(5) -0.0961(2) 0.2828(2)
C1A C -0.5927(6) -0.2002(3) 0.3868(3)
H1A H -0.5136 -0.2553 0.4007
H2A H -0.6769 -0.2166 0.4312
C2A C -0.5168(6) -0.1009(3) 0.3858(3)
C3A C -0.3756(6) -0.0959(3) 0.4232(3)
H3A H -0.3214 -0.1574 0.4486
C4A C -0.3077(6) -0.0051(3) 0.4260(2)
C5A C -0.3921(6) 0.0842(3) 0.3897(3)
H4A H -0.3492 0.1474 0.3906
C6A C -0.5349(6) 0.0821(3) 0.3530(3)
H5A H -0.5892 0.1441 0.3295
C7A C -0.6043(6) -0.0107(3) 0.3492(3)
C8A C -0.1514(6) -0.0027(3) 0.4646(3)
C9A C -0.0458(6) -0.0837(3) 0.4793(3)
H6A H -0.0765 -0.1433 0.4652
C10A C -0.0999(6) 0.0816(3) 0.4868(3)
H7A H -0.1668 0.1392 0.4784
C11A C -0.7534(6) -0.0118(3) 0.3087(2)
C12A C -0.8591(6) 0.0685(3) 0.2951(3)
H8A H -0.8322 0.1258 0.3136
C13A C -1.0012(6) 0.0685(3) 0.2560(3)
C14A C -1.0400(7) -0.0188(3) 0.2331(3)
H9A H -1.1382 -0.0236 0.2078
C15A C -0.9341(6) -0.0981(3) 0.2476(3)
H10A H -0.9627 -0.1572 0.2322
C16A C -0.5144(6) -0.1651(3) 0.2246(3)
C17A C -0.4883(6) -0.0746(3) 0.1556(3)
C18A C -0.3594(6) -0.0634(3) 0.1011(3)
H11A H -0.3477 -0.0026 0.0560
C19A C -0.2447(6) -0.1402(4) 0.1111(3)
C20A C -0.2679(7) -0.2294(3) 0.1778(3)
H12A H -0.1934 -0.2829 0.1858
C21A C -0.3990(6) -0.2407(3) 0.2323(3)
C22A C -0.4049(7) -0.3439(3) 0.2973(3)
H13A H -0.3454 -0.3928 0.2752
H14A H -0.3585 -0.3397 0.3508
H15A H -0.5144 -0.3660 0.3080
C23A C -0.6019(6) 0.0151(3) 0.1319(3)
H16A H -0.5719 0.0601 0.0758
H17A H -0.7089 -0.0097 0.1298
H18A H -0.5977 0.0526 0.1749
C24A C -0.1082(8) -0.1288(4) 0.0521(3)
H19A H -0.1447 -0.1128 -0.0068
H20A H -0.0412 -0.0737 0.0585
H21A H -0.0479 -0.1922 0.0655
C25A C -0.7746(6) -0.2872(3) 0.2810(3)
C26A C -0.8722(6) -0.3502(3) 0.3475(3)
C27A C -0.9573(7) -0.4309(3) 0.3358(4)
H22A H -1.0145 -0.4729 0.3829
C28A C -0.9618(7) -0.4523(4) 0.2576(4)
C29A C -0.8759(7) -0.3907(4) 0.1913(4)
H23A H -0.8777 -0.4038 0.1371
C30A C -0.7862(7) -0.3098(3) 0.2000(3)
C31A C -0.7118(8) -0.2450(4) 0.1169(3)
H24A H -0.7606 -0.2610 0.0683
H25A H -0.7281 -0.1731 0.1127
H26A H -0.5988 -0.2594 0.1163
C32A C -0.8850(7) -0.3367(4) 0.4366(3)
H27A H -0.9669 -0.3816 0.4694
H28A H -0.7842 -0.3537 0.4652
H29A H -0.9123 -0.2661 0.4326
C33A C -1.0678(8) -0.5360(4) 0.2444(4)
H30A H -1.0975 -0.5196 0.1843
H31A H -1.0111 -0.6008 0.2601
H32A H -1.1626 -0.5412 0.2804
C34A C -1.1086(7) 0.1590(3) 0.2338(3)
H33A H -1.0827 0.2047 0.2690
H34A H -1.2186 0.1364 0.2472
C35A C -1.0935(8) 0.2154(4) 0.1417(3)
H35A H -0.9865 0.2444 0.1307
H36A H -1.1044 0.1667 0.1075
C36A C -1.2123(8) 0.3008(4) 0.1103(4)
H37A H -1.2122 0.3448 0.1490
H38A H -1.1790 0.3426 0.0527
C37A C -1.3794(7) 0.2631(4) 0.1057(3)
H39A H -1.3765 0.2091 0.0763
H40A H -1.4205 0.2329 0.1645
C38A C -1.4933(10) 0.3482(5) 0.0580(4)
H41A H -1.4489 0.3808 0.0004
H42A H -1.5003 0.4003 0.0892
C39A C -1.6552(10) 0.3117(5) 0.0489(5)
H43A H -1.6478 0.2580 0.0192
H44A H -1.7007 0.2809 0.1066
C40A C -1.7656(11) 0.3936(5) 0.0001(6)
H45A H -1.8629 0.3626 -0.0114
H46A H -1.7899 0.4404 0.0343
H47A H -1.7154 0.4310 -0.0540
loop_
_geom_bond_atom_site_label_1
_geom_bond_atom_site_label_2
_geom_bond_site_symmetry_1
_geom_bond_site_symmetry_2
B1 N1 1_555 1_555
N1 C11 1_555 1_555
C1 B1 1_555 1_555
H1 C1 1_555 1_555
H2 C1 1_555 1_555
C2 C1 1_555 1_555
C3 C2 1_555 1_555
H3 C3 1_555 1_555
C4 C3 1_555 1_555
C5 C4 1_555 1_555
H4 C5 1_555 1_555
C6 C5 1_555 1_555
H5 C6 1_555 1_555
C7 C2 1_555 1_555
C8 C4 1_555 1_555
C9 C8 1_555 1_555
H6 C9 1_555 1_555
C10 C8 1_555 1_555
H7 C10 1_555 1_555
C11 C7 1_555 1_555
C12 C11 1_555 1_555
H8 C12 1_555 1_555
C13 C12 1_555 1_555
C14 C13 1_555 1_555
H9 C14 1_555 1_555
C15 N1 1_555 1_555
H10 C15 1_555 1_555
C16 B1 1_555 1_555
C17 C16 1_555 1_555
C18 C17 1_555 1_555
H11 C18 1_555 1_555
C19 C18 1_555 1_555
C20 C19 1_555 1_555
H12 C20 1_555 1_555
C21 C16 1_555 1_555
C22 C21 1_555 1_555
H13 C22 1_555 1_555
H14 C22 1_555 1_555
H15 C22 1_555 1_555
C23 C17 1_555 1_555
H16 C23 1_555 1_555
H17 C23 1_555 1_555
H18 C23 1_555 1_555
C24 C19 1_555 1_555
H19 C24 1_555 1_555
H20 C24 1_555 1_555
H21 C24 1_555 1_555
C25 B1 1_555 1_555
C26 C25 1_555 1_555
C27 C26 1_555 1_555
H22 C27 1_555 1_555
C28 C27 1_555 1_555
C29 C28 1_555 1_555
H23 C29 1_555 1_555
C30 C25 1_555 1_555
C31 C30 1_555 1_555
H24 C31 1_555 1_555
H25 C31 1_555 1_555
H26 C31 1_555 1_555
C32 C26 1_555 1_555
H27 C32 1_555 1_555
H28 C32 1_555 1_555
H29 C32 1_555 1_555
C33 C28 1_555 1_555
H30 C33 1_555 1_555
H31 C33 1_555 1_555
H32 C33 1_555 1_555
C34 C13 1_555 1_555
H33 C34 1_555 1_555
H34 C34 1_555 1_555
C35 C34 1_555 1_555
H35 C35 1_555 1_555
H36 C35 1_555 1_555
C36 C35 1_555 1_555
H37 C36 1_555 1_555
H38 C36 1_555 1_555
C37 C36 1_555 1_555
H39 C37 1_555 1_555
H40 C37 1_555 1_555
C38 C37 1_555 1_555
H41 C38 1_555 1_555
H42 C38 1_555 1_555
C39 C38 1_555 1_555
H43 C39 1_555 1_555
H44 C39 1_555 1_555
C40 C39 1_555 1_555
H45 C40 1_555 1_555
H46 C40 1_555 1_555
H47 C40 1_555 1_555
B1A N1A 1_555 1_555
N1A C11A 1_555 1_555
C1A B1A 1_555 1_555
H1A C1A 1_555 1_555
H2A C1A 1_555 1_555
C2A C1A 1_555 1_555
C3A C2A 1_555 1_555
H3A C3A 1_555 1_555
C4A C3A 1_555 1_555
C5A C4A 1_555 1_555
H4A C5A 1_555 1_555
C6A C5A 1_555 1_555
H5A C6A 1_555 1_555
C7A C2A 1_555 1_555
C8A C4A 1_555 1_555
C9A C10 1_555 1_555
H6A C9A 1_555 1_555
C10A C9 1_555 1_555
H7A C10A 1_555 1_555
C11A C7A 1_555 1_555
C12A C11A 1_555 1_555
H8A C12A 1_555 1_555
C13A C12A 1_555 1_555
C14A C13A 1_555 1_555
H9A C14A 1_555 1_555
C15A N1A 1_555 1_555
H10A C15A 1_555 1_555
C16A B1A 1_555 1_555
C17A C16A 1_555 1_555
C18A C17A 1_555 1_555
H11A C18A 1_555 1_555
C19A C18A 1_555 1_555
C20A C19A 1_555 1_555
H12A C20A 1_555 1_555
C21A C16A 1_555 1_555
C22A C21A 1_555 1_555
H13A C22A 1_555 1_555
H14A C22A 1_555 1_555
H15A C22A 1_555 1_555
C23A C17A 1_555 1_555
H16A C23A 1_555 1_555
H17A C23A 1_555 1_555
H18A C23A 1_555 1_555
C24A C19A 1_555 1_555
H19A C24A 1_555 1_555
H20A C24A 1_555 1_555
H21A C24A 1_555 1_555
C25A B1A 1_555 1_555
C26A C25A 1_555 1_555
C27A C26A 1_555 1_555
H22A C27A 1_555 1_555
C28A C27A 1_555 1_555
C29A C28A 1_555 1_555
H23A C29A 1_555 1_555
C30A C25A 1_555 1_555
C31A C30A 1_555 1_555
H24A C31A 1_555 1_555
H25A C31A 1_555 1_555
H26A C31A 1_555 1_555
C32A C26A 1_555 1_555
H27A C32A 1_555 1_555
H28A C32A 1_555 1_555
H29A C32A 1_555 1_555
C33A C28A 1_555 1_555
H30A C33A 1_555 1_555
H31A C33A 1_555 1_555
H32A C33A 1_555 1_555
C34A C13A 1_555 1_555
H33A C34A 1_555 1_555
H34A C34A 1_555 1_555
C35A C34A 1_555 1_555
H35A C35A 1_555 1_555
H36A C35A 1_555 1_555
C36A C35A 1_555 1_555
H37A C36A 1_555 1_555
H38A C36A 1_555 1_555
C37A C36A 1_555 1_555
H39A C37A 1_555 1_555
H40A C37A 1_555 1_555
C38A C37A 1_555 1_555
H41A C38A 1_555 1_555
H42A C38A 1_555 1_555
C39A C38A 1_555 1_555
H43A C39A 1_555 1_555
H44A C39A 1_555 1_555
C40A C39A 1_555 1_555
H45A C40A 1_555 1_555
H46A C40A 1_555 1_555
H47A C40A 1_555 1_555
C6 C7 1_555 1_555
C14 C15 1_555 1_555
C20 C21 1_555 1_555
C29 C30 1_555 1_555
C6A C7A 1_555 1_555
C8A C9A 1_555 1_555
C8A C10A 1_555 1_555
C14A C15A 1_555 1_555
C20A C21A 1_555 1_555
C29A C30A 1_555 1_555

#END
