
#######################################################################
#
#                 Cambridge Crystallographic Data Centre
#                                CCDC 
#
#######################################################################
#
# If this CIF has been generated from an entry in the Cambridge 
# Structural Database, then it will include bibliographic, chemical, 
# crystal, experimental, refinement or atomic coordinate data resulting 
# from the CCDC's data processing and validation procedures.
#
#######################################################################

data_CAWHIT
_chemical_formula_moiety         'C11 H9 Br1 O3'
_chemical_name_systematic        3-Bromo-7-methoxy-4-methyl-2H-chromen-2-one
_symmetry_cell_setting           monoclinic
_symmetry_space_group_name_H-M   'P 21/n'
_symmetry_Int_Tables_number      14
_space_group_name_Hall           '-P 2yn'
loop_
_symmetry_equiv_pos_site_id
_symmetry_equiv_pos_as_xyz
1 x,y,z
2 1/2-x,1/2+y,1/2-z
3 -x,-y,-z
4 1/2+x,1/2-y,1/2+z
_cell_length_a                   7.7700(16)
_cell_length_b                   12.501(3)
_cell_length_c                   10.627(2)
_cell_angle_alpha                90
_cell_angle_beta                 98.46(3)
_cell_angle_gamma                90
_cell_volume                     1021
_cell_formula_units_Z            4
loop_
_atom_site_label
_atom_site_type_symbol
_atom_site_fract_x
_atom_site_fract_y
_atom_site_fract_z
Br1 Br 0.09199(12) 0.66636(7) 0.34947(8)
O1 O -0.1022(8) 0.7830(4) 0.1227(5)
O2 O -0.2151(7) 0.6488(3) 0.0067(5)
O3 O -0.5141(7) 0.3743(4) -0.2460(5)
C1 C -0.0463(9) 0.6085(5) 0.2067(7)
C2 C -0.0762(8) 0.5025(6) 0.1914(6)
C3 C -0.1862(8) 0.4679(5) 0.0787(6)
C4 C -0.2344(9) 0.3606(5) 0.0530(7)
H1 H -0.1923 0.3075 0.1108
C5 C -0.3412(10) 0.3336(6) -0.0547(7)
H2 H -0.3714 0.2622 -0.0694
C6 C -0.4072(10) 0.4109(6) -0.1444(7)
C7 C -0.3607(8) 0.5164(6) -0.1224(6)
H3 H -0.4003 0.5693 -0.1811
C8 C -0.2535(8) 0.5410(5) -0.0106(6)
C9 C -0.1186(9) 0.6881(6) 0.1136(7)
C10 C -0.0022(10) 0.4208(6) 0.2878(7)
H4 H 0.0686 0.4559 0.3573
H5 H 0.0676 0.3708 0.2489
H6 H -0.0954 0.3835 0.3188
C11 C -0.5594(11) 0.4439(8) -0.3499(7)
H7 H -0.6357 0.4076 -0.4155
H8 H -0.4560 0.4658 -0.3825
H9 H -0.6171 0.5057 -0.3226
loop_
_geom_bond_atom_site_label_1
_geom_bond_atom_site_label_2
_geom_bond_site_symmetry_1
_geom_bond_site_symmetry_2
Br1 C1 1_555 1_555
O1 C9 1_555 1_555
O2 C8 1_555 1_555
O3 C6 1_555 1_555
C1 C2 1_555 1_555
C2 C3 1_555 1_555
C3 C4 1_555 1_555
C4 H1 1_555 1_555
C5 C4 1_555 1_555
H2 C5 1_555 1_555
C6 C5 1_555 1_555
C7 C6 1_555 1_555
H3 C7 1_555 1_555
C8 C3 1_555 1_555
C9 O2 1_555 1_555
C10 C2 1_555 1_555
H4 C10 1_555 1_555
H5 C10 1_555 1_555
H6 C10 1_555 1_555
C11 O3 1_555 1_555
H7 C11 1_555 1_555
H8 C11 1_555 1_555
H9 C11 1_555 1_555
C1 C9 1_555 1_555
C7 C8 1_555 1_555

#END
