
#######################################################################
#
#                 Cambridge Crystallographic Data Centre
#                                CCDC 
#
#######################################################################
#
# If this CIF has been generated from an entry in the Cambridge 
# Structural Database, then it will include bibliographic, chemical, 
# crystal, experimental, refinement or atomic coordinate data resulting 
# from the CCDC's data processing and validation procedures.
#
#######################################################################

data_CAWVUU
_chemical_formula_moiety         'C24 H17 Cl1 O5 S1,C1 H2 Cl2'
_chemical_name_systematic        
'7-chloro-3-{[(2,3-dihydro-1-benzofuran-3-yl)methyl]sulfonyl}-4-phenyl-2H-1-benzopyran-2-one dichloromethane solvate'
_symmetry_cell_setting           orthorhombic
_symmetry_space_group_name_H-M   'P b c a'
_symmetry_Int_Tables_number      61
_space_group_name_Hall           '-P 2ac 2ab'
loop_
_symmetry_equiv_pos_site_id
_symmetry_equiv_pos_as_xyz
1 x,y,z
2 1/2-x,-y,1/2+z
3 -x,1/2+y,1/2-z
4 1/2+x,1/2-y,-z
5 -x,-y,-z
6 1/2+x,y,1/2-z
7 x,1/2-y,1/2+z
8 1/2-x,1/2+y,z
_cell_length_a                   9.7739(15)
_cell_length_b                   19.254(3)
_cell_length_c                   25.444(4)
_cell_angle_alpha                90
_cell_angle_beta                 90
_cell_angle_gamma                90
_cell_volume                     4788.22
_exptl_crystal_colour            colorless
_exptl_crystal_description       rod
_cell_formula_units_Z            8
loop_
_atom_site_label
_atom_site_type_symbol
_atom_site_fract_x
_atom_site_fract_y
_atom_site_fract_z
S1 S 0.69249(5) 0.12512(3) 0.74168(2)
Cl1 Cl 0.24680(11) 0.10032(5) 1.02580(3)
O1 O 0.74197(16) 0.05639(7) 0.73068(6)
O2 O 0.79343(16) 0.17843(8) 0.75078(6)
O3 O 0.45913(17) 0.19284(7) 0.86022(6)
O4 O 0.55241(17) 0.24424(7) 0.79207(6)
O5 O 0.5110(2) 0.02793(9) 0.58630(7)
C1 C 0.5349(2) 0.19043(10) 0.81478(8)
C2 C 0.5850(2) 0.12180(10) 0.79820(8)
C3 C 0.5591(2) 0.06336(10) 0.82651(8)
C4 C 0.4824(2) 0.06988(10) 0.87501(8)
C5 C 0.4512(3) 0.01365(12) 0.90811(9)
H1 H 0.4801 -0.0312 0.8988
C6 C 0.3790(3) 0.02317(13) 0.95392(9)
H2 H 0.3587 -0.0149 0.9757
C7 C 0.3365(3) 0.08925(14) 0.96773(9)
C8 C 0.3631(3) 0.14621(13) 0.93661(9)
H3 H 0.3329 0.1908 0.9462
C9 C 0.4363(2) 0.13531(11) 0.89060(8)
C10 C 0.6025(2) -0.00843(10) 0.81160(8)
C11 C 0.5249(2) -0.04634(11) 0.77598(8)
H4 H 0.4475 -0.0263 0.7602
C12 C 0.5621(3) -0.11377(11) 0.76375(9)
H5 H 0.5096 -0.1395 0.7397
C13 C 0.6765(3) -0.14352(11) 0.78688(9)
H6 H 0.7024 -0.1891 0.7780
C14 C 0.7527(3) -0.10614(11) 0.82302(9)
H7 H 0.8298 -0.1264 0.8389
C15 C 0.7151(2) -0.03896(11) 0.83565(9)
H8 H 0.7659 -0.0138 0.8606
C16 C 0.5881(2) 0.15361(11) 0.68884(8)
H9 H 0.5302 0.1917 0.7013
H10 H 0.6474 0.1722 0.6611
C17 C 0.5750(3) 0.03851(13) 0.63685(9)
H11 H 0.6714 0.0511 0.6323
H12 H 0.5704 -0.0042 0.6578
C18 C 0.4968(2) 0.09802(11) 0.66503(8)
H13 H 0.4361 0.0785 0.6924
C19 C 0.4118(2) 0.12675(12) 0.62032(9)
C20 C 0.3297(2) 0.18480(13) 0.61694(10)
H14 H 0.3203 0.2151 0.6457
C21 C 0.2606(3) 0.19771(15) 0.56988(10)
H15 H 0.2034 0.2368 0.5668
C22 C 0.2764(3) 0.15304(17) 0.52778(11)
H16 H 0.2288 0.1622 0.4964
C23 C 0.3598(3) 0.09545(16) 0.53043(10)
H17 H 0.3710 0.0657 0.5015
C24 C 0.4263(3) 0.08342(13) 0.57732(9)
C25 C 0.2474(4) 0.16301(16) 0.35155(12)
H18 H 0.2222 0.1241 0.3287
H19 H 0.2765 0.2017 0.3291
Cl2 Cl 0.10413(10) 0.18848(5) 0.38831(3)
Cl3 Cl 0.38352(10) 0.13802(4) 0.39185(3)
loop_
_geom_bond_atom_site_label_1
_geom_bond_atom_site_label_2
_geom_bond_site_symmetry_1
_geom_bond_site_symmetry_2
S1 O1 1_555 1_555
Cl1 C7 1_555 1_555
O2 S1 1_555 1_555
O3 C1 1_555 1_555
O4 C1 1_555 1_555
O5 C17 1_555 1_555
C1 C2 1_555 1_555
C2 S1 1_555 1_555
C3 C2 1_555 1_555
C4 C3 1_555 1_555
C5 C4 1_555 1_555
H1 C5 1_555 1_555
C6 C5 1_555 1_555
H2 C6 1_555 1_555
C7 C6 1_555 1_555
C8 C7 1_555 1_555
H3 C8 1_555 1_555
C9 O3 1_555 1_555
C10 C3 1_555 1_555
C11 C10 1_555 1_555
H4 C11 1_555 1_555
C12 C11 1_555 1_555
H5 C12 1_555 1_555
C13 C12 1_555 1_555
H6 C13 1_555 1_555
C14 C13 1_555 1_555
H7 C14 1_555 1_555
C15 C10 1_555 1_555
H8 C15 1_555 1_555
C16 S1 1_555 1_555
H9 C16 1_555 1_555
H10 C16 1_555 1_555
C17 H11 1_555 1_555
H12 C17 1_555 1_555
C18 C16 1_555 1_555
H13 C18 1_555 1_555
C19 C18 1_555 1_555
C20 C19 1_555 1_555
H14 C20 1_555 1_555
C21 C20 1_555 1_555
H15 C21 1_555 1_555
C22 C21 1_555 1_555
H16 C22 1_555 1_555
C23 C22 1_555 1_555
H17 C23 1_555 1_555
C24 O5 1_555 1_555
C25 H18 1_555 1_555
H19 C25 1_555 1_555
Cl2 C25 1_555 1_555
Cl3 C25 1_555 1_555
C4 C9 1_555 1_555
C8 C9 1_555 1_555
C14 C15 1_555 1_555
C17 C18 1_555 1_555
C19 C24 1_555 1_555
C23 C24 1_555 1_555

#END
