
#######################################################################
#
#                 Cambridge Crystallographic Data Centre
#                                CCDC 
#
#######################################################################
#
# If this CIF has been generated from an entry in the Cambridge 
# Structural Database, then it will include bibliographic, chemical, 
# crystal, experimental, refinement or atomic coordinate data resulting 
# from the CCDC's data processing and validation procedures.
#
#######################################################################

data_CAWWAB
_chemical_formula_moiety         'C24 H23 N1 O4 S1'
_chemical_name_systematic        
5-ethyl-3-((4-methylphenyl)sulfonyl)-2-(2-naphthyl)-6-oxa-3-azabicyclo[3.2.0]heptan-7-one
_symmetry_cell_setting           monoclinic
_symmetry_space_group_name_H-M   'P 21'
_symmetry_Int_Tables_number      4
_space_group_name_Hall           'P 2yb'
loop_
_symmetry_equiv_pos_site_id
_symmetry_equiv_pos_as_xyz
1 x,y,z
2 -x,1/2+y,-z
_cell_length_a                   6.3317(2)
_cell_length_b                   13.3182(3)
_cell_length_c                   11.9108(3)
_cell_angle_alpha                90
_cell_angle_beta                 96.5757(11)
_cell_angle_gamma                90
_cell_volume                     997.793
_exptl_crystal_colour            colorless
_exptl_crystal_description       plate
_cell_formula_units_Z            2
loop_
_atom_site_label
_atom_site_type_symbol
_atom_site_fract_x
_atom_site_fract_y
_atom_site_fract_z
C1 C -0.0268(5) 0.4310(2) 0.7224(3)
C2 C -0.0060(5) 0.4558(3) 0.5992(3)
H1 H -0.1102 0.5056 0.5625
C3 C 0.0333(5) 0.3619(2) 0.5288(3)
H2 H -0.0521 0.3048 0.5544
C4 C 0.3787(5) 0.4317(3) 0.6013(3)
H3 H 0.441 0.4654 0.5387
H4 H 0.4942 0.415 0.6616
C5 C 0.2138(5) 0.4979(3) 0.6465(3)
C6 C 0.2533(5) 0.6097(3) 0.6481(3)
H5 H 0.1291 0.6443 0.6738
H6 H 0.2677 0.6327 0.5703
C7 C 0.4531(6) 0.6388(3) 0.7255(3)
H7 H 0.4462 0.6103 0.8008
H8 H 0.4625 0.7121 0.731
H9 H 0.5788 0.6127 0.6942
C8 C -0.0215(5) 0.3755(3) 0.4013(3)
C9 C 0.1215(5) 0.3413(3) 0.3262(3)
H10 H 0.2568 0.3159 0.3555
C10 C 0.0661(5) 0.3448(3) 0.2118(3)
H11 H 0.1638 0.3212 0.163
C11 C -0.1323(5) 0.3826(3) 0.1646(3)
C12 C -0.1941(5) 0.3865(3) 0.0465(3)
H12 H -0.1002 0.3622 -0.004
C13 C -0.3873(5) 0.4248(3) 0.0043(3)
H13 H -0.4274 0.4263 -0.075
C14 C -0.5276(5) 0.4622(3) 0.0787(3)
H14 H -0.6614 0.489 0.0489
C15 C -0.4724(5) 0.4601(3) 0.1927(3)
H15 H -0.5677 0.4864 0.2414
C16 C -0.2757(5) 0.4195(2) 0.2395(3)
C17 C -0.2143(5) 0.4144(3) 0.3577(3)
H16 H -0.3089 0.4385 0.4079
C18 C 0.2527(5) 0.2009(2) 0.7281(3)
C19 C 0.0528(5) 0.1579(3) 0.7310(3)
H17 H -0.034 0.1428 0.6627
C20 C -0.0178(5) 0.1373(3) 0.8336(3)
H18 H -0.1548 0.1086 0.8356
C21 C 0.1100(6) 0.1581(3) 0.9356(3)
C22 C 0.0331(6) 0.1287(3) 1.0462(3)
H19 H 0.1451 0.1422 1.1082
H20 H -0.0019 0.057 1.0449
H21 H -0.0938 0.1679 1.0574
C23 C 0.3064(6) 0.2029(3) 0.9306(3)
H22 H 0.3922 0.2191 0.9989
C24 C 0.3806(5) 0.2247(3) 0.8277(3)
H23 H 0.5157 0.2551 0.8254
N1 N 0.2617(4) 0.3406(2) 0.5607(2)
O1 O 0.1736(3) 0.46268(18) 0.76254(17)
O2 O -0.1570(4) 0.3975(2) 0.77586(19)
O3 O 0.5702(3) 0.2308(2) 0.61015(19)
O4 O 0.2315(4) 0.16118(19) 0.5150(2)
S1 S 0.34178(10) 0.22761(6) 0.59666(6)
loop_
_geom_bond_atom_site_label_1
_geom_bond_atom_site_label_2
_geom_bond_site_symmetry_1
_geom_bond_site_symmetry_2
C1 C2 1_555 1_555
C2 H1 1_555 1_555
C3 C2 1_555 1_555
H2 C3 1_555 1_555
C4 H3 1_555 1_555
H4 C4 1_555 1_555
C5 C2 1_555 1_555
C6 C5 1_555 1_555
H5 C6 1_555 1_555
H6 C6 1_555 1_555
C7 C6 1_555 1_555
H7 C7 1_555 1_555
H8 C7 1_555 1_555
H9 C7 1_555 1_555
C8 C3 1_555 1_555
C9 C8 1_555 1_555
H10 C9 1_555 1_555
C10 C9 1_555 1_555
H11 C10 1_555 1_555
C11 C10 1_555 1_555
C12 C11 1_555 1_555
H12 C12 1_555 1_555
C13 C12 1_555 1_555
H13 C13 1_555 1_555
C14 C13 1_555 1_555
H14 C14 1_555 1_555
C15 C14 1_555 1_555
H15 C15 1_555 1_555
C16 C11 1_555 1_555
C17 C8 1_555 1_555
H16 C17 1_555 1_555
C18 C19 1_555 1_555
C19 H17 1_555 1_555
C20 C19 1_555 1_555
H18 C20 1_555 1_555
C21 C20 1_555 1_555
C22 C21 1_555 1_555
H19 C22 1_555 1_555
H20 C22 1_555 1_555
H21 C22 1_555 1_555
C23 C21 1_555 1_555
H22 C23 1_555 1_555
C24 C18 1_555 1_555
H23 C24 1_555 1_555
N1 C3 1_555 1_555
O1 C1 1_555 1_555
O2 C1 1_555 1_555
O3 S1 1_555 1_555
O4 S1 1_555 1_555
S1 C18 1_555 1_555
C4 C5 1_555 1_555
C4 N1 1_555 1_555
C5 O1 1_555 1_555
C15 C16 1_555 1_555
C16 C17 1_555 1_555
C23 C24 1_555 1_555
N1 S1 1_555 1_555

#END
