
#######################################################################
#
#                 Cambridge Crystallographic Data Centre
#                                CCDC 
#
#######################################################################
#
# If this CIF has been generated from an entry in the Cambridge 
# Structural Database, then it will include bibliographic, chemical, 
# crystal, experimental, refinement or atomic coordinate data resulting 
# from the CCDC's data processing and validation procedures.
#
#######################################################################

data_CAWWEF
_chemical_formula_moiety         'C24 H22 Cl1 N1 O2 S1'
_chemical_name_systematic        
2-(4-chlorophenyl)-4-(4-methylphenyl)-1-((4-methylphenyl)sulfonyl)-2,5-dihydro-1H-pyrrole
_symmetry_cell_setting           orthorhombic
_symmetry_space_group_name_H-M   'P 21 21 21'
_symmetry_Int_Tables_number      19
_space_group_name_Hall           'P 2ac 2ab'
loop_
_symmetry_equiv_pos_site_id
_symmetry_equiv_pos_as_xyz
1 x,y,z
2 1/2-x,-y,1/2+z
3 -x,1/2+y,1/2-z
4 1/2+x,1/2-y,-z
_cell_length_a                   12.1608(5)
_cell_length_b                   18.1403(6)
_cell_length_c                   28.2647(9)
_cell_angle_alpha                90
_cell_angle_beta                 90
_cell_angle_gamma                90
_cell_volume                     6235.21
_exptl_crystal_colour            colorless
_exptl_crystal_description       needle
_cell_formula_units_Z            12
loop_
_atom_site_label
_atom_site_type_symbol
_atom_site_fract_x
_atom_site_fract_y
_atom_site_fract_z
C1 C 0.2922(5) 0.9098(3) 0.39771(19)
H1 H 0.3016 0.8961 0.3644
H2 H 0.3535 0.9414 0.4076
H3 H 0.2229 0.9367 0.4016
C2 C 0.2902(4) 0.8416(3) 0.42759(17)
C3 C 0.3846(4) 0.8165(3) 0.45073(17)
H4 H 0.4513 0.8434 0.4475
C4 C 0.3830(4) 0.7535(3) 0.47829(16)
H5 H 0.4484 0.7381 0.4938
C5 C 0.2869(4) 0.7122(3) 0.48363(16)
C6 C 0.1916(4) 0.7370(3) 0.46007(16)
H6 H 0.1252 0.7098 0.4628
C7 C 0.1941(5) 0.8002(3) 0.43320(16)
H7 H 0.1286 0.8162 0.418
C8 C 0.2843(4) 0.6463(3) 0.51306(16)
C9 C 0.2048(4) 0.5954(3) 0.51678(16)
H8 H 0.1388 0.5967 0.4988
C10 C 0.2303(4) 0.5357(3) 0.55224(17)
H9 H 0.2316 0.4865 0.5363
C11 C 0.3806(4) 0.6267(3) 0.54470(17)
H10 H 0.4487 0.6192 0.5261
H11 H 0.3936 0.6652 0.5689
C12 C 0.1502(4) 0.5347(3) 0.59340(16)
C13 C 0.0911(4) 0.4719(3) 0.60365(18)
H12 H 0.0992 0.4294 0.5844
C14 C 0.0193(5) 0.4705(3) 0.64233(19)
H13 H -0.0222 0.4273 0.6491
C15 C 0.0092(5) 0.5313(3) 0.67028(19)
C16 C 0.0664(5) 0.5950(3) 0.66059(19)
H14 H 0.0581 0.6371 0.6803
C17 C 0.1367(5) 0.5972(3) 0.62153(18)
H15 H 0.1753 0.6412 0.6141
C18 C 0.3848(4) 0.5430(3) 0.66148(16)
C19 C 0.4259(5) 0.6102(3) 0.67701(18)
H16 H 0.469 0.6402 0.6567
C20 C 0.4024(5) 0.6329(3) 0.72309(18)
H17 H 0.4295 0.679 0.7339
C21 C 0.3412(4) 0.5899(3) 0.75308(18)
C22 C 0.3209(5) 0.6134(4) 0.80338(19)
H18 H 0.3908 0.6273 0.8182
H19 H 0.2878 0.5725 0.821
H20 H 0.2709 0.6557 0.8037
C23 C 0.3001(5) 0.5229(3) 0.73654(18)
H21 H 0.2567 0.493 0.7568
C24 C 0.3218(5) 0.4995(3) 0.69086(18)
H22 H 0.2935 0.4538 0.6799
Cl1 Cl -0.07947(14) 0.53008(11) 0.71867(5)
N1 N 0.3428(4) 0.5573(2) 0.56645(15)
O1 O 0.5293(3) 0.5352(2) 0.59455(13)
O2 O 0.3858(4) 0.4369(2) 0.60137(13)
S1 S 0.41746(11) 0.51290(7) 0.60363(4)
C25 C 0.7654(5) 0.2552(3) 0.61652(17)
H23 H 0.8186 0.217 0.6076
H24 H 0.6912 0.2341 0.6167
H25 H 0.7833 0.2739 0.6481
C26 C 0.7704(4) 0.3172(3) 0.58144(16)
C27 C 0.8673(5) 0.3360(3) 0.55849(17)
H26 H 0.9316 0.3076 0.5642
C28 C 0.8729(4) 0.3951(3) 0.52750(17)
H27 H 0.9406 0.4064 0.5124
C29 C 0.7797(4) 0.4382(3) 0.51828(16)
C30 C 0.6812(4) 0.4180(3) 0.54064(16)
H28 H 0.6163 0.4454 0.5343
C31 C 0.6767(4) 0.3593(3) 0.57159(16)
H29 H 0.609 0.3472 0.5864
C32 C 0.7851(4) 0.5031(3) 0.48711(15)
C33 C 0.7069(4) 0.5538(3) 0.48042(16)
H30 H 0.6374 0.5526 0.4958
C34 C 0.7404(4) 0.6129(3) 0.44598(16)
H31 H 0.7452 0.6616 0.4624
C35 C 0.8879(4) 0.5220(3) 0.45987(15)
H32 H 0.9495 0.5343 0.4814
H33 H 0.9103 0.4811 0.4388
C36 C 0.6619(4) 0.6178(3) 0.40399(16)
C37 C 0.5962(4) 0.6793(3) 0.39746(17)
H34 H 0.6029 0.7201 0.4184
C38 C 0.5203(5) 0.6820(3) 0.36055(18)
H35 H 0.475 0.7241 0.3562
C39 C 0.5123(4) 0.6225(3) 0.33060(17)
C40 C 0.5767(4) 0.5615(3) 0.33603(17)
H36 H 0.5703 0.5214 0.3146
C41 C 0.6518(4) 0.5584(3) 0.37312(17)
H37 H 0.6962 0.5158 0.3774
C42 C 0.9047(4) 0.6112(3) 0.33976(15)
C43 C 0.9421(4) 0.5450(3) 0.32093(17)
H38 H 0.9819 0.5112 0.3401
C44 C 0.9206(4) 0.5288(3) 0.27384(16)
H39 H 0.9468 0.4838 0.2608
C45 C 0.8617(4) 0.5769(3) 0.24539(17)
C46 C 0.8439(5) 0.5604(4) 0.19351(19)
H40 H 0.7756 0.5838 0.1829
H41 H 0.8388 0.507 0.1889
H42 H 0.9058 0.5798 0.1751
C47 C 0.8232(5) 0.6421(3) 0.26508(18)
H43 H 0.7816 0.6753 0.2462
C48 C 0.8451(5) 0.6594(3) 0.31241(18)
H44 H 0.8188 0.7043 0.3256
Cl2 Cl 0.41282(12) 0.62336(9) 0.28594(5)
N2 N 0.8517(3) 0.5868(2) 0.43260(14)
O3 O 0.9108(3) 0.70931(19) 0.40482(12)
O4 O 1.0426(3) 0.6044(2) 0.40929(12)
S2 S 0.93453(10) 0.63256(6) 0.39931(4)
C49 C 0.8084(5) -0.0410(3) 0.59987(19)
H45 H 0.8667 -0.0731 0.5877
H46 H 0.7389 -0.0683 0.6009
H47 H 0.8276 -0.0243 0.6318
C50 C 0.7960(5) 0.0247(3) 0.56784(17)
C51 C 0.8850(4) 0.0504(3) 0.54116(17)
H48 H 0.9541 0.0262 0.5434
C52 C 0.8736(4) 0.1109(3) 0.51147(16)
H49 H 0.9355 0.1277 0.4941
C53 C 0.7738(4) 0.1475(3) 0.50657(16)
C54 C 0.6854(4) 0.1224(3) 0.53405(16)
H50 H 0.6167 0.1471 0.5322
C55 C 0.6962(5) 0.0622(3) 0.56385(17)
H51 H 0.6347 0.0463 0.5819
C56 C 0.7614(4) 0.2092(3) 0.47354(16)
C57 C 0.6737(4) 0.2516(3) 0.46544(16)
H52 H 0.6061 0.2461 0.4819
C58 C 0.6920(4) 0.3089(3) 0.42764(15)
H53 H 0.6824 0.3594 0.4413
C59 C 0.8563(4) 0.2325(3) 0.44257(16)
H54 H 0.9208 0.2473 0.4617
H55 H 0.8781 0.1926 0.4205
C60 C 0.6184(4) 0.2997(3) 0.38459(15)
C61 C 0.6146(4) 0.2325(3) 0.36126(16)
H56 H 0.6558 0.1919 0.3729
C62 C 0.5505(4) 0.2244(3) 0.32091(17)
H57 H 0.5487 0.1785 0.3048
C63 C 0.4896(4) 0.2830(3) 0.30422(17)
C64 C 0.4928(4) 0.3506(3) 0.32705(18)
H58 H 0.4516 0.3912 0.3154
C65 C 0.5575(4) 0.3579(3) 0.36751(17)
H59 H 0.5597 0.4039 0.3836
C66 C 0.8590(4) 0.3007(3) 0.32140(16)
C67 C 0.9091(4) 0.2337(3) 0.31165(17)
H60 H 0.9505 0.209 0.3354
C68 C 0.8980(4) 0.2030(3) 0.26689(17)
H61 H 0.9307 0.1566 0.2602
C69 C 0.8394(4) 0.2397(3) 0.23171(17)
C70 C 0.8346(5) 0.2095(3) 0.18190(18)
H62 H 0.8952 0.2301 0.1632
H63 H 0.7643 0.2231 0.1673
H64 H 0.8412 0.1556 0.1828
C71 C 0.7887(4) 0.3058(3) 0.24273(17)
H65 H 0.747 0.3306 0.2192
C72 C 0.7976(4) 0.3367(3) 0.28754(18)
H66 H 0.7619 0.3819 0.2947
Cl3 Cl 0.40702(11) 0.27177(7) 0.25494(4)
N3 N 0.8094(3) 0.2953(2) 0.41721(14)
O5 O 0.8259(3) 0.41309(19) 0.37560(13)
O6 O 0.9908(3) 0.3340(2) 0.39014(12)
S3 S 0.87671(10) 0.34158(6) 0.37807(4)
loop_
_geom_bond_atom_site_label_1
_geom_bond_atom_site_label_2
_geom_bond_site_symmetry_1
_geom_bond_site_symmetry_2
C1 H1 1_555 1_555
H2 C1 1_555 1_555
H3 C1 1_555 1_555
C2 C1 1_555 1_555
C3 C2 1_555 1_555
H4 C3 1_555 1_555
C4 C3 1_555 1_555
H5 C4 1_555 1_555
C5 C4 1_555 1_555
C6 C5 1_555 1_555
H6 C6 1_555 1_555
C7 C2 1_555 1_555
H7 C7 1_555 1_555
C8 C5 1_555 1_555
C9 C8 1_555 1_555
H8 C9 1_555 1_555
C10 C9 1_555 1_555
H9 C10 1_555 1_555
C11 C8 1_555 1_555
H10 C11 1_555 1_555
H11 C11 1_555 1_555
C12 C10 1_555 1_555
C13 C12 1_555 1_555
H12 C13 1_555 1_555
C14 C13 1_555 1_555
H13 C14 1_555 1_555
C15 C14 1_555 1_555
C16 C15 1_555 1_555
H14 C16 1_555 1_555
C17 C12 1_555 1_555
H15 C17 1_555 1_555
C18 C19 1_555 1_555
C19 H16 1_555 1_555
C20 C19 1_555 1_555
H17 C20 1_555 1_555
C21 C20 1_555 1_555
C22 C21 1_555 1_555
H18 C22 1_555 1_555
H19 C22 1_555 1_555
H20 C22 1_555 1_555
C23 C21 1_555 1_555
H21 C23 1_555 1_555
C24 C18 1_555 1_555
H22 C24 1_555 1_555
Cl1 C15 1_555 1_555
N1 C10 1_555 1_555
O1 S1 1_555 1_555
O2 S1 1_555 1_555
S1 C18 1_555 1_555
C25 H23 1_555 1_555
H24 C25 1_555 1_555
H25 C25 1_555 1_555
C26 C25 1_555 1_555
C27 C26 1_555 1_555
H26 C27 1_555 1_555
C28 C27 1_555 1_555
H27 C28 1_555 1_555
C29 C28 1_555 1_555
C30 C29 1_555 1_555
H28 C30 1_555 1_555
C31 C26 1_555 1_555
H29 C31 1_555 1_555
C32 C29 1_555 1_555
C33 C32 1_555 1_555
H30 C33 1_555 1_555
C34 C33 1_555 1_555
H31 C34 1_555 1_555
C35 C32 1_555 1_555
H32 C35 1_555 1_555
H33 C35 1_555 1_555
C36 C34 1_555 1_555
C37 C36 1_555 1_555
H34 C37 1_555 1_555
C38 C37 1_555 1_555
H35 C38 1_555 1_555
C39 C38 1_555 1_555
C40 C39 1_555 1_555
H36 C40 1_555 1_555
C41 C36 1_555 1_555
H37 C41 1_555 1_555
C42 C43 1_555 1_555
C43 H38 1_555 1_555
C44 C43 1_555 1_555
H39 C44 1_555 1_555
C45 C44 1_555 1_555
C46 C45 1_555 1_555
H40 C46 1_555 1_555
H41 C46 1_555 1_555
H42 C46 1_555 1_555
C47 C45 1_555 1_555
H43 C47 1_555 1_555
C48 C42 1_555 1_555
H44 C48 1_555 1_555
Cl2 C39 1_555 1_555
N2 C34 1_555 1_555
O3 S2 1_555 1_555
O4 S2 1_555 1_555
S2 C42 1_555 1_555
C49 H45 1_555 1_555
H46 C49 1_555 1_555
H47 C49 1_555 1_555
C50 C49 1_555 1_555
C51 C50 1_555 1_555
H48 C51 1_555 1_555
C52 C51 1_555 1_555
H49 C52 1_555 1_555
C53 C52 1_555 1_555
C54 C53 1_555 1_555
H50 C54 1_555 1_555
C55 C50 1_555 1_555
H51 C55 1_555 1_555
C56 C53 1_555 1_555
C57 C56 1_555 1_555
H52 C57 1_555 1_555
C58 C57 1_555 1_555
H53 C58 1_555 1_555
C59 C56 1_555 1_555
H54 C59 1_555 1_555
H55 C59 1_555 1_555
C60 C58 1_555 1_555
C61 C60 1_555 1_555
H56 C61 1_555 1_555
C62 C61 1_555 1_555
H57 C62 1_555 1_555
C63 C62 1_555 1_555
C64 C63 1_555 1_555
H58 C64 1_555 1_555
C65 C60 1_555 1_555
H59 C65 1_555 1_555
C66 C67 1_555 1_555
C67 H60 1_555 1_555
C68 C67 1_555 1_555
H61 C68 1_555 1_555
C69 C68 1_555 1_555
C70 C69 1_555 1_555
H62 C70 1_555 1_555
H63 C70 1_555 1_555
H64 C70 1_555 1_555
C71 C69 1_555 1_555
H65 C71 1_555 1_555
C72 C66 1_555 1_555
H66 C72 1_555 1_555
Cl3 C63 1_555 1_555
N3 C58 1_555 1_555
O5 S3 1_555 1_555
O6 S3 1_555 1_555
S3 C66 1_555 1_555
C6 C7 1_555 1_555
C11 N1 1_555 1_555
C16 C17 1_555 1_555
C23 C24 1_555 1_555
N1 S1 1_555 1_555
C30 C31 1_555 1_555
C35 N2 1_555 1_555
C40 C41 1_555 1_555
C47 C48 1_555 1_555
N2 S2 1_555 1_555
C54 C55 1_555 1_555
C59 N3 1_555 1_555
C64 C65 1_555 1_555
C71 C72 1_555 1_555
N3 S3 1_555 1_555

#END
