
#######################################################################
#
#                 Cambridge Crystallographic Data Centre
#                                CCDC 
#
#######################################################################
#
# If this CIF has been generated from an entry in the Cambridge 
# Structural Database, then it will include bibliographic, chemical, 
# crystal, experimental, refinement or atomic coordinate data resulting 
# from the CCDC's data processing and validation procedures.
#
#######################################################################

data_CAWXIJ
_chemical_formula_moiety         'C32 H24 P2 S2 Se2'
_chemical_name_systematic        
"2,2'-Bithiene-5,5'-diylbis(diphenylphosphine) diselenide"
_symmetry_cell_setting           triclinic
_symmetry_space_group_name_H-M   'P -1'
_symmetry_Int_Tables_number      2
_space_group_name_Hall           '-P 1'
loop_
_symmetry_equiv_pos_site_id
_symmetry_equiv_pos_as_xyz
1 x,y,z
2 -x,-y,-z
_cell_length_a                   9.565(2)
_cell_length_b                   9.6172(19)
_cell_length_c                   16.930(3)
_cell_angle_alpha                85.68(3)
_cell_angle_beta                 74.46(3)
_cell_angle_gamma                78.10(3)
_cell_volume                     1467.86
_exptl_crystal_colour            colorless
_exptl_crystal_description       plate
_cell_formula_units_Z            2
loop_
_atom_site_label
_atom_site_type_symbol
_atom_site_fract_x
_atom_site_fract_y
_atom_site_fract_z
C1 C 0.3049(4) 0.8768(4) 0.3725(2)
C2 C 0.1916(4) 0.8857(4) 0.3369(2)
H1 H 0.2052 0.8589 0.2833
C3 C 0.0517(4) 0.9394(4) 0.3889(2)
H2 H -0.0362 0.9520 0.3732
C4 C 0.0593(4) 0.9713(4) 0.4652(2)
C5 C 0.5251(4) 0.6208(4) 0.3644(2)
C6 C 0.6344(4) 0.5612(4) 0.4043(3)
H3 H 0.6930 0.6179 0.4170
C7 C 0.6555(5) 0.4194(4) 0.4247(3)
H4 H 0.7284 0.3805 0.4513
C8 C 0.5712(5) 0.3343(4) 0.4066(3)
H5 H 0.5868 0.2382 0.4209
C9 C 0.4625(5) 0.3912(5) 0.3671(3)
H6 H 0.4052 0.3329 0.3547
C10 C 0.4384(5) 0.5339(4) 0.3460(3)
H7 H 0.3649 0.5719 0.3196
C11 C 0.5387(4) 0.8163(4) 0.2250(2)
C12 C 0.5915(5) 0.6955(4) 0.1773(3)
H8 H 0.5985 0.6057 0.2022
C13 C 0.6334(5) 0.7094(5) 0.0930(3)
H9 H 0.6677 0.6283 0.0614
C14 C 0.6252(5) 0.8414(5) 0.0549(3)
H10 H 0.6561 0.8501 -0.0019
C15 C 0.5698(5) 0.9615(5) 0.1030(3)
H11 H 0.5611 1.0512 0.0779
C16 C 0.5282(5) 0.9495(4) 0.1860(3)
H12 H 0.4924 1.0310 0.2172
P1 P 0.49937(10) 0.80725(10) 0.33576(6)
S1 S 0.23988(10) 0.93801(10) 0.47111(6)
Se1 Se 0.62259(5) 0.91974(5) 0.38391(3)
C1A C -0.3049(4) 1.1232(4) 0.6275(2)
C2A C -0.1916(4) 1.1143(4) 0.6631(2)
H1A H -0.2052 1.1411 0.7167
C3A C -0.0517(4) 1.0606(4) 0.6111(2)
H2A H 0.0362 1.0480 0.6268
C4A C -0.0593(4) 1.0287(4) 0.5348(2)
C5A C -0.5251(4) 1.3792(4) 0.6356(2)
C6A C -0.6344(4) 1.4388(4) 0.5957(3)
H3A H -0.6930 1.3821 0.5830
C7A C -0.6555(5) 1.5806(4) 0.5753(3)
H4A H -0.7284 1.6195 0.5487
C8A C -0.5712(5) 1.6657(4) 0.5934(3)
H5A H -0.5868 1.7618 0.5791
C9A C -0.4625(5) 1.6088(5) 0.6329(3)
H6A H -0.4052 1.6671 0.6453
C10A C -0.4384(5) 1.4661(4) 0.6540(3)
H7A H -0.3649 1.4281 0.6804
C11A C -0.5387(4) 1.1837(4) 0.7750(2)
C12A C -0.5915(5) 1.3045(4) 0.8227(3)
H8A H -0.5985 1.3943 0.7978
C13A C -0.6334(5) 1.2906(5) 0.9070(3)
H9A H -0.6677 1.3717 0.9386
C14A C -0.6252(5) 1.1586(5) 0.9451(3)
H10A H -0.6561 1.1499 1.0019
C15A C -0.5698(5) 1.0385(5) 0.8970(3)
H11A H -0.5611 0.9488 0.9221
C16A C -0.5282(5) 1.0505(4) 0.8140(3)
H12A H -0.4924 0.9690 0.7828
P1A P -0.49937(10) 1.19275(10) 0.66424(6)
S1A S -0.23988(10) 1.06199(10) 0.52889(6)
Se1A Se -0.62259(5) 1.08026(5) 0.61609(3)
C17 C 0.0971(4) 0.4275(4) 0.3106(2)
C18 C 0.1227(6) 0.3063(4) 0.3562(3)
H13 H 0.1624 0.2171 0.3335
C19 C 0.0835(6) 0.3295(4) 0.4403(3)
H14 H 0.0952 0.2574 0.4791
C20 C 0.0264(4) 0.4676(4) 0.4599(2)
C21 C 0.0042(5) 0.3740(4) 0.1678(3)
C22 C 0.0217(6) 0.3664(5) 0.0842(3)
H15 H 0.1023 0.3953 0.0474
C23 C -0.0799(7) 0.3161(6) 0.0557(3)
H16 H -0.0673 0.3112 -0.0004
C24 C -0.1973(7) 0.2739(6) 0.1081(4)
H17 H -0.2659 0.2410 0.0882
C25 C -0.2151(6) 0.2798(7) 0.1903(4)
H18 H -0.2963 0.2506 0.2263
C26 C -0.1141(5) 0.3288(6) 0.2212(3)
H19 H -0.1264 0.3309 0.2775
C27 C 0.1135(4) 0.6286(4) 0.1751(2)
C28 C -0.0282(5) 0.7124(5) 0.1970(3)
H20 H -0.1083 0.6718 0.2249
C29 C -0.0491(6) 0.8554(5) 0.1772(3)
H21 H -0.1433 0.9114 0.1927
C30 C 0.0668(6) 0.9156(5) 0.1352(3)
H22 H 0.0512 1.0118 0.1210
C31 C 0.2068(6) 0.8344(5) 0.1137(3)
H23 H 0.2861 0.8763 0.0860
C32 C 0.2304(5) 0.6909(5) 0.1331(3)
H24 H 0.3252 0.6362 0.1178
P2 P 0.14340(11) 0.44015(11) 0.20083(6)
S2 S 0.02205(11) 0.57143(10) 0.37273(6)
Se2 Se 0.36010(5) 0.33404(6) 0.14922(3)
C17A C -0.0971(4) 0.5725(4) 0.6894(2)
C18A C -0.1227(6) 0.6937(4) 0.6438(3)
H13A H -0.1624 0.7829 0.6665
C19A C -0.0835(6) 0.6705(4) 0.5597(3)
H14A H -0.0952 0.7426 0.5209
C20A C -0.0264(4) 0.5324(4) 0.5401(2)
C21A C -0.0042(5) 0.6260(4) 0.8322(3)
C22A C -0.0217(6) 0.6336(5) 0.9158(3)
H15A H -0.1023 0.6047 0.9526
C23A C 0.0799(7) 0.6839(6) 0.9443(3)
H16A H 0.0673 0.6888 1.0004
C24A C 0.1973(7) 0.7261(6) 0.8919(4)
H17A H 0.2659 0.7590 0.9118
C25A C 0.2151(6) 0.7202(7) 0.8097(4)
H18A H 0.2963 0.7494 0.7737
C26A C 0.1141(5) 0.6712(6) 0.7788(3)
H19A H 0.1264 0.6691 0.7225
C27A C -0.1135(4) 0.3714(4) 0.8249(2)
C28A C 0.0282(5) 0.2876(5) 0.8030(3)
H20A H 0.1083 0.3282 0.7751
C29A C 0.0491(6) 0.1446(5) 0.8228(3)
H21A H 0.1433 0.0886 0.8073
C30A C -0.0668(6) 0.0844(5) 0.8648(3)
H22A H -0.0512 -0.0118 0.8790
C31A C -0.2068(6) 0.1656(5) 0.8863(3)
H23A H -0.2861 0.1237 0.9140
C32A C -0.2304(5) 0.3091(5) 0.8669(3)
H24A H -0.3252 0.3638 0.8822
P2A P -0.14340(11) 0.55985(11) 0.79917(6)
S2A S -0.02205(11) 0.42857(10) 0.62727(6)
Se2A Se -0.36010(5) 0.66596(6) 0.85078(3)
loop_
_geom_bond_atom_site_label_1
_geom_bond_atom_site_label_2
_geom_bond_site_symmetry_1
_geom_bond_site_symmetry_2
C1 C2 1_555 1_555
C2 H1 1_555 1_555
C3 C2 1_555 1_555
H2 C3 1_555 1_555
C4 C3 1_555 1_555
C5 C6 1_555 1_555
C6 H3 1_555 1_555
C7 C6 1_555 1_555
H4 C7 1_555 1_555
C8 C7 1_555 1_555
H5 C8 1_555 1_555
C9 C8 1_555 1_555
H6 C9 1_555 1_555
C10 C5 1_555 1_555
H7 C10 1_555 1_555
C11 C12 1_555 1_555
C12 H8 1_555 1_555
C13 C12 1_555 1_555
H9 C13 1_555 1_555
C14 C13 1_555 1_555
H10 C14 1_555 1_555
C15 C14 1_555 1_555
H11 C15 1_555 1_555
C16 C11 1_555 1_555
H12 C16 1_555 1_555
C17 C18 1_555 1_555
C18 H13 1_555 1_555
C19 C18 1_555 1_555
H14 C19 1_555 1_555
C20 C19 1_555 1_555
C21 C22 1_555 1_555
C22 H15 1_555 1_555
C23 C22 1_555 1_555
H16 C23 1_555 1_555
C24 C23 1_555 1_555
H17 C24 1_555 1_555
C25 C24 1_555 1_555
H18 C25 1_555 1_555
C26 C21 1_555 1_555
H19 C26 1_555 1_555
C27 C28 1_555 1_555
C28 H20 1_555 1_555
C29 C28 1_555 1_555
H21 C29 1_555 1_555
C30 C29 1_555 1_555
H22 C30 1_555 1_555
C31 C30 1_555 1_555
H23 C31 1_555 1_555
C32 C27 1_555 1_555
H24 C32 1_555 1_555
P1 C1 1_555 1_555
P2 C17 1_555 1_555
S1 C1 1_555 1_555
S2 C17 1_555 1_555
Se1 P1 1_555 1_555
Se2 P2 1_555 1_555
C1A C2A 1_555 1_555
C2A H1A 1_555 1_555
C3A C2A 1_555 1_555
H2A C3A 1_555 1_555
C4A C4 1_555 1_555
C5A C6A 1_555 1_555
C6A H3A 1_555 1_555
C7A C6A 1_555 1_555
H4A C7A 1_555 1_555
C8A C7A 1_555 1_555
H5A C8A 1_555 1_555
C9A C8A 1_555 1_555
H6A C9A 1_555 1_555
C10A C5A 1_555 1_555
H7A C10A 1_555 1_555
C11A C12A 1_555 1_555
C12A H8A 1_555 1_555
C13A C12A 1_555 1_555
H9A C13A 1_555 1_555
C14A C13A 1_555 1_555
H10A C14A 1_555 1_555
C15A C14A 1_555 1_555
H11A C15A 1_555 1_555
C16A C11A 1_555 1_555
H12A C16A 1_555 1_555
C17A C18A 1_555 1_555
C18A H13A 1_555 1_555
C19A C18A 1_555 1_555
H14A C19A 1_555 1_555
C20A C20 1_555 1_555
C21A C22A 1_555 1_555
C22A H15A 1_555 1_555
C23A C22A 1_555 1_555
H16A C23A 1_555 1_555
C24A C23A 1_555 1_555
H17A C24A 1_555 1_555
C25A C24A 1_555 1_555
H18A C25A 1_555 1_555
C26A C21A 1_555 1_555
H19A C26A 1_555 1_555
C27A C28A 1_555 1_555
C28A H20A 1_555 1_555
C29A C28A 1_555 1_555
H21A C29A 1_555 1_555
C30A C29A 1_555 1_555
H22A C30A 1_555 1_555
C31A C30A 1_555 1_555
H23A C31A 1_555 1_555
C32A C27A 1_555 1_555
H24A C32A 1_555 1_555
P1A C1A 1_555 1_555
P2A C17A 1_555 1_555
S1A C1A 1_555 1_555
S2A C17A 1_555 1_555
Se1A P1A 1_555 1_555
Se2A P2A 1_555 1_555
C4 S1 1_555 1_555
C5 P1 1_555 1_555
C9 C10 1_555 1_555
C11 P1 1_555 1_555
C15 C16 1_555 1_555
C20 S2 1_555 1_555
C21 P2 1_555 1_555
C25 C26 1_555 1_555
C27 P2 1_555 1_555
C31 C32 1_555 1_555
C3A C4A 1_555 1_555
C4A S1A 1_555 1_555
C5A P1A 1_555 1_555
C9A C10A 1_555 1_555
C11A P1A 1_555 1_555
C15A C16A 1_555 1_555
C19A C20A 1_555 1_555
C20A S2A 1_555 1_555
C21A P2A 1_555 1_555
C25A C26A 1_555 1_555
C27A P2A 1_555 1_555
C31A C32A 1_555 1_555

#END
