
#######################################################################
#
#                 Cambridge Crystallographic Data Centre
#                                CCDC 
#
#######################################################################
#
# If this CIF has been generated from an entry in the Cambridge 
# Structural Database, then it will include bibliographic, chemical, 
# crystal, experimental, refinement or atomic coordinate data resulting 
# from the CCDC's data processing and validation procedures.
#
#######################################################################

data_CAWXAB
_chemical_formula_moiety         'C20 H15 P1 S3'
_chemical_name_systematic        
"2,2'-Bithiophen-5-yl(diphenyl)phosphine sulfide"
_symmetry_cell_setting           triclinic
_symmetry_space_group_name_H-M   'P -1'
_symmetry_Int_Tables_number      2
_space_group_name_Hall           '-P 1'
loop_
_symmetry_equiv_pos_site_id
_symmetry_equiv_pos_as_xyz
1 x,y,z
2 -x,-y,-z
_cell_length_a                   9.4687(19)
_cell_length_b                   9.6133(19)
_cell_length_c                   21.395(4)
_cell_angle_alpha                82.00(3)
_cell_angle_beta                 80.68(3)
_cell_angle_gamma                78.17(3)
_cell_volume                     1869.61
_exptl_crystal_colour            colorless
_exptl_crystal_description       needle
_cell_formula_units_Z            4
loop_
_atom_site_label
_atom_site_type_symbol
_atom_site_fract_x
_atom_site_fract_y
_atom_site_fract_z
S1 S 0.4130(3) 0.1979(5) 0.98476(16)
C1 C 0.3331(10) 0.2393(15) 0.9172(4)
C2 C 0.1902(16) 0.287(3) 0.9295(7)
H1 H 0.1266 0.3063 0.8992
C3 C 0.1485(10) 0.3059(16) 0.9943(4)
H2 H 0.0543 0.3476 1.0103
C4 C 0.2544(10) 0.2590(11) 1.0319(4)
H3 H 0.2431 0.2598 1.0758
C5 C 0.4971(3) 0.2051(3) 0.73837(14)
C6 C 0.6070(3) 0.1509(4) 0.77400(17)
H4 H 0.7021 0.1166 0.7563
C7 C 0.5637(4) 0.1516(4) 0.83934(17)
H5 H 0.6268 0.1180 0.8694
C8 C 0.4191(3) 0.2067(3) 0.85490(14)
C9 C 0.5856(3) 0.3897(3) 0.62803(15)
C10 C 0.6189(4) 0.4271(4) 0.56378(17)
H6 H 0.6039 0.3689 0.5351
C11 C 0.6741(5) 0.5492(5) 0.5411(2)
H7 H 0.6960 0.5733 0.4975
C12 C 0.6963(4) 0.6339(4) 0.5829(2)
H8 H 0.7332 0.7166 0.5677
C13 C 0.6652(5) 0.5993(4) 0.6463(2)
H9 H 0.6804 0.6584 0.6745
C14 C 0.6106(4) 0.4759(4) 0.66938(18)
H10 H 0.5910 0.4516 0.7131
C15 C 0.3269(3) 0.2741(3) 0.63501(13)
C16 C 0.2730(4) 0.1829(3) 0.60454(15)
H11 H 0.3321 0.0977 0.5933
C17 C 0.1321(4) 0.2176(4) 0.59058(18)
H12 H 0.0967 0.1561 0.5696
C18 C 0.0441(4) 0.3419(4) 0.60744(19)
H13 H -0.0512 0.3642 0.5982
C19 C 0.0952(4) 0.4338(4) 0.63787(19)
H14 H 0.0346 0.5177 0.6497
C20 C 0.2369(3) 0.4012(3) 0.65083(16)
H15 H 0.2726 0.4649 0.6703
P1 P 0.51227(8) 0.22783(8) 0.65346(4)
S2 S 0.62716(12) 0.06100(10) 0.61537(5)
S3 S 0.33654(8) 0.25481(8) 0.78714(4)
C21 C 0.9700(3) 0.0462(3) 0.20655(13)
C22 C 0.9735(3) -0.0915(3) 0.23345(14)
H16 H 0.9377 -0.1161 0.2758
C23 C 1.0371(3) -0.1928(3) 0.19032(15)
H17 H 1.0484 -0.2911 0.2016
C24 C 1.0801(3) -0.1332(3) 0.13094(13)
C25 C 1.1517(3) -0.1961(3) 0.07333(14)
C26 C 1.1817(3) -0.1265(3) 0.01225(12)
H18 H 1.1581 -0.0283 0.0012
C27 C 1.2540(4) -0.2278(4) -0.03085(16)
H19 H 1.2831 -0.2020 -0.0738
C28 C 1.2760(4) -0.3642(4) -0.00366(17)
H20 H 1.3217 -0.4418 -0.0256
C29 C 0.8731(3) 0.1840(3) 0.32127(13)
C30 C 0.9992(3) 0.1463(3) 0.35005(15)
H21 H 1.0896 0.1288 0.3251
C31 C 0.9908(4) 0.1346(4) 0.41516(16)
H22 H 1.0756 0.1107 0.4340
C32 C 0.8578(4) 0.1581(4) 0.45261(16)
H23 H 0.8527 0.1509 0.4967
C33 C 0.7319(4) 0.1923(4) 0.42476(16)
H24 H 0.6417 0.2061 0.4502
C34 C 0.7391(3) 0.2061(3) 0.35950(14)
H25 H 0.6538 0.2303 0.3409
C35 C 0.7091(3) 0.2576(3) 0.21325(13)
C36 C 0.6617(3) 0.3888(3) 0.18069(14)
H26 H 0.7236 0.4547 0.1701
C37 C 0.5239(4) 0.4232(3) 0.16383(16)
H27 H 0.4936 0.5112 0.1412
C38 C 0.4314(4) 0.3286(4) 0.18012(16)
H28 H 0.3372 0.3532 0.1696
C39 C 0.4772(4) 0.1963(4) 0.21212(18)
H29 H 0.4143 0.1313 0.2226
C40 C 0.6156(3) 0.1603(3) 0.22852(16)
H30 H 0.6465 0.0708 0.2498
P2 P 0.89127(8) 0.21521(7) 0.23523(3)
S4 S 1.00714(9) 0.36017(9) 0.19944(4)
S5 S 1.04455(9) 0.05065(8) 0.12815(4)
S6 S 1.21163(10) -0.37798(10) 0.07463(5)
C41? C 0.3490(11) 0.216(2) 0.9157(5)
C42? C 0.4072(11) 0.185(2) 0.9720(6)
C43? C 0.3061(13) 0.2349(19) 1.0230(4)
C44? C 0.1668(11) 0.294(2) 1.0125(3)
H31? H 0.5017 0.1366 0.9757
H32? H 0.3333 0.2278 1.0634
H33? H 0.0876 0.3234 1.0427
S7? S 0.1695(7) 0.3047(11) 0.9305(3)
loop_
_geom_bond_atom_site_label_1
_geom_bond_atom_site_label_2
_geom_bond_site_symmetry_1
_geom_bond_site_symmetry_2
S1 C1 1_555 1_555
C1 C2 1_555 1_555
C2 H1 1_555 1_555
C3 C2 1_555 1_555
H2 C3 1_555 1_555
C4 S1 1_555 1_555
H3 C4 1_555 1_555
C5 C6 1_555 1_555
C6 H4 1_555 1_555
C7 C6 1_555 1_555
H5 C7 1_555 1_555
C8 C1 1_555 1_555
C9 C10 1_555 1_555
C10 H6 1_555 1_555
C11 C10 1_555 1_555
H7 C11 1_555 1_555
C12 C11 1_555 1_555
H8 C12 1_555 1_555
C13 C12 1_555 1_555
H9 C13 1_555 1_555
C14 C9 1_555 1_555
H10 C14 1_555 1_555
C15 C16 1_555 1_555
C16 H11 1_555 1_555
C17 C16 1_555 1_555
H12 C17 1_555 1_555
C18 C17 1_555 1_555
H13 C18 1_555 1_555
C19 C18 1_555 1_555
H14 C19 1_555 1_555
C20 C15 1_555 1_555
H15 C20 1_555 1_555
C21 C22 1_555 1_555
C22 H16 1_555 1_555
C23 C22 1_555 1_555
H17 C23 1_555 1_555
C24 C23 1_555 1_555
C25 C24 1_555 1_555
C26 C25 1_555 1_555
H18 C26 1_555 1_555
C27 C26 1_555 1_555
H19 C27 1_555 1_555
C28 C27 1_555 1_555
H20 C28 1_555 1_555
C29 C30 1_555 1_555
C30 H21 1_555 1_555
C31 C30 1_555 1_555
H22 C31 1_555 1_555
C32 C31 1_555 1_555
H23 C32 1_555 1_555
C33 C32 1_555 1_555
H24 C33 1_555 1_555
C34 C29 1_555 1_555
H25 C34 1_555 1_555
C35 C36 1_555 1_555
C36 H26 1_555 1_555
C37 C36 1_555 1_555
H27 C37 1_555 1_555
C38 C37 1_555 1_555
H28 C38 1_555 1_555
C39 C38 1_555 1_555
H29 C39 1_555 1_555
C40 C35 1_555 1_555
H30 C40 1_555 1_555
P1 C5 1_555 1_555
P2 C21 1_555 1_555
S2 P1 1_555 1_555
S3 C5 1_555 1_555
S4 P2 1_555 1_555
S5 C21 1_555 1_555
S6 C25 1_555 1_555
C3 C4 1_555 1_555
C7 C8 1_555 1_555
C8 S3 1_555 1_555
C9 P1 1_555 1_555
C13 C14 1_555 1_555
C15 P1 1_555 1_555
C19 C20 1_555 1_555
C24 S5 1_555 1_555
C28 S6 1_555 1_555
C29 P2 1_555 1_555
C33 C34 1_555 1_555
C35 P2 1_555 1_555
C39 C40 1_555 1_555

#END
