
#######################################################################
#
#                 Cambridge Crystallographic Data Centre
#                                CCDC 
#
#######################################################################
#
# If this CIF has been generated from an entry in the Cambridge 
# Structural Database, then it will include bibliographic, chemical, 
# crystal, experimental, refinement or atomic coordinate data resulting 
# from the CCDC's data processing and validation procedures.
#
#######################################################################

data_CAWXEE
_chemical_formula_moiety         'C23 H22'
_chemical_name_systematic        
5-Methyl-1,1-diphenyl-1,2,3,4-tetrahydronaphthalene
_symmetry_cell_setting           monoclinic
_symmetry_space_group_name_H-M   'C 2/c'
_symmetry_Int_Tables_number      15
_space_group_name_Hall           '-C 2yn'
loop_
_symmetry_equiv_pos_site_id
_symmetry_equiv_pos_as_xyz
1 x,y,z
2 1/2+x,1/2+y,z
3 -x,y,1/2-z
4 1/2-x,1/2+y,1/2-z
5 -x,-y,-z
6 1/2-x,1/2-y,-z
7 x,-y,1/2+z
8 1/2+x,1/2-y,1/2+z
_cell_length_a                   26.41(2)
_cell_length_b                   7.350(6)
_cell_length_c                   19.375(16)
_cell_angle_alpha                90
_cell_angle_beta                 114.894(14)
_cell_angle_gamma                90
_cell_volume                     3411.51
_exptl_crystal_colour            colorless
_exptl_crystal_description       prismatic
_cell_formula_units_Z            8
loop_
_atom_site_label
_atom_site_type_symbol
_atom_site_fract_x
_atom_site_fract_y
_atom_site_fract_z
C1 C 0.1174(3) 0.4847(12) 0.0514(4)
C2 C 0.0890(4) 0.6679(13) 0.0250(6)
H1 H 0.0499 0.6488 -0.0082
H2 H 0.0911 0.7371 0.0688
C3 C 0.1158(5) 0.7739(15) -0.0165(7)
H3 H 0.0942 0.8829 -0.0380
H4 H 0.1165 0.7013 -0.0579
C4 C 0.1740(5) 0.8254(16) 0.0367(7)
H5 H 0.1726 0.9332 0.0647
H6 H 0.1946 0.8562 0.0070
C5 C 0.2052(4) 0.6779(13) 0.0928(5)
C6 C 0.2611(5) 0.7155(17) 0.1397(7)
C7 C 0.2905(5) 0.580(2) 0.1963(7)
H7 H 0.3277 0.6007 0.2290
C8 C 0.2660(5) 0.427(2) 0.2035(7)
H8 H 0.2867 0.3403 0.2394
C9 C 0.2102(3) 0.3955(14) 0.1578(5)
H9 H 0.1930 0.2899 0.1636
C10 C 0.1800(3) 0.5239(12) 0.1028(5)
C11 C 0.2904(5) 0.8787(18) 0.1374(9)
H10 H 0.2793 0.9148 0.0854
H11 H 0.3299 0.8562 0.1607
H12 H 0.2816 0.9740 0.1644
C12 C 0.0923(3) 0.3745(14) 0.0976(5)
C13 C 0.0864(4) 0.4633(16) 0.1594(5)
H13 H 0.0995 0.5815 0.1725
C14 C 0.0610(5) 0.374(2) 0.2000(7)
H14 H 0.0578 0.4310 0.2408
C15 C 0.0403(5) 0.196(2) 0.1788(8)
H15 H 0.0220 0.1362 0.2041
C16 C 0.0472(5) 0.1153(16) 0.1225(7)
H16 H 0.0356 -0.0045 0.1103
C17 C 0.0714(4) 0.2046(13) 0.0814(6)
H17 H 0.0735 0.1444 0.0404
C18 C 0.1124(3) 0.3730(12) -0.0195(5)
C19 C 0.0625(4) 0.3376(15) -0.0771(6)
H18 H 0.0307 0.3763 -0.0721
C20 C 0.0553(6) 0.2481(19) -0.1429(6)
H19 H 0.0200 0.2317 -0.1821
C21 C 0.1023(6) 0.1835(14) -0.1486(6)
H20 H 0.0989 0.1211 -0.1920
C22 C 0.1533(5) 0.2103(14) -0.0914(6)
H21 H 0.1848 0.1651 -0.0953
C23 C 0.1586(4) 0.3032(12) -0.0281(5)
H22 H 0.1941 0.3209 0.0107
loop_
_geom_bond_atom_site_label_1
_geom_bond_atom_site_label_2
_geom_bond_site_symmetry_1
_geom_bond_site_symmetry_2
C1 C2 1_555 1_555
C2 H1 1_555 1_555
H2 C2 1_555 1_555
C3 C2 1_555 1_555
H3 C3 1_555 1_555
H4 C3 1_555 1_555
C4 C3 1_555 1_555
H5 C4 1_555 1_555
H6 C4 1_555 1_555
C5 C4 1_555 1_555
C6 C5 1_555 1_555
C7 C6 1_555 1_555
H7 C7 1_555 1_555
C8 C7 1_555 1_555
H8 C8 1_555 1_555
C9 C8 1_555 1_555
H9 C9 1_555 1_555
C10 C1 1_555 1_555
C11 C6 1_555 1_555
H10 C11 1_555 1_555
H11 C11 1_555 1_555
H12 C11 1_555 1_555
C12 C1 1_555 1_555
C13 C12 1_555 1_555
H13 C13 1_555 1_555
C14 C13 1_555 1_555
H14 C14 1_555 1_555
C15 C14 1_555 1_555
H15 C15 1_555 1_555
C16 C15 1_555 1_555
H16 C16 1_555 1_555
C17 C12 1_555 1_555
H17 C17 1_555 1_555
C18 C1 1_555 1_555
C19 C18 1_555 1_555
H18 C19 1_555 1_555
C20 C19 1_555 1_555
H19 C20 1_555 1_555
C21 C20 1_555 1_555
H20 C21 1_555 1_555
C22 C21 1_555 1_555
H21 C22 1_555 1_555
C23 C18 1_555 1_555
H22 C23 1_555 1_555
C5 C10 1_555 1_555
C9 C10 1_555 1_555
C16 C17 1_555 1_555
C22 C23 1_555 1_555

#END
