
#######################################################################
#
#                 Cambridge Crystallographic Data Centre
#                                CCDC 
#
#######################################################################
#
# If this CIF has been generated from an entry in the Cambridge 
# Structural Database, then it will include bibliographic, chemical, 
# crystal, experimental, refinement or atomic coordinate data resulting 
# from the CCDC's data processing and validation procedures.
#
#######################################################################

data_CAWXOP
_chemical_formula_moiety         'C20 H15 O1 P1 S2'
_chemical_name_systematic        "2,2'-Bithiophen-5-yl(diphenyl)phosphine oxide"
_symmetry_cell_setting           triclinic
_symmetry_space_group_name_H-M   'P -1'
_symmetry_Int_Tables_number      2
_space_group_name_Hall           '-P 1'
loop_
_symmetry_equiv_pos_site_id
_symmetry_equiv_pos_as_xyz
1 x,y,z
2 -x,-y,-z
_cell_length_a                   6.2348(12)
_cell_length_b                   8.5970(17)
_cell_length_c                   17.503(4)
_cell_angle_alpha                79.99(3)
_cell_angle_beta                 83.97(3)
_cell_angle_gamma                70.75(3)
_cell_volume                     871.083
_exptl_crystal_colour            colorless
_exptl_crystal_description       needle
_cell_formula_units_Z            2
loop_
_atom_site_label
_atom_site_type_symbol
_atom_site_fract_x
_atom_site_fract_y
_atom_site_fract_z
C1 C 0.2788(5) 0.4495(4) 0.20816(17)
C2 C 0.0911(6) 0.4252(5) 0.1859(2)
H1 H -0.0484 0.4510 0.2137
C3 C 0.1302(6) 0.3575(5) 0.1168(2)
H2 H 0.0190 0.3329 0.0943
C4 C 0.3486(5) 0.3305(4) 0.08529(17)
C5 C 0.4491(5) 0.2614(4) 0.01506(18)
C6 C 0.3287(5) 0.2380(4) -0.04790(16)
H3 H 0.1721 0.2664 -0.0509
C7 C 0.4998(8) 0.1629(5) -0.1036(2)
H4 H 0.4635 0.1361 -0.1487
C8 C 0.7132(7) 0.1340(5) -0.0868(2)
H5 H 0.8382 0.0866 -0.1187
C9 C 0.2537(6) 0.4072(4) 0.37645(17)
C10 C 0.4265(8) 0.3065(6) 0.4240(2)
H6 H 0.5762 0.3018 0.4098
C11 C 0.3794(10) 0.2147(7) 0.4914(3)
H7 H 0.4968 0.1482 0.5228
C12 C 0.1617(9) 0.2197(6) 0.5128(2)
H8 H 0.1303 0.1576 0.5591
C13 C -0.0087(8) 0.3144(6) 0.4671(2)
H9 H -0.1572 0.3163 0.4817
C14 C 0.0358(7) 0.4096(5) 0.3982(2)
H10 H -0.0828 0.4748 0.3670
C15 C 0.1582(5) 0.7388(4) 0.28892(17)
C16 C 0.2559(6) 0.8461(4) 0.3105(2)
H11 H 0.4053 0.8061 0.3256
C17 C 0.1327(7) 1.0132(5) 0.3097(3)
H12 H 0.1997 1.0850 0.3242
C18 C -0.0891(7) 1.0732(5) 0.2875(2)
H13 H -0.1721 1.1853 0.2866
C19 C -0.1861(6) 0.9655(5) 0.2667(2)
H14 H -0.3357 1.0056 0.2518
C20 C -0.0660(6) 0.7999(4) 0.2676(2)
H15 H -0.1348 0.7285 0.2540
O1 O 0.5817(4) 0.5100(3) 0.28766(13)
P1 P 0.33721(13) 0.52561(10) 0.28986(4)
S1 S 0.50347(13) 0.39110(10) 0.14235(4)
S2 S 0.73433(18) 0.19143(15) -0.00230(6)
loop_
_geom_bond_atom_site_label_1
_geom_bond_atom_site_label_2
_geom_bond_site_symmetry_1
_geom_bond_site_symmetry_2
C1 C2 1_555 1_555
C2 H1 1_555 1_555
C3 C2 1_555 1_555
H2 C3 1_555 1_555
C4 C3 1_555 1_555
C5 C4 1_555 1_555
C6 C5 1_555 1_555
H3 C6 1_555 1_555
C7 C6 1_555 1_555
H4 C7 1_555 1_555
C8 C7 1_555 1_555
H5 C8 1_555 1_555
C9 C10 1_555 1_555
C10 H6 1_555 1_555
C11 C10 1_555 1_555
H7 C11 1_555 1_555
C12 C11 1_555 1_555
H8 C12 1_555 1_555
C13 C12 1_555 1_555
H9 C13 1_555 1_555
C14 C9 1_555 1_555
H10 C14 1_555 1_555
C15 C16 1_555 1_555
C16 H11 1_555 1_555
C17 C16 1_555 1_555
H12 C17 1_555 1_555
C18 C17 1_555 1_555
H13 C18 1_555 1_555
C19 C18 1_555 1_555
H14 C19 1_555 1_555
C20 C15 1_555 1_555
H15 C20 1_555 1_555
O1 P1 1_555 1_555
P1 C1 1_555 1_555
S1 C1 1_555 1_555
S2 C5 1_555 1_555
C4 S1 1_555 1_555
C8 S2 1_555 1_555
C9 P1 1_555 1_555
C13 C14 1_555 1_555
C15 P1 1_555 1_555
C19 C20 1_555 1_555

#END
