
#######################################################################
#
#                 Cambridge Crystallographic Data Centre
#                                CCDC 
#
#######################################################################
#
# If this CIF has been generated from an entry in the Cambridge 
# Structural Database, then it will include bibliographic, chemical, 
# crystal, experimental, refinement or atomic coordinate data resulting 
# from the CCDC's data processing and validation procedures.
#
#######################################################################

data_CAWYEH
_chemical_formula_moiety         'C31 H51 N5 O5,2(C1 H2 Cl2)'
_chemical_name_systematic        
'2,2-dimethyl-N-(2,3,4,5-tetrakis((2,2-dimethylpropanoyl)amino)phenyl)propanamide dichloromethane solvate'
_symmetry_cell_setting           triclinic
_symmetry_space_group_name_H-M   'P -1'
_symmetry_Int_Tables_number      2
_space_group_name_Hall           '-P 1'
loop_
_symmetry_equiv_pos_site_id
_symmetry_equiv_pos_as_xyz
1 x,y,z
2 -x,-y,-z
_cell_length_a                   11.6768(4)
_cell_length_b                   12.0569(4)
_cell_length_c                   14.4002(5)
_cell_angle_alpha                85.201(2)
_cell_angle_beta                 87.690(2)
_cell_angle_gamma                76.395(2)
_cell_volume                     1963.11
_exptl_crystal_colour            colorless
_exptl_crystal_description       Block
_cell_formula_units_Z            2
loop_
_atom_site_label
_atom_site_type_symbol
_atom_site_fract_x
_atom_site_fract_y
_atom_site_fract_z
C1 C 0.51785(16) 0.67994(15) 0.78641(12)
C2 C 0.40362(15) 0.66883(14) 0.77186(12)
C3 C 0.37224(15) 0.56563(15) 0.80074(12)
C4 C 0.45271(16) 0.47647(14) 0.84849(12)
C5 C 0.56607(16) 0.48973(15) 0.86341(12)
C6 C 0.59777(16) 0.59068(15) 0.83221(13)
H1 H 0.6752 0.5987 0.8424
C7 C 0.65205(17) 0.79033(17) 0.70958(14)
C8 C 0.66354(19) 0.91292(18) 0.67987(17)
C9 C 0.6038(3) 0.9993(2) 0.7505(2)
C10 C 0.5989(4) 0.9490(3) 0.5884(2)
H2 H 0.6037 1.0272 0.5673
H3 H 0.5161 0.9460 0.5979
H4 H 0.6355 0.8969 0.5412
C11 C 0.7925(4) 0.9156(3) 0.6777(6)
C12 C 0.28605(16) 0.86683(16) 0.74659(13)
C13 C 0.18517(18) 0.94603(16) 0.69074(15)
C14 C 0.1562(3) 0.8971(2) 0.6028(2)
H5 H 0.0948 0.9537 0.5689
H6 H 0.1279 0.8276 0.6199
H7 H 0.2271 0.8784 0.5631
C15 C 0.0786(2) 0.9659(3) 0.7577(2)
H8 H 0.0987 0.9968 0.8141
H9 H 0.0564 0.8932 0.7745
H10 H 0.0124 1.0204 0.7275
C16 C 0.2204(2) 1.05870(19) 0.66367(17)
H11 H 0.2898 1.0449 0.6219
H12 H 0.2390 1.0910 0.7199
H13 H 0.1550 1.1126 0.6318
C17 C 0.20562(16) 0.56339(15) 0.70171(13)
C18 C 0.08348(17) 0.53697(18) 0.70027(15)
C19 C 0.0970(9) 0.4094(9) 0.7147(9)
C20 C 0.0040(7) 0.5988(10) 0.7803(7)
C21 C 0.0180(3) 0.6038(4) 0.6178(3)
H14 H -0.0593 0.5857 0.6151
H15 H 0.0632 0.5832 0.5604
H16 H 0.0074 0.6859 0.6242
C22 C 0.33250(16) 0.35961(15) 0.93699(12)
C23 C 0.32310(19) 0.23608(16) 0.96324(14)
C24 C 0.2255(2) 0.23597(19) 1.03739(16)
H17 H 0.2479 0.2629 1.0948
H18 H 0.2142 0.1581 1.0500
H19 H 0.1520 0.2868 1.0148
C25 C 0.2919(3) 0.1854(2) 0.87614(17)
H20 H 0.2148 0.2289 0.8541
H21 H 0.2891 0.1053 0.8915
H22 H 0.3519 0.1894 0.8272
C26 C 0.4408(2) 0.16404(18) 1.00085(17)
H23 H 0.5002 0.1547 0.9503
H24 H 0.4307 0.0887 1.0257
H25 H 0.4667 0.2028 1.0505
C27 C 0.69375(16) 0.29581(15) 0.88904(13)
C28 C 0.80695(17) 0.22673(16) 0.93619(14)
C29 C 0.8254(3) 0.2646(2) 1.03150(17)
H26 H 0.8969 0.2149 1.0586
H27 H 0.7574 0.2593 1.0724
H28 H 0.8337 0.3439 1.0249
C30 C 0.8041(3) 0.1011(2) 0.9457(3)
H29 H 0.7964 0.0754 0.8839
H30 H 0.7368 0.0907 0.9855
H31 H 0.8773 0.0561 0.9737
C31 C 0.9090(2) 0.2456(3) 0.8720(2)
H32 H 0.9836 0.2015 0.8983
H33 H 0.9092 0.3271 0.8661
H34 H 0.8998 0.2202 0.8104
N1 N 0.55006(14) 0.78292(13) 0.75575(11)
H35 H 0.5001 0.8474 0.7675
N2 N 0.31953(14) 0.75716(13) 0.72400(11)
H36 H 0.2863 0.7390 0.6755
N3 N 0.25727(13) 0.55140(13) 0.78584(11)
H37 H 0.2163 0.5334 0.8351
N4 N 0.42333(14) 0.37152(13) 0.87912(11)
H38 H 0.4683 0.3087 0.8586
N5 N 0.65245(14) 0.40475(13) 0.91328(11)
H39 H 0.6811 0.4243 0.9634
O1 O 0.72732(14) 0.70651(14) 0.68985(14)
O2 O 0.33144(13) 0.90264(12) 0.80993(10)
O3 O 0.25422(12) 0.59428(12) 0.62992(9)
O4 O 0.26006(12) 0.44314(11) 0.96487(9)
O5 O 0.64543(12) 0.25536(12) 0.83025(10)
C35 C 0.7513(2) 0.3123(2) 0.6100(2)
H40 H 0.7190 0.3254 0.5465
H41 H 0.6983 0.2756 0.6508
Cl1 Cl 0.75475(6) 0.44398(5) 0.65125(4)
Cl2 Cl 0.89345(7) 0.21944(6) 0.60712(5)
C36 C 0.6148(2) 0.6381(2) 0.47265(19)
H42 H 0.6492 0.5571 0.4613
H43 H 0.6748 0.6676 0.5031
Cl3 Cl 0.49161(6) 0.64647(12) 0.54632(5)
Cl4 Cl 0.57792(9) 0.71755(10) 0.36558(8)
C32? C 0.7978(13) 0.8951(13) 0.6324(9)
C33? C 0.1048(9) 0.4141(8) 0.6648(6)
C34? C 0.0204(7) 0.5384(8) 0.7936(6)
loop_
_geom_bond_atom_site_label_1
_geom_bond_atom_site_label_2
_geom_bond_site_symmetry_1
_geom_bond_site_symmetry_2
C1 C2 1_555 1_555
C2 C3 1_555 1_555
C3 C4 1_555 1_555
C4 C5 1_555 1_555
C5 C6 1_555 1_555
C6 C1 1_555 1_555
H1 C6 1_555 1_555
C7 C8 1_555 1_555
C8 C9 1_555 1_555
C10 C8 1_555 1_555
H2 C10 1_555 1_555
H3 C10 1_555 1_555
H4 C10 1_555 1_555
C11 C8 1_555 1_555
C12 C13 1_555 1_555
C13 C14 1_555 1_555
C14 H5 1_555 1_555
H6 C14 1_555 1_555
H7 C14 1_555 1_555
C15 C13 1_555 1_555
H8 C15 1_555 1_555
H9 C15 1_555 1_555
H10 C15 1_555 1_555
C16 C13 1_555 1_555
H11 C16 1_555 1_555
H12 C16 1_555 1_555
H13 C16 1_555 1_555
C17 C18 1_555 1_555
C18 C19 1_555 1_555
C20 C18 1_555 1_555
C21 C18 1_555 1_555
H14 C21 1_555 1_555
H15 C21 1_555 1_555
H16 C21 1_555 1_555
C22 C23 1_555 1_555
C23 C24 1_555 1_555
C24 H17 1_555 1_555
H18 C24 1_555 1_555
H19 C24 1_555 1_555
C25 C23 1_555 1_555
H20 C25 1_555 1_555
H21 C25 1_555 1_555
H22 C25 1_555 1_555
C26 C23 1_555 1_555
H23 C26 1_555 1_555
H24 C26 1_555 1_555
H25 C26 1_555 1_555
C27 C28 1_555 1_555
C28 C29 1_555 1_555
C29 H26 1_555 1_555
H27 C29 1_555 1_555
H28 C29 1_555 1_555
C30 C28 1_555 1_555
H29 C30 1_555 1_555
H30 C30 1_555 1_555
H31 C30 1_555 1_555
C31 C28 1_555 1_555
H32 C31 1_555 1_555
H33 C31 1_555 1_555
H34 C31 1_555 1_555
N1 C1 1_555 1_555
H35 N1 1_555 1_555
N2 C2 1_555 1_555
H36 N2 1_555 1_555
N3 C3 1_555 1_555
H37 N3 1_555 1_555
N4 C4 1_555 1_555
H38 N4 1_555 1_555
N5 C5 1_555 1_555
H39 N5 1_555 1_555
O1 C7 1_555 1_555
O2 C12 1_555 1_555
O3 C17 1_555 1_555
O4 C22 1_555 1_555
O5 C27 1_555 1_555
C35 H40 1_555 1_555
H41 C35 1_555 1_555
Cl1 C35 1_555 1_555
Cl2 C35 1_555 1_555
C36 H42 1_555 1_555
H43 C36 1_555 1_555
Cl3 C36 1_555 1_555
Cl4 C36 1_555 1_555
C7 N1 1_555 1_555
C12 N2 1_555 1_555
C17 N3 1_555 1_555
C22 N4 1_555 1_555
C27 N5 1_555 1_555

#END
