
#######################################################################
#
#                 Cambridge Crystallographic Data Centre
#                                CCDC 
#
#######################################################################
#
# If this CIF has been generated from an entry in the Cambridge 
# Structural Database, then it will include bibliographic, chemical, 
# crystal, experimental, refinement or atomic coordinate data resulting 
# from the CCDC's data processing and validation procedures.
#
#######################################################################

data_CAWZOQ
_chemical_formula_moiety         'C46 H44 Si2'
_chemical_name_systematic        
2,3-Benzo-1,4,5,6-tetraphenyl-7-mesityl-7-trimethylsilyl-7-silanorbornadiene
_symmetry_cell_setting           triclinic
_symmetry_space_group_name_H-M   'P -1'
_symmetry_Int_Tables_number      2
_space_group_name_Hall           '-P 1'
loop_
_symmetry_equiv_pos_site_id
_symmetry_equiv_pos_as_xyz
1 x,y,z
2 -x,-y,-z
_cell_length_a                   14.224(2)
_cell_length_b                   16.002(2)
_cell_length_c                   18.927(3)
_cell_angle_alpha                108.830(3)
_cell_angle_beta                 103.720(3)
_cell_angle_gamma                105.567(3)
_cell_volume                     3671.85
_exptl_crystal_colour            colorless
_exptl_crystal_description       cuboid
_chemical_melting_point          243-244deg.C.(dec.)
_cell_formula_units_Z            4
_exptl_crystal_recrystallization_method deuterochloroform/hexane
loop_
_atom_site_label
_atom_site_type_symbol
_atom_site_fract_x
_atom_site_fract_y
_atom_site_fract_z
Si1 Si 0.35685(6) 0.17149(5) 0.04019(5)
Si2 Si 0.43429(7) 0.15959(6) -0.06030(5)
C1 C 0.4482(2) 0.28737(17) 0.13272(16)
C2 C 0.4363(2) 0.35704(19) 0.09475(16)
C3 C 0.3328(2) 0.33110(19) 0.04676(16)
C4 C 0.2622(2) 0.23891(18) 0.04547(16)
C5 C 0.2752(2) 0.26716(18) 0.13408(16)
C6 C 0.3749(2) 0.29714(18) 0.18151(16)
C7 C 0.5112(2) 0.4434(2) 0.11067(16)
H1 H 0.5806 0.4602 0.1410
C8 C 0.4810(3) 0.5039(2) 0.08070(19)
H2 H 0.5304 0.5625 0.0920
C9 C 0.3790(3) 0.4790(2) 0.0345(2)
H3 H 0.3601 0.5209 0.0151
C10 C 0.3038(2) 0.3915(2) 0.01660(17)
H4 H 0.2350 0.3741 -0.0153
C11 C 0.3016(2) 0.05185(18) 0.04484(16)
C12 C 0.3239(2) 0.03265(19) 0.11351(17)
C13 C 0.2815(2) -0.0592(2) 0.10786(18)
H5 H 0.2990 -0.0698 0.1539
C14 C 0.2152(2) -0.1349(2) 0.0376(2)
C15 C 0.1916(2) -0.1169(2) -0.02921(19)
H6 H 0.1468 -0.1671 -0.0777
C16 C 0.2319(2) -0.0265(2) -0.02726(17)
C17 C 0.3922(2) 0.10666(19) 0.19575(16)
H7 H 0.4128 0.0761 0.2294
H8 H 0.3544 0.1435 0.2173
H9 H 0.4532 0.1479 0.1933
C18 C 0.1675(3) -0.2326(2) 0.0352(2)
H10 H 0.2096 -0.2372 0.0805
H11 H 0.1641 -0.2799 -0.0130
H12 H 0.0983 -0.2428 0.0364
C19 C 0.1941(2) -0.0178(2) -0.10490(16)
H13 H 0.2236 -0.0488 -0.1412
H14 H 0.2154 0.0483 -0.0953
H15 H 0.1194 -0.0473 -0.1277
C20 C 0.5585(2) 0.29924(19) 0.17472(17)
C21 C 0.6319(2) 0.3829(2) 0.23770(17)
H16 H 0.6130 0.4351 0.2558
C22 C 0.7311(3) 0.3905(2) 0.27367(19)
H17 H 0.7781 0.4476 0.3157
C23 C 0.7626(2) 0.3165(3) 0.2494(2)
H18 H 0.8301 0.3224 0.2749
C24 C 0.6934(3) 0.2330(2) 0.1867(2)
H19 H 0.7140 0.1820 0.1685
C25 C 0.5934(2) 0.2249(2) 0.15081(18)
H20 H 0.5471 0.1675 0.1089
C26 C 0.1554(2) 0.18519(19) -0.01744(17)
C27 C 0.1339(2) 0.1854(2) -0.09290(18)
H21 H 0.1843 0.2262 -0.1027
C28 C 0.0398(3) 0.1267(2) -0.15327(19)
H22 H 0.0270 0.1284 -0.2032
C29 C -0.0357(3) 0.0654(2) -0.1401(2)
H23 H -0.0990 0.0248 -0.1812
C30 C -0.0168(3) 0.0648(2) -0.0665(2)
H24 H -0.0679 0.0242 -0.0571
C31 C 0.0772(2) 0.12360(19) -0.00578(17)
H25 H 0.0886 0.1221 0.0442
C32 C 0.1926(2) 0.2825(2) 0.16571(17)
C33 C 0.1320(2) 0.3280(2) 0.13951(19)
H26 H 0.1397 0.3460 0.0985
C34 C 0.0597(3) 0.3474(2) 0.1731(3)
H27 H 0.0204 0.3798 0.1559
C35 C 0.0466(4) 0.3186(4) 0.2320(3)
H28 H -0.0028 0.3303 0.2542
C36 C 0.1050(3) 0.2731(3) 0.2578(3)
H29 H 0.0962 0.2544 0.2983
C37 C 0.1774(3) 0.2542(2) 0.2251(2)
H30 H 0.2165 0.2220 0.2430
C38 C 0.4210(2) 0.3651(2) 0.26711(17)
C39 C 0.4144(2) 0.4534(2) 0.2842(2)
H31 H 0.3742 0.4643 0.2441
C40 C 0.4663(3) 0.5257(2) 0.3597(2)
H32 H 0.4621 0.5853 0.3703
C41 C 0.5236(3) 0.5094(3) 0.4183(2)
H33 H 0.5587 0.5580 0.4693
C42 C 0.5302(3) 0.4224(3) 0.40308(19)
H34 H 0.5697 0.4119 0.4438
C43 C 0.4787(2) 0.3496(2) 0.32774(19)
H35 H 0.4829 0.2901 0.3179
C44 C 0.4621(3) 0.0491(2) -0.08574(19)
H36 H 0.4722 0.0328 -0.1361
H37 H 0.4044 -0.0018 -0.0893
H38 H 0.5241 0.0590 -0.0450
C45 C 0.5624(3) 0.2597(2) -0.02455(19)
H39 H 0.6097 0.2600 0.0212
H40 H 0.5523 0.3190 -0.0102
H41 H 0.5910 0.2514 -0.0663
C46 C 0.3547(3) 0.1614(3) -0.15342(19)
H42 H 0.3916 0.1569 -0.1901
H43 H 0.3426 0.2199 -0.1404
H44 H 0.2890 0.1085 -0.1776
Si3 Si -0.23092(6) 0.17381(5) -0.45161(5)
Si4 Si -0.38477(7) 0.15389(6) -0.55046(5)
C47 C -0.1000(2) 0.24499(19) -0.45738(15)
C48 C -0.1275(2) 0.33044(19) -0.45866(16)
C49 C -0.1778(2) 0.3562(2) -0.40453(16)
C50 C -0.1882(2) 0.29285(18) -0.35852(15)
C51 C -0.0737(2) 0.30808(17) -0.31701(16)
C52 C -0.0285(2) 0.27983(18) -0.37055(16)
C53 C -0.1049(2) 0.3854(2) -0.50027(17)
H45 H -0.0691 0.3709 -0.5349
C54 C -0.1356(3) 0.4614(2) -0.4903(2)
H46 H -0.1206 0.4978 -0.5187
C55 C -0.1879(3) 0.4850(2) -0.4393(2)
H47 H -0.2092 0.5361 -0.4340
C56 C -0.2087(2) 0.4321(2) -0.39604(18)
H48 H -0.2438 0.4478 -0.3611
C57 C -0.23793(19) 0.05653(18) -0.44533(16)
C58 C -0.2608(2) -0.0229(2) -0.51663(17)
C59 C -0.2738(2) -0.1116(2) -0.51638(19)
H49 H -0.2889 -0.1624 -0.5642
C60 C -0.2655(2) -0.1280(2) -0.4488(2)
C61 C -0.2424(2) -0.0509(2) -0.37927(18)
H50 H -0.2356 -0.0597 -0.3324
C62 C -0.2289(2) 0.0389(2) -0.37641(17)
C63 C -0.2695(2) -0.0174(2) -0.59589(16)
H51 H -0.2155 -0.0332 -0.6126
H52 H -0.2621 0.0460 -0.5905
H53 H -0.3365 -0.0617 -0.6350
C64 C -0.2750(3) -0.2243(2) -0.4490(2)
H54 H -0.3282 -0.2733 -0.4978
H55 H -0.2933 -0.2289 -0.4044
H56 H -0.2095 -0.2318 -0.4451
C65 C -0.2027(2) 0.11561(19) -0.29563(16)
H57 H -0.2605 0.1356 -0.2948
H58 H -0.1421 0.1689 -0.2848
H59 H -0.1888 0.0914 -0.2557
C66 C -0.0679(2) 0.1893(2) -0.52212(17)
C67 C -0.0964(2) 0.1881(2) -0.59776(19)
H60 H -0.1314 0.2267 -0.6082
C68 C -0.0737(3) 0.1304(3) -0.6579(2)
H61 H -0.0942 0.1301 -0.7085
C69 C -0.0217(3) 0.0739(3) -0.6439(3)
H62 H -0.0054 0.0362 -0.6844
C70 C 0.0066(3) 0.0728(2) -0.5693(2)
H63 H 0.0414 0.0340 -0.5593
C71 C -0.0173(2) 0.1302(2) -0.50973(18)
H64 H 0.0014 0.1288 -0.4597
C72 C -0.2560(2) 0.30758(19) -0.30884(17)
C73 C -0.2283(2) 0.3917(2) -0.24337(18)
H65 H -0.1654 0.4411 -0.2289
C74 C -0.2913(3) 0.4042(2) -0.19894(19)
H66 H -0.2702 0.4613 -0.1547
C75 C -0.3855(3) 0.3326(3) -0.2198(2)
H67 H -0.4282 0.3407 -0.1899
C76 C -0.4151(3) 0.2500(2) -0.2848(2)
H68 H -0.4790 0.2016 -0.2999
C77 C -0.3516(2) 0.2369(2) -0.32881(18)
H69 H -0.3732 0.1795 -0.3728
C78 C -0.0129(2) 0.37112(19) -0.23140(16)
C79 C 0.0664(2) 0.4564(2) -0.21175(18)
H70 H 0.0794 0.4727 -0.2524
C80 C 0.1262(2) 0.5173(2) -0.1339(2)
H71 H 0.1791 0.5741 -0.1223
C81 C 0.1083(3) 0.4948(2) -0.0733(2)
H72 H 0.1493 0.5359 -0.0205
C82 C 0.0305(3) 0.4121(2) -0.09023(19)
H73 H 0.0177 0.3969 -0.0491
C83 C -0.0293(2) 0.3512(2) -0.16843(18)
H74 H -0.0823 0.2949 -0.1793
C84 C 0.0842(2) 0.29807(18) -0.34923(16)
C85 C 0.1433(2) 0.34286(18) -0.38436(17)
H75 H 0.1108 0.3584 -0.4243
C86 C 0.2491(3) 0.3648(2) -0.3612(2)
H76 H 0.2876 0.3966 -0.3846
C87 C 0.2982(3) 0.3406(3) -0.3047(2)
H77 H 0.3697 0.3548 -0.2899
C88 C 0.2414(3) 0.2949(3) -0.2697(2)
H78 H 0.2745 0.2784 -0.2306
C89 C 0.1354(3) 0.2734(2) -0.2923(2)
H79 H 0.0975 0.2416 -0.2686
C90 C -0.4866(2) 0.0326(2) -0.5883(2)
H80 H -0.5506 0.0381 -0.5835
H81 H -0.4638 -0.0003 -0.5575
H82 H -0.4979 -0.0024 -0.6434
C91 C -0.3571(3) 0.1737(3) -0.6368(2)
H83 H -0.4203 0.1669 -0.6745
H84 H -0.3306 0.1278 -0.6622
H85 H -0.3063 0.2368 -0.6180
C92 C -0.4478(3) 0.2376(2) -0.5121(2)
H86 H -0.4000 0.3019 -0.4932
H87 H -0.4667 0.2281 -0.4690
H88 H -0.5093 0.2259 -0.5542
loop_
_geom_bond_atom_site_label_1
_geom_bond_atom_site_label_2
_geom_bond_site_symmetry_1
_geom_bond_site_symmetry_2
Si1 Si2 1_555 1_555
Si2 C44 1_555 1_555
Si3 Si4 1_555 1_555
Si4 C90 1_555 1_555
C1 Si1 1_555 1_555
C2 C1 1_555 1_555
C3 C2 1_555 1_555
C4 Si1 1_555 1_555
C5 C4 1_555 1_555
C6 C1 1_555 1_555
C7 C2 1_555 1_555
H1 C7 1_555 1_555
C8 C7 1_555 1_555
H2 C8 1_555 1_555
C9 C8 1_555 1_555
H3 C9 1_555 1_555
C10 C3 1_555 1_555
H4 C10 1_555 1_555
C11 Si1 1_555 1_555
C12 C11 1_555 1_555
C13 C12 1_555 1_555
H5 C13 1_555 1_555
C14 C13 1_555 1_555
C15 C14 1_555 1_555
H6 C15 1_555 1_555
C16 C11 1_555 1_555
C17 C12 1_555 1_555
H7 C17 1_555 1_555
H8 C17 1_555 1_555
H9 C17 1_555 1_555
C18 C14 1_555 1_555
H10 C18 1_555 1_555
H11 C18 1_555 1_555
H12 C18 1_555 1_555
C19 C16 1_555 1_555
H13 C19 1_555 1_555
H14 C19 1_555 1_555
H15 C19 1_555 1_555
C20 C1 1_555 1_555
C21 C20 1_555 1_555
H16 C21 1_555 1_555
C22 C21 1_555 1_555
H17 C22 1_555 1_555
C23 C22 1_555 1_555
H18 C23 1_555 1_555
C24 C23 1_555 1_555
H19 C24 1_555 1_555
C25 C20 1_555 1_555
H20 C25 1_555 1_555
C26 C4 1_555 1_555
C27 C26 1_555 1_555
H21 C27 1_555 1_555
C28 C27 1_555 1_555
H22 C28 1_555 1_555
C29 C28 1_555 1_555
H23 C29 1_555 1_555
C30 C29 1_555 1_555
H24 C30 1_555 1_555
C31 C26 1_555 1_555
H25 C31 1_555 1_555
C32 C5 1_555 1_555
C33 C32 1_555 1_555
H26 C33 1_555 1_555
C34 C33 1_555 1_555
H27 C34 1_555 1_555
C35 C34 1_555 1_555
H28 C35 1_555 1_555
C36 C35 1_555 1_555
H29 C36 1_555 1_555
C37 C32 1_555 1_555
H30 C37 1_555 1_555
C38 C6 1_555 1_555
C39 C38 1_555 1_555
H31 C39 1_555 1_555
C40 C39 1_555 1_555
H32 C40 1_555 1_555
C41 C40 1_555 1_555
H33 C41 1_555 1_555
C42 C41 1_555 1_555
H34 C42 1_555 1_555
C43 C38 1_555 1_555
H35 C43 1_555 1_555
C44 H36 1_555 1_555
H37 C44 1_555 1_555
H38 C44 1_555 1_555
C45 Si2 1_555 1_555
H39 C45 1_555 1_555
H40 C45 1_555 1_555
H41 C45 1_555 1_555
C46 Si2 1_555 1_555
H42 C46 1_555 1_555
H43 C46 1_555 1_555
H44 C46 1_555 1_555
C47 Si3 1_555 1_555
C48 C47 1_555 1_555
C49 C48 1_555 1_555
C50 Si3 1_555 1_555
C51 C50 1_555 1_555
C52 C47 1_555 1_555
C53 C48 1_555 1_555
H45 C53 1_555 1_555
C54 C53 1_555 1_555
H46 C54 1_555 1_555
C55 C54 1_555 1_555
H47 C55 1_555 1_555
C56 C49 1_555 1_555
H48 C56 1_555 1_555
C57 Si3 1_555 1_555
C58 C57 1_555 1_555
C59 C58 1_555 1_555
H49 C59 1_555 1_555
C60 C59 1_555 1_555
C61 C60 1_555 1_555
H50 C61 1_555 1_555
C62 C57 1_555 1_555
C63 C58 1_555 1_555
H51 C63 1_555 1_555
H52 C63 1_555 1_555
H53 C63 1_555 1_555
C64 C60 1_555 1_555
H54 C64 1_555 1_555
H55 C64 1_555 1_555
H56 C64 1_555 1_555
C65 C62 1_555 1_555
H57 C65 1_555 1_555
H58 C65 1_555 1_555
H59 C65 1_555 1_555
C66 C47 1_555 1_555
C67 C66 1_555 1_555
H60 C67 1_555 1_555
C68 C67 1_555 1_555
H61 C68 1_555 1_555
C69 C68 1_555 1_555
H62 C69 1_555 1_555
C70 C69 1_555 1_555
H63 C70 1_555 1_555
C71 C66 1_555 1_555
H64 C71 1_555 1_555
C72 C50 1_555 1_555
C73 C72 1_555 1_555
H65 C73 1_555 1_555
C74 C73 1_555 1_555
H66 C74 1_555 1_555
C75 C74 1_555 1_555
H67 C75 1_555 1_555
C76 C75 1_555 1_555
H68 C76 1_555 1_555
C77 C72 1_555 1_555
H69 C77 1_555 1_555
C78 C51 1_555 1_555
C79 C78 1_555 1_555
H70 C79 1_555 1_555
C80 C79 1_555 1_555
H71 C80 1_555 1_555
C81 C80 1_555 1_555
H72 C81 1_555 1_555
C82 C81 1_555 1_555
H73 C82 1_555 1_555
C83 C78 1_555 1_555
H74 C83 1_555 1_555
C84 C52 1_555 1_555
C85 C84 1_555 1_555
H75 C85 1_555 1_555
C86 C85 1_555 1_555
H76 C86 1_555 1_555
C87 C86 1_555 1_555
H77 C87 1_555 1_555
C88 C87 1_555 1_555
H78 C88 1_555 1_555
C89 C84 1_555 1_555
H79 C89 1_555 1_555
C90 H80 1_555 1_555
H81 C90 1_555 1_555
H82 C90 1_555 1_555
C91 Si4 1_555 1_555
H83 C91 1_555 1_555
H84 C91 1_555 1_555
H85 C91 1_555 1_555
C92 Si4 1_555 1_555
H86 C92 1_555 1_555
H87 C92 1_555 1_555
H88 C92 1_555 1_555
C3 C4 1_555 1_555
C5 C6 1_555 1_555
C9 C10 1_555 1_555
C15 C16 1_555 1_555
C24 C25 1_555 1_555
C30 C31 1_555 1_555
C36 C37 1_555 1_555
C42 C43 1_555 1_555
C49 C50 1_555 1_555
C51 C52 1_555 1_555
C55 C56 1_555 1_555
C61 C62 1_555 1_555
C70 C71 1_555 1_555
C76 C77 1_555 1_555
C82 C83 1_555 1_555
C88 C89 1_555 1_555

#END
