
#######################################################################
#
#                 Cambridge Crystallographic Data Centre
#                                CCDC 
#
#######################################################################
#
# If this CIF has been generated from an entry in the Cambridge 
# Structural Database, then it will include bibliographic, chemical, 
# crystal, experimental, refinement or atomic coordinate data resulting 
# from the CCDC's data processing and validation procedures.
#
#######################################################################

data_CAWZUW
_chemical_formula_moiety         'C49 H41 N1 Si1'
_chemical_name_systematic        
2,3-Benzo-1,4,5,6-tetraphenyl-7-mesityl-7-phenylamino-7-silanorbornadiene
_symmetry_cell_setting           monoclinic
_symmetry_space_group_name_H-M   'P 21/c'
_symmetry_Int_Tables_number      14
_space_group_name_Hall           '-P 2ybc'
loop_
_symmetry_equiv_pos_site_id
_symmetry_equiv_pos_as_xyz
1 x,y,z
2 -x,1/2+y,1/2-z
3 -x,-y,-z
4 x,1/2-y,1/2+z
_cell_length_a                   9.538(2)
_cell_length_b                   19.635(4)
_cell_length_c                   19.600(4)
_cell_angle_alpha                90
_cell_angle_beta                 90.758(4)
_cell_angle_gamma                90
_cell_volume                     3670.34
_exptl_crystal_colour            colorless
_exptl_crystal_description       needle
_chemical_melting_point          192-193deg.C.(dec.)
_cell_formula_units_Z            4
_exptl_crystal_recrystallization_method deuterochloroform/hexane
loop_
_atom_site_label
_atom_site_type_symbol
_atom_site_fract_x
_atom_site_fract_y
_atom_site_fract_z
Si1 Si 0.77869(8) 0.08490(4) 0.19369(4)
N1 N 0.8803(2) 0.04978(13) 0.13064(12)
C1 C 0.6904(3) 0.01407(13) 0.24613(13)
C2 C 0.8227(3) -0.02507(13) 0.26790(13)
C3 C 0.9337(3) 0.01932(13) 0.28319(13)
C4 C 0.8898(3) 0.09432(13) 0.27690(13)
C5 C 0.7660(3) 0.09967(13) 0.32692(13)
C6 C 0.6583(3) 0.05838(13) 0.30914(13)
C7 C 0.8409(3) -0.09417(14) 0.27843(14)
H1 H 0.7670 -0.1240 0.2696
C8 C 0.9666(3) -0.11904(15) 0.30169(15)
H2 H 0.9778 -0.1656 0.3087
C9 C 1.0768(3) -0.07539(15) 0.31476(15)
H3 H 1.1627 -0.0926 0.3297
C10 C 1.0599(3) -0.00636(14) 0.30583(14)
H4 H 1.1343 0.0230 0.3151
C11 C 0.6560(3) 0.15131(13) 0.15724(14)
C12 C 0.6433(3) 0.21865(14) 0.18169(14)
C13 C 0.5451(3) 0.26309(14) 0.15409(16)
H5 H 0.5394 0.3071 0.1714
C14 C 0.4553(3) 0.24398(15) 0.10164(16)
C15 C 0.4691(3) 0.17897(15) 0.07669(15)
H6 H 0.4103 0.1654 0.0410
C16 C 0.5660(3) 0.13285(14) 0.10189(14)
C17 C 0.7388(3) 0.24657(15) 0.23675(17)
H7 H 0.7149 0.2932 0.2456
H8 H 0.8343 0.2440 0.2221
H9 H 0.7282 0.2203 0.2777
C18 C 0.3468(4) 0.29226(17) 0.07244(19)
H10 H 0.2911 0.2690 0.0386
H11 H 0.3929 0.3304 0.0518
H12 H 0.2875 0.3081 0.1083
C19 C 0.5712(3) 0.06478(15) 0.06589(15)
H13 H 0.4877 0.0395 0.0755
H14 H 0.6517 0.0397 0.0817
H15 H 0.5775 0.0720 0.0176
C20 C 0.5744(3) -0.02640(13) 0.21190(13)
C21 C 0.4343(3) -0.00904(16) 0.21590(15)
H16 H 0.4084 0.0276 0.2430
C22 C 0.3319(3) -0.0448(2) 0.18052(16)
H17 H 0.2384 -0.0322 0.1845
C23 C 0.3664(4) -0.09873(19) 0.13965(17)
H18 H 0.2972 -0.1230 0.1162
C24 C 0.5041(4) -0.11614(16) 0.13396(16)
H19 H 0.5292 -0.1524 0.1062
C25 C 0.6061(3) -0.08053(14) 0.16894(15)
H20 H 0.6994 -0.0930 0.1637
C26 C 1.0126(3) 0.14320(14) 0.27868(14)
C27 C 1.0282(3) 0.19866(14) 0.32131(15)
H21 H 0.9592 0.2084 0.3529
C28 C 1.1461(3) 0.24037(16) 0.31764(17)
H22 H 1.1538 0.2777 0.3467
C29 C 1.2507(3) 0.22783(16) 0.27243(18)
H23 H 1.3298 0.2555 0.2711
C30 C 1.2363(3) 0.17381(16) 0.22920(17)
H24 H 1.3053 0.1650 0.1973
C31 C 1.1204(3) 0.13218(15) 0.23247(16)
H25 H 1.1136 0.0954 0.2028
C32 C 0.7843(3) 0.13017(14) 0.39579(15)
C33 C 0.8847(4) 0.10226(16) 0.43868(16)
H26 H 0.9380 0.0658 0.4234
C34 C 0.9082(4) 0.12729(19) 0.50396(18)
H27 H 0.9772 0.1082 0.5320
C35 C 0.8296(5) 0.1797(2) 0.52629(19)
H28 H 0.8440 0.1963 0.5703
C36 C 0.7299(4) 0.20851(18) 0.4857(2)
H29 H 0.6770 0.2447 0.5020
C37 C 0.7066(3) 0.18438(15) 0.42035(17)
H30 H 0.6385 0.2046 0.3927
C38 C 0.5375(3) 0.04525(14) 0.35416(13)
C39 C 0.5216(3) -0.01820(16) 0.38356(16)
H31 H 0.5855 -0.0525 0.3739
C40 C 0.4117(4) -0.0313(2) 0.42713(17)
H32 H 0.4022 -0.0742 0.4467
C41 C 0.3174(4) 0.0189(2) 0.44142(18)
H33 H 0.2442 0.0103 0.4711
C42 C 0.3304(3) 0.0813(2) 0.41221(17)
H34 H 0.2654 0.1153 0.4216
C43 C 0.4394(3) 0.09454(15) 0.36887(15)
H35 H 0.4471 0.1374 0.3492
C44 C 0.9636(3) 0.07968(16) 0.07910(15)
C45 C 1.0816(3) 0.04433(17) 0.05714(17)
H36 H 1.1053 0.0029 0.0771
C46 C 1.1618(3) 0.07017(18) 0.00680(19)
H37 H 1.2407 0.0465 -0.0074
C47 C 1.1276(4) 0.1300(2) -0.02275(19)
H38 H 1.1836 0.1474 -0.0571
C48 C 1.0144(4) 0.1646(2) -0.0033(2)
H39 H 0.9906 0.2056 -0.0241
C49 C 0.9321(4) 0.13794(19) 0.0491(2)
H40 H 0.8534 0.1619 0.0630
H41 H 0.900(4) 0.0037(19) 0.1296(18)
loop_
_geom_bond_atom_site_label_1
_geom_bond_atom_site_label_2
_geom_bond_site_symmetry_1
_geom_bond_site_symmetry_2
Si1 N1 1_555 1_555
N1 C44 1_555 1_555
C1 Si1 1_555 1_555
C2 C1 1_555 1_555
C3 C2 1_555 1_555
C4 Si1 1_555 1_555
C5 C4 1_555 1_555
C6 C1 1_555 1_555
C7 C2 1_555 1_555
H1 C7 1_555 1_555
C8 C7 1_555 1_555
H2 C8 1_555 1_555
C9 C8 1_555 1_555
H3 C9 1_555 1_555
C10 C3 1_555 1_555
H4 C10 1_555 1_555
C11 Si1 1_555 1_555
C12 C11 1_555 1_555
C13 C12 1_555 1_555
H5 C13 1_555 1_555
C14 C13 1_555 1_555
C15 C14 1_555 1_555
H6 C15 1_555 1_555
C16 C11 1_555 1_555
C17 C12 1_555 1_555
H7 C17 1_555 1_555
H8 C17 1_555 1_555
H9 C17 1_555 1_555
C18 C14 1_555 1_555
H10 C18 1_555 1_555
H11 C18 1_555 1_555
H12 C18 1_555 1_555
C19 C16 1_555 1_555
H13 C19 1_555 1_555
H14 C19 1_555 1_555
H15 C19 1_555 1_555
C20 C1 1_555 1_555
C21 C20 1_555 1_555
H16 C21 1_555 1_555
C22 C21 1_555 1_555
H17 C22 1_555 1_555
C23 C22 1_555 1_555
H18 C23 1_555 1_555
C24 C23 1_555 1_555
H19 C24 1_555 1_555
C25 C20 1_555 1_555
H20 C25 1_555 1_555
C26 C4 1_555 1_555
C27 C26 1_555 1_555
H21 C27 1_555 1_555
C28 C27 1_555 1_555
H22 C28 1_555 1_555
C29 C28 1_555 1_555
H23 C29 1_555 1_555
C30 C29 1_555 1_555
H24 C30 1_555 1_555
C31 C26 1_555 1_555
H25 C31 1_555 1_555
C32 C5 1_555 1_555
C33 C32 1_555 1_555
H26 C33 1_555 1_555
C34 C33 1_555 1_555
H27 C34 1_555 1_555
C35 C34 1_555 1_555
H28 C35 1_555 1_555
C36 C35 1_555 1_555
H29 C36 1_555 1_555
C37 C32 1_555 1_555
H30 C37 1_555 1_555
C38 C6 1_555 1_555
C39 C38 1_555 1_555
H31 C39 1_555 1_555
C40 C39 1_555 1_555
H32 C40 1_555 1_555
C41 C40 1_555 1_555
H33 C41 1_555 1_555
C42 C41 1_555 1_555
H34 C42 1_555 1_555
C43 C38 1_555 1_555
H35 C43 1_555 1_555
C44 C45 1_555 1_555
C45 H36 1_555 1_555
C46 C45 1_555 1_555
H37 C46 1_555 1_555
C47 C46 1_555 1_555
H38 C47 1_555 1_555
C48 C47 1_555 1_555
H39 C48 1_555 1_555
C49 C44 1_555 1_555
H40 C49 1_555 1_555
H41 N1 1_555 1_555
C3 C4 1_555 1_555
C5 C6 1_555 1_555
C9 C10 1_555 1_555
C15 C16 1_555 1_555
C24 C25 1_555 1_555
C30 C31 1_555 1_555
C36 C37 1_555 1_555
C42 C43 1_555 1_555
C48 C49 1_555 1_555

#END
