
#######################################################################
#
#                 Cambridge Crystallographic Data Centre
#                                CCDC 
#
#######################################################################
#
# If this CIF has been generated from an entry in the Cambridge 
# Structural Database, then it will include bibliographic, chemical, 
# crystal, experimental, refinement or atomic coordinate data resulting 
# from the CCDC's data processing and validation procedures.
#
#######################################################################

data_CAXLAR
_chemical_formula_moiety         'C19 H15 N3 O4'
_chemical_name_systematic        
'methyl 4-((4-methoxyphenyl)amino)[1]benzofuro[2,3-d]pyrimidine-6-carboxylate'
_chemical_properties_biological  
'inhibitory activity against wild type EGFR tyrosine kinase'
_symmetry_cell_setting           triclinic
_symmetry_space_group_name_H-M   'P -1'
_symmetry_Int_Tables_number      2
_space_group_name_Hall           '-P 1'
loop_
_symmetry_equiv_pos_site_id
_symmetry_equiv_pos_as_xyz
1 x,y,z
2 -x,-y,-z
_cell_length_a                   7.7171(4)
_cell_length_b                   10.6392(6)
_cell_length_c                   11.0090(4)
_cell_angle_alpha                110.700(5)
_cell_angle_beta                 100.085(4)
_cell_angle_gamma                101.913(5)
_cell_volume                     796.352
_exptl_crystal_colour            colorless
_exptl_crystal_description       block
_chemical_melting_point          '195.0-196.7 deg.C'
_cell_formula_units_Z            2
loop_
_atom_site_label
_atom_site_type_symbol
_atom_site_fract_x
_atom_site_fract_y
_atom_site_fract_z
O1 O 0.05367(12) 0.45217(10) 0.27343(9)
O2 O 0.55341(13) 0.43376(11) 0.77429(10)
O3 O 0.54650(14) 0.65744(11) 0.87027(10)
N1 N 0.16586(16) 0.92058(12) 0.58573(12)
N2 N -0.03707(15) 0.82859(12) 0.37513(12)
C1 C 0.37826(18) 0.51616(14) 0.63947(13)
N3 N -0.09074(16) 0.59731(12) 0.20643(12)
O4 O 0.89776(14) 1.07775(11) 0.88268(11)
C2 C 0.20957(17) 0.59912(14) 0.49461(13)
C3 C 0.66765(19) 0.96389(14) 0.67885(14)
C4 C -0.11591(19) 0.72430(15) 0.25372(14)
C5 C 0.11641(17) 0.67579(14) 0.43172(13)
C6 C 0.48762(19) 0.92122(14) 0.60257(14)
C7 C 0.33245(18) 0.38388(14) 0.53329(14)
C8 C 0.08611(18) 0.80889(14) 0.46594(14)
C9 C 0.22377(18) 0.35531(14) 0.40704(14)
C10 C 0.3970(2) 1.03101(15) 0.80267(14)
C11 C 0.02289(18) 0.58021(14) 0.30074(14)
C12 C 0.31672(18) 0.62497(14) 0.62167(13)
C13 C 0.16573(17) 0.46442(14) 0.39188(13)
C14 C 0.34976(19) 0.95444(14) 0.66415(14)
C15 C 0.7147(2) 1.04079(14) 0.81777(15)
C16 C 0.5788(2) 1.07523(15) 0.88023(15)
C17 C 0.49953(19) 0.54618(15) 0.77379(14)
C18 C 0.6757(2) 0.45170(18) 0.89919(15)
C19 C 0.9556(2) 1.17283(19) 1.02126(16)
H1 H 0.19095(18) 0.26546(14) 0.33480(14)
H2 H 0.37688(18) 0.31222(14) 0.54819(14)
H3 H 0.34719(18) 0.71425(14) 0.69436(13)
H4 H 0.3040(2) 1.05362(15) 0.84529(14)
H5 H 0.6098(2) 1.12840(15) 0.97484(15)
H6 H 0.76038(19) 0.94058(14) 0.63621(14)
H7 H 0.45720(19) 0.86906(14) 0.50781(14)
H8 H 0.09942(16) 0.97607(12) 0.61729(12)
H9 H -0.20073(19) 0.74267(15) 0.19322(14)
H10 H 0.7245(13) 0.3710(6) 0.8835(3)
H11 H 0.7776(9) 0.5378(7) 0.9311(6)
H12 H 0.6076(4) 0.4584(12) 0.9674(4)
H13 H 0.9162(16) 1.2569(6) 1.0310(2)
H14 H 0.9002(15) 1.1273(5) 1.0744(3)
H15 H 1.0899(3) 1.1995(11) 1.0537(4)
loop_
_geom_bond_atom_site_label_1
_geom_bond_atom_site_label_2
_geom_bond_site_symmetry_1
_geom_bond_site_symmetry_2
O1 C11 1_555 1_555
O2 C17 1_555 1_555
O3 C17 1_555 1_555
N1 C8 1_555 1_555
N2 C4 1_555 1_555
C1 C7 1_555 1_555
N3 C4 1_555 1_555
O4 C15 1_555 1_555
C2 C5 1_555 1_555
C3 C6 1_555 1_555
C4 H9 1_555 1_555
C5 C8 1_555 1_555
C6 C14 1_555 1_555
C7 C9 1_555 1_555
C8 N2 1_555 1_555
C9 C13 1_555 1_555
C10 C14 1_555 1_555
C11 N3 1_555 1_555
C12 C1 1_555 1_555
C13 O1 1_555 1_555
C14 N1 1_555 1_555
C15 C3 1_555 1_555
C16 C10 1_555 1_555
C17 C1 1_555 1_555
C18 O2 1_555 1_555
C19 O4 1_555 1_555
H1 C9 1_555 1_555
H2 C7 1_555 1_555
H3 C12 1_555 1_555
H4 C10 1_555 1_555
H5 C16 1_555 1_555
H6 C3 1_555 1_555
H7 C6 1_555 1_555
H8 N1 1_555 1_555
H10 C18 1_555 1_555
H11 C18 1_555 1_555
H12 C18 1_555 1_555
H13 C19 1_555 1_555
H14 C19 1_555 1_555
H15 C19 1_555 1_555
C2 C12 1_555 1_555
C2 C13 1_555 1_555
C5 C11 1_555 1_555
C15 C16 1_555 1_555

#END
