
#######################################################################
#
#                 Cambridge Crystallographic Data Centre
#                                CCDC 
#
#######################################################################
#
# If this CIF has been generated from an entry in the Cambridge 
# Structural Database, then it will include bibliographic, chemical, 
# crystal, experimental, refinement or atomic coordinate data resulting 
# from the CCDC's data processing and validation procedures.
#
#######################################################################

data_CAXMOD03
_chemical_formula_moiety         'C3 H8 N2 O2'
_chemical_name_systematic        (2-azaniumylethyl)carbamate
_symmetry_cell_setting           orthorhombic
_symmetry_space_group_name_H-M   'P n a 21'
_symmetry_Int_Tables_number      33
_space_group_name_Hall           'P 2c -2n'
loop_
_symmetry_equiv_pos_site_id
_symmetry_equiv_pos_as_xyz
1 x,y,z
2 -x,-y,1/2+z
3 1/2+x,1/2-y,z
4 1/2-x,1/2+y,1/2+z
_cell_length_a                   12.8206(8)
_cell_length_b                   4.8279(3)
_cell_length_c                   8.2645(5)
_cell_angle_alpha                90
_cell_angle_beta                 90
_cell_angle_gamma                90
_cell_volume                     511.544
_exptl_crystal_colour            colorless
_exptl_crystal_description       needle
_cell_formula_units_Z            4
loop_
_atom_site_label
_atom_site_type_symbol
_atom_site_fract_x
_atom_site_fract_y
_atom_site_fract_z
C1 C 0.12262(15) 0.4287(4) 0.3204(3)
O1 O 0.13330(10) 0.1855(3) 0.3738(2)
O2 O 0.05387(11) 0.4992(3) 0.2178(2)
N1 N 0.18935(14) 0.6266(3) 0.3743(3)
H1 H 0.183695 0.790807 0.334926
C2 C 0.26916(17) 0.5775(5) 0.4939(3)
H2 H 0.249328 0.420580 0.560475
H3 H 0.275063 0.738299 0.563704
C3 C 0.37362(16) 0.5201(5) 0.4159(3)
H4 H 0.368930 0.351578 0.352455
H5 H 0.390848 0.670825 0.343007
N2 N 0.45764(12) 0.4900(4) 0.5374(2)
H6 H 0.463043 0.645653 0.594462
H7 H 0.517778 0.456297 0.487318
H8 H 0.442629 0.349936 0.603398
loop_
_geom_bond_atom_site_label_1
_geom_bond_atom_site_label_2
_geom_bond_site_symmetry_1
_geom_bond_site_symmetry_2
C1 O1 1_555 1_555
O2 C1 1_555 1_555
N1 C1 1_555 1_555
H1 N1 1_555 1_555
C2 N1 1_555 1_555
H2 C2 1_555 1_555
H3 C2 1_555 1_555
C3 C2 1_555 1_555
H4 C3 1_555 1_555
H5 C3 1_555 1_555
N2 C3 1_555 1_555
H6 N2 1_555 1_555
H7 N2 1_555 1_555
H8 N2 1_555 1_555

#END
