
#######################################################################
#
#                 Cambridge Crystallographic Data Centre
#                                CCDC 
#
#######################################################################
#
# If this CIF has been generated from an entry in the Cambridge 
# Structural Database, then it will include bibliographic, chemical, 
# crystal, experimental, refinement or atomic coordinate data resulting 
# from the CCDC's data processing and validation procedures.
#
#######################################################################

data_CAXMOG
_chemical_formula_moiety         'C28 H21 O2 P1'
_chemical_name_systematic        
3-(diphenylphosphoryl)-2-(4-methylphenyl)-1H-inden-1-one
_symmetry_cell_setting           monoclinic
_symmetry_space_group_name_H-M   'P 21/c'
_symmetry_Int_Tables_number      14
_space_group_name_Hall           '-P 2ybc'
loop_
_symmetry_equiv_pos_site_id
_symmetry_equiv_pos_as_xyz
1 x,y,z
2 -x,1/2+y,1/2-z
3 -x,-y,-z
4 x,1/2-y,1/2+z
_cell_length_a                   10.9300(8)
_cell_length_b                   19.1231(16)
_cell_length_c                   11.1659(9)
_cell_angle_alpha                90
_cell_angle_beta                 109.173(2)
_cell_angle_gamma                90
_cell_volume                     2204.39
_exptl_crystal_colour            yellow
_exptl_crystal_description       block
_cell_formula_units_Z            4
loop_
_atom_site_label
_atom_site_type_symbol
_atom_site_fract_x
_atom_site_fract_y
_atom_site_fract_z
P1 P 0.57862(8) 0.31285(4) 0.33072(8)
O1 O 0.8621(2) 0.12327(11) 0.6351(2)
O2 O 0.58326(18) 0.30991(10) 0.19982(18)
C1 C 0.7731(3) 0.14974(17) 0.5514(3)
C2 C 0.7575(3) 0.22721(15) 0.5221(3)
C3 C 0.6501(3) 0.23593(15) 0.4196(3)
C4 C 0.5908(3) 0.16575(15) 0.3762(3)
C5 C 0.6638(3) 0.11479(16) 0.4565(3)
C6 C 0.6308(3) 0.04531(18) 0.4400(4)
H1 H 0.6803 0.0117 0.4950
C7 C 0.5222(3) 0.02635(18) 0.3400(4)
H2 H 0.4970 -0.0203 0.3280
C8 C 0.4525(3) 0.07617(19) 0.2593(4)
H3 H 0.3811 0.0627 0.1911
C9 C 0.4850(3) 0.14685(18) 0.2758(3)
H4 H 0.4360 0.1803 0.2200
C10 C 0.8520(3) 0.27698(16) 0.6018(3)
C11 C 0.952(4) 0.3037(19) 0.565(4)
H5 H 0.9577 0.2913 0.4865
C12 C 1.043(4) 0.348(2) 0.643(4)
H6 H 1.1084 0.3667 0.6162
C13 C 1.0359(4) 0.36617(19) 0.7625(4)
C14 C 0.943(2) 0.3342(12) 0.803(2)
H7 H 0.9414 0.3424 0.8843
C15 C 0.8534(17) 0.2903(13) 0.723(2)
H8 H 0.7919 0.2690 0.7522
C16 C 1.1344(4) 0.41456(19) 0.8514(4)
H9 H 1.2185 0.3931 0.8760
H10 H 1.1105 0.4232 0.9255
H11 H 1.1367 0.4580 0.8091
C17 C 0.6593(3) 0.38797(15) 0.4148(3)
C18 C 0.7574(3) 0.41763(17) 0.3805(3)
H12 H 0.7781 0.3988 0.3128
C19 C 0.8254(3) 0.4743(2) 0.4436(4)
H13 H 0.8915 0.4933 0.4185
C20 C 0.7969(4) 0.5027(2) 0.5421(4)
H14 H 0.8444 0.5404 0.5859
C21 C 0.6988(4) 0.4759(2) 0.5768(4)
H15 H 0.6775 0.4960 0.6432
C22 C 0.6307(4) 0.4190(2) 0.5139(4)
H16 H 0.5638 0.4009 0.5387
C23 C 0.4168(3) 0.31333(15) 0.3369(3)
C24 C 0.3831(3) 0.28390(16) 0.4352(3)
H17 H 0.4463 0.2632 0.5030
C25 C 0.2557(3) 0.28531(17) 0.4326(4)
H18 H 0.2337 0.2660 0.4992
C26 C 0.1620(3) 0.31489(18) 0.3326(4)
H19 H 0.0764 0.3150 0.3311
C27 C 0.1931(3) 0.34441(18) 0.2346(4)
H20 H 0.1290 0.3649 0.1672
C28 C 0.3205(3) 0.34360(16) 0.2362(3)
H21 H 0.3416 0.3634 0.1695
C29? C 0.969(5) 0.288(3) 0.586(5)
H22? H 0.9890 0.2661 0.5210
C30? C 1.058(5) 0.333(2) 0.668(5)
H23? H 1.1369 0.3403 0.6550
C31? C 0.912(3) 0.3600(17) 0.775(2)
H24? H 0.8905 0.3859 0.8361
C32? C 0.824(3) 0.3160(15) 0.698(2)
H25? H 0.7432 0.3112 0.7075
loop_
_geom_bond_atom_site_label_1
_geom_bond_atom_site_label_2
_geom_bond_site_symmetry_1
_geom_bond_site_symmetry_2
P1 O2 1_555 1_555
O1 C1 1_555 1_555
C1 C2 1_555 1_555
C2 C3 1_555 1_555
C3 P1 1_555 1_555
C4 C3 1_555 1_555
C5 C1 1_555 1_555
C6 C5 1_555 1_555
H1 C6 1_555 1_555
C7 C6 1_555 1_555
H2 C7 1_555 1_555
C8 C7 1_555 1_555
H3 C8 1_555 1_555
C9 C4 1_555 1_555
H4 C9 1_555 1_555
C10 C2 1_555 1_555
C11 C10 1_555 1_555
H5 C11 1_555 1_555
C12 C11 1_555 1_555
H6 C12 1_555 1_555
C13 C12 1_555 1_555
C14 C13 1_555 1_555
H7 C14 1_555 1_555
C15 C10 1_555 1_555
H8 C15 1_555 1_555
C16 C13 1_555 1_555
H9 C16 1_555 1_555
H10 C16 1_555 1_555
H11 C16 1_555 1_555
C17 P1 1_555 1_555
C18 C17 1_555 1_555
H12 C18 1_555 1_555
C19 C18 1_555 1_555
H13 C19 1_555 1_555
C20 C19 1_555 1_555
H14 C20 1_555 1_555
C21 C20 1_555 1_555
H15 C21 1_555 1_555
C22 C17 1_555 1_555
H16 C22 1_555 1_555
C23 P1 1_555 1_555
C24 C23 1_555 1_555
H17 C24 1_555 1_555
C25 C24 1_555 1_555
H18 C25 1_555 1_555
C26 C25 1_555 1_555
H19 C26 1_555 1_555
C27 C26 1_555 1_555
H20 C27 1_555 1_555
C28 C23 1_555 1_555
H21 C28 1_555 1_555
C4 C5 1_555 1_555
C8 C9 1_555 1_555
C14 C15 1_555 1_555
C21 C22 1_555 1_555
C27 C28 1_555 1_555

#END
