
#######################################################################
#
#                 Cambridge Crystallographic Data Centre
#                                CCDC 
#
#######################################################################
#
# If this CIF has been generated from an entry in the Cambridge 
# Structural Database, then it will include bibliographic, chemical, 
# crystal, experimental, refinement or atomic coordinate data resulting 
# from the CCDC's data processing and validation procedures.
#
#######################################################################

data_CAXNOE
_chemical_formula_moiety         'C6 H5 N1 O3,C6 H7 N1'
_chemical_name_systematic        '4-Nitrophenol 4-methylpyridine'
_symmetry_cell_setting           orthorhombic
_symmetry_space_group_name_H-M   'P b c a'
_symmetry_Int_Tables_number      61
_space_group_name_Hall           '-P 2ac 2ab'
loop_
_symmetry_equiv_pos_site_id
_symmetry_equiv_pos_as_xyz
1 x,y,z
2 1/2+x,y,1/2-z
3 x,1/2-y,1/2+z
4 1/2-x,1/2+y,z
5 -x,-y,-z
6 1/2-x,-y,1/2+z
7 -x,1/2+y,1/2-z
8 1/2+x,1/2-y,-z
_cell_length_a                   7.1990(10)
_cell_length_b                   12.8960(10)
_cell_length_c                   25.077(3)
_cell_angle_alpha                90
_cell_angle_beta                 90
_cell_angle_gamma                90
_cell_volume                     2328.11
_exptl_crystal_colour            'pale yellow'
_exptl_crystal_description       prism
_cell_formula_units_Z            8
loop_
_atom_site_label
_atom_site_type_symbol
_atom_site_fract_x
_atom_site_fract_y
_atom_site_fract_z
O1 O 0.0088(2) -0.05759(13) 0.16674(6)
O2 O 0.2113(3) 0.25521(14) -0.01202(6)
O3 O 0.3181(3) 0.11665(12) -0.04795(6)
N1 N 0.2415(3) 0.16134(17) -0.01114(8)
C1 C 0.0674(3) -0.00810(17) 0.12268(9)
C2 C 0.0415(3) 0.09829(16) 0.12053(8)
H1 H -0.0140 0.1324 0.1491
C3 C 0.0971(3) 0.15370(16) 0.07665(8)
H2 H 0.0772 0.2249 0.0749
C4 C 0.1827(3) 0.10255(16) 0.03511(8)
C5 C 0.2109(3) -0.00320(18) 0.03631(8)
H3 H 0.2691 -0.0367 0.0080
C6 C 0.1515(3) -0.05842(16) 0.08014(8)
H4 H 0.1678 -0.1299 0.0812
H12 H 0.020(4) -0.1296(18) 0.1665(9)
N2 N 0.0390(3) -0.26345(13) 0.17283(8)
C7 C -0.0486(3) -0.3204(2) 0.13657(9)
H5 H -0.1015 -0.2867 0.1075
C8 C -0.0654(3) -0.42668(19) 0.13959(9)
H6 H -0.1267 -0.4629 0.1128
C9 C 0.0085(3) -0.47896(16) 0.18222(9)
C10 C 0.0983(3) -0.42021(18) 0.22001(8)
H7 H 0.1496 -0.4519 0.2499
C11 C 0.1121(4) -0.31479(18) 0.21363(9)
H8 H 0.1763 -0.2772 0.2393
C12 C -0.0103(4) -0.59459(15) 0.18725(8)
H9 H 0.0814 -0.6202 0.2117
H10 H 0.0076 -0.6261 0.1530
H11 H -0.1321 -0.6113 0.2003
loop_
_geom_bond_atom_site_label_1
_geom_bond_atom_site_label_2
_geom_bond_site_symmetry_1
_geom_bond_site_symmetry_2
O1 C1 1_555 1_555
O2 N1 1_555 1_555
O3 N1 1_555 1_555
N1 C4 1_555 1_555
N2 C7 1_555 1_555
C1 C2 1_555 1_555
C2 H1 1_555 1_555
C3 C2 1_555 1_555
H2 C3 1_555 1_555
C4 C3 1_555 1_555
C5 C4 1_555 1_555
H3 C5 1_555 1_555
C6 C1 1_555 1_555
H4 C6 1_555 1_555
C7 H5 1_555 1_555
C8 C7 1_555 1_555
H6 C8 1_555 1_555
C9 C8 1_555 1_555
C10 C9 1_555 1_555
H7 C10 1_555 1_555
C11 N2 1_555 1_555
H8 C11 1_555 1_555
C12 C9 1_555 1_555
H9 C12 1_555 1_555
H10 C12 1_555 1_555
H11 C12 1_555 1_555
H12 O1 1_555 1_555
C5 C6 1_555 1_555
C10 C11 1_555 1_555

#END
