
#######################################################################
#
#                 Cambridge Crystallographic Data Centre
#                                CCDC 
#
#######################################################################
#
# If this CIF has been generated from an entry in the Cambridge 
# Structural Database, then it will include bibliographic, chemical, 
# crystal, experimental, refinement or atomic coordinate data resulting 
# from the CCDC's data processing and validation procedures.
#
#######################################################################

data_CAXNAT
_chemical_formula_moiety         'C39 H24 N2 O1'
_chemical_name_systematic        
5,6,9,10-tetraphenyl-4H-oxepino[2,3,4,5-def]carbazole-7-carbonitrile
_symmetry_cell_setting           monoclinic
_symmetry_space_group_name_H-M   'C 2/c'
_symmetry_Int_Tables_number      15
_space_group_name_Hall           '-C 2yn'
loop_
_symmetry_equiv_pos_site_id
_symmetry_equiv_pos_as_xyz
1 x,y,z
2 -x,y,1/2-z
3 1/2+x,1/2+y,z
4 1/2-x,1/2+y,1/2-z
5 -x,-y,-z
6 x,-y,1/2+z
7 1/2-x,1/2-y,-z
8 1/2+x,1/2-y,1/2+z
_cell_length_a                   18.329(3)
_cell_length_b                   21.067(3)
_cell_length_c                   16.730(3)
_cell_angle_alpha                90
_cell_angle_beta                 99.622(4)
_cell_angle_gamma                90
_cell_volume                     6369.19
_exptl_crystal_colour            colorless
_exptl_crystal_description       prism
_cell_formula_units_Z            8
loop_
_atom_site_label
_atom_site_type_symbol
_atom_site_fract_x
_atom_site_fract_y
_atom_site_fract_z
O1 O 0.17022(6) 0.07746(4) -0.03744(5)
N1 N 0.23447(6) 0.10764(5) 0.24162(6)
N2 N 0.23652(7) -0.06479(6) -0.09238(7)
C1 C 0.14977(7) 0.13998(6) -0.06164(7)
C2 C 0.13180(7) 0.18984(6) -0.01753(7)
C3 C 0.13859(7) 0.19597(6) 0.07181(7)
C4 C 0.11025(8) 0.24729(6) 0.10945(8)
H1 H 0.0829 0.2790 0.0770
C5 C 0.12134(9) 0.25308(7) 0.19446(8)
H2 H 0.1001 0.2882 0.2178
C6 C 0.16219(9) 0.20928(7) 0.24519(8)
H3 H 0.1703 0.2141 0.3025
C7 C 0.19080(8) 0.15779(6) 0.20811(7)
C8 C 0.17747(7) 0.15082(6) 0.12348(7)
C9 C 0.21165(7) 0.09295(6) 0.10644(7)
C10 C 0.24735(7) 0.06753(6) 0.18043(7)
C11 C 0.28793(6) 0.01063(6) 0.18581(7)
C12 C 0.28730(6) -0.02271(6) 0.11355(7)
C13 C 0.24630(7) 0.00089(6) 0.03885(7)
C14 C 0.20956(7) 0.05914(6) 0.03564(7)
C15 C 0.24213(7) -0.03511(6) -0.03444(7)
C16 C 0.14380(7) 0.14067(6) -0.15182(7)
C17 C 0.10881(8) 0.08970(9) -0.19630(8)
H4 H 0.0892 0.0559 -0.1689
C18 C 0.10257(9) 0.08824(10) -0.28036(9)
H5 H 0.0786 0.0536 -0.3103
C19 C 0.13127(9) 0.13731(10) -0.32006(9)
H6 H 0.1261 0.1369 -0.3775
C20 C 0.16758(9) 0.18712(8) -0.27651(9)
H7 H 0.1880 0.2204 -0.3042
C21 C 0.17436(8) 0.18885(7) -0.19234(8)
H8 H 0.1999 0.2229 -0.1627
C22 C 0.10026(7) 0.24766(6) -0.06346(7)
C23 C 0.02865(7) 0.24604(7) -0.10781(8)
H9 H 0.0007 0.2079 -0.1104
C24 C -0.00188(8) 0.29974(7) -0.14800(9)
H10 H -0.0505 0.2982 -0.1785
C25 C 0.03842(8) 0.35560(7) -0.14377(8)
H11 H 0.0173 0.3924 -0.1713
C26 C 0.10939(7) 0.35798(6) -0.09954(8)
H12 H 0.1370 0.3963 -0.0968
C27 C 0.14016(7) 0.30405(6) -0.05920(7)
H13 H 0.1887 0.3058 -0.0286
C28 C 0.32755(7) -0.01004(6) 0.26661(7)
C29 C 0.37887(7) 0.03087(7) 0.31156(8)
H14 H 0.3904 0.0702 0.2888
C30 C 0.41318(8) 0.01442(7) 0.38933(8)
H15 H 0.4483 0.0423 0.4193
C31 C 0.39602(8) -0.04259(7) 0.42297(8)
H16 H 0.4192 -0.0538 0.4762
C32 C 0.34516(8) -0.08325(7) 0.37907(8)
H17 H 0.3332 -0.1222 0.4025
C33 C 0.31134(7) -0.06746(6) 0.30082(8)
H18 H 0.2771 -0.0960 0.2707
C34 C 0.33210(7) -0.08170(6) 0.11124(7)
C35 C 0.40845(8) -0.07988(7) 0.13720(9)
H19 H 0.4313 -0.0414 0.1578
C36 C 0.45134(8) -0.13366(8) 0.13321(10)
H20 H 0.5033 -0.1319 0.1512
C37 C 0.41871(9) -0.18987(8) 0.10312(10)
H21 H 0.4482 -0.2267 0.1005
C38 C 0.34295(9) -0.19236(7) 0.07679(9)
H22 H 0.3205 -0.2309 0.0557
C39 C 0.29977(8) -0.13873(6) 0.08114(8)
H23 H 0.2478 -0.1409 0.0635
H24 H 0.2426(10) 0.0980(9) 0.2940(12)
loop_
_geom_bond_atom_site_label_1
_geom_bond_atom_site_label_2
_geom_bond_site_symmetry_1
_geom_bond_site_symmetry_2
O1 C1 1_555 1_555
N1 C7 1_555 1_555
N2 C15 1_555 1_555
C1 C2 1_555 1_555
C2 C3 1_555 1_555
C3 C4 1_555 1_555
C4 H1 1_555 1_555
C5 C4 1_555 1_555
H2 C5 1_555 1_555
C6 C5 1_555 1_555
H3 C6 1_555 1_555
C7 C6 1_555 1_555
C8 C3 1_555 1_555
C9 C8 1_555 1_555
C10 N1 1_555 1_555
C11 C10 1_555 1_555
C12 C11 1_555 1_555
C13 C12 1_555 1_555
C14 O1 1_555 1_555
C15 C13 1_555 1_555
C16 C1 1_555 1_555
C17 C16 1_555 1_555
H4 C17 1_555 1_555
C18 C17 1_555 1_555
H5 C18 1_555 1_555
C19 C18 1_555 1_555
H6 C19 1_555 1_555
C20 C19 1_555 1_555
H7 C20 1_555 1_555
C21 C16 1_555 1_555
H8 C21 1_555 1_555
C22 C2 1_555 1_555
C23 C22 1_555 1_555
H9 C23 1_555 1_555
C24 C23 1_555 1_555
H10 C24 1_555 1_555
C25 C24 1_555 1_555
H11 C25 1_555 1_555
C26 C25 1_555 1_555
H12 C26 1_555 1_555
C27 C22 1_555 1_555
H13 C27 1_555 1_555
C28 C11 1_555 1_555
C29 C28 1_555 1_555
H14 C29 1_555 1_555
C30 C29 1_555 1_555
H15 C30 1_555 1_555
C31 C30 1_555 1_555
H16 C31 1_555 1_555
C32 C31 1_555 1_555
H17 C32 1_555 1_555
C33 C28 1_555 1_555
H18 C33 1_555 1_555
C34 C12 1_555 1_555
C35 C34 1_555 1_555
H19 C35 1_555 1_555
C36 C35 1_555 1_555
H20 C36 1_555 1_555
C37 C36 1_555 1_555
H21 C37 1_555 1_555
C38 C37 1_555 1_555
H22 C38 1_555 1_555
C39 C34 1_555 1_555
H23 C39 1_555 1_555
H24 N1 1_555 1_555
C7 C8 1_555 1_555
C9 C10 1_555 1_555
C9 C14 1_555 1_555
C13 C14 1_555 1_555
C20 C21 1_555 1_555
C26 C27 1_555 1_555
C32 C33 1_555 1_555
C38 C39 1_555 1_555

#END
