
#######################################################################
#
#                 Cambridge Crystallographic Data Centre
#                                CCDC 
#
#######################################################################
#
# If this CIF has been generated from an entry in the Cambridge 
# Structural Database, then it will include bibliographic, chemical, 
# crystal, experimental, refinement or atomic coordinate data resulting 
# from the CCDC's data processing and validation procedures.
#
#######################################################################

data_CAXNUK
_chemical_formula_moiety         'C11 H21 N5 O5,2(H2 O1)'
_chemical_name_systematic        'L-Arginyl-L-glutamic acid dihydrate'
_symmetry_cell_setting           monoclinic
_symmetry_space_group_name_H-M   'P 21'
_symmetry_Int_Tables_number      4
_space_group_name_Hall           'P 2yb'
loop_
_symmetry_equiv_pos_site_id
_symmetry_equiv_pos_as_xyz
1 x,y,z
2 -x,1/2+y,-z
_cell_length_a                   11.028(2)
_cell_length_b                   9.583(2)
_cell_length_c                   16.010(2)
_cell_angle_alpha                90
_cell_angle_beta                 96.57(1)
_cell_angle_gamma                90
_cell_volume                     1680.85
_cell_formula_units_Z            4
loop_
_atom_site_label
_atom_site_type_symbol
_atom_site_fract_x
_atom_site_fract_y
_atom_site_fract_z
N1 N 1.05130 0.67360 0.21830
C1 C 1.08220 0.69480 0.31060
C2 C 1.20560 0.76460 0.33290
C3 C 1.31250 0.68420 0.30490
C4 C 1.43410 0.75490 0.33540
N2 N 1.54090 0.68010 0.31440
C5 C 1.59220 0.57200 0.35950
N3 N 1.55410 0.53540 0.43260
N4 N 1.68290 0.50560 0.32960
C6 C 0.98240 0.78480 0.34010
O1 O 0.94410 0.88820 0.29700
N5 N 0.94070 0.74770 0.40980
C7 C 0.84180 0.82110 0.44580
C8 C 0.81590 0.73970 0.52490
C9 C 0.71670 0.80420 0.56880
C10 C 0.68310 0.72180 0.64370
O2 O 0.76270 0.64850 0.68570
O3 O 0.57780 0.73540 0.66130
C11 C 0.88030 0.97630 0.47010
O4 O 0.80230 1.06670 0.45050
O5 O 0.98190 0.99420 0.50900
H1 H 0.95800 0.66400 0.21000
H2 H 1.08900 0.58400 0.20100
H3 H 1.07700 0.72500 0.18200
H4 H 1.08400 0.62600 0.33900
H5 H 1.23200 0.76800 0.39800
H6 H 1.19500 0.80600 0.29800
H7 H 1.30200 0.69000 0.22900
H8 H 1.31800 0.63100 0.32300
H9 H 1.43000 0.77300 0.40300
H10 H 1.43300 0.80200 0.29100
H11 H 1.56500 0.68800 0.25300
H12 H 1.49300 0.58600 0.45700
H13 H 1.58800 0.47700 0.46800
H14 H 1.74600 0.57700 0.29100
H15 H 1.72400 0.43800 0.36100
H16 H 1.03600 0.74100 0.42800
H17 H 0.75600 0.82100 0.39000
H18 H 0.88800 0.72700 0.57300
H19 H 0.77600 0.65000 0.50300
H20 H 0.63800 0.79700 0.52700
H21 H 0.74800 0.87100 0.58600
N6 N 1.00840 0.66900 0.72310
C12 C 1.04020 0.69260 0.81600
C13 C 1.16490 0.75730 0.83770
C14 C 1.27220 0.67730 0.80800
C15 C 1.38940 0.74720 0.83880
N7 N 1.49760 0.68240 0.81290
C16 C 1.55550 0.57440 0.85210
N8 N 1.52000 0.52290 0.92330
N9 N 1.64970 0.51780 0.81900
C17 C 0.94390 0.79460 0.84360
O6 O 0.90260 0.88820 0.79470
N10 N 0.91020 0.77480 0.91840
C18 C 0.81790 0.86700 0.94760
C19 C 0.81030 0.82170 1.04940
C20 C 0.74520 0.68220 1.05110
C21 C 0.73190 0.66670 1.14580
O7 O 0.81000 0.62290 1.20000
O8 O 0.62330 0.68200 1.15580
C22 C 0.87570 1.01820 0.96570
O9 O 0.79850 1.11360 0.95110
O10 O 0.98380 1.03180 0.99200
H22 H 0.90900 0.66900 0.71200
H23 H 1.04000 0.71200 0.68700
H24 H 1.03900 0.61000 0.70400
H25 H 1.04500 0.60100 0.85700
H26 H 1.16900 0.76400 0.91400
H27 H 1.15600 0.82200 0.81800
H28 H 1.26500 0.67300 0.73900
H29 H 1.27000 0.63800 0.83600
H30 H 1.37900 0.73700 0.91200
H31 H 1.39400 0.79000 0.81900
H32 H 1.52200 0.69800 0.75800
H33 H 1.54600 0.46200 0.95100
H34 H 1.49400 0.61200 0.96100
H35 H 1.71500 0.48700 0.85500
H36 H 1.68300 0.58400 0.78100
H37 H 0.93400 0.72700 0.93600
O11 O 1.86170 0.36780 0.90300
H38 H 1.93600 0.38500 0.92500
H39 H 1.82800 0.32000 0.91400
O12 O 1.57360 0.22200 0.95260
H40 H 1.47900 0.18400 0.90700
H41 H 1.64900 0.18400 0.95500
O13 O 1.87250 0.31800 0.39620
H42 H 1.92800 0.36900 0.43100
H43 H 1.83100 0.28000 0.42400
O14 O 1.59780 0.21670 0.46610
H44 H 1.52900 0.21800 0.41200
H45 H 1.67300 0.16200 0.45500
loop_
_geom_bond_atom_site_label_1
_geom_bond_atom_site_label_2
_geom_bond_site_symmetry_1
_geom_bond_site_symmetry_2
N1 C1 1_555 1_555
C1 C2 1_555 1_555
C2 C3 1_555 1_555
C3 C4 1_555 1_555
C4 N2 1_555 1_555
N2 C5 1_555 1_555
C5 N3 1_555 1_555
N3 H12 1_555 1_555
N4 C5 1_555 1_555
C6 C1 1_555 1_555
O1 C6 1_555 1_555
N5 C6 1_555 1_555
C7 N5 1_555 1_555
C8 C7 1_555 1_555
C9 C8 1_555 1_555
C10 C9 1_555 1_555
O2 C10 1_555 1_555
O3 C10 1_555 1_555
C11 C7 1_555 1_555
O4 C11 1_555 1_555
O5 C11 1_555 1_555
H1 N1 1_555 1_555
H2 N1 1_555 1_555
H3 N1 1_555 1_555
H4 C1 1_555 1_555
H5 C2 1_555 1_555
H6 C2 1_555 1_555
H7 C3 1_555 1_555
H8 C3 1_555 1_555
H9 C4 1_555 1_555
H10 C4 1_555 1_555
H11 N2 1_555 1_555
H13 N3 1_555 1_555
H14 N4 1_555 1_555
H15 N4 1_555 1_555
H16 N5 1_555 1_555
H17 C7 1_555 1_555
H18 C8 1_555 1_555
H19 C8 1_555 1_555
H20 C9 1_555 1_555
H21 C9 1_555 1_555
N6 C12 1_555 1_555
C12 C13 1_555 1_555
C13 C14 1_555 1_555
C14 C15 1_555 1_555
C15 N7 1_555 1_555
N7 C16 1_555 1_555
C16 N8 1_555 1_555
N8 H33 1_555 1_555
N9 C16 1_555 1_555
C17 C12 1_555 1_555
O6 C17 1_555 1_555
N10 C17 1_555 1_555
C18 N10 1_555 1_555
C19 C18 1_555 1_555
C20 C19 1_555 1_555
C21 C20 1_555 1_555
O7 C21 1_555 1_555
O8 C21 1_555 1_555
C22 C18 1_555 1_555
O9 C22 1_555 1_555
O10 C22 1_555 1_555
H22 N6 1_555 1_555
H23 N6 1_555 1_555
H24 N6 1_555 1_555
H25 C12 1_555 1_555
H26 C13 1_555 1_555
H27 C13 1_555 1_555
H28 C14 1_555 1_555
H29 C14 1_555 1_555
H30 C15 1_555 1_555
H31 C15 1_555 1_555
H32 N7 1_555 1_555
H34 N8 1_555 1_555
H35 N9 1_555 1_555
H36 N9 1_555 1_555
H37 N10 1_555 1_555
O11 H38 1_555 1_555
H39 O11 1_555 1_555
O12 H40 1_555 1_555
H41 O12 1_555 1_555
O13 H42 1_555 1_555
H43 O13 1_555 1_555
O14 H44 1_555 1_555
H45 O14 1_555 1_555

#END
