
#######################################################################
#
#                 Cambridge Crystallographic Data Centre
#                                CCDC 
#
#######################################################################
#
# If this CIF has been generated from an entry in the Cambridge 
# Structural Database, then it will include bibliographic, chemical, 
# crystal, experimental, refinement or atomic coordinate data resulting 
# from the CCDC's data processing and validation procedures.
#
#######################################################################

data_CAXPIB
_chemical_formula_moiety         'C9 H8 F4 S2'
_chemical_name_systematic        
4,4,6,6-tetrafluoro-3,5-dithiatricyclo[6.2.1.0^2,7^]undec-9-ene
_symmetry_cell_setting           orthorhombic
_symmetry_space_group_name_H-M   'P c a 21'
_symmetry_Int_Tables_number      29
_space_group_name_Hall           'P 2c -2ac'
loop_
_symmetry_equiv_pos_site_id
_symmetry_equiv_pos_as_xyz
1 x,y,z
2 -x,-y,1/2+z
3 1/2+x,-y,z
4 1/2-x,y,1/2+z
_cell_length_a                   10.1819(9)
_cell_length_b                   8.2402(8)
_cell_length_c                   23.546(2)
_cell_angle_alpha                90
_cell_angle_beta                 90
_cell_angle_gamma                90
_cell_volume                     1975.53
_exptl_crystal_colour            colorless
_exptl_crystal_description       needle
_cell_formula_units_Z            8
loop_
_atom_site_label
_atom_site_type_symbol
_atom_site_fract_x
_atom_site_fract_y
_atom_site_fract_z
S1 S 0.62334(9) 0.82196(13) 0.77107(4)
C1 C 0.6617(6) 1.0172(6) 0.8003(2)
S2 S 0.74763(12) 1.15841(14) 0.75513(5)
F1 F 0.5427(2) 1.0832(3) 0.81517(11)
C2 C 0.7705(4) 1.0434(6) 0.69041(18)
F2 F 0.8489(3) 1.1432(3) 0.65861(11)
C3 C 0.8412(4) 0.8807(4) 0.69785(16)
H1 H 0.9327 0.9033 0.7080
F3 F 0.6573(3) 1.0287(3) 0.66045(12)
C4 C 0.8412(4) 0.7734(5) 0.64269(17)
H2 H 0.8476 0.8312 0.6064
C5 C 0.9464(4) 0.6480(5) 0.65468(19)
F4 F 0.7279(4) 1.0074(3) 0.84974(16)
C6 C 0.9014(5) 0.5486(6) 0.6939(2)
C7 C 0.7638(4) 0.6038(5) 0.70962(18)
H3 H 0.7070 0.5221 0.7273
C8 C 0.7834(4) 0.7651(4) 0.74342(16)
H4 H 0.8461 0.7493 0.7745
C9 C 0.7185(4) 0.6696(5) 0.65161(17)
H5 H 0.7089 0.5851 0.6232
H6 H 0.6387 0.7335 0.6541
H13 H 0.945(4) 0.473(5) 0.7121(19)
H14 H 1.037(4) 0.648(5) 0.6361(17)
S3 S 0.86346(9) 0.67799(12) 0.90962(4)
F5 F 0.9838(4) 0.5142(4) 0.83053(17)
C10 C 0.9073(6) 0.4905(5) 0.8777(2)
S4 S 0.99047(12) 0.34174(13) 0.92135(4)
F6 F 0.7946(3) 0.4231(3) 0.85719(13)
C11 C 1.0156(4) 0.4532(6) 0.98747(16)
F7 F 1.0923(3) 0.3517(3) 1.01822(10)
C12 C 1.0825(4) 0.6147(5) 0.98145(15)
H7 H 1.1738 0.5940 0.9704
F8 F 0.9002(3) 0.4641(4) 1.01728(12)
C13 C 1.0852(4) 0.7193(5) 1.03687(17)
H8 H 1.0931 0.6590 1.0726
C14 C 1.1902(5) 0.8467(5) 1.02601(19)
C15 C 1.1424(5) 0.9487(6) 0.98739(19)
C16 C 1.0050(4) 0.8946(5) 0.97299(18)
H9 H 0.9475 0.9774 0.9564
C17 C 1.0232(4) 0.7359(5) 0.93729(16)
H10 H 1.0851 0.7543 0.9061
C18 C 0.9608(4) 0.8240(5) 1.03039(18)
H11 H 0.8810 0.7602 1.0277
H12 H 0.9523 0.9057 1.0598
H15 H 1.186(5) 1.038(7) 0.973(2)
H16 H 1.270(5) 0.833(6) 1.034(2)
loop_
_geom_bond_atom_site_label_1
_geom_bond_atom_site_label_2
_geom_bond_site_symmetry_1
_geom_bond_site_symmetry_2
S1 C1 1_555 1_555
C1 S2 1_555 1_555
S2 C2 1_555 1_555
F1 C1 1_555 1_555
C2 F2 1_555 1_555
C3 C2 1_555 1_555
H1 C3 1_555 1_555
F3 C2 1_555 1_555
C4 C3 1_555 1_555
H2 C4 1_555 1_555
C5 C4 1_555 1_555
F4 C1 1_555 1_555
C6 C5 1_555 1_555
C7 C6 1_555 1_555
H3 C7 1_555 1_555
C8 S1 1_555 1_555
H4 C8 1_555 1_555
C9 C4 1_555 1_555
H5 C9 1_555 1_555
H6 C9 1_555 1_555
S3 C10 1_555 1_555
F5 C10 1_555 1_555
C10 S4 1_555 1_555
S4 C11 1_555 1_555
F6 C10 1_555 1_555
C11 F7 1_555 1_555
C12 C11 1_555 1_555
H7 C12 1_555 1_555
F8 C11 1_555 1_555
C13 C12 1_555 1_555
H8 C13 1_555 1_555
C14 C13 1_555 1_555
C15 C14 1_555 1_555
C16 C15 1_555 1_555
H9 C16 1_555 1_555
C17 S3 1_555 1_555
H10 C17 1_555 1_555
C18 C13 1_555 1_555
H11 C18 1_555 1_555
H12 C18 1_555 1_555
H13 C6 1_555 1_555
H14 C5 1_555 1_555
H15 C15 1_555 1_555
H16 C14 1_555 1_555
C3 C8 1_555 1_555
C7 C8 1_555 1_555
C7 C9 1_555 1_555
C12 C17 1_555 1_555
C16 C17 1_555 1_555
C16 C18 1_555 1_555

#END
