
#######################################################################
#
#                 Cambridge Crystallographic Data Centre
#                                CCDC 
#
#######################################################################
#
# If this CIF has been generated from an entry in the Cambridge 
# Structural Database, then it will include bibliographic, chemical, 
# crystal, experimental, refinement or atomic coordinate data resulting 
# from the CCDC's data processing and validation procedures.
#
#######################################################################

data_CAXPOH
_chemical_formula_moiety         'C8 H11 Cl1 O2 S1'
_chemical_name_systematic        
3-chloro-5-(methylsulfonyl)tricyclo[2.2.1.0^2,6^]heptane
_symmetry_cell_setting           triclinic
_symmetry_space_group_name_H-M   'P -1'
_symmetry_Int_Tables_number      2
_space_group_name_Hall           '-P 1'
loop_
_symmetry_equiv_pos_site_id
_symmetry_equiv_pos_as_xyz
1 x,y,z
2 -x,-y,-z
_cell_length_a                   6.3387(9)
_cell_length_b                   7.2898(11)
_cell_length_c                   10.4091(15)
_cell_angle_alpha                74.828(3)
_cell_angle_beta                 73.027(2)
_cell_angle_gamma                82.444(3)
_cell_volume                     443.206
_exptl_crystal_colour            colorless
_exptl_crystal_description       wedge
_cell_formula_units_Z            2
loop_
_atom_site_label
_atom_site_type_symbol
_atom_site_fract_x
_atom_site_fract_y
_atom_site_fract_z
Cl1 Cl 0.09915(10) 0.76034(10) -0.03820(6)
S1 S 0.36074(9) 0.84359(8) 0.40773(6)
O1 O 0.5873(3) 0.7683(3) 0.37743(17)
C1 C 0.0898(4) 0.7090(3) 0.1426(2)
H1 H -0.0629 0.7174 0.1996
O2 O 0.3186(3) 1.0477(2) 0.37243(19)
C2 C 0.2347(3) 0.8380(3) 0.1728(2)
H2 H 0.2006 0.9757 0.1480
C3 C 0.2026(3) 0.7431(3) 0.3280(2)
H3 H 0.0455 0.7501 0.3776
C4 C 0.2766(4) 0.5402(3) 0.3132(2)
H4 H 0.2829 0.4336 0.3924
C5 C 0.2033(4) 0.5203(3) 0.1915(2)
H5 H 0.1588 0.3996 0.1856
C6 C 0.4387(4) 0.5554(3) 0.1742(2)
H6 H 0.5585 0.4580 0.1564
C7 C 0.4686(4) 0.7641(4) 0.1057(2)
H7 H 0.5003 0.7896 0.0059
H8 H 0.5816 0.8141 0.1308
C8 C 0.2392(4) 0.7589(4) 0.5854(2)
H9 H 0.3144 0.8053 0.6373
H10 H 0.2505 0.6223 0.6085
H11 H 0.0864 0.8030 0.6075
loop_
_geom_bond_atom_site_label_1
_geom_bond_atom_site_label_2
_geom_bond_site_symmetry_1
_geom_bond_site_symmetry_2
Cl1 C1 1_555 1_555
S1 O1 1_555 1_555
C1 H1 1_555 1_555
O2 S1 1_555 1_555
C2 C1 1_555 1_555
H2 C2 1_555 1_555
C3 S1 1_555 1_555
H3 C3 1_555 1_555
C4 C3 1_555 1_555
H4 C4 1_555 1_555
C5 C1 1_555 1_555
H5 C5 1_555 1_555
C6 C4 1_555 1_555
H6 C6 1_555 1_555
C7 C2 1_555 1_555
H7 C7 1_555 1_555
H8 C7 1_555 1_555
C8 S1 1_555 1_555
H9 C8 1_555 1_555
H10 C8 1_555 1_555
H11 C8 1_555 1_555
C2 C3 1_555 1_555
C4 C5 1_555 1_555
C5 C6 1_555 1_555
C6 C7 1_555 1_555

#END
