
#######################################################################
#
#                 Cambridge Crystallographic Data Centre
#                                CCDC 
#
#######################################################################
#
# If this CIF has been generated from an entry in the Cambridge 
# Structural Database, then it will include bibliographic, chemical, 
# crystal, experimental, refinement or atomic coordinate data resulting 
# from the CCDC's data processing and validation procedures.
#
#######################################################################

data_CAXPUN
_chemical_name_common            8-fluorocoumarin
_chemical_formula_moiety         'C9 H5 F1 O2'
_chemical_name_systematic        8-Fluoro-2H-chromen-2-one
_symmetry_cell_setting           monoclinic
_symmetry_space_group_name_H-M   'P c'
_symmetry_Int_Tables_number      7
_space_group_name_Hall           'P -2yc'
loop_
_symmetry_equiv_pos_site_id
_symmetry_equiv_pos_as_xyz
1 x,y,z
2 x,-y,1/2+z
_cell_length_a                   3.7260(2)
_cell_length_b                   8.2531(4)
_cell_length_c                   11.3619(5)
_cell_angle_alpha                90
_cell_angle_beta                 96.227(2)
_cell_angle_gamma                90
_cell_volume                     347.329
_exptl_crystal_colour            colorless
_exptl_crystal_description       needle
_cell_formula_units_Z            2
loop_
_atom_site_label
_atom_site_type_symbol
_atom_site_fract_x
_atom_site_fract_y
_atom_site_fract_z
O1 O 0.4911(3) 0.41457(13) 0.05739(10)
O2 O 0.6971(4) 0.66470(15) 0.05700(12)
F1 F 0.4669(3) 0.13518(11) 0.17306(9)
C1 C 0.5264(5) 0.56099(18) 0.00072(15)
C2 C 0.3601(5) 0.57461(19) -0.12012(14)
C3 C 0.1852(5) 0.44950(19) -0.17664(14)
C4 C -0.0115(4) 0.15891(19) -0.17033(13)
C5 C -0.0165(5) 0.01577(19) -0.10735(15)
C6 C 0.1448(4) 0.00589(18) 0.00881(14)
C7 C 0.3073(4) 0.14139(19) 0.06062(12)
C8 C 0.3187(4) 0.28647(18) -0.00062(12)
C9 C 0.1580(4) 0.29635(18) -0.11718(13)
H1 H 0.382(6) 0.673(3) -0.1600(19)
H2 H 0.066(6) 0.458(2) -0.260(2)
H3 H -0.120(6) 0.170(3) -0.2519(19)
H4 H -0.126(6) -0.077(3) -0.145(2)
H5 H 0.147(7) -0.093(3) 0.053(2)
loop_
_geom_bond_atom_site_label_1
_geom_bond_atom_site_label_2
_geom_bond_site_symmetry_1
_geom_bond_site_symmetry_2
O1 C1 1_555 1_555
O2 C1 1_555 1_555
F1 C7 1_555 1_555
C1 C2 1_555 1_555
C2 C3 1_555 1_555
C3 C9 1_555 1_555
C4 C5 1_555 1_555
C5 C6 1_555 1_555
C6 C7 1_555 1_555
C7 C8 1_555 1_555
C8 O1 1_555 1_555
C9 C4 1_555 1_555
H1 C2 1_555 1_555
H2 C3 1_555 1_555
H3 C4 1_555 1_555
H4 C5 1_555 1_555
H5 C6 1_555 1_555
C8 C9 1_555 1_555

#END
