
#######################################################################
#
#                 Cambridge Crystallographic Data Centre
#                                CCDC 
#
#######################################################################
#
# If this CIF has been generated from an entry in the Cambridge 
# Structural Database, then it will include bibliographic, chemical, 
# crystal, experimental, refinement or atomic coordinate data resulting 
# from the CCDC's data processing and validation procedures.
#
#######################################################################

data_CAXQOI
_chemical_name_common            8-fluoro-7-methoxycoumarin
_chemical_formula_moiety         'C10 H7 F1 O3'
_chemical_name_systematic        8-fluoro-7-methoxy-2H-chromen-2-one
_symmetry_cell_setting           orthorhombic
_symmetry_space_group_name_H-M   'P n m a'
_symmetry_Int_Tables_number      62
_space_group_name_Hall           '-P 2ac 2n'
loop_
_symmetry_equiv_pos_site_id
_symmetry_equiv_pos_as_xyz
1 x,y,z
2 1/2-x,-y,1/2+z
3 -x,1/2+y,-z
4 1/2+x,1/2-y,1/2-z
5 -x,-y,-z
6 1/2+x,y,1/2-z
7 x,1/2-y,z
8 1/2-x,1/2+y,1/2+z
_cell_length_a                   6.9083(14)
_cell_length_b                   6.5029(13)
_cell_length_c                   18.576(4)
_cell_angle_alpha                90
_cell_angle_beta                 90
_cell_angle_gamma                90
_cell_volume                     834.508
_exptl_crystal_colour            colorless
_exptl_crystal_description       plate
_chemical_melting_point          '464 K'
_cell_formula_units_Z            4
loop_
_atom_site_label
_atom_site_type_symbol
_atom_site_fract_x
_atom_site_fract_y
_atom_site_fract_z
O1 O 1.14915(19) 0.2500 0.55515(7)
O2 O 1.2960(2) 0.2500 0.66097(8)
O3 O 0.8818(2) 0.2500 0.32330(7)
F1 F 1.18412(17) 0.2500 0.41148(6)
C1 C 1.1414(3) 0.2500 0.63010(10)
C2 C 0.9508(3) 0.2500 0.66313(11)
C3 C 0.7876(3) 0.2500 0.62321(11)
C4 C 0.6363(3) 0.2500 0.49990(11)
C5 C 0.6569(3) 0.2500 0.42592(11)
C6 C 0.8428(3) 0.2500 0.39492(10)
C7 C 1.0041(3) 0.2500 0.44026(10)
C8 C 0.9824(3) 0.2500 0.51446(9)
C9 C 0.7981(3) 0.2500 0.54541(10)
C10 C 0.7188(3) 0.2500 0.27479(11)
H1 H 0.949(4) 0.2500 0.7141(14)
H2 H 0.663(4) 0.2500 0.6447(14)
H3 H 0.511(4) 0.2500 0.5182(12)
H4 H 0.545(4) 0.2500 0.3936(14)
H5 H 0.767(4) 0.2500 0.2265(16)
H6 H 0.639(3) 0.124(3) 0.2828(9)
H6F H 0.639(3) 0.376(3) 0.2828(9)
loop_
_geom_bond_atom_site_label_1
_geom_bond_atom_site_label_2
_geom_bond_site_symmetry_1
_geom_bond_site_symmetry_2
O1 C1 1_555 1_555
O2 C1 1_555 1_555
O3 C6 1_555 1_555
F1 C7 1_555 1_555
C1 C2 1_555 1_555
C2 C3 1_555 1_555
C3 C9 1_555 1_555
C4 C5 1_555 1_555
C5 C6 1_555 1_555
C6 C7 1_555 1_555
C7 C8 1_555 1_555
C8 O1 1_555 1_555
C9 C4 1_555 1_555
C10 O3 1_555 1_555
H1 C2 1_555 1_555
H2 C3 1_555 1_555
H3 C4 1_555 1_555
H4 C5 1_555 1_555
H5 C10 1_555 1_555
H6 C10 1_555 1_555
H6F C10 1_555 1_555
C8 C9 1_555 1_555

#END
