
#######################################################################
#
#                 Cambridge Crystallographic Data Centre
#                                CCDC 
#
#######################################################################
#
# If this CIF has been generated from an entry in the Cambridge 
# Structural Database, then it will include bibliographic, chemical, 
# crystal, experimental, refinement or atomic coordinate data resulting 
# from the CCDC's data processing and validation procedures.
#
#######################################################################

data_CAXQAU
_chemical_name_common            5,6-difluorocoumarin
_chemical_formula_moiety         'C9 H4 F2 O2'
_chemical_name_systematic        5,6-difluoro-2H-chromen-2-one
_symmetry_cell_setting           monoclinic
_symmetry_space_group_name_H-M   'P 21/c'
_symmetry_Int_Tables_number      14
_space_group_name_Hall           '-P 2ybc'
loop_
_symmetry_equiv_pos_site_id
_symmetry_equiv_pos_as_xyz
1 x,y,z
2 -x,1/2+y,1/2-z
3 -x,-y,-z
4 x,1/2-y,1/2+z
_cell_length_a                   7.071(1)
_cell_length_b                   8.522(1)
_cell_length_c                   12.291(1)
_cell_angle_alpha                90
_cell_angle_beta                 105.54(1)
_cell_angle_gamma                90
_cell_volume                     713.569
_exptl_crystal_colour            colorless
_exptl_crystal_description       block
_cell_formula_units_Z            4
loop_
_atom_site_label
_atom_site_type_symbol
_atom_site_fract_x
_atom_site_fract_y
_atom_site_fract_z
O1 O 0.2159(2) 0.65634(15) 0.36737(11)
O2 O 0.3131(2) 0.90318(16) 0.36869(12)
F1 F 0.33497(19) 0.34027(13) 0.69996(10)
F2 F 0.1609(2) 0.09563(13) 0.57515(11)
C1 C 0.3077(3) 0.7875(2) 0.42507(16)
C2 C 0.3869(3) 0.7743(2) 0.54687(16)
H1 H 0.4495 0.8625 0.5886
C3 C 0.3738(3) 0.6395(2) 0.60174(15)
H2 H 0.4254 0.6336 0.6814
C4 C 0.2630(3) 0.3585(2) 0.58762(15)
C5 C 0.1735(3) 0.2334(2) 0.52290(17)
C6 C 0.0980(3) 0.2483(2) 0.40724(17)
H3 H 0.0372 0.1612 0.3634
C7 C 0.1115(3) 0.3914(2) 0.35537(16)
H4 H 0.058(3) 0.407(3) 0.266(2)
C8 C 0.2034(3) 0.5163(2) 0.42186(15)
C9 C 0.2809(2) 0.5045(2) 0.53936(14)
loop_
_geom_bond_atom_site_label_1
_geom_bond_atom_site_label_2
_geom_bond_site_symmetry_1
_geom_bond_site_symmetry_2
O1 C1 1_555 1_555
O2 C1 1_555 1_555
F1 C4 1_555 1_555
F2 C5 1_555 1_555
C1 C2 1_555 1_555
C2 H1 1_555 1_555
C3 C2 1_555 1_555
H2 C3 1_555 1_555
C4 C5 1_555 1_555
C5 C6 1_555 1_555
C6 H3 1_555 1_555
C7 C6 1_555 1_555
H4 C7 1_555 1_555
C8 O1 1_555 1_555
C9 C3 1_555 1_555
C4 C9 1_555 1_555
C7 C8 1_555 1_555
C8 C9 1_555 1_555

#END
