
#######################################################################
#
#                 Cambridge Crystallographic Data Centre
#                                CCDC 
#
#######################################################################
#
# If this CIF has been generated from an entry in the Cambridge 
# Structural Database, then it will include bibliographic, chemical, 
# crystal, experimental, refinement or atomic coordinate data resulting 
# from the CCDC's data processing and validation procedures.
#
#######################################################################

data_CAXWON
_chemical_formula_moiety         'C48 H48 O6'
_chemical_name_systematic        
31,32,33,34,35,36-Hexamethoxy-4,9,14,19,24,29-hexamethylheptacyclo(25.3.1.1^2,6^.1^7,11^.1^12,16^.1^17,21^.1^22,26^)hexatriaconta-1(31),2,4,6(32),7,9,11(33),12,14,16(34),17,19,21(35),22,24,26(36),27,29-octadecaene
_symmetry_cell_setting           rhombohedral
_symmetry_space_group_name_H-M   'R -3'
_symmetry_Int_Tables_number      148
_space_group_name_Hall           '-P 3*'
loop_
_symmetry_equiv_pos_site_id
_symmetry_equiv_pos_as_xyz
1 x,y,z
2 z,x,y
3 y,z,x
4 -x,-y,-z
5 -z,-x,-y
6 -y,-z,-x
_cell_length_a                   11.697(3)
_cell_length_b                   11.697(3)
_cell_length_c                   11.697(3)
_cell_angle_alpha                114.25(2)
_cell_angle_beta                 114.25(2)
_cell_angle_gamma                114.25(2)
_cell_volume                     954.023
_cell_formula_units_Z            1
loop_
_atom_site_label
_atom_site_type_symbol
_atom_site_fract_x
_atom_site_fract_y
_atom_site_fract_z
C1 C 0.27800 0.49743 0.66104
C2 C 0.14705 0.39604 0.64751
C3 C 0.13857 0.28818 0.67473
C4 C 0.00528 0.19012 0.67385
C5 C 0.25832 0.27453 0.70282
C6 C 0.28832 0.61216 0.63081
C7 C 0.40429 0.49045 0.70360
O1 O 0.54424 0.60469 0.73549
C8 C 0.71229 0.72427 0.90874
H1 H 0.05280 0.39440 0.60980
H2 H 0.24650 0.18920 0.70640
H3 H 0.04510 0.27230 0.78790
H4 H -0.01040 0.09870 0.66590
H5 H -0.10280 0.13190 0.58060
H6 H 0.79390 0.82470 0.93640
H7 H 0.70290 0.71600 0.99210
H8 H 0.68210 0.78510 0.90870
C6E C 0.38784 0.36919 0.71168
C5D C 0.29718 0.74168 0.72547
C7D C 0.29640 0.59571 0.50955
C1E C 0.50257 0.33896 0.72200
C3D C 0.32527 0.86143 0.71182
H2D H 0.29360 0.75350 0.81080
C1D C 0.33896 0.72200 0.50257
O1D O 0.26451 0.45576 0.39531
C2E C 0.60396 0.35249 0.85295
C7E C 0.50955 0.29640 0.59571
C2D C 0.35249 0.85295 0.60396
C4D C 0.32615 0.99472 0.80988
C6D C 0.36919 0.71168 0.38784
C8D C 0.09126 0.28771 0.27573
C3E C 0.71182 0.32527 0.86143
H1E H 0.60560 0.39020 0.94720
C6A C 0.63081 0.28832 0.61216
O1E O 0.39531 0.26451 0.45576
H1D H 0.39020 0.94720 0.60560
H3D H 0.21210 0.95490 0.72770
H4D H 0.33410 1.01040 0.90130
H5D H 0.41940 1.10280 0.86810
C5B C 0.27453 0.70282 0.25832
C7B C 0.49045 0.70360 0.40429
H6D H 0.06360 0.20610 0.17530
H7D H 0.00790 0.29710 0.28400
H8D H 0.09130 0.31790 0.21490
C4E C 0.80988 0.32615 0.99472
C5E C 0.72547 0.29718 0.74168
C1A C 0.66104 0.27800 0.49743
C8E C 0.27573 0.09126 0.28771
C3B C 0.28818 0.67473 0.13857
H2B H 0.18920 0.70640 0.24650
C1B C 0.49743 0.66104 0.27800
O1B O 0.60469 0.73549 0.54424
H3E H 0.72770 0.21210 0.95490
H4E H 0.90130 0.33410 1.01040
H5E H 0.86810 0.41940 1.10280
H2E H 0.81080 0.29360 0.75350
C2A C 0.64751 0.14705 0.39604
C7A C 0.70360 0.40429 0.49045
H6E H 0.17530 0.06360 0.20610
H7E H 0.28400 0.00790 0.29710
H8E H 0.21490 0.09130 0.31790
C2B C 0.39604 0.64751 0.14705
C4B C 0.19012 0.67385 0.00528
C6B C 0.61216 0.63081 0.28832
C8B C 0.72427 0.90874 0.71229
C3A C 0.67473 0.13857 0.28818
H1A H 0.60980 0.05280 0.39440
C6C C 0.71168 0.38784 0.36919
O1A O 0.73549 0.54424 0.60469
H1B H 0.39440 0.60980 0.05280
H3B H 0.27230 0.78790 0.04510
H4B H 0.09870 0.66590 -0.01040
H5B H 0.13190 0.58060 -0.10280
C5C C 0.74168 0.72547 0.29718
C7C C 0.59571 0.50955 0.29640
H6B H 0.82470 0.93640 0.79390
H7B H 0.71600 0.99210 0.70290
H8B H 0.78510 0.90870 0.68210
C4A C 0.67385 0.00528 0.19012
C5A C 0.70282 0.25832 0.27453
C1C C 0.72200 0.50257 0.33896
C8A C 0.90874 0.71229 0.72427
C3C C 0.86143 0.71182 0.32527
H2C H 0.75350 0.81080 0.29360
O1C O 0.45576 0.39531 0.26451
H3A H 0.78790 0.04510 0.27230
H4A H 0.66590 -0.01040 0.09870
H5A H 0.58060 -0.10280 0.13190
H2A H 0.70640 0.24650 0.18920
C2C C 0.85295 0.60396 0.35249
H6A H 0.93640 0.79390 0.82470
H7A H 0.99210 0.70290 0.71600
H8A H 0.90870 0.68210 0.78510
C4C C 0.99472 0.80988 0.32615
C8C C 0.28771 0.27573 0.09126
H1C H 0.94720 0.60560 0.39020
H3C H 0.95490 0.72770 0.21210
H4C H 1.01040 0.90130 0.33410
H5C H 1.10280 0.86810 0.41940
H6C H 0.20610 0.17530 0.06360
H7C H 0.29710 0.28400 0.00790
H8C H 0.31790 0.21490 0.09130
loop_
_geom_bond_atom_site_label_1
_geom_bond_atom_site_label_2
_geom_bond_site_symmetry_1
_geom_bond_site_symmetry_2
C1 C2 1_555 1_555
C2 C3 1_555 1_555
C3 C4 1_555 1_555
C4 H3 1_555 1_555
C5 C3 1_555 1_555
C6 C1 1_555 1_555
C7 C1 1_555 1_555
O1 C7 1_555 1_555
C8 O1 1_555 1_555
H1 C2 1_555 1_555
H2 C5 1_555 1_555
H4 C4 1_555 1_555
H5 C4 1_555 1_555
H6 C8 1_555 1_555
H7 C8 1_555 1_555
H8 C8 1_555 1_555
C6E C5 1_555 1_555
C5D C6 1_555 1_555
C7D C6 1_555 1_555
C1E C6E 1_555 1_555
C3D C5D 1_555 1_555
H2D C5D 1_555 1_555
C1D C7D 1_555 1_555
O1D C7D 1_555 1_555
C2E C1E 1_555 1_555
C7E C1E 1_555 1_555
C2D C3D 1_555 1_555
C4D C3D 1_555 1_555
C6D C1D 1_555 1_555
C8D O1D 1_555 1_555
C3E C2E 1_555 1_555
H1E C2E 1_555 1_555
C6A C7E 1_555 1_555
O1E C7E 1_555 1_555
H1D C2D 1_555 1_555
H3D C4D 1_555 1_555
H4D C4D 1_555 1_555
H5D C4D 1_555 1_555
C5B C6D 1_555 1_555
C7B C6D 1_555 1_555
H6D C8D 1_555 1_555
H7D C8D 1_555 1_555
H8D C8D 1_555 1_555
C4E C3E 1_555 1_555
C5E C3E 1_555 1_555
C1A C6A 1_555 1_555
C8E O1E 1_555 1_555
C3B C5B 1_555 1_555
H2B C5B 1_555 1_555
C1B C7B 1_555 1_555
O1B C7B 1_555 1_555
H3E C4E 1_555 1_555
H4E C4E 1_555 1_555
H5E C4E 1_555 1_555
H2E C5E 1_555 1_555
C2A C1A 1_555 1_555
C7A C1A 1_555 1_555
H6E C8E 1_555 1_555
H7E C8E 1_555 1_555
H8E C8E 1_555 1_555
C2B C3B 1_555 1_555
C4B C3B 1_555 1_555
C6B C1B 1_555 1_555
C8B O1B 1_555 1_555
C3A C2A 1_555 1_555
H1A C2A 1_555 1_555
C6C C7A 1_555 1_555
O1A C7A 1_555 1_555
H1B C2B 1_555 1_555
H3B C4B 1_555 1_555
H4B C4B 1_555 1_555
H5B C4B 1_555 1_555
C5C C6B 1_555 1_555
C7C C6B 1_555 1_555
H6B C8B 1_555 1_555
H7B C8B 1_555 1_555
H8B C8B 1_555 1_555
C4A C3A 1_555 1_555
C5A C3A 1_555 1_555
C1C C6C 1_555 1_555
C8A O1A 1_555 1_555
C3C C5C 1_555 1_555
H2C C5C 1_555 1_555
O1C C7C 1_555 1_555
H3A C4A 1_555 1_555
H4A C4A 1_555 1_555
H5A C4A 1_555 1_555
H2A C5A 1_555 1_555
C2C C1C 1_555 1_555
H6A C8A 1_555 1_555
H7A C8A 1_555 1_555
H8A C8A 1_555 1_555
C4C C3C 1_555 1_555
C8C O1C 1_555 1_555
H1C C2C 1_555 1_555
H3C C4C 1_555 1_555
H4C C4C 1_555 1_555
H5C C4C 1_555 1_555
H6C C8C 1_555 1_555
H7C C8C 1_555 1_555
H8C C8C 1_555 1_555
C7 C6E 1_555 1_555
C1D C2D 1_555 1_555
C6A C5E 1_555 1_555
C1B C2B 1_555 1_555
C6C C5A 1_555 1_555
C7C C1C 1_555 1_555
C3C C2C 1_555 1_555

#END
