
#######################################################################
#
#                 Cambridge Crystallographic Data Centre
#                                CCDC 
#
#######################################################################
#
# If this CIF has been generated from an entry in the Cambridge 
# Structural Database, then it will include bibliographic, chemical, 
# crystal, experimental, refinement or atomic coordinate data resulting 
# from the CCDC's data processing and validation procedures.
#
#######################################################################

data_CAXZEH
_chemical_formula_moiety         'C16 H19 N1 O4'
_chemical_name_systematic        
1-[10-(2-hydroxyethyl)-4,5-methylenedioxy-9-azatricyclo[7.2.1.0^2,7^]dodeca-2,4,6-trien-11-yl]ethanone
_symmetry_cell_setting           triclinic
_symmetry_space_group_name_H-M   'P -1'
_symmetry_Int_Tables_number      2
_space_group_name_Hall           '-P 1'
loop_
_symmetry_equiv_pos_site_id
_symmetry_equiv_pos_as_xyz
1 x,y,z
2 -x,-y,-z
_cell_length_a                   5.7666(5)
_cell_length_b                   9.7162(8)
_cell_length_c                   13.4268(11)
_cell_angle_alpha                98.0290(10)
_cell_angle_beta                 100.0910(10)
_cell_angle_gamma                97.6020(10)
_cell_volume                     723.854
_exptl_crystal_colour            colorless
_exptl_crystal_description       rectangular
_chemical_melting_point          '148-150 deg.C'
_cell_formula_units_Z            2
_exptl_crystal_recrystallization_method ethanol
loop_
_atom_site_label
_atom_site_type_symbol
_atom_site_fract_x
_atom_site_fract_y
_atom_site_fract_z
O1 O 0.7236(3) 0.87559(18) -0.13764(10)
H1 H 0.8128 0.9457 -0.1436
O2 O 0.5246(3) 0.54006(16) 0.16339(14)
O3 O 0.5897(2) 0.82598(13) 0.58056(9)
O4 O 0.7602(3) 0.62490(14) 0.57667(10)
N1 N 0.9953(2) 0.89570(15) 0.18969(10)
C1 C 0.7295(4) 0.5230(2) 0.17174(14)
C2 C 0.8059(5) 0.3873(2) 0.19312(19)
H2 H 0.6675 0.3183 0.1889
H3 H 0.9028 0.4015 0.2607
H4 H 0.8964 0.3550 0.1435
C3 C 0.7161(4) 0.8765(2) -0.03302(14)
H5 H 0.5509 0.8585 -0.0257
H6 H 0.7858 0.9693 0.0053
C4 C 0.8466(3) 0.7691(2) 0.01174(13)
H7 H 1.0118 0.7873 0.0044
H8 H 0.7773 0.6765 -0.0270
C5 C 0.8395(3) 0.76837(18) 0.12413(12)
H9 H 0.6749 0.7700 0.1334
C6 C 0.8827(3) 0.95500(17) 0.27285(13)
H10 H 0.7265 0.9734 0.2429
H11 H 0.9780 1.0445 0.3068
C7 C 0.8540(3) 0.86169(16) 0.35262(11)
C8 C 0.7271(3) 0.89943(17) 0.42906(12)
H12 H 0.6616 0.9820 0.4327
C9 C 0.7028(3) 0.81089(17) 0.49804(12)
C10 C 0.8043(3) 0.69118(18) 0.49575(13)
C11 C 0.9350(3) 0.65370(19) 0.42421(13)
H13 H 1.0063 0.5732 0.4243
C12 C 0.9585(3) 0.74033(17) 0.35069(12)
C13 C 1.0956(3) 0.70377(19) 0.26713(13)
H14 H 1.2148 0.6443 0.2870
C14 C 0.9246(3) 0.63910(18) 0.16368(13)
H15 H 1.0201 0.5992 0.1168
C15 C 1.2050(3) 0.8388(2) 0.23733(14)
H16 H 1.2962 0.9036 0.2971
H17 H 1.3082 0.8199 0.1889
C16 C 0.5900(4) 0.6964(2) 0.61826(16)
H18 H 0.4328 0.6395 0.5977
H19 H 0.6321 0.7138 0.6926
loop_
_geom_bond_atom_site_label_1
_geom_bond_atom_site_label_2
_geom_bond_site_symmetry_1
_geom_bond_site_symmetry_2
O1 H1 1_555 1_555
O2 C1 1_555 1_555
O3 C9 1_555 1_555
O4 C10 1_555 1_555
N1 C5 1_555 1_555
C1 C2 1_555 1_555
C2 H2 1_555 1_555
H3 C2 1_555 1_555
H4 C2 1_555 1_555
C3 O1 1_555 1_555
H5 C3 1_555 1_555
H6 C3 1_555 1_555
C4 C3 1_555 1_555
H7 C4 1_555 1_555
H8 C4 1_555 1_555
C5 C4 1_555 1_555
H9 C5 1_555 1_555
C6 N1 1_555 1_555
H10 C6 1_555 1_555
H11 C6 1_555 1_555
C7 C6 1_555 1_555
C8 C7 1_555 1_555
H12 C8 1_555 1_555
C9 C8 1_555 1_555
C10 C9 1_555 1_555
C11 C10 1_555 1_555
H13 C11 1_555 1_555
C12 C7 1_555 1_555
C13 C12 1_555 1_555
H14 C13 1_555 1_555
C14 C1 1_555 1_555
H15 C14 1_555 1_555
C15 N1 1_555 1_555
H16 C15 1_555 1_555
H17 C15 1_555 1_555
C16 O3 1_555 1_555
H18 C16 1_555 1_555
H19 C16 1_555 1_555
O4 C16 1_555 1_555
C5 C14 1_555 1_555
C11 C12 1_555 1_555
C13 C14 1_555 1_555
C13 C15 1_555 1_555

#END
