
#######################################################################
#
#                 Cambridge Crystallographic Data Centre
#                                CCDC 
#
#######################################################################
#
# If this CIF has been generated from an entry in the Cambridge 
# Structural Database, then it will include bibliographic, chemical, 
# crystal, experimental, refinement or atomic coordinate data resulting 
# from the CCDC's data processing and validation procedures.
#
#######################################################################

data_CAYGUF
_chemical_formula_moiety         'C15 H15 N1 O3,C14 H21 N1 O1'
_chemical_name_systematic        
'endo-(1R,2S,3R,4S)-3-Benzamidonorborn-5-ene-2-carboxylic acid cis-(1R,2S)-2-(benzylamino)cyclohexylmethanol'
_symmetry_cell_setting           monoclinic
_symmetry_space_group_name_H-M   'P 21'
_symmetry_Int_Tables_number      4
_space_group_name_Hall           'P 2yb'
loop_
_symmetry_equiv_pos_site_id
_symmetry_equiv_pos_as_xyz
1 x,y,z
2 -x,1/2+y,-z
_cell_length_a                   6.3370(9)
_cell_length_b                   22.553(2)
_cell_length_c                   9.433(1)
_cell_angle_alpha                90
_cell_angle_beta                 105.740(6)
_cell_angle_gamma                90
_cell_volume                     1297.6
_exptl_crystal_colour            colorless
_exptl_crystal_description       rod
_cell_formula_units_Z            2
_exptl_crystal_recrystallization_method 'ethyl acetate'
loop_
_atom_site_label
_atom_site_type_symbol
_atom_site_fract_x
_atom_site_fract_y
_atom_site_fract_z
O1 O 0.9350(3) 0.7704(4) 0.6818(2)
O2 O 0.6596(3) 0.7712(4) 0.7839(2)
O3 O 0.3889(4) 0.7105(4) 0.3665(3)
N1 N 0.7001(5) 0.7632(4) 0.3828(3)
C1 C 0.6288(5) 0.8336(4) 0.5773(3)
C2 C 0.9664(6) 0.8865(4) 0.5668(4)
C3 C 0.7434(7) 0.8952(4) 0.5898(4)
C4 C 0.6217(7) 0.9220(4) 0.4420(5)
C5 C 0.6970(7) 0.8740(4) 0.3535(4)
C6 C 0.6016(6) 0.8188(4) 0.4104(3)
C7 C 0.9417(7) 0.8738(4) 0.4260(4)
C8 C 0.7486(5) 0.7885(4) 0.6875(3)
C9 C 0.5866(5) 0.7116(4) 0.3738(3)
C10 C 0.7099(6) 0.6560(4) 0.3704(3)
C11 C 0.8919(6) 0.6530(4) 0.3153(4)
C12 C 0.9978(7) 0.5997(4) 0.3138(4)
C13 C 0.9225(8) 0.5492(4) 0.3613(5)
C14 C 0.7401(9) 0.5512(4) 0.4157(6)
C15 C 0.6353(8) 0.6041(4) 0.4186(5)
H1 H 0.4867 0.8386 0.5903
H2 H 1.1019 0.8890 0.6413
H3 H 0.7400 0.9174 0.6741
H4 H 0.6708 0.9600 0.4264
H5 H 0.4665 0.9222 0.4269
H6 H 0.6538 0.8789 0.2496
H7 H 0.4497 0.8165 0.3623
H8 H 1.0556 0.8657 0.3787
H9 H 0.8453 0.7626 0.3709
H10 H 0.9440 0.6873 0.2796
H11 H 1.1250 0.5983 0.2796
H12 H 0.9949 0.5120 0.3567
H13 H 0.6875 0.5156 0.4504
H14 H 0.5091 0.6051 0.4551
O4 O 0.9265(3) 0.7055(4) 0.9891(2)
N2 N 1.3088(4) 0.7386(4) 0.8777(3)
C16 C 1.2006(8) 0.9542(4) 0.9778(5)
C17 C 1.3754(7) 0.9336(4) 0.9304(4)
C18 C 1.4298(5) 0.8742(4) 0.9438(3)
C19 C 1.3088(5) 0.8348(4) 1.0023(3)
C20 C 1.1315(6) 0.8558(4) 1.0469(4)
C21 C 1.0793(7) 0.9158(4) 1.0359(6)
C22 C 1.3699(5) 0.7708(4) 1.0216(3)
C23 C 1.3503(5) 0.6729(4) 0.8877(3)
C24 C 1.3062(5) 0.6488(4) 0.7312(3)
C25 C 1.3542(7) 0.5826(4) 0.7311(4)
C26 C 1.2312(6) 0.5484(4) 0.8236(4)
C27 C 1.2802(6) 0.5742(4) 0.9775(4)
C28 C 1.2237(5) 0.6400(4) 0.9801(3)
C29 C 0.9751(5) 0.6502(4) 0.9318(3)
H15 H 1.1652 0.9948 0.9709
H16 H 1.4570 0.9599 0.8881
H17 H 1.5522 0.8600 0.9126
H18 H 1.0454 0.8287 1.0856
H19 H 0.9595 0.9295 1.0683
H20 H 1.5238 0.7670 1.0636
H21 H 1.2956 0.7525 1.0859
H22 H 1.4057 0.7524 0.8189
H23 H 1.5019 0.6669 0.9341
H24 H 1.3966 0.6688 0.6817
H25 H 1.1564 0.6549 0.6806
H26 H 1.3109 0.5678 0.6331
H27 H 1.5076 0.5761 0.7713
H28 H 1.0785 0.5504 0.7782
H29 H 1.2761 0.5076 0.8299
H30 H 1.4322 0.5689 1.0241
H31 H 1.1976 0.5524 1.0311
H32 H 0.9036 0.6189 0.9694
H33 H 1.2882 0.6542 1.0945
H34 H 0.9252 0.6503 0.8277
H35 H 0.8294 0.7188 0.9068
loop_
_geom_bond_atom_site_label_1
_geom_bond_atom_site_label_2
_geom_bond_site_symmetry_1
_geom_bond_site_symmetry_2
O1 C8 1_555 1_555
O2 C8 1_555 1_555
O3 C9 1_555 1_555
O4 C29 1_555 1_555
N1 C6 1_555 1_555
N2 C22 1_555 1_555
C1 C3 1_555 1_555
C2 C3 1_555 1_555
C3 C4 1_555 1_555
C4 C5 1_555 1_555
C5 C6 1_555 1_555
C6 C1 1_555 1_555
C7 C2 1_555 1_555
C8 C1 1_555 1_555
C9 N1 1_555 1_555
C10 C9 1_555 1_555
C11 C10 1_555 1_555
C12 C11 1_555 1_555
C13 C12 1_555 1_555
C14 C13 1_555 1_555
C15 C10 1_555 1_555
C16 C17 1_555 1_555
C17 C18 1_555 1_555
C18 C19 1_555 1_555
C19 C20 1_555 1_555
C20 C21 1_555 1_555
C21 C16 1_555 1_555
C22 C19 1_555 1_555
C23 N2 1_555 1_555
C24 C23 1_555 1_555
C25 C24 1_555 1_555
C26 C25 1_555 1_555
C27 C26 1_555 1_555
C28 C23 1_555 1_555
C29 C28 1_555 1_555
H1 C1 1_555 1_555
H2 C2 1_555 1_555
H3 C3 1_555 1_555
H4 C4 1_555 1_555
H5 C4 1_555 1_555
H6 C5 1_555 1_555
H7 C6 1_555 1_555
H8 C7 1_555 1_555
H9 N1 1_555 1_555
H10 C11 1_555 1_555
H11 C12 1_555 1_555
H12 C13 1_555 1_555
H13 C14 1_555 1_555
H14 C15 1_555 1_555
H15 C16 1_555 1_555
H16 C17 1_555 1_555
H17 C18 1_555 1_555
H18 C20 1_555 1_555
H19 C21 1_555 1_555
H20 C22 1_555 1_555
H21 C22 1_555 1_555
H22 N2 1_555 1_555
H23 C23 1_555 1_555
H24 C24 1_555 1_555
H25 C24 1_555 1_555
H26 C25 1_555 1_555
H27 C25 1_555 1_555
H28 C26 1_555 1_555
H29 C26 1_555 1_555
H30 C27 1_555 1_555
H31 C27 1_555 1_555
H32 C29 1_555 1_555
H33 C28 1_555 1_555
H34 C29 1_555 1_555
H35 O4 1_555 1_555
C5 C7 1_555 1_555
C14 C15 1_555 1_555
C27 C28 1_555 1_555

#END
