
#######################################################################
#
#                 Cambridge Crystallographic Data Centre
#                                CCDC 
#
#######################################################################
#
# If this CIF has been generated from an entry in the Cambridge 
# Structural Database, then it will include bibliographic, chemical, 
# crystal, experimental, refinement or atomic coordinate data resulting 
# from the CCDC's data processing and validation procedures.
#
#######################################################################

data_CAYKIZ
_chemical_formula_moiety         'C30 H28 N2 O1'
_chemical_name_systematic        
2'-cyclohexyl-5'-methyl-2,3-diphenylspiro[indene-1,4'-pyrazol]-3'(2'H)-one
_symmetry_cell_setting           orthorhombic
_symmetry_space_group_name_H-M   'P 21 21 21'
_symmetry_Int_Tables_number      19
_space_group_name_Hall           'P 2ac 2ab'
loop_
_symmetry_equiv_pos_site_id
_symmetry_equiv_pos_as_xyz
1 x,y,z
2 1/2-x,-y,1/2+z
3 -x,1/2+y,1/2-z
4 1/2+x,1/2-y,-z
_cell_length_a                   8.7060(2)
_cell_length_b                   12.8994(3)
_cell_length_c                   21.7739(4)
_cell_angle_alpha                90
_cell_angle_beta                 90
_cell_angle_gamma                90
_cell_volume                     2445.26
_exptl_crystal_colour            colorless
_exptl_crystal_description       prismatic
_cell_formula_units_Z            4
loop_
_atom_site_label
_atom_site_type_symbol
_atom_site_fract_x
_atom_site_fract_y
_atom_site_fract_z
N1 N 0.0278(4) 0.7091(3) 0.17709(15)
N2 N 0.1095(4) 0.7131(3) 0.12131(14)
O1 O 0.1350(3) 0.6179(2) 0.03252(11)
C1 C 0.0787(4) 0.6329(3) 0.08291(16)
C2 C -0.0466(4) 0.5693(3) 0.11515(17)
C3 C -0.0570(5) 0.6278(4) 0.17584(18)
C4 C -0.1604(7) 0.5983(5) 0.2270(2)
H1 H -0.1557 0.6502 0.2586
H2 H -0.1287 0.5328 0.2436
H3 H -0.2639 0.5930 0.2121
C5 C -0.0171(5) 0.4536(3) 0.12023(16)
C6 C -0.1414(5) 0.4003(3) 0.10036(16)
C7 C -0.2582(5) 0.4752(3) 0.07737(16)
C8 C -0.1992(4) 0.5755(3) 0.08377(17)
C9 C -0.2823(5) 0.6613(3) 0.06612(18)
H4 H -0.2420 0.7277 0.0703
C10 C -0.4269(5) 0.6460(4) 0.0422(2)
H5 H -0.4845 0.7028 0.0293
C11 C -0.4876(5) 0.5476(4) 0.03697(19)
H6 H -0.5864 0.5395 0.0215
C12 C -0.4049(5) 0.4601(4) 0.05433(19)
H7 H -0.4464 0.3940 0.0506
C13 C 0.1333(5) 0.4126(3) 0.14147(18)
C14 C 0.1887(5) 0.3175(4) 0.1214(2)
H8 H 0.1304 0.2768 0.0950
C15 C 0.3310(7) 0.2838(5) 0.1410(3)
H9 H 0.3680 0.2207 0.1267
C16 C 0.4184(7) 0.3396(6) 0.1804(3)
H10 H 0.5118 0.3139 0.1944
C17 C 0.3665(7) 0.4351(6) 0.1995(3)
H11 H 0.4269 0.4754 0.2253
C18 C 0.2259(6) 0.4711(5) 0.1804(2)
H12 H 0.1920 0.5356 0.1938
C19 C -0.1699(5) 0.2869(3) 0.10027(19)
C20 C -0.1540(6) 0.2290(4) 0.1537(2)
H13 H -0.1247 0.2606 0.1903
C21 C -0.1824(6) 0.1234(4) 0.1517(3)
H14 H -0.1707 0.0843 0.1873
C22 C -0.2279(6) 0.0747(4) 0.0981(3)
H15 H -0.2471 0.0038 0.0975
C23 C -0.2439(7) 0.1326(4) 0.0464(3)
H16 H -0.2737 0.1008 0.0100
C24 C -0.2167(6) 0.2375(4) 0.0473(2)
H17 H -0.2300 0.2759 0.0116
C25 C 0.2180(5) 0.7968(3) 0.11144(18)
H18 H 0.2534 0.7926 0.0688
C26 C 0.3580(5) 0.7884(4) 0.1525(2)
H19 H 0.3261 0.7915 0.1952
H20 H 0.4076 0.7221 0.1458
C27 C 0.4710(5) 0.8746(4) 0.1398(2)
H21 H 0.5573 0.8689 0.1678
H22 H 0.5096 0.8682 0.0982
C28 C 0.3960(6) 0.9784(4) 0.1477(3)
H23 H 0.4689 1.0324 0.1372
H24 H 0.3673 0.9875 0.1904
C29 C 0.2541(7) 0.9894(4) 0.1077(3)
H25 H 0.2840 0.9884 0.0648
H26 H 0.2050 1.0554 0.1160
C30 C 0.1409(5) 0.9019(3) 0.1200(2)
H27 H 0.1020 0.9075 0.1616
H28 H 0.0546 0.9077 0.0920
loop_
_geom_bond_atom_site_label_1
_geom_bond_atom_site_label_2
_geom_bond_site_symmetry_1
_geom_bond_site_symmetry_2
N1 N2 1_555 1_555
N2 C1 1_555 1_555
O1 C1 1_555 1_555
C1 C2 1_555 1_555
C2 C3 1_555 1_555
C3 N1 1_555 1_555
C4 C3 1_555 1_555
H1 C4 1_555 1_555
H2 C4 1_555 1_555
H3 C4 1_555 1_555
C5 C2 1_555 1_555
C6 C5 1_555 1_555
C7 C6 1_555 1_555
C8 C2 1_555 1_555
C9 C8 1_555 1_555
H4 C9 1_555 1_555
C10 C9 1_555 1_555
H5 C10 1_555 1_555
C11 C10 1_555 1_555
H6 C11 1_555 1_555
C12 C7 1_555 1_555
H7 C12 1_555 1_555
C13 C5 1_555 1_555
C14 C13 1_555 1_555
H8 C14 1_555 1_555
C15 C14 1_555 1_555
H9 C15 1_555 1_555
C16 C15 1_555 1_555
H10 C16 1_555 1_555
C17 C16 1_555 1_555
H11 C17 1_555 1_555
C18 C13 1_555 1_555
H12 C18 1_555 1_555
C19 C6 1_555 1_555
C20 C19 1_555 1_555
H13 C20 1_555 1_555
C21 C20 1_555 1_555
H14 C21 1_555 1_555
C22 C21 1_555 1_555
H15 C22 1_555 1_555
C23 C22 1_555 1_555
H16 C23 1_555 1_555
C24 C19 1_555 1_555
H17 C24 1_555 1_555
C25 N2 1_555 1_555
H18 C25 1_555 1_555
C26 C25 1_555 1_555
H19 C26 1_555 1_555
H20 C26 1_555 1_555
C27 C26 1_555 1_555
H21 C27 1_555 1_555
H22 C27 1_555 1_555
C28 C27 1_555 1_555
H23 C28 1_555 1_555
H24 C28 1_555 1_555
C29 C28 1_555 1_555
H25 C29 1_555 1_555
H26 C29 1_555 1_555
C30 C25 1_555 1_555
H27 C30 1_555 1_555
H28 C30 1_555 1_555
C7 C8 1_555 1_555
C11 C12 1_555 1_555
C17 C18 1_555 1_555
C23 C24 1_555 1_555
C29 C30 1_555 1_555

#END
