
#######################################################################
#
#                 Cambridge Crystallographic Data Centre
#                                CCDC 
#
#######################################################################
#
# If this CIF has been generated from an entry in the Cambridge 
# Structural Database, then it will include bibliographic, chemical, 
# crystal, experimental, refinement or atomic coordinate data resulting 
# from the CCDC's data processing and validation procedures.
#
#######################################################################

data_CAYKEV
_chemical_formula_moiety         'C27 H28 N2 O3'
_chemical_name_systematic        
"ethyl 1'-cyclohexyl-3'-methyl-5'-oxo-2-phenyl-1',5'-dihydrospiro[indene-1,4'-pyrazole]-3-carboxylate"
_symmetry_cell_setting           triclinic
_symmetry_space_group_name_H-M   'P -1'
_symmetry_Int_Tables_number      2
_space_group_name_Hall           '-P 1'
loop_
_symmetry_equiv_pos_site_id
_symmetry_equiv_pos_as_xyz
1 x,y,z
2 -x,-y,-z
_cell_length_a                   8.9583(2)
_cell_length_b                   12.0605(3)
_cell_length_c                   12.5395(4)
_cell_angle_alpha                107.004(2)
_cell_angle_beta                 96.819(2)
_cell_angle_gamma                111.3370(10)
_cell_volume                     1167.58
_exptl_crystal_colour            colorless
_exptl_crystal_description       block
_cell_formula_units_Z            2
loop_
_atom_site_label
_atom_site_type_symbol
_atom_site_fract_x
_atom_site_fract_y
_atom_site_fract_z
O1 O 0.04681(16) 0.32896(15) 0.51026(12)
O2 O 0.63682(16) 0.49974(15) 0.91830(13)
O3 O 0.60541(16) 0.61328(15) 0.81176(15)
N1 N -0.18337(18) 0.32076(15) 0.71508(13)
N2 N -0.15821(17) 0.31925(16) 0.60639(13)
C1 C 0.08689(19) 0.34619(15) 0.71423(15)
C2 C -0.0046(2) 0.33126(16) 0.59572(15)
C3 C -0.0485(2) 0.33784(16) 0.77792(15)
C4 C -0.0312(3) 0.3413(2) 0.89735(18)
H1 H -0.1270 0.3451 0.9223
H2 H 0.0660 0.4154 0.9468
H3 H -0.0213 0.2657 0.9008
C5 C 0.24752(19) 0.46704(15) 0.77386(14)
C6 C 0.37325(19) 0.43409(16) 0.79636(14)
C7 C 0.3125(2) 0.29476(16) 0.75926(14)
C8 C 0.3929(2) 0.21689(18) 0.76653(16)
H4 H 0.5060 0.2519 0.7999
C9 C 0.3000(3) 0.08603(19) 0.72281(19)
H5 H 0.3513 0.0328 0.7290
C10 C 0.1331(3) 0.03266(19) 0.6702(2)
H6 H 0.0743 -0.0557 0.6399
C11 C 0.0520(2) 0.11002(18) 0.66207(19)
H7 H -0.0605 0.0745 0.6267
C12 C 0.1432(2) 0.24095(16) 0.70794(15)
C13 C 0.5517(2) 0.51844(17) 0.85078(15)
C14 C 0.7801(3) 0.6993(3) 0.8535(3)
H8 H 0.8402 0.6597 0.8867
H9 H 0.8233 0.7154 0.7896
C15 C 0.8042(5) 0.8165(4) 0.9378(5)
H10 H 0.7440 0.8552 0.9050
H11 H 0.9200 0.8728 0.9632
H12 H 0.7649 0.8007 1.0022
C16 C 0.2503(2) 0.59568(16) 0.80970(15)
C17 C 0.1598(2) 0.63112(18) 0.73822(18)
H13 H 0.0950 0.5723 0.6657
C18 C 0.1654(3) 0.7522(2) 0.7738(2)
H14 H 0.1050 0.7746 0.7250
C19 C 0.2595(3) 0.8402(2) 0.8808(2)
H15 H 0.2636 0.9221 0.9042
C20 C 0.3480(3) 0.8063(2) 0.9534(2)
H16 H 0.4111 0.8655 1.0262
C21 C 0.3435(3) 0.68529(18) 0.91872(17)
H17 H 0.4031 0.6633 0.9685
C22 C -0.2999(2) 0.28594(19) 0.51424(17)
H18 H -0.2595 0.2985 0.4475
C23 C -0.4172(3) 0.14606(19) 0.4791(2)
H19 H -0.4560 0.1312 0.5449
H20 H -0.3585 0.0934 0.4550
C24 C -0.5647(3) 0.1083(3) 0.3812(2)
H21 H -0.5269 0.1178 0.3137
H22 H -0.6393 0.0194 0.3614
C25 C -0.6550(3) 0.1909(2) 0.4162(2)
H23 H -0.7018 0.1748 0.4789
H24 H -0.7456 0.1682 0.3517
C26 C -0.5430(3) 0.3311(2) 0.4539(3)
H25 H -0.6040 0.3809 0.4814
H26 H -0.5080 0.3495 0.3883
C27 C -0.3900(3) 0.3708(2) 0.5496(2)
H27 H -0.3156 0.4590 0.5662
H28 H -0.4235 0.3647 0.6192
loop_
_geom_bond_atom_site_label_1
_geom_bond_atom_site_label_2
_geom_bond_site_symmetry_1
_geom_bond_site_symmetry_2
O1 C2 1_555 1_555
O2 C13 1_555 1_555
O3 C13 1_555 1_555
N1 N2 1_555 1_555
N2 C2 1_555 1_555
C1 C2 1_555 1_555
C3 N1 1_555 1_555
C4 C3 1_555 1_555
H1 C4 1_555 1_555
H2 C4 1_555 1_555
H3 C4 1_555 1_555
C5 C1 1_555 1_555
C6 C5 1_555 1_555
C7 C6 1_555 1_555
C8 C7 1_555 1_555
H4 C8 1_555 1_555
C9 C8 1_555 1_555
H5 C9 1_555 1_555
C10 C9 1_555 1_555
H6 C10 1_555 1_555
C11 C10 1_555 1_555
H7 C11 1_555 1_555
C12 C1 1_555 1_555
C13 C6 1_555 1_555
C14 O3 1_555 1_555
H8 C14 1_555 1_555
H9 C14 1_555 1_555
C15 C14 1_555 1_555
H10 C15 1_555 1_555
H11 C15 1_555 1_555
H12 C15 1_555 1_555
C16 C5 1_555 1_555
C17 C16 1_555 1_555
H13 C17 1_555 1_555
C18 C17 1_555 1_555
H14 C18 1_555 1_555
C19 C18 1_555 1_555
H15 C19 1_555 1_555
C20 C19 1_555 1_555
H16 C20 1_555 1_555
C21 C16 1_555 1_555
H17 C21 1_555 1_555
C22 N2 1_555 1_555
H18 C22 1_555 1_555
C23 C22 1_555 1_555
H19 C23 1_555 1_555
H20 C23 1_555 1_555
C24 C23 1_555 1_555
H21 C24 1_555 1_555
H22 C24 1_555 1_555
C25 C24 1_555 1_555
H23 C25 1_555 1_555
H24 C25 1_555 1_555
C26 C25 1_555 1_555
H25 C26 1_555 1_555
H26 C26 1_555 1_555
C27 C22 1_555 1_555
H27 C27 1_555 1_555
H28 C27 1_555 1_555
C1 C3 1_555 1_555
C7 C12 1_555 1_555
C11 C12 1_555 1_555
C20 C21 1_555 1_555
C26 C27 1_555 1_555

#END
