
#######################################################################
#
#                 Cambridge Crystallographic Data Centre
#                                CCDC 
#
#######################################################################
#
# If this CIF has been generated from an entry in the Cambridge 
# Structural Database, then it will include bibliographic, chemical, 
# crystal, experimental, refinement or atomic coordinate data resulting 
# from the CCDC's data processing and validation procedures.
#
#######################################################################

data_CAYMUN
_chemical_formula_moiety         'C25 H36 O3'
_chemical_name_systematic        
(-)-2-(2-hydroxy-2,5,5,8a-tetramethyl-1,2,4a,5,6,7,8,8a-octahydronaphthalen-1-yl)-7-methyl-4-methylidene-3,4,4a,8a-tetrahydro-2H-1-benzopyran-6(5H)-one
_symmetry_cell_setting           orthorhombic
_symmetry_space_group_name_H-M   'P 21 21 21'
_symmetry_Int_Tables_number      19
_space_group_name_Hall           'P 2ac 2ab'
loop_
_symmetry_equiv_pos_site_id
_symmetry_equiv_pos_as_xyz
1 x,y,z
2 1/2-x,-y,1/2+z
3 1/2+x,1/2-y,-z
4 -x,1/2+y,1/2-z
_cell_length_a                   10.0303(3)
_cell_length_b                   11.0497(3)
_cell_length_c                   19.5282(5)
_cell_angle_alpha                90
_cell_angle_beta                 90
_cell_angle_gamma                90
_cell_volume                     2164.35
_exptl_crystal_colour            colorless
_exptl_crystal_description       block
_chemical_melting_point          '150-151 deg.C'
_cell_formula_units_Z            4
loop_
_atom_site_label
_atom_site_type_symbol
_atom_site_fract_x
_atom_site_fract_y
_atom_site_fract_z
O1 O 0.18300(14) 0.53422(12) 0.41226(7)
O2 O 0.12223(16) 0.96968(13) 0.41850(8)
O3 O 0.23966(15) 0.18825(12) 0.47597(7)
H1 H 0.2044 0.1202 0.4698
C1 C 0.2393(2) 0.45395(17) 0.46273(10)
H2 H 0.1640 0.4045 0.4814
C2 C 0.2941(2) 0.52900(18) 0.52245(10)
H3 H 0.3295 0.4747 0.5584
H4 H 0.3676 0.5815 0.5063
C3 C 0.1830(2) 0.60543(17) 0.55114(10)
C4 C 0.11120(19) 0.68067(18) 0.49866(10)
H5 H 0.0284 0.7139 0.5201
C5 C 0.1948(2) 0.78704(17) 0.47183(10)
H6 H 0.2210 0.8398 0.5105
H7 H 0.2772 0.7558 0.4502
C6 C 0.1171(2) 0.85929(18) 0.42056(10)
C7 C 0.0336(2) 0.79139(18) 0.37084(10)
C8 C 0.01599(19) 0.67233(19) 0.37937(11)
H8 H -0.0348 0.6304 0.3459
C9 C 0.0709(2) 0.60029(18) 0.43818(11)
H9 H 0.0015 0.5415 0.4539
C10 C 0.1439(2) 0.60192(19) 0.61589(11)
H10 H 0.0688 0.6477 0.6302
H11 H 0.1911 0.5536 0.6480
C11 C -0.0263(2) 0.8625(2) 0.31327(11)
H12 H -0.0746 0.9323 0.3318
H13 H -0.0881 0.8110 0.2876
H14 H 0.0447 0.8908 0.2827
C12 C 0.1300(2) 0.26147(18) 0.37430(11)
H15 H 0.0929 0.1819 0.3630
H16 H 0.1425 0.3084 0.3322
H17 H 0.0686 0.3045 0.4048
C13 C 0.2645(2) 0.24524(17) 0.41013(10)
C14 C 0.3528(2) 0.16280(17) 0.36905(10)
H18 H 0.3178 0.0862 0.3561
C15 C 0.4754(2) 0.18919(17) 0.34967(10)
H19 H 0.5245 0.1302 0.3248
C16 C 0.54114(19) 0.30864(17) 0.36512(10)
H20 H 0.5772 0.2994 0.4126
C17 C 0.66555(19) 0.33474(18) 0.31988(10)
C18 C 0.7247(2) 0.45650(18) 0.34256(11)
H21 H 0.7655 0.4464 0.3884
H22 H 0.7965 0.4794 0.3103
C19 C 0.6236(2) 0.55923(18) 0.34590(11)
H23 H 0.5900 0.5765 0.2992
H24 H 0.6679 0.6332 0.3633
C20 C 0.5059(2) 0.52742(17) 0.39264(10)
H25 H 0.4414 0.5952 0.3922
H26 H 0.5389 0.5182 0.4401
C21 C 0.4335(2) 0.40998(17) 0.37111(10)
C22 C 0.3380(2) 0.36464(17) 0.42915(9)
H27 H 0.3993 0.3409 0.4672
C23 C 0.3599(2) 0.43274(18) 0.30302(10)
H28 H 0.3385 0.3551 0.2814
H29 H 0.4169 0.4802 0.2724
H30 H 0.2773 0.4774 0.3120
C24 C 0.7705(2) 0.23677(19) 0.33390(11)
H31 H 0.7396 0.1593 0.3153
H32 H 0.7840 0.2290 0.3834
H33 H 0.8547 0.2594 0.3120
C25 C 0.6370(2) 0.33447(19) 0.24248(10)
H34 H 0.5810 0.2647 0.2310
H35 H 0.7213 0.3292 0.2173
H36 H 0.5907 0.4093 0.2299
loop_
_geom_bond_atom_site_label_1
_geom_bond_atom_site_label_2
_geom_bond_site_symmetry_1
_geom_bond_site_symmetry_2
O1 C1 1_555 1_555
O2 C6 1_555 1_555
O3 H1 1_555 1_555
C1 H2 1_555 1_555
C2 C1 1_555 1_555
H3 C2 1_555 1_555
H4 C2 1_555 1_555
C3 C2 1_555 1_555
C4 C3 1_555 1_555
H5 C4 1_555 1_555
C5 C4 1_555 1_555
H6 C5 1_555 1_555
H7 C5 1_555 1_555
C6 C5 1_555 1_555
C7 C6 1_555 1_555
C8 C7 1_555 1_555
H8 C8 1_555 1_555
C9 O1 1_555 1_555
H9 C9 1_555 1_555
C10 C3 1_555 1_555
H10 C10 1_555 1_555
H11 C10 1_555 1_555
C11 C7 1_555 1_555
H12 C11 1_555 1_555
H13 C11 1_555 1_555
H14 C11 1_555 1_555
C12 H15 1_555 1_555
H16 C12 1_555 1_555
H17 C12 1_555 1_555
C13 O3 1_555 1_555
C14 C13 1_555 1_555
H18 C14 1_555 1_555
C15 C14 1_555 1_555
H19 C15 1_555 1_555
C16 C15 1_555 1_555
H20 C16 1_555 1_555
C17 C16 1_555 1_555
C18 C17 1_555 1_555
H21 C18 1_555 1_555
H22 C18 1_555 1_555
C19 C18 1_555 1_555
H23 C19 1_555 1_555
H24 C19 1_555 1_555
C20 C19 1_555 1_555
H25 C20 1_555 1_555
H26 C20 1_555 1_555
C21 C16 1_555 1_555
C22 C1 1_555 1_555
H27 C22 1_555 1_555
C23 C21 1_555 1_555
H28 C23 1_555 1_555
H29 C23 1_555 1_555
H30 C23 1_555 1_555
C24 C17 1_555 1_555
H31 C24 1_555 1_555
H32 C24 1_555 1_555
H33 C24 1_555 1_555
C25 C17 1_555 1_555
H34 C25 1_555 1_555
H35 C25 1_555 1_555
H36 C25 1_555 1_555
C4 C9 1_555 1_555
C8 C9 1_555 1_555
C12 C13 1_555 1_555
C13 C22 1_555 1_555
C20 C21 1_555 1_555
C21 C22 1_555 1_555

#END
