
#######################################################################
#
#                 Cambridge Crystallographic Data Centre
#                                CCDC 
#
#######################################################################
#
# If this CIF has been generated from an entry in the Cambridge 
# Structural Database, then it will include bibliographic, chemical, 
# crystal, experimental, refinement or atomic coordinate data resulting 
# from the CCDC's data processing and validation procedures.
#
#######################################################################

data_CAYNOI
_chemical_name_common            
(S)-3-((R)-3,7-dimethylocta-1,6-dien-3-yl)-5-fluoro-3-(((R)-1-hydroxy-3-phenylpropan-2-yl)amino)indolin-2-one
_chemical_formula_moiety         'C27 H33 F1 N2 O2'
_chemical_name_systematic        
3-(3,7-dimethylocta-1,6-dien-3-yl)-5-fluoro-3-((1-hydroxy-3-phenylpropan-2-yl)amino)-1,3-dihydro-2H-indol-2-one
_symmetry_cell_setting           monoclinic
_symmetry_space_group_name_H-M   'P 21'
_symmetry_Int_Tables_number      4
_space_group_name_Hall           'P 2yb'
loop_
_symmetry_equiv_pos_site_id
_symmetry_equiv_pos_as_xyz
1 x,y,z
2 -x,1/2+y,-z
_cell_length_a                   9.2187(5)
_cell_length_b                   10.4906(4)
_cell_length_c                   15.9420(9)
_cell_angle_alpha                90
_cell_angle_beta                 104.637(6)
_cell_angle_gamma                90
_cell_volume                     1491.71
_exptl_crystal_colour            colorless
_chemical_melting_point          '367-369 K'
_cell_formula_units_Z            2
_exptl_crystal_recrystallization_method toluene
loop_
_atom_site_label
_atom_site_type_symbol
_atom_site_fract_x
_atom_site_fract_y
_atom_site_fract_z
N1 N -0.7772(3) -0.8458(3) -0.10643(19)
H1 H -0.852(4) -0.784(3) -0.129(2)
C1 C -1.0076(4) -0.9742(3) -0.1173(2)
C2 C -0.8309(4) -1.0272(3) -0.2147(2)
O1 O -0.7083(3) -1.0633(3) 0.01425(16)
C3 C -0.8405(3) -0.9742(3) -0.1281(2)
N2 N -0.7139(3) -1.1708(3) -0.1111(2)
H2 H -0.6709 -1.2401 -0.0889
C4 C -0.7474(4) -1.0730(3) -0.0643(2)
O2 O -0.4921(3) -0.8513(3) 0.01902(18)
H3 H -0.5707 -0.8718 0.0306
C5 C -1.0725(4) -1.1093(3) -0.1362(3)
H4 H -1.0123 -1.1670 -0.0939
H5 H -1.0618 -1.1350 -0.1928
C6 C -0.7580(4) -1.1458(3) -0.2006(2)
C7 C -0.6235(4) -0.6677(3) -0.1312(3)
H6 H -0.6231 -0.6357 -0.0740
H7 H -0.5284 -0.6451 -0.1427
C8 C -0.7482(4) -0.6036(3) -0.1973(3)
C9 C -0.6377(4) -0.8134(3) -0.1312(2)
H8 H -0.6454 -0.8449 -0.1900
C10 C -0.8760(4) -0.9793(4) -0.2980(2)
H9 H -0.9216 -0.8999 -0.3093
C11 C -0.5031(4) -0.8755(4) -0.0700(3)
C12 C -1.2381(4) -1.1263(4) -0.1350(3)
H10 H -1.2498 -1.1082 -0.0774
H11 H -1.3000 -1.0667 -0.1752
C13 C -1.0989(4) -0.8840(3) -0.1832(2)
H12 H -1.1227 -0.9110 -0.2406
F1 F -0.8936(3) -1.0084(3) -0.44657(15)
C14 C -1.2880(4) -1.2607(4) -0.1603(3)
H13 H -1.2815 -1.3187 -0.1154
C15 C -1.0109(5) -0.9331(4) -0.0248(2)
H14 H -0.9577 -0.9946 0.0162
H15 H -1.1129 -0.9281 -0.0209
H16 H -0.9640 -0.8512 -0.0122
C16 C -1.3398(4) -1.3041(4) -0.2394(3)
C17 C -0.7835(5) -1.1696(5) -0.3513(3)
H17 H -0.7702 -1.2166 -0.3983
C18 C -0.8501(5) -1.0549(5) -0.3636(3)
C19 C -1.1487(5) -0.7704(4) -0.1681(4)
C20 C -0.8481(5) -0.5237(4) -0.1726(3)
H18 H -0.8373 -0.5072 -0.1140
C21 C -0.7343(5) -1.2178(4) -0.2672(3)
H19 H -0.6869 -1.2966 -0.2569
C22 C -0.7703(5) -0.6251(4) -0.2851(3)
H20 H -0.7045 -0.6787 -0.3039
C23 C -0.9654(6) -0.4672(5) -0.2339(5)
H21 H -1.0315 -0.4128 -0.2161
C24 C -0.9837(6) -0.4914(6) -0.3201(5)
H22 H -1.0622 -0.4542 -0.3611
C25 C -1.3827(6) -1.4429(5) -0.2555(4)
H23 H -1.3262 -1.4799 -0.2923
H24 H -1.4879 -1.4491 -0.2831
H25 H -1.3614 -1.4878 -0.2013
C26 C -0.8856(6) -0.5705(6) -0.3453(3)
H26 H -0.8972 -0.5875 -0.4039
C27 C -1.3581(7) -1.2252(5) -0.3189(3)
H27 H -1.3501 -1.1366 -0.3033
H28 H -1.4547 -1.2413 -0.3573
H29 H -1.2812 -1.2468 -0.3473
H30 H -0.411(5) -0.850(4) -0.084(3)
H31 H -0.489(5) -0.964(5) -0.084(3)
H32 H -1.218(7) -0.722(6) -0.205(4)
H33 H -1.157(9) -0.735(7) -0.116(3)
loop_
_geom_bond_atom_site_label_1
_geom_bond_atom_site_label_2
_geom_bond_site_symmetry_1
_geom_bond_site_symmetry_2
N1 H1 1_555 1_555
C1 C3 1_555 1_555
C2 C3 1_555 1_555
O1 C4 1_555 1_555
C3 N1 1_555 1_555
N2 H2 1_555 1_555
C4 C3 1_555 1_555
O2 H3 1_555 1_555
C5 C1 1_555 1_555
H4 C5 1_555 1_555
H5 C5 1_555 1_555
C6 C2 1_555 1_555
C7 H6 1_555 1_555
H7 C7 1_555 1_555
C8 C7 1_555 1_555
C9 N1 1_555 1_555
H8 C9 1_555 1_555
C10 C2 1_555 1_555
H9 C10 1_555 1_555
C11 O2 1_555 1_555
C12 C5 1_555 1_555
H10 C12 1_555 1_555
H11 C12 1_555 1_555
C13 C1 1_555 1_555
H12 C13 1_555 1_555
F1 C18 1_555 1_555
C14 C12 1_555 1_555
H13 C14 1_555 1_555
C15 C1 1_555 1_555
H14 C15 1_555 1_555
H15 C15 1_555 1_555
H16 C15 1_555 1_555
C16 C14 1_555 1_555
C17 H17 1_555 1_555
C18 C10 1_555 1_555
C19 C13 1_555 1_555
C20 C8 1_555 1_555
H18 C20 1_555 1_555
C21 C6 1_555 1_555
H19 C21 1_555 1_555
C22 C8 1_555 1_555
H20 C22 1_555 1_555
C23 C20 1_555 1_555
H21 C23 1_555 1_555
C24 C23 1_555 1_555
H22 C24 1_555 1_555
C25 C16 1_555 1_555
H23 C25 1_555 1_555
H24 C25 1_555 1_555
H25 C25 1_555 1_555
C26 C22 1_555 1_555
H26 C26 1_555 1_555
C27 C16 1_555 1_555
H27 C27 1_555 1_555
H28 C27 1_555 1_555
H29 C27 1_555 1_555
H30 C11 1_555 1_555
H31 C11 1_555 1_555
H32 C19 1_555 1_555
H33 C19 1_555 1_555
N2 C4 1_555 1_555
N2 C6 1_555 1_555
C7 C9 1_555 1_555
C9 C11 1_555 1_555
C17 C18 1_555 1_555
C17 C21 1_555 1_555
C24 C26 1_555 1_555

#END
