
#######################################################################
#
#                 Cambridge Crystallographic Data Centre
#                                CCDC 
#
#######################################################################
#
# If this CIF has been generated from an entry in the Cambridge 
# Structural Database, then it will include bibliographic, chemical, 
# crystal, experimental, refinement or atomic coordinate data resulting 
# from the CCDC's data processing and validation procedures.
#
#######################################################################

data_CAYPAU
_chemical_formula_moiety         'C18 H18 N6 S2'
_chemical_name_systematic        
2,3-bis(1-methyl-1H-imidazol-2-ylsulfanylmethyl)quinoxaline
_symmetry_cell_setting           triclinic
_symmetry_space_group_name_H-M   'P -1'
_symmetry_Int_Tables_number      2
_space_group_name_Hall           '-P 1'
loop_
_symmetry_equiv_pos_site_id
_symmetry_equiv_pos_as_xyz
1 x,y,z
2 -x,-y,-z
_cell_length_a                   6.8978(14)
_cell_length_b                   9.953(2)
_cell_length_c                   14.556(3)
_cell_angle_alpha                96.495(4)
_cell_angle_beta                 97.418(3)
_cell_angle_gamma                109.863(3)
_cell_volume                     918.709
_exptl_crystal_colour            yellow
_exptl_crystal_description       block
_chemical_melting_point          '374-375 K'
_cell_formula_units_Z            2
_exptl_crystal_recrystallization_method ethanol/water
loop_
_atom_site_label
_atom_site_type_symbol
_atom_site_fract_x
_atom_site_fract_y
_atom_site_fract_z
S1 S 1.35146(10) 0.12202(7) 0.46720(5)
S2 S 0.77718(12) 0.23331(7) 0.27469(5)
N1 N 1.1229(3) -0.0871(2) 0.30655(14)
N2 N 0.7135(3) -0.1509(2) 0.20914(14)
N3 N 1.6020(3) 0.3723(2) 0.58181(14)
N4 N 1.2665(3) 0.3184(2) 0.58856(16)
N5 N 0.5893(3) 0.1870(2) 0.09107(15)
N6 N 0.9146(3) 0.1882(2) 0.11143(18)
C1 C 1.0296(4) -0.2055(2) 0.23596(17)
C2 C 1.1400(4) -0.2976(3) 0.21369(19)
H1 H 1.2760 -0.2766 0.2449
C3 C 1.0458(5) -0.4172(3) 0.1463(2)
H2 H 1.1178 -0.4785 0.1320
C4 C 0.8436(5) -0.4492(3) 0.0984(2)
H3 H 0.7824 -0.5313 0.0523
C5 C 0.7332(5) -0.3616(3) 0.11812(19)
H4 H 0.5981 -0.3838 0.0855
C6 C 0.8260(4) -0.2377(3) 0.18814(17)
C7 C 1.0119(4) -0.0083(2) 0.32687(16)
C8 C 0.8033(3) -0.0407(2) 0.27681(16)
C9 C 1.1045(4) 0.1174(3) 0.40570(19)
H5 H 1.0078 0.1105 0.4493
H6 H 1.1253 0.2068 0.3809
C10 C 1.4038(4) 0.2785(3) 0.54957(16)
C11 C 1.3839(5) 0.4449(3) 0.6483(2)
H7 H 1.3291 0.4997 0.6858
C12 C 1.5877(5) 0.4794(3) 0.64540(19)
H8 H 1.6976 0.5599 0.6797
C13 C 1.7926(4) 0.3652(4) 0.5518(2)
H9 H 1.8091 0.2764 0.5639
H10 H 1.9112 0.4459 0.5861
H11 H 1.7829 0.3684 0.4858
C14 C 0.6765(4) 0.0502(3) 0.30156(18)
H12 H 0.6722 0.0564 0.3682
H13 H 0.5339 0.0019 0.2677
C15 C 0.7616(4) 0.1992(2) 0.15380(18)
C16 C 0.8366(5) 0.1697(3) 0.0183(2)
H14 H 0.9105 0.1596 -0.0295
C17 C 0.6391(5) 0.1680(3) 0.00393(19)
H15 H 0.5538 0.1563 -0.0536
C18 C 0.3942(4) 0.1972(3) 0.1122(2)
H16 H 0.3528 0.1436 0.1617
H17 H 0.2872 0.1576 0.0571
H18 H 0.4135 0.2969 0.1318
loop_
_geom_bond_atom_site_label_1
_geom_bond_atom_site_label_2
_geom_bond_site_symmetry_1
_geom_bond_site_symmetry_2
S1 C9 1_555 1_555
S2 C14 1_555 1_555
N1 C1 1_555 1_555
N2 C6 1_555 1_555
N3 C10 1_555 1_555
N4 C10 1_555 1_555
N5 C15 1_555 1_555
N6 C15 1_555 1_555
C1 C2 1_555 1_555
C2 H1 1_555 1_555
C3 C2 1_555 1_555
H2 C3 1_555 1_555
C4 C3 1_555 1_555
H3 C4 1_555 1_555
C5 C4 1_555 1_555
H4 C5 1_555 1_555
C6 C1 1_555 1_555
C7 N1 1_555 1_555
C8 N2 1_555 1_555
C9 C7 1_555 1_555
H5 C9 1_555 1_555
H6 C9 1_555 1_555
C10 S1 1_555 1_555
C11 N4 1_555 1_555
H7 C11 1_555 1_555
C12 N3 1_555 1_555
H8 C12 1_555 1_555
C13 N3 1_555 1_555
H9 C13 1_555 1_555
H10 C13 1_555 1_555
H11 C13 1_555 1_555
C14 C8 1_555 1_555
H12 C14 1_555 1_555
H13 C14 1_555 1_555
C15 S2 1_555 1_555
C16 N6 1_555 1_555
H14 C16 1_555 1_555
C17 N5 1_555 1_555
H15 C17 1_555 1_555
C18 N5 1_555 1_555
H16 C18 1_555 1_555
H17 C18 1_555 1_555
H18 C18 1_555 1_555
C5 C6 1_555 1_555
C7 C8 1_555 1_555
C11 C12 1_555 1_555
C16 C17 1_555 1_555

#END
