
#######################################################################
#
#                 Cambridge Crystallographic Data Centre
#                                CCDC 
#
#######################################################################
#
# If this CIF has been generated from an entry in the Cambridge 
# Structural Database, then it will include bibliographic, chemical, 
# crystal, experimental, refinement or atomic coordinate data resulting 
# from the CCDC's data processing and validation procedures.
#
#######################################################################

data_CAYPOI
_chemical_formula_moiety         'C18 H16 N2 O3,H2 O1'
_chemical_name_systematic        
'N-(4-Methoxyphenyl)-2-(quinolin-8-yloxy)acetamide monohydrate'
_symmetry_cell_setting           orthorhombic
_symmetry_space_group_name_H-M   'P 21 21 21'
_symmetry_Int_Tables_number      19
_space_group_name_Hall           'P 2ac 2ab'
loop_
_symmetry_equiv_pos_site_id
_symmetry_equiv_pos_as_xyz
1 x,y,z
2 1/2-x,-y,1/2+z
3 -x,1/2+y,1/2-z
4 1/2+x,1/2-y,-z
_cell_length_a                   6.8814(13)
_cell_length_b                   11.627(2)
_cell_length_c                   20.468(4)
_cell_angle_alpha                90
_cell_angle_beta                 90
_cell_angle_gamma                90
_cell_volume                     1637.65
_exptl_crystal_colour            yellow
_exptl_crystal_description       block
_cell_formula_units_Z            4
_exptl_crystal_recrystallization_method 'petroleum ether/ethyl acetate'
loop_
_atom_site_label
_atom_site_type_symbol
_atom_site_fract_x
_atom_site_fract_y
_atom_site_fract_z
O1 O 0.5070(2) 0.30040(11) 0.12647(7)
O2 O 0.5518(2) 0.14331(14) 0.03006(8)
O3 O 0.1937(3) -0.28656(13) -0.11860(9)
N1 N 0.8061(3) 0.33175(15) 0.20756(8)
N2 N 0.2265(2) 0.11168(14) 0.03242(8)
H1 H 0.1188 0.1369 0.0482
C1 C 0.9512(4) 0.3467(2) 0.24895(12)
H2 H 1.0494 0.2917 0.2498
C2 C 0.9658(4) 0.4407(3) 0.29174(13)
H3 H 1.0706 0.4473 0.3202
C3 C 0.8244(4) 0.5213(2) 0.29076(11)
H4 H 0.8326 0.5846 0.3184
C4 C 0.6653(3) 0.51043(19) 0.24838(10)
C5 C 0.5120(5) 0.5907(2) 0.24535(12)
H5 H 0.5134 0.6548 0.2725
C6 C 0.3635(4) 0.5749(2) 0.20333(13)
H6 H 0.2637 0.6287 0.2016
C7 C 0.3574(3) 0.47767(18) 0.16197(11)
H7 H 0.2541 0.4682 0.1332
C8 C 0.5015(3) 0.39808(16) 0.16394(9)
C9 C 0.6618(3) 0.41160(17) 0.20715(9)
C10 C 0.3493(3) 0.28254(17) 0.08303(10)
H8 H 0.3391 0.3463 0.0527
H9 H 0.2285 0.2769 0.1072
C11 C 0.3877(3) 0.17166(17) 0.04633(9)
C12 C 0.2180(3) 0.00978(16) -0.00620(9)
C13 C 0.3472(3) -0.01060(18) -0.05680(10)
H10 H 0.4429 0.0432 -0.0665
C14 C 0.3339(3) -0.1105(2) -0.09271(10)
H11 H 0.4227 -0.1244 -0.1260
C15 C 0.1905(3) -0.19013(18) -0.07982(10)
C16 C 0.0603(4) -0.16979(19) -0.03088(12)
H12 H -0.0372 -0.2229 -0.0220
C17 C 0.0741(3) -0.0687(2) 0.00581(11)
H13 H -0.0156 -0.0546 0.0388
C18 C 0.0467(5) -0.3693(3) -0.10819(18)
H14 H 0.0647 -0.4324 -0.1378
H15 H -0.0782 -0.3349 -0.1157
H16 H 0.0537 -0.3968 -0.0640
O4 O 0.8846(2) 0.16989(18) 0.10397(9)
H17 H 0.783(4) 0.156(2) 0.0831(13)
H18 H 0.855(4) 0.218(3) 0.1351(15)
loop_
_geom_bond_atom_site_label_1
_geom_bond_atom_site_label_2
_geom_bond_site_symmetry_1
_geom_bond_site_symmetry_2
O1 C8 1_555 1_555
O2 C11 1_555 1_555
O3 C15 1_555 1_555
N1 C1 1_555 1_555
N2 H1 1_555 1_555
C1 H2 1_555 1_555
C2 C1 1_555 1_555
H3 C2 1_555 1_555
C3 C2 1_555 1_555
H4 C3 1_555 1_555
C4 C3 1_555 1_555
C5 C4 1_555 1_555
H5 C5 1_555 1_555
C6 C5 1_555 1_555
H6 C6 1_555 1_555
C7 C6 1_555 1_555
H7 C7 1_555 1_555
C8 C7 1_555 1_555
C9 N1 1_555 1_555
C10 O1 1_555 1_555
H8 C10 1_555 1_555
H9 C10 1_555 1_555
C11 N2 1_555 1_555
C12 N2 1_555 1_555
C13 C12 1_555 1_555
H10 C13 1_555 1_555
C14 C13 1_555 1_555
H11 C14 1_555 1_555
C15 C14 1_555 1_555
C16 C15 1_555 1_555
H12 C16 1_555 1_555
C17 C12 1_555 1_555
H13 C17 1_555 1_555
C18 O3 1_555 1_555
H14 C18 1_555 1_555
H15 C18 1_555 1_555
H16 C18 1_555 1_555
O4 H17 1_555 1_555
H18 O4 1_555 1_555
C4 C9 1_555 1_555
C8 C9 1_555 1_555
C10 C11 1_555 1_555
C16 C17 1_555 1_555

#END
