
#######################################################################
#
#                 Cambridge Crystallographic Data Centre
#                                CCDC 
#
#######################################################################
#
# If this CIF has been generated from an entry in the Cambridge 
# Structural Database, then it will include bibliographic, chemical, 
# crystal, experimental, refinement or atomic coordinate data resulting 
# from the CCDC's data processing and validation procedures.
#
#######################################################################

data_CAYVOQ
_chemical_formula_moiety         'C28 H41 N1 O1 P1 1+,C1 H3 O3 S1 1-'
_chemical_name_systematic        
'tributyl((2-hydroxyphenyl)(1-methyl-1H-indol-3-yl)methyl)phosphonium methanesulfonate'
_symmetry_cell_setting           triclinic
_symmetry_space_group_name_H-M   'P -1'
_symmetry_Int_Tables_number      2
_space_group_name_Hall           '-P 1'
loop_
_symmetry_equiv_pos_site_id
_symmetry_equiv_pos_as_xyz
1 x,y,z
2 -x,-y,-z
_cell_length_a                   10.0064(10)
_cell_length_b                   16.3214(17)
_cell_length_c                   19.225(2)
_cell_angle_alpha                114.283(3)
_cell_angle_beta                 90.343(4)
_cell_angle_gamma                91.803(4)
_cell_volume                     2859.97
_exptl_crystal_colour            colorless
_exptl_crystal_description       prism
_cell_formula_units_Z            4
loop_
_atom_site_label
_atom_site_type_symbol
_atom_site_fract_x
_atom_site_fract_y
_atom_site_fract_z
C1 C 0.6579(4) 0.3758(3) 0.1123(3)
H1 H 0.6794 0.4094 0.1673
H2 H 0.7400 0.3459 0.0874
C2 C 0.6219(4) 0.4438(3) 0.0794(3)
H3 H 0.6294 0.4152 0.0231
H4 H 0.5279 0.4607 0.0913
C3 C 0.7120(5) 0.5276(3) 0.1113(3)
H5 H 0.8050 0.5115 0.0954
H6 H 0.7107 0.5533 0.1677
C4 C 0.6681(5) 0.5978(4) 0.0838(3)
H7 H 0.7272 0.6516 0.1065
H8 H 0.5760 0.6137 0.0993
H9 H 0.6729 0.5734 0.0281
C5 C 0.4618(4) 0.2465(3) 0.0070(2)
H10 H 0.3898 0.2014 0.0025
H11 H 0.4210 0.2960 -0.0019
C6 C 0.5647(4) 0.2029(3) -0.0540(3)
H12 H 0.6026 0.1517 -0.0466
H13 H 0.6387 0.2472 -0.0481
C7 C 0.5052(5) 0.1694(3) -0.1344(3)
H14 H 0.4791 0.2215 -0.1446
H15 H 0.4236 0.1318 -0.1384
C8 C 0.6039(6) 0.1146(4) -0.1942(3)
H16 H 0.5624 0.0942 -0.2452
H17 H 0.6286 0.0623 -0.1849
H18 H 0.6842 0.1521 -0.1911
C9 C 0.6134(4) 0.2035(3) 0.1184(3)
H19 H 0.7021 0.1954 0.0944
H20 H 0.6293 0.2248 0.1741
C10 C 0.5405(5) 0.1112(3) 0.0896(3)
H21 H 0.4497 0.1187 0.1110
H22 H 0.5308 0.0867 0.0334
C11 C 0.6128(5) 0.0445(3) 0.1113(3)
H23 H 0.6282 0.0714 0.1673
H24 H 0.5541 -0.0099 0.0981
C12 C 0.7438(6) 0.0171(4) 0.0734(4)
H25 H 0.7845 -0.0252 0.0908
H26 H 0.8034 0.0704 0.0867
H27 H 0.7295 -0.0119 0.0180
C13 C 0.4056(4) 0.3390(3) 0.1739(2)
H28 H 0.4574 0.3698 0.2230
C14 C 0.3209(4) 0.2662(3) 0.1846(3)
C15 C 0.2209(4) 0.2154(3) 0.1326(3)
H29 H 0.2008 0.2281 0.0897
C16 C 0.1507(5) 0.1469(3) 0.1425(3)
H30 H 0.0824 0.1129 0.1068
C17 C 0.1805(5) 0.1283(4) 0.2044(3)
H31 H 0.1334 0.0803 0.2105
C18 C 0.2777(5) 0.1783(3) 0.2580(3)
H32 H 0.2957 0.1662 0.3013
C19 C 0.3485(4) 0.2464(3) 0.2469(3)
C20 C 0.3345(4) 0.4131(3) 0.1634(2)
C21 C 0.2367(4) 0.4072(3) 0.1112(3)
H33 H 0.1957 0.3526 0.0755
C22 C 0.1053(5) 0.5119(4) 0.0734(3)
H34 H 0.0628 0.4557 0.0365
H35 H 0.1474 0.5447 0.0461
H36 H 0.0375 0.5489 0.1075
C23 C 0.2872(4) 0.5541(3) 0.1747(2)
C24 C 0.2971(4) 0.6470(3) 0.1999(3)
H37 H 0.2413 0.6780 0.1793
C25 C 0.3919(5) 0.6920(3) 0.2561(3)
H38 H 0.4028 0.7554 0.2739
C26 C 0.4722(5) 0.6473(3) 0.2876(3)
H39 H 0.5349 0.6808 0.3271
C27 C 0.4620(4) 0.5553(3) 0.2624(3)
H40 H 0.5182 0.5253 0.2836
C28 C 0.3676(4) 0.5063(3) 0.2048(2)
N1 N 0.2066(3) 0.4914(3) 0.1181(2)
O1 O 0.4477(3) 0.2964(2) 0.29678(19)
H41 H 0.4564 0.2783 0.3316
P1 P 0.53239(11) 0.29046(8) 0.10176(7)
C29 C -0.1775(4) 0.3659(3) 0.6045(3)
H42 H -0.2642 0.3379 0.5796
H43 H -0.1930 0.3979 0.6599
C30 C -0.1323(4) 0.4357(3) 0.5738(3)
H44 H -0.0356 0.4503 0.5850
H45 H -0.1457 0.4094 0.5176
C31 C -0.2087(5) 0.5215(3) 0.6086(3)
H46 H -0.3040 0.5084 0.5925
H47 H -0.2035 0.5447 0.6649
C32 C -0.1523(5) 0.5927(4) 0.5840(3)
H48 H -0.2033 0.6474 0.6074
H49 H -0.1589 0.5702 0.5283
H50 H -0.0583 0.6063 0.6005
C33 C 0.0005(4) 0.2380(3) 0.4955(2)
H51 H 0.0472 0.2886 0.4888
H52 H 0.0670 0.1918 0.4891
C34 C -0.1085(5) 0.1975(4) 0.4336(3)
H53 H -0.1490 0.1431 0.4367
H54 H -0.1796 0.2414 0.4428
C35 C -0.0550(5) 0.1729(4) 0.3546(3)
H55 H 0.0247 0.1362 0.3483
H56 H -0.0265 0.2285 0.3492
C36 C -0.1573(6) 0.1207(4) 0.2923(3)
H57 H -0.1181 0.1068 0.2423
H58 H -0.2360 0.1571 0.2979
H59 H -0.1840 0.0647 0.2965
C37 C -0.1542(5) 0.1883(3) 0.6037(3)
H60 H -0.1600 0.2051 0.6593
H61 H -0.2466 0.1851 0.5838
C38 C -0.0985(6) 0.0940(3) 0.5668(3)
H62 H -0.1019 0.0731 0.5106
H63 H -0.0037 0.0967 0.5828
C39 C -0.1762(6) 0.0270(4) 0.5885(4)
H64 H -0.2731 0.0351 0.5843
H65 H -0.1564 -0.0347 0.5519
C40 C -0.1446(8) 0.0365(5) 0.6660(4)
H66 H -0.1987 -0.0075 0.6772
H67 H -0.1643 0.0974 0.7026
H68 H -0.0495 0.0260 0.6700
C41 C 0.0707(4) 0.3229(3) 0.6634(2)
H69 H 0.0230 0.3535 0.7125
C42 C 0.1460(4) 0.2495(3) 0.6736(3)
C43 C 0.2394(4) 0.1981(3) 0.6222(3)
H70 H 0.2577 0.2085 0.5780
C44 C 0.3061(5) 0.1320(3) 0.6343(3)
H71 H 0.3690 0.0968 0.5985
C45 C 0.2806(5) 0.1173(4) 0.6994(3)
H72 H 0.3263 0.0720 0.7078
C46 C 0.1895(5) 0.1680(4) 0.7517(3)
H73 H 0.1737 0.1585 0.7965
C47 C 0.1208(4) 0.2332(3) 0.7383(3)
C48 C 0.1515(4) 0.3967(3) 0.6545(2)
C49 C 0.2497(4) 0.3920(3) 0.6034(3)
H74 H 0.2840 0.3378 0.5670
C50 C 0.3960(5) 0.4984(4) 0.5700(3)
H75 H 0.4056 0.5638 0.5874
H76 H 0.3724 0.4708 0.5155
H77 H 0.4806 0.4750 0.5786
C51 C 0.2177(4) 0.5390(3) 0.6692(2)
C52 C 0.2187(4) 0.6324(3) 0.6960(3)
H78 H 0.2782 0.6640 0.6766
C53 C 0.1295(5) 0.6764(3) 0.7518(3)
H79 H 0.1253 0.7399 0.7702
C54 C 0.0445(5) 0.6304(3) 0.7822(3)
H80 H -0.0138 0.6635 0.8219
C55 C 0.0436(4) 0.5385(3) 0.7558(3)
H81 H -0.0152 0.5079 0.7766
C56 C 0.1307(4) 0.4907(3) 0.6977(2)
N2 N 0.2910(3) 0.4769(3) 0.6126(2)
O2 O 0.0282(3) 0.2841(2) 0.78732(19)
H82 H 0.0212 0.2692 0.8241
P2 P -0.06317(11) 0.27797(8) 0.59043(7)
C57 C 0.5169(7) 0.0933(5) 0.4029(6)
H83 H 0.6140 0.0869 0.4000
H84 H 0.4773 0.0673 0.3513
H85 H 0.4792 0.0619 0.4326
O3 O 0.5405(4) 0.2485(4) 0.4019(3)
O4 O 0.3387(3) 0.2100(3) 0.4495(2)
O5 O 0.5454(5) 0.2384(4) 0.5207(2)
S1 S 0.48156(12) 0.20704(9) 0.44728(7)
C58 C -0.0606(7) 0.1020(5) 0.9136(6)
H86 H -0.1582 0.0943 0.9086
H87 H -0.0279 0.0757 0.9477
H88 H -0.0210 0.0716 0.8632
O6 O -0.0687(4) 0.2467(3) 0.8973(3)
O7 O 0.1269(3) 0.2210(3) 0.9561(2)
O8 O -0.0778(5) 0.2527(4) 1.0231(2)
S2 S -0.01526(12) 0.21662(9) 0.95125(7)
loop_
_geom_bond_atom_site_label_1
_geom_bond_atom_site_label_2
_geom_bond_site_symmetry_1
_geom_bond_site_symmetry_2
C1 H1 1_555 1_555
H2 C1 1_555 1_555
C2 C1 1_555 1_555
H3 C2 1_555 1_555
H4 C2 1_555 1_555
C3 C2 1_555 1_555
H5 C3 1_555 1_555
H6 C3 1_555 1_555
C4 C3 1_555 1_555
H7 C4 1_555 1_555
H8 C4 1_555 1_555
H9 C4 1_555 1_555
C5 H10 1_555 1_555
H11 C5 1_555 1_555
C6 C5 1_555 1_555
H12 C6 1_555 1_555
H13 C6 1_555 1_555
C7 C6 1_555 1_555
H14 C7 1_555 1_555
H15 C7 1_555 1_555
C8 C7 1_555 1_555
H16 C8 1_555 1_555
H17 C8 1_555 1_555
H18 C8 1_555 1_555
C9 H19 1_555 1_555
H20 C9 1_555 1_555
C10 C9 1_555 1_555
H21 C10 1_555 1_555
H22 C10 1_555 1_555
C11 C10 1_555 1_555
H23 C11 1_555 1_555
H24 C11 1_555 1_555
C12 C11 1_555 1_555
H25 C12 1_555 1_555
H26 C12 1_555 1_555
H27 C12 1_555 1_555
C13 H28 1_555 1_555
C14 C13 1_555 1_555
C15 C14 1_555 1_555
H29 C15 1_555 1_555
C16 C15 1_555 1_555
H30 C16 1_555 1_555
C17 C16 1_555 1_555
H31 C17 1_555 1_555
C18 C17 1_555 1_555
H32 C18 1_555 1_555
C19 C14 1_555 1_555
C20 C13 1_555 1_555
C21 C20 1_555 1_555
H33 C21 1_555 1_555
C22 H34 1_555 1_555
H35 C22 1_555 1_555
H36 C22 1_555 1_555
C23 C24 1_555 1_555
C24 H37 1_555 1_555
C25 C24 1_555 1_555
H38 C25 1_555 1_555
C26 C25 1_555 1_555
H39 C26 1_555 1_555
C27 C26 1_555 1_555
H40 C27 1_555 1_555
C28 C20 1_555 1_555
N1 C21 1_555 1_555
O1 C19 1_555 1_555
H41 O1 1_555 1_555
P1 C1 1_555 1_555
C29 H42 1_555 1_555
H43 C29 1_555 1_555
C30 C29 1_555 1_555
H44 C30 1_555 1_555
H45 C30 1_555 1_555
C31 C30 1_555 1_555
H46 C31 1_555 1_555
H47 C31 1_555 1_555
C32 C31 1_555 1_555
H48 C32 1_555 1_555
H49 C32 1_555 1_555
H50 C32 1_555 1_555
C33 H51 1_555 1_555
H52 C33 1_555 1_555
C34 C33 1_555 1_555
H53 C34 1_555 1_555
H54 C34 1_555 1_555
C35 C34 1_555 1_555
H55 C35 1_555 1_555
H56 C35 1_555 1_555
C36 C35 1_555 1_555
H57 C36 1_555 1_555
H58 C36 1_555 1_555
H59 C36 1_555 1_555
C37 H60 1_555 1_555
H61 C37 1_555 1_555
C38 C37 1_555 1_555
H62 C38 1_555 1_555
H63 C38 1_555 1_555
C39 C38 1_555 1_555
H64 C39 1_555 1_555
H65 C39 1_555 1_555
C40 C39 1_555 1_555
H66 C40 1_555 1_555
H67 C40 1_555 1_555
H68 C40 1_555 1_555
C41 H69 1_555 1_555
C42 C41 1_555 1_555
C43 C42 1_555 1_555
H70 C43 1_555 1_555
C44 C43 1_555 1_555
H71 C44 1_555 1_555
C45 C44 1_555 1_555
H72 C45 1_555 1_555
C46 C45 1_555 1_555
H73 C46 1_555 1_555
C47 C42 1_555 1_555
C48 C41 1_555 1_555
C49 C48 1_555 1_555
H74 C49 1_555 1_555
C50 H75 1_555 1_555
H76 C50 1_555 1_555
H77 C50 1_555 1_555
C51 C52 1_555 1_555
C52 H78 1_555 1_555
C53 C52 1_555 1_555
H79 C53 1_555 1_555
C54 C53 1_555 1_555
H80 C54 1_555 1_555
C55 C54 1_555 1_555
H81 C55 1_555 1_555
C56 C48 1_555 1_555
N2 C49 1_555 1_555
O2 C47 1_555 1_555
H82 O2 1_555 1_555
P2 C29 1_555 1_555
C57 H83 1_555 1_555
H84 C57 1_555 1_555
H85 C57 1_555 1_555
O3 S1 1_555 1_555
O4 S1 1_555 1_555
O5 S1 1_555 1_555
S1 C57 1_555 1_555
C58 H86 1_555 1_555
H87 C58 1_555 1_555
H88 C58 1_555 1_555
O6 S2 1_555 1_555
O7 S2 1_555 1_555
O8 S2 1_555 1_555
S2 C58 1_555 1_555
C5 P1 1_555 1_555
C9 P1 1_555 1_555
C13 P1 1_555 1_555
C18 C19 1_555 1_555
C22 N1 1_555 1_555
C23 C28 1_555 1_555
C23 N1 1_555 1_555
C27 C28 1_555 1_555
C33 P2 1_555 1_555
C37 P2 1_555 1_555
C41 P2 1_555 1_555
C46 C47 1_555 1_555
C50 N2 1_555 1_555
C51 C56 1_555 1_555
C51 N2 1_555 1_555
C55 C56 1_555 1_555

#END
