
#######################################################################
#
#                 Cambridge Crystallographic Data Centre
#                                CCDC 
#
#######################################################################
#
# If this CIF has been generated from an entry in the Cambridge 
# Structural Database, then it will include bibliographic, chemical, 
# crystal, experimental, refinement or atomic coordinate data resulting 
# from the CCDC's data processing and validation procedures.
#
#######################################################################

data_CAYVUV
_chemical_formula_moiety         'C26 H14 N4 S4'
_chemical_name_systematic        
1,4,6,9-tetrakis(2-thienyl)pyridazino[4,5-g]phthalazine
_symmetry_cell_setting           monoclinic
_symmetry_space_group_name_H-M   'P 21/c'
_symmetry_Int_Tables_number      14
_space_group_name_Hall           '-P 2ybc'
loop_
_symmetry_equiv_pos_site_id
_symmetry_equiv_pos_as_xyz
1 x,y,z
2 -x,1/2+y,1/2-z
3 -x,-y,-z
4 x,1/2-y,1/2+z
_cell_length_a                   12.6998(16)
_cell_length_b                   7.4627(10)
_cell_length_c                   12.8404(16)
_cell_angle_alpha                90
_cell_angle_beta                 114.132(2)
_cell_angle_gamma                90
_cell_volume                     1110.59
_exptl_crystal_colour            yellow
_exptl_crystal_description       column
_cell_formula_units_Z            2
loop_
_atom_site_label
_atom_site_type_symbol
_atom_site_fract_x
_atom_site_fract_y
_atom_site_fract_z
S1 S 0.57367(12) 0.2566(2) 0.43601(14)
S2 S 1.09117(16) 0.0945(2) 0.93849(13)
N1 N 0.7983(3) 0.1916(6) 0.6108(3)
N2 N 0.8985(3) 0.1758(6) 0.7102(3)
C1 C 0.5026(5) 0.3351(10) 0.3008(6)
H1 H 0.4262 0.3730 0.2709
C2 C 0.5688(5) 0.3363(8) 0.2419(5)
H2 H 0.5437 0.3774 0.1672
C3 C 0.6815(4) 0.2684(7) 0.3058(5)
H3 H 0.7384 0.2614 0.2780
C4 C 0.6969(4) 0.2136(6) 0.4139(4)
C5 C 0.8012(4) 0.1599(6) 0.5097(4)
C6 C 0.9970(4) 0.1339(6) 0.7065(4)
C7 C 1.0023(4) 0.0698(5) 0.6014(4)
C8 C 0.9002(4) 0.0818(5) 0.5005(4)
C9 C 1.1007(4) -0.0131(6) 0.6013(4)
H4 H 1.1667 -0.0228 0.6687
C10 C 1.0972(4) 0.1494(7) 0.8139(4)
C11 C 1.2153(4) 0.2171(6) 0.8345(4)
H5 H 1.2414 0.2490 0.7791
C12 C 1.2796(6) 0.2233(10) 0.9544(7)
H6 H 1.3531 0.2729 0.9879
C13 C 1.2272(6) 0.1535(9) 1.0143(5)
H7 H 1.2635 0.1383 1.0930
S1B S 1.42633(12) -0.2566(2) 0.56399(14)
S2B S 0.90883(16) -0.0945(2) 0.06151(13)
N1B N 1.2017(3) -0.1916(6) 0.3892(3)
N2B N 1.1015(3) -0.1758(6) 0.2898(3)
C1B C 1.4974(5) -0.3351(10) 0.6992(6)
H1B H 1.5738 -0.3730 0.7291
C2B C 1.4312(5) -0.3363(8) 0.7581(5)
H2B H 1.4563 -0.3774 0.8328
C3B C 1.3185(4) -0.2684(7) 0.6942(5)
H3B H 1.2616 -0.2614 0.7220
C4B C 1.3031(4) -0.2136(6) 0.5861(4)
C5B C 1.1988(4) -0.1599(6) 0.4903(4)
C6B C 1.0030(4) -0.1339(6) 0.2935(4)
C7B C 0.9977(4) -0.0698(5) 0.3986(4)
C8B C 1.0998(4) -0.0818(5) 0.4995(4)
C9B C 0.8993(4) 0.0131(6) 0.3987(4)
H4B H 0.8333 0.0228 0.3313
C10B C 0.9028(4) -0.1494(7) 0.1861(4)
C11B C 0.7847(4) -0.2171(6) 0.1655(4)
H5B H 0.7586 -0.2490 0.2209
C12B C 0.7204(6) -0.2233(10) 0.0456(7)
H6B H 0.6469 -0.2729 0.0121
C13B C 0.7728(6) -0.1535(9) -0.0143(5)
H7B H 0.7365 -0.1383 -0.0930
loop_
_geom_bond_atom_site_label_1
_geom_bond_atom_site_label_2
_geom_bond_site_symmetry_1
_geom_bond_site_symmetry_2
S1 C1 1_555 1_555
S2 C10 1_555 1_555
N1 N2 1_555 1_555
N2 C6 1_555 1_555
C1 H1 1_555 1_555
C2 C1 1_555 1_555
H2 C2 1_555 1_555
C3 C2 1_555 1_555
H3 C3 1_555 1_555
C4 S1 1_555 1_555
C5 N1 1_555 1_555
C6 C7 1_555 1_555
C7 C8 1_555 1_555
C8 C5 1_555 1_555
C9 C7 1_555 1_555
H4 C9 1_555 1_555
C10 C6 1_555 1_555
C11 C10 1_555 1_555
H5 C11 1_555 1_555
C12 C11 1_555 1_555
H6 C12 1_555 1_555
C13 S2 1_555 1_555
H7 C13 1_555 1_555
S1B C1B 1_555 1_555
S2B C10B 1_555 1_555
N1B N2B 1_555 1_555
N2B C6B 1_555 1_555
C1B H1B 1_555 1_555
C2B C1B 1_555 1_555
H2B C2B 1_555 1_555
C3B C2B 1_555 1_555
H3B C3B 1_555 1_555
C4B S1B 1_555 1_555
C5B N1B 1_555 1_555
C6B C7B 1_555 1_555
C7B C8B 1_555 1_555
C8B C9 1_555 1_555
C9B C8 1_555 1_555
H4B C9B 1_555 1_555
C10B C6B 1_555 1_555
C11B C10B 1_555 1_555
H5B C11B 1_555 1_555
C12B C11B 1_555 1_555
H6B C12B 1_555 1_555
C13B S2B 1_555 1_555
H7B C13B 1_555 1_555
C3 C4 1_555 1_555
C4 C5 1_555 1_555
C12 C13 1_555 1_555
C3B C4B 1_555 1_555
C4B C5B 1_555 1_555
C5B C8B 1_555 1_555
C7B C9B 1_555 1_555
C12B C13B 1_555 1_555

#END
