
#######################################################################
#
#                 Cambridge Crystallographic Data Centre
#                                CCDC 
#
#######################################################################
#
# If this CIF has been generated from an entry in the Cambridge 
# Structural Database, then it will include bibliographic, chemical, 
# crystal, experimental, refinement or atomic coordinate data resulting 
# from the CCDC's data processing and validation procedures.
#
#######################################################################

data_CAYWAC
_chemical_formula_moiety         'C50 H62 N4 S4'
_chemical_name_systematic        
1,4,6,9-tetrakis(5-hexyl-2-thienyl)pyridazino[4,5-g]phthalazine
_symmetry_cell_setting           monoclinic
_symmetry_space_group_name_H-M   'P 21/c'
_symmetry_Int_Tables_number      14
_space_group_name_Hall           '-P 2ybc'
loop_
_symmetry_equiv_pos_site_id
_symmetry_equiv_pos_as_xyz
1 x,y,z
2 -x,1/2+y,1/2-z
3 -x,-y,-z
4 x,1/2-y,1/2+z
_cell_length_a                   6.3583(3)
_cell_length_b                   41.420(2)
_cell_length_c                   8.9592(5)
_cell_angle_alpha                90
_cell_angle_beta                 104.922(2)
_cell_angle_gamma                90
_cell_volume                     2279.93
_exptl_crystal_colour            colorless
_exptl_crystal_description       block
_cell_formula_units_Z            2
loop_
_atom_site_label
_atom_site_type_symbol
_atom_site_fract_x
_atom_site_fract_y
_atom_site_fract_z
S1 S 0.43218(17) -0.10261(3) -0.13626(13)
S2 S 0.79120(15) 0.02805(2) 0.39091(11)
N1 N 0.5021(5) -0.04823(8) 0.0838(4)
N2 N 0.5697(5) -0.02214(8) 0.1779(4)
C1 C 1.110(2) -0.2617(4) -0.074(2)
H1 H 1.1902 -0.2774 -0.1208
H2 H 1.0581 -0.2722 0.0072
H3 H 1.2071 -0.2438 -0.0302
C2 C 0.917(3) -0.2487(4) -0.1983(19)
H4 H 0.9692 -0.2373 -0.2788
H5 H 0.8235 -0.2669 -0.2480
C3 C 0.800(2) -0.2285(2) -0.1350(12)
H6 H 0.9011 -0.2123 -0.0737
H7 H 0.7384 -0.2409 -0.0621
C4 C 0.6083(12) -0.20978(15) -0.2488(8)
H8 H 0.6628 -0.1999 -0.3322
H9 H 0.4924 -0.2253 -0.2968
C5 C 0.5126(9) -0.18366(12) -0.1683(6)
H10 H 0.6319 -0.1695 -0.1116
H11 H 0.4467 -0.1939 -0.0913
C6 C 0.3420(9) -0.16307(12) -0.2755(6)
H12 H 0.4027 -0.1547 -0.3592
H13 H 0.2153 -0.1768 -0.3236
C7 C 0.2655(7) -0.13515(10) -0.1970(5)
C8 C 0.0711(7) -0.13091(10) -0.1620(5)
H14 H -0.0432 -0.1463 -0.1861
C9 C 0.0554(6) -0.10150(10) -0.0866(5)
H15 H -0.0696 -0.0951 -0.0544
C10 C 0.2394(6) -0.08320(9) -0.0647(4)
C11 C 0.2950(6) -0.05201(9) 0.0139(4)
C12 C 0.1367(6) -0.02694(9) 0.0083(4)
C13 C 0.2088(6) 0.00069(9) 0.1010(4)
C14 C 0.4289(6) -0.00004(9) 0.1976(4)
C15 C 0.5130(6) 0.02288(9) 0.3212(4)
C16 C 0.4063(6) 0.03991(10) 0.4100(5)
H16 H 0.2524 0.0399 0.3926
C17 C 0.5465(6) 0.05739(10) 0.5295(5)
H17 H 0.4963 0.0705 0.6002
C18 C 0.7599(6) 0.05384(10) 0.5345(4)
C19 C 0.9495(7) 0.07000(10) 0.6420(5)
H18 H 1.0702 0.0543 0.6733
H19 H 0.9073 0.0768 0.7362
C20 C 1.0295(7) 0.09934(10) 0.5705(5)
H20 H 0.9032 0.1132 0.5233
H21 H 1.0941 0.0920 0.4869
C21 C 1.1972(8) 0.11932(11) 0.6853(5)
H22 H 1.1303 0.1280 0.7652
H23 H 1.3203 0.1053 0.7373
C22 C 1.2824(12) 0.14708(15) 0.6069(7)
H24 H 1.3533 0.1380 0.5300
H25 H 1.1568 0.1601 0.5500
C23 C 1.4418(13) 0.1692(2) 0.7127(10)
H26 H 1.4536 0.1894 0.6569
H27 H 1.3847 0.1747 0.8023
C24 C 1.6414(14) 0.1562(2) 0.7644(10)
H28 H 1.7353 0.1713 0.8359
H29 H 1.7035 0.1521 0.6768
H30 H 1.6310 0.1359 0.8181
C25 C 0.0712(6) 0.02726(9) 0.0904(4)
H31 H 0.1203 0.0458 0.1516
S1B S -0.43218(17) 0.10261(3) 0.13626(13)
S2B S -0.79120(15) -0.02805(2) -0.39091(11)
N1B N -0.5021(5) 0.04823(8) -0.0838(4)
N2B N -0.5697(5) 0.02214(8) -0.1779(4)
C1B C -1.110(2) 0.2617(4) 0.074(2)
H1B H -1.1902 0.2774 0.1208
H2B H -1.0581 0.2722 -0.0072
H3B H -1.2071 0.2438 0.0302
C2B C -0.917(3) 0.2487(4) 0.1983(19)
H4B H -0.9692 0.2373 0.2788
H5B H -0.8235 0.2669 0.2480
C3B C -0.800(2) 0.2285(2) 0.1350(12)
H6B H -0.9011 0.2123 0.0737
H7B H -0.7384 0.2409 0.0621
C4B C -0.6083(12) 0.20978(15) 0.2488(8)
H8B H -0.6628 0.1999 0.3322
H9B H -0.4924 0.2253 0.2968
C5B C -0.5126(9) 0.18366(12) 0.1683(6)
H10B H -0.6319 0.1695 0.1116
H11B H -0.4467 0.1939 0.0913
C6B C -0.3420(9) 0.16307(12) 0.2755(6)
H12B H -0.4027 0.1547 0.3592
H13B H -0.2153 0.1768 0.3236
C7B C -0.2655(7) 0.13515(10) 0.1970(5)
C8B C -0.0711(7) 0.13091(10) 0.1620(5)
H14B H 0.0432 0.1463 0.1861
C9B C -0.0554(6) 0.10150(10) 0.0866(5)
H15B H 0.0696 0.0951 0.0544
C10B C -0.2394(6) 0.08320(9) 0.0647(4)
C11B C -0.2950(6) 0.05201(9) -0.0139(4)
C12B C -0.1367(6) 0.02694(9) -0.0083(4)
C13B C -0.2088(6) -0.00069(9) -0.1010(4)
C14B C -0.4289(6) 0.00004(9) -0.1976(4)
C15B C -0.5130(6) -0.02288(9) -0.3212(4)
C16B C -0.4063(6) -0.03991(10) -0.4100(5)
H16B H -0.2524 -0.0399 -0.3926
C17B C -0.5465(6) -0.05739(10) -0.5295(5)
H17B H -0.4963 -0.0705 -0.6002
C18B C -0.7599(6) -0.05384(10) -0.5345(4)
C19B C -0.9495(7) -0.07000(10) -0.6420(5)
H18B H -1.0702 -0.0543 -0.6733
H19B H -0.9073 -0.0768 -0.7362
C20B C -1.0295(7) -0.09934(10) -0.5705(5)
H20B H -0.9032 -0.1132 -0.5233
H21B H -1.0941 -0.0920 -0.4869
C21B C -1.1972(8) -0.11932(11) -0.6853(5)
H22B H -1.1303 -0.1280 -0.7652
H23B H -1.3203 -0.1053 -0.7373
C22B C -1.2824(12) -0.14708(15) -0.6069(7)
H24B H -1.3533 -0.1380 -0.5300
H25B H -1.1568 -0.1601 -0.5500
C23B C -1.4418(13) -0.1692(2) -0.7127(10)
H26B H -1.4536 -0.1894 -0.6569
H27B H -1.3847 -0.1747 -0.8023
C24B C -1.6414(14) -0.1562(2) -0.7644(10)
H28B H -1.7353 -0.1713 -0.8359
H29B H -1.7035 -0.1521 -0.6768
H30B H -1.6310 -0.1359 -0.8181
C25B C -0.0712(6) -0.02726(9) -0.0904(4)
H31B H -0.1203 -0.0458 -0.1516
loop_
_geom_bond_atom_site_label_1
_geom_bond_atom_site_label_2
_geom_bond_site_symmetry_1
_geom_bond_site_symmetry_2
S1 C7 1_555 1_555
S2 C15 1_555 1_555
N1 N2 1_555 1_555
N2 C14 1_555 1_555
C1 H1 1_555 1_555
H2 C1 1_555 1_555
H3 C1 1_555 1_555
C2 C1 1_555 1_555
H4 C2 1_555 1_555
H5 C2 1_555 1_555
C3 C2 1_555 1_555
H6 C3 1_555 1_555
H7 C3 1_555 1_555
C4 C3 1_555 1_555
H8 C4 1_555 1_555
H9 C4 1_555 1_555
C5 C4 1_555 1_555
H10 C5 1_555 1_555
H11 C5 1_555 1_555
C6 C5 1_555 1_555
H12 C6 1_555 1_555
H13 C6 1_555 1_555
C7 C6 1_555 1_555
C8 C7 1_555 1_555
H14 C8 1_555 1_555
C9 C8 1_555 1_555
H15 C9 1_555 1_555
C10 S1 1_555 1_555
C11 N1 1_555 1_555
C12 C11 1_555 1_555
C13 C12 1_555 1_555
C14 C13 1_555 1_555
C15 C14 1_555 1_555
C16 C15 1_555 1_555
H16 C16 1_555 1_555
C17 C16 1_555 1_555
H17 C17 1_555 1_555
C18 S2 1_555 1_555
C19 C18 1_555 1_555
H18 C19 1_555 1_555
H19 C19 1_555 1_555
C20 C19 1_555 1_555
H20 C20 1_555 1_555
H21 C20 1_555 1_555
C21 C20 1_555 1_555
H22 C21 1_555 1_555
H23 C21 1_555 1_555
C22 C21 1_555 1_555
H24 C22 1_555 1_555
H25 C22 1_555 1_555
C23 C22 1_555 1_555
H26 C23 1_555 1_555
H27 C23 1_555 1_555
C24 C23 1_555 1_555
H28 C24 1_555 1_555
H29 C24 1_555 1_555
H30 C24 1_555 1_555
C25 C13 1_555 1_555
H31 C25 1_555 1_555
S1B C7B 1_555 1_555
S2B C15B 1_555 1_555
N1B N2B 1_555 1_555
N2B C14B 1_555 1_555
C1B H1B 1_555 1_555
H2B C1B 1_555 1_555
H3B C1B 1_555 1_555
C2B C1B 1_555 1_555
H4B C2B 1_555 1_555
H5B C2B 1_555 1_555
C3B C2B 1_555 1_555
H6B C3B 1_555 1_555
H7B C3B 1_555 1_555
C4B C3B 1_555 1_555
H8B C4B 1_555 1_555
H9B C4B 1_555 1_555
C5B C4B 1_555 1_555
H10B C5B 1_555 1_555
H11B C5B 1_555 1_555
C6B C5B 1_555 1_555
H12B C6B 1_555 1_555
H13B C6B 1_555 1_555
C7B C6B 1_555 1_555
C8B C7B 1_555 1_555
H14B C8B 1_555 1_555
C9B C8B 1_555 1_555
H15B C9B 1_555 1_555
C10B S1B 1_555 1_555
C11B N1B 1_555 1_555
C12B C25 1_555 1_555
C13B C12B 1_555 1_555
C14B C13B 1_555 1_555
C15B C14B 1_555 1_555
C16B C15B 1_555 1_555
H16B C16B 1_555 1_555
C17B C16B 1_555 1_555
H17B C17B 1_555 1_555
C18B S2B 1_555 1_555
C19B C18B 1_555 1_555
H18B C19B 1_555 1_555
H19B C19B 1_555 1_555
C20B C19B 1_555 1_555
H20B C20B 1_555 1_555
H21B C20B 1_555 1_555
C21B C20B 1_555 1_555
H22B C21B 1_555 1_555
H23B C21B 1_555 1_555
C22B C21B 1_555 1_555
H24B C22B 1_555 1_555
H25B C22B 1_555 1_555
C23B C22B 1_555 1_555
H26B C23B 1_555 1_555
H27B C23B 1_555 1_555
C24B C23B 1_555 1_555
H28B C24B 1_555 1_555
H29B C24B 1_555 1_555
H30B C24B 1_555 1_555
C25B C12 1_555 1_555
H31B C25B 1_555 1_555
C9 C10 1_555 1_555
C10 C11 1_555 1_555
C17 C18 1_555 1_555
C9B C10B 1_555 1_555
C10B C11B 1_555 1_555
C11B C12B 1_555 1_555
C13B C25B 1_555 1_555
C17B C18B 1_555 1_555

#END
