
#######################################################################
#
#                 Cambridge Crystallographic Data Centre
#                                CCDC 
#
#######################################################################
#
# If this CIF has been generated from an entry in the Cambridge 
# Structural Database, then it will include bibliographic, chemical, 
# crystal, experimental, refinement or atomic coordinate data resulting 
# from the CCDC's data processing and validation procedures.
#
#######################################################################

data_CAYXIM
_chemical_formula_moiety         'C42 H52 N2 O1 P1 1+,C1 F3 O3 S1 1-'
_chemical_name_systematic        
'[{2-[(benzenecarbonyl)(methyl)amino]phenyl}(1-methyl-2-phenyl-1H-indol-3-yl)methyl](tributyl)phosphanium trifluoromethanesulfonate'
_symmetry_cell_setting           monoclinic
_symmetry_space_group_name_H-M   'P 21'
_symmetry_Int_Tables_number      4
_space_group_name_Hall           'P 2yb'
loop_
_symmetry_equiv_pos_site_id
_symmetry_equiv_pos_as_xyz
1 x,y,z
2 -x,1/2+y,-z
_cell_length_a                   11.9320(9)
_cell_length_b                   13.8910(9)
_cell_length_c                   25.1625(18)
_cell_angle_alpha                90
_cell_angle_beta                 91.054(2)
_cell_angle_gamma                90
_cell_volume                     4169.91
_exptl_crystal_colour            colorless
_exptl_crystal_description       prism
_cell_formula_units_Z            4
loop_
_atom_site_label
_atom_site_type_symbol
_atom_site_fract_x
_atom_site_fract_y
_atom_site_fract_z
C1 C 1.0970(5) 0.4109(8) 0.8378(2)
H1 H 1.0750 0.3485 0.8535
H2 H 1.0632 0.4144 0.8016
C2 C 1.2243(6) 0.4140(9) 0.8336(3)
H3 H 1.2579 0.4237 0.8694
H4 H 1.2456 0.4696 0.8113
C3 C 1.2718(7) 0.3220(9) 0.8096(3)
H5 H 1.2494 0.2662 0.8314
H6 H 1.2395 0.3129 0.7734
C4 C 1.3950(9) 0.3252(10) 0.8067(5)
H7 H 1.4221 0.2665 0.7896
H8 H 1.4274 0.3300 0.8427
H9 H 1.4174 0.3814 0.7859
C5 C 0.8930(5) 0.4870(8) 0.8819(3)
H10 H 0.8618 0.5357 0.9062
H11 H 0.8581 0.4976 0.8463
C6 C 0.8595(6) 0.3878(9) 0.9013(3)
H12 H 0.8832 0.3389 0.8752
H13 H 0.8989 0.3742 0.9354
C7 C 0.7342(7) 0.3799(9) 0.9090(3)
H14 H 0.6952 0.3962 0.8751
H15 H 0.7113 0.4276 0.9359
C8 C 0.6972(9) 0.2800(10) 0.9266(5)
H16 H 0.6154 0.2787 0.9294
H17 H 0.7317 0.2650 0.9612
H18 H 0.7206 0.2322 0.9004
C9 C 1.1005(6) 0.4953(9) 0.9432(2)
H19 H 1.0441 0.5192 0.9684
H20 H 1.1111 0.4258 0.9505
C10 C 1.2107(6) 0.5460(9) 0.9559(3)
H21 H 1.2034 0.6157 0.9481
H22 H 1.2707 0.5195 0.9335
C11 C 1.2418(16) 0.5312(12) 1.0157(7)
H23 H 1.1738 0.5384 1.0373
H24 H 1.2964 0.5810 1.0272
C12 C 1.294(2) 0.4282(15) 1.0251(10)
H25 H 1.3050 0.4173 1.0633
H26 H 1.3662 0.4240 1.0073
H27 H 1.2429 0.3792 1.0104
C13 C 1.0696(5) 0.6212(8) 0.8425(2)
H28 H 1.1461 0.6144 0.8273
C14 C 1.0746(5) 0.7112(8) 0.8778(2)
C15 C 1.0162(5) 0.7168(8) 0.9252(2)
H29 H 0.9737 0.6630 0.9365
C16 C 1.0188(6) 0.7983(9) 0.9557(3)
H30 H 0.9802 0.7999 0.9884
C17 C 1.0772(7) 0.8779(9) 0.9393(3)
H31 H 1.0777 0.9349 0.9601
C18 C 1.1340(6) 0.8746(9) 0.8931(3)
H32 H 1.1738 0.9298 0.8816
C19 C 1.1345(5) 0.7920(8) 0.8629(2)
C20 C 1.1345(6) 0.8484(9) 0.7698(3)
H33 H 1.0555 0.8564 0.7789
H34 H 1.1397 0.8115 0.7368
H35 H 1.1689 0.9118 0.7651
C21 C 1.3043(6) 0.7794(9) 0.8089(3)
C22 C 1.3651(6) 0.7260(9) 0.8516(3)
C23 C 1.3865(7) 0.7615(10) 0.9013(3)
H36 H 1.3556 0.8216 0.9115
C24 C 1.4549(7) 0.7089(11) 0.9378(3)
H37 H 1.4738 0.7353 0.9717
C25 C 1.4928(7) 0.6215(10) 0.9241(4)
H38 H 1.5339 0.5845 0.9495
C26 C 1.4737(7) 0.5848(10) 0.8748(4)
H39 H 1.5028 0.5234 0.8657
C27 C 1.4117(6) 0.6369(9) 0.8377(3)
H40 H 1.4007 0.6123 0.8028
C28 C 0.9907(5) 0.6322(8) 0.7954(2)
C29 C 0.8781(5) 0.6690(8) 0.7947(2)
C30 C 0.8059(5) 0.7058(8) 0.8335(2)
H41 H 0.8308 0.7127 0.8693
C31 C 0.6985(6) 0.7313(8) 0.8183(3)
H42 H 0.6486 0.7541 0.8445
C32 C 0.6608(6) 0.7248(9) 0.7654(3)
H43 H 0.5862 0.7432 0.7563
C33 C 0.7302(6) 0.6920(9) 0.7269(3)
H44 H 0.7060 0.6894 0.6907
C34 C 0.8366(5) 0.6628(8) 0.7422(2)
C35 C 0.9131(6) 0.6105(9) 0.6538(2)
H45 H 0.8387 0.6309 0.6410
H46 H 0.9242 0.5423 0.6455
H47 H 0.9706 0.6491 0.6365
C36 C 1.0139(5) 0.6058(8) 0.7431(2)
C37 C 1.1133(5) 0.5622(9) 0.7206(2)
C38 C 1.1106(6) 0.4686(9) 0.7010(2)
H48 H 1.0426 0.4331 0.7022
C39 C 1.2044(7) 0.4265(9) 0.6800(3)
H49 H 1.2005 0.3629 0.6663
C40 C 1.3027(8) 0.4760(10) 0.6789(3)
H50 H 1.3679 0.4460 0.6656
C41 C 1.3081(7) 0.5683(10) 0.6968(3)
H51 H 1.3769 0.6026 0.6953
C42 C 1.2135(6) 0.6130(9) 0.7173(3)
H52 H 1.2175 0.6780 0.7290
N1 N 1.1935(5) 0.7967(8) 0.8129(2)
N2 N 0.9215(4) 0.6245(8) 0.71173(18)
O1 O 1.3552(4) 0.8001(8) 0.7680(2)
P1 P 1.04200(15) 0.5068(7) 0.87726(6)
C45 C 0.2907(6) 0.6036(9) 0.4476(2)
H58 H 0.3461 0.6429 0.4678
H59 H 0.2265 0.6458 0.4382
C46 C 0.2495(7) 0.5227(9) 0.4835(3)
H60 H 0.3167 0.4816 0.4883
H61 H 0.1984 0.4856 0.4598
C47 C 0.2262(16) 0.5514(17) 0.5384(6)
H62 H 0.2259 0.4936 0.5614
H63 H 0.2862 0.5949 0.5516
C48 C 0.1410(19) 0.5899(19) 0.5409(8)
H64 H 0.1277 0.6087 0.5778
H65 H 0.0814 0.5463 0.5286
H66 H 0.1415 0.6475 0.5184
C49 C 0.2619(6) 0.4746(9) 0.3575(2)
H67 H 0.2938 0.4550 0.3231
H68 H 0.2610 0.4169 0.3805
C50 C 0.1405(6) 0.5071(9) 0.3475(3)
H69 H 0.1151 0.5424 0.3792
H70 H 0.1393 0.5529 0.3173
C51 C 0.0584(9) 0.4286(11) 0.3355(4)
H71 H 0.0897 0.3857 0.3081
H72 H -0.0114 0.4574 0.3207
C52 C 0.0296(12) 0.3674(12) 0.3858(5)
H73 H -0.0251 0.3176 0.3759
H74 H -0.0021 0.4093 0.4130
H75 H 0.0980 0.3369 0.3999
C53 C 0.4838(6) 0.5011(9) 0.4039(3)
H76 H 0.5448 0.5494 0.4043
H77 H 0.4785 0.4749 0.4403
C54 C 0.5168(7) 0.4194(9) 0.3669(3)
H78 H 0.4546 0.3725 0.3635
H79 H 0.5324 0.4452 0.3311
C55 C 0.6169(14) 0.3718(14) 0.3888(7)
H80 H 0.6775 0.4205 0.3884
H81 H 0.6015 0.3589 0.4266
C56 C 0.664(2) 0.2850(18) 0.3681(10)
H82 H 0.7296 0.2664 0.3899
H83 H 0.6873 0.2958 0.3314
H84 H 0.6081 0.2335 0.3688
C57 C 0.3699(5) 0.6632(8) 0.3404(2)
H85 H 0.2937 0.6748 0.3245
C58 C 0.4047(5) 0.7587(8) 0.3671(2)
C59 C 0.4756(5) 0.7615(8) 0.4116(2)
H86 H 0.5014 0.7026 0.4266
C60 C 0.5100(6) 0.8478(9) 0.4348(3)
H87 H 0.5565 0.8472 0.4659
C61 C 0.4765(6) 0.9340(8) 0.4128(3)
H88 H 0.5001 0.9931 0.4283
C62 C 0.4091(6) 0.9334(9) 0.3685(3)
H89 H 0.3884 0.9927 0.3523
C63 C 0.3701(5) 0.8482(8) 0.3466(2)
C64 C 0.3398(6) 0.8946(9) 0.2528(3)
H90 H 0.4218 0.8961 0.2560
H91 H 0.3115 0.9600 0.2468
H92 H 0.3174 0.8535 0.2228
C65 C 0.1813(6) 0.8473(9) 0.3062(3)
C66 C 0.1319(5) 0.8239(9) 0.3588(2)
C67 C 0.1562(6) 0.8744(9) 0.4054(3)
H93 H 0.2120 0.9232 0.4053
C68 C 0.1005(7) 0.8548(10) 0.4519(3)
H94 H 0.1177 0.8900 0.4834
C69 C 0.0205(7) 0.7844(10) 0.4523(3)
H95 H -0.0178 0.7706 0.4841
C70 C -0.0047(6) 0.7335(9) 0.4068(3)
H96 H -0.0587 0.6833 0.4077
C71 C 0.0474(6) 0.7544(9) 0.3598(3)
H97 H 0.0259 0.7215 0.3281
C72 C 0.4420(5) 0.6322(8) 0.2952(2)
C73 C 0.5631(5) 0.6296(8) 0.2934(2)
C74 C 0.6508(6) 0.6583(9) 0.3277(3)
H98 H 0.6347 0.6864 0.3612
C75 C 0.7597(6) 0.6456(9) 0.3129(3)
H99 H 0.8193 0.6653 0.3359
C76 C 0.7834(7) 0.6034(9) 0.2633(4)
H100 H 0.8594 0.5948 0.2537
C77 C 0.7004(7) 0.5745(9) 0.2290(3)
H101 H 0.7166 0.5474 0.1953
C78 C 0.5921(6) 0.5864(8) 0.2456(3)
C79 C 0.4920(7) 0.5272(9) 0.1635(3)
H102 H 0.4141 0.5164 0.1520
H103 H 0.5335 0.4664 0.1619
H104 H 0.5268 0.5745 0.1401
C80 C 0.4051(6) 0.5918(8) 0.2483(2)
C81 C 0.2880(6) 0.5778(8) 0.2278(2)
C82 C 0.2521(6) 0.4833(9) 0.2131(3)
H105 H 0.3000 0.4295 0.2187
C83 C 0.1469(7) 0.4715(9) 0.1907(3)
H106 H 0.1231 0.4093 0.1796
C84 C 0.0760(7) 0.5485(9) 0.1843(3)
H107 H 0.0036 0.5389 0.1689
C85 C 0.1081(6) 0.6397(9) 0.2000(3)
H108 H 0.0577 0.6924 0.1965
C86 C 0.2149(6) 0.6530(9) 0.2208(2)
H109 H 0.2384 0.7160 0.2306
N3 N 0.2932(4) 0.8560(8) 0.30180(18)
N4 N 0.4945(5) 0.5634(8) 0.2181(2)
O2 O 0.1198(4) 0.8580(8) 0.26625(17)
P2 P 0.35360(15) 0.5623(7) 0.38767(6)
C93 C 1.2625 0.1523 0.9653
F1 F 1.3529(5) 0.1999(10) 0.9426(4)
F2 F 1.3242(8) 0.0669(10) 0.9698(3)
F3 F 1.2796(6) 0.1917(9) 1.0147(3)
O3 O 1.1223(5) 0.2557(8) 0.9311(2)
O4 O 1.1678(5) 0.1072(8) 0.88597(17)
O5 O 1.0849(5) 0.1041(8) 0.9731(2)
S1 S 1.14929(16) 0.1556(7) 0.93494(7)
C94 C 0.7408(9) 0.6403(11) 0.5115(4)
F4 F 0.8433(4) 0.6516(9) 0.5301(2)
F5 F 0.7394(4) 0.6694(8) 0.46090(17)
F6 F 0.7266(5) 0.5415(8) 0.5073(2)
O6 O 0.6541(4) 0.6485(8) 0.60126(17)
O7 O 0.6610(5) 0.7930(8) 0.5479(2)
O8 O 0.5340(4) 0.6628(8) 0.52303(17)
S2 S 0.63530(16) 0.6918(7) 0.55035(7)
C43? C 1.289(2) 0.506(2) 0.9989(8)
H53? H 1.3287 0.4489 0.9853
H54? H 1.3456 0.5552 1.0090
C44? C 1.222(2) 0.478(2) 1.0472(9)
H55? H 1.2730 0.4653 1.0772
H56? H 1.1774 0.4207 1.0391
H57? H 1.1716 0.5315 1.0563
C87? C 0.190(6) 0.516(5) 0.5404(16)
H110? H 0.2337 0.4772 0.5663
H111? H 0.1124 0.4907 0.5373
C88? C 0.192(2) 0.646(2) 0.5571(10)
H112? H 0.1499 0.6569 0.5895
H113? H 0.1584 0.6828 0.5277
H114? H 0.2701 0.6668 0.5628
C89? C 0.6581(16) 0.394(2) 0.3707(10)
H115? H 0.6816 0.3497 0.3424
H116? H 0.7042 0.4536 0.3697
C90? C 0.661(2) 0.348(2) 0.4240(10)
H117? H 0.7371 0.3247 0.4318
H118? H 0.6083 0.2946 0.4245
H119? H 0.6404 0.3958 0.4510
C91? C 0.073(3) 0.389(3) 0.354(2)
H120? H 0.0846 0.3489 0.3216
H121? H 0.1002 0.3542 0.3855
C92? C -0.050(3) 0.420(3) 0.3584(17)
H122? H -0.0977 0.3632 0.3585
H123? H -0.0706 0.4615 0.3283
H124? H -0.0587 0.4560 0.3916
loop_
_geom_bond_atom_site_label_1
_geom_bond_atom_site_label_2
_geom_bond_site_symmetry_1
_geom_bond_site_symmetry_2
C1 H1 1_555 1_555
H2 C1 1_555 1_555
C2 C1 1_555 1_555
H3 C2 1_555 1_555
H4 C2 1_555 1_555
C3 C2 1_555 1_555
H5 C3 1_555 1_555
H6 C3 1_555 1_555
C4 C3 1_555 1_555
H7 C4 1_555 1_555
H8 C4 1_555 1_555
H9 C4 1_555 1_555
C5 H10 1_555 1_555
H11 C5 1_555 1_555
C6 C5 1_555 1_555
H12 C6 1_555 1_555
H13 C6 1_555 1_555
C7 C6 1_555 1_555
H14 C7 1_555 1_555
H15 C7 1_555 1_555
C8 C7 1_555 1_555
H16 C8 1_555 1_555
H17 C8 1_555 1_555
H18 C8 1_555 1_555
C9 H19 1_555 1_555
H20 C9 1_555 1_555
C10 C9 1_555 1_555
H21 C10 1_555 1_555
H22 C10 1_555 1_555
C11 C10 1_555 1_555
H23 C11 1_555 1_555
H24 C11 1_555 1_555
C12 C11 1_555 1_555
H25 C12 1_555 1_555
H26 C12 1_555 1_555
H27 C12 1_555 1_555
C13 H28 1_555 1_555
C14 C13 1_555 1_555
C15 C14 1_555 1_555
H29 C15 1_555 1_555
C16 C15 1_555 1_555
H30 C16 1_555 1_555
C17 C16 1_555 1_555
H31 C17 1_555 1_555
C18 C17 1_555 1_555
H32 C18 1_555 1_555
C19 C14 1_555 1_555
C20 H33 1_555 1_555
H34 C20 1_555 1_555
H35 C20 1_555 1_555
C21 C22 1_555 1_555
C22 C23 1_555 1_555
C23 H36 1_555 1_555
C24 C23 1_555 1_555
H37 C24 1_555 1_555
C25 C24 1_555 1_555
H38 C25 1_555 1_555
C26 C25 1_555 1_555
H39 C26 1_555 1_555
C27 C22 1_555 1_555
H40 C27 1_555 1_555
C28 C13 1_555 1_555
C29 C28 1_555 1_555
C30 C29 1_555 1_555
H41 C30 1_555 1_555
C31 C30 1_555 1_555
H42 C31 1_555 1_555
C32 C31 1_555 1_555
H43 C32 1_555 1_555
C33 C32 1_555 1_555
H44 C33 1_555 1_555
C34 C29 1_555 1_555
C35 H45 1_555 1_555
H46 C35 1_555 1_555
H47 C35 1_555 1_555
C36 C28 1_555 1_555
C37 C36 1_555 1_555
C38 C37 1_555 1_555
H48 C38 1_555 1_555
C39 C38 1_555 1_555
H49 C39 1_555 1_555
C40 C39 1_555 1_555
H50 C40 1_555 1_555
C41 C40 1_555 1_555
H51 C41 1_555 1_555
C42 C37 1_555 1_555
H52 C42 1_555 1_555
N1 C19 1_555 1_555
N2 C34 1_555 1_555
O1 C21 1_555 1_555
P1 C1 1_555 1_555
C45 H58 1_555 1_555
H59 C45 1_555 1_555
C46 C45 1_555 1_555
H60 C46 1_555 1_555
H61 C46 1_555 1_555
C47 C46 1_555 1_555
H62 C47 1_555 1_555
H63 C47 1_555 1_555
C48 C47 1_555 1_555
H64 C48 1_555 1_555
H65 C48 1_555 1_555
H66 C48 1_555 1_555
C49 H67 1_555 1_555
H68 C49 1_555 1_555
C50 C49 1_555 1_555
H69 C50 1_555 1_555
H70 C50 1_555 1_555
C51 C50 1_555 1_555
H71 C51 1_555 1_555
H72 C51 1_555 1_555
C52 C51 1_555 1_555
H73 C52 1_555 1_555
H74 C52 1_555 1_555
H75 C52 1_555 1_555
C53 H76 1_555 1_555
H77 C53 1_555 1_555
C54 C53 1_555 1_555
H78 C54 1_555 1_555
H79 C54 1_555 1_555
C55 C54 1_555 1_555
H80 C55 1_555 1_555
H81 C55 1_555 1_555
C56 C55 1_555 1_555
H82 C56 1_555 1_555
H83 C56 1_555 1_555
H84 C56 1_555 1_555
C57 H85 1_555 1_555
C58 C57 1_555 1_555
C59 C58 1_555 1_555
H86 C59 1_555 1_555
C60 C59 1_555 1_555
H87 C60 1_555 1_555
C61 C60 1_555 1_555
H88 C61 1_555 1_555
C62 C61 1_555 1_555
H89 C62 1_555 1_555
C63 C58 1_555 1_555
C64 H90 1_555 1_555
H91 C64 1_555 1_555
H92 C64 1_555 1_555
C65 C66 1_555 1_555
C66 C67 1_555 1_555
C67 H93 1_555 1_555
C68 C67 1_555 1_555
H94 C68 1_555 1_555
C69 C68 1_555 1_555
H95 C69 1_555 1_555
C70 C69 1_555 1_555
H96 C70 1_555 1_555
C71 C66 1_555 1_555
H97 C71 1_555 1_555
C72 C57 1_555 1_555
C73 C72 1_555 1_555
C74 C73 1_555 1_555
H98 C74 1_555 1_555
C75 C74 1_555 1_555
H99 C75 1_555 1_555
C76 C75 1_555 1_555
H100 C76 1_555 1_555
C77 C76 1_555 1_555
H101 C77 1_555 1_555
C78 C73 1_555 1_555
C79 H102 1_555 1_555
H103 C79 1_555 1_555
H104 C79 1_555 1_555
C80 C72 1_555 1_555
C81 C80 1_555 1_555
C82 C81 1_555 1_555
H105 C82 1_555 1_555
C83 C82 1_555 1_555
H106 C83 1_555 1_555
C84 C83 1_555 1_555
H107 C84 1_555 1_555
C85 C84 1_555 1_555
H108 C85 1_555 1_555
C86 C81 1_555 1_555
H109 C86 1_555 1_555
N3 C63 1_555 1_555
N4 C78 1_555 1_555
O2 C65 1_555 1_555
P2 C45 1_555 1_555
C93 F1 1_555 1_555
F2 C93 1_555 1_555
F3 C93 1_555 1_555
O3 S1 1_555 1_555
O4 S1 1_555 1_555
O5 S1 1_555 1_555
S1 C93 1_555 1_555
C94 F4 1_555 1_555
F5 C94 1_555 1_555
F6 C94 1_555 1_555
O6 S2 1_555 1_555
O7 S2 1_555 1_555
O8 S2 1_555 1_555
S2 C94 1_555 1_555
C5 P1 1_555 1_555
C9 P1 1_555 1_555
C13 P1 1_555 1_555
C18 C19 1_555 1_555
C20 N1 1_555 1_555
C21 N1 1_555 1_555
C26 C27 1_555 1_555
C33 C34 1_555 1_555
C35 N2 1_555 1_555
C36 N2 1_555 1_555
C41 C42 1_555 1_555
C49 P2 1_555 1_555
C53 P2 1_555 1_555
C57 P2 1_555 1_555
C62 C63 1_555 1_555
C64 N3 1_555 1_555
C65 N3 1_555 1_555
C70 C71 1_555 1_555
C77 C78 1_555 1_555
C79 N4 1_555 1_555
C80 N4 1_555 1_555
C85 C86 1_555 1_555

#END
