
#######################################################################
#
#                 Cambridge Crystallographic Data Centre
#                                CCDC 
#
#######################################################################
#
# If this CIF has been generated from an entry in the Cambridge 
# Structural Database, then it will include bibliographic, chemical, 
# crystal, experimental, refinement or atomic coordinate data resulting 
# from the CCDC's data processing and validation procedures.
#
#######################################################################

data_CAYXEI
_chemical_formula_moiety         'C36 H48 N2 O1 P1 1+,C1 F3 O3 S1 1-'
_chemical_name_systematic        
'[{2-[(benzenecarbonyl)(methyl)amino]phenyl}(1-methyl-1H-indol-3-yl)methyl](tributyl)phosphanium trifluoromethanesulfonate'
_symmetry_cell_setting           monoclinic
_symmetry_space_group_name_H-M   'P 21/n'
_symmetry_Int_Tables_number      14
_space_group_name_Hall           '-P 2yn'
loop_
_symmetry_equiv_pos_site_id
_symmetry_equiv_pos_as_xyz
1 x,y,z
2 1/2-x,1/2+y,1/2-z
3 -x,-y,-z
4 1/2+x,1/2-y,1/2+z
_cell_length_a                   12.0277(3)
_cell_length_b                   22.1925(5)
_cell_length_c                   15.1395(4)
_cell_angle_alpha                90
_cell_angle_beta                 111.3210(10)
_cell_angle_gamma                90
_cell_volume                     3764.53
_exptl_crystal_colour            colorless
_exptl_crystal_description       prism
_cell_formula_units_Z            4
loop_
_atom_site_label
_atom_site_type_symbol
_atom_site_fract_x
_atom_site_fract_y
_atom_site_fract_z
C1 C 0.5911(3) 0.57434(13) 0.43864(19)
H1 H 0.5749 0.6016 0.4826
H2 H 0.5300 0.5434 0.4219
C2 C 0.7113(3) 0.54457(14) 0.4894(2)
H3 H 0.7365 0.5240 0.4433
H4 H 0.7701 0.5753 0.5199
C3 C 0.7060(3) 0.49971(15) 0.5633(2)
H5 H 0.6687 0.5189 0.6030
H6 H 0.6560 0.4661 0.5313
C4 C 0.8266(3) 0.47574(19) 0.6257(3)
H7 H 0.8167 0.4477 0.6707
H8 H 0.8762 0.5086 0.6590
H9 H 0.8634 0.4557 0.5872
C5 C 0.4518(3) 0.66694(14) 0.3024(2)
H10 H 0.4817 0.7076 0.3024
H11 H 0.3994 0.6580 0.2380
C6 C 0.3784(4) 0.66672(18) 0.3633(4)
H12 H 0.3401 0.6277 0.3576
H13 H 0.4312 0.6715 0.4288
C7 C 0.2848(4) 0.71433(18) 0.3403(3)
H14 H 0.2334 0.7102 0.2743
H15 H 0.3233 0.7534 0.3477
C8 C 0.2089(5) 0.7129(3) 0.3997(5)
H16 H 0.1521 0.7453 0.3811
H17 H 0.2586 0.7175 0.4653
H18 H 0.1674 0.6752 0.3908
C9 C 0.7136(3) 0.65816(13) 0.3592(2)
H19 H 0.7271 0.6801 0.4177
H20 H 0.7783 0.6294 0.3720
C10 C 0.7238(3) 0.70260(15) 0.2869(2)
H21 H 0.7257 0.6806 0.2321
H22 H 0.6536 0.7282 0.2662
C11 C 0.8325(4) 0.7413(2) 0.3246(3)
H23 H 0.8264 0.7659 0.3755
H24 H 0.9017 0.7154 0.3515
C12 C 0.8520(5) 0.7810(2) 0.2538(4)
H25 H 0.9240 0.8037 0.2831
H26 H 0.7857 0.8081 0.2287
H27 H 0.8591 0.7570 0.2032
C13 C 0.5614(2) 0.55798(11) 0.24206(18)
H28 H 0.6250 0.5289 0.2728
C14 C 0.5873(2) 0.58051(12) 0.15634(19)
C15 C 0.5277(3) 0.62915(13) 0.1018(2)
H29 H 0.4673 0.6482 0.1159
C16 C 0.5574(3) 0.64945(16) 0.0270(2)
H30 H 0.5178 0.6826 -0.0079
C17 C 0.6431(4) 0.62173(19) 0.0037(3)
H31 H 0.6624 0.6358 -0.0468
C18 C 0.7017(3) 0.57260(18) 0.0552(2)
H32 H 0.7606 0.5535 0.0392
C19 C 0.6737(3) 0.55121(13) 0.1309(2)
C20 C 0.6660(3) 0.44150(15) 0.1299(3)
H33 H 0.6025 0.4521 0.0719
H34 H 0.6336 0.4213 0.1712
H35 H 0.7210 0.4152 0.1161
C21 C 0.8229(3) 0.49817(15) 0.2599(2)
C22 C 0.8856(3) 0.44081(14) 0.3014(2)
C23 C 0.9249(3) 0.39985(15) 0.2500(3)
H36 H 0.9079 0.4061 0.1857
C24 C 0.9898(3) 0.34942(17) 0.2949(4)
H37 H 1.0162 0.3220 0.2604
C25 C 1.0149(4) 0.3401(2) 0.3893(4)
H38 H 1.0575 0.3061 0.4188
C26 C 0.9773(4) 0.3809(2) 0.4410(3)
H39 H 0.9947 0.3746 0.5054
C27 C 0.9148(3) 0.43034(19) 0.3975(3)
H40 H 0.8909 0.4580 0.4332
C28 C 0.4475(2) 0.52269(11) 0.21927(18)
C29 C 0.4378(2) 0.46436(11) 0.25696(18)
C30 C 0.5187(3) 0.42484(12) 0.3205(2)
H41 H 0.5995 0.4343 0.3468
C31 C 0.4763(4) 0.37184(14) 0.3431(2)
H42 H 0.5294 0.3456 0.3859
C32 C 0.3566(4) 0.35647(14) 0.3040(3)
H43 H 0.3312 0.3204 0.3215
C33 C 0.2752(3) 0.39310(14) 0.2404(3)
H44 H 0.1951 0.3824 0.2135
C34 C 0.3171(3) 0.44729(12) 0.2173(2)
C35 C 0.1283(3) 0.49334(17) 0.1029(3)
H45 H 0.1079 0.5297 0.0662
H46 H 0.0857 0.4918 0.1455
H47 H 0.1072 0.4591 0.0613
C36 C 0.3353(2) 0.53764(12) 0.1594(2)
H48 H 0.3152 0.5733 0.1250
N1 N 0.7285(2) 0.49620(11) 0.17616(17)
N2 N 0.2565(2) 0.49251(11) 0.15732(18)
O1 O 0.8547(2) 0.54588(11) 0.30210(18)
P1 P 0.57754(6) 0.61601(3) 0.33273(5)
C37 C 0.5355(4) 0.82344(17) 0.5637(3)
O2 O 0.6592(4) 0.87710(19) 0.4844(3)
O3 O 0.5937(4) 0.77851(19) 0.4336(3)
O4 O 0.7483(3) 0.7970(3) 0.5866(3)
F1 F 0.5112(3) 0.77351(12) 0.5948(3)
F2 F 0.4361(3) 0.84501(17) 0.5034(3)
F3 F 0.5706(4) 0.86144(14) 0.6363(2)
S1 S 0.64609(12) 0.81607(6) 0.51115(8)
loop_
_geom_bond_atom_site_label_1
_geom_bond_atom_site_label_2
_geom_bond_site_symmetry_1
_geom_bond_site_symmetry_2
C1 H1 1_555 1_555
H2 C1 1_555 1_555
C2 C1 1_555 1_555
H3 C2 1_555 1_555
H4 C2 1_555 1_555
C3 C2 1_555 1_555
H5 C3 1_555 1_555
H6 C3 1_555 1_555
C4 C3 1_555 1_555
H7 C4 1_555 1_555
H8 C4 1_555 1_555
H9 C4 1_555 1_555
C5 H10 1_555 1_555
H11 C5 1_555 1_555
C6 C5 1_555 1_555
H12 C6 1_555 1_555
H13 C6 1_555 1_555
C7 C6 1_555 1_555
H14 C7 1_555 1_555
H15 C7 1_555 1_555
C8 C7 1_555 1_555
H16 C8 1_555 1_555
H17 C8 1_555 1_555
H18 C8 1_555 1_555
C9 H19 1_555 1_555
H20 C9 1_555 1_555
C10 C9 1_555 1_555
H21 C10 1_555 1_555
H22 C10 1_555 1_555
C11 C10 1_555 1_555
H23 C11 1_555 1_555
H24 C11 1_555 1_555
C12 C11 1_555 1_555
H25 C12 1_555 1_555
H26 C12 1_555 1_555
H27 C12 1_555 1_555
C13 H28 1_555 1_555
C14 C13 1_555 1_555
C15 C14 1_555 1_555
H29 C15 1_555 1_555
C16 C15 1_555 1_555
H30 C16 1_555 1_555
C17 C16 1_555 1_555
H31 C17 1_555 1_555
C18 C17 1_555 1_555
H32 C18 1_555 1_555
C19 C14 1_555 1_555
C20 H33 1_555 1_555
H34 C20 1_555 1_555
H35 C20 1_555 1_555
C21 C22 1_555 1_555
C22 C23 1_555 1_555
C23 H36 1_555 1_555
C24 C23 1_555 1_555
H37 C24 1_555 1_555
C25 C24 1_555 1_555
H38 C25 1_555 1_555
C26 C25 1_555 1_555
H39 C26 1_555 1_555
C27 C22 1_555 1_555
H40 C27 1_555 1_555
C28 C13 1_555 1_555
C29 C28 1_555 1_555
C30 C29 1_555 1_555
H41 C30 1_555 1_555
C31 C30 1_555 1_555
H42 C31 1_555 1_555
C32 C31 1_555 1_555
H43 C32 1_555 1_555
C33 C32 1_555 1_555
H44 C33 1_555 1_555
C34 C29 1_555 1_555
C35 H45 1_555 1_555
H46 C35 1_555 1_555
H47 C35 1_555 1_555
C36 C28 1_555 1_555
H48 C36 1_555 1_555
N1 C19 1_555 1_555
N2 C34 1_555 1_555
O1 C21 1_555 1_555
P1 C1 1_555 1_555
C37 F1 1_555 1_555
O2 S1 1_555 1_555
O3 S1 1_555 1_555
O4 S1 1_555 1_555
F2 C37 1_555 1_555
F3 C37 1_555 1_555
S1 C37 1_555 1_555
C5 P1 1_555 1_555
C9 P1 1_555 1_555
C13 P1 1_555 1_555
C18 C19 1_555 1_555
C20 N1 1_555 1_555
C21 N1 1_555 1_555
C26 C27 1_555 1_555
C33 C34 1_555 1_555
C35 N2 1_555 1_555
C36 N2 1_555 1_555

#END
