
#######################################################################
#
#                 Cambridge Crystallographic Data Centre
#                                CCDC 
#
#######################################################################
#
# If this CIF has been generated from an entry in the Cambridge 
# Structural Database, then it will include bibliographic, chemical, 
# crystal, experimental, refinement or atomic coordinate data resulting 
# from the CCDC's data processing and validation procedures.
#
#######################################################################

data_CAYXOS
_chemical_formula_moiety         'C35 H44 Br1 N1 O1 P1 S1 1+,C1 F3 O3 S1 1-'
_chemical_name_systematic        
'[{2-[(4-bromobenzene-1-carbonyl)sulfanyl]phenyl}(1-methyl-1H-indol-3-yl)methyl](tributyl)phosphanium trifluoromethanesulfonate unknown solvate'
_symmetry_cell_setting           orthorhombic
_symmetry_space_group_name_H-M   'F d d 2'
_symmetry_Int_Tables_number      43
_space_group_name_Hall           'F 2 -2d'
loop_
_symmetry_equiv_pos_site_id
_symmetry_equiv_pos_as_xyz
1 x,y,z
2 -x,-y,z
3 1/4+x,1/4-y,1/4+z
4 1/4-x,1/4+y,1/4+z
5 x,1/2+y,1/2+z
6 -x,1/2-y,1/2+z
7 1/4+x,3/4-y,3/4+z
8 1/4-x,3/4+y,3/4+z
9 1/2+x,y,1/2+z
10 1/2-x,-y,1/2+z
11 3/4+x,1/4-y,3/4+z
12 3/4-x,1/4+y,3/4+z
13 1/2+x,1/2+y,z
14 1/2-x,1/2-y,z
15 3/4+x,3/4-y,1/4+z
16 3/4-x,3/4+y,1/4+z
_cell_length_a                   37.073(4)
_cell_length_b                   51.482(5)
_cell_length_c                   8.4770(6)
_cell_angle_alpha                90
_cell_angle_beta                 90
_cell_angle_gamma                90
_cell_volume                     16179.1
_exptl_crystal_colour            colorless
_exptl_crystal_description       prism
_cell_formula_units_Z            16
loop_
_atom_site_label
_atom_site_type_symbol
_atom_site_fract_x
_atom_site_fract_y
_atom_site_fract_z
C1 C 0.6721(3) 0.2951(3) 1.0579(14)
C2 C 0.6682(4) 0.3206(3) 1.0208(16)
H1 H 0.6881 0.3322 1.0276
C3 C 0.6349(4) 0.3296(3) 0.9731(16)
H2 H 0.6314 0.3473 0.9452
C4 C 0.6069(3) 0.3123(3) 0.9669(14)
C5 C 0.6113(4) 0.2869(3) 1.0039(17)
H3 H 0.5916 0.2751 0.9988
C6 C 0.6454(4) 0.2786(3) 1.0494(19)
H4 H 0.6493 0.2608 1.0744
C7 C 0.5708(4) 0.3235(3) 0.9152(14)
C8 C 0.4990(3) 0.31949(19) 0.8180(12)
C9 C 0.4704(3) 0.3243(2) 0.9137(14)
H5 H 0.4718 0.3189 1.0206
C10 C 0.4401(3) 0.3365(2) 0.8653(15)
H6 H 0.4204 0.3391 0.9355
C11 C 0.4384(4) 0.3448(2) 0.7144(16)
H7 H 0.4170 0.3530 0.6773
C12 C 0.4676(4) 0.3418(2) 0.6121(15)
H8 H 0.4661 0.3484 0.5076
C13 C 0.4983(3) 0.32933(19) 0.6610(13)
C14 C 0.5292(3) 0.32462(19) 0.5448(13)
H9 H 0.5498 0.3181 0.6102
C15 C 0.5208(3) 0.30284(19) 0.4283(12)
C16 C 0.4894(3) 0.29837(18) 0.3555(12)
H10 H 0.4683 0.3087 0.3674
C17 C 0.4634(4) 0.2659(2) 0.1656(14)
H11 H 0.4418 0.2767 0.1770
H12 H 0.4582 0.2482 0.2004
H13 H 0.4709 0.2657 0.0547
C18 C 0.5248(3) 0.2668(2) 0.2729(13)
C19 C 0.5405(4) 0.2434(2) 0.2123(14)
H14 H 0.5270 0.2323 0.1453
C20 C 0.5748(4) 0.2375(2) 0.2521(19)
H15 H 0.5860 0.2227 0.2064
C21 C 0.5940(3) 0.2527(2) 0.3590(16)
H16 H 0.6176 0.2475 0.3885
C22 C 0.5796(3) 0.2753(2) 0.4241(14)
H17 H 0.5934 0.2856 0.4947
C23 C 0.5447(3) 0.2826(3) 0.3842(15)
C24 C 0.5450(4) 0.3810(2) 0.5700(15)
H18 H 0.5197 0.3872 0.5771
H19 H 0.5525 0.3757 0.6772
C25 C 0.5687(4) 0.4037(2) 0.517(2)
H20 H 0.5940 0.4002 0.5475
H21 H 0.5677 0.4052 0.4009
C26 C 0.5573(5) 0.4289(2) 0.588(2)
H22 H 0.5583 0.4274 0.7042
H23 H 0.5320 0.4323 0.5579
C27 C 0.5803(6) 0.4517(3) 0.537(3)
H24 H 0.5719 0.4675 0.5909
H25 H 0.5784 0.4540 0.4231
H26 H 0.6055 0.4484 0.5659
C28 C 0.5913(5) 0.3454(3) 0.3867(18)
H27 H 0.5909 0.3288 0.3280
H28 H 0.5999 0.3590 0.3134
C29 C 0.6174(4) 0.3431(3) 0.517(2)
H29 H 0.6095 0.3299 0.5950
H30 H 0.6207 0.3599 0.5719
C30 C 0.6548(8) 0.3340(5) 0.429(4)
H31 H 0.6508 0.3182 0.3651
H32 H 0.6641 0.3479 0.3596
C31 C 0.6778(9) 0.3292(8) 0.546(4)
H33 H 0.7009 0.3234 0.5024
H34 H 0.6679 0.3157 0.6149
H35 H 0.6816 0.3452 0.6073
C32 C 0.5216(5) 0.3605(2) 0.2649(17)
H36 H 0.5293 0.3476 0.1854
H37 H 0.4959 0.3568 0.2879
C33 C 0.5224(7) 0.3846(3) 0.190(2)
H38 H 0.5476 0.3881 0.1584
H39 H 0.5156 0.3980 0.2687
C34 C 0.4993(5) 0.3878(3) 0.0512(19)
H40 H 0.4735 0.3880 0.0814
H41 H 0.5034 0.3737 -0.0259
C35 C 0.5109(6) 0.4147(4) -0.019(4)
H42 H 0.4963 0.4185 -0.1127
H43 H 0.5364 0.4141 -0.0481
H44 H 0.5071 0.4283 0.0601
Br1 Br 0.71889(6) 0.28322(7) 1.1220(4)
N1 N 0.4919(2) 0.27652(16) 0.2601(11)
O1 O 0.5656(3) 0.34633(18) 0.8833(13)
P1 P 0.54631(11) 0.35317(6) 0.4436(4)
S1 S 0.53541(9) 0.30011(6) 0.8876(4)
C36 C 0.6232(4) 0.4395(3) 0.063(2)
O2 O 0.6185(2) 0.39863(19) -0.1110(12)
O3 O 0.6259(3) 0.3932(2) 0.1697(11)
O4 O 0.6744(3) 0.40846(19) 0.0108(11)
S2 S 0.63706(9) 0.40621(7) 0.0277(4)
F1 F 0.5887(3) 0.4415(2) 0.0910(18)
F2 F 0.6298(3) 0.45339(19) -0.0736(16)
F3 F 0.6417(3) 0.4503(2) 0.1756(14)
loop_
_geom_bond_atom_site_label_1
_geom_bond_atom_site_label_2
_geom_bond_site_symmetry_1
_geom_bond_site_symmetry_2
C1 C2 1_555 1_555
C2 H1 1_555 1_555
C3 C2 1_555 1_555
H2 C3 1_555 1_555
C4 C3 1_555 1_555
C5 C4 1_555 1_555
H3 C5 1_555 1_555
C6 C1 1_555 1_555
H4 C6 1_555 1_555
C7 C4 1_555 1_555
C8 C9 1_555 1_555
C9 H5 1_555 1_555
C10 C9 1_555 1_555
H6 C10 1_555 1_555
C11 C10 1_555 1_555
H7 C11 1_555 1_555
C12 C11 1_555 1_555
H8 C12 1_555 1_555
C13 C8 1_555 1_555
C14 C13 1_555 1_555
H9 C14 1_555 1_555
C15 C14 1_555 1_555
C16 C15 1_555 1_555
H10 C16 1_555 1_555
C17 H11 1_555 1_555
H12 C17 1_555 1_555
H13 C17 1_555 1_555
C18 C19 1_555 1_555
C19 H14 1_555 1_555
C20 C19 1_555 1_555
H15 C20 1_555 1_555
C21 C20 1_555 1_555
H16 C21 1_555 1_555
C22 C21 1_555 1_555
H17 C22 1_555 1_555
C23 C15 1_555 1_555
C24 H18 1_555 1_555
H19 C24 1_555 1_555
C25 C24 1_555 1_555
H20 C25 1_555 1_555
H21 C25 1_555 1_555
C26 C25 1_555 1_555
H22 C26 1_555 1_555
H23 C26 1_555 1_555
C27 C26 1_555 1_555
H24 C27 1_555 1_555
H25 C27 1_555 1_555
H26 C27 1_555 1_555
C28 H27 1_555 1_555
H28 C28 1_555 1_555
C29 C28 1_555 1_555
H29 C29 1_555 1_555
H30 C29 1_555 1_555
C30 C29 1_555 1_555
H31 C30 1_555 1_555
H32 C30 1_555 1_555
C31 C30 1_555 1_555
H33 C31 1_555 1_555
H34 C31 1_555 1_555
H35 C31 1_555 1_555
C32 H36 1_555 1_555
H37 C32 1_555 1_555
C33 C32 1_555 1_555
H38 C33 1_555 1_555
H39 C33 1_555 1_555
C34 C33 1_555 1_555
H40 C34 1_555 1_555
H41 C34 1_555 1_555
C35 C34 1_555 1_555
H42 C35 1_555 1_555
H43 C35 1_555 1_555
H44 C35 1_555 1_555
Br1 C1 1_555 1_555
N1 C16 1_555 1_555
O1 C7 1_555 1_555
P1 C14 1_555 1_555
S1 C7 1_555 1_555
C36 S2 1_555 1_555
O2 S2 1_555 1_555
O3 S2 1_555 1_555
O4 S2 1_555 1_555
F1 C36 1_555 1_555
F2 C36 1_555 1_555
F3 C36 1_555 1_555
C5 C6 1_555 1_555
C8 S1 1_555 1_555
C12 C13 1_555 1_555
C17 N1 1_555 1_555
C18 C23 1_555 1_555
C18 N1 1_555 1_555
C22 C23 1_555 1_555
C24 P1 1_555 1_555
C28 P1 1_555 1_555
C32 P1 1_555 1_555

#END
