
#######################################################################
#
#                 Cambridge Crystallographic Data Centre
#                                CCDC 
#
#######################################################################
#
# If this CIF has been generated from an entry in the Cambridge 
# Structural Database, then it will include bibliographic, chemical, 
# crystal, experimental, refinement or atomic coordinate data resulting 
# from the CCDC's data processing and validation procedures.
#
#######################################################################

data_CAYZAG
_chemical_formula_moiety         'C8 H14 N1 O5 S1'
_chemical_name_systematic        
'(3aR,4S,6R,7aR)-6-methoxy-4,7a-dimethylhexahydropyrano[4,3-d][1,2,3]oxathiazole 2,2-dioxide'
_symmetry_cell_setting           orthorhombic
_symmetry_space_group_name_H-M   'P 21 21 21'
_symmetry_Int_Tables_number      19
_space_group_name_Hall           'P 2ac 2ab'
loop_
_symmetry_equiv_pos_site_id
_symmetry_equiv_pos_as_xyz
1 x,y,z
2 1/2-x,-y,1/2+z
3 -x,1/2+y,1/2-z
4 1/2+x,1/2-y,-z
_cell_length_a                   7.460(4)
_cell_length_b                   8.275(4)
_cell_length_c                   18.660(9)
_cell_angle_alpha                90
_cell_angle_beta                 90
_cell_angle_gamma                90
_cell_volume                     1151.91
_exptl_crystal_colour            colorless
_exptl_crystal_description       block
_chemical_melting_point          '387-389 K'
_cell_formula_units_Z            4
_exptl_crystal_recrystallization_method 'ethyl ethate/hexane'
loop_
_atom_site_label
_atom_site_type_symbol
_atom_site_fract_x
_atom_site_fract_y
_atom_site_fract_z
S1 S 0.24696(10) 0.11325(7) 0.66110(4)
O1 O 0.4423(3) 0.5910(3) 0.60516(12)
O2 O 0.2101(3) -0.0008(3) 0.71597(12)
O3 O 0.4436(3) 0.1800(3) 0.67700(12)
O4 O 0.1469(4) 0.5371(3) 0.56850(14)
N1 N 0.1358(3) 0.2819(3) 0.67133(14)
O5 O 0.2319(4) 0.0592(3) 0.58939(12)
C1 C 0.4434(4) 0.3558(3) 0.68202(15)
H1 H 0.5343 0.3904 0.7167
C2 C 0.2564(4) 0.3971(3) 0.71080(13)
C3 C 0.4897(4) 0.4228(4) 0.60820(16)
H2 H 0.4215 0.3637 0.5718
C4 C 0.2414(5) 0.3674(4) 0.79099(15)
H3 H 0.1201 0.3860 0.8061
H4 H 0.3201 0.4397 0.8160
H5 H 0.2744 0.2578 0.8014
C5 C 0.2051(4) 0.5711(3) 0.69180(17)
H6 H 0.0763 0.5832 0.6967
H7 H 0.2615 0.6437 0.7258
C6 C 0.2587(5) 0.6202(3) 0.61719(17)
H8 H 0.2369 0.7363 0.6119
C7 C 0.6873(5) 0.4074(6) 0.5922(2)
H9 H 0.7229 0.2964 0.5967
H10 H 0.7543 0.4721 0.6255
H11 H 0.7105 0.4439 0.5443
C8 C 0.1659(8) 0.5914(7) 0.4950(3)
H12 H 0.0738 0.5432 0.4661
H13 H 0.2813 0.5599 0.4771
H14 H 0.1550 0.7069 0.4932
loop_
_geom_bond_atom_site_label_1
_geom_bond_atom_site_label_2
_geom_bond_site_symmetry_1
_geom_bond_site_symmetry_2
S1 O2 1_555 1_555
O1 C3 1_555 1_555
O3 S1 1_555 1_555
O4 C6 1_555 1_555
N1 S1 1_555 1_555
O5 S1 1_555 1_555
C1 O3 1_555 1_555
H1 C1 1_555 1_555
C2 N1 1_555 1_555
C3 C1 1_555 1_555
H2 C3 1_555 1_555
C4 C2 1_555 1_555
H3 C4 1_555 1_555
H4 C4 1_555 1_555
H5 C4 1_555 1_555
C5 C2 1_555 1_555
H6 C5 1_555 1_555
H7 C5 1_555 1_555
C6 O1 1_555 1_555
H8 C6 1_555 1_555
C7 C3 1_555 1_555
H9 C7 1_555 1_555
H10 C7 1_555 1_555
H11 C7 1_555 1_555
C8 O4 1_555 1_555
H12 C8 1_555 1_555
H13 C8 1_555 1_555
H14 C8 1_555 1_555
C1 C2 1_555 1_555
C5 C6 1_555 1_555

#END
