
#######################################################################
#
#                 Cambridge Crystallographic Data Centre
#                                CCDC 
#
#######################################################################
#
# If this CIF has been generated from an entry in the Cambridge 
# Structural Database, then it will include bibliographic, chemical, 
# crystal, experimental, refinement or atomic coordinate data resulting 
# from the CCDC's data processing and validation procedures.
#
#######################################################################

data_CAYZOS
_chemical_formula_moiety         'C22 H25 N3 O5'
_chemical_name_systematic        
'rac-2-Methyl-2-(8-(2-((6-methyl-2-pyridinyl)amino)-2-oxoethyl)-1,3-dioxo-1,3,3a,4,7,7a-hexahydro-2H-4,7-ethanisoindol-2-yl)propanoic acid'
_symmetry_cell_setting           monoclinic
_symmetry_space_group_name_H-M   'P 21/n'
_symmetry_Int_Tables_number      14
_space_group_name_Hall           '-P 2yn'
loop_
_symmetry_equiv_pos_site_id
_symmetry_equiv_pos_as_xyz
1 x,y,z
2 1/2-x,1/2+y,1/2-z
3 -x,-y,-z
4 1/2+x,1/2-y,1/2+z
_cell_length_a                   5.8973(17)
_cell_length_b                   26.318(8)
_cell_length_c                   18.881(5)
_cell_angle_alpha                90
_cell_angle_beta                 91.693(6)
_cell_angle_gamma                90
_cell_volume                     2929.15
_exptl_crystal_colour            colorless
_exptl_crystal_description       plate
_cell_formula_units_Z            4
loop_
_atom_site_label
_atom_site_type_symbol
_atom_site_fract_x
_atom_site_fract_y
_atom_site_fract_z
O1 O 0.8924(3) 0.15900(7) 0.04049(10)
O2 O 0.5349(3) 0.18669(7) 0.03569(11)
O3 O 0.6910(3) 0.05872(7) 0.02015(10)
N1 N 0.7775(4) 0.08400(8) 0.13437(11)
O4 O 0.9028(3) 0.08386(7) 0.25231(10)
N2 N 1.0666(4) -0.20309(8) 0.09716(12)
H1 H 1.0917 -0.1869 0.0580
C1 C 0.6148(5) -0.02991(10) 0.20204(15)
H2 H 0.5028 -0.0249 0.2357
N3 N 1.3738(4) -0.25010(8) 0.06553(12)
C2 C 0.9081(5) -0.09002(9) 0.11771(14)
H3 H 1.0517 -0.0920 0.0920
C3 C 0.9174(5) 0.00367(10) 0.09845(14)
H4 H 1.0565 0.0008 0.0706
C4 C 0.5654(5) -0.03762(10) 0.13422(14)
H5 H 0.4157 -0.0389 0.1158
O5 O 0.8387(4) -0.20405(8) 0.19213(12)
C5 C 0.8865(4) 0.06363(10) 0.19490(14)
C6 C 0.7008(5) 0.15921(10) 0.06217(14)
C7 C 0.8636(5) -0.02983(10) 0.22111(14)
H6 H 0.8906 -0.0243 0.2725
C8 C 0.9777(4) 0.01220(10) 0.17685(13)
H7 H 1.1443 0.0114 0.1849
C9 C 0.7693(4) -0.04422(10) 0.08899(14)
H8 H 0.7233 -0.0493 0.0386
C10 C 0.9648(5) -0.08097(10) 0.19724(15)
H9 H 0.9023 -0.1087 0.2253
H10 H 1.1297 -0.0806 0.2052
C11 C 0.8927(5) -0.18546(10) 0.13567(15)
C12 C 0.7846(4) 0.05067(10) 0.07712(14)
C13 C 0.7730(5) -0.13957(10) 0.10461(15)
H11 H 0.6237 -0.1363 0.1256
H12 H 0.7494 -0.1445 0.0535
C14 C 0.6341(5) 0.13062(10) 0.12890(14)
C15 C 1.5243(5) -0.28927(11) 0.07396(16)
C16 C 1.2103(5) -0.24395(10) 0.11253(15)
C17 C 1.3406(6) -0.31537(13) 0.17747(19)
H13 H 1.3297 -0.3379 0.2159
C18 C 1.6972(6) -0.29490(13) 0.01843(19)
H14 H 1.6767 -0.2682 -0.0166
H15 H 1.6794 -0.3278 -0.0044
H16 H 1.8480 -0.2924 0.0401
C19 C 0.6833(6) 0.16789(11) 0.18977(16)
H17 H 0.8414 0.1780 0.1896
H18 H 0.6518 0.1516 0.2345
H19 H 0.5877 0.1977 0.1838
C20 C 1.5107(6) -0.32139(12) 0.13038(18)
H20 H 1.6177 -0.3476 0.1369
C21 C 0.3847(5) 0.11459(12) 0.12876(18)
H21 H 0.3544 0.0910 0.0901
H22 H 0.2891 0.1443 0.1227
H23 H 0.3526 0.0982 0.1734
C22 C 1.1854(6) -0.27664(12) 0.16908(17)
H24 H 1.0666 -0.2725 0.2007
H25 H 0.615(9) 0.219(2) 0.005(3)
loop_
_geom_bond_atom_site_label_1
_geom_bond_atom_site_label_2
_geom_bond_site_symmetry_1
_geom_bond_site_symmetry_2
O1 C6 1_555 1_555
O2 C6 1_555 1_555
O3 C12 1_555 1_555
N1 C5 1_555 1_555
O4 C5 1_555 1_555
N2 H1 1_555 1_555
C1 H2 1_555 1_555
N3 C15 1_555 1_555
C2 H3 1_555 1_555
C3 H4 1_555 1_555
C4 C1 1_555 1_555
H5 C4 1_555 1_555
O5 C11 1_555 1_555
C5 C8 1_555 1_555
C6 C14 1_555 1_555
C7 C1 1_555 1_555
H6 C7 1_555 1_555
C8 C3 1_555 1_555
H7 C8 1_555 1_555
C9 C2 1_555 1_555
H8 C9 1_555 1_555
C10 C2 1_555 1_555
H9 C10 1_555 1_555
H10 C10 1_555 1_555
C11 N2 1_555 1_555
C12 N1 1_555 1_555
C13 C2 1_555 1_555
H11 C13 1_555 1_555
H12 C13 1_555 1_555
C14 N1 1_555 1_555
C15 C18 1_555 1_555
C16 N2 1_555 1_555
C17 H13 1_555 1_555
C18 H14 1_555 1_555
H15 C18 1_555 1_555
H16 C18 1_555 1_555
C19 C14 1_555 1_555
H17 C19 1_555 1_555
H18 C19 1_555 1_555
H19 C19 1_555 1_555
C20 C15 1_555 1_555
H20 C20 1_555 1_555
C21 C14 1_555 1_555
H21 C21 1_555 1_555
H22 C21 1_555 1_555
H23 C21 1_555 1_555
C22 C16 1_555 1_555
H24 C22 1_555 1_555
H25 O2 1_555 1_555
N3 C16 1_555 1_555
C3 C9 1_555 1_555
C3 C12 1_555 1_555
C4 C9 1_555 1_555
C7 C8 1_555 1_555
C7 C10 1_555 1_555
C11 C13 1_555 1_555
C17 C20 1_555 1_555
C17 C22 1_555 1_555

#END
