
#######################################################################
#
#                 Cambridge Crystallographic Data Centre
#                                CCDC 
#
#######################################################################
#
# If this CIF has been generated from an entry in the Cambridge 
# Structural Database, then it will include bibliographic, chemical, 
# crystal, experimental, refinement or atomic coordinate data resulting 
# from the CCDC's data processing and validation procedures.
#
#######################################################################

data_CAZCAI
_chemical_formula_moiety         'C46 H60 N6 O5,C3 H6 O2,H2 O1'
_chemical_name_systematic        
'Methyl 3\a-phenylaminoacetamido-7\a,12\a-bis((phenylaminocarbonyl)amino)-5\b-cholan-24-oate methyl acetate solvate monohydrate'
_symmetry_cell_setting           hexagonal
_symmetry_space_group_name_H-M   'P 61'
_symmetry_Int_Tables_number      169
_space_group_name_Hall           'P 61'
loop_
_symmetry_equiv_pos_site_id
_symmetry_equiv_pos_as_xyz
1 x,y,z
2 -y,x-y,1/3+z
3 -x+y,-x,2/3+z
4 -x,-y,1/2+z
5 y,-x+y,5/6+z
6 x-y,x,1/6+z
_cell_length_a                   29.0842(6)
_cell_length_b                   29.0842(6)
_cell_length_c                   11.4888(3)
_cell_angle_alpha                90
_cell_angle_beta                 90
_cell_angle_gamma                120
_cell_volume                     8416.27
_exptl_crystal_colour            colorless
_exptl_crystal_description       needle
_cell_formula_units_Z            6
loop_
_atom_site_label
_atom_site_type_symbol
_atom_site_fract_x
_atom_site_fract_y
_atom_site_fract_z
C1 C -0.6220(2) -0.1851(2) 0.1714(5)
H1 H -0.6323 -0.2128 0.2332
C2 C -0.5879(2) -0.1316(2) 0.2320(5)
H2 H -0.5753 -0.1025 0.1743
H3 H -0.6094 -0.1260 0.2911
C3 C -0.5406(2) -0.1309(2) 0.2902(5)
H4 H -0.5539 -0.1579 0.3528
H5 H -0.5186 -0.0958 0.3273
C4 C -0.5048(2) -0.1415(2) 0.2085(5)
C5 C -0.5406(2) -0.1938(2) 0.1399(5)
H6 H -0.5548 -0.2230 0.1988
C6 C -0.5889(2) -0.1953(2) 0.0838(5)
H7 H -0.5768 -0.1681 0.0216
H8 H -0.6112 -0.2305 0.0474
C7 C -0.5075(2) -0.2061(2) 0.0535(5)
H9 H -0.4838 -0.2148 0.0984
H10 H -0.5319 -0.2379 0.0078
C8 C -0.4736(2) -0.1608(2) -0.0313(5)
H11 H -0.4481 -0.1695 -0.0699
C9 C -0.4408(2) -0.1078(2) 0.0344(5)
H12 H -0.4142 -0.1112 0.0830
C10 C -0.4754(2) -0.0959(2) 0.1181(5)
H13 H -0.5033 -0.0946 0.0697
C11 C -0.4420(2) -0.0406(2) 0.1749(5)
H14 H -0.4657 -0.0327 0.2222
H15 H -0.4156 -0.0414 0.2279
C12 C -0.4128(2) 0.0041(2) 0.0848(5)
H16 H -0.3905 0.0381 0.1279
C13 C -0.3759(2) -0.0070(2) 0.0088(5)
C14 C -0.4101(2) -0.0619(2) -0.0492(5)
H17 H -0.4372 -0.0592 -0.0980
C15 C -0.3374(2) -0.0085(2) -0.1787(6)
H18 H -0.3458 -0.0063 -0.2613
H19 H -0.2993 0.0029 -0.1725
C16 C -0.3716(2) -0.0657(2) -0.1335(5)
H20 H -0.3908 -0.0905 -0.1980
H21 H -0.3494 -0.0778 -0.0930
C17 C -0.3506(2) 0.0276(2) -0.1022(5)
H22 H -0.3794 0.0307 -0.1430
C18 C -0.3320(2) -0.0052(2) 0.0860(5)
H23 H -0.3479 -0.0272 0.1554
H24 H -0.3076 0.0315 0.1097
H25 H -0.3124 -0.0189 0.0423
C19 C -0.4657(2) -0.1482(2) 0.2849(5)
H26 H -0.4418 -0.1543 0.2356
H27 H -0.4853 -0.1786 0.3370
H28 H -0.4449 -0.1160 0.3312
C20 C -0.3030(2) 0.0842(2) -0.0901(6)
H29 H -0.2730 0.0816 -0.0544
C21 C -0.3150(2) 0.1195(2) -0.0114(6)
H30 H -0.2832 0.1547 -0.0049
H31 H -0.3253 0.1034 0.0661
H32 H -0.3441 0.1229 -0.0450
C22 C -0.2858(3) 0.1078(2) -0.2117(6)
H33 H -0.3165 0.1076 -0.2498
H34 H -0.2773 0.0842 -0.2574
C23 C -0.2382(3) 0.1643(2) -0.2181(7)
H35 H -0.2284 0.1741 -0.3006
H36 H -0.2483 0.1894 -0.1848
C24 C -0.1917(3) 0.1693(3) -0.1541(7)
C25 C -0.1273(4) 0.1437(6) -0.1473(14)
H37 H -0.1169 0.1206 -0.1873
H38 H -0.1360 0.1324 -0.0661
H39 H -0.0980 0.1804 -0.1499
C26 C -0.4758(2) 0.03635(19) 0.0599(5)
C27 C -0.5574(2) 0.0431(2) 0.0239(5)
C28 C -0.6088(2) 0.0138(2) -0.0182(6)
H40 H -0.6209 -0.0203 -0.0509
C29 C -0.6423(2) 0.0347(2) -0.0123(6)
H41 H -0.6774 0.0147 -0.0420
C30 C -0.6255(3) 0.0843(2) 0.0365(6)
H42 H -0.6488 0.0984 0.0397
C31 C -0.5749(2) 0.1127(2) 0.0800(6)
H43 H -0.5635 0.1463 0.1148
C32 C -0.5399(2) 0.0930(2) 0.0741(5)
H44 H -0.5048 0.1131 0.1036
C33 C -0.5272(2) -0.19225(19) -0.2072(5)
C34 C -0.5932(2) -0.2213(2) -0.3709(5)
C35 C -0.5902(2) -0.2646(2) -0.4103(6)
H45 H -0.5676 -0.2748 -0.3724
C36 C -0.6203(3) -0.2930(2) -0.5057(6)
H46 H -0.6176 -0.3224 -0.5330
C37 C -0.6538(2) -0.2800(2) -0.5615(6)
H47 H -0.6743 -0.3000 -0.6263
C38 C -0.6570(2) -0.2360(2) -0.5201(6)
H48 H -0.6800 -0.2262 -0.5570
C39 C -0.6271(2) -0.2076(2) -0.4272(6)
H49 H -0.6294 -0.1780 -0.4004
C40 C -0.6755(2) -0.1638(2) 0.0339(5)
C41 C -0.7419(2) -0.1634(2) -0.0986(5)
C42 C -0.7693(2) -0.1936(2) -0.1952(6)
H50 H -0.7747 -0.2284 -0.2045
C43 C -0.7887(3) -0.1726(3) -0.2782(7)
H51 H -0.8079 -0.1935 -0.3433
C44 C -0.7802(3) -0.1216(3) -0.2663(7)
H52 H -0.7937 -0.1077 -0.3229
C45 C -0.7520(3) -0.0910(3) -0.1716(7)
H53 H -0.7454 -0.0557 -0.1645
C46 C -0.7331(2) -0.1115(2) -0.0869(6)
H54 H -0.7143 -0.0906 -0.0215
N1 N -0.45183(17) 0.01008(17) 0.0150(4)
H55 H -0.4598 -0.0033 -0.0557
N2 N -0.52371(17) 0.02151(18) 0.0084(4)
H56 H -0.5351 -0.0051 -0.0411
N3 N -0.50603(17) -0.15569(16) -0.1227(4)
H57 H -0.5116 -0.1286 -0.1220
N4 N -0.56516(18) -0.18959(17) -0.2737(4)
H58 H -0.5730 -0.1652 -0.2533
N5 N -0.67128(17) -0.19269(18) 0.1222(5)
H59 H -0.7010 -0.2182 0.1521
N6 N -0.72596(18) -0.18644(18) -0.0114(5)
H60 H -0.7500 -0.2176 0.0161
O1 O -0.1704(2) 0.1958(2) -0.0697(5)
O2 O -0.1727(2) 0.1403(3) -0.2035(7)
O3 O -0.45581(15) 0.07057(14) 0.1362(4)
O4 O -0.51425(15) -0.22655(14) -0.2228(4)
O5 O -0.63851(14) -0.12136(14) -0.0021(4)
O6 O -0.54785(15) -0.07837(14) -0.1269(4)
C47 C -0.7854(7) -0.0201(6) 0.1242(17)
H61 H -0.8039 -0.0509 0.1756
H62 H -0.7538 -0.0191 0.0916
H63 H -0.8092 -0.0227 0.0609
C48 C -0.7693(10) 0.0294(8) 0.1919(18)
C49 C -0.7163(10) 0.1227(8) 0.181(2)
H64 H -0.6975 0.1507 0.1236
H65 H -0.6909 0.1233 0.2382
H66 H -0.7427 0.1285 0.2215
O7 O -0.7776(8) 0.0360(8) 0.2930(18)
O8 O -0.7439(6) 0.0694(6) 0.1212(15)
C50 C -0.0687(12) 0.1945(12) 0.137(3)
H67 H -0.0731 0.1867 0.2206
H68 H -0.1017 0.1702 0.0963
H69 H -0.0603 0.2312 0.1240
C51 C -0.0237(15) 0.187(2) 0.091(3)
C52 C 0.0218(14) 0.1928(14) -0.081(3)
H70 H 0.0226 0.2040 -0.1619
H71 H 0.0099 0.1548 -0.0793
H72 H 0.0574 0.2128 -0.0473
O9 O 0.0142(14) 0.2022(12) 0.153(3)
O10 O -0.0141(15) 0.2025(16) -0.016(4)
loop_
_geom_bond_atom_site_label_1
_geom_bond_atom_site_label_2
_geom_bond_site_symmetry_1
_geom_bond_site_symmetry_2
C1 H1 1_555 1_555
C2 C1 1_555 1_555
H2 C2 1_555 1_555
H3 C2 1_555 1_555
C3 C2 1_555 1_555
H4 C3 1_555 1_555
H5 C3 1_555 1_555
C4 C3 1_555 1_555
C5 C4 1_555 1_555
H6 C5 1_555 1_555
C6 C1 1_555 1_555
H7 C6 1_555 1_555
H8 C6 1_555 1_555
C7 C5 1_555 1_555
H9 C7 1_555 1_555
H10 C7 1_555 1_555
C8 C7 1_555 1_555
H11 C8 1_555 1_555
C9 C8 1_555 1_555
H12 C9 1_555 1_555
C10 C4 1_555 1_555
H13 C10 1_555 1_555
C11 C10 1_555 1_555
H14 C11 1_555 1_555
H15 C11 1_555 1_555
C12 C11 1_555 1_555
H16 C12 1_555 1_555
C13 C12 1_555 1_555
C14 C9 1_555 1_555
H17 C14 1_555 1_555
C15 H18 1_555 1_555
H19 C15 1_555 1_555
C16 C14 1_555 1_555
H20 C16 1_555 1_555
H21 C16 1_555 1_555
C17 C13 1_555 1_555
H22 C17 1_555 1_555
C18 C13 1_555 1_555
H23 C18 1_555 1_555
H24 C18 1_555 1_555
H25 C18 1_555 1_555
C19 C4 1_555 1_555
H26 C19 1_555 1_555
H27 C19 1_555 1_555
H28 C19 1_555 1_555
C20 C17 1_555 1_555
H29 C20 1_555 1_555
C21 C20 1_555 1_555
H30 C21 1_555 1_555
H31 C21 1_555 1_555
H32 C21 1_555 1_555
C22 C20 1_555 1_555
H33 C22 1_555 1_555
H34 C22 1_555 1_555
C23 C22 1_555 1_555
H35 C23 1_555 1_555
H36 C23 1_555 1_555
C24 C23 1_555 1_555
C25 H37 1_555 1_555
H38 C25 1_555 1_555
H39 C25 1_555 1_555
C26 N1 1_555 1_555
C27 C28 1_555 1_555
C28 H40 1_555 1_555
C29 C28 1_555 1_555
H41 C29 1_555 1_555
C30 C29 1_555 1_555
H42 C30 1_555 1_555
C31 C30 1_555 1_555
H43 C31 1_555 1_555
C32 C27 1_555 1_555
H44 C32 1_555 1_555
C33 N3 1_555 1_555
C34 C35 1_555 1_555
C35 H45 1_555 1_555
C36 C35 1_555 1_555
H46 C36 1_555 1_555
C37 C36 1_555 1_555
H47 C37 1_555 1_555
C38 C37 1_555 1_555
H48 C38 1_555 1_555
C39 C34 1_555 1_555
H49 C39 1_555 1_555
C40 N5 1_555 1_555
C41 C42 1_555 1_555
C42 H50 1_555 1_555
C43 C42 1_555 1_555
H51 C43 1_555 1_555
C44 C43 1_555 1_555
H52 C44 1_555 1_555
C45 C44 1_555 1_555
H53 C45 1_555 1_555
C46 C41 1_555 1_555
H54 C46 1_555 1_555
N1 C12 1_555 1_555
H55 N1 1_555 1_555
N2 C26 1_555 1_555
H56 N2 1_555 1_555
N3 C8 1_555 1_555
H57 N3 1_555 1_555
N4 C33 1_555 1_555
H58 N4 1_555 1_555
N5 C1 1_555 1_555
H59 N5 1_555 1_555
N6 C40 1_555 1_555
H60 N6 1_555 1_555
O1 C24 1_555 1_555
O2 C24 1_555 1_555
O3 C26 1_555 1_555
O4 C33 1_555 1_555
O5 C40 1_555 1_555
C47 H61 1_555 1_555
H62 C47 1_555 1_555
H63 C47 1_555 1_555
C48 C47 1_555 1_555
C49 H64 1_555 1_555
H65 C49 1_555 1_555
H66 C49 1_555 1_555
O7 C48 1_555 1_555
O8 C48 1_555 1_555
C50 H67 1_555 1_555
H68 C50 1_555 1_555
H69 C50 1_555 1_555
C51 C50 1_555 1_555
C52 H70 1_555 1_555
H71 C52 1_555 1_555
H72 C52 1_555 1_555
O9 C51 1_555 1_555
O10 C51 1_555 1_555
C5 C6 1_555 1_555
C9 C10 1_555 1_555
C13 C14 1_555 1_555
C15 C16 1_555 1_555
C15 C17 1_555 1_555
C25 O2 1_555 1_555
C27 N2 1_555 1_555
C31 C32 1_555 1_555
C34 N4 1_555 1_555
C38 C39 1_555 1_555
C41 N6 1_555 1_555
C45 C46 1_555 1_555
C49 O8 1_555 1_555
C52 O10 1_555 1_555

#END
