
#######################################################################
#
#                 Cambridge Crystallographic Data Centre
#                                CCDC 
#
#######################################################################
#
# If this CIF has been generated from an entry in the Cambridge 
# Structural Database, then it will include bibliographic, chemical, 
# crystal, experimental, refinement or atomic coordinate data resulting 
# from the CCDC's data processing and validation procedures.
#
#######################################################################

data_CAZHAN01
_chemical_formula_moiety         'C24 H20 P1 1+,Cl1 1-,1.9(H2 O2),0.1(H2 O1)'
_chemical_name_systematic        
'Tetraphenylphosphonium chloride hydrogen peroxide solvate hydrate'
_symmetry_cell_setting           triclinic
_symmetry_space_group_name_H-M   'P -1'
_symmetry_Int_Tables_number      2
_space_group_name_Hall           '-P 1'
loop_
_symmetry_equiv_pos_site_id
_symmetry_equiv_pos_as_xyz
1 x,y,z
2 -x,-y,-z
_cell_length_a                   9.6277(11)
_cell_length_b                   11.1642(13)
_cell_length_c                   11.6014(14)
_cell_angle_alpha                75.114(2)
_cell_angle_beta                 73.164(2)
_cell_angle_gamma                71.148(3)
_cell_volume                     1111
_exptl_crystal_colour            colorless
_exptl_crystal_description       block
_cell_formula_units_Z            2
_chemical_properties_physical    Air-sensitive
loop_
_atom_site_label
_atom_site_type_symbol
_atom_site_fract_x
_atom_site_fract_y
_atom_site_fract_z
P1 P 0.00682(7) 0.69799(6) 0.15130(5)
C1 C 0.0165(3) 0.8181(2) 0.2256(2)
C2 C 0.1561(3) 0.8097(3) 0.2463(2)
C3 C 0.1671(3) 0.8988(3) 0.3057(2)
C4 C 0.0403(4) 0.9955(3) 0.3441(2)
C5 C -0.0980(3) 1.0030(3) 0.3262(3)
C6 C -0.1106(3) 0.9143(3) 0.2666(2)
C7 C -0.0042(3) 0.5516(2) 0.2588(2)
C8 C -0.1162(3) 0.4909(3) 0.2713(3)
C9 C -0.1177(4) 0.3761(3) 0.3558(3)
C10 C -0.0090(4) 0.3226(3) 0.4238(3)
C11 C 0.1030(3) 0.3815(3) 0.4097(2)
C12 C 0.1052(3) 0.4968(3) 0.3280(2)
C13 C -0.1508(3) 0.7551(2) 0.0796(2)
C14 C -0.2982(3) 0.7847(3) 0.1509(3)
C15 C -0.4186(3) 0.8298(3) 0.0943(3)
C16 C -0.3938(3) 0.8436(3) -0.0320(3)
C17 C -0.2486(3) 0.8119(3) -0.1021(3)
C18 C -0.1266(3) 0.7691(3) -0.0470(2)
C19 C 0.1762(3) 0.6665(2) 0.0342(2)
C20 C 0.2259(3) 0.7713(3) -0.0435(2)
C21 C 0.3487(3) 0.7494(3) -0.1415(2)
C22 C 0.4225(3) 0.6244(3) -0.1608(2)
C23 C 0.3741(3) 0.5209(3) -0.0837(2)
C24 C 0.2497(3) 0.5417(2) 0.0142(2)
H7 H 0.250(3) 0.745(3) 0.218(3)
H8 H 0.261(4) 0.892(3) 0.317(3)
H9 H 0.050(3) 1.060(3) 0.379(3)
H10 H -0.188(4) 1.072(3) 0.354(3)
H11 H -0.209(4) 0.920(3) 0.250(3)
H12 H -0.196(3) 0.532(3) 0.224(3)
H13 H -0.199(4) 0.338(3) 0.368(3)
H14 H -0.012(4) 0.248(3) 0.481(3)
H15 H 0.181(4) 0.345(3) 0.454(3)
H16 H 0.185(3) 0.542(3) 0.321(2)
H17 H -0.316(3) 0.774(3) 0.236(3)
H18 H -0.525(4) 0.854(3) 0.142(3)
H19 H -0.476(4) 0.881(3) -0.071(3)
H20 H -0.231(3) 0.821(3) -0.188(3)
H21 H -0.027(3) 0.747(3) -0.094(3)
H22 H 0.172(3) 0.859(3) -0.028(3)
H23 H 0.387(3) 0.824(3) -0.195(3)
H24 H 0.510(3) 0.611(3) -0.232(3)
H25 H 0.425(4) 0.433(3) -0.095(3)
H26 H 0.213(3) 0.464(3) 0.070(3)
Cl1 Cl 0.49673(8) 0.76016(6) -0.49323(6)
O1 O 0.4848(2) 1.0126(2) -0.68448(19)
O2 O 0.3537(2) 1.1083(2) -0.6327(2)
H1 H 0.483(5) 0.942(5) -0.615(4)
H2 H 0.395(5) 1.152(4) -0.594(4)
O5 O 0.423(4) 0.565(3) -0.644(3)
H5 H 0.4409 0.6132 -0.6071
H6 H 0.4422 0.4865 -0.6110
O3? O 0.3735(3) 0.5408(3) -0.5964(3)
O4? O 0.4848(3) 0.6051(3) -0.6751(2)
H3? H 0.483(5) 0.654(5) -0.617(4)
H4? H 0.438(7) 0.456(6) -0.557(5)
loop_
_geom_bond_atom_site_label_1
_geom_bond_atom_site_label_2
_geom_bond_site_symmetry_1
_geom_bond_site_symmetry_2
P1 C1 1_555 1_555
C1 C2 1_555 1_555
C2 C3 1_555 1_555
C3 C4 1_555 1_555
C4 C5 1_555 1_555
C5 C6 1_555 1_555
C6 C1 1_555 1_555
C7 P1 1_555 1_555
C8 C7 1_555 1_555
C9 C8 1_555 1_555
C10 C9 1_555 1_555
C11 C10 1_555 1_555
C12 C7 1_555 1_555
C13 P1 1_555 1_555
C14 C13 1_555 1_555
C15 C14 1_555 1_555
C16 C15 1_555 1_555
C17 C16 1_555 1_555
C18 C13 1_555 1_555
C19 P1 1_555 1_555
C20 C19 1_555 1_555
C21 C20 1_555 1_555
C22 C21 1_555 1_555
C23 C22 1_555 1_555
C24 C19 1_555 1_555
O1 O2 1_555 1_555
O2 H2 1_555 1_555
H1 O1 1_555 1_555
O5 H5 1_555 1_555
H6 O5 1_555 1_555
H7 C2 1_555 1_555
H8 C3 1_555 1_555
H9 C4 1_555 1_555
H10 C5 1_555 1_555
H11 C6 1_555 1_555
H12 C8 1_555 1_555
H13 C9 1_555 1_555
H14 C10 1_555 1_555
H15 C11 1_555 1_555
H16 C12 1_555 1_555
H17 C14 1_555 1_555
H18 C15 1_555 1_555
H19 C16 1_555 1_555
H20 C17 1_555 1_555
H21 C18 1_555 1_555
H22 C20 1_555 1_555
H23 C21 1_555 1_555
H24 C22 1_555 1_555
H25 C23 1_555 1_555
H26 C24 1_555 1_555
C11 C12 1_555 1_555
C17 C18 1_555 1_555
C23 C24 1_555 1_555

#END
