
#######################################################################
#
#                 Cambridge Crystallographic Data Centre
#                                CCDC 
#
#######################################################################
#
# If this CIF has been generated from an entry in the Cambridge 
# Structural Database, then it will include bibliographic, chemical, 
# crystal, experimental, refinement or atomic coordinate data resulting 
# from the CCDC's data processing and validation procedures.
#
#######################################################################

data_CAZHOB
_chemical_formula_moiety         'C24 H20 As1 1+,Cl1 1-,1.85(H2 O2),0.15(H2 O1)'
_chemical_name_systematic        
'Tetraphenylarsonium chloride hydrogen peroxide solvate hydrate'
_symmetry_cell_setting           triclinic
_symmetry_space_group_name_H-M   'P -1'
_symmetry_Int_Tables_number      2
_space_group_name_Hall           '-P 1'
loop_
_symmetry_equiv_pos_site_id
_symmetry_equiv_pos_as_xyz
1 x,y,z
2 -x,-y,-z
_cell_length_a                   9.6626(6)
_cell_length_b                   11.1999(7)
_cell_length_c                   11.5831(8)
_cell_angle_alpha                75.261(1)
_cell_angle_beta                 73.801(1)
_cell_angle_gamma                71.866(1)
_cell_volume                     1124.51
_exptl_crystal_colour            colorless
_exptl_crystal_description       block
_cell_formula_units_Z            2
_chemical_properties_physical    Air-sensitive
loop_
_atom_site_label
_atom_site_type_symbol
_atom_site_fract_x
_atom_site_fract_y
_atom_site_fract_z
As1 As 0.003694(18) 0.696251(15) 0.152108(15)
C1 C -0.00630(19) 0.54112(16) 0.26587(15)
C2 C -0.16357(19) 0.75601(16) 0.07670(16)
C3 C 0.17952(18) 0.66524(17) 0.02669(16)
C4 C 0.2554(2) 0.54120(18) 0.01047(17)
C5 C 0.1056(2) 0.48685(18) 0.33210(17)
C6 C 0.2245(2) 0.76958(18) -0.05261(17)
C7 C -0.1207(2) 0.48384(18) 0.28086(18)
C8 C 0.1569(2) 0.81617(18) 0.24701(17)
C9 C 0.4222(2) 0.6245(2) -0.16540(18)
C10 C -0.1391(2) 0.76730(18) -0.04960(18)
C11 C 0.01736(19) 0.82262(16) 0.23030(15)
C12 C 0.3773(2) 0.5217(2) -0.08641(18)
C13 C 0.3461(2) 0.7483(2) -0.14949(18)
C14 C 0.1018(2) 0.37340(19) 0.41455(18)
C15 C -0.2609(2) 0.81095(19) -0.1052(2)
C16 C -0.3079(2) 0.78698(18) 0.14794(19)
C17 C -0.4028(2) 0.8437(2) -0.0352(2)
C18 C -0.1080(2) 0.91604(18) 0.27157(17)
C19 C -0.0117(3) 0.31675(19) 0.43082(19)
C20 C -0.4275(2) 0.83189(19) 0.0904(2)
C21 C 0.1703(2) 0.9053(2) 0.30429(18)
C22 C -0.1223(3) 0.3709(2) 0.3654(2)
C23 C 0.0463(2) 0.99946(19) 0.34392(18)
C24 C -0.0924(2) 1.00477(19) 0.32948(18)
H7 H 0.240(2) 0.752(2) 0.2239(19)
H8 H 0.259(3) 0.904(2) 0.316(2)
H9 H 0.054(3) 1.058(2) 0.382(2)
H10 H -0.177(2) 1.068(2) 0.358(2)
H11 H -0.200(2) 0.9207(19) 0.2621(19)
H12 H -0.192(2) 0.520(2) 0.235(2)
H13 H -0.197(3) 0.335(2) 0.376(2)
H14 H -0.013(3) 0.247(3) 0.485(2)
H15 H 0.174(3) 0.340(2) 0.456(2)
H16 H 0.180(2) 0.530(2) 0.319(2)
H17 H -0.326(2) 0.7755(19) 0.233(2)
H18 H -0.524(3) 0.854(2) 0.139(2)
H19 H -0.476(3) 0.870(2) -0.070(2)
H20 H -0.244(3) 0.817(2) -0.193(2)
H21 H -0.044(3) 0.745(2) -0.096(2)
H22 H 0.172(2) 0.854(2) -0.040(2)
H23 H 0.378(3) 0.816(2) -0.202(2)
H24 H 0.504(2) 0.612(2) -0.230(2)
H25 H 0.425(3) 0.439(2) -0.101(2)
H26 H 0.228(2) 0.472(2) 0.064(2)
Cl1 Cl 0.50249(7) 0.75694(5) -0.49763(5)
O1 O 0.51052(17) 0.98837(14) -0.31967(14)
O2 O 0.64192(18) 0.89655(15) -0.37269(15)
H3 H 0.516(3) 1.055(3) -0.379(2)
H4 H 0.603(3) 0.864(3) -0.402(3)
O5 O 0.4198(17) 0.5713(16) -0.6445(16)
H1 H 0.4413 0.6182 -0.6083
H2 H 0.4392 0.4928 -0.6110
O3? O 0.3721(3) 0.5402(3) -0.5972(3)
O4? O 0.4835(3) 0.6038(2) -0.6753(2)
H5? H 0.424(4) 0.468(4) -0.575(3)
H6? H 0.489(3) 0.646(3) -0.628(3)
loop_
_geom_bond_atom_site_label_1
_geom_bond_atom_site_label_2
_geom_bond_site_symmetry_1
_geom_bond_site_symmetry_2
As1 C1 1_555 1_555
C1 C5 1_555 1_555
C2 As1 1_555 1_555
C3 As1 1_555 1_555
C4 C3 1_555 1_555
C5 C14 1_555 1_555
C6 C3 1_555 1_555
C7 C1 1_555 1_555
C8 C11 1_555 1_555
C9 C12 1_555 1_555
C10 C2 1_555 1_555
C11 As1 1_555 1_555
C12 C4 1_555 1_555
C13 C6 1_555 1_555
C14 C19 1_555 1_555
C15 C10 1_555 1_555
C16 C2 1_555 1_555
C17 C15 1_555 1_555
C18 C11 1_555 1_555
C19 C22 1_555 1_555
C20 C16 1_555 1_555
C21 C8 1_555 1_555
C22 C7 1_555 1_555
C23 C21 1_555 1_555
C24 C18 1_555 1_555
O1 O2 1_555 1_555
O2 H4 1_555 1_555
O5 H1 1_555 1_555
H2 O5 1_555 1_555
H3 O1 1_555 1_555
H7 C8 1_555 1_555
H8 C21 1_555 1_555
H9 C23 1_555 1_555
H10 C24 1_555 1_555
H11 C18 1_555 1_555
H12 C7 1_555 1_555
H13 C22 1_555 1_555
H14 C19 1_555 1_555
H15 C14 1_555 1_555
H16 C5 1_555 1_555
H17 C16 1_555 1_555
H18 C20 1_555 1_555
H19 C17 1_555 1_555
H20 C15 1_555 1_555
H21 C10 1_555 1_555
H22 C6 1_555 1_555
H23 C13 1_555 1_555
H24 C9 1_555 1_555
H25 C12 1_555 1_555
H26 C4 1_555 1_555
C9 C13 1_555 1_555
C17 C20 1_555 1_555
C23 C24 1_555 1_555

#END
