
#######################################################################
#
#                 Cambridge Crystallographic Data Centre
#                                CCDC 
#
#######################################################################
#
# If this CIF has been generated from an entry in the Cambridge 
# Structural Database, then it will include bibliographic, chemical, 
# crystal, experimental, refinement or atomic coordinate data resulting 
# from the CCDC's data processing and validation procedures.
#
#######################################################################

data_CAZHIV
_chemical_formula_moiety         'C24 H20 P1 1+,Br1 1-,1.5(H2 O2),0.5(H2 O1)'
_chemical_name_systematic        
'Tetraphenylphosphonium bromide hydrogen peroxide solvate hemihydrate'
_symmetry_cell_setting           monoclinic
_symmetry_space_group_name_H-M   'P 21/n'
_symmetry_Int_Tables_number      14
_space_group_name_Hall           '-P 2yn'
loop_
_symmetry_equiv_pos_site_id
_symmetry_equiv_pos_as_xyz
1 x,y,z
2 1/2-x,1/2+y,1/2-z
3 -x,-y,-z
4 1/2+x,1/2-y,1/2+z
_cell_length_a                   10.8495(6)
_cell_length_b                   16.3505(9)
_cell_length_c                   12.8342(7)
_cell_angle_alpha                90
_cell_angle_beta                 91.889(1)
_cell_angle_gamma                90
_cell_volume                     2275.48
_exptl_crystal_colour            colorless
_exptl_crystal_description       needle
_cell_formula_units_Z            4
_chemical_properties_physical    Air-sensitive
loop_
_atom_site_label
_atom_site_type_symbol
_atom_site_fract_x
_atom_site_fract_y
_atom_site_fract_z
Br1 Br 0.5000 0.0000 1.0000
Br2 Br 0.0000 0.0000 1.0000
P1 P 0.25983(4) 0.58450(3) 0.06817(4)
C1 C 0.11877(17) 0.63596(12) 0.09798(17)
C2 C 0.0515(2) 0.61659(16) 0.1849(2)
C3 C -0.0545(2) 0.6620(2) 0.2055(3)
C4 C -0.0910(2) 0.72508(19) 0.1404(3)
C5 C -0.0245(3) 0.74464(19) 0.0565(3)
C6 C 0.0804(2) 0.70076(15) 0.0338(3)
C7 C 0.26829(18) 0.58291(12) -0.07087(15)
C8 C 0.3782(2) 0.60051(13) -0.11961(18)
C9 C 0.3835(3) 0.59200(14) -0.22746(19)
C10 C 0.2812(3) 0.56623(14) -0.2849(2)
C11 C 0.1729(3) 0.54932(14) -0.23784(18)
C12 C 0.1651(2) 0.55735(14) -0.13071(18)
C13 C 0.26448(18) 0.48064(12) 0.11425(16)
C14 C 0.2589(2) 0.46325(14) 0.22065(17)
C15 C 0.2653(2) 0.38306(15) 0.2548(2)
C16 C 0.2785(2) 0.31984(14) 0.1833(2)
C17 C 0.2851(2) 0.33664(14) 0.0789(2)
C18 C 0.27758(19) 0.41681(13) 0.04354(17)
C19 C 0.38765(16) 0.64131(11) 0.12384(15)
C20 C 0.47552(19) 0.60466(13) 0.18945(17)
C21 C 0.5708(2) 0.65213(15) 0.23369(18)
C22 C 0.57815(19) 0.73403(14) 0.21166(18)
C23 C 0.4923(2) 0.77068(14) 0.14409(19)
C24 C 0.39676(19) 0.72435(13) 0.10017(18)
H7 H 0.280(2) 0.4281(14) -0.028(2)
H8 H 0.252(2) 0.5074(12) 0.2713(18)
H9 H 0.093(2) 0.5456(13) -0.0972(17)
H10 H 0.282(2) 0.2687(15) 0.2076(19)
H11 H 0.292(2) 0.2971(14) 0.0354(18)
H12 H 0.4720(19) 0.5505(14) 0.2052(16)
H13 H 0.097(2) 0.5322(14) -0.2782(18)
H14 H 0.496(2) 0.8262(14) 0.1275(17)
H15 H 0.448(2) 0.6209(12) -0.0818(17)
H16 H 0.643(2) 0.7673(14) 0.2412(18)
H17 H 0.076(2) 0.5762(14) 0.2300(18)
H18 H 0.343(2) 0.7486(14) 0.0575(19)
H19 H 0.627(2) 0.6255(15) 0.276(2)
H20 H 0.129(3) 0.7133(17) -0.031(2)
H21 H 0.264(2) 0.3718(14) 0.326(2)
H22 H 0.460(2) 0.6045(14) -0.2547(19)
H23 H -0.165(3) 0.7553(18) 0.152(2)
H24 H 0.285(2) 0.5576(15) -0.355(2)
H25 H -0.092(3) 0.6500(18) 0.267(3)
H26 H -0.047(3) 0.7873(19) 0.023(2)
O1 O 0.28712(18) 0.14165(10) 1.02583(13)
O2 O 0.21221(17) 0.11866(11) 1.11267(13)
H1 H 0.345(3) 0.1052(18) 1.038(2)
H2 H 0.162(2) 0.0872(16) 1.080(2)
O3 O 0.2515(5) -0.1269(3) 0.9556(4)
H3 H 0.3132 -0.0956 0.9666
H4 H 0.1901 -0.0961 0.9664
O4? O 0.2936(4) -0.1211(3) 0.9085(4)
O5? O 0.2098(5) -0.1381(4) 0.9905(5)
H5? H 0.343(5) -0.097(4) 0.924(5)
H6? H 0.164(5) -0.102(4) 0.989(5)
loop_
_geom_bond_atom_site_label_1
_geom_bond_atom_site_label_2
_geom_bond_site_symmetry_1
_geom_bond_site_symmetry_2
P1 C1 1_555 1_555
C1 C2 1_555 1_555
C2 C3 1_555 1_555
C3 C4 1_555 1_555
C4 C5 1_555 1_555
C5 C6 1_555 1_555
C6 C1 1_555 1_555
C7 P1 1_555 1_555
C8 C7 1_555 1_555
C9 C8 1_555 1_555
C10 C9 1_555 1_555
C11 C10 1_555 1_555
C12 C7 1_555 1_555
C13 P1 1_555 1_555
C14 C13 1_555 1_555
C15 C14 1_555 1_555
C16 C15 1_555 1_555
C17 C16 1_555 1_555
C18 C13 1_555 1_555
C19 P1 1_555 1_555
C20 C19 1_555 1_555
C21 C20 1_555 1_555
C22 C21 1_555 1_555
C23 C22 1_555 1_555
C24 C19 1_555 1_555
O1 O2 1_555 1_555
O2 H2 1_555 1_555
H1 O1 1_555 1_555
O3 H3 1_555 1_555
H4 O3 1_555 1_555
H7 C18 1_555 1_555
H8 C14 1_555 1_555
H9 C12 1_555 1_555
H10 C16 1_555 1_555
H11 C17 1_555 1_555
H12 C20 1_555 1_555
H13 C11 1_555 1_555
H14 C23 1_555 1_555
H15 C8 1_555 1_555
H16 C22 1_555 1_555
H17 C2 1_555 1_555
H18 C24 1_555 1_555
H19 C21 1_555 1_555
H20 C6 1_555 1_555
H21 C15 1_555 1_555
H22 C9 1_555 1_555
H23 C4 1_555 1_555
H24 C10 1_555 1_555
H25 C3 1_555 1_555
H26 C5 1_555 1_555
C11 C12 1_555 1_555
C17 C18 1_555 1_555
C23 C24 1_555 1_555

#END
