
#######################################################################
#
#                 Cambridge Crystallographic Data Centre
#                                CCDC 
#
#######################################################################
#
# If this CIF has been generated from an entry in the Cambridge 
# Structural Database, then it will include bibliographic, chemical, 
# crystal, experimental, refinement or atomic coordinate data resulting 
# from the CCDC's data processing and validation procedures.
#
#######################################################################

data_CAZHAN
_chemical_formula_moiety         'C24 H20 P1 1+,Cl1 1-,1.85(H2 O2),0.15(H2 O1)'
_chemical_name_systematic        
'Tetraphenylphosphonium chloride hydrogen peroxide solvate hydrate'
_symmetry_cell_setting           triclinic
_symmetry_space_group_name_H-M   'P -1'
_symmetry_Int_Tables_number      2
_space_group_name_Hall           '-P 1'
loop_
_symmetry_equiv_pos_site_id
_symmetry_equiv_pos_as_xyz
1 x,y,z
2 -x,-y,-z
_cell_length_a                   9.6207(3)
_cell_length_b                   11.1229(3)
_cell_length_c                   11.5791(3)
_cell_angle_alpha                75.1020(10)
_cell_angle_beta                 73.2320(10)
_cell_angle_gamma                71.1840(10)
_cell_volume                     1104.44
_exptl_crystal_colour            colorless
_exptl_crystal_description       block
_cell_formula_units_Z            2
_chemical_properties_physical    Air-sensitive
loop_
_atom_site_label
_atom_site_type_symbol
_atom_site_fract_x
_atom_site_fract_y
_atom_site_fract_z
P1 P 0.00696(4) 0.69801(3) 0.15132(3)
C1 C -0.00433(15) 0.55124(13) 0.25874(12)
C2 C -0.15078(15) 0.75516(13) 0.07978(13)
C3 C 0.17605(14) 0.66672(13) 0.03424(12)
C4 C 0.25008(15) 0.54130(14) 0.01397(13)
C5 C 0.10570(16) 0.49671(14) 0.32811(13)
C6 C 0.22543(16) 0.77141(14) -0.04347(13)
C7 C -0.11598(17) 0.49071(14) 0.27193(14)
C8 C 0.15630(16) 0.80967(15) 0.24677(13)
C9 C 0.42215(16) 0.62450(16) -0.16082(13)
C10 C -0.12645(17) 0.76876(14) -0.04731(13)
C11 C 0.01665(15) 0.81817(13) 0.22597(12)
C12 C 0.37408(17) 0.52075(16) -0.08376(14)
C13 C 0.34845(17) 0.74926(16) -0.14136(14)
C14 C 0.10336(19) 0.38150(15) 0.40999(14)
C15 C -0.24825(19) 0.81194(15) -0.10268(15)
C16 C -0.29820(16) 0.78463(14) 0.15134(14)
C17 C -0.39356(18) 0.84369(15) -0.03192(16)
C18 C -0.11035(17) 0.91462(14) 0.26636(14)
C19 C -0.0084(2) 0.32265(15) 0.42380(14)
C20 C -0.41872(17) 0.83006(15) 0.09416(16)
C21 C 0.16766(18) 0.89887(16) 0.30585(14)
C22 C -0.11769(19) 0.37604(16) 0.35584(15)
C23 C 0.04157(19) 0.99546(15) 0.34407(13)
C24 C -0.09758(19) 1.00309(15) 0.32598(14)
H7 H 0.245(2) 0.7448(17) 0.2173(16)
H8 H 0.264(2) 0.8918(17) 0.3190(17)
H9 H 0.047(2) 1.0607(18) 0.3841(18)
H10 H -0.187(2) 1.0677(19) 0.3566(18)
H11 H -0.208(2) 0.9196(17) 0.2534(17)
H12 H -0.191(2) 0.5295(17) 0.2233(17)
H13 H -0.195(2) 0.3360(18) 0.3670(17)
H14 H -0.010(2) 0.248(2) 0.4810(19)
H15 H 0.177(2) 0.3441(19) 0.4574(18)
H16 H 0.1850(19) 0.5414(16) 0.3222(16)
H17 H -0.3163(18) 0.7750(16) 0.2390(17)
H18 H -0.474(2) 0.8759(17) -0.0681(17)
H19 H -0.520(2) 0.8497(18) 0.1460(18)
H20 H -0.232(2) 0.8195(18) -0.1884(19)
H21 H -0.027(2) 0.7447(17) -0.0954(17)
H22 H 0.1724(19) 0.8603(17) -0.0297(16)
H23 H 0.384(2) 0.8206(18) -0.1941(17)
H24 H 0.508(2) 0.6101(17) -0.2276(16)
H25 H 0.426(2) 0.4342(19) -0.0975(17)
H26 H 0.2127(19) 0.4671(17) 0.0702(16)
Cl1 Cl 0.49624(5) 0.76028(3) -0.49301(3)
O1 O 0.51466(13) 0.98755(11) -0.31573(11)
O2 O 0.64596(14) 0.89159(12) -0.36743(12)
H3 H 0.519(2) 1.054(2) -0.380(2)
H4 H 0.600(3) 0.856(2) -0.405(2)
O3 O 0.3735(3) 0.5404(3) -0.5956(2)
H1 H 0.4416 0.6174 -0.6058
H2 H 0.4428 0.4902 -0.6106
O4? O 0.4861(2) 0.6055(2) -0.67532(18)
O5? O 0.4235(18) 0.5697(19) -0.6433(17)
H5? H 0.432(4) 0.464(3) -0.568(3)
H6? H 0.489(3) 0.648(3) -0.625(3)
loop_
_geom_bond_atom_site_label_1
_geom_bond_atom_site_label_2
_geom_bond_site_symmetry_1
_geom_bond_site_symmetry_2
P1 C1 1_555 1_555
C1 C5 1_555 1_555
C2 P1 1_555 1_555
C3 P1 1_555 1_555
C4 C3 1_555 1_555
C5 C14 1_555 1_555
C6 C3 1_555 1_555
C7 C1 1_555 1_555
C8 C11 1_555 1_555
C9 C12 1_555 1_555
C10 C2 1_555 1_555
C11 P1 1_555 1_555
C12 C4 1_555 1_555
C13 C6 1_555 1_555
C14 C19 1_555 1_555
C15 C10 1_555 1_555
C16 C2 1_555 1_555
C17 C15 1_555 1_555
C18 C11 1_555 1_555
C19 C22 1_555 1_555
C20 C16 1_555 1_555
C21 C8 1_555 1_555
C22 C7 1_555 1_555
C23 C21 1_555 1_555
C24 C18 1_555 1_555
O1 O2 1_555 1_555
O2 H4 1_555 1_555
O3 H1 1_555 1_555
H2 O3 1_555 1_555
H3 O1 1_555 1_555
H7 C8 1_555 1_555
H8 C21 1_555 1_555
H9 C23 1_555 1_555
H10 C24 1_555 1_555
H11 C18 1_555 1_555
H12 C7 1_555 1_555
H13 C22 1_555 1_555
H14 C19 1_555 1_555
H15 C14 1_555 1_555
H16 C5 1_555 1_555
H17 C16 1_555 1_555
H18 C17 1_555 1_555
H19 C20 1_555 1_555
H20 C15 1_555 1_555
H21 C10 1_555 1_555
H22 C6 1_555 1_555
H23 C13 1_555 1_555
H24 C9 1_555 1_555
H25 C12 1_555 1_555
H26 C4 1_555 1_555
C9 C13 1_555 1_555
C17 C20 1_555 1_555
C23 C24 1_555 1_555

#END
