
#######################################################################
#
#                 Cambridge Crystallographic Data Centre
#                                CCDC 
#
#######################################################################
#
# If this CIF has been generated from an entry in the Cambridge 
# Structural Database, then it will include bibliographic, chemical, 
# crystal, experimental, refinement or atomic coordinate data resulting 
# from the CCDC's data processing and validation procedures.
#
#######################################################################

data_CAZHAN02
_chemical_formula_moiety         'C24 H20 P1 1+,Cl1 1-,1.73(H2 O2),0.27(H2 O1)'
_chemical_name_systematic        
'Tetraphenylphosphonium chloride hydrogen peroxide solvate hydrate'
_symmetry_cell_setting           triclinic
_symmetry_space_group_name_H-M   'P -1'
_symmetry_Int_Tables_number      2
_space_group_name_Hall           '-P 1'
loop_
_symmetry_equiv_pos_site_id
_symmetry_equiv_pos_as_xyz
1 x,y,z
2 -x,-y,-z
_cell_length_a                   9.6029(6)
_cell_length_b                   11.1280(7)
_cell_length_c                   11.5333(7)
_cell_angle_alpha                75.131(1)
_cell_angle_beta                 73.415(1)
_cell_angle_gamma                71.343(1)
_cell_volume                     1100.42
_exptl_crystal_colour            colorless
_exptl_crystal_description       block
_cell_formula_units_Z            2
_chemical_properties_physical    Air-sensitive
loop_
_atom_site_label
_atom_site_type_symbol
_atom_site_fract_x
_atom_site_fract_y
_atom_site_fract_z
P1 P 0.00645(4) 0.69747(4) 0.15240(3)
C1 C 0.01635(17) 0.81798(15) 0.22660(13)
C2 C 0.15578(18) 0.81040(17) 0.24727(15)
C3 C 0.1672(2) 0.90019(18) 0.30618(15)
C4 C 0.0410(2) 0.99637(17) 0.34415(15)
C5 C -0.0976(2) 1.00313(17) 0.32607(16)
C6 C -0.11077(19) 0.91423(16) 0.26674(15)
C7 C -0.00328(17) 0.55068(15) 0.26024(13)
C8 C -0.11482(19) 0.48925(17) 0.27462(16)
C9 C -0.1149(2) 0.37451(18) 0.35870(17)
C10 C -0.0043(2) 0.32121(17) 0.42598(16)
C11 C 0.1072(2) 0.38110(17) 0.41072(15)
C12 C 0.10814(19) 0.49641(17) 0.32891(14)
C13 C -0.15224(17) 0.75422(15) 0.08143(14)
C14 C -0.29904(18) 0.78247(17) 0.15350(16)
C15 C -0.4203(2) 0.82852(18) 0.09654(19)
C16 C -0.3961(2) 0.84317(18) -0.02988(19)
C17 C -0.2517(2) 0.81283(18) -0.10125(17)
C18 C -0.1288(2) 0.76890(16) -0.04617(15)
C19 C 0.17474(16) 0.66691(15) 0.03458(13)
C20 C 0.22405(18) 0.77202(16) -0.04323(15)
C21 C 0.34704(19) 0.75056(18) -0.14148(15)
C22 C 0.42107(19) 0.62612(18) -0.16116(15)
C23 C 0.3729(2) 0.52194(18) -0.08379(15)
C24 C 0.24897(18) 0.54204(16) 0.01424(14)
H7 H 0.244(2) 0.7471(19) 0.2193(18)
H8 H 0.262(2) 0.8936(19) 0.3201(18)
H9 H 0.049(2) 1.061(2) 0.3837(19)
H10 H -0.186(2) 1.068(2) 0.355(2)
H11 H -0.208(2) 0.919(2) 0.2537(19)
H12 H -0.190(2) 0.529(2) 0.2259(19)
H13 H -0.192(2) 0.335(2) 0.370(2)
H14 H -0.007(3) 0.245(2) 0.484(2)
H15 H 0.185(3) 0.345(2) 0.457(2)
H16 H 0.185(2) 0.5412(19) 0.3207(18)
H17 H -0.316(2) 0.7715(19) 0.2422(19)
H18 H -0.521(3) 0.846(2) 0.150(2)
H19 H -0.478(3) 0.874(2) -0.065(2)
H20 H -0.239(2) 0.821(2) -0.185(2)
H21 H -0.030(2) 0.7479(19) -0.0953(18)
H22 H 0.171(2) 0.8606(19) -0.0279(17)
H23 H 0.382(2) 0.823(2) -0.1938(19)
H24 H 0.505(2) 0.610(2) -0.2282(19)
H25 H 0.424(2) 0.436(2) -0.099(2)
H26 H 0.212(2) 0.4705(19) 0.0685(17)
Cl1 Cl 0.49349(5) 0.75957(4) -0.49388(4)
O1 O 0.48643(16) 1.01273(13) -0.68381(12)
O2 O 0.35629(16) 1.10859(14) -0.63191(13)
H1 H 0.481(3) 0.945(3) -0.620(2)
H2 H 0.403(3) 1.146(3) -0.593(3)
O3 O 0.3745(3) 0.5386(3) -0.5946(3)
H5 H 0.4441 0.6172 -0.6086
H6 H 0.4466 0.4901 -0.6132
O4? O 0.4867(3) 0.6035(3) -0.6743(2)
H3? H 0.490(4) 0.649(4) -0.620(4)
H4? H 0.428(5) 0.461(5) -0.564(4)
O5? O 0.4276(10) 0.5692(8) -0.6470(7)
loop_
_geom_bond_atom_site_label_1
_geom_bond_atom_site_label_2
_geom_bond_site_symmetry_1
_geom_bond_site_symmetry_2
P1 C1 1_555 1_555
C1 C2 1_555 1_555
C2 C3 1_555 1_555
C3 C4 1_555 1_555
C4 C5 1_555 1_555
C5 C6 1_555 1_555
C6 C1 1_555 1_555
C7 P1 1_555 1_555
C8 C7 1_555 1_555
C9 C8 1_555 1_555
C10 C9 1_555 1_555
C11 C10 1_555 1_555
C12 C7 1_555 1_555
C13 P1 1_555 1_555
C14 C13 1_555 1_555
C15 C14 1_555 1_555
C16 C15 1_555 1_555
C17 C16 1_555 1_555
C18 C13 1_555 1_555
C19 P1 1_555 1_555
C20 C19 1_555 1_555
C21 C20 1_555 1_555
C22 C21 1_555 1_555
C23 C22 1_555 1_555
C24 C19 1_555 1_555
O1 O2 1_555 1_555
O2 H2 1_555 1_555
H1 O1 1_555 1_555
O3 H5 1_555 1_555
H6 O3 1_555 1_555
H7 C2 1_555 1_555
H8 C3 1_555 1_555
H9 C4 1_555 1_555
H10 C5 1_555 1_555
H11 C6 1_555 1_555
H12 C8 1_555 1_555
H13 C9 1_555 1_555
H14 C10 1_555 1_555
H15 C11 1_555 1_555
H16 C12 1_555 1_555
H17 C14 1_555 1_555
H18 C15 1_555 1_555
H19 C16 1_555 1_555
H20 C17 1_555 1_555
H21 C18 1_555 1_555
H22 C20 1_555 1_555
H23 C21 1_555 1_555
H24 C22 1_555 1_555
H25 C23 1_555 1_555
H26 C24 1_555 1_555
C11 C12 1_555 1_555
C17 C18 1_555 1_555
C23 C24 1_555 1_555

#END
