
#######################################################################
#
#                 Cambridge Crystallographic Data Centre
#                                CCDC 
#
#######################################################################
#
# If this CIF has been generated from an entry in the Cambridge 
# Structural Database, then it will include bibliographic, chemical, 
# crystal, experimental, refinement or atomic coordinate data resulting 
# from the CCDC's data processing and validation procedures.
#
#######################################################################

data_CAZLEW
_chemical_formula_moiety         'C16 H36 N1 1+,C23 H22 Cl2 N2 O3,Cl1 1-'
_chemical_name_systematic        
'N,N,N-Tributylbutan-1-aminium chloride 1,3-bis(4-chloro-2-(3-hydroxy-3-methylbut-1-yn-1-yl)phenyl)urea'
_symmetry_cell_setting           monoclinic
_symmetry_space_group_name_H-M   'P 21/n'
_symmetry_Int_Tables_number      14
_space_group_name_Hall           '-P 2yn'
loop_
_symmetry_equiv_pos_site_id
_symmetry_equiv_pos_as_xyz
1 x,y,z
2 1/2-x,1/2+y,1/2-z
3 -x,-y,-z
4 1/2+x,1/2-y,1/2+z
_cell_length_a                   13.590(3)
_cell_length_b                   19.104(4)
_cell_length_c                   17.224(3)
_cell_angle_alpha                90
_cell_angle_beta                 110.86(3)
_cell_angle_gamma                90
_cell_volume                     4178.64
_exptl_crystal_colour            colorless
_exptl_crystal_description       block
_cell_formula_units_Z            4
loop_
_atom_site_label
_atom_site_type_symbol
_atom_site_fract_x
_atom_site_fract_y
_atom_site_fract_z
Cl1 Cl 0.23651(5) 0.24431(4) 0.49443(4)
Cl2 Cl 0.39164(6) -0.10348(5) 0.81331(5)
Cl3 Cl 0.28625(7) 0.10371(5) 0.04115(5)
O1 O 0.35537(16) 0.00351(11) 0.43220(12)
O2 O 0.00908(15) 0.18691(12) 0.45622(12)
H1 H 0.077(3) 0.207(2) 0.474(2)
O3 O 0.30789(16) 0.37922(12) 0.41540(15)
H2 H 0.285(3) 0.343(2) 0.443(3)
N1 N 0.30377(17) 0.07632(13) 0.51607(13)
H3 H 0.271(2) 0.1158(17) 0.5177(17)
N2 N 0.29931(18) 0.11473(13) 0.38879(14)
H4 H 0.291(2) 0.1571(18) 0.4074(19)
C1 C 0.3219(2) 0.05993(15) 0.44430(16)
C2 C 0.32485(18) 0.03137(14) 0.58448(15)
C3 C 0.25742(18) 0.03322(13) 0.63031(15)
C4 C 0.2789(2) -0.00783(14) 0.70128(16)
H5 H 0.2347 -0.0055 0.7332
C5 C 0.3653(2) -0.05205(15) 0.72489(16)
C6 C 0.43121(19) -0.05446(15) 0.68024(17)
H6 H 0.4904 -0.0848 0.6973
C7 C 0.4119(2) -0.01290(14) 0.61052(17)
H7 H 0.4583 -0.0146 0.5803
C8 C 0.16425(19) 0.07662(14) 0.60160(15)
C9 C 0.08778(19) 0.11188(14) 0.57057(15)
C10 C -0.00725(19) 0.15360(15) 0.52491(16)
C11 C -0.0292(3) 0.20861(19) 0.58015(19)
H8 H 0.0302 0.2413 0.5995
H9 H -0.0383 0.1858 0.6281
H10 H -0.0935 0.2342 0.5486
C12 C -0.1006(2) 0.10501(17) 0.4881(2)
H11 H -0.1618 0.1321 0.4537
H12 H -0.1168 0.0820 0.5330
H13 H -0.0835 0.0695 0.4538
C13 C 0.29901(19) 0.10964(15) 0.30712(16)
C14 C 0.32138(19) 0.17010(15) 0.27018(16)
C15 C 0.3167(2) 0.16725(16) 0.18766(17)
H14 H 0.3305 0.2081 0.1618
C16 C 0.2921(2) 0.10565(17) 0.14405(17)
C17 C 0.2718(2) 0.04539(17) 0.17989(17)
H15 H 0.2558 0.0029 0.1492
C18 C 0.2751(2) 0.04761(16) 0.26164(17)
H16 H 0.2608 0.0064 0.2866
C19 C 0.3496(2) 0.23434(16) 0.31580(17)
C20 C 0.3737(2) 0.28726(16) 0.35438(17)
C21 C 0.3998(2) 0.35374(15) 0.40174(19)
C22 C 0.4886(2) 0.34208(18) 0.4845(2)
H17 H 0.5060 0.3865 0.5148
H18 H 0.5507 0.3243 0.4746
H19 H 0.4662 0.3080 0.5174
C23 C 0.4282(3) 0.40901(18) 0.3498(3)
H20 H 0.3690 0.4156 0.2974
H21 H 0.4903 0.3937 0.3380
H22 H 0.4438 0.4533 0.3805
N3 N 0.95848(15) 0.27821(11) 0.24396(12)
C24 C 1.03070(19) 0.31650(14) 0.32077(15)
H23 H 1.0152 0.2996 0.3695
H24 H 1.1044 0.3034 0.3295
C25 C 1.0228(3) 0.39522(16) 0.31834(17)
H25 H 0.9487 0.4089 0.2882
H26 H 1.0658 0.4141 0.2873
C26 C 1.0598(2) 0.42726(17) 0.40438(18)
H27 H 1.1307 0.4089 0.4368
H28 H 1.0658 0.4786 0.3995
C27 C 0.9867(4) 0.4119(2) 0.4503(3)
H29 H 0.9162 0.4294 0.4182
H30 H 1.0128 0.4350 0.5047
H31 H 0.9836 0.3613 0.4581
C28 C 0.84386(18) 0.28911(15) 0.23358(15)
H32 H 0.8290 0.3400 0.2282
H33 H 0.7996 0.2669 0.1807
C29 C 0.80976(19) 0.26099(16) 0.30241(16)
H34 H 0.8128 0.2092 0.3026
H35 H 0.8589 0.2779 0.3567
C30 C 0.7000(2) 0.2840(2) 0.29108(19)
H36 H 0.6521 0.2694 0.2353
H37 H 0.6984 0.3358 0.2934
C31 C 0.6596(2) 0.25443(19) 0.3556(2)
H38 H 0.6598 0.2032 0.3531
H39 H 0.5877 0.2711 0.3445
H40 H 0.7052 0.2699 0.4110
C32 C 0.97127(19) 0.30714(15) 0.16607(14)
H41 H 0.9193 0.2836 0.1175
H42 H 0.9531 0.3575 0.1621
C33 C 1.07895(19) 0.29970(16) 0.15928(16)
H43 H 1.0945 0.2497 0.1540
H44 H 1.1337 0.3186 0.2098
C34 C 1.0794(2) 0.34001(16) 0.08290(18)
H45 H 1.0211 0.3228 0.0335
H46 H 1.0665 0.3902 0.0901
C35 C 1.1822(2) 0.33273(19) 0.0677(2)
H47 H 1.2408 0.3473 0.1175
H48 H 1.1803 0.3624 0.0207
H49 H 1.1920 0.2838 0.0549
C36 C 0.9872(2) 0.20125(14) 0.25595(16)
H50 H 1.0605 0.1957 0.2581
H51 H 0.9852 0.1864 0.3104
C37 C 0.9173(2) 0.15273(16) 0.1899(2)
H52 H 0.9132 0.1696 0.1345
H53 H 0.8453 0.1534 0.1917
C38 C 0.9587(5) 0.0785(2) 0.2022(3)
H54 H 0.9705 0.0617 0.2592
H55 H 1.0252 0.0745 0.1912
C39 C 0.8567(5) 0.0323(3) 0.1283(4)
H56 H 0.7891 0.0462 0.1321
H57 H 0.8672 -0.0181 0.1390
H58 H 0.8565 0.0428 0.0726
C40? C 0.9587(5) 0.0785(2) 0.2022(3)
C41? C 1.0142(6) 0.0467(4) 0.2940(5)
H59? H 1.0100 0.0745 0.1736
H60? H 0.8989 0.0474 0.1724
H61? H 1.0703 0.0783 0.3270
H62? H 1.0442 0.0008 0.2903
H63? H 0.9618 0.0418 0.3207
loop_
_geom_bond_atom_site_label_1
_geom_bond_atom_site_label_2
_geom_bond_site_symmetry_1
_geom_bond_site_symmetry_2
Cl2 C5 1_555 1_555
Cl3 C16 1_555 1_555
O1 C1 1_555 1_555
O2 H1 1_555 1_555
O3 H2 1_555 1_555
N1 H3 1_555 1_555
N2 H4 1_555 1_555
C1 N1 1_555 1_555
C2 N1 1_555 1_555
C3 C2 1_555 1_555
C4 C3 1_555 1_555
H5 C4 1_555 1_555
C5 C4 1_555 1_555
C6 C5 1_555 1_555
H6 C6 1_555 1_555
C7 C2 1_555 1_555
H7 C7 1_555 1_555
C8 C3 1_555 1_555
C9 C8 1_555 1_555
C10 O2 1_555 1_555
C11 C10 1_555 1_555
H8 C11 1_555 1_555
H9 C11 1_555 1_555
H10 C11 1_555 1_555
C12 C10 1_555 1_555
H11 C12 1_555 1_555
H12 C12 1_555 1_555
H13 C12 1_555 1_555
C13 N2 1_555 1_555
C14 C13 1_555 1_555
C15 C14 1_555 1_555
H14 C15 1_555 1_555
C16 C15 1_555 1_555
C17 C16 1_555 1_555
H15 C17 1_555 1_555
C18 C13 1_555 1_555
H16 C18 1_555 1_555
C19 C14 1_555 1_555
C20 C19 1_555 1_555
C21 O3 1_555 1_555
C22 C21 1_555 1_555
H17 C22 1_555 1_555
H18 C22 1_555 1_555
H19 C22 1_555 1_555
C23 C21 1_555 1_555
H20 C23 1_555 1_555
H21 C23 1_555 1_555
H22 C23 1_555 1_555
N3 C24 1_555 1_555
C24 H23 1_555 1_555
H24 C24 1_555 1_555
C25 C24 1_555 1_555
H25 C25 1_555 1_555
H26 C25 1_555 1_555
C26 C25 1_555 1_555
H27 C26 1_555 1_555
H28 C26 1_555 1_555
C27 C26 1_555 1_555
H29 C27 1_555 1_555
H30 C27 1_555 1_555
H31 C27 1_555 1_555
C28 N3 1_555 1_555
H32 C28 1_555 1_555
H33 C28 1_555 1_555
C29 C28 1_555 1_555
H34 C29 1_555 1_555
H35 C29 1_555 1_555
C30 C29 1_555 1_555
H36 C30 1_555 1_555
H37 C30 1_555 1_555
C31 C30 1_555 1_555
H38 C31 1_555 1_555
H39 C31 1_555 1_555
H40 C31 1_555 1_555
C32 N3 1_555 1_555
H41 C32 1_555 1_555
H42 C32 1_555 1_555
C33 C32 1_555 1_555
H43 C33 1_555 1_555
H44 C33 1_555 1_555
C34 C33 1_555 1_555
H45 C34 1_555 1_555
H46 C34 1_555 1_555
C35 C34 1_555 1_555
H47 C35 1_555 1_555
H48 C35 1_555 1_555
H49 C35 1_555 1_555
C36 N3 1_555 1_555
H50 C36 1_555 1_555
H51 C36 1_555 1_555
C37 C36 1_555 1_555
H52 C37 1_555 1_555
H53 C37 1_555 1_555
C38 C37 1_555 1_555
H54 C38 1_555 1_555
H55 C38 1_555 1_555
C39 C38 1_555 1_555
H56 C39 1_555 1_555
H57 C39 1_555 1_555
H58 C39 1_555 1_555
N2 C1 1_555 1_555
C6 C7 1_555 1_555
C9 C10 1_555 1_555
C17 C18 1_555 1_555
C20 C21 1_555 1_555

#END
