
#######################################################################
#
#                 Cambridge Crystallographic Data Centre
#                                CCDC 
#
#######################################################################
#
# If this CIF has been generated from an entry in the Cambridge 
# Structural Database, then it will include bibliographic, chemical, 
# crystal, experimental, refinement or atomic coordinate data resulting 
# from the CCDC's data processing and validation procedures.
#
#######################################################################

data_CAZMIB
_chemical_formula_moiety         'C22 H16 Br2 O3'
_chemical_name_systematic        
7-(3,5-Dibromophenyl)-11-hydroxy-7,10,10a,11-tetrahydrophenanthro[2,3-c]furan-8(7aH)-one
_symmetry_cell_setting           monoclinic
_symmetry_space_group_name_H-M   'C 2/c'
_symmetry_Int_Tables_number      15
_space_group_name_Hall           '-C 2yn'
loop_
_symmetry_equiv_pos_site_id
_symmetry_equiv_pos_as_xyz
1 x,y,z
2 -x,y,1/2-z
3 1/2+x,1/2+y,z
4 1/2-x,1/2+y,1/2-z
5 -x,-y,-z
6 x,-y,1/2+z
7 1/2-x,1/2-y,-z
8 1/2+x,1/2-y,1/2+z
_cell_length_a                   18.738(7)
_cell_length_b                   11.950(5)
_cell_length_c                   16.831(7)
_cell_angle_alpha                90
_cell_angle_beta                 93.958(9)
_cell_angle_gamma                90
_cell_volume                     3759.79
_exptl_crystal_colour            colorless
_exptl_crystal_description       prism
_cell_formula_units_Z            8
loop_
_atom_site_label
_atom_site_type_symbol
_atom_site_fract_x
_atom_site_fract_y
_atom_site_fract_z
Br1 Br 0.85325(4) 0.32428(6) 0.02199(4)
Br2 Br 0.95788(5) 0.75570(7) 0.10077(6)
O1 O 0.7790(3) 0.7103(3) 0.3158(3)
O2 O 0.6809(3) 0.6035(3) 0.3133(2)
O3 O 0.7303(3) 0.3275(4) 0.4404(2)
H1 H 0.6859(12) 0.311(7) 0.443(5)
C1 C 0.7989(3) 0.0846(4) 0.3933(3)
H2 H 0.7495 0.1026 0.3931
C2 C 0.8209(4) -0.0237(5) 0.4092(4)
H3 H 0.7867 -0.0798 0.4191
C3 C 0.8928(4) -0.0506(6) 0.4109(5)
H4 H 0.9077 -0.1251 0.4226
C4 C 0.9421(4) 0.0281(6) 0.3961(5)
H5 H 0.9912 0.0082 0.3977
C5 C 0.9215(3) 0.1392(5) 0.3784(4)
C6 C 0.8482(3) 0.1688(4) 0.3774(3)
C7 C 0.9728(3) 0.2222(5) 0.3615(5)
H6 H 1.0218 0.2022 0.3602
C8 C 0.9522(3) 0.3289(5) 0.3475(4)
H7 H 0.9874 0.3840 0.3389
C9 C 0.8789(3) 0.3605(4) 0.3454(3)
C10 C 0.8273(3) 0.2838(4) 0.3599(3)
C11 C 0.8625(3) 0.4822(4) 0.3225(3)
H8 H 0.8967 0.5308 0.3550
C12 C 0.7876(3) 0.5099(4) 0.3454(3)
H9 H 0.7894 0.5060 0.4049
C13 C 0.7338(3) 0.4238(4) 0.3157(3)
H10 H 0.7391 0.4110 0.2577
C14 C 0.7482(3) 0.3140(4) 0.3599(3)
H11 H 0.7185 0.2531 0.3339
C15 C 0.7517(4) 0.6196(5) 0.3228(3)
C16 C 0.6635(3) 0.4863(5) 0.3252(4)
H12 H 0.6259 0.4610 0.2849
H13 H 0.6465 0.4742 0.3789
C17 C 0.8750(3) 0.5018(4) 0.2344(3)
C18 C 0.8604(3) 0.4193(5) 0.1775(3)
H14 H 0.8412 0.3495 0.1927
C19 C 0.8737(3) 0.4385(5) 0.0987(3)
C20 C 0.9017(3) 0.5389(5) 0.0741(4)
H15 H 0.9103 0.5520 0.0199
C21 C 0.9165(3) 0.6190(5) 0.1316(4)
C22 C 0.9038(3) 0.6029(5) 0.2108(4)
H16 H 0.9145 0.6603 0.2487
loop_
_geom_bond_atom_site_label_1
_geom_bond_atom_site_label_2
_geom_bond_site_symmetry_1
_geom_bond_site_symmetry_2
Br1 C19 1_555 1_555
Br2 C21 1_555 1_555
O1 C15 1_555 1_555
O2 C15 1_555 1_555
O3 H1 1_555 1_555
C1 H2 1_555 1_555
C2 C1 1_555 1_555
H3 C2 1_555 1_555
C3 C2 1_555 1_555
H4 C3 1_555 1_555
C4 C3 1_555 1_555
H5 C4 1_555 1_555
C5 C4 1_555 1_555
C6 C1 1_555 1_555
C7 C5 1_555 1_555
H6 C7 1_555 1_555
C8 C7 1_555 1_555
H7 C8 1_555 1_555
C9 C8 1_555 1_555
C10 C6 1_555 1_555
C11 C9 1_555 1_555
H8 C11 1_555 1_555
C12 C11 1_555 1_555
H9 C12 1_555 1_555
C13 C12 1_555 1_555
H10 C13 1_555 1_555
C14 O3 1_555 1_555
H11 C14 1_555 1_555
C15 C12 1_555 1_555
C16 O2 1_555 1_555
H12 C16 1_555 1_555
H13 C16 1_555 1_555
C17 C11 1_555 1_555
C18 C17 1_555 1_555
H14 C18 1_555 1_555
C19 C18 1_555 1_555
C20 C19 1_555 1_555
H15 C20 1_555 1_555
C21 C20 1_555 1_555
C22 C17 1_555 1_555
H16 C22 1_555 1_555
C5 C6 1_555 1_555
C9 C10 1_555 1_555
C10 C14 1_555 1_555
C13 C14 1_555 1_555
C13 C16 1_555 1_555
C21 C22 1_555 1_555

#END
