
#######################################################################
#
#                 Cambridge Crystallographic Data Centre
#                                CCDC 
#
#######################################################################
#
# If this CIF has been generated from an entry in the Cambridge 
# Structural Database, then it will include bibliographic, chemical, 
# crystal, experimental, refinement or atomic coordinate data resulting 
# from the CCDC's data processing and validation procedures.
#
#######################################################################

data_CAZPAW
_chemical_formula_moiety         'C18 H14 N2 O2,6(H2 O1)'
_chemical_name_systematic        
'4-((4-(Pyridin-4-yl)pyridinium-1-yl)methyl)benzoate hexahydrate'
_symmetry_cell_setting           monoclinic
_symmetry_space_group_name_H-M   'P 21/n'
_symmetry_Int_Tables_number      14
_space_group_name_Hall           '-P 2yn'
loop_
_symmetry_equiv_pos_site_id
_symmetry_equiv_pos_as_xyz
1 x,y,z
2 1/2-x,1/2+y,1/2-z
3 -x,-y,-z
4 1/2+x,1/2-y,1/2+z
_cell_length_a                   7.1632(18)
_cell_length_b                   18.563(4)
_cell_length_c                   15.136(4)
_cell_angle_alpha                90
_cell_angle_beta                 90.10(2)
_cell_angle_gamma                90
_cell_volume                     2012.64
_exptl_crystal_colour            colorless
_exptl_crystal_description       column-like
_cell_formula_units_Z            4
loop_
_atom_site_label
_atom_site_type_symbol
_atom_site_fract_x
_atom_site_fract_y
_atom_site_fract_z
O1 O -0.0634(3) -0.10136(11) 0.21876(16)
O3 O -0.2809(3) -0.01698(10) 0.20512(14)
N1 N 0.3611(3) 0.21137(10) -0.01057(13)
N2 N 0.2284(4) 0.58713(12) 0.01844(19)
C1 C -0.1172(4) -0.04082(13) 0.19232(17)
C2 C 0.0176(3) 0.00603(11) 0.14168(15)
C3 C -0.0500(3) 0.06131(12) 0.08695(15)
H13 H -0.1802 0.0709 0.0847
C4 C 0.0716(3) 0.10191(12) 0.03630(16)
H14 H 0.0239 0.1387 -0.0011
C5 C 0.2644(3) 0.08930(11) 0.03971(14)
C6 C 0.3317(3) 0.03447(11) 0.09301(16)
H15 H 0.4619 0.0248 0.0951
C7 C 0.2092(3) -0.00650(11) 0.14353(15)
H16 H 0.2572 -0.0438 0.1800
C8 C 0.3980(4) 0.13250(12) -0.01724(18)
H17 H 0.5278 0.1225 0.0016
H18 H 0.3848 0.1172 -0.0796
C9 C 0.2950(4) 0.24775(13) -0.08014(17)
H19 H 0.2689 0.2229 -0.1336
C10 C 0.2645(4) 0.32073(13) -0.07515(17)
H20 H 0.2198 0.3460 -0.1255
C11 C 0.2983(3) 0.35788(12) 0.00273(16)
C12 C 0.3615(4) 0.31812(13) 0.07402(17)
H21 H 0.3842 0.3412 0.1290
C13 C 0.3915(4) 0.24530(13) 0.06548(17)
H22 H 0.4349 0.2186 0.1150
C14 C 0.2711(3) 0.43735(12) 0.00826(17)
C15 C 0.2743(4) 0.47984(14) -0.06671(19)
H23 H 0.2907 0.4586 -0.1233
C16 C 0.2535(5) 0.55374(15) -0.0586(2)
H24 H 0.2573 0.5822 -0.1107
C17 C 0.2255(5) 0.54602(16) 0.0894(2)
H25 H 0.2097 0.5687 0.1452
C18 C 0.2439(5) 0.47196(15) 0.0877(2)
H26 H 0.2379 0.4450 0.1410
O2 O 0.2455(3) 0.17555(11) 0.25267(15)
H1 H 0.1549 0.1874 0.2187
H2 H 0.2628 0.2092 0.2904
O4 O 0.6141(3) 0.12672(11) 0.22873(14)
H3 H 0.4962 0.1365 0.2296
H4 H 0.6237 0.0833 0.2097
O5 O 0.8808(3) 0.23153(11) 0.17805(15)
H5 H 0.8197 0.2021 0.2098
H6 H 0.8239 0.2373 0.1289
O6 O 0.3141(4) 0.23914(11) 0.50086(15)
H7 H 0.3291 0.1942 0.4905
H8 H 0.3133 0.2617 0.4519
O7 O 0.4986(3) 0.13644(11) 0.74968(14)
H9 H 0.4264 0.1018 0.7617
H10 H 0.4376 0.1713 0.7277
O8 O 0.7957(3) 0.19171(10) 0.83788(15)
H11 H 0.6982 0.1720 0.8164
H12 H 0.8904 0.1667 0.8214
loop_
_geom_bond_atom_site_label_1
_geom_bond_atom_site_label_2
_geom_bond_site_symmetry_1
_geom_bond_site_symmetry_2
O1 C1 1_555 1_555
O2 H1 1_555 1_555
H2 O2 1_555 1_555
O3 C1 1_555 1_555
O4 H3 1_555 1_555
H4 O4 1_555 1_555
O5 H5 1_555 1_555
H6 O5 1_555 1_555
O6 H7 1_555 1_555
H8 O6 1_555 1_555
O7 H9 1_555 1_555
H10 O7 1_555 1_555
O8 H11 1_555 1_555
H12 O8 1_555 1_555
N1 C8 1_555 1_555
N2 C16 1_555 1_555
C1 C2 1_555 1_555
C2 C3 1_555 1_555
C3 H13 1_555 1_555
C4 C3 1_555 1_555
H14 C4 1_555 1_555
C5 C4 1_555 1_555
C6 C5 1_555 1_555
H15 C6 1_555 1_555
C7 C2 1_555 1_555
H16 C7 1_555 1_555
C8 C5 1_555 1_555
H17 C8 1_555 1_555
H18 C8 1_555 1_555
C9 N1 1_555 1_555
H19 C9 1_555 1_555
C10 C9 1_555 1_555
H20 C10 1_555 1_555
C11 C10 1_555 1_555
C12 C11 1_555 1_555
H21 C12 1_555 1_555
C13 N1 1_555 1_555
H22 C13 1_555 1_555
C14 C11 1_555 1_555
C15 C14 1_555 1_555
H23 C15 1_555 1_555
C16 C15 1_555 1_555
H24 C16 1_555 1_555
C17 N2 1_555 1_555
H25 C17 1_555 1_555
C18 C14 1_555 1_555
H26 C18 1_555 1_555
C6 C7 1_555 1_555
C12 C13 1_555 1_555
C17 C18 1_555 1_555

#END
