
#######################################################################
#
#                 Cambridge Crystallographic Data Centre
#                                CCDC 
#
#######################################################################
#
# If this CIF has been generated from an entry in the Cambridge 
# Structural Database, then it will include bibliographic, chemical, 
# crystal, experimental, refinement or atomic coordinate data resulting 
# from the CCDC's data processing and validation procedures.
#
#######################################################################

data_CAZRIH
_chemical_name_common            
'4,4 -bis[2-(p-n-butylphenyl)-1-o-carboran-1-yl]biphenyl hexane solvate'
_chemical_formula_moiety         'C36 H54 B20,C6 H14'
_chemical_name_systematic        
"1,1'-([1,1'-biphenyl]-4,4'-diyl)-2,2'-(4-butylphenyl)-bis(1,2-dicarba-closo-dodecaborane(10)) hexane solvate"
_symmetry_cell_setting           monoclinic
_symmetry_space_group_name_H-M   'P 2/n'
_symmetry_Int_Tables_number      13
_space_group_name_Hall           '-P 2yac'
loop_
_symmetry_equiv_pos_site_id
_symmetry_equiv_pos_as_xyz
1 x,y,z
2 1/2-x,y,1/2-z
3 -x,-y,-z
4 1/2+x,-y,1/2+z
_cell_length_a                   10.0759(17)
_cell_length_b                   7.9160(14)
_cell_length_c                   31.471(6)
_cell_angle_alpha                90
_cell_angle_beta                 98.610(13)
_cell_angle_gamma                90
_cell_volume                     2481.86
_exptl_crystal_colour            colorless
_exptl_crystal_description       Cubic
_cell_formula_units_Z            2
loop_
_atom_site_label
_atom_site_type_symbol
_atom_site_fract_x
_atom_site_fract_y
_atom_site_fract_z
C1 C 0.1868(2) 0.3169(3) 0.35372(7)
C2 C 0.1974(2) 0.4593(3) 0.39539(7)
C3 C 0.0730(2) 0.5569(3) 0.40081(8)
C4 C 0.0370(3) 0.7021(4) 0.37762(9)
H1 H 0.0915 0.7430 0.3586
C5 C -0.0799(3) 0.7872(4) 0.38258(10)
H2 H -0.1020 0.8844 0.3665
C6 C -0.1639(3) 0.7337(4) 0.41020(10)
C7 C -0.1254(3) 0.5911(4) 0.43415(10)
H3 H -0.1791 0.5524 0.4537
C8 C -0.0096(3) 0.5046(4) 0.42978(9)
H4 H 0.0137 0.4094 0.4466
C9 C 0.0557(2) 0.3089(3) 0.32345(7)
C10 C 0.0526(3) 0.3522(4) 0.28067(8)
H5 H 0.1317 0.3847 0.2710
C11 C -0.0652(3) 0.3481(4) 0.25216(8)
H6 H -0.0638 0.3757 0.2235
C12 C -0.1864(2) 0.3035(3) 0.26536(8)
C13 C -0.1834(3) 0.2626(3) 0.30839(8)
H7 H -0.2630 0.2343 0.3183
C14 C -0.0647(2) 0.2630(3) 0.33680(8)
H8 H -0.0654 0.2321 0.3653
C15 C -0.2914(3) 0.8264(5) 0.41544(13)
H9 H -0.3152 0.9004 0.3909
H10 H -0.3631 0.7446 0.4152
C16 C -0.2822(4) 0.9296(5) 0.45579(14)
H11 H -0.3712 0.9717 0.4581
H12 H -0.2557 0.8552 0.4801
C17 C -0.1900(4) 1.0728(5) 0.45957(13)
H13 H -0.2180 1.1503 0.4360
H14 H -0.1011 1.0322 0.4566
C18 C -0.1821(4) 1.1688(5) 0.50167(13)
H15 H -0.2685 1.2155 0.5041
H16 H -0.1176 1.2584 0.5023
H17 H -0.1551 1.0932 0.5252
B1 B 0.3379(3) 0.3058(5) 0.33520(10)
H18 H 0.3478 0.2806 0.3014
B2 B 0.2771(3) 0.5016(4) 0.35153(10)
H19 H 0.2459 0.6036 0.3284
B3 B 0.4469(3) 0.4459(5) 0.36744(11)
H20 H 0.5288 0.5118 0.3548
B4 B 0.4538(3) 0.2272(5) 0.37826(12)
H21 H 0.5407 0.1505 0.3728
B5 B 0.2875(3) 0.1454(4) 0.36866(11)
H22 H 0.2649 0.0162 0.3569
B6 B 0.3551(3) 0.5442(5) 0.40484(10)
H23 H 0.3764 0.6738 0.4165
B7 B 0.4647(3) 0.3731(5) 0.42145(11)
H24 H 0.5580 0.3910 0.4441
B8 B 0.3645(3) 0.1877(5) 0.42189(11)
H25 H 0.3927 0.0847 0.4449
B9 B 0.1955(3) 0.2443(4) 0.40561(9)
H26 H 0.1116 0.1801 0.4176
B10 B 0.3042(3) 0.3840(5) 0.43808(10)
H27 H 0.2921 0.4093 0.4717
C1A C -0.6868(2) 0.3169(3) 0.14628(7)
C2A C -0.6974(2) 0.4593(3) 0.10461(7)
C3A C -0.5730(2) 0.5569(3) 0.09919(8)
C4A C -0.5370(3) 0.7021(4) 0.12238(9)
H1A H -0.5915 0.7430 0.1414
C5A C -0.4201(3) 0.7872(4) 0.11742(10)
H2A H -0.3980 0.8844 0.1335
C6A C -0.3361(3) 0.7337(4) 0.08980(10)
C7A C -0.3746(3) 0.5911(4) 0.06585(10)
H3A H -0.3209 0.5524 0.0463
C8A C -0.4904(3) 0.5046(4) 0.07022(9)
H4A H -0.5137 0.4094 0.0534
C9A C -0.5557(2) 0.3089(3) 0.17655(7)
C10A C -0.5526(3) 0.3522(4) 0.21933(8)
H5A H -0.6317 0.3847 0.2290
C11A C -0.4348(3) 0.3481(4) 0.24784(8)
H6A H -0.4362 0.3757 0.2765
C12A C -0.3136(2) 0.3035(3) 0.23464(8)
C13A C -0.3166(3) 0.2626(3) 0.19161(8)
H7A H -0.2370 0.2343 0.1817
C14A C -0.4353(2) 0.2630(3) 0.16320(8)
H8A H -0.4346 0.2321 0.1347
C15A C -0.2086(3) 0.8264(5) 0.08456(13)
H9A H -0.1848 0.9004 0.1091
H10A H -0.1369 0.7446 0.0848
C16A C -0.2178(4) 0.9296(5) 0.04421(14)
H11A H -0.1288 0.9717 0.0419
H12A H -0.2443 0.8552 0.0199
C17A C -0.3100(4) 1.0728(5) 0.04043(13)
H13A H -0.2820 1.1503 0.0640
H14A H -0.3989 1.0322 0.0434
C18A C -0.3179(4) 1.1688(5) -0.00167(13)
H15A H -0.2315 1.2155 -0.0041
H16A H -0.3824 1.2584 -0.0023
H17A H -0.3449 1.0932 -0.0252
B1A B -0.8379(3) 0.3058(5) 0.16480(10)
H18A H -0.8478 0.2806 0.1986
B2A B -0.7771(3) 0.5016(4) 0.14847(10)
H19A H -0.7459 0.6036 0.1716
B3A B -0.9469(3) 0.4459(5) 0.13256(11)
H20A H -1.0288 0.5118 0.1452
B4A B -0.9538(3) 0.2272(5) 0.12174(12)
H21A H -1.0407 0.1505 0.1272
B5A B -0.7875(3) 0.1454(4) 0.13134(11)
H22A H -0.7649 0.0162 0.1431
B6A B -0.8551(3) 0.5442(5) 0.09516(10)
H23A H -0.8764 0.6738 0.0835
B7A B -0.9647(3) 0.3731(5) 0.07855(11)
H24A H -1.0580 0.3910 0.0559
B8A B -0.8645(3) 0.1877(5) 0.07811(11)
H25A H -0.8927 0.0847 0.0551
B9A B -0.6955(3) 0.2443(4) 0.09439(9)
H26A H -0.6116 0.1801 0.0824
B10A B -0.8042(3) 0.3840(5) 0.06192(10)
H27A H -0.7921 0.4093 0.0283
C19? C 0.4554(10) 0.8356(11) 0.2697(3)
H28? H 0.4289 0.9394 0.2551
H29? H 0.4216 0.8329 0.2967
H30? H 0.4195 0.7419 0.2523
C20? C 0.6257(17) 0.8226(12) 0.2788(4)
H31? H 0.6654 0.9195 0.2947
H32? H 0.6557 0.7200 0.2942
C21? C 0.652(2) 0.8208(8) 0.2424(4)
H33? H 0.6191 0.9206 0.2263
H34? H 0.6189 0.7199 0.2268
loop_
_geom_bond_atom_site_label_1
_geom_bond_atom_site_label_2
_geom_bond_site_symmetry_1
_geom_bond_site_symmetry_2
C1 C2 1_555 1_555
C2 C3 1_555 1_555
C3 C4 1_555 1_555
C4 H1 1_555 1_555
C5 C4 1_555 1_555
H2 C5 1_555 1_555
C6 C5 1_555 1_555
C7 C6 1_555 1_555
H3 C7 1_555 1_555
C8 C3 1_555 1_555
H4 C8 1_555 1_555
C9 C1 1_555 1_555
C10 C9 1_555 1_555
H5 C10 1_555 1_555
C11 C10 1_555 1_555
H6 C11 1_555 1_555
C12 C11 1_555 1_555
C13 C12 1_555 1_555
H7 C13 1_555 1_555
C14 C9 1_555 1_555
H8 C14 1_555 1_555
C15 C6 1_555 1_555
H9 C15 1_555 1_555
H10 C15 1_555 1_555
C16 C15 1_555 1_555
H11 C16 1_555 1_555
H12 C16 1_555 1_555
C17 C16 1_555 1_555
H13 C17 1_555 1_555
H14 C17 1_555 1_555
C18 C17 1_555 1_555
H15 C18 1_555 1_555
H16 C18 1_555 1_555
H17 C18 1_555 1_555
B1 C1 1_555 1_555
H18 B1 1_555 1_555
B2 C1 1_555 1_555
H19 B2 1_555 1_555
B3 B1 1_555 1_555
H20 B3 1_555 1_555
B4 B1 1_555 1_555
H21 B4 1_555 1_555
B5 C1 1_555 1_555
H22 B5 1_555 1_555
B6 C2 1_555 1_555
H23 B6 1_555 1_555
B7 B3 1_555 1_555
H24 B7 1_555 1_555
B8 B4 1_555 1_555
H25 B8 1_555 1_555
B9 C1 1_555 1_555
H26 B9 1_555 1_555
B10 C2 1_555 1_555
H27 B10 1_555 1_555
C1A C2A 1_555 1_555
C2A C3A 1_555 1_555
C3A C4A 1_555 1_555
C4A H1A 1_555 1_555
C5A C4A 1_555 1_555
H2A C5A 1_555 1_555
C6A C5A 1_555 1_555
C7A C6A 1_555 1_555
H3A C7A 1_555 1_555
C8A C3A 1_555 1_555
H4A C8A 1_555 1_555
C9A C1A 1_555 1_555
C10A C9A 1_555 1_555
H5A C10A 1_555 1_555
C11A C10A 1_555 1_555
H6A C11A 1_555 1_555
C12A C12 1_555 1_555
C13A C12A 1_555 1_555
H7A C13A 1_555 1_555
C14A C9A 1_555 1_555
H8A C14A 1_555 1_555
C15A C6A 1_555 1_555
H9A C15A 1_555 1_555
H10A C15A 1_555 1_555
C16A C15A 1_555 1_555
H11A C16A 1_555 1_555
H12A C16A 1_555 1_555
C17A C16A 1_555 1_555
H13A C17A 1_555 1_555
H14A C17A 1_555 1_555
C18A C17A 1_555 1_555
H15A C18A 1_555 1_555
H16A C18A 1_555 1_555
H17A C18A 1_555 1_555
B1A C1A 1_555 1_555
H18A B1A 1_555 1_555
B2A C1A 1_555 1_555
H19A B2A 1_555 1_555
B3A B1A 1_555 1_555
H20A B3A 1_555 1_555
B4A B1A 1_555 1_555
H21A B4A 1_555 1_555
B5A C1A 1_555 1_555
H22A B5A 1_555 1_555
B6A C2A 1_555 1_555
H23A B6A 1_555 1_555
B7A B3A 1_555 1_555
H24A B7A 1_555 1_555
B8A B4A 1_555 1_555
H25A B8A 1_555 1_555
B9A C1A 1_555 1_555
H26A B9A 1_555 1_555
B10A C2A 1_555 1_555
H27A B10A 1_555 1_555
C2 B2 1_555 1_555
C2 B9 1_555 1_555
C7 C8 1_555 1_555
C13 C14 1_555 1_555
B1 B2 1_555 1_555
B1 B5 1_555 1_555
B2 B3 1_555 1_555
B2 B6 1_555 1_555
B3 B4 1_555 1_555
B3 B6 1_555 1_555
B4 B5 1_555 1_555
B4 B7 1_555 1_555
B5 B8 1_555 1_555
B5 B9 1_555 1_555
B6 B7 1_555 1_555
B6 B10 1_555 1_555
B7 B8 1_555 1_555
B7 B10 1_555 1_555
B8 B9 1_555 1_555
B8 B10 1_555 1_555
B9 B10 1_555 1_555
C2A B2A 1_555 1_555
C2A B9A 1_555 1_555
C7A C8A 1_555 1_555
C11A C12A 1_555 1_555
C13A C14A 1_555 1_555
B1A B2A 1_555 1_555
B1A B5A 1_555 1_555
B2A B3A 1_555 1_555
B2A B6A 1_555 1_555
B3A B4A 1_555 1_555
B3A B6A 1_555 1_555
B4A B5A 1_555 1_555
B4A B7A 1_555 1_555
B5A B8A 1_555 1_555
B5A B9A 1_555 1_555
B6A B7A 1_555 1_555
B6A B10A 1_555 1_555
B7A B8A 1_555 1_555
B7A B10A 1_555 1_555
B8A B9A 1_555 1_555
B8A B10A 1_555 1_555
B9A B10A 1_555 1_555

#END
