
#######################################################################
#
#                 Cambridge Crystallographic Data Centre
#                                CCDC 
#
#######################################################################
#
# If this CIF has been generated from an entry in the Cambridge 
# Structural Database, then it will include bibliographic, chemical, 
# crystal, experimental, refinement or atomic coordinate data resulting 
# from the CCDC's data processing and validation procedures.
#
#######################################################################

data_CAZYUY
_chemical_formula_moiety         'C45 H28 F6 N2 S2'
_chemical_name_systematic        
1,2-bis(5-(4-Phenylquinolinyl)-2-methyl-3-thienyl)perfluorocyclopentene
_symmetry_cell_setting           triclinic
_symmetry_space_group_name_H-M   'P -1'
_symmetry_Int_Tables_number      2
_space_group_name_Hall           '-P 1'
loop_
_symmetry_equiv_pos_site_id
_symmetry_equiv_pos_as_xyz
1 x,y,z
2 -x,-y,-z
_cell_length_a                   11.9781(11)
_cell_length_b                   12.6453(11)
_cell_length_c                   12.7470(11)
_cell_angle_alpha                91.735(2)
_cell_angle_beta                 99.010(2)
_cell_angle_gamma                104.966(2)
_cell_volume                     1837.17
_exptl_crystal_colour            colorless
_exptl_crystal_description       plate
_cell_formula_units_Z            2
loop_
_atom_site_label
_atom_site_type_symbol
_atom_site_fract_x
_atom_site_fract_y
_atom_site_fract_z
S1 S 0.30897(4) 0.66092(4) 0.10608(4)
S2 S 0.62511(5) 0.91481(5) 0.46272(4)
F1 F 0.15555(10) 1.01563(10) 0.10353(11)
F2 F 0.29195(11) 1.05007(10) 0.00711(10)
F3 F 0.25731(12) 1.18132(11) 0.23600(12)
F4 F 0.33260(11) 1.24409(10) 0.09860(12)
F5 F 0.47416(12) 1.22157(10) 0.31977(10)
F6 F 0.52911(10) 1.20185(10) 0.16767(11)
N1 N 0.10467(14) 0.48807(13) 0.11990(13)
N2 N 0.86151(15) 1.02942(14) 0.55561(14)
C1 C 0.33801(16) 0.97712(16) 0.17198(16)
C2 C 0.43306(17) 1.03882(16) 0.23936(16)
C3 C 0.30218(16) 0.85768(16) 0.14882(15)
C4 C 0.18836(17) 0.78910(16) 0.15408(16)
H1 H 0.1261 0.8162 0.1692
C5 C 0.17918(17) 0.68029(16) 0.13485(16)
C6 C 0.37709(17) 0.79923(17) 0.12165(16)
C7 C 0.50136(18) 0.84063(19) 0.10548(19)
H2 H 0.5142 0.9145 0.0823
H3 H 0.5169 0.7930 0.0517
H4 H 0.5536 0.8412 0.1719
C8 C 0.08179(17) 0.58355(16) 0.13716(16)
C9 C -0.02778(17) 0.59255(16) 0.15923(16)
H5 H -0.0403 0.6622 0.1694
C10 C -0.11552(17) 0.50032(16) 0.16577(16)
C11 C -0.09307(17) 0.39548(16) 0.14884(16)
C12 C 0.01879(17) 0.39504(16) 0.12550(16)
C13 C -0.17726(18) 0.29403(17) 0.15017(16)
H6 H -0.2519 0.2933 0.1649
C14 C -0.1514(2) 0.19742(17) 0.13039(17)
H7 H -0.2083 0.1307 0.1314
C15 C -0.0402(2) 0.19686(18) 0.10853(18)
H8 H -0.0229 0.1297 0.0956
C16 C 0.04321(19) 0.29342(17) 0.10587(18)
H9 H 0.1173 0.2921 0.0909
C17 C -0.23148(17) 0.50845(16) 0.18814(18)
C18 C -0.30443(19) 0.54857(18) 0.1136(2)
H10 H -0.2808 0.5700 0.0488
C19 C -0.4121(2) 0.5572(2) 0.1344(2)
H11 H -0.4614 0.5841 0.0834
C20 C -0.4471(2) 0.5266(2) 0.2290(3)
H12 H -0.5201 0.5327 0.2427
C21 C -0.3758(2) 0.4870(2) 0.3038(2)
H13 H -0.3996 0.4665 0.3687
C22 C -0.2683(2) 0.47753(19) 0.2832(2)
H14 H -0.2199 0.4498 0.3343
C23 C 0.27363(16) 1.04889(17) 0.11003(17)
C24 C 0.32497(19) 1.16357(17) 0.16608(18)
C25 C 0.44387(18) 1.15867(17) 0.22657(17)
C26 C 0.52108(17) 1.00618(16) 0.31539(16)
C27 C 0.64133(17) 1.06960(17) 0.33839(16)
H15 H 0.6709 1.1325 0.3033
C28 C 0.70825(17) 1.03050(17) 0.41534(16)
C29 C 0.49964(18) 0.91897(17) 0.37861(16)
C30 C 0.38766(19) 0.83588(18) 0.38752(17)
H16 H 0.3227 0.8688 0.3727
H17 H 0.3923 0.8113 0.4590
H18 H 0.3755 0.7737 0.3366
C31 C 0.82960(18) 1.07731(17) 0.46904(16)
C32 C 0.90394(18) 1.16919(17) 0.43270(17)
H19 H 0.8777 1.1985 0.3696
C33 C 1.01426(18) 1.21622(17) 0.48864(16)
C34 C 1.04919(18) 1.17091(17) 0.58592(16)
C35 C 0.97015(18) 1.07583(17) 0.61434(16)
C36 C 1.15569(18) 1.21711(17) 0.65705(17)
H20 H 1.2088 1.2805 0.6402
C37 C 1.1817(2) 1.17057(19) 0.74931(19)
H21 H 1.2518 1.2031 0.7964
C38 C 1.1051(2) 1.07477(19) 0.77498(18)
H22 H 1.1250 1.0427 0.8384
C39 C 1.00198(19) 1.02763(19) 0.70891(17)
H23 H 0.9518 0.9627 0.7264
C40 C 1.09463(18) 1.31226(17) 0.44982(16)
C41 C 1.0602(2) 1.40723(19) 0.42938(18)
H24 H 0.9850 1.4109 0.4389
C42 C 1.1356(2) 1.4966(2) 0.3951(2)
H25 H 1.1123 1.5613 0.3833
C43 C 1.2447(2) 1.4910(2) 0.3783(2)
H26 H 1.2957 1.5517 0.3546
C44 C 1.2790(2) 1.3968(2) 0.3962(2)
H27 H 1.3532 1.3927 0.3840
C45 C 1.2048(2) 1.3082(2) 0.43191(19)
H28 H 1.2292 1.2440 0.4443
loop_
_geom_bond_atom_site_label_1
_geom_bond_atom_site_label_2
_geom_bond_site_symmetry_1
_geom_bond_site_symmetry_2
S1 C5 1_555 1_555
S2 C28 1_555 1_555
F1 C23 1_555 1_555
F2 C23 1_555 1_555
F3 C24 1_555 1_555
F4 C24 1_555 1_555
F5 C25 1_555 1_555
F6 C25 1_555 1_555
N1 C8 1_555 1_555
N2 C31 1_555 1_555
C1 C2 1_555 1_555
C2 C25 1_555 1_555
C3 C1 1_555 1_555
C4 C3 1_555 1_555
H1 C4 1_555 1_555
C5 C4 1_555 1_555
C6 S1 1_555 1_555
C7 C6 1_555 1_555
H2 C7 1_555 1_555
H3 C7 1_555 1_555
H4 C7 1_555 1_555
C8 C5 1_555 1_555
C9 C8 1_555 1_555
H5 C9 1_555 1_555
C10 C9 1_555 1_555
C11 C10 1_555 1_555
C12 N1 1_555 1_555
C13 C11 1_555 1_555
H6 C13 1_555 1_555
C14 C13 1_555 1_555
H7 C14 1_555 1_555
C15 C14 1_555 1_555
H8 C15 1_555 1_555
C16 C12 1_555 1_555
H9 C16 1_555 1_555
C17 C10 1_555 1_555
C18 C17 1_555 1_555
H10 C18 1_555 1_555
C19 C18 1_555 1_555
H11 C19 1_555 1_555
C20 C19 1_555 1_555
H12 C20 1_555 1_555
C21 C20 1_555 1_555
H13 C21 1_555 1_555
C22 C17 1_555 1_555
H14 C22 1_555 1_555
C23 C1 1_555 1_555
C24 C23 1_555 1_555
C25 C24 1_555 1_555
C26 C2 1_555 1_555
C27 C26 1_555 1_555
H15 C27 1_555 1_555
C28 C27 1_555 1_555
C29 S2 1_555 1_555
C30 C29 1_555 1_555
H16 C30 1_555 1_555
H17 C30 1_555 1_555
H18 C30 1_555 1_555
C31 C28 1_555 1_555
C32 C31 1_555 1_555
H19 C32 1_555 1_555
C33 C32 1_555 1_555
C34 C33 1_555 1_555
C35 N2 1_555 1_555
C36 C34 1_555 1_555
H20 C36 1_555 1_555
C37 C36 1_555 1_555
H21 C37 1_555 1_555
C38 C37 1_555 1_555
H22 C38 1_555 1_555
C39 C35 1_555 1_555
H23 C39 1_555 1_555
C40 C33 1_555 1_555
C41 C40 1_555 1_555
H24 C41 1_555 1_555
C42 C41 1_555 1_555
H25 C42 1_555 1_555
C43 C42 1_555 1_555
H26 C43 1_555 1_555
C44 C43 1_555 1_555
H27 C44 1_555 1_555
C45 C40 1_555 1_555
H28 C45 1_555 1_555
C3 C6 1_555 1_555
C11 C12 1_555 1_555
C15 C16 1_555 1_555
C21 C22 1_555 1_555
C26 C29 1_555 1_555
C34 C35 1_555 1_555
C38 C39 1_555 1_555
C44 C45 1_555 1_555

#END
