
#######################################################################
#
#                 Cambridge Crystallographic Data Centre
#                                CCDC 
#
#######################################################################
#
# If this CIF has been generated from an entry in the Cambridge 
# Structural Database, then it will include bibliographic, chemical, 
# crystal, experimental, refinement or atomic coordinate data resulting 
# from the CCDC's data processing and validation procedures.
#
#######################################################################

data_CEBKUR
_chemical_formula_moiety         'C21 H16 O1'
_chemical_name_systematic        1-(4-Methoxyphenyl)phenanthrene
_symmetry_cell_setting           monoclinic
_symmetry_space_group_name_H-M   'P 21/n'
_symmetry_Int_Tables_number      14
_space_group_name_Hall           '-P 2yn'
loop_
_symmetry_equiv_pos_site_id
_symmetry_equiv_pos_as_xyz
1 x,y,z
2 1/2-x,1/2+y,1/2-z
3 -x,-y,-z
4 1/2+x,1/2-y,1/2+z
_cell_length_a                   5.7534(15)
_cell_length_b                   27.380(7)
_cell_length_c                   9.739(3)
_cell_angle_alpha                90
_cell_angle_beta                 103.021(3)
_cell_angle_gamma                90
_cell_volume                     1494.72
_exptl_crystal_colour            yellow
_exptl_crystal_description       prism
_cell_formula_units_Z            4
loop_
_atom_site_label
_atom_site_type_symbol
_atom_site_fract_x
_atom_site_fract_y
_atom_site_fract_z
C1 C 0.5224(3) 0.09737(7) 0.20750(19)
C2 C 0.4183(4) 0.06204(9) 0.2810(2)
H1 H 0.3120 0.0719 0.3347
C3 C 0.4723(5) 0.01345(9) 0.2741(3)
H2 H 0.4029 -0.0095 0.3228
C4 C 0.6313(5) -0.00136(8) 0.1937(2)
H3 H 0.6686 -0.0343 0.1889
C5 C 0.7318(4) 0.03204(7) 0.1225(2)
H4 H 0.8379 0.0214 0.0697
C6 C 0.6820(3) 0.08229(6) 0.12530(18)
C7 C 0.7889(3) 0.11874(6) 0.04954(16)
C8 C 0.9454(3) 0.10610(7) -0.03701(19)
H5 H 0.9797 0.0734 -0.0487
C9 C 1.0472(3) 0.14091(7) -0.1036(2)
H6 H 1.1500 0.1317 -0.1604
C10 C 0.9993(3) 0.19028(7) -0.08793(19)
H7 H 1.0716 0.2136 -0.1339
C11 C 0.8475(3) 0.20493(6) -0.00595(17)
C12 C 0.7370(3) 0.16895(6) 0.06429(16)
C13 C 0.5767(3) 0.18216(6) 0.15107(19)
H8 H 0.5431 0.2150 0.1617
C14 C 0.4730(3) 0.14812(7) 0.2178(2)
H9 H 0.3669 0.1580 0.2717
C15 C 0.8039(3) 0.25794(6) 0.01408(18)
C16 C 0.9794(3) 0.28662(6) 0.09841(19)
H10 H 1.1262 0.2727 0.1393
C17 C 0.9403(3) 0.33520(7) 0.1225(2)
H11 H 1.0590 0.3536 0.1804
C18 C 0.7236(3) 0.35667(6) 0.06022(17)
C19 C 0.5494(3) 0.32919(7) -0.0255(2)
H12 H 0.4045 0.3434 -0.0686
C20 C 0.5905(3) 0.28040(7) -0.0475(2)
H13 H 0.4712 0.2621 -0.1054
C21 C 0.4771(4) 0.42759(7) 0.0375(2)
H14 H 0.4401 0.4264 -0.0636
H15 H 0.4834 0.4610 0.0680
H16 H 0.3561 0.4106 0.0722
O1 O 0.7012(2) 0.40511(4) 0.09065(14)
loop_
_geom_bond_atom_site_label_1
_geom_bond_atom_site_label_2
_geom_bond_site_symmetry_1
_geom_bond_site_symmetry_2
C1 C2 1_555 1_555
C2 H1 1_555 1_555
C3 C2 1_555 1_555
H2 C3 1_555 1_555
C4 C3 1_555 1_555
H3 C4 1_555 1_555
C5 C4 1_555 1_555
H4 C5 1_555 1_555
C6 C1 1_555 1_555
C7 C6 1_555 1_555
C8 C7 1_555 1_555
H5 C8 1_555 1_555
C9 C8 1_555 1_555
H6 C9 1_555 1_555
C10 C9 1_555 1_555
H7 C10 1_555 1_555
C11 C10 1_555 1_555
C12 C7 1_555 1_555
C13 C12 1_555 1_555
H8 C13 1_555 1_555
C14 C1 1_555 1_555
H9 C14 1_555 1_555
C15 C11 1_555 1_555
C16 C15 1_555 1_555
H10 C16 1_555 1_555
C17 C16 1_555 1_555
H11 C17 1_555 1_555
C18 C17 1_555 1_555
C19 C18 1_555 1_555
H12 C19 1_555 1_555
C20 C15 1_555 1_555
H13 C20 1_555 1_555
C21 H14 1_555 1_555
H15 C21 1_555 1_555
H16 C21 1_555 1_555
O1 C18 1_555 1_555
C5 C6 1_555 1_555
C11 C12 1_555 1_555
C13 C14 1_555 1_555
C19 C20 1_555 1_555
C21 O1 1_555 1_555

#END
