
#######################################################################
#
#                 Cambridge Crystallographic Data Centre
#                                CCDC 
#
#######################################################################
#
# If this CIF has been generated from an entry in the Cambridge 
# Structural Database, then it will include bibliographic, chemical, 
# crystal, experimental, refinement or atomic coordinate data resulting 
# from the CCDC's data processing and validation procedures.
#
#######################################################################

data_CEBKIF
_chemical_formula_moiety         'C30 H32 N2 O6,0.33(C1 Cl4)'
_chemical_name_systematic        
'5-(2-Allyl-3,4-dimethoxyphenyl)-1-(4-methoxyphenyl)-3-(3,4,5-trimethoxyphenyl)-1H-pyrazole tetrachloromethane solvate'
_symmetry_cell_setting           rhombohedral
_symmetry_space_group_name_H-M   'R -3'
_symmetry_Int_Tables_number      148
_space_group_name_Hall           '-R 3'
loop_
_symmetry_equiv_pos_site_id
_symmetry_equiv_pos_as_xyz
1 x,y,z
2 -y,x-y,z
3 -x+y,-x,z
4 2/3+x,1/3+y,1/3+z
5 2/3-y,1/3+x-y,1/3+z
6 2/3-x+y,1/3-x,1/3+z
7 1/3+x,2/3+y,2/3+z
8 1/3-y,2/3+x-y,2/3+z
9 1/3-x+y,2/3-x,2/3+z
10 -x,-y,-z
11 y,-x+y,-z
12 x-y,x,-z
13 1/3-x,2/3-y,2/3-z
14 1/3+y,2/3-x+y,2/3-z
15 1/3+x-y,2/3+x,2/3-z
16 2/3-x,1/3-y,1/3-z
17 2/3+y,1/3-x+y,1/3-z
18 2/3+x-y,1/3+x,1/3-z
_cell_length_a                   21.0478(6)
_cell_length_b                   21.0478(6)
_cell_length_c                   32.2300(11)
_cell_angle_alpha                90
_cell_angle_beta                 90
_cell_angle_gamma                120
_cell_volume                     12365.3
_exptl_crystal_colour            colorless
_exptl_crystal_description       tabular
_cell_formula_units_Z            18
loop_
_atom_site_label
_atom_site_type_symbol
_atom_site_fract_x
_atom_site_fract_y
_atom_site_fract_z
C1 C 0.42444(15) 0.29771(15) 0.21837(9)
C2 C 0.40566(16) 0.24004(15) 0.24683(9)
H1 H 0.3862 0.2356 0.2739
C3 C 0.42156(16) 0.19151(15) 0.22704(9)
C4 C 0.41640(15) 0.36320(14) 0.22340(9)
C5 C 0.45711(15) 0.42406(15) 0.19787(9)
H2 H 0.4899 0.4235 0.1778
C6 C 0.44912(15) 0.48520(14) 0.20218(9)
C7 C 0.40085(15) 0.48646(14) 0.23103(9)
C8 C 0.36030(15) 0.42535(14) 0.25649(9)
C9 C 0.36855(15) 0.36418(14) 0.25281(9)
H3 H 0.3415 0.3230 0.2704
C10 C 0.54238(17) 0.55076(17) 0.15193(11)
H4 H 0.5754 0.5396 0.1677
H5 H 0.5705 0.6000 0.1399
H6 H 0.5190 0.5146 0.1297
C11 C 0.34463(16) 0.55223(17) 0.20862(11)
H7 H 0.3599 0.5520 0.1799
H8 H 0.3432 0.5974 0.2138
H9 H 0.2957 0.5097 0.2131
C12 C 0.26633(18) 0.36828(17) 0.30803(11)
H10 H 0.2343 0.3278 0.2895
H11 H 0.2363 0.3798 0.3263
H12 H 0.2959 0.3538 0.3248
C13 C 0.40463(15) 0.11687(15) 0.23977(9)
C14 C 0.35587(15) 0.05773(16) 0.21592(9)
H13 H 0.3377 0.0663 0.1908
C15 C 0.33301(16) -0.01398(15) 0.22804(9)
H14 H 0.2992 -0.0539 0.2114
C16 C 0.35944(15) -0.02708(14) 0.26419(9)
C17 C 0.41116(15) 0.03269(15) 0.28793(8)
C18 C 0.43356(15) 0.10474(15) 0.27642(9)
C19 C 0.29069(19) -0.15679(17) 0.25623(12)
H15 H 0.2436 -0.1586 0.2527
H16 H 0.2828 -0.2014 0.2703
H17 H 0.3128 -0.1533 0.2290
C20 C 0.48361(19) -0.01190(18) 0.31833(10)
H18 H 0.4546 -0.0611 0.3065
H19 H 0.5040 -0.0151 0.3451
H20 H 0.5237 0.0190 0.2993
C21 C 0.4847(4) 0.1686(4) 0.3059(2)
H21 H 0.4697 0.2063 0.3057
H22 H 0.4788 0.1495 0.3346
C22 C 0.5635(3) 0.2033(3) 0.29379(18)
H23 H 0.5972 0.2458 0.3088
C23 C 0.5908(4) 0.1806(4) 0.2642(2)
H24 H 0.5593 0.1383 0.2483
H25 H 0.6420 0.2065 0.2587
C24 C 0.48095(16) 0.19833(15) 0.15751(9)
C25 C 0.54919(17) 0.2060(2) 0.16367(10)
H26 H 0.5735 0.2241 0.1895
C26 C 0.58267(17) 0.18773(19) 0.13282(10)
H27 H 0.6295 0.1927 0.1374
C27 C 0.54723(16) 0.16194(15) 0.09480(10)
C28 C 0.47897(16) 0.15571(16) 0.08838(11)
H28 H 0.4552 0.1393 0.0623
C29 C 0.44563(16) 0.17323(15) 0.11973(10)
H29 H 0.3986 0.1681 0.1154
C30 C 0.64891(19) 0.1548(2) 0.06744(13)
H30 H 0.6826 0.2069 0.0730
H31 H 0.6641 0.1405 0.0420
H32 H 0.6500 0.1254 0.0907
N1 N 0.45112(14) 0.28683(13) 0.18338(8)
N2 N 0.44877(14) 0.22126(13) 0.18897(8)
O1 O 0.48734(11) 0.54804(11) 0.17894(7)
O2 O 0.39574(11) 0.54867(11) 0.23637(7)
O3 O 0.31371(11) 0.43154(10) 0.28385(7)
O4 O 0.33843(12) -0.09445(10) 0.28049(7)
O5 O 0.43753(11) 0.01969(10) 0.32437(6)
O6 O 0.57550(12) 0.14233(12) 0.06240(8)
C31 C 0.6667 0.3333 -0.0029(2)
Cl1 Cl 0.6667 0.3333 0.05120(5)
Cl2 Cl 0.69059(16) 0.27768(13) -0.02441(5)
Cl2A Cl 0.72232(13) 0.41291(21) -0.02441(5)
Cl2B Cl 0.58709(21) 0.30941(16) -0.02441(5)
C32? C 0.4995(7) 0.1627(8) 0.2959(5)
C33? C 0.5717(6) 0.1797(6) 0.2779(4)
C34? C 0.6245(5) 0.2431(4) 0.2644(3)
H33? H 0.4989 0.1494 0.3255
H34? H 0.4965 0.2082 0.2953
H35? H 0.5805 0.1397 0.2760
H36? H 0.6189 0.2852 0.2655
H37? H 0.6682 0.2470 0.2535
loop_
_geom_bond_atom_site_label_1
_geom_bond_atom_site_label_2
_geom_bond_site_symmetry_1
_geom_bond_site_symmetry_2
C1 C2 1_555 1_555
C2 H1 1_555 1_555
C3 C2 1_555 1_555
C4 C1 1_555 1_555
C5 C4 1_555 1_555
H2 C5 1_555 1_555
C6 C5 1_555 1_555
C7 C6 1_555 1_555
C8 C7 1_555 1_555
C9 C4 1_555 1_555
H3 C9 1_555 1_555
C10 H4 1_555 1_555
H5 C10 1_555 1_555
H6 C10 1_555 1_555
C11 H7 1_555 1_555
H8 C11 1_555 1_555
H9 C11 1_555 1_555
C12 H10 1_555 1_555
H11 C12 1_555 1_555
H12 C12 1_555 1_555
C13 C3 1_555 1_555
C14 C13 1_555 1_555
H13 C14 1_555 1_555
C15 C14 1_555 1_555
H14 C15 1_555 1_555
C16 C15 1_555 1_555
C17 C16 1_555 1_555
C18 C13 1_555 1_555
C19 H15 1_555 1_555
H16 C19 1_555 1_555
H17 C19 1_555 1_555
C20 H18 1_555 1_555
H19 C20 1_555 1_555
H20 C20 1_555 1_555
C21 C18 1_555 1_555
H21 C21 1_555 1_555
H22 C21 1_555 1_555
C22 C21 1_555 1_555
H23 C22 1_555 1_555
C23 C22 1_555 1_555
H24 C23 1_555 1_555
H25 C23 1_555 1_555
C24 C25 1_555 1_555
C25 H26 1_555 1_555
C26 C25 1_555 1_555
H27 C26 1_555 1_555
C27 C26 1_555 1_555
C28 C27 1_555 1_555
H28 C28 1_555 1_555
C29 C24 1_555 1_555
H29 C29 1_555 1_555
C30 H30 1_555 1_555
H31 C30 1_555 1_555
H32 C30 1_555 1_555
N1 C1 1_555 1_555
N2 C3 1_555 1_555
O1 C6 1_555 1_555
O2 C7 1_555 1_555
O3 C8 1_555 1_555
O4 C16 1_555 1_555
O5 C17 1_555 1_555
O6 C27 1_555 1_555
C31 Cl1 1_555 1_555
Cl2 C31 1_555 1_555
Cl2A C31 1_555 1_555
Cl2B C31 1_555 1_555
C8 C9 1_555 1_555
C10 O1 1_555 1_555
C11 O2 1_555 1_555
C12 O3 1_555 1_555
C17 C18 1_555 1_555
C19 O4 1_555 1_555
C20 O5 1_555 1_555
C24 N2 1_555 1_555
C28 C29 1_555 1_555
C30 O6 1_555 1_555
N1 N2 1_555 1_555

#END
