
#######################################################################
#
#                 Cambridge Crystallographic Data Centre
#                                CCDC 
#
#######################################################################
#
# If this CIF has been generated from an entry in the Cambridge 
# Structural Database, then it will include bibliographic, chemical, 
# crystal, experimental, refinement or atomic coordinate data resulting 
# from the CCDC's data processing and validation procedures.
#
#######################################################################

data_CEBKEZ02
_chemical_formula_moiety         'C15 H16 N2 O1'
_chemical_name_systematic        
2-(((4-(Dimethylamino)phenyl)imino)methyl)phenol
_symmetry_cell_setting           orthorhombic
_symmetry_space_group_name_H-M   'P b c a'
_symmetry_Int_Tables_number      61
_space_group_name_Hall           '-P 2ac 2ab'
loop_
_symmetry_equiv_pos_site_id
_symmetry_equiv_pos_as_xyz
1 x,y,z
2 1/2-x,-y,1/2+z
3 -x,1/2+y,1/2-z
4 1/2+x,1/2-y,-z
5 -x,-y,-z
6 1/2+x,y,1/2-z
7 x,1/2-y,1/2+z
8 1/2-x,1/2+y,z
_cell_length_a                   11.1753(11)
_cell_length_b                   7.9742(8)
_cell_length_c                   27.409(3)
_cell_angle_alpha                90
_cell_angle_beta                 90
_cell_angle_gamma                90
_cell_volume                     2442.53
_exptl_crystal_colour            'dark yellow'
_exptl_crystal_description       plate
_cell_formula_units_Z            8
loop_
_atom_site_label
_atom_site_type_symbol
_atom_site_fract_x
_atom_site_fract_y
_atom_site_fract_z
O1 O 0.47575(10) 0.58567(14) 0.65229(4)
H1 H 0.4999 0.6058 0.6188
N1 N 0.60236(12) 0.58210(15) 0.57414(4)
N2 N 0.60759(13) 0.82155(18) 0.38151(4)
C1 C 0.55860(14) 0.48241(18) 0.67208(5)
C2 C 0.54164(14) 0.42592(19) 0.71984(5)
H2 H 0.4723 0.4583 0.7375
C3 C 0.62602(15) 0.32266(19) 0.74136(5)
H3 H 0.6141 0.2840 0.7738
C4 C 0.72860(15) 0.2748(2) 0.71579(5)
H4 H 0.7869 0.2052 0.7308
C5 C 0.74465(14) 0.32970(19) 0.66844(5)
H5 H 0.8147 0.2974 0.6512
C6 C 0.66028(14) 0.43156(18) 0.64541(5)
C7 C 0.67716(14) 0.48220(19) 0.59488(5)
H6 H 0.7439 0.4412 0.5770
C8 C 0.60970(14) 0.63474(18) 0.52515(5)
C9 C 0.69350(14) 0.57816(19) 0.49066(5)
H7 H 0.7517 0.4975 0.5000
C10 C 0.69231(14) 0.6382(2) 0.44346(5)
H8 H 0.7500 0.5981 0.4208
C11 C 0.60709(14) 0.75819(19) 0.42795(5)
C12 C 0.52167(14) 0.81106(19) 0.46262(5)
H9 H 0.4621 0.8900 0.4535
C13 C 0.52384(14) 0.7490(2) 0.50974(5)
H10 H 0.4648 0.7857 0.5323
C14 C 0.69674(15) 0.7671(2) 0.34655(5)
H11 H 0.7769 0.7864 0.3599
H12 H 0.6874 0.8307 0.3162
H13 H 0.6862 0.6473 0.3399
C15 C 0.51810(15) 0.9417(2) 0.36622(6)
H14 H 0.5236 1.0423 0.3866
H15 H 0.4383 0.8920 0.3696
H16 H 0.5318 0.9722 0.3320
loop_
_geom_bond_atom_site_label_1
_geom_bond_atom_site_label_2
_geom_bond_site_symmetry_1
_geom_bond_site_symmetry_2
O1 H1 1_555 1_555
N1 C7 1_555 1_555
N2 C11 1_555 1_555
C1 O1 1_555 1_555
C2 C1 1_555 1_555
H2 C2 1_555 1_555
C3 C2 1_555 1_555
H3 C3 1_555 1_555
C4 C3 1_555 1_555
H4 C4 1_555 1_555
C5 C4 1_555 1_555
H5 C5 1_555 1_555
C6 C1 1_555 1_555
C7 C6 1_555 1_555
H6 C7 1_555 1_555
C8 N1 1_555 1_555
C9 C8 1_555 1_555
H7 C9 1_555 1_555
C10 C9 1_555 1_555
H8 C10 1_555 1_555
C11 C10 1_555 1_555
C12 C11 1_555 1_555
H9 C12 1_555 1_555
C13 C8 1_555 1_555
H10 C13 1_555 1_555
C14 N2 1_555 1_555
H11 C14 1_555 1_555
H12 C14 1_555 1_555
H13 C14 1_555 1_555
C15 N2 1_555 1_555
H14 C15 1_555 1_555
H15 C15 1_555 1_555
H16 C15 1_555 1_555
C5 C6 1_555 1_555
C12 C13 1_555 1_555

#END
