
#######################################################################
#
#                 Cambridge Crystallographic Data Centre
#                                CCDC 
#
#######################################################################
#
# If this CIF has been generated from an entry in the Cambridge 
# Structural Database, then it will include bibliographic, chemical, 
# crystal, experimental, refinement or atomic coordinate data resulting 
# from the CCDC's data processing and validation procedures.
#
#######################################################################

data_CEBKEZ07
_chemical_formula_moiety         'C15 H16 N2 O1'
_chemical_name_systematic        
2-(((4-(dimethylamino)phenyl)imino)methyl)phenol
_symmetry_cell_setting           orthorhombic
_symmetry_space_group_name_H-M   'P 21 21 21'
_symmetry_Int_Tables_number      19
_space_group_name_Hall           'P 2ac 2ab'
loop_
_symmetry_equiv_pos_site_id
_symmetry_equiv_pos_as_xyz
1 x,y,z
2 1/2-x,-y,1/2+z
3 -x,1/2+y,1/2-z
4 1/2+x,1/2-y,-z
_cell_length_a                   6.0760(12)
_cell_length_b                   8.4762(17)
_cell_length_c                   25.042(5)
_cell_angle_alpha                90
_cell_angle_beta                 90
_cell_angle_gamma                90
_cell_volume                     1289.7
_exptl_crystal_colour            yellow
_exptl_crystal_description       block
_cell_formula_units_Z            4
loop_
_atom_site_label
_atom_site_type_symbol
_atom_site_fract_x
_atom_site_fract_y
_atom_site_fract_z
N1 N -0.0695(2) 0.36568(12) 0.07435(5)
C1 C 0.0011(2) 0.63206(14) -0.06823(5)
N2 N 0.0239(2) 0.72734(15) -0.11238(5)
C2 C -0.0369(2) 0.44609(14) 0.02550(5)
C3 C 0.0759(3) 0.27711(15) 0.09632(5)
H1 H 0.2109 0.2625 0.0795
C4 C 0.0332(3) 0.19913(15) 0.14700(5)
C5 C -0.2052(2) 0.54527(17) 0.00878(6)
H2 H -0.3334 0.5506 0.0290
O1 O -0.3286(2) 0.31163(15) 0.15426(6)
C6 C 0.1936(3) 0.10309(19) 0.17043(6)
H3 H 0.3280 0.0897 0.1533
C7 C 0.1496(3) 0.43776(16) -0.00669(6)
H4 H 0.2635 0.3698 0.0026
C8 C -0.0443(4) 0.0465(2) 0.24378(6)
H5 H -0.0711 -0.0057 0.2758
C9 C 0.1681(3) 0.52842(17) -0.05208(6)
H6 H 0.2952 0.5207 -0.0726
C10 C -0.1890(3) 0.63578(17) -0.03654(6)
H7 H -0.3058 0.7005 -0.0463
C11 C -0.1687(3) 0.21838(16) 0.17369(6)
C12 C -0.2036(3) 0.14102(18) 0.22205(6)
H8 H -0.3369 0.1538 0.2398
C13 C -0.1444(3) 0.8396(2) -0.12652(7)
H9 H -0.2677 0.7850 -0.1418
H10 H -0.0866 0.9132 -0.1521
H11 H -0.1909 0.8954 -0.0951
C14 C 0.1568(4) 0.02805(19) 0.21831(6)
H12 H 0.2659 -0.0345 0.2335
C15 C 0.2260(4) 0.7311(2) -0.14242(8)
H13 H 0.3425 0.7701 -0.1202
H14 H 0.2086 0.7992 -0.1728
H15 H 0.2614 0.6265 -0.1544
H16 H -0.279(4) 0.346(2) 0.1253(10)
loop_
_geom_bond_atom_site_label_1
_geom_bond_atom_site_label_2
_geom_bond_site_symmetry_1
_geom_bond_site_symmetry_2
N1 C2 1_555 1_555
C1 N2 1_555 1_555
N2 C13 1_555 1_555
C2 C5 1_555 1_555
C3 N1 1_555 1_555
H1 C3 1_555 1_555
C4 C3 1_555 1_555
C5 H2 1_555 1_555
O1 C11 1_555 1_555
C6 C4 1_555 1_555
H3 C6 1_555 1_555
C7 C2 1_555 1_555
H4 C7 1_555 1_555
C8 H5 1_555 1_555
C9 C1 1_555 1_555
H6 C9 1_555 1_555
C10 C1 1_555 1_555
H7 C10 1_555 1_555
C11 C4 1_555 1_555
C12 C8 1_555 1_555
H8 C12 1_555 1_555
C13 H9 1_555 1_555
H10 C13 1_555 1_555
H11 C13 1_555 1_555
C14 C6 1_555 1_555
H12 C14 1_555 1_555
C15 N2 1_555 1_555
H13 C15 1_555 1_555
H14 C15 1_555 1_555
H15 C15 1_555 1_555
H16 O1 1_555 1_555
C5 C10 1_555 1_555
C7 C9 1_555 1_555
C8 C14 1_555 1_555
C11 C12 1_555 1_555

#END
