
#######################################################################
#
#                 Cambridge Crystallographic Data Centre
#                                CCDC 
#
#######################################################################
#
# If this CIF has been generated from an entry in the Cambridge 
# Structural Database, then it will include bibliographic, chemical, 
# crystal, experimental, refinement or atomic coordinate data resulting 
# from the CCDC's data processing and validation procedures.
#
#######################################################################

data_CEBLIG
_chemical_formula_moiety         'C20 H16 Cl1 F3 O4 S1'
_chemical_name_systematic        
'Ethyl 6-chloro-4-((4-methoxyphenyl)sulfanyl)-2-(trifluoromethyl)-4H-chromene-3-carboxylate'
_symmetry_cell_setting           triclinic
_symmetry_space_group_name_H-M   'P -1'
_symmetry_Int_Tables_number      2
_space_group_name_Hall           '-P 1'
loop_
_symmetry_equiv_pos_site_id
_symmetry_equiv_pos_as_xyz
1 x,y,z
2 -x,-y,-z
_cell_length_a                   7.5487(6)
_cell_length_b                   14.1958(11)
_cell_length_c                   20.5260(15)
_cell_angle_alpha                98.0640(10)
_cell_angle_beta                 100.3050(10)
_cell_angle_gamma                104.6370(10)
_cell_volume                     2053.72
_exptl_crystal_colour            yellow
_exptl_crystal_description       block
_cell_formula_units_Z            4
loop_
_atom_site_label
_atom_site_type_symbol
_atom_site_fract_x
_atom_site_fract_y
_atom_site_fract_z
Cl1 Cl 0.26341(19) 1.30699(7) 0.07956(6)
S1 S 0.52393(13) 0.96402(7) 0.08486(5)
F1 F -0.1018(4) 0.66197(16) 0.08082(12)
F2 F -0.1919(5) 0.7533(2) 0.15165(18)
F3 F 0.0604(4) 0.71892(18) 0.18084(12)
O1 O 0.0180(3) 0.91183(16) 0.14240(11)
O2 O 0.2279(5) 0.7497(2) -0.03149(14)
O3 O 0.2550(4) 0.69340(19) 0.06445(13)
O4 O 0.5705(4) 1.0181(2) 0.37922(13)
C1 C 0.0810(4) 1.0038(2) 0.12509(14)
C2 C 0.0217(5) 1.0793(3) 0.15620(16)
H1 H -0.0545 1.0673 0.1868
C3 C 0.0766(5) 1.1720(3) 0.14134(16)
H2 H 0.0367 1.2235 0.1615
C4 C 0.1910(5) 1.1886(2) 0.09640(17)
C5 C 0.2482(5) 1.1137(2) 0.06568(16)
H3 H 0.3237 1.1260 0.0349
C6 C 0.1947(4) 1.0189(2) 0.07990(14)
C7 C 0.2674(4) 0.9376(2) 0.05110(15)
H4 H 0.2458 0.9332 0.0021
C8 C 0.1678(5) 0.8392(2) 0.06423(15)
C9 C 0.2154(6) 0.7553(3) 0.0259(2)
C10 C 0.3090(10) 0.6096(4) 0.0292(3)
H5 H 0.2049 0.5697 -0.0071
H6 H 0.4148 0.6354 0.0096
C11 C 0.3543(11) 0.5545(4) 0.0717(3)
H7 H 0.4494 0.5953 0.1097
H8 H 0.4015 0.5049 0.0497
H9 H 0.2453 0.5227 0.0869
C12 C 0.0575(5) 0.8330(2) 0.10818(16)
C13 C -0.0453(7) 0.7410(3) 0.1300(2)
C14 C 0.5341(4) 0.9779(2) 0.17257(16)
C15 C 0.5674(5) 1.0707(3) 0.21240(19)
H10 H 0.5820 1.1264 0.1926
C16 C 0.5793(5) 1.0814(3) 0.2808(2)
H11 H 0.6027 1.1441 0.3070
C17 C 0.5564(5) 0.9992(3) 0.31056(17)
C18 C 0.5545(6) 0.9343(4) 0.4127(2)
H12 H 0.4343 0.8865 0.3940
H13 H 0.5664 0.9564 0.4601
H14 H 0.6522 0.9042 0.4063
C19 C 0.5226(4) 0.9066(3) 0.27243(17)
H15 H 0.5060 0.8511 0.2925
C20 C 0.5133(4) 0.8965(3) 0.20361(16)
H16 H 0.4927 0.8338 0.1778
Cl2 Cl 0.78469(16) 0.70969(7) 0.68317(4)
S2 S 1.00858(12) 0.58467(6) 0.44302(4)
F4 F 0.2827(5) 0.6017(3) 0.28008(13)
F5 F 0.5352(5) 0.6350(2) 0.24776(12)
F6 F 0.3804(3) 0.48572(17) 0.23876(10)
O5 O 0.5032(3) 0.64706(15) 0.39139(10)
O6 O 0.6974(4) 0.36297(17) 0.33577(13)
O7 O 0.7328(4) 0.46954(16) 0.26604(11)
O8 O 1.0525(4) 0.98793(17) 0.39205(14)
C21 C 0.5732(4) 0.6578(2) 0.46036(14)
C22 C 0.5204(4) 0.7260(2) 0.50171(16)
H17 H 0.4415 0.7609 0.4832
C23 C 0.5853(5) 0.7419(2) 0.57040(16)
H18 H 0.5525 0.7884 0.5989
C24 C 0.6996(5) 0.6882(2) 0.59640(15)
C25 C 0.7495(4) 0.6195(2) 0.55525(15)
H19 H 0.8253 0.5833 0.5740
C26 C 0.6876(4) 0.6035(2) 0.48549(14)
C27 C 0.7533(4) 0.5361(2) 0.43888(14)
H20 H 0.7312 0.4716 0.4528
C28 C 0.6492(4) 0.5201(2) 0.36713(14)
C29 C 0.6907(5) 0.4405(2) 0.32095(16)
C30 C 0.7769(7) 0.3961(3) 0.2184(2)
H21 H 0.8748 0.3717 0.2415
H22 H 0.6663 0.3403 0.1992
C31 C 0.8389(8) 0.4436(4) 0.1661(2)
H23 H 0.7392 0.4647 0.1421
H24 H 0.8736 0.3976 0.1353
H25 H 0.9455 0.5001 0.1857
C32 C 0.5392(4) 0.5755(2) 0.34849(14)
C33 C 0.4300(6) 0.5726(3) 0.27879(18)
C34 C 1.0204(4) 0.7043(2) 0.42558(15)
C35 C 1.0485(4) 0.7839(2) 0.47778(15)
H26 H 1.0616 0.7742 0.5221
C36 C 1.0570(4) 0.8764(2) 0.46456(17)
H27 H 1.0740 0.9290 0.4998
C37 C 1.0404(4) 0.8923(2) 0.39934(18)
C38 C 1.0510(6) 1.0110(3) 0.3268(2)
H28 H 1.1546 0.9959 0.3109
H29 H 1.0620 1.0803 0.3292
H30 H 0.9353 0.9723 0.2963
C39 C 1.0139(4) 0.8148(2) 0.34690(16)
H31 H 1.0027 0.8253 0.3028
C40 C 1.0041(4) 0.7210(2) 0.36029(15)
H32 H 0.9864 0.6684 0.3249
loop_
_geom_bond_atom_site_label_1
_geom_bond_atom_site_label_2
_geom_bond_site_symmetry_1
_geom_bond_site_symmetry_2
Cl1 C4 1_555 1_555
Cl2 C24 1_555 1_555
S1 C7 1_555 1_555
S2 C27 1_555 1_555
F1 C13 1_555 1_555
F2 C13 1_555 1_555
F3 C13 1_555 1_555
F4 C33 1_555 1_555
F5 C33 1_555 1_555
F6 C33 1_555 1_555
O1 C1 1_555 1_555
O2 C9 1_555 1_555
O3 C9 1_555 1_555
O4 C17 1_555 1_555
O5 C21 1_555 1_555
O6 C29 1_555 1_555
O7 C29 1_555 1_555
O8 C37 1_555 1_555
C1 C2 1_555 1_555
C2 H1 1_555 1_555
C3 C2 1_555 1_555
H2 C3 1_555 1_555
C4 C3 1_555 1_555
C5 C4 1_555 1_555
H3 C5 1_555 1_555
C6 C1 1_555 1_555
C7 C6 1_555 1_555
H4 C7 1_555 1_555
C8 C7 1_555 1_555
C9 C8 1_555 1_555
C10 O3 1_555 1_555
H5 C10 1_555 1_555
H6 C10 1_555 1_555
C11 C10 1_555 1_555
H7 C11 1_555 1_555
H8 C11 1_555 1_555
H9 C11 1_555 1_555
C12 O1 1_555 1_555
C13 C12 1_555 1_555
C14 S1 1_555 1_555
C15 C14 1_555 1_555
H10 C15 1_555 1_555
C16 C15 1_555 1_555
H11 C16 1_555 1_555
C17 C16 1_555 1_555
C18 O4 1_555 1_555
H12 C18 1_555 1_555
H13 C18 1_555 1_555
H14 C18 1_555 1_555
C19 C17 1_555 1_555
H15 C19 1_555 1_555
C20 C14 1_555 1_555
H16 C20 1_555 1_555
C21 C22 1_555 1_555
C22 H17 1_555 1_555
C23 C22 1_555 1_555
H18 C23 1_555 1_555
C24 C23 1_555 1_555
C25 C24 1_555 1_555
H19 C25 1_555 1_555
C26 C21 1_555 1_555
C27 C26 1_555 1_555
H20 C27 1_555 1_555
C28 C27 1_555 1_555
C29 C28 1_555 1_555
C30 O7 1_555 1_555
H21 C30 1_555 1_555
H22 C30 1_555 1_555
C31 C30 1_555 1_555
H23 C31 1_555 1_555
H24 C31 1_555 1_555
H25 C31 1_555 1_555
C32 O5 1_555 1_555
C33 C32 1_555 1_555
C34 S2 1_555 1_555
C35 C34 1_555 1_555
H26 C35 1_555 1_555
C36 C35 1_555 1_555
H27 C36 1_555 1_555
C37 C36 1_555 1_555
C38 O8 1_555 1_555
H28 C38 1_555 1_555
H29 C38 1_555 1_555
H30 C38 1_555 1_555
C39 C37 1_555 1_555
H31 C39 1_555 1_555
C40 C34 1_555 1_555
H32 C40 1_555 1_555
C5 C6 1_555 1_555
C8 C12 1_555 1_555
C19 C20 1_555 1_555
C25 C26 1_555 1_555
C28 C32 1_555 1_555
C39 C40 1_555 1_555

#END
