
#######################################################################
#
#                 Cambridge Crystallographic Data Centre
#                                CCDC 
#
#######################################################################
#
# If this CIF has been generated from an entry in the Cambridge 
# Structural Database, then it will include bibliographic, chemical, 
# crystal, experimental, refinement or atomic coordinate data resulting 
# from the CCDC's data processing and validation procedures.
#
#######################################################################

data_CEBMED
_chemical_name_common            2,7-dibromo-4,5-diazafluorenone
_chemical_formula_moiety         'C11 H4 Br2 N2 O1'
_chemical_name_systematic        
3,7-Dibromo-5H-pyrido[3',2':4,5]cyclopenta[1,2-b]pyridin-5-one
_symmetry_cell_setting           triclinic
_symmetry_space_group_name_H-M   'P -1'
_symmetry_Int_Tables_number      2
_space_group_name_Hall           '-P 1'
loop_
_symmetry_equiv_pos_site_id
_symmetry_equiv_pos_as_xyz
1 x,y,z
2 -x,-y,-z
_cell_length_a                   5.918(4)
_cell_length_b                   8.445(6)
_cell_length_c                   11.503(8)
_cell_angle_alpha                68.687(7)
_cell_angle_beta                 80.926(7)
_cell_angle_gamma                83.203(9)
_cell_volume                     527.706
_exptl_crystal_colour            yellow
_exptl_crystal_description       needle
_chemical_melting_point          '533 K'
_cell_formula_units_Z            2
loop_
_atom_site_label
_atom_site_type_symbol
_atom_site_fract_x
_atom_site_fract_y
_atom_site_fract_z
Br1 Br 1.30601(9) 0.21558(6) 0.89717(4)
Br2 Br 0.68606(9) 0.29212(7) 0.07094(5)
C1 C 0.9703(7) 0.1261(5) 0.7842(4)
H1 H 0.9123 0.0709 0.8676
C2 C 1.1642(7) 0.2167(5) 0.7605(4)
C3 C 1.2550(7) 0.3052(5) 0.6385(4)
H2 H 1.3840 0.3671 0.6205
C4 C 1.1425(6) 0.2961(4) 0.5455(4)
C5 C 0.9511(6) 0.1980(4) 0.5769(4)
C6 C 0.8685(6) 0.2046(4) 0.4608(4)
C7 C 1.0062(6) 0.3096(4) 0.3577(4)
C8 C 1.1834(7) 0.3750(5) 0.4048(4)
C9 C 0.9604(7) 0.3382(5) 0.2380(4)
H3 H 1.0473 0.4075 0.1671
C10 C 0.7761(7) 0.2569(5) 0.2298(4)
C11 C 0.6527(7) 0.1508(5) 0.3361(4)
H4 H 0.5338 0.0960 0.3260
N1 N 0.8619(6) 0.1133(4) 0.6948(3)
N2 N 0.6966(6) 0.1229(4) 0.4540(3)
O1 O 1.3291(5) 0.4723(4) 0.3427(3)
loop_
_geom_bond_atom_site_label_1
_geom_bond_atom_site_label_2
_geom_bond_site_symmetry_1
_geom_bond_site_symmetry_2
Br1 C2 1_555 1_555
Br2 C10 1_555 1_555
C1 H1 1_555 1_555
C2 C1 1_555 1_555
C3 C2 1_555 1_555
H2 C3 1_555 1_555
C4 C3 1_555 1_555
C5 C4 1_555 1_555
C6 C5 1_555 1_555
C7 C6 1_555 1_555
C8 C4 1_555 1_555
C9 C7 1_555 1_555
H3 C9 1_555 1_555
C10 C9 1_555 1_555
C11 C10 1_555 1_555
H4 C11 1_555 1_555
N1 C1 1_555 1_555
N2 C6 1_555 1_555
O1 C8 1_555 1_555
C5 N1 1_555 1_555
C7 C8 1_555 1_555
C11 N2 1_555 1_555

#END
