
#######################################################################
#
#                 Cambridge Crystallographic Data Centre
#                                CCDC 
#
#######################################################################
#
# If this CIF has been generated from an entry in the Cambridge 
# Structural Database, then it will include bibliographic, chemical, 
# crystal, experimental, refinement or atomic coordinate data resulting 
# from the CCDC's data processing and validation procedures.
#
#######################################################################

data_CEBPEH
_chemical_formula_moiety         'C4 H6 O4,C2 H4 N4'
_chemical_name_systematic        'butanedioic acid 4H-1,2,4-triazol-3-amine'
_symmetry_cell_setting           triclinic
_symmetry_space_group_name_H-M   'P -1'
_symmetry_Int_Tables_number      2
_space_group_name_Hall           '-P 1'
loop_
_symmetry_equiv_pos_site_id
_symmetry_equiv_pos_as_xyz
1 x,y,z
2 -x,-y,-z
_cell_length_a                   4.8684(10)
_cell_length_b                   9.2527(19)
_cell_length_c                   10.750(2)
_cell_angle_alpha                66.25(3)
_cell_angle_beta                 85.91(3)
_cell_angle_gamma                74.80(3)
_cell_volume                     427.405
_exptl_crystal_colour            colorless
_exptl_crystal_description       Prism
_cell_formula_units_Z            2
loop_
_atom_site_label
_atom_site_type_symbol
_atom_site_fract_x
_atom_site_fract_y
_atom_site_fract_z
O1 O -0.2455(3) 0.52922(15) 0.28468(13)
O2 O -0.1398(3) 0.46898(17) 0.10489(14)
H1 H -0.0433 0.4961 0.0378
O3 O 0.3616(3) 0.89762(17) 0.03674(14)
O4 O 0.2845(4) 0.9632(2) 0.21444(16)
C1 C -0.1246(3) 0.5503(2) 0.17648(17)
C2 C 0.0528(4) 0.6725(2) 0.12012(18)
H2 H -0.0261 0.7513 0.0310
H3 H 0.2444 0.6157 0.1084
C3 C 0.0698(4) 0.7637(2) 0.20805(17)
H4 H -0.1215 0.8217 0.2189
H5 H 0.1471 0.6850 0.2975
C4 C 0.2500(4) 0.8842(2) 0.15140(18)
H6 H 0.450(10) 0.968(5) 0.018(6)
N1 N 0.1505(3) 0.1524(2) 0.49557(15)
N2 N 0.2382(3) 0.12210(18) 0.38075(15)
N3 N 0.4466(3) 0.29974(18) 0.38028(15)
H7 H 0.5494 0.3684 0.3590
N4 N 0.5456(4) 0.2127(2) 0.19881(17)
H8 H 0.5157 0.1519 0.1609
H9 H 0.6585 0.2750 0.1630
C5 C 0.2802(4) 0.2601(2) 0.49039(19)
H10 H 0.2621 0.3053 0.5546
C6 C 0.4187(4) 0.2105(2) 0.31145(17)
loop_
_geom_bond_atom_site_label_1
_geom_bond_atom_site_label_2
_geom_bond_site_symmetry_1
_geom_bond_site_symmetry_2
O1 C1 1_555 1_555
O2 H1 1_555 1_555
O3 C4 1_555 1_555
O4 C4 1_555 1_555
C1 O2 1_555 1_555
C2 C1 1_555 1_555
H2 C2 1_555 1_555
H3 C2 1_555 1_555
C3 C2 1_555 1_555
H4 C3 1_555 1_555
H5 C3 1_555 1_555
C4 C3 1_555 1_555
H6 O3 1_555 1_555
N1 N2 1_555 1_555
N2 C6 1_555 1_555
N3 H7 1_555 1_555
N4 H8 1_555 1_555
H9 N4 1_555 1_555
C5 N1 1_555 1_555
H10 C5 1_555 1_555
C6 N3 1_555 1_555
N3 C5 1_555 1_555
N4 C6 1_555 1_555

#END
