
#######################################################################
#
#                 Cambridge Crystallographic Data Centre
#                                CCDC 
#
#######################################################################
#
# If this CIF has been generated from an entry in the Cambridge 
# Structural Database, then it will include bibliographic, chemical, 
# crystal, experimental, refinement or atomic coordinate data resulting 
# from the CCDC's data processing and validation procedures.
#
#######################################################################

data_CEBQOQ
_chemical_formula_moiety         'C16 H36 N1 1+,C15 H18 N4,Cl1 1-'
_chemical_name_systematic        
'Tetra-n-butylammonium tris(2-pyrrolylmethyl)amine chloride'
_symmetry_cell_setting           monoclinic
_symmetry_space_group_name_H-M   'P 21/n'
_symmetry_Int_Tables_number      14
_space_group_name_Hall           '-P 2yn'
loop_
_symmetry_equiv_pos_site_id
_symmetry_equiv_pos_as_xyz
1 x,y,z
2 1/2-x,1/2+y,1/2-z
3 -x,-y,-z
4 1/2+x,1/2-y,1/2+z
_cell_length_a                   14.066(2)
_cell_length_b                   16.202(3)
_cell_length_c                   14.798(2)
_cell_angle_alpha                90
_cell_angle_beta                 95.955(3)
_cell_angle_gamma                90
_cell_volume                     3354.23
_exptl_crystal_colour            colorless
_exptl_crystal_description       block
_cell_formula_units_Z            4
loop_
_atom_site_label
_atom_site_type_symbol
_atom_site_fract_x
_atom_site_fract_y
_atom_site_fract_z
Cl1 Cl 0.40892(5) 0.11614(4) 0.88695(5)
N1 N -0.01794(18) 0.62412(16) 0.83344(16)
N2 N 0.1762(2) 0.56766(14) 0.8201(2)
H1 H 0.1492 0.5770 0.7662
N3 N 0.01872(17) 0.76943(17) 0.7266(2)
H2 H 0.0449 0.7268 0.7049
N4 N -0.09280(18) 0.52548(16) 0.67959(19)
H3 H -0.0457 0.5547 0.6650
C1 C 0.0242(3) 0.5581(2) 0.8902(2)
H4 H 0.0003 0.5056 0.8659
H5 H 0.0047 0.5639 0.9509
C2 C 0.1293(3) 0.55797(19) 0.8958(3)
C3 C 0.2714(3) 0.5604(2) 0.8427(4)
H6 H 0.3183 0.5650 0.8031
C4 C 0.2865(4) 0.5453(2) 0.9321(4)
H7 H 0.3455 0.5367 0.9653
C5 C 0.1973(4) 0.5448(2) 0.9664(3)
H8 H 0.1867 0.5369 1.0267
C6 C 0.0034(2) 0.7053(2) 0.8746(2)
H9 H 0.0694 0.7060 0.9011
H10 H -0.0367 0.7137 0.9233
C7 C -0.0120(2) 0.7743(2) 0.8089(3)
C8 C -0.0488(3) 0.8506(3) 0.8176(3)
H11 H -0.0759 0.8704 0.8680
C9 C -0.0392(3) 0.8940(3) 0.7388(4)
H12 H -0.0576 0.9484 0.7267
C10 C 0.0020(3) 0.8424(3) 0.6826(3)
H13 H 0.0164 0.8547 0.6242
C11 C -0.1208(2) 0.6134(2) 0.8108(2)
H14 H -0.1472 0.6623 0.7799
H15 H -0.1512 0.6069 0.8663
C12 C -0.1421(2) 0.5405(2) 0.7520(2)
C13 C -0.2099(2) 0.4809(2) 0.7522(2)
H16 H -0.2542 0.4755 0.7943
C14 C -0.2014(3) 0.4286(2) 0.6777(3)
H17 H -0.2390 0.3826 0.6617
C15 C -0.1285(3) 0.4574(2) 0.6331(2)
H18 H -0.1069 0.4350 0.5811
N5 N 0.19392(17) 0.33241(14) 0.59239(16)
C16 C 0.2323(2) 0.30389(18) 0.6859(2)
H19 H 0.2267 0.2443 0.6878
H20 H 0.2999 0.3171 0.6948
C17 C 0.1860(3) 0.3387(2) 0.7642(2)
H21 H 0.1174 0.3311 0.7536
H22 H 0.1988 0.3974 0.7689
C18 C 0.2233(3) 0.2968(3) 0.8522(3)
H23 H 0.2262 0.2380 0.8407
H24 H 0.2884 0.3156 0.8684
C19 C 0.1728(4) 0.3085(3) 0.9270(3)
H25 H 0.1719 0.3662 0.9417
H26 H 0.2031 0.2783 0.9779
H27 H 0.1084 0.2891 0.9131
C20 C 0.2139(2) 0.42327(17) 0.5802(2)
H28 H 0.1899 0.4388 0.5187
H29 H 0.1779 0.4543 0.6212
C21 C 0.3172(2) 0.44896(19) 0.5964(2)
H30 H 0.3394 0.4411 0.6601
H31 H 0.3551 0.4137 0.5611
C22 C 0.3324(2) 0.5367(2) 0.5715(2)
H32 H 0.2888 0.5710 0.6017
H33 H 0.3159 0.5429 0.5065
C23 C 0.4318(3) 0.5681(2) 0.5951(3)
H34 H 0.4445 0.5728 0.6599
H35 H 0.4383 0.6212 0.5677
H36 H 0.4765 0.5303 0.5728
C24 C 0.2437(2) 0.28045(18) 0.5255(2)
H37 H 0.3120 0.2901 0.5368
H38 H 0.2326 0.2227 0.5383
C25 C 0.2140(3) 0.2955(2) 0.4262(2)
H39 H 0.2260 0.3527 0.4117
H40 H 0.1459 0.2854 0.4133
C26 C 0.2686(4) 0.2395(2) 0.3675(3)
H41 H 0.2651 0.1834 0.3900
H42 H 0.2369 0.2404 0.3061
C27 C 0.3669(4) 0.2605(4) 0.3644(3)
H43 H 0.3896 0.2906 0.4182
H44 H 0.3733 0.2941 0.3119
H45 H 0.4038 0.2110 0.3609
C28 C 0.0863(2) 0.32150(18) 0.5769(2)
H46 H 0.0571 0.3570 0.6190
H47 H 0.0646 0.3401 0.5159
C29 C 0.0508(2) 0.23461(19) 0.5880(3)
H48 H 0.0707 0.2007 0.5393
H49 H 0.0806 0.2124 0.6450
C30 C -0.0545(2) 0.2285(2) 0.5873(3)
H50 H -0.0843 0.2499 0.5300
H51 H -0.0746 0.2629 0.6355
C31 C -0.0893(3) 0.1418(2) 0.5996(3)
H52 H -0.0661 0.1065 0.5546
H53 H -0.1579 0.1412 0.5930
H54 H -0.0661 0.1223 0.6591
loop_
_geom_bond_atom_site_label_1
_geom_bond_atom_site_label_2
_geom_bond_site_symmetry_1
_geom_bond_site_symmetry_2
N1 C1 1_555 1_555
N2 H1 1_555 1_555
N3 H2 1_555 1_555
N4 H3 1_555 1_555
N5 C16 1_555 1_555
C1 H4 1_555 1_555
H5 C1 1_555 1_555
C2 N2 1_555 1_555
C3 N2 1_555 1_555
H6 C3 1_555 1_555
C4 C3 1_555 1_555
H7 C4 1_555 1_555
C5 C2 1_555 1_555
H8 C5 1_555 1_555
C6 N1 1_555 1_555
H9 C6 1_555 1_555
H10 C6 1_555 1_555
C7 N3 1_555 1_555
C8 C7 1_555 1_555
H11 C8 1_555 1_555
C9 C8 1_555 1_555
H12 C9 1_555 1_555
C10 N3 1_555 1_555
H13 C10 1_555 1_555
C11 N1 1_555 1_555
H14 C11 1_555 1_555
H15 C11 1_555 1_555
C12 N4 1_555 1_555
C13 C12 1_555 1_555
H16 C13 1_555 1_555
C14 C13 1_555 1_555
H17 C14 1_555 1_555
C15 N4 1_555 1_555
H18 C15 1_555 1_555
C16 H19 1_555 1_555
H20 C16 1_555 1_555
C17 C16 1_555 1_555
H21 C17 1_555 1_555
H22 C17 1_555 1_555
C18 C17 1_555 1_555
H23 C18 1_555 1_555
H24 C18 1_555 1_555
C19 C18 1_555 1_555
H25 C19 1_555 1_555
H26 C19 1_555 1_555
H27 C19 1_555 1_555
C20 N5 1_555 1_555
H28 C20 1_555 1_555
H29 C20 1_555 1_555
C21 C20 1_555 1_555
H30 C21 1_555 1_555
H31 C21 1_555 1_555
C22 C21 1_555 1_555
H32 C22 1_555 1_555
H33 C22 1_555 1_555
C23 C22 1_555 1_555
H34 C23 1_555 1_555
H35 C23 1_555 1_555
H36 C23 1_555 1_555
C24 N5 1_555 1_555
H37 C24 1_555 1_555
H38 C24 1_555 1_555
C25 C24 1_555 1_555
H39 C25 1_555 1_555
H40 C25 1_555 1_555
C26 C25 1_555 1_555
H41 C26 1_555 1_555
H42 C26 1_555 1_555
C27 C26 1_555 1_555
H43 C27 1_555 1_555
H44 C27 1_555 1_555
H45 C27 1_555 1_555
C28 N5 1_555 1_555
H46 C28 1_555 1_555
H47 C28 1_555 1_555
C29 C28 1_555 1_555
H48 C29 1_555 1_555
H49 C29 1_555 1_555
C30 C29 1_555 1_555
H50 C30 1_555 1_555
H51 C30 1_555 1_555
C31 C30 1_555 1_555
H52 C31 1_555 1_555
H53 C31 1_555 1_555
H54 C31 1_555 1_555
C1 C2 1_555 1_555
C4 C5 1_555 1_555
C6 C7 1_555 1_555
C9 C10 1_555 1_555
C11 C12 1_555 1_555
C14 C15 1_555 1_555

#END
