
#######################################################################
#
#                 Cambridge Crystallographic Data Centre
#                                CCDC 
#
#######################################################################
#
# If this CIF has been generated from an entry in the Cambridge 
# Structural Database, then it will include bibliographic, chemical, 
# crystal, experimental, refinement or atomic coordinate data resulting 
# from the CCDC's data processing and validation procedures.
#
#######################################################################

data_CEBQUW
_chemical_formula_moiety         'C16 H36 N1 1+,C15 H19 N4 1+,O4 S1 2-'
_chemical_name_systematic        
'Tetra-n-butylammonium tris(2-pyrrolylmethyl)ammonium sulfate'
_symmetry_cell_setting           orthorhombic
_symmetry_space_group_name_H-M   'P 21 21 21'
_symmetry_Int_Tables_number      19
_space_group_name_Hall           'P 2ac 2ab'
loop_
_symmetry_equiv_pos_site_id
_symmetry_equiv_pos_as_xyz
1 x,y,z
2 1/2-x,-y,1/2+z
3 -x,1/2+y,1/2-z
4 1/2+x,1/2-y,-z
_cell_length_a                   13.3926(13)
_cell_length_b                   14.0190(14)
_cell_length_c                   18.6205(18)
_cell_angle_alpha                90
_cell_angle_beta                 90
_cell_angle_gamma                90
_cell_volume                     3496.01
_exptl_crystal_colour            colorless
_exptl_crystal_description       block
_cell_formula_units_Z            4
loop_
_atom_site_label
_atom_site_type_symbol
_atom_site_fract_x
_atom_site_fract_y
_atom_site_fract_z
S1 S 0.95680(4) 0.77224(4) 0.14338(3)
O1 O 0.92913(14) 0.70969(12) 0.08398(9)
O2 O 1.00670(13) 0.85658(12) 0.11687(10)
O3 O 0.86561(12) 0.79871(12) 0.18351(9)
O4 O 1.02260(12) 0.71998(13) 0.19295(9)
N1 N 0.88121(17) 0.52138(15) 0.12175(11)
H1 H 0.8952 0.5832 0.1127
N2 N 1.21872(15) 0.47570(15) 0.29206(11)
H2 H 1.1845 0.4215 0.3029
N3 N 0.84573(17) 0.72768(17) 0.32357(12)
H3 H 0.8570 0.7459 0.2776
N4 N 0.98943(14) 0.56475(13) 0.26999(10)
H4 H 0.9948 0.6223 0.2459
C1 C 0.8035(2) 0.4767(2) 0.08965(19)
H5 H 0.7613 0.5033 0.0554
C2 C 0.7975(3) 0.3876(3) 0.1158(2)
H6 H 0.7519 0.3411 0.1020
C3 C 0.8735(3) 0.3773(2) 0.16826(17)
H7 H 0.8865 0.3236 0.1960
C4 C 0.9229(2) 0.46102(17) 0.16993(13)
C5 C 1.00910(19) 0.48514(17) 0.21700(13)
H8 H 1.0651 0.5032 0.1869
H9 H 1.0283 0.4285 0.2435
C6 C 1.06824(17) 0.56745(17) 0.32774(13)
H10 H 1.0606 0.6261 0.3548
H11 H 1.0567 0.5148 0.3605
C7 C 1.17261(18) 0.56176(17) 0.30133(13)
C8 C 1.2377(2) 0.6308(2) 0.28118(15)
H12 H 1.2258 0.6962 0.2820
C9 C 1.3262(2) 0.5864(2) 0.25891(16)
H13 H 1.3837 0.6164 0.2423
C10 C 1.3116(2) 0.4914(2) 0.26630(15)
H14 H 1.3581 0.4443 0.2554
C11 C 0.88707(19) 0.55749(19) 0.30287(14)
H15 H 0.8381 0.5529 0.2647
H16 H 0.8834 0.4992 0.3309
C12 C 0.86091(18) 0.63892(19) 0.34956(13)
C13 C 0.8410(3) 0.6429(3) 0.42201(15)
H17 H 0.8457 0.5926 0.4544
C14 C 0.8128(3) 0.7353(3) 0.43799(17)
H18 H 0.7942 0.7583 0.4829
C15 C 0.8171(3) 0.7855(3) 0.37721(18)
H19 H 0.8027 0.8502 0.3727
N5 N 0.20653(15) 0.63847(14) 0.00573(11)
C16 C 0.1888(2) 0.6972(2) -0.06156(14)
H20 H 0.1891 0.6545 -0.1026
H21 H 0.2444 0.7409 -0.0674
C17 C 0.0923(2) 0.7547(2) -0.06305(15)
H22 H 0.0355 0.7119 -0.0660
H23 H 0.0862 0.7917 -0.0192
C18 C 0.0928(7) 0.8211(4) -0.1276(2)
C19 C 0.0947(7) 0.7691(7) -0.1992(3)
C22 C 0.2087(2) 0.70100(19) 0.07278(14)
H24 H 0.1428 0.7285 0.0792
H25 H 0.2216 0.6604 0.1139
C23 C 0.2836(2) 0.7804(2) 0.07315(16)
H26 H 0.2687 0.8251 0.0348
H27 H 0.3499 0.7549 0.0650
C24 C 0.2804(3) 0.8315(2) 0.1451(2)
H28 H 0.2120 0.8506 0.1546
H29 H 0.2998 0.7868 0.1823
C25 C 0.3456(3) 0.9175(3) 0.1504(3)
H30 H 0.4111 0.9023 0.1330
H31 H 0.3498 0.9374 0.1996
H32 H 0.3177 0.9681 0.1220
C26 C 0.30637(18) 0.58933(19) -0.00494(14)
H33 H 0.3027 0.5514 -0.0484
H34 H 0.3568 0.6380 -0.0126
C27 C 0.3406(2) 0.5257(2) 0.05542(16)
H35 H 0.2891 0.4790 0.0658
H36 H 0.3509 0.5638 0.0983
C28 C 0.4365(2) 0.4749(3) 0.03635(18)
H37 H 0.4241 0.4327 -0.0040
H38 H 0.4855 0.5217 0.0213
C29 C 0.4792(3) 0.4177(3) 0.0972(2)
H39 H 0.4972 0.4596 0.1358
H40 H 0.5373 0.3840 0.0809
H41 H 0.4302 0.3727 0.1137
C30 C 0.1235(2) 0.56685(19) 0.01703(15)
H42 H 0.0615 0.6017 0.0234
H43 H 0.1366 0.5329 0.0614
C31 C 0.1079(2) 0.4935(2) -0.04224(17)
H44 H 0.0961 0.5260 -0.0874
H45 H 0.1676 0.4550 -0.0474
C32 C 0.0196(3) 0.4295(2) -0.0252(2)
H46 H 0.0324 0.3965 0.0197
H47 H -0.0393 0.4688 -0.0185
C33 C -0.0013(4) 0.3570(3) -0.0825(3)
H48 H -0.0202 0.3891 -0.1260
H49 H -0.0546 0.3160 -0.0673
H50 H 0.0576 0.3197 -0.0910
C20? C 0.0599(6) 0.7843(10) -0.1381(4)
C21? C 0.1383(6) 0.8392(8) -0.1802(6)
loop_
_geom_bond_atom_site_label_1
_geom_bond_atom_site_label_2
_geom_bond_site_symmetry_1
_geom_bond_site_symmetry_2
S1 O1 1_555 1_555
O2 S1 1_555 1_555
O3 S1 1_555 1_555
O4 S1 1_555 1_555
N1 H1 1_555 1_555
N2 H2 1_555 1_555
N3 H3 1_555 1_555
N4 H4 1_555 1_555
N5 C16 1_555 1_555
C1 N1 1_555 1_555
H5 C1 1_555 1_555
C2 C1 1_555 1_555
H6 C2 1_555 1_555
C3 C2 1_555 1_555
H7 C3 1_555 1_555
C4 N1 1_555 1_555
C5 N4 1_555 1_555
H8 C5 1_555 1_555
H9 C5 1_555 1_555
C6 N4 1_555 1_555
H10 C6 1_555 1_555
H11 C6 1_555 1_555
C7 N2 1_555 1_555
C8 C7 1_555 1_555
H12 C8 1_555 1_555
C9 C8 1_555 1_555
H13 C9 1_555 1_555
C10 N2 1_555 1_555
H14 C10 1_555 1_555
C11 N4 1_555 1_555
H15 C11 1_555 1_555
H16 C11 1_555 1_555
C12 N3 1_555 1_555
C13 C12 1_555 1_555
H17 C13 1_555 1_555
C14 C13 1_555 1_555
H18 C14 1_555 1_555
C15 N3 1_555 1_555
H19 C15 1_555 1_555
C16 H20 1_555 1_555
H21 C16 1_555 1_555
C17 C16 1_555 1_555
H22 C17 1_555 1_555
H23 C17 1_555 1_555
C18 C17 1_555 1_555
C19 C18 1_555 1_555
C22 N5 1_555 1_555
H24 C22 1_555 1_555
H25 C22 1_555 1_555
C23 C22 1_555 1_555
H26 C23 1_555 1_555
H27 C23 1_555 1_555
C24 C23 1_555 1_555
H28 C24 1_555 1_555
H29 C24 1_555 1_555
C25 C24 1_555 1_555
H30 C25 1_555 1_555
H31 C25 1_555 1_555
H32 C25 1_555 1_555
C26 N5 1_555 1_555
H33 C26 1_555 1_555
H34 C26 1_555 1_555
C27 C26 1_555 1_555
H35 C27 1_555 1_555
H36 C27 1_555 1_555
C28 C27 1_555 1_555
H37 C28 1_555 1_555
H38 C28 1_555 1_555
C29 C28 1_555 1_555
H39 C29 1_555 1_555
H40 C29 1_555 1_555
H41 C29 1_555 1_555
C30 N5 1_555 1_555
H42 C30 1_555 1_555
H43 C30 1_555 1_555
C31 C30 1_555 1_555
H44 C31 1_555 1_555
H45 C31 1_555 1_555
C32 C31 1_555 1_555
H46 C32 1_555 1_555
H47 C32 1_555 1_555
C33 C32 1_555 1_555
H48 C33 1_555 1_555
H49 C33 1_555 1_555
H50 C33 1_555 1_555
C3 C4 1_555 1_555
C4 C5 1_555 1_555
C6 C7 1_555 1_555
C9 C10 1_555 1_555
C11 C12 1_555 1_555
C14 C15 1_555 1_555

#END
