
#######################################################################
#
#                 Cambridge Crystallographic Data Centre
#                                CCDC 
#
#######################################################################
#
# If this CIF has been generated from an entry in the Cambridge 
# Structural Database, then it will include bibliographic, chemical, 
# crystal, experimental, refinement or atomic coordinate data resulting 
# from the CCDC's data processing and validation procedures.
#
#######################################################################

data_CEBTEI10
_chemical_formula_moiety         'C33 H21 N1 O2 S1'
_chemical_name_systematic        
3'-Phenyl-dispiro(fluorene-9,4'-(1,2)thiazole-5',9''-fluorene)-1',1'-dioxide
_symmetry_cell_setting           monoclinic
_symmetry_space_group_name_H-M   'P 21/n'
_symmetry_Int_Tables_number      14
_space_group_name_Hall           '-P 2yn'
loop_
_symmetry_equiv_pos_site_id
_symmetry_equiv_pos_as_xyz
1 x,y,z
2 1/2-x,1/2+y,1/2-z
3 -x,-y,-z
4 1/2+x,1/2-y,1/2+z
_cell_length_a                   15.542(2)
_cell_length_b                   10.116(2)
_cell_length_c                   16.661(2)
_cell_angle_alpha                90
_cell_angle_beta                 112.47(1)
_cell_angle_gamma                90
_cell_volume                     2420.62
_cell_formula_units_Z            4
loop_
_atom_site_label
_atom_site_type_symbol
_atom_site_fract_x
_atom_site_fract_y
_atom_site_fract_z
S1 S 0.1286(1) -0.0098(1) 0.3930(1)
O1 O 0.2203(2) -0.0588(2) 0.4152(2)
O2 O 0.0628(2) -0.0915(2) 0.4120(2)
N1 N 0.1360(2) 0.1373(3) 0.4420(2)
C1 C 0.0868(2) 0.2255(3) 0.3883(2)
C2 C 0.0249(2) 0.1810(3) 0.2971(2)
C3 C 0.0779(2) 0.0540(3) 0.2825(2)
C4 C 0.0897(2) 0.3631(3) 0.4195(2)
C5 C 0.1671(3) 0.4030(3) 0.4911(2)
C6 C 0.1713(3) 0.5292(3) 0.5245(2)
C7 C 0.0989(3) 0.6166(3) 0.4853(2)
C8 C 0.0236(3) 0.5788(3) 0.4145(2)
C9 C 0.0178(2) 0.4520(3) 0.3803(2)
C10 C -0.0982(3) 0.0927(3) 0.3590(2)
C11 C -0.1916(3) 0.0799(4) 0.3422(3)
C12 C -0.2587(3) 0.1287(4) 0.2676(3)
C13 C -0.2335(3) 0.1962(4) 0.2067(2)
C14 C -0.1328(3) 0.3601(3) 0.1009(2)
C15 C -0.0729(3) 0.4340(4) 0.0744(2)
C16 C 0.0210(3) 0.4317(4) 0.1206(3)
C17 C 0.0612(3) 0.3535(3) 0.1949(2)
C18 C -0.0725(2) 0.1540(3) 0.2960(2)
C19 C -0.1402(2) 0.2083(3) 0.2223(2)
C20 C -0.0934(2) 0.2829(3) 0.1753(2)
C21 C 0.0017(2) 0.2770(3) 0.2201(2)
C22 C -0.0577(3) -0.1161(3) 0.2076(2)
C23 C -0.1000(3) -0.1954(3) 0.1347(3)
C24 C -0.0663(3) -0.2006(4) 0.0688(2)
C25 C 0.0111(3) -0.1287(3) 0.0752(2)
C26 C 0.2000(3) 0.0450(4) 0.1305(3)
C27 C 0.2788(3) 0.1195(4) 0.1707(3)
C28 C 0.2982(3) 0.1744(4) 0.2518(3)
C29 C 0.2367(3) 0.1593(3) 0.2934(3)
C30 C 0.0188(2) -0.0419(3) 0.2133(2)
C31 C 0.0544(2) -0.0498(3) 0.1474(2)
C32 C 0.1383(2) 0.0288(3) 0.1721(2)
C33 C 0.1570(2) 0.0878(3) 0.2528(2)
H1 H 0.2243 0.3353 0.5207
H2 H 0.2307 0.5592 0.5809
H3 H 0.1022 0.7154 0.5109
H4 H -0.0324 0.6481 0.3845
H5 H -0.0420 0.4232 0.3238
H6 H -0.0462 0.0565 0.4189
H7 H -0.2128 0.0301 0.3890
H8 H -0.3314 0.1149 0.2559
H9 H -0.2859 0.2377 0.1489
H10 H -0.2072 0.3625 0.0651
H11 H -0.1011 0.4939 0.0165
H12 H 0.0655 0.4921 0.0993
H13 H 0.1355 0.3527 0.2312
H14 H -0.0843 -0.1128 0.2587
H15 H -0.1601 -0.2537 0.1294
H16 H -0.1009 -0.2613 0.0123
H17 H 0.0379 -0.1338 0.0243
H18 H 0.1863 0.0001 0.0680
H19 H 0.3264 0.1355 0.1384
H20 H 0.3619 0.2294 0.2830
H21 H 0.2513 0.2031 0.3564
loop_
_geom_bond_atom_site_label_1
_geom_bond_atom_site_label_2
_geom_bond_site_symmetry_1
_geom_bond_site_symmetry_2
S1 O1 1_555 1_555
O2 S1 1_555 1_555
N1 S1 1_555 1_555
C1 N1 1_555 1_555
C2 C1 1_555 1_555
C3 S1 1_555 1_555
C4 C1 1_555 1_555
C5 C4 1_555 1_555
C6 C5 1_555 1_555
C7 C6 1_555 1_555
C8 C7 1_555 1_555
C9 C4 1_555 1_555
C10 C11 1_555 1_555
C11 C12 1_555 1_555
C12 C13 1_555 1_555
C13 C19 1_555 1_555
C14 C15 1_555 1_555
C15 C16 1_555 1_555
C16 C17 1_555 1_555
C17 C21 1_555 1_555
C18 C2 1_555 1_555
C19 C18 1_555 1_555
C20 C14 1_555 1_555
C21 C2 1_555 1_555
C22 C23 1_555 1_555
C23 C24 1_555 1_555
C24 C25 1_555 1_555
C25 C31 1_555 1_555
C26 C27 1_555 1_555
C27 C28 1_555 1_555
C28 C29 1_555 1_555
C29 C33 1_555 1_555
C30 C3 1_555 1_555
C31 C30 1_555 1_555
C32 C26 1_555 1_555
C33 C3 1_555 1_555
H1 C5 1_555 1_555
H2 C6 1_555 1_555
H3 C7 1_555 1_555
H4 C8 1_555 1_555
H5 C9 1_555 1_555
H6 C10 1_555 1_555
H7 C11 1_555 1_555
H8 C12 1_555 1_555
H9 C13 1_555 1_555
H10 C14 1_555 1_555
H11 C15 1_555 1_555
H12 C16 1_555 1_555
H13 C17 1_555 1_555
H14 C22 1_555 1_555
H15 C23 1_555 1_555
H16 C24 1_555 1_555
H17 C25 1_555 1_555
H18 C26 1_555 1_555
H19 C27 1_555 1_555
H20 C28 1_555 1_555
H21 C29 1_555 1_555
C2 C3 1_555 1_555
C8 C9 1_555 1_555
C10 C18 1_555 1_555
C19 C20 1_555 1_555
C20 C21 1_555 1_555
C22 C30 1_555 1_555
C31 C32 1_555 1_555
C32 C33 1_555 1_555

#END
