
#######################################################################
#
#                 Cambridge Crystallographic Data Centre
#                                CCDC 
#
#######################################################################
#
# If this CIF has been generated from an entry in the Cambridge 
# Structural Database, then it will include bibliographic, chemical, 
# crystal, experimental, refinement or atomic coordinate data resulting 
# from the CCDC's data processing and validation procedures.
#
#######################################################################

data_CECFUN
_chemical_formula_moiety         'C12 H15 Br2 N1 O1 S1'
_chemical_name_systematic        
2,2-Dibromo-1-(t-butylsulfinyl)-3-phenylaziridine
_symmetry_cell_setting           monoclinic
_symmetry_space_group_name_H-M   'P 21'
_symmetry_Int_Tables_number      4
_space_group_name_Hall           'P 2yb'
loop_
_symmetry_equiv_pos_site_id
_symmetry_equiv_pos_as_xyz
1 x,y,z
2 -x,1/2+y,-z
_cell_length_a                   6.4721(10)
_cell_length_b                   22.105(3)
_cell_length_c                   10.6216(17)
_cell_angle_alpha                90
_cell_angle_beta                 107.74
_cell_angle_gamma                90
_cell_volume                     1447.33
_exptl_crystal_colour            colorless
_exptl_crystal_description       prismatic
_cell_formula_units_Z            4
loop_
_atom_site_label
_atom_site_type_symbol
_atom_site_fract_x
_atom_site_fract_y
_atom_site_fract_z
Br1 Br 0.49517(6) 0.008789(14) 0.81303(4)
Br2 Br 0.02445(6) 0.045175(15) 0.80974(4)
S1 S 0.32967(15) 0.04126(4) 0.49896(9)
N1 N 0.1863(5) 0.07305(12) 0.5964(3)
O1 O 0.5392(4) 0.07311(13) 0.5243(3)
C1 C 0.2535(6) 0.06122(15) 0.7350(4)
C2 C 0.2893(6) 0.12234(14) 0.6890(4)
H1 H 0.4428 0.1315 0.6938
C3 C 0.1540(6) 0.17632(14) 0.6943(4)
C4 C 0.2564(6) 0.22780(16) 0.7610(4)
H2 H 0.4092 0.2280 0.8010
C5 C 0.1356(7) 0.27839(15) 0.7689(4)
H3 H 0.2055 0.3134 0.8144
C6 C -0.0860(7) 0.27828(16) 0.7109(4)
H4 H -0.1684 0.3131 0.7169
C7 C -0.1887(6) 0.22796(16) 0.6442(4)
H5 H -0.3414 0.2284 0.6037
C8 C -0.0709(6) 0.17682(16) 0.6357(4)
H6 H -0.1426 0.1421 0.5901
C9 C 0.1500(7) 0.07117(16) 0.3430(4)
C10 C 0.1396(8) 0.13977(17) 0.3472(4)
H7 H 0.0560 0.1551 0.2600
H8 H 0.2869 0.1564 0.3716
H9 H 0.0692 0.1521 0.4127
C11 C 0.2622(7) 0.0509(2) 0.2411(4)
H10 H 0.1741 0.0633 0.1524
H11 H 0.2782 0.0068 0.2442
H12 H 0.4057 0.0698 0.2621
C12 C -0.0699(7) 0.04076(18) 0.3176(4)
H13 H -0.1377 0.0546 0.3833
H14 H -0.0505 -0.0032 0.3243
H15 H -0.1630 0.0513 0.2288
Br3 Br 0.39020(6) 0.887862(16) 1.06163(4)
Br4 Br -0.08917(6) 0.920208(13) 1.05062(4)
S2 S -0.21583(14) 0.88618(4) 0.73890(9)
N2 N 0.0271(5) 0.85712(12) 0.8418(3)
O2 O -0.3947(4) 0.84947(12) 0.7563(3)
C13 C 0.0903(6) 0.86916(14) 0.9779(4)
C14 C 0.0164(6) 0.80717(15) 0.9330(4)
H16 H -0.1330 0.7970 0.9352
C15 C 0.1615(6) 0.75394(14) 0.9408(4)
C16 C 0.1259(6) 0.70213(15) 1.0034(4)
H17 H 0.0118 0.7010 1.0423
C17 C 0.2562(7) 0.65169(17) 1.0097(4)
H18 H 0.2309 0.6161 1.0530
C18 C 0.4233(6) 0.65289(17) 0.9530(4)
H19 H 0.5131 0.6184 0.9582
C19 C 0.4579(7) 0.70429(17) 0.8893(4)
H20 H 0.5701 0.7049 0.8488
C20 C 0.3288(6) 0.75573(16) 0.8835(4)
H21 H 0.3550 0.7915 0.8411
C21 C -0.1738(6) 0.86073(16) 0.5841(4)
C22 C -0.3783(7) 0.8823(2) 0.4788(4)
H22 H -0.3714 0.8707 0.3911
H23 H -0.3890 0.9265 0.4834
H24 H -0.5059 0.8637 0.4942
C23 C 0.0273(8) 0.89416(19) 0.5704(4)
H25 H 0.1579 0.8783 0.6357
H26 H 0.0138 0.9375 0.5855
H27 H 0.0380 0.8879 0.4812
C24 C -0.1518(8) 0.79254(17) 0.5846(4)
H28 H -0.2745 0.7741 0.6062
H29 H -0.0160 0.7806 0.6508
H30 H -0.1507 0.7788 0.4971
loop_
_geom_bond_atom_site_label_1
_geom_bond_atom_site_label_2
_geom_bond_site_symmetry_1
_geom_bond_site_symmetry_2
Br1 C1 1_555 1_555
Br2 C1 1_555 1_555
Br3 C13 1_555 1_555
Br4 C13 1_555 1_555
S1 N1 1_555 1_555
S2 N2 1_555 1_555
N1 C1 1_555 1_555
N2 C13 1_555 1_555
O1 S1 1_555 1_555
O2 S2 1_555 1_555
C1 C2 1_555 1_555
C2 N1 1_555 1_555
H1 C2 1_555 1_555
C3 C2 1_555 1_555
C4 C3 1_555 1_555
H2 C4 1_555 1_555
C5 C4 1_555 1_555
H3 C5 1_555 1_555
C6 C5 1_555 1_555
H4 C6 1_555 1_555
C7 C6 1_555 1_555
H5 C7 1_555 1_555
C8 C3 1_555 1_555
H6 C8 1_555 1_555
C9 S1 1_555 1_555
C10 C9 1_555 1_555
H7 C10 1_555 1_555
H8 C10 1_555 1_555
H9 C10 1_555 1_555
C11 C9 1_555 1_555
H10 C11 1_555 1_555
H11 C11 1_555 1_555
H12 C11 1_555 1_555
C12 C9 1_555 1_555
H13 C12 1_555 1_555
H14 C12 1_555 1_555
H15 C12 1_555 1_555
C13 C14 1_555 1_555
C14 N2 1_555 1_555
H16 C14 1_555 1_555
C15 C14 1_555 1_555
C16 C15 1_555 1_555
H17 C16 1_555 1_555
C17 C16 1_555 1_555
H18 C17 1_555 1_555
C18 C17 1_555 1_555
H19 C18 1_555 1_555
C19 C18 1_555 1_555
H20 C19 1_555 1_555
C20 C15 1_555 1_555
H21 C20 1_555 1_555
C21 S2 1_555 1_555
C22 C21 1_555 1_555
H22 C22 1_555 1_555
H23 C22 1_555 1_555
H24 C22 1_555 1_555
C23 C21 1_555 1_555
H25 C23 1_555 1_555
H26 C23 1_555 1_555
H27 C23 1_555 1_555
C24 C21 1_555 1_555
H28 C24 1_555 1_555
H29 C24 1_555 1_555
H30 C24 1_555 1_555
C7 C8 1_555 1_555
C19 C20 1_555 1_555

#END
