
#######################################################################
#
#                 Cambridge Crystallographic Data Centre
#                                CCDC 
#
#######################################################################
#
# If this CIF has been generated from an entry in the Cambridge 
# Structural Database, then it will include bibliographic, chemical, 
# crystal, experimental, refinement or atomic coordinate data resulting 
# from the CCDC's data processing and validation procedures.
#
#######################################################################

data_CECFAT01
_chemical_formula_moiety         'C17 H17 N3 O2,0.5(H2 O1)'
_chemical_name_systematic        
'2-amino-7,7-dimethyl-5-oxo-4-(pyridin-4-yl)-5,6,7,8-tetrahydro-4H-chromene-3-carbonitrile hemihydrate'
_symmetry_cell_setting           monoclinic
_symmetry_space_group_name_H-M   'C 2/c'
_symmetry_Int_Tables_number      15
_space_group_name_Hall           '-C 2yn'
loop_
_symmetry_equiv_pos_site_id
_symmetry_equiv_pos_as_xyz
1 x,y,z
2 -x,y,1/2-z
3 1/2+x,1/2+y,z
4 1/2-x,1/2+y,1/2-z
5 -x,-y,-z
6 x,-y,1/2+z
7 1/2-x,1/2-y,-z
8 1/2+x,1/2-y,1/2+z
_cell_length_a                   22.010(6)
_cell_length_b                   11.0364(10)
_cell_length_c                   17.147(4)
_cell_angle_alpha                90
_cell_angle_beta                 130.37(4)
_cell_angle_gamma                90
_cell_volume                     3173.37
_exptl_crystal_colour            white
_exptl_crystal_description       Block
_cell_formula_units_Z            8
loop_
_atom_site_label
_atom_site_type_symbol
_atom_site_fract_x
_atom_site_fract_y
_atom_site_fract_z
O1 O 0.08202(7) 0.82409(9) 0.13319(9)
C1 C 0.08804(9) 0.94361(13) 0.15937(12)
C2 C 0.10405(9) 1.03146(13) 0.12020(12)
C3 C 0.12051(9) 1.00647(13) 0.04841(12)
H1 H 0.0822 1.0529 -0.0146
C4 C 0.10738(9) 0.83136(14) -0.05937(12)
O2 O 0.11675(9) 0.90350(11) -0.10475(10)
C5 C 0.09145(11) 0.69958(15) -0.08790(13)
H2 H 0.1185 0.6765 -0.1132
H3 H 0.0347 0.6889 -0.1435
C6 C 0.11792(10) 0.61375(14) -0.00077(13)
C7 C 0.08132(10) 0.66055(13) 0.04482(13)
H4 H 0.0248 0.6416 -0.0018
H5 H 0.1058 0.6185 0.1087
C8 C 0.09157(9) 0.79324(13) 0.06435(11)
C9 C 0.10730(8) 0.87408(13) 0.02156(11)
C10 C 0.08661(12) 0.48549(16) -0.04125(17)
H6 H 0.1088 0.4546 -0.0704
H7 H 0.0295 0.4874 -0.0927
H8 H 0.1019 0.4340 0.0140
C11 C 0.20865(11) 0.61025(18) 0.07987(18)
H9 H 0.2302 0.5810 0.0494
H10 H 0.2244 0.5572 0.1346
H11 H 0.2285 0.6903 0.1064
C12 C 0.10627(9) 1.15287(15) 0.14889(13)
N1 N 0.10817(10) 1.25145(14) 0.17118(14)
N2 N 0.07514(10) 0.95476(16) 0.22503(13)
C13 C 0.20437(9) 1.04842(13) 0.09644(12)
C14 C 0.21688(11) 1.16319(15) 0.07728(15)
H12 H 0.1740 1.2149 0.0329
C15 C 0.29359(12) 1.20060(18) 0.12459(17)
H13 H 0.3008 1.2790 0.1121
N3 N 0.35787(9) 1.13104(14) 0.18714(13)
C16 C 0.34508(10) 1.02113(16) 0.20535(14)
H14 H 0.3889 0.9706 0.2489
C17 C 0.27096(9) 0.97743(14) 0.16365(13)
H15 H 0.2658 0.9004 0.1807
H16 H 0.0834(11) 1.0218(18) 0.2547(16)
H17 H 0.0553(13) 0.889(2) 0.2337(17)
O3 O 0.0000 0.74984(17) 0.2500
H18 H 0.0413(14) 0.701(2) 0.269(2)
H18A H -0.0413(14) 0.701(2) 0.231(2)
loop_
_geom_bond_atom_site_label_1
_geom_bond_atom_site_label_2
_geom_bond_site_symmetry_1
_geom_bond_site_symmetry_2
O1 C1 1_555 1_555
C1 C2 1_555 1_555
C2 C3 1_555 1_555
C3 H1 1_555 1_555
C4 O2 1_555 1_555
C5 C4 1_555 1_555
H2 C5 1_555 1_555
H3 C5 1_555 1_555
C6 C5 1_555 1_555
C7 C6 1_555 1_555
H4 C7 1_555 1_555
H5 C7 1_555 1_555
C8 O1 1_555 1_555
C9 C3 1_555 1_555
C10 C6 1_555 1_555
H6 C10 1_555 1_555
H7 C10 1_555 1_555
H8 C10 1_555 1_555
C11 C6 1_555 1_555
H9 C11 1_555 1_555
H10 C11 1_555 1_555
H11 C11 1_555 1_555
C12 C2 1_555 1_555
N1 C12 1_555 1_555
N2 C1 1_555 1_555
C13 C3 1_555 1_555
C14 C13 1_555 1_555
H12 C14 1_555 1_555
C15 C14 1_555 1_555
H13 C15 1_555 1_555
N3 C15 1_555 1_555
C16 N3 1_555 1_555
H14 C16 1_555 1_555
C17 C13 1_555 1_555
H15 C17 1_555 1_555
H16 N2 1_555 1_555
H17 N2 1_555 1_555
O3 H18 1_555 1_555
H18A O3 1_555 1_555
C4 C9 1_555 1_555
C7 C8 1_555 1_555
C8 C9 1_555 1_555
C16 C17 1_555 1_555

#END
