
#######################################################################
#
#                 Cambridge Crystallographic Data Centre
#                                CCDC 
#
#######################################################################
#
# If this CIF has been generated from an entry in the Cambridge 
# Structural Database, then it will include bibliographic, chemical, 
# crystal, experimental, refinement or atomic coordinate data resulting 
# from the CCDC's data processing and validation procedures.
#
#######################################################################

data_CECGIC
_chemical_formula_moiety         'C13 H11 Cl1 O5'
_chemical_name_systematic        
'(2-(4-Chlorobenzoyl)-5-oxotetrahydrofuran-3-yl)acetic acid'
_symmetry_cell_setting           triclinic
_symmetry_space_group_name_H-M   'P -1'
_symmetry_Int_Tables_number      2
_space_group_name_Hall           '-P 1'
loop_
_symmetry_equiv_pos_site_id
_symmetry_equiv_pos_as_xyz
1 x,y,z
2 -x,-y,-z
_cell_length_a                   4.9596(6)
_cell_length_b                   6.3613(8)
_cell_length_c                   20.642(3)
_cell_angle_alpha                85.528(2)
_cell_angle_beta                 87.145(2)
_cell_angle_gamma                82.738(2)
_cell_volume                     643.528
_exptl_crystal_colour            colorless
_exptl_crystal_description       prismatic
_cell_formula_units_Z            2
loop_
_atom_site_label
_atom_site_type_symbol
_atom_site_fract_x
_atom_site_fract_y
_atom_site_fract_z
Cl1 Cl 0.90743(15) -0.28569(12) 0.44793(3)
O1 O 0.0937(3) 0.5011(2) 0.29985(7)
O2 O -0.2763(2) 0.3832(2) 0.22807(7)
O3 O -0.3805(3) 0.6792(2) 0.16521(9)
O4 O 0.4379(3) 0.1459(2) 0.06207(7)
O5 O 0.2288(3) -0.1315(2) 0.04304(7)
H1 H 0.3320 -0.1337 0.0107
C1 C 0.1190(3) 0.3123(3) 0.29234(9)
C2 C -0.0401(3) 0.2327(3) 0.24007(9)
H2 H -0.0919 0.0917 0.2536
C3 C -0.2245(4) 0.5235(3) 0.17746(10)
C4 C 0.0405(4) 0.4483(3) 0.14374(11)
H3 H 0.1742 0.5436 0.1493
H4 H 0.0170 0.4416 0.0976
C5 C 0.1311(3) 0.2285(3) 0.17518(8)
H5 H 0.3247 0.2166 0.1843
C6 C 0.0812(4) 0.0472(3) 0.13580(8)
H6 H 0.1057 -0.0845 0.1630
H7 H -0.1057 0.0692 0.1225
C7 C 0.2671(4) 0.0271(3) 0.07677(8)
C8 C 0.3101(3) 0.1582(3) 0.33041(8)
C9 C 0.4324(4) 0.2282(3) 0.38251(9)
H8 H 0.3894 0.3683 0.3932
C10 C 0.6162(5) 0.0932(4) 0.41855(10)
H9 H 0.6959 0.1401 0.4537
C11 C 0.6802(4) -0.1135(3) 0.40151(9)
C12 C 0.5659(4) -0.1863(3) 0.34995(10)
H10 H 0.6139 -0.3254 0.3388
C13 C 0.3789(4) -0.0510(3) 0.31478(9)
H11 H 0.2977 -0.1001 0.2802
loop_
_geom_bond_atom_site_label_1
_geom_bond_atom_site_label_2
_geom_bond_site_symmetry_1
_geom_bond_site_symmetry_2
Cl1 C11 1_555 1_555
O1 C1 1_555 1_555
O2 C2 1_555 1_555
O3 C3 1_555 1_555
O4 C7 1_555 1_555
O5 H1 1_555 1_555
C1 C2 1_555 1_555
C2 H2 1_555 1_555
C3 O2 1_555 1_555
C4 C3 1_555 1_555
H3 C4 1_555 1_555
H4 C4 1_555 1_555
C5 C2 1_555 1_555
H5 C5 1_555 1_555
C6 C5 1_555 1_555
H6 C6 1_555 1_555
H7 C6 1_555 1_555
C7 O5 1_555 1_555
C8 C1 1_555 1_555
C9 C8 1_555 1_555
H8 C9 1_555 1_555
C10 C9 1_555 1_555
H9 C10 1_555 1_555
C11 C10 1_555 1_555
C12 C11 1_555 1_555
H10 C12 1_555 1_555
C13 C8 1_555 1_555
H11 C13 1_555 1_555
C4 C5 1_555 1_555
C6 C7 1_555 1_555
C12 C13 1_555 1_555

#END
