
#######################################################################
#
#                 Cambridge Crystallographic Data Centre
#                                CCDC 
#
#######################################################################
#
# If this CIF has been generated from an entry in the Cambridge 
# Structural Database, then it will include bibliographic, chemical, 
# crystal, experimental, refinement or atomic coordinate data resulting 
# from the CCDC's data processing and validation procedures.
#
#######################################################################

data_CECLON
_chemical_formula_moiety         'C30 H22 N4,C3 H7 N1 O1'
_chemical_name_systematic        
'2-amino-5-(4-methylphenyl)-4,7-diphenyl-5,6-dihydroquinoline-3,8-dicarbonitrile N,N-dimethylformamide solvate'
_symmetry_cell_setting           triclinic
_symmetry_space_group_name_H-M   'P -1'
_symmetry_Int_Tables_number      2
_space_group_name_Hall           '-P 1'
loop_
_symmetry_equiv_pos_site_id
_symmetry_equiv_pos_as_xyz
1 x,y,z
2 -x,-y,-z
_cell_length_a                   9.9575(11)
_cell_length_b                   12.1912(14)
_cell_length_c                   13.4424(15)
_cell_angle_alpha                68.9400(10)
_cell_angle_beta                 80.576(2)
_cell_angle_gamma                65.9500(10)
_cell_volume                     1390.34
_exptl_crystal_colour            yellow
_exptl_crystal_description       block
_cell_formula_units_Z            2
loop_
_atom_site_label
_atom_site_type_symbol
_atom_site_fract_x
_atom_site_fract_y
_atom_site_fract_z
N1 N 0.50249(18) 0.46173(17) 0.88914(14)
N2 N 0.32666(19) 0.39098(18) 0.98980(14)
H1 H 0.3950 0.3174 1.0141
H2 H 0.2370 0.4030 1.0109
N3 N -0.0160(2) 0.6451(2) 0.94356(17)
N4 N 0.8575(2) 0.2831(2) 0.8319(2)
C1 C 0.3600(2) 0.4875(2) 0.91851(17)
C2 C 0.2508(2) 0.6101(2) 0.87483(17)
C3 C 0.2896(2) 0.7058(2) 0.79683(17)
C4 C 0.4384(2) 0.6790(2) 0.76833(16)
C5 C 0.4931(2) 0.7701(2) 0.67875(17)
H3 H 0.4304 0.8561 0.6794
C6 C 0.6500(2) 0.7471(2) 0.70183(19)
H4 H 0.6888 0.7984 0.6406
H5 H 0.6472 0.7739 0.7622
C7 C 0.7507(2) 0.6100(2) 0.72573(17)
C8 C 0.6942(2) 0.5223(2) 0.78311(17)
C9 C 0.5381(2) 0.5563(2) 0.81700(17)
C10 C 0.1010(3) 0.6324(2) 0.91150(18)
C11 C 0.7840(2) 0.3888(3) 0.8114(2)
C12 C 0.1723(2) 0.8298(2) 0.74336(17)
C13 C 0.0654(3) 0.8331(3) 0.6869(2)
H6 H 0.0660 0.7579 0.6837
C14 C -0.0425(3) 0.9482(3) 0.6350(2)
H7 H -0.1145 0.9500 0.5977
C15 C -0.0434(3) 1.0594(3) 0.6385(2)
H8 H -0.1152 1.1362 0.6025
C16 C 0.0605(3) 1.0584(3) 0.6945(2)
H9 H 0.0589 1.1341 0.6972
C17 C 0.1683(3) 0.9433(2) 0.74706(18)
H10 H 0.2389 0.9423 0.7853
C18 C 0.4809(2) 0.7655(2) 0.56891(18)
C19 C 0.4340(2) 0.6823(2) 0.55234(19)
H11 H 0.4124 0.6218 0.6108
C20 C 0.4182(2) 0.6864(3) 0.4504(2)
H12 H 0.3859 0.6284 0.4425
C21 C 0.4482(2) 0.7724(3) 0.3613(2)
C22 C 0.4995(3) 0.8541(3) 0.3769(2)
H13 H 0.5225 0.9134 0.3181
C23 C 0.5175(3) 0.8496(3) 0.4783(2)
H14 H 0.5552 0.9043 0.4860
C24 C 0.4240(3) 0.7803(3) 0.25082(19)
H15 H 0.4311 0.8569 0.2002
H16 H 0.3282 0.7807 0.2478
H17 H 0.4974 0.7082 0.2340
C25 C 0.9042(2) 0.5776(2) 0.6847(2)
C26 C 0.9324(3) 0.6298(2) 0.5773(2)
H18 H 0.8553 0.6908 0.5329
C27 C 1.0738(3) 0.5924(3) 0.5356(2)
H19 H 1.0912 0.6263 0.4631
C28 C 1.1881(3) 0.5052(3) 0.6012(3)
H20 H 1.2831 0.4789 0.5729
C29 C 1.1634(3) 0.4561(3) 0.7089(3)
H21 H 1.2419 0.3995 0.7536
C30 C 1.0224(3) 0.4910(2) 0.7501(2)
H22 H 1.0058 0.4562 0.8226
N5 N 0.2525(2) 0.0107(2) 0.98241(16)
O1 O 0.4523(2) -0.12625(18) 0.92124(15)
C31 C 0.3450(3) -0.1036(3) 0.9810(2)
H23 H 0.3267 -0.1729 1.0298
C32 C 0.1311(3) 0.0309(3) 1.0583(2)
H24 H 0.1194 -0.0481 1.0966
H25 H 0.0425 0.0912 1.0211
H26 H 0.1510 0.0628 1.1076
C33 C 0.2735(3) 0.1231(3) 0.9106(3)
H27 H 0.3412 0.1023 0.8544
H28 H 0.3124 0.1564 0.9488
H29 H 0.1809 0.1857 0.8807
loop_
_geom_bond_atom_site_label_1
_geom_bond_atom_site_label_2
_geom_bond_site_symmetry_1
_geom_bond_site_symmetry_2
N1 C1 1_555 1_555
N2 H1 1_555 1_555
H2 N2 1_555 1_555
N3 C10 1_555 1_555
N4 C11 1_555 1_555
N5 C31 1_555 1_555
O1 C31 1_555 1_555
C1 N2 1_555 1_555
C2 C1 1_555 1_555
C3 C2 1_555 1_555
C4 C3 1_555 1_555
C5 C4 1_555 1_555
H3 C5 1_555 1_555
C6 C5 1_555 1_555
H4 C6 1_555 1_555
H5 C6 1_555 1_555
C7 C6 1_555 1_555
C8 C7 1_555 1_555
C9 N1 1_555 1_555
C10 C2 1_555 1_555
C11 C8 1_555 1_555
C12 C3 1_555 1_555
C13 C12 1_555 1_555
H6 C13 1_555 1_555
C14 C13 1_555 1_555
H7 C14 1_555 1_555
C15 C14 1_555 1_555
H8 C15 1_555 1_555
C16 C15 1_555 1_555
H9 C16 1_555 1_555
C17 C12 1_555 1_555
H10 C17 1_555 1_555
C18 C5 1_555 1_555
C19 C18 1_555 1_555
H11 C19 1_555 1_555
C20 C19 1_555 1_555
H12 C20 1_555 1_555
C21 C20 1_555 1_555
C22 C21 1_555 1_555
H13 C22 1_555 1_555
C23 C18 1_555 1_555
H14 C23 1_555 1_555
C24 C21 1_555 1_555
H15 C24 1_555 1_555
H16 C24 1_555 1_555
H17 C24 1_555 1_555
C25 C7 1_555 1_555
C26 C25 1_555 1_555
H18 C26 1_555 1_555
C27 C26 1_555 1_555
H19 C27 1_555 1_555
C28 C27 1_555 1_555
H20 C28 1_555 1_555
C29 C28 1_555 1_555
H21 C29 1_555 1_555
C30 C25 1_555 1_555
H22 C30 1_555 1_555
C31 H23 1_555 1_555
C32 N5 1_555 1_555
H24 C32 1_555 1_555
H25 C32 1_555 1_555
H26 C32 1_555 1_555
C33 N5 1_555 1_555
H27 C33 1_555 1_555
H28 C33 1_555 1_555
H29 C33 1_555 1_555
C4 C9 1_555 1_555
C8 C9 1_555 1_555
C16 C17 1_555 1_555
C22 C23 1_555 1_555
C29 C30 1_555 1_555

#END
