
#######################################################################
#
#                 Cambridge Crystallographic Data Centre
#                                CCDC 
#
#######################################################################
#
# If this CIF has been generated from an entry in the Cambridge 
# Structural Database, then it will include bibliographic, chemical, 
# crystal, experimental, refinement or atomic coordinate data resulting 
# from the CCDC's data processing and validation procedures.
#
#######################################################################

data_CECNOQ
_chemical_formula_moiety         'C20 H19 N3 O1'
_chemical_name_systematic        
2-methyl-1-(2-methylpropylidene)-2-(pyrimidin-2-yl)-1,2-dihydro-3H-pyrrolo[1,2-a]indol-3-one
_symmetry_cell_setting           monoclinic
_symmetry_space_group_name_H-M   'P 21/c'
_symmetry_Int_Tables_number      14
_space_group_name_Hall           '-P 2ybc'
loop_
_symmetry_equiv_pos_site_id
_symmetry_equiv_pos_as_xyz
1 x,y,z
2 -x,1/2+y,1/2-z
3 -x,-y,-z
4 x,1/2-y,1/2+z
_cell_length_a                   12.7265(2)
_cell_length_b                   8.89917(14)
_cell_length_c                   15.4542(2)
_cell_angle_alpha                90
_cell_angle_beta                 107.6191(17)
_cell_angle_gamma                90
_cell_volume                     1668.16
_cell_formula_units_Z            4
loop_
_atom_site_label
_atom_site_type_symbol
_atom_site_fract_x
_atom_site_fract_y
_atom_site_fract_z
O1 O 0.80672(7) 0.11777(9) 0.16421(5)
N1 N 0.88542(8) 0.12771(12) -0.01535(7)
N2 N 0.74974(8) 0.31190(12) -0.08395(7)
C1 C 0.95788(10) 0.20025(15) -0.04747(8)
C2 C 0.70286(9) 0.10210(13) 0.00080(7)
N3 N 0.77177(8) -0.11108(11) 0.09098(6)
C3 C 0.78452(9) 0.18840(13) -0.03562(7)
C4 C 0.54359(9) 0.05956(14) -0.20693(8)
C5 C 0.82140(9) -0.50018(14) 0.14119(8)
C6 C 0.60680(9) 0.19878(13) 0.00927(8)
C7 C 0.60064(9) -0.05848(13) -0.13990(8)
C8 C 0.78609(9) -0.36233(13) 0.09862(8)
C9 C 0.87806(9) -0.22861(14) 0.24123(8)
C10 C 0.88243(10) -0.50082(15) 0.23192(8)
C11 C 0.81575(9) -0.22947(13) 0.14987(8)
C12 C 0.42067(10) 0.05983(16) -0.21459(9)
C13 C 0.82437(10) 0.38077(14) -0.11559(9)
C14 C 0.66657(9) -0.04302(13) -0.05460(8)
C15 C 0.91053(10) -0.36730(15) 0.28142(8)
C16 C 0.72183(9) -0.32091(13) 0.00726(8)
C17 C 0.76829(9) 0.04367(13) 0.09663(7)
C18 C 0.93081(10) 0.32935(14) -0.09877(8)
C19 C 0.71478(9) -0.16853(13) 0.00522(7)
C20 C 0.55961(11) 0.02686(17) -0.29935(8)
H1 H 0.89692(9) -0.13946(14) 0.27363(8)
H2 H 0.95174(10) -0.37164(15) 0.34237(8)
H3 H 0.90537(10) -0.59210(15) 0.26076(8)
H4 H 0.80408(9) -0.58972(14) 0.10898(8)
H5 H 1.02902(10) 0.16226(15) -0.03475(8)
H6 H 0.57520(9) 0.15811(14) -0.18543(8)
H7 H 0.63468(12) 0.2775(6) 0.0526(5)
H8 H 0.5690(5) 0.2421(8) -0.04869(16)
H9 H 0.5566(4) 0.1373(2) 0.0291(6)
H10 H 0.58840(9) -0.15696(13) -0.16066(8)
H11 H 0.3912(2) -0.0394(3) -0.2294(7)
H12 H 0.41153(12) 0.0905(11) -0.1577(2)
H13 H 0.38233(17) 0.1286(9) -0.2614(5)
H14 H 0.80335(10) 0.46711(14) -0.15045(9)
H15 H 0.69125(9) -0.38614(13) -0.04079(8)
H16 H 0.98168(10) 0.37907(14) -0.12084(8)
H17 H 0.63693(12) 0.0259(12) -0.29332(17)
H18 H 0.5282(8) -0.0692(6) -0.3209(4)
H19 H 0.5238(8) 0.1034(7) -0.3418(2)
loop_
_geom_bond_atom_site_label_1
_geom_bond_atom_site_label_2
_geom_bond_site_symmetry_1
_geom_bond_site_symmetry_2
O1 C17 1_555 1_555
N1 C1 1_555 1_555
N2 C3 1_555 1_555
C1 C18 1_555 1_555
C2 C3 1_555 1_555
N3 C11 1_555 1_555
C3 N1 1_555 1_555
C4 C7 1_555 1_555
C5 C8 1_555 1_555
C6 C2 1_555 1_555
C7 C14 1_555 1_555
C8 C11 1_555 1_555
C9 C11 1_555 1_555
C10 C5 1_555 1_555
C12 C4 1_555 1_555
C13 N2 1_555 1_555
C14 C2 1_555 1_555
C15 C9 1_555 1_555
C16 C8 1_555 1_555
C17 C2 1_555 1_555
C18 C13 1_555 1_555
C19 N3 1_555 1_555
C20 C4 1_555 1_555
H1 C9 1_555 1_555
H2 C15 1_555 1_555
H3 C10 1_555 1_555
H4 C5 1_555 1_555
H5 C1 1_555 1_555
H6 C4 1_555 1_555
H7 C6 1_555 1_555
H8 C6 1_555 1_555
H9 C6 1_555 1_555
H10 C7 1_555 1_555
H11 C12 1_555 1_555
H12 C12 1_555 1_555
H13 C12 1_555 1_555
H14 C13 1_555 1_555
H15 C16 1_555 1_555
H16 C18 1_555 1_555
H17 C20 1_555 1_555
H18 C20 1_555 1_555
H19 C20 1_555 1_555
N3 C17 1_555 1_555
C10 C15 1_555 1_555
C14 C19 1_555 1_555
C16 C19 1_555 1_555

#END
