
#######################################################################
#
#                 Cambridge Crystallographic Data Centre
#                                CCDC 
#
#######################################################################
#
# If this CIF has been generated from an entry in the Cambridge 
# Structural Database, then it will include bibliographic, chemical, 
# crystal, experimental, refinement or atomic coordinate data resulting 
# from the CCDC's data processing and validation procedures.
#
#######################################################################

data_CECROT
_chemical_formula_moiety         'C14 H9 F2 N3'
_chemical_name_systematic        1,4-Bis(4-fluorophenyl)-1H-1,2,3-triazole
_symmetry_cell_setting           monoclinic
_symmetry_space_group_name_H-M   'C 2/c'
_symmetry_Int_Tables_number      15
_space_group_name_Hall           '-C 2yn'
loop_
_symmetry_equiv_pos_site_id
_symmetry_equiv_pos_as_xyz
1 x,y,z
2 -x,y,1/2-z
3 1/2+x,1/2+y,z
4 1/2-x,1/2+y,1/2-z
5 -x,-y,-z
6 x,-y,1/2+z
7 1/2-x,1/2-y,-z
8 1/2+x,1/2-y,1/2+z
_cell_length_a                   27.993(4)
_cell_length_b                   5.6987(8)
_cell_length_c                   7.3154(10)
_cell_angle_alpha                90
_cell_angle_beta                 103.827(2)
_cell_angle_gamma                90
_cell_volume                     1133.16
_exptl_crystal_colour            colorless
_exptl_crystal_description       prismatic
_cell_formula_units_Z            4
loop_
_atom_site_label
_atom_site_type_symbol
_atom_site_fract_x
_atom_site_fract_y
_atom_site_fract_z
F1 F 0.26926(4) 0.1549(2) -0.19043(18)
N1 N 0.46174(5) 0.3566(2) 0.17763(19)
N2 N 0.47678(4) 0.5824(2) 0.20541(19)
C1 C 0.5000 0.2126(3) 0.2500
H1 H 0.5000 0.0494 0.2500
C2 C 0.41140(5) 0.3007(2) 0.08138(19)
C3 C 0.40018(5) 0.0896(3) -0.0118(2)
H2 H 0.4250 -0.0186 -0.0127
C4 C 0.35195(6) 0.0387(3) -0.1040(2)
H3 H 0.3439 -0.1029 -0.1671
C5 C 0.31625(5) 0.2042(3) -0.0992(2)
C6 C 0.32612(5) 0.4137(3) -0.0074(2)
H4 H 0.3011 0.5207 -0.0064
C7 C 0.37444(5) 0.4630(2) 0.0843(2)
H5 H 0.3821 0.6046 0.1477
F1A F 0.73074(4) 0.1549(2) 0.69043(18)
N1A N 0.53826(5) 0.3566(2) 0.32237(19)
N2A N 0.52322(4) 0.5824(2) 0.29459(19)
C2A C 0.58860(5) 0.3007(2) 0.41862(19)
C3A C 0.59982(5) 0.0896(3) 0.5118(2)
H2A H 0.5750 -0.0186 0.5127
C4A C 0.64805(6) 0.0387(3) 0.6040(2)
H3A H 0.6561 -0.1029 0.6671
C5A C 0.68375(5) 0.2042(3) 0.5992(2)
C6A C 0.67388(5) 0.4137(3) 0.5074(2)
H4A H 0.6989 0.5207 0.5064
C7A C 0.62556(5) 0.4630(2) 0.4157(2)
H5A H 0.6179 0.6046 0.3523
loop_
_geom_bond_atom_site_label_1
_geom_bond_atom_site_label_2
_geom_bond_site_symmetry_1
_geom_bond_site_symmetry_2
F1 C5 1_555 1_555
N1 N2 1_555 1_555
N2 N2A 1_555 1_555
C1 N1 1_555 1_555
H1 C1 1_555 1_555
C2 N1 1_555 1_555
C3 C2 1_555 1_555
H2 C3 1_555 1_555
C4 C3 1_555 1_555
H3 C4 1_555 1_555
C5 C4 1_555 1_555
C6 C5 1_555 1_555
H4 C6 1_555 1_555
C7 C2 1_555 1_555
H5 C7 1_555 1_555
F1A C5A 1_555 1_555
N1A C1 1_555 1_555
N2A N1A 1_555 1_555
C2A N1A 1_555 1_555
C3A C2A 1_555 1_555
H2A C3A 1_555 1_555
C4A C3A 1_555 1_555
H3A C4A 1_555 1_555
C5A C4A 1_555 1_555
C6A C5A 1_555 1_555
H4A C6A 1_555 1_555
C7A C2A 1_555 1_555
H5A C7A 1_555 1_555
C6 C7 1_555 1_555
C6A C7A 1_555 1_555

#END
