
#######################################################################
#
#                 Cambridge Crystallographic Data Centre
#                                CCDC 
#
#######################################################################
#
# If this CIF has been generated from an entry in the Cambridge 
# Structural Database, then it will include bibliographic, chemical, 
# crystal, experimental, refinement or atomic coordinate data resulting 
# from the CCDC's data processing and validation procedures.
#
#######################################################################

data_CECSIO
_chemical_formula_moiety         'C14 H9 Cl2 N3'
_chemical_name_systematic        
1-(2-Chlorophenyl)-4-(4-chlorophenyl)-1H-1,2,3-triazole
_symmetry_cell_setting           monoclinic
_symmetry_space_group_name_H-M   'P 21/n'
_symmetry_Int_Tables_number      14
_space_group_name_Hall           '-P 2yn'
loop_
_symmetry_equiv_pos_site_id
_symmetry_equiv_pos_as_xyz
1 x,y,z
2 1/2-x,1/2+y,1/2-z
3 -x,-y,-z
4 1/2+x,1/2-y,1/2+z
_cell_length_a                   4.0145(18)
_cell_length_b                   27.862(12)
_cell_length_c                   11.598(5)
_cell_angle_alpha                90
_cell_angle_beta                 92.220(6)
_cell_angle_gamma                90
_cell_volume                     1296.29
_exptl_crystal_colour            colorless
_exptl_crystal_description       prismatic
_cell_formula_units_Z            4
loop_
_atom_site_label
_atom_site_type_symbol
_atom_site_fract_x
_atom_site_fract_y
_atom_site_fract_z
N1 N 0.0400(9) 0.20526(13) 0.4667(3)
N2 N 0.1699(11) 0.22091(15) 0.5700(3)
N3 N 0.1872(11) 0.26707(14) 0.5638(3)
C1 C -0.0273(11) 0.24300(16) 0.3976(4)
H1 H -0.1194 0.2422 0.3228
C2 C 0.0657(11) 0.28229(16) 0.4587(3)
C3 C 0.0549(11) 0.33275(16) 0.4270(3)
C4 C -0.1086(12) 0.34783(18) 0.3247(4)
H2 H -0.2115 0.3252 0.2762
C5 C -0.1193(13) 0.39523(18) 0.2950(4)
H3 H -0.2326 0.4048 0.2274
C6 C 0.0357(12) 0.42851(17) 0.3642(4)
C7 C 0.2013(13) 0.41525(18) 0.4654(4)
H4 H 0.3066 0.4382 0.5123
C8 C 0.2084(12) 0.36805(17) 0.4958(4)
H5 H 0.3188 0.3591 0.5644
C9 C -0.0093(11) 0.15569(16) 0.4482(4)
C10 C 0.0976(11) 0.13277(17) 0.3503(4)
C11 C 0.0428(14) 0.08495(19) 0.3346(5)
H6 H 0.1074 0.0700 0.2674
C12 C -0.1087(15) 0.05884(19) 0.4187(5)
H7 H -0.1438 0.0261 0.4082
C13 C -0.2087(14) 0.08065(19) 0.5178(5)
H8 H -0.3073 0.0626 0.5747
C14 C -0.1629(12) 0.12912(17) 0.5327(4)
H9 H -0.2343 0.1441 0.5990
Cl1 Cl 0.3032(3) 0.16457(5) 0.24686(10)
Cl2 Cl 0.0247(5) 0.48851(5) 0.32419(15)
loop_
_geom_bond_atom_site_label_1
_geom_bond_atom_site_label_2
_geom_bond_site_symmetry_1
_geom_bond_site_symmetry_2
N1 N2 1_555 1_555
N2 N3 1_555 1_555
N3 C2 1_555 1_555
C1 N1 1_555 1_555
H1 C1 1_555 1_555
C2 C1 1_555 1_555
C3 C2 1_555 1_555
C4 C3 1_555 1_555
H2 C4 1_555 1_555
C5 C4 1_555 1_555
H3 C5 1_555 1_555
C6 C5 1_555 1_555
C7 C6 1_555 1_555
H4 C7 1_555 1_555
C8 C3 1_555 1_555
H5 C8 1_555 1_555
C9 N1 1_555 1_555
C10 C9 1_555 1_555
C11 C10 1_555 1_555
H6 C11 1_555 1_555
C12 C11 1_555 1_555
H7 C12 1_555 1_555
C13 C12 1_555 1_555
H8 C13 1_555 1_555
C14 C9 1_555 1_555
H9 C14 1_555 1_555
Cl1 C10 1_555 1_555
Cl2 C6 1_555 1_555
C7 C8 1_555 1_555
C13 C14 1_555 1_555

#END
