
#######################################################################
#
#                 Cambridge Crystallographic Data Centre
#                                CCDC 
#
#######################################################################
#
# If this CIF has been generated from an entry in the Cambridge 
# Structural Database, then it will include bibliographic, chemical, 
# crystal, experimental, refinement or atomic coordinate data resulting 
# from the CCDC's data processing and validation procedures.
#
#######################################################################

data_CECSAG
_chemical_formula_moiety         'C14 H1 F10 N3'
_chemical_name_systematic        1,4-bis(pentafluorophenyl)-1H-1,2,3-triazole
_symmetry_cell_setting           monoclinic
_symmetry_space_group_name_H-M   'P 21/c'
_symmetry_Int_Tables_number      14
_space_group_name_Hall           '-P 2ybc'
loop_
_symmetry_equiv_pos_site_id
_symmetry_equiv_pos_as_xyz
1 x,y,z
2 -x,1/2+y,1/2-z
3 -x,-y,-z
4 x,1/2-y,1/2+z
_cell_length_a                   14.2193(12)
_cell_length_b                   10.5291(9)
_cell_length_c                   9.0845(8)
_cell_angle_alpha                90
_cell_angle_beta                 91.433(2)
_cell_angle_gamma                90
_cell_volume                     1359.67
_exptl_crystal_colour            green
_exptl_crystal_description       plate
_cell_formula_units_Z            4
loop_
_atom_site_label
_atom_site_type_symbol
_atom_site_fract_x
_atom_site_fract_y
_atom_site_fract_z
F1 F 0.28816(9) 0.72016(12) 0.07539(15)
F2 F 0.10994(11) 0.66983(16) 0.00062(18)
F3 F -0.02944(9) 0.83252(17) 0.07426(17)
F4 F 0.01405(8) 1.04472(15) 0.23175(17)
F5 F 0.18852(7) 1.09311(13) 0.31470(15)
F6 F 0.62958(8) 1.07809(12) 0.14499(13)
F7 F 0.81365(8) 1.04001(13) 0.19169(15)
F8 F 0.87388(8) 0.84405(15) 0.36423(15)
F9 F 0.74849(10) 0.68807(12) 0.48802(14)
F10 F 0.56284(8) 0.73110(12) 0.45131(13)
N1 N 0.49480(10) 0.93386(14) 0.28248(17)
N2 N 0.46250(11) 1.04791(16) 0.3272(2)
N3 N 0.37254(11) 1.04850(16) 0.3017(2)
C1 C 0.42426(12) 0.86163(19) 0.2285(2)
H1 H 0.4281 0.7797 0.1910
C2 C 0.34564(12) 0.93479(18) 0.24064(19)
C3 C 0.24727(12) 0.90861(19) 0.1986(2)
C4 C 0.22130(14) 0.8019(2) 0.1181(2)
C5 C 0.13023(15) 0.7750(2) 0.0772(2)
C6 C 0.05934(14) 0.8570(2) 0.1148(2)
C7 C 0.08153(13) 0.9635(2) 0.1937(2)
C8 C 0.17351(13) 0.98846(19) 0.2355(2)
C9 C 0.59204(12) 0.90641(18) 0.29900(19)
C10 C 0.65759(13) 0.98313(17) 0.23327(19)
C11 C 0.75179(13) 0.96366(19) 0.2561(2)
C12 C 0.78262(13) 0.8642(2) 0.3424(2)
C13 C 0.71847(14) 0.78524(18) 0.4060(2)
C14 C 0.62398(13) 0.80652(18) 0.3854(2)
loop_
_geom_bond_atom_site_label_1
_geom_bond_atom_site_label_2
_geom_bond_site_symmetry_1
_geom_bond_site_symmetry_2
F1 C4 1_555 1_555
F2 C5 1_555 1_555
F3 C6 1_555 1_555
F4 C7 1_555 1_555
F5 C8 1_555 1_555
F6 C10 1_555 1_555
F7 C11 1_555 1_555
F8 C12 1_555 1_555
F9 C13 1_555 1_555
F10 C14 1_555 1_555
N1 N2 1_555 1_555
N2 N3 1_555 1_555
N3 C2 1_555 1_555
C1 N1 1_555 1_555
H1 C1 1_555 1_555
C2 C1 1_555 1_555
C3 C2 1_555 1_555
C4 C3 1_555 1_555
C5 C4 1_555 1_555
C6 C5 1_555 1_555
C7 C6 1_555 1_555
C8 C3 1_555 1_555
C9 N1 1_555 1_555
C10 C9 1_555 1_555
C11 C10 1_555 1_555
C12 C11 1_555 1_555
C13 C12 1_555 1_555
C14 C9 1_555 1_555
C7 C8 1_555 1_555
C13 C14 1_555 1_555

#END
