
#######################################################################
#
#                 Cambridge Crystallographic Data Centre
#                                CCDC 
#
#######################################################################
#
# If this CIF has been generated from an entry in the Cambridge 
# Structural Database, then it will include bibliographic, chemical, 
# crystal, experimental, refinement or atomic coordinate data resulting 
# from the CCDC's data processing and validation procedures.
#
#######################################################################

data_CECTIQ
_chemical_formula_moiety         'C13 H24 N2 O3'
_chemical_name_systematic        
't-butyl (Z)-(3-(t-butylamino)-2-methyl-3-oxoprop-1-en-1-yl)carbamate'
_symmetry_cell_setting           monoclinic
_symmetry_space_group_name_H-M   'C c'
_symmetry_Int_Tables_number      9
_space_group_name_Hall           'C -2yc'
loop_
_symmetry_equiv_pos_site_id
_symmetry_equiv_pos_as_xyz
1 x,y,z
2 x,-y,1/2+z
3 1/2+x,1/2+y,z
4 1/2+x,1/2-y,1/2+z
_cell_length_a                   17.0431(6)
_cell_length_b                   25.6881(9)
_cell_length_c                   10.2924(3)
_cell_angle_alpha                90
_cell_angle_beta                 90.01
_cell_angle_gamma                90
_cell_volume                     4506.06
_exptl_crystal_colour            colorless
_exptl_crystal_description       Block
_cell_formula_units_Z            12
loop_
_atom_site_label
_atom_site_type_symbol
_atom_site_fract_x
_atom_site_fract_y
_atom_site_fract_z
O1 O 0.10278(19) 0.43507(12) -0.0435(3)
O2 O 0.0701(2) 0.36882(12) 0.0942(3)
O3 O 0.2681(2) 0.50100(12) 0.2062(3)
N1 N 0.1652(2) 0.42863(14) 0.1423(3)
H1 H 0.1929 0.4546 0.1110
N2 N 0.3099(2) 0.50747(14) 0.4143(4)
H2 H 0.3092 0.4932 0.4920
C1 C 0.1083(3) 0.40682(17) 0.0662(4)
C2 C 0.1805(3) 0.41124(17) 0.2665(4)
H3 H 0.1552 0.3801 0.2934
C3 C 0.2282(3) 0.43472(16) 0.3530(4)
C4 C 0.2367(3) 0.41144(18) 0.4858(5)
H4 H 0.2083 0.3783 0.4892
H5 H 0.2148 0.4354 0.5505
H6 H 0.2923 0.4055 0.5043
C5 C 0.2697(3) 0.48313(16) 0.3192(4)
C6 C 0.3553(3) 0.55641(18) 0.3987(5)
C7 C 0.3017(3) 0.60113(18) 0.3601(5)
H7 H 0.2739 0.5922 0.2797
H8 H 0.3330 0.6326 0.3462
H9 H 0.2634 0.6074 0.4295
C8 C 0.4196(3) 0.5488(2) 0.2976(5)
H10 H 0.4510 0.5182 0.3203
H11 H 0.4533 0.5797 0.2955
H12 H 0.3957 0.5436 0.2120
C9 C 0.3934(4) 0.5682(2) 0.5288(5)
H13 H 0.3527 0.5729 0.5949
H14 H 0.4245 0.6002 0.5217
H15 H 0.4277 0.5393 0.5537
C10 C 0.0452(3) 0.42144(18) -0.1463(5)
C11 C 0.0668(3) 0.3699(2) -0.2056(5)
H16 H 0.1212 0.3712 -0.2363
H17 H 0.0319 0.3625 -0.2789
H18 H 0.0615 0.3424 -0.1402
C12 C -0.0374(3) 0.4228(2) -0.0899(5)
H19 H -0.0455 0.3923 -0.0343
H20 H -0.0758 0.4225 -0.1608
H21 H -0.0441 0.4546 -0.0383
C13 C 0.0569(3) 0.4658(2) -0.2412(5)
H22 H 0.0466 0.4990 -0.1973
H23 H 0.0207 0.4618 -0.3144
H24 H 0.1111 0.4654 -0.2732
O4 O 0.30786(18) 0.76468(12) -0.0484(3)
O5 O 0.3332(2) 0.69631(13) 0.0877(3)
O6 O 0.1540(2) 0.83904(12) 0.2022(3)
N3 N 0.2451(2) 0.76047(15) 0.1375(4)
H25 H 0.2206 0.7880 0.1069
N4 N 0.1145(2) 0.84824(14) 0.4096(4)
H26 H 0.1141 0.8342 0.4875
C14 C 0.2995(3) 0.73617(17) 0.0604(5)
C15 C 0.2271(3) 0.74342(18) 0.2617(5)
H27 H 0.2469 0.7104 0.2874
C16 C 0.1842(3) 0.76960(17) 0.3477(4)
C17 C 0.1711(3) 0.74611(18) 0.4804(5)
H28 H 0.1147 0.7430 0.4968
H29 H 0.1949 0.7685 0.5466
H30 H 0.1953 0.7115 0.4838
C18 C 0.1497(3) 0.82166(17) 0.3145(4)
C19 C 0.0761(3) 0.89947(18) 0.3939(5)
C20 C 0.0116(3) 0.8956(2) 0.2909(6)
H31 H 0.0355 0.8897 0.2055
H32 H -0.0185 0.9281 0.2892
H33 H -0.0234 0.8665 0.3120
C21 C 0.1352(3) 0.9407(2) 0.3558(5)
H34 H 0.1754 0.9436 0.4235
H35 H 0.1084 0.9743 0.3458
H36 H 0.1600 0.9310 0.2733
C22 C 0.0399(4) 0.9128(2) 0.5243(6)
H37 H 0.0006 0.8865 0.5469
H38 H 0.0149 0.9470 0.5194
H39 H 0.0810 0.9134 0.5910
C23 C 0.3628(3) 0.7485(2) -0.1518(5)
C24 C 0.4457(3) 0.7458(2) -0.0977(5)
H40 H 0.4597 0.7794 -0.0589
H41 H 0.4825 0.7377 -0.1681
H42 H 0.4485 0.7185 -0.0313
C25 C 0.3343(3) 0.6975(2) -0.2103(5)
H43 H 0.3389 0.6697 -0.1455
H44 H 0.3663 0.6889 -0.2864
H45 H 0.2793 0.7011 -0.2365
C26 C 0.3555(3) 0.7926(2) -0.2476(5)
H46 H 0.3016 0.7941 -0.2807
H47 H 0.3919 0.7869 -0.3200
H48 H 0.3683 0.8255 -0.2044
O7 O 0.6514(2) 0.66546(12) 0.2011(3)
O8 O 0.82852(19) 0.61390(12) -0.0435(3)
O9 O 0.8632(2) 0.54493(14) 0.0834(3)
N5 N 0.7632(2) 0.59959(15) 0.1362(4)
H49 H 0.7327 0.6244 0.1062
N6 N 0.6088(2) 0.66916(14) 0.4076(4)
H50 H 0.6107 0.6547 0.4851
C27 C 0.8236(3) 0.58214(18) 0.0594(5)
C28 C 0.7484(3) 0.57992(18) 0.2580(4)
H51 H 0.7763 0.5495 0.2828
C29 C 0.6977(3) 0.60013(17) 0.3453(4)
C30 C 0.6899(3) 0.5749(2) 0.4764(5)
H52 H 0.7235 0.5439 0.4801
H53 H 0.6351 0.5647 0.4905
H54 H 0.7060 0.5995 0.5440
C31 C 0.6517(3) 0.64717(17) 0.3136(4)
C32 C 0.5583(3) 0.71583(18) 0.3927(5)
C33 C 0.5201(4) 0.7259(2) 0.5226(6)
H55 H 0.5608 0.7315 0.5885
H56 H 0.4879 0.6959 0.5470
H57 H 0.4869 0.7570 0.5166
C34 C 0.4956(3) 0.7056(2) 0.2912(6)
H58 H 0.4607 0.7358 0.2851
H59 H 0.4651 0.6748 0.3161
H60 H 0.5205 0.6995 0.2067
C35 C 0.6076(3) 0.76292(18) 0.3538(5)
H61 H 0.6458 0.7705 0.4224
H62 H 0.5733 0.7931 0.3413
H63 H 0.6354 0.7554 0.2725
C36 C 0.8878(3) 0.60487(18) -0.1451(5)
C37 C 0.8710(3) 0.5544(2) -0.2156(5)
H64 H 0.8783 0.5251 -0.1558
H65 H 0.9070 0.5508 -0.2892
H66 H 0.8168 0.5547 -0.2474
C38 C 0.9701(3) 0.6063(2) -0.0876(5)
H67 H 0.9759 0.6375 -0.0335
H68 H 1.0088 0.6072 -0.1580
H69 H 0.9785 0.5752 -0.0343
C39 C 0.8752(4) 0.6514(2) -0.2336(5)
H70 H 0.8228 0.6493 -0.2728
H71 H 0.9150 0.6513 -0.3023
H72 H 0.8796 0.6835 -0.1829
loop_
_geom_bond_atom_site_label_1
_geom_bond_atom_site_label_2
_geom_bond_site_symmetry_1
_geom_bond_site_symmetry_2
O1 C1 1_555 1_555
O2 C1 1_555 1_555
O3 C5 1_555 1_555
N1 H1 1_555 1_555
N2 H2 1_555 1_555
C1 N1 1_555 1_555
C2 N1 1_555 1_555
H3 C2 1_555 1_555
C3 C2 1_555 1_555
C4 C3 1_555 1_555
H4 C4 1_555 1_555
H5 C4 1_555 1_555
H6 C4 1_555 1_555
C5 N2 1_555 1_555
C6 N2 1_555 1_555
C7 C6 1_555 1_555
H7 C7 1_555 1_555
H8 C7 1_555 1_555
H9 C7 1_555 1_555
C8 C6 1_555 1_555
H10 C8 1_555 1_555
H11 C8 1_555 1_555
H12 C8 1_555 1_555
C9 C6 1_555 1_555
H13 C9 1_555 1_555
H14 C9 1_555 1_555
H15 C9 1_555 1_555
C10 O1 1_555 1_555
C11 C10 1_555 1_555
H16 C11 1_555 1_555
H17 C11 1_555 1_555
H18 C11 1_555 1_555
C12 C10 1_555 1_555
H19 C12 1_555 1_555
H20 C12 1_555 1_555
H21 C12 1_555 1_555
C13 C10 1_555 1_555
H22 C13 1_555 1_555
H23 C13 1_555 1_555
H24 C13 1_555 1_555
O4 C14 1_555 1_555
O5 C14 1_555 1_555
O6 C18 1_555 1_555
N3 H25 1_555 1_555
N4 H26 1_555 1_555
C14 N3 1_555 1_555
C15 N3 1_555 1_555
H27 C15 1_555 1_555
C16 C15 1_555 1_555
C17 C16 1_555 1_555
H28 C17 1_555 1_555
H29 C17 1_555 1_555
H30 C17 1_555 1_555
C18 N4 1_555 1_555
C19 N4 1_555 1_555
C20 C19 1_555 1_555
H31 C20 1_555 1_555
H32 C20 1_555 1_555
H33 C20 1_555 1_555
C21 C19 1_555 1_555
H34 C21 1_555 1_555
H35 C21 1_555 1_555
H36 C21 1_555 1_555
C22 C19 1_555 1_555
H37 C22 1_555 1_555
H38 C22 1_555 1_555
H39 C22 1_555 1_555
C23 O4 1_555 1_555
C24 C23 1_555 1_555
H40 C24 1_555 1_555
H41 C24 1_555 1_555
H42 C24 1_555 1_555
C25 C23 1_555 1_555
H43 C25 1_555 1_555
H44 C25 1_555 1_555
H45 C25 1_555 1_555
C26 C23 1_555 1_555
H46 C26 1_555 1_555
H47 C26 1_555 1_555
H48 C26 1_555 1_555
O7 C31 1_555 1_555
O8 C27 1_555 1_555
O9 C27 1_555 1_555
N5 H49 1_555 1_555
N6 H50 1_555 1_555
C27 N5 1_555 1_555
C28 N5 1_555 1_555
H51 C28 1_555 1_555
C29 C28 1_555 1_555
C30 C29 1_555 1_555
H52 C30 1_555 1_555
H53 C30 1_555 1_555
H54 C30 1_555 1_555
C31 N6 1_555 1_555
C32 N6 1_555 1_555
C33 C32 1_555 1_555
H55 C33 1_555 1_555
H56 C33 1_555 1_555
H57 C33 1_555 1_555
C34 C32 1_555 1_555
H58 C34 1_555 1_555
H59 C34 1_555 1_555
H60 C34 1_555 1_555
C35 C32 1_555 1_555
H61 C35 1_555 1_555
H62 C35 1_555 1_555
H63 C35 1_555 1_555
C36 O8 1_555 1_555
C37 C36 1_555 1_555
H64 C37 1_555 1_555
H65 C37 1_555 1_555
H66 C37 1_555 1_555
C38 C36 1_555 1_555
H67 C38 1_555 1_555
H68 C38 1_555 1_555
H69 C38 1_555 1_555
C39 C36 1_555 1_555
H70 C39 1_555 1_555
H71 C39 1_555 1_555
H72 C39 1_555 1_555
C3 C5 1_555 1_555
C16 C18 1_555 1_555
C29 C31 1_555 1_555

#END
