
#######################################################################
#
#                 Cambridge Crystallographic Data Centre
#                                CCDC 
#
#######################################################################
#
# If this CIF has been generated from an entry in the Cambridge 
# Structural Database, then it will include bibliographic, chemical, 
# crystal, experimental, refinement or atomic coordinate data resulting 
# from the CCDC's data processing and validation procedures.
#
#######################################################################

data_CECYIS01
_chemical_name_common            '(+)-Microcladallene B'
_chemical_formula_moiety         'C15 H18 Br2 O2'
_chemical_name_systematic        
3-Bromo-6-(3-bromopropadienyl)-2-vinyl-2,3,4,4a,6,7,10,10a-octahydropyrano[3,2-b]oxocine
_symmetry_cell_setting           orthorhombic
_symmetry_space_group_name_H-M   'P 21 21 21'
_symmetry_Int_Tables_number      19
_space_group_name_Hall           'P 2ac 2ab'
loop_
_symmetry_equiv_pos_site_id
_symmetry_equiv_pos_as_xyz
1 x,y,z
2 1/2+x,1/2-y,-z
3 -x,1/2+y,1/2-z
4 1/2-x,-y,1/2+z
_cell_length_a                   5.0754(2)
_cell_length_b                   14.1567(5)
_cell_length_c                   21.2232(7)
_cell_angle_alpha                90
_cell_angle_beta                 90
_cell_angle_gamma                90
_cell_volume                     1524.91
_exptl_crystal_colour            silver
_exptl_crystal_description       Block
_cell_formula_units_Z            4
loop_
_atom_site_label
_atom_site_type_symbol
_atom_site_fract_x
_atom_site_fract_y
_atom_site_fract_z
C1 C 0.8935(5) 1.26943(16) -0.13174(11)
H1 H 0.7799 1.3198 -0.1434
C2 C 0.8336(5) 1.21909(16) -0.08255(11)
C3 C 0.7613(5) 1.17316(15) -0.03237(11)
H2 H 0.8338 1.1934 0.0066
C4 C 0.5726(6) 1.09059(15) -0.03037(11)
H3 H 0.3967 1.1188 -0.0206
C5 C 0.5367(5) 1.03954(17) -0.09354(11)
H4 H 0.3975 0.9912 -0.0882
H5 H 0.4714 1.0860 -0.1247
C6 C 0.7755(5) 0.99195(17) -0.12092(10)
H6 H 0.8640 1.0230 -0.1545
C7 C 0.8711(5) 0.91003(17) -0.10161(10)
H7 H 1.0137 0.8836 -0.1246
C8 C 0.7694(6) 0.85577(16) -0.04568(10)
H8 H 0.8030 0.7875 -0.0520
H9 H 0.5767 0.8650 -0.0421
C9 C 0.9021(6) 0.88812(15) 0.01495(10)
H10 H 1.0905 0.8674 0.0140
C10 C 0.8947(5) 0.99463(15) 0.02476(10)
H11 H 1.0022 1.0258 -0.0088
C11 C 1.0102(5) 1.01942(17) 0.08887(10)
H12 H 1.2030 1.0089 0.0882
H13 H 0.9784 1.0871 0.0978
C12 C 0.8881(5) 0.95999(15) 0.14044(10)
H14 H 0.6999 0.9791 0.1461
C13 C 0.9000(5) 0.85497(15) 0.12524(10)
H15 H 1.0884 0.8349 0.1220
C14 C 0.7630(5) 0.79475(16) 0.17235(11)
H16 H 0.5905 0.8128 0.1849
C15 C 0.8636(6) 0.71830(16) 0.19788(10)
H17 H 1.0356 0.6981 0.1865
H18 H 0.7644 0.6832 0.2278
O1 O 0.6286(3) 1.02877(11) 0.02102(7)
O2 O 0.7719(4) 0.84008(10) 0.06572(7)
Br1 Br 1.19772(5) 1.246569(19) -0.181305(12)
Br2 Br 1.08022(6) 0.982753(18) 0.219444(11)
loop_
_geom_bond_atom_site_label_1
_geom_bond_atom_site_label_2
_geom_bond_site_symmetry_1
_geom_bond_site_symmetry_2
C1 H1 1_555 1_555
C2 C1 1_555 1_555
C3 C2 1_555 1_555
H2 C3 1_555 1_555
C4 C3 1_555 1_555
H3 C4 1_555 1_555
C5 C4 1_555 1_555
H4 C5 1_555 1_555
H5 C5 1_555 1_555
C6 C5 1_555 1_555
H6 C6 1_555 1_555
C7 C6 1_555 1_555
H7 C7 1_555 1_555
C8 C7 1_555 1_555
H8 C8 1_555 1_555
H9 C8 1_555 1_555
C9 C8 1_555 1_555
H10 C9 1_555 1_555
C10 C9 1_555 1_555
H11 C10 1_555 1_555
C11 C10 1_555 1_555
H12 C11 1_555 1_555
H13 C11 1_555 1_555
C12 C11 1_555 1_555
H14 C12 1_555 1_555
C13 C12 1_555 1_555
H15 C13 1_555 1_555
C14 C13 1_555 1_555
H16 C14 1_555 1_555
C15 C14 1_555 1_555
H17 C15 1_555 1_555
H18 C15 1_555 1_555
O1 C4 1_555 1_555
O2 C9 1_555 1_555
Br1 C1 1_555 1_555
Br2 C12 1_555 1_555
C10 O1 1_555 1_555
C13 O2 1_555 1_555

#END
