
#######################################################################
#
#                 Cambridge Crystallographic Data Centre
#                                CCDC 
#
#######################################################################
#
# If this CIF has been generated from an entry in the Cambridge 
# Structural Database, then it will include bibliographic, chemical, 
# crystal, experimental, refinement or atomic coordinate data resulting 
# from the CCDC's data processing and validation procedures.
#
#######################################################################

data_CEDKUT
_chemical_formula_moiety         'C6 H2 N3 O8 1-,C3 H4 N5 1+'
_chemical_name_systematic        
'2-Azido-1H-imidazol-3-ium 3-hydroxy-2,4,6-trinitrophenolate'
_symmetry_cell_setting           monoclinic
_symmetry_space_group_name_H-M   'P 21/c'
_symmetry_Int_Tables_number      14
_space_group_name_Hall           '-P 2ybc'
loop_
_symmetry_equiv_pos_site_id
_symmetry_equiv_pos_as_xyz
1 x,y,z
2 -x,1/2+y,1/2-z
3 -x,-y,-z
4 x,1/2-y,1/2+z
_cell_length_a                   11.306(2)
_cell_length_b                   7.0305(14)
_cell_length_c                   17.398(4)
_cell_angle_alpha                90
_cell_angle_beta                 106.91(3)
_cell_angle_gamma                90
_cell_volume                     1323.12
_cell_formula_units_Z            4
loop_
_atom_site_label
_atom_site_type_symbol
_atom_site_fract_x
_atom_site_fract_y
_atom_site_fract_z
O1 O -0.27103(16) 0.6266(2) 0.89668(12)
O2 O -0.16795(16) 0.5809(3) 0.81107(12)
O3 O 0.06532(16) 0.6728(2) 0.84586(12)
O4 O 0.27342(18) 0.9265(3) 0.91204(13)
O5 O 0.34929(16) 0.6792(3) 0.98356(12)
O6 O 0.25652(14) 0.8627(2) 1.10892(11)
O7 O 0.09396(15) 0.9683(2) 1.19070(11)
O8 O -0.05924(17) 0.7722(3) 1.17111(12)
N1 N -0.17395(19) 0.6302(3) 0.87814(14)
N2 N 0.26607(19) 0.7936(3) 0.95552(14)
N3 N 0.02320(18) 0.8487(3) 1.14957(13)
C1 C -0.0630(2) 0.6946(3) 0.93686(16)
C2 C 0.0488(2) 0.7110(3) 0.91680(16)
C3 C 0.1514(2) 0.7718(3) 0.97716(16)
C4 C 0.1558(2) 0.8164(3) 1.05709(16)
C5 C 0.0370(2) 0.8005(3) 1.07137(16)
C6 C -0.0675(2) 0.7394(3) 1.01336(16)
H1 H -0.1417 0.7282 1.0259
H2 H -0.0057(17) 0.643(4) 0.8140(18)
N4 N 0.51340(19) 0.1742(3) 0.33639(14)
N5 N 0.35256(18) 0.0658(3) 0.24630(14)
N6 N 0.53968(19) 0.1477(3) 0.20784(14)
N7 N 0.48436(19) 0.1242(3) 0.13401(16)
N8 N 0.4506(2) 0.1076(3) 0.06720(16)
C7 C 0.4234(2) 0.1402(4) 0.37398(18)
H3 H 0.4303 0.1603 0.4279
C8 C 0.3238(2) 0.0726(3) 0.31776(17)
H4 H 0.2491 0.0370 0.3258
C9 C 0.4681(2) 0.1279(3) 0.25891(17)
H5 H 0.5912(13) 0.215(4) 0.3587(18)
H6 H 0.305(3) 0.014(4) 0.2003(11)
loop_
_geom_bond_atom_site_label_1
_geom_bond_atom_site_label_2
_geom_bond_site_symmetry_1
_geom_bond_site_symmetry_2
O1 N1 1_555 1_555
O2 N1 1_555 1_555
O3 C2 1_555 1_555
O4 N2 1_555 1_555
O5 N2 1_555 1_555
O6 C4 1_555 1_555
O7 N3 1_555 1_555
O8 N3 1_555 1_555
N1 C1 1_555 1_555
N2 C3 1_555 1_555
N3 C5 1_555 1_555
C1 C2 1_555 1_555
C2 C3 1_555 1_555
C3 C4 1_555 1_555
C4 C5 1_555 1_555
C5 C6 1_555 1_555
C6 C1 1_555 1_555
H1 C6 1_555 1_555
H2 O3 1_555 1_555
N4 C7 1_555 1_555
N5 C8 1_555 1_555
N6 N7 1_555 1_555
N7 N8 1_555 1_555
C7 H3 1_555 1_555
C8 C7 1_555 1_555
H4 C8 1_555 1_555
C9 N4 1_555 1_555
H5 N4 1_555 1_555
H6 N5 1_555 1_555
N5 C9 1_555 1_555
N6 C9 1_555 1_555

#END
