
#######################################################################
#
#                 Cambridge Crystallographic Data Centre
#                                CCDC 
#
#######################################################################
#
# If this CIF has been generated from an entry in the Cambridge 
# Structural Database, then it will include bibliographic, chemical, 
# crystal, experimental, refinement or atomic coordinate data resulting 
# from the CCDC's data processing and validation procedures.
#
#######################################################################

data_CEDKEB
_chemical_formula_moiety         'C30 H23 Br1 N2 O4 S1'
_chemical_name_systematic        
'p-Bromobenzyl (6S,8R,9R)-10-oxo-5-phenyl-9-(phenylacetamido)-7-thia-1-azatricyclo(6.3.0.0^3,6^)deca-2,4-diene-2-carboxylate'
_symmetry_cell_setting           monoclinic
_symmetry_space_group_name_H-M   'P 21'
_symmetry_Int_Tables_number      4
_space_group_name_Hall           'P 2yb'
loop_
_symmetry_equiv_pos_site_id
_symmetry_equiv_pos_as_xyz
1 x,y,z
2 -x,1/2+y,-z
_cell_length_a                   4.5760(10)
_cell_length_b                   12.727(3)
_cell_length_c                   22.942(5)
_cell_angle_alpha                90
_cell_angle_beta                 93.29(3)
_cell_angle_gamma                90
_cell_volume                     1333.91
_exptl_crystal_colour            'light yellow'
_exptl_crystal_description       plates
_cell_formula_units_Z            2
_exptl_crystal_recrystallization_method 'ethyl acetate/methanol'
loop_
_atom_site_label
_atom_site_type_symbol
_atom_site_fract_x
_atom_site_fract_y
_atom_site_fract_z
Br1 Br -0.4685(3) 1.08840(9) 0.08239(5)
S1 S 0.3853(3) 0.39010(13) 0.30361(6)
O1 O 0.0456(9) 0.6779(4) 0.2264(2)
O2 O -0.1537(14) 0.4218(5) 0.0982(2)
O3 O 0.0207(11) 0.5839(5) 0.1113(2)
N1 N 0.3435(11) 0.5281(4) 0.2115(2)
C1 C 0.2039(13) 0.4529(5) 0.1740(3)
C2 C 0.2470(13) 0.6192(5) 0.2381(3)
C3 C 0.4811(12) 0.6099(5) 0.2873(3)
H1 H 0.6480(12) 0.6561(5) 0.2793(3)
C4 C 0.5358(13) 0.4988(5) 0.2633(3)
H2 H 0.7418(13) 0.4873(5) 0.2539(3)
C5 C 0.4282(15) 0.3076(5) 0.2401(3)
H3 H 0.6368(15) 0.2976(5) 0.2321(3)
C6 C 0.2476(16) 0.2088(5) 0.2259(3)
C7 C 0.1250(16) 0.2493(5) 0.1758(3)
H4 H 0.0033(16) 0.2214(5) 0.1452(3)
C8 C 0.2514(14) 0.3514(5) 0.1869(3)
C9 C 0.0035(15) 0.4839(6) 0.1242(3)
O4 O 0.8357(14) 0.5995(13) 0.3857(3)
N2 N 0.3780(25) 0.6344(12) 0.3448(5)
H5 H 0.2027(25) 0.6586(12) 0.3491(5)
C10 C 0.5736(20) 0.6174(12) 0.3924(4)
C11 C 0.4639(22) 0.6379(16) 0.4518(4)
H6 H 0.2659(22) 0.6672(16) 0.4472(4)
H7 H 0.4511(22) 0.5709(16) 0.4726(4)
C12 C 0.6511(37) 0.7110(15) 0.4880(5)
C13 C 0.7936(32) 0.6804(16) 0.5380(5)
H8 H 0.7707(32) 0.6104(16) 0.5500(5)
C14 C 0.9727(35) 0.7456(23) 0.5733(8)
H9 H 1.0697(35) 0.7224(23) 0.6081(8)
C15 C 0.9965(52) 0.8479(21) 0.5526(11)
H10 H 1.1105(52) 0.8954(21) 0.5756(11)
C16 C 0.8639(59) 0.8853(17) 0.5005(12)
H11 H 0.8933(59) 0.9542(17) 0.4873(12)
C17 C 0.6847(47) 0.8139(13) 0.4691(12)
H12 H 0.5842(47) 0.8359(13) 0.4344(12)
C18 C -0.1814(28) 0.6195(7) 0.0630(4)
H13 H -0.3666(28) 0.5810(7) 0.0637(4)
H14 H -0.0960(28) 0.6056(7) 0.0256(4)
C19 C -0.2359(18) 0.7337(6) 0.0691(3)
C20 C -0.1524(21) 0.8047(7) 0.0278(4)
H15 H -0.0450(21) 0.7812(7) -0.0034(4)
C21 C -0.2234(22) 0.9084(7) 0.0315(4)
H16 H -0.1696(22) 0.9556(7) 0.0024(4)
C22 C -0.3700(17) 0.9429(7) 0.0766(3)
C23 C -0.4575(21) 0.8742(9) 0.1191(4)
H17 H -0.5616(21) 0.8989(9) 0.1505(4)
C24 C -0.3908(23) 0.7706(8) 0.1148(4)
H18 H -0.4508(23) 0.7234(8) 0.1433(4)
C25 C 0.2336(17) 0.1095(5) 0.2556(3)
C26 C 0.0623(25) 0.0280(7) 0.2318(4)
H19 H -0.0478(25) 0.0388(7) 0.1964(4)
C27 C 0.0515(30) -0.0686(7) 0.2592(6)
H20 H -0.0645(30) -0.1230(7) 0.2426(6)
C28 C 0.2116(34) -0.0843(8) 0.3109(6)
H21 H 0.2015(34) -0.1489(8) 0.3305(6)
C29 C 0.3876(36) -0.0047(10) 0.3341(6)
H22 H 0.5023(36) -0.0166(10) 0.3687(6)
C30 C 0.3971(24) 0.0909(10) 0.3073(5)
H23 H 0.5156(24) 0.1445(10) 0.3240(5)
H24? H 0.6479(12) 0.6579(5) 0.2822(3)
O5? O 0.8248(22) 0.6931(11) 0.3765(5)
N3? N 0.3947(35) 0.6075(14) 0.3473(7)
H25? H 0.2474(35) 0.5708(14) 0.3584(7)
C31? C 0.5694(28) 0.6694(14) 0.3855(6)
C32? C 0.4436(38) 0.6933(19) 0.4428(7)
H26? H 0.2926(38) 0.7474(19) 0.4366(7)
H27? H 0.3483(38) 0.6299(19) 0.4567(7)
C33? C 0.6592(73) 0.7297(20) 0.4885(10)
C34? C 0.7550(71) 0.6597(21) 0.5309(13)
H28? H 0.6835(71) 0.5905(21) 0.5293(13)
C35? C 0.9523(76) 0.6878(24) 0.5756(14)
H29? H 1.0179(76) 0.6405(24) 0.6050(14)
C36? C 1.0481(61) 0.7922(23) 0.5740(12)
H30? H 1.1922(61) 0.8125(23) 0.6027(12)
C37? C 0.950(11) 0.8688(28) 0.5342(18)
H31? H 1.015(11) 0.9389(28) 0.5361(18)
C38? C 0.7476(69) 0.8324(19) 0.4910(12)
H32? H 0.6695(69) 0.8798(19) 0.4628(12)
loop_
_geom_bond_atom_site_label_1
_geom_bond_atom_site_label_2
_geom_bond_site_symmetry_1
_geom_bond_site_symmetry_2
Br1 C22 1_555 1_555
S1 C4 1_555 1_555
O1 C2 1_555 1_555
O2 C9 1_555 1_555
O3 C9 1_555 1_555
N1 C1 1_555 1_555
C1 C8 1_555 1_555
C2 N1 1_555 1_555
C3 C2 1_555 1_555
H1 C3 1_555 1_555
C4 N1 1_555 1_555
H2 C4 1_555 1_555
C5 S1 1_555 1_555
H3 C5 1_555 1_555
C6 C5 1_555 1_555
C7 C6 1_555 1_555
H4 C7 1_555 1_555
C8 C5 1_555 1_555
C9 C1 1_555 1_555
O4 C10 1_555 1_555
N2 C3 1_555 1_555
H5 N2 1_555 1_555
C10 N2 1_555 1_555
C11 C10 1_555 1_555
H6 C11 1_555 1_555
H7 C11 1_555 1_555
C12 C11 1_555 1_555
C13 C12 1_555 1_555
H8 C13 1_555 1_555
C14 C13 1_555 1_555
H9 C14 1_555 1_555
C15 C14 1_555 1_555
H10 C15 1_555 1_555
C16 C15 1_555 1_555
H11 C16 1_555 1_555
C17 C12 1_555 1_555
H12 C17 1_555 1_555
C18 O3 1_555 1_555
H13 C18 1_555 1_555
H14 C18 1_555 1_555
C19 C18 1_555 1_555
C20 C19 1_555 1_555
H15 C20 1_555 1_555
C21 C20 1_555 1_555
H16 C21 1_555 1_555
C22 C21 1_555 1_555
C23 C22 1_555 1_555
H17 C23 1_555 1_555
C24 C19 1_555 1_555
H18 C24 1_555 1_555
C25 C6 1_555 1_555
C26 C25 1_555 1_555
H19 C26 1_555 1_555
C27 C26 1_555 1_555
H20 C27 1_555 1_555
C28 C27 1_555 1_555
H21 C28 1_555 1_555
C29 C28 1_555 1_555
H22 C29 1_555 1_555
C30 C25 1_555 1_555
H23 C30 1_555 1_555
C3 C4 1_555 1_555
C7 C8 1_555 1_555
C16 C17 1_555 1_555
C23 C24 1_555 1_555
C29 C30 1_555 1_555

#END
