
#######################################################################
#
#                 Cambridge Crystallographic Data Centre
#                                CCDC 
#
#######################################################################
#
# If this CIF has been generated from an entry in the Cambridge 
# Structural Database, then it will include bibliographic, chemical, 
# crystal, experimental, refinement or atomic coordinate data resulting 
# from the CCDC's data processing and validation procedures.
#
#######################################################################

data_CEDNIK
_chemical_formula_moiety         'C18 H20 N2 O2'
_chemical_name_systematic        
(1E,2E)-1,2-bis[1-(2-methoxyphenyl)ethylidene]hydrazine
_symmetry_cell_setting           triclinic
_symmetry_space_group_name_H-M   'P -1'
_symmetry_Int_Tables_number      2
_space_group_name_Hall           '-P 1'
loop_
_symmetry_equiv_pos_site_id
_symmetry_equiv_pos_as_xyz
1 x,y,z
2 -x,-y,-z
_cell_length_a                   7.9695(2)
_cell_length_b                   14.8028(4)
_cell_length_c                   15.4704(4)
_cell_angle_alpha                117.9090(10)
_cell_angle_beta                 90.1510(10)
_cell_angle_gamma                91.9790(10)
_cell_volume                     1611.46
_exptl_crystal_colour            yellow
_exptl_crystal_description       block
_cell_formula_units_Z            4
_exptl_crystal_recrystallization_method acetone
loop_
_atom_site_label
_atom_site_type_symbol
_atom_site_fract_x
_atom_site_fract_y
_atom_site_fract_z
O1 O 0.75936(11) 0.36403(6) 0.20160(6)
O2 O 0.05444(11) 0.30674(7) 0.43253(6)
N1 N 0.46008(11) 0.14041(7) 0.17196(6)
N2 N 0.37331(11) 0.12913(7) 0.24477(7)
C1 C 0.78882(13) 0.27395(9) 0.12023(8)
C2 C 0.88899(15) 0.26604(10) 0.04349(9)
H1 H 0.9423 0.3241 0.0460
C3 C 0.90873(16) 0.17096(11) -0.03661(9)
H2 H 0.9765 0.1655 -0.0875
C4 C 0.82876(17) 0.08417(10) -0.04166(9)
H3 H 0.8434 0.0206 -0.0953
C5 C 0.72626(14) 0.09266(9) 0.03416(8)
H4 H 0.6701 0.0346 0.0299
C6 C 0.70634(12) 0.18658(8) 0.11623(7)
C7 C 0.60121(13) 0.19120(8) 0.19741(7)
C8 C 0.22915(13) 0.16892(9) 0.26668(8)
C9 C 0.12412(13) 0.13672(9) 0.32803(8)
C10 C 0.11483(15) 0.03358(10) 0.30463(8)
H5 H 0.1765 -0.0125 0.2527
C11 C 0.01548(16) -0.00223(11) 0.35703(9)
H6 H 0.0111 -0.0713 0.3404
C12 C -0.07677(15) 0.06652(11) 0.43420(9)
H7 H -0.1452 0.0431 0.4687
C13 C -0.06803(14) 0.16999(11) 0.46046(9)
H8 H -0.1295 0.2156 0.5128
C14 C 0.03324(13) 0.20564(10) 0.40820(8)
C15 C 0.8430(2) 0.45433(11) 0.20980(12)
H9 H 0.8164 0.5115 0.2710
H10 H 0.8070 0.4664 0.1570
H11 H 0.9621 0.4460 0.2069
C16 C 0.66645(14) 0.24582(9) 0.30146(8)
H12 H 0.6653 0.1990 0.3283
H13 H 0.5964 0.3018 0.3395
H14 H 0.7793 0.2715 0.3030
C17 C 0.15991(16) 0.23508(12) 0.22654(10)
H15 H 0.1805 0.2051 0.1577
H16 H 0.2138 0.3020 0.2592
H17 H 0.0412 0.2404 0.2370
C18 C -0.0294(2) 0.37775(12) 0.51799(10)
H18 H 0.0057 0.4463 0.5331
H19 H -0.0015 0.3658 0.5721
H20 H -0.1486 0.3687 0.5061
O3 O 0.45456(11) 0.82808(7) 0.44885(6)
O4 O -0.27309(11) 0.85346(6) 0.18823(6)
N3 N 0.11694(11) 0.64386(7) 0.25137(7)
N4 N 0.03346(11) 0.65363(7) 0.17709(7)
C19 C 0.46224(13) 0.72673(10) 0.42254(8)
C20 C 0.55967(14) 0.68929(11) 0.47331(9)
H21 H 0.6262 0.7344 0.5266
C21 C 0.55744(16) 0.58569(11) 0.44459(9)
H22 H 0.6235 0.5615 0.4784
C22 C 0.45791(18) 0.51747(11) 0.36600(10)
H23 H 0.4555 0.4479 0.3474
C23 C 0.36140(15) 0.55442(10) 0.31511(9)
H24 H 0.2944 0.5087 0.2624
C24 C 0.36273(13) 0.65829(9) 0.34121(8)
C25 C 0.26160(13) 0.69058(9) 0.27974(8)
C26 C -0.11241(12) 0.69174(8) 0.19615(7)
C27 C -0.21463(12) 0.67896(8) 0.10995(7)
C28 C -0.23044(14) 0.58243(9) 0.02918(8)
H25 H -0.1732 0.5287 0.0291
C29 C -0.33037(16) 0.56475(10) -0.05160(9)
H26 H -0.3420 0.4995 -0.1045
C30 C -0.41238(16) 0.64566(11) -0.05217(9)
H27 H -0.4786 0.6344 -0.1061
C31 C -0.39686(15) 0.74310(10) 0.02671(9)
H28 H -0.4515 0.7969 0.0253
C32 C -0.29881(13) 0.75991(9) 0.10809(8)
C33 C 0.5555(2) 0.89710(12) 0.53241(11)
H29 H 0.5325 0.9664 0.5484
H30 H 0.6722 0.8856 0.5176
H31 H 0.5293 0.8855 0.5870
C34 C 0.33209(15) 0.76471(12) 0.24739(10)
H32 H 0.3033 0.7408 0.1797
H33 H 0.4521 0.7703 0.2558
H34 H 0.2861 0.8305 0.2860
C35 C -0.18961(14) 0.73647(9) 0.29538(8)
H35 H -0.1033 0.7526 0.3444
H36 H -0.2696 0.6877 0.2978
H37 H -0.2453 0.7976 0.3074
C36 C -0.3482(2) 0.93885(11) 0.18693(12)
H38 H -0.3197 0.9997 0.2466
H39 H -0.4680 0.9277 0.1809
H40 H -0.3074 0.9467 0.1324
loop_
_geom_bond_atom_site_label_1
_geom_bond_atom_site_label_2
_geom_bond_site_symmetry_1
_geom_bond_site_symmetry_2
O1 C1 1_555 1_555
O2 C14 1_555 1_555
N1 N2 1_555 1_555
N2 C8 1_555 1_555
C1 C2 1_555 1_555
C2 H1 1_555 1_555
C3 C2 1_555 1_555
H2 C3 1_555 1_555
C4 C3 1_555 1_555
H3 C4 1_555 1_555
C5 C4 1_555 1_555
H4 C5 1_555 1_555
C6 C1 1_555 1_555
C7 N1 1_555 1_555
C8 C9 1_555 1_555
C9 C10 1_555 1_555
C10 H5 1_555 1_555
C11 C10 1_555 1_555
H6 C11 1_555 1_555
C12 C11 1_555 1_555
H7 C12 1_555 1_555
C13 C12 1_555 1_555
H8 C13 1_555 1_555
C14 C9 1_555 1_555
C15 O1 1_555 1_555
H9 C15 1_555 1_555
H10 C15 1_555 1_555
H11 C15 1_555 1_555
C16 C7 1_555 1_555
H12 C16 1_555 1_555
H13 C16 1_555 1_555
H14 C16 1_555 1_555
C17 C8 1_555 1_555
H15 C17 1_555 1_555
H16 C17 1_555 1_555
H17 C17 1_555 1_555
C18 O2 1_555 1_555
H18 C18 1_555 1_555
H19 C18 1_555 1_555
H20 C18 1_555 1_555
O3 C19 1_555 1_555
O4 C32 1_555 1_555
N3 N4 1_555 1_555
N4 C26 1_555 1_555
C19 C20 1_555 1_555
C20 H21 1_555 1_555
C21 C20 1_555 1_555
H22 C21 1_555 1_555
C22 C21 1_555 1_555
H23 C22 1_555 1_555
C23 C22 1_555 1_555
H24 C23 1_555 1_555
C24 C19 1_555 1_555
C25 N3 1_555 1_555
C26 C27 1_555 1_555
C27 C28 1_555 1_555
C28 H25 1_555 1_555
C29 C28 1_555 1_555
H26 C29 1_555 1_555
C30 C29 1_555 1_555
H27 C30 1_555 1_555
C31 C30 1_555 1_555
H28 C31 1_555 1_555
C32 C27 1_555 1_555
C33 O3 1_555 1_555
H29 C33 1_555 1_555
H30 C33 1_555 1_555
H31 C33 1_555 1_555
C34 C25 1_555 1_555
H32 C34 1_555 1_555
H33 C34 1_555 1_555
H34 C34 1_555 1_555
C35 C26 1_555 1_555
H35 C35 1_555 1_555
H36 C35 1_555 1_555
H37 C35 1_555 1_555
C36 O4 1_555 1_555
H38 C36 1_555 1_555
H39 C36 1_555 1_555
H40 C36 1_555 1_555
C5 C6 1_555 1_555
C6 C7 1_555 1_555
C13 C14 1_555 1_555
C23 C24 1_555 1_555
C24 C25 1_555 1_555
C31 C32 1_555 1_555

#END
