
#######################################################################
#
#                 Cambridge Crystallographic Data Centre
#                                CCDC 
#
#######################################################################
#
# If this CIF has been generated from an entry in the Cambridge 
# Structural Database, then it will include bibliographic, chemical, 
# crystal, experimental, refinement or atomic coordinate data resulting 
# from the CCDC's data processing and validation procedures.
#
#######################################################################

data_CEDNOP
_chemical_formula_moiety         'C17 H29 N1 O3'
_chemical_name_systematic        
(5R)-menthyloxy-butyrolacto[3,4-b]-(2S,6R)-1-N-isopropylaziridine
_symmetry_cell_setting           orthorhombic
_symmetry_space_group_name_H-M   'P 21 21 21'
_symmetry_Int_Tables_number      19
_space_group_name_Hall           'P 2ac 2ab'
loop_
_symmetry_equiv_pos_site_id
_symmetry_equiv_pos_as_xyz
1 x,y,z
2 1/2-x,-y,1/2+z
3 -x,1/2+y,1/2-z
4 1/2+x,1/2-y,-z
_cell_length_a                   6.4800(7)
_cell_length_b                   8.4926(9)
_cell_length_c                   33.030(3)
_cell_angle_alpha                90
_cell_angle_beta                 90
_cell_angle_gamma                90
_cell_volume                     1817.71
_chemical_melting_point          '105-106 deg.C'
_cell_formula_units_Z            4
_exptl_crystal_recrystallization_method petroleum/EtOAc
loop_
_atom_site_label
_atom_site_type_symbol
_atom_site_fract_x
_atom_site_fract_y
_atom_site_fract_z
O1 O 0.5088(2) 0.59891(17) 0.18115(4)
O2 O 0.2019(2) 0.5277(3) 0.20544(5)
O3 O 0.7766(2) 0.45810(14) 0.15168(3)
N1 N 0.6542(2) 0.53531(18) 0.25701(4)
C1 C 0.3855(3) 0.5170(3) 0.20694(6)
C2 C 0.5158(3) 0.4250(2) 0.23516(5)
H1 H 0.4691 0.3257 0.2472
C3 C 0.7313(3) 0.4498(2) 0.22217(5)
H2 H 0.8348 0.3666 0.2253
C4 C 0.7235(3) 0.5483(2) 0.18453(5)
H3 H 0.8155 0.6395 0.1869
C5 C 0.7237(3) 0.4778(3) 0.29679(5)
H4 H 0.7466 0.3638 0.2956
C6 C 0.9263(4) 0.5613(4) 0.30666(7)
H5 H 1.0252 0.5402 0.2857
H6 H 0.9784 0.5234 0.3321
H7 H 0.9027 0.6726 0.3084
C7 C 0.5568(4) 0.5142(4) 0.32750(6)
H8 H 0.5315 0.6256 0.3280
H9 H 0.6007 0.4801 0.3538
H10 H 0.4323 0.4600 0.3202
C8 C 0.7810(3) 0.5388(2) 0.11328(5)
H11 H 0.6497 0.5943 0.1096
C9 C 0.8025(3) 0.4163(2) 0.08030(5)
H12 H 0.9392 0.3687 0.0837
C10 C 0.8041(4) 0.4993(3) 0.03934(6)
H13 H 0.8217 0.4218 0.0181
H14 H 0.6723 0.5511 0.0352
C11 C 0.9762(4) 0.6206(3) 0.03657(6)
H15 H 1.1083 0.5671 0.0377
H16 H 0.9671 0.6745 0.0107
C12 C 0.9657(4) 0.7407(3) 0.07037(6)
H17 H 0.8383 0.8014 0.0670
C13 C 0.9559(4) 0.6580(3) 0.11118(6)
H18 H 0.9372 0.7360 0.1323
H19 H 1.0859 0.6046 0.1161
C14 C 0.6443(4) 0.2810(3) 0.08346(7)
H20 H 0.6621 0.2337 0.1103
C15 C 0.6858(6) 0.1517(4) 0.05261(10)
H21 H 0.5988 0.0628 0.0583
H22 H 0.8278 0.1202 0.0542
H23 H 0.6568 0.1904 0.0259
C16 C 0.4212(4) 0.3327(4) 0.08052(11)
H24 H 0.3971 0.3796 0.0545
H25 H 0.3925 0.4084 0.1014
H26 H 0.3327 0.2430 0.0838
C17 C 1.1475(6) 0.8558(4) 0.06922(8)
H27 H 1.2740 0.7991 0.0732
H28 H 1.1316 0.9326 0.0903
H29 H 1.1508 0.9079 0.0434
loop_
_geom_bond_atom_site_label_1
_geom_bond_atom_site_label_2
_geom_bond_site_symmetry_1
_geom_bond_site_symmetry_2
O1 C1 1_555 1_555
O2 C1 1_555 1_555
O3 C4 1_555 1_555
N1 C2 1_555 1_555
C1 C2 1_555 1_555
C2 H1 1_555 1_555
C3 N1 1_555 1_555
H2 C3 1_555 1_555
C4 O1 1_555 1_555
H3 C4 1_555 1_555
C5 N1 1_555 1_555
H4 C5 1_555 1_555
C6 C5 1_555 1_555
H5 C6 1_555 1_555
H6 C6 1_555 1_555
H7 C6 1_555 1_555
C7 C5 1_555 1_555
H8 C7 1_555 1_555
H9 C7 1_555 1_555
H10 C7 1_555 1_555
C8 O3 1_555 1_555
H11 C8 1_555 1_555
C9 C8 1_555 1_555
H12 C9 1_555 1_555
C10 C9 1_555 1_555
H13 C10 1_555 1_555
H14 C10 1_555 1_555
C11 C10 1_555 1_555
H15 C11 1_555 1_555
H16 C11 1_555 1_555
C12 C11 1_555 1_555
H17 C12 1_555 1_555
C13 C8 1_555 1_555
H18 C13 1_555 1_555
H19 C13 1_555 1_555
C14 C9 1_555 1_555
H20 C14 1_555 1_555
C15 C14 1_555 1_555
H21 C15 1_555 1_555
H22 C15 1_555 1_555
H23 C15 1_555 1_555
C16 C14 1_555 1_555
H24 C16 1_555 1_555
H25 C16 1_555 1_555
H26 C16 1_555 1_555
C17 C12 1_555 1_555
H27 C17 1_555 1_555
H28 C17 1_555 1_555
H29 C17 1_555 1_555
C2 C3 1_555 1_555
C3 C4 1_555 1_555
C12 C13 1_555 1_555

#END
