
#######################################################################
#
#                 Cambridge Crystallographic Data Centre
#                                CCDC 
#
#######################################################################
#
# If this CIF has been generated from an entry in the Cambridge 
# Structural Database, then it will include bibliographic, chemical, 
# crystal, experimental, refinement or atomic coordinate data resulting 
# from the CCDC's data processing and validation procedures.
#
#######################################################################

data_CEDNAC
_chemical_formula_moiety         'C21 H21 N5 O2'
_chemical_name_systematic        
6-Butyl-5-(4-methylphenoxy)-3-phenyl-3H-1,2,3-triazolo[4,5-d]pyrimidin-7(6H)-one
_symmetry_cell_setting           monoclinic
_symmetry_space_group_name_H-M   'P 21/n'
_symmetry_Int_Tables_number      14
_space_group_name_Hall           '-P 2yn'
loop_
_symmetry_equiv_pos_site_id
_symmetry_equiv_pos_as_xyz
1 x,y,z
2 1/2-x,1/2+y,1/2-z
3 -x,-y,-z
4 1/2+x,1/2-y,1/2+z
_cell_length_a                   11.0954(10)
_cell_length_b                   16.4478(15)
_cell_length_c                   11.3484(11)
_cell_angle_alpha                90
_cell_angle_beta                 107.6430(10)
_cell_angle_gamma                90
_cell_volume                     1973.61
_exptl_crystal_colour            colorless
_exptl_crystal_description       block
_cell_formula_units_Z            4
_exptl_crystal_recrystallization_method hexane/dichloromethane
loop_
_atom_site_label
_atom_site_type_symbol
_atom_site_fract_x
_atom_site_fract_y
_atom_site_fract_z
C1 C 0.42419(17) 0.24051(13) 0.45138(17)
C2 C 0.5223(2) 0.26001(14) 0.5541(2)
H1 H 0.5810 0.2208 0.5936
C3 C 0.5326(2) 0.33854(15) 0.5978(2)
H2 H 0.5980 0.3523 0.6682
C4 C 0.4468(3) 0.39682(15) 0.5381(3)
H3 H 0.4543 0.4499 0.5677
C5 C 0.3502(2) 0.37608(16) 0.4348(3)
H4 H 0.2922 0.4154 0.3942
C6 C 0.3380(2) 0.29824(14) 0.3907(2)
H5 H 0.2723 0.2845 0.3205
C7 C 0.49373(17) 0.10245(12) 0.39629(16)
C8 C 0.42311(18) 0.03487(12) 0.34748(17)
C9 C 0.4821(2) -0.03604(13) 0.31905(17)
C10 C 0.67331(18) 0.04538(13) 0.39924(17)
C11 C 0.6857(6) -0.0970(5) 0.3246(5)
H6 H 0.6320 -0.1448 0.3109
H7 H 0.7589 -0.1073 0.3956
C12 C 0.7294(5) -0.0808(4) 0.2082(5)
H8 H 0.7829 -0.0328 0.2238
H9 H 0.7810 -0.1263 0.1980
C13 C 0.6379(6) -0.0699(3) 0.1027(5)
H10 H 0.6006 -0.0168 0.1050
H11 H 0.5726 -0.1101 0.0979
C14 C 0.6776(10) -0.0757(5) -0.0175(6)
H12 H 0.7472 -0.0395 -0.0114
H13 H 0.6074 -0.0606 -0.0874
H14 H 0.7026 -0.1304 -0.0279
C15 C 0.87510(18) 0.10857(13) 0.4721(2)
C16 C 0.9372(2) 0.14531(16) 0.4005(2)
H15 H 0.9238 0.1289 0.3191
C17 C 1.0212(2) 0.20782(16) 0.4509(2)
H16 H 1.0632 0.2338 0.4020
C18 C 1.04316(19) 0.23192(14) 0.5710(2)
C19 C 0.9782(2) 0.19289(17) 0.6399(2)
H17 H 0.9913 0.2088 0.7215
C20 C 0.8938(2) 0.13042(16) 0.5914(2)
H18 H 0.8511 0.1042 0.6396
C21 C 1.1367(3) 0.29832(18) 0.6258(3)
H19 H 1.2173 0.2847 0.6163
H20 H 1.1449 0.3040 0.7121
H21 H 1.1074 0.3486 0.5840
N1 N 0.40888(13) 0.15838(10) 0.40749(14)
N2 N 0.28911(15) 0.12506(12) 0.36653(17)
N3 N 0.29856(15) 0.05057(12) 0.33090(16)
N4 N 0.61476(15) -0.02544(10) 0.34970(14)
N5 N 0.62063(14) 0.11114(10) 0.42446(15)
O1 O 0.43198(15) -0.09929(10) 0.27448(15)
O2 O 0.79833(13) 0.04150(9) 0.41997(15)
C22? C 0.704(2) -0.0825(18) 0.3141(15)
C23? C 0.6617(12) -0.1107(8) 0.1849(10)
C24? C 0.7276(11) -0.1267(7) 0.0973(8)
C25? C 0.695(2) -0.1081(15) -0.0281(18)
H22? H 0.7847 -0.0555 0.3291
H23? H 0.7168 -0.1296 0.3679
H24? H 0.6172 -0.1610 0.1880
H25? H 0.5967 -0.0720 0.1431
H26? H 0.8104 -0.1024 0.1329
H27? H 0.7414 -0.1850 0.1015
H28? H 0.6086 -0.1234 -0.0676
H29? H 0.7492 -0.1374 -0.0650
H30? H 0.7046 -0.0508 -0.0381
loop_
_geom_bond_atom_site_label_1
_geom_bond_atom_site_label_2
_geom_bond_site_symmetry_1
_geom_bond_site_symmetry_2
C1 C2 1_555 1_555
C2 H1 1_555 1_555
C3 C2 1_555 1_555
H2 C3 1_555 1_555
C4 C3 1_555 1_555
H3 C4 1_555 1_555
C5 C4 1_555 1_555
H4 C5 1_555 1_555
C6 C1 1_555 1_555
H5 C6 1_555 1_555
C7 C8 1_555 1_555
C8 C9 1_555 1_555
C9 N4 1_555 1_555
C10 N4 1_555 1_555
C11 H6 1_555 1_555
H7 C11 1_555 1_555
C12 C11 1_555 1_555
H8 C12 1_555 1_555
H9 C12 1_555 1_555
C13 C12 1_555 1_555
H10 C13 1_555 1_555
H11 C13 1_555 1_555
C14 C13 1_555 1_555
H12 C14 1_555 1_555
H13 C14 1_555 1_555
H14 C14 1_555 1_555
C15 C16 1_555 1_555
C16 H15 1_555 1_555
C17 C16 1_555 1_555
H16 C17 1_555 1_555
C18 C17 1_555 1_555
C19 C18 1_555 1_555
H17 C19 1_555 1_555
C20 C15 1_555 1_555
H18 C20 1_555 1_555
C21 C18 1_555 1_555
H19 C21 1_555 1_555
H20 C21 1_555 1_555
H21 C21 1_555 1_555
N1 C1 1_555 1_555
N2 N1 1_555 1_555
N3 C8 1_555 1_555
N4 C11 1_555 1_555
N5 C7 1_555 1_555
O1 C9 1_555 1_555
O2 C10 1_555 1_555
C5 C6 1_555 1_555
C7 N1 1_555 1_555
C10 N5 1_555 1_555
C15 O2 1_555 1_555
C19 C20 1_555 1_555
N2 N3 1_555 1_555

#END
