
#######################################################################
#
#                 Cambridge Crystallographic Data Centre
#                                CCDC 
#
#######################################################################
#
# If this CIF has been generated from an entry in the Cambridge 
# Structural Database, then it will include bibliographic, chemical, 
# crystal, experimental, refinement or atomic coordinate data resulting 
# from the CCDC's data processing and validation procedures.
#
#######################################################################

data_CEDRUB
_chemical_formula_moiety         'C18 H14 N3 O5'
_chemical_name_systematic        
4-(3-nitrophenyl)-3-[1-(3-nitrophenyl)ethyl]-1,3-dihydro-2H-pyrrol-2-one
_symmetry_cell_setting           triclinic
_symmetry_space_group_name_H-M   'P -1'
_symmetry_Int_Tables_number      2
_space_group_name_Hall           '-P 1'
loop_
_symmetry_equiv_pos_site_id
_symmetry_equiv_pos_as_xyz
1 x,y,z
2 -x,-y,-z
_cell_length_a                   7.7506(8)
_cell_length_b                   8.4774(13)
_cell_length_c                   13.2368(11)
_cell_angle_alpha                81.401(10)
_cell_angle_beta                 77.537(8)
_cell_angle_gamma                69.008(12)
_cell_volume                     790.375
_exptl_crystal_colour            colorless
_exptl_crystal_description       block
_cell_formula_units_Z            2
loop_
_atom_site_label
_atom_site_type_symbol
_atom_site_fract_x
_atom_site_fract_y
_atom_site_fract_z
N1 N 0.4844(5) -0.0104(5) 0.6831(3)
H1 H 0.4414 -0.0665 0.6518
O1 O 0.7185(5) 0.0182(5) 0.5500(3)
C1 C 0.6418(5) 0.0494(6) 0.6403(3)
N2 N 0.9669(7) 0.4302(7) 0.3221(3)
O2 O 1.0884(6) 0.2940(6) 0.3050(3)
O3 O 0.6927(6) 0.3255(6) 1.1743(3)
C2 C 0.4184(6) 0.0381(6) 0.7804(3)
H2 H 0.3179 0.0174 0.8259
O4 O 0.9436(7) 0.5474(6) 0.2573(3)
C3 C 0.7835(6) 0.3462(6) 0.6015(3)
N3 N 0.7317(7) 0.2589(7) 1.0934(4)
C4 C 0.8907(6) 0.3232(6) 0.5030(3)
H3 H 0.9875 0.2214 0.4892
C5 C 0.8531(6) 0.4515(6) 0.4262(3)
C6 C 0.8162(6) 0.2053(7) 0.6907(4)
H4 H 0.8003 0.2628 0.7527
O5 O 0.8929(6) 0.1859(9) 1.0524(4)
C7 C 0.4827(6) 0.1926(6) 0.8994(3)
C8 C 0.5215(6) 0.1199(6) 0.7995(3)
C9 C 0.6649(6) 0.1261(6) 0.7125(3)
C10 C 0.6259(7) 0.1887(7) 0.9475(3)
H5 H 0.7510 0.1386 0.9177
C11 C 0.5785(6) 0.2615(7) 1.0416(4)
C12 C 0.6428(7) 0.4980(8) 0.6198(4)
H6 H 0.5680 0.5128 0.6852
C13 C 0.2546(7) 0.3350(8) 1.0420(4)
H7 H 0.1302 0.3861 1.0723
C14 C 0.3957(7) 0.3311(7) 1.0905(4)
H8 H 0.3685 0.3744 1.1548
C15 C 0.7158(7) 0.6084(7) 0.4436(4)
H9 H 0.6962 0.6953 0.3908
C16 C 0.2955(6) 0.2630(7) 0.9473(4)
H10 H 0.1988 0.2619 0.9165
C17 C 1.0087(6) 0.0749(7) 0.6811(4)
H11 H 1.0169 -0.0105 0.6383
H12 H 1.0323 0.0235 0.7487
H13 H 1.1001 0.1280 0.6500
C18 C 0.6092(8) 0.6313(7) 0.5420(5)
H14 H 0.5157 0.7347 0.5565
loop_
_geom_bond_atom_site_label_1
_geom_bond_atom_site_label_2
_geom_bond_site_symmetry_1
_geom_bond_site_symmetry_2
N1 H1 1_555 1_555
O1 C1 1_555 1_555
C1 N1 1_555 1_555
N2 O2 1_555 1_555
O3 N3 1_555 1_555
C2 N1 1_555 1_555
H2 C2 1_555 1_555
O4 N2 1_555 1_555
C3 C4 1_555 1_555
N3 O5 1_555 1_555
C4 H3 1_555 1_555
C5 N2 1_555 1_555
C6 C3 1_555 1_555
H4 C6 1_555 1_555
C7 C8 1_555 1_555
C8 C2 1_555 1_555
C9 C1 1_555 1_555
C10 C7 1_555 1_555
H5 C10 1_555 1_555
C11 N3 1_555 1_555
C12 C3 1_555 1_555
H6 C12 1_555 1_555
C13 H7 1_555 1_555
C14 C11 1_555 1_555
H8 C14 1_555 1_555
C15 C5 1_555 1_555
H9 C15 1_555 1_555
C16 C7 1_555 1_555
H10 C16 1_555 1_555
C17 C6 1_555 1_555
H11 C17 1_555 1_555
H12 C17 1_555 1_555
H13 C17 1_555 1_555
C18 C12 1_555 1_555
H14 C18 1_555 1_555
C4 C5 1_555 1_555
C6 C9 1_555 1_555
C8 C9 1_555 1_555
C10 C11 1_555 1_555
C13 C14 1_555 1_555
C13 C16 1_555 1_555
C15 C18 1_555 1_555

#END
