
#######################################################################
#
#                 Cambridge Crystallographic Data Centre
#                                CCDC 
#
#######################################################################
#
# If this CIF has been generated from an entry in the Cambridge 
# Structural Database, then it will include bibliographic, chemical, 
# crystal, experimental, refinement or atomic coordinate data resulting 
# from the CCDC's data processing and validation procedures.
#
#######################################################################

data_CEDSUB
_chemical_name_common            'PDB Chemical Component code: 2HQ'
_chemical_formula_moiety         'C8 H4 Cl1 N1 O2'
_chemical_name_systematic        5-Chloroindoline-2,3-dione
_symmetry_cell_setting           orthorhombic
_symmetry_space_group_name_H-M   'P n a 21'
_symmetry_Int_Tables_number      33
_space_group_name_Hall           'P 2c -2n'
loop_
_symmetry_equiv_pos_site_id
_symmetry_equiv_pos_as_xyz
1 x,y,z
2 -x,-y,1/2+z
3 1/2+x,1/2-y,z
4 1/2-x,1/2+y,1/2+z
_cell_length_a                   24.706(5)
_cell_length_b                   5.6890(11)
_cell_length_c                   5.2090(10)
_cell_angle_alpha                90
_cell_angle_beta                 90
_cell_angle_gamma                90
_cell_volume                     732.138
_exptl_crystal_colour            red
_exptl_crystal_description       block
_chemical_melting_point          '520 K'
_cell_formula_units_Z            4
_exptl_crystal_recrystallization_method methanol
loop_
_atom_site_label
_atom_site_type_symbol
_atom_site_fract_x
_atom_site_fract_y
_atom_site_fract_z
Cl1 Cl 0.26410(4) 0.6028(2) 0.2215(3)
N1 N 0.45038(11) 0.1571(5) 0.7251(9)
H1 H 0.4676 0.0291 0.6924
O1 O 0.49964(12) 0.2818(5) 1.0752(7)
C1 C 0.46351(13) 0.3075(6) 0.9153(9)
O2 O 0.42293(11) 0.6781(5) 1.0449(7)
C2 C 0.42335(13) 0.5098(6) 0.9018(8)
C3 C 0.38713(13) 0.4525(6) 0.6867(8)
C4 C 0.34278(14) 0.5650(7) 0.5820(9)
H2 H 0.3300 0.7058 0.6497
C5 C 0.31808(13) 0.4609(7) 0.3733(8)
C6 C 0.33568(15) 0.2468(7) 0.2760(8)
H3 H 0.3175 0.1793 0.1381
C7 C 0.37976(16) 0.1329(6) 0.3811(10)
H4 H 0.3920 -0.0093 0.3148
C8 C 0.40480(13) 0.2366(6) 0.5864(9)
loop_
_geom_bond_atom_site_label_1
_geom_bond_atom_site_label_2
_geom_bond_site_symmetry_1
_geom_bond_site_symmetry_2
Cl1 C5 1_555 1_555
N1 H1 1_555 1_555
O1 C1 1_555 1_555
C1 N1 1_555 1_555
O2 C2 1_555 1_555
C2 C1 1_555 1_555
C3 C2 1_555 1_555
C4 C3 1_555 1_555
H2 C4 1_555 1_555
C5 C4 1_555 1_555
C6 C5 1_555 1_555
H3 C6 1_555 1_555
C7 C6 1_555 1_555
H4 C7 1_555 1_555
C8 N1 1_555 1_555
C3 C8 1_555 1_555
C7 C8 1_555 1_555

#END
