
#######################################################################
#
#                 Cambridge Crystallographic Data Centre
#                                CCDC 
#
#######################################################################
#
# If this CIF has been generated from an entry in the Cambridge 
# Structural Database, then it will include bibliographic, chemical, 
# crystal, experimental, refinement or atomic coordinate data resulting 
# from the CCDC's data processing and validation procedures.
#
#######################################################################

data_CEFFUP
_chemical_formula_moiety         'C74 H74 N14 O4,2.25(C1 H2 Cl2),2(H2 O1)'
_chemical_name_systematic        
'1^4^,2^3^,14^4^,15^3^-Tetramethyl-1^3^,2^4^,14^3^,15^4^-tetra-n-propyl-5,11,18,24(1,2)-tetrabenzena-8,21(2,6)-dipyridina-1,2,14,15(2,5)-tetrapyrrola-4,6,10,12,17,19,23,25-octa-azacyclohexacosaphane-3,12,16,25-tetraene-7,9,20,22-tetraone dichloromethane solvate dihydrate'
_symmetry_cell_setting           triclinic
_symmetry_space_group_name_H-M   'P -1'
_symmetry_Int_Tables_number      2
_space_group_name_Hall           '-P 1'
loop_
_symmetry_equiv_pos_site_id
_symmetry_equiv_pos_as_xyz
1 x,y,z
2 -x,-y,-z
_cell_length_a                   13.615(2)
_cell_length_b                   16.254(3)
_cell_length_c                   19.020(3)
_cell_angle_alpha                74.731(3)
_cell_angle_beta                 87.513(4)
_cell_angle_gamma                65.815(3)
_cell_volume                     3694.15
_exptl_crystal_colour            orange
_exptl_crystal_description       prism
_cell_formula_units_Z            2
loop_
_atom_site_label
_atom_site_type_symbol
_atom_site_fract_x
_atom_site_fract_y
_atom_site_fract_z
O1 O 0.7524(2) 1.2430(2) 0.93588(15)
O2 O 0.9370(2) 0.7307(2) 0.81093(15)
O3 O 1.0577(2) 1.0487(2) 0.82774(15)
O4 O 0.6959(3) 0.8698(2) 1.02502(16)
N1 N 0.7061(3) 1.0388(2) 0.95505(17)
N2 N 0.7148(3) 1.1481(3) 1.03547(18)
N3 N 0.6624(3) 1.0682(2) 1.16362(17)
N4 N 0.6595(3) 0.8865(2) 1.20131(19)
N5 N 0.7364(3) 0.6978(3) 1.1582(2)
N6 N 0.8214(3) 0.6030(2) 1.04369(18)
N7 N 0.9026(3) 0.6721(2) 0.9280(2)
N8 N 0.9907(3) 0.8551(2) 0.85186(17)
N9 N 1.0708(3) 0.9581(3) 0.75116(18)
N10 N 1.0443(3) 0.9205(2) 0.62525(17)
N11 N 0.9352(3) 0.8003(2) 0.61751(19)
N12 N 0.7820(3) 0.7339(2) 0.7008(2)
N13 N 0.6617(3) 0.7501(2) 0.83385(18)
N14 N 0.6237(3) 0.8720(3) 0.9197(2)
C1 C 0.7005(3) 0.9827(3) 0.9163(2)
C2 C 0.7240(3) 0.9943(3) 0.8436(2)
H1 H 0.7205 0.9529 0.8177
C3 C 0.7525(3) 1.0668(3) 0.8092(2)
H2 H 0.7699 1.0753 0.7596
C4 C 0.7552(3) 1.1265(3) 0.8483(2)
H3 H 0.7730 1.1776 0.8259
C5 C 0.7313(3) 1.1102(3) 0.9209(2)
C6 C 0.7341(3) 1.1738(3) 0.9645(2)
C7 C 0.7063(3) 1.1921(3) 1.0908(2)
C8 C 0.7261(3) 1.2706(3) 1.0826(2)
H4 H 0.7454 1.2990 1.0370
C9 C 0.7175(4) 1.3078(3) 1.1415(2)
H5 H 0.7313 1.3618 1.1359
C10 C 0.6893(4) 1.2680(3) 1.2078(2)
H6 H 0.6841 1.2942 1.2477
C11 C 0.6684(3) 1.1897(3) 1.2164(2)
H7 H 0.6494 1.1619 1.2623
C12 C 0.6752(3) 1.1513(3) 1.1579(2)
C13 C 0.5932(3) 1.0503(3) 1.2067(2)
H8 H 0.5453 1.0978 1.2275
C14 C 0.5862(3) 0.9616(3) 1.2244(2)
C15 C 0.5188(3) 0.9305(3) 1.2708(2)
C16 C 0.5520(3) 0.8346(3) 1.2766(2)
C17 C 0.6409(3) 0.8092(3) 1.2336(2)
C18 C 0.7091(3) 0.7165(3) 1.2239(2)
C19 C 0.7539(3) 0.6333(3) 1.2783(2)
C20 C 0.8068(3) 0.5616(3) 1.2442(2)
C21 C 0.7948(3) 0.6037(3) 1.1687(2)
C22 C 0.8296(3) 0.5575(3) 1.1117(2)
H9 H 0.8599 0.4910 1.1243
C23 C 0.8449(3) 0.5539(3) 0.9893(2)
C24 C 0.8272(3) 0.4751(3) 0.9928(2)
H10 H 0.8036 0.4462 1.0362
C25 C 0.8437(3) 0.4382(3) 0.9333(2)
H11 H 0.8308 0.3843 0.9358
C26 C 0.8788(3) 0.4794(3) 0.8706(2)
H12 H 0.8894 0.4539 0.8299
C27 C 0.8989(3) 0.5569(3) 0.8660(2)
H13 H 0.9240 0.5842 0.8226
C28 C 0.8822(3) 0.5946(3) 0.9247(2)
C29 C 0.9331(3) 0.7298(3) 0.8766(2)
C30 C 0.9638(3) 0.7952(3) 0.9045(2)
C31 C 0.9676(3) 0.7946(3) 0.9778(2)
H14 H 0.9501 0.7508 1.0139
C32 C 0.9963(4) 0.8568(3) 0.9977(2)
H15 H 0.9986 0.8571 1.0475
C33 C 1.0221(3) 0.9194(3) 0.9444(2)
H16 H 1.0420 0.9639 0.9565
C34 C 1.0182(3) 0.9158(3) 0.8724(2)
C35 C 1.0514(3) 0.9805(3) 0.8149(2)
C36 C 1.1097(3) 1.0010(3) 0.6884(2)
C37 C 1.1603(3) 1.0594(3) 0.6900(2)
H17 H 1.1686 1.0730 0.7344
C38 C 1.1986(3) 1.0976(3) 0.6273(2)
H18 H 1.2326 1.1379 0.6286
C39 C 1.1876(3) 1.0775(3) 0.5622(2)
H19 H 1.2140 1.1041 0.5191
C40 C 1.1380(3) 1.0183(3) 0.5603(2)
H20 H 1.1312 1.0043 0.5158
C41 C 1.0983(3) 0.9795(3) 0.6229(2)
C42 C 1.0738(3) 0.8627(3) 0.5853(2)
H21 H 1.1332 0.8603 0.5565
C43 C 1.0240(3) 0.8019(3) 0.5810(2)
C44 C 1.0530(3) 0.7348(3) 0.5412(2)
C45 C 0.9805(3) 0.6927(3) 0.5547(2)
C46 C 0.9073(3) 0.7349(3) 0.6022(2)
C47 C 0.8119(3) 0.7230(3) 0.6330(2)
C48 C 0.7331(3) 0.7077(3) 0.6009(2)
C49 C 0.6555(3) 0.7071(3) 0.6520(2)
C50 C 0.6871(3) 0.7228(3) 0.7139(2)
C51 C 0.6359(3) 0.7251(3) 0.7812(2)
H22 H 0.5777 0.7065 0.7875
C52 C 0.6126(3) 0.7338(3) 0.9007(2)
C53 C 0.5889(3) 0.6565(3) 0.9274(2)
H23 H 0.6010 0.6139 0.8987
C54 C 0.5477(3) 0.6401(3) 0.9956(2)
H24 H 0.5316 0.5870 1.0130
C55 C 0.5305(3) 0.7008(3) 1.0374(2)
H25 H 0.5023 0.6897 1.0838
C56 C 0.5538(3) 0.7776(3) 1.0127(2)
H26 H 0.5405 0.8200 1.0417
C57 C 0.5966(3) 0.7939(3) 0.9453(2)
C58 C 0.6739(3) 0.9034(3) 0.9585(2)
C59 C 0.4329(3) 0.9868(3) 1.3120(2)
H27 H 0.3706 0.9700 1.3125
H28 H 0.4078 1.0540 1.2860
C60 C 0.4708(4) 0.9715(3) 1.3903(2)
H29 H 0.4994 0.9039 1.4158
H30 H 0.5303 0.9918 1.3900
C61 C 0.3809(4) 1.0251(3) 1.4316(2)
H31 H 0.4084 1.0133 1.4817
H32 H 0.3223 1.0045 1.4328
H33 H 0.3535 1.0922 1.4072
C62 C 0.5003(4) 0.7723(3) 1.3180(2)
H34 H 0.5399 0.7089 1.3125
H35 H 0.4252 0.7970 1.2986
H36 H 0.5020 0.7705 1.3698
C63 C 0.7551(4) 0.6227(3) 1.3595(2)
H37 H 0.7118 0.6836 1.3687
H38 H 0.8295 0.5997 1.3795
H39 H 0.7246 0.5780 1.3831
C64 C 0.8623(4) 0.4574(3) 1.2806(2)
H40 H 0.9260 0.4292 1.2539
H41 H 0.8882 0.4478 1.3312
C65 C 0.7890(4) 0.4076(3) 1.2828(2)
H42 H 0.8315 0.3394 1.3032
H43 H 0.7622 0.4180 1.2322
C66 C 0.6928(4) 0.4401(3) 1.3282(3)
H44 H 0.6490 0.4051 1.3278
H45 H 0.6489 0.5072 1.3075
H46 H 0.7186 0.4291 1.3786
C67 C 1.1433(3) 0.7152(3) 0.4915(2)
H47 H 1.1722 0.6486 0.4915
H48 H 1.2022 0.7261 0.5105
C68 C 1.1079(4) 0.7761(3) 0.4137(2)
H49 H 1.0793 0.8427 0.4138
H50 H 1.0486 0.7655 0.3949
C69 C 1.1994(5) 0.7563(4) 0.3623(3)
H51 H 1.1722 0.7976 0.3131
H52 H 1.2268 0.6909 0.3608
H53 H 1.2579 0.7677 0.3800
C70 C 0.9863(3) 0.6117(3) 0.5273(2)
H54 H 1.0452 0.5967 0.4948
H55 H 0.9178 0.6290 0.5004
H56 H 0.9995 0.5570 0.5689
C71 C 0.7268(4) 0.7006(3) 0.5239(2)
H57 H 0.7913 0.7026 0.4999
H58 H 0.6624 0.7531 0.4966
H59 H 0.7227 0.6414 0.5251
C72 C 0.5515(3) 0.7015(3) 0.6373(2)
H60 H 0.5231 0.6809 0.6843
H61 H 0.5652 0.6542 0.6100
C73 C 0.4669(3) 0.7961(3) 0.5931(2)
H62 H 0.4436 0.8402 0.6239
H63 H 0.5000 0.8221 0.5506
C74 C 0.3690(4) 0.7878(4) 0.5662(3)
H64 H 0.3173 0.8497 0.5381
H65 H 0.3348 0.7636 0.6081
H66 H 0.3914 0.7449 0.5349
H73 H 0.698(3) 1.104(3) 1.051(2)
H74 H 0.718(4) 0.885(3) 1.162(2)
H75 H 0.717(3) 0.744(3) 1.122(2)
H76 H 0.890(3) 0.688(2) 0.971(2)
H77 H 1.065(3) 0.908(3) 0.7530(19)
H78 H 0.911(3) 0.835(3) 0.650(2)
H79 H 0.826(3) 0.731(3) 0.732(2)
H80 H 0.617(4) 0.890(3) 0.885(2)
O5 O 0.8358(3) 0.8638(2) 1.12218(17)
H81 H 0.7953 0.8954 1.0610
H82 H 0.8593 0.9184 1.1360
O6 O 0.8564(2) 0.9280(2) 0.70488(15)
H83 H 0.9074 0.9393 0.6679
H84 H 0.8912 0.8901 0.7570
C75 C 1.0076(4) 0.3006(4) 0.7505(3)
H67 H 1.0437 0.2472 0.7291
H68 H 1.0631 0.3042 0.7801
Cl1 Cl 0.91049(11) 0.28114(9) 0.80707(7)
Cl2 Cl 0.95063(14) 0.40451(12) 0.67984(8)
C76 C 0.6358(4) 0.4306(3) 0.8016(3)
H69 H 0.6811 0.4614 0.7750
H70 H 0.6790 0.3827 0.8458
Cl3 Cl 0.52066(11) 0.51450(9) 0.82778(8)
Cl4 Cl 0.59878(15) 0.37710(15) 0.74622(12)
C77? C 0.5195(11) 0.4595(10) 0.5456(5)
H71? H 0.5803 0.3917 0.5461
H72? H 0.5046 0.4575 0.5899
Cl5? Cl 0.5834(3) 0.5316(2) 0.50948(17)
loop_
_geom_bond_atom_site_label_1
_geom_bond_atom_site_label_2
_geom_bond_site_symmetry_1
_geom_bond_site_symmetry_2
O1 C6 1_555 1_555
O2 C29 1_555 1_555
O3 C35 1_555 1_555
O4 C58 1_555 1_555
N1 C1 1_555 1_555
N2 C6 1_555 1_555
N3 C12 1_555 1_555
N4 C14 1_555 1_555
N5 C18 1_555 1_555
N6 C22 1_555 1_555
N7 C28 1_555 1_555
N8 C30 1_555 1_555
N9 C35 1_555 1_555
N10 C41 1_555 1_555
N11 C43 1_555 1_555
N12 C47 1_555 1_555
N13 C51 1_555 1_555
N14 C57 1_555 1_555
C1 C2 1_555 1_555
C2 H1 1_555 1_555
C3 C2 1_555 1_555
H2 C3 1_555 1_555
C4 C3 1_555 1_555
H3 C4 1_555 1_555
C5 N1 1_555 1_555
C6 C5 1_555 1_555
C7 N2 1_555 1_555
C8 C7 1_555 1_555
H4 C8 1_555 1_555
C9 C8 1_555 1_555
H5 C9 1_555 1_555
C10 C9 1_555 1_555
H6 C10 1_555 1_555
C11 C10 1_555 1_555
H7 C11 1_555 1_555
C12 C7 1_555 1_555
C13 N3 1_555 1_555
H8 C13 1_555 1_555
C14 C13 1_555 1_555
C15 C14 1_555 1_555
C16 C15 1_555 1_555
C17 N4 1_555 1_555
C18 C17 1_555 1_555
C19 C18 1_555 1_555
C20 C19 1_555 1_555
C21 N5 1_555 1_555
C22 C21 1_555 1_555
H9 C22 1_555 1_555
C23 N6 1_555 1_555
C24 C23 1_555 1_555
H10 C24 1_555 1_555
C25 C24 1_555 1_555
H11 C25 1_555 1_555
C26 C25 1_555 1_555
H12 C26 1_555 1_555
C27 C26 1_555 1_555
H13 C27 1_555 1_555
C28 C23 1_555 1_555
C29 N7 1_555 1_555
C30 C29 1_555 1_555
C31 C30 1_555 1_555
H14 C31 1_555 1_555
C32 C31 1_555 1_555
H15 C32 1_555 1_555
C33 C32 1_555 1_555
H16 C33 1_555 1_555
C34 N8 1_555 1_555
C35 C34 1_555 1_555
C36 N9 1_555 1_555
C37 C36 1_555 1_555
H17 C37 1_555 1_555
C38 C37 1_555 1_555
H18 C38 1_555 1_555
C39 C38 1_555 1_555
H19 C39 1_555 1_555
C40 C39 1_555 1_555
H20 C40 1_555 1_555
C41 C36 1_555 1_555
C42 N10 1_555 1_555
H21 C42 1_555 1_555
C43 C42 1_555 1_555
C44 C43 1_555 1_555
C45 C44 1_555 1_555
C46 N11 1_555 1_555
C47 C46 1_555 1_555
C48 C47 1_555 1_555
C49 C48 1_555 1_555
C50 N12 1_555 1_555
C51 C50 1_555 1_555
H22 C51 1_555 1_555
C52 N13 1_555 1_555
C53 C52 1_555 1_555
H23 C53 1_555 1_555
C54 C53 1_555 1_555
H24 C54 1_555 1_555
C55 C54 1_555 1_555
H25 C55 1_555 1_555
C56 C55 1_555 1_555
H26 C56 1_555 1_555
C57 C52 1_555 1_555
C58 N14 1_555 1_555
C59 C15 1_555 1_555
H27 C59 1_555 1_555
H28 C59 1_555 1_555
C60 C59 1_555 1_555
H29 C60 1_555 1_555
H30 C60 1_555 1_555
C61 C60 1_555 1_555
H31 C61 1_555 1_555
H32 C61 1_555 1_555
H33 C61 1_555 1_555
C62 C16 1_555 1_555
H34 C62 1_555 1_555
H35 C62 1_555 1_555
H36 C62 1_555 1_555
C63 C19 1_555 1_555
H37 C63 1_555 1_555
H38 C63 1_555 1_555
H39 C63 1_555 1_555
C64 C20 1_555 1_555
H40 C64 1_555 1_555
H41 C64 1_555 1_555
C65 C64 1_555 1_555
H42 C65 1_555 1_555
H43 C65 1_555 1_555
C66 C65 1_555 1_555
H44 C66 1_555 1_555
H45 C66 1_555 1_555
H46 C66 1_555 1_555
C67 C44 1_555 1_555
H47 C67 1_555 1_555
H48 C67 1_555 1_555
C68 C67 1_555 1_555
H49 C68 1_555 1_555
H50 C68 1_555 1_555
C69 C68 1_555 1_555
H51 C69 1_555 1_555
H52 C69 1_555 1_555
H53 C69 1_555 1_555
C70 C45 1_555 1_555
H54 C70 1_555 1_555
H55 C70 1_555 1_555
H56 C70 1_555 1_555
C71 C48 1_555 1_555
H57 C71 1_555 1_555
H58 C71 1_555 1_555
H59 C71 1_555 1_555
C72 C49 1_555 1_555
H60 C72 1_555 1_555
H61 C72 1_555 1_555
C73 C72 1_555 1_555
H62 C73 1_555 1_555
H63 C73 1_555 1_555
C74 C73 1_555 1_555
H64 C74 1_555 1_555
H65 C74 1_555 1_555
H66 C74 1_555 1_555
O5 H81 1_555 1_555
O6 H83 1_555 1_555
C75 H67 1_555 1_555
H68 C75 1_555 1_555
Cl1 C75 1_555 1_555
Cl2 C75 1_555 1_555
C76 H69 1_555 1_555
H70 C76 1_555 1_555
Cl3 C76 1_555 1_555
Cl4 C76 1_555 1_555
H73 N2 1_555 1_555
H74 N4 1_555 1_555
H75 N5 1_555 1_555
H76 N7 1_555 1_555
H77 N9 1_555 1_555
H78 N11 1_555 1_555
H79 N12 1_555 1_555
H80 N14 1_555 1_555
H82 O5 1_555 1_555
H84 O6 1_555 1_555
C1 C58 1_555 1_555
C4 C5 1_555 1_555
C11 C12 1_555 1_555
C16 C17 1_555 1_555
C20 C21 1_555 1_555
C27 C28 1_555 1_555
C33 C34 1_555 1_555
C40 C41 1_555 1_555
C45 C46 1_555 1_555
C49 C50 1_555 1_555
C56 C57 1_555 1_555

#END
