
#######################################################################
#
#                 Cambridge Crystallographic Data Centre
#                                CCDC 
#
#######################################################################
#
# If this CIF has been generated from an entry in the Cambridge 
# Structural Database, then it will include bibliographic, chemical, 
# crystal, experimental, refinement or atomic coordinate data resulting 
# from the CCDC's data processing and validation procedures.
#
#######################################################################

data_CEFZUK
_chemical_formula_moiety         'C22 H21 N3 O4'
_chemical_name_systematic        
"Methyl 1',1''-dimethyl-2,2''-dioxo-1,1'',2,2''-tetrahydrodispiro[indole-3,2'-pyrrolidine-3',3''-indole]-4'-carboxylate"
_symmetry_cell_setting           monoclinic
_symmetry_space_group_name_H-M   'P 21/n'
_symmetry_Int_Tables_number      14
_space_group_name_Hall           '-P 2yn'
loop_
_symmetry_equiv_pos_site_id
_symmetry_equiv_pos_as_xyz
1 x,y,z
2 1/2-x,1/2+y,1/2-z
3 -x,-y,-z
4 1/2+x,1/2-y,1/2+z
_cell_length_a                   9.8244(4)
_cell_length_b                   12.7193(5)
_cell_length_c                   15.7630(6)
_cell_angle_alpha                90
_cell_angle_beta                 95.474(2)
_cell_angle_gamma                90
_cell_volume                     1960.75
_exptl_crystal_colour            colorless
_exptl_crystal_description       block
_cell_formula_units_Z            4
loop_
_atom_site_label
_atom_site_type_symbol
_atom_site_fract_x
_atom_site_fract_y
_atom_site_fract_z
C1 C -0.1007(2) -0.03758(15) 0.60269(11)
H1 H -0.0871 0.0299 0.5761
H2 H -0.1229 -0.0896 0.5586
C2 C 0.02541(18) -0.06977(13) 0.65991(11)
H3 H 0.0738 -0.0054 0.6791
C3 C -0.03026(17) -0.12230(12) 0.74001(10)
C4 C -0.18972(17) -0.12132(12) 0.71699(10)
C5 C -0.3439(2) -0.01745(19) 0.61685(14)
H4 H -0.3650 -0.0755 0.5789
H5 H -0.3472 0.0468 0.5848
H6 H -0.4096 -0.0146 0.6582
C6 C 0.1228(2) -0.13630(15) 0.61579(13)
C7 C 0.3381(3) -0.2173(2) 0.6299(2)
H7 H 0.3031 -0.2878 0.6288
H8 H 0.4230 -0.2146 0.6654
H9 H 0.3531 -0.1961 0.5730
C8 C -0.30396(19) -0.03885(14) 0.84650(11)
H10 H -0.2595 0.0255 0.8446
C9 C -0.3969(2) -0.05603(16) 0.90536(12)
H11 H -0.4152 -0.0026 0.9429
C10 C -0.4627(2) -0.15059(17) 0.90921(13)
H12 H -0.5229 -0.1614 0.9504
C11 C -0.4404(2) -0.23012(16) 0.85248(14)
H13 H -0.4859 -0.2941 0.8540
C12 C -0.34875(19) -0.21128(13) 0.79372(12)
C13 C -0.27769(17) -0.11765(12) 0.79085(10)
C14 C -0.23636(18) -0.22843(13) 0.67501(11)
C15 C 0.04532(19) -0.32158(13) 0.73222(12)
H14 H 0.0074 -0.3327 0.6766
C16 C 0.1163(2) -0.40147(14) 0.77744(13)
H15 H 0.1263 -0.4664 0.7516
C17 C 0.1718(2) -0.38606(15) 0.85940(13)
H16 H 0.2176 -0.4411 0.8887
C18 C 0.1611(2) -0.29021(15) 0.89939(13)
H17 H 0.1992 -0.2793 0.9550
C19 C 0.09178(18) -0.21159(13) 0.85362(11)
C20 C 0.03200(17) -0.22564(12) 0.77117(10)
C21 C 0.00958(17) -0.04954(13) 0.81677(11)
C22 C 0.1426(3) -0.06320(19) 0.95731(14)
H18 H 0.1281 0.0114 0.9576
H19 H 0.2389 -0.0775 0.9601
H20 H 0.1056 -0.0941 1.0057
N1 N -0.20775(16) -0.03125(11) 0.66017(9)
N2 N -0.31930(16) -0.27579(12) 0.72636(10)
H21 H -0.3505 -0.3386 0.7185
N3 N 0.07510(16) -0.10775(11) 0.87955(9)
O1 O 0.1005(2) -0.17271(15) 0.54647(10)
O2 O 0.24061(15) -0.14729(11) 0.66334(10)
O3 O -0.20458(14) -0.26255(10) 0.60748(8)
O4 O -0.00852(13) 0.04480(9) 0.82033(8)
loop_
_geom_bond_atom_site_label_1
_geom_bond_atom_site_label_2
_geom_bond_site_symmetry_1
_geom_bond_site_symmetry_2
C1 H1 1_555 1_555
H2 C1 1_555 1_555
C2 C1 1_555 1_555
H3 C2 1_555 1_555
C3 C2 1_555 1_555
C4 C3 1_555 1_555
C5 H4 1_555 1_555
H5 C5 1_555 1_555
H6 C5 1_555 1_555
C6 C2 1_555 1_555
C7 H7 1_555 1_555
H8 C7 1_555 1_555
H9 C7 1_555 1_555
C8 H10 1_555 1_555
C9 C8 1_555 1_555
H11 C9 1_555 1_555
C10 C9 1_555 1_555
H12 C10 1_555 1_555
C11 C10 1_555 1_555
H13 C11 1_555 1_555
C12 C11 1_555 1_555
C13 C4 1_555 1_555
C14 C4 1_555 1_555
C15 H14 1_555 1_555
C16 C15 1_555 1_555
H15 C16 1_555 1_555
C17 C16 1_555 1_555
H16 C17 1_555 1_555
C18 C17 1_555 1_555
H17 C18 1_555 1_555
C19 C18 1_555 1_555
C20 C3 1_555 1_555
C21 C3 1_555 1_555
C22 H18 1_555 1_555
H19 C22 1_555 1_555
H20 C22 1_555 1_555
N1 C1 1_555 1_555
N2 C12 1_555 1_555
H21 N2 1_555 1_555
N3 C19 1_555 1_555
O1 C6 1_555 1_555
O2 C6 1_555 1_555
O3 C14 1_555 1_555
O4 C21 1_555 1_555
C4 N1 1_555 1_555
C5 N1 1_555 1_555
C7 O2 1_555 1_555
C8 C13 1_555 1_555
C12 C13 1_555 1_555
C14 N2 1_555 1_555
C15 C20 1_555 1_555
C19 C20 1_555 1_555
C21 N3 1_555 1_555
C22 N3 1_555 1_555

#END
