
#######################################################################
#
#                 Cambridge Crystallographic Data Centre
#                                CCDC 
#
#######################################################################
#
# If this CIF has been generated from an entry in the Cambridge 
# Structural Database, then it will include bibliographic, chemical, 
# crystal, experimental, refinement or atomic coordinate data resulting 
# from the CCDC's data processing and validation procedures.
#
#######################################################################

data_CEFZOE
_chemical_formula_moiety         'C25 H25 N3 O4'
_chemical_name_systematic        
"Methyl 1-methyl-2,2''-dioxo-1,1',1'',2,2'',5',6',7',8',8a'-decahydrodispiro[indole-3,2'-indolizine-3',3''-indole]-1'-carboxylate"
_symmetry_cell_setting           monoclinic
_symmetry_space_group_name_H-M   'P 21/n'
_symmetry_Int_Tables_number      14
_space_group_name_Hall           '-P 2yn'
loop_
_symmetry_equiv_pos_site_id
_symmetry_equiv_pos_as_xyz
1 x,y,z
2 1/2-x,1/2+y,1/2-z
3 -x,-y,-z
4 1/2+x,1/2-y,1/2+z
_cell_length_a                   10.0516(3)
_cell_length_b                   17.9539(6)
_cell_length_c                   12.4471(4)
_cell_angle_alpha                90
_cell_angle_beta                 105.347(2)
_cell_angle_gamma                90
_cell_volume                     2166.17
_exptl_crystal_colour            'white crystalline'
_exptl_crystal_description       block
_cell_formula_units_Z            4
loop_
_atom_site_label
_atom_site_type_symbol
_atom_site_fract_x
_atom_site_fract_y
_atom_site_fract_z
C1 C 0.39509(15) 0.18055(7) 0.38847(13)
H1 H 0.3661 0.1786 0.3077
H2 H 0.3520 0.1394 0.4172
C2 C 0.55128(16) 0.17364(9) 0.42873(14)
H3 H 0.5783 0.1691 0.5092
H4 H 0.5803 0.1288 0.3979
C3 C 0.62352(16) 0.24026(9) 0.39500(16)
H5 H 0.6072 0.2411 0.3146
H6 H 0.7222 0.2362 0.4279
C4 C 0.57047(14) 0.31205(8) 0.43361(14)
H7 H 0.5954 0.3137 0.5144
H8 H 0.6125 0.3545 0.4071
C5 C 0.41569(13) 0.31611(7) 0.38920(11)
H9 H 0.3898 0.3183 0.3076
C6 C 0.20445(12) 0.26486(7) 0.39870(10)
C7 C 0.19738(12) 0.35157(7) 0.42780(10)
C8 C 0.34676(13) 0.37893(7) 0.43616(11)
H10 H 0.3936 0.3815 0.5159
C9 C 0.35351(14) 0.45585(7) 0.39114(14)
C10 C 0.14592(16) 0.18861(8) 0.56175(13)
H11 H 0.2242 0.2033 0.6161
C11 C 0.04945(18) 0.14130(9) 0.58827(16)
H12 H 0.0624 0.1252 0.6613
C12 C -0.06500(17) 0.11821(9) 0.50720(17)
H13 H -0.1290 0.0872 0.5268
C13 C -0.08675(15) 0.14005(8) 0.39767(15)
H14 H -0.1628 0.1233 0.3428
C14 C 0.00836(13) 0.18761(7) 0.37260(12)
C15 C 0.12326(13) 0.21318(7) 0.45356(11)
C16 C 0.12949(14) 0.25295(7) 0.27335(11)
C17 C 0.04727(17) 0.41569(8) 0.24454(12)
H15 H 0.1102 0.4081 0.2027
C18 C -0.07771(19) 0.45125(9) 0.19857(15)
H16 H -0.0988 0.4670 0.1248
C19 C -0.17011(18) 0.46340(10) 0.25991(16)
H17 H -0.2529 0.4873 0.2269
C20 C -0.14357(15) 0.44103(8) 0.36957(15)
H18 H -0.2065 0.4495 0.4112
C21 C -0.01959(13) 0.40548(7) 0.41489(12)
C22 C 0.07557(13) 0.39205(7) 0.35351(11)
C23 C 0.16580(13) 0.35799(7) 0.54149(11)
N1 N 0.35207(10) 0.25114(6) 0.42717(9)
N2 N 0.01226(12) 0.21398(7) 0.26806(10)
H19 H -0.0517 0.2065 0.2077
N3 N 0.03374(11) 0.38133(6) 0.52466(10)
O1 O 0.38982(14) 0.45660(6) 0.29638(11)
O2 O 0.33032(14) 0.51090(6) 0.43692(13)
O3 O 0.16969(12) 0.27330(6) 0.19483(8)
O4 O 0.24468(10) 0.34408(6) 0.63171(8)
C24 C -0.03937(16) 0.38432(10) 0.61061(14)
H20 H 0.0221 0.3706 0.6809
H21 H -0.1159 0.3504 0.5924
H22 H -0.0727 0.4340 0.6154
C25 C 0.4028(3) 0.52914(11) 0.2504(2)
H23 H 0.3167 0.5553 0.2378
H24 H 0.4268 0.5236 0.1811
H25 H 0.4737 0.5569 0.3017
loop_
_geom_bond_atom_site_label_1
_geom_bond_atom_site_label_2
_geom_bond_site_symmetry_1
_geom_bond_site_symmetry_2
C1 H1 1_555 1_555
H2 C1 1_555 1_555
C2 C1 1_555 1_555
H3 C2 1_555 1_555
H4 C2 1_555 1_555
C3 C2 1_555 1_555
H5 C3 1_555 1_555
H6 C3 1_555 1_555
C4 C3 1_555 1_555
H7 C4 1_555 1_555
H8 C4 1_555 1_555
C5 C4 1_555 1_555
H9 C5 1_555 1_555
C6 C7 1_555 1_555
C7 C8 1_555 1_555
C8 C5 1_555 1_555
H10 C8 1_555 1_555
C9 C8 1_555 1_555
C10 H11 1_555 1_555
C11 C10 1_555 1_555
H12 C11 1_555 1_555
C12 C11 1_555 1_555
H13 C12 1_555 1_555
C13 C12 1_555 1_555
H14 C13 1_555 1_555
C14 C13 1_555 1_555
C15 C6 1_555 1_555
C16 C6 1_555 1_555
C17 H15 1_555 1_555
C18 C17 1_555 1_555
H16 C18 1_555 1_555
C19 C18 1_555 1_555
H17 C19 1_555 1_555
C20 C19 1_555 1_555
H18 C20 1_555 1_555
C21 C20 1_555 1_555
C22 C7 1_555 1_555
C23 C7 1_555 1_555
N1 C1 1_555 1_555
N2 C14 1_555 1_555
H19 N2 1_555 1_555
N3 C21 1_555 1_555
O1 C9 1_555 1_555
O2 C9 1_555 1_555
O3 C16 1_555 1_555
O4 C23 1_555 1_555
C24 N3 1_555 1_555
H20 C24 1_555 1_555
H21 C24 1_555 1_555
H22 C24 1_555 1_555
C25 O1 1_555 1_555
H23 C25 1_555 1_555
H24 C25 1_555 1_555
H25 C25 1_555 1_555
C5 N1 1_555 1_555
C6 N1 1_555 1_555
C10 C15 1_555 1_555
C14 C15 1_555 1_555
C16 N2 1_555 1_555
C17 C22 1_555 1_555
C21 C22 1_555 1_555
C23 N3 1_555 1_555

#END
