
#######################################################################
#
#                 Cambridge Crystallographic Data Centre
#                                CCDC 
#
#######################################################################
#
# If this CIF has been generated from an entry in the Cambridge 
# Structural Database, then it will include bibliographic, chemical, 
# crystal, experimental, refinement or atomic coordinate data resulting 
# from the CCDC's data processing and validation procedures.
#
#######################################################################

data_CEFZAQ
_chemical_formula_moiety         'C30 H23 Cl1 N6 O1 S1'
_chemical_name_systematic        
5-Anilino-3-(benzylsulfanyl)-6-((3-chlorophenyl)amino)-1-phenyl-1,5-dihydro-4H-pyrazolo[3,4-d]pyrimidin-4-one
_symmetry_cell_setting           triclinic
_symmetry_space_group_name_H-M   'P -1'
_symmetry_Int_Tables_number      2
_space_group_name_Hall           '-P 1'
loop_
_symmetry_equiv_pos_site_id
_symmetry_equiv_pos_as_xyz
1 x,y,z
2 -x,-y,-z
_cell_length_a                   10.881(5)
_cell_length_b                   10.948(4)
_cell_length_c                   12.496(5)
_cell_angle_alpha                103.824(7)
_cell_angle_beta                 109.725(7)
_cell_angle_gamma                93.377(7)
_cell_volume                     1344.7
_exptl_crystal_colour            white
_exptl_crystal_description       block
_cell_formula_units_Z            2
loop_
_atom_site_label
_atom_site_type_symbol
_atom_site_fract_x
_atom_site_fract_y
_atom_site_fract_z
Cl1 Cl 0.58922(10) -0.29645(7) -0.00499(9)
S1 S 0.84719(7) 0.64314(5) 0.33369(6)
N1 N 0.7368(2) 0.41189(16) 0.32750(16)
N2 N 0.71298(19) 0.28629(16) 0.25760(16)
N3 N 0.75420(19) 0.16942(15) 0.08617(15)
N4 N 0.84282(18) 0.30693(15) 0.00045(15)
N5 N 0.8107(2) 0.08909(17) -0.07736(18)
H1 H 0.844(2) 0.108(2) -0.119(2)
N6 N 0.8716(2) 0.31275(17) -0.10020(17)
H2 H 0.944(2) 0.354(2) -0.0795(18)
O1 O 0.89538(16) 0.52346(13) 0.07639(13)
C1 C 0.7947(2) 0.47893(19) 0.27824(19)
C2 C 0.8102(2) 0.40058(18) 0.17656(18)
C3 C 0.7579(2) 0.27820(19) 0.16756(18)
C4 C 0.8006(2) 0.18745(18) 0.00674(18)
C5 C 0.8535(2) 0.42237(19) 0.08658(18)
C6 C 0.8389(3) 0.6721(2) 0.4802(2)
H3 H 0.7510 0.6403 0.4744
H4 H 0.9018 0.6285 0.5272
C7 C 0.8708(2) 0.8136(2) 0.5377(2)
C8 C 0.7750(3) 0.8901(2) 0.5120(2)
H5 H 0.6906 0.8537 0.4584
C9 C 0.8016(3) 1.0192(3) 0.5641(3)
H6 H 0.7353 1.0691 0.5462
C10 C 0.9247(3) 1.0737(3) 0.6416(3)
H7 H 0.9423 1.1608 0.6779
C11 C 1.0216(3) 1.0016(3) 0.6661(3)
H8 H 1.1063 1.0395 0.7181
C12 C 0.9953(3) 0.8704(3) 0.6138(2)
H9 H 1.0626 0.8214 0.6307
C13 C 0.6338(2) 0.1923(2) 0.27856(19)
C14 C 0.5503(3) 0.2301(2) 0.3367(2)
H10 H 0.5454 0.3160 0.3624
C15 C 0.4731(3) 0.1394(3) 0.3569(2)
H11 H 0.4168 0.1650 0.3969
C16 C 0.4787(3) 0.0121(3) 0.3187(2)
H12 H 0.4275 -0.0482 0.3335
C17 C 0.5606(3) -0.0250(2) 0.2585(2)
H13 H 0.5632 -0.1112 0.2306
C18 C 0.6397(3) 0.0644(2) 0.2385(2)
H14 H 0.6962 0.0386 0.1986
C19 C 0.7924(2) -0.04243(19) -0.08586(19)
C20 C 0.7077(3) -0.0968(2) -0.0437(2)
H15 H 0.6589 -0.0476 -0.0069
C21 C 0.6971(3) -0.2271(2) -0.0578(2)
C22 C 0.7651(3) -0.3030(2) -0.1140(2)
H16 H 0.7567 -0.3900 -0.1219
C23 C 0.8462(3) -0.2473(2) -0.1585(2)
H17 H 0.8912 -0.2978 -0.1989
C24 C 0.8620(3) -0.1173(2) -0.1443(2)
H18 H 0.9185 -0.0804 -0.1734
C25 C 0.7690(2) 0.34949(17) -0.18724(18)
C26 C 0.7993(3) 0.3826(2) -0.2774(2)
H19 H 0.8847 0.3840 -0.2777
C27 C 0.7010(3) 0.4132(2) -0.3663(2)
H20 H 0.7206 0.4345 -0.4271
C28 C 0.5748(3) 0.4127(3) -0.3663(2)
H21 H 0.5097 0.4340 -0.4264
C29 C 0.5450(3) 0.3804(2) -0.2768(2)
H22 H 0.4597 0.3804 -0.2763
C30 C 0.6417(2) 0.3480(2) -0.1879(2)
H23 H 0.6210 0.3250 -0.1283
loop_
_geom_bond_atom_site_label_1
_geom_bond_atom_site_label_2
_geom_bond_site_symmetry_1
_geom_bond_site_symmetry_2
Cl1 C21 1_555 1_555
S1 C1 1_555 1_555
N1 N2 1_555 1_555
N2 C3 1_555 1_555
N3 C3 1_555 1_555
N4 N6 1_555 1_555
N5 H1 1_555 1_555
N6 H2 1_555 1_555
O1 C5 1_555 1_555
C1 N1 1_555 1_555
C2 C1 1_555 1_555
C3 C2 1_555 1_555
C4 N3 1_555 1_555
C5 N4 1_555 1_555
C6 S1 1_555 1_555
H3 C6 1_555 1_555
H4 C6 1_555 1_555
C7 C6 1_555 1_555
C8 C7 1_555 1_555
H5 C8 1_555 1_555
C9 C8 1_555 1_555
H6 C9 1_555 1_555
C10 C9 1_555 1_555
H7 C10 1_555 1_555
C11 C10 1_555 1_555
H8 C11 1_555 1_555
C12 C7 1_555 1_555
H9 C12 1_555 1_555
C13 N2 1_555 1_555
C14 C13 1_555 1_555
H10 C14 1_555 1_555
C15 C14 1_555 1_555
H11 C15 1_555 1_555
C16 C15 1_555 1_555
H12 C16 1_555 1_555
C17 C16 1_555 1_555
H13 C17 1_555 1_555
C18 C13 1_555 1_555
H14 C18 1_555 1_555
C19 N5 1_555 1_555
C20 C19 1_555 1_555
H15 C20 1_555 1_555
C21 C20 1_555 1_555
C22 C21 1_555 1_555
H16 C22 1_555 1_555
C23 C22 1_555 1_555
H17 C23 1_555 1_555
C24 C19 1_555 1_555
H18 C24 1_555 1_555
C25 N6 1_555 1_555
C26 C25 1_555 1_555
H19 C26 1_555 1_555
C27 C26 1_555 1_555
H20 C27 1_555 1_555
C28 C27 1_555 1_555
H21 C28 1_555 1_555
C29 C28 1_555 1_555
H22 C29 1_555 1_555
C30 C25 1_555 1_555
H23 C30 1_555 1_555
N4 C4 1_555 1_555
N5 C4 1_555 1_555
C2 C5 1_555 1_555
C11 C12 1_555 1_555
C17 C18 1_555 1_555
C23 C24 1_555 1_555
C29 C30 1_555 1_555

#END
