
#######################################################################
#
#                 Cambridge Crystallographic Data Centre
#                                CCDC 
#
#######################################################################
#
# If this CIF has been generated from an entry in the Cambridge 
# Structural Database, then it will include bibliographic, chemical, 
# crystal, experimental, refinement or atomic coordinate data resulting 
# from the CCDC's data processing and validation procedures.
#
#######################################################################

data_CEGCID
_chemical_formula_moiety         'C20 H17 N1 O3'
_chemical_name_systematic        
(+)-(4S,5S)-4-(furan-2-yl)-5-(2-hydroxyphenyl)-1-phenylpyrrolidin-2-one
_symmetry_cell_setting           orthorhombic
_symmetry_space_group_name_H-M   'P 21 21 21'
_symmetry_Int_Tables_number      19
_space_group_name_Hall           'P 2ac 2ab'
loop_
_symmetry_equiv_pos_site_id
_symmetry_equiv_pos_as_xyz
1 x,y,z
2 1/2-x,-y,1/2+z
3 -x,1/2+y,1/2-z
4 1/2+x,1/2-y,-z
_cell_length_a                   8.9370(15)
_cell_length_b                   11.3664(19)
_cell_length_c                   15.542(3)
_cell_angle_alpha                90
_cell_angle_beta                 90
_cell_angle_gamma                90
_cell_volume                     1578.78
_exptl_crystal_colour            colorless
_exptl_crystal_description       block
_chemical_melting_point          '190-191 deg.C'
_cell_formula_units_Z            4
loop_
_atom_site_label
_atom_site_type_symbol
_atom_site_fract_x
_atom_site_fract_y
_atom_site_fract_z
O1 O 0.9638(2) 0.06044(19) 0.55957(14)
C1 C 0.7427(4) -0.3487(3) 0.4437(2)
H1 H 0.6899 -0.4143 0.4664
C2 C 0.8865(4) -0.3505(3) 0.4193(2)
H2 H 0.9527 -0.4158 0.4215
C3 C 0.9207(4) -0.2348(3) 0.3895(2)
H3 H 1.0144 -0.2081 0.3682
C4 C 0.7949(3) -0.1710(3) 0.3973(2)
C5 C 0.7523(4) -0.0451(3) 0.3849(2)
H4 H 0.6548 -0.0387 0.3536
C6 C 0.7439(4) 0.0162(3) 0.4725(2)
H5 H 0.6794 0.0869 0.4700
H6 H 0.7057 -0.0376 0.5175
C7 C 0.9046(4) 0.0486(3) 0.4885(2)
C8 C 0.8751(3) 0.0255(3) 0.3385(2)
H7 H 0.9313 -0.0275 0.2986
C9 C 0.8110(4) 0.1280(3) 0.2886(2)
C10 C 0.7299(4) 0.1024(3) 0.2136(2)
C11 C 0.6636(4) 0.1924(3) 0.1664(2)
H8 H 0.6098 0.1745 0.1153
C12 C 0.6758(4) 0.3083(3) 0.1939(2)
H9 H 0.6301 0.3696 0.1617
C13 C 0.7548(4) 0.3348(3) 0.2686(2)
H10 H 0.7621 0.4138 0.2881
C14 C 0.8227(4) 0.2449(3) 0.3144(2)
H11 H 0.8786 0.2635 0.3646
C15 C 1.1229(4) 0.1030(3) 0.3960(2)
C16 C 1.1705(4) 0.1181(3) 0.3113(2)
H12 H 1.1039 0.1016 0.2651
C17 C 1.3142(4) 0.1570(3) 0.2940(2)
H13 H 1.3450 0.1677 0.2361
C18 C 1.4129(4) 0.1802(3) 0.3596(2)
H14 H 1.5120 0.2054 0.3474
C19 C 1.3652(4) 0.1661(3) 0.4440(2)
H15 H 1.4329 0.1822 0.4897
C20 C 1.2214(4) 0.1292(3) 0.4632(2)
H16 H 1.1901 0.1217 0.5213
N1 N 0.9739(3) 0.0614(2) 0.41075(17)
O2 O 0.6826(3) -0.2396(2) 0.43117(15)
O3 O 0.7222(3) -0.0133(2) 0.19191(14)
H17 H 0.6634 -0.0284 0.1503
loop_
_geom_bond_atom_site_label_1
_geom_bond_atom_site_label_2
_geom_bond_site_symmetry_1
_geom_bond_site_symmetry_2
O1 C7 1_555 1_555
C1 H1 1_555 1_555
C2 C1 1_555 1_555
H2 C2 1_555 1_555
C3 C2 1_555 1_555
H3 C3 1_555 1_555
C4 C3 1_555 1_555
C5 C4 1_555 1_555
H4 C5 1_555 1_555
C6 C5 1_555 1_555
H5 C6 1_555 1_555
H6 C6 1_555 1_555
C7 C6 1_555 1_555
C8 C5 1_555 1_555
H7 C8 1_555 1_555
C9 C8 1_555 1_555
C10 C9 1_555 1_555
C11 C10 1_555 1_555
H8 C11 1_555 1_555
C12 C11 1_555 1_555
H9 C12 1_555 1_555
C13 C12 1_555 1_555
H10 C13 1_555 1_555
C14 C9 1_555 1_555
H11 C14 1_555 1_555
C15 C16 1_555 1_555
C16 H12 1_555 1_555
C17 C16 1_555 1_555
H13 C17 1_555 1_555
C18 C17 1_555 1_555
H14 C18 1_555 1_555
C19 C18 1_555 1_555
H15 C19 1_555 1_555
C20 C15 1_555 1_555
H16 C20 1_555 1_555
N1 C7 1_555 1_555
O2 C1 1_555 1_555
O3 C10 1_555 1_555
H17 O3 1_555 1_555
C4 O2 1_555 1_555
C8 N1 1_555 1_555
C13 C14 1_555 1_555
C15 N1 1_555 1_555
C19 C20 1_555 1_555

#END
