
#######################################################################
#
#                 Cambridge Crystallographic Data Centre
#                                CCDC 
#
#######################################################################
#
# If this CIF has been generated from an entry in the Cambridge 
# Structural Database, then it will include bibliographic, chemical, 
# crystal, experimental, refinement or atomic coordinate data resulting 
# from the CCDC's data processing and validation procedures.
#
#######################################################################

data_CEGFUP
_chemical_formula_moiety         'C29 H31 N4 O4,C2 H6 O1,C2 H1 F3 O2'
_chemical_name_systematic        
'(R,S)-8-(N-Benzamidine-4-yl-N-methylaminocarbonyl)-3-oxo-4-phenylethyl-2,3,4,5-tetrahydro-1H-benzo(c)azepine-2-acetic acid ethanol trifluoroethanol solvate'
_symmetry_cell_setting           triclinic
_symmetry_space_group_name_H-M   'P -1'
_symmetry_Int_Tables_number      2
_space_group_name_Hall           '-P 1'
loop_
_symmetry_equiv_pos_site_id
_symmetry_equiv_pos_as_xyz
1 x,y,z
2 -x,-y,-z
_cell_length_a                   11.160(2)
_cell_length_b                   11.552(1)
_cell_length_c                   13.751(1)
_cell_angle_alpha                87.99(2)
_cell_angle_beta                 69.33(1)
_cell_angle_gamma                74.07(1)
_cell_volume                     1591.2
_cell_formula_units_Z            2
loop_
_atom_site_label
_atom_site_type_symbol
_atom_site_fract_x
_atom_site_fract_y
_atom_site_fract_z
O1 O 0.9180(2) 0.0936(2) 0.4256(1)
O2 O 0.6650(2) 0.0578(2) 0.6405(1)
O3 O 0.6302(2) -0.0795(2) 0.5522(1)
O4 O 0.4881(1) 0.6871(2) 0.2343(1)
N1 N 0.8719(2) 0.2831(2) 0.4944(2)
N2 N 0.6500(2) 0.7802(2) 0.2036(2)
N3 N 1.1240(2) 0.9007(2) 0.3051(2)
N4 N 1.2433(2) 0.7256(2) 0.2048(2)
C1 C 0.8364(2) 0.1911(2) 0.4652(2)
C2 C 0.6907(2) 0.2160(2) 0.4785(2)
C3 C 0.6643(2) 0.2979(2) 0.3932(2)
C4 C 0.6690(2) 0.4276(2) 0.4021(2)
C5 C 0.6252(2) 0.5059(2) 0.3338(2)
C6 C 0.6277(2) 0.6248(2) 0.3320(2)
C7 C 0.6649(2) 0.6720(2) 0.4059(2)
C8 C 0.7063(2) 0.5967(2) 0.4743(2)
C9 C 0.7137(2) 0.4733(2) 0.4716(2)
C10 C 0.7706(2) 0.3966(2) 0.5448(2)
C11 C 1.0130(2) 0.2744(3) 0.4701(2)
C12 C 1.0719(3) 0.3370(3) 0.3715(2)
C13 C 1.0791(2) 0.2766(2) 0.2733(2)
C14 C 0.9877(3) 0.3242(3) 0.2263(2)
C15 C 0.9920(3) 0.2651(4) 0.1378(3)
C16 C 1.0899(3) 0.1596(4) 0.0955(3)
C17 C 1.1835(3) 0.1136(3) 0.1404(3)
C18 C 1.1783(3) 0.1708(3) 0.2283(2)
C19 C 0.6571(2) 0.0984(2) 0.4702(2)
C20 C 0.6529(2) 0.0246(2) 0.5621(2)
C21 C 0.5839(2) 0.6992(2) 0.2528(2)
C22 C 0.5920(2) 0.8633(2) 0.1372(2)
C23 C 0.7732(2) 0.7879(2) 0.2088(2)
C24 C 0.7899(2) 0.8995(2) 0.2242(2)
C25 C 0.9075(2) 0.9074(2) 0.2334(2)
C26 C 1.0088(2) 0.8030(2) 0.2300(2)
C27 C 0.9932(2) 0.6910(2) 0.2105(2)
C28 C 0.8777(2) 0.6842(2) 0.1982(2)
C29 C 1.1297(2) 0.8102(2) 0.2470(2)
H1 H 0.6329 0.2568 0.5505
H2 H 0.7490(3) 0.2450(3) 0.3030(3)
H3 H 0.5550(3) 0.2940(3) 0.3930(3)
H4 H 0.5902 0.4751 0.2849
H5 H 0.6615 0.7608 0.4081
H6 H 0.7303 0.6312 0.5290
H7 H 0.8125 0.4447 0.5759
H8 H 0.6960 0.3759 0.6025
H9 H 1.0645 0.1873 0.4599
H10 H 1.0219 0.3123 0.5313
H11 H 1.1637 0.3399 0.3649
H12 H 1.0138 0.4237 0.3791
H13 H 0.9171 0.4045 0.2558
H14 H 1.1970(2) 0.9110(2) 0.3160(2)
H15 H 0.9239 0.3042 0.1040
H16 H 1.3240(2) 0.7280(2) 0.2160(2)
H17 H 1.0908 0.1159 0.0315
H18 H 1.2564 0.0357 0.1086
H19 H 1.2476 0.1371 0.2605
H20 H 0.7268 0.0488 0.4061
H21 H 0.5679 0.1167 0.4620
H22 H 0.6489 0.9183 0.1057
H23 H 0.5870 0.8157 0.0796
H24 H 0.4997 0.9130 0.1796
H25 H 0.7168 0.9752 0.2275
H26 H 1.0440(2) 0.9610(2) 0.3380(2)
H27 H 0.9196 0.9886 0.2435
H28 H 1.2500(3) 0.6550(3) 0.1640(2)
H29 H 1.0658 0.6153 0.2073
H30 H 0.8684 0.6033 0.1815
H31 H 0.5990(3) -0.1150(3) 0.6210(2)
F1 F 0.4356(4) 0.8374(5) 0.9463(3)
F2 F 0.3926(6) 0.6848(4) 0.9237(4)
F3 F 0.2888(3) 0.8406(4) 0.8898(3)
O5 O 0.5920(2) 0.6630(2) 0.7465(2)
O6 O 0.4997(2) 0.8565(2) 0.7292(2)
C30 C 0.5101(2) 0.7622(2) 0.7753(2)
C31 C 0.4024(3) 0.7760(3) 0.8828(3)
O7 O 1.2875(2) 0.4883(2) 0.1338(2)
C32 C 1.3125(3) 0.4224(3) 0.0402(3)
C33 C 1.2108(3) 0.4818(3) -0.0057(3)
H32 H 1.3350(3) 0.4420(3) 0.1710(2)
H33 H 1.3059 0.3378 0.0554
H34 H 1.4041 0.4175 -0.0108
H35 H 1.2271 0.4378 -0.0724
H36 H 1.1195 0.4878 0.0441
H37 H 1.2177 0.5674 -0.0221
F4? F 0.2767(4) 0.8104(5) 0.8757(4)
F5? F 0.4037(6) 0.6676(4) 0.9322(4)
F6? F 0.4038(5) 0.8538(4) 0.9491(4)
loop_
_geom_bond_atom_site_label_1
_geom_bond_atom_site_label_2
_geom_bond_site_symmetry_1
_geom_bond_site_symmetry_2
O1 C1 1_555 1_555
O2 C20 1_555 1_555
O3 C20 1_555 1_555
O4 C21 1_555 1_555
N1 C1 1_555 1_555
N2 C21 1_555 1_555
N3 C29 1_555 1_555
N4 C29 1_555 1_555
C1 C2 1_555 1_555
C2 C3 1_555 1_555
C3 C4 1_555 1_555
C4 C5 1_555 1_555
C5 C6 1_555 1_555
C6 C7 1_555 1_555
C7 C8 1_555 1_555
C8 C9 1_555 1_555
C9 C4 1_555 1_555
C10 N1 1_555 1_555
C11 N1 1_555 1_555
C12 C11 1_555 1_555
C13 C12 1_555 1_555
C14 C13 1_555 1_555
C15 C14 1_555 1_555
C16 C15 1_555 1_555
C17 C16 1_555 1_555
C18 C13 1_555 1_555
C19 C2 1_555 1_555
C20 C19 1_555 1_555
C21 C6 1_555 1_555
C22 N2 1_555 1_555
C23 N2 1_555 1_555
C24 C23 1_555 1_555
C25 C24 1_555 1_555
C26 C25 1_555 1_555
C27 C26 1_555 1_555
C28 C23 1_555 1_555
C29 C26 1_555 1_555
H1 C2 1_555 1_555
H2 C3 1_555 1_555
H3 C3 1_555 1_555
H4 C5 1_555 1_555
H5 C7 1_555 1_555
H6 C8 1_555 1_555
H7 C10 1_555 1_555
H8 C10 1_555 1_555
H9 C11 1_555 1_555
H10 C11 1_555 1_555
H11 C12 1_555 1_555
H12 C12 1_555 1_555
H13 C14 1_555 1_555
H14 N3 1_555 1_555
H15 C15 1_555 1_555
H16 N4 1_555 1_555
H17 C16 1_555 1_555
H18 C17 1_555 1_555
H19 C18 1_555 1_555
H20 C19 1_555 1_555
H21 C19 1_555 1_555
H22 C22 1_555 1_555
H23 C22 1_555 1_555
H24 C22 1_555 1_555
H25 C24 1_555 1_555
H26 N3 1_555 1_555
H27 C25 1_555 1_555
H28 N4 1_555 1_555
H29 C27 1_555 1_555
H30 C28 1_555 1_555
H31 O3 1_555 1_555
F1 C31 1_555 1_555
F2 C31 1_555 1_555
F3 C31 1_555 1_555
O5 C30 1_555 1_555
O6 C30 1_555 1_555
C30 C31 1_555 1_555
O7 C32 1_555 1_555
C32 C33 1_555 1_555
C33 H35 1_555 1_555
H32 O7 1_555 1_555
H33 C32 1_555 1_555
H34 C32 1_555 1_555
H36 C33 1_555 1_555
H37 C33 1_555 1_555
C9 C10 1_555 1_555
C17 C18 1_555 1_555
C27 C28 1_555 1_555

#END
