
#######################################################################
#
#                 Cambridge Crystallographic Data Centre
#                                CCDC 
#
#######################################################################
#
# If this CIF has been generated from an entry in the Cambridge 
# Structural Database, then it will include bibliographic, chemical, 
# crystal, experimental, refinement or atomic coordinate data resulting 
# from the CCDC's data processing and validation procedures.
#
#######################################################################

data_CEGFOJ
_chemical_formula_moiety         'C17 H21 N1 O5'
_chemical_name_systematic        
'Methyl (R,S)-2,34,5-tetrahydro-4-(2-isopropyl)-3-oxo-1H-4-benzo(c)azepine-8-carboxylic acid-2-acetate'
_symmetry_cell_setting           monoclinic
_symmetry_space_group_name_H-M   'P 21/c'
_symmetry_Int_Tables_number      14
_space_group_name_Hall           '-P 2ybc'
loop_
_symmetry_equiv_pos_site_id
_symmetry_equiv_pos_as_xyz
1 x,y,z
2 -x,1/2+y,1/2-z
3 -x,-y,-z
4 x,1/2-y,1/2+z
_cell_length_a                   6.916(2)
_cell_length_b                   12.6120(10)
_cell_length_c                   18.920(7)
_cell_angle_alpha                90
_cell_angle_beta                 95.08(2)
_cell_angle_gamma                90
_cell_volume                     1643.81
_cell_formula_units_Z            4
loop_
_atom_site_label
_atom_site_type_symbol
_atom_site_fract_x
_atom_site_fract_y
_atom_site_fract_z
O1 O 0.9943(3) 0.0733(1) 0.1906(1)
O2 O 1.4079(3) 0.1265(2) 0.1329(1)
O3 O 1.3466(3) -0.0199(2) 0.0686(1)
O4 O 0.1880(2) 0.4111(1) -0.0057(1)
O5 O 0.1515(2) 0.5443(1) 0.0697(1)
N1 N 0.9824(3) 0.2463(2) 0.2233(1)
C1 C 1.0013(3) 0.1677(2) 0.1759(1)
C2 C 1.0276(3) 0.2030(2) 0.1001(1)
C3 C 0.8334(4) 0.2402(2) 0.0635(1)
C4 C 0.7287(3) 0.3318(2) 0.0948(1)
C5 C 0.5502(3) 0.3603(2) 0.0602(1)
C6 C 0.4397(3) 0.4422(2) 0.0842(1)
C7 C 0.5082(4) 0.4983(2) 0.1449(1)
C8 C 0.6833(4) 0.4709(2) 0.1795(1)
C9 C 0.7944(3) 0.3874(2) 0.1566(1)
C10 C 0.9794(3) 0.3578(2) 0.2013(1)
C11 C 0.9434(4) 0.2203(2) 0.2963(1)
C12 C 0.7479(5) 0.2619(3) 0.3131(2)
C13 C 1.1054(5) 0.2615(3) 0.3483(2)
C14 C 1.1068(4) 0.1111(2) 0.0596(1)
C15 C 1.3040(4) 0.0764(3) 0.0923(2)
C16 C 1.5397(5) -0.0570(3) 0.0969(2)
C17 C 0.2482(3) 0.4676(2) 0.0473(1)
H1 H 0.5001 0.3205 0.0166
H2 H 0.7330 0.5121 0.2226
H3 H 0.4303 0.5576 0.1629
H4 H 0.8574 0.2609 0.0140
H5 H 0.7433 0.1780 0.0620
H6 H 1.1213 0.2635 0.1011
H7 H 1.0923 0.3711 0.1729
H8 H 0.9913 0.4034 0.2447
H9 H 1.1184 0.1336 0.0095
H10 H 1.0148 0.0500 0.0601
H11 H 1.5642 -0.1291 0.0777
H12 H 1.6408 -0.0066 0.0826
H13 H 1.5453 -0.0604 0.1499
H14 H 0.9389 0.1414 0.3009
H15 H 0.7255 0.2430 0.3631
H16 H 0.7449 0.3407 0.3075
H17 H 0.6439 0.2294 0.2799
H18 H 1.0770 0.2432 0.3978
H19 H 1.2310 0.2280 0.3379
H20 H 1.1153 0.3402 0.3435
H21 H 0.0638 0.4311 -0.0292
loop_
_geom_bond_atom_site_label_1
_geom_bond_atom_site_label_2
_geom_bond_site_symmetry_1
_geom_bond_site_symmetry_2
O1 C1 1_555 1_555
O2 C15 1_555 1_555
O3 C15 1_555 1_555
O4 C17 1_555 1_555
O5 C17 1_555 1_555
N1 C1 1_555 1_555
C1 C2 1_555 1_555
C2 C3 1_555 1_555
C3 C4 1_555 1_555
C4 C5 1_555 1_555
C5 C6 1_555 1_555
C6 C7 1_555 1_555
C7 C8 1_555 1_555
C8 C9 1_555 1_555
C9 C4 1_555 1_555
C10 N1 1_555 1_555
C11 N1 1_555 1_555
C12 C11 1_555 1_555
C13 C11 1_555 1_555
C14 C2 1_555 1_555
C15 C14 1_555 1_555
C16 O3 1_555 1_555
C17 C6 1_555 1_555
H1 C5 1_555 1_555
H2 C8 1_555 1_555
H3 C7 1_555 1_555
H4 C3 1_555 1_555
H5 C3 1_555 1_555
H6 C2 1_555 1_555
H7 C10 1_555 1_555
H8 C10 1_555 1_555
H9 C14 1_555 1_555
H10 C14 1_555 1_555
H11 C16 1_555 1_555
H12 C16 1_555 1_555
H13 C16 1_555 1_555
H14 C11 1_555 1_555
H15 C12 1_555 1_555
H16 C12 1_555 1_555
H17 C12 1_555 1_555
H18 C13 1_555 1_555
H19 C13 1_555 1_555
H20 C13 1_555 1_555
H21 O4 1_555 1_555
C9 C10 1_555 1_555

#END
