
#######################################################################
#
#                 Cambridge Crystallographic Data Centre
#                                CCDC 
#
#######################################################################
#
# If this CIF has been generated from an entry in the Cambridge 
# Structural Database, then it will include bibliographic, chemical, 
# crystal, experimental, refinement or atomic coordinate data resulting 
# from the CCDC's data processing and validation procedures.
#
#######################################################################

data_CEGFOL01
_chemical_formula_moiety         'C18 H18 F2 N2 O3 S1'
_chemical_name_systematic        
N-(4-(Azetidin-1-ylsulfonyl)phenyl)-N-(2,4-difluorobenzyl)acetamide
_symmetry_cell_setting           monoclinic
_symmetry_space_group_name_H-M   'P 21/c'
_symmetry_Int_Tables_number      14
_space_group_name_Hall           '-P 2ybc'
loop_
_symmetry_equiv_pos_site_id
_symmetry_equiv_pos_as_xyz
1 x,y,z
2 -x,1/2+y,1/2-z
3 -x,-y,-z
4 x,1/2-y,1/2+z
_cell_length_a                   8.7793(15)
_cell_length_b                   8.4442(15)
_cell_length_c                   23.810(4)
_cell_angle_alpha                90
_cell_angle_beta                 97.312(6)
_cell_angle_gamma                90
_cell_volume                     1750.78
_exptl_crystal_colour            colorless
_exptl_crystal_description       sheet
_cell_formula_units_Z            4
loop_
_atom_site_label
_atom_site_type_symbol
_atom_site_fract_x
_atom_site_fract_y
_atom_site_fract_z
C1 C 0.6694(2) 0.5645(3) 0.33594(10)
C2 C 0.5341(2) 0.5834(2) 0.35904(9)
C3 C 0.4212(3) 0.6715(3) 0.32755(10)
H1 H 0.3291 0.6899 0.3419
C4 C 0.4418(3) 0.7332(3) 0.27524(11)
H2 H 0.3647 0.7921 0.2544
C5 C 0.5781(3) 0.7056(3) 0.25474(11)
C6 C 0.6955(3) 0.6231(3) 0.28413(12)
H3 H 0.7883 0.6073 0.2700
C7 C 0.1006(2) 0.1070(3) 0.36580(9)
C8 C 0.2177(3) 0.0895(3) 0.41033(10)
H4 H 0.2401 -0.0099 0.4261
C9 C 0.3003(2) 0.2199(3) 0.43111(9)
H5 H 0.3793 0.2088 0.4608
C10 C 0.2657(2) 0.3687(2) 0.40761(8)
C11 C 0.0659(2) 0.2550(3) 0.34245(9)
H6 H -0.0129 0.2661 0.3127
C12 C 0.1482(2) 0.3860(3) 0.36341(10)
H7 H 0.1249 0.4855 0.3479
C13 C -0.2870(3) 0.0478(3) 0.36281(14)
H8 H -0.3687 0.0261 0.3324
H9 H -0.2526 0.1567 0.3616
C14 C 0.3049(2) 0.6238(2) 0.45767(9)
C15 C 0.1495(3) 0.6048(3) 0.47658(11)
H10 H 0.1050 0.5065 0.4625
H11 H 0.0846 0.6909 0.4621
H12 H 0.1594 0.6050 0.5172
C16 C 0.5160(2) 0.5089(3) 0.41508(9)
H13 H 0.5562 0.4019 0.4155
H14 H 0.5774 0.5679 0.4448
C17 C -0.1690(3) -0.0912(4) 0.42815(12)
H15 H -0.0888 -0.0364 0.4524
H16 H -0.1762 -0.2011 0.4394
C18 C -0.3228(3) -0.0043(4) 0.42063(14)
H17 H -0.4113 -0.0735 0.4195
H18 H -0.3289 0.0821 0.4471
N1 N -0.1609(2) -0.0694(2) 0.36736(9)
N2 N 0.35756(18) 0.5030(2) 0.42793(7)
O1 O 0.38424(18) 0.74030(19) 0.47069(7)
O2 O -0.0512(3) -0.0306(2) 0.27960(8)
O3 O 0.08117(19) -0.19746(19) 0.35635(9)
F1 F 0.5958(3) 0.7614(3) 0.20283(8)
F2 F 0.78369(17) 0.4820(2) 0.36687(8)
S1 S -0.00544(6) -0.05936(7) 0.33804(2)
loop_
_geom_bond_atom_site_label_1
_geom_bond_atom_site_label_2
_geom_bond_site_symmetry_1
_geom_bond_site_symmetry_2
C1 C2 1_555 1_555
C2 C3 1_555 1_555
C3 H1 1_555 1_555
C4 C3 1_555 1_555
H2 C4 1_555 1_555
C5 C4 1_555 1_555
C6 C1 1_555 1_555
H3 C6 1_555 1_555
C7 C8 1_555 1_555
C8 H4 1_555 1_555
C9 C8 1_555 1_555
H5 C9 1_555 1_555
C10 C9 1_555 1_555
C11 C7 1_555 1_555
H6 C11 1_555 1_555
C12 C10 1_555 1_555
H7 C12 1_555 1_555
C13 H8 1_555 1_555
H9 C13 1_555 1_555
C14 C15 1_555 1_555
C15 H10 1_555 1_555
H11 C15 1_555 1_555
H12 C15 1_555 1_555
C16 C2 1_555 1_555
H13 C16 1_555 1_555
H14 C16 1_555 1_555
C17 H15 1_555 1_555
H16 C17 1_555 1_555
C18 C13 1_555 1_555
H17 C18 1_555 1_555
H18 C18 1_555 1_555
N1 C13 1_555 1_555
N2 C10 1_555 1_555
O1 C14 1_555 1_555
O2 S1 1_555 1_555
O3 S1 1_555 1_555
F1 C5 1_555 1_555
F2 C1 1_555 1_555
S1 C7 1_555 1_555
C5 C6 1_555 1_555
C11 C12 1_555 1_555
C14 N2 1_555 1_555
C16 N2 1_555 1_555
C17 C18 1_555 1_555
C17 N1 1_555 1_555
N1 S1 1_555 1_555

#END
