
#######################################################################
#
#                 Cambridge Crystallographic Data Centre
#                                CCDC 
#
#######################################################################
#
# If this CIF has been generated from an entry in the Cambridge 
# Structural Database, then it will include bibliographic, chemical, 
# crystal, experimental, refinement or atomic coordinate data resulting 
# from the CCDC's data processing and validation procedures.
#
#######################################################################

data_CEGHIF
_chemical_formula_moiety         'C28 H42 N4 O4,4(H2 O1)'
_chemical_name_systematic        
'(R,S)-8-(N-(Azacycylohex-4-yl)ethyl-N-methylaminocarbonyl)-4-(2-cyclohexyl)ethyl-3-oxo-2,3,4,5-tetrahydro-1H-1,4-benzodiazepine-2-acetic acid tetrahydrate'
_symmetry_cell_setting           triclinic
_symmetry_space_group_name_H-M   'P -1'
_symmetry_Int_Tables_number      2
_space_group_name_Hall           '-P 1'
loop_
_symmetry_equiv_pos_site_id
_symmetry_equiv_pos_as_xyz
1 x,y,z
2 -x,-y,-z
_cell_length_a                   6.5318(5)
_cell_length_b                   12.828(1)
_cell_length_c                   19.330(2)
_cell_angle_alpha                93.834(7)
_cell_angle_beta                 97.372(7)
_cell_angle_gamma                104.453(7)
_cell_volume                     1547.17
_cell_formula_units_Z            2
loop_
_atom_site_label
_atom_site_type_symbol
_atom_site_fract_x
_atom_site_fract_y
_atom_site_fract_z
O1 O 0.6592(2) 0.8730(1) 0.7489(1)
O2 O 0.3723(2) 0.8620(1) 0.5830(1)
O3 O 0.7097(2) 0.8759(1) 0.5670(1)
O4 O 1.1686(2) 0.3060(1) 0.7702(1)
N1 N 0.9969(3) 0.8545(1) 0.7697(1)
N2 N 0.8785(3) 0.2987(1) 0.8243(1)
N3 N 0.7420(3) 0.6380(1) 0.7055(1)
N4 N 0.3934(3) 0.0744(1) 0.5683(1)
C1 C 0.7981(3) 0.8299(1) 0.7335(1)
C2 C 0.7501(3) 0.7387(2) 0.6736(1)
C3 C 0.9179(3) 0.6102(2) 0.7376(1)
C4 C 0.8961(3) 0.5026(2) 0.7516(1)
C5 C 1.0645(3) 0.4690(2) 0.7851(1)
C6 C 1.2631(3) 0.5423(2) 0.8055(1)
C7 C 1.2848(3) 0.6490(2) 0.7929(1)
C8 C 1.1193(3) 0.6854(2) 0.7595(1)
C9 C 1.1594(3) 0.8036(2) 0.7478(1)
C10 C 1.0542(3) 0.9264(2) 0.8351(1)
C11 C 1.1042(3) 0.8677(2) 0.8983(1)
C12 C 0.9116(3) 0.7855(2) 0.9175(1)
C13 C 0.9797(4) 0.6978(2) 0.9562(1)
C14 C 0.7923(4) 0.6174(2) 0.9789(1)
C15 C 0.6670(4) 0.6734(2) 1.0224(1)
C16 C 0.5940(4) 0.7596(2) 0.9837(1)
C17 C 0.7795(4) 0.8395(2) 0.9605(1)
C18 C 0.5411(3) 0.7307(2) 0.6278(1)
C19 C 0.5405(3) 0.8305(2) 0.5904(1)
C20 C 1.0419(3) 0.3517(2) 0.7934(1)
C21 C 0.7471(4) 0.3525(2) 0.8623(1)
C22 C 0.8283(4) 0.1812(2) 0.8246(1)
C23 C 0.5997(4) 0.1250(2) 0.7919(1)
C24 C 0.5365(3) 0.1497(2) 0.7170(1)
C25 C 0.6883(4) 0.1258(2) 0.6678(1)
C26 C 0.6153(4) 0.1420(2) 0.5926(1)
C27 C 0.2386(4) 0.1004(2) 0.6132(1)
C28 C 0.3086(3) 0.0849(2) 0.6887(1)
H1 H 0.6150(4) 0.5840(2) 0.6930(10)
H2 H 0.3490(4) 0.0890(2) 0.5190(10)
H3 H 0.3970(3) -0.0010(2) 0.5690(10)
H4 H 0.8582 0.7524 0.6445
H5 H 0.7599 0.4509 0.7377
H6 H 1.3788 0.5190 0.8279
H7 H 1.4208 0.7002 0.8076
H8 H 1.1644 0.8105 0.6994
H9 H 1.2947 0.8411 0.7742
H10 H 1.1774 0.9823 0.8315
H11 H 0.9387 0.9571 0.8415
H12 H 1.2054 0.8297 0.8889
H13 H 1.1590 0.9194 0.9376
H14 H 0.8252 0.7530 0.8741
H15 H 1.0479 0.6598 0.9269
H16 H 1.0781 0.7315 0.9972
H17 H 0.7007 0.5792 0.9382
H18 H 0.8457 0.5684 1.0060
H19 H 0.5449 0.6216 1.0317
H20 H 0.7544 0.7064 1.0650
H21 H 0.4949 0.7258 0.9430
H22 H 0.5269 0.7977 1.0134
H23 H 0.8694 0.8787 1.0013
H24 H 0.7237 0.8876 0.9332
H25 H 0.5110 0.6698 0.5942
H26 H 0.4306 0.7210 0.6569
H27 H 0.8251 0.4335 0.8753
H28 H 0.7119 0.3158 0.9041
H29 H 0.5861 0.3361 0.8350
H30 H 0.9213 0.1537 0.7988
H31 H 0.8473 0.1635 0.8715
H32 H 0.5816 0.0492 0.7911
H33 H 0.5073 0.1469 0.8203
H34 H 0.5460 0.2252 0.7188
H35 H 0.8280 0.1740 0.6829
H36 H 0.6975 0.0537 0.6698
H37 H 0.7096 0.1223 0.5636
H38 H 0.6200 0.2165 0.5898
H39 H 0.2361 0.1743 0.6099
H40 H 0.1021 0.0546 0.5971
H41 H 0.2999 0.0112 0.6919
H42 H 0.2160 0.1081 0.7168
O5 O 0.3531(3) 0.4292(2) 0.6585(1)
H43 H 0.3136 0.3905 0.6921
H44 H 0.2274 0.4270 0.6292
O6 O -0.0186(3) 0.7648(2) 0.5107(1)
H45 H 0.0983 0.7715 0.5445
H46 H -0.1432 0.7923 0.5298
O7 O 0.4356(4) 0.5763(2) 0.4581(1)
H47 H 0.4665 0.5575 0.4250
H48 H 0.2921 0.5737 0.4506
O8 O -0.0028(4) 0.5710(2) 0.4454(1)
H49 H 0.0043 0.6454 0.4777
H50 H -0.0325 0.5082 0.4592
loop_
_geom_bond_atom_site_label_1
_geom_bond_atom_site_label_2
_geom_bond_site_symmetry_1
_geom_bond_site_symmetry_2
O1 C1 1_555 1_555
O2 C19 1_555 1_555
O3 C19 1_555 1_555
O4 C20 1_555 1_555
N1 C1 1_555 1_555
N2 C20 1_555 1_555
N3 C2 1_555 1_555
N4 C26 1_555 1_555
C1 C2 1_555 1_555
C2 C18 1_555 1_555
C3 N3 1_555 1_555
C4 C3 1_555 1_555
C5 C4 1_555 1_555
C6 C5 1_555 1_555
C7 C6 1_555 1_555
C8 C3 1_555 1_555
C9 N1 1_555 1_555
C10 N1 1_555 1_555
C11 C10 1_555 1_555
C12 C11 1_555 1_555
C13 C12 1_555 1_555
C14 C13 1_555 1_555
C15 C14 1_555 1_555
C16 C15 1_555 1_555
C17 C12 1_555 1_555
C18 C19 1_555 1_555
C20 C5 1_555 1_555
C21 N2 1_555 1_555
C22 N2 1_555 1_555
C23 C22 1_555 1_555
C24 C23 1_555 1_555
C25 C24 1_555 1_555
C26 C25 1_555 1_555
C27 N4 1_555 1_555
C28 C24 1_555 1_555
H1 N3 1_555 1_555
H2 N4 1_555 1_555
H3 N4 1_555 1_555
H4 C2 1_555 1_555
H5 C4 1_555 1_555
H6 C6 1_555 1_555
H7 C7 1_555 1_555
H8 C9 1_555 1_555
H9 C9 1_555 1_555
H10 C10 1_555 1_555
H11 C10 1_555 1_555
H12 C11 1_555 1_555
H13 C11 1_555 1_555
H14 C12 1_555 1_555
H15 C13 1_555 1_555
H16 C13 1_555 1_555
H17 C14 1_555 1_555
H18 C14 1_555 1_555
H19 C15 1_555 1_555
H20 C15 1_555 1_555
H21 C16 1_555 1_555
H22 C16 1_555 1_555
H23 C17 1_555 1_555
H24 C17 1_555 1_555
H25 C18 1_555 1_555
H26 C18 1_555 1_555
H27 C21 1_555 1_555
H28 C21 1_555 1_555
H29 C21 1_555 1_555
H30 C22 1_555 1_555
H31 C22 1_555 1_555
H32 C23 1_555 1_555
H33 C23 1_555 1_555
H34 C24 1_555 1_555
H35 C25 1_555 1_555
H36 C25 1_555 1_555
H37 C26 1_555 1_555
H38 C26 1_555 1_555
H39 C27 1_555 1_555
H40 C27 1_555 1_555
H41 C28 1_555 1_555
H42 C28 1_555 1_555
O5 H43 1_555 1_555
H44 O5 1_555 1_555
O6 H45 1_555 1_555
H46 O6 1_555 1_555
O7 H47 1_555 1_555
H48 O7 1_555 1_555
O8 H49 1_555 1_555
H50 O8 1_555 1_555
C7 C8 1_555 1_555
C8 C9 1_555 1_555
C16 C17 1_555 1_555
C27 C28 1_555 1_555

#END
