
#######################################################################
#
#                 Cambridge Crystallographic Data Centre
#                                CCDC 
#
#######################################################################
#
# If this CIF has been generated from an entry in the Cambridge 
# Structural Database, then it will include bibliographic, chemical, 
# crystal, experimental, refinement or atomic coordinate data resulting 
# from the CCDC's data processing and validation procedures.
#
#######################################################################

data_CEGHON
_chemical_formula_moiety         'C14 H16'
_chemical_name_systematic        
Pentacyclo[8.2.1.1^4,7^.0^2,9^.0^3,8^]tetradeca-5,11-diene
_symmetry_cell_setting           monoclinic
_symmetry_space_group_name_H-M   'P 21/c'
_symmetry_Int_Tables_number      14
_space_group_name_Hall           '-P 2ybc'
loop_
_symmetry_equiv_pos_site_id
_symmetry_equiv_pos_as_xyz
1 x,y,z
2 -x,1/2+y,1/2-z
3 -x,-y,-z
4 x,1/2-y,1/2+z
_cell_length_a                   10.7893(7)
_cell_length_b                   10.8730(6)
_cell_length_c                   9.2407(6)
_cell_angle_alpha                90
_cell_angle_beta                 109.022(7)
_cell_angle_gamma                90
_cell_volume                     1024.85
_exptl_crystal_colour            colorless
_exptl_crystal_description       parallelepiped
_cell_formula_units_Z            4
loop_
_atom_site_label
_atom_site_type_symbol
_atom_site_fract_x
_atom_site_fract_y
_atom_site_fract_z
C1 C 0.48726(13) 0.60019(11) -0.00625(14)
H1 H 0.4862 0.6542 0.0783
C2 C 0.60674(12) 0.51050(12) 0.03238(15)
H2 H 0.6678 0.5178 0.1370
C3 C 0.66729(14) 0.54040(14) -0.09413(18)
H3 H 0.7283 0.4794 -0.1102
C4 C 0.71928(16) 0.66991(16) -0.05935(19)
H4 H 0.8071 0.6926 -0.0217
C5 C 0.61875(17) 0.74451(15) -0.09167(18)
H5 H 0.6226 0.8296 -0.0805
C6 C 0.49605(14) 0.66859(12) -0.15005(16)
H6 H 0.4169 0.7122 -0.2113
C7 C 0.54463(14) 0.56681(14) -0.23163(15)
H7 H 0.4851 0.4973 -0.2591
H8 H 0.5651 0.5961 -0.3204
C1B C 0.51274(13) 0.39981(11) 0.00625(14)
H1B H 0.5138 0.3458 -0.0783
C2B C 0.39326(12) 0.48950(12) -0.03238(15)
H2B H 0.3322 0.4822 -0.1370
C3B C 0.33271(14) 0.45960(14) 0.09413(18)
H3B H 0.2717 0.5206 0.1102
C4B C 0.28072(16) 0.33009(16) 0.05935(19)
H4B H 0.1929 0.3074 0.0217
C5B C 0.38125(17) 0.25549(15) 0.09167(18)
H5B H 0.3774 0.1704 0.0805
C6B C 0.50395(14) 0.33141(12) 0.15005(16)
H6B H 0.5831 0.2878 0.2113
C7B C 0.45537(14) 0.43319(14) 0.23163(15)
H7B H 0.5149 0.5027 0.2591
H8B H 0.4349 0.4039 0.3204
C8 C 0.89681(12) 0.98409(12) -0.01155(15)
H9 H 0.8246 0.9749 -0.1082
C9 C 0.98405(13) 1.09971(11) -0.00363(15)
H10 H 0.9572 1.1510 -0.0959
C10 C 0.97907(14) 1.16558(13) 0.14375(18)
H11 H 1.0466 1.2278 0.1875
C11 C 0.83794(17) 1.20757(15) 0.1034(2)
H12 H 0.8086 1.2884 0.0865
C12 C 0.76413(15) 1.11028(15) 0.09629(19)
H13 H 0.6736 1.1098 0.0736
C13 C 0.85276(13) 0.99966(13) 0.13162(17)
H14 H 0.8180 0.9259 0.1658
C14 C 0.97517(14) 1.05643(14) 0.24666(16)
H15 H 1.0517 1.0039 0.2680
H16 H 0.9617 1.0811 0.3413
C8B C 1.10319(12) 1.01591(12) 0.01155(15)
H9B H 1.1754 1.0251 0.1082
C9B C 1.01595(13) 0.90029(11) 0.00363(15)
H10B H 1.0428 0.8490 0.0959
C10B C 1.02093(14) 0.83442(13) -0.14375(18)
H11B H 0.9534 0.7722 -0.1875
C11B C 1.16206(17) 0.79243(15) -0.1034(2)
H12B H 1.1914 0.7116 -0.0865
C12B C 1.23587(15) 0.88972(15) -0.09629(19)
H13B H 1.3264 0.8902 -0.0736
C13B C 1.14724(13) 1.00034(13) -0.13162(17)
H14B H 1.1820 1.0741 -0.1658
C14B C 1.02483(14) 0.94357(14) -0.24666(16)
H15B H 0.9483 0.9961 -0.2680
H16B H 1.0383 0.9189 -0.3413
loop_
_geom_bond_atom_site_label_1
_geom_bond_atom_site_label_2
_geom_bond_site_symmetry_1
_geom_bond_site_symmetry_2
C1 H1 1_555 1_555
C2 C1 1_555 1_555
H2 C2 1_555 1_555
C3 C2 1_555 1_555
H3 C3 1_555 1_555
C4 C3 1_555 1_555
H4 C4 1_555 1_555
C5 C4 1_555 1_555
H5 C5 1_555 1_555
C6 C1 1_555 1_555
H6 C6 1_555 1_555
C7 C3 1_555 1_555
H7 C7 1_555 1_555
H8 C7 1_555 1_555
C8 H9 1_555 1_555
C9 C8 1_555 1_555
H10 C9 1_555 1_555
C10 C9 1_555 1_555
H11 C10 1_555 1_555
C11 C10 1_555 1_555
H12 C11 1_555 1_555
C12 C11 1_555 1_555
H13 C12 1_555 1_555
C13 C8 1_555 1_555
H14 C13 1_555 1_555
C14 C10 1_555 1_555
H15 C14 1_555 1_555
H16 C14 1_555 1_555
C1B C2 1_555 1_555
H1B C1B 1_555 1_555
C2B C1 1_555 1_555
H2B C2B 1_555 1_555
C3B C2B 1_555 1_555
H3B C3B 1_555 1_555
C4B C3B 1_555 1_555
H4B C4B 1_555 1_555
C5B C4B 1_555 1_555
H5B C5B 1_555 1_555
C6B C1B 1_555 1_555
H6B C6B 1_555 1_555
C7B C3B 1_555 1_555
H7B C7B 1_555 1_555
H8B C7B 1_555 1_555
C8B C9 1_555 1_555
H9B C8B 1_555 1_555
C9B C8 1_555 1_555
H10B C9B 1_555 1_555
C10B C9B 1_555 1_555
H11B C10B 1_555 1_555
C11B C10B 1_555 1_555
H12B C11B 1_555 1_555
C12B C11B 1_555 1_555
H13B C12B 1_555 1_555
C13B C8B 1_555 1_555
H14B C13B 1_555 1_555
C14B C10B 1_555 1_555
H15B C14B 1_555 1_555
H16B C14B 1_555 1_555
C5 C6 1_555 1_555
C6 C7 1_555 1_555
C12 C13 1_555 1_555
C13 C14 1_555 1_555
C1B C2B 1_555 1_555
C5B C6B 1_555 1_555
C6B C7B 1_555 1_555
C8B C9B 1_555 1_555
C12B C13B 1_555 1_555
C13B C14B 1_555 1_555

#END
