
#######################################################################
#
#                 Cambridge Crystallographic Data Centre
#                                CCDC 
#
#######################################################################
#
# If this CIF has been generated from an entry in the Cambridge 
# Structural Database, then it will include bibliographic, chemical, 
# crystal, experimental, refinement or atomic coordinate data resulting 
# from the CCDC's data processing and validation procedures.
#
#######################################################################

data_CEGJIJ
_chemical_formula_moiety         'C15 H24 O4'
_chemical_name_systematic        
(2S*,3S*,3aS*,6S*,7aR*)-3-Hydroxy-2-[(2R*,3S*)-3-isopropyloxiran-2-yl]-3,6-dimethyl-3,3a,5,6,7,7a-hexahydro-1-benzofuran-4(2H)-one
_symmetry_cell_setting           orthorhombic
_symmetry_space_group_name_H-M   'P 21 21 21'
_symmetry_Int_Tables_number      19
_space_group_name_Hall           'P 2ac 2ab'
loop_
_symmetry_equiv_pos_site_id
_symmetry_equiv_pos_as_xyz
1 x,y,z
2 1/2-x,-y,1/2+z
3 1/2+x,1/2-y,-z
4 -x,1/2+y,1/2-z
_cell_length_a                   6.616(7)
_cell_length_b                   9.261(9)
_cell_length_c                   25.12(3)
_cell_angle_alpha                90
_cell_angle_beta                 90
_cell_angle_gamma                90
_cell_volume                     1539.12
_exptl_crystal_colour            colorless
_exptl_crystal_description       prism
_cell_formula_units_Z            4
loop_
_atom_site_label
_atom_site_type_symbol
_atom_site_fract_x
_atom_site_fract_y
_atom_site_fract_z
C1 C 0.3330(6) 0.7529(5) 0.08201(17)
C2 C 0.2584(5) 0.8871(5) 0.05651(16)
H1 H 0.2052 0.9501 0.0840
H2 H 0.1474 0.8623 0.0330
C3 C 0.4150(6) 0.9702(5) 0.02476(14)
H3 H 0.4605 0.9093 -0.0048
C4 C 0.5947(6) 1.0012(5) 0.06053(14)
H4 H 0.6926 1.0586 0.0411
H5 H 0.5500 1.0572 0.0910
C5 C 0.6938(5) 0.8657(5) 0.07967(14)
H6 H 0.7693 0.8228 0.0501
C6 C 0.5481(5) 0.7502(4) 0.10272(15)
H7 H 0.6049 0.6551 0.0944
C7 C 0.3260(10) 1.1082(7) 0.0018(2)
H8 H 0.2137 1.0847 -0.0208
H9 H 0.4273 1.1577 -0.0185
H10 H 0.2808 1.1692 0.0303
C8 C 0.5676(5) 0.7732(3) 0.16381(14)
C9 C 0.5010(8) 0.6450(4) 0.1976(2)
H11 H 0.5276 0.6650 0.2344
H12 H 0.5745 0.5605 0.1869
H13 H 0.3589 0.6288 0.1927
C10 C 0.7945(5) 0.8060(4) 0.16665(15)
H14 H 0.8702 0.7159 0.1621
C11 C 0.8628(4) 0.8785(4) 0.21676(13)
H15 H 0.7903 0.9670 0.2264
C12 C 0.9471(5) 0.7963(4) 0.26096(14)
H16 H 0.9520 0.6916 0.2554
C13 C 0.9347(5) 0.8420(4) 0.31751(14)
H17 H 0.9259 0.9477 0.3180
C14 C 0.7449(8) 0.7838(6) 0.3432(2)
H18 H 0.6293 0.8128 0.3227
H19 H 0.7335 0.8212 0.3787
H20 H 0.7514 0.6803 0.3445
C15 C 1.1278(9) 0.7993(8) 0.3472(2)
H21 H 1.1347 0.6961 0.3501
H22 H 1.1262 0.8411 0.3822
H23 H 1.2434 0.8341 0.3280
O1 O 0.2253(6) 0.6483(5) 0.08748(18)
O2 O 0.8347(3) 0.8990(3) 0.12242(9)
O3 O 0.4646(3) 0.9014(2) 0.17901(9)
H24 H 0.3551 0.8803 0.1922
O4 O 1.0785(3) 0.8795(4) 0.22651(11)
loop_
_geom_bond_atom_site_label_1
_geom_bond_atom_site_label_2
_geom_bond_site_symmetry_1
_geom_bond_site_symmetry_2
C1 C2 1_555 1_555
C2 H1 1_555 1_555
H2 C2 1_555 1_555
C3 C2 1_555 1_555
H3 C3 1_555 1_555
C4 C3 1_555 1_555
H4 C4 1_555 1_555
H5 C4 1_555 1_555
C5 C4 1_555 1_555
H6 C5 1_555 1_555
C6 C1 1_555 1_555
H7 C6 1_555 1_555
C7 C3 1_555 1_555
H8 C7 1_555 1_555
H9 C7 1_555 1_555
H10 C7 1_555 1_555
C8 C6 1_555 1_555
C9 C8 1_555 1_555
H11 C9 1_555 1_555
H12 C9 1_555 1_555
H13 C9 1_555 1_555
C10 C8 1_555 1_555
H14 C10 1_555 1_555
C11 C10 1_555 1_555
H15 C11 1_555 1_555
C12 C11 1_555 1_555
H16 C12 1_555 1_555
C13 C12 1_555 1_555
H17 C13 1_555 1_555
C14 C13 1_555 1_555
H18 C14 1_555 1_555
H19 C14 1_555 1_555
H20 C14 1_555 1_555
C15 C13 1_555 1_555
H21 C15 1_555 1_555
H22 C15 1_555 1_555
H23 C15 1_555 1_555
O1 C1 1_555 1_555
O2 C5 1_555 1_555
O3 C8 1_555 1_555
H24 O3 1_555 1_555
O4 C11 1_555 1_555
C5 C6 1_555 1_555
C10 O2 1_555 1_555
C12 O4 1_555 1_555

#END
