
#######################################################################
#
#                 Cambridge Crystallographic Data Centre
#                                CCDC 
#
#######################################################################
#
# If this CIF has been generated from an entry in the Cambridge 
# Structural Database, then it will include bibliographic, chemical, 
# crystal, experimental, refinement or atomic coordinate data resulting 
# from the CCDC's data processing and validation procedures.
#
#######################################################################

data_CEGJAC
_chemical_formula_moiety         'C29 H27 B1 N2'
_chemical_name_systematic        
6-mesityl-11-methyl-6-phenyl-6,11-dihydro-5\l^5^,6\l^5^-[3,1]benzimidazo[1,2-b][2,1]benzazaborole
_symmetry_cell_setting           monoclinic
_symmetry_space_group_name_H-M   'P 21/n'
_symmetry_Int_Tables_number      14
_space_group_name_Hall           '-P 2yn'
loop_
_symmetry_equiv_pos_site_id
_symmetry_equiv_pos_as_xyz
1 x,y,z
2 1/2-x,1/2+y,1/2-z
3 -x,-y,-z
4 1/2+x,1/2-y,1/2+z
_cell_length_a                   8.6467(6)
_cell_length_b                   15.4839(11)
_cell_length_c                   17.1168(13)
_cell_angle_alpha                90
_cell_angle_beta                 100.215(5)
_cell_angle_gamma                90
_cell_volume                     2255.35
_exptl_crystal_description       plate
_cell_formula_units_Z            4
loop_
_atom_site_label
_atom_site_type_symbol
_atom_site_fract_x
_atom_site_fract_y
_atom_site_fract_z
B1 B 0.6984(6) 0.9119(4) 0.2129(3)
N1 N 0.7379(5) 1.0054(3) 0.1776(2)
N2 N 0.6449(5) 1.1147(3) 0.0993(2)
C1 C 0.5140(5) 0.9119(3) 0.1713(3)
C2 C 0.4740(6) 0.9851(3) 0.1228(3)
C3 C 0.3256(6) 0.9967(4) 0.0762(3)
H1 H 0.3023 1.0470 0.0446
C4 C 0.2136(6) 0.9332(4) 0.0774(3)
H2 H 0.1116 0.9397 0.0465
C5 C 0.2500(6) 0.8600(4) 0.1235(3)
H3 H 0.1724 0.8167 0.1241
C6 C 0.3990(6) 0.8491(4) 0.1692(3)
H4 H 0.4222 0.7977 0.1993
C7 C 0.6132(5) 1.0389(3) 0.1305(2)
C8 C 0.8025(6) 1.1328(3) 0.1293(3)
C9 C 0.8941(7) 1.2037(4) 0.1178(3)
H5 H 0.8531 1.2507 0.0849
C10 C 1.0476(7) 1.2021(4) 0.1569(3)
H6 H 1.1151 1.2489 0.1500
C11 C 1.1068(7) 1.1338(4) 0.2061(3)
H7 H 1.2137 1.1355 0.2316
C12 C 1.0168(6) 1.0636(4) 0.2194(3)
H8 H 1.0577 1.0176 0.2536
C13 C 0.8612(6) 1.0648(3) 0.1790(3)
C14 C 0.5376(7) 1.1680(4) 0.0441(3)
H9 H 0.4467 1.1836 0.0681
H10 H 0.5021 1.1357 -0.0050
H11 H 0.5919 1.2206 0.0321
C15 C 0.7470(5) 0.9120(3) 0.3095(2)
C16 C 0.6422(6) 0.9423(3) 0.3591(3)
C17 C 0.6855(6) 0.9387(3) 0.4417(3)
H12 H 0.6118 0.9579 0.4730
C18 C 0.8275(6) 0.9093(3) 0.4799(3)
C19 C 0.9352(6) 0.8850(3) 0.4326(3)
H13 H 1.0383 0.8687 0.4571
C20 C 0.8956(6) 0.8839(3) 0.3493(3)
C21 C 0.4838(6) 0.9817(4) 0.3275(3)
H14 H 0.4450 1.0119 0.3705
H15 H 0.4096 0.9360 0.3063
H16 H 0.4938 1.0228 0.2851
C22 C 0.8719(9) 0.9045(4) 0.5691(3)
H17 H 0.8312 0.9554 0.5928
H18 H 0.9866 0.9027 0.5843
H19 H 0.8267 0.8522 0.5882
C23 C 1.0257(6) 0.8515(4) 0.3078(3)
H20 H 1.1279 0.8638 0.3408
H21 H 1.0186 0.8807 0.2565
H22 H 1.0144 0.7890 0.2993
C24 C 0.7694(5) 0.8351(3) 0.1657(3)
C25 C 0.7469(6) 0.7490(3) 0.1872(3)
H23 H 0.7034 0.7379 0.2334
C26 C 0.7859(7) 0.6802(4) 0.1436(4)
H24 H 0.7712 0.6228 0.1606
C27 C 0.8463(7) 0.6944(4) 0.0751(4)
H25 H 0.8725 0.6470 0.0447
C28 C 0.8681(6) 0.7780(4) 0.0514(3)
H26 H 0.9084 0.7883 0.0041
C29 C 0.8314(5) 0.8470(4) 0.0964(3)
H27 H 0.8489 0.9041 0.0796
loop_
_geom_bond_atom_site_label_1
_geom_bond_atom_site_label_2
_geom_bond_site_symmetry_1
_geom_bond_site_symmetry_2
B1 N1 1_555 1_555
N1 C7 1_555 1_555
N2 C7 1_555 1_555
C1 B1 1_555 1_555
C2 C1 1_555 1_555
C3 C2 1_555 1_555
H1 C3 1_555 1_555
C4 C3 1_555 1_555
H2 C4 1_555 1_555
C5 C4 1_555 1_555
H3 C5 1_555 1_555
C6 C1 1_555 1_555
H4 C6 1_555 1_555
C7 C2 1_555 1_555
C8 N2 1_555 1_555
C9 C8 1_555 1_555
H5 C9 1_555 1_555
C10 C9 1_555 1_555
H6 C10 1_555 1_555
C11 C10 1_555 1_555
H7 C11 1_555 1_555
C12 C11 1_555 1_555
H8 C12 1_555 1_555
C13 N1 1_555 1_555
C14 N2 1_555 1_555
H9 C14 1_555 1_555
H10 C14 1_555 1_555
H11 C14 1_555 1_555
C15 B1 1_555 1_555
C16 C15 1_555 1_555
C17 C16 1_555 1_555
H12 C17 1_555 1_555
C18 C17 1_555 1_555
C19 C18 1_555 1_555
H13 C19 1_555 1_555
C20 C15 1_555 1_555
C21 C16 1_555 1_555
H14 C21 1_555 1_555
H15 C21 1_555 1_555
H16 C21 1_555 1_555
C22 C18 1_555 1_555
H17 C22 1_555 1_555
H18 C22 1_555 1_555
H19 C22 1_555 1_555
C23 C20 1_555 1_555
H20 C23 1_555 1_555
H21 C23 1_555 1_555
H22 C23 1_555 1_555
C24 B1 1_555 1_555
C25 C24 1_555 1_555
H23 C25 1_555 1_555
C26 C25 1_555 1_555
H24 C26 1_555 1_555
C27 C26 1_555 1_555
H25 C27 1_555 1_555
C28 C27 1_555 1_555
H26 C28 1_555 1_555
C29 C24 1_555 1_555
H27 C29 1_555 1_555
C5 C6 1_555 1_555
C8 C13 1_555 1_555
C12 C13 1_555 1_555
C19 C20 1_555 1_555
C28 C29 1_555 1_555

#END
