
#######################################################################
#
#                 Cambridge Crystallographic Data Centre
#                                CCDC 
#
#######################################################################
#
# If this CIF has been generated from an entry in the Cambridge 
# Structural Database, then it will include bibliographic, chemical, 
# crystal, experimental, refinement or atomic coordinate data resulting 
# from the CCDC's data processing and validation procedures.
#
#######################################################################

data_CEGJEG
_chemical_formula_moiety         'C28 H28 B1 N1'
_chemical_name_systematic        
6-(2,4-dimethylphenyl)-6-mesityl-6H-5\l^5^,6\l^5^-pyrido[1,2-b][2,1]benzazaborole
_symmetry_cell_setting           monoclinic
_symmetry_space_group_name_H-M   'P 21/n'
_symmetry_Int_Tables_number      14
_space_group_name_Hall           '-P 2yn'
loop_
_symmetry_equiv_pos_site_id
_symmetry_equiv_pos_as_xyz
1 x,y,z
2 1/2-x,1/2+y,1/2-z
3 -x,-y,-z
4 1/2+x,1/2-y,1/2+z
_cell_length_a                   10.4004(4)
_cell_length_b                   13.3988(5)
_cell_length_c                   15.7912(6)
_cell_angle_alpha                90
_cell_angle_beta                 98.394(2)
_cell_angle_gamma                90
_cell_volume                     2176.98
_exptl_crystal_colour            colorless
_exptl_crystal_description       block
_cell_formula_units_Z            4
loop_
_atom_site_label
_atom_site_type_symbol
_atom_site_fract_x
_atom_site_fract_y
_atom_site_fract_z
B1 B 0.85774(16) 0.33415(12) 0.13665(10)
N1 N 0.72985(12) 0.27236(9) 0.15567(7)
C1 C 0.78190(15) 0.43774(11) 0.10925(9)
C2 C 0.82372(19) 0.53034(12) 0.08356(11)
H1 H 0.9114 0.5387 0.0746
C3 C 0.7384(2) 0.61051(14) 0.07100(12)
H2 H 0.7682 0.6729 0.0529
C4 C 0.6111(2) 0.60068(14) 0.08438(14)
H3 H 0.5542 0.6564 0.0762
C5 C 0.56633(19) 0.51066(14) 0.10948(13)
H4 H 0.4786 0.5034 0.1187
C6 C 0.65135(15) 0.43045(12) 0.12118(10)
C7 C 0.62102(15) 0.32924(12) 0.14586(10)
C8 C 0.50298(18) 0.28767(15) 0.15856(14)
H5 H 0.4259 0.3267 0.1503
C9 C 0.4991(2) 0.18946(16) 0.18320(14)
H6 H 0.4189 0.1605 0.1924
C10 C 0.61046(18) 0.13277(13) 0.19462(11)
H7 H 0.6085 0.0652 0.2125
C11 C 0.72458(16) 0.17601(11) 0.17953(10)
H8 H 0.8017 0.1371 0.1861
C12 C 0.92197(14) 0.26833(11) 0.06593(9)
C13 C 0.87036(15) 0.27227(12) -0.02250(10)
C14 C 0.92482(17) 0.21491(13) -0.08230(10)
H9 H 0.8906 0.2214 -0.1412
C15 C 1.02550(17) 0.14976(14) -0.05932(11)
C16 C 1.07230(17) 0.14230(14) 0.02686(11)
H10 H 1.1406 0.0965 0.0446
C17 C 1.02375(16) 0.19901(13) 0.08893(10)
C18 C 1.08556(19) 0.17790(15) 0.18026(11)
H11 H 1.1286 0.1127 0.1828
H12 H 1.0182 0.1776 0.2177
H13 H 1.1497 0.2298 0.1992
C19 C 1.0783(2) 0.08445(18) -0.12443(12)
H14 H 1.0296 0.0970 -0.1813
H15 H 1.0693 0.0141 -0.1093
H16 H 1.1703 0.0999 -0.1248
C20 C 0.74988(17) 0.33061(14) -0.05668(10)
H17 H 0.7241 0.3149 -0.1174
H18 H 0.7679 0.4022 -0.0502
H19 H 0.6793 0.3126 -0.0246
C21 C 0.94612(13) 0.35968(10) 0.22841(9)
C22 C 0.90021(14) 0.33903(11) 0.30535(9)
H20 H 0.8190 0.3059 0.3033
C23 C 0.96760(15) 0.36459(11) 0.38451(9)
H21 H 0.9317 0.3490 0.4349
C24 C 1.08564(16) 0.41211(11) 0.39118(10)
C25 C 1.13343(15) 0.43332(12) 0.31570(10)
H22 H 1.2152 0.4658 0.3189
C26 C 1.06674(15) 0.40903(11) 0.23541(9)
C27 C 1.13007(18) 0.43686(17) 0.15847(12)
H23 H 1.2217 0.4168 0.1683
H24 H 1.1241 0.5092 0.1496
H25 H 1.0855 0.4026 0.1077
C28 C 1.15995(19) 0.44071(15) 0.47683(11)
H26 H 1.1206 0.4084 0.5225
H27 H 1.1572 0.5133 0.4838
H28 H 1.2505 0.4190 0.4800
loop_
_geom_bond_atom_site_label_1
_geom_bond_atom_site_label_2
_geom_bond_site_symmetry_1
_geom_bond_site_symmetry_2
B1 N1 1_555 1_555
N1 C7 1_555 1_555
C1 B1 1_555 1_555
C2 C1 1_555 1_555
H1 C2 1_555 1_555
C3 C2 1_555 1_555
H2 C3 1_555 1_555
C4 C3 1_555 1_555
H3 C4 1_555 1_555
C5 C4 1_555 1_555
H4 C5 1_555 1_555
C6 C1 1_555 1_555
C7 C6 1_555 1_555
C8 C7 1_555 1_555
H5 C8 1_555 1_555
C9 C8 1_555 1_555
H6 C9 1_555 1_555
C10 C9 1_555 1_555
H7 C10 1_555 1_555
C11 N1 1_555 1_555
H8 C11 1_555 1_555
C12 B1 1_555 1_555
C13 C12 1_555 1_555
C14 C13 1_555 1_555
H9 C14 1_555 1_555
C15 C14 1_555 1_555
C16 C15 1_555 1_555
H10 C16 1_555 1_555
C17 C12 1_555 1_555
C18 C17 1_555 1_555
H11 C18 1_555 1_555
H12 C18 1_555 1_555
H13 C18 1_555 1_555
C19 C15 1_555 1_555
H14 C19 1_555 1_555
H15 C19 1_555 1_555
H16 C19 1_555 1_555
C20 C13 1_555 1_555
H17 C20 1_555 1_555
H18 C20 1_555 1_555
H19 C20 1_555 1_555
C21 B1 1_555 1_555
C22 C21 1_555 1_555
H20 C22 1_555 1_555
C23 C22 1_555 1_555
H21 C23 1_555 1_555
C24 C23 1_555 1_555
C25 C24 1_555 1_555
H22 C25 1_555 1_555
C26 C21 1_555 1_555
C27 C26 1_555 1_555
H23 C27 1_555 1_555
H24 C27 1_555 1_555
H25 C27 1_555 1_555
C28 C24 1_555 1_555
H26 C28 1_555 1_555
H27 C28 1_555 1_555
H28 C28 1_555 1_555
C5 C6 1_555 1_555
C10 C11 1_555 1_555
C16 C17 1_555 1_555
C25 C26 1_555 1_555

#END
