
#######################################################################
#
#                 Cambridge Crystallographic Data Centre
#                                CCDC 
#
#######################################################################
#
# If this CIF has been generated from an entry in the Cambridge 
# Structural Database, then it will include bibliographic, chemical, 
# crystal, experimental, refinement or atomic coordinate data resulting 
# from the CCDC's data processing and validation procedures.
#
#######################################################################

data_CEGLAE
_chemical_formula_moiety         'C37 H44 I1 N1 O12 S1'
_chemical_name_systematic        
'1,1-diethyl 3-methyl 4-(2-iodo-3,4,5-trimethoxyphenyl)-3-[(4-methoxyphenyl){[(4-methylphenyl)sulfonyl]amino}methyl]cyclopentane-1,1,3-tricarboxylate'
_symmetry_cell_setting           triclinic
_symmetry_space_group_name_H-M   'P -1'
_symmetry_Int_Tables_number      2
_space_group_name_Hall           '-P 1'
loop_
_symmetry_equiv_pos_site_id
_symmetry_equiv_pos_as_xyz
1 x,y,z
2 -x,-y,-z
_cell_length_a                   10.396(5)
_cell_length_b                   12.167(5)
_cell_length_c                   16.833(5)
_cell_angle_alpha                108.573(5)
_cell_angle_beta                 96.050(5)
_cell_angle_gamma                106.669(5)
_cell_volume                     1887.54
_exptl_crystal_colour            colorless
_exptl_crystal_description       block
_cell_formula_units_Z            2
loop_
_atom_site_label
_atom_site_type_symbol
_atom_site_fract_x
_atom_site_fract_y
_atom_site_fract_z
I1 I 0.95269(2) 0.36981(2) 0.70089(2)
S1 S 0.77733(7) -0.01459(6) 0.50766(4)
O1 O 1.0953(2) 0.0535(2) 0.72220(13)
O2 O 0.8762(2) 0.05388(19) 0.47172(13)
O3 O 1.1644(2) 0.3062(2) 1.03850(14)
O4 O 0.6788(2) 0.0367(2) 0.54299(14)
O5 O 0.5581(2) 0.1027(2) 0.90313(14)
O6 O 0.7400(2) 0.0642(2) 0.95618(14)
O7 O 1.1787(2) 0.54679(19) 0.86622(15)
O8 O 0.4781(2) -0.1658(2) 0.80210(15)
O9 O 0.4722(3) -0.1213(3) 0.68133(16)
O10 O 0.8252(3) -0.5816(2) 0.53891(18)
O11 O 1.0475(2) -0.0518(2) 0.81013(15)
N1 N 0.8669(2) -0.0359(2) 0.58154(14)
H1 H 0.9550 -0.0114 0.5887
C1 C 0.6640(3) -0.0008(3) 0.80165(18)
C2 C 0.8022(3) -0.0962(2) 0.63721(17)
H2 H 0.7050 -0.1035 0.6262
C3 C 0.6843(3) -0.1599(3) 0.42692(17)
C4 C 0.8532(3) 0.1171(2) 0.74904(17)
H3 H 0.8591 0.1318 0.6954
C5 C 0.8056(3) -0.2268(2) 0.61312(17)
C6 C 0.6869(3) -0.3263(3) 0.5970(2)
H4 H 0.6047 -0.3119 0.6034
C7 C 0.8643(3) -0.0125(2) 0.73492(17)
C8 C 0.7738(3) -0.0642(3) 0.79055(18)
H5 H 0.8294 -0.0467 0.8461
H6 H 0.7300 -0.1528 0.7626
C9 C 0.6612(3) 0.0575(3) 0.89645(19)
C10 C 1.0101(3) 0.2152(3) 0.89799(18)
H7 H 0.9711 0.1419 0.9065
C11 C 0.9276(3) -0.2507(3) 0.6027(2)
H8 H 1.0084 -0.1856 0.6127
C12 C 0.8096(3) -0.4681(3) 0.5621(2)
C13 C 0.7504(3) -0.2443(3) 0.3960(2)
H9 H 0.8428 -0.2261 0.4190
C14 C 0.7045(3) 0.1001(3) 0.76185(19)
H10 H 0.6422 0.0749 0.7072
H11 H 0.6997 0.1771 0.7999
C15 C 0.6869(3) -0.4465(3) 0.5715(2)
H12 H 0.6059 -0.5117 0.5608
C16 C 0.5248(3) -0.0990(3) 0.75391(19)
C17 C 0.9625(3) 0.2251(2) 0.82060(17)
C18 C 1.1717(3) 0.4226(3) 0.95065(19)
C19 C 1.0112(3) -0.0076(3) 0.76122(17)
C20 C 1.1135(3) 0.3111(3) 0.96247(18)
C21 C 0.9299(3) -0.3703(3) 0.5776(2)
H13 H 1.0119 -0.3849 0.5711
C22 C 0.4764(3) -0.2974(3) 0.3258(2)
H14 H 0.3850 -0.3145 0.3015
C23 C 0.5387(3) -0.3843(3) 0.2950(2)
C24 C 0.4049(4) 0.1755(4) 0.9845(3)
H15 H 0.3936 0.2161 1.0410
H16 H 0.3947 0.2226 0.9496
H17 H 0.3364 0.0947 0.9593
C25 C 0.5449(4) 0.1646(4) 0.9899(2)
H18 H 0.6149 0.2457 1.0155
H19 H 0.5564 0.1173 1.0253
C26 C 1.0194(3) 0.3379(3) 0.81053(18)
C27 C 1.1016(4) 0.1956(3) 1.0542(2)
H20 H 1.1461 0.2032 1.1095
H21 H 1.0059 0.1834 1.0527
H22 H 1.1110 0.1265 1.0107
C28 C 1.2400(3) 0.0735(4) 0.7460(2)
H23 H 1.2897 0.1177 0.7143
H24 H 1.2730 0.1207 0.8063
H25 H 1.2537 -0.0045 0.7330
C29 C 0.3523(4) -0.2733(3) 0.7620(3)
H26 H 0.3411 -0.3241 0.7967
H27 H 0.3600 -0.3223 0.7058
C30 C 1.1226(3) 0.4353(3) 0.87555(19)
C31 C 0.7066(4) -0.6869(3) 0.4990(3)
H28 H 0.7319 -0.7596 0.4862
H29 H 0.6437 -0.6888 0.5368
H30 H 0.6634 -0.6841 0.4467
C32 C 0.5472(3) -0.1859(3) 0.3919(2)
H31 H 0.5035 -0.1291 0.4126
C33 C 0.6767(4) -0.3557(3) 0.3306(2)
H32 H 0.7202 -0.4126 0.3100
C34 C 1.1077(4) 0.6306(3) 0.9006(3)
H33 H 1.1492 0.7069 0.8931
H34 H 1.0129 0.5952 0.8711
H35 H 1.1137 0.6456 0.9607
C35 C 0.4586(5) -0.5084(4) 0.2255(3)
H36 H 0.5180 -0.5562 0.2124
H37 H 0.3834 -0.5511 0.2452
H38 H 0.4235 -0.4967 0.1749
C36 C 0.2297(5) -0.2351(5) 0.7529(4)
H39 H 0.1488 -0.3069 0.7266
H40 H 0.2211 -0.1877 0.8086
H41 H 0.2400 -0.1859 0.7178
O12 O 1.2774(2) 0.5183(2) 1.01213(16)
C37 C 1.2505(8) 0.5814(7) 1.0835(4)
H42 H 1.3338 0.6446 1.1198
H43 H 1.1852 0.6185 1.0705
H44 H 1.2130 0.5272 1.1125
loop_
_geom_bond_atom_site_label_1
_geom_bond_atom_site_label_2
_geom_bond_site_symmetry_1
_geom_bond_site_symmetry_2
I1 C26 1_555 1_555
S1 O2 1_555 1_555
O1 C19 1_555 1_555
O3 C20 1_555 1_555
O4 S1 1_555 1_555
O5 C9 1_555 1_555
O6 C9 1_555 1_555
O7 C30 1_555 1_555
O8 C16 1_555 1_555
O9 C16 1_555 1_555
O10 C12 1_555 1_555
O11 C19 1_555 1_555
N1 S1 1_555 1_555
H1 N1 1_555 1_555
C1 C8 1_555 1_555
C2 N1 1_555 1_555
H2 C2 1_555 1_555
C3 S1 1_555 1_555
C4 H3 1_555 1_555
C5 C2 1_555 1_555
C6 C5 1_555 1_555
H4 C6 1_555 1_555
C7 C2 1_555 1_555
C8 C7 1_555 1_555
H5 C8 1_555 1_555
H6 C8 1_555 1_555
C9 C1 1_555 1_555
C10 H7 1_555 1_555
C11 C5 1_555 1_555
H8 C11 1_555 1_555
C12 C15 1_555 1_555
C13 C3 1_555 1_555
H9 C13 1_555 1_555
C14 C1 1_555 1_555
H10 C14 1_555 1_555
H11 C14 1_555 1_555
C15 C6 1_555 1_555
H12 C15 1_555 1_555
C16 C1 1_555 1_555
C17 C4 1_555 1_555
C18 C20 1_555 1_555
C19 C7 1_555 1_555
C20 C10 1_555 1_555
C21 C11 1_555 1_555
H13 C21 1_555 1_555
C22 H14 1_555 1_555
C23 C22 1_555 1_555
C24 H15 1_555 1_555
H16 C24 1_555 1_555
H17 C24 1_555 1_555
C25 O5 1_555 1_555
H18 C25 1_555 1_555
H19 C25 1_555 1_555
C26 C17 1_555 1_555
C27 O3 1_555 1_555
H20 C27 1_555 1_555
H21 C27 1_555 1_555
H22 C27 1_555 1_555
C28 O1 1_555 1_555
H23 C28 1_555 1_555
H24 C28 1_555 1_555
H25 C28 1_555 1_555
C29 O8 1_555 1_555
H26 C29 1_555 1_555
H27 C29 1_555 1_555
C30 C18 1_555 1_555
C31 O10 1_555 1_555
H28 C31 1_555 1_555
H29 C31 1_555 1_555
H30 C31 1_555 1_555
C32 C3 1_555 1_555
H31 C32 1_555 1_555
C33 C13 1_555 1_555
H32 C33 1_555 1_555
C34 O7 1_555 1_555
H33 C34 1_555 1_555
H34 C34 1_555 1_555
H35 C34 1_555 1_555
C35 C23 1_555 1_555
H36 C35 1_555 1_555
H37 C35 1_555 1_555
H38 C35 1_555 1_555
C36 C29 1_555 1_555
H39 C36 1_555 1_555
H40 C36 1_555 1_555
H41 C36 1_555 1_555
O12 C18 1_555 1_555
C37 O12 1_555 1_555
H42 C37 1_555 1_555
H43 C37 1_555 1_555
H44 C37 1_555 1_555
C4 C7 1_555 1_555
C4 C14 1_555 1_555
C10 C17 1_555 1_555
C12 C21 1_555 1_555
C22 C32 1_555 1_555
C23 C33 1_555 1_555
C24 C25 1_555 1_555
C26 C30 1_555 1_555

#END
