
#######################################################################
#
#                 Cambridge Crystallographic Data Centre
#                                CCDC 
#
#######################################################################
#
# If this CIF has been generated from an entry in the Cambridge 
# Structural Database, then it will include bibliographic, chemical, 
# crystal, experimental, refinement or atomic coordinate data resulting 
# from the CCDC's data processing and validation procedures.
#
#######################################################################

data_CEGLEI
_chemical_formula_moiety         'C36 H41 N1 O10 S1'
_chemical_name_systematic        
'triethyl 4-(4-methoxyphenyl)-3-[(4-methoxyphenyl){[(4-methylphenyl)sulfonyl]imino}methyl]cyclopentane-1,1,3-tricarboxylate'
_symmetry_cell_setting           monoclinic
_symmetry_space_group_name_H-M   'P 21/n'
_symmetry_Int_Tables_number      14
_space_group_name_Hall           '-P 2yn'
loop_
_symmetry_equiv_pos_site_id
_symmetry_equiv_pos_as_xyz
1 x,y,z
2 1/2-x,1/2+y,1/2-z
3 -x,-y,-z
4 1/2+x,1/2-y,1/2+z
_cell_length_a                   17.161(5)
_cell_length_b                   10.123(5)
_cell_length_c                   19.913(5)
_cell_angle_alpha                90
_cell_angle_beta                 96.221(5)
_cell_angle_gamma                90
_cell_volume                     3438.93
_exptl_crystal_colour            colorless
_exptl_crystal_description       block
_cell_formula_units_Z            4
loop_
_atom_site_label
_atom_site_type_symbol
_atom_site_fract_x
_atom_site_fract_y
_atom_site_fract_z
S1 S 0.48312(3) 0.09785(4) 0.83451(2)
O1 O 0.33291(8) 0.72949(14) 0.98508(7)
O2 O 0.43111(9) 0.00923(13) 0.79534(7)
O3 O 0.33190(7) 0.41617(12) 0.75604(6)
O4 O 0.35264(8) 0.56709(12) 0.67720(7)
O5 O 0.56242(8) 0.05768(14) 0.85378(7)
O6 O 0.36903(9) -0.06078(14) 0.52234(7)
O7 O 0.62100(9) 0.55509(13) 0.57651(7)
O8 O 0.70760(9) 0.53385(16) 0.71653(8)
O9 O 0.64257(9) 0.34007(15) 0.71382(9)
O10 O 0.58070(9) 0.74491(14) 0.61874(8)
N1 N 0.48773(9) 0.24852(14) 0.80127(8)
C1 C 0.54634(11) 0.62092(18) 0.74085(9)
H1 H 0.5102 0.6906 0.7248
H2 H 0.5908 0.6598 0.7680
C2 C 0.37356(11) 0.67035(18) 0.93739(9)
C3 C 0.45829(11) 0.57264(17) 0.83491(9)
C4 C 0.57286(11) 0.54205(18) 0.68179(9)
C5 C 0.43797(11) 0.14235(18) 0.90637(9)
C6 C 0.78082(13) 0.4717(3) 0.74478(13)
H3 H 0.8244 0.5086 0.7238
H4 H 0.7788 0.3775 0.7357
C7 C 0.50577(11) 0.51755(17) 0.78127(9)
H5 H 0.5471 0.4623 0.8046
C8 C 0.32395(15) 0.2556(3) 1.07836(12)
H6 H 0.2695 0.2726 1.0646
H7 H 0.3287 0.1851 1.1108
H8 H 0.3481 0.3338 1.0983
C9 C 0.48638(11) 0.09027(18) 0.66787(10)
H9 H 0.5346 0.0809 0.6937
C10 C 0.46720(12) 0.00546(19) 0.61385(10)
H10 H 0.5022 -0.0596 0.6035
C11 C 0.46011(10) 0.42867(17) 0.72397(9)
C12 C 0.50088(11) 0.45583(18) 0.65952(9)
H11 H 0.5168 0.3736 0.6401
H12 H 0.4655 0.5017 0.6260
C13 C 0.36414(13) 0.21666(19) 1.01757(10)
C14 C 0.41940(11) 0.69393(18) 0.82792(9)
H13 H 0.4218 0.7433 0.7888
C15 C 0.64308(13) 0.6249(2) 0.51740(10)
H14 H 0.6689 0.7076 0.5307
H15 H 0.5971 0.6439 0.4862
C16 C 0.59206(11) 0.62864(18) 0.62355(10)
C17 C 0.41120(11) 0.54916(18) 0.94528(9)
H16 H 0.4084 0.4997 0.9843
C18 C 0.46091(10) 0.28081(17) 0.74108(9)
C19 C 0.33330(13) 0.6649(2) 1.04889(10)
H17 H 0.3031 0.7156 1.0775
H18 H 0.3108 0.5784 1.0423
H19 H 0.3863 0.6574 1.0697
C20 C 0.36389(11) 0.20233(17) 0.64408(9)
H20 H 0.3295 0.2691 0.6534
C21 C 0.64399(12) 0.4569(2) 0.70543(10)
C22 C 0.37566(11) 0.47859(17) 0.71482(9)
C23 C 0.45298(11) 0.50264(18) 0.89442(9)
H21 H 0.4784 0.4217 0.9002
C24 C 0.48121(12) 0.15089(18) 0.96917(10)
H22 H 0.5346 0.1327 0.9741
C25 C 0.32216(12) 0.2097(2) 0.95383(10)
H23 H 0.2691 0.2308 0.9486
C26 C 0.35843(12) 0.1717(2) 0.89832(10)
H24 H 0.3299 0.1659 0.8560
C27 C 0.37733(11) 0.74198(18) 0.87832(9)
H25 H 0.3515 0.8226 0.8726
C28 C 0.21245(11) 0.37867(19) 0.80390(10)
H26 H 0.1595 0.4082 0.8056
H27 H 0.2121 0.2891 0.7880
H28 H 0.2405 0.3832 0.8483
C29 C 0.25179(11) 0.46512(19) 0.75684(10)
H29 H 0.2240 0.4615 0.7118
H30 H 0.2524 0.5560 0.7723
C30 C 0.43533(11) 0.18890(17) 0.68431(9)
C31 C 0.69778(14) 0.5358(2) 0.48509(11)
H31 H 0.7139 0.5780 0.4457
H32 H 0.7429 0.5178 0.5166
H33 H 0.6715 0.4545 0.4723
C32 C 0.39536(12) 0.01876(18) 0.57556(9)
C33 C 0.44338(12) 0.1870(2) 1.02437(10)
H34 H 0.4718 0.1914 1.0668
C34 C 0.34378(11) 0.11785(18) 0.59075(10)
H35 H 0.2956 0.1270 0.5648
C35 C 0.41641(14) -0.1726(2) 0.50971(12)
H36 H 0.3921 -0.2206 0.4714
H37 H 0.4674 -0.1431 0.5006
H38 H 0.4215 -0.2292 0.5486
C36 C 0.79248(15) 0.4950(3) 0.81908(13)
H39 H 0.8405 0.4543 0.8377
H40 H 0.7950 0.5883 0.8278
H41 H 0.7495 0.4575 0.8396
loop_
_geom_bond_atom_site_label_1
_geom_bond_atom_site_label_2
_geom_bond_site_symmetry_1
_geom_bond_site_symmetry_2
S1 O2 1_555 1_555
O1 C2 1_555 1_555
O3 C22 1_555 1_555
O4 C22 1_555 1_555
O5 S1 1_555 1_555
O6 C32 1_555 1_555
O7 C15 1_555 1_555
O8 C6 1_555 1_555
O9 C21 1_555 1_555
O10 C16 1_555 1_555
N1 S1 1_555 1_555
C1 H1 1_555 1_555
H2 C1 1_555 1_555
C2 C17 1_555 1_555
C3 C7 1_555 1_555
C4 C1 1_555 1_555
C5 S1 1_555 1_555
C6 H3 1_555 1_555
H4 C6 1_555 1_555
C7 C1 1_555 1_555
H5 C7 1_555 1_555
C8 H6 1_555 1_555
H7 C8 1_555 1_555
H8 C8 1_555 1_555
C9 H9 1_555 1_555
C10 C9 1_555 1_555
H10 C10 1_555 1_555
C11 C7 1_555 1_555
C12 C4 1_555 1_555
H11 C12 1_555 1_555
H12 C12 1_555 1_555
C13 C8 1_555 1_555
C14 C3 1_555 1_555
H13 C14 1_555 1_555
C15 H14 1_555 1_555
H15 C15 1_555 1_555
C16 O7 1_555 1_555
C17 H16 1_555 1_555
C18 N1 1_555 1_555
C19 O1 1_555 1_555
H17 C19 1_555 1_555
H18 C19 1_555 1_555
H19 C19 1_555 1_555
C20 H20 1_555 1_555
C21 O8 1_555 1_555
C22 C11 1_555 1_555
C23 C3 1_555 1_555
H21 C23 1_555 1_555
C24 C5 1_555 1_555
H22 C24 1_555 1_555
C25 C13 1_555 1_555
H23 C25 1_555 1_555
C26 C5 1_555 1_555
H24 C26 1_555 1_555
C27 C2 1_555 1_555
H25 C27 1_555 1_555
C28 H26 1_555 1_555
H27 C28 1_555 1_555
H28 C28 1_555 1_555
C29 O3 1_555 1_555
H29 C29 1_555 1_555
H30 C29 1_555 1_555
C30 C9 1_555 1_555
C31 C15 1_555 1_555
H31 C31 1_555 1_555
H32 C31 1_555 1_555
H33 C31 1_555 1_555
C32 C10 1_555 1_555
C33 C13 1_555 1_555
H34 C33 1_555 1_555
C34 C20 1_555 1_555
H35 C34 1_555 1_555
C35 O6 1_555 1_555
H36 C35 1_555 1_555
H37 C35 1_555 1_555
H38 C35 1_555 1_555
C36 C6 1_555 1_555
H39 C36 1_555 1_555
H40 C36 1_555 1_555
H41 C36 1_555 1_555
C4 C16 1_555 1_555
C4 C21 1_555 1_555
C11 C12 1_555 1_555
C11 C18 1_555 1_555
C14 C27 1_555 1_555
C17 C23 1_555 1_555
C18 C30 1_555 1_555
C20 C30 1_555 1_555
C24 C33 1_555 1_555
C25 C26 1_555 1_555
C28 C29 1_555 1_555
C32 C34 1_555 1_555

#END
