
#######################################################################
#
#                 Cambridge Crystallographic Data Centre
#                                CCDC 
#
#######################################################################
#
# If this CIF has been generated from an entry in the Cambridge 
# Structural Database, then it will include bibliographic, chemical, 
# crystal, experimental, refinement or atomic coordinate data resulting 
# from the CCDC's data processing and validation procedures.
#
#######################################################################

data_CEGVES
_chemical_formula_moiety         'C20 H18 F3 N3 O1'
_chemical_name_systematic        
6-(4-methylphenyl)-4-(3-phenylpropyl)-3-(trifluoromethyl)-1,2,4-triazin-5(4H)-one
_symmetry_cell_setting           monoclinic
_symmetry_space_group_name_H-M   'P 21/c'
_symmetry_Int_Tables_number      14
_space_group_name_Hall           '-P 2ybc'
loop_
_symmetry_equiv_pos_site_id
_symmetry_equiv_pos_as_xyz
1 x,y,z
2 -x,1/2+y,1/2-z
3 -x,-y,-z
4 x,1/2-y,1/2+z
_cell_length_a                   18.087(11)
_cell_length_b                   12.370(7)
_cell_length_c                   8.477(5)
_cell_angle_alpha                90
_cell_angle_beta                 98.578(10)
_cell_angle_gamma                90
_cell_volume                     1875.4
_exptl_crystal_colour            colorless
_exptl_crystal_description       block
_cell_formula_units_Z            4
loop_
_atom_site_label
_atom_site_type_symbol
_atom_site_fract_x
_atom_site_fract_y
_atom_site_fract_z
N1 N 0.28818(10) 0.42753(13) 0.0432(2)
N2 N 0.31795(10) 0.28067(14) 0.2196(3)
N3 N 0.24440(10) 0.27383(13) 0.2447(2)
C1 C 0.19482(12) 0.34256(15) 0.1754(3)
O1 O 0.16794(9) 0.48552(13) -0.0143(2)
C2 C 0.21325(12) 0.42445(16) 0.0625(3)
C3 C 0.32869(12) 0.81625(17) -0.0863(2)
C4 C 0.33636(12) 0.35543(17) 0.1273(3)
C5 C 0.11881(12) 0.33482(17) 0.2180(3)
F1 F 0.44607(8) 0.46117(14) 0.1506(2)
F2 F 0.45872(9) 0.29628(17) 0.2208(3)
C6 C 0.30874(17) 0.50627(19) -0.0748(3)
F3 F 0.43572(10) 0.33805(17) -0.0246(2)
C7 C 0.09346(15) 0.2377(2) 0.2705(3)
C8 C 0.41967(14) 0.3618(2) 0.1178(3)
C9 C 0.26220(15) 0.8710(2) -0.0869(3)
C10 C 0.32917(18) 0.70036(19) -0.1403(3)
C11 C 0.39456(15) 0.8700(2) -0.0317(3)
C12 C 0.3939(2) 0.9750(2) 0.0213(4)
C13 C 0.31417(17) 0.62155(18) -0.0110(3)
C14 C 0.2617(2) 0.9767(3) -0.0335(3)
C15 C 0.3275(2) 1.0281(2) 0.0192(3)
C16 C -0.02145(15) 0.3201(3) 0.3232(4)
C17 C 0.00376(19) 0.4151(3) 0.2693(5)
C18 C 0.07199(16) 0.4239(2) 0.2167(5)
C19 C 0.02467(17) 0.2316(3) 0.3222(4)
C20 C -0.09551(18) 0.3119(4) 0.3856(5)
H1 H -0.0930 0.3525 0.4827
H2 H -0.1059 0.2375 0.4059
H3 H -0.1346 0.3404 0.3076
H4 H 0.2663(14) 0.5033(19) -0.166(3)
H5 H 0.2667(13) 0.6428(17) 0.024(3)
H6 H 0.2161(15) 0.836(2) -0.122(3)
H7 H 0.1262(14) 0.177(2) 0.273(3)
H8 H 0.3542(15) 0.625(2) 0.076(4)
H9 H 0.3549(16) 0.481(2) -0.114(4)
H10 H 0.4393(16) 0.832(2) -0.036(3)
H11 H 0.2890(14) 0.692(2) -0.233(3)
H12 H 0.0141(16) 0.168(2) 0.363(4)
H13 H 0.0904(17) 0.491(3) 0.180(4)
H14 H 0.3268(17) 1.101(3) 0.057(4)
H15 H 0.2141(17) 1.005(2) -0.031(3)
H16 H 0.3810(18) 0.679(2) -0.173(4)
H17 H 0.4434(18) 1.012(3) 0.068(4)
H18 H -0.027(2) 0.477(3) 0.272(5)
loop_
_geom_bond_atom_site_label_1
_geom_bond_atom_site_label_2
_geom_bond_site_symmetry_1
_geom_bond_site_symmetry_2
N1 C2 1_555 1_555
N2 N3 1_555 1_555
N3 C1 1_555 1_555
C1 C2 1_555 1_555
O1 C2 1_555 1_555
C3 C9 1_555 1_555
C4 N1 1_555 1_555
C5 C1 1_555 1_555
F1 C8 1_555 1_555
F2 C8 1_555 1_555
C6 N1 1_555 1_555
F3 C8 1_555 1_555
C7 C5 1_555 1_555
C8 C4 1_555 1_555
C9 C14 1_555 1_555
C10 C3 1_555 1_555
C11 C3 1_555 1_555
C12 C11 1_555 1_555
C13 C6 1_555 1_555
C14 C15 1_555 1_555
C15 C12 1_555 1_555
C16 C17 1_555 1_555
C17 C18 1_555 1_555
C18 C5 1_555 1_555
C19 C7 1_555 1_555
C20 C16 1_555 1_555
H1 C20 1_555 1_555
H2 C20 1_555 1_555
H3 C20 1_555 1_555
H4 C6 1_555 1_555
H5 C13 1_555 1_555
H6 C9 1_555 1_555
H7 C7 1_555 1_555
H8 C13 1_555 1_555
H9 C6 1_555 1_555
H10 C11 1_555 1_555
H11 C10 1_555 1_555
H12 C19 1_555 1_555
H13 C18 1_555 1_555
H14 C15 1_555 1_555
H15 C14 1_555 1_555
H16 C10 1_555 1_555
H17 C12 1_555 1_555
H18 C17 1_555 1_555
N2 C4 1_555 1_555
C10 C13 1_555 1_555
C16 C19 1_555 1_555

#END
