
#######################################################################
#
#                 Cambridge Crystallographic Data Centre
#                                CCDC 
#
#######################################################################
#
# If this CIF has been generated from an entry in the Cambridge 
# Structural Database, then it will include bibliographic, chemical, 
# crystal, experimental, refinement or atomic coordinate data resulting 
# from the CCDC's data processing and validation procedures.
#
#######################################################################

data_CEHGUR
_chemical_formula_moiety         'C12 H24 O6,2(C6 H5 N1 O3),2(H2 O1)'
_chemical_name_systematic        '18-Crown-6 bis(3-nitrophenol) dihydrate'
_symmetry_cell_setting           monoclinic
_symmetry_space_group_name_H-M   'P 21/c'
_symmetry_Int_Tables_number      14
_space_group_name_Hall           '-P 2ybc'
loop_
_symmetry_equiv_pos_site_id
_symmetry_equiv_pos_as_xyz
1 x,y,z
2 -x,1/2+y,1/2-z
3 -x,-y,-z
4 x,1/2-y,1/2+z
_cell_length_a                   12.47(1)
_cell_length_b                   7.520(4)
_cell_length_c                   15.90(1)
_cell_angle_alpha                90
_cell_angle_beta                 102.50(8)
_cell_angle_gamma                90
_cell_volume                     1455.67
_cell_formula_units_Z            2
loop_
_atom_site_label
_atom_site_type_symbol
_atom_site_fract_x
_atom_site_fract_y
_atom_site_fract_z
O1 O 0.62240 0.01060 0.16820
C1 C 0.62810 0.18620 0.20030
C2 C 0.51690 0.26550 0.18490
O2 O 0.47600 0.29580 0.09580
C3 C 0.37080 0.37730 0.07760
C4 C 0.33490 0.40820 -0.01600
O3 O 0.31000 0.24140 -0.05870
C5 C 0.28730 0.25670 -0.14870
C6 C 0.72600 -0.07640 0.18750
H1 H 0.66310 0.19390 0.26310
H2 H 0.67250 0.25670 0.16810
H3 H 0.46750 0.17740 0.20330
H4 H 0.51760 0.37960 0.21990
H5 H 0.31520 0.30080 0.09590
H6 H 0.37640 0.49510 0.11010
H7 H 0.27000 0.48840 -0.02760
H8 H 0.39690 0.46250 -0.03690
H9 H 0.21780 0.32380 -0.16770
H10 H 0.34930 0.32050 -0.16540
H11 H 0.78100 -0.00900 0.16380
H12 H 0.75130 -0.08110 0.25140
C6B C 0.27400 0.07640 -0.18750
C5B C 0.71270 -0.25670 0.14870
O1B O 0.37760 -0.01060 -0.16820
H11B H 0.21900 0.00900 -0.16380
H12B H 0.24870 0.08110 -0.25140
O3B O 0.69000 -0.24140 0.05870
H9B H 0.78220 -0.32380 0.16770
H10B H 0.65070 -0.32050 0.16540
C1B C 0.37190 -0.18620 -0.20030
C4B C 0.66510 -0.40820 0.01600
C2B C 0.48310 -0.26550 -0.18490
H1B H 0.33690 -0.19390 -0.26310
H2B H 0.32750 -0.25670 -0.16810
C3B C 0.62920 -0.37730 -0.07760
H7B H 0.73000 -0.48840 0.02760
H8B H 0.60310 -0.46250 0.03690
O2B O 0.52400 -0.29580 -0.09580
H3B H 0.53250 -0.17740 -0.20330
H4B H 0.48240 -0.37960 -0.21990
H5B H 0.68480 -0.30080 -0.09590
H6B H 0.62360 -0.49510 -0.11010
O4 O 0.55650 0.15700 -0.05020
H13 H 0.53350 0.20540 0.00140
H14 H 0.49440 0.09750 -0.09240
O5 O 0.70930 0.04840 -0.12980
C7 C 0.81140 0.11410 -0.09970
C8 C 0.88310 0.11460 -0.15460
C9 C 0.98730 0.17570 -0.12770
C10 C 1.02480 0.23880 -0.04560
C11 C 0.95190 0.23870 0.00860
C12 C 0.84480 0.17860 -0.01680
N1 N 0.98770 0.30460 0.09740
O6 O 1.08450 0.34240 0.12240
O7 O 0.91960 0.31750 0.14130
H15 H 0.65820 0.10040 -0.09490
H16 H 0.85690 0.07070 -0.21600
H17 H 1.03710 0.17480 -0.16920
H18 H 1.10270 0.28020 -0.02470
H19 H 0.79430 0.17750 0.02420
loop_
_geom_bond_atom_site_label_1
_geom_bond_atom_site_label_2
_geom_bond_site_symmetry_1
_geom_bond_site_symmetry_2
O1 C1 1_555 1_555
C1 C2 1_555 1_555
C2 O2 1_555 1_555
O2 C3 1_555 1_555
C3 C4 1_555 1_555
C4 O3 1_555 1_555
O3 C5 1_555 1_555
C5 H9 1_555 1_555
C6 O1 1_555 1_555
O4 H13 1_555 1_555
O5 C7 1_555 1_555
C7 C8 1_555 1_555
C8 C9 1_555 1_555
C9 C10 1_555 1_555
C10 C11 1_555 1_555
C11 C12 1_555 1_555
C12 C7 1_555 1_555
N1 C11 1_555 1_555
O6 N1 1_555 1_555
O7 N1 1_555 1_555
H1 C1 1_555 1_555
H2 C1 1_555 1_555
H3 C2 1_555 1_555
H4 C2 1_555 1_555
H5 C3 1_555 1_555
H6 C3 1_555 1_555
H7 C4 1_555 1_555
H8 C4 1_555 1_555
H10 C5 1_555 1_555
H11 C6 1_555 1_555
H12 C6 1_555 1_555
H14 O4 1_555 1_555
H15 O5 1_555 1_555
H16 C8 1_555 1_555
H17 C9 1_555 1_555
H18 C10 1_555 1_555
H19 C12 1_555 1_555
C6B C5 1_555 1_555
C5B C6 1_555 1_555
O1B C6B 1_555 1_555
H11B C6B 1_555 1_555
H12B C6B 1_555 1_555
O3B C5B 1_555 1_555
H9B C5B 1_555 1_555
H10B C5B 1_555 1_555
C1B O1B 1_555 1_555
C4B O3B 1_555 1_555
C2B C1B 1_555 1_555
H1B C1B 1_555 1_555
H2B C1B 1_555 1_555
C3B C4B 1_555 1_555
H7B C4B 1_555 1_555
H8B C4B 1_555 1_555
O2B C2B 1_555 1_555
H3B C2B 1_555 1_555
H4B C2B 1_555 1_555
H5B C3B 1_555 1_555
H6B C3B 1_555 1_555
C3B O2B 1_555 1_555

#END
