
#######################################################################
#
#                 Cambridge Crystallographic Data Centre
#                                CCDC 
#
#######################################################################
#
# If this CIF has been generated from an entry in the Cambridge 
# Structural Database, then it will include bibliographic, chemical, 
# crystal, experimental, refinement or atomic coordinate data resulting 
# from the CCDC's data processing and validation procedures.
#
#######################################################################

data_CEHGOO
_chemical_formula_moiety         'C26 H37 Cl1 N4 O4'
_chemical_name_systematic        
N-t-butyl-2-(6-chloro-1H-indol-3-yl)-2-(3,14-dioxo-1-oxa-4,13-diazacyclopentadecan-4-yl)acetamide
_symmetry_cell_setting           hexagonal
_symmetry_space_group_name_H-M   'P 61'
_symmetry_Int_Tables_number      169
_space_group_name_Hall           'P 61'
loop_
_symmetry_equiv_pos_site_id
_symmetry_equiv_pos_as_xyz
1 x,y,z
2 -x,-y,1/2+z
3 -y,x-y,1/3+z
4 -x+y,-x,2/3+z
5 x-y,x,1/6+z
6 y,-x+y,5/6+z
_cell_length_a                   9.8322(2)
_cell_length_b                   9.8322(2)
_cell_length_c                   47.9529(10)
_cell_angle_alpha                90
_cell_angle_beta                 90
_cell_angle_gamma                120
_cell_volume                     4014.64
_exptl_crystal_colour            orange
_exptl_crystal_description       block
_cell_formula_units_Z            6
loop_
_atom_site_label
_atom_site_type_symbol
_atom_site_fract_x
_atom_site_fract_y
_atom_site_fract_z
Cl1 Cl 0.82612(8) 0.11725(9) 0.908223(14)
O1 O 1.2087(2) 0.46683(19) 1.05429(3)
O2 O 1.1541(2) 0.69889(19) 1.06333(3)
N1 N 1.4045(2) 0.3406(2) 0.94059(4)
H1 H 1.448 0.3279 0.926
N2 N 1.3875(2) 0.5937(2) 1.01999(4)
O3 O 1.6799(2) 0.6010(2) 1.02275(4)
N3 N 1.5482(3) 0.3449(2) 1.03440(4)
H2 H 1.4561 0.2641 1.0363
C1 C 1.5570(3) 0.4754(3) 1.02468(4)
C2 C 1.2910(3) 0.5867(3) 1.04077(4)
C3 C 1.1281(3) 0.2261(3) 0.92346(5)
H3 H 1.1438 0.1955 0.906
C4 C 1.2500(3) 0.2991(3) 0.94290(5)
O4 O 1.2386(3) 1.0738(2) 1.04751(4)
C5 C 1.3996(3) 0.4528(2) 1.01441(4)
H4 H 1.3166 0.3661 1.0251
C6 C 1.2255(3) 0.3399(3) 0.96994(4)
C7 C 1.4788(3) 0.4060(3) 0.96535(4)
H5 H 1.5849 0.4446 0.9688
C8 C 1.2896(3) 0.7375(3) 1.04736(5)
H6 H 1.3832 0.8088 1.0577
H7 H 1.2881 0.789 1.0302
C9 C 1.3740(3) 0.4061(2) 0.98418(4)
C10 C 1.1394(3) 0.9344(3) 1.04986(5)
C11 C 1.0766(3) 0.3123(3) 0.97752(5)
H8 H 1.0588 0.3387 0.9952
C12 C 1.4816(3) 0.7363(3) 1.00304(5)
H9 H 1.5714 0.7328 0.9955
H10 H 1.5212 0.8275 1.0151
C13 C 1.1542(3) 0.8357(3) 1.07297(5)
H11 H 1.251 0.9005 1.0831
H12 H 1.0678 0.8043 1.0859
C14 C 0.9832(3) 0.2021(3) 0.93173(5)
N4 N 1.0153(3) 0.8630(3) 1.03319(5)
H13 H 0.9514 0.7644 1.0357
C15 C 0.9561(3) 0.2450(3) 0.95823(5)
H14 H 0.8569 0.2281 0.9628
C16 C 1.3918(4) 0.7560(3) 0.97918(5)
H15 H 1.2874 0.7286 0.9855
H16 H 1.381 0.6855 0.9641
C17 C 1.1871(4) 0.9582(3) 0.97782(6)
H17 H 1.2235 0.9199 0.9931
H18 H 1.2455 1.072 0.9785
C18 C 1.6841(3) 0.3269(3) 1.04226(6)
C19 C 1.7676(3) 0.4266(4) 1.06719(6)
H19 H 1.7964 0.5336 1.0635
H20 H 1.8604 0.4205 1.0709
H21 H 1.6993 0.3892 1.0831
C20 C 1.4770(4) 0.9250(3) 0.96858(6)
H22 H 1.4916 0.9941 0.9841
H23 H 1.5805 0.9497 0.9622
C21 C 1.0152(4) 0.9030(4) 0.98219(7)
H24 H 0.955 0.7902 0.9796
H25 H 0.9811 0.951 0.9682
C22 C 1.2244(5) 0.9049(4) 0.95029(6)
H26 H 1.1674 0.791 0.9498
H27 H 1.1856 0.9411 0.9351
C23 C 0.9812(4) 0.9430(4) 1.01087(8)
H28 H 1.0439 1.0555 1.0137
H29 H 0.8715 0.914 1.0119
C24 C 1.3964(6) 0.9616(4) 0.94523(6)
H30 H 1.4507 1.0744 0.9424
H31 H 1.4062 0.9142 0.9282
C25 C 1.7944(6) 0.3689(7) 1.01802(8)
H32 H 1.7381 0.3072 1.0021
H33 H 1.8772 0.348 1.0227
H34 H 1.8386 0.4784 1.0137
C26 C 1.6125(5) 0.1523(4) 1.04992(12)
H35 H 1.556 0.1318 1.0672
H36 H 1.6949 0.1275 1.0519
H37 H 1.542 0.0885 1.0354
loop_
_geom_bond_atom_site_label_1
_geom_bond_atom_site_label_2
_geom_bond_site_symmetry_1
_geom_bond_site_symmetry_2
Cl1 C14 1_555 1_555
O1 C2 1_555 1_555
O2 C8 1_555 1_555
N1 H1 1_555 1_555
N2 C2 1_555 1_555
O3 C1 1_555 1_555
N3 H2 1_555 1_555
C1 N3 1_555 1_555
C2 C8 1_555 1_555
C3 H3 1_555 1_555
C4 N1 1_555 1_555
O4 C10 1_555 1_555
C5 N2 1_555 1_555
H4 C5 1_555 1_555
C6 C4 1_555 1_555
C7 N1 1_555 1_555
H5 C7 1_555 1_555
C8 H6 1_555 1_555
H7 C8 1_555 1_555
C9 C5 1_555 1_555
C10 C13 1_555 1_555
C11 C6 1_555 1_555
H8 C11 1_555 1_555
C12 N2 1_555 1_555
H9 C12 1_555 1_555
H10 C12 1_555 1_555
C13 O2 1_555 1_555
H11 C13 1_555 1_555
H12 C13 1_555 1_555
C14 C3 1_555 1_555
N4 C10 1_555 1_555
H13 N4 1_555 1_555
C15 C11 1_555 1_555
H14 C15 1_555 1_555
C16 C12 1_555 1_555
H15 C16 1_555 1_555
H16 C16 1_555 1_555
C17 H17 1_555 1_555
H18 C17 1_555 1_555
C18 N3 1_555 1_555
C19 C18 1_555 1_555
H19 C19 1_555 1_555
H20 C19 1_555 1_555
H21 C19 1_555 1_555
C20 C16 1_555 1_555
H22 C20 1_555 1_555
H23 C20 1_555 1_555
C21 C17 1_555 1_555
H24 C21 1_555 1_555
H25 C21 1_555 1_555
C22 C17 1_555 1_555
H26 C22 1_555 1_555
H27 C22 1_555 1_555
C23 N4 1_555 1_555
H28 C23 1_555 1_555
H29 C23 1_555 1_555
C24 C20 1_555 1_555
H30 C24 1_555 1_555
H31 C24 1_555 1_555
C25 C18 1_555 1_555
H32 C25 1_555 1_555
H33 C25 1_555 1_555
H34 C25 1_555 1_555
C26 C18 1_555 1_555
H35 C26 1_555 1_555
H36 C26 1_555 1_555
H37 C26 1_555 1_555
C1 C5 1_555 1_555
C3 C4 1_555 1_555
C6 C9 1_555 1_555
C7 C9 1_555 1_555
C14 C15 1_555 1_555
C21 C23 1_555 1_555
C22 C24 1_555 1_555

#END
