
#######################################################################
#
#                 Cambridge Crystallographic Data Centre
#                                CCDC 
#
#######################################################################
#
# If this CIF has been generated from an entry in the Cambridge 
# Structural Database, then it will include bibliographic, chemical, 
# crystal, experimental, refinement or atomic coordinate data resulting 
# from the CCDC's data processing and validation procedures.
#
#######################################################################

data_CEHHEC
_chemical_formula_moiety         'C12 H26 N2 O4,2(C8 H9 N5)'
_chemical_name_systematic        
'Diaza-18-crown-6 bis(2-guanidinobenzimidazole)'
_symmetry_cell_setting           monoclinic
_symmetry_space_group_name_H-M   'C 2/c'
_symmetry_Int_Tables_number      15
_space_group_name_Hall           '-C 2yn'
loop_
_symmetry_equiv_pos_site_id
_symmetry_equiv_pos_as_xyz
1 x,y,z
2 1/2+x,1/2+y,z
3 -x,y,1/2-z
4 1/2-x,1/2+y,1/2-z
5 -x,-y,-z
6 1/2-x,1/2-y,-z
7 x,-y,1/2+z
8 1/2+x,1/2-y,1/2+z
_cell_length_a                   21.27(1)
_cell_length_b                   8.191(3)
_cell_length_c                   18.26(1)
_cell_angle_alpha                90
_cell_angle_beta                 93.10(6)
_cell_angle_gamma                90
_cell_volume                     3176.65
_chemical_melting_point          205-40deg.C
_cell_formula_units_Z            4
loop_
_atom_site_label
_atom_site_type_symbol
_atom_site_fract_x
_atom_site_fract_y
_atom_site_fract_z
O1 O 0.41150 0.15370 -0.10470
C1 C 0.44110 0.21130 -0.16800
C2 C 0.50100 0.29490 -0.14380
N1 N 0.54490 0.17690 -0.10740
C3 C 0.60730 0.24040 -0.09400
C4 C 0.65160 0.12220 -0.05780
O2 O 0.63180 0.08240 0.01230
C5 C 0.67400 -0.01850 0.05280
C6 C 0.35480 0.06680 -0.12200
H1 H 0.45100 0.11510 -0.19900
H2 H 0.41270 0.28740 -0.19680
H3 H 0.52070 0.34220 -0.18750
H4 H 0.49150 0.38430 -0.10880
H5 H 0.62440 0.27570 -0.14140
H6 H 0.60440 0.33690 -0.06070
H7 H 0.65220 0.02140 -0.08880
H8 H 0.69500 0.16940 -0.05250
H9 H 0.68340 -0.11850 0.02390
H10 H 0.71380 0.04340 0.06430
H11 H 0.32450 0.13630 -0.15190
H12 H 0.36500 -0.03310 -0.15060
C6D C 0.64520 -0.06680 0.12200
C5D C 0.32600 0.01850 -0.05280
O1D O 0.58850 -0.15370 0.10470
H11D H 0.67550 -0.13630 0.15190
H12D H 0.63500 0.03310 0.15060
O2D O 0.36820 -0.08240 -0.01230
H9D H 0.31660 0.11850 -0.02390
H10D H 0.28620 -0.04340 -0.06430
C1D C 0.55890 -0.21130 0.16800
C4D C 0.34840 -0.12220 0.05780
C2D C 0.49900 -0.29490 0.14380
H1D H 0.54900 -0.11510 0.19900
H2D H 0.58730 -0.28740 0.19680
C3D C 0.39270 -0.24040 0.09400
H7D H 0.34780 -0.02140 0.08880
H8D H 0.30500 -0.16940 0.05250
N1D N 0.45510 -0.17690 0.10740
H3D H 0.47930 -0.34220 0.18750
H4D H 0.50850 -0.38430 0.10880
H5D H 0.37560 -0.27570 0.14140
H6D H 0.39560 -0.33690 0.06070
N2 N 0.41120 0.31920 0.04150
N3 N 0.50550 0.17350 0.04700
C7 C 0.45700 0.23980 0.08140
N4 N 0.45830 0.22650 0.15400
C8 C 0.41320 0.29690 0.19350
N5 N 0.36240 0.37830 0.17170
C9 C 0.33550 0.43100 0.23520
C10 C 0.28300 0.52780 0.24500
C11 C 0.26770 0.56190 0.31640
C12 C 0.30400 0.50450 0.37620
C13 C 0.35720 0.41060 0.36780
C14 C 0.37220 0.37550 0.29670
N6 N 0.42180 0.28810 0.26890
H13 H 0.25680 0.56970 0.20190
H14 H 0.23010 0.63150 0.32490
H15 H 0.29150 0.53170 0.42680
H16 H 0.38360 0.36880 0.41070
loop_
_geom_bond_atom_site_label_1
_geom_bond_atom_site_label_2
_geom_bond_site_symmetry_1
_geom_bond_site_symmetry_2
O1 C1 1_555 1_555
C1 C2 1_555 1_555
C2 N1 1_555 1_555
N1 C3 1_555 1_555
C3 C4 1_555 1_555
C4 O2 1_555 1_555
O2 C5 1_555 1_555
C5 H9 1_555 1_555
C6 O1 1_555 1_555
N2 C7 1_555 1_555
N3 C7 1_555 1_555
C7 N4 1_555 1_555
N4 C8 1_555 1_555
C8 N5 1_555 1_555
N5 C9 1_555 1_555
C9 C10 1_555 1_555
C10 C11 1_555 1_555
C11 C12 1_555 1_555
C12 C13 1_555 1_555
C13 C14 1_555 1_555
C14 C9 1_555 1_555
N6 C8 1_555 1_555
H1 C1 1_555 1_555
H2 C1 1_555 1_555
H3 C2 1_555 1_555
H4 C2 1_555 1_555
H5 C3 1_555 1_555
H6 C3 1_555 1_555
H7 C4 1_555 1_555
H8 C4 1_555 1_555
H10 C5 1_555 1_555
H11 C6 1_555 1_555
H12 C6 1_555 1_555
H13 C10 1_555 1_555
H14 C11 1_555 1_555
H15 C12 1_555 1_555
H16 C13 1_555 1_555
C6D C5 1_555 1_555
C5D C6 1_555 1_555
O1D C6D 1_555 1_555
H11D C6D 1_555 1_555
H12D C6D 1_555 1_555
O2D C5D 1_555 1_555
H9D C5D 1_555 1_555
H10D C5D 1_555 1_555
C1D O1D 1_555 1_555
C4D O2D 1_555 1_555
C2D C1D 1_555 1_555
H1D C1D 1_555 1_555
H2D C1D 1_555 1_555
C3D C4D 1_555 1_555
H7D C4D 1_555 1_555
H8D C4D 1_555 1_555
N1D C2D 1_555 1_555
H3D C2D 1_555 1_555
H4D C2D 1_555 1_555
H5D C3D 1_555 1_555
H6D C3D 1_555 1_555
C14 N6 1_555 1_555
C3D N1D 1_555 1_555

#END
