
#######################################################################
#
#                 Cambridge Crystallographic Data Centre
#                                CCDC 
#
#######################################################################
#
# If this CIF has been generated from an entry in the Cambridge 
# Structural Database, then it will include bibliographic, chemical, 
# crystal, experimental, refinement or atomic coordinate data resulting 
# from the CCDC's data processing and validation procedures.
#
#######################################################################

data_CEHJAD
_chemical_formula_moiety         'C18 H22 O6'
_chemical_name_systematic        
"dimethyl 2,2'-(1,4-phenylenedicarbonyl)bis(2-methylpropanoate)"
_symmetry_cell_setting           triclinic
_symmetry_space_group_name_H-M   'P -1'
_symmetry_Int_Tables_number      2
_space_group_name_Hall           '-P 1'
loop_
_symmetry_equiv_pos_site_id
_symmetry_equiv_pos_as_xyz
1 x,y,z
2 -x,-y,-z
_cell_length_a                   5.96830(10)
_cell_length_b                   11.8288(3)
_cell_length_c                   12.2029(3)
_cell_angle_alpha                94.8482(9)
_cell_angle_beta                 101.6305(9)
_cell_angle_gamma                100.0914(9)
_cell_volume                     824.316
_exptl_crystal_colour            colorless
_exptl_crystal_description       block
_cell_formula_units_Z            2
loop_
_atom_site_label
_atom_site_type_symbol
_atom_site_fract_x
_atom_site_fract_y
_atom_site_fract_z
C1 C 0.21477(17) 0.63654(8) 0.13489(8)
C2 C 0.28021(18) 0.57622(9) 0.04669(9)
H1 H 0.3592 0.5142 0.0615
C3 C 0.23153(18) 0.60563(9) -0.06183(9)
H2 H 0.2788 0.5643 -0.1205
C4 C 0.11294(17) 0.69599(8) -0.08559(8)
C5 C 0.05352(18) 0.75812(9) 0.00271(9)
H3 H -0.0232 0.821 -0.0118
C6 C 0.10495(18) 0.72942(9) 0.11188(9)
H4 H 0.065 0.7734 0.1713
C7 C 0.26460(17) 0.59573(9) 0.24941(9)
C8 C 0.18531(18) 0.65352(9) 0.34936(9)
C9 C 0.2836(2) 0.60405(10) 0.45751(9)
H5 H 0.4541 0.6172 0.4704
H6 H 0.2203 0.5208 0.4493
H7 H 0.239 0.6427 0.5217
C10 C -0.08206(19) 0.63054(10) 0.32892(10)
H8 H -0.1284 0.6689 0.3928
H9 H -0.1424 0.547 0.3213
H10 H -0.146 0.6611 0.2596
C11 C 0.28641(18) 0.78324(9) 0.36899(8)
C12 C 0.6270(2) 0.92304(9) 0.37721(10)
H11 H 0.5444 0.9673 0.3238
H12 H 0.7871 0.928 0.3671
H13 H 0.6303 0.955 0.4544
C13 C 0.05493(17) 0.72026(8) -0.20601(8)
C14 C -0.09196(18) 0.81201(9) -0.23971(9)
C15 C -0.34342(19) 0.77046(10) -0.22792(10)
H14 H -0.3442 0.7625 -0.1487
H15 H -0.4086 0.6954 -0.2739
H16 H -0.4381 0.8269 -0.2537
C16 C -0.0926(2) 0.83045(10) -0.36324(9)
H17 H -0.1696 0.8951 -0.3825
H18 H -0.1771 0.76 -0.4129
H19 H 0.0684 0.8481 -0.3729
C17 C 0.01292(18) 0.92990(9) -0.17109(8)
C18 C 0.3625(2) 1.06690(9) -0.10003(10)
H20 H 0.2999 1.1256 -0.1422
H21 H 0.5303 1.0766 -0.0967
H22 H 0.336 1.0757 -0.0233
O1 O 0.36088(14) 0.51398(7) 0.26142(7)
O2 O 0.18743(15) 0.85819(7) 0.39542(7)
O3 O 0.50765(13) 0.80314(6) 0.35702(7)
O4 O 0.11608(14) 0.66360(7) -0.27816(7)
O5 O -0.09730(14) 0.99703(7) -0.13897(7)
O6 O 0.24604(13) 0.95273(6) -0.15601(7)
loop_
_geom_bond_atom_site_label_1
_geom_bond_atom_site_label_2
_geom_bond_site_symmetry_1
_geom_bond_site_symmetry_2
C1 C2 1_555 1_555
C2 H1 1_555 1_555
C3 C2 1_555 1_555
H2 C3 1_555 1_555
C4 C3 1_555 1_555
C5 C4 1_555 1_555
H3 C5 1_555 1_555
C6 C1 1_555 1_555
H4 C6 1_555 1_555
C7 C1 1_555 1_555
C8 C7 1_555 1_555
C9 C8 1_555 1_555
H5 C9 1_555 1_555
H6 C9 1_555 1_555
H7 C9 1_555 1_555
C10 C8 1_555 1_555
H8 C10 1_555 1_555
H9 C10 1_555 1_555
H10 C10 1_555 1_555
C11 C8 1_555 1_555
C12 H11 1_555 1_555
H12 C12 1_555 1_555
H13 C12 1_555 1_555
C13 C4 1_555 1_555
C14 C13 1_555 1_555
C15 C14 1_555 1_555
H14 C15 1_555 1_555
H15 C15 1_555 1_555
H16 C15 1_555 1_555
C16 C14 1_555 1_555
H17 C16 1_555 1_555
H18 C16 1_555 1_555
H19 C16 1_555 1_555
C17 C14 1_555 1_555
C18 H20 1_555 1_555
H21 C18 1_555 1_555
H22 C18 1_555 1_555
O1 C7 1_555 1_555
O2 C11 1_555 1_555
O3 C11 1_555 1_555
O4 C13 1_555 1_555
O5 C17 1_555 1_555
O6 C17 1_555 1_555
C5 C6 1_555 1_555
C12 O3 1_555 1_555
C18 O6 1_555 1_555

#END
