
#######################################################################
#
#                 Cambridge Crystallographic Data Centre
#                                CCDC 
#
#######################################################################
#
# If this CIF has been generated from an entry in the Cambridge 
# Structural Database, then it will include bibliographic, chemical, 
# crystal, experimental, refinement or atomic coordinate data resulting 
# from the CCDC's data processing and validation procedures.
#
#######################################################################

data_CEHMUY
_chemical_name_common            syn-(5-(Tricyanovinyl)-2,2'-bithiophene)
_chemical_formula_moiety         'C13 H5 N3 S2'
_chemical_name_systematic        
syn-(5-(2,2,1-Tricyanoethenyl)-2,2'-bithienyl)
_symmetry_cell_setting           orthorhombic
_symmetry_space_group_name_H-M   'P n a 21'
_symmetry_Int_Tables_number      33
_space_group_name_Hall           'P 2c -2n'
loop_
_symmetry_equiv_pos_site_id
_symmetry_equiv_pos_as_xyz
1 x,y,z
2 -x,-y,1/2+z
3 1/2-x,1/2+y,1/2+z
4 1/2+x,1/2-y,z
_cell_length_a                   7.8613(10)
_cell_length_b                   24.495(3)
_cell_length_c                   6.1207(8)
_cell_angle_alpha                90
_cell_angle_beta                 90
_cell_angle_gamma                90
_cell_volume                     1178.62
_exptl_crystal_colour            red
_cell_formula_units_Z            4
loop_
_atom_site_label
_atom_site_type_symbol
_atom_site_fract_x
_atom_site_fract_y
_atom_site_fract_z
S1 S 0.59766(6) 0.730917(18) 0.97676(11)
S2 S 0.53667(7) 0.85805(2) 0.82591(10)
C1 C 0.5107(3) 0.62009(8) 0.7955(4)
C2 C 0.6046(3) 0.53655(8) 0.9763(5)
N1 N 0.6131(3) 0.49001(7) 0.9707(5)
C3 C 0.5939(3) 0.59516(7) 0.9777(5)
N2 N 0.4469(3) 0.64021(7) 0.6479(4)
N3 N 0.8088(3) 0.57169(7) 1.4570(4)
C4 C 0.7325(3) 0.71026(9) 1.3505(4)
C5 C 0.7250(3) 0.76692(8) 1.3357(4)
C6 C 0.6669(3) 0.68370(8) 1.1691(4)
C7 C 0.5739(3) 0.92615(9) 0.8680(5)
C8 C 0.6553(3) 0.78514(8) 1.1414(4)
C9 C 0.6927(3) 0.88728(8) 1.1785(4)
C10 C 0.6626(3) 0.62542(8) 1.1442(4)
C11 C 0.7436(3) 0.59457(8) 1.3187(4)
C12 C 0.6347(3) 0.84092(8) 1.0699(4)
C13 C 0.6563(3) 0.93543(9) 1.0588(4)
H1 H 0.741(3) 0.8860(8) 1.293(4)
H2 H 0.774(3) 0.6902(10) 1.477(5)
H3 H 0.540(3) 0.9518(10) 0.763(5)
H4 H 0.689(3) 0.9677(11) 1.105(5)
H5 H 0.756(3) 0.7900(10) 1.429(5)
loop_
_geom_bond_atom_site_label_1
_geom_bond_atom_site_label_2
_geom_bond_site_symmetry_1
_geom_bond_site_symmetry_2
S1 C6 1_555 1_555
S2 C7 1_555 1_555
C1 C3 1_555 1_555
C2 N1 1_555 1_555
C3 C2 1_555 1_555
N2 C1 1_555 1_555
N3 C11 1_555 1_555
C4 C5 1_555 1_555
C5 C8 1_555 1_555
C6 C4 1_555 1_555
C7 C13 1_555 1_555
C8 S1 1_555 1_555
C9 C12 1_555 1_555
C10 C3 1_555 1_555
C11 C10 1_555 1_555
C12 S2 1_555 1_555
C13 C9 1_555 1_555
H1 C9 1_555 1_555
H2 C4 1_555 1_555
H3 C7 1_555 1_555
H4 C13 1_555 1_555
H5 C5 1_555 1_555
C6 C10 1_555 1_555
C8 C12 1_555 1_555

#END
