
#######################################################################
#
#                 Cambridge Crystallographic Data Centre
#                                CCDC 
#
#######################################################################
#
# If this CIF has been generated from an entry in the Cambridge 
# Structural Database, then it will include bibliographic, chemical, 
# crystal, experimental, refinement or atomic coordinate data resulting 
# from the CCDC's data processing and validation procedures.
#
#######################################################################

data_CEHNAF
_chemical_name_common            
anti-(5-(Tricyanovinyl)-2,2':5',2''-terthiophene)
_chemical_formula_moiety         'C17 H7 N3 S3'
_chemical_name_systematic        
anti-(5-(2,2,1-Tricyanoethenyl)-2,2':5',2''-terthienyl)
_symmetry_cell_setting           monoclinic
_symmetry_space_group_name_H-M   'P 21/c'
_symmetry_Int_Tables_number      14
_space_group_name_Hall           '-P 2ybc'
loop_
_symmetry_equiv_pos_site_id
_symmetry_equiv_pos_as_xyz
1 x,y,z
2 -x,1/2+y,1/2-z
3 -x,-y,-z
4 x,1/2-y,1/2+z
_cell_length_a                   35.473(8)
_cell_length_b                   5.8036(13)
_cell_length_c                   15.078(3)
_cell_angle_alpha                90
_cell_angle_beta                 102.271(3)
_cell_angle_gamma                90
_cell_volume                     3033.21
_exptl_crystal_colour            red
_cell_formula_units_Z            8
loop_
_atom_site_label
_atom_site_type_symbol
_atom_site_fract_x
_atom_site_fract_y
_atom_site_fract_z
S1 S 0.40161(8) 0.7270(5) 0.0733(2)
S2 S 0.62235(7) 0.6770(5) 0.1154(2)
S3 S 0.51442(8) 0.3906(5) 0.1586(2)
C1 C 0.4234(3) 0.3265(18) 0.1516(7)
H1 H 0.4384 0.1985 0.1777
C2 C 0.4777(3) 0.584(2) 0.1179(8)
C3 C 0.3827(3) 0.344(2) 0.1387(8)
H2 H 0.3670 0.2271 0.1563
C4 C 0.6463(3) 0.298(2) 0.1973(8)
H3 H 0.6622 0.1756 0.2254
C5 C 0.4383(3) 0.5325(18) 0.1189(7)
C6 C 0.5493(3) 0.570(2) 0.1321(7)
C7 C 0.6065(3) 0.309(2) 0.1923(8)
H4 H 0.5927 0.1912 0.2159
C8 C 0.7148(3) 0.703(2) 0.1122(8)
C9 C 0.3682(3) 0.546(2) 0.0984(8)
H5 H 0.3415 0.5820 0.0857
N1 N 0.7474(3) 0.216(2) 0.2337(9)
C10 C 0.7268(3) 0.3508(19) 0.1999(8)
C11 C 0.6916(3) 0.885(2) 0.0624(8)
N2 N 0.6741(3) 1.020(2) 0.0232(8)
C12 C 0.4924(3) 0.775(2) 0.0880(9)
H6 H 0.4769 0.9022 0.0632
C13 C 0.5892(3) 0.5003(19) 0.1510(7)
C14 C 0.6596(3) 0.481(2) 0.1580(7)
C15 C 0.6987(3) 0.523(2) 0.1522(8)
N3 N 0.7886(3) 0.744(2) 0.1291(8)
C16 C 0.7563(3) 0.727(2) 0.1235(8)
C17 C 0.5331(3) 0.771(2) 0.0965(8)
H7 H 0.5474 0.8947 0.0792
S4 S 0.12160(8) 0.3251(5) 0.0073(2)
S5 S -0.09931(8) 0.2677(5) -0.1724(2)
S6 S 0.01269(8) 0.6068(5) -0.1444(2)
C18 C 0.1047(3) 0.696(2) -0.0858(8)
H8 H 0.0907 0.8158 -0.1213
C19 C 0.1443(3) 0.7058(18) -0.0516(8)
H9 H 0.1603 0.8279 -0.0641
C20 C -0.0780(3) 0.6662(18) -0.2277(7)
H10 H -0.0630 0.7945 -0.2385
C21 C 0.0321(3) 0.227(2) -0.0658(8)
H11 H 0.0468 0.1037 -0.0346
C22 C -0.0236(3) 0.4119(19) -0.1428(7)
C23 C -0.1335(3) 0.450(2) -0.2311(8)
H12 H -0.1602 0.4149 -0.2443
C24 C -0.0077(3) 0.216(2) -0.0978(8)
H13 H -0.0226 0.0850 -0.0895
N4 N 0.2880(3) 0.2903(19) 0.1571(8)
C25 C 0.0875(3) 0.495(2) -0.0630(7)
C26 C 0.2151(3) 0.310(2) 0.1019(8)
C27 C 0.1931(3) 0.135(2) 0.1313(8)
C28 C -0.0631(3) 0.4636(18) -0.1800(7)
C29 C -0.1192(3) 0.648(2) -0.2571(8)
H14 H -0.1348 0.7642 -0.2914
C30 C 0.0476(3) 0.4256(18) -0.0829(7)
N5 N 0.2438(3) 0.802(2) 0.0104(8)
C31 C 0.1581(3) 0.5179(19) 0.0027(7)
N6 N 0.1765(3) -0.0128(19) 0.1546(8)
C32 C 0.1981(3) 0.493(2) 0.0464(8)
C33 C 0.2246(4) 0.667(3) 0.0274(10)
C34 C 0.2565(3) 0.299(2) 0.1349(8)
loop_
_geom_bond_atom_site_label_1
_geom_bond_atom_site_label_2
_geom_bond_site_symmetry_1
_geom_bond_site_symmetry_2
S1 C5 1_555 1_555
S2 C13 1_555 1_555
S3 C2 1_555 1_555
C1 H1 1_555 1_555
C2 C5 1_555 1_555
C3 C1 1_555 1_555
H2 C3 1_555 1_555
C4 H3 1_555 1_555
C5 C1 1_555 1_555
C6 S3 1_555 1_555
C7 C4 1_555 1_555
H4 C7 1_555 1_555
C8 C11 1_555 1_555
C9 S1 1_555 1_555
H5 C9 1_555 1_555
N1 C10 1_555 1_555
C10 C15 1_555 1_555
C11 N2 1_555 1_555
C12 C2 1_555 1_555
H6 C12 1_555 1_555
C13 C6 1_555 1_555
C14 S2 1_555 1_555
C15 C8 1_555 1_555
N3 C16 1_555 1_555
C16 C8 1_555 1_555
C17 C6 1_555 1_555
H7 C17 1_555 1_555
S4 C25 1_555 1_555
S5 C23 1_555 1_555
S6 C22 1_555 1_555
C18 H8 1_555 1_555
C19 C18 1_555 1_555
H9 C19 1_555 1_555
C20 H10 1_555 1_555
C21 H11 1_555 1_555
C22 C24 1_555 1_555
C23 H12 1_555 1_555
C24 C21 1_555 1_555
H13 C24 1_555 1_555
N4 C34 1_555 1_555
C25 C18 1_555 1_555
C26 C27 1_555 1_555
C27 N6 1_555 1_555
C28 S5 1_555 1_555
C29 C20 1_555 1_555
H14 C29 1_555 1_555
C30 S6 1_555 1_555
N5 C33 1_555 1_555
C31 S4 1_555 1_555
C32 C26 1_555 1_555
C33 C32 1_555 1_555
C34 C26 1_555 1_555
C3 C9 1_555 1_555
C4 C14 1_555 1_555
C7 C13 1_555 1_555
C12 C17 1_555 1_555
C14 C15 1_555 1_555
C19 C31 1_555 1_555
C20 C28 1_555 1_555
C21 C30 1_555 1_555
C22 C28 1_555 1_555
C23 C29 1_555 1_555
C25 C30 1_555 1_555
C31 C32 1_555 1_555

#END
