
#######################################################################
#
#                 Cambridge Crystallographic Data Centre
#                                CCDC 
#
#######################################################################
#
# If this CIF has been generated from an entry in the Cambridge 
# Structural Database, then it will include bibliographic, chemical, 
# crystal, experimental, refinement or atomic coordinate data resulting 
# from the CCDC's data processing and validation procedures.
#
#######################################################################

data_CEHPUD
_chemical_formula_moiety         'C18 H17 Cl1 N2 O3 S1'
_chemical_name_systematic        
3-(4-chlorophenyl)-5,5-dimethyl-1-[(4-methylphenyl)sulfonyl]-1,5-dihydro-4H-pyrazol-4-one
_symmetry_cell_setting           monoclinic
_symmetry_space_group_name_H-M   'P 21/n'
_symmetry_Int_Tables_number      14
_space_group_name_Hall           '-P 2yn'
loop_
_symmetry_equiv_pos_site_id
_symmetry_equiv_pos_as_xyz
1 x,y,z
2 1/2-x,1/2+y,1/2-z
3 -x,-y,-z
4 1/2+x,1/2-y,1/2+z
_cell_length_a                   13.2285(11)
_cell_length_b                   9.3407(8)
_cell_length_c                   14.9536(12)
_cell_angle_alpha                90
_cell_angle_beta                 95.0870(10)
_cell_angle_gamma                90
_cell_volume                     1840.44
_exptl_crystal_colour            yellow
_exptl_crystal_description       block
_cell_formula_units_Z            4
loop_
_atom_site_label
_atom_site_type_symbol
_atom_site_fract_x
_atom_site_fract_y
_atom_site_fract_z
Cl1 Cl 0.44358(12) 0.48493(16) 0.70682(8)
N1 N 0.4685(2) 0.0361(3) 0.2488(2)
N2 N 0.4318(2) 0.1092(3) 0.32029(19)
O1 O 0.6883(2) 0.1470(5) 0.3732(2)
O2 O 0.4378(2) -0.0677(3) 0.09903(19)
O3 O 0.2941(2) -0.0280(3) 0.19074(18)
S1 S 0.38642(7) 0.01911(11) 0.15889(6)
C1 C 0.5054(3) 0.1542(4) 0.3749(2)
C2 C 0.6039(3) 0.1199(5) 0.3399(3)
C3 C 0.5801(3) 0.0489(5) 0.2495(3)
C4 C 0.4900(3) 0.2336(4) 0.4570(2)
C5 C 0.4051(3) 0.3167(5) 0.4620(3)
H1 H 0.3568 0.3208 0.4130
C6 C 0.3902(3) 0.3944(5) 0.5385(3)
H2 H 0.3324 0.4505 0.5409
C7 C 0.4611(4) 0.3876(5) 0.6103(3)
C8 C 0.5464(4) 0.3049(6) 0.6069(3)
H3 H 0.5943 0.3008 0.6563
C9 C 0.5613(3) 0.2277(5) 0.5303(3)
H4 H 0.6193 0.1720 0.5280
C10 C 0.6159(3) 0.1475(5) 0.1777(3)
H5 H 0.6038 0.1027 0.1200
H6 H 0.6873 0.1656 0.1901
H7 H 0.5794 0.2363 0.1778
C11 C 0.6315(4) -0.0981(5) 0.2470(4)
H8 H 0.6194 -0.1510 0.3001
H9 H 0.7032 -0.0856 0.2444
H10 H 0.6040 -0.1498 0.1949
C12 C 0.3684(2) 0.1899(4) 0.1125(2)
C13 C 0.3203(3) 0.2957(5) 0.1588(2)
H11 H 0.2958 0.2751 0.2137
C14 C 0.3093(3) 0.4299(5) 0.1230(3)
H12 H 0.2780 0.5004 0.1548
C15 C 0.3434(3) 0.4639(5) 0.0406(3)
C16 C 0.3908(3) 0.3555(5) -0.0037(3)
H13 H 0.4149 0.3757 -0.0589
C17 C 0.4032(3) 0.2204(5) 0.0306(2)
H14 H 0.4348 0.1500 -0.0010
C18 C 0.3288(4) 0.6093(5) 0.0006(3)
H15 H 0.3687 0.6183 -0.0497
H16 H 0.3498 0.6803 0.0448
H17 H 0.2584 0.6230 -0.0192
loop_
_geom_bond_atom_site_label_1
_geom_bond_atom_site_label_2
_geom_bond_site_symmetry_1
_geom_bond_site_symmetry_2
Cl1 C7 1_555 1_555
N1 N2 1_555 1_555
N2 C1 1_555 1_555
O1 C2 1_555 1_555
O2 S1 1_555 1_555
O3 S1 1_555 1_555
S1 N1 1_555 1_555
C1 C2 1_555 1_555
C2 C3 1_555 1_555
C3 N1 1_555 1_555
C4 C1 1_555 1_555
C5 C4 1_555 1_555
H1 C5 1_555 1_555
C6 C5 1_555 1_555
H2 C6 1_555 1_555
C7 C6 1_555 1_555
C8 C7 1_555 1_555
H3 C8 1_555 1_555
C9 C4 1_555 1_555
H4 C9 1_555 1_555
C10 C3 1_555 1_555
H5 C10 1_555 1_555
H6 C10 1_555 1_555
H7 C10 1_555 1_555
C11 C3 1_555 1_555
H8 C11 1_555 1_555
H9 C11 1_555 1_555
H10 C11 1_555 1_555
C12 S1 1_555 1_555
C13 C12 1_555 1_555
H11 C13 1_555 1_555
C14 C13 1_555 1_555
H12 C14 1_555 1_555
C15 C14 1_555 1_555
C16 C15 1_555 1_555
H13 C16 1_555 1_555
C17 C12 1_555 1_555
H14 C17 1_555 1_555
C18 C15 1_555 1_555
H15 C18 1_555 1_555
H16 C18 1_555 1_555
H17 C18 1_555 1_555
C8 C9 1_555 1_555
C16 C17 1_555 1_555

#END
