
#######################################################################
#
#                 Cambridge Crystallographic Data Centre
#                                CCDC 
#
#######################################################################
#
# If this CIF has been generated from an entry in the Cambridge 
# Structural Database, then it will include bibliographic, chemical, 
# crystal, experimental, refinement or atomic coordinate data resulting 
# from the CCDC's data processing and validation procedures.
#
#######################################################################

data_CEHWAQ
_chemical_formula_moiety         'C24 H35 N3 O3'
_chemical_name_systematic        
N-benzyl-1-(9,9-dimethyl-7,11-dioxo-1,6-diazacycloundecan-1-yl)cyclopentanecarboxamide
_symmetry_cell_setting           monoclinic
_symmetry_space_group_name_H-M   'C c'
_symmetry_Int_Tables_number      9
_space_group_name_Hall           'C -2yc'
loop_
_symmetry_equiv_pos_site_id
_symmetry_equiv_pos_as_xyz
1 x,y,z
2 x,-y,1/2+z
3 1/2+x,1/2+y,z
4 1/2+x,1/2-y,1/2+z
_cell_length_a                   14.0931(5)
_cell_length_b                   13.5578(4)
_cell_length_c                   12.0951(5)
_cell_angle_alpha                90
_cell_angle_beta                 108.895(4)
_cell_angle_gamma                90
_cell_volume                     2186.5
_exptl_crystal_colour            white
_exptl_crystal_description       prism
_cell_formula_units_Z            4
loop_
_atom_site_label
_atom_site_type_symbol
_atom_site_fract_x
_atom_site_fract_y
_atom_site_fract_z
O1 O 0.26094(14) 0.26835(13) 0.77854(16)
O2 O 0.19371(13) 0.36344(13) 0.95639(15)
N1 N 0.15988(16) 0.40024(15) 0.72218(19)
O3 O 0.44160(15) 0.60215(15) 0.90529(18)
N2 N 0.11344(16) 0.21734(16) 0.91298(19)
C1 C 0.08472(18) 0.34212(17) 0.7567(2)
N3 N 0.30057(16) 0.53028(16) 0.91740(19)
C2 C -0.08588(18) 0.32005(18) 0.7561(2)
H1 H -0.1549 0.347 0.7303
H2 H -0.0721 0.2891 0.8338
C3 C 0.2161(2) 0.0011(2) 1.0973(3)
H3 H 0.1795 0.0062 1.1506
C4 C 0.13745(17) 0.30735(18) 0.8839(2)
C5 C 0.39528(19) 0.52701(19) 0.9154(2)
C6 C 0.2692(2) 0.0706(2) 0.9435(2)
H4 H 0.2696 0.1234 0.892
C7 C 0.43925(19) 0.3888(2) 0.7982(2)
C8 C 0.2429(2) 0.6214(2) 0.8914(2)
H5 H 0.2867 0.6767 0.9311
H6 H 0.1871 0.6169 0.9241
C9 C 0.12563(19) 0.48386(18) 0.6402(2)
H7 H 0.0621 0.4641 0.5802
H8 H 0.1757 0.4938 0.5998
C10 C 0.24845(18) 0.35202(18) 0.7371(2)
C11 C 0.15948(18) 0.17385(18) 1.0280(2)
H9 H 0.1068 0.1595 1.0635
H10 H 0.2067 0.2219 1.0789
C12 C 0.03805(18) 0.25826(18) 0.6682(2)
H11 H 0.0396 0.276 0.5895
H12 H 0.076 0.1962 0.6929
C13 C -0.07162(19) 0.2455(2) 0.6666(2)
H13 H -0.1191 0.2594 0.5877
H14 H -0.0831 0.1774 0.6888
C14 C 0.3230(2) -0.0930(2) 1.0163(3)
H15 H 0.3595 -0.1514 1.0142
C15 C 0.1082(2) 0.58364(19) 0.6903(2)
H16 H 0.0666 0.5717 0.7411
H17 H 0.0679 0.6249 0.6243
C16 C 0.33364(19) 0.40203(18) 0.7067(2)
H18 H 0.3189 0.4735 0.6964
H19 H 0.335 0.3758 0.6309
C17 C 0.2702(2) -0.0845(2) 1.0950(3)
H20 H 0.2709 -0.1371 1.1472
C18 C 0.3219(2) -0.0154(2) 0.9409(3)
H21 H 0.3578 -0.0213 0.8869
C19 C 0.43973(19) 0.42490(19) 0.9203(2)
H22 H 0.4009 0.3781 0.9516
H23 H 0.5096 0.4255 0.9744
C20 C -0.00890(18) 0.40102(17) 0.7594(2)
H24 H 0.0061 0.4408 0.8317
H25 H -0.0333 0.4452 0.6909
C21 C 0.21535(19) 0.07948(18) 1.0220(2)
C22 C 0.4760(2) 0.2816(2) 0.8094(3)
H26 H 0.4737 0.2569 0.7324
H27 H 0.4327 0.2409 0.84
H28 H 0.5451 0.2786 0.8629
C23 C 0.5119(2) 0.4505(2) 0.7543(3)
H29 H 0.5795 0.4469 0.8113
H30 H 0.4895 0.5193 0.7447
H31 H 0.5128 0.4244 0.679
C24 C 0.1997(2) 0.64451(19) 0.7608(2)
H32 H 0.2534 0.6349 0.7256
H33 H 0.1808 0.7151 0.7521
H34 H 0.068(3) 0.184(3) 0.867(3)
H35 H 0.270(3) 0.477(3) 0.925(3)
loop_
_geom_bond_atom_site_label_1
_geom_bond_atom_site_label_2
_geom_bond_site_symmetry_1
_geom_bond_site_symmetry_2
O1 C10 1_555 1_555
O2 C4 1_555 1_555
N1 C1 1_555 1_555
O3 C5 1_555 1_555
N2 C4 1_555 1_555
C1 C4 1_555 1_555
N3 C5 1_555 1_555
C2 H1 1_555 1_555
H2 C2 1_555 1_555
C3 H3 1_555 1_555
C5 C19 1_555 1_555
C6 H4 1_555 1_555
C7 C16 1_555 1_555
C8 N3 1_555 1_555
H5 C8 1_555 1_555
H6 C8 1_555 1_555
C9 N1 1_555 1_555
H7 C9 1_555 1_555
H8 C9 1_555 1_555
C10 N1 1_555 1_555
C11 N2 1_555 1_555
H9 C11 1_555 1_555
H10 C11 1_555 1_555
C12 C1 1_555 1_555
H11 C12 1_555 1_555
H12 C12 1_555 1_555
C13 C2 1_555 1_555
H13 C13 1_555 1_555
H14 C13 1_555 1_555
C14 H15 1_555 1_555
C15 C9 1_555 1_555
H16 C15 1_555 1_555
H17 C15 1_555 1_555
C16 C10 1_555 1_555
H18 C16 1_555 1_555
H19 C16 1_555 1_555
C17 C3 1_555 1_555
H20 C17 1_555 1_555
C18 C6 1_555 1_555
H21 C18 1_555 1_555
C19 C7 1_555 1_555
H22 C19 1_555 1_555
H23 C19 1_555 1_555
C20 C1 1_555 1_555
H24 C20 1_555 1_555
H25 C20 1_555 1_555
C21 C3 1_555 1_555
C22 C7 1_555 1_555
H26 C22 1_555 1_555
H27 C22 1_555 1_555
H28 C22 1_555 1_555
C23 C7 1_555 1_555
H29 C23 1_555 1_555
H30 C23 1_555 1_555
H31 C23 1_555 1_555
C24 C8 1_555 1_555
H32 C24 1_555 1_555
H33 C24 1_555 1_555
H34 N2 1_555 1_555
H35 N3 1_555 1_555
C2 C20 1_555 1_555
C6 C21 1_555 1_555
C11 C21 1_555 1_555
C12 C13 1_555 1_555
C14 C17 1_555 1_555
C14 C18 1_555 1_555
C15 C24 1_555 1_555

#END
