
#######################################################################
#
#                 Cambridge Crystallographic Data Centre
#                                CCDC 
#
#######################################################################
#
# If this CIF has been generated from an entry in the Cambridge 
# Structural Database, then it will include bibliographic, chemical, 
# crystal, experimental, refinement or atomic coordinate data resulting 
# from the CCDC's data processing and validation procedures.
#
#######################################################################

data_CEHYUL
_chemical_formula_moiety         'C22 H15 N3 O2'
_chemical_name_systematic        "4-(2,2':6',2''-Terpyridin-4'-yl)benzoic acid"
_symmetry_cell_setting           monoclinic
_symmetry_space_group_name_H-M   'P 21/c'
_symmetry_Int_Tables_number      14
_space_group_name_Hall           '-P 2ybc'
loop_
_symmetry_equiv_pos_site_id
_symmetry_equiv_pos_as_xyz
1 x,y,z
2 -x,1/2+y,1/2-z
3 -x,-y,-z
4 x,1/2-y,1/2+z
_cell_length_a                   10.194(2)
_cell_length_b                   7.1491(14)
_cell_length_c                   22.340(5)
_cell_angle_alpha                90
_cell_angle_beta                 90.56(3)
_cell_angle_gamma                90
_cell_volume                     1628.02
_exptl_crystal_colour            colorless
_exptl_crystal_description       chunk
_cell_formula_units_Z            4
loop_
_atom_site_label
_atom_site_type_symbol
_atom_site_fract_x
_atom_site_fract_y
_atom_site_fract_z
N1 N 0.43004(11) 0.30293(16) 0.35988(5)
O1 O -0.18815(10) 0.57924(15) 0.61540(4)
C1 C 0.38612(13) 0.30514(18) 0.54988(6)
N2 N 0.61683(11) 0.18780(15) 0.49341(5)
O2 O -0.12524(10) 0.53577(15) 0.71116(4)
C2 C 0.72583(13) 0.12767(18) 0.58751(6)
C3 C 0.02817(13) 0.48591(19) 0.63197(6)
N3 N 0.71374(12) 0.12098(18) 0.64703(5)
C4 C 0.26372(13) 0.36938(18) 0.57936(6)
C5 C 0.60841(13) 0.19228(18) 0.55320(6)
C6 C 0.51137(13) 0.24110(17) 0.46120(6)
C7 C 0.49647(13) 0.25286(18) 0.58288(6)
C8 C 0.05804(13) 0.53743(19) 0.57356(6)
C9 C 0.66282(15) 0.1817(2) 0.30934(7)
C10 C 0.23437(13) 0.32132(19) 0.63841(6)
C11 C 0.39451(13) 0.29631(19) 0.48765(6)
C12 C 0.84094(14) 0.0764(2) 0.55886(7)
C13 C 0.52844(13) 0.23877(18) 0.39493(6)
C14 C -0.10211(13) 0.53621(19) 0.65793(6)
C15 C 0.64618(14) 0.1752(2) 0.37046(6)
C16 C 0.11784(14) 0.3796(2) 0.66468(6)
C17 C 0.44785(15) 0.3064(2) 0.30057(6)
C18 C 0.17451(13) 0.48153(19) 0.54775(6)
C19 C 0.94702(15) 0.0168(2) 0.59318(7)
C20 C 0.56277(16) 0.2500(2) 0.27335(6)
C21 C 0.93514(15) 0.0074(2) 0.65446(7)
C22 C 0.81695(16) 0.0614(2) 0.67920(7)
H1 H 0.4990(14) 0.256(2) 0.6269(6)
H2 H 0.0978(16) 0.338(2) 0.7050(7)
H3 H 0.3183(16) 0.329(2) 0.4626(7)
H4 H 1.0075(18) -0.028(2) 0.6785(7)
H5 H 0.1935(16) 0.521(2) 0.5069(7)
H6 H 0.7168(17) 0.125(2) 0.3979(7)
H7 H 0.7406(18) 0.137(2) 0.2921(7)
H8 H 0.2976(16) 0.244(2) 0.6618(7)
H9 H -0.0042(15) 0.611(2) 0.5501(7)
H10 H 0.8432(18) 0.086(2) 0.5163(8)
H11 H 0.3782(17) 0.353(2) 0.2760(7)
H12 H 0.5683(17) 0.256(3) 0.2303(8)
H13 H -0.275(3) 0.619(3) 0.6295(10)
H14 H 0.8054(18) 0.059(2) 0.7241(8)
H15 H 1.0308(19) -0.019(3) 0.5745(8)
loop_
_geom_bond_atom_site_label_1
_geom_bond_atom_site_label_2
_geom_bond_site_symmetry_1
_geom_bond_site_symmetry_2
N1 C13 1_555 1_555
O1 C14 1_555 1_555
C1 C4 1_555 1_555
N2 C5 1_555 1_555
O2 C14 1_555 1_555
C2 N3 1_555 1_555
C3 C8 1_555 1_555
N3 C22 1_555 1_555
C4 C10 1_555 1_555
C5 C2 1_555 1_555
C6 N2 1_555 1_555
C7 C1 1_555 1_555
C8 C18 1_555 1_555
C9 C15 1_555 1_555
C10 C16 1_555 1_555
C11 C1 1_555 1_555
C12 C2 1_555 1_555
C13 C6 1_555 1_555
C14 C3 1_555 1_555
C15 C13 1_555 1_555
C16 C3 1_555 1_555
C17 N1 1_555 1_555
C18 C4 1_555 1_555
C19 C12 1_555 1_555
C20 C9 1_555 1_555
C21 C19 1_555 1_555
C22 C21 1_555 1_555
H1 C7 1_555 1_555
H2 C16 1_555 1_555
H3 C11 1_555 1_555
H4 C21 1_555 1_555
H5 C18 1_555 1_555
H6 C15 1_555 1_555
H7 C9 1_555 1_555
H8 C10 1_555 1_555
H9 C8 1_555 1_555
H10 C12 1_555 1_555
H11 C17 1_555 1_555
H12 C20 1_555 1_555
H13 O1 1_555 1_555
H14 C22 1_555 1_555
H15 C19 1_555 1_555
C5 C7 1_555 1_555
C6 C11 1_555 1_555
C17 C20 1_555 1_555

#END
