
#######################################################################
#
#                 Cambridge Crystallographic Data Centre
#                                CCDC 
#
#######################################################################
#
# If this CIF has been generated from an entry in the Cambridge 
# Structural Database, then it will include bibliographic, chemical, 
# crystal, experimental, refinement or atomic coordinate data resulting 
# from the CCDC's data processing and validation procedures.
#
#######################################################################

data_CEHYEW
_chemical_formula_moiety         'C24 H20 O2 S2'
_chemical_name_systematic        
3-benzyl-5-(benzylsulfanyl)-6-phenyl-1,4-oxathiin-2(3H)-one
_symmetry_cell_setting           triclinic
_symmetry_space_group_name_H-M   'P 1'
_symmetry_Int_Tables_number      1
_space_group_name_Hall           'P 1'
loop_
_symmetry_equiv_pos_site_id
_symmetry_equiv_pos_as_xyz
1 x,y,z
_cell_length_a                   10.118(2)
_cell_length_b                   10.990(3)
_cell_length_c                   18.549(4)
_cell_angle_alpha                88.854(7)
_cell_angle_beta                 81.932(6)
_cell_angle_gamma                88.667(6)
_cell_volume                     2041.33
_exptl_crystal_colour            colorless
_exptl_crystal_description       block
_cell_formula_units_Z            4
loop_
_atom_site_label
_atom_site_type_symbol
_atom_site_fract_x
_atom_site_fract_y
_atom_site_fract_z
S1 S 0.89678(10) 0.81413(8) 0.72198(6)
S2 S 0.88530(10) 0.92868(8) 0.86757(6)
O1 O 1.1417(2) 0.6882(2) 0.76075(14)
O2 O 1.1668(3) 0.6133(3) 0.64967(16)
C1 C 0.9410(4) 0.6542(3) 0.7069(2)
H1 H 0.9038 0.6065 0.7499
C2 C 1.0904(4) 0.6487(3) 0.7003(2)
C3 C 1.0615(4) 0.7467(3) 0.8181(2)
C4 C 0.9571(4) 0.8180(3) 0.8063(2)
C5 C 0.8880(4) 0.6064(4) 0.6404(2)
H2 H 0.9033 0.6659 0.6010
H3 H 0.9364 0.5322 0.6249
C6 C 0.7404(4) 0.5808(3) 0.6560(2)
C7 C 0.6982(4) 0.4746(4) 0.6927(2)
H4 H 0.7611 0.4206 0.7081
C8 C 0.5635(4) 0.4471(4) 0.7069(2)
H5 H 0.5366 0.3754 0.7315
C9 C 0.4697(4) 0.5274(4) 0.6842(2)
H6 H 0.3794 0.5099 0.6935
C10 C 0.5103(4) 0.6328(4) 0.6478(2)
H7 H 0.4472 0.6862 0.6322
C11 C 0.6445(4) 0.6606(4) 0.6341(2)
H8 H 0.6705 0.7332 0.6101
C12 C 1.1179(4) 0.7230(3) 0.8868(2)
C13 C 1.2561(4) 0.7156(3) 0.8861(2)
H9 H 1.3128 0.7284 0.8428
C14 C 1.3091(4) 0.6895(4) 0.9498(2)
H10 H 1.4013 0.6854 0.9489
C15 C 1.2266(5) 0.6694(4) 1.0145(2)
H11 H 1.2626 0.6514 1.0571
C16 C 1.0897(5) 0.6763(4) 1.0152(2)
H12 H 1.0333 0.6633 1.0587
C17 C 1.0359(4) 0.7024(4) 0.9521(2)
H13 H 0.9436 0.7062 0.9534
C18 C 0.7063(4) 0.8946(4) 0.8761(2)
H14 H 0.6557 0.9555 0.9062
H15 H 0.6779 0.8993 0.8283
C19 C 0.6766(4) 0.7707(3) 0.9090(2)
C20 C 0.6656(4) 0.6722(4) 0.8647(2)
H16 H 0.6698 0.6844 0.8147
C21 C 0.6484(5) 0.5559(4) 0.8944(3)
H17 H 0.6423 0.4905 0.8641
C22 C 0.6403(5) 0.5366(4) 0.9680(3)
H18 H 0.6299 0.4583 0.9876
C23 C 0.6477(4) 0.6332(5) 1.0129(3)
H19 H 0.6408 0.6205 1.0630
C24 C 0.6656(4) 0.7500(4) 0.9835(2)
H20 H 0.6702 0.8151 1.0143
S3 S -0.05979(9) 0.53453(8) 0.43795(5)
S4 S 0.01636(10) 0.66297(8) 0.29450(6)
O3 O 0.2066(2) 0.4131(2) 0.40481(13)
O4 O 0.1649(3) 0.3295(3) 0.51453(15)
C25 C -0.0242(4) 0.3726(3) 0.4514(2)
H21 H -0.0331 0.3300 0.4065
C26 C 0.1193(4) 0.3677(3) 0.4626(2)
C27 C 0.1613(4) 0.4761(3) 0.34570(19)
C28 C 0.0509(4) 0.5464(3) 0.3564(2)
C29 C -0.1182(4) 0.3154(4) 0.5139(2)
H22 H -0.0813 0.2372 0.5272
H23 H -0.1250 0.3674 0.5560
C30 C -0.2561(4) 0.2978(3) 0.49349(19)
C31 C -0.3596(4) 0.3821(4) 0.5101(2)
H24 H -0.3451 0.4521 0.5350
C32 C -0.4839(4) 0.3632(4) 0.4901(2)
H25 H -0.5527 0.4198 0.5025
C33 C -0.5067(4) 0.2620(4) 0.4522(2)
H26 H -0.5900 0.2502 0.4381
C34 C -0.4047(4) 0.1777(4) 0.4353(3)
H27 H -0.4197 0.1084 0.4098
C35 C -0.2805(4) 0.1948(4) 0.4557(2)
H28 H -0.2127 0.1369 0.4440
C36 C 0.2566(4) 0.4576(3) 0.2784(2)
C37 C 0.3931(4) 0.4504(3) 0.2811(2)
H29 H 0.4251 0.4602 0.3252
C38 C 0.4815(4) 0.4287(3) 0.2188(2)
H30 H 0.5727 0.4251 0.2211
C39 C 0.4361(4) 0.4123(4) 0.1531(2)
H31 H 0.4960 0.3980 0.1112
C40 C 0.2999(4) 0.4175(4) 0.1502(2)
H32 H 0.2688 0.4058 0.1060
C41 C 0.2097(4) 0.4397(3) 0.2119(2)
H33 H 0.1186 0.4428 0.2093
C42 C -0.1558(4) 0.6326(3) 0.2806(2)
H34 H -0.2128 0.6335 0.3273
H35 H -0.1872 0.6968 0.2502
C43 C -0.1668(4) 0.5120(4) 0.2454(2)
C44 C -0.1917(4) 0.4069(4) 0.2878(2)
H36 H -0.2101 0.4130 0.3381
C45 C -0.1897(5) 0.2943(4) 0.2569(3)
H37 H -0.2060 0.2251 0.2861
C46 C -0.1639(5) 0.2844(5) 0.1831(3)
H38 H -0.1593 0.2079 0.1622
C47 C -0.1445(5) 0.3870(6) 0.1390(3)
H39 H -0.1309 0.3800 0.0886
C48 C -0.1454(4) 0.5016(5) 0.1705(2)
H40 H -0.1316 0.5708 0.1410
S5 S 1.05142(9) 0.31240(8) 0.72475(5)
S6 S 0.98289(9) 0.42874(8) 0.87019(6)
O5 O 0.7890(2) 0.1932(2) 0.76270(13)
O6 O 0.8244(3) 0.1169(3) 0.65197(15)
C49 C 1.0185(4) 0.1528(3) 0.7097(2)
H41 H 1.0342 0.1046 0.7529
C50 C 0.8725(4) 0.1516(3) 0.7030(2)
C51 C 0.8378(4) 0.2496(3) 0.8205(2)
C52 C 0.9465(4) 0.3193(3) 0.8085(2)
C53 C 1.1076(4) 0.1032(4) 0.6439(2)
H42 H 1.0703 0.0288 0.6289
H43 H 1.1099 0.1617 0.6039
C54 C 1.2484(4) 0.0772(3) 0.6595(2)
C55 C 1.3516(4) 0.1556(4) 0.6350(2)
H44 H 1.3339 0.2266 0.6095
C56 C 1.4811(4) 0.1287(4) 0.6482(2)
H45 H 1.5498 0.1810 0.6309
C57 C 1.5078(4) 0.0252(5) 0.6866(3)
H46 H 1.5944 0.0076 0.6956
C58 C 1.4060(5) -0.0527(4) 0.7120(2)
H47 H 1.4241 -0.1227 0.7382
C59 C 1.2774(4) -0.0269(4) 0.6986(2)
H48 H 1.2093 -0.0798 0.7159
C60 C 0.7489(4) 0.2264(3) 0.88924(19)
C61 C 0.6114(4) 0.2251(3) 0.8907(2)
H49 H 0.5744 0.2433 0.8485
C62 C 0.5287(4) 0.1969(4) 0.9548(3)
H50 H 0.4366 0.1975 0.9556
C63 C 0.5827(5) 0.1681(4) 1.0171(2)
H51 H 0.5271 0.1500 1.0601
C64 C 0.7198(5) 0.1659(4) 1.0160(2)
H52 H 0.7564 0.1448 1.0579
C65 C 0.8026(4) 0.1953(3) 0.9522(2)
H53 H 0.8947 0.1943 0.9516
C66 C 1.1576(4) 0.3918(4) 0.8797(2)
H54 H 1.2109 0.3939 0.8320
H55 H 1.1909 0.4531 0.9091
C67 C 1.1733(4) 0.2685(3) 0.9145(2)
C68 C 1.2144(4) 0.1678(4) 0.8730(2)
H56 H 1.2371 0.1767 0.8228
C69 C 1.2219(5) 0.0543(4) 0.9055(3)
H57 H 1.2487 -0.0130 0.8770
C70 C 1.1902(5) 0.0397(4) 0.9796(3)
H58 H 1.1952 -0.0372 1.0010
C71 C 1.1512(4) 0.1384(5) 1.0218(3)
H59 H 1.1307 0.1287 1.0720
C72 C 1.1420(4) 0.2530(4) 0.9897(2)
H60 H 1.1149 0.3197 1.0186
S7 S 0.14090(10) 0.03205(8) 0.43582(5)
S8 S 0.13615(9) 0.16158(8) 0.29254(5)
O7 O -0.1049(2) -0.0834(2) 0.40216(13)
O8 O -0.1178(3) -0.1676(3) 0.51190(15)
C73 C 0.1035(4) -0.1290(3) 0.4489(2)
H61 H 0.1368 -0.1717 0.4039
C74 C -0.0467(4) -0.1300(3) 0.4598(2)
C75 C -0.0307(3) -0.0223(3) 0.34351(19)
C76 C 0.0721(4) 0.0468(3) 0.3542(2)
C77 C 0.1661(4) -0.1883(4) 0.5114(2)
H62 H 0.1476 -0.1378 0.5541
H63 H 0.1262 -0.2669 0.5234
C78 C 0.3155(4) -0.2052(3) 0.49146(19)
C79 C 0.3669(4) -0.3075(4) 0.4527(2)
H64 H 0.3092 -0.3659 0.4405
C80 C 0.5029(4) -0.3225(4) 0.4323(2)
H65 H 0.5357 -0.3904 0.4059
C81 C 0.5900(4) -0.2383(4) 0.4506(2)
H66 H 0.6814 -0.2491 0.4368
C82 C 0.5407(4) -0.1376(4) 0.4895(2)
H67 H 0.5992 -0.0806 0.5026
C83 C 0.4054(4) -0.1210(3) 0.5092(2)
H68 H 0.3735 -0.0521 0.5349
C84 C -0.0882(3) -0.0389(3) 0.27543(19)
C85 C -0.2255(4) -0.0395(3) 0.2760(2)
H69 H -0.2821 -0.0272 0.3194
C86 C -0.2787(4) -0.0583(4) 0.2126(3)
H70 H -0.3709 -0.0571 0.2134
C87 C -0.1965(5) -0.0788(4) 0.1483(3)
H71 H -0.2331 -0.0919 0.1059
C88 C -0.0594(5) -0.0798(4) 0.1467(2)
H72 H -0.0035 -0.0936 0.1033
C89 C -0.0056(4) -0.0601(3) 0.2103(2)
H73 H 0.0866 -0.0611 0.2093
C90 C 0.3159(4) 0.1254(3) 0.2789(2)
H74 H 0.3621 0.1886 0.2487
H75 H 0.3485 0.1248 0.3256
C91 C 0.3481(4) 0.0043(3) 0.2435(2)
C92 C 0.3681(4) -0.0994(4) 0.2858(2)
H76 H 0.3646 -0.0931 0.3360
C93 C 0.3928(5) -0.2115(4) 0.2533(3)
H77 H 0.4048 -0.2804 0.2819
C94 C 0.4000(5) -0.2216(4) 0.1789(3)
H78 H 0.4167 -0.2970 0.1572
C95 C 0.3821(4) -0.1189(4) 0.1363(3)
H79 H 0.3886 -0.1251 0.0860
C96 C 0.3545(4) -0.0070(4) 0.1690(2)
H80 H 0.3401 0.0613 0.1404
loop_
_geom_bond_atom_site_label_1
_geom_bond_atom_site_label_2
_geom_bond_site_symmetry_1
_geom_bond_site_symmetry_2
S1 C1 1_555 1_555
S2 C4 1_555 1_555
O1 C2 1_555 1_555
O2 C2 1_555 1_555
C1 H1 1_555 1_555
C2 C1 1_555 1_555
C3 O1 1_555 1_555
C4 S1 1_555 1_555
C5 C1 1_555 1_555
H2 C5 1_555 1_555
H3 C5 1_555 1_555
C6 C5 1_555 1_555
C7 C6 1_555 1_555
H4 C7 1_555 1_555
C8 C7 1_555 1_555
H5 C8 1_555 1_555
C9 C8 1_555 1_555
H6 C9 1_555 1_555
C10 C9 1_555 1_555
H7 C10 1_555 1_555
C11 C6 1_555 1_555
H8 C11 1_555 1_555
C12 C3 1_555 1_555
C13 C12 1_555 1_555
H9 C13 1_555 1_555
C14 C13 1_555 1_555
H10 C14 1_555 1_555
C15 C14 1_555 1_555
H11 C15 1_555 1_555
C16 C15 1_555 1_555
H12 C16 1_555 1_555
C17 C12 1_555 1_555
H13 C17 1_555 1_555
C18 S2 1_555 1_555
H14 C18 1_555 1_555
H15 C18 1_555 1_555
C19 C18 1_555 1_555
C20 C19 1_555 1_555
H16 C20 1_555 1_555
C21 C20 1_555 1_555
H17 C21 1_555 1_555
C22 C21 1_555 1_555
H18 C22 1_555 1_555
C23 C22 1_555 1_555
H19 C23 1_555 1_555
C24 C19 1_555 1_555
H20 C24 1_555 1_555
S3 C25 1_555 1_555
S4 C28 1_555 1_555
O3 C26 1_555 1_555
O4 C26 1_555 1_555
C25 H21 1_555 1_555
C26 C25 1_555 1_555
C27 O3 1_555 1_555
C28 S3 1_555 1_555
C29 C25 1_555 1_555
H22 C29 1_555 1_555
H23 C29 1_555 1_555
C30 C29 1_555 1_555
C31 C30 1_555 1_555
H24 C31 1_555 1_555
C32 C31 1_555 1_555
H25 C32 1_555 1_555
C33 C32 1_555 1_555
H26 C33 1_555 1_555
C34 C33 1_555 1_555
H27 C34 1_555 1_555
C35 C30 1_555 1_555
H28 C35 1_555 1_555
C36 C27 1_555 1_555
C37 C36 1_555 1_555
H29 C37 1_555 1_555
C38 C37 1_555 1_555
H30 C38 1_555 1_555
C39 C38 1_555 1_555
H31 C39 1_555 1_555
C40 C39 1_555 1_555
H32 C40 1_555 1_555
C41 C36 1_555 1_555
H33 C41 1_555 1_555
C42 S4 1_555 1_555
H34 C42 1_555 1_555
H35 C42 1_555 1_555
C43 C42 1_555 1_555
C44 C43 1_555 1_555
H36 C44 1_555 1_555
C45 C44 1_555 1_555
H37 C45 1_555 1_555
C46 C45 1_555 1_555
H38 C46 1_555 1_555
C47 C46 1_555 1_555
H39 C47 1_555 1_555
C48 C43 1_555 1_555
H40 C48 1_555 1_555
S5 C49 1_555 1_555
S6 C52 1_555 1_555
O5 C50 1_555 1_555
O6 C50 1_555 1_555
C49 H41 1_555 1_555
C50 C49 1_555 1_555
C51 O5 1_555 1_555
C52 S5 1_555 1_555
C53 C49 1_555 1_555
H42 C53 1_555 1_555
H43 C53 1_555 1_555
C54 C53 1_555 1_555
C55 C54 1_555 1_555
H44 C55 1_555 1_555
C56 C55 1_555 1_555
H45 C56 1_555 1_555
C57 C56 1_555 1_555
H46 C57 1_555 1_555
C58 C57 1_555 1_555
H47 C58 1_555 1_555
C59 C54 1_555 1_555
H48 C59 1_555 1_555
C60 C51 1_555 1_555
C61 C60 1_555 1_555
H49 C61 1_555 1_555
C62 C61 1_555 1_555
H50 C62 1_555 1_555
C63 C62 1_555 1_555
H51 C63 1_555 1_555
C64 C63 1_555 1_555
H52 C64 1_555 1_555
C65 C60 1_555 1_555
H53 C65 1_555 1_555
C66 S6 1_555 1_555
H54 C66 1_555 1_555
H55 C66 1_555 1_555
C67 C66 1_555 1_555
C68 C67 1_555 1_555
H56 C68 1_555 1_555
C69 C68 1_555 1_555
H57 C69 1_555 1_555
C70 C69 1_555 1_555
H58 C70 1_555 1_555
C71 C70 1_555 1_555
H59 C71 1_555 1_555
C72 C67 1_555 1_555
H60 C72 1_555 1_555
S7 C73 1_555 1_555
S8 C76 1_555 1_555
O7 C74 1_555 1_555
O8 C74 1_555 1_555
C73 H61 1_555 1_555
C74 C73 1_555 1_555
C75 O7 1_555 1_555
C76 S7 1_555 1_555
C77 C73 1_555 1_555
H62 C77 1_555 1_555
H63 C77 1_555 1_555
C78 C77 1_555 1_555
C79 C78 1_555 1_555
H64 C79 1_555 1_555
C80 C79 1_555 1_555
H65 C80 1_555 1_555
C81 C80 1_555 1_555
H66 C81 1_555 1_555
C82 C81 1_555 1_555
H67 C82 1_555 1_555
C83 C78 1_555 1_555
H68 C83 1_555 1_555
C84 C75 1_555 1_555
C85 C84 1_555 1_555
H69 C85 1_555 1_555
C86 C85 1_555 1_555
H70 C86 1_555 1_555
C87 C86 1_555 1_555
H71 C87 1_555 1_555
C88 C87 1_555 1_555
H72 C88 1_555 1_555
C89 C84 1_555 1_555
H73 C89 1_555 1_555
C90 S8 1_555 1_555
H74 C90 1_555 1_555
H75 C90 1_555 1_555
C91 C90 1_555 1_555
C92 C91 1_555 1_555
H76 C92 1_555 1_555
C93 C92 1_555 1_555
H77 C93 1_555 1_555
C94 C93 1_555 1_555
H78 C94 1_555 1_555
C95 C94 1_555 1_555
H79 C95 1_555 1_555
C96 C91 1_555 1_555
H80 C96 1_555 1_555
C3 C4 1_555 1_555
C10 C11 1_555 1_555
C16 C17 1_555 1_555
C23 C24 1_555 1_555
C27 C28 1_555 1_555
C34 C35 1_555 1_555
C40 C41 1_555 1_555
C47 C48 1_555 1_555
C51 C52 1_555 1_555
C58 C59 1_555 1_555
C64 C65 1_555 1_555
C71 C72 1_555 1_555
C75 C76 1_555 1_555
C82 C83 1_555 1_555
C88 C89 1_555 1_555
C95 C96 1_555 1_555

#END
