
#######################################################################
#
#                 Cambridge Crystallographic Data Centre
#                                CCDC 
#
#######################################################################
#
# If this CIF has been generated from an entry in the Cambridge 
# Structural Database, then it will include bibliographic, chemical, 
# crystal, experimental, refinement or atomic coordinate data resulting 
# from the CCDC's data processing and validation procedures.
#
#######################################################################

data_CEHYOG
_chemical_formula_moiety         'C60 H40'
_chemical_name_systematic        '[10]cycloparaphenylene bis(diiodine)'
_symmetry_cell_setting           monoclinic
_symmetry_space_group_name_H-M   'P 21/c'
_symmetry_Int_Tables_number      14
_space_group_name_Hall           '-P 2ybc'
loop_
_symmetry_equiv_pos_site_id
_symmetry_equiv_pos_as_xyz
1 x,y,z
2 -x,1/2+y,1/2-z
3 -x,-y,-z
4 x,1/2-y,1/2+z
_cell_length_a                   16.0082(10)
_cell_length_b                   8.1691(4)
_cell_length_c                   20.5866(13)
_cell_angle_alpha                90
_cell_angle_beta                 108.379(7)
_cell_angle_gamma                90
_cell_volume                     2554.84
_exptl_crystal_colour            red
_cell_formula_units_Z            2
_exptl_crystal_recrystallization_method chloroform
_exptl_crystal_preparation       ', Luminescent,conductivity'
loop_
_atom_site_label
_atom_site_type_symbol
_atom_site_fract_x
_atom_site_fract_y
_atom_site_fract_z
C1 C 0.9055(3) 0.8453(5) 0.1762(2)
C2 C 0.5322(2) 1.7266(5) -0.1326(2)
H1 H 0.5004 1.7569 -0.1037
C3 C 0.5543(2) 1.1580(4) -0.04628(19)
H2 H 0.5352 1.0506 -0.0560
C4 C 0.8128(2) 0.8952(5) 0.1450(2)
C5 C 0.5538(2) 1.4400(4) -0.08344(18)
C6 C 1.0933(3) 0.8453(5) 0.2231(2)
C7 C 0.6619(2) 1.9276(4) -0.23369(19)
C8 C 0.6079(2) 1.8054(5) -0.21332(19)
C9 C 0.5294(2) 1.2737(4) -0.0973(2)
H3 H 0.4962 1.2425 -0.1413
C10 C 0.6078(2) 1.1977(4) 0.02002(19)
C11 C 0.8134(3) 2.1051(5) -0.2375(2)
C12 C 0.5580(3) 1.8452(5) -0.1700(2)
H4 H 0.5421 1.9536 -0.1666
C13 C 0.5531(2) 1.5614(4) -0.13733(18)
C14 C 0.5963(3) 1.4825(5) -0.0152(2)
H5 H 0.6063 1.5923 -0.0032
C15 C 0.7022(2) 1.1056(5) 0.13722(19)
H6 H 0.6792 1.1866 0.1584
C16 C 0.7755(2) 1.0193(5) 0.1749(2)
H7 H 0.8009 1.0433 0.2211
C17 C 0.5907(2) 1.5191(5) -0.18739(19)
H8 H 0.5975 1.4092 -0.1964
C18 C 0.6240(3) 1.3618(5) 0.0353(2)
H9 H 0.6539 1.3926 0.0802
C19 C 0.6902(3) 0.9335(5) 0.0407(2)
H10 H 0.6591 0.8982 -0.0032
C20 C 0.6180(3) 1.6377(4) -0.22384(19)
H11 H 0.6439 1.6057 -0.2564
C21 C 0.7640(3) 0.8472(5) 0.0789(2)
H12 H 0.7814 0.7550 0.0600
C22 C 0.6620(2) 1.0732(4) 0.06734(19)
C23 C 1.0453(3) 0.8755(6) 0.2674(2)
H13 H 1.0751 0.8962 0.3133
C24 C 0.7645(3) 2.1545(5) -0.1951(2)
H14 H 0.7819 2.2467 -0.1676
C25 C 0.9530(3) 0.8755(5) 0.2447(2)
H15 H 0.9229 0.8960 0.2758
C26 C 0.7776(2) 1.9816(5) -0.2849(2)
H16 H 0.8039 1.9561 -0.3179
C27 C 0.9533(3) 0.7917(6) 0.1347(3)
H17 H 0.9233 0.7532 0.0910
C28 C 1.0457(3) 0.7936(7) 0.1565(3)
H18 H 1.0757 0.7604 0.1267
C29 C 0.7027(2) 1.8958(5) -0.28348(19)
H19 H 0.6794 1.8156 -0.3163
C30 C 0.6910(3) 2.0679(5) -0.1935(2)
H20 H 0.6599 2.1036 -0.1649
C1B C 1.0945(3) 2.1547(5) -0.1762(2)
C2B C 1.4678(2) 1.2734(5) 0.1326(2)
H1B H 1.4996 1.2431 0.1037
C3B C 1.4457(2) 1.8420(4) 0.04628(19)
H2B H 1.4648 1.9494 0.0560
C4B C 1.1872(2) 2.1048(5) -0.1450(2)
C5B C 1.4462(2) 1.5600(4) 0.08344(18)
C6B C 0.9067(3) 2.1547(5) -0.2231(2)
C7B C 1.3381(2) 1.0724(4) 0.23369(19)
C8B C 1.3921(2) 1.1946(5) 0.21332(19)
C9B C 1.4706(2) 1.7263(4) 0.0973(2)
H3B H 1.5038 1.7575 0.1413
C10B C 1.3922(2) 1.8023(4) -0.02002(19)
C11B C 1.1866(3) 0.8949(5) 0.2375(2)
C12B C 1.4420(3) 1.1548(5) 0.1700(2)
H4B H 1.4579 1.0464 0.1666
C13B C 1.4469(2) 1.4386(4) 0.13733(18)
C14B C 1.4037(3) 1.5175(5) 0.0152(2)
H5B H 1.3937 1.4077 0.0032
C15B C 1.2978(2) 1.8944(5) -0.13722(19)
H6B H 1.3208 1.8134 -0.1584
C16B C 1.2245(2) 1.9807(5) -0.1749(2)
H7B H 1.1991 1.9567 -0.2211
C17B C 1.4093(2) 1.4809(5) 0.18739(19)
H8B H 1.4025 1.5908 0.1964
C18B C 1.3760(3) 1.6382(5) -0.0353(2)
H9B H 1.3461 1.6074 -0.0802
C19B C 1.3098(3) 2.0665(5) -0.0407(2)
H10B H 1.3409 2.1018 0.0032
C20B C 1.3820(3) 1.3623(4) 0.22384(19)
H11B H 1.3561 1.3943 0.2564
C21B C 1.2360(3) 2.1528(5) -0.0789(2)
H12B H 1.2186 2.2450 -0.0600
C22B C 1.3380(2) 1.9268(4) -0.06734(19)
C23B C 0.9547(3) 2.1245(6) -0.2674(2)
H13B H 0.9249 2.1038 -0.3133
C24B C 1.2355(3) 0.8455(5) 0.1951(2)
H14B H 1.2181 0.7533 0.1676
C25B C 1.0470(3) 2.1245(5) -0.2447(2)
H15B H 1.0771 2.1040 -0.2758
C26B C 1.2224(2) 1.0184(5) 0.2849(2)
H16B H 1.1961 1.0439 0.3179
C27B C 1.0467(3) 2.2083(6) -0.1347(3)
H17B H 1.0767 2.2468 -0.0910
C28B C 0.9543(3) 2.2064(7) -0.1565(3)
H18B H 0.9243 2.2396 -0.1267
C29B C 1.2973(2) 1.1042(5) 0.28348(19)
H19B H 1.3206 1.1844 0.3163
C30B C 1.3090(3) 0.9321(5) 0.1935(2)
H20B H 1.3401 0.8964 0.1649
loop_
_geom_bond_atom_site_label_1
_geom_bond_atom_site_label_2
_geom_bond_site_symmetry_1
_geom_bond_site_symmetry_2
C1 C4 1_555 1_555
C2 H1 1_555 1_555
C3 H2 1_555 1_555
C4 C16 1_555 1_555
C5 C9 1_555 1_555
C6 C23 1_555 1_555
C7 C8 1_555 1_555
C8 C12 1_555 1_555
C9 C3 1_555 1_555
H3 C9 1_555 1_555
C10 C3 1_555 1_555
C11 C24 1_555 1_555
C12 C2 1_555 1_555
H4 C12 1_555 1_555
C13 C2 1_555 1_555
C14 C5 1_555 1_555
H5 C14 1_555 1_555
C15 H6 1_555 1_555
C16 C15 1_555 1_555
H7 C16 1_555 1_555
C17 C13 1_555 1_555
H8 C17 1_555 1_555
C18 C10 1_555 1_555
H9 C18 1_555 1_555
C19 H10 1_555 1_555
C20 C8 1_555 1_555
H11 C20 1_555 1_555
C21 C4 1_555 1_555
H12 C21 1_555 1_555
C22 C10 1_555 1_555
C23 H13 1_555 1_555
C24 H14 1_555 1_555
C25 C1 1_555 1_555
H15 C25 1_555 1_555
C26 C11 1_555 1_555
H16 C26 1_555 1_555
C27 C1 1_555 1_555
H17 C27 1_555 1_555
C28 C6 1_555 1_555
H18 C28 1_555 1_555
C29 C7 1_555 1_555
H19 C29 1_555 1_555
C30 C7 1_555 1_555
H20 C30 1_555 1_555
C1B C4B 1_555 1_555
C2B H1B 1_555 1_555
C3B H2B 1_555 1_555
C4B C16B 1_555 1_555
C5B C9B 1_555 1_555
C6B C11 1_555 1_555
C7B C8B 1_555 1_555
C8B C12B 1_555 1_555
C9B C3B 1_555 1_555
H3B C9B 1_555 1_555
C10B C3B 1_555 1_555
C11B C6 1_555 1_555
C12B C2B 1_555 1_555
H4B C12B 1_555 1_555
C13B C2B 1_555 1_555
C14B C5B 1_555 1_555
H5B C14B 1_555 1_555
C15B H6B 1_555 1_555
C16B C15B 1_555 1_555
H7B C16B 1_555 1_555
C17B C13B 1_555 1_555
H8B C17B 1_555 1_555
C18B C10B 1_555 1_555
H9B C18B 1_555 1_555
C19B H10B 1_555 1_555
C20B C8B 1_555 1_555
H11B C20B 1_555 1_555
C21B C4B 1_555 1_555
H12B C21B 1_555 1_555
C22B C10B 1_555 1_555
C23B C6B 1_555 1_555
H13B C23B 1_555 1_555
C24B C11B 1_555 1_555
H14B C24B 1_555 1_555
C25B C1B 1_555 1_555
H15B C25B 1_555 1_555
C26B C11B 1_555 1_555
H16B C26B 1_555 1_555
C27B C1B 1_555 1_555
H17B C27B 1_555 1_555
C28B C6B 1_555 1_555
H18B C28B 1_555 1_555
C29B C7B 1_555 1_555
H19B C29B 1_555 1_555
C30B C7B 1_555 1_555
H20B C30B 1_555 1_555
C5 C13 1_555 1_555
C14 C18 1_555 1_555
C15 C22 1_555 1_555
C17 C20 1_555 1_555
C19 C21 1_555 1_555
C19 C22 1_555 1_555
C23 C25 1_555 1_555
C24 C30 1_555 1_555
C26 C29 1_555 1_555
C27 C28 1_555 1_555
C5B C13B 1_555 1_555
C14B C18B 1_555 1_555
C15B C22B 1_555 1_555
C17B C20B 1_555 1_555
C19B C21B 1_555 1_555
C19B C22B 1_555 1_555
C23B C25B 1_555 1_555
C24B C30B 1_555 1_555
C26B C29B 1_555 1_555
C27B C28B 1_555 1_555

#END
