
#######################################################################
#
#                 Cambridge Crystallographic Data Centre
#                                CCDC 
#
#######################################################################
#
# If this CIF has been generated from an entry in the Cambridge 
# Structural Database, then it will include bibliographic, chemical, 
# crystal, experimental, refinement or atomic coordinate data resulting 
# from the CCDC's data processing and validation procedures.
#
#######################################################################

data_CEJSAL
_chemical_formula_moiety         'C22 H20 O3 S2'
_chemical_name_systematic        
1^5^-t-Butyl-4,6-dioxo-1,3,5-tri(1,2)benzena-2-oxa-4,6-dithiacyclononaphane
_symmetry_cell_setting           triclinic
_symmetry_space_group_name_H-M   'P -1'
_symmetry_Int_Tables_number      2
_space_group_name_Hall           '-P 1'
loop_
_symmetry_equiv_pos_site_id
_symmetry_equiv_pos_as_xyz
1 x,y,z
2 -x,-y,-z
_cell_length_a                   8.152(1)
_cell_length_b                   10.799(1)
_cell_length_c                   11.234(1)
_cell_angle_alpha                98.41(1)
_cell_angle_beta                 93.86(1)
_cell_angle_gamma                96.28(1)
_cell_volume                     968.965
_exptl_crystal_colour            colorless
_chemical_melting_point          213-214deg.C
_cell_formula_units_Z            2
loop_
_atom_site_label
_atom_site_type_symbol
_atom_site_fract_x
_atom_site_fract_y
_atom_site_fract_z
S1 S 0.3407 0.2526 0.7454
S2 S 0.6599 0.0998 0.6791
O1 O 0.4318 0.1786 0.5022
O2 O 0.2421 0.3116 0.8409
O3 O 0.8015 0.0403 0.7252
C1 C 0.5527 0.3240 0.7873
C2 C 0.5765 0.4433 0.8562
C3 C 0.7379 0.4989 0.8953
C4 C 0.8720 0.4345 0.8645
C5 C 0.8467 0.3142 0.7978
C6 C 0.6863 0.2597 0.7581
C7 C 0.7076 0.1352 0.5328
C8 C 0.8598 0.1146 0.4921
C9 C 0.8890 0.1254 0.3731
C10 C 0.7633 0.1523 0.2931
C11 C 0.6115 0.1725 0.3354
C12 C 0.5853 0.1666 0.4546
C13 C 0.3645 0.2924 0.5090
C14 C 0.3406 0.3546 0.4121
C15 C 0.2621 0.4687 0.4314
C16 C 0.2070 0.5099 0.5393
C17 C 0.2283 0.4435 0.6359
C18 C 0.3081 0.3348 0.6183
C19 C 0.7941 0.1537 0.1592
C20 C 0.7777 0.0170 0.0971
C21 C 0.6718 0.2315 0.1003
C22 C 0.9699 0.2171 0.1495
loop_
_geom_bond_atom_site_label_1
_geom_bond_atom_site_label_2
_geom_bond_site_symmetry_1
_geom_bond_site_symmetry_2
S1 O2 1_555 1_555
S2 O3 1_555 1_555
O1 C12 1_555 1_555
C1 S1 1_555 1_555
C2 C1 1_555 1_555
C3 C2 1_555 1_555
C4 C3 1_555 1_555
C5 C4 1_555 1_555
C6 S2 1_555 1_555
C7 S2 1_555 1_555
C8 C7 1_555 1_555
C9 C8 1_555 1_555
C10 C9 1_555 1_555
C11 C10 1_555 1_555
C12 C7 1_555 1_555
C13 O1 1_555 1_555
C14 C13 1_555 1_555
C15 C14 1_555 1_555
C16 C15 1_555 1_555
C17 C16 1_555 1_555
C18 S1 1_555 1_555
C19 C10 1_555 1_555
C20 C19 1_555 1_555
C21 C19 1_555 1_555
C22 C19 1_555 1_555
C1 C6 1_555 1_555
C5 C6 1_555 1_555
C11 C12 1_555 1_555
C13 C18 1_555 1_555
C17 C18 1_555 1_555

#END
