
#######################################################################
#
#                 Cambridge Crystallographic Data Centre
#                                CCDC 
#
#######################################################################
#
# If this CIF has been generated from an entry in the Cambridge 
# Structural Database, then it will include bibliographic, chemical, 
# crystal, experimental, refinement or atomic coordinate data resulting 
# from the CCDC's data processing and validation procedures.
#
#######################################################################

data_CEJTER
_chemical_formula_moiety         'C13 H9 F2 N3 O2'
_chemical_name_systematic        2,4-Difluoro-N'-isonicotinoylbenzohydrazide
_symmetry_cell_setting           monoclinic
_symmetry_space_group_name_H-M   'P 21'
_symmetry_Int_Tables_number      4
_space_group_name_Hall           'P 2yb'
loop_
_symmetry_equiv_pos_site_id
_symmetry_equiv_pos_as_xyz
1 x,y,z
2 -x,1/2+y,-z
_cell_length_a                   4.709(3)
_cell_length_b                   24.398(16)
_cell_length_c                   5.281(4)
_cell_angle_alpha                90
_cell_angle_beta                 92.54(5)
_cell_angle_gamma                90
_cell_volume                     606.139
_exptl_crystal_description       prism
_chemical_melting_point          188-189deg.C
_cell_formula_units_Z            2
_exptl_crystal_recrystallization_method heptane
loop_
_atom_site_label
_atom_site_type_symbol
_atom_site_fract_x
_atom_site_fract_y
_atom_site_fract_z
F1 F 0.9253(15) 0.0648(3) -0.4816(13)
O1 O 0.3450(18) 0.2253(3) 0.2705(16)
O2 O 1.1237(18) 0.3429(3) 0.4257(14)
N1 N 0.771(2) 0.2659(4) 0.2622(18)
H1 H 0.9425 0.2664 0.2023
N2 N 0.689(2) 0.3052(4) 0.4279(18)
H2 H 0.5158 0.3051 0.4836
N3 N 0.620(2) 0.4668(4) 1.021(2)
C1 C 0.850(3) 0.1047(5) -0.320(3)
C2 C 0.967(2) 0.1544(6) -0.336(2)
H3 H 1.0974 0.1628 -0.4624
C3 C 0.892(3) 0.1927(4) -0.163(3)
C4 C 0.690(2) 0.1838(5) 0.013(2)
C5 C 0.583(3) 0.1320(5) 0.016(2)
H4 H 0.4474 0.1235 0.1386
C6 C 0.656(2) 0.0907(4) -0.146(2)
H5 H 0.5782 0.0548 -0.1371
C7 C 0.581(4) 0.2260(4) 0.191(2)
C8 C 0.876(3) 0.3435(5) 0.504(2)
C9 C 0.782(2) 0.3859(4) 0.675(2)
C10 C 0.898(3) 0.4375(5) 0.675(2)
H6 H 1.0371 0.4467 0.5575
C11 C 0.811(3) 0.4761(5) 0.847(3)
H7 H 0.8930 0.5116 0.8408
C12 C 0.520(3) 0.4157(5) 1.024(2)
H8 H 0.3882 0.4075 1.1493
C13 C 0.5856(14) 0.3743(2) 0.8674(14)
H9 H 0.5046 0.3389 0.8841
F2 F 1.0177(14) 0.2436(2) -0.1841(14)
H10? H 0.9835 0.2274 -0.1647
F3? F 0.3978(14) 0.1166(2) 0.1959(14)
loop_
_geom_bond_atom_site_label_1
_geom_bond_atom_site_label_2
_geom_bond_site_symmetry_1
_geom_bond_site_symmetry_2
F1 C1 1_555 1_555
O1 C7 1_555 1_555
O2 C8 1_555 1_555
N1 H1 1_555 1_555
N2 N1 1_555 1_555
H2 N2 1_555 1_555
N3 C11 1_555 1_555
C1 C2 1_555 1_555
C2 H3 1_555 1_555
C3 C2 1_555 1_555
C4 C3 1_555 1_555
C5 C4 1_555 1_555
H4 C5 1_555 1_555
C6 C1 1_555 1_555
H5 C6 1_555 1_555
C7 N1 1_555 1_555
C8 N2 1_555 1_555
C9 C8 1_555 1_555
C10 C9 1_555 1_555
H6 C10 1_555 1_555
C11 C10 1_555 1_555
H7 C11 1_555 1_555
C12 N3 1_555 1_555
H8 C12 1_555 1_555
C13 C9 1_555 1_555
H9 C13 1_555 1_555
F2 C3 1_555 1_555
C4 C7 1_555 1_555
C5 C6 1_555 1_555
C12 C13 1_555 1_555

#END
