
#######################################################################
#
#                 Cambridge Crystallographic Data Centre
#                                CCDC 
#
#######################################################################
#
# If this CIF has been generated from an entry in the Cambridge 
# Structural Database, then it will include bibliographic, chemical, 
# crystal, experimental, refinement or atomic coordinate data resulting 
# from the CCDC's data processing and validation procedures.
#
#######################################################################

data_CEJWOG
_chemical_formula_moiety         'C25 H30 B10'
_chemical_name_systematic        
1-(2-methyl-4-(phenanthren-9-yl)phenyl)-2-n-propyl-1,2-dicarba-closo-dodecaborane
_symmetry_cell_setting           monoclinic
_symmetry_space_group_name_H-M   'P 21/n'
_symmetry_Int_Tables_number      14
_space_group_name_Hall           '-P 2yn'
loop_
_symmetry_equiv_pos_site_id
_symmetry_equiv_pos_as_xyz
1 x,y,z
2 1/2-x,1/2+y,1/2-z
3 -x,-y,-z
4 1/2+x,1/2-y,1/2+z
_cell_length_a                   10.6764(9)
_cell_length_b                   15.6921(11)
_cell_length_c                   14.9860(10)
_cell_angle_alpha                90
_cell_angle_beta                 99.073(2)
_cell_angle_gamma                90
_cell_volume                     2479.27
_exptl_crystal_colour            colorless
_exptl_crystal_description       block
_cell_formula_units_Z            4
loop_
_atom_site_label
_atom_site_type_symbol
_atom_site_fract_x
_atom_site_fract_y
_atom_site_fract_z
C1 C 0.82291(12) 0.67442(7) 0.68416(7)
H1 H 0.8396 0.6872 0.7455
C2 C 0.70008(12) 0.68248(7) 0.63786(7)
H2 H 0.6357 0.7006 0.6685
C3 C 0.67216(12) 0.66357(7) 0.54546(7)
C4 C 0.92156(12) 0.64737(7) 0.64000(7)
C5 C 0.76950(13) 0.63160(8) 0.50332(8)
H3 H 0.7518 0.6156 0.4429
C6 C 0.47425(12) 0.75523(7) 0.49355(7)
C7 C 0.34970(12) 0.76259(8) 0.44326(7)
C8 C 0.52879(13) 0.82715(8) 0.54120(8)
H4 H 0.6110 0.8236 0.5726
C9 C 0.54263(12) 0.67527(7) 0.49297(7)
C10 C 0.36557(13) 0.61560(8) 0.38744(8)
C11 C 0.29345(13) 0.69061(8) 0.39034(8)
C12 C 0.48900(13) 0.60978(8) 0.44049(8)
H5 H 0.5345 0.5594 0.4391
C13 C 0.89230(13) 0.62303(8) 0.54923(7)
H6 H 0.9554 0.6010 0.5196
C14 C 1.05608(12) 0.64396(7) 0.68881(7)
C15 C 1.14953(13) 0.73035(9) 0.68301(8)
C16 C 0.46280(14) 0.90242(8) 0.54225(8)
H7 H 0.4998 0.9487 0.5751
C17 C 0.28546(14) 0.84125(9) 0.44509(8)
H8 H 0.2043 0.8470 0.4124
C18 C 0.16949(14) 0.69228(10) 0.33986(9)
H9 H 0.1188 0.7401 0.3427
C19 C 0.31545(16) 0.54663(9) 0.33233(10)
H10 H 0.3635 0.4975 0.3301
C20 C 0.34016(15) 0.90915(9) 0.49390(9)
H11 H 0.2955 0.9599 0.4949
C21 C 1.09244(15) 0.80513(9) 0.62525(9)
H12 H 1.1617 0.8380 0.6079
H13 H 1.0441 0.7822 0.5703
C22 C 1.00732(15) 0.86584(9) 0.66648(10)
H14 H 1.0558 0.8931 0.7190
H15 H 0.9389 0.8340 0.6864
C23 C 0.12282(16) 0.62442(11) 0.28676(10)
H16 H 0.0415 0.6271 0.2537
C24 C 0.19662(17) 0.55152(10) 0.28211(10)
H17 H 0.1652 0.5064 0.2450
B1 B 1.09513(14) 0.70876(9) 0.78331(8)
B2 B 1.09330(14) 0.59611(9) 0.79224(9)
C25 C 0.95136(18) 0.93412(11) 0.59898(12)
H18 H 1.0188 0.9667 0.5803
H19 H 0.8975 0.9712 0.6270
H20 H 0.9026 0.9073 0.5472
B3 B 1.22075(15) 0.65616(11) 0.85180(10)
B4 B 1.25329(15) 0.74209(11) 0.78160(9)
B5 B 1.17772(16) 0.63909(12) 0.62476(10)
B6 B 1.14418(15) 0.55256(10) 0.69388(11)
B7 B 1.30409(16) 0.69890(13) 0.68452(11)
B8 B 1.25149(16) 0.55916(12) 0.79724(12)
B9 B 1.35059(16) 0.64924(12) 0.79066(11)
B10 B 1.30296(16) 0.58579(13) 0.69259(12)
H21 H 1.0214(15) 0.7494(9) 0.8022(9)
H22 H 1.2782(16) 0.8098(10) 0.8044(10)
H23 H 1.0146(13) 0.5680(9) 0.8174(9)
H24 H 1.2355(15) 0.6612(9) 0.9243(10)
H25 H 1.1515(16) 0.6430(10) 0.5518(10)
H26 H 1.4494(17) 0.6522(11) 0.8252(11)
H27 H 1.0925(15) 0.4971(10) 0.6623(10)
H28 H 1.3585(17) 0.7368(11) 0.6453(11)
H29 H 1.3706(18) 0.5477(12) 0.6603(11)
H30 H 1.2794(17) 0.4996(11) 0.8355(11)
loop_
_geom_bond_atom_site_label_1
_geom_bond_atom_site_label_2
_geom_bond_site_symmetry_1
_geom_bond_site_symmetry_2
C1 H1 1_555 1_555
C2 C1 1_555 1_555
H2 C2 1_555 1_555
C3 C2 1_555 1_555
C4 C1 1_555 1_555
C5 C3 1_555 1_555
H3 C5 1_555 1_555
C6 C7 1_555 1_555
C7 C11 1_555 1_555
C8 C6 1_555 1_555
H4 C8 1_555 1_555
C9 C3 1_555 1_555
C10 C11 1_555 1_555
C11 C18 1_555 1_555
C12 C9 1_555 1_555
H5 C12 1_555 1_555
C13 C4 1_555 1_555
H6 C13 1_555 1_555
C14 C4 1_555 1_555
C15 C14 1_555 1_555
C16 C8 1_555 1_555
H7 C16 1_555 1_555
C17 C7 1_555 1_555
H8 C17 1_555 1_555
C18 H9 1_555 1_555
C19 C10 1_555 1_555
H10 C19 1_555 1_555
C20 C16 1_555 1_555
H11 C20 1_555 1_555
C21 C15 1_555 1_555
H12 C21 1_555 1_555
H13 C21 1_555 1_555
C22 C21 1_555 1_555
H14 C22 1_555 1_555
H15 C22 1_555 1_555
C23 C18 1_555 1_555
H16 C23 1_555 1_555
C24 C19 1_555 1_555
H17 C24 1_555 1_555
B1 C14 1_555 1_555
B2 C14 1_555 1_555
C25 C22 1_555 1_555
H18 C25 1_555 1_555
H19 C25 1_555 1_555
H20 C25 1_555 1_555
B3 B1 1_555 1_555
B4 C15 1_555 1_555
B5 C14 1_555 1_555
B6 C14 1_555 1_555
B7 C15 1_555 1_555
B8 B2 1_555 1_555
B9 B3 1_555 1_555
B10 B5 1_555 1_555
H21 B1 1_555 1_555
H22 B4 1_555 1_555
H23 B2 1_555 1_555
H24 B3 1_555 1_555
H25 B5 1_555 1_555
H26 B9 1_555 1_555
H27 B6 1_555 1_555
H28 B7 1_555 1_555
H29 B10 1_555 1_555
H30 B8 1_555 1_555
C5 C13 1_555 1_555
C6 C9 1_555 1_555
C10 C12 1_555 1_555
C15 B1 1_555 1_555
C15 B5 1_555 1_555
C17 C20 1_555 1_555
C23 C24 1_555 1_555
B1 B2 1_555 1_555
B1 B4 1_555 1_555
B2 B3 1_555 1_555
B2 B6 1_555 1_555
B3 B4 1_555 1_555
B3 B8 1_555 1_555
B4 B7 1_555 1_555
B4 B9 1_555 1_555
B5 B6 1_555 1_555
B5 B7 1_555 1_555
B6 B8 1_555 1_555
B6 B10 1_555 1_555
B7 B9 1_555 1_555
B7 B10 1_555 1_555
B8 B9 1_555 1_555
B8 B10 1_555 1_555
B9 B10 1_555 1_555

#END
