
#######################################################################
#
#                 Cambridge Crystallographic Data Centre
#                                CCDC 
#
#######################################################################
#
# If this CIF has been generated from an entry in the Cambridge 
# Structural Database, then it will include bibliographic, chemical, 
# crystal, experimental, refinement or atomic coordinate data resulting 
# from the CCDC's data processing and validation procedures.
#
#######################################################################

data_CEJXEX
_chemical_formula_moiety         'C13 H19 N1 O4'
_chemical_name_systematic        
6-(acetyloxy)-4-methylidene-3-propyl-2-oxa-6-azabicyclo[3.3.1]nonan-7-one
_symmetry_cell_setting           triclinic
_symmetry_space_group_name_H-M   'P -1'
_symmetry_Int_Tables_number      2
_space_group_name_Hall           '-P 1'
loop_
_symmetry_equiv_pos_site_id
_symmetry_equiv_pos_as_xyz
1 x,y,z
2 -x,-y,-z
_cell_length_a                   7.0275(12)
_cell_length_b                   9.5628(16)
_cell_length_c                   10.4938(18)
_cell_angle_alpha                91.407(3)
_cell_angle_beta                 108.035(3)
_cell_angle_gamma                93.004(4)
_cell_volume                     669.022
_exptl_crystal_colour            colorless
_exptl_crystal_description       prismatic
_cell_formula_units_Z            2
loop_
_atom_site_label
_atom_site_type_symbol
_atom_site_fract_x
_atom_site_fract_y
_atom_site_fract_z
N1 N 0.80327(19) 0.62326(12) 0.65755(13)
O1 O 0.6500(2) 0.52339(13) 0.79564(13)
O2 O 0.55671(14) 0.92123(10) 0.64556(10)
O3 O 0.98547(16) 0.58456(10) 0.74958(11)
O4 O 0.9258(2) 0.37206(13) 0.64383(13)
C1 C 0.6429(2) 0.60071(15) 0.70477(15)
C2 C 0.4559(2) 0.67038(16) 0.62988(16)
H1 H 0.3868 0.6962 0.6931
H2 H 0.3683 0.6025 0.5650
C3 C 0.4887(2) 0.80023(15) 0.55663(14)
H3 H 0.3602 0.8192 0.4911
C4 C 0.6351(3) 0.77172(16) 0.48092(15)
H4 H 0.6490 0.8510 0.4279
H5 H 0.5880 0.6896 0.4211
C5 C 0.8354(2) 0.74757(15) 0.58462(15)
H6 H 0.9350 0.7296 0.5393
C6 C 0.9025(2) 0.87723(15) 0.67532(15)
C7 C 0.7518(2) 0.91648(14) 0.74334(14)
H7 H 0.7439 0.8432 0.8055
C8 C 0.7945(2) 1.05571(15) 0.82112(15)
H8 H 0.7880 1.1302 0.7591
H9 H 0.9298 1.0595 0.8831
C9 C 0.6503(3) 1.08141(19) 0.89893(18)
H10 H 0.5152 1.0792 0.8367
H11 H 0.6550 1.0060 0.9597
C10 C 0.6945(3) 1.2191(2) 0.9786(2)
H12 H 0.6842 1.2947 0.9188
H13 H 0.8278 1.2221 1.0408
H14 H 0.5998 1.2283 1.0270
C11 C 1.0705(3) 0.95046(19) 0.6854(2)
H15 H 1.1519 0.9227 0.6357
H16 H 1.1079 1.0301 0.7423
C12 C 1.0232(2) 0.44732(16) 0.73420(16)
C13 C 1.1991(3) 0.41188(19) 0.8465(2)
H17 H 1.2249 0.3153 0.8363
H18 H 1.1723 0.4270 0.9300
H19 H 1.3142 0.4704 0.8462
loop_
_geom_bond_atom_site_label_1
_geom_bond_atom_site_label_2
_geom_bond_site_symmetry_1
_geom_bond_site_symmetry_2
N1 O3 1_555 1_555
O1 C1 1_555 1_555
O2 C3 1_555 1_555
O3 C12 1_555 1_555
O4 C12 1_555 1_555
C1 N1 1_555 1_555
C2 C1 1_555 1_555
H1 C2 1_555 1_555
H2 C2 1_555 1_555
C3 C2 1_555 1_555
H3 C3 1_555 1_555
C4 C3 1_555 1_555
H4 C4 1_555 1_555
H5 C4 1_555 1_555
C5 N1 1_555 1_555
H6 C5 1_555 1_555
C6 C5 1_555 1_555
C7 O2 1_555 1_555
H7 C7 1_555 1_555
C8 C7 1_555 1_555
H8 C8 1_555 1_555
H9 C8 1_555 1_555
C9 C8 1_555 1_555
H10 C9 1_555 1_555
H11 C9 1_555 1_555
C10 C9 1_555 1_555
H12 C10 1_555 1_555
H13 C10 1_555 1_555
H14 C10 1_555 1_555
C11 C6 1_555 1_555
H15 C11 1_555 1_555
H16 C11 1_555 1_555
C12 C13 1_555 1_555
C13 H17 1_555 1_555
H18 C13 1_555 1_555
H19 C13 1_555 1_555
C4 C5 1_555 1_555
C6 C7 1_555 1_555

#END
