
#######################################################################
#
#                 Cambridge Crystallographic Data Centre
#                                CCDC 
#
#######################################################################
#
# If this CIF has been generated from an entry in the Cambridge 
# Structural Database, then it will include bibliographic, chemical, 
# crystal, experimental, refinement or atomic coordinate data resulting 
# from the CCDC's data processing and validation procedures.
#
#######################################################################

data_CEJXAT
_chemical_formula_moiety         'C9 H15 N1 O2,H2 O1'
_chemical_name_systematic        
'9-hydroxy-8-methyl-2-azabicyclo[3.3.1]nonan-3-one monohydrate'
_symmetry_cell_setting           monoclinic
_symmetry_space_group_name_H-M   'P 21/c'
_symmetry_Int_Tables_number      14
_space_group_name_Hall           '-P 2ybc'
loop_
_symmetry_equiv_pos_site_id
_symmetry_equiv_pos_as_xyz
1 x,y,z
2 -x,1/2+y,1/2-z
3 -x,-y,-z
4 x,1/2-y,1/2+z
_cell_length_a                   6.7642(10)
_cell_length_b                   8.1514(12)
_cell_length_c                   17.817(3)
_cell_angle_alpha                90
_cell_angle_beta                 96.161(3)
_cell_angle_gamma                90
_cell_volume                     976.714
_exptl_crystal_colour            colorless
_exptl_crystal_description       prismatic
_cell_formula_units_Z            4
loop_
_atom_site_label
_atom_site_type_symbol
_atom_site_fract_x
_atom_site_fract_y
_atom_site_fract_z
N1 N 0.3484(2) 0.90399(17) 0.42163(7)
O1 O 0.45002(19) 0.79192(15) 0.53340(6)
O2 O 0.4049(2) 0.66374(16) 0.30493(8)
C1 C 0.3542(2) 0.7813(2) 0.47016(8)
C2 C 0.2460(3) 0.6256(2) 0.44723(9)
H1 H 0.1616 0.5976 0.4860
H2 H 0.3434 0.5386 0.4459
C3 C 0.1176(3) 0.6287(2) 0.37122(9)
H3 H 0.1061 0.5165 0.3516
C4 C 0.2179(2) 0.7329(2) 0.31616(8)
H4 H 0.1341 0.7346 0.2677
C5 C 0.2362(2) 0.90573(19) 0.34685(8)
H5 H 0.3094 0.9718 0.3131
C6 C 0.0295(2) 0.9818(2) 0.34936(9)
H6 H -0.0377 0.9804 0.2978
C7 C -0.0917(3) 0.8765(3) 0.39765(11)
H7 H -0.2276 0.9163 0.3929
H8 H -0.0380 0.8873 0.4501
C8 C -0.0916(3) 0.6964(3) 0.37554(12)
H9 H -0.1687 0.6830 0.3268
H10 H -0.1558 0.6332 0.4122
C9 C 0.0425(3) 1.1590(2) 0.37511(10)
H11 H -0.0890 1.2039 0.3739
H12 H 0.1173 1.2209 0.3421
H13 H 0.1075 1.1643 0.4257
H14 H 0.443(4) 0.712(3) 0.2658(15)
H15 H 0.412(2) 0.994(2) 0.4370(9)
O3 O 0.5094(3) 0.3324(2) 0.31841(9)
H16 H 0.528(4) 0.306(3) 0.3621(16)
H17 H 0.476(4) 0.438(4) 0.3163(14)
loop_
_geom_bond_atom_site_label_1
_geom_bond_atom_site_label_2
_geom_bond_site_symmetry_1
_geom_bond_site_symmetry_2
N1 C1 1_555 1_555
O1 C1 1_555 1_555
O2 C4 1_555 1_555
C1 C2 1_555 1_555
C2 H1 1_555 1_555
H2 C2 1_555 1_555
C3 C2 1_555 1_555
H3 C3 1_555 1_555
C4 C3 1_555 1_555
H4 C4 1_555 1_555
C5 N1 1_555 1_555
H5 C5 1_555 1_555
C6 C5 1_555 1_555
H6 C6 1_555 1_555
C7 C6 1_555 1_555
H7 C7 1_555 1_555
H8 C7 1_555 1_555
C8 C3 1_555 1_555
H9 C8 1_555 1_555
H10 C8 1_555 1_555
C9 C6 1_555 1_555
H11 C9 1_555 1_555
H12 C9 1_555 1_555
H13 C9 1_555 1_555
H14 O2 1_555 1_555
H15 N1 1_555 1_555
O3 H16 1_555 1_555
H17 O3 1_555 1_555
C4 C5 1_555 1_555
C7 C8 1_555 1_555

#END
