
#######################################################################
#
#                 Cambridge Crystallographic Data Centre
#                                CCDC 
#
#######################################################################
#
# If this CIF has been generated from an entry in the Cambridge 
# Structural Database, then it will include bibliographic, chemical, 
# crystal, experimental, refinement or atomic coordinate data resulting 
# from the CCDC's data processing and validation procedures.
#
#######################################################################

data_CEJXOH
_chemical_formula_moiety         'C11 H19 N1 O2'
_chemical_name_systematic        
9-hydroxy-2,4,8-trimethyl-2-azabicyclo[3.3.1]nonan-3-one
_symmetry_cell_setting           monoclinic
_symmetry_space_group_name_H-M   'C 2/c'
_symmetry_Int_Tables_number      15
_space_group_name_Hall           '-C 2yn'
loop_
_symmetry_equiv_pos_site_id
_symmetry_equiv_pos_as_xyz
1 x,y,z
2 -x,y,1/2-z
3 1/2+x,1/2+y,z
4 1/2-x,1/2+y,1/2-z
5 -x,-y,-z
6 x,-y,1/2+z
7 1/2-x,1/2-y,-z
8 1/2+x,1/2-y,1/2+z
_cell_length_a                   31.030(5)
_cell_length_b                   8.5805(13)
_cell_length_c                   19.303(3)
_cell_angle_alpha                90
_cell_angle_beta                 122.705(3)
_cell_angle_gamma                90
_cell_volume                     4324.69
_exptl_crystal_colour            colorless
_exptl_crystal_description       prismatic
_cell_formula_units_Z            16
loop_
_atom_site_label
_atom_site_type_symbol
_atom_site_fract_x
_atom_site_fract_y
_atom_site_fract_z
N1 N 0.85932(11) 0.7913(3) 0.51341(18)
O1 O 0.83326(10) 0.5455(3) 0.47700(16)
O2 O 0.92854(11) 0.7636(3) 0.68703(16)
H1 H 0.9221 0.8322 0.7097
C1 C 0.89926(14) 0.9087(4) 0.5599(2)
H2 H 0.8850 0.9901 0.5774
C2 C 0.86852(14) 0.6395(4) 0.5141(2)
C3 C 0.92328(15) 0.5827(4) 0.5631(2)
H3 H 0.9255 0.5180 0.6067
C4 C 0.96471(14) 0.7065(5) 0.6087(2)
H4 H 0.9938 0.6581 0.6578
C5 C 0.94348(14) 0.8324(4) 0.6365(2)
H5 H 0.9701 0.9103 0.6685
C6 C 0.91707(16) 0.9851(5) 0.5081(2)
H6 H 0.9427 1.0636 0.5430
C7 C 0.94363(17) 0.8675(5) 0.4853(3)
H7 H 0.9185 0.7943 0.4458
H8 H 0.9588 0.9210 0.4593
C8 C 0.98445(17) 0.7800(6) 0.5587(3)
H9 H 1.0124 0.8505 0.5937
H10 H 0.9978 0.6986 0.5404
C9 C 0.80570(15) 0.8399(6) 0.4707(3)
H11 H 0.7896 0.8239 0.4125
H12 H 0.8040 0.9483 0.4813
H13 H 0.7883 0.7793 0.4902
C10 C 0.9330(2) 0.4692(5) 0.5113(3)
H14 H 0.9078 0.3877 0.4905
H15 H 0.9665 0.4248 0.5450
H16 H 0.9306 0.5243 0.4661
C11 C 0.8752(2) 1.0688(6) 0.4332(3)
H17 H 0.8895 1.1203 0.4059
H18 H 0.8596 1.1444 0.4496
H19 H 0.8499 0.9949 0.3964
N2 N 0.83301(13) 0.0881(4) 0.6764(2)
O3 O 0.91537(11) 0.0142(3) 0.76179(18)
O4 O 0.82592(11) 0.2735(3) 0.54895(16)
H20 H 0.8277 0.3442 0.5221
C12 C 0.79413(15) 0.2117(5) 0.6337(2)
H21 H 0.7638 0.1665 0.5851
C13 C 0.88414(14) 0.1184(4) 0.7223(2)
C14 C 0.90184(16) 0.2747(5) 0.7208(2)
H22 H 0.9112 0.2615 0.6801
C15 C 0.86266(19) 0.4023(5) 0.6815(3)
H23 H 0.8766 0.4847 0.6638
C16 C 0.81550(16) 0.3364(5) 0.6060(2)
H24 H 0.7900 0.4195 0.5790
C17 C 0.77801(19) 0.2838(6) 0.6896(3)
H25 H 0.7539 0.3678 0.6578
C18 C 0.8225(2) 0.3586(6) 0.7639(3)
H26 H 0.8469 0.2789 0.7985
H27 H 0.8107 0.4104 0.7953
C19 C 0.8487(3) 0.4754(5) 0.7402(4)
H28 H 0.8795 0.5128 0.7895
H29 H 0.8262 0.5638 0.7134
C20 C 0.8158(2) -0.0666(5) 0.6800(4)
H30 H 0.8325 -0.1420 0.6656
H31 H 0.7794 -0.0736 0.6421
H32 H 0.8241 -0.0868 0.7348
C21 C 0.9519(2) 0.3148(8) 0.7947(5)
H33 H 0.9480 0.3317 0.8402
H34 H 0.9648 0.4079 0.7845
H35 H 0.9756 0.2308 0.8075
C22 C 0.7511(2) 0.1773(9) 0.7135(4)
H36 H 0.7734 0.0924 0.7448
H37 H 0.7210 0.1375 0.6649
H38 H 0.7414 0.2326 0.7463
loop_
_geom_bond_atom_site_label_1
_geom_bond_atom_site_label_2
_geom_bond_site_symmetry_1
_geom_bond_site_symmetry_2
N1 C1 1_555 1_555
O1 C2 1_555 1_555
O2 H1 1_555 1_555
C1 H2 1_555 1_555
C2 N1 1_555 1_555
C3 C2 1_555 1_555
H3 C3 1_555 1_555
C4 C3 1_555 1_555
H4 C4 1_555 1_555
C5 O2 1_555 1_555
H5 C5 1_555 1_555
C6 C1 1_555 1_555
H6 C6 1_555 1_555
C7 C6 1_555 1_555
H7 C7 1_555 1_555
H8 C7 1_555 1_555
C8 C4 1_555 1_555
H9 C8 1_555 1_555
H10 C8 1_555 1_555
C9 N1 1_555 1_555
H11 C9 1_555 1_555
H12 C9 1_555 1_555
H13 C9 1_555 1_555
C10 C3 1_555 1_555
H14 C10 1_555 1_555
H15 C10 1_555 1_555
H16 C10 1_555 1_555
C11 C6 1_555 1_555
H17 C11 1_555 1_555
H18 C11 1_555 1_555
H19 C11 1_555 1_555
N2 C12 1_555 1_555
O3 C13 1_555 1_555
O4 H20 1_555 1_555
C12 H21 1_555 1_555
C13 N2 1_555 1_555
C14 C13 1_555 1_555
H22 C14 1_555 1_555
C15 C14 1_555 1_555
H23 C15 1_555 1_555
C16 O4 1_555 1_555
H24 C16 1_555 1_555
C17 C12 1_555 1_555
H25 C17 1_555 1_555
C18 C17 1_555 1_555
H26 C18 1_555 1_555
H27 C18 1_555 1_555
C19 C15 1_555 1_555
H28 C19 1_555 1_555
H29 C19 1_555 1_555
C20 N2 1_555 1_555
H30 C20 1_555 1_555
H31 C20 1_555 1_555
H32 C20 1_555 1_555
C21 C14 1_555 1_555
H33 C21 1_555 1_555
H34 C21 1_555 1_555
H35 C21 1_555 1_555
C22 C17 1_555 1_555
H36 C22 1_555 1_555
H37 C22 1_555 1_555
H38 C22 1_555 1_555
C1 C5 1_555 1_555
C4 C5 1_555 1_555
C7 C8 1_555 1_555
C12 C16 1_555 1_555
C15 C16 1_555 1_555
C18 C19 1_555 1_555

#END
