
#######################################################################
#
#                 Cambridge Crystallographic Data Centre
#                                CCDC 
#
#######################################################################
#
# If this CIF has been generated from an entry in the Cambridge 
# Structural Database, then it will include bibliographic, chemical, 
# crystal, experimental, refinement or atomic coordinate data resulting 
# from the CCDC's data processing and validation procedures.
#
#######################################################################

data_CEJZAV
_chemical_formula_moiety         'C16 H18 O2'
_chemical_name_systematic        
2-butyl-2a,3,8,8a-tetrahydro-3,8-epoxycyclobuta[b]naphthalen-1(2H)-one
_symmetry_cell_setting           triclinic
_symmetry_space_group_name_H-M   'P -1'
_symmetry_Int_Tables_number      2
_space_group_name_Hall           '-P 1'
loop_
_symmetry_equiv_pos_site_id
_symmetry_equiv_pos_as_xyz
1 x,y,z
2 -x,-y,-z
_cell_length_a                   5.6755(2)
_cell_length_b                   9.6691(4)
_cell_length_c                   12.7702(7)
_cell_angle_alpha                68.022(5)
_cell_angle_beta                 82.967(4)
_cell_angle_gamma                81.644(4)
_cell_volume                     641.192
_exptl_crystal_colour            colorless
_exptl_crystal_description       plate
_cell_formula_units_Z            2
loop_
_atom_site_label
_atom_site_type_symbol
_atom_site_fract_x
_atom_site_fract_y
_atom_site_fract_z
O1 O 0.42801(16) 0.47674(10) 0.75141(8)
O2 O 0.21057(15) 0.80667(9) 0.56302(7)
C1 C 0.2359(2) 0.52249(13) 0.71289(11)
C2 C 0.1522(2) 0.56407(13) 0.59415(10)
H1 H 0.135645 0.479408 0.569535
C3 C 0.2689(2) 0.69914(13) 0.50648(10)
H2 H 0.442777 0.678748 0.486030
C4 C 0.1142(2) 0.76794(13) 0.40744(10)
C5 C 0.1356(2) 0.76715(14) 0.29859(11)
H3 H 0.274104 0.719472 0.271022
C6 C -0.0541(2) 0.83914(14) 0.23059(11)
H4 H -0.043330 0.841937 0.155016
C7 C -0.2582(2) 0.90669(14) 0.27181(11)
H5 H -0.385848 0.953214 0.224390
C8 C -0.2787(2) 0.90726(14) 0.38174(11)
H6 H -0.418105 0.953496 0.409850
C9 C -0.0896(2) 0.83837(13) 0.44834(10)
C10 C -0.0481(2) 0.80841(13) 0.56975(10)
H7 H -0.141201 0.880738 0.602454
C11 C -0.0845(2) 0.64186(13) 0.63628(10)
H8 H -0.236365 0.610108 0.624803
C12 C -0.0055(2) 0.57316(14) 0.75982(10)
H9 H -0.090855 0.482396 0.801761
C13 C -0.0241(2) 0.66583(14) 0.83431(11)
H10 H 0.038836 0.763015 0.790152
H11 H 0.075698 0.612493 0.899004
C14 C -0.2815(2) 0.69485(15) 0.87918(11)
H12 H -0.379821 0.750027 0.814219
H13 H -0.345195 0.597400 0.921288
C15 C -0.3055(3) 0.78434(16) 0.95663(12)
H14 H -0.255609 0.885350 0.912733
H15 H -0.196618 0.733874 1.018064
C16 C -0.5596(3) 0.80079(16) 1.00883(12)
H16 H -0.668575 0.850275 0.948447
H17 H -0.566276 0.861327 1.056078
H18 H -0.607341 0.701337 1.055508
loop_
_geom_bond_atom_site_label_1
_geom_bond_atom_site_label_2
_geom_bond_site_symmetry_1
_geom_bond_site_symmetry_2
O1 C1 1_555 1_555
O2 C3 1_555 1_555
C1 C2 1_555 1_555
C2 H1 1_555 1_555
C3 C2 1_555 1_555
H2 C3 1_555 1_555
C4 C3 1_555 1_555
C5 C4 1_555 1_555
H3 C5 1_555 1_555
C6 C5 1_555 1_555
H4 C6 1_555 1_555
C7 C6 1_555 1_555
H5 C7 1_555 1_555
C8 C7 1_555 1_555
H6 C8 1_555 1_555
C9 C4 1_555 1_555
C10 O2 1_555 1_555
H7 C10 1_555 1_555
C11 C2 1_555 1_555
H8 C11 1_555 1_555
C12 C1 1_555 1_555
H9 C12 1_555 1_555
C13 C12 1_555 1_555
H10 C13 1_555 1_555
H11 C13 1_555 1_555
C14 C13 1_555 1_555
H12 C14 1_555 1_555
H13 C14 1_555 1_555
C15 C14 1_555 1_555
H14 C15 1_555 1_555
H15 C15 1_555 1_555
C16 C15 1_555 1_555
H16 C16 1_555 1_555
H17 C16 1_555 1_555
H18 C16 1_555 1_555
C8 C9 1_555 1_555
C9 C10 1_555 1_555
C10 C11 1_555 1_555
C11 C12 1_555 1_555

#END
