
#######################################################################
#
#                 Cambridge Crystallographic Data Centre
#                                CCDC 
#
#######################################################################
#
# If this CIF has been generated from an entry in the Cambridge 
# Structural Database, then it will include bibliographic, chemical, 
# crystal, experimental, refinement or atomic coordinate data resulting 
# from the CCDC's data processing and validation procedures.
#
#######################################################################

data_CEJZOJ
_chemical_formula_moiety         'C24 H25 Br2 N3 O1'
_chemical_name_systematic        
1-(5,6-dibromo-2-phenyl-2a,3,8,8a-tetrahydro-3,8-epoxycyclobuta[b]naphthalen-1-yl)-3,3-bis(propan-2-yl)triaz-1-ene
_symmetry_cell_setting           triclinic
_symmetry_space_group_name_H-M   'P 1'
_symmetry_Int_Tables_number      1
_space_group_name_Hall           'P 1'
loop_
_symmetry_equiv_pos_site_id
_symmetry_equiv_pos_as_xyz
1 x,y,z
_cell_length_a                   10.0924(6)
_cell_length_b                   15.7937(14)
_cell_length_c                   16.2895(7)
_cell_angle_alpha                110.131(6)
_cell_angle_beta                 90.023(4)
_cell_angle_gamma                108.467(6)
_cell_volume                     2294.81
_exptl_crystal_colour            colorless
_exptl_crystal_description       prism
_cell_formula_units_Z            4
loop_
_atom_site_label
_atom_site_type_symbol
_atom_site_fract_x
_atom_site_fract_y
_atom_site_fract_z
Br1 Br -0.0113(2) 0.25192(14) 0.27250(16)
Br2 Br 0.0936(2) 0.27681(13) 0.08581(14)
O1 O 0.5077(11) 0.6353(9) 0.3863(8)
N1 N 0.4735(14) 0.8515(10) 0.5572(9)
N2 N 0.4358(14) 0.8094(10) 0.6138(10)
N3 N 0.4838(18) 0.8626(12) 0.6951(11)
C1 C 0.1233(16) 0.3650(11) 0.2714(12)
C2 C 0.1684(16) 0.3765(11) 0.1937(12)
C3 C 0.2685(16) 0.4612(12) 0.1956(12)
H1 H 0.296070 0.470891 0.142854
C4 C 0.3267(15) 0.5315(11) 0.2780(12)
C5 C 0.2922(16) 0.5193(12) 0.3548(13)
C6 C 0.1838(19) 0.4376(12) 0.3553(13)
H2 H 0.152644 0.431101 0.408538
C7 C 0.3846(16) 0.6127(11) 0.4303(12)
H3 H 0.400215 0.607148 0.488574
C8 C 0.3227(16) 0.6898(11) 0.4303(11)
H4 H 0.220806 0.675582 0.438581
C9 C 0.4138(17) 0.7919(12) 0.4729(12)
C10 C 0.4456(15) 0.8041(11) 0.3941(11)
C11 C 0.3628(16) 0.7040(11) 0.3407(11)
H5 H 0.282096 0.695316 0.299503
C12 C 0.4401(15) 0.6309(11) 0.3064(12)
H6 H 0.504057 0.641519 0.261330
C13 C 0.5364(16) 0.8845(12) 0.3747(13)
C14 C 0.5832(18) 0.8681(13) 0.2882(13)
H7 H 0.550341 0.806020 0.243564
C15 C 0.6755(19) 0.9437(14) 0.2719(15)
H8 H 0.710555 0.931777 0.216417
C16 C 0.7178(19) 1.0319(14) 0.3295(14)
H9 H 0.781202 1.081878 0.314660
C17 C 0.6698(19) 1.0535(13) 0.4139(14)
H10 H 0.696959 1.117573 0.454732
C18 C 0.5811(17) 0.9774(12) 0.4351(13)
H11 H 0.551214 0.989951 0.492058
C19 C 0.577(3) 0.9621(15) 0.7215(15)
H12 H 0.560131 0.987148 0.675314
C20 C 0.731(3) 0.969(2) 0.728(2)
H13 H 0.749595 0.927835 0.672411
H14 H 0.751439 0.949475 0.775953
H15 H 0.790768 1.035926 0.740321
C21 C 0.544(3) 1.0277(17) 0.8133(19)
H16 H 0.442456 1.007918 0.815570
H17 H 0.579751 1.094932 0.818374
H18 H 0.590760 1.020464 0.862065
C22 C 0.464(2) 0.8089(16) 0.7550(15)
H19 H 0.510718 0.856434 0.814625
C23 C 0.309(2) 0.766(2) 0.7640(18)
H20 H 0.263706 0.814618 0.774949
H21 H 0.300437 0.742983 0.813341
H22 H 0.261720 0.711818 0.709493
C24 C 0.540(3) 0.7333(18) 0.7296(18)
H23 H 0.641033 0.765453 0.733007
H24 H 0.502868 0.687952 0.669386
H25 H 0.522349 0.698628 0.770374
Br3 Br 0.20217(17) 0.98240(13) 0.59282(14)
Br4 Br -0.11146(19) 0.95383(13) 0.49516(14)
O2 O -0.2159(11) 0.5842(9) 0.5877(8)
N4 N -0.0840(14) 0.3755(10) 0.4919(10)
N5 N 0.0303(14) 0.4163(9) 0.5410(10)
N6 N 0.0869(15) 0.3621(10) 0.5659(11)
C25 C 0.0495(15) 0.8688(10) 0.5646(11)
C26 C -0.0819(17) 0.8559(12) 0.5234(12)
C27 C -0.1922(15) 0.7702(11) 0.5057(12)
H26 H -0.280934 0.761575 0.478212
C28 C -0.1741(16) 0.6994(11) 0.5271(11)
C29 C -0.0452(16) 0.7103(11) 0.5693(11)
C30 C 0.0650(17) 0.7933(11) 0.5887(12)
H27 H 0.151830 0.801041 0.618109
C31 C -0.0631(16) 0.6145(12) 0.5794(11)
H28 H 0.000361 0.616885 0.627890
C32 C -0.0602(14) 0.5465(11) 0.4882(10)
H29 H 0.027810 0.566172 0.461079
C33 C -0.1263(15) 0.4408(11) 0.4669(10)
C34 C -0.2391(16) 0.4304(12) 0.4173(11)
C35 C -0.1990(14) 0.5348(11) 0.4354(10)
H30 H -0.185346 0.553052 0.382248
C36 C -0.2624(15) 0.5970(11) 0.5091(10)
H31 H -0.366190 0.582187 0.497766
C37 C -0.3571(15) 0.3483(10) 0.3592(10)
C38 C -0.4634(17) 0.3647(13) 0.3195(12)
H32 H -0.461438 0.428480 0.331775
C39 C -0.5729(19) 0.2880(14) 0.2615(13)
H33 H -0.644156 0.300510 0.234346
C40 C -0.5802(19) 0.1946(13) 0.2427(13)
H34 H -0.653560 0.143251 0.201353
C41 C -0.4785(18) 0.1766(12) 0.2852(13)
H35 H -0.483306 0.112769 0.275384
C42 C -0.3688(16) 0.2546(11) 0.3429(12)
H36 H -0.299476 0.242274 0.372051
C43 C 0.014(2) 0.2560(12) 0.5360(15)
H37 H -0.060511 0.234460 0.485666
C44 C 0.127(2) 0.2086(15) 0.5063(16)
H38 H 0.171871 0.228140 0.459358
H39 H 0.082684 0.138726 0.484355
H40 H 0.198283 0.228754 0.556470
C45 C -0.051(3) 0.2325(15) 0.6125(17)
H41 H -0.128223 0.258426 0.626543
H42 H 0.020270 0.261070 0.663947
H43 H -0.088107 0.162846 0.596492
C46 C 0.207(2) 0.4116(12) 0.6330(15)
H44 H 0.233812 0.361970 0.647262
C47 C 0.172(3) 0.4795(19) 0.7213(17)
H45 H 0.094626 0.441240 0.743900
H46 H 0.143488 0.528349 0.709202
H47 H 0.255218 0.510657 0.765357
C48 C 0.332(2) 0.4639(18) 0.5920(19)
H48 H 0.340227 0.419170 0.534750
H49 H 0.419239 0.487141 0.631420
H50 H 0.313833 0.518204 0.583960
Br5 Br -0.0284(2) 0.23846(16) -0.14336(16)
Br6 Br 0.2796(2) 0.25716(16) -0.22834(15)
O3 O 0.4015(13) 0.6373(9) 0.1020(8)
N7 N 0.2768(15) 0.8499(11) 0.1421(10)
N8 N 0.1595(15) 0.8098(12) 0.1694(10)
N9 N 0.1040(16) 0.8674(12) 0.2273(11)
C49 C 0.1295(17) 0.3518(13) -0.1005(13)
C50 C 0.2578(17) 0.3617(12) -0.1368(11)
C51 C 0.3709(18) 0.4449(12) -0.1054(11)
H51 H 0.456378 0.450922 -0.131051
C52 C 0.3557(18) 0.5217(12) -0.0333(11)
C53 C 0.2288(17) 0.5135(12) 0.0025(12)
C54 C 0.1115(19) 0.4288(14) -0.0312(14)
H52 H 0.024138 0.423771 -0.008064
C55 C 0.2512(17) 0.6092(13) 0.0754(12)
H53 H 0.189570 0.607907 0.123306
C56 C 0.2475(17) 0.6776(12) 0.0299(11)
H54 H 0.158876 0.659119 -0.009424
C57 C 0.3181(16) 0.7821(12) 0.0780(11)
C58 C 0.4314(17) 0.7924(12) 0.0354(12)
C59 C 0.3861(17) 0.6874(12) -0.0161(12)
H55 H 0.371799 0.668891 -0.081513
C60 C 0.4499(18) 0.6245(11) 0.0166(11)
H56 H 0.553386 0.637875 0.015132
C61 C 0.5557(18) 0.8720(12) 0.0388(13)
C62 C 0.659(2) 0.8558(15) -0.0174(15)
H57 H 0.649681 0.792982 -0.056515
C63 C 0.773(2) 0.9323(16) -0.0141(19)
H58 H 0.844144 0.921465 -0.050334
C64 C 0.789(2) 1.0234(16) 0.0391(18)
H59 H 0.867517 1.075215 0.037786
C65 C 0.689(2) 1.0405(15) 0.0950(17)
H60 H 0.702835 1.103404 0.135340
C66 C 0.571(2) 0.9659(14) 0.0919(15)
H61 H 0.498701 0.978429 0.126352
C67 C 0.1651(18) 0.9726(14) 0.2617(13)
H62 H 0.238713 0.988151 0.223096
C68 C 0.246(3) 1.0033(19) 0.3529(17)
H63 H 0.305392 1.070961 0.372097
H64 H 0.306144 0.964150 0.349362
H65 H 0.179641 0.994396 0.395396
C69 C 0.069(2) 1.0196(16) 0.2529(18)
H66 H 0.041283 1.003781 0.190318
H67 H 0.114223 1.089073 0.281643
H68 H -0.014945 0.998187 0.280805
C70 C -0.016(2) 0.8186(15) 0.2600(15)
H69 H -0.043008 0.869724 0.305171
C71 C -0.141(2) 0.7638(18) 0.1880(18)
H70 H -0.123268 0.786227 0.138700
H71 H -0.226110 0.774790 0.211872
H72 H -0.155251 0.695154 0.167416
C72 C 0.012(3) 0.7590(19) 0.3063(17)
H73 H 0.105708 0.791533 0.340394
H74 H 0.008139 0.696877 0.263081
H75 H -0.059095 0.749208 0.346159
Br7 Br 1.2197(3) 0.98255(18) 0.00818(18)
Br8 Br 1.1029(2) 0.95827(14) -0.19334(15)
O4 O 0.6855(12) 0.6073(10) -0.1251(9)
N10 N 0.7161(17) 0.3888(12) -0.0926(11)
N11 N 0.7566(17) 0.4347(12) -0.0083(11)
N12 N 0.7056(19) 0.3794(12) 0.0404(11)
C73 C 1.079(2) 0.8729(12) -0.0618(13)
C74 C 1.012(2) 0.8011(14) -0.0293(13)
H76 H 1.038319 0.808425 0.029345
C75 C 0.9035(19) 0.7173(12) -0.0841(13)
C76 C 0.8651(17) 0.7050(12) -0.1676(12)
C77 C 0.9268(18) 0.7743(12) -0.2033(11)
H77 H 0.899350 0.764601 -0.262484
C78 C 1.0313(18) 0.8593(11) -0.1490(12)
C79 C 0.811(2) 0.6303(13) -0.0662(13)
H78 H 0.798661 0.639354 -0.003224
C80 C 0.8705(18) 0.5513(13) -0.1161(13)
H79 H 0.971077 0.562395 -0.097848
C81 C 0.7667(18) 0.4489(13) -0.1394(13)
C82 C 0.7392(16) 0.4308(12) -0.2245(12)
C83 C 0.8288(16) 0.5338(12) -0.2170(12)
H80 H 0.907491 0.539599 -0.254294
C84 C 0.7496(17) 0.6067(12) -0.2037(11)
H81 H 0.684913 0.595290 -0.255868
C85 C 0.6544(16) 0.3505(12) -0.3018(12)
C86 C 0.6072(19) 0.2578(13) -0.2982(14)
H82 H 0.632817 0.250216 -0.245744
C87 C 0.5279(18) 0.1799(13) -0.3653(14)
H83 H 0.501460 0.118753 -0.360318
C88 C 0.4847(17) 0.1883(14) -0.4414(13)
H84 H 0.425296 0.133774 -0.488199
C89 C 0.531(2) 0.2815(14) -0.4487(14)
H85 H 0.504919 0.289995 -0.500541
C90 C 0.6181(17) 0.3602(13) -0.3753(13)
H86 H 0.651168 0.421929 -0.379240
C91 C 0.735(2) 0.4335(16) 0.1358(14)
H87 H 0.693713 0.386568 0.165144
C92 C 0.660(2) 0.5062(19) 0.1618(18)
H88 H 0.565624 0.477649 0.128932
H89 H 0.713396 0.562438 0.148201
H90 H 0.652673 0.525583 0.225121
C93 C 0.889(2) 0.4780(18) 0.1690(15)
H91 H 0.931879 0.427885 0.155075
H92 H 0.901045 0.511563 0.233008
H93 H 0.934190 0.523636 0.140808
C94 C 0.605(3) 0.2771(16) -0.0002(18)
H94 H 0.618641 0.252502 -0.063802
C95 C 0.460(3) 0.2769(17) 0.004(2)
H95 H 0.395110 0.210706 -0.018378
H96 H 0.441094 0.311227 -0.032008
H97 H 0.447403 0.308713 0.065263
C96 C 0.645(3) 0.2196(17) 0.0410(19)
H98 H 0.588734 0.152002 0.010671
H99 H 0.628905 0.239943 0.103022
H100 H 0.745208 0.227889 0.037341
loop_
_geom_bond_atom_site_label_1
_geom_bond_atom_site_label_2
_geom_bond_site_symmetry_1
_geom_bond_site_symmetry_2
Br1 C1 1_555 1_555
Br2 C2 1_555 1_555
O1 C7 1_555 1_555
N1 N2 1_555 1_555
N2 N3 1_555 1_555
N3 C19 1_555 1_555
C1 C2 1_555 1_555
C2 C3 1_555 1_555
C3 H1 1_555 1_555
C4 C3 1_555 1_555
C5 C4 1_555 1_555
C6 C1 1_555 1_555
H2 C6 1_555 1_555
C7 C5 1_555 1_555
H3 C7 1_555 1_555
C8 C7 1_555 1_555
H4 C8 1_555 1_555
C9 N1 1_555 1_555
C10 C9 1_555 1_555
C11 C8 1_555 1_555
H5 C11 1_555 1_555
C12 O1 1_555 1_555
H6 C12 1_555 1_555
C13 C10 1_555 1_555
C14 C13 1_555 1_555
H7 C14 1_555 1_555
C15 C14 1_555 1_555
H8 C15 1_555 1_555
C16 C15 1_555 1_555
H9 C16 1_555 1_555
C17 C16 1_555 1_555
H10 C17 1_555 1_555
C18 C13 1_555 1_555
H11 C18 1_555 1_555
C19 H12 1_555 1_555
C20 C19 1_555 1_555
H13 C20 1_555 1_555
H14 C20 1_555 1_555
H15 C20 1_555 1_555
C21 C19 1_555 1_555
H16 C21 1_555 1_555
H17 C21 1_555 1_555
H18 C21 1_555 1_555
C22 N3 1_555 1_555
H19 C22 1_555 1_555
C23 C22 1_555 1_555
H20 C23 1_555 1_555
H21 C23 1_555 1_555
H22 C23 1_555 1_555
C24 C22 1_555 1_555
H23 C24 1_555 1_555
H24 C24 1_555 1_555
H25 C24 1_555 1_555
Br3 C25 1_555 1_555
Br4 C26 1_555 1_555
O2 C31 1_555 1_555
N4 N5 1_555 1_555
N5 N6 1_555 1_555
N6 C43 1_555 1_555
C25 C26 1_555 1_555
C26 C27 1_555 1_555
C27 H26 1_555 1_555
C28 C27 1_555 1_555
C29 C28 1_555 1_555
C30 C25 1_555 1_555
H27 C30 1_555 1_555
C31 C29 1_555 1_555
H28 C31 1_555 1_555
C32 C31 1_555 1_555
H29 C32 1_555 1_555
C33 N4 1_555 1_555
C34 C33 1_555 1_555
C35 C32 1_555 1_555
H30 C35 1_555 1_555
C36 O2 1_555 1_555
H31 C36 1_555 1_555
C37 C34 1_555 1_555
C38 C37 1_555 1_555
H32 C38 1_555 1_555
C39 C38 1_555 1_555
H33 C39 1_555 1_555
C40 C39 1_555 1_555
H34 C40 1_555 1_555
C41 C40 1_555 1_555
H35 C41 1_555 1_555
C42 C37 1_555 1_555
H36 C42 1_555 1_555
C43 H37 1_555 1_555
C44 C43 1_555 1_555
H38 C44 1_555 1_555
H39 C44 1_555 1_555
H40 C44 1_555 1_555
C45 C43 1_555 1_555
H41 C45 1_555 1_555
H42 C45 1_555 1_555
H43 C45 1_555 1_555
C46 N6 1_555 1_555
H44 C46 1_555 1_555
C47 C46 1_555 1_555
H45 C47 1_555 1_555
H46 C47 1_555 1_555
H47 C47 1_555 1_555
C48 C46 1_555 1_555
H48 C48 1_555 1_555
H49 C48 1_555 1_555
H50 C48 1_555 1_555
Br5 C49 1_555 1_555
Br6 C50 1_555 1_555
O3 C55 1_555 1_555
N7 N8 1_555 1_555
N8 N9 1_555 1_555
N9 C67 1_555 1_555
C49 C50 1_555 1_555
C50 C51 1_555 1_555
C51 H51 1_555 1_555
C52 C51 1_555 1_555
C53 C52 1_555 1_555
C54 C49 1_555 1_555
H52 C54 1_555 1_555
C55 C53 1_555 1_555
H53 C55 1_555 1_555
C56 C55 1_555 1_555
H54 C56 1_555 1_555
C57 N7 1_555 1_555
C58 C57 1_555 1_555
C59 C56 1_555 1_555
H55 C59 1_555 1_555
C60 O3 1_555 1_555
H56 C60 1_555 1_555
C61 C58 1_555 1_555
C62 C61 1_555 1_555
H57 C62 1_555 1_555
C63 C62 1_555 1_555
H58 C63 1_555 1_555
C64 C63 1_555 1_555
H59 C64 1_555 1_555
C65 C64 1_555 1_555
H60 C65 1_555 1_555
C66 C61 1_555 1_555
H61 C66 1_555 1_555
C67 H62 1_555 1_555
C68 C67 1_555 1_555
H63 C68 1_555 1_555
H64 C68 1_555 1_555
H65 C68 1_555 1_555
C69 C67 1_555 1_555
H66 C69 1_555 1_555
H67 C69 1_555 1_555
H68 C69 1_555 1_555
C70 N9 1_555 1_555
H69 C70 1_555 1_555
C71 C70 1_555 1_555
H70 C71 1_555 1_555
H71 C71 1_555 1_555
H72 C71 1_555 1_555
C72 C70 1_555 1_555
H73 C72 1_555 1_555
H74 C72 1_555 1_555
H75 C72 1_555 1_555
Br7 C73 1_555 1_555
Br8 C78 1_555 1_555
O4 C79 1_555 1_555
N10 N11 1_555 1_555
N11 N12 1_555 1_555
N12 C91 1_555 1_555
C73 C74 1_555 1_555
C74 H76 1_555 1_555
C75 C74 1_555 1_555
C76 C75 1_555 1_555
C77 C76 1_555 1_555
H77 C77 1_555 1_555
C78 C73 1_555 1_555
C79 C75 1_555 1_555
H78 C79 1_555 1_555
C80 C79 1_555 1_555
H79 C80 1_555 1_555
C81 N10 1_555 1_555
C82 C81 1_555 1_555
C83 C80 1_555 1_555
H80 C83 1_555 1_555
C84 O4 1_555 1_555
H81 C84 1_555 1_555
C85 C82 1_555 1_555
C86 C85 1_555 1_555
H82 C86 1_555 1_555
C87 C86 1_555 1_555
H83 C87 1_555 1_555
C88 C87 1_555 1_555
H84 C88 1_555 1_555
C89 C88 1_555 1_555
H85 C89 1_555 1_555
C90 C85 1_555 1_555
H86 C90 1_555 1_555
C91 H87 1_555 1_555
C92 C91 1_555 1_555
H88 C92 1_555 1_555
H89 C92 1_555 1_555
H90 C92 1_555 1_555
C93 C91 1_555 1_555
H91 C93 1_555 1_555
H92 C93 1_555 1_555
H93 C93 1_555 1_555
C94 N12 1_555 1_555
H94 C94 1_555 1_555
C95 C94 1_555 1_555
H95 C95 1_555 1_555
H96 C95 1_555 1_555
H97 C95 1_555 1_555
C96 C94 1_555 1_555
H98 C96 1_555 1_555
H99 C96 1_555 1_555
H100 C96 1_555 1_555
C4 C12 1_555 1_555
C5 C6 1_555 1_555
C8 C9 1_555 1_555
C10 C11 1_555 1_555
C11 C12 1_555 1_555
C17 C18 1_555 1_555
C28 C36 1_555 1_555
C29 C30 1_555 1_555
C32 C33 1_555 1_555
C34 C35 1_555 1_555
C35 C36 1_555 1_555
C41 C42 1_555 1_555
C52 C60 1_555 1_555
C53 C54 1_555 1_555
C56 C57 1_555 1_555
C58 C59 1_555 1_555
C59 C60 1_555 1_555
C65 C66 1_555 1_555
C76 C84 1_555 1_555
C77 C78 1_555 1_555
C80 C81 1_555 1_555
C82 C83 1_555 1_555
C83 C84 1_555 1_555
C89 C90 1_555 1_555

#END
