
#######################################################################
#
#                 Cambridge Crystallographic Data Centre
#                                CCDC 
#
#######################################################################
#
# If this CIF has been generated from an entry in the Cambridge 
# Structural Database, then it will include bibliographic, chemical, 
# crystal, experimental, refinement or atomic coordinate data resulting 
# from the CCDC's data processing and validation procedures.
#
#######################################################################

data_CEKBOL
_chemical_formula_moiety         'C6 N12 O3 2-,2(C1 H6 N3 1+)'
_chemical_name_systematic        
"bis(guanidinium) 5,5'-(oxydi-1,2,5-oxadiazole-4,3-diyl)bistetrazol-1-ide"
_symmetry_cell_setting           monoclinic
_symmetry_space_group_name_H-M   'C 2/c'
_symmetry_Int_Tables_number      15
_space_group_name_Hall           '-C 2yn'
loop_
_symmetry_equiv_pos_site_id
_symmetry_equiv_pos_as_xyz
1 x,y,z
2 -x,y,1/2-z
3 1/2+x,1/2+y,z
4 1/2-x,1/2+y,1/2-z
5 -x,-y,-z
6 x,-y,1/2+z
7 1/2-x,1/2-y,-z
8 1/2+x,1/2-y,1/2+z
_cell_length_a                   10.489(6)
_cell_length_b                   11.018(6)
_cell_length_c                   15.197(8)
_cell_angle_alpha                90
_cell_angle_beta                 109.451(7)
_cell_angle_gamma                90
_cell_volume                     1656.05
_exptl_crystal_colour            colorless
_exptl_crystal_description       block
_cell_formula_units_Z            4
loop_
_atom_site_label
_atom_site_type_symbol
_atom_site_fract_x
_atom_site_fract_y
_atom_site_fract_z
O1 O 0.68110(12) 0.32009(10) 0.42382(8)
O2 O 0.5000 0.51391(12) 0.2500
N1 N 0.60976(13) 0.34060(11) 0.33096(9)
N2 N 0.68330(13) 0.42227(11) 0.47714(9)
N3 N 0.64154(12) 0.65536(11) 0.54122(8)
N4 N 0.59811(13) 0.76992(11) 0.54282(9)
N5 N 0.52714(13) 0.80413(11) 0.45752(9)
N6 N 0.52110(12) 0.71306(10) 0.39715(8)
C1 C 0.56973(13) 0.45232(13) 0.32865(10)
C2 C 0.61416(13) 0.50451(12) 0.41879(10)
C3 C 0.59226(13) 0.62438(12) 0.45107(9)
O1A O 0.31890(12) 0.32009(10) 0.07618(8)
N1A N 0.39024(13) 0.34060(11) 0.16904(9)
N2A N 0.31670(13) 0.42227(11) 0.02286(9)
N3A N 0.35846(12) 0.65536(11) -0.04122(8)
N4A N 0.40189(13) 0.76992(11) -0.04282(9)
N5A N 0.47286(13) 0.80413(11) 0.04248(9)
N6A N 0.47890(12) 0.71306(10) 0.10285(8)
C1A C 0.43027(13) 0.45232(13) 0.17135(10)
C2A C 0.38584(13) 0.50451(12) 0.08121(10)
C3A C 0.40774(13) 0.62438(12) 0.04893(9)
N7 N 0.83976(13) 0.62651(13) 0.73138(10)
N8 N 0.78455(14) 0.42558(15) 0.69989(10)
N9 N 0.91162(13) 0.48438(13) 0.84767(9)
C4 C 0.84694(13) 0.51248(13) 0.76020(10)
H1 H 0.7936(16) 0.6428(15) 0.6697(13)
H2 H 0.8828(16) 0.6847(15) 0.7701(13)
H3 H 0.7502(17) 0.4417(16) 0.6376(15)
H4 H 0.807(2) 0.345(2) 0.7186(17)
H5 H 0.9520(16) 0.5435(16) 0.8885(13)
H6 H 0.9088(16) 0.4082(17) 0.8690(13)
loop_
_geom_bond_atom_site_label_1
_geom_bond_atom_site_label_2
_geom_bond_site_symmetry_1
_geom_bond_site_symmetry_2
O1 N1 1_555 1_555
O2 C1 1_555 1_555
N1 C1 1_555 1_555
N2 O1 1_555 1_555
N3 N4 1_555 1_555
N4 N5 1_555 1_555
N5 N6 1_555 1_555
N6 C3 1_555 1_555
N7 C4 1_555 1_555
N8 C4 1_555 1_555
N9 C4 1_555 1_555
C1 C2 1_555 1_555
C2 N2 1_555 1_555
C3 N3 1_555 1_555
H1 N7 1_555 1_555
H2 N7 1_555 1_555
H3 N8 1_555 1_555
H4 N8 1_555 1_555
H5 N9 1_555 1_555
H6 N9 1_555 1_555
O1A N1A 1_555 1_555
N1A C1A 1_555 1_555
N2A O1A 1_555 1_555
N3A N4A 1_555 1_555
N4A N5A 1_555 1_555
N5A N6A 1_555 1_555
N6A C3A 1_555 1_555
C1A O2 1_555 1_555
C2A N2A 1_555 1_555
C3A N3A 1_555 1_555
C2 C3 1_555 1_555
C1A C2A 1_555 1_555
C2A C3A 1_555 1_555

#END
