
#######################################################################
#
#                 Cambridge Crystallographic Data Centre
#                                CCDC 
#
#######################################################################
#
# If this CIF has been generated from an entry in the Cambridge 
# Structural Database, then it will include bibliographic, chemical, 
# crystal, experimental, refinement or atomic coordinate data resulting 
# from the CCDC's data processing and validation procedures.
#
#######################################################################

data_CEKBAX
_chemical_formula_moiety         'C6 N12 O3 2-,2(C1 H8 N5 1+)'
_chemical_name_systematic        
"bis(1,2-diaminoguanidinium) 5,5'-(oxydi-1,2,5-oxadiazole-4,3-diyl)bistetrazol-1-ide"
_symmetry_cell_setting           triclinic
_symmetry_space_group_name_H-M   'P -1'
_symmetry_Int_Tables_number      2
_space_group_name_Hall           '-P 1'
loop_
_symmetry_equiv_pos_site_id
_symmetry_equiv_pos_as_xyz
1 x,y,z
2 -x,-y,-z
_cell_length_a                   7.102(2)
_cell_length_b                   10.781(3)
_cell_length_c                   12.643(4)
_cell_angle_alpha                100.980(5)
_cell_angle_beta                 100.110(4)
_cell_angle_gamma                92.151(3)
_cell_volume                     933.03
_exptl_crystal_colour            colorless
_exptl_crystal_description       block
_cell_formula_units_Z            2
loop_
_atom_site_label
_atom_site_type_symbol
_atom_site_fract_x
_atom_site_fract_y
_atom_site_fract_z
O1 O 0.58604(15) 0.39252(9) 0.79677(8)
O2 O 0.53428(14) 0.71272(9) 0.82726(8)
O3 O 0.66639(16) 0.81934(11) 1.10613(8)
N1 N 0.62102(17) 0.51359(12) 0.86026(10)
N2 N 0.47349(17) 0.39342(11) 0.69577(10)
N3 N 0.26316(16) 0.46835(10) 0.50617(9)
N4 N 0.17065(16) 0.54023(10) 0.44153(9)
N5 N 0.17710(16) 0.65792(10) 0.49611(9)
N6 N 0.27530(16) 0.66680(10) 0.59910(9)
N7 N 0.59392(19) 0.72285(13) 1.01830(10)
N8 N 0.71867(18) 0.92795(12) 1.07177(10)
N9 N 0.79372(18) 1.10807(11) 0.94056(11)
N10 N 0.81663(19) 1.15677(12) 0.85335(12)
N11 N 0.76374(19) 1.07013(11) 0.76258(11)
N12 N 0.70295(17) 0.96168(11) 0.78875(10)
C1 C 0.53296(18) 0.58488(12) 0.79924(11)
C2 C 0.43902(18) 0.51164(12) 0.69577(11)
C3 C 0.32592(17) 0.54902(12) 0.60145(11)
C4 C 0.60273(19) 0.77196(13) 0.93356(11)
C5 C 0.68122(18) 0.89967(13) 0.96465(11)
C6 C 0.72365(18) 0.98901(12) 0.89764(11)
N13 N 0.02108(17) 0.14321(12) 0.60306(10)
N14 N 0.29536(17) 0.03568(11) 0.60288(10)
N15 N 0.22998(18) -0.04058(12) 0.67001(11)
N16 N 0.23623(16) 0.18471(11) 0.49561(10)
N17 N 0.42088(18) 0.16645(13) 0.47052(12)
C7 C 0.18378(18) 0.12060(12) 0.56822(10)
H1 H -0.019(2) 0.0990(16) 0.6481(14)
H2 H -0.057(2) 0.1983(16) 0.5759(13)
H3 H 0.405(3) 0.0235(17) 0.5751(14)
H4 H 0.253(2) -0.1253(17) 0.6430(14)
H5 H 0.300(3) -0.0175(17) 0.7401(15)
H6 H 0.197(2) 0.2589(16) 0.4941(13)
H7 H 0.412(3) 0.1657(17) 0.3950(16)
H8 H 0.498(3) 0.235(2) 0.5101(17)
N18 N -0.16419(19) 0.40209(13) 0.03864(11)
N19 N -0.02636(18) 0.27685(11) 0.15399(10)
N20 N 0.0596(2) 0.26841(12) 0.26157(10)
N21 N -0.02623(17) 0.49191(10) 0.21614(10)
N22 N -0.06848(19) 0.61019(11) 0.18944(11)
C8 C -0.07221(18) 0.39095(12) 0.13586(11)
H9 H -0.191(2) 0.4779(17) 0.0304(14)
H10 H -0.193(3) 0.3339(17) -0.0140(15)
H11 H -0.082(2) 0.2121(16) 0.1073(14)
H12 H 0.144(3) 0.2031(18) 0.2550(14)
H13 H -0.037(3) 0.2444(19) 0.2943(16)
H14 H 0.037(2) 0.4855(16) 0.2841(14)
H15 H 0.042(3) 0.6619(16) 0.1930(14)
H16 H -0.131(3) 0.6514(16) 0.2398(14)
loop_
_geom_bond_atom_site_label_1
_geom_bond_atom_site_label_2
_geom_bond_site_symmetry_1
_geom_bond_site_symmetry_2
O1 N1 1_555 1_555
O2 C1 1_555 1_555
O3 N7 1_555 1_555
N1 C1 1_555 1_555
N2 O1 1_555 1_555
N3 N4 1_555 1_555
N4 N5 1_555 1_555
N5 N6 1_555 1_555
N6 C3 1_555 1_555
N7 C4 1_555 1_555
N8 O3 1_555 1_555
N9 N10 1_555 1_555
N10 N11 1_555 1_555
N11 N12 1_555 1_555
N12 C6 1_555 1_555
N13 C7 1_555 1_555
N14 N15 1_555 1_555
N15 H4 1_555 1_555
N16 N17 1_555 1_555
N17 H7 1_555 1_555
N18 C8 1_555 1_555
N19 N20 1_555 1_555
N20 H12 1_555 1_555
N21 N22 1_555 1_555
N22 H15 1_555 1_555
C1 C2 1_555 1_555
C2 N2 1_555 1_555
C3 N3 1_555 1_555
C4 O2 1_555 1_555
C5 N8 1_555 1_555
C6 N9 1_555 1_555
C7 N14 1_555 1_555
C8 N19 1_555 1_555
H1 N13 1_555 1_555
H2 N13 1_555 1_555
H3 N14 1_555 1_555
H5 N15 1_555 1_555
H6 N16 1_555 1_555
H8 N17 1_555 1_555
H9 N18 1_555 1_555
H10 N18 1_555 1_555
H11 N19 1_555 1_555
H13 N20 1_555 1_555
H14 N21 1_555 1_555
H16 N22 1_555 1_555
N16 C7 1_555 1_555
N21 C8 1_555 1_555
C2 C3 1_555 1_555
C4 C5 1_555 1_555
C5 C6 1_555 1_555

#END
