
#######################################################################
#
#                 Cambridge Crystallographic Data Centre
#                                CCDC 
#
#######################################################################
#
# If this CIF has been generated from an entry in the Cambridge 
# Structural Database, then it will include bibliographic, chemical, 
# crystal, experimental, refinement or atomic coordinate data resulting 
# from the CCDC's data processing and validation procedures.
#
#######################################################################

data_CEKDAY
_chemical_formula_moiety         'C8 H2 Br1 N3 O2'
_chemical_name_systematic        4-Bromo-5-nitrophthalonitrile
_symmetry_cell_setting           orthorhombic
_symmetry_space_group_name_H-M   'P 21 21 21'
_symmetry_Int_Tables_number      19
_space_group_name_Hall           'P 2ac 2ab'
loop_
_symmetry_equiv_pos_site_id
_symmetry_equiv_pos_as_xyz
1 x,y,z
2 1/2-x,-y,1/2+z
3 -x,1/2+y,1/2-z
4 1/2+x,1/2-y,-z
_cell_length_a                   10.0191(14)
_cell_length_b                   6.8702(10)
_cell_length_c                   13.171(2)
_cell_angle_alpha                90
_cell_angle_beta                 90
_cell_angle_gamma                90
_cell_volume                     906.602
_exptl_crystal_colour            yellow
_exptl_crystal_description       platelet
_chemical_melting_point          '157.7-158.4 deg.C'
_cell_formula_units_Z            4
loop_
_atom_site_label
_atom_site_type_symbol
_atom_site_fract_x
_atom_site_fract_y
_atom_site_fract_z
Br1 Br 0.2673(4) 0.1942(6) 0.1719(4)
N1 N -0.0613(18) 0.840(3) -0.1739(15)
N2 N 0.249(2) 0.128(4) -0.0632(13)
O1 O 0.2619(15) -0.016(2) -0.0238(15)
N3 N -0.040(2) 0.957(3) 0.1255(16)
O2 O 0.281(2) 0.142(2) -0.131(3)
C1 C 0.1915(13) 0.3118(19) -0.0209(13)
C2 C 0.1925(13) 0.347(2) 0.0858(12)
C3 C 0.1390(15) 0.509(3) 0.1206(12)
H1 H 0.1476 0.5375 0.1894
C4 C 0.0668(13) 0.646(2) 0.0559(13)
C5 C 0.0671(13) 0.609(2) -0.0473(12)
C6 C 0.1292(13) 0.443(2) -0.0881(12)
H2 H 0.1292 0.4208 -0.1578
C7 C -0.0002(16) 0.748(3) -0.1165(15)
C8 C 0.0052(15) 0.815(3) 0.0989(13)
loop_
_geom_bond_atom_site_label_1
_geom_bond_atom_site_label_2
_geom_bond_site_symmetry_1
_geom_bond_site_symmetry_2
Br1 C2 1_555 1_555
N1 C7 1_555 1_555
N2 O1 1_555 1_555
N3 C8 1_555 1_555
O2 N2 1_555 1_555
C1 N2 1_555 1_555
C2 C1 1_555 1_555
C3 C2 1_555 1_555
H1 C3 1_555 1_555
C4 C3 1_555 1_555
C5 C4 1_555 1_555
C6 C1 1_555 1_555
H2 C6 1_555 1_555
C7 C5 1_555 1_555
C8 C4 1_555 1_555
C5 C6 1_555 1_555

#END
