
#######################################################################
#
#                 Cambridge Crystallographic Data Centre
#                                CCDC 
#
#######################################################################
#
# If this CIF has been generated from an entry in the Cambridge 
# Structural Database, then it will include bibliographic, chemical, 
# crystal, experimental, refinement or atomic coordinate data resulting 
# from the CCDC's data processing and validation procedures.
#
#######################################################################

data_CEKFOQ
_chemical_formula_moiety         'C14 H17 N1 O2 S1'
_chemical_name_systematic        
4-ethynyl-1-[(4-methylphenyl)sulfonyl]piperidine
_symmetry_cell_setting           monoclinic
_symmetry_space_group_name_H-M   'P 21/c'
_symmetry_Int_Tables_number      14
_space_group_name_Hall           '-P 2ybc'
loop_
_symmetry_equiv_pos_site_id
_symmetry_equiv_pos_as_xyz
1 x,y,z
2 -x,1/2+y,1/2-z
3 -x,-y,-z
4 x,1/2-y,1/2+z
_cell_length_a                   13.6441(8)
_cell_length_b                   11.0600(7)
_cell_length_c                   9.4024(5)
_cell_angle_alpha                90
_cell_angle_beta                 105.285(2)
_cell_angle_gamma                90
_cell_volume                     1368.67
_exptl_crystal_colour            colorless
_exptl_crystal_description       block
_cell_formula_units_Z            4
loop_
_atom_site_label
_atom_site_type_symbol
_atom_site_fract_x
_atom_site_fract_y
_atom_site_fract_z
S1 S 0.76852(4) 0.41635(5) 0.97834(5)
O1 O 0.73635(11) 0.50947(15) 1.06212(14)
O2 O 0.82125(11) 0.31323(15) 1.05210(15)
N1 N 0.84323(12) 0.48003(15) 0.88920(16)
C1 C 0.58320(16) 0.4464(2) 0.7834(2)
H1 H 0.5845 0.5256 0.8228
C2 C 0.81021(16) 0.59823(18) 0.8208(2)
H2 H 0.7862 0.6499 0.8907
H3 H 0.7533 0.5869 0.7315
C3 C 0.66096(15) 0.3655(2) 0.8423(2)
C4 C 0.65910(15) 0.2500(2) 0.7858(2)
H4 H 0.7124 0.1948 0.8268
C5 C 0.87972(15) 0.39835(19) 0.7899(2)
H5 H 0.8242 0.3825 0.7002
H6 H 0.9009 0.3202 0.8401
C6 C 0.50098(16) 0.2949(2) 0.6062(2)
C7 C 0.94155(16) 0.5799(2) 0.6768(2)
H7 H 1.0052 0.6186 0.6653
C8 C 0.57892(15) 0.2152(2) 0.6689(2)
H8 H 0.5772 0.1353 0.6311
C9 C 0.96872(16) 0.4559(2) 0.7478(2)
H9 H 0.9910 0.4023 0.6780
H10 H 1.0261 0.4646 0.8370
C10 C 0.86989(18) 0.5695(2) 0.5302(2)
C11 C 0.89847(17) 0.6588(2) 0.7797(2)
H11 H 0.9528 0.6761 0.8704
H12 H 0.8755 0.7369 0.7305
C12 C 0.50349(16) 0.4101(2) 0.6661(2)
H13 H 0.4497 0.4650 0.6262
C13 C 0.41575(17) 0.2589(2) 0.4751(2)
H14 H 0.4278 0.2934 0.3852
H15 H 0.3512 0.2893 0.4879
H16 H 0.4129 0.1705 0.4670
C14 C 0.8134(2) 0.5592(2) 0.4123(3)
H17 H 0.7679 0.5509 0.3172
loop_
_geom_bond_atom_site_label_1
_geom_bond_atom_site_label_2
_geom_bond_site_symmetry_1
_geom_bond_site_symmetry_2
S1 O1 1_555 1_555
O2 S1 1_555 1_555
N1 S1 1_555 1_555
C1 H1 1_555 1_555
C2 N1 1_555 1_555
H2 C2 1_555 1_555
H3 C2 1_555 1_555
C3 S1 1_555 1_555
C4 C3 1_555 1_555
H4 C4 1_555 1_555
C5 N1 1_555 1_555
H5 C5 1_555 1_555
H6 C5 1_555 1_555
C6 C8 1_555 1_555
C7 H7 1_555 1_555
C8 C4 1_555 1_555
H8 C8 1_555 1_555
C9 C5 1_555 1_555
H9 C9 1_555 1_555
H10 C9 1_555 1_555
C10 C7 1_555 1_555
C11 C2 1_555 1_555
H11 C11 1_555 1_555
H12 C11 1_555 1_555
C12 C1 1_555 1_555
H13 C12 1_555 1_555
C13 C6 1_555 1_555
H14 C13 1_555 1_555
H15 C13 1_555 1_555
H16 C13 1_555 1_555
C14 C10 1_555 1_555
H17 C14 1_555 1_555
C1 C3 1_555 1_555
C6 C12 1_555 1_555
C7 C9 1_555 1_555
C7 C11 1_555 1_555

#END
