
#######################################################################
#
#                 Cambridge Crystallographic Data Centre
#                                CCDC 
#
#######################################################################
#
# If this CIF has been generated from an entry in the Cambridge 
# Structural Database, then it will include bibliographic, chemical, 
# crystal, experimental, refinement or atomic coordinate data resulting 
# from the CCDC's data processing and validation procedures.
#
#######################################################################

data_CEKFUW
_chemical_formula_moiety         'C17 H25 N1 O2 S1 Si1'
_chemical_name_systematic        
1-[(4-methylphenyl)sulfonyl]-4-[(trimethylsilyl)ethynyl]piperidine
_symmetry_cell_setting           monoclinic
_symmetry_space_group_name_H-M   'P 21/n'
_symmetry_Int_Tables_number      14
_space_group_name_Hall           '-P 2yn'
loop_
_symmetry_equiv_pos_site_id
_symmetry_equiv_pos_as_xyz
1 x,y,z
2 1/2-x,1/2+y,1/2-z
3 -x,-y,-z
4 1/2+x,1/2-y,1/2+z
_cell_length_a                   6.0816(5)
_cell_length_b                   22.5674(17)
_cell_length_c                   13.6708(13)
_cell_angle_alpha                90
_cell_angle_beta                 101.486(3)
_cell_angle_gamma                90
_cell_volume                     1838.69
_exptl_crystal_colour            colorless
_exptl_crystal_description       needle
_cell_formula_units_Z            4
loop_
_atom_site_label
_atom_site_type_symbol
_atom_site_fract_x
_atom_site_fract_y
_atom_site_fract_z
S1 S 0.58920(9) 0.64236(2) 0.51191(4)
Si1 Si 0.20173(12) 0.61253(4) 0.94079(5)
O1 O 0.8261(3) 0.64046(7) 0.51467(12)
O2 O 0.4360(3) 0.64438(7) 0.41742(12)
N1 N 0.5269(3) 0.58283(8) 0.56956(14)
C1 C 0.3196(4) 0.72724(10) 0.57036(17)
H1 H 0.201961 0.711953 0.520413
C2 C 0.2806(4) 0.77378(11) 0.63089(18)
H2 H 0.134466 0.790451 0.621482
C3 C 0.4498(4) 0.79681(11) 0.70516(18)
C4 C 0.6629(4) 0.77160(11) 0.71830(18)
H3 H 0.780137 0.786544 0.768809
C5 C 0.7065(4) 0.72501(11) 0.65871(17)
H4 H 0.852170 0.708035 0.668645
C6 C 0.5353(4) 0.70329(10) 0.58429(16)
C7 C 0.4044(5) 0.84814(12) 0.7682(2)
H5 H 0.416895 0.885290 0.732578
H6 H 0.514080 0.848049 0.831349
H7 H 0.252781 0.844592 0.781846
C8 C 0.6720(4) 0.57154(10) 0.66824(17)
H8 H 0.632797 0.599289 0.718193
H9 H 0.831044 0.578156 0.664468
C9 C 0.6402(4) 0.50801(11) 0.69991(18)
H10 H 0.734011 0.500930 0.766818
H11 H 0.690105 0.480445 0.652371
C10 C 0.3922(4) 0.49552(11) 0.70296(17)
H12 H 0.374729 0.452375 0.716219
C11 C 0.2467(4) 0.51095(10) 0.60091(17)
H13 H 0.282480 0.483423 0.549882
H14 H 0.086543 0.505671 0.603768
C12 C 0.2854(4) 0.57451(10) 0.57044(17)
H15 H 0.194562 0.582629 0.503263
H16 H 0.238650 0.602490 0.618225
C13 C 0.3209(4) 0.53021(11) 0.78331(17)
C14 C 0.2654(4) 0.56116(12) 0.84550(19)
C15 C 0.2809(7) 0.68809(15) 0.9058(2)
H17 H 0.249317 0.716791 0.955033
H18 H 0.441333 0.688952 0.904335
H19 H 0.193857 0.698338 0.839707
C16 C -0.1008(6) 0.6086(3) 0.9441(3)
H20 H -0.134056 0.635963 0.994903
H21 H -0.189356 0.619584 0.878688
H22 H -0.139090 0.568094 0.960592
C17 C 0.3669(5) 0.59005(13) 1.0643(2)
H23 H 0.334509 0.617058 1.115722
H24 H 0.326092 0.549537 1.079389
H25 H 0.527273 0.591660 1.062914
loop_
_geom_bond_atom_site_label_1
_geom_bond_atom_site_label_2
_geom_bond_site_symmetry_1
_geom_bond_site_symmetry_2
S1 O1 1_555 1_555
Si1 C14 1_555 1_555
O2 S1 1_555 1_555
N1 S1 1_555 1_555
C1 H1 1_555 1_555
C2 C1 1_555 1_555
H2 C2 1_555 1_555
C3 C2 1_555 1_555
C4 C3 1_555 1_555
H3 C4 1_555 1_555
C5 C4 1_555 1_555
H4 C5 1_555 1_555
C6 S1 1_555 1_555
C7 C3 1_555 1_555
H5 C7 1_555 1_555
H6 C7 1_555 1_555
H7 C7 1_555 1_555
C8 N1 1_555 1_555
H8 C8 1_555 1_555
H9 C8 1_555 1_555
C9 C8 1_555 1_555
H10 C9 1_555 1_555
H11 C9 1_555 1_555
C10 C9 1_555 1_555
H12 C10 1_555 1_555
C11 C10 1_555 1_555
H13 C11 1_555 1_555
H14 C11 1_555 1_555
C12 N1 1_555 1_555
H15 C12 1_555 1_555
H16 C12 1_555 1_555
C13 C10 1_555 1_555
C14 C13 1_555 1_555
C15 Si1 1_555 1_555
H17 C15 1_555 1_555
H18 C15 1_555 1_555
H19 C15 1_555 1_555
C16 Si1 1_555 1_555
H20 C16 1_555 1_555
H21 C16 1_555 1_555
H22 C16 1_555 1_555
C17 Si1 1_555 1_555
H23 C17 1_555 1_555
H24 C17 1_555 1_555
H25 C17 1_555 1_555
C1 C6 1_555 1_555
C5 C6 1_555 1_555
C11 C12 1_555 1_555

#END
