
#######################################################################
#
#                 Cambridge Crystallographic Data Centre
#                                CCDC 
#
#######################################################################
#
# If this CIF has been generated from an entry in the Cambridge 
# Structural Database, then it will include bibliographic, chemical, 
# crystal, experimental, refinement or atomic coordinate data resulting 
# from the CCDC's data processing and validation procedures.
#
#######################################################################

data_CEKGAD
_chemical_formula_moiety         'C9 H10 O1'
_chemical_name_systematic        6-ethynylspiro[3.3]heptan-2-one
_symmetry_cell_setting           orthorhombic
_symmetry_space_group_name_H-M   'P n a 21'
_symmetry_Int_Tables_number      33
_space_group_name_Hall           'P 2c -2n'
loop_
_symmetry_equiv_pos_site_id
_symmetry_equiv_pos_as_xyz
1 x,y,z
2 -x,-y,1/2+z
3 1/2+x,1/2-y,z
4 1/2-x,1/2+y,1/2+z
_cell_length_a                   17.139(10)
_cell_length_b                   8.183(4)
_cell_length_c                   11.077(5)
_cell_angle_alpha                90
_cell_angle_beta                 90
_cell_angle_gamma                90
_cell_volume                     1553.53
_exptl_crystal_colour            colorless
_exptl_crystal_description       plate
_cell_formula_units_Z            8
loop_
_atom_site_label
_atom_site_type_symbol
_atom_site_fract_x
_atom_site_fract_y
_atom_site_fract_z
O1 O 0.28185(11) 0.2595(3) 0.44617(19)
C1 C 0.28115(13) 0.2681(3) 0.5549(3)
C2 C 0.22450(14) 0.3428(4) 0.6446(3)
H1 H 0.172606 0.289660 0.645671
H2 H 0.219562 0.462981 0.637871
C3 C 0.26124(15) 0.3345(3) 1.0576(3)
C4 C 0.30575(14) 0.4151(3) 0.8414(2)
H3 H 0.295707 0.529088 0.815918
H4 H 0.360085 0.401368 0.870018
C5 C 0.33612(14) 0.2108(3) 0.6536(2)
H5 H 0.388043 0.263729 0.651210
H6 H 0.341080 0.090497 0.659005
C6 C 0.24321(14) 0.3447(3) 0.9289(2)
H7 H 0.192630 0.403499 0.917171
C7 C 0.27676(15) 0.3231(4) 1.1620(3)
H8 H 0.289149 0.313910 1.245294
C8 C 0.24394(15) 0.1865(3) 0.8523(3)
H9 H 0.278632 0.100089 0.884426
H10 H 0.191351 0.142721 0.834406
C9 C 0.27985(14) 0.2856(3) 0.7484(3)
O2 O 0.53894(11) 0.2885(3) 0.5507(2)
C10 C 0.51094(15) 0.2599(3) -0.0570(3)
C11 C 0.52670(15) 0.2458(4) -0.1606(3)
H11 H 0.539339 0.234498 -0.243644
C12 C 0.52475(14) 0.2245(3) 0.2546(3)
C13 C 0.48919(14) 0.1217(3) 0.1514(3)
H12 H 0.435898 0.081115 0.168488
H13 H 0.523440 0.032331 0.122780
C14 C 0.49130(14) 0.2772(3) 0.0706(3)
H14 H 0.441319 0.339109 0.079239
C15 C 0.57887(14) 0.1573(3) 0.3556(3)
H15 H 0.576145 0.037284 0.365928
H16 H 0.633627 0.194871 0.349363
C16 C 0.53041(14) 0.2524(3) 0.4467(3)
C17 C 0.46835(14) 0.2926(4) 0.3532(3)
H17 H 0.457222 0.410819 0.345250
H18 H 0.419609 0.228863 0.362347
C18 C 0.55362(14) 0.3474(3) 0.1592(3)
H19 H 0.608146 0.329094 0.133000
H20 H 0.544898 0.463170 0.181463
loop_
_geom_bond_atom_site_label_1
_geom_bond_atom_site_label_2
_geom_bond_site_symmetry_1
_geom_bond_site_symmetry_2
O1 C1 1_555 1_555
C1 C2 1_555 1_555
C2 H1 1_555 1_555
H2 C2 1_555 1_555
C3 C6 1_555 1_555
C4 H3 1_555 1_555
H4 C4 1_555 1_555
C5 C1 1_555 1_555
H5 C5 1_555 1_555
H6 C5 1_555 1_555
C6 C4 1_555 1_555
H7 C6 1_555 1_555
C7 C3 1_555 1_555
H8 C7 1_555 1_555
C8 C6 1_555 1_555
H9 C8 1_555 1_555
H10 C8 1_555 1_555
C9 C2 1_555 1_555
O2 C16 1_555 1_555
C10 C11 1_555 1_555
C11 H11 1_555 1_555
C12 C13 1_555 1_555
C13 H12 1_555 1_555
H13 C13 1_555 1_555
C14 C10 1_555 1_555
H14 C14 1_555 1_555
C15 C12 1_555 1_555
H15 C15 1_555 1_555
H16 C15 1_555 1_555
C16 C15 1_555 1_555
C17 C12 1_555 1_555
H17 C17 1_555 1_555
H18 C17 1_555 1_555
C18 C12 1_555 1_555
H19 C18 1_555 1_555
H20 C18 1_555 1_555
C4 C9 1_555 1_555
C5 C9 1_555 1_555
C8 C9 1_555 1_555
C13 C14 1_555 1_555
C14 C18 1_555 1_555
C16 C17 1_555 1_555

#END
