
#######################################################################
#
#                 Cambridge Crystallographic Data Centre
#                                CCDC 
#
#######################################################################
#
# If this CIF has been generated from an entry in the Cambridge 
# Structural Database, then it will include bibliographic, chemical, 
# crystal, experimental, refinement or atomic coordinate data resulting 
# from the CCDC's data processing and validation procedures.
#
#######################################################################

data_CEKGAB
_chemical_formula_moiety         'C21 H17 N3 S1'
_chemical_name_systematic        
N-(Anthracen-9-yl)-N'-(2-pyridylmethyl)thiourea
_symmetry_cell_setting           monoclinic
_symmetry_space_group_name_H-M   'P 21/c'
_symmetry_Int_Tables_number      14
_space_group_name_Hall           '-P 2ybc'
loop_
_symmetry_equiv_pos_site_id
_symmetry_equiv_pos_as_xyz
1 x,y,z
2 -x,1/2+y,1/2-z
3 -x,-y,-z
4 x,1/2-y,1/2+z
_cell_length_a                   11.682(5)
_cell_length_b                   15.641(6)
_cell_length_c                   10.541(4)
_cell_angle_alpha                90
_cell_angle_beta                 112.583(7)
_cell_angle_gamma                90
_cell_volume                     1778.35
_chemical_melting_point          '216-217 deg.C'
_cell_formula_units_Z            4
_exptl_crystal_recrystallization_method DMF
loop_
_atom_site_label
_atom_site_type_symbol
_atom_site_fract_x
_atom_site_fract_y
_atom_site_fract_z
C1 C 0.60885(17) 1.07403(14) 0.69823(17)
C2 C 0.5555(2) 1.14570(18) 0.7379(3)
C3 C 0.5198(2) 1.2159(2) 0.6584(3)
C4 C 0.5343(3) 1.2204(2) 0.5307(3)
C5 C 0.5847(2) 1.15440(19) 0.4885(3)
C6 C 0.62450(18) 1.07879(15) 0.56937(18)
C7 C 0.67880(19) 1.01056(15) 0.5292(2)
C8 C 0.71744(17) 0.93692(14) 0.60828(19)
C9 C 0.7712(2) 0.86644(19) 0.5658(3)
C10 C 0.8042(2) 0.7945(2) 0.6404(3)
C11 C 0.7862(2) 0.7877(2) 0.7657(3)
C12 C 0.7382(2) 0.85341(17) 0.8130(2)
C13 C 0.70137(17) 0.93077(14) 0.73675(18)
C14 C 0.64843(16) 1.00019(13) 0.77831(17)
C15 C 0.7186(2) 1.00772(14) 1.03205(19)
C16 C 0.9421(2) 1.0339(2) 1.1700(2)
C17 C 1.00026(19) 0.94981(17) 1.2294(2)
C18 C 0.9950(3) 0.9176(3) 1.3508(3)
C19 C 1.0501(3) 0.8421(3) 1.4009(4)
C20 C 1.1091(3) 0.7974(3) 1.3338(4)
C21 C 1.1125(3) 0.8324(2) 1.2124(4)
N1 N 0.63052(17) 0.99495(12) 0.90611(16)
N2 N 0.83376(16) 1.02419(12) 1.04058(16)
N3 N 1.05948(18) 0.90871(15) 1.16087(18)
S1 S 0.68089(6) 1.00139(6) 1.17185(5)
H1 H 0.7233(18) 0.8504(12) 0.895(2)
H2 H 0.6880(17) 1.0145(10) 0.445(2)
H3 H 0.5440(18) 1.1388(12) 0.821(2)
H4 H 0.551(2) 0.9929(12) 0.898(2)
H5 H 0.853(2) 1.0281(13) 0.965(2)
H6 H 1.006(2) 1.0683(14) 1.153(2)
H7 H 0.7798(18) 0.8728(13) 0.480(2)
H8 H 0.5990(19) 1.1539(13) 0.402(2)
H9 H 0.9107(19) 1.0650(13) 1.238(2)
H10 H 1.156(2) 0.8102(14) 1.148(2)
H11 H 0.482(2) 1.2656(16) 0.686(2)
H12 H 0.841(2) 0.7455(15) 0.611(2)
H13 H 0.509(2) 1.2720(16) 0.482(2)
H14 H 0.803(2) 0.7361(16) 0.810(2)
H15 H 1.152(3) 0.742(2) 1.349(3)
H16 H 1.050(3) 0.8129(19) 1.491(3)
H17 H 0.952(2) 0.9548(16) 1.390(2)
loop_
_geom_bond_atom_site_label_1
_geom_bond_atom_site_label_2
_geom_bond_site_symmetry_1
_geom_bond_site_symmetry_2
C1 C2 1_555 1_555
C2 C3 1_555 1_555
C3 C4 1_555 1_555
C4 C5 1_555 1_555
C5 C6 1_555 1_555
C6 C1 1_555 1_555
C7 C6 1_555 1_555
C8 C7 1_555 1_555
C9 C8 1_555 1_555
C10 C9 1_555 1_555
C11 C10 1_555 1_555
C12 C11 1_555 1_555
C13 C8 1_555 1_555
C14 C1 1_555 1_555
C15 N1 1_555 1_555
C16 C17 1_555 1_555
C17 C18 1_555 1_555
C18 C19 1_555 1_555
C19 C20 1_555 1_555
C20 C21 1_555 1_555
C21 N3 1_555 1_555
N1 C14 1_555 1_555
N2 C15 1_555 1_555
N3 C17 1_555 1_555
S1 C15 1_555 1_555
H1 C12 1_555 1_555
H2 C7 1_555 1_555
H3 C2 1_555 1_555
H4 N1 1_555 1_555
H5 N2 1_555 1_555
H6 C16 1_555 1_555
H7 C9 1_555 1_555
H8 C5 1_555 1_555
H9 C16 1_555 1_555
H10 C21 1_555 1_555
H11 C3 1_555 1_555
H12 C10 1_555 1_555
H13 C4 1_555 1_555
H14 C11 1_555 1_555
H15 C20 1_555 1_555
H16 C19 1_555 1_555
H17 C18 1_555 1_555
C12 C13 1_555 1_555
C13 C14 1_555 1_555
C16 N2 1_555 1_555

#END
