
#######################################################################
#
#                 Cambridge Crystallographic Data Centre
#                                CCDC 
#
#######################################################################
#
# If this CIF has been generated from an entry in the Cambridge 
# Structural Database, then it will include bibliographic, chemical, 
# crystal, experimental, refinement or atomic coordinate data resulting 
# from the CCDC's data processing and validation procedures.
#
#######################################################################

data_CEKGIJ
_chemical_formula_moiety         'C22 H18 N2 S1,C3 H7 N1 O1'
_chemical_name_systematic        
"N-(Anthracen-9-yl)-N'-benzylthiourea dimethylformamide solvate"
_symmetry_cell_setting           triclinic
_symmetry_space_group_name_H-M   'P -1'
_symmetry_Int_Tables_number      2
_space_group_name_Hall           '-P 1'
loop_
_symmetry_equiv_pos_site_id
_symmetry_equiv_pos_as_xyz
1 x,y,z
2 -x,-y,-z
_cell_length_a                   10.3937(18)
_cell_length_b                   10.4043(18)
_cell_length_c                   10.6065(19)
_cell_angle_alpha                68.662(3)
_cell_angle_beta                 89.730(3)
_cell_angle_gamma                82.075(3)
_cell_volume                     1056.86
_exptl_crystal_colour            'pale yellow'
_chemical_melting_point          '203-204 deg.C'
_cell_formula_units_Z            2
loop_
_atom_site_label
_atom_site_type_symbol
_atom_site_fract_x
_atom_site_fract_y
_atom_site_fract_z
S1 S 0.39077(7) -0.13618(7) 0.16490(8)
N1 N 0.2450(2) 0.0535(2) 0.2413(2)
H1 H 0.2176 0.1466 0.2282
N2 N 0.4040(2) 0.1319(2) 0.0895(2)
C1 C 0.3841(3) 0.2703(3) 0.0913(3)
C2 C 0.4187(3) 0.2935(3) 0.2078(3)
C3 C 0.3402(3) 0.0257(3) 0.1678(3)
C4 C 0.0379(3) -0.0481(3) 0.3053(3)
C5 C 0.3362(2) 0.3806(3) -0.0290(3)
C6 C 0.3217(3) 0.5211(3) -0.0319(3)
C7 C 0.1801(3) -0.0501(3) 0.3408(3)
H2 H 0.1853 -0.0367 0.4264
H3 H 0.2270 -0.1417 0.3540
C8 C 0.4721(3) 0.1846(3) 0.3299(3)
H4 H 0.4900 0.0937 0.3322
C9 C 0.3985(3) 0.4334(3) 0.2062(3)
C10 C 0.3527(3) 0.5430(3) 0.0854(3)
H5 H 0.3426 0.6339 0.0835
C11 C -0.0418(3) -0.1112(3) 0.4082(3)
H6 H -0.0079 -0.1509 0.4972
C12 C -0.0147(3) 0.0110(3) 0.1737(3)
H7 H 0.0369 0.0539 0.1032
C13 C 0.3024(3) 0.3598(3) -0.1491(3)
H8 H 0.3113 0.2698 -0.1494
C14 C -0.1445(3) 0.0064(3) 0.1466(3)
H9 H -0.1790 0.0464 0.0578
C15 C 0.4973(3) 0.2111(3) 0.4427(3)
H10 H 0.5324 0.1386 0.5211
C16 C 0.2724(3) 0.6330(3) -0.1539(3)
H11 H 0.2615 0.7242 -0.1565
C17 C -0.1707(3) -0.1161(3) 0.3810(4)
H12 H -0.2224 -0.1593 0.4512
C18 C 0.4257(3) 0.4561(3) 0.3269(3)
H13 H 0.4124 0.5464 0.3268
C19 C 0.2572(3) 0.4698(3) -0.2635(3)
H14 H 0.2365 0.4539 -0.3413
C20 C -0.2223(3) -0.0566(3) 0.2492(4)
H15 H -0.3090 -0.0592 0.2303
C21 C 0.4705(3) 0.3488(3) 0.4417(4)
H16 H 0.4839 0.3653 0.5208
C22 C 0.2413(3) 0.6080(3) -0.2660(4)
H17 H 0.2093 0.6820 -0.3448
O1 O 0.1146(2) 0.3025(2) 0.2776(2)
N3 N 0.0690(3) 0.5364(3) 0.2262(3)
C23 C 0.0874(3) 0.4217(4) 0.1952(5)
C24 C 0.0392(4) 0.6715(4) 0.1179(5)
H18 H 0.0330 0.6593 0.0328
H19 H 0.1070 0.7261 0.1162
H20 H -0.0420 0.7187 0.1330
C25 C 0.0866(5) 0.5383(6) 0.3571(5)
H21 H 0.1064 0.4444 0.4212
H22 H 0.0083 0.5833 0.3807
H23 H 0.1570 0.5886 0.3586
loop_
_geom_bond_atom_site_label_1
_geom_bond_atom_site_label_2
_geom_bond_site_symmetry_1
_geom_bond_site_symmetry_2
S1 C3 1_555 1_555
N1 H1 1_555 1_555
N2 C1 1_555 1_555
C1 C2 1_555 1_555
C2 C8 1_555 1_555
C3 N1 1_555 1_555
C4 C7 1_555 1_555
C5 C1 1_555 1_555
C6 C5 1_555 1_555
C7 N1 1_555 1_555
H2 C7 1_555 1_555
H3 C7 1_555 1_555
C8 H4 1_555 1_555
C9 C2 1_555 1_555
C10 C6 1_555 1_555
H5 C10 1_555 1_555
C11 C4 1_555 1_555
H6 C11 1_555 1_555
C12 C4 1_555 1_555
H7 C12 1_555 1_555
C13 C5 1_555 1_555
H8 C13 1_555 1_555
C14 C12 1_555 1_555
H9 C14 1_555 1_555
C15 C8 1_555 1_555
H10 C15 1_555 1_555
C16 C6 1_555 1_555
H11 C16 1_555 1_555
C17 C11 1_555 1_555
H12 C17 1_555 1_555
C18 C9 1_555 1_555
H13 C18 1_555 1_555
C19 C13 1_555 1_555
H14 C19 1_555 1_555
C20 C14 1_555 1_555
H15 C20 1_555 1_555
C21 C15 1_555 1_555
H16 C21 1_555 1_555
C22 C16 1_555 1_555
H17 C22 1_555 1_555
O1 C23 1_555 1_555
N3 C23 1_555 1_555
C24 N3 1_555 1_555
H18 C24 1_555 1_555
H19 C24 1_555 1_555
H20 C24 1_555 1_555
C25 N3 1_555 1_555
H21 C25 1_555 1_555
H22 C25 1_555 1_555
H23 C25 1_555 1_555
N2 C3 1_555 1_555
C9 C10 1_555 1_555
C17 C20 1_555 1_555
C18 C21 1_555 1_555
C19 C22 1_555 1_555

#END
