
#######################################################################
#
#                 Cambridge Crystallographic Data Centre
#                                CCDC 
#
#######################################################################
#
# If this CIF has been generated from an entry in the Cambridge 
# Structural Database, then it will include bibliographic, chemical, 
# crystal, experimental, refinement or atomic coordinate data resulting 
# from the CCDC's data processing and validation procedures.
#
#######################################################################

data_CEKMAH02
_chemical_formula_moiety         'C7 H9 N2 O4 1+,Br1 1-'
_chemical_name_systematic        '1,3-bis(carboxymethyl)imidazolium bromide'
_symmetry_cell_setting           monoclinic
_symmetry_space_group_name_H-M   'P 21/n'
_symmetry_Int_Tables_number      14
_space_group_name_Hall           '-P 2yn'
loop_
_symmetry_equiv_pos_site_id
_symmetry_equiv_pos_as_xyz
1 x,y,z
2 1/2-x,1/2+y,1/2-z
3 -x,-y,-z
4 1/2+x,1/2-y,1/2+z
_cell_length_a                   10.3407(19)
_cell_length_b                   9.2205(16)
_cell_length_c                   10.7519(19)
_cell_angle_alpha                90
_cell_angle_beta                 108.641(2)
_cell_angle_gamma                90
_cell_volume                     971.376
_exptl_crystal_colour            colorless
_exptl_crystal_description       block
_cell_formula_units_Z            4
loop_
_atom_site_label
_atom_site_type_symbol
_atom_site_fract_x
_atom_site_fract_y
_atom_site_fract_z
O1 O 0.3566(4) 0.1871(4) 0.8062(4)
N1 N 0.1918(4) 0.1564(3) 0.3834(4)
C1 C 0.1343(5) 0.1607(4) 0.4777(5)
H1 H 0.0617 0.2197 0.4789
C2 C 0.2961(4) 0.0559(5) 0.4171(4)
H2 H 0.3526 0.0317 0.3681
O2 O 0.0797(4) 0.0005(4) 0.1591(3)
O3 O 0.0341(4) 0.2005(4) 0.0350(3)
H3 H -0.0096 0.1443 -0.0221
C3 C 0.3010(5) -0.0005(5) 0.5339(5)
H4 H 0.3615 -0.0707 0.5811
O4 O 0.2557(4) 0.0443(5) 0.9169(3)
H5 H 0.2559 0.1107 0.9677
C4 C 0.1686(5) 0.0350(5) 0.6913(4)
H6 H 0.1647 -0.0692 0.7020
H7 H 0.0796 0.0744 0.6846
N2 N 0.1988(3) 0.0659(4) 0.5701(3)
C5 C 0.1449(4) 0.2345(5) 0.2587(4)
H8 H 0.2212 0.2846 0.2441
H9 H 0.0776 0.3064 0.2620
C6 C 0.0826(5) 0.1307(5) 0.1467(5)
C7 C 0.2727(4) 0.0975(5) 0.8095(4)
Br1 Br 0.54411(5) 0.84341(6) 0.82395(5)
loop_
_geom_bond_atom_site_label_1
_geom_bond_atom_site_label_2
_geom_bond_site_symmetry_1
_geom_bond_site_symmetry_2
O1 C7 1_555 1_555
N1 C1 1_555 1_555
C1 H1 1_555 1_555
C2 N1 1_555 1_555
H2 C2 1_555 1_555
O2 C6 1_555 1_555
O3 H3 1_555 1_555
C3 C2 1_555 1_555
H4 C3 1_555 1_555
O4 H5 1_555 1_555
C4 H6 1_555 1_555
H7 C4 1_555 1_555
N2 C1 1_555 1_555
C5 N1 1_555 1_555
H8 C5 1_555 1_555
H9 C5 1_555 1_555
C6 O3 1_555 1_555
C7 O4 1_555 1_555
C3 N2 1_555 1_555
C4 N2 1_555 1_555
C4 C7 1_555 1_555
C5 C6 1_555 1_555

#END
