
#######################################################################
#
#                 Cambridge Crystallographic Data Centre
#                                CCDC 
#
#######################################################################
#
# If this CIF has been generated from an entry in the Cambridge 
# Structural Database, then it will include bibliographic, chemical, 
# crystal, experimental, refinement or atomic coordinate data resulting 
# from the CCDC's data processing and validation procedures.
#
#######################################################################

data_CEKNEL
_chemical_name_common            3,3',5,5'-Tetrabromophenolsulfonphthalein
_chemical_formula_moiety         'C19 H10 Br4 O5 S1'
_chemical_name_systematic        
4,4'-(3H-2,1-Benzoxathiol-3-ylidene)-bis(2,6-dibromophenol)-S,S-dioxide
_symmetry_cell_setting           monoclinic
_symmetry_space_group_name_H-M   'C 2/c'
_symmetry_Int_Tables_number      15
_space_group_name_Hall           '-C 2yn'
loop_
_symmetry_equiv_pos_site_id
_symmetry_equiv_pos_as_xyz
1 x,y,z
2 1/2+x,1/2+y,z
3 -x,y,1/2-z
4 1/2-x,1/2+y,1/2-z
5 -x,-y,-z
6 1/2-x,1/2-y,-z
7 x,-y,1/2+z
8 1/2+x,1/2-y,1/2+z
_cell_length_a                   31.003(4)
_cell_length_b                   11.037(2)
_cell_length_c                   21.183(3)
_cell_angle_alpha                90
_cell_angle_beta                 143.7(1)
_cell_angle_gamma                90
_cell_volume                     4291.15
_cell_formula_units_Z            8
loop_
_atom_site_label
_atom_site_type_symbol
_atom_site_fract_x
_atom_site_fract_y
_atom_site_fract_z
Br1 Br 0.42330 0.85170 0.22720
Br2 Br 0.13200 0.96000 -0.05720
Br3 Br 0.41320 0.24770 0.19650
Br4 Br 0.47380 0.31410 0.52670
S1 S 0.13240 0.40970 0.01230
C1 C 0.25000 0.53570 0.14710
C2 C 0.26130 0.66190 0.12860
C3 C 0.32680 0.69130 0.17860
C4 C 0.33420 0.80560 0.15850
C5 C 0.27750 0.88420 0.08930
C6 C 0.21150 0.85010 0.03960
C7 C 0.20410 0.74120 0.06070
C8 C 0.31510 0.45260 0.22060
C9 C 0.33230 0.40080 0.18310
C10 C 0.39090 0.32510 0.24910
C11 C 0.43640 0.30090 0.35250
C12 C 0.41830 0.35380 0.38930
C13 C 0.35880 0.42850 0.32470
C14 C 0.21810 0.54810 0.17530
C15 C 0.24410 0.61490 0.25580
C16 C 0.20770 0.60920 0.27080
C17 C 0.14690 0.54310 0.20570
C18 C 0.11780 0.47600 0.12240
C19 C 0.15520 0.48350 0.10880
O1 O 0.28200 0.99500 0.06530
O2 O 0.49520 0.22660 0.41860
O3 O 0.19140 0.47970 0.04100
O4 O 0.14990 0.28500 0.03500
O5 O 0.06330 0.44070 -0.09270
H1 H 0.36900 0.63200 0.23000
H2 H 0.15400 0.71800 0.02000
H3 H 0.30400 0.42000 0.10900
H4 H 0.34600 0.46000 0.35200
H5 H 0.28900 0.66900 0.30300
H6 H 0.22900 0.65400 0.33500
H7 H 0.12000 0.55000 0.21500
H8 H 0.07200 0.41800 0.07100
loop_
_geom_bond_atom_site_label_1
_geom_bond_atom_site_label_2
_geom_bond_site_symmetry_1
_geom_bond_site_symmetry_2
Br1 C4 1_555 1_555
Br2 C6 1_555 1_555
Br3 C10 1_555 1_555
Br4 C12 1_555 1_555
S1 C19 1_555 1_555
C1 C2 1_555 1_555
C2 C3 1_555 1_555
C3 C4 1_555 1_555
C4 C5 1_555 1_555
C5 C6 1_555 1_555
C6 C7 1_555 1_555
C7 C2 1_555 1_555
C8 C1 1_555 1_555
C9 C8 1_555 1_555
C10 C9 1_555 1_555
C11 C10 1_555 1_555
C12 C11 1_555 1_555
C13 C8 1_555 1_555
C14 C1 1_555 1_555
C15 C14 1_555 1_555
C16 C15 1_555 1_555
C17 C16 1_555 1_555
C18 C17 1_555 1_555
C19 C14 1_555 1_555
O1 C5 1_555 1_555
O2 C11 1_555 1_555
O3 S1 1_555 1_555
O4 S1 1_555 1_555
O5 S1 1_555 1_555
H1 C3 1_555 1_555
H2 C7 1_555 1_555
H3 C9 1_555 1_555
H4 C13 1_555 1_555
H5 C15 1_555 1_555
H6 C16 1_555 1_555
H7 C17 1_555 1_555
H8 C18 1_555 1_555
C1 O3 1_555 1_555
C12 C13 1_555 1_555
C18 C19 1_555 1_555

#END
