
#######################################################################
#
#                 Cambridge Crystallographic Data Centre
#                                CCDC 
#
#######################################################################
#
# If this CIF has been generated from an entry in the Cambridge 
# Structural Database, then it will include bibliographic, chemical, 
# crystal, experimental, refinement or atomic coordinate data resulting 
# from the CCDC's data processing and validation procedures.
#
#######################################################################

data_CEKQIV
_chemical_formula_moiety         'C22 H27 B10 N1'
_chemical_name_systematic        
1-(4-(9-ethyl-9H-carbazol-3-yl)phenyl)-1,2-dicarba-closo-dodecaborane(11)
_symmetry_cell_setting           triclinic
_symmetry_space_group_name_H-M   'P 1'
_symmetry_Int_Tables_number      1
_space_group_name_Hall           'P 1'
loop_
_symmetry_equiv_pos_site_id
_symmetry_equiv_pos_as_xyz
1 x,y,z
_cell_length_a                   9.1013(11)
_cell_length_b                   11.0557(14)
_cell_length_c                   12.4779(14)
_cell_angle_alpha                109.4630(10)
_cell_angle_beta                 101.172(2)
_cell_angle_gamma                91.379(2)
_cell_volume                     1156.02
_exptl_crystal_colour            white
_exptl_crystal_description       block
_cell_formula_units_Z            2
loop_
_atom_site_label
_atom_site_type_symbol
_atom_site_fract_x
_atom_site_fract_y
_atom_site_fract_z
C1 C 0.3459(4) 0.7436(3) 0.2378(3)
C2 C 0.1224(4) 0.8399(3) 0.2905(3)
C3 C 0.1958(4) 0.7657(3) 0.2055(3)
H1 H 0.1450 0.7312 0.1282
N1 N 0.1037(3) 0.9543(3) 0.4752(2)
C4 C 0.6869(4) 0.4766(3) -0.1046(3)
C5 C 0.4305(4) 0.6741(3) 0.1475(3)
C6 C 0.2002(4) 0.8859(3) 0.4073(3)
C7 C 0.5977(4) 0.5481(3) -0.0173(3)
C8 C 0.4199(4) 0.7941(3) 0.3546(3)
H2 H 0.5202 0.7802 0.3752
C9 C 0.6346(4) 0.5471(3) 0.0956(3)
H3 H 0.7165 0.5051 0.1171
C10 C -0.0250(4) 0.8851(3) 0.2871(3)
C11 C 0.5524(4) 0.6069(3) 0.1754(3)
H4 H 0.5778 0.6030 0.2500
C12 C -0.0309(4) 0.9564(3) 0.4037(3)
C13 C 0.6756(4) 0.5127(3) -0.2229(3)
C14 C 0.3483(4) 0.8647(3) 0.4412(3)
H5 H 0.3982 0.8964 0.5189
C15 C 0.3946(4) 0.6755(3) 0.0359(3)
H6 H 0.3144 0.7197 0.0154
C16 C -0.1594(4) 1.0144(3) 0.4320(3)
H7 H -0.1626 1.0606 0.5088
C17 C 0.4751(4) 0.6122(3) -0.0477(3)
H8 H 0.4472 0.6128 -0.1232
C18 C -0.1497(4) 0.8742(3) 0.1987(3)
H9 H -0.1477 0.8274 0.1218
B1 B 0.8406(4) 0.5611(4) -0.1212(3)
B2 B 0.6797(5) 0.3816(4) -0.3426(3)
C19 C -0.2773(4) 0.9337(3) 0.2260(3)
H10 H -0.3600 0.9288 0.1672
C20 C 0.1459(4) 1.0212(3) 0.6014(3)
H11 H 0.2047 0.9669 0.6368
H12 H 0.0554 1.0346 0.6323
C21 C -0.2803(4) 1.0014(3) 0.3435(3)
H13 H -0.3673 1.0383 0.3612
B3 B 0.9605(5) 0.4432(4) -0.1739(3)
B4 B 0.8630(5) 0.4331(4) -0.0647(3)
B5 B 0.8382(5) 0.4980(3) -0.2726(3)
B6 B 0.5818(5) 0.3712(3) -0.2351(3)
B7 B 0.7030(6) 0.2523(4) -0.2877(4)
B8 B 0.8626(5) 0.3321(4) -0.3099(4)
H14 H 0.9224 0.2830 -0.3786
B9 B 0.7042(5) 0.3157(3) -0.1354(4)
B10 B 0.8769(6) 0.2912(4) -0.1823(4)
H15 H 0.9460 0.2154 -0.1681
C22 C 0.2353(6) 1.1488(4) 0.6343(4)
H16 H 0.3346 1.1351 0.6201
H17 H 0.2420 1.1963 0.7152
H18 H 0.1866 1.1968 0.5884
H19 H 0.665(5) 0.260(3) -0.081(3)
H20 H 0.662(4) 0.162(3) -0.340(3)
H21 H 0.897(4) 0.457(3) 0.013(3)
H22 H 0.463(4) 0.367(3) -0.231(3)
H23 H 0.613(5) 0.376(4) -0.423(4)
H24 H 0.842(5) 0.669(4) -0.075(4)
H25 H 0.871(4) 0.567(3) -0.314(3)
H26 H 1.095(6) 0.487(4) -0.171(4)
H27 H 0.614(7) 0.578(5) -0.250(5)
C23 C 0.7827(4) 0.6246(3) 0.4794(3)
N2 N 0.5566(3) 0.8535(2) 0.7209(2)
C24 C 1.1529(4) 0.2808(3) 0.2081(3)
C25 C 0.6401(4) 0.5867(3) 0.4896(3)
H28 H 0.5916 0.5066 0.4412
C26 C 0.8675(4) 0.5331(3) 0.4029(3)
C27 C 0.6449(4) 0.7901(3) 0.6442(3)
C28 C 0.9661(4) 0.5767(3) 0.3481(3)
H29 H 0.9720 0.6632 0.3551
C29 C 0.5705(4) 0.6681(3) 0.5717(3)
C30 C 0.8572(4) 0.4022(3) 0.3869(3)
H30 H 0.7884 0.3697 0.4190
C31 C 0.9462(4) 0.3195(3) 0.3247(3)
H31 H 0.9388 0.2329 0.3172
C32 C 0.4320(4) 0.6566(3) 0.6105(3)
C33 C 1.0479(4) 0.3655(3) 0.2728(3)
C34 C 0.8525(4) 0.7471(3) 0.5509(3)
H32 H 0.9466 0.7728 0.5428
C35 C 1.0556(4) 0.4959(3) 0.2838(3)
H33 H 1.1203 0.5279 0.2482
C36 C 0.4293(4) 0.7721(3) 0.7029(3)
C37 C 0.3126(4) 0.7911(3) 0.7621(3)
H34 H 0.3118 0.8671 0.8234
C38 C 0.3134(4) 0.5600(3) 0.5766(3)
H35 H 0.3123 0.4843 0.5146
B11 B 1.4439(5) 0.2068(4) 0.2157(4)
B12 B 1.2984(5) 0.2316(3) 0.2929(3)
C39 C 0.1978(4) 0.6933(3) 0.7266(3)
H36 H 0.1178 0.7045 0.7643
B13 B 1.3344(4) 0.3385(3) 0.2206(3)
C40 C 0.7856(4) 0.8310(3) 0.6330(3)
H37 H 0.8330 0.9122 0.6793
B14 B 1.3828(5) 0.2482(4) 0.0884(4)
C41 C 1.1487(4) 0.1283(3) 0.1973(3)
C42 C 0.1980(4) 0.5780(4) 0.6358(3)
H38 H 0.1202 0.5131 0.6151
B15 B 1.3230(5) 0.0737(3) 0.2053(3)
B16 B 1.3749(5) 0.0828(4) 0.0777(4)
C43 C 0.7000(5) 0.9330(4) 0.9240(3)
H39 H 0.6409 0.8697 0.9389
H40 H 0.7246 1.0090 0.9923
H41 H 0.7909 0.8988 0.9042
C44 C 0.6103(5) 0.9674(3) 0.8232(3)
H42 H 0.5251 1.0117 0.8470
H43 H 0.6734 1.0256 0.8039
B17 B 1.1861(5) 0.0317(4) 0.0715(4)
B18 B 1.2234(5) 0.1394(4) -0.0010(4)
B19 B 1.0767(5) 0.1640(4) 0.0755(3)
B20 B 1.2002(5) 0.2982(4) 0.0887(3)
H44 H 1.151(5) 0.366(3) 0.044(3)
H45 H 1.288(4) 0.260(3) 0.379(3)
H46 H 1.188(4) 0.111(3) -0.100(3)
H47 H 1.574(5) 0.220(4) 0.262(3)
H48 H 1.451(4) 0.007(3) 0.027(3)
H49 H 1.093(5) 0.108(5) 0.255(4)
H50 H 1.358(6) 0.438(5) 0.251(4)
H51 H 1.477(6) 0.283(5) 0.058(4)
H52 H 1.137(6) -0.042(5) 0.039(4)
H53 H 1.347(6) 0.001(4) 0.240(4)
H54 H 0.956(6) 0.160(4) 0.067(4)
loop_
_geom_bond_atom_site_label_1
_geom_bond_atom_site_label_2
_geom_bond_site_symmetry_1
_geom_bond_site_symmetry_2
C1 C3 1_555 1_555
C2 C3 1_555 1_555
C3 H1 1_555 1_555
N1 C6 1_555 1_555
C4 C7 1_555 1_555
C5 C1 1_555 1_555
C6 C2 1_555 1_555
C7 C9 1_555 1_555
C8 C1 1_555 1_555
H2 C8 1_555 1_555
C9 H3 1_555 1_555
C10 C2 1_555 1_555
C11 C5 1_555 1_555
H4 C11 1_555 1_555
C12 N1 1_555 1_555
C13 C4 1_555 1_555
C14 C6 1_555 1_555
H5 C14 1_555 1_555
C15 C5 1_555 1_555
H6 C15 1_555 1_555
C16 C12 1_555 1_555
H7 C16 1_555 1_555
C17 C7 1_555 1_555
H8 C17 1_555 1_555
C18 C10 1_555 1_555
H9 C18 1_555 1_555
B1 C4 1_555 1_555
B2 C13 1_555 1_555
C19 C18 1_555 1_555
H10 C19 1_555 1_555
C20 N1 1_555 1_555
H11 C20 1_555 1_555
H12 C20 1_555 1_555
C21 C16 1_555 1_555
H13 C21 1_555 1_555
B3 B1 1_555 1_555
B4 C4 1_555 1_555
B5 C13 1_555 1_555
B6 C4 1_555 1_555
B7 B2 1_555 1_555
B8 B2 1_555 1_555
H14 B8 1_555 1_555
B9 C4 1_555 1_555
B10 B3 1_555 1_555
H15 B10 1_555 1_555
C22 C20 1_555 1_555
H16 C22 1_555 1_555
H17 C22 1_555 1_555
H18 C22 1_555 1_555
H19 B9 1_555 1_555
H20 B7 1_555 1_555
H21 B4 1_555 1_555
H22 B6 1_555 1_555
H23 B2 1_555 1_555
H24 B1 1_555 1_555
H25 B5 1_555 1_555
H26 B3 1_555 1_555
H27 C13 1_555 1_555
C23 C25 1_555 1_555
N2 C27 1_555 1_555
C24 C33 1_555 1_555
C25 H28 1_555 1_555
C26 C23 1_555 1_555
C27 C29 1_555 1_555
C28 C26 1_555 1_555
H29 C28 1_555 1_555
C29 C25 1_555 1_555
C30 C26 1_555 1_555
H30 C30 1_555 1_555
C31 C30 1_555 1_555
H31 C31 1_555 1_555
C32 C29 1_555 1_555
C33 C31 1_555 1_555
C34 C23 1_555 1_555
H32 C34 1_555 1_555
C35 C28 1_555 1_555
H33 C35 1_555 1_555
C36 N2 1_555 1_555
C37 C36 1_555 1_555
H34 C37 1_555 1_555
C38 C32 1_555 1_555
H35 C38 1_555 1_555
B11 B12 1_555 1_555
B12 C24 1_555 1_555
C39 C37 1_555 1_555
H36 C39 1_555 1_555
B13 C24 1_555 1_555
C40 C27 1_555 1_555
H37 C40 1_555 1_555
B14 B11 1_555 1_555
C41 C24 1_555 1_555
C42 C38 1_555 1_555
H38 C42 1_555 1_555
B15 B11 1_555 1_555
B16 B11 1_555 1_555
C43 H39 1_555 1_555
H40 C43 1_555 1_555
H41 C43 1_555 1_555
C44 N2 1_555 1_555
H42 C44 1_555 1_555
H43 C44 1_555 1_555
B17 C41 1_555 1_555
B18 B14 1_555 1_555
B19 C24 1_555 1_555
B20 C24 1_555 1_555
H44 B20 1_555 1_555
H45 B12 1_555 1_555
H46 B18 1_555 1_555
H47 B11 1_555 1_555
H48 B16 1_555 1_555
H49 C41 1_555 1_555
H50 B13 1_555 1_555
H51 B14 1_555 1_555
H52 B17 1_555 1_555
H53 B15 1_555 1_555
H54 B19 1_555 1_555
C8 C14 1_555 1_555
C9 C11 1_555 1_555
C10 C12 1_555 1_555
C13 B1 1_555 1_555
C13 B6 1_555 1_555
C15 C17 1_555 1_555
B1 B4 1_555 1_555
B1 B5 1_555 1_555
B2 B5 1_555 1_555
B2 B6 1_555 1_555
C19 C21 1_555 1_555
B3 B4 1_555 1_555
B3 B5 1_555 1_555
B3 B8 1_555 1_555
B4 B9 1_555 1_555
B4 B10 1_555 1_555
B5 B8 1_555 1_555
B6 B7 1_555 1_555
B6 B9 1_555 1_555
B7 B8 1_555 1_555
B7 B9 1_555 1_555
B7 B10 1_555 1_555
B8 B10 1_555 1_555
B9 B10 1_555 1_555
C32 C36 1_555 1_555
C33 C35 1_555 1_555
C34 C40 1_555 1_555
B11 B13 1_555 1_555
B12 B13 1_555 1_555
B12 C41 1_555 1_555
B12 B15 1_555 1_555
C39 C42 1_555 1_555
B13 B14 1_555 1_555
B13 B20 1_555 1_555
B14 B16 1_555 1_555
B14 B20 1_555 1_555
C41 B15 1_555 1_555
C41 B19 1_555 1_555
B15 B16 1_555 1_555
B15 B17 1_555 1_555
B16 B17 1_555 1_555
B16 B18 1_555 1_555
C43 C44 1_555 1_555
B17 B18 1_555 1_555
B17 B19 1_555 1_555
B18 B19 1_555 1_555
B18 B20 1_555 1_555
B19 B20 1_555 1_555

#END
