
#######################################################################
#
#                 Cambridge Crystallographic Data Centre
#                                CCDC 
#
#######################################################################
#
# If this CIF has been generated from an entry in the Cambridge 
# Structural Database, then it will include bibliographic, chemical, 
# crystal, experimental, refinement or atomic coordinate data resulting 
# from the CCDC's data processing and validation procedures.
#
#######################################################################

data_CEKQAM
_chemical_formula_moiety         'C11 H13 N2 1+,Cl1 1-'
_chemical_name_systematic        '7-amino-2,4-dimethylquinolinium chloride'
_symmetry_cell_setting           triclinic
_symmetry_space_group_name_H-M   'P -1'
_symmetry_Int_Tables_number      2
_space_group_name_Hall           '-P 1'
loop_
_symmetry_equiv_pos_site_id
_symmetry_equiv_pos_as_xyz
1 x,y,z
2 -x,-y,-z
_cell_length_a                   7.0715(14)
_cell_length_b                   9.0663(18)
_cell_length_c                   17.098(3)
_cell_angle_alpha                92.53(3)
_cell_angle_beta                 101.12(3)
_cell_angle_gamma                102.62(3)
_cell_volume                     1045.36
_exptl_crystal_colour            yellow
_exptl_crystal_description       block
_cell_formula_units_Z            4
loop_
_atom_site_label
_atom_site_type_symbol
_atom_site_fract_x
_atom_site_fract_y
_atom_site_fract_z
Cl1 Cl 0.36436(10) 0.13095(6) 0.14267(3)
Cl2 Cl 0.63166(9) 0.62955(6) 0.34897(3)
N1 N 0.2615(2) 0.30307(16) 0.99401(8)
N2 N 0.3773(3) 0.7401(2) 1.18057(11)
C1 C 0.2081(3) 0.2322(2) 0.92039(10)
C2 C 0.1564(3) 0.3134(2) 0.85593(10)
H1 H 0.1214 0.2647 0.8045
C3 C 0.1556(3) 0.4648(2) 0.86661(10)
C4 C 0.2084(2) 0.53745(19) 0.94505(10)
C5 C 0.2644(2) 0.45325(18) 1.01014(10)
C6 C 0.2086(3) 0.6911(2) 0.96409(11)
H2 H 0.1713 0.7499 0.9232
C7 C 0.2621(3) 0.7539(2) 1.04069(12)
H3 H 0.2595 0.8548 1.0514
C8 C 0.3223(3) 0.6692(2) 1.10529(11)
C9 C 0.3226(3) 0.5184(2) 1.08939(10)
H4 H 0.3610 0.4610 1.1308
C10 C 0.2049(4) 0.0671(2) 0.91206(12)
H5 H 0.2828 0.0409 0.9596
H6 H 0.2590 0.0452 0.8667
H7 H 0.0709 0.0090 0.9046
C11 C 0.1004(4) 0.5492(3) 0.79546(11)
H8 H 0.1020 0.4906 0.7475
H9 H 0.1939 0.6451 0.8001
H10 H -0.0299 0.5659 0.7932
H21 H 0.292(4) 0.253(3) 1.0417(14)
H22 H 0.430(3) 0.694(3) 1.2223(14)
H23 H 0.382(4) 0.831(3) 1.1816(16)
N3 N 0.7412(2) -0.03867(19) 0.43274(9)
N4 N 0.6914(3) -0.2683(2) 0.67870(12)
C12 C 0.7620(3) 0.0805(2) 0.38926(11)
C13 C 0.7869(3) 0.2248(2) 0.42627(12)
H11 H 0.8002 0.3078 0.3960
C14 C 0.7925(3) 0.2473(2) 0.50670(12)
C15 C 0.7773(2) 0.1200(2) 0.55264(11)
C16 C 0.7461(2) -0.0269(2) 0.51349(10)
C17 C 0.7865(3) 0.1291(2) 0.63655(12)
H12 H 0.8100 0.2235 0.6649
C18 C 0.7615(3) 0.0020(2) 0.67567(11)
H13 H 0.7711 0.0115 0.7308
C19 C 0.7208(3) -0.1454(2) 0.63533(11)
C20 C 0.7174(3) -0.1580(2) 0.55398(11)
H14 H 0.6962 -0.2530 0.5265
C21 C 0.7523(3) 0.0512(3) 0.30195(12)
H15 H 0.7485 -0.0539 0.2897
H16 H 0.8670 0.1132 0.2878
H17 H 0.6350 0.0754 0.2722
C22 C 0.8095(4) 0.4030(2) 0.54568(15)
H18 H 0.8066 0.4739 0.5057
H19 H 0.9320 0.4332 0.5843
H20 H 0.7007 0.4011 0.5719
H24 H 0.713(4) -0.131(3) 0.4068(14)
H25 H 0.671(4) -0.252(3) 0.7328(16)
H26 H 0.627(4) -0.360(3) 0.6550(15)
loop_
_geom_bond_atom_site_label_1
_geom_bond_atom_site_label_2
_geom_bond_site_symmetry_1
_geom_bond_site_symmetry_2
N1 C1 1_555 1_555
N2 C8 1_555 1_555
N3 C12 1_555 1_555
N4 C19 1_555 1_555
C1 C2 1_555 1_555
C2 H1 1_555 1_555
C3 C2 1_555 1_555
C4 C3 1_555 1_555
C5 N1 1_555 1_555
C6 C4 1_555 1_555
H2 C6 1_555 1_555
C7 C6 1_555 1_555
H3 C7 1_555 1_555
C8 C7 1_555 1_555
C9 C5 1_555 1_555
H4 C9 1_555 1_555
C10 C1 1_555 1_555
H5 C10 1_555 1_555
H6 C10 1_555 1_555
H7 C10 1_555 1_555
C11 C3 1_555 1_555
H8 C11 1_555 1_555
H9 C11 1_555 1_555
H10 C11 1_555 1_555
C12 C13 1_555 1_555
C13 H11 1_555 1_555
C14 C13 1_555 1_555
C15 C14 1_555 1_555
C16 N3 1_555 1_555
C17 C15 1_555 1_555
H12 C17 1_555 1_555
C18 C17 1_555 1_555
H13 C18 1_555 1_555
C19 C18 1_555 1_555
C20 C16 1_555 1_555
H14 C20 1_555 1_555
C21 C12 1_555 1_555
H15 C21 1_555 1_555
H16 C21 1_555 1_555
H17 C21 1_555 1_555
C22 C14 1_555 1_555
H18 C22 1_555 1_555
H19 C22 1_555 1_555
H20 C22 1_555 1_555
H21 N1 1_555 1_555
H22 N2 1_555 1_555
H23 N2 1_555 1_555
H24 N3 1_555 1_555
H25 N4 1_555 1_555
H26 N4 1_555 1_555
C4 C5 1_555 1_555
C8 C9 1_555 1_555
C15 C16 1_555 1_555
C19 C20 1_555 1_555

#END
