
#######################################################################
#
#                 Cambridge Crystallographic Data Centre
#                                CCDC 
#
#######################################################################
#
# If this CIF has been generated from an entry in the Cambridge 
# Structural Database, then it will include bibliographic, chemical, 
# crystal, experimental, refinement or atomic coordinate data resulting 
# from the CCDC's data processing and validation procedures.
#
#######################################################################

data_CEKQOA
_chemical_formula_moiety         'C11 H13 N2 1+,C4 H5 O6 1-,2(H2 O1)'
_chemical_name_systematic        
'7-amino-2,4-dimethylquinolinium 3-carboxy-2,3-dihydroxypropanoate dihydrate'
_symmetry_cell_setting           orthorhombic
_symmetry_space_group_name_H-M   'P 21 21 21'
_symmetry_Int_Tables_number      19
_space_group_name_Hall           'P 2ac 2ab'
loop_
_symmetry_equiv_pos_site_id
_symmetry_equiv_pos_as_xyz
1 x,y,z
2 1/2-x,-y,1/2+z
3 -x,1/2+y,1/2-z
4 1/2+x,1/2-y,-z
_cell_length_a                   7.1192(14)
_cell_length_b                   15.328(3)
_cell_length_c                   15.729(3)
_cell_angle_alpha                90
_cell_angle_beta                 90
_cell_angle_gamma                90
_cell_volume                     1716.4
_exptl_crystal_colour            red
_exptl_crystal_description       block
_cell_formula_units_Z            4
loop_
_atom_site_label
_atom_site_type_symbol
_atom_site_fract_x
_atom_site_fract_y
_atom_site_fract_z
O1 O 0.8505(2) 0.14113(17) 0.22919(14)
O2 O 0.8427(2) 0.15074(14) 0.08789(13)
O3 O 0.4807(3) 0.14636(15) 0.24194(13)
H1 H 0.3898 0.1136 0.2448
O4 O 0.5447(3) 0.30162(13) 0.1441(2)
H2 H 0.4558 0.3348 0.1514
O5 O 0.1872(2) 0.15456(12) 0.07986(13)
O6 O 0.1848(3) 0.28952(14) 0.13186(19)
C12 C 0.7677(3) 0.14643(15) 0.16111(17)
C13 C 0.5520(3) 0.14603(16) 0.15826(16)
H13 H 0.5108 0.0922 0.1302
C14 C 0.4799(3) 0.22296(16) 0.10732(18)
H14 H 0.5263 0.2187 0.0488
C15 C 0.2645(3) 0.22416(16) 0.10657(17)
H22 H 0.973(9) 0.154(3) 0.097(3)
O7 O 0.1741(3) 0.0379(2) 0.2585(2)
H18 H 0.079(8) 0.072(4) 0.259(3)
H19 H 0.118(4) -0.0051(19) 0.2960(18)
O8 O 0.8712(3) 0.40117(17) 0.1309(3)
H20 H 0.9049 0.3344 0.1250
H21 H 0.8519 0.3782 0.1850
N1 N 0.2994(4) 0.65171(15) 0.10067(16)
N2 N 0.2848(6) 0.9642(2) 0.0932(3)
C1 C 0.3060(4) 0.57464(19) 0.0635(2)
C2 C 0.3034(5) 0.5696(2) -0.0245(2)
H3 H 0.3048 0.5152 -0.0507
C3 C 0.2988(4) 0.6426(3) -0.0727(2)
C4 C 0.2974(4) 0.7255(2) -0.03333(17)
C5 C 0.2956(3) 0.72846(17) 0.05702(17)
C6 C 0.2960(5) 0.8055(3) -0.0768(2)
H4 H 0.2970 0.8060 -0.1359
C7 C 0.2933(5) 0.8806(2) -0.0347(3)
H5 H 0.2945 0.9323 -0.0655
C8 C 0.2886(4) 0.88505(18) 0.0550(3)
C9 C 0.2910(4) 0.80686(19) 0.1015(2)
H6 H 0.2896 0.8075 0.1606
C10 C 0.3180(6) 0.4955(2) 0.1190(3)
H7 H 0.3957 0.5080 0.1673
H8 H 0.3715 0.4481 0.0873
H9 H 0.1944 0.4796 0.1378
C11 C 0.2929(8) 0.6358(4) -0.1690(3)
H10 H 0.2453 0.5796 -0.1851
H11 H 0.4173 0.6431 -0.1915
H12 H 0.2124 0.6805 -0.1914
H15 H 0.272(9) 1.012(5) 0.055(5)
H16 H 0.244(4) 0.9593(19) 0.163(2)
H17 H 0.304(5) 0.650(2) 0.149(2)
loop_
_geom_bond_atom_site_label_1
_geom_bond_atom_site_label_2
_geom_bond_site_symmetry_1
_geom_bond_site_symmetry_2
O1 C12 1_555 1_555
O2 C12 1_555 1_555
O3 H1 1_555 1_555
O4 H2 1_555 1_555
O5 C15 1_555 1_555
O6 C15 1_555 1_555
O7 H18 1_555 1_555
O8 H20 1_555 1_555
N1 C1 1_555 1_555
N2 C8 1_555 1_555
C1 C2 1_555 1_555
C2 H3 1_555 1_555
C3 C2 1_555 1_555
C4 C3 1_555 1_555
C5 N1 1_555 1_555
C6 C4 1_555 1_555
H4 C6 1_555 1_555
C7 C6 1_555 1_555
H5 C7 1_555 1_555
C8 C7 1_555 1_555
C9 C5 1_555 1_555
H6 C9 1_555 1_555
C10 C1 1_555 1_555
H7 C10 1_555 1_555
H8 C10 1_555 1_555
H9 C10 1_555 1_555
C11 C3 1_555 1_555
H10 C11 1_555 1_555
H11 C11 1_555 1_555
H12 C11 1_555 1_555
C12 C13 1_555 1_555
C13 O3 1_555 1_555
H13 C13 1_555 1_555
C14 O4 1_555 1_555
H14 C14 1_555 1_555
C15 C14 1_555 1_555
H15 N2 1_555 1_555
H16 N2 1_555 1_555
H17 N1 1_555 1_555
H19 O7 1_555 1_555
H21 O8 1_555 1_555
H22 O2 1_555 1_555
C4 C5 1_555 1_555
C8 C9 1_555 1_555
C13 C14 1_555 1_555

#END
