
#######################################################################
#
#                 Cambridge Crystallographic Data Centre
#                                CCDC 
#
#######################################################################
#
# If this CIF has been generated from an entry in the Cambridge 
# Structural Database, then it will include bibliographic, chemical, 
# crystal, experimental, refinement or atomic coordinate data resulting 
# from the CCDC's data processing and validation procedures.
#
#######################################################################

data_CEKREP
_chemical_formula_moiety         'C14 H16'
_chemical_name_systematic        1,4,5,8-Tetramethylnaphthalene
_symmetry_cell_setting           monoclinic
_symmetry_space_group_name_H-M   'P 21/n'
_symmetry_Int_Tables_number      14
_space_group_name_Hall           '-P 2yn'
loop_
_symmetry_equiv_pos_site_id
_symmetry_equiv_pos_as_xyz
1 x,y,z
2 1/2-x,1/2+y,1/2-z
3 -x,-y,-z
4 1/2+x,1/2-y,1/2+z
_cell_length_a                   7.962(3)
_cell_length_b                   5.205(1)
_cell_length_c                   12.922(4)
_cell_angle_alpha                90
_cell_angle_beta                 104.98(2)
_cell_angle_gamma                90
_cell_volume                     517.317
_exptl_crystal_colour            colorless
_chemical_melting_point          405-406.6K
_cell_formula_units_Z            2
loop_
_atom_site_label
_atom_site_type_symbol
_atom_site_fract_x
_atom_site_fract_y
_atom_site_fract_z
C1 C 0.54750 0.10060 0.53600
C2 C 0.47580 0.19510 0.61990
C3 C 0.70910 0.19090 0.52000
C4 C 0.76720 0.09280 0.43770
C5 C 0.32300 0.09380 0.63070
C6 C 0.55240 0.40710 0.69840
C7 C 0.82440 0.39490 0.58680
H1 H 0.67200 0.34200 0.74300
H2 H 0.56700 0.55700 0.66900
H3 H 0.46500 0.45800 0.74200
H4 H 0.77400 0.55800 0.58100
H5 H 0.85300 0.35900 0.65900
H6 H 0.93800 0.38100 0.56600
H7 H 0.27800 0.19000 0.68700
H8 H 0.88100 0.16600 0.42800
C1B C 0.45250 -0.10060 0.46400
C5B C 0.67700 -0.09380 0.36930
C4B C 0.23280 -0.09280 0.56230
C2B C 0.52420 -0.19510 0.38010
C3B C 0.29090 -0.19090 0.48000
H7B H 0.72200 -0.19000 0.31300
H8B H 0.11900 -0.16600 0.57200
C6B C 0.44760 -0.40710 0.30160
C7B C 0.17560 -0.39490 0.41320
H1B H 0.32800 -0.34200 0.25700
H2B H 0.43300 -0.55700 0.33100
H3B H 0.53500 -0.45800 0.25800
H4B H 0.22600 -0.55800 0.41900
H5B H 0.14700 -0.35900 0.34100
H6B H 0.06200 -0.38100 0.43400
loop_
_geom_bond_atom_site_label_1
_geom_bond_atom_site_label_2
_geom_bond_site_symmetry_1
_geom_bond_site_symmetry_2
C1 C2 1_555 1_555
C2 C5 1_555 1_555
C3 C1 1_555 1_555
C4 C3 1_555 1_555
C5 H7 1_555 1_555
C6 C2 1_555 1_555
C7 C3 1_555 1_555
H1 C6 1_555 1_555
H2 C6 1_555 1_555
H3 C6 1_555 1_555
H4 C7 1_555 1_555
H5 C7 1_555 1_555
H6 C7 1_555 1_555
H8 C4 1_555 1_555
C1B C1 1_555 1_555
C5B C4 1_555 1_555
C4B C5 1_555 1_555
C2B C1B 1_555 1_555
C3B C1B 1_555 1_555
H7B C5B 1_555 1_555
H8B C4B 1_555 1_555
C6B C2B 1_555 1_555
C7B C3B 1_555 1_555
H1B C6B 1_555 1_555
H2B C6B 1_555 1_555
H3B C6B 1_555 1_555
H4B C7B 1_555 1_555
H5B C7B 1_555 1_555
H6B C7B 1_555 1_555
C5B C2B 1_555 1_555
C4B C3B 1_555 1_555

#END
