
#######################################################################
#
#                 Cambridge Crystallographic Data Centre
#                                CCDC 
#
#######################################################################
#
# If this CIF has been generated from an entry in the Cambridge 
# Structural Database, then it will include bibliographic, chemical, 
# crystal, experimental, refinement or atomic coordinate data resulting 
# from the CCDC's data processing and validation procedures.
#
#######################################################################

data_CELHAF
_chemical_formula_moiety         'C31 H46 O2'
_chemical_name_systematic        3-tridecanoylestra-1(10),2,4-trien-17-one
_symmetry_cell_setting           monoclinic
_symmetry_space_group_name_H-M   'P 21'
_symmetry_Int_Tables_number      4
_space_group_name_Hall           'P 2yb'
loop_
_symmetry_equiv_pos_site_id
_symmetry_equiv_pos_as_xyz
1 x,y,z
2 -x,1/2+y,-z
_cell_length_a                   6.759(3)
_cell_length_b                   10.720(5)
_cell_length_c                   19.248(9)
_cell_angle_alpha                90
_cell_angle_beta                 95.11(4)
_cell_angle_gamma                90
_cell_volume                     1389.1
_exptl_crystal_colour            colorless
_exptl_crystal_description       prism
_cell_formula_units_Z            2
loop_
_atom_site_label
_atom_site_type_symbol
_atom_site_fract_x
_atom_site_fract_y
_atom_site_fract_z
O1 O -0.9633(6) 0.3096(5) 0.1965(2)
O2 O 0.4625(6) 0.6916(3) 0.5061(2)
C1 C -0.5177(7) 0.3886(6) 0.1663(3)
H1 H -0.377874 0.384549 0.180091
H2 H -0.545378 0.460664 0.137378
H3 H -0.558183 0.314789 0.140584
C2 C -0.6343(7) 0.3982(5) 0.2324(3)
C3 C -0.8514(9) 0.3993(7) 0.2036(3)
C4 C -0.9144(9) 0.5310(7) 0.1862(4)
H4 H -1.033566 0.552298 0.208216
H5 H -0.940407 0.541524 0.136172
C5 C -0.7359(9) 0.6144(6) 0.2152(3)
H6 H -0.654760 0.639276 0.178459
H7 H -0.781219 0.688360 0.238160
C6 C -0.6229(8) 0.5264(5) 0.2673(3)
H8 H -0.704158 0.520075 0.306826
C7 C -0.4149(7) 0.5591(4) 0.2986(2)
H9 H -0.326249 0.558320 0.260969
C8 C -0.4007(8) 0.6859(5) 0.3325(3)
H10 H -0.450025 0.748552 0.299005
H11 H -0.483539 0.687647 0.371163
C9 C -0.1905(9) 0.7166(4) 0.3588(3)
H12 H -0.192117 0.787236 0.390258
H13 H -0.119382 0.741943 0.319537
C10 C -0.0785(8) 0.6117(4) 0.3962(3)
C11 C 0.1010(8) 0.6380(4) 0.4360(2)
H14 H 0.144015 0.720333 0.439789
C12 C 0.2149(7) 0.5468(4) 0.4694(2)
C13 C 0.1527(8) 0.4239(4) 0.4625(2)
H15 H 0.229426 0.360369 0.483951
C14 C -0.0254(7) 0.3954(4) 0.4231(2)
H16 H -0.065186 0.312482 0.418749
C15 C -0.1442(7) 0.4871(4) 0.3905(2)
C16 C -0.3454(7) 0.4566(4) 0.3512(2)
H17 H -0.440366 0.459602 0.386788
C17 C -0.3643(8) 0.3257(4) 0.3214(3)
H18 H -0.335560 0.265866 0.358745
H19 H -0.266478 0.314413 0.287971
C18 C -0.5734(8) 0.2989(5) 0.2851(3)
H20 H -0.573207 0.218461 0.262065
H21 H -0.668855 0.295541 0.319822
C19 C 0.4034(8) 0.5851(4) 0.5116(3)
C20 C 0.5119(8) 0.4958(4) 0.5610(3)
H22 H 0.528808 0.417720 0.536847
H23 H 0.430469 0.479172 0.599032
C21 C 0.7153(8) 0.5411(5) 0.5917(3)
H24 H 0.812036 0.523904 0.558600
H25 H 0.710213 0.630818 0.597945
C22 C 0.7850(8) 0.4809(5) 0.6613(3)
H26 H 0.685442 0.495482 0.693662
H27 H 0.794013 0.391450 0.654474
C23 C 0.9825(8) 0.5274(5) 0.6938(3)
H28 H 1.084084 0.506415 0.663168
H29 H 0.977152 0.617621 0.696970
C24 C 1.0426(9) 0.4755(6) 0.7650(3)
H30 H 1.028488 0.385534 0.763020
H31 H 0.950876 0.506588 0.796912
C25 C 1.2517(9) 0.5060(7) 0.7947(3)
H32 H 1.342052 0.485577 0.759947
H33 H 1.260455 0.595212 0.802760
C26 C 1.3213(11) 0.4407(10) 0.8611(3)
H34 H 1.251083 0.477537 0.897857
H35 H 1.277630 0.354690 0.856454
C27 C 1.5260(12) 0.4387(13) 0.8850(4)
H36 H 1.569618 0.524361 0.892137
H37 H 1.598149 0.404481 0.848066
C28 C 1.5864(15) 0.3679(18) 0.9502(5)
H38 H 1.545045 0.414445 0.989636
H39 H 1.516259 0.288856 0.948481
C29 C 1.7930(17) 0.3441(15) 0.9616(6)
H40 H 1.859372 0.422080 0.974346
H41 H 1.839671 0.317029 0.917873
C30 C 1.853(2) 0.2542(18) 1.0134(7)
H42 H 1.785720 0.176080 1.001884
H43 H 1.813464 0.282130 1.057976
C31 C 2.065(2) 0.2329(17) 1.0197(7)
H44 H 2.104604 0.200807 0.976417
H45 H 2.098647 0.173607 1.056229
H46 H 2.133131 0.310020 1.030547
loop_
_geom_bond_atom_site_label_1
_geom_bond_atom_site_label_2
_geom_bond_site_symmetry_1
_geom_bond_site_symmetry_2
O1 C3 1_555 1_555
O2 C19 1_555 1_555
C1 H1 1_555 1_555
H2 C1 1_555 1_555
H3 C1 1_555 1_555
C2 C1 1_555 1_555
C3 C2 1_555 1_555
C4 C3 1_555 1_555
H4 C4 1_555 1_555
H5 C4 1_555 1_555
C5 C4 1_555 1_555
H6 C5 1_555 1_555
H7 C5 1_555 1_555
C6 C2 1_555 1_555
H8 C6 1_555 1_555
C7 C6 1_555 1_555
H9 C7 1_555 1_555
C8 C7 1_555 1_555
H10 C8 1_555 1_555
H11 C8 1_555 1_555
C9 C8 1_555 1_555
H12 C9 1_555 1_555
H13 C9 1_555 1_555
C10 C9 1_555 1_555
C11 C10 1_555 1_555
H14 C11 1_555 1_555
C12 C11 1_555 1_555
C13 C12 1_555 1_555
H15 C13 1_555 1_555
C14 C13 1_555 1_555
H16 C14 1_555 1_555
C15 C10 1_555 1_555
C16 C7 1_555 1_555
H17 C16 1_555 1_555
C17 C16 1_555 1_555
H18 C17 1_555 1_555
H19 C17 1_555 1_555
C18 C2 1_555 1_555
H20 C18 1_555 1_555
H21 C18 1_555 1_555
C19 C12 1_555 1_555
C20 C19 1_555 1_555
H22 C20 1_555 1_555
H23 C20 1_555 1_555
C21 C20 1_555 1_555
H24 C21 1_555 1_555
H25 C21 1_555 1_555
C22 C21 1_555 1_555
H26 C22 1_555 1_555
H27 C22 1_555 1_555
C23 C22 1_555 1_555
H28 C23 1_555 1_555
H29 C23 1_555 1_555
C24 C23 1_555 1_555
H30 C24 1_555 1_555
H31 C24 1_555 1_555
C25 C24 1_555 1_555
H32 C25 1_555 1_555
H33 C25 1_555 1_555
C26 C25 1_555 1_555
H34 C26 1_555 1_555
H35 C26 1_555 1_555
C27 C26 1_555 1_555
H36 C27 1_555 1_555
H37 C27 1_555 1_555
C28 C27 1_555 1_555
H38 C28 1_555 1_555
H39 C28 1_555 1_555
C29 C28 1_555 1_555
H40 C29 1_555 1_555
H41 C29 1_555 1_555
C30 C29 1_555 1_555
H42 C30 1_555 1_555
H43 C30 1_555 1_555
C31 C30 1_555 1_555
H44 C31 1_555 1_555
H45 C31 1_555 1_555
H46 C31 1_555 1_555
C5 C6 1_555 1_555
C14 C15 1_555 1_555
C15 C16 1_555 1_555
C17 C18 1_555 1_555

#END
