
#######################################################################
#
#                 Cambridge Crystallographic Data Centre
#                                CCDC 
#
#######################################################################
#
# If this CIF has been generated from an entry in the Cambridge 
# Structural Database, then it will include bibliographic, chemical, 
# crystal, experimental, refinement or atomic coordinate data resulting 
# from the CCDC's data processing and validation procedures.
#
#######################################################################

data_CELLOB06
_chemical_name_common            Cellobiose
_chemical_formula_moiety         'C12 H22 O11'
_chemical_name_systematic        
6-(hydroxymethyl)-5-((3,4,5-trihydroxy-6-(hydroxymethyl)tetrahydro-2H-pyran-2-yl)oxy)tetrahydro-2H-pyran-2,3,4-triol
_symmetry_cell_setting           monoclinic
_symmetry_space_group_name_H-M   'P 21'
_symmetry_Int_Tables_number      4
_space_group_name_Hall           'P 2yb'
loop_
_symmetry_equiv_pos_site_id
_symmetry_equiv_pos_as_xyz
1 x,y,z
2 -x,1/2+y,-z
_cell_length_a                   5.0868(3)
_cell_length_b                   13.0628(8)
_cell_length_c                   10.9758(7)
_cell_angle_alpha                90
_cell_angle_beta                 90.990(7)
_cell_angle_gamma                90
_cell_volume                     729.209
_exptl_crystal_colour            colorless
_exptl_crystal_description       block
_cell_formula_units_Z            2
loop_
_atom_site_label
_atom_site_type_symbol
_atom_site_fract_x
_atom_site_fract_y
_atom_site_fract_z
O1 O 0.3021(15) 0.2442(6) 0.6950(7)
O2 O 0.1870(16) 0.0398(7) 0.4736(7)
O3 O 0.7185(16) 0.5508(7) 0.8457(7)
O4 O 0.4210(15) 0.4463(7) 0.6555(8)
O5 O 1.0350(15) 0.4189(7) 0.9971(7)
O6 O 0.7298(17) 0.1111(7) 1.0421(9)
O7 O 0.004(2) -0.1179(7) 0.4860(8)
O8 O 0.313(3) 0.0493(8) 0.8403(9)
O9 O -0.0416(19) -0.0916(8) 0.7466(7)
O10 O 0.5525(15) 0.2392(6) 0.8685(7)
O11 O 0.244(2) 0.2165(8) 0.3165(7)
C1 C 0.526(2) 0.2854(8) 0.7516(9)
C2 C 0.785(2) 0.3871(8) 0.9498(10)
C3 C 0.7378(18) 0.4441(8) 0.8289(9)
C4 C 0.487(2) 0.4004(8) 0.7692(9)
C5 C 0.787(2) 0.2709(8) 0.9344(10)
C6 C 0.379(3) 0.1999(9) 0.4291(10)
C7 C 0.326(2) 0.1407(8) 0.6483(10)
C8 C 0.211(2) 0.1451(8) 0.5180(10)
C9 C 0.017(3) -0.0244(8) 0.5432(10)
C10 C 0.780(3) 0.2174(11) 1.0520(12)
C11 C 0.186(3) 0.0664(11) 0.7297(12)
C12 C 0.136(3) -0.0368(9) 0.6706(11)
H1 H 0.6049 0.5632 0.8957
H2 H 0.6816 0.2721 0.7029
H3 H 0.5194 0.4948 0.6433
H4 H 1.0635 0.3909 1.0629
H5 H 0.8672 0.0809 1.0279
H6 H -0.0952 -0.1140 0.4267
H7 H 0.3938 0.1009 0.8609
H8 H -0.0718 -0.1481 0.7169
H9 H 0.6482 0.4063 1.0073
H10 H 0.8861 0.4302 0.7755
H11 H 0.1988 0.1613 0.2873
H12 H 0.3412 0.4109 0.8247
H13 H 0.9429 0.2500 0.8896
H14 H 0.4330 0.2653 0.4632
H15 H 0.5365 0.1600 0.4148
H16 H 0.5129 0.1222 0.6451
H17 H 0.0365 0.1770 0.5192
H18 H -0.1582 0.0061 0.5475
H19 H 0.9478 0.2271 1.0940
H20 H 0.6455 0.2482 1.1016
H21 H 0.0141 0.0962 0.7474
H22 H 0.3019 -0.0746 0.6658
loop_
_geom_bond_atom_site_label_1
_geom_bond_atom_site_label_2
_geom_bond_site_symmetry_1
_geom_bond_site_symmetry_2
O1 C1 1_555 1_555
O2 C8 1_555 1_555
O3 C3 1_555 1_555
O4 C4 1_555 1_555
O5 C2 1_555 1_555
O6 C10 1_555 1_555
O7 C9 1_555 1_555
O8 C11 1_555 1_555
O9 C12 1_555 1_555
O10 C1 1_555 1_555
O11 C6 1_555 1_555
C1 C4 1_555 1_555
C2 C3 1_555 1_555
C3 C4 1_555 1_555
C4 H12 1_555 1_555
C5 O10 1_555 1_555
C6 C8 1_555 1_555
C7 O1 1_555 1_555
C8 C7 1_555 1_555
C9 O2 1_555 1_555
C10 C5 1_555 1_555
C11 C7 1_555 1_555
C12 C9 1_555 1_555
H1 O3 1_555 1_555
H2 C1 1_555 1_555
H3 O4 1_555 1_555
H4 O5 1_555 1_555
H5 O6 1_555 1_555
H6 O7 1_555 1_555
H7 O8 1_555 1_555
H8 O9 1_555 1_555
H9 C2 1_555 1_555
H10 C3 1_555 1_555
H11 O11 1_555 1_555
H13 C5 1_555 1_555
H14 C6 1_555 1_555
H15 C6 1_555 1_555
H16 C7 1_555 1_555
H17 C8 1_555 1_555
H18 C9 1_555 1_555
H19 C10 1_555 1_555
H20 C10 1_555 1_555
H21 C11 1_555 1_555
H22 C12 1_555 1_555
C2 C5 1_555 1_555
C11 C12 1_555 1_555

#END
