
#######################################################################
#
#                 Cambridge Crystallographic Data Centre
#                                CCDC 
#
#######################################################################
#
# If this CIF has been generated from an entry in the Cambridge 
# Structural Database, then it will include bibliographic, chemical, 
# crystal, experimental, refinement or atomic coordinate data resulting 
# from the CCDC's data processing and validation procedures.
#
#######################################################################

data_CELMUE
_chemical_formula_moiety         'C42 H42 N28 O14,C20 H16 N2 O4'
_chemical_name_systematic        
"[2]-(1,1'-[1,4-phenylenebis(methylene)]di(pyridin-1-ium-4-carboxylate))-(cucurbit[7]uril)-pseudorotaxane unknown solvate"
_symmetry_cell_setting           monoclinic
_symmetry_space_group_name_H-M   'P 21/c'
_symmetry_Int_Tables_number      14
_space_group_name_Hall           '-P 2ybc'
loop_
_symmetry_equiv_pos_site_id
_symmetry_equiv_pos_as_xyz
1 x,y,z
2 -x,1/2+y,1/2-z
3 -x,-y,-z
4 x,1/2-y,1/2+z
_cell_length_a                   27.771(3)
_cell_length_b                   13.4580(15)
_cell_length_c                   21.852(2)
_cell_angle_alpha                90
_cell_angle_beta                 101.198(3)
_cell_angle_gamma                90
_cell_volume                     8011.53
_exptl_crystal_colour            colorless
_exptl_crystal_description       block
_cell_formula_units_Z            4
loop_
_atom_site_label
_atom_site_type_symbol
_atom_site_fract_x
_atom_site_fract_y
_atom_site_fract_z
N1 N 0.55182(19) 0.0956(4) -0.0295(2)
N2 N 0.56270(19) -0.0441(4) -0.0766(2)
N3 N 0.61620(19) 0.3346(4) 0.1084(2)
N4 N 0.94811(18) 0.0785(4) 0.0760(2)
N5 N 0.93904(18) -0.0559(4) 0.0177(2)
N6 N 0.90652(18) -0.1429(4) 0.0993(2)
N7 N 0.69590(18) 0.3764(4) 0.1685(2)
N8 N 0.87194(18) 0.3539(4) 0.1334(2)
N9 N 0.92235(19) -0.0117(4) 0.1620(2)
N10 N 0.71617(18) 0.4762(4) 0.0842(2)
N11 N 0.87828(18) -0.1571(4) -0.0521(2)
N12 N 0.80478(18) -0.1822(4) -0.1119(2)
N13 N 0.85040(19) 0.2666(4) 0.2227(2)
N14 N 0.69581(17) -0.2393(4) -0.0717(2)
N15 N 0.78076(18) -0.2767(4) -0.0274(2)
N16 N 0.92253(17) 0.2322(4) 0.1189(2)
N17 N 0.62109(17) -0.1735(4) -0.0919(2)
N18 N 0.89836(19) 0.1420(4) 0.2050(2)
N19 N 0.59199(19) 0.0578(4) -0.1553(2)
N20 N 0.5690(2) 0.2358(4) 0.0409(2)
N21 N 0.71966(19) -0.1510(4) -0.1587(2)
N22 N 0.56507(18) 0.1952(4) -0.1182(2)
N23 N 0.85461(18) -0.2573(4) 0.0307(2)
N24 N 0.79459(17) 0.4420(4) 0.1209(2)
N25 N 0.58715(18) 0.3315(4) -0.0460(2)
N26 N 0.64897(19) -0.0697(4) -0.1696(2)
N27 N 0.63844(18) 0.4211(4) 0.0206(2)
N28 N 0.77423(18) 0.3572(4) 0.2108(2)
O1 O 0.83266(16) 0.1090(4) 0.2533(2)
O2 O 0.71942(17) 0.2441(4) 0.2363(2)
C1 C 0.68802(19) -0.2218(4) -0.1383(3)
H1 H 0.6870 -0.2855 -0.1621
C2 C 0.9487(2) -0.0960(4) 0.0802(3)
H2 H 0.9780 -0.1406 0.0875
C3 C 0.93826(19) 0.0438(4) 0.0166(3)
C4 C 0.8929(2) -0.2449(4) 0.0860(3)
H3 H 0.8815 -0.2736 0.1224
H4 H 0.9224 -0.2826 0.0802
C5 C 0.6007(2) 0.3970(4) 0.0556(3)
H5 H 0.5836 0.4579 0.0667
C6 C 0.6284(2) 0.3880(4) -0.0389(3)
C7 C 0.6434(2) 0.3688(5) 0.1672(3)
H6 H 0.6379 0.3225 0.2004
H7 H 0.6308 0.4349 0.1765
C8 C 0.8880(2) 0.3141(4) 0.1953(3)
H8 H 0.9060 0.3655 0.2240
C9 C 0.7180(2) 0.4648(4) 0.1507(3)
H9 H 0.7055 0.5253 0.1690
C10 C 0.7286(2) 0.3183(5) 0.2080(3)
C11 C 0.8121(2) -0.2675(4) -0.0729(3)
H10 H 0.8110 -0.3294 -0.0984
C12 C 0.8442(2) -0.1177(5) -0.0993(3)
C13 C 0.6114(2) -0.0013(5) -0.1993(3)
H11 H 0.6254 0.0431 -0.2275
H12 H 0.5844 -0.0395 -0.2251
C14 C 0.8076(2) -0.2738(4) 0.0330(3)
C15 C 0.5367(2) 0.1189(5) -0.0944(3)
H13 H 0.5007 0.1328 -0.1054
C16 C 0.5966(2) 0.1588(5) -0.1526(3)
C17 C 0.5366(2) 0.1544(5) 0.0189(3)
H14 H 0.5033 0.1811 0.0027
H15 H 0.5344 0.1105 0.0546
C18 C 0.8643(2) -0.2516(4) -0.0325(3)
H16 H 0.8876 -0.3048 -0.0403
C19 C 0.8469(2) 0.4476(4) 0.1213(3)
H17 H 0.8517 0.4729 0.0804
H18 H 0.8620 0.4960 0.1535
C20 C 0.9286(2) -0.1177(5) -0.0372(3)
H19 H 0.9518 -0.1744 -0.0314
H20 H 0.9348 -0.0787 -0.0733
C21 C 0.5658(2) 0.3299(5) 0.0088(3)
H21 H 0.5315 0.3562 0.0001
C22 C 0.6370(2) -0.1679(4) -0.1514(3)
H22 H 0.6132 -0.2017 -0.1853
C23 C 0.6972(2) -0.0629(5) -0.1794(3)
C24 C 0.5719(2) -0.1498(4) -0.0851(3)
H23 H 0.5646 -0.1867 -0.0487
H24 H 0.5488 -0.1736 -0.1225
C25 C 0.5603(2) 0.2992(4) -0.1070(3)
H25 H 0.5251 0.3153 -0.1103
H26 H 0.5725 0.3370 -0.1398
C26 C 0.7684(2) -0.1762(5) -0.1684(3)
H27 H 0.7669 -0.2410 -0.1901
H28 H 0.7789 -0.1256 -0.1960
C27 C 0.9574(2) -0.0014(5) 0.1217(3)
H29 H 0.9918 0.0012 0.1462
C28 C 0.5503(2) 0.0243(5) -0.1268(3)
H30 H 0.5223 -0.0002 -0.1591
C29 C 0.9588(2) 0.1810(5) 0.0911(3)
H31 H 0.9623 0.2165 0.0525
H32 H 0.9909 0.1848 0.1203
C30 C 0.9226(2) 0.2282(5) 0.1853(3)
H33 H 0.9564 0.2372 0.2108
C31 C 0.8959(2) 0.3112(4) 0.0908(3)
C32 C 0.9230(2) 0.0475(5) 0.2168(3)
H34 H 0.9575 0.0596 0.2371
H35 H 0.9073 0.0093 0.2463
C33 C 0.5979(2) 0.2388(4) 0.0995(3)
C34 C 0.7735(2) 0.4482(4) 0.1767(3)
H36 H 0.7880 0.5042 0.2043
C35 C 0.7610(2) 0.4636(4) 0.0674(3)
C36 C 0.8162(2) 0.3201(5) 0.2531(3)
H37 H 0.8050 0.2752 0.2834
H38 H 0.8336 0.3765 0.2768
C37 C 0.8925(2) -0.0919(5) 0.1470(3)
C38 C 0.56310(19) -0.0042(5) -0.0196(3)
C39 C 0.8586(2) 0.1665(5) 0.2294(3)
C40 C 0.6729(2) 0.5039(4) 0.0396(3)
H39 H 0.6831 0.5313 0.0020
H40 H 0.6556 0.5573 0.0578
C41 C 0.7312(2) -0.3131(5) -0.0419(3)
H41 H 0.7216 -0.3358 -0.0029
H42 H 0.7299 -0.3713 -0.0699
C42 C 0.6551(2) -0.2201(4) -0.0474(3)
O3 O 0.64944(16) -0.2415(4) 0.0058(2)
O4 O 0.89458(17) 0.3387(3) 0.0371(2)
O5 O 0.76959(17) 0.4734(4) 0.0155(2)
O6 O 0.84830(16) -0.0415(3) -0.1278(2)
O7 O 0.78957(15) -0.2847(3) 0.0807(2)
O8 O 0.60503(16) 0.1719(3) 0.1363(2)
O9 O 0.93144(17) 0.0960(3) -0.0308(2)
O10 O 0.57008(16) -0.0468(3) 0.0300(2)
O11 O 0.71467(17) 0.0059(3) -0.2019(2)
O12 O 0.85805(16) -0.1155(3) 0.1718(2)
O13 O 0.65232(17) 0.4061(3) -0.0805(2)
O14 O 0.62441(17) 0.2070(3) -0.1782(2)
O15 O 0.88716(16) 0.5411(3) -0.1180(2)
O16 O 0.94065(17) 0.4167(4) -0.0927(2)
N29 N 0.7791(2) 0.2542(4) -0.0981(2)
N30 N 0.7043(2) -0.0499(4) 0.1558(3)
C43 C 0.8089(2) 0.4160(5) -0.1039(3)
H43 H 0.8026 0.4854 -0.1070
C44 C 0.7714(3) 0.3519(5) -0.1027(3)
H44 H 0.7391 0.3770 -0.1052
C45 C 0.8557(2) 0.3814(5) -0.1007(3)
C46 C 0.8640(2) 0.2798(5) -0.0931(3)
H45 H 0.8964 0.2544 -0.0883
C47 C 0.6488(2) -0.2153(5) 0.1662(3)
C48 C 0.6184(2) -0.3080(5) 0.1739(3)
C49 C 0.8989(2) 0.4522(5) -0.1040(3)
C50 C 0.6983(3) -0.2247(5) 0.1630(3)
H46 H 0.7135 -0.2881 0.1654
C51 C 0.6289(3) -0.1221(5) 0.1629(4)
H47 H 0.5952 -0.1140 0.1646
C52 C 0.7243(3) -0.1412(6) 0.1563(3)
H48 H 0.7575 -0.1474 0.1520
C53 C 0.6571(3) -0.0400(5) 0.1573(4)
H49 H 0.6427 0.0242 0.1544
C54 C 0.8262(2) 0.2171(5) -0.0924(3)
H50 H 0.8320 0.1477 -0.0881
O17 O 0.57210(17) -0.2997(4) 0.1615(2)
O18 O 0.6419(2) -0.3844(4) 0.1921(3)
C55 C 0.7381(3) 0.1844(6) -0.0971(3)
H51 H 0.7418 0.1257 -0.1231
H52 H 0.7067 0.2172 -0.1152
C56 C 0.7351(4) 0.0393(7) 0.1522(4)
H53 H 0.7256 0.0917 0.1794
H54 H 0.7698 0.0221 0.1686
C57 C 0.7306(5) 0.0795(9) 0.0883(3)
C58 C 0.7595(4) 0.1620(8) 0.0823(4)
H55 H 0.7771 0.1943 0.1185
C59 C 0.7626(4) 0.1972(7) 0.0234(4)
H56 H 0.7823 0.2536 0.0194
C60 C 0.7369(5) 0.1499(8) -0.0295(3)
C61 C 0.7080(5) 0.0674(9) -0.0235(3)
H57 H 0.6904 0.0351 -0.0597
C62 C 0.7049(5) 0.0322(9) 0.0353(4)
H58 H 0.6852 -0.0242 0.0394
H59? H 0.7068 0.2206 -0.1101
H60? H 0.7393 0.1315 -0.1283
H61? H 0.7687 0.0267 0.1759
H62? H 0.7214 0.0961 0.1720
C63? C 0.7377(6) 0.0673(9) 0.0829(5)
C64? C 0.7268(7) 0.1664(8) 0.0684(6)
H63? H 0.7191 0.2100 0.0993
C65? C 0.7272(7) 0.2017(7) 0.0087(7)
H64? H 0.7197 0.2694 -0.0012
C66? C 0.7384(5) 0.1379(10) -0.0365(5)
C67? C 0.7493(7) 0.0388(9) -0.0221(6)
H65? H 0.7570 -0.0048 -0.0530
C68? C 0.7489(8) 0.0035(7) 0.0376(7)
H66? H 0.7563 -0.0642 0.0475
loop_
_geom_bond_atom_site_label_1
_geom_bond_atom_site_label_2
_geom_bond_site_symmetry_1
_geom_bond_site_symmetry_2
N1 C15 1_555 1_555
N2 C24 1_555 1_555
N3 C5 1_555 1_555
N4 C3 1_555 1_555
N5 C2 1_555 1_555
N6 C2 1_555 1_555
N7 C7 1_555 1_555
N8 C8 1_555 1_555
N9 C27 1_555 1_555
N10 C9 1_555 1_555
N11 C12 1_555 1_555
N12 C11 1_555 1_555
N13 C8 1_555 1_555
N14 C1 1_555 1_555
N15 C11 1_555 1_555
N16 C29 1_555 1_555
N17 C22 1_555 1_555
N18 C30 1_555 1_555
N19 C13 1_555 1_555
N20 C17 1_555 1_555
N21 C1 1_555 1_555
N22 C15 1_555 1_555
N23 C4 1_555 1_555
N24 C19 1_555 1_555
N25 C6 1_555 1_555
N26 C13 1_555 1_555
N27 C5 1_555 1_555
N28 C10 1_555 1_555
O1 C39 1_555 1_555
O2 C10 1_555 1_555
C1 H1 1_555 1_555
C2 H2 1_555 1_555
C3 N5 1_555 1_555
C4 N6 1_555 1_555
H3 C4 1_555 1_555
H4 C4 1_555 1_555
C5 H5 1_555 1_555
C6 N27 1_555 1_555
C7 N3 1_555 1_555
H6 C7 1_555 1_555
H7 C7 1_555 1_555
C8 H8 1_555 1_555
C9 N7 1_555 1_555
H9 C9 1_555 1_555
C10 N7 1_555 1_555
C11 H10 1_555 1_555
C12 N12 1_555 1_555
C13 H11 1_555 1_555
H12 C13 1_555 1_555
C14 N15 1_555 1_555
C15 H13 1_555 1_555
C16 N19 1_555 1_555
C17 N1 1_555 1_555
H14 C17 1_555 1_555
H15 C17 1_555 1_555
C18 N11 1_555 1_555
H16 C18 1_555 1_555
C19 N8 1_555 1_555
H17 C19 1_555 1_555
H18 C19 1_555 1_555
C20 N5 1_555 1_555
H19 C20 1_555 1_555
H20 C20 1_555 1_555
C21 N20 1_555 1_555
H21 C21 1_555 1_555
C22 N26 1_555 1_555
H22 C22 1_555 1_555
C23 N21 1_555 1_555
C24 N17 1_555 1_555
H23 C24 1_555 1_555
H24 C24 1_555 1_555
C25 N22 1_555 1_555
H25 C25 1_555 1_555
H26 C25 1_555 1_555
C26 N12 1_555 1_555
H27 C26 1_555 1_555
H28 C26 1_555 1_555
C27 N4 1_555 1_555
H29 C27 1_555 1_555
C28 N2 1_555 1_555
H30 C28 1_555 1_555
C29 N4 1_555 1_555
H31 C29 1_555 1_555
H32 C29 1_555 1_555
C30 N16 1_555 1_555
H33 C30 1_555 1_555
C31 N8 1_555 1_555
C32 N9 1_555 1_555
H34 C32 1_555 1_555
H35 C32 1_555 1_555
C33 N3 1_555 1_555
C34 N24 1_555 1_555
H36 C34 1_555 1_555
C35 N10 1_555 1_555
C36 N13 1_555 1_555
H37 C36 1_555 1_555
H38 C36 1_555 1_555
C37 N6 1_555 1_555
C38 N1 1_555 1_555
C39 N13 1_555 1_555
C40 N10 1_555 1_555
H39 C40 1_555 1_555
H40 C40 1_555 1_555
C41 N14 1_555 1_555
H41 C41 1_555 1_555
H42 C41 1_555 1_555
C42 N14 1_555 1_555
O3 C42 1_555 1_555
O4 C31 1_555 1_555
O5 C35 1_555 1_555
O6 C12 1_555 1_555
O7 C14 1_555 1_555
O8 C33 1_555 1_555
O9 C3 1_555 1_555
O10 C38 1_555 1_555
O11 C23 1_555 1_555
O12 C37 1_555 1_555
O13 C6 1_555 1_555
O14 C16 1_555 1_555
O15 C49 1_555 1_555
O16 C49 1_555 1_555
N29 C44 1_555 1_555
N30 C52 1_555 1_555
C43 H43 1_555 1_555
C44 C43 1_555 1_555
H44 C44 1_555 1_555
C45 C43 1_555 1_555
C46 C45 1_555 1_555
H45 C46 1_555 1_555
C47 C48 1_555 1_555
C48 O17 1_555 1_555
C49 C45 1_555 1_555
C50 C47 1_555 1_555
H46 C50 1_555 1_555
C51 C47 1_555 1_555
H47 C51 1_555 1_555
C52 C50 1_555 1_555
H48 C52 1_555 1_555
C53 N30 1_555 1_555
H49 C53 1_555 1_555
C54 N29 1_555 1_555
H50 C54 1_555 1_555
O18 C48 1_555 1_555
C55 N29 1_555 1_555
H51 C55 1_555 1_555
H52 C55 1_555 1_555
C56 N30 1_555 1_555
H53 C56 1_555 1_555
H54 C56 1_555 1_555
C57 C56 1_555 1_555
C58 C57 1_555 1_555
H55 C58 1_555 1_555
C59 C58 1_555 1_555
H56 C59 1_555 1_555
C60 C55 1_555 1_555
C61 C60 1_555 1_555
H57 C61 1_555 1_555
C62 C57 1_555 1_555
H58 C62 1_555 1_555
N2 C38 1_555 1_555
N9 C37 1_555 1_555
N11 C20 1_555 1_555
N15 C41 1_555 1_555
N16 C31 1_555 1_555
N17 C42 1_555 1_555
N18 C32 1_555 1_555
N18 C39 1_555 1_555
N19 C28 1_555 1_555
N20 C33 1_555 1_555
N21 C26 1_555 1_555
N22 C16 1_555 1_555
N23 C14 1_555 1_555
N23 C18 1_555 1_555
N24 C35 1_555 1_555
N25 C21 1_555 1_555
N25 C25 1_555 1_555
N26 C23 1_555 1_555
N27 C40 1_555 1_555
N28 C34 1_555 1_555
N28 C36 1_555 1_555
C1 C22 1_555 1_555
C2 C27 1_555 1_555
C5 C21 1_555 1_555
C8 C30 1_555 1_555
C9 C34 1_555 1_555
C11 C18 1_555 1_555
C15 C28 1_555 1_555
C46 C54 1_555 1_555
C51 C53 1_555 1_555
C59 C60 1_555 1_555
C61 C62 1_555 1_555

#END
