
#######################################################################
#
#                 Cambridge Crystallographic Data Centre
#                                CCDC 
#
#######################################################################
#
# If this CIF has been generated from an entry in the Cambridge 
# Structural Database, then it will include bibliographic, chemical, 
# crystal, experimental, refinement or atomic coordinate data resulting 
# from the CCDC's data processing and validation procedures.
#
#######################################################################

data_CELMOY
_chemical_formula_moiety         
'C20 H16 N2 O4,H2 O1,2(Br1 1-),C20 H18 N2 O4 2+'
_chemical_name_systematic        
"1,1'-[1,4-phenylenebis(methylene)]bis(4-carboxypyridin-1-ium) 1,1'-[1,4-phenylenebis(methylene)]bis(pyridin-1-ium-4-carboxylate) bis(bromide) monohydrate"
_symmetry_cell_setting           triclinic
_symmetry_space_group_name_H-M   'P -1'
_symmetry_Int_Tables_number      2
_space_group_name_Hall           '-P 1'
loop_
_symmetry_equiv_pos_site_id
_symmetry_equiv_pos_as_xyz
1 x,y,z
2 -x,-y,-z
_cell_length_a                   4.6359(4)
_cell_length_b                   14.0616(13)
_cell_length_c                   17.2009(17)
_cell_angle_alpha                84.311(4)
_cell_angle_beta                 86.263(4)
_cell_angle_gamma                81.558(4)
_cell_volume                     1102.22
_exptl_crystal_colour            colorless
_exptl_crystal_description       block
_cell_formula_units_Z            1
loop_
_atom_site_label
_atom_site_type_symbol
_atom_site_fract_x
_atom_site_fract_y
_atom_site_fract_z
Br1 Br 0.48788(16) 0.11322(6) 0.73891(4)
O1 O 0.4127(10) 0.5134(3) 0.8982(3)
H1 H 0.561(15) 0.555(5) 0.879(5)
O2 O 0.4076(12) 0.4792(4) 0.7748(3)
N1 N -0.2046(9) 0.2525(3) 0.9161(3)
C1 C 0.3339(12) 0.4682(4) 0.8427(4)
C2 C 0.1379(11) 0.3932(3) 0.8716(3)
C3 C 0.0542(13) 0.3372(4) 0.8171(3)
H2 H 0.1130 0.3473 0.7645
C4 C -0.1158(13) 0.2669(4) 0.8415(3)
H3 H -0.1698 0.2288 0.8052
C5 C -0.1294(12) 0.3066(4) 0.9704(3)
H4 H -0.1949 0.2960 1.0223
C6 C 0.0421(12) 0.3767(4) 0.9491(3)
H5 H 0.0946 0.4135 0.9865
C7 C -0.3775(11) 0.1720(3) 0.9415(3)
H6 H -0.4788 0.1572 0.8975
H7 H -0.5226 0.1918 0.9821
C8 C -0.1788(11) 0.0829(3) 0.9722(3)
C9 C 0.0176(13) 0.0323(4) 0.9215(3)
H8 H 0.0283 0.0535 0.8686
C10 C 0.1969(13) -0.0492(4) 0.9493(3)
H9 H 0.3311 -0.0819 0.9151
O1A O -0.4127(10) -0.5134(3) 1.1018(3)
H1A H -0.561(15) -0.555(5) 1.121(5)
O2A O -0.4076(12) -0.4792(4) 1.2252(3)
N1A N 0.2046(9) -0.2525(3) 1.0839(3)
C1A C -0.3339(12) -0.4682(4) 1.1573(4)
C2A C -0.1379(11) -0.3932(3) 1.1284(3)
C3A C -0.0542(13) -0.3372(4) 1.1829(3)
H2A H -0.1130 -0.3473 1.2355
C4A C 0.1158(13) -0.2669(4) 1.1585(3)
H3A H 0.1698 -0.2288 1.1948
C5A C 0.1294(12) -0.3066(4) 1.0296(3)
H4A H 0.1949 -0.2960 0.9777
C6A C -0.0421(12) -0.3767(4) 1.0509(3)
H5A H -0.0946 -0.4135 1.0135
C7A C 0.3775(11) -0.1720(3) 1.0585(3)
H6A H 0.4788 -0.1572 1.1025
H7A H 0.5226 -0.1918 1.0179
C8A C 0.1788(11) -0.0829(3) 1.0278(3)
C9A C -0.0176(13) -0.0323(4) 1.0785(3)
H8A H -0.0283 -0.0535 1.1314
C10A C -0.1969(13) 0.0492(4) 1.0507(3)
H9A H -0.3311 0.0819 1.0849
O3 O -0.4238(13) -0.2511(4) 0.8888(3)
O4 O -0.2170(10) -0.3867(3) 0.8420(4)
N2 N 0.2631(10) -0.1423(4) 0.6774(3)
C11 C -0.2540(12) -0.2975(4) 0.8452(3)
C12 C -0.0612(11) -0.2426(4) 0.7862(3)
C13 C -0.0808(14) -0.1433(4) 0.7840(3)
H10 H -0.2062 -0.1100 0.8197
C14 C 0.0842(13) -0.0936(4) 0.7293(3)
H11 H 0.0723 -0.0269 0.7283
C15 C 0.2854(14) -0.2376(5) 0.6781(4)
H12 H 0.4098 -0.2694 0.6413
C16 C 0.1257(15) -0.2900(4) 0.7328(4)
H13 H 0.1446 -0.3568 0.7335
C17 C 0.4196(13) -0.0845(5) 0.6143(3)
H14 H 0.5782 -0.1262 0.5900
H15 H 0.5015 -0.0344 0.6368
C18 C 0.2036(12) -0.0391(4) 0.5532(3)
C19 C 0.1483(14) -0.0913(5) 0.4941(4)
H16 H 0.2490 -0.1530 0.4900
C20 C -0.0598(14) -0.0518(5) 0.4397(3)
H17 H -0.0991 -0.0870 0.3996
O3A O 0.4238(13) 0.2511(4) 0.1112(3)
O4A O 0.2170(10) 0.3867(3) 0.1580(4)
N2A N -0.2631(10) 0.1423(4) 0.3226(3)
C11A C 0.2540(12) 0.2975(4) 0.1548(3)
C12A C 0.0612(11) 0.2426(4) 0.2138(3)
C13A C 0.0808(14) 0.1433(4) 0.2160(3)
H10A H 0.2062 0.1100 0.1803
C14A C -0.0842(13) 0.0936(4) 0.2707(3)
H11A H -0.0723 0.0269 0.2717
C15A C -0.2854(14) 0.2376(5) 0.3219(4)
H12A H -0.4098 0.2694 0.3587
C16A C -0.1257(15) 0.2900(4) 0.2672(4)
H13A H -0.1446 0.3568 0.2665
C17A C -0.4196(13) 0.0845(5) 0.3857(3)
H14A H -0.5782 0.1262 0.4100
H15A H -0.5015 0.0344 0.3632
C18A C -0.2036(12) 0.0391(4) 0.4468(3)
C19A C -0.1483(14) 0.0913(5) 0.5059(4)
H16A H -0.2490 0.1530 0.5100
C20A C 0.0598(14) 0.0518(5) 0.5603(3)
H17A H 0.0991 0.0870 0.6004
O5 O 0.182(4) 0.3060(15) 0.4516(10)
loop_
_geom_bond_atom_site_label_1
_geom_bond_atom_site_label_2
_geom_bond_site_symmetry_1
_geom_bond_site_symmetry_2
O1 H1 1_555 1_555
O2 C1 1_555 1_555
N1 C4 1_555 1_555
C1 O1 1_555 1_555
C2 C1 1_555 1_555
C3 C2 1_555 1_555
H2 C3 1_555 1_555
C4 C3 1_555 1_555
H3 C4 1_555 1_555
C5 N1 1_555 1_555
H4 C5 1_555 1_555
C6 C2 1_555 1_555
H5 C6 1_555 1_555
C7 N1 1_555 1_555
H6 C7 1_555 1_555
H7 C7 1_555 1_555
C8 C7 1_555 1_555
C9 C8 1_555 1_555
H8 C9 1_555 1_555
C10 C9 1_555 1_555
H9 C10 1_555 1_555
O3 C11 1_555 1_555
O4 C11 1_555 1_555
N2 C14 1_555 1_555
C11 C12 1_555 1_555
C12 C13 1_555 1_555
C13 H10 1_555 1_555
C14 C13 1_555 1_555
H11 C14 1_555 1_555
C15 N2 1_555 1_555
H12 C15 1_555 1_555
C16 C12 1_555 1_555
H13 C16 1_555 1_555
C17 N2 1_555 1_555
H14 C17 1_555 1_555
H15 C17 1_555 1_555
C18 C17 1_555 1_555
C19 C18 1_555 1_555
H16 C19 1_555 1_555
C20 C19 1_555 1_555
H17 C20 1_555 1_555
O1A H1A 1_555 1_555
O2A C1A 1_555 1_555
N1A C4A 1_555 1_555
C1A O1A 1_555 1_555
C2A C1A 1_555 1_555
C3A C2A 1_555 1_555
H2A C3A 1_555 1_555
C4A C3A 1_555 1_555
H3A C4A 1_555 1_555
C5A N1A 1_555 1_555
H4A C5A 1_555 1_555
C6A C2A 1_555 1_555
H5A C6A 1_555 1_555
C7A N1A 1_555 1_555
H6A C7A 1_555 1_555
H7A C7A 1_555 1_555
C8A C10 1_555 1_555
C9A C8A 1_555 1_555
H8A C9A 1_555 1_555
C10A C8 1_555 1_555
H9A C10A 1_555 1_555
O3A C11A 1_555 1_555
O4A C11A 1_555 1_555
N2A C14A 1_555 1_555
C11A C12A 1_555 1_555
C12A C13A 1_555 1_555
C13A H10A 1_555 1_555
C14A C13A 1_555 1_555
H11A C14A 1_555 1_555
C15A N2A 1_555 1_555
H12A C15A 1_555 1_555
C16A C12A 1_555 1_555
H13A C16A 1_555 1_555
C17A N2A 1_555 1_555
H14A C17A 1_555 1_555
H15A C17A 1_555 1_555
C18A C20 1_555 1_555
C19A C18A 1_555 1_555
H16A C19A 1_555 1_555
C20A C18 1_555 1_555
H17A C20A 1_555 1_555
C5 C6 1_555 1_555
C15 C16 1_555 1_555
C5A C6A 1_555 1_555
C7A C8A 1_555 1_555
C9A C10A 1_555 1_555
C15A C16A 1_555 1_555
C17A C18A 1_555 1_555
C19A C20A 1_555 1_555

#END
