
#######################################################################
#
#                 Cambridge Crystallographic Data Centre
#                                CCDC 
#
#######################################################################
#
# If this CIF has been generated from an entry in the Cambridge 
# Structural Database, then it will include bibliographic, chemical, 
# crystal, experimental, refinement or atomic coordinate data resulting 
# from the CCDC's data processing and validation procedures.
#
#######################################################################

data_CELNAJ
_chemical_name_common            'Piroxicam benzoate'
_chemical_formula_moiety         'C22 H17 N3 O5 S1'
_chemical_name_systematic        
'4-Benzoyloxy-2-methyl-N-(2-pyridyl)-2H-1,2-benzothiazine-3-carboxamide 1,1-dioxide'
_chemical_properties_biological  
'piroxicam is a non-steroidal anti-inflammatory and analgesic drug'
_symmetry_cell_setting           monoclinic
_symmetry_space_group_name_H-M   'P 21/n'
_symmetry_Int_Tables_number      14
_space_group_name_Hall           '-P 2yn'
loop_
_symmetry_equiv_pos_site_id
_symmetry_equiv_pos_as_xyz
1 x,y,z
2 1/2-x,1/2+y,1/2-z
3 -x,-y,-z
4 1/2+x,1/2-y,1/2+z
_cell_length_a                   11.106(3)
_cell_length_b                   16.5606(16)
_cell_length_c                   12.0351(18)
_cell_angle_alpha                90
_cell_angle_beta                 111.463(12)
_cell_angle_gamma                90
_cell_volume                     2060.02
_exptl_crystal_colour            colorless
_exptl_crystal_description       block
_chemical_melting_point          '421-423 K'
_cell_formula_units_Z            4
_exptl_crystal_recrystallization_method 'ethyl acetate'
loop_
_atom_site_label
_atom_site_type_symbol
_atom_site_fract_x
_atom_site_fract_y
_atom_site_fract_z
C1 C 0.2358(3) 0.48883(18) 0.1038(3)
C2 C 0.2468(3) 0.50437(17) 0.2169(3)
C3 C 0.3429(4) 0.5822(2) 0.4075(3)
H1 H 0.2690 0.5737 0.4250
C4 C 0.4450(5) 0.6259(3) 0.4846(4)
H2 H 0.4396 0.6454 0.5551
C5 C 0.5536(4) 0.6414(2) 0.4609(3)
H3 H 0.6192 0.6731 0.5129
C6 C 0.5661(3) 0.6098(2) 0.3595(3)
H4 H 0.6409 0.6188 0.3435
C7 C 0.4660(3) 0.56487(19) 0.2824(3)
C8 C 0.3514(3) 0.55057(18) 0.3024(3)
C9 C 0.2889(3) 0.5997(2) -0.0067(3)
H5 H 0.2879 0.6424 0.0469
H6 H 0.2037 0.5930 -0.0659
H7 H 0.3484 0.6129 -0.0451
C10 C 0.1356(3) 0.43567(19) 0.0185(3)
C11 C 0.0919(3) 0.36330(17) -0.1738(3)
C12 C -0.0136(3) 0.3184(2) -0.1751(3)
H8 H -0.0448 0.3217 -0.1134
C13 C -0.0709(4) 0.2682(2) -0.2724(4)
H9 H -0.1412 0.2364 -0.2758
C14 C -0.0254(4) 0.2651(2) -0.3621(3)
H10 H -0.0628 0.2312 -0.4273
C15 C 0.0767(4) 0.3130(2) -0.3542(3)
H11 H 0.1068 0.3117 -0.4169
C16 C 0.1426(3) 0.3985(2) 0.2798(3)
C17 C 0.0267(3) 0.38078(18) 0.3067(2)
C18 C -0.0474(3) 0.4403(2) 0.3306(3)
H12 H -0.0224 0.4941 0.3342
C19 C -0.1595(3) 0.4193(3) 0.3490(3)
H13 H -0.2099 0.4591 0.3651
C20 C -0.1958(4) 0.3402(3) 0.3435(3)
H14 H -0.2720 0.3266 0.3543
C21 C -0.1218(4) 0.2808(2) 0.3224(3)
H15 H -0.1468 0.2271 0.3202
C22 C -0.0105(3) 0.3007(2) 0.3045(3)
H16 H 0.0404 0.2602 0.2907
N1 N 0.3299(2) 0.52371(15) 0.0613(2)
N2 N 0.1633(2) 0.41425(15) -0.0791(2)
H17 H 0.2329 0.4344 -0.0832
N3 N 0.1364(3) 0.36181(16) -0.2627(2)
O1 O 0.55872(19) 0.56614(15) 0.11303(19)
O2 O 0.5092(2) 0.43495(14) 0.1837(2)
O3 O 0.0409(2) 0.41227(15) 0.0370(2)
O4 O 0.1528(2) 0.47894(12) 0.2598(2)
O5 O 0.2212(2) 0.35046(14) 0.2756(2)
S1 S 0.47932(7) 0.51799(5) 0.15678(7)
loop_
_geom_bond_atom_site_label_1
_geom_bond_atom_site_label_2
_geom_bond_site_symmetry_1
_geom_bond_site_symmetry_2
C1 C2 1_555 1_555
C2 C8 1_555 1_555
C3 H1 1_555 1_555
C4 C3 1_555 1_555
H2 C4 1_555 1_555
C5 C4 1_555 1_555
H3 C5 1_555 1_555
C6 C5 1_555 1_555
H4 C6 1_555 1_555
C7 C6 1_555 1_555
C8 C3 1_555 1_555
C9 H5 1_555 1_555
H6 C9 1_555 1_555
H7 C9 1_555 1_555
C10 C1 1_555 1_555
C11 C12 1_555 1_555
C12 H8 1_555 1_555
C13 C12 1_555 1_555
H9 C13 1_555 1_555
C14 C13 1_555 1_555
H10 C14 1_555 1_555
C15 C14 1_555 1_555
H11 C15 1_555 1_555
C16 C17 1_555 1_555
C17 C18 1_555 1_555
C18 H12 1_555 1_555
C19 C18 1_555 1_555
H13 C19 1_555 1_555
C20 C19 1_555 1_555
H14 C20 1_555 1_555
C21 C20 1_555 1_555
H15 C21 1_555 1_555
C22 C17 1_555 1_555
H16 C22 1_555 1_555
N1 C1 1_555 1_555
N2 C10 1_555 1_555
H17 N2 1_555 1_555
N3 C11 1_555 1_555
O1 S1 1_555 1_555
O2 S1 1_555 1_555
O3 C10 1_555 1_555
O4 C2 1_555 1_555
O5 C16 1_555 1_555
S1 C7 1_555 1_555
C7 C8 1_555 1_555
C9 N1 1_555 1_555
C11 N2 1_555 1_555
C15 N3 1_555 1_555
C16 O4 1_555 1_555
C21 C22 1_555 1_555
N1 S1 1_555 1_555

#END
