
#######################################################################
#
#                 Cambridge Crystallographic Data Centre
#                                CCDC 
#
#######################################################################
#
# If this CIF has been generated from an entry in the Cambridge 
# Structural Database, then it will include bibliographic, chemical, 
# crystal, experimental, refinement or atomic coordinate data resulting 
# from the CCDC's data processing and validation procedures.
#
#######################################################################

data_CELPER
_chemical_formula_moiety         'C32 H40 N2 S4'
_chemical_name_systematic        
4,8-bis[5-(2-ethylhexyl)thiophen-2-yl]benzo[1,2-d:4,5-d']bis[1,3]thiazole
_symmetry_cell_setting           triclinic
_symmetry_space_group_name_H-M   'P -1'
_symmetry_Int_Tables_number      2
_space_group_name_Hall           '-P 1'
loop_
_symmetry_equiv_pos_site_id
_symmetry_equiv_pos_as_xyz
1 x,y,z
2 -x,-y,-z
_cell_length_a                   6.213(2)
_cell_length_b                   9.183(3)
_cell_length_c                   14.383(5)
_cell_angle_alpha                94.287(5)
_cell_angle_beta                 100.125(5)
_cell_angle_gamma                106.893(5)
_cell_volume                     766.041
_exptl_crystal_colour            yellow
_exptl_crystal_description       plate
_cell_formula_units_Z            1
loop_
_atom_site_label
_atom_site_type_symbol
_atom_site_fract_x
_atom_site_fract_y
_atom_site_fract_z
S1 S 0.64348(14) -0.30954(8) 0.40449(6)
S2 S 0.54088(13) 0.20238(9) 0.35878(6)
N1 N 0.9700(5) 0.2915(3) 0.48743(19)
C1 C 0.8444(6) -0.3865(3) 0.4616(3)
H1 H 0.8195 -0.4919 0.4558
C2 C 0.8254(5) -0.1266(3) 0.45386(18)
C3 C 0.7873(5) 0.0146(3) 0.44164(17)
C4 C 0.9729(5) 0.1413(3) 0.49007(18)
C5 C 0.5756(5) 0.0288(3) 0.38627(18)
C6 C 0.3712(6) -0.0846(4) 0.3505(2)
H2 H 0.3498 -0.1871 0.3584
C7 C 0.1968(6) -0.0336(4) 0.3009(2)
H3 H 0.0510 -0.0990 0.2725
C8 C 0.2607(5) 0.1181(4) 0.2987(2)
C9 C 0.1154(6) 0.2126(5) 0.2587(3)
H4 H 0.1198 0.2897 0.3095
H5 H -0.0423 0.1462 0.2394
C10 C 0.1791(7) 0.2928(5) 0.1755(3)
H6 H 0.3282 0.3708 0.2008
C11 C 0.2158(10) 0.1977(6) 0.0956(3)
H7 H 0.1676 0.0911 0.0912
C12 C 0.3323(9) 0.2764(7) 0.0217(3)
H8 H 0.2413 0.3361 -0.0088
H9 H 0.4813 0.3471 0.0530
C13 C 0.3645(16) 0.1678(9) -0.0525(5)
H10 H 0.3136 0.0624 -0.0510
C14 C 0.4734(16) 0.2281(10) -0.1246(5)
H11 H 0.4827 0.1458 -0.1673
H12 H 0.6254 0.2948 -0.0968
H13 H 0.3866 0.2853 -0.1591
C15 C 0.0114(9) 0.3830(6) 0.1436(3)
H14 H 0.0512 0.4292 0.0880
H15 H -0.1422 0.3107 0.1241
C16 C 0.0054(10) 0.5054(6) 0.2153(5)
H16 H -0.1039 0.5541 0.1883
H17 H 0.1551 0.5801 0.2339
H18 H -0.0389 0.4612 0.2701
S1A S 1.35652(14) 0.30954(8) 0.59551(6)
S2A S 1.45912(13) -0.20238(9) 0.64122(6)
N1A N 1.0300(5) -0.2915(3) 0.51257(19)
C1A C 1.1556(6) 0.3865(3) 0.5384(3)
H1A H 1.1805 0.4919 0.5442
C2A C 1.1746(5) 0.1266(3) 0.54614(18)
C3A C 1.2127(5) -0.0146(3) 0.55836(17)
C4A C 1.0271(5) -0.1413(3) 0.50993(18)
C5A C 1.4244(5) -0.0288(3) 0.61373(18)
C6A C 1.6288(6) 0.0846(4) 0.6495(2)
H2A H 1.6502 0.1871 0.6416
C7A C 1.8032(6) 0.0336(4) 0.6991(2)
H3A H 1.9490 0.0990 0.7275
C8A C 1.7393(5) -0.1181(4) 0.7013(2)
C9A C 1.8846(6) -0.2126(5) 0.7413(3)
H4A H 1.8802 -0.2897 0.6905
H5A H 2.0423 -0.1462 0.7606
C10A C 1.8209(7) -0.2928(5) 0.8245(3)
H6A H 1.6718 -0.3708 0.7992
C11A C 1.7842(10) -0.1977(6) 0.9044(3)
H7A H 1.8324 -0.0911 0.9088
C12A C 1.6677(9) -0.2764(7) 0.9783(3)
H8A H 1.7587 -0.3361 1.0088
H9A H 1.5187 -0.3471 0.9470
C13A C 1.6355(16) -0.1678(9) 1.0525(5)
H10A H 1.6864 -0.0624 1.0510
C14A C 1.5266(16) -0.2281(10) 1.1246(5)
H11A H 1.5173 -0.1458 1.1673
H12A H 1.3746 -0.2948 1.0968
H13A H 1.6134 -0.2853 1.1591
C15A C 1.9886(9) -0.3830(6) 0.8564(3)
H14A H 1.9488 -0.4292 0.9120
H15A H 2.1422 -0.3107 0.8759
C16A C 1.9946(10) -0.5054(6) 0.7847(5)
H16A H 2.1039 -0.5541 0.8117
H17A H 1.8449 -0.5801 0.7661
H18A H 2.0389 -0.4612 0.7299
loop_
_geom_bond_atom_site_label_1
_geom_bond_atom_site_label_2
_geom_bond_site_symmetry_1
_geom_bond_site_symmetry_2
S1 C1 1_555 1_555
S2 C5 1_555 1_555
N1 C4 1_555 1_555
C1 H1 1_555 1_555
C2 S1 1_555 1_555
C3 C2 1_555 1_555
C4 C3 1_555 1_555
C5 C3 1_555 1_555
C6 C5 1_555 1_555
H2 C6 1_555 1_555
C7 C6 1_555 1_555
H3 C7 1_555 1_555
C8 S2 1_555 1_555
C9 C8 1_555 1_555
H4 C9 1_555 1_555
H5 C9 1_555 1_555
C10 C9 1_555 1_555
H6 C10 1_555 1_555
C11 C10 1_555 1_555
H7 C11 1_555 1_555
C12 C11 1_555 1_555
H8 C12 1_555 1_555
H9 C12 1_555 1_555
C13 C12 1_555 1_555
H10 C13 1_555 1_555
C14 C13 1_555 1_555
H11 C14 1_555 1_555
H12 C14 1_555 1_555
H13 C14 1_555 1_555
C15 C10 1_555 1_555
H14 C15 1_555 1_555
H15 C15 1_555 1_555
C16 C15 1_555 1_555
H16 C16 1_555 1_555
H17 C16 1_555 1_555
H18 C16 1_555 1_555
S1A C1A 1_555 1_555
S2A C5A 1_555 1_555
N1A C1 1_555 1_555
C1A N1 1_555 1_555
H1A C1A 1_555 1_555
C2A C4 1_555 1_555
C3A C2A 1_555 1_555
C4A C2 1_555 1_555
C5A C3A 1_555 1_555
C6A C5A 1_555 1_555
H2A C6A 1_555 1_555
C7A C6A 1_555 1_555
H3A C7A 1_555 1_555
C8A S2A 1_555 1_555
C9A C8A 1_555 1_555
H4A C9A 1_555 1_555
H5A C9A 1_555 1_555
C10A C9A 1_555 1_555
H6A C10A 1_555 1_555
C11A C10A 1_555 1_555
H7A C11A 1_555 1_555
C12A C11A 1_555 1_555
H8A C12A 1_555 1_555
H9A C12A 1_555 1_555
C13A C12A 1_555 1_555
H10A C13A 1_555 1_555
C14A C13A 1_555 1_555
H11A C14A 1_555 1_555
H12A C14A 1_555 1_555
H13A C14A 1_555 1_555
C15A C10A 1_555 1_555
H14A C15A 1_555 1_555
H15A C15A 1_555 1_555
C16A C15A 1_555 1_555
H16A C16A 1_555 1_555
H17A C16A 1_555 1_555
H18A C16A 1_555 1_555
C7 C8 1_555 1_555
S1A C2A 1_555 1_555
N1A C4A 1_555 1_555
C3A C4A 1_555 1_555
C7A C8A 1_555 1_555

#END
