
#######################################################################
#
#                 Cambridge Crystallographic Data Centre
#                                CCDC 
#
#######################################################################
#
# If this CIF has been generated from an entry in the Cambridge 
# Structural Database, then it will include bibliographic, chemical, 
# crystal, experimental, refinement or atomic coordinate data resulting 
# from the CCDC's data processing and validation procedures.
#
#######################################################################

data_CELTES
_chemical_formula_moiety         'C11 H8 O1 S1'
_chemical_name_systematic        2-Benzoyl-thiophene
_symmetry_cell_setting           orthorhombic
_symmetry_space_group_name_H-M   'P 21 21 21'
_symmetry_Int_Tables_number      19
_space_group_name_Hall           'P 2ac 2ab'
loop_
_symmetry_equiv_pos_site_id
_symmetry_equiv_pos_as_xyz
1 x,y,z
2 1/2+x,1/2-y,-z
3 -x,1/2+y,1/2-z
4 1/2-x,-y,1/2+z
_cell_length_a                   11.945(4)
_cell_length_b                   10.236(7)
_cell_length_c                   7.649(4)
_cell_angle_alpha                90
_cell_angle_beta                 90
_cell_angle_gamma                90
_cell_volume                     935.236
_cell_formula_units_Z            4
loop_
_atom_site_label
_atom_site_type_symbol
_atom_site_fract_x
_atom_site_fract_y
_atom_site_fract_z
S1 S 0.47780 0.18610 0.38890
O1 O 0.43330 0.46300 0.49370
C1 C 0.56750 0.29740 0.48570
C2 C 0.66380 0.23540 0.54400
C3 C 0.66290 0.10010 0.50740
C4 C 0.56910 0.05980 0.42570
C5 C 0.53280 0.43340 0.50350
C6 C 0.61850 0.53630 0.52890
C7 C 0.72540 0.52960 0.45630
C8 C 0.80040 0.63260 0.47970
C9 C 0.76840 0.74230 0.57580
C10 C 0.66140 0.74890 0.64840
C11 C 0.58650 0.64590 0.62500
H1 H 0.73160 0.28490 0.60980
H2 H 0.73080 0.03530 0.54160
H3 H 0.55330 -0.04020 0.38790
H4 H 0.75020 0.44470 0.38190
H5 H 0.88320 0.62750 0.42350
H6 H 0.82650 0.82200 0.59450
H7 H 0.63670 0.83380 0.72280
H8 H 0.50360 0.65110 0.68120
loop_
_geom_bond_atom_site_label_1
_geom_bond_atom_site_label_2
_geom_bond_site_symmetry_1
_geom_bond_site_symmetry_2
S1 C1 1_555 1_555
O1 C5 1_555 1_555
C1 C2 1_555 1_555
C2 C3 1_555 1_555
C3 C4 1_555 1_555
C4 S1 1_555 1_555
C5 C1 1_555 1_555
C6 C5 1_555 1_555
C7 C6 1_555 1_555
C8 C7 1_555 1_555
C9 C8 1_555 1_555
C10 C9 1_555 1_555
C11 C6 1_555 1_555
H1 C2 1_555 1_555
H2 C3 1_555 1_555
H3 C4 1_555 1_555
H4 C7 1_555 1_555
H5 C8 1_555 1_555
H6 C9 1_555 1_555
H7 C10 1_555 1_555
H8 C11 1_555 1_555
C10 C11 1_555 1_555

#END
