
#######################################################################
#
#                 Cambridge Crystallographic Data Centre
#                                CCDC 
#
#######################################################################
#
# If this CIF has been generated from an entry in the Cambridge 
# Structural Database, then it will include bibliographic, chemical, 
# crystal, experimental, refinement or atomic coordinate data resulting 
# from the CCDC's data processing and validation procedures.
#
#######################################################################

data_CELVOE11
_chemical_compound_source        'roots of Piper Longum L'
_chemical_name_common            Piperlongumine
_chemical_formula_moiety         'C17 H19 N1 O5'
_chemical_name_systematic        
N-(3,4,5-Trimethoxycinnamoyl)-\D^3^-piperidin-2-one
_chemical_properties_biological  
'drug activity against asthma and chronic bronchitis'
_symmetry_cell_setting           monoclinic
_symmetry_space_group_name_H-M   'P 21/n'
_symmetry_Int_Tables_number      14
_space_group_name_Hall           '-P 2yn'
loop_
_symmetry_equiv_pos_site_id
_symmetry_equiv_pos_as_xyz
1 x,y,z
2 1/2-x,1/2+y,1/2-z
3 -x,-y,-z
4 1/2+x,1/2-y,1/2+z
_cell_length_a                   15.793(3)
_cell_length_b                   4.089(4)
_cell_length_c                   24.649(5)
_cell_angle_alpha                90
_cell_angle_beta                 97.56(3)
_cell_angle_gamma                90
_cell_volume                     1577.94
_cell_formula_units_Z            4
loop_
_atom_site_label
_atom_site_type_symbol
_atom_site_fract_x
_atom_site_fract_y
_atom_site_fract_z
N1 N 0.3629(1) 1.6656(6) 0.67699(9)
C1 C 0.4342(2) 1.7647(8) 0.6528(1)
C2 C 0.5083(2) 1.8690(10) 0.6901(1)
C3 C 0.5145(2) 1.8363(10) 0.7439(2)
C4 C 0.4417(2) 1.7094(9) 0.7696(1)
C5 C 0.3592(2) 1.7634(8) 0.7347(1)
O1 O 0.4345(1) 1.7661(6) 0.60350(8)
C6 C 0.2864(2) 1.5567(8) 0.6476(1)
O2 O 0.2203(1) 1.5872(7) 0.66767(7)
C7 C 0.2891(2) 1.3849(8) 0.5952(1)
C8 C 0.2192(2) 1.3320(8) 0.5618(1)
C9 C 0.2105(2) 1.1801(7) 0.5072(1)
C10 C 0.2796(2) 1.0231(7) 0.4883(1)
C11 C 0.2708(2) 0.9047(7) 0.4356(1)
C12 C 0.1941(2) 0.9350(7) 0.4015(1)
C13 C 0.1242(2) 1.0821(7) 0.4210(1)
C14 C 0.1337(2) 1.2021(7) 0.4739(1)
O3 O 0.3341(1) 0.7460(6) 0.41297(8)
C15 C 0.4130(2) 0.6966(9) 0.4472(1)
O4 O 0.1843(1) 0.8180(5) 0.34850(7)
C16 C 0.2235(3) 1.0160(10) 0.3115(1)
O5 O 0.0506(1) 1.0950(6) 0.38527(8)
C17 C -0.0208(2) 1.2489(9) 0.4038(1)
loop_
_geom_bond_atom_site_label_1
_geom_bond_atom_site_label_2
_geom_bond_site_symmetry_1
_geom_bond_site_symmetry_2
N1 C1 1_555 1_555
C1 C2 1_555 1_555
C2 C3 1_555 1_555
C3 C4 1_555 1_555
C4 C5 1_555 1_555
C5 N1 1_555 1_555
O1 C1 1_555 1_555
C6 N1 1_555 1_555
O2 C6 1_555 1_555
C7 C6 1_555 1_555
C8 C7 1_555 1_555
C9 C8 1_555 1_555
C10 C9 1_555 1_555
C11 C10 1_555 1_555
C12 C11 1_555 1_555
C13 C12 1_555 1_555
C14 C9 1_555 1_555
O3 C11 1_555 1_555
C15 O3 1_555 1_555
O4 C12 1_555 1_555
C16 O4 1_555 1_555
O5 C13 1_555 1_555
C17 O5 1_555 1_555
C13 C14 1_555 1_555

#END
