
#######################################################################
#
#                 Cambridge Crystallographic Data Centre
#                                CCDC 
#
#######################################################################
#
# If this CIF has been generated from an entry in the Cambridge 
# Structural Database, then it will include bibliographic, chemical, 
# crystal, experimental, refinement or atomic coordinate data resulting 
# from the CCDC's data processing and validation procedures.
#
#######################################################################

data_CEMCOP
_chemical_formula_moiety         'C25 H28 N1 O3 P1 S1'
_chemical_name_systematic        
(-)-(R)-N-{2-[cyclohexyl(phenyl)phosphoryl]phenyl}-4-methylbenzene-1-sulfonamide
_symmetry_cell_setting           orthorhombic
_symmetry_space_group_name_H-M   'P 21 21 21'
_symmetry_Int_Tables_number      19
_space_group_name_Hall           'P 2ac 2ab'
loop_
_symmetry_equiv_pos_site_id
_symmetry_equiv_pos_as_xyz
1 x,y,z
2 1/2-x,-y,1/2+z
3 -x,1/2+y,1/2-z
4 1/2+x,1/2-y,-z
_cell_length_a                   10.9745(2)
_cell_length_b                   11.5652(2)
_cell_length_c                   18.3694(3)
_cell_angle_alpha                90
_cell_angle_beta                 90
_cell_angle_gamma                90
_cell_volume                     2331.49
_exptl_crystal_colour            colorless
_exptl_crystal_description       prism
_cell_formula_units_Z            4
loop_
_atom_site_label
_atom_site_type_symbol
_atom_site_fract_x
_atom_site_fract_y
_atom_site_fract_z
S1 S 0.28757(4) 0.88061(4) 0.63245(3)
P1 P 0.06727(4) 0.69670(4) 0.80704(3)
O1 O 0.13414(13) 0.80869(12) 0.81806(8)
O2 O 0.25536(14) 0.90899(13) 0.55901(8)
O3 O 0.33705(14) 0.96860(12) 0.67895(9)
N1 N 0.16659(15) 0.83549(14) 0.67585(10)
H1 H 0.173(3) 0.844(2) 0.7208(17)
C1 C 0.04543(17) 0.66774(15) 0.71071(10)
C2 C -0.02690(18) 0.57325(16) 0.69026(12)
H2 H -0.0646 0.5278 0.7270
C3 C -0.04465(19) 0.54458(16) 0.61782(11)
H3 H -0.0941 0.4803 0.6050
C4 C 0.01061(19) 0.61078(18) 0.56434(11)
H4 H 0.0002 0.5908 0.5146
C5 C 0.08105(19) 0.70603(18) 0.58278(11)
H5 H 0.1170 0.7517 0.5456
C6 C 0.09941(17) 0.73515(15) 0.65589(10)
C7 C 0.38740(17) 0.76147(16) 0.63002(11)
C8 C 0.39646(19) 0.69574(19) 0.56713(11)
H6 H 0.3515 0.7164 0.5249
C9 C 0.4716(2) 0.59980(19) 0.56653(12)
H7 H 0.4787 0.5551 0.5233
C10 C 0.53698(19) 0.56765(18) 0.62814(13)
C11 C 0.5268(2) 0.6347(2) 0.69076(13)
H8 H 0.5712 0.6137 0.7332
C12 C 0.4527(2) 0.73202(18) 0.69204(12)
H9 H 0.4467 0.7778 0.7348
C13 C 0.6173(2) 0.4621(2) 0.62648(16)
H10 H 0.6670 0.4631 0.5822
H11 H 0.5664 0.3924 0.6269
H12 H 0.6706 0.4620 0.6693
C14 C 0.15631(18) 0.57790(17) 0.84222(10)
C15 C 0.2810(2) 0.5966(2) 0.85083(13)
H13 H 0.3144 0.6708 0.8411
C16 C 0.3564(2) 0.5072(2) 0.87360(17)
H14 H 0.4414 0.5203 0.8793
C17 C 0.3082(2) 0.3994(2) 0.88800(12)
H15 H 0.3600 0.3381 0.9032
C18 C 0.18444(19) 0.38049(18) 0.88035(11)
H16 H 0.1514 0.3063 0.8905
C19 C 0.10825(19) 0.46932(17) 0.85794(11)
H17 H 0.0232 0.4561 0.8533
C20 C -0.08289(17) 0.69493(17) 0.84874(10)
H18 H -0.1198 0.6167 0.8415
C21 C -0.0714(2) 0.71831(18) 0.93107(11)
H19 H -0.0258 0.6543 0.9543
H20 H -0.0252 0.7907 0.9389
C22 C -0.1974(2) 0.7289(2) 0.96628(12)
H21 H -0.2401 0.6537 0.9628
H22 H -0.1877 0.7479 1.0185
C23 C -0.2742(2) 0.8220(2) 0.92956(13)
H23 H -0.3555 0.8253 0.9527
H24 H -0.2346 0.8983 0.9359
C24 C -0.2882(2) 0.7961(2) 0.84882(13)
H25 H -0.3357 0.8588 0.8255
H26 H -0.3340 0.7230 0.8427
C25 C -0.16455(19) 0.78567(19) 0.81140(12)
H27 H -0.1231 0.8617 0.8123
H28 H -0.1769 0.7636 0.7598
loop_
_geom_bond_atom_site_label_1
_geom_bond_atom_site_label_2
_geom_bond_site_symmetry_1
_geom_bond_site_symmetry_2
S1 O2 1_555 1_555
P1 O1 1_555 1_555
O3 S1 1_555 1_555
N1 S1 1_555 1_555
H1 N1 1_555 1_555
C1 P1 1_555 1_555
C2 C1 1_555 1_555
H2 C2 1_555 1_555
C3 C2 1_555 1_555
H3 C3 1_555 1_555
C4 C3 1_555 1_555
H4 C4 1_555 1_555
C5 C4 1_555 1_555
H5 C5 1_555 1_555
C6 N1 1_555 1_555
C7 S1 1_555 1_555
C8 C7 1_555 1_555
H6 C8 1_555 1_555
C9 C8 1_555 1_555
H7 C9 1_555 1_555
C10 C9 1_555 1_555
C11 C10 1_555 1_555
H8 C11 1_555 1_555
C12 C7 1_555 1_555
H9 C12 1_555 1_555
C13 C10 1_555 1_555
H10 C13 1_555 1_555
H11 C13 1_555 1_555
H12 C13 1_555 1_555
C14 P1 1_555 1_555
C15 C14 1_555 1_555
H13 C15 1_555 1_555
C16 C15 1_555 1_555
H14 C16 1_555 1_555
C17 C16 1_555 1_555
H15 C17 1_555 1_555
C18 C17 1_555 1_555
H16 C18 1_555 1_555
C19 C14 1_555 1_555
H17 C19 1_555 1_555
C20 P1 1_555 1_555
H18 C20 1_555 1_555
C21 C20 1_555 1_555
H19 C21 1_555 1_555
H20 C21 1_555 1_555
C22 C21 1_555 1_555
H21 C22 1_555 1_555
H22 C22 1_555 1_555
C23 C22 1_555 1_555
H23 C23 1_555 1_555
H24 C23 1_555 1_555
C24 C23 1_555 1_555
H25 C24 1_555 1_555
H26 C24 1_555 1_555
C25 C20 1_555 1_555
H27 C25 1_555 1_555
H28 C25 1_555 1_555
C1 C6 1_555 1_555
C5 C6 1_555 1_555
C11 C12 1_555 1_555
C18 C19 1_555 1_555
C24 C25 1_555 1_555

#END
