
#######################################################################
#
#                 Cambridge Crystallographic Data Centre
#                                CCDC 
#
#######################################################################
#
# If this CIF has been generated from an entry in the Cambridge 
# Structural Database, then it will include bibliographic, chemical, 
# crystal, experimental, refinement or atomic coordinate data resulting 
# from the CCDC's data processing and validation procedures.
#
#######################################################################

data_CEMEBR01
_chemical_formula_moiety         'C19 H42 N1 1+,Br1 1-'
_chemical_name_systematic        'Hexadecyltrimethylammonium bromide'
_chemical_properties_biological  'cationic surfactant activity'
_symmetry_cell_setting           monoclinic
_symmetry_space_group_name_H-M   'P 21/c'
_symmetry_Int_Tables_number      14
_space_group_name_Hall           '-P 2ybc'
loop_
_symmetry_equiv_pos_site_id
_symmetry_equiv_pos_as_xyz
1 x,y,z
2 -x,1/2+y,1/2-z
3 -x,-y,-z
4 x,1/2-y,1/2+z
_cell_length_a                   5.638(1)
_cell_length_b                   7.260(2)
_cell_length_c                   52.072(7)
_cell_angle_alpha                90
_cell_angle_beta                 93.78(1)
_cell_angle_gamma                90
_cell_volume                     2126.77
_exptl_crystal_colour            colorless
_chemical_melting_point          492-493K
_cell_formula_units_Z            4
loop_
_atom_site_label
_atom_site_type_symbol
_atom_site_fract_x
_atom_site_fract_y
_atom_site_fract_z
Br1 Br -0.8696(1) 0.2485(1) 0.53617(1)
N1 N -0.5091(6) 0.2500(7) 0.4604(1)
C1 C -0.6549(9) 0.0776(7) 0.4584(1)
C2 C -0.6681(9) 0.4126(7) 0.4580(1)
C3 C -0.3753(8) 0.2555(8) 0.4865(1)
C4 C -0.3240(7) 0.2508(8) 0.4409(1)
C5 C -0.4160(9) 0.2207(7) 0.4129(1)
C6 C -0.2183(10) 0.2764(9) 0.3959(1)
C7 C -0.2650(9) 0.2269(8) 0.3674(1)
C8 C -0.0778(10) 0.2984(7) 0.3506(1)
C9 C -0.1001(10) 0.2313(8) 0.3231(1)
C10 C 0.0858(10) 0.3095(8) 0.3063(1)
C11 C 0.0740(10) 0.2287(8) 0.2790(1)
C12 C 0.2583(10) 0.3105(8) 0.2623(1)
C13 C 0.2470(9) 0.2319(8) 0.2351(1)
C14 C 0.4293(10) 0.3118(8) 0.2182(1)
C15 C 0.4197(10) 0.2311(8) 0.1911(1)
C16 C 0.6012(10) 0.3110(8) 0.1741(1)
C17 C 0.5871(10) 0.2298(8) 0.1471(1)
C18 C 0.7700(11) 0.3117(9) 0.1299(1)
C19 C 0.7523(14) 0.2231(9) 0.1030(1)
loop_
_geom_bond_atom_site_label_1
_geom_bond_atom_site_label_2
_geom_bond_site_symmetry_1
_geom_bond_site_symmetry_2
N1 C1 1_555 1_555
C2 N1 1_555 1_555
C3 N1 1_555 1_555
C4 N1 1_555 1_555
C5 C4 1_555 1_555
C6 C5 1_555 1_555
C7 C6 1_555 1_555
C8 C7 1_555 1_555
C9 C8 1_555 1_555
C10 C9 1_555 1_555
C11 C10 1_555 1_555
C12 C11 1_555 1_555
C13 C12 1_555 1_555
C14 C13 1_555 1_555
C15 C14 1_555 1_555
C16 C15 1_555 1_555
C17 C16 1_555 1_555
C18 C17 1_555 1_555
C19 C18 1_555 1_555

#END
