
#######################################################################
#
#                 Cambridge Crystallographic Data Centre
#                                CCDC 
#
#######################################################################
#
# If this CIF has been generated from an entry in the Cambridge 
# Structural Database, then it will include bibliographic, chemical, 
# crystal, experimental, refinement or atomic coordinate data resulting 
# from the CCDC's data processing and validation procedures.
#
#######################################################################

data_CEMEBR02
_chemical_formula_moiety         'C19 H42 N1 1+,Br1 1-'
_chemical_name_systematic        'N,N,N-Trimethylhexadecan-1-aminium bromide'
_symmetry_cell_setting           monoclinic
_symmetry_space_group_name_H-M   'P 21'
_symmetry_Int_Tables_number      4
_space_group_name_Hall           'P 2yb'
loop_
_symmetry_equiv_pos_site_id
_symmetry_equiv_pos_as_xyz
1 x,y,z
2 -x,1/2+y,-z
_cell_length_a                   5.6382(6)
_cell_length_b                   7.2724(7)
_cell_length_c                   26.007(2)
_cell_angle_alpha                90
_cell_angle_beta                 93.778(2)
_cell_angle_gamma                90
_cell_volume                     1064.05
_exptl_crystal_colour            colorless
_exptl_crystal_description       block
_cell_formula_units_Z            2
loop_
_atom_site_label
_atom_site_type_symbol
_atom_site_fract_x
_atom_site_fract_y
_atom_site_fract_z
Br1 Br 0.86916(12) 0.6693(4) 0.42758(3)
N1 N 0.4897(10) 0.171(3) 0.4211(2)
C1 C 0.6774(11) 0.168(4) 0.3816(3)
H1 H 0.7923 0.2639 0.3903
H2 H 0.7608 0.0512 0.3845
C2 C 0.5862(15) 0.193(3) 0.3261(3)
H3 H 0.5310 0.3185 0.3205
H4 H 0.4544 0.1105 0.3178
C3 C 0.7898(18) 0.152(5) 0.2922(4)
H5 H 0.9212 0.2335 0.3022
H6 H 0.8432 0.0272 0.2989
C4 C 0.7316(16) 0.173(5) 0.2354(3)
H7 H 0.6118 0.2682 0.2308
H8 H 0.6585 0.0590 0.2231
C5 C 0.9264(19) 0.218(2) 0.2008(4)
H9 H 0.9445 0.3506 0.2004
H10 H 1.0732 0.1673 0.2164
C6 C 0.9004(17) 0.154(5) 0.1460(4)
H11 H 0.7437 0.1880 0.1315
H12 H 0.9095 0.0204 0.1457
C7 C 1.085(2) 0.2295(17) 0.1114(4)
H13 H 1.0683 0.3622 0.1101
H14 H 1.2417 0.2028 0.1274
C8 C 1.0737(17) 0.159(6) 0.0581(3)
H15 H 0.9177 0.1869 0.0421
H16 H 1.0879 0.0259 0.0595
C9 C 1.257(2) 0.2306(18) 0.0236(4)
H17 H 1.2422 0.3634 0.0220
H18 H 1.4132 0.2033 0.0398
C10 C 1.2476(16) 0.159(5) -0.0296(3)
H19 H 1.0914 0.1862 -0.0457
H20 H 1.2634 0.0266 -0.0280
C11 C 1.430(2) 0.2321(19) -0.0638(4)
H21 H 1.4134 0.3647 -0.0657
H22 H 1.5865 0.2063 -0.0475
C12 C 1.4211(16) 0.158(5) -0.1174(4)
H23 H 1.2640 0.1820 -0.1335
H24 H 1.4408 0.0258 -0.1155
C13 C 1.603(2) 0.2337(18) -0.1521(4)
H25 H 1.5849 0.3663 -0.1538
H26 H 1.7600 0.2077 -0.1365
C14 C 1.5869(17) 0.160(6) -0.2055(4)
H27 H 1.4303 0.1880 -0.2213
H28 H 1.6017 0.0274 -0.2038
C15 C 1.771(2) 0.2334(19) -0.2403(4)
H29 H 1.7558 0.3661 -0.2422
H30 H 1.9281 0.2063 -0.2245
C16 C 1.756(3) 0.157(6) -0.2946(5)
H31 H 1.7944 0.0287 -0.2936
H32 H 1.8667 0.2212 -0.3147
H33 H 1.5978 0.1738 -0.3098
C17 C 0.338(3) 0.340(2) 0.4165(7)
H34 H 0.2482 0.3393 0.3839
H35 H 0.4378 0.4470 0.4189
H36 H 0.2316 0.3417 0.4438
C18 C 0.338(3) 0.003(3) 0.4157(6)
H37 H 0.2439 -0.0072 0.4451
H38 H 0.4368 -0.1035 0.4137
H39 H 0.2347 0.0126 0.3850
C19 C 0.6229(13) 0.172(4) 0.4727(3)
H40 H 0.7009 0.2889 0.4779
H41 H 0.7394 0.0760 0.4742
H42 H 0.5142 0.1535 0.4991
loop_
_geom_bond_atom_site_label_1
_geom_bond_atom_site_label_2
_geom_bond_site_symmetry_1
_geom_bond_site_symmetry_2
N1 C1 1_555 1_555
C1 H1 1_555 1_555
H2 C1 1_555 1_555
C2 C1 1_555 1_555
H3 C2 1_555 1_555
H4 C2 1_555 1_555
C3 C2 1_555 1_555
H5 C3 1_555 1_555
H6 C3 1_555 1_555
C4 C3 1_555 1_555
H7 C4 1_555 1_555
H8 C4 1_555 1_555
C5 C4 1_555 1_555
H9 C5 1_555 1_555
H10 C5 1_555 1_555
C6 C5 1_555 1_555
H11 C6 1_555 1_555
H12 C6 1_555 1_555
C7 C6 1_555 1_555
H13 C7 1_555 1_555
H14 C7 1_555 1_555
C8 C7 1_555 1_555
H15 C8 1_555 1_555
H16 C8 1_555 1_555
C9 C8 1_555 1_555
H17 C9 1_555 1_555
H18 C9 1_555 1_555
C10 C9 1_555 1_555
H19 C10 1_555 1_555
H20 C10 1_555 1_555
C11 C10 1_555 1_555
H21 C11 1_555 1_555
H22 C11 1_555 1_555
C12 C11 1_555 1_555
H23 C12 1_555 1_555
H24 C12 1_555 1_555
C13 C12 1_555 1_555
H25 C13 1_555 1_555
H26 C13 1_555 1_555
C14 C13 1_555 1_555
H27 C14 1_555 1_555
H28 C14 1_555 1_555
C15 C14 1_555 1_555
H29 C15 1_555 1_555
H30 C15 1_555 1_555
C16 C15 1_555 1_555
H31 C16 1_555 1_555
H32 C16 1_555 1_555
H33 C16 1_555 1_555
C17 N1 1_555 1_555
H34 C17 1_555 1_555
H35 C17 1_555 1_555
H36 C17 1_555 1_555
C18 N1 1_555 1_555
H37 C18 1_555 1_555
H38 C18 1_555 1_555
H39 C18 1_555 1_555
C19 N1 1_555 1_555
H40 C19 1_555 1_555
H41 C19 1_555 1_555
H42 C19 1_555 1_555

#END
