
#######################################################################
#
#                 Cambridge Crystallographic Data Centre
#                                CCDC 
#
#######################################################################
#
# If this CIF has been generated from an entry in the Cambridge 
# Structural Database, then it will include bibliographic, chemical, 
# crystal, experimental, refinement or atomic coordinate data resulting 
# from the CCDC's data processing and validation procedures.
#
#######################################################################

data_CEMGAE
_chemical_formula_moiety         'C26 H28 N2 O6 S2'
_chemical_name_systematic        
'Ethyl 1,5-bis((4-methylphenyl)sulfonyl)-2,3,4,5-tetrahydro-1H-1,5-benzodiazepine-3-carboxylate'
_symmetry_cell_setting           triclinic
_symmetry_space_group_name_H-M   'P -1'
_symmetry_Int_Tables_number      2
_space_group_name_Hall           '-P 1'
loop_
_symmetry_equiv_pos_site_id
_symmetry_equiv_pos_as_xyz
1 x,y,z
2 -x,-y,-z
_cell_length_a                   10.868(2)
_cell_length_b                   11.564(2)
_cell_length_c                   11.8448(19)
_cell_angle_alpha                67.173(12)
_cell_angle_beta                 68.081(12)
_cell_angle_gamma                79.230(14)
_cell_volume                     1271.32
_exptl_crystal_colour            colorless
_exptl_crystal_description       Prism
_cell_formula_units_Z            2
loop_
_atom_site_label
_atom_site_type_symbol
_atom_site_fract_x
_atom_site_fract_y
_atom_site_fract_z
S1 S 0.10806(5) 0.35142(5) 0.28965(5)
S2 S 0.26429(5) 0.13138(6) -0.03669(5)
O1 O 0.24003(13) 0.38996(14) 0.24939(14)
O2 O 0.02047(14) 0.41915(13) 0.21872(13)
O3 O 0.38312(14) 0.05890(15) -0.07793(14)
O4 O 0.15926(14) 0.14441(15) -0.08667(13)
O5 O 0.50491(16) 0.04693(16) 0.34073(16)
O6 O 0.42478(13) -0.12924(15) 0.36680(14)
N1 N 0.12544(15) 0.20658(15) 0.28922(16)
N2 N 0.20241(15) 0.06629(16) 0.12152(15)
C1 C 0.02613(18) 0.15363(18) 0.27414(19)
C2 C -0.1075(2) 0.1631(2) 0.3442(2)
H1 H -0.1346 0.2040 0.4041
C3 C -0.2009(2) 0.1125(2) 0.3257(2)
H2 H -0.2905 0.1216 0.3716
C4 C -0.1628(2) 0.0487(2) 0.2401(2)
H3 H -0.2261 0.0159 0.2269
C5 C -0.02981(19) 0.0339(2) 0.1743(2)
H4 H -0.0032 -0.0120 0.1191
C6 C 0.06503(18) 0.08670(19) 0.18930(18)
C7 C 0.28975(19) -0.0059(2) 0.1977(2)
H5 H 0.3688 -0.0361 0.1418
H6 H 0.2442 -0.0787 0.2666
C8 C 0.3307(2) 0.0674(2) 0.2567(2)
H7 H 0.3752 0.1404 0.1847
C9 C 0.2179(2) 0.1185(2) 0.3510(2)
H8 H 0.1692 0.0489 0.4225
H9 H 0.2550 0.1610 0.3864
C10 C 0.4309(2) -0.0039(2) 0.3254(2)
C11 C 0.5266(2) -0.2005(2) 0.4226(2)
H10 H 0.5223 -0.1774 0.4945
H11 H 0.6141 -0.1835 0.3578
C12 C 0.5008(3) -0.3357(3) 0.4686(3)
H12 H 0.4148 -0.3516 0.5341
H13 H 0.5674 -0.3858 0.5044
H14 H 0.5034 -0.3569 0.3970
C13 C 0.03104(19) 0.34232(19) 0.4530(2)
C14 C 0.1061(2) 0.3087(2) 0.5343(2)
H15 H 0.1978 0.2969 0.5014
C15 C 0.0448(2) 0.2928(2) 0.6641(2)
H16 H 0.0964 0.2711 0.7175
C16 C -0.0914(2) 0.3083(2) 0.7167(2)
C17 C -0.1646(2) 0.3467(2) 0.6333(2)
H17 H -0.2560 0.3612 0.6660
C18 C -0.1049(2) 0.3640(2) 0.5027(2)
H18 H -0.1559 0.3902 0.4484
C19 C -0.1575(2) 0.2851(2) 0.8603(2)
H19 H -0.2009 0.3617 0.8725
H20 H -0.0917 0.2564 0.9025
H21 H -0.2218 0.2223 0.8969
C20 C 0.3084(2) 0.2839(2) -0.07330(19)
C21 C 0.2149(2) 0.3830(2) -0.0842(2)
H22 H 0.1285 0.3692 -0.0721
C22 C 0.2500(2) 0.5021(2) -0.1131(2)
H23 H 0.1862 0.5681 -0.1196
C23 C 0.3778(2) 0.5263(2) -0.1327(2)
C24 C 0.4698(2) 0.4253(2) -0.1223(2)
H24 H 0.5566 0.4390 -0.1357
C25 C 0.4365(2) 0.3054(2) -0.0929(2)
H25 H 0.5001 0.2393 -0.0863
C26 C 0.4162(2) 0.6561(2) -0.1647(2)
H26 H 0.4537 0.6951 -0.2572
H27 H 0.4805 0.6514 -0.1251
H28 H 0.3389 0.7049 -0.1323
loop_
_geom_bond_atom_site_label_1
_geom_bond_atom_site_label_2
_geom_bond_site_symmetry_1
_geom_bond_site_symmetry_2
S1 O1 1_555 1_555
S2 O3 1_555 1_555
O2 S1 1_555 1_555
O4 S2 1_555 1_555
O5 C10 1_555 1_555
O6 C10 1_555 1_555
N1 S1 1_555 1_555
N2 S2 1_555 1_555
C1 N1 1_555 1_555
C2 C1 1_555 1_555
H1 C2 1_555 1_555
C3 C2 1_555 1_555
H2 C3 1_555 1_555
C4 C3 1_555 1_555
H3 C4 1_555 1_555
C5 C4 1_555 1_555
H4 C5 1_555 1_555
C6 N2 1_555 1_555
C7 N2 1_555 1_555
H5 C7 1_555 1_555
H6 C7 1_555 1_555
C8 C7 1_555 1_555
H7 C8 1_555 1_555
C9 N1 1_555 1_555
H8 C9 1_555 1_555
H9 C9 1_555 1_555
C10 C8 1_555 1_555
C11 O6 1_555 1_555
H10 C11 1_555 1_555
H11 C11 1_555 1_555
C12 C11 1_555 1_555
H12 C12 1_555 1_555
H13 C12 1_555 1_555
H14 C12 1_555 1_555
C13 S1 1_555 1_555
C14 C13 1_555 1_555
H15 C14 1_555 1_555
C15 C14 1_555 1_555
H16 C15 1_555 1_555
C16 C15 1_555 1_555
C17 C16 1_555 1_555
H17 C17 1_555 1_555
C18 C13 1_555 1_555
H18 C18 1_555 1_555
C19 C16 1_555 1_555
H19 C19 1_555 1_555
H20 C19 1_555 1_555
H21 C19 1_555 1_555
C20 S2 1_555 1_555
C21 C20 1_555 1_555
H22 C21 1_555 1_555
C22 C21 1_555 1_555
H23 C22 1_555 1_555
C23 C22 1_555 1_555
C24 C23 1_555 1_555
H24 C24 1_555 1_555
C25 C20 1_555 1_555
H25 C25 1_555 1_555
C26 C23 1_555 1_555
H26 C26 1_555 1_555
H27 C26 1_555 1_555
H28 C26 1_555 1_555
C1 C6 1_555 1_555
C5 C6 1_555 1_555
C8 C9 1_555 1_555
C17 C18 1_555 1_555
C24 C25 1_555 1_555

#END
