
#######################################################################
#
#                 Cambridge Crystallographic Data Centre
#                                CCDC 
#
#######################################################################
#
# If this CIF has been generated from an entry in the Cambridge 
# Structural Database, then it will include bibliographic, chemical, 
# crystal, experimental, refinement or atomic coordinate data resulting 
# from the CCDC's data processing and validation procedures.
#
#######################################################################

data_CEMHUZ
_chemical_formula_moiety         'C31 H23 N1 O2'
_chemical_name_systematic        
2-Benzoyl-3-(1-benzyl-1H-indol-3-yl)-3-phenylacrylaldehyde
_symmetry_cell_setting           monoclinic
_symmetry_space_group_name_H-M   'P 21/c'
_symmetry_Int_Tables_number      14
_space_group_name_Hall           '-P 2ybc'
loop_
_symmetry_equiv_pos_site_id
_symmetry_equiv_pos_as_xyz
1 x,y,z
2 -x,1/2+y,1/2-z
3 -x,-y,-z
4 x,1/2-y,1/2+z
_cell_length_a                   11.0527(9)
_cell_length_b                   18.2393(14)
_cell_length_c                   11.3777(9)
_cell_angle_alpha                90
_cell_angle_beta                 92.4260(10)
_cell_angle_gamma                90
_cell_volume                     2291.61
_exptl_crystal_colour            yellow
_exptl_crystal_description       prismatic
_cell_formula_units_Z            4
loop_
_atom_site_label
_atom_site_type_symbol
_atom_site_fract_x
_atom_site_fract_y
_atom_site_fract_z
N1 N 0.16440(10) 0.05922(6) 0.54874(9)
O1 O 0.63286(10) -0.05075(6) 0.88424(11)
O2 O 0.56678(10) -0.00011(6) 0.63187(10)
C1 C 0.07093(12) 0.05145(7) 0.62489(11)
C2 C -0.04656(13) 0.07862(7) 0.61555(13)
H1 H -0.0729 0.1068 0.5513
C3 C -0.12202(13) 0.06241(8) 0.70416(15)
H2 H -0.2013 0.0796 0.6999
C4 C -0.08217(13) 0.02056(8) 0.80083(14)
H3 H -0.1354 0.0107 0.8600
C5 C 0.03378(12) -0.00650(7) 0.81066(12)
H4 H 0.0591 -0.0342 0.8758
C6 C 0.11340(11) 0.00833(6) 0.72079(11)
C7 C 0.23855(11) -0.00911(6) 0.69960(11)
C8 C 0.26287(12) 0.02303(7) 0.59355(11)
H5 H 0.3368 0.0202 0.5577
C9 C 0.15880(14) 0.10161(7) 0.44058(11)
H6 H 0.0877 0.0868 0.3936
H7 H 0.2294 0.0903 0.3961
C10 C 0.15373(12) 0.18349(7) 0.46010(11)
C11 C 0.10380(13) 0.22739(8) 0.37185(13)
H8 H 0.0712 0.2059 0.3035
C12 C 0.10159(15) 0.30277(9) 0.38343(15)
H9 H 0.0682 0.3316 0.3229
C13 C 0.14872(16) 0.33512(9) 0.48419(16)
H10 H 0.1471 0.3858 0.4924
C14 C 0.19825(16) 0.29221(9) 0.57280(14)
H11 H 0.2303 0.3140 0.6411
C15 C 0.20084(14) 0.21672(8) 0.56126(12)
H12 H 0.2345 0.1881 0.6219
C16 C 0.32329(11) -0.04835(6) 0.77815(10)
C17 C 0.44406(11) -0.03328(7) 0.78514(11)
C18 C 0.53065(12) -0.07191(7) 0.86291(13)
H13 H 0.5060 -0.1151 0.8980
C19 C 0.50370(12) 0.02232(8) 0.70894(12)
C20 C 0.49097(12) 0.10182(7) 0.73191(12)
C21 C 0.43325(13) 0.12816(8) 0.82901(12)
H14 H 0.3972 0.0956 0.8798
C22 C 0.42902(15) 0.20264(8) 0.85071(15)
H15 H 0.3909 0.2202 0.9164
C23 C 0.48147(17) 0.25067(9) 0.77481(18)
H16 H 0.4796 0.3008 0.7899
C24 C 0.53665(16) 0.22510(9) 0.67676(17)
H17 H 0.5705 0.2580 0.6251
C25 C 0.54194(14) 0.15140(9) 0.65503(15)
H18 H 0.5797 0.1344 0.5888
C26 C 0.27075(11) -0.10764(6) 0.85058(11)
C27 C 0.28709(13) -0.11057(8) 0.97204(12)
H19 H 0.3300 -0.0737 1.0118
C28 C 0.23955(16) -0.16845(9) 1.03429(14)
H20 H 0.2515 -0.1705 1.1156
C29 C 0.17515(15) -0.22251(9) 0.97651(16)
H21 H 0.1439 -0.2613 1.0186
C30 C 0.15651(14) -0.21963(8) 0.85656(16)
H22 H 0.1123 -0.2563 0.8176
C31 C 0.20317(13) -0.16248(7) 0.79385(13)
H23 H 0.1894 -0.1605 0.7127
loop_
_geom_bond_atom_site_label_1
_geom_bond_atom_site_label_2
_geom_bond_site_symmetry_1
_geom_bond_site_symmetry_2
N1 C1 1_555 1_555
O1 C18 1_555 1_555
O2 C19 1_555 1_555
C1 C2 1_555 1_555
C2 H1 1_555 1_555
C3 C2 1_555 1_555
H2 C3 1_555 1_555
C4 C3 1_555 1_555
H3 C4 1_555 1_555
C5 C4 1_555 1_555
H4 C5 1_555 1_555
C6 C1 1_555 1_555
C7 C6 1_555 1_555
C8 N1 1_555 1_555
H5 C8 1_555 1_555
C9 N1 1_555 1_555
H6 C9 1_555 1_555
H7 C9 1_555 1_555
C10 C9 1_555 1_555
C11 C10 1_555 1_555
H8 C11 1_555 1_555
C12 C11 1_555 1_555
H9 C12 1_555 1_555
C13 C12 1_555 1_555
H10 C13 1_555 1_555
C14 C13 1_555 1_555
H11 C14 1_555 1_555
C15 C10 1_555 1_555
H12 C15 1_555 1_555
C16 C7 1_555 1_555
C17 C16 1_555 1_555
C18 C17 1_555 1_555
H13 C18 1_555 1_555
C19 C17 1_555 1_555
C20 C19 1_555 1_555
C21 C20 1_555 1_555
H14 C21 1_555 1_555
C22 C21 1_555 1_555
H15 C22 1_555 1_555
C23 C22 1_555 1_555
H16 C23 1_555 1_555
C24 C23 1_555 1_555
H17 C24 1_555 1_555
C25 C20 1_555 1_555
H18 C25 1_555 1_555
C26 C16 1_555 1_555
C27 C26 1_555 1_555
H19 C27 1_555 1_555
C28 C27 1_555 1_555
H20 C28 1_555 1_555
C29 C28 1_555 1_555
H21 C29 1_555 1_555
C30 C29 1_555 1_555
H22 C30 1_555 1_555
C31 C26 1_555 1_555
H23 C31 1_555 1_555
C5 C6 1_555 1_555
C7 C8 1_555 1_555
C14 C15 1_555 1_555
C24 C25 1_555 1_555
C30 C31 1_555 1_555

#END
