
#######################################################################
#
#                 Cambridge Crystallographic Data Centre
#                                CCDC 
#
#######################################################################
#
# If this CIF has been generated from an entry in the Cambridge 
# Structural Database, then it will include bibliographic, chemical, 
# crystal, experimental, refinement or atomic coordinate data resulting 
# from the CCDC's data processing and validation procedures.
#
#######################################################################

data_CEMJAH
_chemical_formula_moiety         'C41 H34 N2 O3'
_chemical_name_systematic        
't-Butyl 3-benzoyl-1,2,4-triphenyl-1,2-dihydro-9H-\b-carboline-9-carboxylate'
_symmetry_cell_setting           triclinic
_symmetry_space_group_name_H-M   'P -1'
_symmetry_Int_Tables_number      2
_space_group_name_Hall           '-P 1'
loop_
_symmetry_equiv_pos_site_id
_symmetry_equiv_pos_as_xyz
1 x,y,z
2 -x,-y,-z
_cell_length_a                   10.6049(12)
_cell_length_b                   12.7109(14)
_cell_length_c                   13.5229(17)
_cell_angle_alpha                77.588(2)
_cell_angle_beta                 68.722(2)
_cell_angle_gamma                76.712(2)
_cell_volume                     1635.64
_exptl_crystal_colour            green
_exptl_crystal_description       prismatic
_cell_formula_units_Z            2
loop_
_atom_site_label
_atom_site_type_symbol
_atom_site_fract_x
_atom_site_fract_y
_atom_site_fract_z
N1 N 1.08222(16) 0.82951(13) 0.03877(13)
N2 N 0.77905(16) 0.70174(13) 0.22134(13)
O1 O 0.55335(18) 0.76818(14) 0.45855(14)
O2 O 1.11113(17) 0.70191(14) -0.06620(12)
O3 O 1.26353(15) 0.81530(12) -0.11043(12)
C1 C 1.0276(2) 0.93323(15) 0.17067(16)
C2 C 1.0386(2) 1.01686(16) 0.21733(18)
H1 H 0.9822 1.0274 0.2867
C3 C 1.1338(2) 1.08330(17) 0.1596(2)
H2 H 1.1428 1.1384 0.1909
C4 C 1.2169(3) 1.06996(17) 0.05538(19)
H3 H 1.2800 1.1167 0.0179
C5 C 1.2079(2) 0.98876(17) 0.00635(18)
H4 H 1.2625 0.9806 -0.0639
C6 C 1.1138(2) 0.91960(15) 0.06611(16)
C7 C 0.97629(19) 0.79037(15) 0.12690(15)
C8 C 0.9413(2) 0.84994(15) 0.20741(15)
C9 C 0.8368(2) 0.82065(16) 0.30955(16)
C10 C 0.7601(2) 0.74827(16) 0.31272(16)
C11 C 0.9184(2) 0.68983(16) 0.13895(16)
H5 H 0.9077 0.6873 0.0705
C12 C 1.0116(2) 0.58553(17) 0.16529(17)
C13 C 0.9965(3) 0.48765(19) 0.1471(2)
H6 H 0.9307 0.4863 0.1171
C14 C 1.0769(3) 0.3919(2) 0.1723(3)
H7 H 1.0656 0.3266 0.1587
C15 C 1.1716(3) 0.3915(2) 0.2167(3)
H8 H 1.2247 0.3262 0.2348
C16 C 1.1897(3) 0.4879(2) 0.2350(3)
H9 H 1.2554 0.4882 0.2654
C17 C 1.1107(2) 0.5844(2) 0.2086(2)
H10 H 1.1246 0.6498 0.2201
C18 C 0.6650(2) 0.71905(17) 0.18481(16)
C19 C 0.5557(2) 0.8028(2) 0.21409(19)
H11 H 0.5557 0.8491 0.2587
C20 C 0.4463(3) 0.8177(2) 0.1771(2)
H12 H 0.3729 0.8739 0.1975
C21 C 0.4446(3) 0.7507(3) 0.1106(3)
H13 H 0.3711 0.7614 0.0856
C22 C 0.5515(3) 0.6688(2) 0.0819(2)
H14 H 0.5510 0.6233 0.0367
C23 C 0.6604(2) 0.65175(19) 0.1184(2)
H15 H 0.7321 0.5943 0.0984
C24 C 0.6558(2) 0.70717(18) 0.41610(17)
C25 C 0.6834(2) 0.59238(19) 0.46627(17)
C26 C 0.5838(3) 0.5499(2) 0.55478(18)
H16 H 0.4990 0.5935 0.5813
C27 C 0.6075(3) 0.4442(2) 0.6046(2)
H17 H 0.5398 0.4174 0.6651
C28 C 0.7282(4) 0.3800(3) 0.5658(3)
H18 H 0.7435 0.3080 0.5979
C29 C 0.8282(4) 0.4206(3) 0.4793(3)
H19 H 0.9120 0.3760 0.4527
C30 C 0.8070(3) 0.5272(3) 0.4304(3)
H20 H 0.8773 0.5544 0.3728
C31 C 0.8249(2) 0.86597(16) 0.40636(16)
C32 C 0.9245(3) 0.8324(2) 0.4540(2)
H21 H 0.9986 0.7787 0.4277
C33 C 0.9150(3) 0.8784(3) 0.5414(2)
H22 H 0.9819 0.8544 0.5742
C34 C 0.8079(3) 0.9584(2) 0.5791(2)
H23 H 0.8025 0.9895 0.6371
C35 C 0.7094(3) 0.9929(2) 0.5326(2)
H24 H 0.6369 1.0481 0.5581
C36 C 0.7165(2) 0.94628(18) 0.44749(18)
H25 H 0.6472 0.9692 0.4170
C37 C 1.1514(2) 0.77517(18) -0.05047(17)
C38 C 1.3596(2) 0.7643(2) -0.20542(19)
C39 C 1.4703(3) 0.8338(3) -0.2471(3)
H26 H 1.4321 0.9078 -0.2677
H27 H 1.5412 0.8064 -0.3082
H28 H 1.5083 0.8314 -0.1920
C40 C 1.4152(3) 0.6481(2) -0.1686(2)
H29 H 1.4478 0.6465 -0.1107
H30 H 1.4895 0.6191 -0.2271
H31 H 1.3437 0.6046 -0.1447
C41 C 1.2872(3) 0.7734(3) -0.2858(2)
H32 H 1.2271 0.7202 -0.2616
H33 H 1.3540 0.7603 -0.3542
H34 H 1.2347 0.8453 -0.2925
loop_
_geom_bond_atom_site_label_1
_geom_bond_atom_site_label_2
_geom_bond_site_symmetry_1
_geom_bond_site_symmetry_2
N1 C6 1_555 1_555
N2 C10 1_555 1_555
O1 C24 1_555 1_555
O2 C37 1_555 1_555
O3 C37 1_555 1_555
C1 C2 1_555 1_555
C2 H1 1_555 1_555
C3 C2 1_555 1_555
H2 C3 1_555 1_555
C4 C3 1_555 1_555
H3 C4 1_555 1_555
C5 C4 1_555 1_555
H4 C5 1_555 1_555
C6 C1 1_555 1_555
C7 N1 1_555 1_555
C8 C1 1_555 1_555
C9 C8 1_555 1_555
C10 C9 1_555 1_555
C11 N2 1_555 1_555
H5 C11 1_555 1_555
C12 C11 1_555 1_555
C13 C12 1_555 1_555
H6 C13 1_555 1_555
C14 C13 1_555 1_555
H7 C14 1_555 1_555
C15 C14 1_555 1_555
H8 C15 1_555 1_555
C16 C15 1_555 1_555
H9 C16 1_555 1_555
C17 C12 1_555 1_555
H10 C17 1_555 1_555
C18 N2 1_555 1_555
C19 C18 1_555 1_555
H11 C19 1_555 1_555
C20 C19 1_555 1_555
H12 C20 1_555 1_555
C21 C20 1_555 1_555
H13 C21 1_555 1_555
C22 C21 1_555 1_555
H14 C22 1_555 1_555
C23 C18 1_555 1_555
H15 C23 1_555 1_555
C24 C10 1_555 1_555
C25 C24 1_555 1_555
C26 C25 1_555 1_555
H16 C26 1_555 1_555
C27 C26 1_555 1_555
H17 C27 1_555 1_555
C28 C27 1_555 1_555
H18 C28 1_555 1_555
C29 C28 1_555 1_555
H19 C29 1_555 1_555
C30 C25 1_555 1_555
H20 C30 1_555 1_555
C31 C9 1_555 1_555
C32 C31 1_555 1_555
H21 C32 1_555 1_555
C33 C32 1_555 1_555
H22 C33 1_555 1_555
C34 C33 1_555 1_555
H23 C34 1_555 1_555
C35 C34 1_555 1_555
H24 C35 1_555 1_555
C36 C31 1_555 1_555
H25 C36 1_555 1_555
C37 N1 1_555 1_555
C38 O3 1_555 1_555
C39 C38 1_555 1_555
H26 C39 1_555 1_555
H27 C39 1_555 1_555
H28 C39 1_555 1_555
C40 C38 1_555 1_555
H29 C40 1_555 1_555
H30 C40 1_555 1_555
H31 C40 1_555 1_555
C41 C38 1_555 1_555
H32 C41 1_555 1_555
H33 C41 1_555 1_555
H34 C41 1_555 1_555
C5 C6 1_555 1_555
C7 C8 1_555 1_555
C7 C11 1_555 1_555
C16 C17 1_555 1_555
C22 C23 1_555 1_555
C29 C30 1_555 1_555
C35 C36 1_555 1_555

#END
