
#######################################################################
#
#                 Cambridge Crystallographic Data Centre
#                                CCDC 
#
#######################################################################
#
# If this CIF has been generated from an entry in the Cambridge 
# Structural Database, then it will include bibliographic, chemical, 
# crystal, experimental, refinement or atomic coordinate data resulting 
# from the CCDC's data processing and validation procedures.
#
#######################################################################

data_CEMJOT04
_chemical_formula_moiety         'C11 H12 O4'
_chemical_name_systematic        '3-(3,4-dimethoxyphenyl)acrylic acid'
_symmetry_cell_setting           triclinic
_symmetry_space_group_name_H-M   'P -1'
_symmetry_Int_Tables_number      2
_space_group_name_Hall           '-P 1'
loop_
_symmetry_equiv_pos_site_id
_symmetry_equiv_pos_as_xyz
1 x,y,z
2 -x,-y,-z
_cell_length_a                   8.368(13)
_cell_length_b                   8.460(13)
_cell_length_c                   15.022(18)
_cell_angle_alpha                101.95(7)
_cell_angle_beta                 100.26(5)
_cell_angle_gamma                94.87(4)
_cell_volume                     1015.55
_exptl_crystal_colour            colorless
_exptl_crystal_description       Plate
_cell_formula_units_Z            4
loop_
_atom_site_label
_atom_site_type_symbol
_atom_site_fract_x
_atom_site_fract_y
_atom_site_fract_z
O1 O 1.0546(4) 1.0538(3) 0.2094(2)
O2 O 0.7584(4) 0.3236(4) 0.4711(2)
H1 H 0.7282 0.2562 0.4988
O3 O 0.6627(4) 0.4885(4) 0.5814(2)
O4 O 1.0998(4) 0.7546(4) 0.1546(2)
C1 C 0.7756(5) 0.6023(5) 0.4720(3)
H2 H 0.7495 0.7043 0.4975
C2 C 0.9070(5) 0.7170(5) 0.3567(3)
C3 C 0.9322(5) 0.9964(5) 0.3379(3)
H3 H 0.9172 1.1047 0.3580
C4 C 1.0299(5) 0.7875(5) 0.2320(3)
C5 C 0.8550(5) 0.5882(5) 0.4007(3)
H4 H 0.8795 0.4847 0.3768
C6 C 1.0032(5) 0.9502(5) 0.2617(3)
C7 C 1.1297(6) 0.5911(5) 0.1240(3)
H5 H 1.1801 0.5827 0.0709
H6 H 1.0279 0.5203 0.1075
H7 H 1.2012 0.5598 0.1731
C8 C 0.7291(5) 0.4664(5) 0.5107(3)
C9 C 1.0519(6) 1.2263(5) 0.2440(3)
H8 H 1.0865 1.2853 0.2012
H9 H 1.1246 1.2622 0.3034
H10 H 0.9427 1.2458 0.2504
C10 C 0.9828(5) 0.6735(5) 0.2803(3)
H11 H 1.0019 0.5661 0.2617
C11 C 0.8832(5) 0.8804(5) 0.3848(3)
H12 H 0.8340 0.9120 0.4354
O5 O 0.7407(4) 0.1969(4) 0.0226(2)
O6 O 0.4259(4) -0.2456(4) 0.3457(2)
H13 H 0.3963 -0.3114 0.3743
O7 O 0.6808(4) 0.4914(3) 0.0746(2)
O8 O 0.3206(4) -0.0800(4) 0.4522(2)
C12 C 0.6644(5) 0.2245(5) 0.0967(3)
C13 C 0.3896(5) -0.1025(5) 0.3828(3)
C14 C 0.5554(5) 0.4254(5) 0.2002(3)
H14 H 0.5326 0.5314 0.2189
C15 C 0.5112(5) 0.3079(5) 0.2482(3)
H15 H 0.4605 0.3369 0.2984
C16 C 0.6193(5) 0.1077(5) 0.1440(3)
H16 H 0.6397 0.0010 0.1246
C17 C 0.4972(5) 0.0194(5) 0.2672(3)
H17 H 0.5168 -0.0850 0.2411
C18 C 0.5431(5) 0.1490(5) 0.2208(3)
C19 C 0.6408(6) 0.6560(5) 0.0969(3)
H18 H 0.6869 0.7190 0.0592
H19 H 0.6850 0.7041 0.1613
H20 H 0.5240 0.6544 0.0850
C20 C 0.6319(5) 0.3868(5) 0.1257(3)
C21 C 0.4307(5) 0.0354(5) 0.3422(3)
H21 H 0.4094 0.1382 0.3700
C22 C 0.7841(5) 0.0353(5) -0.0070(3)
H22 H 0.8366 0.0317 -0.0591
H23 H 0.6870 -0.0422 -0.0247
H24 H 0.8576 0.0091 0.0431
loop_
_geom_bond_atom_site_label_1
_geom_bond_atom_site_label_2
_geom_bond_site_symmetry_1
_geom_bond_site_symmetry_2
O1 C6 1_555 1_555
O2 H1 1_555 1_555
O3 C8 1_555 1_555
O4 C4 1_555 1_555
C1 H2 1_555 1_555
C2 C5 1_555 1_555
C3 H3 1_555 1_555
C4 C6 1_555 1_555
C5 C1 1_555 1_555
H4 C5 1_555 1_555
C6 C3 1_555 1_555
C7 O4 1_555 1_555
H5 C7 1_555 1_555
H6 C7 1_555 1_555
H7 C7 1_555 1_555
C8 O2 1_555 1_555
C9 O1 1_555 1_555
H8 C9 1_555 1_555
H9 C9 1_555 1_555
H10 C9 1_555 1_555
C10 C2 1_555 1_555
H11 C10 1_555 1_555
C11 C2 1_555 1_555
H12 C11 1_555 1_555
O5 C12 1_555 1_555
O6 H13 1_555 1_555
O7 C19 1_555 1_555
O8 C13 1_555 1_555
C12 C16 1_555 1_555
C13 O6 1_555 1_555
C14 H14 1_555 1_555
C15 C14 1_555 1_555
H15 C15 1_555 1_555
C16 H16 1_555 1_555
C17 H17 1_555 1_555
C18 C15 1_555 1_555
C19 H18 1_555 1_555
H19 C19 1_555 1_555
H20 C19 1_555 1_555
C20 O7 1_555 1_555
C21 C13 1_555 1_555
H21 C21 1_555 1_555
C22 O5 1_555 1_555
H22 C22 1_555 1_555
H23 C22 1_555 1_555
H24 C22 1_555 1_555
C1 C8 1_555 1_555
C3 C11 1_555 1_555
C4 C10 1_555 1_555
C12 C20 1_555 1_555
C14 C20 1_555 1_555
C16 C18 1_555 1_555
C17 C18 1_555 1_555
C17 C21 1_555 1_555

#END
