
#######################################################################
#
#                 Cambridge Crystallographic Data Centre
#                                CCDC 
#
#######################################################################
#
# If this CIF has been generated from an entry in the Cambridge 
# Structural Database, then it will include bibliographic, chemical, 
# crystal, experimental, refinement or atomic coordinate data resulting 
# from the CCDC's data processing and validation procedures.
#
#######################################################################

data_CEMNAM
_chemical_formula_moiety         'C32 H10 F18 N2 S2,C6 H6'
_chemical_name_systematic        
"N,N'-[disulfanediylbis(ethane-2,1-diyl)]bis(1,3,4,5,6,7,8,9,10-nonafluoroanthracen-2-amine) benzene solvate"
_symmetry_cell_setting           triclinic
_symmetry_space_group_name_H-M   'P -1'
_symmetry_Int_Tables_number      2
_space_group_name_Hall           '-P 1'
loop_
_symmetry_equiv_pos_site_id
_symmetry_equiv_pos_as_xyz
1 x,y,z
2 -x,-y,-z
_cell_length_a                   7.3741(8)
_cell_length_b                   10.9238(12)
_cell_length_c                   11.1507(12)
_cell_angle_alpha                98.838(2)
_cell_angle_beta                 107.785(2)
_cell_angle_gamma                95.490(2)
_cell_volume                     835.38
_exptl_crystal_colour            yellow
_exptl_crystal_description       plate
_cell_formula_units_Z            1
_exptl_crystal_recrystallization_method benzene
loop_
_atom_site_label
_atom_site_type_symbol
_atom_site_fract_x
_atom_site_fract_y
_atom_site_fract_z
F1 F 0.6610(4) 0.2776(2) 0.7422(2)
F2 F 0.2563(4) 0.6626(2) 0.6404(2)
F3 F 0.4089(4) 0.7752(3) 0.8723(3)
F4 F 0.8243(4) 0.3927(3) 0.9726(2)
F5 F 0.4987(4) 0.1620(2) 0.5141(2)
C1 C 0.5906(6) 0.4748(4) 0.8158(4)
F6 F 0.0987(4) 0.5502(3) 0.4095(2)
C2 C 0.4820(6) 0.5760(4) 0.7894(4)
C3 C 0.4007(6) 0.2586(4) 0.4897(4)
F7 F 0.8668(4) 0.5955(3) 1.1540(2)
C4 C 0.3265(6) 0.4651(4) 0.5673(4)
C5 C 0.1977(6) 0.4559(5) 0.4402(4)
C6 C 0.5598(6) 0.3720(4) 0.7163(4)
F8 F 0.0521(4) 0.3509(3) 0.2293(2)
C7 C 0.4314(6) 0.3617(4) 0.5920(4)
C8 C 0.3562(6) 0.5674(4) 0.6664(4)
C9 C 0.7444(7) 0.5863(5) 1.0351(4)
C10 C 0.5108(6) 0.6798(4) 0.8913(4)
C11 C 0.7212(6) 0.4846(4) 0.9424(4)
F9 F 0.6560(4) 0.7809(3) 1.1058(3)
N1 N 0.2387(7) 0.1563(4) 0.2645(4)
H1 H 0.149(8) 0.169(5) 0.201(5)
C12 C 0.6356(7) 0.6846(5) 1.0087(5)
C13 C 0.1745(6) 0.3547(5) 0.3482(4)
C14 C 0.2742(7) 0.2509(4) 0.3683(4)
C15 C 0.3371(16) 0.0356(9) 0.2584(9)
H2 H 0.4788 0.0595 0.2937
H3 H 0.2973 -0.0193 0.3116
C16 C -0.2603(17) -0.0336(10) -0.2666(11)
H4 H -0.3922 -0.0219 -0.2676
H5 H -0.2437 -0.0118 -0.3460
S1 S 0.0353(4) -0.1102(2) 0.0487(2)
C17 C 0.2818(13) -0.0346(9) 0.1226(9)
H6 H 0.3666 -0.0993 0.1204
H7 H 0.3089 0.0247 0.0692
S2 S -0.1266(4) 0.0292(3) 0.0059(3)
C18 C -0.1138(15) 0.0538(9) -0.1499(9)
H8 H -0.1318 0.1414 -0.1572
H9 H 0.0171 0.0439 -0.1524
F1A F -0.6610(4) -0.2776(2) -0.7422(2)
F2A F -0.2563(4) -0.6626(2) -0.6404(2)
F3A F -0.4089(4) -0.7752(3) -0.8723(3)
F4A F -0.8243(4) -0.3927(3) -0.9726(2)
F5A F -0.4987(4) -0.1620(2) -0.5141(2)
C1A C -0.5906(6) -0.4748(4) -0.8158(4)
F6A F -0.0987(4) -0.5502(3) -0.4095(2)
C2A C -0.4820(6) -0.5760(4) -0.7894(4)
C3A C -0.4007(6) -0.2586(4) -0.4897(4)
F7A F -0.8668(4) -0.5955(3) -1.1540(2)
C4A C -0.3265(6) -0.4651(4) -0.5673(4)
C5A C -0.1977(6) -0.4559(5) -0.4402(4)
C6A C -0.5598(6) -0.3720(4) -0.7163(4)
F8A F -0.0521(4) -0.3509(3) -0.2293(2)
C7A C -0.4314(6) -0.3617(4) -0.5920(4)
C8A C -0.3562(6) -0.5674(4) -0.6664(4)
C9A C -0.7444(7) -0.5863(5) -1.0351(4)
C10A C -0.5108(6) -0.6798(4) -0.8913(4)
C11A C -0.7212(6) -0.4846(4) -0.9424(4)
F9A F -0.6560(4) -0.7809(3) -1.1058(3)
N1A N -0.2387(7) -0.1563(4) -0.2645(4)
H1A H -0.149(8) -0.169(5) -0.201(5)
C12A C -0.6356(7) -0.6846(5) -1.0087(5)
C13A C -0.1745(6) -0.3547(5) -0.3482(4)
C14A C -0.2742(7) -0.2509(4) -0.3683(4)
C15A C -0.3371(16) -0.0356(9) -0.2584(9)
H2A H -0.4788 -0.0595 -0.2937
H3A H -0.2973 0.0193 -0.3116
C16A C 0.2603(17) 0.0336(10) 0.2666(11)
H4A H 0.3922 0.0219 0.2676
H5A H 0.2437 0.0118 0.3460
S1A S -0.0353(4) 0.1102(2) -0.0487(2)
C17A C -0.2818(13) 0.0346(9) -0.1226(9)
H6A H -0.3666 0.0993 -0.1204
H7A H -0.3089 -0.0247 -0.0692
S2A S 0.1266(4) -0.0292(3) -0.0059(3)
C18A C 0.1138(15) -0.0538(9) 0.1499(9)
H8A H 0.1318 -0.1414 0.1572
H9A H -0.0171 -0.0439 0.1524
C19? C 0.140(3) 0.0575(17) 0.6128(15)
H10? H 0.2427 0.1006 0.6862
C20? C 0.0386(19) 0.0986(13) 0.6016(13)
H11? H 0.0712 0.1688 0.6702
C21? C 0.1282(18) -0.0649(15) 0.5735(15)
H12? H 0.2072 -0.1123 0.6270
C22? C 0.1053(19) -0.0045(15) 0.6224(14)
H13? H 0.1729 -0.0118 0.7078
C23? C 0.000(2) 0.1234(12) 0.5461(17)
H14? H -0.0073 0.2067 0.5822
C24? C -0.079(2) 0.1083(12) 0.4816(15)
H15? H -0.1395 0.1802 0.4680
loop_
_geom_bond_atom_site_label_1
_geom_bond_atom_site_label_2
_geom_bond_site_symmetry_1
_geom_bond_site_symmetry_2
F1 C6 1_555 1_555
F2 C8 1_555 1_555
F3 C10 1_555 1_555
F4 C11 1_555 1_555
F5 C3 1_555 1_555
C1 C2 1_555 1_555
F6 C5 1_555 1_555
C2 C8 1_555 1_555
C3 C7 1_555 1_555
F7 C9 1_555 1_555
C4 C5 1_555 1_555
C5 C13 1_555 1_555
C6 C1 1_555 1_555
F8 C13 1_555 1_555
C7 C4 1_555 1_555
C8 C4 1_555 1_555
C9 C11 1_555 1_555
C10 C2 1_555 1_555
C11 C1 1_555 1_555
F9 C12 1_555 1_555
N1 H1 1_555 1_555
C12 C9 1_555 1_555
C13 C14 1_555 1_555
C14 C3 1_555 1_555
C15 N1 1_555 1_555
H2 C15 1_555 1_555
H3 C15 1_555 1_555
C16 H4 1_555 1_555
H5 C16 1_555 1_555
S1 C17 1_555 1_555
C17 C15 1_555 1_555
H6 C17 1_555 1_555
H7 C17 1_555 1_555
S2 S1 1_555 1_555
C18 C16 1_555 1_555
H8 C18 1_555 1_555
H9 C18 1_555 1_555
F1A C6A 1_555 1_555
F2A C8A 1_555 1_555
F3A C10A 1_555 1_555
F4A C11A 1_555 1_555
F5A C3A 1_555 1_555
C1A C2A 1_555 1_555
F6A C5A 1_555 1_555
C2A C8A 1_555 1_555
C3A C7A 1_555 1_555
F7A C9A 1_555 1_555
C4A C5A 1_555 1_555
C5A C13A 1_555 1_555
C6A C1A 1_555 1_555
F8A C13A 1_555 1_555
C7A C4A 1_555 1_555
C8A C4A 1_555 1_555
C9A C11A 1_555 1_555
C10A C2A 1_555 1_555
C11A C1A 1_555 1_555
F9A C12A 1_555 1_555
N1A C16 1_555 1_555
H1A N1A 1_555 1_555
C12A C9A 1_555 1_555
C13A C14A 1_555 1_555
C14A C3A 1_555 1_555
C15A C16 1_555 1_555
H2A C15A 1_555 1_555
H3A C16 1_555 1_555
C16A N1 1_555 1_555
H4A C16A 1_555 1_555
H5A C16A 1_555 1_555
S1A S2 1_555 1_555
C17A S2 1_555 1_555
H6A C17A 1_555 1_555
H7A S2 1_555 1_555
S2A S1 1_555 1_555
C18A S1 1_555 1_555
H8A S1 1_555 1_555
H9A S1 1_555 1_555
C6 C7 1_555 1_555
C10 C12 1_555 1_555
N1 C14 1_555 1_555
C15 C16A 1_555 1_555
H3 C16A 1_555 1_555
C17 S2A 1_555 1_555
C17 C18A 1_555 1_555
H7 S2A 1_555 1_555
S2 C18 1_555 1_555
S2 S2A 1_555 1_555
C18 S1A 1_555 1_555
C18 C17A 1_555 1_555
H8 S1A 1_555 1_555
H9 S1A 1_555 1_555
C6A C7A 1_555 1_555
C10A C12A 1_555 1_555
N1A C14A 1_555 1_555
N1A C15A 1_555 1_555
C15A H3A 1_555 1_555
C15A C17A 1_555 1_555
C16A C18A 1_555 1_555
S1A C17A 1_555 1_555
S1A S2A 1_555 1_555
C17A H7A 1_555 1_555
S2A C18A 1_555 1_555
C18A H8A 1_555 1_555
C18A H9A 1_555 1_555

#END
