
#######################################################################
#
#                 Cambridge Crystallographic Data Centre
#                                CCDC 
#
#######################################################################
#
# If this CIF has been generated from an entry in the Cambridge 
# Structural Database, then it will include bibliographic, chemical, 
# crystal, experimental, refinement or atomic coordinate data resulting 
# from the CCDC's data processing and validation procedures.
#
#######################################################################

data_CEMQOA01
_chemical_formula_moiety         '2(C10 H12 O2),C10 H12 O2'
_chemical_name_systematic        trans-1,4-Diethynylcyclohexane-1,4-diol
_symmetry_cell_setting           triclinic
_symmetry_space_group_name_H-M   'P -1'
_symmetry_Int_Tables_number      2
_space_group_name_Hall           '-P 1'
loop_
_symmetry_equiv_pos_site_id
_symmetry_equiv_pos_as_xyz
1 x,y,z
2 -x,-y,-z
_cell_length_a                   6.2074(3)
_cell_length_b                   10.0187(5)
_cell_length_c                   11.5666(5)
_cell_angle_alpha                103.005(2)
_cell_angle_beta                 93.424(2)
_cell_angle_gamma                94.572(2)
_cell_volume                     696.41
_exptl_crystal_colour            colorless
_exptl_crystal_description       block
_cell_formula_units_Z            1
loop_
_atom_site_label
_atom_site_type_symbol
_atom_site_fract_x
_atom_site_fract_y
_atom_site_fract_z
O1 O -0.34099(13) 0.14331(9) 0.66737(7)
H1 H -0.425(3) 0.1881(17) 0.7153(15)
H2 H -0.270(4) 0.488(2) 0.4972(19)
C1 C -0.3042(3) 0.39705(16) 0.51173(14)
C2 C -0.35463(19) 0.28609(13) 0.52808(11)
C3 C -0.41074(17) 0.14627(11) 0.54678(9)
C4 C -0.65652(17) 0.10455(12) 0.52329(10)
H3 H -0.735(2) 0.1692(15) 0.5820(13)
H4 H -0.697(2) 0.1126(14) 0.4429(13)
C5 C -0.28666(18) 0.04250(12) 0.46394(10)
H5 H -0.130(3) 0.0737(16) 0.4817(14)
H6 H -0.322(2) 0.0499(14) 0.3819(13)
C5A C -0.71334(18) -0.04250(12) 0.53606(10)
C3A C -0.58926(17) -0.14627(11) 0.45322(9)
O1A O -0.65901(13) -0.14331(9) 0.33263(7)
H1A H -0.575(3) -0.1881(17) 0.2847(15)
C2A C -0.64537(19) -0.28609(13) 0.47192(11)
C1A C -0.6958(3) -0.39705(16) 0.48827(14)
H2A H -0.730(4) -0.488(2) 0.5028(19)
C4A C -0.34348(17) -0.10455(12) 0.47671(10)
H3A H -0.265(2) -0.1692(15) 0.4180(13)
H4A H -0.303(2) -0.1126(14) 0.5571(13)
H5A H -0.870(3) -0.0737(16) 0.5183(14)
H6A H -0.678(2) -0.0499(14) 0.6181(13)
O2 O 0.38323(14) 0.26651(8) 0.81728(7)
H7 H 0.250(3) 0.2235(17) 0.8136(15)
H8 H 0.089(3) 0.623(2) 0.7444(18)
C6 C 0.1733(2) 0.56502(16) 0.78017(13)
C7 C 0.27363(19) 0.49228(12) 0.82643(10)
C8 C 0.39881(16) 0.40439(11) 0.88804(9)
C9 C 0.64147(17) 0.45466(11) 0.90316(10)
H9 H 0.694(2) 0.4572(15) 0.8264(13)
H10 H 0.717(2) 0.3843(15) 0.9350(12)
C10 C 0.31344(17) 0.40466(11) 1.01018(9)
H11 H 0.389(2) 0.3325(15) 1.0431(13)
H12 H 0.155(3) 0.3779(15) 0.9991(13)
C10A C 0.68656(17) 0.59534(11) 0.98982(9)
C8A C 0.60119(16) 0.59561(11) 1.11196(9)
O2A O 0.61677(14) 0.73349(8) 1.18272(7)
H7A H 0.750(3) 0.7765(17) 1.1864(15)
C7A C 0.72637(19) 0.50772(12) 1.17357(10)
C6A C 0.8267(2) 0.43498(16) 1.21983(13)
H8A H 0.911(3) 0.377(2) 1.2556(18)
C9A C 0.35853(17) 0.54534(11) 1.09684(10)
H9A H 0.306(2) 0.5428(15) 1.1736(13)
H10A H 0.283(2) 0.6157(15) 1.0650(12)
H11A H 0.611(2) 0.6675(15) 0.9569(13)
H12A H 0.845(3) 0.6221(15) 1.0009(13)
O3 O 0.01627(13) 0.09703(8) 0.79038(7)
H13 H -0.100(3) 0.1066(18) 0.7492(16)
H14 H -0.383(3) -0.293(2) 0.7199(18)
C11 C -0.2870(2) -0.21280(13) 0.76288(11)
C12 C -0.17092(17) -0.11307(11) 0.81121(9)
C13 C -0.03472(16) 0.01416(10) 0.87363(9)
C14 C -0.15573(16) 0.09509(11) 0.97517(9)
H15 H -0.299(2) 0.1122(14) 0.9425(12)
H16 H -0.070(2) 0.1857(14) 1.0077(12)
C15 C 0.18398(16) -0.01978(11) 0.92444(9)
H17 H 0.260(2) -0.0728(14) 0.8594(12)
H18 H 0.274(2) 0.0702(14) 0.9534(12)
C15A C -0.18398(16) 0.01978(11) 1.07556(9)
C13A C 0.03472(16) -0.01416(10) 1.12637(9)
O3A O -0.01627(13) -0.09703(8) 1.20962(7)
H13A H 0.100(3) -0.1066(18) 1.2508(16)
C12A C 0.17092(17) 0.11307(11) 1.18879(9)
C11A C 0.2870(2) 0.21280(13) 1.23712(11)
H14A H 0.383(3) 0.293(2) 1.2801(18)
C14A C 0.15573(16) -0.09509(11) 1.02483(9)
H15A H 0.299(2) -0.1122(14) 1.0575(12)
H16A H 0.070(2) -0.1857(14) 0.9923(12)
H17A H -0.260(2) 0.0728(14) 1.1406(12)
H18A H -0.274(2) -0.0702(14) 1.0466(12)
loop_
_geom_bond_atom_site_label_1
_geom_bond_atom_site_label_2
_geom_bond_site_symmetry_1
_geom_bond_site_symmetry_2
O1 H1 1_555 1_555
H2 C1 1_555 1_555
C1 C2 1_555 1_555
C2 C3 1_555 1_555
C3 O1 1_555 1_555
C4 C3 1_555 1_555
H3 C4 1_555 1_555
H4 C4 1_555 1_555
C5 C3 1_555 1_555
H5 C5 1_555 1_555
H6 C5 1_555 1_555
O2 H7 1_555 1_555
H8 C6 1_555 1_555
C6 C7 1_555 1_555
C7 C8 1_555 1_555
C8 O2 1_555 1_555
C9 C8 1_555 1_555
H9 C9 1_555 1_555
H10 C9 1_555 1_555
C10 C8 1_555 1_555
H11 C10 1_555 1_555
H12 C10 1_555 1_555
O3 H13 1_555 1_555
H14 C11 1_555 1_555
C11 C12 1_555 1_555
C12 C13 1_555 1_555
C13 O3 1_555 1_555
C14 C13 1_555 1_555
H15 C14 1_555 1_555
H16 C14 1_555 1_555
C15 C13 1_555 1_555
H17 C15 1_555 1_555
H18 C15 1_555 1_555
C5A C4 1_555 1_555
C3A C5A 1_555 1_555
O1A C3A 1_555 1_555
H1A O1A 1_555 1_555
C2A C3A 1_555 1_555
C1A C2A 1_555 1_555
H2A C1A 1_555 1_555
C4A C5 1_555 1_555
H3A C4A 1_555 1_555
H4A C4A 1_555 1_555
H5A C5A 1_555 1_555
H6A C5A 1_555 1_555
C10A C9 1_555 1_555
C8A C10A 1_555 1_555
O2A C8A 1_555 1_555
H7A O2A 1_555 1_555
C7A C8A 1_555 1_555
C6A C7A 1_555 1_555
H8A C6A 1_555 1_555
C9A C10 1_555 1_555
H9A C9A 1_555 1_555
H10A C9A 1_555 1_555
H11A C10A 1_555 1_555
H12A C10A 1_555 1_555
C15A C14 1_555 1_555
C13A C15A 1_555 1_555
O3A C13A 1_555 1_555
H13A O3A 1_555 1_555
C12A C13A 1_555 1_555
C11A C12A 1_555 1_555
H14A C11A 1_555 1_555
C14A C15 1_555 1_555
H15A C14A 1_555 1_555
H16A C14A 1_555 1_555
H17A C15A 1_555 1_555
H18A C15A 1_555 1_555
C3A C4A 1_555 1_555
C8A C9A 1_555 1_555
C13A C14A 1_555 1_555

#END
