
#######################################################################
#
#                 Cambridge Crystallographic Data Centre
#                                CCDC 
#
#######################################################################
#
# If this CIF has been generated from an entry in the Cambridge 
# Structural Database, then it will include bibliographic, chemical, 
# crystal, experimental, refinement or atomic coordinate data resulting 
# from the CCDC's data processing and validation procedures.
#
#######################################################################

data_CEMQOA
_chemical_formula_moiety         'C10 H12 O2,2(C10 H12 O2)'
_chemical_name_systematic        trans-1,4-Diethynylcyclohexane-1,4-diol
_symmetry_cell_setting           triclinic
_symmetry_space_group_name_H-M   'P -1'
_symmetry_Int_Tables_number      2
_space_group_name_Hall           '-P 1'
loop_
_symmetry_equiv_pos_site_id
_symmetry_equiv_pos_as_xyz
1 x,y,z
2 -x,-y,-z
_cell_length_a                   6.4140(2)
_cell_length_b                   9.6367(3)
_cell_length_c                   11.7852(4)
_cell_angle_alpha                105.689(2)
_cell_angle_beta                 101.838(1)
_cell_angle_gamma                94.736(1)
_cell_volume                     678.981
_exptl_crystal_colour            colorless
_exptl_crystal_description       block
_cell_formula_units_Z            1
loop_
_atom_site_label
_atom_site_type_symbol
_atom_site_fract_x
_atom_site_fract_y
_atom_site_fract_z
O1 O 1.12386(19) 0.68578(12) 0.67689(11)
H1 H 1.047(4) 0.734(2) 0.721(2)
C1 C 0.9697(3) 0.4381(2) 0.81993(18)
H2 H 0.940(4) 0.404(3) 0.885(3)
C2 C 0.9983(3) 0.48304(17) 0.73940(15)
C3 C 1.0257(2) 0.53514(16) 0.63476(14)
C4 C 1.1787(3) 0.44656(17) 0.56924(15)
C5 C 0.8038(2) 0.51740(17) 0.54753(14)
H3 H 0.736(3) 0.416(2) 0.5271(17)
H4 H 0.714(3) 0.5831(18) 0.5906(16)
H5 H 1.124(3) 0.3390(19) 0.5508(16)
H6 H 1.322(3) 0.466(2) 0.6253(18)
C5A C 1.1962(2) 0.48260(17) 0.45247(14)
C3A C 0.9743(2) 0.46486(16) 0.36524(14)
O1A O 0.87614(19) 0.31422(12) 0.32311(11)
H1A H 0.953(4) 0.266(2) 0.279(2)
C2A C 1.0017(3) 0.51696(17) 0.26060(15)
C1A C 1.0303(3) 0.5619(2) 0.18007(18)
H2A H 1.060(4) 0.596(3) 0.115(3)
C4A C 0.8213(3) 0.55344(17) 0.43076(15)
H5A H 0.876(3) 0.6610(19) 0.4492(16)
H6A H 0.678(3) 0.534(2) 0.3747(18)
H3A H 1.264(3) 0.584(2) 0.4729(17)
H4A H 1.286(3) 0.4169(18) 0.4094(16)
O2 O 0.87712(19) 0.84379(12) 0.81177(10)
H7 H 0.751(4) 0.835(2) 0.762(2)
C6 C 0.5431(3) 0.6511(2) 0.92444(18)
H8 H 0.430(4) 0.574(3) 0.916(2)
C7 C 0.6809(3) 0.74489(18) 0.93037(15)
C8 C 0.8453(2) 0.86397(17) 0.93266(13)
C9 C 0.7688(2) 1.01199(17) 0.97783(14)
C10 C 1.0638(3) 0.86054(17) 1.01383(14)
H9 H 0.634(3) 1.0140(19) 0.9218(17)
H10 H 1.041(3) 0.867(2) 1.0970(18)
H11 H 1.114(3) 0.764(2) 0.9802(17)
H12 H 0.739(3) 1.022(2) 1.0598(18)
C10A C 0.9362(3) 1.13946(17) 0.98617(14)
C8A C 1.1547(2) 1.13603(17) 1.06734(13)
O2A O 1.12288(19) 1.15621(12) 1.18823(10)
H7A H 1.249(4) 1.165(2) 1.238(2)
C7A C 1.3191(3) 1.25511(18) 1.06963(15)
C6A C 1.4569(3) 1.3489(2) 1.07556(18)
H8A H 1.570(4) 1.426(3) 1.084(2)
C9A C 1.2312(2) 0.98801(17) 1.02217(14)
H9A H 1.366(3) 0.9860(19) 1.0782(17)
H12A H 1.261(3) 0.978(2) 0.9402(18)
H10A H 0.959(3) 1.133(2) 0.9030(18)
H11A H 0.886(3) 1.236(2) 1.0198(17)
O3 O 0.49787(19) 0.82035(12) 0.65189(10)
H13 H 0.378(4) 0.782(3) 0.661(2)
C11 C 0.3243(4) 1.1533(2) 0.7464(2)
H14 H 0.277(5) 1.233(3) 0.795(3)
C12 C 0.3903(3) 1.05744(19) 0.68329(15)
C13 C 0.4707(2) 0.93995(16) 0.60130(14)
C14 C 0.3142(3) 0.88773(17) 0.47544(15)
C15 C 0.6951(2) 0.99377(18) 0.58873(15)
H15 H 0.796(3) 1.033(2) 0.6708(18)
H16 H 0.367(3) 0.799(2) 0.4267(18)
H17 H 0.170(3) 0.857(2) 0.4859(18)
H18 H 0.750(3) 0.906(2) 0.5420(18)
C15A C 0.3049(2) 1.00623(18) 0.41127(15)
C13A C 0.5293(2) 1.06005(16) 0.39870(14)
O3A O 0.50213(19) 1.17965(12) 0.34811(10)
H13A H 0.622(4) 1.218(3) 0.339(2)
C12A C 0.6097(3) 0.94256(19) 0.31671(15)
C11A C 0.6757(4) 0.8467(2) 0.2536(2)
H14A H 0.723(5) 0.767(3) 0.205(3)
C14A C 0.6858(3) 1.11227(17) 0.52456(15)
H16A H 0.633(3) 1.201(2) 0.5733(18)
H17A H 0.830(3) 1.143(2) 0.5141(18)
H15A H 0.204(3) 0.967(2) 0.3292(18)
H18A H 0.250(3) 1.094(2) 0.4580(18)
loop_
_geom_bond_atom_site_label_1
_geom_bond_atom_site_label_2
_geom_bond_site_symmetry_1
_geom_bond_site_symmetry_2
O1 H1 1_555 1_555
C1 H2 1_555 1_555
C2 C1 1_555 1_555
C3 O1 1_555 1_555
C4 C3 1_555 1_555
C5 C3 1_555 1_555
H3 C5 1_555 1_555
H4 C5 1_555 1_555
H5 C4 1_555 1_555
H6 C4 1_555 1_555
O2 H7 1_555 1_555
C6 H8 1_555 1_555
C7 C6 1_555 1_555
C8 O2 1_555 1_555
C9 C8 1_555 1_555
C10 C8 1_555 1_555
H9 C9 1_555 1_555
H10 C10 1_555 1_555
H11 C10 1_555 1_555
H12 C9 1_555 1_555
O3 H13 1_555 1_555
C11 H14 1_555 1_555
C12 C11 1_555 1_555
C13 O3 1_555 1_555
C14 C13 1_555 1_555
C15 C13 1_555 1_555
H15 C15 1_555 1_555
H16 C14 1_555 1_555
H17 C14 1_555 1_555
H18 C15 1_555 1_555
C5A C4 1_555 1_555
C3A C5A 1_555 1_555
O1A C3A 1_555 1_555
H1A O1A 1_555 1_555
C2A C3A 1_555 1_555
C1A C2A 1_555 1_555
H2A C1A 1_555 1_555
C4A C5 1_555 1_555
H5A C4A 1_555 1_555
H6A C4A 1_555 1_555
H3A C5A 1_555 1_555
H4A C5A 1_555 1_555
C10A C9 1_555 1_555
C8A C10A 1_555 1_555
O2A C8A 1_555 1_555
H7A O2A 1_555 1_555
C7A C8A 1_555 1_555
C6A C7A 1_555 1_555
H8A C6A 1_555 1_555
C9A C10 1_555 1_555
H9A C9A 1_555 1_555
H12A C9A 1_555 1_555
H10A C10A 1_555 1_555
H11A C10A 1_555 1_555
C15A C14 1_555 1_555
C13A C15A 1_555 1_555
O3A C13A 1_555 1_555
H13A O3A 1_555 1_555
C12A C13A 1_555 1_555
C11A C12A 1_555 1_555
H14A C11A 1_555 1_555
C14A C15 1_555 1_555
H16A C14A 1_555 1_555
H17A C14A 1_555 1_555
H15A C15A 1_555 1_555
H18A C15A 1_555 1_555
C2 C3 1_555 1_555
C7 C8 1_555 1_555
C12 C13 1_555 1_555
C3A C4A 1_555 1_555
C8A C9A 1_555 1_555
C13A C14A 1_555 1_555

#END
