
#######################################################################
#
#                 Cambridge Crystallographic Data Centre
#                                CCDC 
#
#######################################################################
#
# If this CIF has been generated from an entry in the Cambridge 
# Structural Database, then it will include bibliographic, chemical, 
# crystal, experimental, refinement or atomic coordinate data resulting 
# from the CCDC's data processing and validation procedures.
#
#######################################################################

data_CEMXEY
_chemical_formula_moiety         'C18 H21 N7,2(H2 O1)'
_chemical_name_systematic        
'tris((1-vinylimidazol-2-yl)methyl)amine dihydrate'
_symmetry_cell_setting           triclinic
_symmetry_space_group_name_H-M   'P -1'
_symmetry_Int_Tables_number      2
_space_group_name_Hall           '-P 1'
loop_
_symmetry_equiv_pos_site_id
_symmetry_equiv_pos_as_xyz
1 x,y,z
2 -x,-y,-z
_cell_length_a                   8.7133(17)
_cell_length_b                   10.2885(18)
_cell_length_c                   12.011(2)
_cell_angle_alpha                94.105(15)
_cell_angle_beta                 94.136(17)
_cell_angle_gamma                103.709(16)
_cell_volume                     1038.97
_exptl_crystal_colour            colorless
_exptl_crystal_description       prismatic
_cell_formula_units_Z            2
loop_
_atom_site_label
_atom_site_type_symbol
_atom_site_fract_x
_atom_site_fract_y
_atom_site_fract_z
N1 N 0.0616(2) 0.31693(16) 0.20434(14)
N2 N 0.2267(3) 0.13171(19) 0.02765(17)
N3 N 0.2978(2) 0.12187(17) 0.21059(16)
N4 N -0.0915(2) 0.18649(18) 0.43622(16)
N5 N 0.1040(2) 0.37412(17) 0.47094(15)
N6 N 0.1218(2) 0.65319(18) 0.17521(17)
N7 N 0.3409(2) 0.57331(19) 0.17308(17)
C1 C 0.0287(3) 0.1721(2) 0.16133(19)
H1 H -0.0487 0.1541 0.0942
H2 H -0.0176 0.1150 0.2193
C2 C 0.1813(3) 0.1389(2) 0.1317(2)
C3 C 0.3798(3) 0.1088(2) 0.0414(2)
H3 H 0.4433 0.0993 -0.0183
C4 C 0.4252(3) 0.1018(2) 0.1516(2)
H4 H 0.5224 0.0866 0.1821
C5 C 0.2892(3) 0.1254(2) 0.3297(2)
H5 H 0.2035 0.1550 0.3588
C6 C 0.3905(3) 0.0909(2) 0.4023(2)
H6 H 0.4779 0.0607 0.3768
H7 H 0.3759 0.0963 0.4800
C7 C -0.0569(3) 0.3422(2) 0.28163(19)
H8 H -0.1644 0.2909 0.2510
H9 H -0.0558 0.4389 0.2875
C8 C -0.0196(3) 0.3010(2) 0.39570(19)
C9 C -0.0120(3) 0.1868(2) 0.5414(2)
H10 H -0.0376 0.1178 0.5903
C10 C 0.1089(3) 0.3014(2) 0.5642(2)
H11 H 0.1807 0.3258 0.6299
C11 C 0.2083(3) 0.5011(2) 0.4542(2)
H12 H 0.1839 0.5440 0.3901
C12 C 0.3360(3) 0.5625(3) 0.5218(2)
H13 H 0.3641 0.5226 0.5867
H14 H 0.3993 0.6463 0.5053
C13 C 0.0750(3) 0.4066(2) 0.11145(18)
H15 H -0.0321 0.4135 0.0832
H16 H 0.1228 0.3676 0.0489
C14 C 0.1763(3) 0.5450(2) 0.15180(19)
C15 C 0.2563(4) 0.7554(3) 0.2145(2)
H17 H 0.2543 0.8450 0.2384
C16 C 0.3886(4) 0.7093(3) 0.2137(2)
H18 H 0.4940 0.7593 0.2364
C17 C 0.4365(3) 0.4804(3) 0.1576(2)
H19 H 0.3846 0.3875 0.1482
C18 C 0.5929(4) 0.5135(4) 0.1554(3)
H20 H 0.6490 0.6054 0.1645
H21 H 0.6488 0.4454 0.1446
O1 O -0.3026(2) -0.03609(18) 0.30037(15)
H22 H -0.237(3) 0.035(2) 0.352(2)
H23 H -0.236(3) -0.092(2) 0.275(2)
O2 O 0.1083(3) 0.17940(19) -0.18665(15)
H24 H 0.047(3) 0.244(3) -0.183(3)
H25 H 0.147(4) 0.169(3) -0.1102(17)
loop_
_geom_bond_atom_site_label_1
_geom_bond_atom_site_label_2
_geom_bond_site_symmetry_1
_geom_bond_site_symmetry_2
N1 C1 1_555 1_555
N2 C2 1_555 1_555
N3 C2 1_555 1_555
N4 C8 1_555 1_555
N5 C8 1_555 1_555
N6 C14 1_555 1_555
N7 C14 1_555 1_555
C1 H1 1_555 1_555
H2 C1 1_555 1_555
C2 C1 1_555 1_555
C3 N2 1_555 1_555
H3 C3 1_555 1_555
C4 N3 1_555 1_555
H4 C4 1_555 1_555
C5 N3 1_555 1_555
H5 C5 1_555 1_555
C6 C5 1_555 1_555
H6 C6 1_555 1_555
H7 C6 1_555 1_555
C7 N1 1_555 1_555
H8 C7 1_555 1_555
H9 C7 1_555 1_555
C8 C7 1_555 1_555
C9 N4 1_555 1_555
H10 C9 1_555 1_555
C10 N5 1_555 1_555
H11 C10 1_555 1_555
C11 N5 1_555 1_555
H12 C11 1_555 1_555
C12 C11 1_555 1_555
H13 C12 1_555 1_555
H14 C12 1_555 1_555
C13 N1 1_555 1_555
H15 C13 1_555 1_555
H16 C13 1_555 1_555
C14 C13 1_555 1_555
C15 N6 1_555 1_555
H17 C15 1_555 1_555
C16 N7 1_555 1_555
H18 C16 1_555 1_555
C17 N7 1_555 1_555
H19 C17 1_555 1_555
C18 C17 1_555 1_555
H20 C18 1_555 1_555
H21 C18 1_555 1_555
O1 H22 1_555 1_555
H23 O1 1_555 1_555
O2 H24 1_555 1_555
H25 O2 1_555 1_555
C3 C4 1_555 1_555
C9 C10 1_555 1_555
C15 C16 1_555 1_555

#END
