
#######################################################################
#
#                 Cambridge Crystallographic Data Centre
#                                CCDC 
#
#######################################################################
#
# If this CIF has been generated from an entry in the Cambridge 
# Structural Database, then it will include bibliographic, chemical, 
# crystal, experimental, refinement or atomic coordinate data resulting 
# from the CCDC's data processing and validation procedures.
#
#######################################################################

data_CEMYOJ
_chemical_formula_moiety         'C18 H16 N4 O2'
_chemical_name_systematic        
3-(1-benzyl-1,2,3-triazolyl)-5-phenyl-1,3-oxazol-2-one
_symmetry_cell_setting           orthorhombic
_symmetry_space_group_name_H-M   'P 21 21 21'
_symmetry_Int_Tables_number      19
_space_group_name_Hall           'P 2ac 2ab'
loop_
_symmetry_equiv_pos_site_id
_symmetry_equiv_pos_as_xyz
1 x,y,z
2 1/2-x,-y,1/2+z
3 -x,1/2+y,1/2-z
4 1/2+x,1/2-y,-z
_cell_length_a                   8.7353(7)
_cell_length_b                   9.8100(8)
_cell_length_c                   18.0556(14)
_cell_angle_alpha                90
_cell_angle_beta                 90
_cell_angle_gamma                90
_cell_volume                     1547.24
_exptl_crystal_colour            colorless
_exptl_crystal_description       plate
_cell_formula_units_Z            4
loop_
_atom_site_label
_atom_site_type_symbol
_atom_site_fract_x
_atom_site_fract_y
_atom_site_fract_z
O1 O 0.6857(2) 0.61426(18) 0.30870(10)
O2 O 0.5711(2) 0.4216(2) 0.26862(9)
N1 N 0.6989(2) 0.41319(18) 0.37390(10)
N2 N 0.8046(3) 0.37933(19) 0.49393(11)
N3 N 0.8832(3) 0.4497(2) 0.54397(12)
N4 N 0.9067(2) 0.57331(19) 0.51555(13)
C1 C 0.6553(3) 0.4957(3) 0.31690(13)
C2 C 0.5300(3) 0.2943(3) 0.30314(15)
H1 H 0.5323 0.2189 0.2667
H2 H 0.4262 0.2996 0.3249
C3 C 0.6507(3) 0.2720(2) 0.36365(12)
H3 H 0.6001 0.2382 0.4098
C4 C 0.7788(3) 0.1760(2) 0.34187(12)
C5 C 0.9306(3) 0.2150(2) 0.33740(13)
H4 H 0.9577 0.3073 0.3462
C6 C 1.0433(3) 0.1214(3) 0.32024(15)
H5 H 1.1473 0.1494 0.3179
C7 C 1.0048(3) -0.0128(3) 0.30654(14)
H6 H 1.0825 -0.0772 0.2951
C8 C 0.8538(4) -0.0533(3) 0.30951(13)
H7 H 0.8269 -0.1453 0.2996
C9 C 0.7414(3) 0.0412(2) 0.32706(13)
H8 H 0.6373 0.0133 0.3290
C10 C 0.7805(2) 0.4611(2) 0.43506(12)
C11 C 0.8445(3) 0.5857(2) 0.44733(13)
H9 H 0.8453 0.6629 0.4155
C12 C 0.9931(4) 0.6762(3) 0.55727(19)
H10 H 1.0926 0.6924 0.5326
H11 H 1.0139 0.6415 0.6078
C13 C 0.9069(3) 0.8075(2) 0.56239(12)
C14 C 0.7916(3) 0.8243(3) 0.61497(14)
H12 H 0.7677 0.7526 0.6484
C15 C 0.7110(3) 0.9482(4) 0.61821(16)
H13 H 0.6319 0.9604 0.6537
C16 C 0.7467(4) 1.0512(3) 0.57021(18)
H14 H 0.6916 1.1346 0.5722
C17 C 0.8586(4) 1.0349(3) 0.52051(16)
H15 H 0.8834 1.1077 0.4879
C18 C 0.9377(3) 0.9151(2) 0.51588(13)
H16 H 1.0159 0.9059 0.4797
loop_
_geom_bond_atom_site_label_1
_geom_bond_atom_site_label_2
_geom_bond_site_symmetry_1
_geom_bond_site_symmetry_2
O1 C1 1_555 1_555
O2 C1 1_555 1_555
N1 C1 1_555 1_555
N2 N3 1_555 1_555
N3 N4 1_555 1_555
N4 C11 1_555 1_555
C2 O2 1_555 1_555
H1 C2 1_555 1_555
H2 C2 1_555 1_555
C3 N1 1_555 1_555
H3 C3 1_555 1_555
C4 C3 1_555 1_555
C5 C4 1_555 1_555
H4 C5 1_555 1_555
C6 C5 1_555 1_555
H5 C6 1_555 1_555
C7 C6 1_555 1_555
H6 C7 1_555 1_555
C8 C7 1_555 1_555
H7 C8 1_555 1_555
C9 C4 1_555 1_555
H8 C9 1_555 1_555
C10 N1 1_555 1_555
C11 C10 1_555 1_555
H9 C11 1_555 1_555
C12 N4 1_555 1_555
H10 C12 1_555 1_555
H11 C12 1_555 1_555
C13 C12 1_555 1_555
C14 C13 1_555 1_555
H12 C14 1_555 1_555
C15 C14 1_555 1_555
H13 C15 1_555 1_555
C16 C15 1_555 1_555
H14 C16 1_555 1_555
C17 C16 1_555 1_555
H15 C17 1_555 1_555
C18 C13 1_555 1_555
H16 C18 1_555 1_555
N2 C10 1_555 1_555
C2 C3 1_555 1_555
C8 C9 1_555 1_555
C17 C18 1_555 1_555

#END
