
#######################################################################
#
#                 Cambridge Crystallographic Data Centre
#                                CCDC 
#
#######################################################################
#
# If this CIF has been generated from an entry in the Cambridge 
# Structural Database, then it will include bibliographic, chemical, 
# crystal, experimental, refinement or atomic coordinate data resulting 
# from the CCDC's data processing and validation procedures.
#
#######################################################################

data_CENBUS
_chemical_formula_moiety         'C2 H12 B9 1-,C6 H20 N4 P1 1+'
_chemical_name_systematic        
'tris(Dimethylamino)phosphiniminium 7,8-dicarba-nido-undecaborane(12)'
_symmetry_cell_setting           monoclinic
_symmetry_space_group_name_H-M   'P 21/n'
_symmetry_Int_Tables_number      14
_space_group_name_Hall           '-P 2yn'
loop_
_symmetry_equiv_pos_site_id
_symmetry_equiv_pos_as_xyz
1 x,y,z
2 1/2-x,1/2+y,1/2-z
3 -x,-y,-z
4 1/2+x,1/2-y,1/2+z
_cell_length_a                   11.580(2)
_cell_length_b                   13.182(3)
_cell_length_c                   12.385(2)
_cell_angle_alpha                90
_cell_angle_beta                 91.88(5)
_cell_angle_gamma                90
_cell_volume                     1889.52
_exptl_crystal_colour            colorless
_exptl_crystal_description       prism
_cell_formula_units_Z            4
_exptl_crystal_recrystallization_method toluene
loop_
_atom_site_label
_atom_site_type_symbol
_atom_site_fract_x
_atom_site_fract_y
_atom_site_fract_z
P1 P 0.23856(3) 0.70307(2) 0.19997(2)
N1 N 0.17870(10) 0.60266(9) 0.14852(10)
H1 H 0.1103(18) 0.5859(15) 0.1664(16)
H2 H 0.2023(17) 0.5789(15) 0.0901(17)
N2 N 0.26946(16) 0.68016(15) 0.32750(12)
C1 C 0.1800(2) 0.6346(2) 0.39442(14)
H3 H 0.1367 0.6903 0.4265
H4 H 0.2147 0.5924 0.4520
H5 H 0.1222 0.5892 0.3653
C2 C 0.3692(3) 0.7235(3) 0.3873(2)
H6 H 0.4245 0.7500 0.3361
H7 H 0.4064 0.6707 0.4319
H8 H 0.3432 0.7786 0.4337
N3 N 0.36214(13) 0.72163(12) 0.14397(18)
C3 C 0.45679(17) 0.64834(19) 0.1518(3)
H9 H 0.4398 0.5971 0.2064
H10 H 0.5287 0.6835 0.1725
H11 H 0.4653 0.6152 0.0817
C4 C 0.37741(17) 0.79853(15) 0.06071(15)
H12 H 0.3122 0.8459 0.0605
H13 H 0.3808 0.7656 -0.0100
H14 H 0.4495 0.8356 0.0758
N4 N 0.15225(13) 0.79660(11) 0.18690(14)
C5 C 0.07110(15) 0.80966(14) 0.09166(16)
H15 H 0.0662 0.7460 0.0509
H16 H 0.0989 0.8638 0.0449
H17 H -0.0056 0.8275 0.1170
C6 C 0.1679(2) 0.88670(19) 0.2552(3)
H18 H 0.2231 0.8715 0.3147
H19 H 0.0936 0.9062 0.2847
H20 H 0.1975 0.9427 0.2121
B1 B 0.91979(13) 0.46410(11) 0.22737(13)
H21 H 1.0099(16) 0.4371(14) 0.2310(15)
B2 B 0.85161(14) 0.51574(11) 0.33986(13)
H22 H 0.8926(16) 0.5294(15) 0.4187(16)
B3 B 0.88614(13) 0.59521(11) 0.23195(14)
H23 H 0.9423(16) 0.6613(14) 0.2401(15)
B4 B 0.86527(14) 0.52702(12) 0.11049(13)
H24 H 0.9139(16) 0.5510(14) 0.0422(15)
B5 B 0.81095(14) 0.40644(11) 0.14131(12)
H25 H 0.8296(15) 0.3388(14) 0.0916(15)
B6 B 0.80133(14) 0.39926(11) 0.28770(12)
H26 H 0.8152(15) 0.3276(14) 0.3325(15)
C7 C 0.75106(11) 0.59767(10) 0.28416(11)
H27 H 0.7348(16) 0.6607(15) 0.3187(15)
C8 C 0.75758(12) 0.60248(10) 0.15907(12)
H28 H 0.7482(16) 0.6691(15) 0.1294(16)
B7 B 0.71312(14) 0.50171(13) 0.09761(13)
H29 H 0.6715(17) 0.5054(15) 0.0177(16)
B8 B 0.67458(14) 0.41229(12) 0.20372(13)
H30 H 0.6151(16) 0.3474(15) 0.1953(15)
B9 B 0.69853(14) 0.49176(12) 0.32581(12)
H31 H 0.6495(16) 0.4847(15) 0.3993(16)
H32 H 0.627(2) 0.485(2) 0.220(2)
H33? H 0.1276 0.5933 0.3490
H34? H 0.1544 0.6629 0.4610
H35? H 0.2508 0.5982 0.4077
N5? N 0.1953(6) 0.7150(5) 0.3221(5)
C9? C 0.1846(9) 0.8108(8) 0.3786(9)
H36? H 0.1549 0.8627 0.3283
H37? H 0.2606 0.8316 0.4080
H38? H 0.1312 0.8030 0.4378
N6? N 0.3719(7) 0.7164(6) 0.1888(7)
C10? C 0.4518(9) 0.6825(8) 0.2779(8)
H39? H 0.4668 0.6096 0.2708
H40? H 0.4167 0.6957 0.3474
H41? H 0.5248 0.7199 0.2743
C11? C 0.4276(10) 0.7265(9) 0.0844(9)
H42? H 0.4889 0.7777 0.0905
H43? H 0.3702 0.7473 0.0288
H44? H 0.4611 0.6611 0.0645
H45? H 0.0564 0.8716 0.0528
H46? H 0.0545 0.7529 0.0451
H47? H 0.0227 0.8067 0.1531
N7? N 0.1864(5) 0.8062(5) 0.1282(5)
C12? C 0.2431(9) 0.9071(8) 0.1279(8)
H48? H 0.3180 0.9029 0.1668
H49? H 0.1940 0.9565 0.1637
H50? H 0.2547 0.9287 0.0534
loop_
_geom_bond_atom_site_label_1
_geom_bond_atom_site_label_2
_geom_bond_site_symmetry_1
_geom_bond_site_symmetry_2
P1 N1 1_555 1_555
N1 H1 1_555 1_555
H2 N1 1_555 1_555
N2 P1 1_555 1_555
C1 N2 1_555 1_555
H3 C1 1_555 1_555
H4 C1 1_555 1_555
H5 C1 1_555 1_555
C2 N2 1_555 1_555
H6 C2 1_555 1_555
H7 C2 1_555 1_555
H8 C2 1_555 1_555
N3 P1 1_555 1_555
C3 N3 1_555 1_555
H9 C3 1_555 1_555
H10 C3 1_555 1_555
H11 C3 1_555 1_555
C4 N3 1_555 1_555
H12 C4 1_555 1_555
H13 C4 1_555 1_555
H14 C4 1_555 1_555
N4 P1 1_555 1_555
C5 N4 1_555 1_555
H15 C5 1_555 1_555
H16 C5 1_555 1_555
H17 C5 1_555 1_555
C6 N4 1_555 1_555
H18 C6 1_555 1_555
H19 C6 1_555 1_555
H20 C6 1_555 1_555
B1 H21 1_555 1_555
B2 B1 1_555 1_555
H22 B2 1_555 1_555
B3 B1 1_555 1_555
H23 B3 1_555 1_555
B4 B1 1_555 1_555
H24 B4 1_555 1_555
B5 B1 1_555 1_555
H25 B5 1_555 1_555
B6 B1 1_555 1_555
H26 B6 1_555 1_555
C7 B2 1_555 1_555
H27 C7 1_555 1_555
C8 B3 1_555 1_555
H28 C8 1_555 1_555
B7 B4 1_555 1_555
H29 B7 1_555 1_555
B8 B5 1_555 1_555
H30 B8 1_555 1_555
B9 B2 1_555 1_555
H31 B9 1_555 1_555
H32 B8 1_555 1_555
B2 B3 1_555 1_555
B2 B6 1_555 1_555
B3 B4 1_555 1_555
B3 C7 1_555 1_555
B4 B5 1_555 1_555
B4 C8 1_555 1_555
B5 B6 1_555 1_555
B5 B7 1_555 1_555
B6 B8 1_555 1_555
B6 B9 1_555 1_555
C7 C8 1_555 1_555
C7 B9 1_555 1_555
C8 B7 1_555 1_555
B7 B8 1_555 1_555
B8 B9 1_555 1_555
B9 H32 1_555 1_555

#END
