
#######################################################################
#
#                 Cambridge Crystallographic Data Centre
#                                CCDC 
#
#######################################################################
#
# If this CIF has been generated from an entry in the Cambridge 
# Structural Database, then it will include bibliographic, chemical, 
# crystal, experimental, refinement or atomic coordinate data resulting 
# from the CCDC's data processing and validation procedures.
#
#######################################################################

data_CENCAB
_chemical_formula_moiety         'C16 H17 N1 O2 S2'
_chemical_name_systematic        
5-((4-Methylphenyl)sulfonyl)-2,3,4,5-tetrahydro-1,5-benzothiazepine
_symmetry_cell_setting           orthorhombic
_symmetry_space_group_name_H-M   'P b c a'
_symmetry_Int_Tables_number      61
_space_group_name_Hall           '-P 2ac 2ab'
loop_
_symmetry_equiv_pos_site_id
_symmetry_equiv_pos_as_xyz
1 x,y,z
2 1/2-x,-y,1/2+z
3 -x,1/2+y,1/2-z
4 1/2+x,1/2-y,-z
5 -x,-y,-z
6 1/2+x,y,1/2-z
7 x,1/2-y,1/2+z
8 1/2-x,1/2+y,z
_cell_length_a                   7.861(19)
_cell_length_b                   9.93(2)
_cell_length_c                   42.05(10)
_cell_angle_alpha                90
_cell_angle_beta                 90
_cell_angle_gamma                90
_cell_volume                     3282.41
_exptl_crystal_colour            colorless
_exptl_crystal_description       block
_cell_formula_units_Z            8
loop_
_atom_site_label
_atom_site_type_symbol
_atom_site_fract_x
_atom_site_fract_y
_atom_site_fract_z
C1 C 0.5069(4) 0.0865(3) 0.16405(7)
C2 C 0.3746(4) -0.0065(3) 0.16020(8)
H1 H 0.3531 -0.0433 0.1403
C3 C 0.2734(4) -0.0447(4) 0.18656(9)
H2 H 0.1857 -0.1065 0.1839
C4 C 0.3051(5) 0.0106(5) 0.21656(9)
H3 H 0.2375 -0.0133 0.2338
C5 C 0.4391(5) 0.1019(4) 0.22055(8)
H4 H 0.4612 0.1362 0.2407
C6 C 0.5423(4) 0.1435(3) 0.19458(7)
C7 C 0.8991(4) 0.1806(4) 0.18745(8)
H5 H 0.9965 0.2288 0.1959
H6 H 0.9006 0.0908 0.1966
C8 C 0.9217(4) 0.1675(4) 0.15096(8)
H7 H 0.9123 0.2563 0.1415
H8 H 1.0353 0.1342 0.1466
C9 C 0.7926(4) 0.0741(3) 0.13501(7)
H9 H 0.8237 0.0629 0.1128
H10 H 0.7982 -0.0137 0.1451
C10 C 0.4190(4) 0.1042(3) 0.08141(7)
C11 C 0.5104(5) 0.0122(4) 0.06271(9)
H11 H 0.6281 0.0063 0.0645
C12 C 0.4224(6) -0.0708(4) 0.04138(10)
H12 H 0.4837 -0.1319 0.0291
C13 C 0.2467(7) -0.0651(4) 0.03782(9)
C14 C 0.1578(5) 0.0245(4) 0.05675(9)
H13 H 0.0399 0.0285 0.0550
C15 C 0.2408(4) 0.1104(4) 0.07876(7)
H14 H 0.1785 0.1699 0.0912
C16 C 0.1531(7) -0.1563(4) 0.01373(11)
H15 H 0.1777 -0.2490 0.0184
H16 H 0.1908 -0.1354 -0.0074
H17 H 0.0328 -0.1413 0.0153
N1 N 0.6128(3) 0.1250(2) 0.13680(5)
O1 O 0.4051(3) 0.3051(2) 0.12146(5)
O2 O 0.6736(3) 0.2698(2) 0.08975(5)
S1 S 0.70452(13) 0.26653(9) 0.20100(2)
S2 S 0.53050(11) 0.21549(7) 0.107617(17)
loop_
_geom_bond_atom_site_label_1
_geom_bond_atom_site_label_2
_geom_bond_site_symmetry_1
_geom_bond_site_symmetry_2
C1 C2 1_555 1_555
C2 H1 1_555 1_555
C3 C2 1_555 1_555
H2 C3 1_555 1_555
C4 C3 1_555 1_555
H3 C4 1_555 1_555
C5 C4 1_555 1_555
H4 C5 1_555 1_555
C6 C1 1_555 1_555
C7 H5 1_555 1_555
H6 C7 1_555 1_555
C8 C7 1_555 1_555
H7 C8 1_555 1_555
H8 C8 1_555 1_555
C9 C8 1_555 1_555
H9 C9 1_555 1_555
H10 C9 1_555 1_555
C10 C11 1_555 1_555
C11 H11 1_555 1_555
C12 C11 1_555 1_555
H12 C12 1_555 1_555
C13 C12 1_555 1_555
C14 C13 1_555 1_555
H13 C14 1_555 1_555
C15 C10 1_555 1_555
H14 C15 1_555 1_555
C16 C13 1_555 1_555
H15 C16 1_555 1_555
H16 C16 1_555 1_555
H17 C16 1_555 1_555
N1 C1 1_555 1_555
O1 S2 1_555 1_555
O2 S2 1_555 1_555
S1 C6 1_555 1_555
S2 C10 1_555 1_555
C5 C6 1_555 1_555
C7 S1 1_555 1_555
C9 N1 1_555 1_555
C14 C15 1_555 1_555
N1 S2 1_555 1_555

#END
