
#######################################################################
#
#                 Cambridge Crystallographic Data Centre
#                                CCDC 
#
#######################################################################
#
# If this CIF has been generated from an entry in the Cambridge 
# Structural Database, then it will include bibliographic, chemical, 
# crystal, experimental, refinement or atomic coordinate data resulting 
# from the CCDC's data processing and validation procedures.
#
#######################################################################

data_CENCAZ
_chemical_formula_moiety         '2(C2 H12 B9 1-),C24 H74 B2 N16 O1 P4 2+'
_chemical_name_systematic        
'bis(7,8-Dicarba-nido-undecaborane(12)) oxy-bis((tris(dimethylamino)phosphoranylideneamino)-(tris(dimethylamino)phosphoranyldieneimino)borane)'
_symmetry_cell_setting           orthorhombic
_symmetry_space_group_name_H-M   'P 21 21 21'
_symmetry_Int_Tables_number      19
_space_group_name_Hall           'P 2ac 2ab'
loop_
_symmetry_equiv_pos_site_id
_symmetry_equiv_pos_as_xyz
1 x,y,z
2 1/2-x,-y,1/2+z
3 -x,1/2+y,1/2-z
4 1/2+x,1/2-y,-z
_cell_length_a                   14.105(3)
_cell_length_b                   16.529(3)
_cell_length_c                   25.563(5)
_cell_angle_alpha                90
_cell_angle_beta                 90
_cell_angle_gamma                90
_cell_volume                     5959.8
_exptl_crystal_description       block
_cell_formula_units_Z            4
_exptl_crystal_recrystallization_method toluene
loop_
_atom_site_label
_atom_site_type_symbol
_atom_site_fract_x
_atom_site_fract_y
_atom_site_fract_z
O1 O -0.94607(18) -1.50176(16) -0.39933(10)
P1 P -1.19747(8) -1.43528(7) -0.34746(4)
N1 N -1.1073(2) -1.4593(2) -0.37883(12)
B1 B -1.0107(4) -1.4658(3) -0.36656(18)
P2 P -0.84112(8) -1.64949(7) -0.46158(4)
N2 N -0.9058(2) -1.5785(2) -0.47953(11)
B2 B -0.9564(3) -1.5189(3) -0.4533(2)
P3 P -0.86400(8) -1.41536(7) -0.29639(4)
N3 N -0.9703(3) -1.4361(2) -0.31748(14)
H1 H -1.012(3) -1.431(2) -0.2969(13)
P4 P -1.03359(8) -1.44624(7) -0.54230(4)
N4 N -1.0235(2) -1.4664(2) -0.48074(13)
H2 H -1.071(3) -1.449(2) -0.4610(14)
C1 C -1.2820(3) -1.5280(3) -0.42210(18)
H3 H -1.3108 -1.5080 -0.4536
H4 H -1.3143 -1.5761 -0.4109
H5 H -1.2166 -1.5402 -0.4286
N5 N -1.2888(2) -1.4660(2) -0.38101(13)
C2 C -1.3873(3) -1.4477(3) -0.36674(18)
H6 H -1.4192 -1.4240 -0.3961
H7 H -1.3881 -1.4105 -0.3379
H8 H -1.4191 -1.4967 -0.3568
N6 N -1.1915(2) -1.4711(2) -0.28691(12)
C3 C -1.1586(3) -1.5546(3) -0.27961(17)
H9 H -1.1344 -1.5610 -0.2447
H10 H -1.1093 -1.5662 -0.3044
H11 H -1.2105 -1.5912 -0.2849
N7 N -1.2212(2) -1.3386(2) -0.33742(13)
C4 C -1.2661(3) -1.4516(3) -0.24845(16)
H12 H -1.2412 -1.4574 -0.2137
H13 H -1.3187 -1.4877 -0.2531
H14 H -1.2869 -1.3968 -0.2536
C5 C -1.1624(3) -1.2927(3) -0.30020(18)
H15 H -1.1955 -1.2448 -0.2896
H16 H -1.1037 -1.2779 -0.3167
H17 H -1.1494 -1.3256 -0.2701
C6 C -1.2517(3) -1.2881(3) -0.38148(17)
H18 H -1.2955 -1.2479 -0.3693
H19 H -1.2821 -1.3213 -0.4073
H20 H -1.1975 -1.2620 -0.3967
C7 C -0.9037(4) -1.7808(3) -0.5110(2)
H21 H -0.8806 -1.8276 -0.5292
H22 H -0.9557 -1.7577 -0.5300
H23 H -0.9247 -1.7963 -0.4767
N8 N -0.8281(2) -1.7215(2) -0.50643(13)
C8 C -0.7890(4) -1.6974(3) -0.55703(16)
H24 H -0.7656 -1.7443 -0.5750
H25 H -0.7381 -1.6597 -0.5517
H26 H -0.8378 -1.6723 -0.5776
N9 N -0.7313(2) -1.6221(2) -0.45156(13)
C9 C -0.7120(3) -1.5443(3) -0.42534(16)
H27 H -0.6802 -1.5541 -0.3927
H28 H -0.7707 -1.5168 -0.4189
H29 H -0.6725 -1.5115 -0.4474
N10 N -0.8831(3) -1.6950(2) -0.40875(13)
C10 C -0.6474(3) -1.6730(3) -0.45800(19)
H30 H -0.6033 -1.6468 -0.4810
H31 H -0.6657 -1.7242 -0.4727
H32 H -0.6181 -1.6817 -0.4246
C11 C -0.9835(3) -1.6978(3) -0.39602(19)
H33 H -0.9922 -1.6839 -0.3599
H34 H -1.0073 -1.7513 -0.4022
H35 H -1.0172 -1.6599 -0.4176
C12 C -0.8263(4) -1.7551(3) -0.38094(18)
H36 H -0.8370 -1.7500 -0.3440
H37 H -0.7604 -1.7464 -0.3884
H38 H -0.8442 -1.8084 -0.3922
C13 C -0.7007(3) -1.3798(3) -0.34480(19)
H39 H -0.6759 -1.3963 -0.3781
H40 H -0.6786 -1.4162 -0.3182
H41 H -0.6796 -1.3259 -0.3370
N11 N -0.8052(2) -1.3815(2) -0.34648(13)
C14 C -0.8448(4) -1.3306(3) -0.38733(17)
H42 H -0.8268 -1.3514 -0.4209
H43 H -0.8210 -1.2764 -0.3835
H44 H -0.9127 -1.3301 -0.3845
N12 N -0.8143(2) -1.4937(2) -0.27047(12)
C15 C -0.8324(3) -1.5749(2) -0.28976(16)
H45 H -0.8600 -1.6069 -0.2624
H46 H -0.7739 -1.5991 -0.3008
H47 H -0.8754 -1.5723 -0.3188
N13 N -0.8667(3) -1.3480(2) -0.24957(13)
C16 C -0.7390(3) -1.4894(3) -0.23053(17)
H48 H -0.6812 -1.5108 -0.2447
H49 H -0.7574 -1.5206 -0.2005
H50 H -0.7295 -1.4341 -0.2204
C17 C -0.8712(4) -1.2616(3) -0.26189(19)
H51 H -0.8450 -1.2310 -0.2334
H52 H -0.9361 -1.2460 -0.2672
H53 H -0.8355 -1.2510 -0.2931
C18 C -0.9094(4) -1.3671(3) -0.19873(19)
H54 H -0.8722 -1.3433 -0.1713
H55 H -0.9113 -1.4247 -0.1941
H56 H -0.9727 -1.3459 -0.1975
C19 C -0.8515(4) -1.3989(3) -0.5402(2)
H57 H -0.8191 -1.3639 -0.5643
H58 H -0.8077 -1.4379 -0.5264
H59 H -0.8774 -1.3674 -0.5121
N14 N -0.9277(2) -1.4406(2) -0.56734(13)
C20 C -0.8971(4) -1.4878(4) -0.6124(2)
H60 H -0.8806 -1.4519 -0.6405
H61 H -0.9477 -1.5228 -0.6234
H62 H -0.8429 -1.5197 -0.6030
N15 N -1.0857(3) -1.3594(2) -0.54956(15)
C21 C -1.0397(5) -1.2859(3) -0.5625(3)
H63 H -1.0771 -1.2568 -0.5875
H64 H -0.9785 -1.2974 -0.5771
H65 H -1.0322 -1.2538 -0.5315
N16 N -1.0995(3) -1.5114(2) -0.57170(13)
C22 C -1.1790(3) -1.3466(3) -0.5259(2)
H66 H -1.2175 -1.3145 -0.5489
H67 H -1.1717 -1.3190 -0.4931
H68 H -1.2091 -1.3980 -0.5201
C23 C -1.1416(3) -1.4957(3) -0.62328(14)
H69 H -1.2086 -1.5053 -0.6218
H70 H -1.1135 -1.5311 -0.6487
H71 H -1.1301 -1.4405 -0.6330
C24 C -1.1069(3) -1.5956(3) -0.55466(18)
H72 H -1.1725 -1.6099 -0.5508
H73 H -1.0751 -1.6020 -0.5217
H74 H -1.0779 -1.6302 -0.5802
B3 B -0.9451(4) -1.1071(4) -0.4584(3)
H75 H -0.916(3) -1.142(3) -0.4845(17)
B4 B -1.0006(4) -1.0161(4) -0.4759(2)
H76 H -1.009(3) -0.986(3) -0.5116(15)
B5 B -0.9017(4) -1.0140(4) -0.4358(3)
H77 H -0.837(3) -0.983(2) -0.4465(15)
B6 B -0.9059(4) -1.0975(4) -0.3929(2)
H78 H -0.849(3) -1.128(3) -0.3771(16)
B7 B -1.0138(4) -1.1519(4) -0.4070(3)
H79 H -1.022(3) -1.214(3) -0.4067(17)
B8 B -1.0702(4) -1.1004(4) -0.4596(3)
H80 H -1.116(3) -1.130(3) -0.4852(17)
C25 C -1.0943(4) -1.0094(3) -0.4321(2)
H81 H -1.152(3) -0.981(3) -0.4484(16)
C26 C -1.0009(4) -0.9615(3) -0.4179(2)
H82 H -1.008(3) -0.895(3) -0.4257(16)
B9 B -0.9422(5) -1.0019(4) -0.3704(2)
H83 H -0.894(3) -0.964(2) -0.3455(15)
B10 B -1.0067(5) -1.0897(4) -0.3512(3)
H84 H -1.005(4) -1.113(3) -0.3109(19)
H85 H -1.073(6) -1.038(5) -0.359(3)
B11 B -1.1072(4) -1.0869(3) -0.3930(3)
H86 H -1.186(3) -1.112(2) -0.3841(13)
B12 B -0.4548(5) -1.1611(4) -0.1980(3)
H87 H -0.421(3) -1.121(3) -0.1772(17)
B13 B -0.4149(6) -1.1861(6) -0.2589(3)
H88 H -0.346(4) -1.165(3) -0.282(2)
B14 B -0.5163(6) -1.1260(5) -0.2518(3)
H89 H -0.518(4) -1.052(3) -0.2721(18)
B15 B -0.5813(5) -1.1618(5) -0.2022(3)
H90 H -0.620(4) -1.130(3) -0.1811(18)
B16 B -0.5181(6) -1.2452(6) -0.1725(3)
H91 H -0.519(4) -1.258(3) -0.136(2)
B17 B -0.4167(6) -1.2567(5) -0.2057(4)
H92 H -0.347(4) -1.281(3) -0.196(2)
C27 C -0.4603(9) -1.2736(4) -0.2700(3)
H93 H -0.437(5) -1.309(4) -0.304(3)
C28 C -0.5179(5) -1.2096(6) -0.2901(3)
H94 H -0.488(5) -1.188(4) -0.332(2)
B18 B -0.6131(5) -1.1920(4) -0.2648(2)
H95 H -0.677(3) -1.168(3) -0.2883(16)
B19 B -0.6185(6) -1.2596(6) -0.2092(3)
H96 H -0.670(5) -1.281(4) -0.198(2)
H97 H -0.599(5) -1.285(4) -0.251(3)
B20 B -0.5025(5) -1.3204(4) -0.2277(3)
H98 H -0.501(4) -1.374(3) -0.213(2)
loop_
_geom_bond_atom_site_label_1
_geom_bond_atom_site_label_2
_geom_bond_site_symmetry_1
_geom_bond_site_symmetry_2
O1 B1 1_555 1_555
P1 N1 1_555 1_555
N1 B1 1_555 1_555
B1 N3 1_555 1_555
P2 N2 1_555 1_555
N2 B2 1_555 1_555
B2 O1 1_555 1_555
P3 N3 1_555 1_555
N3 H1 1_555 1_555
P4 N4 1_555 1_555
N4 B2 1_555 1_555
H2 N4 1_555 1_555
C1 H3 1_555 1_555
H4 C1 1_555 1_555
H5 C1 1_555 1_555
N5 P1 1_555 1_555
C2 N5 1_555 1_555
H6 C2 1_555 1_555
H7 C2 1_555 1_555
H8 C2 1_555 1_555
N6 P1 1_555 1_555
C3 N6 1_555 1_555
H9 C3 1_555 1_555
H10 C3 1_555 1_555
H11 C3 1_555 1_555
N7 P1 1_555 1_555
C4 N6 1_555 1_555
H12 C4 1_555 1_555
H13 C4 1_555 1_555
H14 C4 1_555 1_555
C5 N7 1_555 1_555
H15 C5 1_555 1_555
H16 C5 1_555 1_555
H17 C5 1_555 1_555
C6 N7 1_555 1_555
H18 C6 1_555 1_555
H19 C6 1_555 1_555
H20 C6 1_555 1_555
C7 H21 1_555 1_555
H22 C7 1_555 1_555
H23 C7 1_555 1_555
N8 P2 1_555 1_555
C8 N8 1_555 1_555
H24 C8 1_555 1_555
H25 C8 1_555 1_555
H26 C8 1_555 1_555
N9 P2 1_555 1_555
C9 N9 1_555 1_555
H27 C9 1_555 1_555
H28 C9 1_555 1_555
H29 C9 1_555 1_555
N10 P2 1_555 1_555
C10 N9 1_555 1_555
H30 C10 1_555 1_555
H31 C10 1_555 1_555
H32 C10 1_555 1_555
C11 N10 1_555 1_555
H33 C11 1_555 1_555
H34 C11 1_555 1_555
H35 C11 1_555 1_555
C12 N10 1_555 1_555
H36 C12 1_555 1_555
H37 C12 1_555 1_555
H38 C12 1_555 1_555
C13 H39 1_555 1_555
H40 C13 1_555 1_555
H41 C13 1_555 1_555
N11 P3 1_555 1_555
C14 N11 1_555 1_555
H42 C14 1_555 1_555
H43 C14 1_555 1_555
H44 C14 1_555 1_555
N12 P3 1_555 1_555
C15 N12 1_555 1_555
H45 C15 1_555 1_555
H46 C15 1_555 1_555
H47 C15 1_555 1_555
N13 P3 1_555 1_555
C16 N12 1_555 1_555
H48 C16 1_555 1_555
H49 C16 1_555 1_555
H50 C16 1_555 1_555
C17 N13 1_555 1_555
H51 C17 1_555 1_555
H52 C17 1_555 1_555
H53 C17 1_555 1_555
C18 N13 1_555 1_555
H54 C18 1_555 1_555
H55 C18 1_555 1_555
H56 C18 1_555 1_555
C19 H57 1_555 1_555
H58 C19 1_555 1_555
H59 C19 1_555 1_555
N14 P4 1_555 1_555
C20 N14 1_555 1_555
H60 C20 1_555 1_555
H61 C20 1_555 1_555
H62 C20 1_555 1_555
N15 P4 1_555 1_555
C21 N15 1_555 1_555
H63 C21 1_555 1_555
H64 C21 1_555 1_555
H65 C21 1_555 1_555
N16 P4 1_555 1_555
C22 N15 1_555 1_555
H66 C22 1_555 1_555
H67 C22 1_555 1_555
H68 C22 1_555 1_555
C23 N16 1_555 1_555
H69 C23 1_555 1_555
H70 C23 1_555 1_555
H71 C23 1_555 1_555
C24 N16 1_555 1_555
H72 C24 1_555 1_555
H73 C24 1_555 1_555
H74 C24 1_555 1_555
B3 H75 1_555 1_555
B4 B3 1_555 1_555
H76 B4 1_555 1_555
B5 B3 1_555 1_555
H77 B5 1_555 1_555
B6 B3 1_555 1_555
H78 B6 1_555 1_555
B7 B3 1_555 1_555
H79 B7 1_555 1_555
B8 B3 1_555 1_555
H80 B8 1_555 1_555
C25 B4 1_555 1_555
H81 C25 1_555 1_555
C26 B4 1_555 1_555
H82 C26 1_555 1_555
B9 B5 1_555 1_555
H83 B9 1_555 1_555
B10 B6 1_555 1_555
H84 B10 1_555 1_555
H85 B10 1_555 1_555
B11 B7 1_555 1_555
H86 B11 1_555 1_555
B12 H87 1_555 1_555
B13 B12 1_555 1_555
H88 B13 1_555 1_555
B14 B12 1_555 1_555
H89 B14 1_555 1_555
B15 B12 1_555 1_555
H90 B15 1_555 1_555
B16 B12 1_555 1_555
H91 B16 1_555 1_555
B17 B12 1_555 1_555
H92 B17 1_555 1_555
C27 B13 1_555 1_555
H93 C27 1_555 1_555
C28 B13 1_555 1_555
H94 C28 1_555 1_555
B18 B14 1_555 1_555
H95 B18 1_555 1_555
B19 B15 1_555 1_555
H96 B19 1_555 1_555
H97 B18 1_555 1_555
B20 B16 1_555 1_555
H98 B20 1_555 1_555
C1 N5 1_555 1_555
C7 N8 1_555 1_555
C13 N11 1_555 1_555
C19 N14 1_555 1_555
B4 B5 1_555 1_555
B4 B8 1_555 1_555
B5 B6 1_555 1_555
B5 C26 1_555 1_555
B6 B7 1_555 1_555
B6 B9 1_555 1_555
B7 B8 1_555 1_555
B7 B10 1_555 1_555
B8 C25 1_555 1_555
B8 B11 1_555 1_555
C25 C26 1_555 1_555
C25 B11 1_555 1_555
C26 B9 1_555 1_555
B9 B10 1_555 1_555
B10 B11 1_555 1_555
H85 B11 1_555 1_555
B13 B14 1_555 1_555
B13 B17 1_555 1_555
B14 B15 1_555 1_555
B14 C28 1_555 1_555
B15 B16 1_555 1_555
B15 B18 1_555 1_555
B16 B17 1_555 1_555
B16 B19 1_555 1_555
B17 C27 1_555 1_555
B17 B20 1_555 1_555
C27 C28 1_555 1_555
C27 B20 1_555 1_555
C28 B18 1_555 1_555
B18 B19 1_555 1_555
B19 H97 1_555 1_555
B19 B20 1_555 1_555

#END
