
#######################################################################
#
#                 Cambridge Crystallographic Data Centre
#                                CCDC 
#
#######################################################################
#
# If this CIF has been generated from an entry in the Cambridge 
# Structural Database, then it will include bibliographic, chemical, 
# crystal, experimental, refinement or atomic coordinate data resulting 
# from the CCDC's data processing and validation procedures.
#
#######################################################################

data_CENQIW
_chemical_compound_source        'saplings of Daphniphyllum oldhami'
_chemical_name_common            'daphnioldhanin A'
_chemical_formula_moiety         'C23 H35 N1 O4'
_chemical_name_systematic        
'methyl (1S,3S,10S,14S,18S)-20-hydroxy-18-(hydroxymethyl)-14-methyl-12-azahexacyclo (10.6.1.1^1,4^.0^7,20^.0^10,18^.0^15,19^)icosane-3-carboxylate'
_symmetry_cell_setting           orthorhombic
_symmetry_space_group_name_H-M   'P 21 21 21'
_symmetry_Int_Tables_number      19
_space_group_name_Hall           'P 2ac 2ab'
loop_
_symmetry_equiv_pos_site_id
_symmetry_equiv_pos_as_xyz
1 x,y,z
2 1/2-x,-y,1/2+z
3 -x,1/2+y,1/2-z
4 1/2+x,1/2-y,-z
_cell_length_a                   7.9130(16)
_cell_length_b                   9.4840(19)
_cell_length_c                   26.271(5)
_cell_angle_alpha                90
_cell_angle_beta                 90
_cell_angle_gamma                90
_cell_volume                     1971.56
_exptl_crystal_colour            colorless
_exptl_crystal_description       Column
_chemical_melting_point          '118 deg.C'
_cell_formula_units_Z            4
loop_
_atom_site_label
_atom_site_type_symbol
_atom_site_fract_x
_atom_site_fract_y
_atom_site_fract_z
N1 N 0.6241(5) 0.6393(5) 0.22199(14)
O1 O 0.4594(5) 0.7261(4) 0.14451(13)
H1 H 0.3947 0.6932 0.1232
O2 O 1.1621(5) 0.6022(5) 0.11009(16)
H2 H 1.2528 0.6346 0.1197
O3 O 0.9425(6) 1.0433(6) 0.05252(16)
O4 O 0.7092(6) 1.1690(4) 0.03653(13)
C1 C 0.6911(6) 0.7842(5) 0.21309(16)
H3 H 0.5945 0.8485 0.2154
C2 C 0.8025(7) 0.8140(6) 0.25939(16)
H4 H 0.8252 0.9153 0.2624
C3 C 0.9669(6) 0.7317(6) 0.25610(16)
H5 H 0.9463 0.6342 0.2654
H6 H 1.0476 0.7706 0.2801
C4 C 1.0414(6) 0.7377(6) 0.20237(17)
H7 H 1.1384 0.6753 0.2012
H8 H 1.0823 0.8327 0.1964
C5 C 0.9207(6) 0.6974(6) 0.15784(16)
C6 C 0.8598(7) 0.5425(6) 0.16314(17)
H9 H 0.9608 0.4907 0.1738
C7 C 0.7316(7) 0.5184(6) 0.2070(2)
H10 H 0.6579 0.4413 0.1972
H11 H 0.7942 0.4880 0.2367
C8 C 0.7637(6) 0.7997(5) 0.15864(15)
C9 C 0.6136(6) 0.7749(6) 0.11941(17)
C10 C 0.6421(7) 0.6737(6) 0.07402(17)
H12 H 0.7532 0.6960 0.0596
C11 C 0.6422(8) 0.5180(6) 0.0868(2)
H13 H 0.6280 0.4645 0.0557
H14 H 0.5462 0.4979 0.1086
C12 C 0.8040(8) 0.4683(7) 0.1136(2)
H15 H 0.8961 0.4764 0.0894
H16 H 0.7907 0.3688 0.1211
C13 C 0.8153(7) 0.9573(6) 0.15008(19)
H17 H 0.8045 1.0089 0.1818
H18 H 0.9324 0.9621 0.1393
C14 C 0.7020(7) 1.0254(6) 0.10934(17)
H19 H 0.6454 1.1067 0.1248
C15 C 0.5646(7) 0.9159(6) 0.09504(19)
H20 H 0.4582 0.9466 0.1106
C16 C 0.5289(11) 0.8839(7) 0.0380(2)
H21 H 0.4265 0.9308 0.0267
H22 H 0.6223 0.9148 0.0168
C17 C 0.5087(8) 0.7243(7) 0.03560(18)
H23 H 0.5320 0.6887 0.0017
H24 H 0.3960 0.6956 0.0457
C18 C 0.6823(7) 0.7648(6) 0.30224(17)
H25 H 0.6007 0.8408 0.3080
C19 C 0.5846(8) 0.6404(7) 0.27791(19)
H26 H 0.6191 0.5521 0.2933
H27 H 0.4641 0.6522 0.2832
C20 C 0.7627(9) 0.7307(8) 0.35343(19)
H28 H 0.6766 0.7018 0.3770
H29 H 0.8189 0.8129 0.3663
H30 H 0.8432 0.6559 0.3493
C21 C 1.0373(7) 0.7118(7) 0.10972(19)
H31 H 0.9695 0.7050 0.0791
H32 H 1.0924 0.8032 0.1099
C22 C 0.8022(8) 1.0780(6) 0.06362(18)
C23 C 0.7822(11) 1.2151(9) -0.0111(2)
H33 H 0.7054 1.2782 -0.0279
H34 H 0.8027 1.1347 -0.0325
H35 H 0.8869 1.2629 -0.0046
loop_
_geom_bond_atom_site_label_1
_geom_bond_atom_site_label_2
_geom_bond_site_symmetry_1
_geom_bond_site_symmetry_2
N1 C1 1_555 1_555
O1 H1 1_555 1_555
O2 H2 1_555 1_555
O3 C22 1_555 1_555
O4 C22 1_555 1_555
C1 H3 1_555 1_555
C2 C1 1_555 1_555
H4 C2 1_555 1_555
C3 C2 1_555 1_555
H5 C3 1_555 1_555
H6 C3 1_555 1_555
C4 C3 1_555 1_555
H7 C4 1_555 1_555
H8 C4 1_555 1_555
C5 C4 1_555 1_555
C6 C5 1_555 1_555
H9 C6 1_555 1_555
C7 N1 1_555 1_555
H10 C7 1_555 1_555
H11 C7 1_555 1_555
C8 C1 1_555 1_555
C9 O1 1_555 1_555
C10 C9 1_555 1_555
H12 C10 1_555 1_555
C11 C10 1_555 1_555
H13 C11 1_555 1_555
H14 C11 1_555 1_555
C12 C6 1_555 1_555
H15 C12 1_555 1_555
H16 C12 1_555 1_555
C13 C8 1_555 1_555
H17 C13 1_555 1_555
H18 C13 1_555 1_555
C14 C13 1_555 1_555
H19 C14 1_555 1_555
C15 C9 1_555 1_555
H20 C15 1_555 1_555
C16 C15 1_555 1_555
H21 C16 1_555 1_555
H22 C16 1_555 1_555
C17 C10 1_555 1_555
H23 C17 1_555 1_555
H24 C17 1_555 1_555
C18 C2 1_555 1_555
H25 C18 1_555 1_555
C19 N1 1_555 1_555
H26 C19 1_555 1_555
H27 C19 1_555 1_555
C20 C18 1_555 1_555
H28 C20 1_555 1_555
H29 C20 1_555 1_555
H30 C20 1_555 1_555
C21 O2 1_555 1_555
H31 C21 1_555 1_555
H32 C21 1_555 1_555
C22 C14 1_555 1_555
C23 O4 1_555 1_555
H33 C23 1_555 1_555
H34 C23 1_555 1_555
H35 C23 1_555 1_555
C5 C8 1_555 1_555
C5 C21 1_555 1_555
C6 C7 1_555 1_555
C8 C9 1_555 1_555
C11 C12 1_555 1_555
C14 C15 1_555 1_555
C16 C17 1_555 1_555
C18 C19 1_555 1_555

#END
