
#######################################################################
#
#                 Cambridge Crystallographic Data Centre
#                                CCDC 
#
#######################################################################
#
# If this CIF has been generated from an entry in the Cambridge 
# Structural Database, then it will include bibliographic, chemical, 
# crystal, experimental, refinement or atomic coordinate data resulting 
# from the CCDC's data processing and validation procedures.
#
#######################################################################

data_CENQUI
_chemical_compound_source        
'roots of Stemona tubersosa Lour. (Stemonaceae)'
_chemical_name_common            'bisdehydrostemoninine A'
_chemical_formula_moiety         'C22 H27 N1 O6'
_chemical_name_systematic        
1'-ethyl-4-methyl-8'-(3-carboxybutanoyl)-1',3a',4',5',6',10b'-hexahydro-5H-spiro[furan-2,2'-furo[3,2-c]pyrrolo[1,2-a]azepin]-5-one
_chemical_properties_biological  
'The roots of Stemona tuberosa are used as an antitussive agent and insecticide in traditional Chinese medicine'
_symmetry_cell_setting           monoclinic
_symmetry_space_group_name_H-M   'C 2'
_symmetry_Int_Tables_number      5
_space_group_name_Hall           'C 2y'
loop_
_symmetry_equiv_pos_site_id
_symmetry_equiv_pos_as_xyz
1 x,y,z
2 -x,y,-z
3 1/2+x,1/2+y,z
4 1/2-x,1/2+y,-z
_cell_length_a                   20.289(2)
_cell_length_b                   7.5988(8)
_cell_length_c                   16.5721(17)
_cell_angle_alpha                90
_cell_angle_beta                 125.7510(10)
_cell_angle_gamma                90
_cell_volume                     2073.51
_exptl_crystal_colour            colorless
_exptl_crystal_description       cubic
_cell_formula_units_Z            4
_exptl_crystal_recrystallization_method 'hexane/ethyl acetate'
loop_
_atom_site_label
_atom_site_type_symbol
_atom_site_fract_x
_atom_site_fract_y
_atom_site_fract_z
O1 O 0.75167(11) 0.9610(3) 1.07534(13)
O2 O 0.69478(13) 1.1080(3) 1.14264(16)
O3 O 0.7217(2) 1.3271(4) 1.2469(3)
O4 O 0.44014(18) 0.5411(3) 0.63269(16)
O5 O 0.49939(13) 0.1737(4) 0.59965(14)
O6 O 0.39404(13) 0.1907(4) 0.44391(14)
N1 N 0.53802(12) 0.6545(3) 0.84080(14)
C1 C 0.57681(17) 0.4833(4) 0.9693(2)
C2 C 0.52730(18) 0.3861(4) 0.8837(2)
C3 C 0.50299(16) 0.4913(3) 0.80334(19)
C4 C 0.52695(16) 0.8147(4) 0.7850(2)
H1 H 0.5060 0.9067 0.8049
H2 H 0.4865 0.7923 0.7148
C5 C 0.60363(18) 0.8804(4) 0.7997(2)
H3 H 0.5884 0.9584 0.7450
H4 H 0.6315 0.7805 0.7960
C6 C 0.66299(17) 0.9773(4) 0.8966(2)
H5 H 0.7092 1.0156 0.8978
H6 H 0.6367 1.0813 0.8994
C7 C 0.69275(15) 0.8649(4) 0.98672(19)
C8 C 0.62772(14) 0.8092(4) 1.00063(18)
C9 C 0.67647(15) 0.7934(4) 1.11361(19)
C10 C 0.73502(16) 0.9474(4) 1.14601(19)
C11 C 0.81304(17) 0.9509(5) 1.2476(2)
C12 C 0.8175(2) 1.0922(5) 1.2967(2)
C13 C 0.7418(2) 1.1937(5) 1.2303(3)
C14 C 0.8839(3) 1.1562(7) 1.3973(3)
H7 H 0.9354 1.1225 1.4117
H8 H 0.8780 1.1055 1.4458
H9 H 0.8812 1.2821 1.3993
C15 C 0.62638(16) 0.7889(4) 1.15542(19)
H10 H 0.5988 0.9010 1.1418
H11 H 0.5851 0.6986 1.1207
C16 C 0.67474(19) 0.7537(5) 1.2648(2)
H12 H 0.7096 0.8522 1.3006
H13 H 0.7071 0.6499 1.2804
H14 H 0.6385 0.7365 1.2837
C17 C 0.45154(17) 0.4448(4) 0.6981(2)
C18 C 0.41048(18) 0.2678(4) 0.6720(2)
H15 H 0.3708 0.2684 0.6869
H16 H 0.4507 0.1787 0.7133
C19 C 0.36812(17) 0.2185(4) 0.5631(2)
C20 C 0.42746(16) 0.1921(4) 0.53897(18)
C21 C 0.3159(2) 0.0521(5) 0.5355(3)
H17 H 0.3504 -0.0471 0.5707
H18 H 0.2857 0.0319 0.4652
H19 H 0.2789 0.0676 0.5533
C22 C 0.58248(15) 0.6490(4) 0.94193(18)
H20 H 0.6014(16) 0.447(4) 1.0349(15)
H21 H 0.5117(17) 0.273(3) 0.880(2)
H22 H 0.430(3) 0.136(9) 0.426(4)
H23 H 0.7179(15) 0.762(4) 0.986(2)
H24 H 0.5898(15) 0.907(3) 0.9801(18)
H25 H 0.7107(14) 0.693(4) 1.1344(19)
H26 H 0.8475(18) 0.861(4) 1.264(2)
H27 H 0.3359(19) 0.317(5) 0.526(3)
loop_
_geom_bond_atom_site_label_1
_geom_bond_atom_site_label_2
_geom_bond_site_symmetry_1
_geom_bond_site_symmetry_2
O1 C7 1_555 1_555
O2 C10 1_555 1_555
O3 C13 1_555 1_555
O4 C17 1_555 1_555
O5 C20 1_555 1_555
O6 C20 1_555 1_555
N1 C3 1_555 1_555
C1 C2 1_555 1_555
C2 C3 1_555 1_555
C3 C17 1_555 1_555
C4 N1 1_555 1_555
H1 C4 1_555 1_555
H2 C4 1_555 1_555
C5 C4 1_555 1_555
H3 C5 1_555 1_555
H4 C5 1_555 1_555
C6 C5 1_555 1_555
H5 C6 1_555 1_555
H6 C6 1_555 1_555
C7 C6 1_555 1_555
C8 C7 1_555 1_555
C9 C8 1_555 1_555
C10 O1 1_555 1_555
C11 C10 1_555 1_555
C12 C11 1_555 1_555
C13 O2 1_555 1_555
C14 C12 1_555 1_555
H7 C14 1_555 1_555
H8 C14 1_555 1_555
H9 C14 1_555 1_555
C15 C9 1_555 1_555
H10 C15 1_555 1_555
H11 C15 1_555 1_555
C16 C15 1_555 1_555
H12 C16 1_555 1_555
H13 C16 1_555 1_555
H14 C16 1_555 1_555
C17 C18 1_555 1_555
C18 H15 1_555 1_555
H16 C18 1_555 1_555
C19 C18 1_555 1_555
C20 C19 1_555 1_555
C21 C19 1_555 1_555
H17 C21 1_555 1_555
H18 C21 1_555 1_555
H19 C21 1_555 1_555
C22 N1 1_555 1_555
H20 C1 1_555 1_555
H21 C2 1_555 1_555
H22 O6 1_555 1_555
H23 C7 1_555 1_555
H24 C8 1_555 1_555
H25 C9 1_555 1_555
H26 C11 1_555 1_555
H27 C19 1_555 1_555
C1 C22 1_555 1_555
C8 C22 1_555 1_555
C9 C10 1_555 1_555
C12 C13 1_555 1_555

#END
