
#######################################################################
#
#                 Cambridge Crystallographic Data Centre
#                                CCDC 
#
#######################################################################
#
# If this CIF has been generated from an entry in the Cambridge 
# Structural Database, then it will include bibliographic, chemical, 
# crystal, experimental, refinement or atomic coordinate data resulting 
# from the CCDC's data processing and validation procedures.
#
#######################################################################

data_CENTIB
_chemical_formula_moiety         'C16 F6 N4,C18 H12'
_chemical_name_systematic        
"2,2'-(1,3,4,5,7,8-hexafluoronaphthalene-2,6-diylidene)dipropanedinitrile triphenylene"
_symmetry_cell_setting           triclinic
_symmetry_space_group_name_H-M   'P -1'
_symmetry_Int_Tables_number      2
_space_group_name_Hall           '-P 1'
loop_
_symmetry_equiv_pos_site_id
_symmetry_equiv_pos_as_xyz
1 x,y,z
2 -x,-y,-z
_cell_length_a                   8.0255(10)
_cell_length_b                   17.351(3)
_cell_length_c                   20.054(3)
_cell_angle_alpha                114.564(14)
_cell_angle_beta                 97.991(14)
_cell_angle_gamma                93.059(12)
_cell_volume                     2495.91
_exptl_crystal_colour            black
_exptl_crystal_description       block
_cell_formula_units_Z            4
loop_
_atom_site_label
_atom_site_type_symbol
_atom_site_fract_x
_atom_site_fract_y
_atom_site_fract_z
C1 C 0.452(2) 0.8762(8) 0.7793(8)
C2 C 0.404(2) 0.7908(6) 0.7225(8)
C3 C 0.493(3) 0.7288(10) 0.7387(12)
C4 C 0.2087(5) 0.82980(19) 0.63806(16)
C5 C 0.2865(5) 0.7681(3) 0.65369(18)
C6 C 0.2504(5) 0.6826(2) 0.6032(2)
C7 C 0.1366(5) 0.65890(16) 0.5371(2)
C8 C 0.0588(3) 0.72065(14) 0.52142(14)
C9 C 0.0949(3) 0.80610(14) 0.57192(14)
C10 C 0.0171(5) 0.86785(16) 0.55630(19)
C11 C -0.0967(5) 0.8441(2) 0.4902(2)
C12 C -0.1328(5) 0.7587(2) 0.43966(18)
C13 C -0.0550(4) 0.69695(19) 0.45529(15)
C14 C -0.2531(15) 0.7354(6) 0.3711(5)
C15 C -0.304(2) 0.6496(7) 0.3158(6)
C16 C -0.3374(19) 0.7958(9) 0.3518(9)
F1 F 0.3228(5) 0.6190(3) 0.6138(2)
F2 F 0.082(2) 0.5705(9) 0.4837(11)
F3 F -0.0937(6) 0.6158(3) 0.4065(3)
F4 F -0.1651(5) 0.9074(3) 0.4768(2)
F5 F 0.077(2) 0.9541(9) 0.6070(13)
F6 F 0.2436(6) 0.9097(3) 0.6883(3)
N1 N 0.498(2) 0.9436(8) 0.8249(7)
N2 N 0.5676(17) 0.6850(8) 0.7577(8)
N3 N -0.345(2) 0.5823(9) 0.2679(7)
N4 N -0.4119(18) 0.8369(9) 0.3294(8)
C33 C 1.0025(5) 0.8674(2) 0.2861(2)
C34 C 0.9360(5) 0.8847(2) 0.2239(2)
C35 C 1.0086(5) 0.9645(3) 0.2301(2)
C36 C 0.8148(5) 0.8272(3) 0.1648(2)
C37 C 0.7527(5) 0.7447(2) 0.1604(2)
C38 C 0.6317(5) 0.6904(3) 0.1029(2)
C39 C 0.5622(5) 0.7101(3) 0.0445(2)
C40 C 0.6189(5) 0.7899(3) 0.0445(2)
C41 C 0.7429(5) 0.8447(3) 0.1051(2)
C42 C 0.5481(5) 0.8098(3) -0.0136(2)
C43 C 0.4276(5) 0.7548(3) -0.0712(2)
C44 C 0.3646(5) 0.6725(3) -0.0754(2)
C45 C 0.4374(5) 0.6555(3) -0.0153(2)
C46 C 0.2415(5) 0.6159(3) -0.1340(2)
C47 C 0.1648(5) 0.5361(3) -0.1391(2)
C48 C 0.1720(5) 0.6313(3) -0.1963(2)
F13 F 0.8161(3) 0.72180(14) 0.21232(13)
F14 F 0.5774(3) 0.61507(14) 0.10219(12)
F15 F 0.3814(3) 0.57982(15) -0.01863(13)
F16 F 0.3612(3) 0.77825(15) -0.12237(13)
F17 F 0.5984(3) 0.88544(14) -0.01234(12)
F18 F 0.7998(3) 0.92033(15) 0.10791(13)
N9 N 1.0600(5) 0.8586(2) 0.3378(2)
N10 N 1.0718(5) 1.0298(2) 0.2386(2)
N11 N 0.0950(4) 0.4726(2) -0.14645(19)
N12 N 0.1122(5) 0.6380(2) -0.2482(2)
C49 C 0.7180(5) 0.3178(3) 0.6345(2)
H1 H 0.7666 0.2739 0.6441
C50 C 0.7626(6) 0.4014(4) 0.6860(2)
H2 H 0.8415 0.4146 0.7304
C51 C 0.6924(6) 0.4661(3) 0.6732(3)
H3 H 0.7248 0.524 0.708
C52 C 0.5764(6) 0.4463(3) 0.6102(2)
H4 H 0.5266 0.4912 0.6027
C53 C 0.5277(5) 0.3615(3) 0.5557(2)
C54 C 0.6022(5) 0.2956(3) 0.5679(2)
C55 C 0.5590(5) 0.2071(3) 0.5119(2)
C56 C 0.6338(5) 0.1398(3) 0.5208(3)
H5 H 0.7115 0.152 0.5652
C57 C 0.5983(6) 0.0569(3) 0.4672(3)
H6 H 0.6532 0.013 0.4744
C58 C 0.4825(6) 0.0373(3) 0.4027(3)
H7 H 0.4553 -0.0201 0.3662
C59 C 0.4075(5) 0.1013(3) 0.3920(2)
H8 H 0.329 0.0877 0.3475
C60 C 0.4444(5) 0.1874(3) 0.4460(2)
C61 C 0.3651(5) 0.2550(2) 0.4331(2)
C62 C 0.2484(5) 0.2369(3) 0.3675(2)
H9 H 0.2213 0.1796 0.3308
C63 C 0.1735(5) 0.3000(3) 0.3557(2)
H10 H 0.0953 0.2866 0.3111
C64 C 0.2122(5) 0.3841(3) 0.4093(2)
H11 H 0.1597 0.4281 0.4012
C65 C 0.3244(6) 0.4040(3) 0.4731(2)
H12 H 0.3484 0.4619 0.509
C66 C 0.4064(5) 0.3412(3) 0.4876(2)
C67 C 1.0766(6) 0.2054(3) 1.1123(3)
H13 H 1.1599 0.2414 1.154
C68 C 1.0081(6) 0.1294(3) 1.1083(3)
H14 H 1.044 0.1132 1.1473
C69 C 0.8870(6) 0.0758(3) 1.0479(3)
H15 H 0.8402 0.0233 1.046
C70 C 0.8340(6) 0.0977(3) 0.9908(3)
H16 H 0.7515 0.0602 0.9495
C71 C 0.9014(5) 0.1761(3) 0.9932(2)
C72 C 1.0253(5) 0.2311(3) 1.0552(2)
C73 C 1.0967(5) 0.3126(3) 1.0588(2)
C74 C 1.2218(5) 0.3688(3) 1.1189(2)
H17 H 1.2586 0.3536 1.1585
C75 C 1.2924(5) 0.4446(3) 1.1224(2)
H18 H 1.3763 0.4811 1.1636
C76 C 1.2393(5) 0.4670(3) 1.0648(2)
H19 H 1.2875 0.5191 1.0665
C77 C 1.1173(5) 0.4144(3) 1.0053(2)
H20 H 1.0827 0.4306 0.9662
C78 C 1.0424(5) 0.3365(2) 1.0012(2)
C79 C 0.9116(5) 0.2805(3) 0.9377(2)
C80 C 0.8446(5) 0.2014(2) 0.9337(2)
C81 C 0.7200(5) 0.1479(3) 0.8714(2)
H21 H 0.6744 0.0945 0.8681
C82 C 0.6645(5) 0.1714(3) 0.8161(2)
H22 H 0.5808 0.1347 0.7749
C83 C 0.7309(5) 0.2500(3) 0.8201(2)
H23 H 0.6916 0.2666 0.7816
C84 C 0.8527(5) 0.3029(3) 0.8794(2)
H24 H 0.898 0.3556 0.8812
C17? C 0.485(3) 0.8829(13) 0.7906(12)
C18? C 0.412(4) 0.8048(10) 0.7266(12)
C19? C 0.471(4) 0.7305(14) 0.7329(17)
C20? C 0.2238(7) 0.7239(3) 0.6044(3)
C21? C 0.2905(8) 0.8012(4) 0.6643(3)
C22? C 0.2423(8) 0.8772(3) 0.6649(3)
C23? C 0.1275(7) 0.8759(2) 0.6056(3)
C24? C 0.0609(5) 0.7986(2) 0.5458(2)
C25? C 0.1090(5) 0.7226(2) 0.5452(2)
C26? C 0.0424(8) 0.6453(2) 0.4853(3)
C27? C -0.0724(8) 0.6440(3) 0.4261(3)
C28? C -0.1205(7) 0.7200(4) 0.4267(3)
C29? C -0.0539(7) 0.7973(3) 0.4865(3)
C30? C -0.244(2) 0.7135(9) 0.3634(8)
C31? C -0.314(3) 0.6339(12) 0.3005(11)
C32? C -0.310(3) 0.7842(13) 0.3557(13)
F7? F 0.3036(9) 0.9556(4) 0.7226(4)
F8? F 0.040(3) 0.9479(14) 0.6026(19)
F9? F -0.1009(9) 0.8675(4) 0.4846(4)
F10? F -0.1405(8) 0.5643(4) 0.3708(4)
F11? F 0.117(3) 0.5765(13) 0.4926(16)
F12? F 0.2730(9) 0.6544(4) 0.6049(4)
N5? N 0.540(3) 0.9421(12) 0.8448(10)
N6? N 0.524(3) 0.6730(11) 0.7393(13)
N7? N -0.381(3) 0.5737(14) 0.2490(11)
N8? N -0.367(3) 0.8387(13) 0.3460(11)
loop_
_geom_bond_atom_site_label_1
_geom_bond_atom_site_label_2
_geom_bond_site_symmetry_1
_geom_bond_site_symmetry_2
C1 C2 1_555 1_555
C2 C3 1_555 1_555
C3 N2 1_555 1_555
C4 C5 1_555 1_555
C5 C2 1_555 1_555
C6 C5 1_555 1_555
C7 C6 1_555 1_555
C8 C7 1_555 1_555
C9 C4 1_555 1_555
C10 C9 1_555 1_555
C11 C10 1_555 1_555
C12 C11 1_555 1_555
C13 C8 1_555 1_555
C14 C12 1_555 1_555
C15 C14 1_555 1_555
C16 C14 1_555 1_555
F1 C6 1_555 1_555
F2 C7 1_555 1_555
F3 C13 1_555 1_555
F4 C11 1_555 1_555
F5 C10 1_555 1_555
F6 C4 1_555 1_555
N1 C1 1_555 1_555
N3 C15 1_555 1_555
N4 C16 1_555 1_555
C33 C34 1_555 1_555
C34 C35 1_555 1_555
C35 N10 1_555 1_555
C36 C34 1_555 1_555
C37 C36 1_555 1_555
C38 C37 1_555 1_555
C39 C38 1_555 1_555
C40 C39 1_555 1_555
C41 C36 1_555 1_555
C42 C40 1_555 1_555
C43 C42 1_555 1_555
C44 C43 1_555 1_555
C45 C39 1_555 1_555
C46 C44 1_555 1_555
C47 C46 1_555 1_555
C48 C46 1_555 1_555
F13 C37 1_555 1_555
F14 C38 1_555 1_555
F15 C45 1_555 1_555
F16 C43 1_555 1_555
F17 C42 1_555 1_555
F18 C41 1_555 1_555
N9 C33 1_555 1_555
N11 C47 1_555 1_555
N12 C48 1_555 1_555
C49 H1 1_555 1_555
C50 C49 1_555 1_555
H2 C50 1_555 1_555
C51 C50 1_555 1_555
H3 C51 1_555 1_555
C52 C51 1_555 1_555
H4 C52 1_555 1_555
C53 C52 1_555 1_555
C54 C49 1_555 1_555
C55 C54 1_555 1_555
C56 C55 1_555 1_555
H5 C56 1_555 1_555
C57 C56 1_555 1_555
H6 C57 1_555 1_555
C58 C57 1_555 1_555
H7 C58 1_555 1_555
C59 C58 1_555 1_555
H8 C59 1_555 1_555
C60 C55 1_555 1_555
C61 C60 1_555 1_555
C62 C61 1_555 1_555
H9 C62 1_555 1_555
C63 C62 1_555 1_555
H10 C63 1_555 1_555
C64 C63 1_555 1_555
H11 C64 1_555 1_555
C65 C64 1_555 1_555
H12 C65 1_555 1_555
C66 C53 1_555 1_555
C67 H13 1_555 1_555
C68 C67 1_555 1_555
H14 C68 1_555 1_555
C69 C68 1_555 1_555
H15 C69 1_555 1_555
C70 C69 1_555 1_555
H16 C70 1_555 1_555
C71 C70 1_555 1_555
C72 C67 1_555 1_555
C73 C72 1_555 1_555
C74 C73 1_555 1_555
H17 C74 1_555 1_555
C75 C74 1_555 1_555
H18 C75 1_555 1_555
C76 C75 1_555 1_555
H19 C76 1_555 1_555
C77 C76 1_555 1_555
H20 C77 1_555 1_555
C78 C73 1_555 1_555
C79 C78 1_555 1_555
C80 C71 1_555 1_555
C81 C80 1_555 1_555
H21 C81 1_555 1_555
C82 C81 1_555 1_555
H22 C82 1_555 1_555
C83 C82 1_555 1_555
H23 C83 1_555 1_555
C84 C79 1_555 1_555
H24 C84 1_555 1_555
C8 C9 1_555 1_555
C12 C13 1_555 1_555
C40 C41 1_555 1_555
C44 C45 1_555 1_555
C53 C54 1_555 1_555
C59 C60 1_555 1_555
C61 C66 1_555 1_555
C65 C66 1_555 1_555
C71 C72 1_555 1_555
C77 C78 1_555 1_555
C79 C80 1_555 1_555
C83 C84 1_555 1_555

#END
