
#######################################################################
#
#                 Cambridge Crystallographic Data Centre
#                                CCDC 
#
#######################################################################
#
# If this CIF has been generated from an entry in the Cambridge 
# Structural Database, then it will include bibliographic, chemical, 
# crystal, experimental, refinement or atomic coordinate data resulting 
# from the CCDC's data processing and validation procedures.
#
#######################################################################

data_CENTOH
_chemical_formula_moiety         'C16 F6 N4,C16 H10'
_chemical_name_systematic        
"2,2'-(1,3,4,5,7,8-hexafluoronaphthalene-2,6-diylidene)dipropanedinitrile pyrene"
_symmetry_cell_setting           monoclinic
_symmetry_space_group_name_H-M   'P 21/c'
_symmetry_Int_Tables_number      14
_space_group_name_Hall           '-P 2ybc'
loop_
_symmetry_equiv_pos_site_id
_symmetry_equiv_pos_as_xyz
1 x,y,z
2 -x,1/2+y,1/2-z
3 -x,-y,-z
4 x,1/2-y,1/2+z
_cell_length_a                   7.2231(10)
_cell_length_b                   8.4190(13)
_cell_length_c                   19.036(3)
_cell_angle_alpha                90
_cell_angle_beta                 95.086(5)
_cell_angle_gamma                90
_cell_volume                     1153.05
_exptl_crystal_colour            black
_exptl_crystal_description       needle
_cell_formula_units_Z            2
loop_
_atom_site_label
_atom_site_type_symbol
_atom_site_fract_x
_atom_site_fract_y
_atom_site_fract_z
C1 C 0.0084(8) 0.2809(8) 0.5916(3)
H1 H 0.0026 0.2183 0.6329
C2 C 0.0630(8) 0.2126(8) 0.5322(3)
H2 H 0.0948 0.1031 0.5329
C3 C 0.0739(7) 0.3003(7) 0.4694(3)
C4 C 0.0288(6) 0.4619(7) 0.4694(2)
C5 C 0.0408(7) 0.5547(8) 0.4068(3)
C6 C 0.0963(8) 0.4805(10) 0.3472(3)
H3 H 0.1048 0.5409 0.3054
C7 C 0.1397(8) 0.3206(10) 0.3472(3)
H4 H 0.1763 0.2723 0.3055
C8 C 0.1301(8) 0.2310(9) 0.4072(3)
H5 H 0.1615 0.1215 0.4068
C1B C -0.0084(8) 0.7191(8) 0.4084(3)
H1B H -0.0026 0.7817 0.3671
C2B C -0.0630(8) 0.7874(8) 0.4678(3)
H2B H -0.0948 0.8969 0.4671
C3B C -0.0739(7) 0.6997(7) 0.5306(3)
C4B C -0.0288(6) 0.5381(7) 0.5306(2)
C5B C -0.0408(7) 0.4453(8) 0.5932(3)
C6B C -0.0963(8) 0.5195(10) 0.6528(3)
H3B H -0.1048 0.4591 0.6946
C7B C -0.1397(8) 0.6794(10) 0.6528(3)
H4B H -0.1763 0.7277 0.6945
C8B C -0.1301(8) 0.7690(9) 0.5928(3)
H5B H -0.1615 0.8785 0.5932
C9 C 0.3016(9) 0.6021(16) 0.7407(6)
C10 C 0.3354(7) 0.6761(13) 0.6757(5)
C11 C 0.3042(10) 0.8381(15) 0.6754(7)
C12 C 0.3967(5) 0.5913(7) 0.61652(17)
C13 C 0.4271(5) 0.6675(5) 0.5538(2)
C14 C 0.4850(4) 0.5808(5) 0.49760(16)
C15 C 0.4819(5) 0.3416(5) 0.5668(3)
C16 C 0.4241(5) 0.4283(7) 0.6230(2)
F1 F 0.4013(10) 0.8235(9) 0.5499(3)
F2 F 0.510(3) 0.1863(19) 0.5760(12)
F3 F 0.4032(8) 0.3468(7) 0.6826(3)
N1 N 0.255(2) 0.550(2) 0.7934(6)
N2 N 0.276(2) 0.9715(17) 0.6848(10)
C9B C 0.6984(9) 0.3979(16) 0.2593(6)
C10B C 0.6646(7) 0.3239(13) 0.3243(5)
C11B C 0.6958(10) 0.1619(15) 0.3246(7)
C12B C 0.6033(5) 0.4087(7) 0.38348(17)
C13B C 0.5729(5) 0.3325(5) 0.4462(2)
C14B C 0.5150(4) 0.4192(5) 0.50240(16)
C15B C 0.5181(5) 0.6584(5) 0.4332(3)
C16B C 0.5759(5) 0.5717(7) 0.3770(2)
F1B F 0.5987(10) 0.1765(9) 0.4501(3)
F2B F 0.490(3) 0.8137(19) 0.4240(12)
F3B F 0.5968(8) 0.6532(7) 0.3174(3)
N1B N 0.745(2) 0.450(2) 0.2066(6)
N2B N 0.724(2) 0.0285(17) 0.3152(10)
C17? C 0.2818(13) 0.8867(19) 0.6777(11)
C18? C 0.3361(9) 0.7256(17) 0.6670(6)
C19? C 0.3287(14) 0.635(2) 0.7263(9)
C20? C 0.3908(8) 0.6684(11) 0.6024(5)
C21? C 0.4452(8) 0.5070(11) 0.5924(5)
C22? C 0.4998(9) 0.4466(10) 0.5285(4)
C23? C 0.4466(10) 0.7135(10) 0.4800(5)
C24? C 0.3954(12) 0.7660(15) 0.5431(7)
F4? F 0.4514(10) 0.4123(9) 0.6483(4)
F5? F 0.436(3) 0.813(2) 0.4252(15)
F6? F 0.3382(10) 0.9200(9) 0.5452(4)
N3? N 0.249(3) 1.018(2) 0.6894(13)
N4? N 0.290(3) 0.563(3) 0.7747(10)
loop_
_geom_bond_atom_site_label_1
_geom_bond_atom_site_label_2
_geom_bond_site_symmetry_1
_geom_bond_site_symmetry_2
C1 H1 1_555 1_555
C2 C1 1_555 1_555
H2 C2 1_555 1_555
C3 C2 1_555 1_555
C4 C3 1_555 1_555
C5 C4 1_555 1_555
C6 C5 1_555 1_555
H3 C6 1_555 1_555
C7 C6 1_555 1_555
H4 C7 1_555 1_555
C8 C3 1_555 1_555
H5 C8 1_555 1_555
C9 C10 1_555 1_555
C10 C11 1_555 1_555
C11 N2 1_555 1_555
C12 C10 1_555 1_555
C13 C12 1_555 1_555
C14 C13 1_555 1_555
C15 C16 1_555 1_555
C16 C12 1_555 1_555
F1 C13 1_555 1_555
F2 C15 1_555 1_555
F3 C16 1_555 1_555
N1 C9 1_555 1_555
C1B C5 1_555 1_555
H1B C1B 1_555 1_555
C2B C1B 1_555 1_555
H2B C2B 1_555 1_555
C3B C2B 1_555 1_555
C4B C4 1_555 1_555
C5B C1 1_555 1_555
C6B C5B 1_555 1_555
H3B C6B 1_555 1_555
C7B C6B 1_555 1_555
H4B C7B 1_555 1_555
C8B C3B 1_555 1_555
H5B C8B 1_555 1_555
C9B C10B 1_555 1_555
C10B C11B 1_555 1_555
C11B N2B 1_555 1_555
C12B C10B 1_555 1_555
C13B C12B 1_555 1_555
C14B C14 1_555 1_555
C15B C14 1_555 1_555
C16B C12B 1_555 1_555
F1B C13B 1_555 1_555
F2B C15B 1_555 1_555
F3B C16B 1_555 1_555
N1B C9B 1_555 1_555
C7 C8 1_555 1_555
C15 C14B 1_555 1_555
C3B C4B 1_555 1_555
C4B C5B 1_555 1_555
C7B C8B 1_555 1_555
C13B C14B 1_555 1_555
C15B C16B 1_555 1_555

#END
