
#######################################################################
#
#                 Cambridge Crystallographic Data Centre
#                                CCDC 
#
#######################################################################
#
# If this CIF has been generated from an entry in the Cambridge 
# Structural Database, then it will include bibliographic, chemical, 
# crystal, experimental, refinement or atomic coordinate data resulting 
# from the CCDC's data processing and validation procedures.
#
#######################################################################

data_CENVID
_chemical_formula_moiety         'C30 H24 Mg1 N4 O2,C5 H5 N1'
_chemical_name_systematic        
"(2,2'-(1,2-phenylenebis((azanylylidene)methylylidene))bis(phenolato))-bis(pyridine)-magnesium pyridine solvate"
_symmetry_cell_setting           orthorhombic
_symmetry_space_group_name_H-M   'F d d 2'
_symmetry_Int_Tables_number      43
_space_group_name_Hall           'F 2 -2d'
loop_
_symmetry_equiv_pos_site_id
_symmetry_equiv_pos_as_xyz
1 x,y,z
2 -x,-y,z
3 1/4+x,1/4-y,1/4+z
4 1/4-x,1/4+y,1/4+z
5 x,1/2+y,1/2+z
6 -x,1/2-y,1/2+z
7 1/4+x,3/4-y,3/4+z
8 1/4-x,3/4+y,3/4+z
9 1/2+x,y,1/2+z
10 1/2-x,-y,1/2+z
11 3/4+x,1/4-y,3/4+z
12 3/4-x,1/4+y,3/4+z
13 1/2+x,1/2+y,z
14 1/2-x,1/2-y,z
15 3/4+x,3/4-y,1/4+z
16 3/4-x,3/4+y,1/4+z
_cell_length_a                   33.5344(14)
_cell_length_b                   38.2774(15)
_cell_length_c                   18.2612(7)
_cell_angle_alpha                90
_cell_angle_beta                 90
_cell_angle_gamma                90
_cell_volume                     23440.3
_exptl_crystal_colour            yellow
_exptl_crystal_description       block
_cell_formula_units_Z            32
loop_
_atom_site_label
_atom_site_type_symbol
_atom_site_fract_x
_atom_site_fract_y
_atom_site_fract_z
Mg1 Mg 0.56643(5) 0.62282(4) 0.21735(8)
O1 O 0.59133(9) 0.66386(8) 0.26303(17)
O2 O 0.58706(10) 0.57979(8) 0.26290(16)
N1 N 0.53487(11) 0.65939(9) 0.1485(2)
N2 N 0.53075(10) 0.58949(9) 0.14751(19)
N3 N 0.62079(12) 0.62103(9) 0.1335(2)
N4 N 0.51481(12) 0.62505(10) 0.2963(2)
C1 C 0.59357(13) 0.69662(12) 0.2444(2)
C2 C 0.57231(13) 0.71121(11) 0.1838(3)
C3 C 0.57799(14) 0.74660(12) 0.1651(3)
H1 H 0.564651 0.755861 0.123523
C4 C 0.60240(15) 0.76802(12) 0.2057(3)
H2 H 0.605825 0.791831 0.192413
C5 C 0.62213(14) 0.75424(13) 0.2668(3)
H3 H 0.638412 0.768997 0.296042
C6 C 0.61814(14) 0.71969(12) 0.2847(3)
H4 H 0.632402 0.710886 0.325715
C7 C 0.54397(14) 0.69196(12) 0.1396(3)
H5 H 0.531039 0.704207 0.101114
C8 C 0.58266(14) 0.54703(12) 0.2482(2)
C9 C 0.55924(13) 0.53416(11) 0.1882(2)
C10 C 0.55678(14) 0.49784(12) 0.1751(3)
H6 H 0.541663 0.489773 0.134503
C11 C 0.57554(15) 0.47373(12) 0.2192(3)
H7 H 0.573482 0.449414 0.209551
C12 C 0.59757(16) 0.48600(13) 0.2783(3)
H8 H 0.610219 0.469768 0.310107
C13 C 0.60143(16) 0.52122(13) 0.2917(3)
H9 H 0.617362 0.528525 0.331908
C14 C 0.53514(13) 0.55608(11) 0.1413(2)
H10 H 0.521275 0.544909 0.102488
C15 C 0.50306(13) 0.64411(11) 0.1088(2)
C16 C 0.50126(13) 0.60753(11) 0.1072(2)
C17 C 0.46938(13) 0.59142(12) 0.0700(2)
H11 H 0.467976 0.566653 0.068122
C18 C 0.44032(14) 0.61093(13) 0.0364(3)
H12 H 0.419328 0.599562 0.010893
C19 C 0.44138(14) 0.64719(13) 0.0395(3)
H13 H 0.420860 0.660597 0.017199
C20 C 0.47248(14) 0.66361(13) 0.0753(3)
H14 H 0.473257 0.688406 0.077211
C21 C 0.63825(16) 0.64996(13) 0.1076(3)
H15 H 0.624847 0.671615 0.113994
C22 C 0.67459(17) 0.65012(14) 0.0722(3)
H16 H 0.685594 0.671347 0.054347
C23 C 0.69471(18) 0.61900(14) 0.0631(3)
H17 H 0.720186 0.618365 0.040363
C24 C 0.67684(17) 0.58897(14) 0.0878(3)
H18 H 0.689518 0.566990 0.081288
C25 C 0.64027(15) 0.59104(13) 0.1222(3)
H19 H 0.628280 0.569991 0.138786
C26 C 0.50334(17) 0.65491(14) 0.3269(3)
H20 H 0.516511 0.675796 0.312576
C27 C 0.47331(18) 0.65716(16) 0.3783(3)
H21 H 0.466465 0.679129 0.398948
C28 C 0.4535(2) 0.62768(17) 0.3993(3)
H22 H 0.432959 0.628672 0.435124
C29 C 0.4639(2) 0.59650(18) 0.3672(4)
H23 H 0.450509 0.575483 0.379767
C30 C 0.4947(2) 0.59642(16) 0.3158(4)
H24 H 0.501623 0.574869 0.293363
Mg2 Mg 0.57649(4) 0.62842(4) 0.68820(8)
O3 O 0.60588(9) 0.67233(8) 0.70323(17)
O4 O 0.61335(8) 0.58916(7) 0.70512(16)
N5 N 0.52386(11) 0.65983(9) 0.6726(2)
N6 N 0.53060(11) 0.59048(9) 0.66330(19)
N7 N 0.59158(12) 0.62875(9) 0.5678(2)
N8 N 0.56292(11) 0.62517(9) 0.8140(2)
C31 C 0.59398(14) 0.70406(12) 0.7156(2)
C32 C 0.55294(13) 0.71460(12) 0.7144(3)
C33 C 0.54323(16) 0.74943(13) 0.7314(3)
H25 H 0.515961 0.756141 0.730783
C34 C 0.57105(17) 0.77396(14) 0.7487(3)
H26 H 0.563440 0.797318 0.759435
C35 C 0.61134(17) 0.76385(13) 0.7504(3)
H27 H 0.631163 0.780554 0.762879
C36 C 0.62248(15) 0.73017(12) 0.7342(3)
H28 H 0.649950 0.724138 0.735559
C37 C 0.52054(14) 0.69199(11) 0.6940(2)
H29 H 0.494386 0.701454 0.696442
C38 C 0.60892(13) 0.55561(11) 0.7023(2)
C39 C 0.57272(13) 0.53903(11) 0.6814(2)
C40 C 0.57103(14) 0.50218(12) 0.6774(3)
H30 H 0.546846 0.491413 0.662388
C41 C 0.60314(14) 0.48134(12) 0.6944(3)
H31 H 0.601466 0.456610 0.691168
C42 C 0.63836(16) 0.49785(13) 0.7167(3)
H32 H 0.6542(10) 0.4813(16) 0.724(4)
C43 C 0.64131(14) 0.53332(12) 0.7200(3)
H33 H 0.665896 0.543473 0.734628
C44 C 0.53627(14) 0.55705(12) 0.6629(2)
H34 H 0.514220 0.542935 0.649095
C45 C 0.49030(13) 0.64151(11) 0.6450(2)
C46 C 0.49360(13) 0.60500(11) 0.6394(2)
C47 C 0.46219(14) 0.58590(12) 0.6085(3)
H35 H 0.464647 0.561306 0.603197
C48 C 0.42778(14) 0.60229(13) 0.5858(3)
H36 H 0.406456 0.588956 0.566021
C49 C 0.42432(14) 0.63830(13) 0.5918(3)
H37 H 0.400572 0.649605 0.576235
C50 C 0.45517(14) 0.65765(12) 0.6204(3)
H38 H 0.452683 0.682329 0.623427
C51 C 0.5793(2) 0.6544(2) 0.5245(4)
H39 H 0.564616 0.672972 0.545931
C52 C 0.5864(2) 0.6556(2) 0.4512(5)
H40 H 0.576213 0.673587 0.420748
C53 C 0.6126(2) 0.6251(2) 0.4211(4)
H41 H 0.618432 0.622972 0.370393
C54 C 0.6247(3) 0.6049(3) 0.4637(6)
H42 H 0.641229 0.586569 0.446021
C55 C 0.6167(3) 0.6058(2) 0.5390(4)
H43 H 0.629589 0.589531 0.570240
C56 C 0.56953(15) 0.65162(12) 0.8603(3)
H44 H 0.573353 0.674299 0.840388
C57 C 0.57109(17) 0.64789(14) 0.9349(3)
H45 H 0.575954 0.667524 0.965397
C58 C 0.56550(15) 0.61520(13) 0.9649(3)
H46 H 0.566915 0.611773 1.016389
C59 C 0.55784(16) 0.58772(13) 0.9186(3)
H47 H 0.553353 0.564927 0.937436
C60 C 0.55680(15) 0.59390(12) 0.8441(3)
H48 H 0.551414 0.574770 0.812469
N9 N 0.76313(16) 0.50950(16) 0.7838(3)
C65 C 0.8031(2) 0.5051(2) 0.7619(5)
H54 H 0.823831 0.505392 0.797440
C66 C 0.8122(3) 0.5003(2) 0.6893(5)
H55 H 0.838849 0.495977 0.674101
C67 C 0.78226(19) 0.5019(2) 0.6402(4)
H56 H 0.786190 0.507266 0.589927
C68 C 0.7473(2) 0.49519(16) 0.6685(3)
H57 H 0.727088 0.487339 0.635947
C69 C 0.73736(16) 0.49837(15) 0.7386(3)
H58 H 0.711299 0.492390 0.754687
N10 N 0.750000 0.750000 0.2351(4)
C72 C 0.71788(18) 0.74135(15) 0.1959(4)
H62 H 0.694416 0.734499 0.221276
C73 C 0.7171(2) 0.74186(15) 0.1211(4)
H63 H 0.693228 0.736445 0.095523
C74 C 0.750000 0.750000 0.0847(5)
H64 H 0.750000 0.749999 0.032686
C72M C 0.78212(18) 0.75865(15) 0.1959(4)
H62M H 0.805584 0.765501 0.221276
C73M C 0.7829(2) 0.75814(15) 0.1211(4)
H63M H 0.806772 0.763555 0.095523
N11 N 0.500000 0.500000 0.5312(3)
C75 C 0.52446(19) 0.52010(18) 0.4925(3)
H65 H 0.542706 0.534563 0.518250
C76 C 0.5249(2) 0.5212(2) 0.4176(3)
H66 H 0.542406 0.536599 0.392640
C77 C 0.500000 0.500000 0.3791(5)
H67 H 0.499998 0.500002 0.327035
C75A C 0.47554(19) 0.47990(18) 0.4925(3)
H65A H 0.457294 0.465437 0.518250
C76A C 0.4751(2) 0.4788(2) 0.4176(3)
H66A H 0.457594 0.463401 0.392640
C61? C 0.6264(4) 0.6339(3) 0.5483(7)
H49? H 0.644252 0.643624 0.583194
C62? C 0.6417(4) 0.6264(4) 0.4777(8)
H50? H 0.669240 0.622495 0.468906
H51? H 0.616730 0.635092 0.374147
C63? C 0.5783(4) 0.6081(4) 0.4400(7)
H52? H 0.564195 0.593441 0.406944
C64? C 0.5656(4) 0.6141(3) 0.5110(7)
H53? H 0.538826 0.608406 0.523477
C70? C 0.7929(4) 0.5372(4) 0.7583(8)
H59? H 0.803191 0.554637 0.790021
C71? C 0.8036(4) 0.5348(3) 0.6871(8)
H60? H 0.821802 0.550658 0.665036
H61? H 0.793799 0.490006 0.599670
loop_
_geom_bond_atom_site_label_1
_geom_bond_atom_site_label_2
_geom_bond_site_symmetry_1
_geom_bond_site_symmetry_2
Mg1 O1 1_555 1_555
O1 C1 1_555 1_555
O2 Mg1 1_555 1_555
N1 Mg1 1_555 1_555
N2 Mg1 1_555 1_555
N3 Mg1 1_555 1_555
N4 Mg1 1_555 1_555
C1 C2 1_555 1_555
C2 C3 1_555 1_555
C3 H1 1_555 1_555
C4 C3 1_555 1_555
H2 C4 1_555 1_555
C5 C4 1_555 1_555
H3 C5 1_555 1_555
C6 C1 1_555 1_555
H4 C6 1_555 1_555
C7 N1 1_555 1_555
H5 C7 1_555 1_555
C8 O2 1_555 1_555
C9 C8 1_555 1_555
C10 C9 1_555 1_555
H6 C10 1_555 1_555
C11 C10 1_555 1_555
H7 C11 1_555 1_555
C12 C11 1_555 1_555
H8 C12 1_555 1_555
C13 C8 1_555 1_555
H9 C13 1_555 1_555
C14 N2 1_555 1_555
H10 C14 1_555 1_555
C15 N1 1_555 1_555
C16 N2 1_555 1_555
C17 C16 1_555 1_555
H11 C17 1_555 1_555
C18 C17 1_555 1_555
H12 C18 1_555 1_555
C19 C18 1_555 1_555
H13 C19 1_555 1_555
C20 C15 1_555 1_555
H14 C20 1_555 1_555
C21 N3 1_555 1_555
H15 C21 1_555 1_555
C22 C21 1_555 1_555
H16 C22 1_555 1_555
C23 C22 1_555 1_555
H17 C23 1_555 1_555
C24 C23 1_555 1_555
H18 C24 1_555 1_555
C25 N3 1_555 1_555
H19 C25 1_555 1_555
C26 N4 1_555 1_555
H20 C26 1_555 1_555
C27 C26 1_555 1_555
H21 C27 1_555 1_555
C28 C27 1_555 1_555
H22 C28 1_555 1_555
C29 C28 1_555 1_555
H23 C29 1_555 1_555
C30 N4 1_555 1_555
H24 C30 1_555 1_555
Mg2 O3 1_555 1_555
O3 C31 1_555 1_555
O4 Mg2 1_555 1_555
N5 Mg2 1_555 1_555
N6 Mg2 1_555 1_555
N7 Mg2 1_555 1_555
N8 Mg2 1_555 1_555
C31 C32 1_555 1_555
C32 C33 1_555 1_555
C33 H25 1_555 1_555
C34 C33 1_555 1_555
H26 C34 1_555 1_555
C35 C34 1_555 1_555
H27 C35 1_555 1_555
C36 C31 1_555 1_555
H28 C36 1_555 1_555
C37 N5 1_555 1_555
H29 C37 1_555 1_555
C38 O4 1_555 1_555
C39 C38 1_555 1_555
C40 C39 1_555 1_555
H30 C40 1_555 1_555
C41 C40 1_555 1_555
H31 C41 1_555 1_555
C42 C41 1_555 1_555
H32 C42 1_555 1_555
C43 C38 1_555 1_555
H33 C43 1_555 1_555
C44 N6 1_555 1_555
H34 C44 1_555 1_555
C45 N5 1_555 1_555
C46 N6 1_555 1_555
C47 C46 1_555 1_555
H35 C47 1_555 1_555
C48 C47 1_555 1_555
H36 C48 1_555 1_555
C49 C48 1_555 1_555
H37 C49 1_555 1_555
C50 C45 1_555 1_555
H38 C50 1_555 1_555
C51 N7 1_555 1_555
H39 C51 1_555 1_555
C52 C51 1_555 1_555
H40 C52 1_555 1_555
C53 C52 1_555 1_555
H41 C53 1_555 1_555
C54 C53 1_555 1_555
H42 C54 1_555 1_555
C55 N7 1_555 1_555
H43 C55 1_555 1_555
C56 N8 1_555 1_555
H44 C56 1_555 1_555
C57 C56 1_555 1_555
H45 C57 1_555 1_555
C58 C57 1_555 1_555
H46 C58 1_555 1_555
C59 C58 1_555 1_555
H47 C59 1_555 1_555
C60 N8 1_555 1_555
H48 C60 1_555 1_555
N9 C65 1_555 1_555
C65 H54 1_555 1_555
C66 C65 1_555 1_555
H55 C66 1_555 1_555
C67 C66 1_555 1_555
H56 C67 1_555 1_555
C68 C67 1_555 1_555
H57 C68 1_555 1_555
C69 N9 1_555 1_555
H58 C69 1_555 1_555
N10 C72 1_555 1_555
C72 H62 1_555 1_555
C73 C72 1_555 1_555
H63 C73 1_555 1_555
C74 C73 1_555 1_555
H64 C74 1_555 1_555
N11 C75 1_555 1_555
C75 H65 1_555 1_555
C76 C75 1_555 1_555
H66 C76 1_555 1_555
C77 C76 1_555 1_555
H67 C77 1_555 1_555
C72M N10 1_555 1_555
H62M C72M 1_555 1_555
C73M C74 1_555 1_555
H63M C73M 1_555 1_555
C75A N11 1_555 1_555
H65A C75A 1_555 1_555
C76A C77 1_555 1_555
H66A C76A 1_555 1_555
C2 C7 1_555 1_555
C5 C6 1_555 1_555
C9 C14 1_555 1_555
C12 C13 1_555 1_555
C15 C16 1_555 1_555
C19 C20 1_555 1_555
C24 C25 1_555 1_555
C29 C30 1_555 1_555
C32 C37 1_555 1_555
C35 C36 1_555 1_555
C39 C44 1_555 1_555
C42 C43 1_555 1_555
C45 C46 1_555 1_555
C49 C50 1_555 1_555
C54 C55 1_555 1_555
C59 C60 1_555 1_555
C68 C69 1_555 1_555
C72M C73M 1_555 1_555
C75A C76A 1_555 1_555

#END
