
#######################################################################
#
#                 Cambridge Crystallographic Data Centre
#                                CCDC 
#
#######################################################################
#
# If this CIF has been generated from an entry in the Cambridge 
# Structural Database, then it will include bibliographic, chemical, 
# crystal, experimental, refinement or atomic coordinate data resulting 
# from the CCDC's data processing and validation procedures.
#
#######################################################################

data_CENVEZ
_chemical_formula_moiety         'C84 H66 Mg4 N8 O8,2(C7 H8)'
_chemical_name_systematic        
"(\m-2,2'-(1,2-phenylenebis(azanylylidenemethylylidene))diphenolato)-(\m-2-(((2-((1-(2-oxidophenyl)pentyl)amino)phenyl)imino)methyl)phenolato)-bis(2,2'-(1,2-phenylenebis(azanylylidenemethylylidene))diphenolato)-tetra-magnesium toluene solvate"
_symmetry_cell_setting           monoclinic
_symmetry_space_group_name_H-M   'P 21/n'
_symmetry_Int_Tables_number      14
_space_group_name_Hall           '-P 2yn'
loop_
_symmetry_equiv_pos_site_id
_symmetry_equiv_pos_as_xyz
1 x,y,z
2 1/2-x,1/2+y,1/2-z
3 -x,-y,-z
4 1/2+x,1/2-y,1/2+z
_cell_length_a                   14.739(3)
_cell_length_b                   15.050(3)
_cell_length_c                   36.709(7)
_cell_angle_alpha                90
_cell_angle_beta                 95.769(5)
_cell_angle_gamma                90
_cell_volume                     8101.62
_exptl_crystal_colour            yellow
_exptl_crystal_description       plank
_cell_formula_units_Z            4
loop_
_atom_site_label
_atom_site_type_symbol
_atom_site_fract_x
_atom_site_fract_y
_atom_site_fract_z
Mg1 Mg 0.73906(19) 0.45190(18) 0.16081(7)
Mg2 Mg 0.5729(2) 0.34180(17) 0.13482(7)
Mg3 Mg 0.56151(19) 0.14263(18) 0.10835(7)
Mg4 Mg 0.7330(2) 0.05590(18) 0.08218(7)
O1 O 0.8386(4) 0.4007(3) 0.19200(14)
O2 O 0.6270(4) 0.4118(3) 0.18176(14)
O3 O 0.6924(4) 0.3820(3) 0.11778(13)
O4 O 0.5111(4) 0.2654(3) 0.09378(14)
O5 O 0.6115(4) 0.2177(3) 0.15189(14)
O6 O 0.6364(4) 0.1406(3) 0.06555(14)
O7 O 0.6462(4) 0.0265(3) 0.11803(14)
O8 O 0.7354(4) -0.0415(4) 0.04764(15)
N1 N 0.8355(5) 0.5435(4) 0.14334(18)
N2 N 0.6715(5) 0.5783(4) 0.15756(19)
N3 N 0.5244(5) 0.4608(4) 0.1042(2)
N4 N 0.4312(5) 0.3684(4) 0.15278(19)
N5 N 0.4741(5) 0.0884(4) 0.14692(19)
N6 N 0.4606(5) 0.0694(4) 0.07490(19)
N7 N 0.8177(5) 0.1019(4) 0.13027(19)
N8 N 0.8547(5) 0.1029(4) 0.0621(2)
C1 C 0.9243(7) 0.4170(6) 0.1970(2)
C2 C 0.9690(6) 0.4840(6) 0.1786(2)
C3 C 1.0638(7) 0.4963(6) 0.1862(3)
H1 H 1.093530 0.539633 0.172784
C4 C 1.1149(7) 0.4470(7) 0.2128(3)
H2 H 1.178310 0.457676 0.218457
C5 C 1.0712(7) 0.3825(6) 0.2306(3)
H3 H 1.105703 0.347606 0.248548
C6 C 0.9804(7) 0.3663(6) 0.2236(2)
H4 H 0.953496 0.320372 0.236631
C7 C 0.9218(7) 0.5463(6) 0.1532(2)
H5 H 0.956596 0.591726 0.143204
C8 C 0.5804(6) 0.4548(6) 0.2052(2)
C9 C 0.5718(6) 0.5494(6) 0.2049(2)
C10 C 0.5186(6) 0.5900(6) 0.2299(3)
H6 H 0.510037 0.652553 0.228630
C11 C 0.4789(7) 0.5432(7) 0.2557(3)
H7 H 0.445541 0.572658 0.273017
C12 C 0.4882(6) 0.4516(7) 0.2562(3)
H8 H 0.459977 0.417865 0.273847
C13 C 0.5381(6) 0.4082(6) 0.2315(3)
H9 H 0.543473 0.345280 0.232601
C14 C 0.6113(6) 0.6044(6) 0.1786(2)
H10 H 0.591615 0.664478 0.176519
C15 C 0.7937(7) 0.6156(6) 0.1231(2)
C16 C 0.7044(6) 0.6373(6) 0.1320(2)
C17 C 0.6585(7) 0.7086(5) 0.1146(2)
H11 H 0.599003 0.723561 0.120407
C18 C 0.6985(7) 0.7575(6) 0.0889(3)
H12 H 0.666789 0.806331 0.077178
C19 C 0.7845(8) 0.7358(6) 0.0802(3)
H13 H 0.811293 0.769756 0.062318
C20 C 0.8324(6) 0.6660(6) 0.0970(2)
H14 H 0.891755 0.652229 0.090714
C21 C 0.7042(6) 0.3990(5) 0.0827(2)
C22 C 0.6340(7) 0.4417(5) 0.0599(2)
C23 C 0.6485(7) 0.4565(6) 0.0226(2)
H15 H 0.602462 0.485030 0.006760
C24 C 0.7274(8) 0.4304(6) 0.0093(3)
H16 H 0.735159 0.440300 -0.015758
C25 C 0.7967(7) 0.3895(6) 0.0317(2)
H17 H 0.851879 0.372124 0.022452
C26 C 0.7830(7) 0.3747(5) 0.0681(2)
H18 H 0.830014 0.346599 0.083553
C27 C 0.5536(7) 0.4770(5) 0.0731(2)
H19 H 0.518138 0.516492 0.057264
C28 C 0.4326(7) 0.2956(5) 0.0753(2)
C29 C 0.3580(7) 0.3144(6) 0.0936(3)
C30 C 0.2800(7) 0.3512(6) 0.0753(3)
H20 H 0.229677 0.366629 0.088297
C31 C 0.2765(8) 0.3651(6) 0.0375(3)
H21 H 0.223481 0.390324 0.024653
C32 C 0.3487(8) 0.3428(6) 0.0190(3)
H22 H 0.344430 0.351343 -0.006722
C33 C 0.4289(7) 0.3078(5) 0.0368(3)
H23 H 0.479038 0.292710 0.023686
C34 C 0.3675(7) 0.2994(6) 0.1344(3)
H24 H 0.400594 0.241582 0.138216
C35 C 0.2792(7) 0.2872(7) 0.1518(3)
H25 H 0.245018 0.343875 0.150551
H26 H 0.241188 0.242055 0.137839
C36 C 0.2964(8) 0.2581(8) 0.1912(3)
H27 H 0.353151 0.222580 0.194020
H28 H 0.306979 0.311823 0.206660
C37 C 0.2249(11) 0.2067(10) 0.2053(4)
H29 H 0.215885 0.151117 0.190941
H30 H 0.167264 0.240819 0.202066
C38 C 0.2484(12) 0.1818(11) 0.2488(4)
H31 H 0.301878 0.142770 0.251783
H32 H 0.196126 0.151432 0.257678
H33 H 0.261339 0.236456 0.262913
C39 C 0.4501(6) 0.5049(6) 0.1174(3)
C40 C 0.4057(7) 0.4594(7) 0.1435(3)
C41 C 0.3395(7) 0.5035(7) 0.1602(3)
H34 H 0.308338 0.472853 0.177794
C42 C 0.3169(8) 0.5909(8) 0.1522(4)
H35 H 0.272337 0.620749 0.164680
C43 C 0.3607(8) 0.6336(7) 0.1257(3)
H36 H 0.343799 0.692877 0.119232
C44 C 0.4283(7) 0.5928(6) 0.1082(3)
H37 H 0.458984 0.623741 0.090524
C45 C 0.6317(6) 0.1876(5) 0.1861(2)
C46 C 0.5768(6) 0.1239(5) 0.2014(2)
C47 C 0.6010(7) 0.0939(5) 0.2375(2)
H38 H 0.564061 0.050533 0.247693
C48 C 0.6756(7) 0.1254(6) 0.2581(2)
H39 H 0.689831 0.105209 0.282540
C49 C 0.7307(6) 0.1870(6) 0.2434(2)
H40 H 0.784054 0.207827 0.257510
C50 C 0.7087(6) 0.2192(5) 0.2077(2)
H41 H 0.746356 0.262785 0.198134
C51 C 0.5010(6) 0.0806(6) 0.1814(3)
H42 H 0.466473 0.041641 0.194976
C52 C 0.6017(6) 0.1527(6) 0.0305(2)
C53 C 0.5153(6) 0.1164(6) 0.0178(2)
C54 C 0.4841(7) 0.1284(6) -0.0198(2)
H43 H 0.428514 0.101572 -0.029508
C55 C 0.5330(7) 0.1780(6) -0.0422(2)
H44 H 0.509943 0.186387 -0.067124
C56 C 0.6150(7) 0.2161(6) -0.0293(2)
H45 H 0.647823 0.251571 -0.044941
C57 C 0.6491(7) 0.2019(6) 0.0069(2)
H46 H 0.706461 0.226698 0.015707
C58 C 0.4555(6) 0.0694(5) 0.0395(2)
H47 H 0.407970 0.035416 0.026867
C59 C 0.4009(7) 0.0356(6) 0.1318(3)
C60 C 0.3956(6) 0.0233(5) 0.0934(3)
C61 C 0.3264(6) -0.0311(6) 0.0772(3)
H48 H 0.321822 -0.041041 0.051566
C62 C 0.2645(7) -0.0707(7) 0.0979(3)
H49 H 0.219170 -0.109037 0.086334
C63 C 0.2676(8) -0.0549(8) 0.1359(3)
H50 H 0.224308 -0.080965 0.150174
C64 C 0.3363(7) 0.0000(7) 0.1515(3)
H51 H 0.338393 0.013349 0.176861
C65 C 0.6673(7) -0.0181(6) 0.1498(2)
C66 C 0.7482(7) 0.0062(6) 0.1721(2)
C67 C 0.7653(7) -0.0377(6) 0.2068(2)
H52 H 0.818286 -0.022524 0.222472
C68 C 0.7068(8) -0.1012(6) 0.2181(3)
H53 H 0.718264 -0.128112 0.241528
C69 C 0.6307(8) -0.1252(6) 0.1946(3)
H54 H 0.590453 -0.169764 0.201758
C70 C 0.6134(7) -0.0847(6) 0.1610(2)
H55 H 0.562269 -0.103644 0.145117
C71 C 0.8149(6) 0.0675(6) 0.1624(2)
H56 H 0.861034 0.084669 0.180986
C72 C 0.7784(6) -0.0521(5) 0.0188(2)
C73 C 0.8480(6) 0.0062(5) 0.0090(2)
C74 C 0.8892(6) -0.0085(6) -0.0237(2)
H57 H 0.935154 0.031272 -0.029999
C75 C 0.8649(6) -0.0778(6) -0.0464(2)
H58 H 0.892160 -0.086100 -0.068508
C76 C 0.7986(6) -0.1365(6) -0.0360(3)
H59 H 0.781550 -0.185802 -0.051396
C77 C 0.7575(6) -0.1256(6) -0.0046(2)
H60 H 0.714015 -0.168084 0.001659
C78 C 0.8876(6) 0.0758(5) 0.0324(2)
H61 H 0.941177 0.103897 0.025645
C79 C 0.8870(6) 0.1605(6) 0.1229(2)
C80 C 0.9069(6) 0.1636(6) 0.0856(2)
C81 C 0.9722(6) 0.2201(6) 0.0754(3)
H62 H 0.984416 0.222754 0.050476
C82 C 1.0208(6) 0.2737(6) 0.1014(3)
H63 H 1.067732 0.311598 0.094451
C83 C 1.0002(7) 0.2715(7) 0.1375(3)
H64 H 1.032401 0.309182 0.155105
C84 C 0.9354(7) 0.2168(6) 0.1479(3)
H65 H 0.922380 0.216607 0.172685
C85 C 0.5167(8) 0.3483(7) 0.3655(3)
C86 C 0.4359(8) 0.3045(7) 0.3567(3)
H66 H 0.387752 0.310878 0.371865
C87 C 0.4238(8) 0.2517(6) 0.3263(3)
H67 H 0.366368 0.224239 0.319948
C88 C 0.4930(9) 0.2378(6) 0.3048(3)
H68 H 0.484061 0.200724 0.283781
C89 C 0.5760(9) 0.2786(7) 0.3140(3)
H69 H 0.625334 0.268655 0.299735
C90 C 0.5873(8) 0.3346(6) 0.3445(3)
H70 H 0.644104 0.363443 0.350662
C91 C 0.5297(8) 0.4119(7) 0.3981(3)
H71 H 0.505551 0.470533 0.390675
H72 H 0.594752 0.416896 0.406410
H73 H 0.496984 0.388963 0.418086
C92 C 0.0567(14) 0.5889(9) 0.0548(4)
C93 C -0.0228(12) 0.6043(13) 0.0307(4)
H74 H -0.061025 0.555394 0.023230
C94 C -0.0454(12) 0.6830(12) 0.0184(4)
H75 H -0.101544 0.691194 0.003638
C95 C 0.0064(12) 0.7490(12) 0.0259(4)
H76 H -0.015200 0.805984 0.018021
C96 C 0.0888(12) 0.7438(12) 0.0439(4)
H77 H 0.127916 0.794163 0.045728
C97 C 0.1190(12) 0.6582(13) 0.0611(4)
H78 H 0.176133 0.651231 0.075282
C98 C 0.0626(15) 0.4965(10) 0.0680(4)
H79 H 0.007463 0.481639 0.079579
H80 H 0.116170 0.489811 0.085847
H81 H 0.068011 0.456393 0.047260
loop_
_geom_bond_atom_site_label_1
_geom_bond_atom_site_label_2
_geom_bond_site_symmetry_1
_geom_bond_site_symmetry_2
Mg1 O1 1_555 1_555
Mg2 O2 1_555 1_555
Mg3 O4 1_555 1_555
Mg4 O6 1_555 1_555
O1 C1 1_555 1_555
O2 Mg1 1_555 1_555
O3 Mg1 1_555 1_555
O4 Mg2 1_555 1_555
O5 Mg2 1_555 1_555
O6 Mg3 1_555 1_555
O7 Mg3 1_555 1_555
O8 Mg4 1_555 1_555
N1 Mg1 1_555 1_555
N2 Mg1 1_555 1_555
N3 Mg2 1_555 1_555
N4 Mg2 1_555 1_555
N5 Mg3 1_555 1_555
N6 Mg3 1_555 1_555
N7 Mg4 1_555 1_555
N8 Mg4 1_555 1_555
C1 C2 1_555 1_555
C2 C3 1_555 1_555
C3 H1 1_555 1_555
C4 C3 1_555 1_555
H2 C4 1_555 1_555
C5 C4 1_555 1_555
H3 C5 1_555 1_555
C6 C1 1_555 1_555
H4 C6 1_555 1_555
C7 N1 1_555 1_555
H5 C7 1_555 1_555
C8 O2 1_555 1_555
C9 C8 1_555 1_555
C10 C9 1_555 1_555
H6 C10 1_555 1_555
C11 C10 1_555 1_555
H7 C11 1_555 1_555
C12 C11 1_555 1_555
H8 C12 1_555 1_555
C13 C8 1_555 1_555
H9 C13 1_555 1_555
C14 N2 1_555 1_555
H10 C14 1_555 1_555
C15 N1 1_555 1_555
C16 N2 1_555 1_555
C17 C16 1_555 1_555
H11 C17 1_555 1_555
C18 C17 1_555 1_555
H12 C18 1_555 1_555
C19 C18 1_555 1_555
H13 C19 1_555 1_555
C20 C15 1_555 1_555
H14 C20 1_555 1_555
C21 O3 1_555 1_555
C22 C21 1_555 1_555
C23 C22 1_555 1_555
H15 C23 1_555 1_555
C24 C23 1_555 1_555
H16 C24 1_555 1_555
C25 C24 1_555 1_555
H17 C25 1_555 1_555
C26 C21 1_555 1_555
H18 C26 1_555 1_555
C27 N3 1_555 1_555
H19 C27 1_555 1_555
C28 O4 1_555 1_555
C29 C28 1_555 1_555
C30 C29 1_555 1_555
H20 C30 1_555 1_555
C31 C30 1_555 1_555
H21 C31 1_555 1_555
C32 C31 1_555 1_555
H22 C32 1_555 1_555
C33 C28 1_555 1_555
H23 C33 1_555 1_555
C34 N4 1_555 1_555
H24 C34 1_555 1_555
C35 C34 1_555 1_555
H25 C35 1_555 1_555
H26 C35 1_555 1_555
C36 C35 1_555 1_555
H27 C36 1_555 1_555
H28 C36 1_555 1_555
C37 C36 1_555 1_555
H29 C37 1_555 1_555
H30 C37 1_555 1_555
C38 C37 1_555 1_555
H31 C38 1_555 1_555
H32 C38 1_555 1_555
H33 C38 1_555 1_555
C39 N3 1_555 1_555
C40 N4 1_555 1_555
C41 C40 1_555 1_555
H34 C41 1_555 1_555
C42 C41 1_555 1_555
H35 C42 1_555 1_555
C43 C42 1_555 1_555
H36 C43 1_555 1_555
C44 C39 1_555 1_555
H37 C44 1_555 1_555
C45 O5 1_555 1_555
C46 C45 1_555 1_555
C47 C46 1_555 1_555
H38 C47 1_555 1_555
C48 C47 1_555 1_555
H39 C48 1_555 1_555
C49 C48 1_555 1_555
H40 C49 1_555 1_555
C50 C45 1_555 1_555
H41 C50 1_555 1_555
C51 N5 1_555 1_555
H42 C51 1_555 1_555
C52 O6 1_555 1_555
C53 C52 1_555 1_555
C54 C53 1_555 1_555
H43 C54 1_555 1_555
C55 C54 1_555 1_555
H44 C55 1_555 1_555
C56 C55 1_555 1_555
H45 C56 1_555 1_555
C57 C52 1_555 1_555
H46 C57 1_555 1_555
C58 N6 1_555 1_555
H47 C58 1_555 1_555
C59 N5 1_555 1_555
C60 N6 1_555 1_555
C61 C60 1_555 1_555
H48 C61 1_555 1_555
C62 C61 1_555 1_555
H49 C62 1_555 1_555
C63 C62 1_555 1_555
H50 C63 1_555 1_555
C64 C59 1_555 1_555
H51 C64 1_555 1_555
C65 O7 1_555 1_555
C66 C65 1_555 1_555
C67 C66 1_555 1_555
H52 C67 1_555 1_555
C68 C67 1_555 1_555
H53 C68 1_555 1_555
C69 C68 1_555 1_555
H54 C69 1_555 1_555
C70 C65 1_555 1_555
H55 C70 1_555 1_555
C71 N7 1_555 1_555
H56 C71 1_555 1_555
C72 O8 1_555 1_555
C73 C72 1_555 1_555
C74 C73 1_555 1_555
H57 C74 1_555 1_555
C75 C74 1_555 1_555
H58 C75 1_555 1_555
C76 C75 1_555 1_555
H59 C76 1_555 1_555
C77 C72 1_555 1_555
H60 C77 1_555 1_555
C78 N8 1_555 1_555
H61 C78 1_555 1_555
C79 N7 1_555 1_555
C80 N8 1_555 1_555
C81 C80 1_555 1_555
H62 C81 1_555 1_555
C82 C81 1_555 1_555
H63 C82 1_555 1_555
C83 C82 1_555 1_555
H64 C83 1_555 1_555
C84 C79 1_555 1_555
H65 C84 1_555 1_555
C85 C86 1_555 1_555
C86 H66 1_555 1_555
C87 C86 1_555 1_555
H67 C87 1_555 1_555
C88 C87 1_555 1_555
H68 C88 1_555 1_555
C89 C88 1_555 1_555
H69 C89 1_555 1_555
C90 C85 1_555 1_555
H70 C90 1_555 1_555
C91 C85 1_555 1_555
H71 C91 1_555 1_555
H72 C91 1_555 1_555
H73 C91 1_555 1_555
C92 C93 1_555 1_555
C93 H74 1_555 1_555
C94 C93 1_555 1_555
H75 C94 1_555 1_555
C95 C94 1_555 1_555
H76 C95 1_555 1_555
C96 C95 1_555 1_555
H77 C96 1_555 1_555
C97 C92 1_555 1_555
H78 C97 1_555 1_555
C98 C92 1_555 1_555
H79 C98 1_555 1_555
H80 C98 1_555 1_555
H81 C98 1_555 1_555
Mg2 O3 1_555 1_555
Mg3 O5 1_555 1_555
Mg4 O7 1_555 1_555
C2 C7 1_555 1_555
C5 C6 1_555 1_555
C9 C14 1_555 1_555
C12 C13 1_555 1_555
C15 C16 1_555 1_555
C19 C20 1_555 1_555
C22 C27 1_555 1_555
C25 C26 1_555 1_555
C29 C34 1_555 1_555
C32 C33 1_555 1_555
C39 C40 1_555 1_555
C43 C44 1_555 1_555
C46 C51 1_555 1_555
C49 C50 1_555 1_555
C53 C58 1_555 1_555
C56 C57 1_555 1_555
C59 C60 1_555 1_555
C63 C64 1_555 1_555
C66 C71 1_555 1_555
C69 C70 1_555 1_555
C73 C78 1_555 1_555
C76 C77 1_555 1_555
C79 C80 1_555 1_555
C83 C84 1_555 1_555
C89 C90 1_555 1_555
C96 C97 1_555 1_555

#END
