
#######################################################################
#
#                 Cambridge Crystallographic Data Centre
#                                CCDC 
#
#######################################################################
#
# If this CIF has been generated from an entry in the Cambridge 
# Structural Database, then it will include bibliographic, chemical, 
# crystal, experimental, refinement or atomic coordinate data resulting 
# from the CCDC's data processing and validation procedures.
#
#######################################################################

data_CENWOK
_chemical_formula_moiety         'C51 H61 Ca1 N5 O2,C5 H5 N1'
_chemical_name_systematic        
"(2,2'-(1,2-phenylenebis((azanylylidene)methylylidene))bis(4,6-di-t-butylphenolato))-tris(pyridine)-calcium pyridine solvate"
_symmetry_cell_setting           triclinic
_symmetry_space_group_name_H-M   'P -1'
_symmetry_Int_Tables_number      2
_space_group_name_Hall           '-P 1'
loop_
_symmetry_equiv_pos_site_id
_symmetry_equiv_pos_as_xyz
1 x,y,z
2 -x,-y,-z
_cell_length_a                   10.0173(7)
_cell_length_b                   17.4773(12)
_cell_length_c                   17.6656(12)
_cell_angle_alpha                62.230(3)
_cell_angle_beta                 89.779(3)
_cell_angle_gamma                74.503(3)
_cell_volume                     2610.58
_exptl_crystal_colour            colorless
_exptl_crystal_description       plank
_cell_formula_units_Z            2
loop_
_atom_site_label
_atom_site_type_symbol
_atom_site_fract_x
_atom_site_fract_y
_atom_site_fract_z
Ca1 Ca 0.40909(7) 0.28618(4) 0.28415(4)
O1 O 0.3005(2) 0.43317(14) 0.24917(13)
O2 O 0.4368(2) 0.17364(13) 0.25046(13)
N1 N 0.5638(3) 0.33061(17) 0.35603(16)
N2 N 0.6479(3) 0.17166(17) 0.35425(16)
N3 N 0.3680(3) 0.21524(19) 0.44094(17)
N4 N 0.1471(3) 0.30076(19) 0.2595(2)
N5 N 0.4900(3) 0.35533(18) 0.13329(17)
C1 C 0.3323(3) 0.5039(2) 0.23959(19)
C2 C 0.2325(3) 0.5933(2) 0.19483(19)
C3 C 0.2765(3) 0.6661(2) 0.18248(19)
H1 H 0.2104 0.7246 0.1521
C4 C 0.4109(3) 0.6609(2) 0.2111(2)
C5 C 0.5024(3) 0.5755(2) 0.25859(19)
H2 H 0.5928 0.5688 0.2817
C6 C 0.4659(3) 0.4971(2) 0.27414(19)
C7 C 0.0807(3) 0.6057(2) 0.1649(2)
C8 C -0.0105(3) 0.7050(2) 0.1217(2)
H3 H -0.0112 0.7285 0.1625
H4 H -0.1062 0.7090 0.1048
H5 H 0.0278 0.7409 0.0703
C9 C 0.0141(4) 0.5527(2) 0.2433(2)
H6 H 0.0699 0.4887 0.2729
H7 H -0.0812 0.5581 0.2240
H8 H 0.0109 0.5775 0.2831
C10 C 0.0741(3) 0.5718(2) 0.0993(2)
H9 H 0.1227 0.6024 0.0510
H10 H -0.0238 0.5853 0.0776
H11 H 0.1194 0.5062 0.1274
C11 C 0.4481(3) 0.7469(2) 0.1934(2)
C12 C 0.3990(4) 0.8186(2) 0.0994(2)
H12 H 0.4393 0.7937 0.0619
H13 H 0.4294 0.8714 0.0876
H14 H 0.2967 0.8368 0.0879
C13 C 0.3733(4) 0.7835(2) 0.2514(2)
H15 H 0.2722 0.7955 0.2397
H16 H 0.3932 0.8398 0.2391
H17 H 0.4070 0.7384 0.3122
C14 C 0.6044(4) 0.7286(2) 0.2125(3)
H18 H 0.6364 0.6861 0.2741
H19 H 0.6240 0.7856 0.1977
H20 H 0.6537 0.7024 0.1780
C15 C 0.5673(3) 0.4119(2) 0.33310(19)
H21 H 0.6468 0.4162 0.3583
C16 C 0.5336(3) 0.1224(2) 0.23127(19)
C17 C 0.5023(3) 0.0901(2) 0.17408(19)
C18 C 0.6114(3) 0.0386(2) 0.1536(2)
H22 H 0.5890 0.0193 0.1144
C19 C 0.7525(3) 0.0129(2) 0.1863(2)
C20 C 0.7811(3) 0.0413(2) 0.2429(2)
H23 H 0.8755 0.0239 0.2676
C21 C 0.6771(3) 0.0952(2) 0.2662(2)
C22 C 0.3503(3) 0.1166(2) 0.1346(2)
C23 C 0.2991(4) 0.2192(2) 0.0742(2)
H24 H 0.3142 0.2506 0.1057
H25 H 0.1991 0.2379 0.0537
H26 H 0.3512 0.2349 0.0248
C24 C 0.2574(4) 0.0883(2) 0.2064(2)
H27 H 0.2901 0.0224 0.2432
H28 H 0.1603 0.1068 0.1803
H29 H 0.2628 0.1177 0.2414
C25 C 0.3335(4) 0.0712(2) 0.0808(2)
H30 H 0.3884 0.0895 0.0328
H31 H 0.2346 0.0899 0.0578
H32 H 0.3668 0.0052 0.1172
C26 C 0.8698(3) -0.0463(2) 0.1632(2)
C27 C 0.9870(4) -0.0037(3) 0.1365(3)
H33 H 0.9496 0.0581 0.0883
H34 H 1.0586 -0.0397 0.1183
H35 H 1.0286 -0.0018 0.1854
C28 C 0.9253(4) -0.1405(2) 0.2429(2)
H36 H 0.9584 -0.1344 0.2914
H37 H 1.0028 -0.1783 0.2298
H38 H 0.8500 -0.1688 0.2584
C29 C 0.8202(4) -0.0586(2) 0.0892(2)
H39 H 0.7516 -0.0922 0.1072
H40 H 0.9003 -0.0923 0.0738
H41 H 0.7769 0.0010 0.0389
C30 C 0.7229(3) 0.1168(2) 0.3290(2)
H42 H 0.8181 0.0880 0.3548
C31 C 0.6624(3) 0.2580(2) 0.4257(2)
C32 C 0.7088(3) 0.2624(2) 0.4969(2)
H43 H 0.6770 0.3178 0.4987
C33 C 0.8006(4) 0.1877(2) 0.5656(2)
H44 H 0.8336 0.1923 0.6131
C34 C 0.8443(4) 0.1058(2) 0.5646(2)
H45 H 0.9057 0.0538 0.6120
C35 C 0.7980(4) 0.1002(2) 0.4943(2)
H46 H 0.8289 0.0442 0.4937
C36 C 0.7073(3) 0.1749(2) 0.4245(2)
C37 C 0.3394(4) 0.2630(3) 0.4829(2)
H47 H 0.3107 0.3272 0.4502
C38 C 0.3497(4) 0.2231(4) 0.5723(3)
H48 H 0.3256 0.2589 0.6003
C39 C 0.3957(5) 0.1308(4) 0.6184(3)
H49 H 0.4045 0.1015 0.6797
C40 C 0.4287(6) 0.0810(4) 0.5777(3)
H50 H 0.4622 0.0167 0.6093
C41 C 0.4123(5) 0.1260(3) 0.4896(3)
H51 H 0.4344 0.0906 0.4610
C42 C 0.0662(4) 0.2994(3) 0.3188(3)
H52 H 0.1107 0.2833 0.3738
C43 C -0.0769(4) 0.3192(3) 0.3081(3)
H53 H -0.1279 0.3187 0.3536
C44 C -0.1439(4) 0.3393(3) 0.2323(3)
H54 H -0.2425 0.3513 0.2234
C45 C -0.0655(4) 0.3416(3) 0.1692(3)
H55 H -0.1080 0.3557 0.1144
C46 C 0.0782(4) 0.3229(3) 0.1859(3)
H56 H 0.1308 0.3266 0.1401
C47 C 0.3901(4) 0.4196(2) 0.0694(2)
H57 H 0.3122 0.4529 0.0836
C48 C 0.3916(4) 0.4415(2) -0.0165(2)
H58 H 0.3158 0.4871 -0.0592
C49 C 0.5050(4) 0.3959(2) -0.0387(2)
H59 H 0.5103 0.4098 -0.0972
C50 C 0.6102(4) 0.3299(2) 0.0258(2)
H60 H 0.6900 0.2970 0.0126
C51 C 0.5994(4) 0.3117(2) 0.1098(2)
H61 H 0.6735 0.2657 0.1537
N6 N 0.7894(5) 0.5122(3) 0.4253(2)
C52 C 0.6964(5) 0.5208(4) 0.4752(4)
H62 H 0.6139 0.5711 0.4512
C53 C 0.7158(7) 0.4568(5) 0.5639(5)
H63 H 0.6466 0.4620 0.5996
C54 C 0.8338(8) 0.3898(5) 0.5952(3)
H64 H 0.8498 0.3460 0.6547
C55 C 0.9290(6) 0.3822(4) 0.5467(4)
H65 H 1.0141 0.3340 0.5705
C56 C 0.9053(5) 0.4423(4) 0.4642(3)
H66 H 0.9758 0.4356 0.4297
loop_
_geom_bond_atom_site_label_1
_geom_bond_atom_site_label_2
_geom_bond_site_symmetry_1
_geom_bond_site_symmetry_2
Ca1 O1 1_555 1_555
O1 C1 1_555 1_555
O2 Ca1 1_555 1_555
N1 Ca1 1_555 1_555
N2 Ca1 1_555 1_555
N3 Ca1 1_555 1_555
N4 Ca1 1_555 1_555
N5 Ca1 1_555 1_555
C1 C2 1_555 1_555
C2 C3 1_555 1_555
C3 H1 1_555 1_555
C4 C3 1_555 1_555
C5 C4 1_555 1_555
H2 C5 1_555 1_555
C6 C1 1_555 1_555
C7 C2 1_555 1_555
C8 C7 1_555 1_555
H3 C8 1_555 1_555
H4 C8 1_555 1_555
H5 C8 1_555 1_555
C9 C7 1_555 1_555
H6 C9 1_555 1_555
H7 C9 1_555 1_555
H8 C9 1_555 1_555
C10 C7 1_555 1_555
H9 C10 1_555 1_555
H10 C10 1_555 1_555
H11 C10 1_555 1_555
C11 C4 1_555 1_555
C12 C11 1_555 1_555
H12 C12 1_555 1_555
H13 C12 1_555 1_555
H14 C12 1_555 1_555
C13 C11 1_555 1_555
H15 C13 1_555 1_555
H16 C13 1_555 1_555
H17 C13 1_555 1_555
C14 C11 1_555 1_555
H18 C14 1_555 1_555
H19 C14 1_555 1_555
H20 C14 1_555 1_555
C15 N1 1_555 1_555
H21 C15 1_555 1_555
C16 O2 1_555 1_555
C17 C16 1_555 1_555
C18 C17 1_555 1_555
H22 C18 1_555 1_555
C19 C18 1_555 1_555
C20 C19 1_555 1_555
H23 C20 1_555 1_555
C21 C16 1_555 1_555
C22 C17 1_555 1_555
C23 C22 1_555 1_555
H24 C23 1_555 1_555
H25 C23 1_555 1_555
H26 C23 1_555 1_555
C24 C22 1_555 1_555
H27 C24 1_555 1_555
H28 C24 1_555 1_555
H29 C24 1_555 1_555
C25 C22 1_555 1_555
H30 C25 1_555 1_555
H31 C25 1_555 1_555
H32 C25 1_555 1_555
C26 C19 1_555 1_555
C27 C26 1_555 1_555
H33 C27 1_555 1_555
H34 C27 1_555 1_555
H35 C27 1_555 1_555
C28 C26 1_555 1_555
H36 C28 1_555 1_555
H37 C28 1_555 1_555
H38 C28 1_555 1_555
C29 C26 1_555 1_555
H39 C29 1_555 1_555
H40 C29 1_555 1_555
H41 C29 1_555 1_555
C30 N2 1_555 1_555
H42 C30 1_555 1_555
C31 N1 1_555 1_555
C32 C31 1_555 1_555
H43 C32 1_555 1_555
C33 C32 1_555 1_555
H44 C33 1_555 1_555
C34 C33 1_555 1_555
H45 C34 1_555 1_555
C35 C34 1_555 1_555
H46 C35 1_555 1_555
C36 N2 1_555 1_555
C37 N3 1_555 1_555
H47 C37 1_555 1_555
C38 C37 1_555 1_555
H48 C38 1_555 1_555
C39 C38 1_555 1_555
H49 C39 1_555 1_555
C40 C39 1_555 1_555
H50 C40 1_555 1_555
C41 N3 1_555 1_555
H51 C41 1_555 1_555
C42 N4 1_555 1_555
H52 C42 1_555 1_555
C43 C42 1_555 1_555
H53 C43 1_555 1_555
C44 C43 1_555 1_555
H54 C44 1_555 1_555
C45 C44 1_555 1_555
H55 C45 1_555 1_555
C46 N4 1_555 1_555
H56 C46 1_555 1_555
C47 N5 1_555 1_555
H57 C47 1_555 1_555
C48 C47 1_555 1_555
H58 C48 1_555 1_555
C49 C48 1_555 1_555
H59 C49 1_555 1_555
C50 C49 1_555 1_555
H60 C50 1_555 1_555
C51 N5 1_555 1_555
H61 C51 1_555 1_555
N6 C52 1_555 1_555
C52 H62 1_555 1_555
C53 C52 1_555 1_555
H63 C53 1_555 1_555
C54 C53 1_555 1_555
H64 C54 1_555 1_555
C55 C54 1_555 1_555
H65 C55 1_555 1_555
C56 N6 1_555 1_555
H66 C56 1_555 1_555
C5 C6 1_555 1_555
C6 C15 1_555 1_555
C20 C21 1_555 1_555
C21 C30 1_555 1_555
C31 C36 1_555 1_555
C35 C36 1_555 1_555
C40 C41 1_555 1_555
C45 C46 1_555 1_555
C50 C51 1_555 1_555
C55 C56 1_555 1_555

#END
