
#######################################################################
#
#                 Cambridge Crystallographic Data Centre
#                                CCDC 
#
#######################################################################
#
# If this CIF has been generated from an entry in the Cambridge 
# Structural Database, then it will include bibliographic, chemical, 
# crystal, experimental, refinement or atomic coordinate data resulting 
# from the CCDC's data processing and validation procedures.
#
#######################################################################

data_CEPGUC
_chemical_name_common            
"ethyl (3R,6'R,8'S)-7''-fluoro-6'-hydroxy-1,1''-dimethyl-2,2''-dioxo-6',7'-dihydrodispiro[indoline-3,5'-indolizine-8',3''-indoline]-6'-carboxylate"
_chemical_formula_moiety         'C27 H24 F1 N3 O5,C1 H2 Cl2'
_chemical_name_systematic        
"ethyl 7''-fluoro-6'-hydroxy-1,1''-dimethyl-2,2''-dioxo-1,1'',2,2'',6',7'-hexahydrodispiro[indole-3,5'-indolizine-8',3''-indole]-6'-carboxylate dichloromethane solvate"
_symmetry_cell_setting           monoclinic
_symmetry_space_group_name_H-M   'P 21/c'
_symmetry_Int_Tables_number      14
_space_group_name_Hall           '-P 2ybc'
loop_
_symmetry_equiv_pos_site_id
_symmetry_equiv_pos_as_xyz
1 x,y,z
2 -x,1/2+y,1/2-z
3 -x,-y,-z
4 x,1/2-y,1/2+z
_cell_length_a                   12.2486(5)
_cell_length_b                   10.5812(5)
_cell_length_c                   21.0573(11)
_cell_angle_alpha                90
_cell_angle_beta                 93.509(2)
_cell_angle_gamma                90
_cell_volume                     2724.01
_exptl_crystal_colour            colorless
_exptl_crystal_description       block
_cell_formula_units_Z            4
loop_
_atom_site_label
_atom_site_type_symbol
_atom_site_fract_x
_atom_site_fract_y
_atom_site_fract_z
C1 C 0.2081(2) 0.6558(2) 0.31937(13)
C2 C 0.2086(2) 0.5540(2) 0.37264(12)
C3 C 0.1503(2) 0.6232(2) 0.42417(13)
C4 C 0.1150(2) 0.5832(3) 0.48171(15)
H1 H 0.1257 0.5001 0.4950
C5 C 0.0628(3) 0.6698(4) 0.51970(16)
H2 H 0.0386 0.6436 0.5586
C6 C 0.0466(3) 0.7936(4) 0.50061(19)
H3 H 0.0126 0.8506 0.5266
C7 C 0.0814(3) 0.8319(3) 0.44256(18)
C8 C 0.1330(2) 0.7482(3) 0.40387(15)
C9 C 0.1710(3) 0.8846(3) 0.30858(18)
H4 H 0.2083 0.8732 0.2702
H5 H 0.2084 0.9475 0.3346
H6 H 0.0973 0.9118 0.2981
C10 C 0.1497(2) 0.4367(2) 0.34860(11)
C11 C 0.0440(2) 0.4223(3) 0.32415(13)
H7 H -0.0071 0.4866 0.3169
C12 C 0.0267(2) 0.2921(3) 0.31192(15)
H8 H -0.0378 0.2552 0.2954
C13 C 0.1220(2) 0.2304(2) 0.32887(15)
H9 H 0.1341 0.1440 0.3255
C14 C 0.3119(2) 0.2925(2) 0.36917(12)
C15 C 0.3777(2) 0.2962(2) 0.30764(13)
C16 C 0.4101(2) 0.1044(3) 0.35432(15)
C17 C 0.4532(3) -0.0151(3) 0.3667(2)
H10 H 0.5032 -0.0513 0.3406
C18 C 0.4191(3) -0.0780(3) 0.4192(2)
H11 H 0.4469 -0.1580 0.4286
C19 C 0.3449(3) -0.0252(3) 0.45794(19)
H12 H 0.3234 -0.0700 0.4930
C20 C 0.3015(3) 0.0953(3) 0.44515(16)
H13 H 0.2507 0.1305 0.4710
C21 C 0.3358(2) 0.1603(2) 0.39363(14)
C22 C 0.4987(3) 0.1520(4) 0.2515(2)
H14 H 0.4976 0.2207 0.2217
H15 H 0.4702 0.0773 0.2306
H16 H 0.5725 0.1369 0.2677
C23 C 0.3314(2) 0.5275(2) 0.39101(12)
H17 H 0.3729 0.5364 0.3535
H18 H 0.3582 0.5899 0.4219
C24 C 0.3504(2) 0.3957(2) 0.41890(12)
C25 C 0.4715(2) 0.3752(2) 0.44012(14)
C26 C 0.6538(3) 0.3688(4) 0.4094(2)
H19 H 0.6823 0.4269 0.4420
H20 H 0.6634 0.2833 0.4255
C27 C 0.7112(4) 0.3843(7) 0.3531(3)
H21 H 0.6753 0.3366 0.3191
H22 H 0.7849 0.3545 0.3605
H23 H 0.7121 0.4721 0.3416
F1 F 0.0642(2) 0.9533(2) 0.42255(14)
N1 N 0.1695(2) 0.7662(2) 0.34300(13)
N2 N 0.19722(17) 0.3189(2) 0.35195(11)
N3 N 0.4317(2) 0.1841(2) 0.30382(13)
O1 O 0.23920(19) 0.6427(2) 0.26618(10)
O2 O 0.37832(18) 0.38091(19) 0.26912(10)
O3 O 0.28948(17) 0.3808(2) 0.47321(9)
H24 H 0.3262 0.3422 0.5007
O4 O 0.53681(16) 0.3943(2) 0.39417(11)
O5 O 0.49914(19) 0.3440(2) 0.49387(11)
C28 C 0.1824(5) 0.3975(7) 0.1677(3)
Cl1 Cl 0.1767(5) 0.2340(5) 0.1532(3)
Cl2 Cl 0.2032(4) 0.5224(4) 0.1111(2)
Cl3? Cl 0.2369(5) 0.4704(6) 0.1079(3)
Cl4? Cl 0.2286(7) 0.2536(7) 0.1338(4)
loop_
_geom_bond_atom_site_label_1
_geom_bond_atom_site_label_2
_geom_bond_site_symmetry_1
_geom_bond_site_symmetry_2
C1 C2 1_555 1_555
C2 C3 1_555 1_555
C3 C4 1_555 1_555
C4 H1 1_555 1_555
C5 C4 1_555 1_555
H2 C5 1_555 1_555
C6 C5 1_555 1_555
H3 C6 1_555 1_555
C7 C6 1_555 1_555
C8 C3 1_555 1_555
C9 H4 1_555 1_555
H5 C9 1_555 1_555
H6 C9 1_555 1_555
C10 C2 1_555 1_555
C11 C10 1_555 1_555
H7 C11 1_555 1_555
C12 C11 1_555 1_555
H8 C12 1_555 1_555
C13 C12 1_555 1_555
H9 C13 1_555 1_555
C14 C15 1_555 1_555
C15 N3 1_555 1_555
C16 C17 1_555 1_555
C17 H10 1_555 1_555
C18 C17 1_555 1_555
H11 C18 1_555 1_555
C19 C18 1_555 1_555
H12 C19 1_555 1_555
C20 C19 1_555 1_555
H13 C20 1_555 1_555
C21 C14 1_555 1_555
C22 H14 1_555 1_555
H15 C22 1_555 1_555
H16 C22 1_555 1_555
C23 C2 1_555 1_555
H17 C23 1_555 1_555
H18 C23 1_555 1_555
C24 C14 1_555 1_555
C25 C24 1_555 1_555
C26 H19 1_555 1_555
H20 C26 1_555 1_555
C27 C26 1_555 1_555
H21 C27 1_555 1_555
H22 C27 1_555 1_555
H23 C27 1_555 1_555
F1 C7 1_555 1_555
N1 C1 1_555 1_555
N2 C10 1_555 1_555
N3 C16 1_555 1_555
O1 C1 1_555 1_555
O2 C15 1_555 1_555
O3 C24 1_555 1_555
H24 O3 1_555 1_555
O4 C25 1_555 1_555
O5 C25 1_555 1_555
C28 Cl1 1_555 1_555
Cl2 C28 1_555 1_555
C7 C8 1_555 1_555
C8 N1 1_555 1_555
C9 N1 1_555 1_555
C13 N2 1_555 1_555
C14 N2 1_555 1_555
C16 C21 1_555 1_555
C20 C21 1_555 1_555
C22 N3 1_555 1_555
C23 C24 1_555 1_555
C26 O4 1_555 1_555

#END
