
#######################################################################
#
#                 Cambridge Crystallographic Data Centre
#                                CCDC 
#
#######################################################################
#
# If this CIF has been generated from an entry in the Cambridge 
# Structural Database, then it will include bibliographic, chemical, 
# crystal, experimental, refinement or atomic coordinate data resulting 
# from the CCDC's data processing and validation procedures.
#
#######################################################################

data_CEPHUC
_chemical_formula_moiety         'C22 H16 Cl2 N2 O5'
_chemical_name_systematic        
4-Chloro-N-(4-chlorophenyl)-N-((3-(2-nitrophenyl)propanoyl)oxy)benzamide
_symmetry_cell_setting           triclinic
_symmetry_space_group_name_H-M   'P -1'
_symmetry_Int_Tables_number      2
_space_group_name_Hall           '-P 1'
loop_
_symmetry_equiv_pos_site_id
_symmetry_equiv_pos_as_xyz
1 x,y,z
2 -x,-y,-z
_cell_length_a                   6.1710(3)
_cell_length_b                   12.8881(7)
_cell_length_c                   13.3490(8)
_cell_angle_alpha                89.933(5)
_cell_angle_beta                 76.959(5)
_cell_angle_gamma                82.114(4)
_cell_volume                     1024.03
_exptl_crystal_colour            colorless
_exptl_crystal_description       block
_cell_formula_units_Z            2
loop_
_atom_site_label
_atom_site_type_symbol
_atom_site_fract_x
_atom_site_fract_y
_atom_site_fract_z
Cl1 Cl -0.18649(10) 0.33888(6) 0.87407(5)
Cl2 Cl 1.31097(10) 0.36534(5) 0.04403(5)
O1 O 0.3913(2) 0.46847(10) 0.41480(11)
O2 O 0.6701(2) 0.23063(9) 0.47616(10)
O3 O 0.4204(3) 0.15481(12) 0.41153(13)
O4 O 1.2426(3) -0.06198(14) 0.30600(14)
O5 O 1.4243(3) -0.09770(15) 0.14952(16)
N1 N 0.5125(3) 0.32286(12) 0.48837(13)
N2 N 1.2639(3) -0.05271(14) 0.21312(17)
C1 C 0.3969(3) 0.28616(15) 0.66805(16)
H1 H 0.5433 0.2555 0.6661
C2 C 0.2353(3) 0.28899(16) 0.75827(16)
H2 H 0.2719 0.2603 0.8173
C3 C 0.0195(3) 0.33459(15) 0.76041(15)
C4 C -0.0374(3) 0.37795(15) 0.67448(16)
H3 H -0.1837 0.4093 0.6772
C5 C 0.1242(3) 0.37473(15) 0.58384(15)
H4 H 0.0866 0.4035 0.5250
C6 C 0.3422(3) 0.32880(13) 0.58035(14)
C7 C 0.5349(3) 0.39283(14) 0.41068(14)
C8 C 0.9520(3) 0.33060(15) 0.32673(15)
H5 H 0.9773 0.3017 0.3877
C9 C 1.1284(3) 0.32752(16) 0.24154(16)
H6 H 1.2719 0.2969 0.2450
C10 C 1.0896(3) 0.37022(16) 0.15145(16)
C11 C 0.8791(3) 0.41665(16) 0.14499(16)
H7 H 0.8551 0.4451 0.0837
C12 C 0.7042(3) 0.42046(15) 0.23050(15)
H8 H 0.5621 0.4529 0.2268
C13 C 0.7361(3) 0.37675(13) 0.32217(14)
C14 C 0.5977(3) 0.14812(15) 0.43340(15)
C15 C 0.7738(3) 0.05388(14) 0.42254(16)
H9 H 0.7454 0.0137 0.4845
H10 H 0.9199 0.0766 0.4152
C16 C 0.7776(3) -0.01623(15) 0.32980(16)
H11 H 0.8685 -0.0829 0.3345
H12 H 0.6260 -0.0296 0.3314
C17 C 0.8705(3) 0.03217(14) 0.22905(15)
C18 C 1.0947(3) 0.01729(15) 0.17520(16)
C19 C 1.1712(4) 0.06501(18) 0.08326(18)
H13 H 1.3221 0.0522 0.0498
C20 C 1.0231(5) 0.13115(18) 0.04204(19)
H14 H 1.0729 0.1647 -0.0188
C21 C 0.8000(4) 0.14722(17) 0.09175(19)
H15 H 0.6982 0.1915 0.0639
C22 C 0.7258(4) 0.09832(16) 0.18248(18)
H16 H 0.5735 0.1098 0.2139
loop_
_geom_bond_atom_site_label_1
_geom_bond_atom_site_label_2
_geom_bond_site_symmetry_1
_geom_bond_site_symmetry_2
Cl1 C3 1_555 1_555
Cl2 C10 1_555 1_555
O1 C7 1_555 1_555
O2 N1 1_555 1_555
O3 C14 1_555 1_555
O4 N2 1_555 1_555
O5 N2 1_555 1_555
N1 C6 1_555 1_555
N2 C18 1_555 1_555
C1 H1 1_555 1_555
C2 C1 1_555 1_555
H2 C2 1_555 1_555
C3 C2 1_555 1_555
C4 C3 1_555 1_555
H3 C4 1_555 1_555
C5 C4 1_555 1_555
H4 C5 1_555 1_555
C6 C1 1_555 1_555
C7 N1 1_555 1_555
C8 H5 1_555 1_555
C9 C8 1_555 1_555
H6 C9 1_555 1_555
C10 C9 1_555 1_555
C11 C10 1_555 1_555
H7 C11 1_555 1_555
C12 C11 1_555 1_555
H8 C12 1_555 1_555
C13 C7 1_555 1_555
C14 O2 1_555 1_555
C15 C14 1_555 1_555
H9 C15 1_555 1_555
H10 C15 1_555 1_555
C16 C15 1_555 1_555
H11 C16 1_555 1_555
H12 C16 1_555 1_555
C17 C16 1_555 1_555
C18 C17 1_555 1_555
C19 C18 1_555 1_555
H13 C19 1_555 1_555
C20 C19 1_555 1_555
H14 C20 1_555 1_555
C21 C20 1_555 1_555
H15 C21 1_555 1_555
C22 C17 1_555 1_555
H16 C22 1_555 1_555
C5 C6 1_555 1_555
C8 C13 1_555 1_555
C12 C13 1_555 1_555
C21 C22 1_555 1_555

#END
