
#######################################################################
#
#                 Cambridge Crystallographic Data Centre
#                                CCDC 
#
#######################################################################
#
# If this CIF has been generated from an entry in the Cambridge 
# Structural Database, then it will include bibliographic, chemical, 
# crystal, experimental, refinement or atomic coordinate data resulting 
# from the CCDC's data processing and validation procedures.
#
#######################################################################

data_CEPJEN
_chemical_formula_moiety         'C25 H34 N3 O2 1+,Br1 1-,1.25(H2 O1)'
_chemical_name_systematic        
'N,N-(Diethylamino)acetylcinchonidium bromide hydrate'
_symmetry_cell_setting           orthorhombic
_symmetry_space_group_name_H-M   'P 21 21 21'
_symmetry_Int_Tables_number      19
_space_group_name_Hall           'P 2ac 2ab'
loop_
_symmetry_equiv_pos_site_id
_symmetry_equiv_pos_as_xyz
1 x,y,z
2 1/2-x,-y,1/2+z
3 -x,1/2+y,1/2-z
4 1/2+x,1/2-y,-z
_cell_length_a                   8.6628(6)
_cell_length_b                   17.3658(13)
_cell_length_c                   34.086(3)
_cell_angle_alpha                90
_cell_angle_beta                 90
_cell_angle_gamma                90
_cell_volume                     5127.78
_exptl_crystal_colour            colorless
_exptl_crystal_description       block
_chemical_melting_point          234-236deg.C
_cell_formula_units_Z            8
loop_
_atom_site_label
_atom_site_type_symbol
_atom_site_fract_x
_atom_site_fract_y
_atom_site_fract_z
Br1 Br 0.71038(7) 0.52034(4) 0.363279(15)
Br2 Br 0.21691(7) 0.48198(4) 0.439788(15)
O1 O 0.3902(4) 0.4359(2) 0.51894(10)
H1 H 0.3311 0.4523 0.5021
O2 O 0.6828(4) 0.65404(17) 0.52033(10)
N1 N 0.7087(4) 0.4993(2) 0.49832(10)
N2 N 0.2856(5) 0.4917(3) 0.65995(12)
N3 N 0.5567(5) 0.6921(2) 0.46619(13)
C1 C 0.4109(5) 0.5638(3) 0.60696(13)
C2 C 0.4735(6) 0.6356(3) 0.59581(14)
H3 H 0.5144 0.6418 0.5708
C3 C 0.4746(7) 0.6955(3) 0.62126(16)
H4 H 0.5172 0.7420 0.6132
C4 C 0.4158(7) 0.6905(3) 0.65820(17)
H5 H 0.4169 0.7330 0.6747
C5 C 0.3556(7) 0.6227(4) 0.67055(16)
H6 H 0.3173 0.6191 0.6960
C6 C 0.3492(6) 0.5572(3) 0.64587(15)
C7 C 0.2779(6) 0.4331(3) 0.63612(17)
H7 H 0.2352 0.3878 0.6457
C8 C 0.3295(6) 0.4334(3) 0.59679(15)
H8 H 0.3166 0.3900 0.5811
C9 C 0.3987(5) 0.4981(3) 0.58188(13)
C10 C 0.4564(5) 0.4984(3) 0.53953(12)
H9 H 0.4272 0.5469 0.5268
C11 C 0.6326(5) 0.4904(3) 0.53962(11)
H10 H 0.6741 0.5313 0.5564
C12 C 0.6901(6) 0.4137(3) 0.55577(13)
H11 H 0.7003 0.4171 0.5841
H12 H 0.6156 0.3736 0.5499
C13 C 0.8445(6) 0.3929(3) 0.53792(17)
H13 H 0.8956 0.3530 0.5536
C14 C 0.8161(7) 0.3643(3) 0.49628(16)
H14 H 0.9147 0.3675 0.4823
C15 C 0.7048(7) 0.4227(3) 0.47663(14)
H15 H 0.7349 0.4305 0.4495
H16 H 0.6005 0.4023 0.4769
C16 C 0.9454(6) 0.4652(3) 0.53563(16)
H17 H 0.9476 0.4909 0.5609
H18 H 1.0503 0.4512 0.5286
C17 C 0.8783(5) 0.5177(3) 0.50509(13)
H19 H 0.9347 0.5118 0.4807
H20 H 0.8886 0.5708 0.5136
C18 C 0.7453(11) 0.2803(4) 0.4877(3)
H21 H 0.6989 0.2699 0.4637
C19 C 0.753(3) 0.2285(8) 0.5136(6)
H22 H 0.7991 0.2389 0.5376
H23 H 0.7118 0.1799 0.5086
C20 C 0.6349(6) 0.5572(3) 0.47140(13)
H24 H 0.5309 0.5401 0.4654
H25 H 0.6925 0.5585 0.4470
C21 C 0.6269(5) 0.6393(3) 0.48816(15)
C22 C 0.4985(7) 0.6797(4) 0.42621(17)
H26 H 0.5192 0.6268 0.4188
H27 H 0.5556 0.7127 0.4084
C23 C 0.3312(9) 0.6949(5) 0.4210(2)
H28 H 0.2733 0.6636 0.4389
H29 H 0.3017 0.6827 0.3946
H30 H 0.3105 0.7483 0.4261
C24 C 0.5460(7) 0.7715(3) 0.48178(19)
H31 H 0.4477 0.7935 0.4741
H32 H 0.5488 0.7696 0.5102
C25 C 0.6715(8) 0.8220(4) 0.4677(3)
H33 H 0.7691 0.7973 0.4721
H34 H 0.6685 0.8699 0.4818
H35 H 0.6584 0.8316 0.4402
O3 O -0.0537(4) 0.61384(18) 0.30810(9)
H2 H -0.1054 0.5976 0.3265
O4 O 0.0429(4) 0.37415(18) 0.27308(9)
N4 N -0.3187(5) 0.6573(2) 0.17981(12)
N5 N 0.2060(4) 0.50406(18) 0.30033(9)
N6 N -0.0486(5) 0.3400(2) 0.33282(12)
C26 C -0.2024(5) 0.5440(2) 0.21140(12)
C27 C -0.1847(5) 0.4629(3) 0.21008(14)
H36 H -0.1254 0.4382 0.2290
C28 C -0.2534(6) 0.4210(3) 0.18146(17)
H37 H -0.2414 0.3678 0.1811
C29 C -0.3426(6) 0.4569(4) 0.15217(16)
H38 H -0.3874 0.4274 0.1324
C30 C -0.3633(6) 0.5340(3) 0.15264(15)
H39 H -0.4252 0.5571 0.1337
C31 C -0.2916(6) 0.5794(3) 0.18158(13)
C32 C -0.2567(6) 0.6976(3) 0.20811(16)
H40 H -0.2722 0.7506 0.2074
C33 C -0.1704(5) 0.6693(3) 0.23897(15)
H41 H -0.1315 0.7027 0.2579
C34 C -0.1424(5) 0.5915(2) 0.24156(13)
C35 C -0.0561(5) 0.5593(2) 0.27696(12)
H42 H -0.1090 0.5127 0.2860
C36 C 0.1098(5) 0.5384(2) 0.26575(11)
H43 H 0.1036 0.4986 0.2454
C37 C 0.2014(5) 0.6048(2) 0.24860(12)
H44 H 0.1646 0.6530 0.2595
H45 H 0.1868 0.6065 0.2204
C38 C 0.3741(5) 0.5948(3) 0.25807(14)
H46 H 0.4369 0.6288 0.2416
C39 C 0.3986(5) 0.6133(3) 0.30157(14)
H47 H 0.5001 0.5935 0.3093
C40 C 0.2745(6) 0.5695(3) 0.32516(12)
H48 H 0.3202 0.5484 0.3488
H49 H 0.1932 0.6048 0.3329
C41 C 0.3410(5) 0.4604(3) 0.28250(14)
H50 H 0.3045 0.4130 0.2706
H51 H 0.4149 0.4473 0.3028
C42 C 0.4184(5) 0.5109(3) 0.25139(14)
H52 H 0.5296 0.5053 0.2530
H53 H 0.3857 0.4948 0.2254
C43 C 0.3947(6) 0.6975(3) 0.31003(16)
H54 H 0.2994 0.7221 0.3099
C44 C 0.5167(8) 0.7387(4) 0.3176(3)
H55 H 0.6137 0.7158 0.3179
H56 H 0.5069 0.7911 0.3226
C45 C 0.1188(5) 0.4525(2) 0.32829(13)
H57 H 0.0441 0.4834 0.3425
H58 H 0.1909 0.4318 0.3473
C46 C 0.0344(5) 0.3857(3) 0.30874(14)
C47 C -0.1436(7) 0.2797(3) 0.31479(18)
H59 H -0.1639 0.2400 0.3341
H60 H -0.0860 0.2563 0.2935
C48 C -0.2961(7) 0.3090(4) 0.29894(19)
H61 H -0.3527 0.3337 0.3196
H62 H -0.3551 0.2665 0.2889
H63 H -0.2772 0.3453 0.2783
C49 C -0.0495(7) 0.3440(3) 0.37498(14)
H64 H -0.1543 0.3369 0.3843
H65 H -0.0155 0.3948 0.3831
C50 C 0.0539(8) 0.2840(4) 0.39359(18)
H66 H 0.0190 0.2336 0.3863
H67 H 0.0502 0.2892 0.4216
H68 H 0.1580 0.2913 0.3847
O5 O 0.4572(6) 0.3824(3) 0.38471(15)
H69 H 0.5411 0.4085 0.3828
H70 H 0.4354 0.3734 0.4088
O6 O 0.5226(6) 0.2175(3) 0.38251(13)
H71 H 0.4788 0.1958 0.3628
H72 H 0.5381 0.2651 0.3781
O7 O 0.9565(9) 0.6225(5) 0.4180(2)
H73 H 0.8863 0.6001 0.4044
H74 H 1.0289 0.5909 0.4240
loop_
_geom_bond_atom_site_label_1
_geom_bond_atom_site_label_2
_geom_bond_site_symmetry_1
_geom_bond_site_symmetry_2
O1 H1 1_555 1_555
O2 C21 1_555 1_555
O3 H2 1_555 1_555
O4 C46 1_555 1_555
N1 C11 1_555 1_555
N2 C6 1_555 1_555
N3 C21 1_555 1_555
N4 C31 1_555 1_555
N5 C36 1_555 1_555
N6 C46 1_555 1_555
C1 C2 1_555 1_555
C2 H3 1_555 1_555
C3 C2 1_555 1_555
H4 C3 1_555 1_555
C4 C3 1_555 1_555
H5 C4 1_555 1_555
C5 C4 1_555 1_555
H6 C5 1_555 1_555
C6 C1 1_555 1_555
C7 N2 1_555 1_555
H7 C7 1_555 1_555
C8 C7 1_555 1_555
H8 C8 1_555 1_555
C9 C1 1_555 1_555
C10 O1 1_555 1_555
H9 C10 1_555 1_555
C11 C10 1_555 1_555
H10 C11 1_555 1_555
C12 C11 1_555 1_555
H11 C12 1_555 1_555
H12 C12 1_555 1_555
C13 C12 1_555 1_555
H13 C13 1_555 1_555
C14 C13 1_555 1_555
H14 C14 1_555 1_555
C15 N1 1_555 1_555
H15 C15 1_555 1_555
H16 C15 1_555 1_555
C16 C13 1_555 1_555
H17 C16 1_555 1_555
H18 C16 1_555 1_555
C17 N1 1_555 1_555
H19 C17 1_555 1_555
H20 C17 1_555 1_555
C18 C14 1_555 1_555
H21 C18 1_555 1_555
C19 C18 1_555 1_555
H22 C19 1_555 1_555
H23 C19 1_555 1_555
C20 N1 1_555 1_555
H24 C20 1_555 1_555
H25 C20 1_555 1_555
C21 C20 1_555 1_555
C22 N3 1_555 1_555
H26 C22 1_555 1_555
H27 C22 1_555 1_555
C23 C22 1_555 1_555
H28 C23 1_555 1_555
H29 C23 1_555 1_555
H30 C23 1_555 1_555
C24 N3 1_555 1_555
H31 C24 1_555 1_555
H32 C24 1_555 1_555
C25 C24 1_555 1_555
H33 C25 1_555 1_555
H34 C25 1_555 1_555
H35 C25 1_555 1_555
C26 C27 1_555 1_555
C27 H36 1_555 1_555
C28 C27 1_555 1_555
H37 C28 1_555 1_555
C29 C28 1_555 1_555
H38 C29 1_555 1_555
C30 C29 1_555 1_555
H39 C30 1_555 1_555
C31 C26 1_555 1_555
C32 N4 1_555 1_555
H40 C32 1_555 1_555
C33 C32 1_555 1_555
H41 C33 1_555 1_555
C34 C26 1_555 1_555
C35 O3 1_555 1_555
H42 C35 1_555 1_555
C36 C35 1_555 1_555
H43 C36 1_555 1_555
C37 C36 1_555 1_555
H44 C37 1_555 1_555
H45 C37 1_555 1_555
C38 C37 1_555 1_555
H46 C38 1_555 1_555
C39 C38 1_555 1_555
H47 C39 1_555 1_555
C40 N5 1_555 1_555
H48 C40 1_555 1_555
H49 C40 1_555 1_555
C41 N5 1_555 1_555
H50 C41 1_555 1_555
H51 C41 1_555 1_555
C42 C38 1_555 1_555
H52 C42 1_555 1_555
H53 C42 1_555 1_555
C43 C39 1_555 1_555
H54 C43 1_555 1_555
C44 C43 1_555 1_555
H55 C44 1_555 1_555
H56 C44 1_555 1_555
C45 N5 1_555 1_555
H57 C45 1_555 1_555
H58 C45 1_555 1_555
C46 C45 1_555 1_555
C47 N6 1_555 1_555
H59 C47 1_555 1_555
H60 C47 1_555 1_555
C48 C47 1_555 1_555
H61 C48 1_555 1_555
H62 C48 1_555 1_555
H63 C48 1_555 1_555
C49 N6 1_555 1_555
H64 C49 1_555 1_555
H65 C49 1_555 1_555
C50 C49 1_555 1_555
H66 C50 1_555 1_555
H67 C50 1_555 1_555
H68 C50 1_555 1_555
O5 H69 1_555 1_555
H70 O5 1_555 1_555
O6 H71 1_555 1_555
H72 O6 1_555 1_555
O7 H73 1_555 1_555
H74 O7 1_555 1_555
C5 C6 1_555 1_555
C8 C9 1_555 1_555
C9 C10 1_555 1_555
C14 C15 1_555 1_555
C16 C17 1_555 1_555
C30 C31 1_555 1_555
C33 C34 1_555 1_555
C34 C35 1_555 1_555
C39 C40 1_555 1_555
C41 C42 1_555 1_555

#END
