
#######################################################################
#
#                 Cambridge Crystallographic Data Centre
#                                CCDC 
#
#######################################################################
#
# If this CIF has been generated from an entry in the Cambridge 
# Structural Database, then it will include bibliographic, chemical, 
# crystal, experimental, refinement or atomic coordinate data resulting 
# from the CCDC's data processing and validation procedures.
#
#######################################################################

data_CEPJAJ
_chemical_formula_moiety         'C25 H34 N3 O2 1+,I1 1-'
_chemical_name_systematic        'N,N-(Diethylamino)acetylcinchonidium iodide'
_symmetry_cell_setting           monoclinic
_symmetry_space_group_name_H-M   'P 21'
_symmetry_Int_Tables_number      4
_space_group_name_Hall           'P 2yb'
loop_
_symmetry_equiv_pos_site_id
_symmetry_equiv_pos_as_xyz
1 x,y,z
2 -x,1/2+y,-z
_cell_length_a                   9.495(3)
_cell_length_b                   11.455(3)
_cell_length_c                   12.025(4)
_cell_angle_alpha                90
_cell_angle_beta                 107.702(5)
_cell_angle_gamma                90
_cell_volume                     1245.97
_exptl_crystal_colour            yellow
_exptl_crystal_description       block
_chemical_melting_point          245-247deg.C
_cell_formula_units_Z            2
loop_
_atom_site_label
_atom_site_type_symbol
_atom_site_fract_x
_atom_site_fract_y
_atom_site_fract_z
I1 I 0.46718(4) 0.05778(5) 0.83201(4)
O1 O 0.7662(4) 0.7332(3) 0.5405(3)
H1 H 0.8286 0.7612 0.5138
O2 O 0.9147(5) 0.7207(4) 0.9213(4)
N1 N 1.0299(5) 0.3582(4) 0.5311(4)
N2 N 0.6498(5) 0.7375(4) 0.7379(4)
N3 N 0.9814(6) 0.9051(5) 0.9078(5)
C1 C 0.9211(7) 0.4158(6) 0.4605(5)
H2 H 0.8853 0.3905 0.3835
C2 C 0.8544(6) 0.5139(5) 0.4932(5)
H3 H 0.7768 0.5513 0.4385
C3 C 0.9028(4) 0.5542(8) 0.6039(4)
C4 C 1.0192(5) 0.4917(5) 0.6847(4)
C5 C 1.0809(5) 0.5246(4) 0.8030(4)
H4 H 1.0438 0.5891 0.8320
C6 C 1.1947(6) 0.4618(6) 0.8746(5)
H5 H 1.2344 0.4846 0.9521
C7 C 1.2531(6) 0.3643(6) 0.8349(6)
H6 H 1.3300 0.3224 0.8855
C8 C 1.1962(6) 0.3310(5) 0.7208(5)
H7 H 1.2346 0.2659 0.6940
C9 C 1.0802(6) 0.3942(5) 0.6437(5)
C10 C 0.8358(5) 0.6645(5) 0.6378(5)
H8 H 0.9148 0.7104 0.6915
C11 C 0.7230(5) 0.6315(4) 0.6997(5)
H9 H 0.7771 0.5897 0.7710
C12 C 0.5999(5) 0.5501(9) 0.6307(5)
H10 H 0.6295 0.4694 0.6480
H11 H 0.5807 0.5627 0.5476
C13 C 0.4596(7) 0.5757(9) 0.6651(7)
H12 H 0.3877 0.5126 0.6377
C14 C 0.4999(7) 0.5860(8) 0.7946(8)
H13 H 0.5596 0.5196 0.8310
H14 H 0.4110 0.5865 0.8184
C15 C 0.5855(7) 0.6974(6) 0.8335(6)
H15 H 0.6645 0.6841 0.9054
H16 H 0.5206 0.7572 0.8477
C16 C 0.5191(6) 0.7813(6) 0.6375(5)
H17 H 0.5505 0.7946 0.5689
H18 H 0.4839 0.8548 0.6591
C17 C 0.3941(7) 0.6911(7) 0.6095(7)
H19 H 0.3243 0.7165 0.6502
C18 C 0.3138(11) 0.6810(9) 0.4924(10)
H20 H 0.2189 0.6509 0.4775
C19 C 0.3510(12) 0.7065(9) 0.4039(10)
H21 H 0.4444 0.7370 0.4124
H22 H 0.2850 0.6950 0.3297
C20 C 0.7476(6) 0.8415(5) 0.7774(5)
H23 H 0.6924 0.9015 0.8030
H24 H 0.7744 0.8724 0.7114
C21 C 0.8890(6) 0.8156(6) 0.8764(5)
C22 C 1.1192(10) 0.8855(8) 1.0074(10)
H25 H 1.1579 0.9602 1.0409
H26 H 1.0950 0.8403 1.0674
C23 C 1.2321(9) 0.8243(9) 0.9712(9)
H27 H 1.1955 0.7491 0.9404
H28 H 1.3188 0.8146 1.0372
H29 H 1.2568 0.8689 0.9121
C24 C 0.9428(8) 1.0281(9) 0.8687(7)
H30 H 0.8367 1.0347 0.8335
H31 H 0.9719 1.0798 0.9357
C25 C 1.0148(9) 1.0620(19) 0.7869(8)
H32 H 1.1195 1.0512 0.8202
H33 H 0.9944 1.1427 0.7671
H34 H 0.9795 1.0151 0.7178
loop_
_geom_bond_atom_site_label_1
_geom_bond_atom_site_label_2
_geom_bond_site_symmetry_1
_geom_bond_site_symmetry_2
O1 H1 1_555 1_555
O2 C21 1_555 1_555
N1 C1 1_555 1_555
N2 C11 1_555 1_555
N3 C21 1_555 1_555
C1 H2 1_555 1_555
C2 C1 1_555 1_555
H3 C2 1_555 1_555
C3 C2 1_555 1_555
C4 C3 1_555 1_555
C5 C4 1_555 1_555
H4 C5 1_555 1_555
C6 C5 1_555 1_555
H5 C6 1_555 1_555
C7 C6 1_555 1_555
H6 C7 1_555 1_555
C8 C7 1_555 1_555
H7 C8 1_555 1_555
C9 N1 1_555 1_555
C10 O1 1_555 1_555
H8 C10 1_555 1_555
C11 C10 1_555 1_555
H9 C11 1_555 1_555
C12 C11 1_555 1_555
H10 C12 1_555 1_555
H11 C12 1_555 1_555
C13 C12 1_555 1_555
H12 C13 1_555 1_555
C14 C13 1_555 1_555
H13 C14 1_555 1_555
H14 C14 1_555 1_555
C15 N2 1_555 1_555
H15 C15 1_555 1_555
H16 C15 1_555 1_555
C16 N2 1_555 1_555
H17 C16 1_555 1_555
H18 C16 1_555 1_555
C17 C13 1_555 1_555
H19 C17 1_555 1_555
C18 C17 1_555 1_555
H20 C18 1_555 1_555
C19 C18 1_555 1_555
H21 C19 1_555 1_555
H22 C19 1_555 1_555
C20 N2 1_555 1_555
H23 C20 1_555 1_555
H24 C20 1_555 1_555
C21 C20 1_555 1_555
C22 N3 1_555 1_555
H25 C22 1_555 1_555
H26 C22 1_555 1_555
C23 C22 1_555 1_555
H27 C23 1_555 1_555
H28 C23 1_555 1_555
H29 C23 1_555 1_555
C24 N3 1_555 1_555
H30 C24 1_555 1_555
H31 C24 1_555 1_555
C25 C24 1_555 1_555
H32 C25 1_555 1_555
H33 C25 1_555 1_555
H34 C25 1_555 1_555
C3 C10 1_555 1_555
C4 C9 1_555 1_555
C8 C9 1_555 1_555
C14 C15 1_555 1_555
C16 C17 1_555 1_555

#END
