
#######################################################################
#
#                 Cambridge Crystallographic Data Centre
#                                CCDC 
#
#######################################################################
#
# If this CIF has been generated from an entry in the Cambridge 
# Structural Database, then it will include bibliographic, chemical, 
# crystal, experimental, refinement or atomic coordinate data resulting 
# from the CCDC's data processing and validation procedures.
#
#######################################################################

data_CEPLAN
_chemical_formula_moiety         'C45 H27 N3 O3,1.5(C1 H1 Cl3)'
_chemical_name_systematic        
'(benzene-1,3,5-triyl)tris[(9H-carbazol-9-yl)methanone] chloroform solvate'
_symmetry_cell_setting           trigonal
_symmetry_space_group_name_H-M   'P -3'
_symmetry_Int_Tables_number      147
_space_group_name_Hall           '-P 3'
loop_
_symmetry_equiv_pos_site_id
_symmetry_equiv_pos_as_xyz
1 x,y,z
2 -y,x-y,z
3 -x+y,-x,z
4 -x,-y,-z
5 y,-x+y,-z
6 x-y,x,-z
_cell_length_a                   18.328(6)
_cell_length_b                   18.328(6)
_cell_length_c                   7.641(2)
_cell_angle_alpha                90
_cell_angle_beta                 90
_cell_angle_gamma                120
_cell_volume                     2222.85
_exptl_crystal_colour            colorless
_exptl_crystal_description       block
_cell_formula_units_Z            2
loop_
_atom_site_label
_atom_site_type_symbol
_atom_site_fract_x
_atom_site_fract_y
_atom_site_fract_z
Cl1 Cl 0.09877(18) 0.8297(2) 0.9775(4)
Cl2 Cl 0.1964(2) 0.9241(2) 0.6875(6)
Cl3 Cl 0.0212(3) 0.8665(4) 0.7010(8)
C1 C 0.1117(9) 0.9053(9) 0.8230(19)
H1 H 0.1233 0.9585 0.8830
O1 O 0.47686(18) 0.88409(17) 0.8213(4)
N1 N 0.40000(19) 0.89176(18) 0.5948(4)
C2 C 0.3537(2) 0.9306(2) 0.3533(5)
C3 C 0.3674(2) 0.8676(2) 0.4231(5)
C4 C 0.4242(2) 0.8484(2) 0.7101(5)
C5 C 0.4093(2) 0.9721(2) 0.6291(5)
C6 C 0.2890(2) 0.7102(2) 0.6965(5)
H3 H 0.2588 0.7398 0.6965
C7 C 0.3768(2) 0.7545(2) 0.6965(5)
C8 C 0.3798(2) 0.9959(2) 0.4838(5)
C9 C 0.3553(2) 0.7993(2) 0.3216(5)
H4 H 0.3678 0.7584 0.3664
C10 C 0.4379(2) 1.0211(2) 0.7788(5)
H5 H 0.4580 1.0043 0.8765
C11 C 0.3084(3) 0.8537(3) 0.0854(5)
H6 H 0.2867 0.8473 -0.0300
C12 C 0.3246(3) 0.7928(3) 0.1537(5)
H7 H 0.3143 0.7458 0.0835
C13 C 0.3234(3) 0.9229(3) 0.1825(5)
H8 H 0.3132 0.9648 0.1344
C14 C 0.4359(3) 1.0963(3) 0.7798(6)
H9 H 0.4545 1.1312 0.8808
C15 C 0.3788(3) 1.0722(3) 0.4880(6)
H10 H 0.3590 1.0894 0.3905
C16 C 0.4070(3) 1.1212(3) 0.6356(6)
H11 H 0.4069 1.1730 0.6396
O1A O 0.11591(17) 0.59277(25) 0.8213(4)
N1A N 0.10824(18) 0.50824(26) 0.5948(4)
C2A C 0.0694(2) 0.4231(3) 0.3533(5)
C3A C 0.1324(2) 0.4998(3) 0.4231(5)
C4A C 0.1516(2) 0.5758(3) 0.7101(5)
C5A C 0.0279(2) 0.4372(3) 0.6291(5)
C6A C 0.2898(2) 0.5788(3) 0.6965(5)
H3A H 0.2602 0.5190 0.6965
C7A C 0.2455(2) 0.6223(3) 0.6965(5)
C8A C 0.0041(2) 0.3839(3) 0.4838(5)
C9A C 0.2007(2) 0.5560(3) 0.3216(5)
H4A H 0.2416 0.6094 0.3664
C10A C -0.0211(2) 0.4168(3) 0.7788(5)
H5A H -0.0043 0.4537 0.8765
C11A C 0.1463(3) 0.4547(4) 0.0854(5)
H6A H 0.1527 0.4394 -0.0300
C12A C 0.2072(3) 0.5318(4) 0.1537(5)
H7A H 0.2542 0.5685 0.0835
C13A C 0.0771(3) 0.4005(4) 0.1825(5)
H8A H 0.0352 0.3484 0.1344
C14A C -0.0963(3) 0.3396(4) 0.7798(6)
H9A H -0.1312 0.3233 0.8808
C15A C -0.0722(3) 0.3066(4) 0.4880(6)
H10A H -0.0894 0.2696 0.3905
C16A C -0.1212(3) 0.2858(4) 0.6356(6)
H11A H -0.1730 0.2339 0.6396
O1B O 0.40723(25) 0.52314(18) 0.8213(4)
N1B N 0.49176(26) 0.60000(19) 0.5948(4)
C2B C 0.5769(3) 0.6463(2) 0.3533(5)
C3B C 0.5002(3) 0.6326(2) 0.4231(5)
C4B C 0.4242(3) 0.5758(2) 0.7101(5)
C5B C 0.5628(3) 0.5907(2) 0.6291(5)
C6B C 0.4212(3) 0.7110(2) 0.6965(5)
H3B H 0.4810 0.7412 0.6965
C7B C 0.3777(3) 0.6232(2) 0.6965(5)
C8B C 0.6161(3) 0.6202(2) 0.4838(5)
C9B C 0.4440(3) 0.6447(2) 0.3216(5)
H4B H 0.3906 0.6322 0.3664
C10B C 0.5832(3) 0.5621(2) 0.7788(5)
H5B H 0.5463 0.5420 0.8765
C11B C 0.5453(4) 0.6916(3) 0.0854(5)
H6B H 0.5606 0.7133 -0.0300
C12B C 0.4682(4) 0.6754(3) 0.1537(5)
H7B H 0.4315 0.6857 0.0835
C13B C 0.5995(4) 0.6766(3) 0.1825(5)
H8B H 0.6516 0.6868 0.1344
C14B C 0.6604(4) 0.5641(3) 0.7798(6)
H9B H 0.6767 0.5455 0.8808
C15B C 0.6934(4) 0.6212(3) 0.4880(6)
H10B H 0.7304 0.6410 0.3905
C16B C 0.7142(4) 0.5930(3) 0.6356(6)
H11B H 0.7661 0.5931 0.6396
H2? H 0.1460 0.9544 0.9017
Cl4? Cl 0.0441(11) 0.9311(12) 0.783(3)
loop_
_geom_bond_atom_site_label_1
_geom_bond_atom_site_label_2
_geom_bond_site_symmetry_1
_geom_bond_site_symmetry_2
Cl1 C1 1_555 1_555
Cl2 C1 1_555 1_555
Cl3 C1 1_555 1_555
C1 H1 1_555 1_555
O1 C4 1_555 1_555
N1 C3 1_555 1_555
C2 C3 1_555 1_555
C3 C9 1_555 1_555
C4 N1 1_555 1_555
C5 N1 1_555 1_555
C6 H3 1_555 1_555
C7 C4 1_555 1_555
C8 C2 1_555 1_555
C9 H4 1_555 1_555
C10 C5 1_555 1_555
H5 C10 1_555 1_555
C11 H6 1_555 1_555
C12 C9 1_555 1_555
H7 C12 1_555 1_555
C13 C2 1_555 1_555
H8 C13 1_555 1_555
C14 C10 1_555 1_555
H9 C14 1_555 1_555
C15 C8 1_555 1_555
H10 C15 1_555 1_555
C16 C14 1_555 1_555
H11 C16 1_555 1_555
O1A C4A 1_555 1_555
N1A C3A 1_555 1_555
C2A C3A 1_555 1_555
C3A C9A 1_555 1_555
C4A N1A 1_555 1_555
C5A N1A 1_555 1_555
C6A H3A 1_555 1_555
C7A C6 1_555 1_555
C8A C2A 1_555 1_555
C9A H4A 1_555 1_555
C10A C5A 1_555 1_555
H5A C10A 1_555 1_555
C11A H6A 1_555 1_555
C12A C9A 1_555 1_555
H7A C12A 1_555 1_555
C13A C2A 1_555 1_555
H8A C13A 1_555 1_555
C14A C10A 1_555 1_555
H9A C14A 1_555 1_555
C15A C8A 1_555 1_555
H10A C15A 1_555 1_555
C16A C14A 1_555 1_555
H11A C16A 1_555 1_555
O1B C4B 1_555 1_555
N1B C3B 1_555 1_555
C2B C3B 1_555 1_555
C3B C9B 1_555 1_555
C4B N1B 1_555 1_555
C5B N1B 1_555 1_555
C6B C7 1_555 1_555
H3B C6B 1_555 1_555
C7B C6A 1_555 1_555
C8B C2B 1_555 1_555
C9B H4B 1_555 1_555
C10B C5B 1_555 1_555
H5B C10B 1_555 1_555
C11B H6B 1_555 1_555
C12B C9B 1_555 1_555
H7B C12B 1_555 1_555
C13B C2B 1_555 1_555
H8B C13B 1_555 1_555
C14B C10B 1_555 1_555
H9B C14B 1_555 1_555
C15B C8B 1_555 1_555
H10B C15B 1_555 1_555
C16B C14B 1_555 1_555
H11B C16B 1_555 1_555
C5 C8 1_555 1_555
C6 C7 1_555 1_555
C11 C12 1_555 1_555
C11 C13 1_555 1_555
C15 C16 1_555 1_555
C4A C7A 1_555 1_555
C5A C8A 1_555 1_555
C6A C7A 1_555 1_555
C11A C12A 1_555 1_555
C11A C13A 1_555 1_555
C15A C16A 1_555 1_555
C4B C7B 1_555 1_555
C5B C8B 1_555 1_555
C6B C7B 1_555 1_555
C11B C12B 1_555 1_555
C11B C13B 1_555 1_555
C15B C16B 1_555 1_555

#END
