
#######################################################################
#
#                 Cambridge Crystallographic Data Centre
#                                CCDC 
#
#######################################################################
#
# If this CIF has been generated from an entry in the Cambridge 
# Structural Database, then it will include bibliographic, chemical, 
# crystal, experimental, refinement or atomic coordinate data resulting 
# from the CCDC's data processing and validation procedures.
#
#######################################################################

data_CEPLER
_chemical_formula_moiety         'C45 H27 N3 O3'
_chemical_name_systematic        
'(benzene-1,3,5-triyl)tris[(9H-carbazol-9-yl)methanone] unknown solvate'
_symmetry_cell_setting           trigonal
_symmetry_space_group_name_H-M   'P -3'
_symmetry_Int_Tables_number      147
_space_group_name_Hall           '-P 3'
loop_
_symmetry_equiv_pos_site_id
_symmetry_equiv_pos_as_xyz
1 x,y,z
2 -y,x-y,z
3 -x+y,-x,z
4 -x,-y,-z
5 y,-x+y,-z
6 x-y,x,-z
_cell_length_a                   18.358(11)
_cell_length_b                   18.358(11)
_cell_length_c                   7.772(5)
_cell_angle_alpha                90
_cell_angle_beta                 90
_cell_angle_gamma                120
_cell_volume                     2268.37
_exptl_crystal_colour            colorless
_exptl_crystal_description       block
_cell_formula_units_Z            2
loop_
_atom_site_label
_atom_site_type_symbol
_atom_site_fract_x
_atom_site_fract_y
_atom_site_fract_z
O1 O 0.88459(10) 0.40720(10) 0.1737(2)
N1 N 0.89196(11) 0.49078(12) 0.3992(2)
C1 C 0.75418(14) 0.37728(14) 0.2975(3)
C2 C 0.71118(14) 0.28987(14) 0.2971(3)
H1 H 0.7407 0.2609 0.2966
C3 C 0.93130(14) 0.57511(15) 0.6410(3)
C4 C 0.99692(14) 0.61504(15) 0.5117(3)
C5 C 0.86743(14) 0.49906(14) 0.5701(3)
C6 C 0.84886(15) 0.42423(14) 0.2854(3)
C7 C 0.97264(14) 0.56196(14) 0.3650(3)
C8 C 1.02193(14) 0.58339(15) 0.2182(3)
H2 H 1.0055 0.5480 0.1230
C9 C 0.79346(15) 0.46646(16) 0.8354(3)
H3 H 0.7477 0.4303 0.9030
C10 C 0.79946(14) 0.44291(15) 0.6681(3)
H4 H 0.7592 0.3912 0.6237
C11 C 1.07302(15) 0.69130(16) 0.5070(3)
H5 H 1.0901 0.7270 0.6017
C12 C 1.09712(16) 0.66008(16) 0.2188(3)
H6 H 1.1313 0.6762 0.1217
C13 C 0.85443(16) 0.54282(18) 0.9031(3)
H7 H 0.8483 0.5578 1.0142
C14 C 0.92394(16) 0.59666(17) 0.8075(3)
H8 H 0.9655 0.6470 0.8547
C15 C 1.12242(16) 0.71329(17) 0.3621(3)
H9 H 1.1731 0.7639 0.3592
O1A O 0.59280(10) 0.47739(14) 0.1737(2)
N1A N 0.50922(12) 0.40118(16) 0.3992(2)
C1A C 0.62272(14) 0.37690(20) 0.2975(3)
C2A C 0.71013(14) 0.42131(20) 0.2971(3)
H1A H 0.7391 0.4798 0.2966
C3A C 0.42489(15) 0.35619(21) 0.6410(3)
C4A C 0.38496(15) 0.38188(21) 0.5117(3)
C5A C 0.50094(14) 0.36837(20) 0.5701(3)
C6A C 0.57577(14) 0.42463(21) 0.2854(3)
C7A C 0.43804(14) 0.41068(20) 0.3650(3)
C8A C 0.41661(15) 0.43854(21) 0.2182(3)
H2A H 0.4520 0.4575 0.1230
C9A C 0.53354(16) 0.32700(22) 0.8354(3)
H3A H 0.5697 0.3174 0.9030
C10A C 0.55709(15) 0.35655(21) 0.6681(3)
H4A H 0.6088 0.3680 0.6237
C11A C 0.30870(16) 0.38172(22) 0.5070(3)
H5A H 0.2730 0.3631 0.6017
C12A C 0.33992(16) 0.43704(23) 0.2188(3)
H6A H 0.3238 0.4551 0.1217
C13A C 0.45718(18) 0.31161(24) 0.9031(3)
H7A H 0.4422 0.2905 1.0142
C14A C 0.40334(17) 0.32728(23) 0.8075(3)
H8A H 0.3530 0.3185 0.8547
C15A C 0.28671(17) 0.40913(23) 0.3621(3)
H9A H 0.2361 0.4092 0.3592
O1B O 0.52261(14) 0.11541(10) 0.1737(2)
N1B N 0.59882(16) 0.10804(11) 0.3992(2)
C1B C 0.62310(20) 0.24582(14) 0.2975(3)
C2B C 0.57869(20) 0.28882(14) 0.2971(3)
H1B H 0.5202 0.2593 0.2966
C3B C 0.64381(21) 0.06870(14) 0.6410(3)
C4B C 0.61812(21) 0.00308(14) 0.5117(3)
C5B C 0.63163(20) 0.13257(14) 0.5701(3)
C6B C 0.57537(21) 0.15114(15) 0.2854(3)
C7B C 0.58932(20) 0.02736(14) 0.3650(3)
C8B C 0.56146(21) -0.02193(14) 0.2182(3)
H2B H 0.5425 -0.0055 0.1230
C9B C 0.67300(22) 0.20654(15) 0.8354(3)
H3B H 0.6826 0.2523 0.9030
C10B C 0.64345(21) 0.20054(14) 0.6681(3)
H4B H 0.6320 0.2408 0.6237
C11B C 0.61828(22) -0.07302(15) 0.5070(3)
H5B H 0.6369 -0.0901 0.6017
C12B C 0.56296(23) -0.09712(16) 0.2188(3)
H6B H 0.5449 -0.1313 0.1217
C13B C 0.68839(24) 0.14557(16) 0.9031(3)
H7B H 0.7095 0.1517 1.0142
C14B C 0.67272(23) 0.07606(16) 0.8075(3)
H8B H 0.6815 0.0345 0.8547
C15B C 0.59087(23) -0.12242(16) 0.3621(3)
H9B H 0.5908 -0.1731 0.3592
loop_
_geom_bond_atom_site_label_1
_geom_bond_atom_site_label_2
_geom_bond_site_symmetry_1
_geom_bond_site_symmetry_2
O1 C6 1_555 1_555
N1 C5 1_555 1_555
C1 C2 1_555 1_555
C2 H1 1_555 1_555
C3 C4 1_555 1_555
C4 C7 1_555 1_555
C5 C3 1_555 1_555
C6 N1 1_555 1_555
C7 N1 1_555 1_555
C8 C7 1_555 1_555
H2 C8 1_555 1_555
C9 H3 1_555 1_555
C10 C5 1_555 1_555
H4 C10 1_555 1_555
C11 C4 1_555 1_555
H5 C11 1_555 1_555
C12 C8 1_555 1_555
H6 C12 1_555 1_555
C13 C9 1_555 1_555
H7 C13 1_555 1_555
C14 C3 1_555 1_555
H8 C14 1_555 1_555
C15 C11 1_555 1_555
H9 C15 1_555 1_555
O1A C6A 1_555 1_555
N1A C5A 1_555 1_555
C1A C2A 1_555 1_555
C2A C1 1_555 1_555
H1A C2A 1_555 1_555
C3A C4A 1_555 1_555
C4A C7A 1_555 1_555
C5A C3A 1_555 1_555
C6A N1A 1_555 1_555
C7A N1A 1_555 1_555
C8A C7A 1_555 1_555
H2A C8A 1_555 1_555
C9A H3A 1_555 1_555
C10A C5A 1_555 1_555
H4A C10A 1_555 1_555
C11A C4A 1_555 1_555
H5A C11A 1_555 1_555
C12A C8A 1_555 1_555
H6A C12A 1_555 1_555
C13A C9A 1_555 1_555
H7A C13A 1_555 1_555
C14A C3A 1_555 1_555
H8A C14A 1_555 1_555
C15A C11A 1_555 1_555
H9A C15A 1_555 1_555
O1B C6B 1_555 1_555
N1B C5B 1_555 1_555
C1B C2 1_555 1_555
C2B C1A 1_555 1_555
H1B C2B 1_555 1_555
C3B C4B 1_555 1_555
C4B C7B 1_555 1_555
C5B C3B 1_555 1_555
C6B N1B 1_555 1_555
C7B N1B 1_555 1_555
C8B C7B 1_555 1_555
H2B C8B 1_555 1_555
C9B H3B 1_555 1_555
C10B C5B 1_555 1_555
H4B C10B 1_555 1_555
C11B C4B 1_555 1_555
H5B C11B 1_555 1_555
C12B C8B 1_555 1_555
H6B C12B 1_555 1_555
C13B C9B 1_555 1_555
H7B C13B 1_555 1_555
C14B C3B 1_555 1_555
H8B C14B 1_555 1_555
C15B C11B 1_555 1_555
H9B C15B 1_555 1_555
C1 C6 1_555 1_555
C9 C10 1_555 1_555
C12 C15 1_555 1_555
C13 C14 1_555 1_555
C1A C6A 1_555 1_555
C9A C10A 1_555 1_555
C12A C15A 1_555 1_555
C13A C14A 1_555 1_555
C1B C2B 1_555 1_555
C1B C6B 1_555 1_555
C9B C10B 1_555 1_555
C12B C15B 1_555 1_555
C13B C14B 1_555 1_555

#END
