
#######################################################################
#
#                 Cambridge Crystallographic Data Centre
#                                CCDC 
#
#######################################################################
#
# If this CIF has been generated from an entry in the Cambridge 
# Structural Database, then it will include bibliographic, chemical, 
# crystal, experimental, refinement or atomic coordinate data resulting 
# from the CCDC's data processing and validation procedures.
#
#######################################################################

data_CEPMOA01
_chemical_formula_moiety         'C20 H17 N5 O2'
_chemical_name_systematic        
2,4-Dihydro-4-((5-hydroxy-3-methyl-1-phenyl-1H-pyrazol-4-yl)imino)-5-methyl-2-phenyl-3H-pyrazol-3-one
_symmetry_cell_setting           triclinic
_symmetry_space_group_name_H-M   'P -1'
_symmetry_Int_Tables_number      2
_space_group_name_Hall           '-P 1'
loop_
_symmetry_equiv_pos_site_id
_symmetry_equiv_pos_as_xyz
1 x,y,z
2 -x,-y,-z
_cell_length_a                   9.6488(5)
_cell_length_b                   9.8123(6)
_cell_length_c                   18.4526(13)
_cell_angle_alpha                81.091(2)
_cell_angle_beta                 83.933(2)
_cell_angle_gamma                87.039(5)
_cell_volume                     1715.18
_exptl_crystal_colour            'dark red'
_exptl_crystal_description       block
_chemical_melting_point          183-184deg.C
_cell_formula_units_Z            4
loop_
_atom_site_label
_atom_site_type_symbol
_atom_site_fract_x
_atom_site_fract_y
_atom_site_fract_z
C1 C 0.5253(5) 0.5179(4) 0.2874(3)
C2 C 0.5387(5) 0.5400(4) 0.2077(3)
C3 C 0.4400(5) 0.4473(4) 0.1898(3)
C4 C 0.4127(5) 0.4297(5) 0.1138(3)
H1 H 0.3121 0.4248 0.1116
H2 H 0.4597 0.3443 0.1012
H3 H 0.4484 0.5084 0.0787
N1 N 0.3755(4) 0.3772(4) 0.2483(2)
N2 N 0.4296(4) 0.4221(3) 0.3083(2)
O1 O 0.5855(3) 0.5745(3) 0.33354(17)
C5 C 0.3806(5) 0.3639(4) 0.3815(3)
C6 C 0.3646(4) 0.4451(4) 0.4372(2)
H4 H 0.3843 0.5404 0.4268
C7 C 0.3196(4) 0.3856(5) 0.5080(2)
H5 H 0.3092 0.4401 0.5467
C8 C 0.2898(5) 0.2471(5) 0.5230(3)
H6 H 0.2609 0.2063 0.5721
C9 C 0.3019(4) 0.1685(4) 0.4671(2)
H7 H 0.2785 0.0742 0.4772
C10 C 0.3487(4) 0.2272(4) 0.3954(2)
H8 H 0.3582 0.1729 0.3566
N3 N 0.6099(4) 0.6248(4) 0.1558(2)
C11 C 0.7801(5) 0.7595(4) 0.2131(3)
C12 C 0.7043(5) 0.7172(4) 0.1570(3)
C13 C 0.7572(5) 0.8024(5) 0.0905(3)
C14 C 0.7115(6) 0.8001(5) 0.0159(3)
H9 H 0.7518 0.8773 -0.0187
H10 H 0.6096 0.8087 0.0185
H11 H 0.7433 0.7129 -0.0010
N4 N 0.8494(4) 0.8874(4) 0.1004(2)
N5 N 0.8636(4) 0.8597(3) 0.1775(2)
O2 O 0.7801(3) 0.7137(3) 0.28134(17)
H12 H 0.686(9) 0.636(9) 0.307(5)
C15 C 0.9541(5) 0.9444(4) 0.2063(3)
C16 C 0.9652(5) 0.9352(5) 0.2810(3)
H13 H 0.9138 0.8690 0.3149
C17 C 1.0507(5) 1.0219(5) 0.3064(3)
H14 H 1.0563 1.0165 0.3579
C18 C 1.1288(5) 1.1172(5) 0.2570(3)
H15 H 1.1882 1.1767 0.2743
C19 C 1.1190(5) 1.1241(5) 0.1829(3)
H16 H 1.1725 1.1888 0.1491
C20 C 1.0339(5) 1.0399(4) 0.1565(3)
H17 H 1.0288 1.0459 0.1049
C21 C 0.0234(5) 0.5006(4) 0.2932(3)
C22 C 0.0322(5) 0.5261(5) 0.2140(3)
C23 C -0.0685(5) 0.4368(4) 0.1963(3)
C24 C -0.1005(5) 0.4200(5) 0.1210(3)
H18 H -0.0163 0.3870 0.0934
H19 H -0.1327 0.5090 0.0952
H20 H -0.1737 0.3529 0.1248
N6 N -0.1327(4) 0.3659(4) 0.2551(2)
N7 N -0.0723(4) 0.4045(4) 0.3155(2)
O3 O 0.0856(3) 0.5550(3) 0.33878(17)
C25 C -0.1203(5) 0.3423(4) 0.3880(2)
C26 C -0.0359(5) 0.3363(4) 0.4452(2)
H21 H 0.0545 0.3731 0.4364
C27 C -0.0868(4) 0.2753(4) 0.5152(2)
H22 H -0.0305 0.2704 0.5548
C28 C -0.2183(5) 0.2214(4) 0.5281(3)
H23 H -0.2526 0.1811 0.5764
C29 C -0.2994(5) 0.2265(4) 0.4704(2)
H24 H -0.3893 0.1884 0.4792
C30 C -0.2517(4) 0.2860(4) 0.4004(2)
H25 H -0.3079 0.2887 0.3608
N8 N 0.0999(4) 0.6114(4) 0.1620(2)
C31 C 0.2692(5) 0.7534(4) 0.2155(3)
C32 C 0.1949(5) 0.7047(4) 0.1607(3)
C33 C 0.2478(5) 0.7865(5) 0.0927(3)
C34 C 0.2037(6) 0.7788(5) 0.0186(3)
H26 H 0.2483 0.8512 -0.0176
H27 H 0.1021 0.7921 0.0200
H28 H 0.2316 0.6882 0.0047
N9 N 0.3402(4) 0.8721(4) 0.1023(2)
N10 N 0.3532(4) 0.8516(4) 0.1795(2)
O4 O 0.2639(3) 0.7141(3) 0.28554(17)
H29 H 0.175(7) 0.640(6) 0.310(4)
C35 C 0.4481(5) 0.9341(4) 0.2052(3)
C36 C 0.4755(5) 0.9134(4) 0.2793(3)
H30 H 0.4296 0.8441 0.3139
C37 C 0.5706(5) 0.9956(5) 0.3012(3)
H31 H 0.5893 0.9824 0.3513
C38 C 0.6384(5) 1.0959(5) 0.2521(3)
H32 H 0.7037 1.1513 0.2681
C39 C 0.6107(5) 1.1156(5) 0.1789(3)
H33 H 0.6575 1.1846 0.1446
C40 C 0.5156(5) 1.0356(4) 0.1557(3)
H34 H 0.4965 1.0503 0.1056
loop_
_geom_bond_atom_site_label_1
_geom_bond_atom_site_label_2
_geom_bond_site_symmetry_1
_geom_bond_site_symmetry_2
C1 C2 1_555 1_555
C2 C3 1_555 1_555
C3 C4 1_555 1_555
C4 H1 1_555 1_555
H2 C4 1_555 1_555
H3 C4 1_555 1_555
N1 C3 1_555 1_555
N2 C1 1_555 1_555
O1 C1 1_555 1_555
C5 N2 1_555 1_555
C6 C5 1_555 1_555
H4 C6 1_555 1_555
C7 C6 1_555 1_555
H5 C7 1_555 1_555
C8 C7 1_555 1_555
H6 C8 1_555 1_555
C9 C8 1_555 1_555
H7 C9 1_555 1_555
C10 C5 1_555 1_555
H8 C10 1_555 1_555
N3 C2 1_555 1_555
C11 C12 1_555 1_555
C12 N3 1_555 1_555
C13 C12 1_555 1_555
C14 C13 1_555 1_555
H9 C14 1_555 1_555
H10 C14 1_555 1_555
H11 C14 1_555 1_555
N4 C13 1_555 1_555
N5 C11 1_555 1_555
O2 C11 1_555 1_555
H12 O1 1_555 1_555
C15 N5 1_555 1_555
C16 C15 1_555 1_555
H13 C16 1_555 1_555
C17 C16 1_555 1_555
H14 C17 1_555 1_555
C18 C17 1_555 1_555
H15 C18 1_555 1_555
C19 C18 1_555 1_555
H16 C19 1_555 1_555
C20 C15 1_555 1_555
H17 C20 1_555 1_555
C21 C22 1_555 1_555
C22 C23 1_555 1_555
C23 C24 1_555 1_555
C24 H18 1_555 1_555
H19 C24 1_555 1_555
H20 C24 1_555 1_555
N6 C23 1_555 1_555
N7 C21 1_555 1_555
O3 C21 1_555 1_555
C25 N7 1_555 1_555
C26 C25 1_555 1_555
H21 C26 1_555 1_555
C27 C26 1_555 1_555
H22 C27 1_555 1_555
C28 C27 1_555 1_555
H23 C28 1_555 1_555
C29 C28 1_555 1_555
H24 C29 1_555 1_555
C30 C25 1_555 1_555
H25 C30 1_555 1_555
N8 C22 1_555 1_555
C31 C32 1_555 1_555
C32 N8 1_555 1_555
C33 C32 1_555 1_555
C34 C33 1_555 1_555
H26 C34 1_555 1_555
H27 C34 1_555 1_555
H28 C34 1_555 1_555
N9 C33 1_555 1_555
N10 C31 1_555 1_555
O4 C31 1_555 1_555
H29 O4 1_555 1_555
C35 N10 1_555 1_555
C36 C35 1_555 1_555
H30 C36 1_555 1_555
C37 C36 1_555 1_555
H31 C37 1_555 1_555
C38 C37 1_555 1_555
H32 C38 1_555 1_555
C39 C38 1_555 1_555
H33 C39 1_555 1_555
C40 C35 1_555 1_555
H34 C40 1_555 1_555
N1 N2 1_555 1_555
C9 C10 1_555 1_555
N4 N5 1_555 1_555
C19 C20 1_555 1_555
N6 N7 1_555 1_555
C29 C30 1_555 1_555
N9 N10 1_555 1_555
C39 C40 1_555 1_555

#END
