
#######################################################################
#
#                 Cambridge Crystallographic Data Centre
#                                CCDC 
#
#######################################################################
#
# If this CIF has been generated from an entry in the Cambridge 
# Structural Database, then it will include bibliographic, chemical, 
# crystal, experimental, refinement or atomic coordinate data resulting 
# from the CCDC's data processing and validation procedures.
#
#######################################################################

data_CEPPOD
_chemical_formula_moiety         'C21 H25 F1 N2 O3'
_chemical_name_systematic        
((R,S)-3,3-Dimethyl-5-hydroxy-2-isobutylamino-3,4-dihydro-2H-1,4-benzoxazin-6-yl)-(4-fluorophenyl)methanone
_symmetry_cell_setting           monoclinic
_symmetry_space_group_name_H-M   'P 21/c'
_symmetry_Int_Tables_number      14
_space_group_name_Hall           '-P 2ybc'
loop_
_symmetry_equiv_pos_site_id
_symmetry_equiv_pos_as_xyz
1 x,y,z
2 -x,1/2+y,1/2-z
3 -x,-y,-z
4 x,1/2-y,1/2+z
_cell_length_a                   14.022(13)
_cell_length_b                   10.920(9)
_cell_length_c                   12.843(12)
_cell_angle_alpha                90
_cell_angle_beta                 92.64(5)
_cell_angle_gamma                90
_cell_volume                     1964.44
_exptl_crystal_colour            colorless
_exptl_crystal_description       plate
_chemical_melting_point          134-136deg.C
_cell_formula_units_Z            4
_exptl_crystal_recrystallization_method 'diethyl ether/petroleum ether'
loop_
_atom_site_label
_atom_site_type_symbol
_atom_site_fract_x
_atom_site_fract_y
_atom_site_fract_z
F1 F 0.68558(17) 0.4852(2) -0.04695(16)
O1 O 0.16171(16) 0.45816(18) 0.45399(16)
C1 C 0.1469(2) 0.4678(3) 0.5672(2)
H1 H 0.0784 0.4574 0.5767
C2 C 0.1986(2) 0.3617(3) 0.6244(2)
N1 N 0.30012(18) 0.3786(2) 0.60449(19)
H2 H 0.3425 0.3139 0.6492
C3 C 0.3222(2) 0.3964(2) 0.5012(2)
C4 C 0.4145(2) 0.3756(2) 0.4697(2)
C5 C 0.4401(2) 0.3957(2) 0.3664(2)
C6 C 0.3671(2) 0.4350(3) 0.2950(2)
H3 H 0.3809 0.4463 0.2255
C7 C 0.2772(2) 0.4569(3) 0.3253(2)
H4 H 0.2307 0.4841 0.2768
C8 C 0.2540(2) 0.4389(3) 0.4280(2)
O2 O 0.47722(14) 0.33276(18) 0.54503(15)
H5 H 0.5567 0.3108 0.5048
O3 O 0.59609(16) 0.3235(2) 0.40110(17)
C9 C 0.5376(2) 0.3733(3) 0.3384(2)
N2 N 0.17320(18) 0.5822(2) 0.6095(2)
H6 H 0.2442 0.5950 0.6228
C10 C 0.1175(3) 0.6873(3) 0.5719(3)
H7 H 0.0512 0.6633 0.5616
H8 H 0.1401 0.7129 0.5050
C11 C 0.1243(3) 0.7929(3) 0.6460(3)
H9 H 0.1918 0.8157 0.6541
C12 C 0.0709(3) 0.9028(3) 0.6000(4)
H10 H 0.0985 0.9262 0.5359
H11 H 0.0756 0.9698 0.6483
H12 H 0.0050 0.8818 0.5867
C13 C 0.0919(3) 0.7611(4) 0.7512(3)
H13 H 0.0295 0.7251 0.7447
H14 H 0.0897 0.8338 0.7929
H15 H 0.1357 0.7036 0.7837
C14 C 0.1866(3) 0.3688(3) 0.7407(3)
H16 H 0.2186 0.3008 0.7743
H17 H 0.1199 0.3662 0.7545
H18 H 0.2137 0.4439 0.7672
C15 C 0.1608(3) 0.2397(3) 0.5808(3)
H19 H 0.1721 0.2351 0.5078
H20 H 0.0935 0.2342 0.5907
H21 H 0.1930 0.1734 0.6167
C16 C 0.5726(2) 0.4058(3) 0.2347(2)
C17 C 0.6327(2) 0.3243(3) 0.1870(2)
H22 H 0.6481 0.2506 0.2199
C18 C 0.6698(2) 0.3498(3) 0.0926(3)
H23 H 0.7088 0.2936 0.0607
C19 C 0.6486(3) 0.4588(4) 0.0467(3)
C20 C 0.5909(3) 0.5428(3) 0.0910(3)
H24 H 0.5774 0.6169 0.0578
C21 C 0.5527(2) 0.5168(3) 0.1854(2)
H25 H 0.5135 0.5736 0.2163
loop_
_geom_bond_atom_site_label_1
_geom_bond_atom_site_label_2
_geom_bond_site_symmetry_1
_geom_bond_site_symmetry_2
F1 C19 1_555 1_555
O1 C1 1_555 1_555
C1 H1 1_555 1_555
C2 C1 1_555 1_555
N1 C2 1_555 1_555
H2 N1 1_555 1_555
C3 N1 1_555 1_555
C4 C3 1_555 1_555
C5 C4 1_555 1_555
C6 C5 1_555 1_555
H3 C6 1_555 1_555
C7 C6 1_555 1_555
H4 C7 1_555 1_555
C8 O1 1_555 1_555
O2 C4 1_555 1_555
H5 O2 1_555 1_555
O3 C9 1_555 1_555
C9 C5 1_555 1_555
N2 C1 1_555 1_555
H6 N2 1_555 1_555
C10 N2 1_555 1_555
H7 C10 1_555 1_555
H8 C10 1_555 1_555
C11 C10 1_555 1_555
H9 C11 1_555 1_555
C12 C11 1_555 1_555
H10 C12 1_555 1_555
H11 C12 1_555 1_555
H12 C12 1_555 1_555
C13 C11 1_555 1_555
H13 C13 1_555 1_555
H14 C13 1_555 1_555
H15 C13 1_555 1_555
C14 C2 1_555 1_555
H16 C14 1_555 1_555
H17 C14 1_555 1_555
H18 C14 1_555 1_555
C15 C2 1_555 1_555
H19 C15 1_555 1_555
H20 C15 1_555 1_555
H21 C15 1_555 1_555
C16 C9 1_555 1_555
C17 C16 1_555 1_555
H22 C17 1_555 1_555
C18 C17 1_555 1_555
H23 C18 1_555 1_555
C19 C18 1_555 1_555
C20 C19 1_555 1_555
H24 C20 1_555 1_555
C21 C16 1_555 1_555
H25 C21 1_555 1_555
C3 C8 1_555 1_555
C7 C8 1_555 1_555
C20 C21 1_555 1_555

#END
