
#######################################################################
#
#                 Cambridge Crystallographic Data Centre
#                                CCDC 
#
#######################################################################
#
# If this CIF has been generated from an entry in the Cambridge 
# Structural Database, then it will include bibliographic, chemical, 
# crystal, experimental, refinement or atomic coordinate data resulting 
# from the CCDC's data processing and validation procedures.
#
#######################################################################

data_CEPXAW
_chemical_formula_moiety         'C40 H32'
_chemical_name_systematic        (4.4)(2,7)Pyrenophane
_symmetry_cell_setting           monoclinic
_symmetry_space_group_name_H-M   'P 21/c'
_symmetry_Int_Tables_number      14
_space_group_name_Hall           '-P 2ybc'
loop_
_symmetry_equiv_pos_site_id
_symmetry_equiv_pos_as_xyz
1 x,y,z
2 -x,1/2+y,1/2-z
3 -x,-y,-z
4 x,1/2-y,1/2+z
_cell_length_a                   10.468(3)
_cell_length_b                   10.165(2)
_cell_length_c                   12.552(2)
_cell_angle_alpha                90
_cell_angle_beta                 96.29(2)
_cell_angle_gamma                90
_cell_volume                     1327.58
_exptl_crystal_colour            yellow
_chemical_melting_point          '675-677 K'
_cell_formula_units_Z            2
loop_
_atom_site_label
_atom_site_type_symbol
_atom_site_fract_x
_atom_site_fract_y
_atom_site_fract_z
C1 C 0.22060 0.36360 0.63850
C2 C 0.22900 0.47180 0.70620
C3 C 0.34640 0.53440 0.72820
C4 C 0.45570 0.49230 0.68360
C5 C 0.44690 0.38190 0.61390
C6 C 0.57810 0.55690 0.70560
C7 C 0.68240 0.51460 0.66200
C8 C 0.67690 0.40230 0.59160
C9 C 0.55750 0.33680 0.56810
C10 C 0.78330 0.35560 0.54600
C11 C 0.77760 0.24660 0.47840
C12 C 0.66020 0.18430 0.45500
C13 C 0.54920 0.22600 0.49840
C14 C 0.42690 0.16250 0.47710
C15 C 0.32710 0.31640 0.59140
C16 C 0.32250 0.20440 0.52130
C17 C 0.89880 0.19620 0.43530
C18 C 0.97420 0.30280 0.37840
C19 C 0.91700 0.33330 0.26520
C20 C 0.11380 0.52160 0.75770
H1 H 0.13800 0.31900 0.62100
H2 H 0.35700 0.61200 0.77800
H3 H 0.58300 0.63300 0.75000
H4 H 0.76600 0.56100 0.67700
H5 H 0.86400 0.40100 0.56400
H6 H 0.65400 0.11000 0.40900
H7 H 0.42200 0.08500 0.42900
H8 H 0.23800 0.16200 0.50500
H9 H 0.87300 0.12800 0.37600
H10 H 0.95800 0.15600 0.49300
H11 H 1.06900 0.27000 0.37100
H12 H 0.97500 0.39900 0.42200
H13 H 0.83500 0.26500 0.26300
H14 H 0.98200 0.30200 0.21400
H15 H 0.13300 0.51500 0.84100
H16 H 0.03900 0.46200 0.73200
C20B C 0.88620 0.47840 0.24230
C19B C 0.08300 0.66670 0.73480
C2B C 0.77100 0.52820 0.29380
H15B H 0.86700 0.48500 0.15900
H16B H 0.96100 0.53800 0.26800
C18B C 0.02580 0.69720 0.62160
H13B H 0.16500 0.73500 0.73700
H14B H 0.01800 0.69800 0.78600
C1B C 0.77940 0.63640 0.36150
C3B C 0.65360 0.46560 0.27180
C17B C 0.10120 0.80380 0.56470
H11B H -0.06900 0.73000 0.62900
H12B H 0.02500 0.60100 0.57800
C15B C 0.67290 0.68360 0.40860
H1B H 0.86200 0.68100 0.37900
C4B C 0.54430 0.50770 0.31640
H2B H 0.64300 0.38800 0.22200
C11B C 0.22240 0.75340 0.52160
H9B H 0.12700 0.87200 0.62400
H10B H 0.04200 0.84400 0.50700
C5B C 0.55310 0.61810 0.38610
C16B C 0.67750 0.79560 0.47870
C6B C 0.42190 0.44310 0.29440
C10B C 0.21670 0.64440 0.45400
C12B C 0.33980 0.81570 0.54500
C9B C 0.44250 0.66320 0.43190
C14B C 0.57310 0.83750 0.52290
H8B H 0.76200 0.83800 0.49500
C7B C 0.31760 0.48540 0.33800
H3B H 0.41700 0.36700 0.25000
C8B C 0.32310 0.59770 0.40840
H5B H 0.13600 0.59900 0.43600
C13B C 0.45080 0.77400 0.50160
H6B H 0.34600 0.89000 0.59100
H7B H 0.57800 0.91500 0.57100
H4B H 0.23400 0.43900 0.32300
loop_
_geom_bond_atom_site_label_1
_geom_bond_atom_site_label_2
_geom_bond_site_symmetry_1
_geom_bond_site_symmetry_2
C1 C2 1_555 1_555
C2 C3 1_555 1_555
C3 C4 1_555 1_555
C4 C5 1_555 1_555
C5 C9 1_555 1_555
C6 C4 1_555 1_555
C7 C6 1_555 1_555
C8 C7 1_555 1_555
C9 C8 1_555 1_555
C10 C8 1_555 1_555
C11 C10 1_555 1_555
C12 C11 1_555 1_555
C13 C9 1_555 1_555
C14 C13 1_555 1_555
C15 C1 1_555 1_555
C16 C14 1_555 1_555
C17 C11 1_555 1_555
C18 C17 1_555 1_555
C19 C18 1_555 1_555
C20 C2 1_555 1_555
H1 C1 1_555 1_555
H2 C3 1_555 1_555
H3 C6 1_555 1_555
H4 C7 1_555 1_555
H5 C10 1_555 1_555
H6 C12 1_555 1_555
H7 C14 1_555 1_555
H8 C16 1_555 1_555
H9 C17 1_555 1_555
H10 C17 1_555 1_555
H11 C18 1_555 1_555
H12 C18 1_555 1_555
H13 C19 1_555 1_555
H14 C19 1_555 1_555
H15 C20 1_555 1_555
H16 C20 1_555 1_555
C20B C19 1_555 1_555
C19B C20 1_555 1_555
C2B C20B 1_555 1_555
H15B C20B 1_555 1_555
H16B C20B 1_555 1_555
C18B C19B 1_555 1_555
H13B C19B 1_555 1_555
H14B C19B 1_555 1_555
C1B C2B 1_555 1_555
C3B C2B 1_555 1_555
C17B C18B 1_555 1_555
H11B C18B 1_555 1_555
H12B C18B 1_555 1_555
C15B C1B 1_555 1_555
H1B C1B 1_555 1_555
C4B C3B 1_555 1_555
H2B C3B 1_555 1_555
C11B C17B 1_555 1_555
H9B C17B 1_555 1_555
H10B C17B 1_555 1_555
C5B C15B 1_555 1_555
C16B C15B 1_555 1_555
C6B C4B 1_555 1_555
C10B C11B 1_555 1_555
C12B C11B 1_555 1_555
C9B C5B 1_555 1_555
C14B C16B 1_555 1_555
H8B C16B 1_555 1_555
C7B C6B 1_555 1_555
H3B C6B 1_555 1_555
C8B C10B 1_555 1_555
H5B C10B 1_555 1_555
C13B C12B 1_555 1_555
H6B C12B 1_555 1_555
H7B C14B 1_555 1_555
H4B C7B 1_555 1_555
C5 C15 1_555 1_555
C12 C13 1_555 1_555
C15 C16 1_555 1_555
C4B C5B 1_555 1_555
C9B C8B 1_555 1_555
C9B C13B 1_555 1_555
C14B C13B 1_555 1_555
C7B C8B 1_555 1_555

#END
