
#######################################################################
#
#                 Cambridge Crystallographic Data Centre
#                                CCDC 
#
#######################################################################
#
# If this CIF has been generated from an entry in the Cambridge 
# Structural Database, then it will include bibliographic, chemical, 
# crystal, experimental, refinement or atomic coordinate data resulting 
# from the CCDC's data processing and validation procedures.
#
#######################################################################

data_CEPZUV
_chemical_formula_moiety         'C13 H9 N1,C6 H5 Cl1 O1'
_chemical_name_systematic        '4-chlorophenol acridine'
_symmetry_cell_setting           monoclinic
_symmetry_space_group_name_H-M   'P 21/c'
_symmetry_Int_Tables_number      14
_space_group_name_Hall           '-P 2ybc'
loop_
_symmetry_equiv_pos_site_id
_symmetry_equiv_pos_as_xyz
1 x,y,z
2 -x,1/2+y,1/2-z
3 -x,-y,-z
4 x,1/2-y,1/2+z
_cell_length_a                   7.0958(5)
_cell_length_b                   24.4284(17)
_cell_length_c                   9.0306(7)
_cell_angle_alpha                90
_cell_angle_beta                 108.453(3)
_cell_angle_gamma                90
_cell_volume                     1484.87
_exptl_crystal_colour            colorless
_exptl_crystal_description       block
_cell_formula_units_Z            4
loop_
_atom_site_label
_atom_site_type_symbol
_atom_site_fract_x
_atom_site_fract_y
_atom_site_fract_z
Cl1 Cl 0.86075(4) 0.231720(11) 1.04372(4)
O1 O 0.14793(12) 0.36291(3) 0.74080(9)
H1 H 0.1728 0.3882 0.6867
C1 C 0.31649(16) 0.33380(4) 0.80958(12)
C2 C 0.49972(17) 0.34783(5) 0.79374(12)
H2 H 0.5096 0.3789 0.7333
C3 C 0.66799(17) 0.31673(5) 0.86582(13)
H3 H 0.7925 0.3263 0.8545
C4 C 0.65194(17) 0.27189(5) 0.95388(13)
C5 C 0.30353(18) 0.28857(5) 0.89911(14)
H4 H 0.1793 0.2788 0.9106
C6 C 0.47132(19) 0.25763(5) 0.97184(15)
H5 H 0.4625 0.2269 1.0336
N1 N 0.22047(13) 0.44327(4) 0.55899(10)
C7 C 0.26287(15) 0.49514(4) 0.60962(12)
C8 C 0.27231(15) 0.53903(4) 0.50747(13)
C9 C 0.23880(16) 0.52671(5) 0.35065(13)
H6 H 0.2423 0.5551 0.2796
C10 C 0.19182(15) 0.43181(4) 0.40722(12)
C11 C 0.20027(15) 0.47322(5) 0.29732(12)
C12 C 0.29834(17) 0.50661(5) 0.77117(13)
H7 H 0.2927 0.4779 0.8406
C13 C 0.16857(17) 0.45766(5) 0.13893(13)
H8 H 0.1745 0.4846 0.0648
C14 C 0.15107(17) 0.37678(5) 0.35490(13)
H9 H 0.1441 0.3489 0.4264
C15 C 0.13006(18) 0.40482(6) 0.09295(13)
H10 H 0.1084 0.3951 -0.0130
C16 C 0.12208(18) 0.36400(5) 0.20236(14)
H11 H 0.0961 0.3271 0.1688
C17 C 0.31573(18) 0.59297(5) 0.57035(16)
H12 H 0.3219 0.6225 0.5037
C18 C 0.34022(18) 0.55858(5) 0.82609(14)
H13 H 0.3644 0.5657 0.9339
C19 C 0.34827(18) 0.60229(5) 0.72460(16)
H14 H 0.3766 0.6383 0.7650
loop_
_geom_bond_atom_site_label_1
_geom_bond_atom_site_label_2
_geom_bond_site_symmetry_1
_geom_bond_site_symmetry_2
Cl1 C4 1_555 1_555
O1 H1 1_555 1_555
C1 O1 1_555 1_555
C2 C1 1_555 1_555
H2 C2 1_555 1_555
C3 C2 1_555 1_555
H3 C3 1_555 1_555
C4 C3 1_555 1_555
C5 C1 1_555 1_555
H4 C5 1_555 1_555
C6 C4 1_555 1_555
H5 C6 1_555 1_555
N1 C7 1_555 1_555
C7 C8 1_555 1_555
C8 C9 1_555 1_555
C9 H6 1_555 1_555
C10 N1 1_555 1_555
C11 C9 1_555 1_555
C12 C7 1_555 1_555
H7 C12 1_555 1_555
C13 C11 1_555 1_555
H8 C13 1_555 1_555
C14 C10 1_555 1_555
H9 C14 1_555 1_555
C15 C13 1_555 1_555
H10 C15 1_555 1_555
C16 C14 1_555 1_555
H11 C16 1_555 1_555
C17 C8 1_555 1_555
H12 C17 1_555 1_555
C18 C12 1_555 1_555
H13 C18 1_555 1_555
C19 C17 1_555 1_555
H14 C19 1_555 1_555
C5 C6 1_555 1_555
C10 C11 1_555 1_555
C15 C16 1_555 1_555
C18 C19 1_555 1_555

#END
