
#######################################################################
#
#                 Cambridge Crystallographic Data Centre
#                                CCDC 
#
#######################################################################
#
# If this CIF has been generated from an entry in the Cambridge 
# Structural Database, then it will include bibliographic, chemical, 
# crystal, experimental, refinement or atomic coordinate data resulting 
# from the CCDC's data processing and validation procedures.
#
#######################################################################

data_CEQBEI
_chemical_formula_moiety         'C13 H9 N1,C6 H5 Br1 O1'
_chemical_name_systematic        '4-bromophenol acridine'
_symmetry_cell_setting           monoclinic
_symmetry_space_group_name_H-M   'P 21/c'
_symmetry_Int_Tables_number      14
_space_group_name_Hall           '-P 2ybc'
loop_
_symmetry_equiv_pos_site_id
_symmetry_equiv_pos_as_xyz
1 x,y,z
2 -x,1/2+y,1/2-z
3 -x,-y,-z
4 x,1/2-y,1/2+z
_cell_length_a                   7.1573(4)
_cell_length_b                   24.8433(14)
_cell_length_c                   9.0381(6)
_cell_angle_alpha                90
_cell_angle_beta                 108.491(3)
_cell_angle_gamma                90
_cell_volume                     1524.11
_exptl_crystal_colour            colorless
_exptl_crystal_description       block
_cell_formula_units_Z            4
loop_
_atom_site_label
_atom_site_type_symbol
_atom_site_fract_x
_atom_site_fract_y
_atom_site_fract_z
Br1 Br 0.86583(3) 0.230093(7) 1.05403(2)
O1 O 0.1476(2) 0.36489(5) 0.74117(16)
H1 H 0.1728 0.3890 0.6885
C1 C 0.3140(3) 0.33619(7) 0.8116(2)
C2 C 0.6610(3) 0.31824(8) 0.8687(2)
H2 H 0.7823 0.3269 0.8575
C3 C 0.4963(3) 0.34916(8) 0.7958(2)
H3 H 0.5074 0.3787 0.7360
C4 C 0.6440(3) 0.27448(7) 0.9580(2)
C5 C 0.4640(3) 0.26135(8) 0.9761(3)
H4 H 0.4538 0.2320 1.0368
C6 C 0.2994(3) 0.29240(8) 0.9029(2)
H5 H 0.1786 0.2838 0.9150
N1 N 0.2202(2) 0.44401(6) 0.55975(18)
C7 C 0.2632(3) 0.49480(7) 0.6121(2)
C8 C 0.1918(3) 0.43308(7) 0.4081(2)
C9 C 0.2012(3) 0.47430(8) 0.2994(2)
C10 C 0.2746(3) 0.53825(7) 0.5112(2)
C11 C 0.2417(3) 0.52657(8) 0.3547(2)
H6 H 0.2468 0.5540 0.2863
C12 C 0.2980(3) 0.50570(9) 0.7734(2)
H7 H 0.2916 0.4779 0.8406
C13 C 0.1688(3) 0.45937(9) 0.1405(2)
H8 H 0.1748 0.4855 0.0685
C14 C 0.1502(3) 0.37923(8) 0.3540(2)
H9 H 0.1427 0.3522 0.4231
C15 C 0.1294(3) 0.40777(9) 0.0933(2)
H10 H 0.1074 0.3988 -0.0107
C16 C 0.3405(3) 0.55656(9) 0.8297(3)
H11 H 0.3629 0.5631 0.9352
C17 C 0.3201(3) 0.59100(8) 0.5761(3)
H12 H 0.3284 0.6195 0.5119
C18 C 0.1214(3) 0.36717(9) 0.2016(3)
H13 H 0.0960 0.3318 0.1677
C19 C 0.3511(3) 0.59989(9) 0.7296(3)
H14 H 0.3796 0.6345 0.7700
loop_
_geom_bond_atom_site_label_1
_geom_bond_atom_site_label_2
_geom_bond_site_symmetry_1
_geom_bond_site_symmetry_2
Br1 C4 1_555 1_555
O1 H1 1_555 1_555
C1 O1 1_555 1_555
C2 H2 1_555 1_555
C3 C1 1_555 1_555
H3 C3 1_555 1_555
C4 C2 1_555 1_555
C5 C4 1_555 1_555
H4 C5 1_555 1_555
C6 C1 1_555 1_555
H5 C6 1_555 1_555
N1 C7 1_555 1_555
C7 C10 1_555 1_555
C8 N1 1_555 1_555
C9 C8 1_555 1_555
C10 C11 1_555 1_555
C11 C9 1_555 1_555
H6 C11 1_555 1_555
C12 C7 1_555 1_555
H7 C12 1_555 1_555
C13 C9 1_555 1_555
H8 C13 1_555 1_555
C14 C8 1_555 1_555
H9 C14 1_555 1_555
C15 C13 1_555 1_555
H10 C15 1_555 1_555
C16 C12 1_555 1_555
H11 C16 1_555 1_555
C17 C10 1_555 1_555
H12 C17 1_555 1_555
C18 C14 1_555 1_555
H13 C18 1_555 1_555
C19 C16 1_555 1_555
H14 C19 1_555 1_555
C2 C3 1_555 1_555
C5 C6 1_555 1_555
C15 C18 1_555 1_555
C17 C19 1_555 1_555

#END
