
#######################################################################
#
#                 Cambridge Crystallographic Data Centre
#                                CCDC 
#
#######################################################################
#
# If this CIF has been generated from an entry in the Cambridge 
# Structural Database, then it will include bibliographic, chemical, 
# crystal, experimental, refinement or atomic coordinate data resulting 
# from the CCDC's data processing and validation procedures.
#
#######################################################################

data_CEQNIV
_chemical_formula_moiety         'C38 H46 N6 O2 4+,2(C14 H8 N2 O4 2-),15(H2 O1)'
_chemical_name_systematic        
"2,8,21,27-Tetra-aza-5,24-dioxo(9,9)(2,7)acridinophane trans-3,3'-azobenzene dicarboxylate clathrate pentadecahydrate"
_symmetry_cell_setting           triclinic
_symmetry_space_group_name_H-M   'P -1'
_symmetry_Int_Tables_number      2
_space_group_name_Hall           '-P 1'
loop_
_symmetry_equiv_pos_site_id
_symmetry_equiv_pos_as_xyz
1 x,y,z
2 -x,-y,-z
_cell_length_a                   10.606(4)
_cell_length_b                   18.842(8)
_cell_length_c                   19.483(8)
_cell_angle_alpha                71.27(3)
_cell_angle_beta                 85.49(3)
_cell_angle_gamma                84.08(4)
_cell_volume                     3663.31
_exptl_crystal_colour            yellow
_exptl_crystal_description       'mica-shaped plates'
_cell_formula_units_Z            2
_chemical_properties_physical    air-sensitive
_exptl_crystal_recrystallization_method water/acetone
loop_
_atom_site_label
_atom_site_type_symbol
_atom_site_fract_x
_atom_site_fract_y
_atom_site_fract_z
C1 C -0.0437(5) 0.1623(3) 0.6457(2)
C2 C -0.0148(5) 0.0925(3) 0.6348(2)
H1 H 0.0683(5) 0.0710(3) 0.6380(2)
C3 C -0.1106(5) 0.0550(3) 0.6190(2)
C4 C -0.2327(6) 0.0841(3) 0.6181(3)
H2 H -0.2967(6) 0.0582(3) 0.6096(3)
C5 C -0.2616(6) 0.1521(3) 0.6298(3)
H3 H -0.3459(6) 0.1716(3) 0.6293(3)
C6 C -0.1671(6) 0.1934(3) 0.6427(3)
H4 H -0.1877(6) 0.2401(3) 0.6490(3)
C7 C 0.0593(7) 0.2049(3) 0.6556(3)
O1 O 0.0391(5) 0.2755(2) 0.6443(2)
O2 O 0.1653(4) 0.1682(2) 0.6761(2)
N1 N -0.0672(4) -0.0159(2) 0.6060(2)
N2 N -0.1400(4) -0.0380(2) 0.5710(2)
C8 C 0.0656(5) -0.2074(3) 0.5558(2)
C9 C 0.0288(5) -0.1411(3) 0.5698(2)
H5 H 0.0873(5) -0.1179(3) 0.5867(2)
C10 C -0.0944(5) -0.1081(3) 0.5589(3)
C11 C -0.1802(6) -0.1438(3) 0.5318(3)
H6 H -0.2624(6) -0.1218(3) 0.5227(3)
C12 C -0.1434(6) -0.2114(3) 0.5186(3)
H7 H -0.2013(6) -0.2348(3) 0.5016(3)
C13 C -0.0221(6) -0.2435(3) 0.5307(3)
H8 H 0.0023(6) -0.2890(3) 0.5224(3)
C14 C 0.1969(6) -0.2452(3) 0.5698(3)
O3 O 0.2215(4) -0.3103(2) 0.5644(2)
O4 O 0.2759(4) -0.2097(2) 0.5903(2)
C15 C 0.2116(5) -0.0717(3) 0.8529(3)
C16 C 0.2485(5) -0.1483(3) 0.8735(3)
H9 H 0.2536(5) -0.1754(3) 0.9225(3)
C17 C 0.2784(5) -0.1856(2) 0.8215(3)
C18 C 0.2710(5) -0.1454(3) 0.7499(3)
H10 H 0.2919(5) -0.1694(3) 0.7152(3)
C19 C 0.2323(5) -0.0682(3) 0.7278(3)
H11 H 0.2262(5) -0.0415(3) 0.6788(3)
C20 C 0.2033(5) -0.0317(3) 0.7794(3)
H12 H 0.1783(5) 0.0195(3) 0.7648(3)
C21 C 0.1794(5) -0.0302(3) 0.9089(3)
O5 O 0.1887(4) -0.0698(2) 0.9741(2)
O6 O 0.1448(4) 0.0397(2) 0.8859(2)
N3 N 0.3126(4) -0.2653(2) 0.8387(2)
N4 N 0.3040(4) -0.3020(2) 0.9050(2)
C22 C 0.4368(5) -0.4951(3) 0.9017(3)
C23 C 0.4167(5) -0.4172(3) 0.8822(3)
H13 H 0.4588(5) -0.3880(3) 0.8407(3)
C24 C 0.3348(5) -0.3814(3) 0.9233(2)
C25 C 0.2793(5) -0.4264(3) 0.9870(3)
H14 H 0.2299(5) -0.4042(3) 1.0173(3)
C26 C 0.2962(6) -0.5033(3) 1.0060(3)
H15 H 0.2554(6) -0.5325(3) 1.0481(3)
C27 C 0.3732(6) -0.5380(3) 0.9635(3)
H16 H 0.3822(6) -0.5901(3) 0.9763(3)
C28 C 0.5274(6) -0.5340(3) 0.8587(3)
O7 O 0.6166(4) -0.4978(2) 0.8223(2)
O8 O 0.5074(4) -0.6006(2) 0.8610(3)
N5 N -0.0518(4) -0.2734(2) 0.9302(2)
C29 C -0.0177(5) -0.3074(3) 0.8785(2)
C30 C 0.0075(5) -0.3860(3) 0.8983(3)
H17 H 0.0025(5) -0.4143(3) 0.9471(3)
C31 C 0.0393(5) -0.4221(3) 0.8476(3)
H18 H 0.0556(5) -0.4741(3) 0.8627(3)
C32 C 0.0476(5) -0.3815(3) 0.7732(3)
C33 C 0.0240(5) -0.3053(3) 0.7523(2)
H19 H 0.0308(5) -0.2782(3) 0.7031(2)
C34 C -0.0110(5) -0.2652(3) 0.8034(2)
C35 C -0.0406(5) -0.1864(3) 0.7828(2)
H20 H -0.0363(5) -0.1580(3) 0.7340(2)
C36 C -0.0766(5) -0.1506(3) 0.8357(2)
C37 C -0.1092(5) -0.0718(2) 0.8190(3)
H21 H -0.1069(5) -0.0416(2) 0.7707(3)
C38 C -0.1441(5) -0.0390(2) 0.8721(2)
C39 C -0.1481(5) -0.0863(3) 0.9445(3)
H22 H -0.1719(5) -0.0650(3) 0.9810(3)
C40 C -0.1187(5) -0.1621(3) 0.9635(3)
H23 H -0.1238(5) -0.1911(3) 1.0121(3)
C41 C -0.0799(5) -0.1975(2) 0.9092(2)
C42 C -0.1815(6) 0.0442(3) 0.8523(3)
H24 H -0.1686(6) 0.0661(3) 0.8002(3)
H25 H -0.2716(6) 0.0512(3) 0.8640(3)
N6 N -0.1129(4) 0.0867(2) 0.8880(2)
H26 H -0.0287(4) 0.0774(2) 0.8810(2)
H27 H -0.1319(4) 0.0708(2) 0.9360(2)
C43 C -0.1476(8) 0.1700(3) 0.8584(4)
H28 H -0.1318(8) 0.1862(3) 0.8062(4)
H29 H -0.2377(8) 0.1798(3) 0.8681(4)
C44 C -0.0770(7) 0.2146(3) 0.8892(4)
H30 H -0.1071(7) 0.2672(3) 0.8696(4)
H31 H -0.0942(7) 0.1993(3) 0.9414(4)
C45 C 0.0766(5) -0.4227(3) 0.7181(3)
H32 H 0.0216(5) -0.4633(3) 0.7288(3)
H33 H 0.0582(5) -0.3883(3) 0.6703(3)
N7 N 0.2105(4) -0.4541(2) 0.7171(2)
H34 H 0.2261(4) -0.4889(2) 0.7603(2)
H35 H 0.2620(4) -0.4171(2) 0.7106(2)
C46 C 0.2399(6) -0.4891(3) 0.6586(3)
H36 H 0.2285(6) -0.4508(3) 0.6119(3)
H37 H 0.1806(6) -0.5266(3) 0.6637(3)
C47 C 0.3730(6) -0.5257(3) 0.6603(4)
H38 H 0.3862(6) -0.5648(3) 0.7063(4)
H39 H 0.3895(6) -0.5477(3) 0.6215(4)
N8 N 0.5827(4) -0.1661(2) 0.8873(2)
C48 C 0.6158(5) -0.2031(3) 0.8388(3)
C49 C 0.6584(6) -0.2805(3) 0.8619(3)
H40 H 0.6646(6) -0.3053(3) 0.9113(3)
C50 C 0.6905(5) -0.3196(3) 0.8150(3)
H41 H 0.7191(5) -0.3702(3) 0.8325(3)
C51 C 0.6807(5) -0.2842(3) 0.7395(3)
C52 C 0.6423(5) -0.2094(3) 0.7148(3)
H42 H 0.6377(5) -0.1860(3) 0.6651(3)
C53 C 0.6088(5) -0.1652(3) 0.7626(3)
C54 C 0.5699(5) -0.0874(3) 0.7393(3)
H43 H 0.5657(5) -0.0618(3) 0.6899(3)
C55 C 0.5372(5) -0.0479(3) 0.7897(3)
C56 C 0.4973(6) 0.0300(3) 0.7696(3)
H44 H 0.4957(6) 0.0575(3) 0.7205(3)
C57 C 0.4614(6) 0.0661(3) 0.8189(3)
C58 C 0.4655(6) 0.0222(3) 0.8931(3)
H45 H 0.4404(6) 0.0452(3) 0.9282(3)
C59 C 0.5048(6) -0.0525(4) 0.9148(3)
H46 H 0.5061(6) -0.0787(4) 0.9642(3)
C60 C 0.5436(5) -0.0915(3) 0.8645(3)
C61 C 0.4204(6) 0.1482(3) 0.7991(4)
H47 H 0.4572(6) 0.1689(3) 0.8318(4)
H48 H 0.4537(6) 0.1731(3) 0.7503(4)
N9 N 0.2801(5) 0.1652(2) 0.8020(2)
H49 H 0.2459(5) 0.1311(2) 0.8408(2)
H50 H 0.2485(5) 0.1610(2) 0.7620(2)
C62 C 0.2418(7) 0.2440(3) 0.8067(4)
H51 H 0.2775(7) 0.2488(3) 0.8491(4)
H52 H 0.2774(7) 0.2807(3) 0.7643(4)
C63 C 0.1033(7) 0.2606(3) 0.8110(3)
H53 H 0.0828(7) 0.3110(3) 0.8138(3)
H54 H 0.0660(7) 0.2572(3) 0.7684(3)
C64 C 0.7168(6) -0.3297(3) 0.6888(3)
H55 H 0.7247(6) -0.2958(3) 0.6396(3)
H56 H 0.7991(6) -0.3567(3) 0.7011(3)
N10 N 0.6236(4) -0.3847(2) 0.6917(3)
H57 H 0.5462(4) -0.3602(2) 0.6828(3)
H58 H 0.6198(4) -0.4182(2) 0.7366(3)
C65 C 0.6589(7) -0.4257(4) 0.6373(4)
H59 H 0.6435(7) -0.3917(4) 0.5889(4)
H60 H 0.7487(7) -0.4419(4) 0.6392(4)
C66 C 0.5846(7) -0.4926(4) 0.6515(5)
H61 H 0.6054(7) -0.5164(4) 0.6142(5)
H62 H 0.6040(7) -0.5290(4) 0.6982(5)
O9 O 0.0558(4) 0.2067(2) 0.8747(2)
O10 O 0.4545(4) -0.4666(2) 0.6510(3)
O11 O -0.0482(4) -0.3780(2) 1.0749(2)
O12 O 0.3628(3) -0.3273(2) 0.7108(2)
O13 O 0.3962(5) 0.1714(3) 0.6034(3)
O14 O 0.2510(4) -0.5875(2) 0.8291(2)
O15 O 0.8623(5) -0.5662(3) 0.8168(3)
O16 O -0.3248(5) 0.0579(2) 0.4607(2)
O17 O 0.4734(5) 0.0387(3) 0.5731(3)
O18 O 0.5303(6) -0.2520(5) 0.5519(4)
O19 O 0.3512(9) -0.3804(4) 0.4732(4)
O20 O 0.5759(8) -0.2376(5) 1.0454(4)
O22 O 0.4923(9) 0.3029(3) 0.6398(5)
O23 O 0.6229(7) -0.6883(3) 0.7738(5)
O24 O -0.1324(11) 0.3831(6) 0.6929(6)
O25 O 0.2268(8) 0.3667(4) 0.5746(6)
O26 O 0.1576(31) 0.5074(17) 0.4768(11)
O21? O 0.3918(12) -0.1653(7) 1.0738(7)
O27? O 0.0534(18) 0.4626(11) 0.4440(11)
O28? O 0.1318(42) 0.6045(25) 0.4241(24)
loop_
_geom_bond_atom_site_label_1
_geom_bond_atom_site_label_2
_geom_bond_site_symmetry_1
_geom_bond_site_symmetry_2
C1 C2 1_555 1_555
C2 H1 1_555 1_555
C3 C2 1_555 1_555
C4 C3 1_555 1_555
H2 C4 1_555 1_555
C5 C4 1_555 1_555
H3 C5 1_555 1_555
C6 C1 1_555 1_555
H4 C6 1_555 1_555
C7 C1 1_555 1_555
O1 C7 1_555 1_555
O2 C7 1_555 1_555
N1 C3 1_555 1_555
N2 N1 1_555 1_555
C8 C9 1_555 1_555
C9 H5 1_555 1_555
C10 N2 1_555 1_555
C11 C10 1_555 1_555
H6 C11 1_555 1_555
C12 C11 1_555 1_555
H7 C12 1_555 1_555
C13 C8 1_555 1_555
H8 C13 1_555 1_555
C14 C8 1_555 1_555
O3 C14 1_555 1_555
O4 C14 1_555 1_555
C15 C16 1_555 1_555
C16 H9 1_555 1_555
C17 C16 1_555 1_555
C18 C17 1_555 1_555
H10 C18 1_555 1_555
C19 C18 1_555 1_555
H11 C19 1_555 1_555
C20 C15 1_555 1_555
H12 C20 1_555 1_555
C21 C15 1_555 1_555
O5 C21 1_555 1_555
O6 C21 1_555 1_555
N3 C17 1_555 1_555
N4 N3 1_555 1_555
C22 C23 1_555 1_555
C23 H13 1_555 1_555
C24 N4 1_555 1_555
C25 C24 1_555 1_555
H14 C25 1_555 1_555
C26 C25 1_555 1_555
H15 C26 1_555 1_555
C27 C22 1_555 1_555
H16 C27 1_555 1_555
C28 C22 1_555 1_555
O7 C28 1_555 1_555
O8 C28 1_555 1_555
N5 C29 1_555 1_555
C29 C30 1_555 1_555
C30 H17 1_555 1_555
C31 C30 1_555 1_555
H18 C31 1_555 1_555
C32 C31 1_555 1_555
C33 C32 1_555 1_555
H19 C33 1_555 1_555
C34 C29 1_555 1_555
C35 C34 1_555 1_555
H20 C35 1_555 1_555
C36 C35 1_555 1_555
C37 C36 1_555 1_555
H21 C37 1_555 1_555
C38 C37 1_555 1_555
C39 C38 1_555 1_555
H22 C39 1_555 1_555
C40 C39 1_555 1_555
H23 C40 1_555 1_555
C41 N5 1_555 1_555
C42 C38 1_555 1_555
H24 C42 1_555 1_555
H25 C42 1_555 1_555
N6 C42 1_555 1_555
H26 N6 1_555 1_555
H27 N6 1_555 1_555
C43 N6 1_555 1_555
H28 C43 1_555 1_555
H29 C43 1_555 1_555
C44 C43 1_555 1_555
H30 C44 1_555 1_555
H31 C44 1_555 1_555
C45 C32 1_555 1_555
H32 C45 1_555 1_555
H33 C45 1_555 1_555
N7 C45 1_555 1_555
H34 N7 1_555 1_555
H35 N7 1_555 1_555
C46 N7 1_555 1_555
H36 C46 1_555 1_555
H37 C46 1_555 1_555
C47 C46 1_555 1_555
H38 C47 1_555 1_555
H39 C47 1_555 1_555
N8 C48 1_555 1_555
C48 C49 1_555 1_555
C49 H40 1_555 1_555
C50 C49 1_555 1_555
H41 C50 1_555 1_555
C51 C50 1_555 1_555
C52 C51 1_555 1_555
H42 C52 1_555 1_555
C53 C48 1_555 1_555
C54 C53 1_555 1_555
H43 C54 1_555 1_555
C55 C54 1_555 1_555
C56 C55 1_555 1_555
H44 C56 1_555 1_555
C57 C56 1_555 1_555
C58 C57 1_555 1_555
H45 C58 1_555 1_555
C59 C58 1_555 1_555
H46 C59 1_555 1_555
C60 N8 1_555 1_555
C61 C57 1_555 1_555
H47 C61 1_555 1_555
H48 C61 1_555 1_555
N9 C61 1_555 1_555
H49 N9 1_555 1_555
H50 N9 1_555 1_555
C62 N9 1_555 1_555
H51 C62 1_555 1_555
H52 C62 1_555 1_555
C63 C62 1_555 1_555
H53 C63 1_555 1_555
H54 C63 1_555 1_555
C64 C51 1_555 1_555
H55 C64 1_555 1_555
H56 C64 1_555 1_555
N10 C64 1_555 1_555
H57 N10 1_555 1_555
H58 N10 1_555 1_555
C65 N10 1_555 1_555
H59 C65 1_555 1_555
H60 C65 1_555 1_555
C66 C65 1_555 1_555
H61 C66 1_555 1_555
H62 C66 1_555 1_555
O9 C44 1_555 1_555
O10 C47 1_555 1_555
C5 C6 1_555 1_555
C9 C10 1_555 1_555
C12 C13 1_555 1_555
C19 C20 1_555 1_555
C23 C24 1_555 1_555
C26 C27 1_555 1_555
C33 C34 1_555 1_555
C36 C41 1_555 1_555
C40 C41 1_555 1_555
C52 C53 1_555 1_555
C55 C60 1_555 1_555
C59 C60 1_555 1_555
C63 O9 1_555 1_555
C66 O10 1_555 1_555

#END
