
#######################################################################
#
#                 Cambridge Crystallographic Data Centre
#                                CCDC 
#
#######################################################################
#
# If this CIF has been generated from an entry in the Cambridge 
# Structural Database, then it will include bibliographic, chemical, 
# crystal, experimental, refinement or atomic coordinate data resulting 
# from the CCDC's data processing and validation procedures.
#
#######################################################################

data_CEQQUM
_chemical_formula_moiety         'C16 H32 Li1 O4 1+,C10 H18 B11 1-'
_chemical_name_systematic        
'tetrakis(tetrahydrofuran)-lithium 1,2-(1,2-dihydronaphthalene-2,3-diyl)-1,2-dicarba-closo-tridecaborane(11)'
_symmetry_cell_setting           orthorhombic
_symmetry_space_group_name_H-M   'P n a 21'
_symmetry_Int_Tables_number      33
_space_group_name_Hall           'P 2c -2n'
loop_
_symmetry_equiv_pos_site_id
_symmetry_equiv_pos_as_xyz
1 x,y,z
2 -x,-y,1/2+z
3 1/2+x,1/2-y,z
4 1/2-x,1/2+y,1/2+z
_cell_length_a                   19.642(2)
_cell_length_b                   15.1265(16)
_cell_length_c                   11.6375(12)
_cell_angle_alpha                90
_cell_angle_beta                 90
_cell_angle_gamma                90
_cell_volume                     3457.67
_exptl_crystal_colour            orange
_exptl_crystal_description       prism
_cell_formula_units_Z            4
loop_
_atom_site_label
_atom_site_type_symbol
_atom_site_fract_x
_atom_site_fract_y
_atom_site_fract_z
Li1 Li 0.7935(4) 0.6236(5) 0.2011(10)
O1 O 0.8489(2) 0.6153(3) 0.0662(3)
O2 O 0.75342(14) 0.73874(19) 0.2121(4)
O3 O 0.72037(16) 0.53918(19) 0.2079(4)
O4 O 0.84819(19) 0.6179(3) 0.3397(3)
C1 C 0.9176(4) 0.5780(7) 0.0428(7)
H1 H 0.9271 0.5260 0.0889
H2 H 0.9535 0.6214 0.0529
C2 C 0.9055(6) 0.5551(5) -0.0849(6)
H3 H 0.9478 0.5434 -0.1251
H4 H 0.8750 0.5051 -0.0938
C3 C 0.8734(5) 0.6392(7) -0.1239(6)
H5 H 0.9074 0.6772 -0.1589
H6 H 0.8384 0.6269 -0.1806
C4 C 0.8431(4) 0.6834(5) -0.0230(5)
H7 H 0.8684 0.7362 -0.0024
H8 H 0.7959 0.6991 -0.0369
C5 C 0.6820(2) 0.7557(3) 0.2000(10)
H9 H 0.6565 0.7214 0.2559
H10 H 0.6668 0.7389 0.1237
C6 C 0.6702(3) 0.8519(4) 0.2189(11)
H11 H 0.6399 0.8614 0.2835
H12 H 0.6504 0.8789 0.1511
C7 C 0.7397(4) 0.8903(4) 0.2432(14)
H13 H 0.7481 0.8945 0.3251
H14 H 0.7447 0.9483 0.2088
C8 C 0.7878(3) 0.8221(4) 0.1859(13)
H15 H 0.7911 0.8317 0.1036
H16 H 0.8330 0.8240 0.2193
C9 C 0.6936(4) 0.4989(5) 0.3112(5)
H17 H 0.6787 0.5444 0.3642
H18 H 0.7288 0.4643 0.3484
C10 C 0.6338(5) 0.4396(7) 0.2794(7)
H19 H 0.6383 0.3814 0.3135
H20 H 0.5909 0.4655 0.3031
C11 C 0.6395(4) 0.4355(6) 0.1492(7)
H21 H 0.5978 0.4577 0.1152
H22 H 0.6452 0.3745 0.1255
C12 C 0.7002(5) 0.4905(7) 0.1053(6)
H23 H 0.7367 0.4528 0.0780
H24 H 0.6865 0.5302 0.0441
C13 C 0.8125(3) 0.6129(12) 0.4503(6)
H25 H 0.7956 0.5537 0.4650
H26 H 0.7749 0.6544 0.4536
C14 C 0.8692(4) 0.6383(7) 0.5353(6)
H27 H 0.8801 0.7008 0.5311
H28 H 0.8573 0.6229 0.6137
C15 C 0.9271(4) 0.5808(6) 0.4893(6)
H29 H 0.9706 0.6104 0.4989
H30 H 0.9286 0.5246 0.5293
C16 C 0.9115(3) 0.5674(5) 0.3638(5)
H31 H 0.9487 0.5891 0.3167
H32 H 0.9049 0.5051 0.3474
C17 C 0.9003(2) 0.1139(3) 0.1442(4)
C18 C 0.8974(3) 0.1128(3) 0.2691(4)
B1 B 0.8148(3) 0.1666(4) 0.2111(11)
B2 B 0.8613(4) 0.1884(4) 0.3468(6)
H33 H 0.8466 0.1628 0.4317
B3 B 0.9463(3) 0.2119(4) 0.2919(5)
H34 H 0.9940 0.1945 0.3362
B4 B 0.9489(5) 0.2107(5) 0.1140(6)
H35 H 0.9962 0.1956 0.0673
B5 B 0.8652(4) 0.1911(5) 0.0715(6)
H36 H 0.8519 0.1637 -0.0131
B6 B 0.8115(4) 0.2682(5) 0.2763(8)
H37 H 0.7645 0.2875 0.3211
B7 B 0.8969(3) 0.3015(4) 0.3289(5)
H38 H 0.9093 0.3434 0.4032
B8 B 0.9425(3) 0.3059(4) 0.2068(7)
H39 H 0.9878 0.3487 0.2087
B9 B 0.8912(4) 0.2951(4) 0.0823(6)
H40 H 0.8998 0.3351 0.0047
B10 B 0.8141(4) 0.2669(5) 0.1268(8)
H41 H 0.7687 0.2834 0.0759
B11 B 0.8584(3) 0.3458(4) 0.1992(8)
H42 H 0.8436 0.4159 0.1958
C19 C 0.9077(4) 0.0286(4) 0.3278(5)
H43 H 0.9342 0.0403 0.3965
H44 H 0.8634 0.0077 0.3528
C20 C 0.9086(4) 0.0305(4) 0.0851(4)
C21 C 0.9407(3) -0.0437(3) 0.2665(5)
C22 C 0.9419(3) -0.0426(3) 0.1467(5)
C23 C 0.9699(3) -0.1142(4) 0.0897(6)
H45 H 0.9677 -0.1156 0.0099
C24 C 1.0013(3) -0.1842(4) 0.1465(6)
H46 H 1.0227 -0.2300 0.1073
C25 C 0.9986(3) -0.1809(4) 0.2670(6)
H47 H 1.0165 -0.2280 0.3085
C26 C 0.9717(3) -0.1142(4) 0.3241(6)
H48 H 0.9733 -0.1139 0.4039
H49 H 0.9204(17) 0.031(2) 0.022(3)
H50 H 0.778(2) 0.123(3) 0.177(4)
loop_
_geom_bond_atom_site_label_1
_geom_bond_atom_site_label_2
_geom_bond_site_symmetry_1
_geom_bond_site_symmetry_2
Li1 O1 1_555 1_555
O1 C1 1_555 1_555
O2 Li1 1_555 1_555
O3 Li1 1_555 1_555
O4 Li1 1_555 1_555
C1 H1 1_555 1_555
H2 C1 1_555 1_555
C2 C1 1_555 1_555
H3 C2 1_555 1_555
H4 C2 1_555 1_555
C3 C2 1_555 1_555
H5 C3 1_555 1_555
H6 C3 1_555 1_555
C4 O1 1_555 1_555
H7 C4 1_555 1_555
H8 C4 1_555 1_555
C5 O2 1_555 1_555
H9 C5 1_555 1_555
H10 C5 1_555 1_555
C6 C5 1_555 1_555
H11 C6 1_555 1_555
H12 C6 1_555 1_555
C7 C6 1_555 1_555
H13 C7 1_555 1_555
H14 C7 1_555 1_555
C8 O2 1_555 1_555
H15 C8 1_555 1_555
H16 C8 1_555 1_555
C9 O3 1_555 1_555
H17 C9 1_555 1_555
H18 C9 1_555 1_555
C10 C9 1_555 1_555
H19 C10 1_555 1_555
H20 C10 1_555 1_555
C11 C10 1_555 1_555
H21 C11 1_555 1_555
H22 C11 1_555 1_555
C12 O3 1_555 1_555
H23 C12 1_555 1_555
H24 C12 1_555 1_555
C13 O4 1_555 1_555
H25 C13 1_555 1_555
H26 C13 1_555 1_555
C14 C13 1_555 1_555
H27 C14 1_555 1_555
H28 C14 1_555 1_555
C15 C14 1_555 1_555
H29 C15 1_555 1_555
H30 C15 1_555 1_555
C16 O4 1_555 1_555
H31 C16 1_555 1_555
H32 C16 1_555 1_555
C17 C18 1_555 1_555
C18 B1 1_555 1_555
B1 B2 1_555 1_555
B2 C18 1_555 1_555
H33 B2 1_555 1_555
B3 C18 1_555 1_555
H34 B3 1_555 1_555
B4 C17 1_555 1_555
H35 B4 1_555 1_555
B5 C17 1_555 1_555
H36 B5 1_555 1_555
B6 B1 1_555 1_555
H37 B6 1_555 1_555
B7 B2 1_555 1_555
H38 B7 1_555 1_555
B8 B3 1_555 1_555
H39 B8 1_555 1_555
B9 B4 1_555 1_555
H40 B9 1_555 1_555
B10 B1 1_555 1_555
H41 B10 1_555 1_555
B11 B6 1_555 1_555
H42 B11 1_555 1_555
C19 C18 1_555 1_555
H43 C19 1_555 1_555
H44 C19 1_555 1_555
C20 C17 1_555 1_555
C21 C19 1_555 1_555
C22 C20 1_555 1_555
C23 C22 1_555 1_555
H45 C23 1_555 1_555
C24 C23 1_555 1_555
H46 C24 1_555 1_555
C25 C24 1_555 1_555
H47 C25 1_555 1_555
C26 C21 1_555 1_555
H48 C26 1_555 1_555
H49 C20 1_555 1_555
H50 B1 1_555 1_555
C3 C4 1_555 1_555
C7 C8 1_555 1_555
C11 C12 1_555 1_555
C15 C16 1_555 1_555
B1 B5 1_555 1_555
B2 B3 1_555 1_555
B2 B6 1_555 1_555
B3 B4 1_555 1_555
B3 B7 1_555 1_555
B4 B5 1_555 1_555
B4 B8 1_555 1_555
B5 B9 1_555 1_555
B5 B10 1_555 1_555
B6 B7 1_555 1_555
B6 B10 1_555 1_555
B7 B8 1_555 1_555
B7 B11 1_555 1_555
B8 B9 1_555 1_555
B8 B11 1_555 1_555
B9 B10 1_555 1_555
B9 B11 1_555 1_555
B10 B11 1_555 1_555
C21 C22 1_555 1_555
C25 C26 1_555 1_555

#END
