
#######################################################################
#
#                 Cambridge Crystallographic Data Centre
#                                CCDC 
#
#######################################################################
#
# If this CIF has been generated from an entry in the Cambridge 
# Structural Database, then it will include bibliographic, chemical, 
# crystal, experimental, refinement or atomic coordinate data resulting 
# from the CCDC's data processing and validation procedures.
#
#######################################################################

data_CEQRIC
_chemical_formula_moiety         'C26 H20 Br1 N1 O3'
_chemical_name_systematic        
1-benzyl-8'-bromo-3a',9b'-dihydro-2'H-spiro[indole-3,1'-naphtho[2,1-b]furan]-2,5'(1H,4'H)-dione
_symmetry_cell_setting           orthorhombic
_symmetry_space_group_name_H-M   'P 21 21 21'
_symmetry_Int_Tables_number      19
_space_group_name_Hall           'P 2ac 2ab'
loop_
_symmetry_equiv_pos_site_id
_symmetry_equiv_pos_as_xyz
1 x,y,z
2 1/2+x,1/2-y,-z
3 -x,1/2+y,1/2-z
4 1/2-x,-y,1/2+z
_cell_length_a                   9.4584(12)
_cell_length_b                   13.0110(16)
_cell_length_c                   17.400(2)
_cell_angle_alpha                90
_cell_angle_beta                 90
_cell_angle_gamma                90
_cell_volume                     2141.3
_exptl_crystal_colour            colorless
_exptl_crystal_description       block
_cell_formula_units_Z            4
loop_
_atom_site_label
_atom_site_type_symbol
_atom_site_fract_x
_atom_site_fract_y
_atom_site_fract_z
Br1 Br 0.94121(4) 0.48223(3) 0.85663(2)
C1 C 0.5429(5) 0.4259(3) 0.97673(19)
H1 H 0.5307 0.4438 0.9254
C2 C 0.6379(6) 0.4797(4) 1.0204(3)
H2 H 0.6898 0.5332 0.9989
C3 C 0.6557(5) 0.4533(3) 1.0974(2)
H3 H 0.7205 0.4890 1.1275
C4 C 0.5782(5) 0.3753(3) 1.1289(2)
H4 H 0.5893 0.3579 1.1804
C5 C 0.4827(4) 0.3225(3) 1.08309(19)
H5 H 0.4293 0.2698 1.1045
C6 C 0.4652(3) 0.3462(3) 1.00665(16)
C7 C 0.3570(4) 0.2896(3) 0.95810(17)
H6 H 0.3198 0.2322 0.9873
H7 H 0.2790 0.3356 0.9467
C8 C 0.5162(3) 0.1711(2) 0.88020(16)
C9 C 0.5680(4) 0.1108(3) 0.93794(19)
H8 H 0.5399 0.1200 0.9887
C10 C 0.6651(4) 0.0346(3) 0.9174(2)
H9 H 0.7048 -0.0066 0.9554
C11 C 0.7026(4) 0.0198(3) 0.8427(2)
H10 H 0.7673 -0.0315 0.8305
C12 C 0.6458(4) 0.0803(2) 0.78393(18)
H11 H 0.6709 0.0688 0.7330
C13 C 0.5519(3) 0.1572(2) 0.80270(15)
C14 C 0.4616(3) 0.2278(2) 0.75505(15)
C15 C 0.3824(3) 0.2899(2) 0.81571(17)
C16 C 0.3572(4) 0.1684(3) 0.70345(18)
H12 H 0.3313 0.1034 0.7268
H13 H 0.2720 0.2083 0.6947
C17 C 0.4918(4) 0.2506(3) 0.61597(16)
H14 H 0.4191 0.2935 0.5919
C18 C 0.5340(3) 0.2998(2) 0.69380(15)
H15 H 0.4886 0.3674 0.6969
C19 C 0.6897(3) 0.3147(2) 0.70608(16)
C20 C 0.7929(3) 0.2683(2) 0.65836(16)
C21 C 0.7499(4) 0.2081(3) 0.5901(2)
C22 C 0.6040(5) 0.2307(6) 0.5592(2)
H16 H 0.6106 0.2901 0.5257
H17 H 0.5748 0.1729 0.5277
C23 C 0.7357(3) 0.3767(2) 0.76666(16)
H18 H 0.6702 0.4081 0.7989
C24 C 0.8781(3) 0.3912(2) 0.77848(17)
C25 C 0.9805(3) 0.3429(3) 0.73426(19)
H19 H 1.0763 0.3519 0.7443
C26 C 0.9348(4) 0.2810(3) 0.67491(19)
H20 H 1.0015 0.2468 0.6451
N1 N 0.4160(3) 0.2520(2) 0.88682(12)
O1 O 0.3005(2) 0.36105(18) 0.80410(13)
O2 O 0.8313(4) 0.1555(3) 0.55479(17)
O3 O 0.4306(3) 0.1524(2) 0.63420(15)
loop_
_geom_bond_atom_site_label_1
_geom_bond_atom_site_label_2
_geom_bond_site_symmetry_1
_geom_bond_site_symmetry_2
Br1 C24 1_555 1_555
C1 H1 1_555 1_555
C2 C1 1_555 1_555
H2 C2 1_555 1_555
C3 C2 1_555 1_555
H3 C3 1_555 1_555
C4 C3 1_555 1_555
H4 C4 1_555 1_555
C5 C4 1_555 1_555
H5 C5 1_555 1_555
C6 C1 1_555 1_555
C7 C6 1_555 1_555
H6 C7 1_555 1_555
H7 C7 1_555 1_555
C8 C9 1_555 1_555
C9 H8 1_555 1_555
C10 C9 1_555 1_555
H9 C10 1_555 1_555
C11 C10 1_555 1_555
H10 C11 1_555 1_555
C12 C11 1_555 1_555
H11 C12 1_555 1_555
C13 C8 1_555 1_555
C14 C13 1_555 1_555
C15 C14 1_555 1_555
C16 C14 1_555 1_555
H12 C16 1_555 1_555
H13 C16 1_555 1_555
C17 H14 1_555 1_555
C18 C14 1_555 1_555
H15 C18 1_555 1_555
C19 C18 1_555 1_555
C20 C19 1_555 1_555
C21 C20 1_555 1_555
C22 C17 1_555 1_555
H16 C22 1_555 1_555
H17 C22 1_555 1_555
C23 C19 1_555 1_555
H18 C23 1_555 1_555
C24 C23 1_555 1_555
C25 C24 1_555 1_555
H19 C25 1_555 1_555
C26 C20 1_555 1_555
H20 C26 1_555 1_555
N1 C7 1_555 1_555
O1 C15 1_555 1_555
O2 C21 1_555 1_555
O3 C16 1_555 1_555
C5 C6 1_555 1_555
C8 N1 1_555 1_555
C12 C13 1_555 1_555
C15 N1 1_555 1_555
C17 C18 1_555 1_555
C17 O3 1_555 1_555
C21 C22 1_555 1_555
C25 C26 1_555 1_555

#END
