
#######################################################################
#
#                 Cambridge Crystallographic Data Centre
#                                CCDC 
#
#######################################################################
#
# If this CIF has been generated from an entry in the Cambridge 
# Structural Database, then it will include bibliographic, chemical, 
# crystal, experimental, refinement or atomic coordinate data resulting 
# from the CCDC's data processing and validation procedures.
#
#######################################################################

data_CEQROI
_chemical_formula_moiety         'C9 H7 N1 O2'
_chemical_name_systematic        spiro[indole-3,2'-oxiran]-2(1H)-one
_symmetry_cell_setting           orthorhombic
_symmetry_space_group_name_H-M   'P 21 21 21'
_symmetry_Int_Tables_number      19
_space_group_name_Hall           'P 2ac 2ab'
loop_
_symmetry_equiv_pos_site_id
_symmetry_equiv_pos_as_xyz
1 x,y,z
2 1/2+x,1/2-y,-z
3 -x,1/2+y,1/2-z
4 1/2-x,-y,1/2+z
_cell_length_a                   4.3637
_cell_length_b                   8.4176(1)
_cell_length_c                   20.0620(2)
_cell_angle_alpha                90
_cell_angle_beta                 90
_cell_angle_gamma                90
_cell_volume                     736.915
_exptl_crystal_colour            yellow
_exptl_crystal_description       block
_cell_formula_units_Z            4
loop_
_atom_site_label
_atom_site_type_symbol
_atom_site_fract_x
_atom_site_fract_y
_atom_site_fract_z
O1 O -0.0582(2) -0.69748(10) -0.75889(4)
N1 N 0.2123(2) -0.48657(11) -0.80237(5)
O2 O 0.1571(2) -0.85806(10) -0.88516(4)
C1 C 0.6648(3) -0.60753(14) -0.94346(6)
C2 C 0.5509(3) -0.31962(14) -0.87526(6)
C3 C 0.1263(3) -0.64034(13) -0.79836(5)
C4 C 0.4183(3) -0.46084(14) -0.85558(6)
C5 C 0.3056(3) -0.72829(13) -0.85179(6)
C6 C 0.7969(3) -0.46543(16) -0.96479(6)
C7 C 0.4071(3) -0.89261(13) -0.84089(6)
C8 C 0.7434(3) -0.32451(15) -0.93085(6)
C9 C 0.4762(3) -0.60398(13) -0.88841(5)
H1 H 0.7030(3) -0.70224(14) -0.96583(6)
H2 H 0.9225(3) -0.46515(16) -1.00225(6)
H3 H 0.8374(3) -0.23161(15) -0.94537(6)
H4 H 0.5138(3) -0.22531(14) -0.85250(6)
H5 H 0.1494(2) -0.41332(11) -0.77580(5)
H6 H 0.3595(3) -0.94167(13) -0.79839(6)
H7 H 0.6005(3) -0.92504(13) -0.86048(6)
loop_
_geom_bond_atom_site_label_1
_geom_bond_atom_site_label_2
_geom_bond_site_symmetry_1
_geom_bond_site_symmetry_2
O1 C3 1_555 1_555
N1 C3 1_555 1_555
O2 C5 1_555 1_555
C1 C6 1_555 1_555
C2 C4 1_555 1_555
C3 C5 1_555 1_555
C4 N1 1_555 1_555
C5 C7 1_555 1_555
C6 C8 1_555 1_555
C7 O2 1_555 1_555
C8 C2 1_555 1_555
C9 C1 1_555 1_555
H1 C1 1_555 1_555
H2 C6 1_555 1_555
H3 C8 1_555 1_555
H4 C2 1_555 1_555
H5 N1 1_555 1_555
H6 C7 1_555 1_555
H7 C7 1_555 1_555
C4 C9 1_555 1_555
C5 C9 1_555 1_555

#END
