
#######################################################################
#
#                 Cambridge Crystallographic Data Centre
#                                CCDC 
#
#######################################################################
#
# If this CIF has been generated from an entry in the Cambridge 
# Structural Database, then it will include bibliographic, chemical, 
# crystal, experimental, refinement or atomic coordinate data resulting 
# from the CCDC's data processing and validation procedures.
#
#######################################################################

data_CEQRAT
_chemical_formula_moiety         'C36 H30 N1 P2 1+,C12 H22 B11 1-'
_chemical_name_systematic        
'Triphenyl-N-(triphenylphosphoranylidene)phosphoraniminium 1,2-(but-1-yl-4-ylidene)-3-phenyl-1,2-dicarba-closo-tridecaborane(10)'
_symmetry_cell_setting           monoclinic
_symmetry_space_group_name_H-M   'C 2/c'
_symmetry_Int_Tables_number      15
_space_group_name_Hall           '-C 2yn'
loop_
_symmetry_equiv_pos_site_id
_symmetry_equiv_pos_as_xyz
1 x,y,z
2 -x,y,1/2-z
3 1/2+x,1/2+y,z
4 1/2-x,1/2+y,1/2-z
5 -x,-y,-z
6 x,-y,1/2+z
7 1/2-x,1/2-y,-z
8 1/2+x,1/2-y,1/2+z
_cell_length_a                   32.4442(11)
_cell_length_b                   9.7535(3)
_cell_length_c                   30.9770(11)
_cell_angle_alpha                90
_cell_angle_beta                 97.4300(10)
_cell_angle_gamma                90
_cell_volume                     9720.2
_exptl_crystal_colour            colorless
_exptl_crystal_description       block
_cell_formula_units_Z            8
loop_
_atom_site_label
_atom_site_type_symbol
_atom_site_fract_x
_atom_site_fract_y
_atom_site_fract_z
N1 N 0.15717(6) 0.63949(18) 0.32485(5)
P1 P 0.153205(17) 0.70731(6) 0.370735(16)
P2 P 0.141398(18) 0.50282(6) 0.300371(17)
C1 C 0.16508(7) 0.5944(3) 0.41649(6)
C2 C 0.20611(8) 0.5615(4) 0.43032(8)
H1 H 0.2273 0.6041 0.4178
C3 C 0.21554(10) 0.4652(4) 0.46274(10)
H2 H 0.2432 0.4432 0.4720
C4 C 0.18466(11) 0.4017(4) 0.48145(10)
H3 H 0.1913 0.3369 0.5033
C5 C 0.14402(10) 0.4336(3) 0.46806(8)
H4 H 0.1231 0.3912 0.4811
C6 C 0.13387(8) 0.5279(3) 0.43556(7)
H5 H 0.1061 0.5476 0.4262
C7 C 0.18910(6) 0.8480(2) 0.37716(7)
C8 C 0.19845(8) 0.9136(3) 0.41709(8)
H6 H 0.1883 0.8792 0.4416
C9 C 0.22295(10) 1.0297(4) 0.42012(11)
H7 H 0.2287 1.0743 0.4468
C10 C 0.23880(9) 1.0801(3) 0.38474(12)
H8 H 0.2554 1.1581 0.3873
C11 C 0.23025(9) 1.0158(3) 0.34560(10)
H9 H 0.2413 1.0495 0.3215
C12 C 0.20522(8) 0.9007(3) 0.34162(8)
H10 H 0.1992 0.8583 0.3147
C13 C 0.10233(6) 0.7780(2) 0.37332(7)
C14 C 0.07482(7) 0.7928(3) 0.33528(7)
H11 H 0.0829 0.7684 0.3086
C15 C 0.03537(8) 0.8439(3) 0.33733(9)
H12 H 0.0170 0.8542 0.3119
C16 C 0.02322(8) 0.8796(3) 0.37657(10)
H13 H -0.0037 0.9107 0.3778
C17 C 0.05060(9) 0.8697(3) 0.41407(9)
H14 H 0.0426 0.8970 0.4405
C18 C 0.08991(8) 0.8192(3) 0.41247(7)
H15 H 0.1084 0.8126 0.4380
C19 C 0.11525(7) 0.3859(2) 0.33261(7)
C20 C 0.13514(9) 0.2712(3) 0.35191(8)
H16 H 0.1618 0.2488 0.3462
C21 C 0.11550(10) 0.1902(3) 0.37959(10)
H17 H 0.1291 0.1138 0.3925
C22 C 0.07622(10) 0.2215(3) 0.38821(10)
H18 H 0.0634 0.1670 0.4072
C23 C 0.05586(9) 0.3336(3) 0.36882(9)
H19 H 0.0290 0.3540 0.3743
C24 C 0.07518(8) 0.4156(3) 0.34134(8)
H20 H 0.0613 0.4917 0.3285
C25 C 0.10564(7) 0.5412(2) 0.25247(7)
C26 C 0.07495(8) 0.4491(3) 0.23615(8)
H21 H 0.0724 0.3659 0.2502
C27 C 0.04824(9) 0.4800(3) 0.19927(9)
H22 H 0.0277 0.4178 0.1887
C28 C 0.05175(9) 0.6015(3) 0.17810(8)
H23 H 0.0334 0.6221 0.1533
C29 C 0.08230(10) 0.6933(3) 0.19343(8)
H24 H 0.0848 0.7756 0.1788
C30 C 0.10936(8) 0.6636(3) 0.23062(7)
H25 H 0.1300 0.7259 0.2409
C31 C 0.18540(7) 0.4164(2) 0.28303(7)
C32 C 0.18200(8) 0.3410(3) 0.24469(8)
H26 H 0.1567 0.3366 0.2269
C33 C 0.21611(10) 0.2725(3) 0.23298(9)
H27 H 0.2137 0.2232 0.2071
C34 C 0.25320(9) 0.2765(3) 0.25903(9)
H28 H 0.2759 0.2287 0.2512
C35 C 0.25718(8) 0.3502(3) 0.29655(9)
H29 H 0.2826 0.3529 0.3142
C36 C 0.22364(7) 0.4214(3) 0.30864(8)
H30 H 0.2268 0.4728 0.3341
C37 C 0.10665(7) 1.1957(2) 0.08854(7)
C38 C 0.15174(8) 1.2050(3) 0.09531(9)
C39 C 0.08448(10) 1.3270(3) 0.09869(9)
H31 H 0.0571 1.3285 0.0820
H32 H 0.0810 1.3279 0.1293
C40 C 0.10805(11) 1.4543(3) 0.08827(11)
H33 H 0.1102 1.4568 0.0573
H34 H 0.0929 1.5352 0.0955
C41 C 0.15084(11) 1.4553(3) 0.11359(12)
H35 H 0.1669 1.5300 0.1035
H36 H 0.1488 1.4700 0.1442
C42 C 0.17241(10) 1.3217(3) 0.10784(11)
H37 H 0.2013 1.3190 0.1131
C43 C 0.09856(7) 1.0631(2) 0.17019(7)
C44 C 0.12662(9) 1.0381(3) 0.20688(7)
H38 H 0.1539 1.0149 0.2037
C45 C 0.11475(12) 1.0470(3) 0.24885(8)
H39 H 0.1343 1.0315 0.2731
C46 C 0.07492(13) 1.0783(3) 0.25420(9)
H40 H 0.0669 1.0817 0.2820
C47 C 0.04654(10) 1.1047(3) 0.21838(9)
H41 H 0.0193 1.1277 0.2219
C48 C 0.05824(8) 1.0972(3) 0.17725(8)
H42 H 0.0386 1.1156 0.1534
B1 B 0.11007(8) 1.0436(3) 0.12251(8)
B2 B 0.07384(9) 1.0721(3) 0.07323(8)
H43 H 0.0410 1.1008 0.0730
B3 B 0.10763(11) 1.1329(3) 0.03463(9)
H44 H 0.0999 1.2157 0.0108
B4 B 0.17016(11) 1.1061(4) 0.05434(11)
H45 H 0.1941 1.1613 0.0392
B5 B 0.17250(9) 1.0523(3) 0.11104(10)
H46 H 0.1986 1.0685 0.1370
B6 B 0.08906(9) 0.9061(3) 0.08782(8)
H47 H 0.0664 0.8343 0.0988
B7 B 0.08743(11) 0.9618(3) 0.03283(9)
H48 H 0.0636 0.9289 0.0063
B8 B 0.13908(12) 0.9878(4) 0.02324(10)
H49 H 0.1466 0.9774 -0.0102
B9 B 0.17389(11) 0.9317(3) 0.06860(11)
H50 H 0.2027 0.8745 0.0660
B10 B 0.14212(9) 0.9024(3) 0.11009(9)
H51 H 0.1520 0.8324 0.1373
B11 B 0.12629(11) 0.8483(3) 0.05537(9)
H52 H 0.1263 0.7409 0.0446
loop_
_geom_bond_atom_site_label_1
_geom_bond_atom_site_label_2
_geom_bond_site_symmetry_1
_geom_bond_site_symmetry_2
N1 P1 1_555 1_555
P1 C1 1_555 1_555
P2 N1 1_555 1_555
C1 C2 1_555 1_555
C2 H1 1_555 1_555
C3 C2 1_555 1_555
H2 C3 1_555 1_555
C4 C3 1_555 1_555
H3 C4 1_555 1_555
C5 C4 1_555 1_555
H4 C5 1_555 1_555
C6 C1 1_555 1_555
H5 C6 1_555 1_555
C7 P1 1_555 1_555
C8 C7 1_555 1_555
H6 C8 1_555 1_555
C9 C8 1_555 1_555
H7 C9 1_555 1_555
C10 C9 1_555 1_555
H8 C10 1_555 1_555
C11 C10 1_555 1_555
H9 C11 1_555 1_555
C12 C7 1_555 1_555
H10 C12 1_555 1_555
C13 P1 1_555 1_555
C14 C13 1_555 1_555
H11 C14 1_555 1_555
C15 C14 1_555 1_555
H12 C15 1_555 1_555
C16 C15 1_555 1_555
H13 C16 1_555 1_555
C17 C16 1_555 1_555
H14 C17 1_555 1_555
C18 C13 1_555 1_555
H15 C18 1_555 1_555
C19 P2 1_555 1_555
C20 C19 1_555 1_555
H16 C20 1_555 1_555
C21 C20 1_555 1_555
H17 C21 1_555 1_555
C22 C21 1_555 1_555
H18 C22 1_555 1_555
C23 C22 1_555 1_555
H19 C23 1_555 1_555
C24 C19 1_555 1_555
H20 C24 1_555 1_555
C25 P2 1_555 1_555
C26 C25 1_555 1_555
H21 C26 1_555 1_555
C27 C26 1_555 1_555
H22 C27 1_555 1_555
C28 C27 1_555 1_555
H23 C28 1_555 1_555
C29 C28 1_555 1_555
H24 C29 1_555 1_555
C30 C25 1_555 1_555
H25 C30 1_555 1_555
C31 P2 1_555 1_555
C32 C31 1_555 1_555
H26 C32 1_555 1_555
C33 C32 1_555 1_555
H27 C33 1_555 1_555
C34 C33 1_555 1_555
H28 C34 1_555 1_555
C35 C34 1_555 1_555
H29 C35 1_555 1_555
C36 C31 1_555 1_555
H30 C36 1_555 1_555
C37 C38 1_555 1_555
C38 C42 1_555 1_555
C39 C37 1_555 1_555
H31 C39 1_555 1_555
H32 C39 1_555 1_555
C40 C39 1_555 1_555
H33 C40 1_555 1_555
H34 C40 1_555 1_555
C41 C40 1_555 1_555
H35 C41 1_555 1_555
H36 C41 1_555 1_555
C42 C41 1_555 1_555
H37 C42 1_555 1_555
C43 C44 1_555 1_555
C44 H38 1_555 1_555
C45 C44 1_555 1_555
H39 C45 1_555 1_555
C46 C45 1_555 1_555
H40 C46 1_555 1_555
C47 C46 1_555 1_555
H41 C47 1_555 1_555
C48 C43 1_555 1_555
H42 C48 1_555 1_555
B1 C37 1_555 1_555
B2 C37 1_555 1_555
H43 B2 1_555 1_555
B3 C37 1_555 1_555
H44 B3 1_555 1_555
B4 C38 1_555 1_555
H45 B4 1_555 1_555
B5 C38 1_555 1_555
H46 B5 1_555 1_555
B6 B1 1_555 1_555
H47 B6 1_555 1_555
B7 B2 1_555 1_555
H48 B7 1_555 1_555
B8 B3 1_555 1_555
H49 B8 1_555 1_555
B9 B4 1_555 1_555
H50 B9 1_555 1_555
B10 B1 1_555 1_555
H51 B10 1_555 1_555
B11 B6 1_555 1_555
H52 B11 1_555 1_555
C5 C6 1_555 1_555
C11 C12 1_555 1_555
C17 C18 1_555 1_555
C23 C24 1_555 1_555
C29 C30 1_555 1_555
C35 C36 1_555 1_555
C43 B1 1_555 1_555
C47 C48 1_555 1_555
B1 B2 1_555 1_555
B1 B5 1_555 1_555
B2 B3 1_555 1_555
B2 B6 1_555 1_555
B3 B4 1_555 1_555
B3 B7 1_555 1_555
B4 B5 1_555 1_555
B4 B8 1_555 1_555
B5 B9 1_555 1_555
B5 B10 1_555 1_555
B6 B7 1_555 1_555
B6 B10 1_555 1_555
B7 B8 1_555 1_555
B7 B11 1_555 1_555
B8 B9 1_555 1_555
B8 B11 1_555 1_555
B9 B10 1_555 1_555
B9 B11 1_555 1_555
B10 B11 1_555 1_555

#END
