
#######################################################################
#
#                 Cambridge Crystallographic Data Centre
#                                CCDC 
#
#######################################################################
#
# If this CIF has been generated from an entry in the Cambridge 
# Structural Database, then it will include bibliographic, chemical, 
# crystal, experimental, refinement or atomic coordinate data resulting 
# from the CCDC's data processing and validation procedures.
#
#######################################################################

data_CEQXEB
_chemical_name_common            Acetone-picrylhydrazIne
_chemical_formula_moiety         'C9 H9 N5 O6'
_chemical_name_systematic        '2-Propanone (2,4,6-trinitrophenyl)hydrazone'
_symmetry_cell_setting           triclinic
_symmetry_space_group_name_H-M   'P -1'
_symmetry_Int_Tables_number      2
_space_group_name_Hall           '-P 1'
loop_
_symmetry_equiv_pos_site_id
_symmetry_equiv_pos_as_xyz
1 x,y,z
2 -x,-y,-z
_cell_length_a                   10.1768(9)
_cell_length_b                   7.7968(18)
_cell_length_c                   8.0018(5)
_cell_angle_alpha                92.102(6)
_cell_angle_beta                 99.919(7)
_cell_angle_gamma                105.926(6)
_cell_volume                     599.052
_exptl_crystal_colour            yellow
_exptl_crystal_description       plate
_chemical_melting_point          129.5-130.5deg.C
_cell_formula_units_Z            2
loop_
_atom_site_label
_atom_site_type_symbol
_atom_site_fract_x
_atom_site_fract_y
_atom_site_fract_z
C1 C 0.00175(17) 0.2514(2) 0.0480(2)
C2 C -0.12150(18) 0.1566(2) 0.1057(2)
C3 C -0.23741(19) 0.0455(2) -0.0005(2)
H1 H -0.3160 -0.0116 0.0423
C4 C -0.23470(19) 0.0209(3) -0.1708(2)
C5 C -0.1201(2) 0.1099(3) -0.2382(2)
H2 H -0.1198 0.0925 -0.3538
C6 C -0.00748(18) 0.2238(2) -0.1312(2)
C7 C 0.3262(2) 0.5540(3) 0.2169(3)
C8 C 0.4563(3) 0.6570(4) 0.1625(4)
H3 H 0.4475 0.6329 0.0420
H4 H 0.5338 0.6216 0.2214
H5 H 0.4711 0.7827 0.1892
C9 C 0.3179(3) 0.5724(4) 0.4013(3)
H6 H 0.2292 0.4994 0.4183
H7 H 0.3282 0.6953 0.4359
H8 H 0.3908 0.5342 0.4681
N1 N 0.11284(16) 0.3552(2) 0.15621(19)
H9 H 0.1113 0.3615 0.2634
N2 N -0.13116(18) 0.1673(2) 0.2857(2)
N3 N -0.35330(19) -0.1045(3) -0.2819(2)
N4 N 0.10548(16) 0.3184(2) -0.21817(18)
N5 N 0.23003(17) 0.4528(2) 0.1000(2)
O1 O -0.02158(17) 0.2173(2) 0.39317(17)
O2 O -0.24507(17) 0.1233(2) 0.3233(2)
O3 O -0.45730(18) -0.1702(3) -0.2240(3)
O4 O -0.3402(2) -0.1424(3) -0.4273(2)
O5 O 0.18438(15) 0.2369(2) -0.2529(2)
O6 O 0.10600(18) 0.4666(2) -0.2597(2)
loop_
_geom_bond_atom_site_label_1
_geom_bond_atom_site_label_2
_geom_bond_site_symmetry_1
_geom_bond_site_symmetry_2
C1 C2 1_555 1_555
C2 C3 1_555 1_555
C3 H1 1_555 1_555
C4 C3 1_555 1_555
C5 C4 1_555 1_555
H2 C5 1_555 1_555
C6 C1 1_555 1_555
C7 C8 1_555 1_555
C8 H3 1_555 1_555
H4 C8 1_555 1_555
H5 C8 1_555 1_555
C9 C7 1_555 1_555
H6 C9 1_555 1_555
H7 C9 1_555 1_555
H8 C9 1_555 1_555
N1 C1 1_555 1_555
H9 N1 1_555 1_555
N2 C2 1_555 1_555
N3 C4 1_555 1_555
N4 C6 1_555 1_555
N5 C7 1_555 1_555
O1 N2 1_555 1_555
O2 N2 1_555 1_555
O3 N3 1_555 1_555
O4 N3 1_555 1_555
O5 N4 1_555 1_555
O6 N4 1_555 1_555
C5 C6 1_555 1_555
N1 N5 1_555 1_555

#END
