
#######################################################################
#
#                 Cambridge Crystallographic Data Centre
#                                CCDC 
#
#######################################################################
#
# If this CIF has been generated from an entry in the Cambridge 
# Structural Database, then it will include bibliographic, chemical, 
# crystal, experimental, refinement or atomic coordinate data resulting 
# from the CCDC's data processing and validation procedures.
#
#######################################################################

data_CERHIR
_chemical_formula_moiety         'C20 H28 O7'
_chemical_name_systematic        
'Phenyl 3,4-O-isopropylidene-6-O-pivalyl-\b-D-galactopyranoside'
_symmetry_cell_setting           orthorhombic
_symmetry_space_group_name_H-M   'P 21 21 21'
_symmetry_Int_Tables_number      19
_space_group_name_Hall           'P 2ac 2ab'
loop_
_symmetry_equiv_pos_site_id
_symmetry_equiv_pos_as_xyz
1 x,y,z
2 1/2-x,-y,1/2+z
3 -x,1/2+y,1/2-z
4 1/2+x,1/2-y,-z
_cell_length_a                   5.8611(11)
_cell_length_b                   18.529(3)
_cell_length_c                   19.756(4)
_cell_angle_alpha                90
_cell_angle_beta                 90
_cell_angle_gamma                90
_cell_volume                     2145.51
_exptl_crystal_colour            colorless
_exptl_crystal_description       block
_cell_formula_units_Z            4
_exptl_crystal_recrystallization_method 'ethyl acetate/petroleum ether'
loop_
_atom_site_label
_atom_site_type_symbol
_atom_site_fract_x
_atom_site_fract_y
_atom_site_fract_z
C1 C 0.8991(17) 1.1729(5) -0.1111(4)
C2 C 0.742(2) 1.1635(6) -0.1732(5)
H1 H 0.7684 1.1170 -0.1932
H2 H 0.7745 1.2005 -0.2057
H3 H 0.5856 1.1670 -0.1592
C3 C 1.019(3) 1.2421(5) -0.0853(5)
H4 H 1.1388 1.2291 -0.0545
H5 H 0.9100 1.2721 -0.0624
H6 H 1.0823 1.2679 -0.1230
C4 C 1.0904(19) 1.1310(6) -0.1459(5)
H7 H 1.2157 1.1251 -0.1151
H8 H 1.1409 1.1571 -0.1851
H9 H 1.0349 1.0844 -0.1594
O1 O 0.6387(4) 0.95281(11) -0.05225(11)
O2 O 0.3875(4) 0.94308(11) 0.08182(11)
O3 O 0.1960(4) 0.83956(11) 0.05772(11)
O4 O 0.3897(4) 0.77271(11) -0.06708(12)
H19 H 0.4878 0.7415 -0.0626
O5 O 0.6176(5) 1.10829(13) -0.05010(14)
O6 O 0.9602(7) 1.1087(3) -0.0074(3)
O7 O 0.7670(4) 0.85682(12) -0.11170(10)
C9 C 0.4452(6) 0.99333(15) -0.03063(17)
H20 H 0.3572 1.0069 -0.0708
C10 C 0.2913(6) 0.95101(15) 0.01567(16)
H21 H 0.1430 0.9752 0.0190
C11 C 0.2560(6) 0.87252(15) -0.00501(16)
H22 H 0.1277 0.8691 -0.0366
C12 C 0.4640(6) 0.83739(15) -0.03557(16)
H23 H 0.5739 0.8260 0.0002
C13 C 0.5717(6) 0.88877(16) -0.08581(16)
H24 H 0.4643 0.8999 -0.1224
C14 C 0.2728(7) 0.88452(17) 0.11277(17)
C15 C 0.0638(9) 0.9096(2) 0.1514(3)
H25 H -0.0350 0.9360 0.1216
H26 H 0.1101 0.9403 0.1881
H27 H -0.0161 0.8685 0.1691
C16 C 0.4402(9) 0.8437(2) 0.1558(2)
H28 H 0.5683 0.8294 0.1287
H29 H 0.3676 0.8016 0.1742
H30 H 0.4917 0.8741 0.1921
C17 C 0.8623(6) 0.88369(16) -0.17077(15)
C18 C 1.0601(7) 0.84970(18) -0.19154(17)
H31 H 1.1210 0.8123 -0.1658
C19 C 1.1677(8) 0.8711(2) -0.25043(18)
H32 H 1.3022 0.8488 -0.2640
C20 C 1.0757(10) 0.9254(2) -0.2889(2)
H33 H 1.1445 0.9391 -0.3293
C21 C 0.8841(10) 0.9590(3) -0.2675(2)
H34 H 0.8242 0.9964 -0.2933
C22 C 0.7740(9) 0.9394(2) -0.2082(2)
H35 H 0.6432 0.9635 -0.1941
C23 C 0.5319(7) 1.06115(17) 0.00195(19)
H36 H 0.4096 1.0848 0.0265
H37 H 0.6527 1.0497 0.0338
C24 C 0.8331(8) 1.1290(2) -0.0492(2)
C5? C 0.888(3) 1.1820(8) -0.1038(8)
C6? C 0.701(3) 1.1919(10) -0.1556(9)
H10? H 0.5668 1.2100 -0.1337
H11? H 0.6679 1.1463 -0.1765
H12? H 0.7507 1.2256 -0.1895
C7? C 0.776(4) 1.2535(8) -0.0859(10)
H13? H 0.8455 1.2730 -0.0459
H14? H 0.6161 1.2460 -0.0779
H15? H 0.7949 1.2868 -0.1228
C8? C 1.142(3) 1.1941(12) -0.1108(9)
H16? H 1.2111 1.1950 -0.0667
H17? H 1.1690 1.2394 -0.1331
H18? H 1.2078 1.1558 -0.1370
loop_
_geom_bond_atom_site_label_1
_geom_bond_atom_site_label_2
_geom_bond_site_symmetry_1
_geom_bond_site_symmetry_2
C1 C2 1_555 1_555
C2 H1 1_555 1_555
H2 C2 1_555 1_555
H3 C2 1_555 1_555
C3 C1 1_555 1_555
H4 C3 1_555 1_555
H5 C3 1_555 1_555
H6 C3 1_555 1_555
C4 C1 1_555 1_555
H7 C4 1_555 1_555
H8 C4 1_555 1_555
H9 C4 1_555 1_555
O1 C9 1_555 1_555
O2 C10 1_555 1_555
O3 C11 1_555 1_555
O4 H19 1_555 1_555
O5 C23 1_555 1_555
O6 C24 1_555 1_555
O7 C13 1_555 1_555
C9 H20 1_555 1_555
C10 C9 1_555 1_555
H21 C10 1_555 1_555
C11 C10 1_555 1_555
H22 C11 1_555 1_555
C12 O4 1_555 1_555
H23 C12 1_555 1_555
C13 O1 1_555 1_555
H24 C13 1_555 1_555
C14 O2 1_555 1_555
C15 C14 1_555 1_555
H25 C15 1_555 1_555
H26 C15 1_555 1_555
H27 C15 1_555 1_555
C16 C14 1_555 1_555
H28 C16 1_555 1_555
H29 C16 1_555 1_555
H30 C16 1_555 1_555
C17 O7 1_555 1_555
C18 C17 1_555 1_555
H31 C18 1_555 1_555
C19 C18 1_555 1_555
H32 C19 1_555 1_555
C20 C19 1_555 1_555
H33 C20 1_555 1_555
C21 C20 1_555 1_555
H34 C21 1_555 1_555
C22 C17 1_555 1_555
H35 C22 1_555 1_555
C23 C9 1_555 1_555
H36 C23 1_555 1_555
H37 C23 1_555 1_555
C24 C1 1_555 1_555
O3 C14 1_555 1_555
O5 C24 1_555 1_555
C11 C12 1_555 1_555
C12 C13 1_555 1_555
C21 C22 1_555 1_555

#END
