
#######################################################################
#
#                 Cambridge Crystallographic Data Centre
#                                CCDC 
#
#######################################################################
#
# If this CIF has been generated from an entry in the Cambridge 
# Structural Database, then it will include bibliographic, chemical, 
# crystal, experimental, refinement or atomic coordinate data resulting 
# from the CCDC's data processing and validation procedures.
#
#######################################################################

data_CERKAM
_chemical_formula_moiety         'C33 H28 N2'
_chemical_name_systematic        
9-Butyl-3-(2,6-diphenylpyridin-4-yl)-9H-carbazole
_symmetry_cell_setting           monoclinic
_symmetry_space_group_name_H-M   'P 21/c'
_symmetry_Int_Tables_number      14
_space_group_name_Hall           '-P 2ybc'
loop_
_symmetry_equiv_pos_site_id
_symmetry_equiv_pos_as_xyz
1 x,y,z
2 -x,1/2+y,1/2-z
3 -x,-y,-z
4 x,1/2-y,1/2+z
_cell_length_a                   11.489(3)
_cell_length_b                   15.221(4)
_cell_length_c                   15.099(4)
_cell_angle_alpha                90
_cell_angle_beta                 111.104(4)
_cell_angle_gamma                90
_cell_volume                     2463.33
_exptl_crystal_colour            'pale yellow'
_exptl_crystal_description       block
_cell_formula_units_Z            4
_exptl_crystal_recrystallization_method dichloromethane/2-propanol
loop_
_atom_site_label
_atom_site_type_symbol
_atom_site_fract_x
_atom_site_fract_y
_atom_site_fract_z
N1 N -0.0176(2) 0.09281(17) 0.55965(18)
N2 N 0.6183(2) 0.12518(16) 1.05856(17)
C1 C 0.0805(3) 0.0874(2) 0.6457(2)
C2 C 0.0844(3) 0.0476(2) 0.7286(2)
H1 H 0.0147 0.0189 0.7321
C3 C 0.1930(3) 0.0513(2) 0.8059(2)
H2 H 0.1963 0.0246 0.8621
C4 C 0.3002(3) 0.09444(19) 0.8028(2)
C5 C 0.2960(3) 0.13091(19) 0.7179(2)
H3 H 0.3666 0.1577 0.7137
C6 C 0.1862(3) 0.12756(19) 0.6383(2)
C7 C 0.1508(3) 0.1578(2) 0.5414(2)
C8 C 0.2148(3) 0.1973(2) 0.4892(2)
H4 H 0.2986 0.2119 0.5184
C9 C 0.1537(3) 0.2145(2) 0.3945(2)
H5 H 0.1959 0.2408 0.3592
C10 C 0.0279(4) 0.1924(2) 0.3514(2)
H6 H -0.0127 0.2052 0.2873
C11 C -0.0378(3) 0.1528(2) 0.3999(2)
H7 H -0.1214 0.1381 0.3698
C12 C 0.0245(3) 0.1350(2) 0.4960(2)
C13 C -0.1428(3) 0.0575(2) 0.5420(2)
H8 H -0.1347 -0.0004 0.5703
H9 H -0.1856 0.0509 0.4741
C14 C -0.2213(3) 0.1135(2) 0.5804(2)
H10 H -0.2415 0.1680 0.5450
H11 H -0.1740 0.1278 0.6462
C15 C -0.3403(3) 0.0677(3) 0.5742(3)
H12 H -0.3865 0.0535 0.5081
H13 H -0.3189 0.0128 0.6088
C16 C -0.4242(4) 0.1185(3) 0.6116(3)
H14 H -0.4968 0.0840 0.6050
H15 H -0.4490 0.1721 0.5763
H16 H -0.3805 0.1319 0.6774
C17 C 0.6333(3) 0.11582(19) 0.9753(2)
C18 C 0.5321(3) 0.10512(19) 0.8904(2)
H17 H 0.5456 0.0995 0.8335
C19 C 0.4111(3) 0.10288(18) 0.8904(2)
C20 C 0.3993(3) 0.11084(19) 0.9778(2)
H18 H 0.3202 0.1086 0.9813
C21 C 0.5022(3) 0.12209(19) 1.0604(2)
C22 C 0.4906(3) 0.1336(2) 1.1543(2)
C23 C 0.3800(4) 0.1177(2) 1.1686(2)
H19 H 0.3113 0.0972 1.1183
C24 C 0.3693(4) 0.1314(3) 1.2555(3)
H20 H 0.2939 0.1201 1.2632
C25 C 0.4681(4) 0.1613(3) 1.3301(3)
H21 H 0.4603 0.1711 1.3885
C26 C 0.5795(4) 0.1770(3) 1.3186(3)
H22 H 0.6476 0.1972 1.3695
C27 C 0.5905(3) 0.1629(2) 1.2315(2)
H23 H 0.6667 0.1733 1.2247
C28 C 0.7645(3) 0.1183(2) 0.9795(2)
C29 C 0.7957(3) 0.0969(2) 0.9019(3)
H24 H 0.7332 0.0810 0.8452
C30 C 0.9184(4) 0.0990(3) 0.9071(3)
H25 H 0.9375 0.0845 0.8541
C31 C 1.0116(4) 0.1222(3) 0.9898(3)
H26 H 1.0941 0.1236 0.9934
C32 C 0.9823(4) 0.1432(3) 1.0668(3)
H27 H 1.0451 0.1589 1.1235
C33 C 0.8599(3) 0.1414(2) 1.0613(2)
H28 H 0.8416 0.1563 1.1146
loop_
_geom_bond_atom_site_label_1
_geom_bond_atom_site_label_2
_geom_bond_site_symmetry_1
_geom_bond_site_symmetry_2
N1 C1 1_555 1_555
N2 C17 1_555 1_555
C1 C2 1_555 1_555
C2 H1 1_555 1_555
C3 C2 1_555 1_555
H2 C3 1_555 1_555
C4 C3 1_555 1_555
C5 C4 1_555 1_555
H3 C5 1_555 1_555
C6 C1 1_555 1_555
C7 C6 1_555 1_555
C8 C7 1_555 1_555
H4 C8 1_555 1_555
C9 C8 1_555 1_555
H5 C9 1_555 1_555
C10 C9 1_555 1_555
H6 C10 1_555 1_555
C11 C10 1_555 1_555
H7 C11 1_555 1_555
C12 N1 1_555 1_555
C13 N1 1_555 1_555
H8 C13 1_555 1_555
H9 C13 1_555 1_555
C14 C13 1_555 1_555
H10 C14 1_555 1_555
H11 C14 1_555 1_555
C15 C14 1_555 1_555
H12 C15 1_555 1_555
H13 C15 1_555 1_555
C16 C15 1_555 1_555
H14 C16 1_555 1_555
H15 C16 1_555 1_555
H16 C16 1_555 1_555
C17 C18 1_555 1_555
C18 H17 1_555 1_555
C19 C4 1_555 1_555
C20 C19 1_555 1_555
H18 C20 1_555 1_555
C21 N2 1_555 1_555
C22 C21 1_555 1_555
C23 C22 1_555 1_555
H19 C23 1_555 1_555
C24 C23 1_555 1_555
H20 C24 1_555 1_555
C25 C24 1_555 1_555
H21 C25 1_555 1_555
C26 C25 1_555 1_555
H22 C26 1_555 1_555
C27 C22 1_555 1_555
H23 C27 1_555 1_555
C28 C17 1_555 1_555
C29 C28 1_555 1_555
H24 C29 1_555 1_555
C30 C29 1_555 1_555
H25 C30 1_555 1_555
C31 C30 1_555 1_555
H26 C31 1_555 1_555
C32 C31 1_555 1_555
H27 C32 1_555 1_555
C33 C28 1_555 1_555
H28 C33 1_555 1_555
C5 C6 1_555 1_555
C7 C12 1_555 1_555
C11 C12 1_555 1_555
C18 C19 1_555 1_555
C20 C21 1_555 1_555
C26 C27 1_555 1_555
C32 C33 1_555 1_555

#END
