
#######################################################################
#
#                 Cambridge Crystallographic Data Centre
#                                CCDC 
#
#######################################################################
#
# If this CIF has been generated from an entry in the Cambridge 
# Structural Database, then it will include bibliographic, chemical, 
# crystal, experimental, refinement or atomic coordinate data resulting 
# from the CCDC's data processing and validation procedures.
#
#######################################################################

data_CERLIV
_chemical_formula_moiety         'C9 H7 Cl1 N2 O2'
_chemical_name_systematic        
(3-(4-Chlorophenyl)-1,2,4-oxadiazol-5-yl)methanol
_symmetry_cell_setting           monoclinic
_symmetry_space_group_name_H-M   'C 2/c'
_symmetry_Int_Tables_number      15
_space_group_name_Hall           '-C 2yn'
loop_
_symmetry_equiv_pos_site_id
_symmetry_equiv_pos_as_xyz
1 x,y,z
2 1/2+x,1/2+y,z
3 -x,y,1/2-z
4 1/2-x,1/2+y,1/2-z
5 -x,-y,-z
6 1/2-x,1/2-y,-z
7 x,-y,1/2+z
8 1/2+x,1/2-y,1/2+z
_cell_length_a                   27.789(2)
_cell_length_b                   4.0141(5)
_cell_length_c                   21.4570(15)
_cell_angle_alpha                90
_cell_angle_beta                 127.56(3)
_cell_angle_gamma                90
_cell_volume                     1897.35
_exptl_crystal_colour            colorless
_exptl_crystal_description       block
_cell_formula_units_Z            8
_exptl_crystal_recrystallization_method ethanol
loop_
_atom_site_label
_atom_site_type_symbol
_atom_site_fract_x
_atom_site_fract_y
_atom_site_fract_z
Cl1 Cl 0.22383(7) 0.3303(5) -0.19207(10)
O1 O 0.57455(16) 0.0814(12) 0.1728(2)
O2 O 0.5716(2) -0.4789(12) 0.3012(3)
N1 N 0.5237(2) 0.1959(14) 0.0977(3)
N2 N 0.49330(19) -0.1140(12) 0.1556(3)
C1 C 0.2970(3) 0.2514(17) -0.1106(4)
C2 C 0.3450(3) 0.3529(17) -0.1091(3)
H1 H 0.3379 0.4602 -0.1524
C3 C 0.4039(2) 0.2945(17) -0.0428(3)
H2 H 0.4363 0.3658 -0.0415
C4 C 0.4150(3) 0.1310(17) 0.0217(3)
C5 C 0.3658(3) 0.0226(17) 0.0182(3)
H3 H 0.3725 -0.0919 0.0605
C6 C 0.3070(3) 0.0846(18) -0.0481(4)
H4 H 0.2743 0.0127 -0.0500
C7 C 0.4782(2) 0.0707(15) 0.0919(3)
C8 C 0.5516(3) -0.0955(16) 0.2024(3)
C9 C 0.5970(2) -0.2373(16) 0.2818(3)
H5 H 0.6298 -0.3369 0.2840
H6 H 0.6140 -0.0593 0.3204
H7 H 0.555(3) -0.368(17) 0.316(3)
loop_
_geom_bond_atom_site_label_1
_geom_bond_atom_site_label_2
_geom_bond_site_symmetry_1
_geom_bond_site_symmetry_2
Cl1 C1 1_555 1_555
O1 N1 1_555 1_555
O2 C9 1_555 1_555
N1 C7 1_555 1_555
N2 C7 1_555 1_555
C1 C2 1_555 1_555
C2 H1 1_555 1_555
C3 C2 1_555 1_555
H2 C3 1_555 1_555
C4 C3 1_555 1_555
C5 C4 1_555 1_555
H3 C5 1_555 1_555
C6 C1 1_555 1_555
H4 C6 1_555 1_555
C7 C4 1_555 1_555
C8 O1 1_555 1_555
C9 C8 1_555 1_555
H5 C9 1_555 1_555
H6 C9 1_555 1_555
H7 O2 1_555 1_555
N2 C8 1_555 1_555
C5 C6 1_555 1_555

#END
