
#######################################################################
#
#                 Cambridge Crystallographic Data Centre
#                                CCDC 
#
#######################################################################
#
# If this CIF has been generated from an entry in the Cambridge 
# Structural Database, then it will include bibliographic, chemical, 
# crystal, experimental, refinement or atomic coordinate data resulting 
# from the CCDC's data processing and validation procedures.
#
#######################################################################

data_CERLOB
_chemical_formula_moiety         'C10 H12 O2'
_chemical_name_systematic        1-(2-hydroxy-3,5-dimethylphenyl)ethanone
_symmetry_cell_setting           monoclinic
_symmetry_space_group_name_H-M   'P 21/c'
_symmetry_Int_Tables_number      14
_space_group_name_Hall           '-P 2ybc'
loop_
_symmetry_equiv_pos_site_id
_symmetry_equiv_pos_as_xyz
1 x,y,z
2 -x,1/2+y,1/2-z
3 -x,-y,-z
4 x,1/2-y,1/2+z
_cell_length_a                   14.46(2)
_cell_length_b                   8.076(15)
_cell_length_c                   16.03(3)
_cell_angle_alpha                90
_cell_angle_beta                 109.05(2)
_cell_angle_gamma                90
_cell_volume                     1769.45
_exptl_crystal_colour            colorless
_exptl_crystal_description       block
_cell_formula_units_Z            8
_exptl_crystal_recrystallization_method 'ethyl acetate'
loop_
_atom_site_label
_atom_site_type_symbol
_atom_site_fract_x
_atom_site_fract_y
_atom_site_fract_z
O1 O 0.37150(18) 0.8766(3) -0.08669(14)
H1 H 0.3676 0.8250 -0.1318
O2 O 0.36310(18) 0.6248(4) -0.18188(12)
C1 C 0.37556(17) 0.7697(3) -0.02143(17)
C2 C 0.37478(16) 0.5991(3) -0.03539(13)
C3 C 0.37893(16) 0.4974(3) 0.03533(12)
H3 H 0.3786 0.3833 0.0276
C4 C 0.38343(17) 0.5577(3) 0.11510(13)
C5 C 0.38327(17) 0.7270(3) 0.12491(15)
H4 H 0.3853 0.7702 0.1793
C6 C 0.38032(18) 0.8331(3) 0.05901(18)
C7 C 0.3805(2) 1.0165(3) 0.0727(3)
H5 H 0.4352 1.0648 0.0601
H6 H 0.3855 1.0394 0.1327
H7 H 0.3208 1.0629 0.0338
C8 C 0.3884(2) 0.4460(4) 0.19035(16)
H8 H 0.3514 0.3473 0.1685
H9 H 0.3616 0.5015 0.2303
H10 H 0.4554 0.4171 0.2208
C9 C 0.3666(2) 0.5326(4) -0.12101(16)
C10 C 0.3618(2) 0.3525(4) -0.13607(18)
H11 H 0.3625 0.3299 -0.1947
H12 H 0.3027 0.3097 -0.1294
H13 H 0.4172 0.3004 -0.0939
O3 O 0.13008(16) 0.1283(2) -0.01512(13)
H2 H 0.1276 0.1814 -0.0594
O4 O 0.13153(15) 0.3847(3) -0.10499(11)
C11 C 0.12808(16) 0.2324(3) 0.04943(14)
C12 C 0.12668(16) 0.4029(3) 0.03776(12)
C13 C 0.12340(16) 0.5012(3) 0.10727(12)
H14 H 0.1222 0.6157 0.1005
C14 C 0.12188(17) 0.4374(3) 0.18470(13)
C15 C 0.12448(17) 0.2677(3) 0.19352(14)
H15 H 0.1241 0.2220 0.2466
C16 C 0.12761(18) 0.1650(3) 0.12797(16)
C17 C 0.1180(3) 0.5460(4) 0.25860(16)
H16 H 0.1807 0.5464 0.3040
H17 H 0.0695 0.5049 0.2823
H18 H 0.1013 0.6567 0.2371
C18 C 0.1288(3) -0.0191(3) 0.1398(3)
H19 H 0.0706 -0.0660 0.0988
H20 H 0.1312 -0.0447 0.1990
H21 H 0.1852 -0.0647 0.1292
C19 C 0.12840(17) 0.4735(4) -0.04475(14)
C20 C 0.1269(2) 0.6539(4) -0.05675(17)
H22 H 0.1326 0.6792 -0.1134
H23 H 0.1808 0.7026 -0.0112
H24 H 0.0665 0.6978 -0.0534
loop_
_geom_bond_atom_site_label_1
_geom_bond_atom_site_label_2
_geom_bond_site_symmetry_1
_geom_bond_site_symmetry_2
O1 H1 1_555 1_555
O2 C9 1_555 1_555
O3 H2 1_555 1_555
O4 C19 1_555 1_555
C1 O1 1_555 1_555
C2 C1 1_555 1_555
C3 C2 1_555 1_555
H3 C3 1_555 1_555
C4 C3 1_555 1_555
C5 C4 1_555 1_555
H4 C5 1_555 1_555
C6 C1 1_555 1_555
C7 C6 1_555 1_555
H5 C7 1_555 1_555
H6 C7 1_555 1_555
H7 C7 1_555 1_555
C8 C4 1_555 1_555
H8 C8 1_555 1_555
H9 C8 1_555 1_555
H10 C8 1_555 1_555
C9 C2 1_555 1_555
C10 C9 1_555 1_555
H11 C10 1_555 1_555
H12 C10 1_555 1_555
H13 C10 1_555 1_555
C11 O3 1_555 1_555
C12 C11 1_555 1_555
C13 C12 1_555 1_555
H14 C13 1_555 1_555
C14 C13 1_555 1_555
C15 C14 1_555 1_555
H15 C15 1_555 1_555
C16 C11 1_555 1_555
C17 C14 1_555 1_555
H16 C17 1_555 1_555
H17 C17 1_555 1_555
H18 C17 1_555 1_555
C18 C16 1_555 1_555
H19 C18 1_555 1_555
H20 C18 1_555 1_555
H21 C18 1_555 1_555
C19 C12 1_555 1_555
C20 C19 1_555 1_555
H22 C20 1_555 1_555
H23 C20 1_555 1_555
H24 C20 1_555 1_555
C5 C6 1_555 1_555
C15 C16 1_555 1_555

#END
