
#######################################################################
#
#                 Cambridge Crystallographic Data Centre
#                                CCDC 
#
#######################################################################
#
# If this CIF has been generated from an entry in the Cambridge 
# Structural Database, then it will include bibliographic, chemical, 
# crystal, experimental, refinement or atomic coordinate data resulting 
# from the CCDC's data processing and validation procedures.
#
#######################################################################

data_CERNUJ
_chemical_formula_moiety         'C20 H22 N2 O8'
_chemical_name_systematic        
'3-(2-Acetoxyethyl) 5-methyl 2,6-dimethyl-4-(3-nitrophenyl)-1,4-dihydropyridine-3,5-dicarboxylate'
_chemical_properties_biological  
'analogue of nefidipine which is used in cardiovascular treatment'
_symmetry_cell_setting           triclinic
_symmetry_space_group_name_H-M   'P -1'
_symmetry_Int_Tables_number      2
_space_group_name_Hall           '-P 1'
loop_
_symmetry_equiv_pos_site_id
_symmetry_equiv_pos_as_xyz
1 x,y,z
2 -x,-y,-z
_cell_length_a                   9.0389(12)
_cell_length_b                   10.6990(14)
_cell_length_c                   11.0049(16)
_cell_angle_alpha                93.452(6)
_cell_angle_beta                 90.871(5)
_cell_angle_gamma                109.153(6)
_cell_volume                     1002.83
_exptl_crystal_colour            yellow
_exptl_crystal_description       block
_chemical_melting_point          '395-397 K'
_cell_formula_units_Z            2
_exptl_crystal_recrystallization_method 'ethyl acetate/petroleum'
loop_
_atom_site_label
_atom_site_type_symbol
_atom_site_fract_x
_atom_site_fract_y
_atom_site_fract_z
N1 N 0.61445(13) 0.35044(11) 0.51127(10)
N2 N 0.87217(13) 0.05081(11) 0.20759(10)
O1 O 0.89988(10) 0.65892(9) 0.23939(8)
O2 O 0.96634(10) 0.70536(9) 0.43856(8)
O3 O 0.23864(11) 0.21212(10) 0.24227(9)
O4 O 0.41697(10) 0.31821(9) 0.11045(8)
O5 O 0.44754(10) 0.15281(9) -0.09725(8)
O6 O 0.59419(12) 0.22874(10) -0.25596(9)
O7 O 0.81843(13) 0.01321(10) 0.30607(9)
O8 O 0.94119(11) -0.00877(10) 0.14291(9)
C1 C 0.74001(14) 0.46311(12) 0.49198(11)
C2 C 0.76028(14) 0.50605(12) 0.37798(11)
C3 C 0.65861(14) 0.42511(12) 0.26960(11)
H1 H 0.6337 0.4888 0.2165
C4 C 0.50394(14) 0.33286(12) 0.31271(11)
C5 C 0.49087(15) 0.29385(13) 0.42789(12)
C6 C 0.83640(15) 0.52361(13) 0.60628(11)
H2 H 0.9479 0.5448 0.5898
H3 H 0.8086 0.4605 0.6699
H4 H 0.8156 0.6049 0.6336
C7 C 0.88031(14) 0.62832(13) 0.34424(11)
C8 C 1.08140(16) 0.82885(14) 0.40680(13)
H5 H 1.1600 0.8093 0.3557
H6 H 1.1328 0.8807 0.4813
H7 H 1.0289 0.8798 0.3620
C9 C 0.74544(14) 0.34905(12) 0.19278(11)
C10 C 0.77475(14) 0.23966(12) 0.23651(11)
H8 H 0.7447 0.2130 0.3158
C11 C 0.84864(14) 0.16992(12) 0.16250(11)
C12 C 0.89591(14) 0.20521(13) 0.04708(11)
H9 H 0.9449 0.1551 -0.0019
C13 C 0.86977(15) 0.31590(14) 0.00468(12)
H10 H 0.9033 0.3439 -0.0736
C14 C 0.79441(15) 0.38603(14) 0.07686(12)
H11 H 0.7759 0.4610 0.0463
C15 C 0.37173(15) 0.28022(13) 0.22326(12)
C16 C 0.29993(15) 0.26598(14) 0.01237(12)
H12 H 0.2346 0.3237 0.0052
H13 H 0.2308 0.1758 0.0283
C17 C 0.38565(16) 0.26196(14) -0.10241(12)
H14 H 0.3135 0.2476 -0.1744
H15 H 0.4721 0.3467 -0.1084
C18 C 0.55038(15) 0.14620(14) -0.18151(12)
C19 C 0.59973(17) 0.02693(14) -0.17365(13)
H16 H 0.5400 -0.0424 -0.2348
H17 H 0.5798 -0.0059 -0.0922
H18 H 0.7118 0.0506 -0.1888
C20 C 0.35394(16) 0.19163(14) 0.47971(13)
H19 H 0.2678 0.2275 0.4904
H20 H 0.3855 0.1690 0.5588
H21 H 0.3193 0.1119 0.4238
H22 H 0.6038(18) 0.3192(16) 0.5852(15)
loop_
_geom_bond_atom_site_label_1
_geom_bond_atom_site_label_2
_geom_bond_site_symmetry_1
_geom_bond_site_symmetry_2
N1 C1 1_555 1_555
N2 O7 1_555 1_555
O1 C7 1_555 1_555
O2 C7 1_555 1_555
O3 C15 1_555 1_555
O4 C15 1_555 1_555
O5 C17 1_555 1_555
O6 C18 1_555 1_555
O8 N2 1_555 1_555
C1 C2 1_555 1_555
C2 C3 1_555 1_555
C3 H1 1_555 1_555
C4 C3 1_555 1_555
C5 N1 1_555 1_555
C6 C1 1_555 1_555
H2 C6 1_555 1_555
H3 C6 1_555 1_555
H4 C6 1_555 1_555
C7 C2 1_555 1_555
C8 O2 1_555 1_555
H5 C8 1_555 1_555
H6 C8 1_555 1_555
H7 C8 1_555 1_555
C9 C3 1_555 1_555
C10 C9 1_555 1_555
H8 C10 1_555 1_555
C11 N2 1_555 1_555
C12 C11 1_555 1_555
H9 C12 1_555 1_555
C13 C12 1_555 1_555
H10 C13 1_555 1_555
C14 C9 1_555 1_555
H11 C14 1_555 1_555
C15 C4 1_555 1_555
C16 O4 1_555 1_555
H12 C16 1_555 1_555
H13 C16 1_555 1_555
C17 C16 1_555 1_555
H14 C17 1_555 1_555
H15 C17 1_555 1_555
C18 O5 1_555 1_555
C19 C18 1_555 1_555
H16 C19 1_555 1_555
H17 C19 1_555 1_555
H18 C19 1_555 1_555
C20 C5 1_555 1_555
H19 C20 1_555 1_555
H20 C20 1_555 1_555
H21 C20 1_555 1_555
H22 N1 1_555 1_555
C4 C5 1_555 1_555
C10 C11 1_555 1_555
C13 C14 1_555 1_555

#END
