
#######################################################################
#
#                 Cambridge Crystallographic Data Centre
#                                CCDC 
#
#######################################################################
#
# If this CIF has been generated from an entry in the Cambridge 
# Structural Database, then it will include bibliographic, chemical, 
# crystal, experimental, refinement or atomic coordinate data resulting 
# from the CCDC's data processing and validation procedures.
#
#######################################################################

data_CERNOD
_chemical_formula_moiety         'C14 H11 N1 O2'
_chemical_name_systematic        
'Methyl pyrrolo(2,1-a)isoquinoline-1-carboxylate'
_symmetry_cell_setting           monoclinic
_symmetry_space_group_name_H-M   'P 21/c'
_symmetry_Int_Tables_number      14
_space_group_name_Hall           '-P 2ybc'
loop_
_symmetry_equiv_pos_site_id
_symmetry_equiv_pos_as_xyz
1 x,y,z
2 -x,1/2+y,1/2-z
3 -x,-y,-z
4 x,1/2-y,1/2+z
_cell_length_a                   9.87330(10)
_cell_length_b                   6.91550(10)
_cell_length_c                   15.7532(2)
_cell_angle_alpha                90
_cell_angle_beta                 97.2830(10)
_cell_angle_gamma                90
_cell_volume                     1066.93
_exptl_crystal_colour            colorless
_exptl_crystal_description       Block
_chemical_melting_point          '371 K'
_cell_formula_units_Z            4
_exptl_crystal_recrystallization_method 'acetone/petroleum ether'
loop_
_atom_site_label
_atom_site_type_symbol
_atom_site_fract_x
_atom_site_fract_y
_atom_site_fract_z
O1 O 0.49284(6) 0.20881(9) 0.22852(4)
O2 O 0.29966(6) 0.31610(10) 0.27370(3)
N1 N 0.18249(6) 0.20575(9) -0.00328(4)
C1 C 0.39414(7) 0.18692(11) 0.06224(4)
H1 H 0.4882 0.1694 0.0727
C2 C 0.31617(7) 0.16892(11) -0.01530(5)
H2 H 0.3474 0.1376 -0.0669
C3 C 0.07229(8) 0.19763(11) -0.06699(4)
H3 H 0.0857 0.1678 -0.1229
C4 C -0.05402(8) 0.23303(11) -0.04767(5)
H4 H -0.1282 0.2254 -0.0902
C5 C -0.07546(7) 0.28257(10) 0.03828(4)
C6 C -0.20780(7) 0.32327(11) 0.05803(5)
H5 H -0.2818 0.3148 0.0153
C7 C -0.22904(7) 0.37543(12) 0.13966(5)
H6 H -0.3169 0.4005 0.1521
C8 C -0.11753(8) 0.39052(12) 0.20379(5)
H7 H -0.1317 0.4279 0.2587
C9 C 0.01333(7) 0.35045(11) 0.18642(4)
H8 H 0.0862 0.3610 0.2298
C10 C 0.03757(7) 0.29376(9) 0.10370(4)
C11 C 0.17250(7) 0.25024(10) 0.08184(4)
C12 C 0.30685(7) 0.23723(10) 0.12483(4)
C13 C 0.35939(7) 0.26053(10) 0.21511(4)
C14 C 0.55840(8) 0.22333(12) 0.31513(5)
H9 H 0.6527 0.1872 0.3173
H10 H 0.5140 0.1384 0.3511
H11 H 0.5523 0.3540 0.3348
loop_
_geom_bond_atom_site_label_1
_geom_bond_atom_site_label_2
_geom_bond_site_symmetry_1
_geom_bond_site_symmetry_2
O1 C13 1_555 1_555
O2 C13 1_555 1_555
N1 C2 1_555 1_555
C1 H1 1_555 1_555
C2 C1 1_555 1_555
H2 C2 1_555 1_555
C3 N1 1_555 1_555
H3 C3 1_555 1_555
C4 C3 1_555 1_555
H4 C4 1_555 1_555
C5 C4 1_555 1_555
C6 C5 1_555 1_555
H5 C6 1_555 1_555
C7 C6 1_555 1_555
H6 C7 1_555 1_555
C8 C7 1_555 1_555
H7 C8 1_555 1_555
C9 C8 1_555 1_555
H8 C9 1_555 1_555
C10 C5 1_555 1_555
C11 N1 1_555 1_555
C12 C1 1_555 1_555
C13 C12 1_555 1_555
C14 O1 1_555 1_555
H9 C14 1_555 1_555
H10 C14 1_555 1_555
H11 C14 1_555 1_555
C9 C10 1_555 1_555
C10 C11 1_555 1_555
C11 C12 1_555 1_555

#END
