
#######################################################################
#
#                 Cambridge Crystallographic Data Centre
#                                CCDC 
#
#######################################################################
#
# If this CIF has been generated from an entry in the Cambridge 
# Structural Database, then it will include bibliographic, chemical, 
# crystal, experimental, refinement or atomic coordinate data resulting 
# from the CCDC's data processing and validation procedures.
#
#######################################################################

data_CERNIZ
_chemical_formula_moiety         
'C36 H36 N24 O12,C6 H10 N2 2+,10(H2 O1),2(Cl1 1-)'
_chemical_name_systematic        
'cucurbit(6)uril 1,4-phenylenediammonium dichloride decahydrate'
_symmetry_cell_setting           monoclinic
_symmetry_space_group_name_H-M   'P 21/n'
_symmetry_Int_Tables_number      14
_space_group_name_Hall           '-P 2yn'
loop_
_symmetry_equiv_pos_site_id
_symmetry_equiv_pos_as_xyz
1 x,y,z
2 1/2-x,1/2+y,1/2-z
3 -x,-y,-z
4 1/2+x,1/2-y,1/2+z
_cell_length_a                   11.8918(8)
_cell_length_b                   15.1986(10)
_cell_length_c                   14.9570(11)
_cell_angle_alpha                90
_cell_angle_beta                 90.965(3)
_cell_angle_gamma                90
_cell_volume                     2702.93
_exptl_crystal_colour            colorless
_cell_formula_units_Z            2
loop_
_atom_site_label
_atom_site_type_symbol
_atom_site_fract_x
_atom_site_fract_y
_atom_site_fract_z
C1 C 0.3469(2) -0.03639(19) 0.78396(19)
C2 C 0.4721(2) 0.05760(18) 0.85874(19)
H1 H 0.4545 0.0724 0.9221
C3 C 0.5262(2) -0.03518(18) 0.85105(19)
H2 H 0.5511 -0.0585 0.9107
C4 C 0.6446(2) 0.06845(19) 0.78619(19)
C5 C 0.2850(2) 0.11748(18) 0.79712(19)
H3 H 0.2882 0.1542 0.8518
H4 H 0.2099 0.0894 0.7938
C6 C 0.5464(2) 0.20850(18) 0.80883(19)
H5 H 0.6222 0.2354 0.8095
H6 H 0.5043 0.2341 0.8592
C7 C 0.2441(2) 0.16116(19) 0.63991(19)
C8 C 0.3553(2) 0.28652(19) 0.62226(19)
H7 H 0.3299 0.3493 0.6214
C9 C 0.3700(2) 0.25098(18) 0.71925(19)
H8 H 0.3463 0.2952 0.7647
C10 C 0.5450(2) 0.25304(18) 0.6489(2)
C11 C 0.2147(2) 0.2413(2) 0.49857(19)
H9 H 0.1983 0.3048 0.4913
H10 H 0.1418 0.2098 0.4991
C12 C 0.4991(2) 0.31536(19) 0.50062(19)
H11 H 0.4614 0.3731 0.4941
H12 H 0.5812 0.3260 0.5024
C13 C 0.2490(2) 0.13811(19) 0.37265(19)
C14 C 0.3791(2) 0.21800(17) 0.28979(19)
H13 H 0.3572 0.2559 0.2377
C15 C 0.3615(2) 0.26544(18) 0.37998(18)
H14 H 0.3350 0.3273 0.3712
C16 C 0.5515(2) 0.22729(18) 0.3678(2)
C17 C 0.2885(2) 0.08283(18) 0.22050(19)
H15 H 0.2793 0.1187 0.1656
H16 H 0.2173 0.0506 0.2297
C18 C 0.5583(2) 0.17883(18) 0.20992(19)
H17 H 0.5212 0.2103 0.1595
H18 H 0.6357 0.2023 0.2164
N1 N 0.43506(18) -0.08702(15) 0.81234(15)
N2 N 0.37020(18) 0.04976(15) 0.80373(15)
N3 N 0.62145(18) -0.01952(14) 0.79258(15)
N4 N 0.55807(19) 0.11530(15) 0.82352(16)
N5 N 0.29873(19) 0.17362(15) 0.71943(15)
N6 N 0.27118(18) 0.22814(15) 0.58382(15)
N7 N 0.48931(18) 0.23232(15) 0.72566(15)
N8 N 0.46645(19) 0.27631(15) 0.58499(16)
N9 N 0.27754(18) 0.21172(15) 0.42232(15)
N10 N 0.30861(19) 0.14100(15) 0.29594(15)
N11 N 0.47172(18) 0.26213(15) 0.42300(15)
N12 N 0.49793(18) 0.19819(15) 0.29094(15)
O1 O 0.26084(15) -0.06274(13) 0.74639(13)
O2 O 0.72826(16) 0.10063(12) 0.75370(13)
O3 O 0.17869(16) 0.10085(13) 0.62205(13)
O4 O 0.64654(16) 0.25188(12) 0.63876(13)
O5 O 0.18059(16) 0.08265(13) 0.39438(13)
O6 O 0.65251(15) 0.22261(13) 0.38425(13)
C1B C 0.6531(2) 0.03639(19) 0.21604(19)
C2B C 0.5279(2) -0.05760(18) 0.14126(19)
H1B H 0.5455 -0.0724 0.0779
C3B C 0.4738(2) 0.03518(18) 0.14895(19)
H2B H 0.4489 0.0585 0.0893
C4B C 0.3554(2) -0.06845(19) 0.21381(19)
C5B C 0.7150(2) -0.11748(18) 0.20288(19)
H3B H 0.7118 -0.1542 0.1482
H4B H 0.7901 -0.0894 0.2062
C6B C 0.4536(2) -0.20850(18) 0.19117(19)
H5B H 0.3778 -0.2354 0.1905
H6B H 0.4957 -0.2341 0.1408
C7B C 0.7559(2) -0.16116(19) 0.36009(19)
C8B C 0.6447(2) -0.28652(19) 0.37774(19)
H7B H 0.6701 -0.3493 0.3786
C9B C 0.6300(2) -0.25098(18) 0.28075(19)
H8B H 0.6537 -0.2952 0.2353
C10B C 0.4550(2) -0.25304(18) 0.3511(2)
C11B C 0.7853(2) -0.2413(2) 0.50143(19)
H9B H 0.8017 -0.3048 0.5087
H10B H 0.8582 -0.2098 0.5009
C12B C 0.5009(2) -0.31536(19) 0.49938(19)
H11B H 0.5386 -0.3731 0.5059
H12B H 0.4188 -0.3260 0.4976
C13B C 0.7510(2) -0.13811(19) 0.62735(19)
C14B C 0.6209(2) -0.21800(17) 0.71021(19)
H13B H 0.6428 -0.2559 0.7623
C15B C 0.6385(2) -0.26544(18) 0.62002(18)
H14B H 0.6650 -0.3273 0.6288
C16B C 0.4485(2) -0.22729(18) 0.6322(2)
C17B C 0.7115(2) -0.08283(18) 0.77950(19)
H15B H 0.7207 -0.1187 0.8344
H16B H 0.7827 -0.0506 0.7703
C18B C 0.4417(2) -0.17883(18) 0.79008(19)
H17B H 0.4788 -0.2103 0.8405
H18B H 0.3643 -0.2023 0.7836
N1B N 0.56494(18) 0.08702(15) 0.18766(15)
N2B N 0.62980(18) -0.04976(15) 0.19627(15)
N3B N 0.37855(18) 0.01952(14) 0.20742(15)
N4B N 0.44193(19) -0.11530(15) 0.17648(16)
N5B N 0.70127(19) -0.17362(15) 0.28057(15)
N6B N 0.72882(18) -0.22814(15) 0.41618(15)
N7B N 0.51069(18) -0.23232(15) 0.27434(15)
N8B N 0.53355(19) -0.27631(15) 0.41501(16)
N9B N 0.72246(18) -0.21172(15) 0.57768(15)
N10B N 0.69139(19) -0.14100(15) 0.70406(15)
N11B N 0.52828(18) -0.26213(15) 0.57700(15)
N12B N 0.50207(18) -0.19819(15) 0.70906(15)
O1B O 0.73916(15) 0.06274(13) 0.25361(13)
O2B O 0.27174(16) -0.10063(12) 0.24630(13)
O3B O 0.82131(16) -0.10085(13) 0.37795(13)
O4B O 0.35346(16) -0.25188(12) 0.36124(13)
O5B O 0.81941(16) -0.08265(13) 0.60562(13)
O6B O 0.34749(15) -0.22261(13) 0.61575(13)
C19 C 0.6076(2) 0.02366(18) 0.47791(19)
C20 C 0.5694(3) 0.0400(2) 0.5621(2)
H19 H 0.6173 0.0674 0.6053
C21 C 0.5390(3) -0.0165(2) 0.4157(2)
H20 H 0.5658 -0.0283 0.3574
N13 N 0.72216(19) 0.05053(16) 0.45441(16)
H21 H 0.7581 0.0726 0.5037
H22 H 0.7187 0.0925 0.4111
H23 H 0.7606 0.0031 0.4339
C19B C 0.3924(2) -0.02366(18) 0.52209(19)
C20B C 0.4306(3) -0.0400(2) 0.4379(2)
H19B H 0.3827 -0.0674 0.3947
C21B C 0.4610(3) 0.0165(2) 0.5843(2)
H20B H 0.4342 0.0283 0.6426
N13B N 0.27784(19) -0.05053(16) 0.54559(16)
H21B H 0.2419 -0.0726 0.4963
H22B H 0.2813 -0.0925 0.5889
H23B H 0.2394 -0.0031 0.5661
Cl1 Cl 0.21554(7) 0.00383(5) 0.99853(5)
O7 O 0.98037(19) 0.10463(16) 0.71594(18)
H24 H 1.039(2) 0.091(2) 0.6848(19)
H25 H 0.974(3) 0.0654(19) 0.7557(18)
O8 O 0.82562(19) 0.14650(15) 0.58658(14)
H26 H 0.873(2) 0.1158(19) 0.6177(19)
H27 H 0.7727(19) 0.164(2) 0.6171(19)
O9 O 0.9930(2) 0.99078(18) 0.86303(16)
H28 H 1.0528(17) 0.995(2) 0.894(2)
H29 H 0.9375(18) 0.995(2) 0.896(2)
O10 O 0.8782(2) 0.30964(17) 0.50782(17)
H30 H 0.823(2) 0.3420(18) 0.504(3)
H31 H 0.865(3) 0.2587(13) 0.523(2)
O11 O 0.9389(2) 0.09634(17) 0.3690(2)
H32 H 1.0094(17) 0.079(2) 0.375(2)
H33 H 0.912(3) 0.063(2) 0.327(2)
loop_
_geom_bond_atom_site_label_1
_geom_bond_atom_site_label_2
_geom_bond_site_symmetry_1
_geom_bond_site_symmetry_2
C1 N1 1_555 1_555
C2 H1 1_555 1_555
C3 C2 1_555 1_555
H2 C3 1_555 1_555
C4 N3 1_555 1_555
C5 H3 1_555 1_555
H4 C5 1_555 1_555
C6 H5 1_555 1_555
H6 C6 1_555 1_555
C7 N5 1_555 1_555
C8 H7 1_555 1_555
C9 C8 1_555 1_555
H8 C9 1_555 1_555
C10 N7 1_555 1_555
C11 H9 1_555 1_555
H10 C11 1_555 1_555
C12 H11 1_555 1_555
H12 C12 1_555 1_555
C13 N9 1_555 1_555
C14 H13 1_555 1_555
C15 C14 1_555 1_555
H14 C15 1_555 1_555
C16 N11 1_555 1_555
C17 H15 1_555 1_555
H16 C17 1_555 1_555
C18 H17 1_555 1_555
H18 C18 1_555 1_555
N1 C3 1_555 1_555
N2 C1 1_555 1_555
N3 C3 1_555 1_555
N4 C2 1_555 1_555
N5 C5 1_555 1_555
N6 C7 1_555 1_555
N7 C6 1_555 1_555
N8 C8 1_555 1_555
N9 C11 1_555 1_555
N10 C13 1_555 1_555
N11 C12 1_555 1_555
N12 C14 1_555 1_555
O1 C1 1_555 1_555
O2 C4 1_555 1_555
O3 C7 1_555 1_555
O4 C10 1_555 1_555
O5 C13 1_555 1_555
O6 C16 1_555 1_555
C19 C20 1_555 1_555
C20 H19 1_555 1_555
C21 C19 1_555 1_555
H20 C21 1_555 1_555
N13 C19 1_555 1_555
H21 N13 1_555 1_555
H22 N13 1_555 1_555
H23 N13 1_555 1_555
O7 H24 1_555 1_555
H25 O7 1_555 1_555
O8 H26 1_555 1_555
H27 O8 1_555 1_555
O9 H28 1_555 1_555
H29 O9 1_555 1_555
O10 H30 1_555 1_555
H31 O10 1_555 1_555
O11 H32 1_555 1_555
H33 O11 1_555 1_555
C1B N1B 1_555 1_555
C2B H1B 1_555 1_555
C3B C2B 1_555 1_555
H2B C3B 1_555 1_555
C4B N3B 1_555 1_555
C5B H3B 1_555 1_555
H4B C5B 1_555 1_555
C6B H5B 1_555 1_555
H6B C6B 1_555 1_555
C7B N5B 1_555 1_555
C8B H7B 1_555 1_555
C9B C8B 1_555 1_555
H8B C9B 1_555 1_555
C10B N7B 1_555 1_555
C11B H9B 1_555 1_555
H10B C11B 1_555 1_555
C12B H11B 1_555 1_555
H12B C12B 1_555 1_555
C13B N9B 1_555 1_555
C14B H13B 1_555 1_555
C15B C14B 1_555 1_555
H14B C15B 1_555 1_555
C16B N11B 1_555 1_555
C17B N3 1_555 1_555
H15B C17B 1_555 1_555
H16B C17B 1_555 1_555
C18B N1 1_555 1_555
H17B C18B 1_555 1_555
H18B C18B 1_555 1_555
N1B C18 1_555 1_555
N2B C1B 1_555 1_555
N3B C17 1_555 1_555
N4B C2B 1_555 1_555
N5B C5B 1_555 1_555
N6B C7B 1_555 1_555
N7B C6B 1_555 1_555
N8B C8B 1_555 1_555
N9B C11B 1_555 1_555
N10B C13B 1_555 1_555
N11B C12B 1_555 1_555
N12B C14B 1_555 1_555
O1B C1B 1_555 1_555
O2B C4B 1_555 1_555
O3B C7B 1_555 1_555
O4B C10B 1_555 1_555
O5B C13B 1_555 1_555
O6B C16B 1_555 1_555
C19B C20B 1_555 1_555
C20B C21 1_555 1_555
H19B C20B 1_555 1_555
C21B C20 1_555 1_555
H20B C21B 1_555 1_555
N13B C19B 1_555 1_555
H21B N13B 1_555 1_555
H22B N13B 1_555 1_555
H23B N13B 1_555 1_555
C2 N2 1_555 1_555
C4 N4 1_555 1_555
C5 N2 1_555 1_555
C6 N4 1_555 1_555
C8 N6 1_555 1_555
C9 N5 1_555 1_555
C9 N7 1_555 1_555
C10 N8 1_555 1_555
C11 N6 1_555 1_555
C12 N8 1_555 1_555
C14 N10 1_555 1_555
C15 N9 1_555 1_555
C15 N11 1_555 1_555
C16 N12 1_555 1_555
C17 N10 1_555 1_555
C18 N12 1_555 1_555
C2B N2B 1_555 1_555
C3B N1B 1_555 1_555
C3B N3B 1_555 1_555
C4B N4B 1_555 1_555
C5B N2B 1_555 1_555
C6B N4B 1_555 1_555
C8B N6B 1_555 1_555
C9B N5B 1_555 1_555
C9B N7B 1_555 1_555
C10B N8B 1_555 1_555
C11B N6B 1_555 1_555
C12B N8B 1_555 1_555
C14B N10B 1_555 1_555
C15B N9B 1_555 1_555
C15B N11B 1_555 1_555
C16B N12B 1_555 1_555
C17B N10B 1_555 1_555
C18B N12B 1_555 1_555
C19B C21B 1_555 1_555

#END
