
#######################################################################
#
#                 Cambridge Crystallographic Data Centre
#                                CCDC 
#
#######################################################################
#
# If this CIF has been generated from an entry in the Cambridge 
# Structural Database, then it will include bibliographic, chemical, 
# crystal, experimental, refinement or atomic coordinate data resulting 
# from the CCDC's data processing and validation procedures.
#
#######################################################################

data_CERQIC
_chemical_formula_moiety         'C23 H20 N2'
_chemical_name_systematic        
6-methyl-N-(4-methylphenyl)-4-phenylquinolin-2-amine
_symmetry_cell_setting           monoclinic
_symmetry_space_group_name_H-M   'P 21/c'
_symmetry_Int_Tables_number      14
_space_group_name_Hall           '-P 2ybc'
loop_
_symmetry_equiv_pos_site_id
_symmetry_equiv_pos_as_xyz
1 x,y,z
2 -x,1/2+y,1/2-z
3 -x,-y,-z
4 x,1/2-y,1/2+z
_cell_length_a                   19.4749(19)
_cell_length_b                   10.8598(8)
_cell_length_c                   8.3747(5)
_cell_angle_alpha                90
_cell_angle_beta                 97.699(8)
_cell_angle_gamma                90
_cell_volume                     1755.23
_exptl_crystal_colour            'light yellow'
_exptl_crystal_description       plate
_cell_formula_units_Z            4
loop_
_atom_site_label
_atom_site_type_symbol
_atom_site_fract_x
_atom_site_fract_y
_atom_site_fract_z
N1 N 0.16214(7) 0.38422(13) 0.14274(15)
N2 N 0.11662(7) 0.23108(13) 0.29721(16)
H1 H 0.1256 0.1865 0.3823
C1 C 0.01564(8) 0.29049(16) 0.09984(19)
H2 H 0.0344 0.3677 0.0849
C2 C -0.04919(9) 0.25907(16) 0.01887(19)
H3 H -0.0732 0.3162 -0.0501
C3 C -0.07894(9) 0.14457(17) 0.03848(18)
C4 C -0.04148(9) 0.06076(17) 0.14123(19)
H4 H -0.0602 -0.0166 0.1558
C5 C 0.02315(9) 0.09031(16) 0.22235(19)
H5 H 0.0474 0.0327 0.2901
C6 C 0.05211(8) 0.20595(16) 0.20310(18)
C7 C 0.16689(8) 0.31476(15) 0.27449(18)
C8 C 0.22480(8) 0.32001(15) 0.39834(18)
H6 H 0.2255 0.2696 0.4883
C9 C 0.27887(8) 0.39715(15) 0.38735(17)
C10 C 0.27525(8) 0.47645(15) 0.24805(18)
C11 C 0.21553(8) 0.46570(15) 0.13122(18)
C12 C 0.21035(9) 0.54398(16) -0.00479(19)
H7 H 0.1720 0.5376 -0.0835
C13 C 0.26083(9) 0.62920(16) -0.02285(19)
H8 H 0.2561 0.6793 -0.1137
C14 C 0.31960(9) 0.64213(15) 0.09354(19)
C15 C 0.32576(8) 0.56544(15) 0.22566(19)
H9 H 0.3646 0.5726 0.3028
C16 C -0.14907(9) 0.11071(18) -0.0507(2)
H10 H -0.1826 0.1084 0.0236
H11 H -0.1464 0.0312 -0.0996
H12 H -0.1628 0.1710 -0.1327
C17 C 0.33751(8) 0.40115(14) 0.52062(18)
C18 C 0.40618(9) 0.38596(16) 0.4939(2)
H13 H 0.4163 0.3741 0.3895
C19 C 0.45928(9) 0.38839(18) 0.6212(2)
H14 H 0.5048 0.3781 0.6017
C20 C 0.44531(10) 0.40600(18) 0.7777(2)
H15 H 0.4813 0.4083 0.8628
C21 C 0.37727(10) 0.42016(18) 0.8063(2)
H16 H 0.3674 0.4315 0.9109
C22 C 0.32393(9) 0.41750(16) 0.67918(19)
H17 H 0.2784 0.4267 0.6995
C23 C 0.37386(10) 0.73791(17) 0.0735(2)
H18 H 0.3932 0.7223 -0.0242
H19 H 0.4099 0.7342 0.1636
H20 H 0.3530 0.8182 0.0683
loop_
_geom_bond_atom_site_label_1
_geom_bond_atom_site_label_2
_geom_bond_site_symmetry_1
_geom_bond_site_symmetry_2
N1 C7 1_555 1_555
N2 H1 1_555 1_555
C1 H2 1_555 1_555
C2 C1 1_555 1_555
H3 C2 1_555 1_555
C3 C2 1_555 1_555
C4 C3 1_555 1_555
H4 C4 1_555 1_555
C5 C4 1_555 1_555
H5 C5 1_555 1_555
C6 N2 1_555 1_555
C7 N2 1_555 1_555
C8 C7 1_555 1_555
H6 C8 1_555 1_555
C9 C8 1_555 1_555
C10 C9 1_555 1_555
C11 N1 1_555 1_555
C12 C11 1_555 1_555
H7 C12 1_555 1_555
C13 C12 1_555 1_555
H8 C13 1_555 1_555
C14 C13 1_555 1_555
C15 C10 1_555 1_555
H9 C15 1_555 1_555
C16 C3 1_555 1_555
H10 C16 1_555 1_555
H11 C16 1_555 1_555
H12 C16 1_555 1_555
C17 C9 1_555 1_555
C18 C17 1_555 1_555
H13 C18 1_555 1_555
C19 C18 1_555 1_555
H14 C19 1_555 1_555
C20 C19 1_555 1_555
H15 C20 1_555 1_555
C21 C20 1_555 1_555
H16 C21 1_555 1_555
C22 C17 1_555 1_555
H17 C22 1_555 1_555
C23 C14 1_555 1_555
H18 C23 1_555 1_555
H19 C23 1_555 1_555
H20 C23 1_555 1_555
C1 C6 1_555 1_555
C5 C6 1_555 1_555
C10 C11 1_555 1_555
C14 C15 1_555 1_555
C21 C22 1_555 1_555

#END
