
#######################################################################
#
#                 Cambridge Crystallographic Data Centre
#                                CCDC 
#
#######################################################################
#
# If this CIF has been generated from an entry in the Cambridge 
# Structural Database, then it will include bibliographic, chemical, 
# crystal, experimental, refinement or atomic coordinate data resulting 
# from the CCDC's data processing and validation procedures.
#
#######################################################################

data_CERQAS
_chemical_formula_moiety         'C26 H25 N1 O3'
_chemical_name_systematic        
N,N-Diethyl-2-(2'-hydroxy-1,1'-binaphthalen-2-yloxy)acetamide
_symmetry_cell_setting           monoclinic
_symmetry_space_group_name_H-M   'P 21/c'
_symmetry_Int_Tables_number      14
_space_group_name_Hall           '-P 2ybc'
loop_
_symmetry_equiv_pos_site_id
_symmetry_equiv_pos_as_xyz
1 x,y,z
2 -x,1/2+y,1/2-z
3 -x,-y,-z
4 x,1/2-y,1/2+z
_cell_length_a                   11.361(2)
_cell_length_b                   10.304(3)
_cell_length_c                   18.355(4)
_cell_angle_alpha                90
_cell_angle_beta                 103.242(3)
_cell_angle_gamma                90
_cell_volume                     2091.57
_exptl_crystal_colour            colorless
_exptl_crystal_description       block
_cell_formula_units_Z            4
_exptl_crystal_recrystallization_method chloroform
loop_
_atom_site_label
_atom_site_type_symbol
_atom_site_fract_x
_atom_site_fract_y
_atom_site_fract_z
N1 N 0.6192(3) 0.1803(3) 0.36282(17)
O1 O 0.4943(2) 0.3032(2) 0.27688(14)
O2 O 0.32515(18) 0.1255(2) 0.23816(11)
O3 O 0.2741(2) 0.4257(2) 0.23628(12)
H1 H 0.3238 0.3875 0.2180
C1 C 0.5188(3) 0.1991(3) 0.30997(19)
C2 C 0.4312(3) 0.0866(3) 0.29087(18)
H2 H 0.4697 0.0159 0.2703
H3 H 0.4097 0.0557 0.3360
C3 C 0.3323(3) 0.1521(3) 0.16552(18)
C4 C 0.4275(3) 0.1090(3) 0.1349(2)
H4 H 0.4928 0.0654 0.1646
C5 C 0.4237(3) 0.1316(4) 0.0616(2)
H5 H 0.4868 0.1017 0.0416
C6 C 0.3275(3) 0.1985(3) 0.01500(19)
C7 C 0.3200(4) 0.2188(4) -0.0620(2)
H6 H 0.3810 0.1870 -0.0834
C8 C 0.2263(5) 0.2834(5) -0.1053(2)
H7 H 0.2222 0.2936 -0.1561
C9 C 0.1357(4) 0.3348(4) -0.0740(2)
H8 H 0.0729 0.3818 -0.1038
C10 C 0.1384(3) 0.3170(4) 0.00036(18)
H9 H 0.0771 0.3517 0.0203
C11 C 0.2330(3) 0.2465(3) 0.04703(18)
C12 C 0.2365(3) 0.2221(3) 0.12398(16)
C13 C 0.1395(3) 0.2727(3) 0.15868(16)
C14 C 0.0198(3) 0.2210(3) 0.13803(16)
C15 C -0.0079(3) 0.1108(3) 0.09179(17)
H10 H 0.0528 0.0711 0.0734
C16 C -0.1221(3) 0.0617(4) 0.0737(2)
H11 H -0.1382 -0.0116 0.0434
C17 C -0.2144(4) 0.1194(4) 0.0996(2)
H12 H -0.2922 0.0851 0.0866
C18 C -0.1921(3) 0.2252(4) 0.1439(2)
H13 H -0.2549 0.2631 0.1610
C19 C -0.0749(3) 0.2796(3) 0.16461(19)
C20 C -0.0476(3) 0.3893(4) 0.2116(2)
H14 H -0.1094 0.4316 0.2276
C21 C 0.0670(3) 0.4337(3) 0.23369(19)
H15 H 0.0834 0.5045 0.2658
C22 C 0.1616(3) 0.3740(3) 0.20866(17)
C23 C 0.6450(3) 0.0625(4) 0.4078(2)
H16 H 0.7259 0.0329 0.4075
H17 H 0.5887 -0.0048 0.3853
C24 C 0.6358(5) 0.0819(5) 0.4868(2)
H18 H 0.6535 0.0017 0.5138
H19 H 0.5554 0.1094 0.4876
H20 H 0.6927 0.1470 0.5099
C25 C 0.7079(4) 0.2855(4) 0.3814(3)
H21 H 0.6749 0.3623 0.3535
H22 H 0.7195 0.3055 0.4342
C26 C 0.8224(5) 0.2585(6) 0.3663(4)
H23 H 0.8744 0.3324 0.3795
H24 H 0.8126 0.2400 0.3139
H25 H 0.8577 0.1847 0.3951
loop_
_geom_bond_atom_site_label_1
_geom_bond_atom_site_label_2
_geom_bond_site_symmetry_1
_geom_bond_site_symmetry_2
N1 C1 1_555 1_555
O1 C1 1_555 1_555
O2 C2 1_555 1_555
O3 H1 1_555 1_555
C1 C2 1_555 1_555
C2 H2 1_555 1_555
H3 C2 1_555 1_555
C3 O2 1_555 1_555
C4 C3 1_555 1_555
H4 C4 1_555 1_555
C5 C4 1_555 1_555
H5 C5 1_555 1_555
C6 C5 1_555 1_555
C7 C6 1_555 1_555
H6 C7 1_555 1_555
C8 C7 1_555 1_555
H7 C8 1_555 1_555
C9 C8 1_555 1_555
H8 C9 1_555 1_555
C10 C9 1_555 1_555
H9 C10 1_555 1_555
C11 C6 1_555 1_555
C12 C3 1_555 1_555
C13 C12 1_555 1_555
C14 C13 1_555 1_555
C15 C14 1_555 1_555
H10 C15 1_555 1_555
C16 C15 1_555 1_555
H11 C16 1_555 1_555
C17 C16 1_555 1_555
H12 C17 1_555 1_555
C18 C17 1_555 1_555
H13 C18 1_555 1_555
C19 C14 1_555 1_555
C20 C19 1_555 1_555
H14 C20 1_555 1_555
C21 C20 1_555 1_555
H15 C21 1_555 1_555
C22 O3 1_555 1_555
C23 N1 1_555 1_555
H16 C23 1_555 1_555
H17 C23 1_555 1_555
C24 C23 1_555 1_555
H18 C24 1_555 1_555
H19 C24 1_555 1_555
H20 C24 1_555 1_555
C25 N1 1_555 1_555
H21 C25 1_555 1_555
H22 C25 1_555 1_555
C26 C25 1_555 1_555
H23 C26 1_555 1_555
H24 C26 1_555 1_555
H25 C26 1_555 1_555
C10 C11 1_555 1_555
C11 C12 1_555 1_555
C13 C22 1_555 1_555
C18 C19 1_555 1_555
C21 C22 1_555 1_555

#END
