
#######################################################################
#
#                 Cambridge Crystallographic Data Centre
#                                CCDC 
#
#######################################################################
#
# If this CIF has been generated from an entry in the Cambridge 
# Structural Database, then it will include bibliographic, chemical, 
# crystal, experimental, refinement or atomic coordinate data resulting 
# from the CCDC's data processing and validation procedures.
#
#######################################################################

data_CERYEG
_chemical_compound_source        'hook-bearing stems of Uncaria rhynchophylla'
_chemical_name_common            'Rhynchophyllionium A unknown solvate'
_chemical_formula_moiety         'C21 H24 N2 O3'
_chemical_name_systematic        
'17-methoxycoryna-16,18-dien-4-ium-16-carboxylate unknown solvate'
_symmetry_cell_setting           hexagonal
_symmetry_space_group_name_H-M   'P 65 2 2'
_symmetry_Int_Tables_number      179
_space_group_name_Hall           "P 65 2' (0,0,1)"
loop_
_symmetry_equiv_pos_site_id
_symmetry_equiv_pos_as_xyz
1 x,y,z
2 x-y,x,5/6+z
3 -y,x-y,2/3+z
4 -x,-y,1/2+z
5 -x+y,-x,1/3+z
6 y,-x+y,1/6+z
7 x-y,-y,-z
8 -x,-x+y,1/3-z
9 y,x,2/3-z
10 -y,-x,1/6-z
11 -x+y,y,1/2-z
12 x,x-y,5/6-z
_cell_length_a                   19.5228(5)
_cell_length_b                   19.5228(5)
_cell_length_c                   22.6776(7)
_cell_angle_alpha                90
_cell_angle_beta                 90
_cell_angle_gamma                120
_cell_volume                     7485.35
_exptl_crystal_colour            'dull light yellow'
_exptl_crystal_description       needle
_cell_formula_units_Z            12
loop_
_atom_site_label
_atom_site_type_symbol
_atom_site_fract_x
_atom_site_fract_y
_atom_site_fract_z
O1 O -1.0873(3) -0.4058(3) 0.12783(17)
O2 O -0.9975(2) -0.3981(3) -0.06540(16)
O3 O -1.0117(4) -0.2956(3) -0.0335(2)
N1 N -1.1951(3) -0.6485(3) 0.1099(3)
H1 H -1.2127 -0.6184 0.0952
N2 N -1.0311(2) -0.6226(3) 0.01460(18)
H2 H -1.0176 -0.6113 -0.0282
C1 C -1.1396(3) -0.6622(4) 0.0822(3)
C2 C -1.1106(2) -0.6288(3) 0.0238(2)
H3 H -1.1476 -0.6682 -0.0055
C3 C -1.0348(3) -0.6990(3) 0.0282(2)
H4 H -0.9826 -0.6940 0.0203
H5 H -1.0741 -0.7407 0.0019
C4 C -1.0579(4) -0.7232(4) 0.0923(3)
H6 H -1.0780 -0.7807 0.0961
H7 H -1.0100 -0.6954 0.1172
C5 C -1.1177(4) -0.7059(4) 0.1144(3)
C6 C -1.1678(5) -0.7256(4) 0.1674(3)
C7 C -1.1740(6) -0.7715(4) 0.2158(3)
H8 H -1.1433 -0.7966 0.2200
C8 C -1.2318(6) -0.7783(4) 0.2599(3)
H9 H -1.2413 -0.8130 0.2922
C9 C -1.2678(8) -0.7441(6) 0.2588(6)
H10 H -1.2988 -0.7478 0.2923
C10 C -1.2670(5) -0.6947(5) 0.2066(4)
H11 H -1.2997 -0.6714 0.2069
C11 C -1.2166(5) -0.6833(5) 0.1568(5)
C12 C -1.1033(3) -0.5476(4) 0.0077(3)
H12 H -1.0889 -0.5362 -0.0345
H13 H -1.1554 -0.5514 0.0133
C13 C -1.0417(3) -0.4792(4) 0.0449(3)
H14 H -1.0561 -0.4926 0.0874
C14 C -1.0378(3) -0.4053(4) 0.0331(2)
C15 C -1.0600(3) -0.3657(4) 0.0720(2)
H15 H -1.0575 -0.3170 0.0630
C16 C -0.8316(5) -0.3515(6) 0.0478(5)
H16 H -0.8275 -0.3409 0.0067
H17 H -0.7916 -0.3156 0.0738
C17 C -0.8949(3) -0.4184(4) 0.0694(4)
H18 H -0.8971 -0.4273 0.1108
C18 C -0.9591(3) -0.4770(4) 0.0335(2)
H19 H -0.9446 -0.4657 -0.0091
C19 C -0.9658(3) -0.5541(4) 0.0495(2)
H20 H -0.9772 -0.5638 0.0922
H21 H -0.9147 -0.5516 0.0417
C20 C -1.0110(3) -0.3597(4) -0.0260(2)
C21 C -1.1100(5) -0.3582(5) 0.1663(3)
H22 H -1.1678 -0.3842 0.1687
H23 H -1.0891 -0.3052 0.1495
H24 H -1.0881 -0.3540 0.2059
loop_
_geom_bond_atom_site_label_1
_geom_bond_atom_site_label_2
_geom_bond_site_symmetry_1
_geom_bond_site_symmetry_2
O1 C15 1_555 1_555
O2 C20 1_555 1_555
O3 C20 1_555 1_555
N1 H1 1_555 1_555
N2 H2 1_555 1_555
C1 N1 1_555 1_555
C2 N2 1_555 1_555
H3 C2 1_555 1_555
C3 N2 1_555 1_555
H4 C3 1_555 1_555
H5 C3 1_555 1_555
C4 C3 1_555 1_555
H6 C4 1_555 1_555
H7 C4 1_555 1_555
C5 C1 1_555 1_555
C6 C5 1_555 1_555
C7 C6 1_555 1_555
H8 C7 1_555 1_555
C8 C7 1_555 1_555
H9 C8 1_555 1_555
C9 C8 1_555 1_555
H10 C9 1_555 1_555
C10 C9 1_555 1_555
H11 C10 1_555 1_555
C11 N1 1_555 1_555
C12 C2 1_555 1_555
H12 C12 1_555 1_555
H13 C12 1_555 1_555
C13 C12 1_555 1_555
H14 C13 1_555 1_555
C14 C13 1_555 1_555
C15 C14 1_555 1_555
H15 C15 1_555 1_555
C16 H16 1_555 1_555
H17 C16 1_555 1_555
C17 C16 1_555 1_555
H18 C17 1_555 1_555
C18 C13 1_555 1_555
H19 C18 1_555 1_555
C19 N2 1_555 1_555
H20 C19 1_555 1_555
H21 C19 1_555 1_555
C20 C14 1_555 1_555
C21 O1 1_555 1_555
H22 C21 1_555 1_555
H23 C21 1_555 1_555
H24 C21 1_555 1_555
C1 C2 1_555 1_555
C4 C5 1_555 1_555
C6 C11 1_555 1_555
C10 C11 1_555 1_555
C17 C18 1_555 1_555
C18 C19 1_555 1_555

#END
