
#######################################################################
#
#                 Cambridge Crystallographic Data Centre
#                                CCDC 
#
#######################################################################
#
# If this CIF has been generated from an entry in the Cambridge 
# Structural Database, then it will include bibliographic, chemical, 
# crystal, experimental, refinement or atomic coordinate data resulting 
# from the CCDC's data processing and validation procedures.
#
#######################################################################

data_CERYAC
_chemical_compound_source        'hook-bearing stems of Uncaria rhynchophylla'
_chemical_name_common            'Rhynchophyllionium B unknown solvate'
_chemical_formula_moiety         'C21 H26 N2 O3'
_chemical_name_systematic        
'17-methoxycoryn-16-en-4-ium-16-carboxylate unknown solvate'
_symmetry_cell_setting           hexagonal
_symmetry_space_group_name_H-M   'P 65 2 2'
_symmetry_Int_Tables_number      179
_space_group_name_Hall           "P 65 2' (0,0,1)"
loop_
_symmetry_equiv_pos_site_id
_symmetry_equiv_pos_as_xyz
1 x,y,z
2 -y,x-y,2/3+z
3 -x+y,-x,1/3+z
4 -x,-y,1/2+z
5 y,-x+y,1/6+z
6 x-y,x,5/6+z
7 y,x,2/3-z
8 x-y,-y,-z
9 -x,-x+y,1/3-z
10 -y,-x,1/6-z
11 -x+y,y,1/2-z
12 x,x-y,5/6-z
_cell_length_a                   19.5257(3)
_cell_length_b                   19.5257(3)
_cell_length_c                   23.6864(4)
_cell_angle_alpha                90
_cell_angle_beta                 90
_cell_angle_gamma                120
_cell_volume                     7820.65
_exptl_crystal_colour            'light yellow'
_exptl_crystal_description       plate
_chemical_melting_point          '182.6-183.3 deg.C'
_cell_formula_units_Z            12
_exptl_crystal_recrystallization_method ethanol/water
loop_
_atom_site_label
_atom_site_type_symbol
_atom_site_fract_x
_atom_site_fract_y
_atom_site_fract_z
O1 O 0.6007(4) 0.6945(3) 0.78138(16)
O2 O 0.6998(3) 0.7191(3) 0.62409(18)
O3 O 0.5980(2) 0.60363(19) 0.59574(12)
N1 N 0.3545(2) 0.5535(2) 0.77486(14)
H1 H 0.3813 0.6015 0.7630
N2 N 0.3777(2) 0.4138(2) 0.68279(14)
H2 H 0.3864 0.4095 0.6425
C1 C 0.3410(3) 0.4839(3) 0.74591(17)
C2 C 0.3710(3) 0.4872(3) 0.68987(16)
H3 H 0.3307 0.4831 0.6632
C3 C 0.3037(3) 0.3424(3) 0.6980(2)
H4 H 0.3084 0.2963 0.6897
H5 H 0.2612 0.3394 0.6750
C4 C 0.2834(3) 0.3413(3) 0.75886(18)
H6 H 0.3142 0.3247 0.7813
H7 H 0.2279 0.3030 0.7644
C5 C 0.2996(3) 0.4219(3) 0.77913(16)
C6 C 0.2820(3) 0.4465(4) 0.82901(18)
C7 C 0.2363(3) 0.4061(4) 0.87853(18)
H8 H 0.2121 0.3515 0.8825
C8 C 0.2306(3) 0.4537(4) 0.9201(2)
H9 H 0.2004 0.4293 0.9520
C9 C 0.2680(3) 0.5364(4) 0.9161(2)
H10 H 0.2634 0.5647 0.9460
C10 C 0.3102(3) 0.5763(4) 0.8706(2)
H11 H 0.3347 0.6310 0.8676
C11 C 0.3144(3) 0.5276(4) 0.8273(2)
C12 C 0.4494(3) 0.5590(3) 0.67256(17)
H12 H 0.4463 0.6064 0.6790
H13 H 0.4572 0.5558 0.6324
C13 C 0.5215(3) 0.5664(3) 0.70462(17)
H14 H 0.5115 0.5682 0.7450
C14 C 0.5971(3) 0.6407(3) 0.69091(17)
C15 C 0.6353(4) 0.7023(3) 0.7286(2)
H15 H 0.6824 0.7476 0.7190
C16 C 0.6009(6) 0.5014(5) 0.7849(4)
H16 H 0.5926 0.5444 0.7949
H17 H 0.6526 0.5133 0.7969
H18 H 0.5618 0.4539 0.8032
C17 C 0.5944(4) 0.4905(4) 0.7253(3)
H19 H 0.5928 0.4411 0.7171
H20 H 0.6425 0.5324 0.7086
C18 C 0.5230(3) 0.4890(3) 0.69424(17)
H21 H 0.5287 0.4838 0.6536
C19 C 0.4477(3) 0.4197(3) 0.71349(18)
H22 H 0.4414 0.4243 0.7537
H23 H 0.4499 0.3717 0.7072
C20 C 0.6360(3) 0.6565(3) 0.6343(2)
C21 C 0.6502(6) 0.7644(4) 0.8173(3)
H24 H 0.7051 0.7816 0.8110
H25 H 0.6375 0.7505 0.8563
H26 H 0.6402 0.8064 0.8077
loop_
_geom_bond_atom_site_label_1
_geom_bond_atom_site_label_2
_geom_bond_site_symmetry_1
_geom_bond_site_symmetry_2
O1 C15 1_555 1_555
O2 C20 1_555 1_555
O3 C20 1_555 1_555
N1 H1 1_555 1_555
N2 H2 1_555 1_555
C1 N1 1_555 1_555
C2 N2 1_555 1_555
H3 C2 1_555 1_555
C3 N2 1_555 1_555
H4 C3 1_555 1_555
H5 C3 1_555 1_555
C4 C3 1_555 1_555
H6 C4 1_555 1_555
H7 C4 1_555 1_555
C5 C1 1_555 1_555
C6 C5 1_555 1_555
C7 C6 1_555 1_555
H8 C7 1_555 1_555
C8 C7 1_555 1_555
H9 C8 1_555 1_555
C9 C8 1_555 1_555
H10 C9 1_555 1_555
C10 C9 1_555 1_555
H11 C10 1_555 1_555
C11 N1 1_555 1_555
C12 C2 1_555 1_555
H12 C12 1_555 1_555
H13 C12 1_555 1_555
C13 C12 1_555 1_555
H14 C13 1_555 1_555
C14 C13 1_555 1_555
C15 C14 1_555 1_555
H15 C15 1_555 1_555
C16 H16 1_555 1_555
H17 C16 1_555 1_555
H18 C16 1_555 1_555
C17 C16 1_555 1_555
H19 C17 1_555 1_555
H20 C17 1_555 1_555
C18 C13 1_555 1_555
H21 C18 1_555 1_555
C19 N2 1_555 1_555
H22 C19 1_555 1_555
H23 C19 1_555 1_555
C20 C14 1_555 1_555
C21 O1 1_555 1_555
H24 C21 1_555 1_555
H25 C21 1_555 1_555
H26 C21 1_555 1_555
C1 C2 1_555 1_555
C4 C5 1_555 1_555
C6 C11 1_555 1_555
C10 C11 1_555 1_555
C17 C18 1_555 1_555
C18 C19 1_555 1_555

#END
