
#######################################################################
#
#                 Cambridge Crystallographic Data Centre
#                                CCDC 
#
#######################################################################
#
# If this CIF has been generated from an entry in the Cambridge 
# Structural Database, then it will include bibliographic, chemical, 
# crystal, experimental, refinement or atomic coordinate data resulting 
# from the CCDC's data processing and validation procedures.
#
#######################################################################

data_CERYEE
_chemical_name_common            'methyl 12-chlorodehydroabietate'
_chemical_formula_moiety         'C21 H29 Cl1 O2'
_chemical_name_systematic        
'Methyl 6-chloro-7-isopropyl-1,4a-dimethyl-1,2,3,4,4a,9,10,10a-octahydrophenanthrene-1-carboxylate'
_symmetry_cell_setting           monoclinic
_symmetry_space_group_name_H-M   'C 2'
_symmetry_Int_Tables_number      5
_space_group_name_Hall           'C 2y'
loop_
_symmetry_equiv_pos_site_id
_symmetry_equiv_pos_as_xyz
1 x,y,z
2 -x,y,-z
3 1/2+x,1/2+y,z
4 1/2-x,1/2+y,-z
_cell_length_a                   13.6507(17)
_cell_length_b                   6.0856(6)
_cell_length_c                   23.120(3)
_cell_angle_alpha                90
_cell_angle_beta                 102.760(16)
_cell_angle_gamma                90
_cell_volume                     1873.21
_exptl_crystal_colour            colorless
_exptl_crystal_description       platelet
_chemical_melting_point          '409-411 K'
_cell_formula_units_Z            4
_exptl_crystal_recrystallization_method ethanol
loop_
_atom_site_label
_atom_site_type_symbol
_atom_site_fract_x
_atom_site_fract_y
_atom_site_fract_z
Cl1 Cl 0.53162(4) 0.49514(10) 0.91824(2)
O1 O 0.66971(14) -0.1660(3) 0.55486(8)
O2 O 0.64227(12) 0.1780(2) 0.57863(7)
C1 C 0.55802(15) 0.2461(4) 0.82713(9)
H1 H 0.4881 0.2189 0.8218
C2 C 0.60639(16) 0.3760(3) 0.87397(9)
C3 C 0.70896(15) 0.4187(3) 0.88520(9)
C4 C 0.75951(15) 0.3234(4) 0.84577(9)
H2 H 0.8298 0.3478 0.8519
C5 C 0.71356(15) 0.1936(4) 0.79754(9)
C6 C 0.61047(14) 0.1546(3) 0.78759(9)
C7 C 0.55540(13) 0.0072(4) 0.73659(8)
C8 C 0.61799(13) 0.0085(4) 0.68807(8)
H3 H 0.6241 0.1674 0.6784
C9 C 0.72577(15) -0.0661(4) 0.71344(9)
H4 H 0.7255 -0.2106 0.7331
H5 H 0.7620 -0.0821 0.6810
C10 C 0.77859(15) 0.1031(4) 0.75811(10)
H6 H 0.8390 0.0346 0.7833
H7 H 0.8013 0.2263 0.7364
C11 C 0.45038(14) 0.0987(4) 0.70904(9)
H8 H 0.4072 0.0828 0.7380
H9 H 0.4563 0.2575 0.7012
C12 C 0.39958(14) -0.0155(4) 0.65137(8)
H10 H 0.3876 -0.1717 0.6596
H11 H 0.3336 0.0542 0.6354
C13 C 0.46347(14) -0.0020(4) 0.60542(8)
H12 H 0.4700 0.1538 0.5946
H13 H 0.4291 -0.0814 0.5692
C14 C 0.56911(15) -0.1002(3) 0.62767(9)
C15 C 0.76249(16) 0.5658(4) 0.93530(9)
H14 H 0.7228 0.5644 0.9668
C16 C 0.76360(18) 0.8026(4) 0.91276(10)
H15 H 0.7967 0.8067 0.8792
H16 H 0.8003 0.8965 0.9447
H17 H 0.6945 0.8560 0.8999
C17 C 0.86868(17) 0.4894(5) 0.96343(10)
H18 H 0.8674 0.3335 0.9738
H19 H 0.8949 0.5756 0.9993
H20 H 0.9120 0.5101 0.9352
C18 C 0.54484(15) -0.2213(4) 0.76417(9)
H21 H 0.5147 -0.2042 0.7987
H22 H 0.6113 -0.2890 0.7766
H23 H 0.5018 -0.3153 0.7347
C19 C 0.56428(17) -0.3530(3) 0.62907(10)
H24 H 0.5433 -0.4092 0.5885
H25 H 0.5157 -0.3989 0.6522
H26 H 0.6308 -0.4117 0.6474
C20 C 0.63266(15) -0.0388(4) 0.58337(9)
C21 C 0.70048(17) 0.2544(4) 0.53759(9)
H27 H 0.7692 0.1978 0.5495
H28 H 0.7019 0.4154 0.5377
H29 H 0.6699 0.2018 0.4976
loop_
_geom_bond_atom_site_label_1
_geom_bond_atom_site_label_2
_geom_bond_site_symmetry_1
_geom_bond_site_symmetry_2
Cl1 C2 1_555 1_555
O1 C20 1_555 1_555
O2 C20 1_555 1_555
C1 H1 1_555 1_555
C2 C1 1_555 1_555
C3 C2 1_555 1_555
C4 C3 1_555 1_555
H2 C4 1_555 1_555
C5 C4 1_555 1_555
C6 C1 1_555 1_555
C7 C6 1_555 1_555
C8 C7 1_555 1_555
H3 C8 1_555 1_555
C9 C8 1_555 1_555
H4 C9 1_555 1_555
H5 C9 1_555 1_555
C10 C5 1_555 1_555
H6 C10 1_555 1_555
H7 C10 1_555 1_555
C11 C7 1_555 1_555
H8 C11 1_555 1_555
H9 C11 1_555 1_555
C12 C11 1_555 1_555
H10 C12 1_555 1_555
H11 C12 1_555 1_555
C13 C12 1_555 1_555
H12 C13 1_555 1_555
H13 C13 1_555 1_555
C14 C8 1_555 1_555
C15 C3 1_555 1_555
H14 C15 1_555 1_555
C16 C15 1_555 1_555
H15 C16 1_555 1_555
H16 C16 1_555 1_555
H17 C16 1_555 1_555
C17 C15 1_555 1_555
H18 C17 1_555 1_555
H19 C17 1_555 1_555
H20 C17 1_555 1_555
C18 C7 1_555 1_555
H21 C18 1_555 1_555
H22 C18 1_555 1_555
H23 C18 1_555 1_555
C19 C14 1_555 1_555
H24 C19 1_555 1_555
H25 C19 1_555 1_555
H26 C19 1_555 1_555
C20 C14 1_555 1_555
C21 O2 1_555 1_555
H27 C21 1_555 1_555
H28 C21 1_555 1_555
H29 C21 1_555 1_555
C5 C6 1_555 1_555
C9 C10 1_555 1_555
C13 C14 1_555 1_555

#END
