
#######################################################################
#
#                 Cambridge Crystallographic Data Centre
#                                CCDC 
#
#######################################################################
#
# If this CIF has been generated from an entry in the Cambridge 
# Structural Database, then it will include bibliographic, chemical, 
# crystal, experimental, refinement or atomic coordinate data resulting 
# from the CCDC's data processing and validation procedures.
#
#######################################################################

data_CERYIK
_chemical_formula_moiety         'C25 H26 O5,H2 O1'
_chemical_name_systematic        
'2^2^,2^5^-dimethoxy-3^4^-[(3-methylbut-2-en-1-yl)oxy][1^1^,2^1^:2^4^,3^1^-terphenyl]-1^4^,2^3^-diol monohydrate'
_chemical_properties_biological  
'Strong cytotoxicity against three tumour cell lines A549 (lung adenocarcinoma epithelial), HeLa (cervical carcinoma), and HepG2 (hepatocellular liver carcinoma). Induces S-phase arrest in the cell cycle progression.'
_symmetry_cell_setting           monoclinic
_symmetry_space_group_name_H-M   'P 21/c'
_symmetry_Int_Tables_number      14
_space_group_name_Hall           '-P 2ybc'
loop_
_symmetry_equiv_pos_site_id
_symmetry_equiv_pos_as_xyz
1 x,y,z
2 -x,1/2+y,1/2-z
3 -x,-y,-z
4 x,1/2-y,1/2+z
_cell_length_a                   9.4425(16)
_cell_length_b                   14.309(3)
_cell_length_c                   16.989(2)
_cell_angle_alpha                90
_cell_angle_beta                 98.778(14)
_cell_angle_gamma                90
_cell_volume                     2268.54
_exptl_crystal_colour            colorless
_exptl_crystal_description       block
_cell_formula_units_Z            4
loop_
_atom_site_label
_atom_site_type_symbol
_atom_site_fract_x
_atom_site_fract_y
_atom_site_fract_z
O1 O 0.8862(3) 0.5386(2) 1.39836(12)
H1 H 0.8705 0.4934 1.4254
O2 O 0.9064(3) 0.30623(18) 1.07858(12)
O3 O 0.8263(3) 0.27482(18) 0.92256(12)
H2 H 0.8516 0.2375 0.9586
O4 O 0.5905(3) 0.56614(18) 0.88758(13)
O5 O 0.5932(2) 0.36702(19) 0.56975(12)
C1 C 0.8619(4) 0.5144(3) 1.31886(18)
C2 C 0.8224(4) 0.4257(3) 1.29352(18)
H3 H 0.8122 0.3791 1.3304
C3 C 0.7981(4) 0.4059(3) 1.21329(18)
H4 H 0.7722 0.3455 1.1968
C4 C 0.8112(4) 0.4739(3) 1.15608(18)
C5 C 0.8503(4) 0.5624(3) 1.18382(19)
H5 H 0.8601 0.6094 1.1472
C6 C 0.8755(4) 0.5834(3) 1.26443(19)
H6 H 0.9014 0.6437 1.2814
C7 C 0.7796(3) 0.4547(3) 1.06987(18)
C8 C 0.8226(4) 0.3739(3) 1.03490(18)
C9 C 0.7848(4) 0.3567(3) 0.95396(18)
C10 C 0.7042(3) 0.4207(3) 0.90305(18)
C11 C 0.6653(4) 0.5031(3) 0.93909(18)
C12 C 0.6989(3) 0.5193(3) 1.02032(18)
H7 H 0.6673 0.5737 1.0420
C13 C 1.0553(4) 0.3303(4) 1.0934(2)
H8 H 1.0858 0.3498 1.0446
H9 H 1.1101 0.2770 1.1143
H10 H 1.0697 0.3805 1.1314
C14 C 0.5539(4) 0.6536(3) 0.9187(2)
H11 H 0.4919 0.6436 0.9577
H12 H 0.5056 0.6915 0.8762
H13 H 0.6395 0.6848 0.9430
C15 C 0.6691(4) 0.4039(3) 0.81619(17)
C16 C 0.7718(4) 0.3716(3) 0.77263(18)
H14 H 0.8630 0.3579 0.7993
C17 C 0.7442(4) 0.3591(3) 0.69179(19)
H15 H 0.8158 0.3373 0.6646
C18 C 0.6089(4) 0.3792(3) 0.65051(18)
C19 C 0.5043(4) 0.4094(3) 0.69249(19)
H16 H 0.4127 0.4218 0.6659
C20 C 0.5345(4) 0.4214(3) 0.77424(19)
H17 H 0.4623 0.4419 0.8016
C21 C 0.4533(4) 0.3823(3) 0.52461(19)
H18 H 0.4258 0.4474 0.5275
H19 H 0.3824 0.3440 0.5451
C22 C 0.4640(5) 0.3558(3) 0.4409(2)
H20 H 0.5547 0.3420 0.4291
C23 C 0.3567(5) 0.3504(3) 0.3826(2)
C24 C 0.3801(5) 0.3249(4) 0.2988(2)
H21 H 0.3459 0.3746 0.2630
H22 H 0.3287 0.2685 0.2825
H23 H 0.4805 0.3153 0.2980
C25 C 0.2058(6) 0.3689(5) 0.3923(3)
H24 H 0.2024 0.3913 0.4453
H25 H 0.1513 0.3122 0.3835
H26 H 0.1660 0.4153 0.3544
O6 O 0.8588(3) 0.40077(18) 0.50427(12)
H27 H 0.7772 0.3966 0.5193
H28 H 0.9236 0.4101 0.5440
loop_
_geom_bond_atom_site_label_1
_geom_bond_atom_site_label_2
_geom_bond_site_symmetry_1
_geom_bond_site_symmetry_2
O1 H1 1_555 1_555
O2 C8 1_555 1_555
O3 H2 1_555 1_555
O4 C11 1_555 1_555
O5 C18 1_555 1_555
C1 O1 1_555 1_555
C2 C1 1_555 1_555
H3 C2 1_555 1_555
C3 C2 1_555 1_555
H4 C3 1_555 1_555
C4 C3 1_555 1_555
C5 C4 1_555 1_555
H5 C5 1_555 1_555
C6 C1 1_555 1_555
H6 C6 1_555 1_555
C7 C4 1_555 1_555
C8 C7 1_555 1_555
C9 O3 1_555 1_555
C10 C9 1_555 1_555
C11 C10 1_555 1_555
C12 C7 1_555 1_555
H7 C12 1_555 1_555
C13 O2 1_555 1_555
H8 C13 1_555 1_555
H9 C13 1_555 1_555
H10 C13 1_555 1_555
C14 O4 1_555 1_555
H11 C14 1_555 1_555
H12 C14 1_555 1_555
H13 C14 1_555 1_555
C15 C10 1_555 1_555
C16 C15 1_555 1_555
H14 C16 1_555 1_555
C17 C16 1_555 1_555
H15 C17 1_555 1_555
C18 C17 1_555 1_555
C19 C18 1_555 1_555
H16 C19 1_555 1_555
C20 C15 1_555 1_555
H17 C20 1_555 1_555
C21 O5 1_555 1_555
H18 C21 1_555 1_555
H19 C21 1_555 1_555
C22 C21 1_555 1_555
H20 C22 1_555 1_555
C23 C22 1_555 1_555
C24 C23 1_555 1_555
H21 C24 1_555 1_555
H22 C24 1_555 1_555
H23 C24 1_555 1_555
C25 C23 1_555 1_555
H24 C25 1_555 1_555
H25 C25 1_555 1_555
H26 C25 1_555 1_555
O6 H27 1_555 1_555
H28 O6 1_555 1_555
C5 C6 1_555 1_555
C8 C9 1_555 1_555
C11 C12 1_555 1_555
C19 C20 1_555 1_555

#END
