
#######################################################################
#
#                 Cambridge Crystallographic Data Centre
#                                CCDC 
#
#######################################################################
#
# If this CIF has been generated from an entry in the Cambridge 
# Structural Database, then it will include bibliographic, chemical, 
# crystal, experimental, refinement or atomic coordinate data resulting 
# from the CCDC's data processing and validation procedures.
#
#######################################################################

data_CERZUV
_chemical_formula_moiety         'C29 H26 O1'
_chemical_name_systematic        
3,3-bis(3,5-Dimethylphenyl)-3H-benzo(f)chromene
_symmetry_cell_setting           monoclinic
_symmetry_space_group_name_H-M   'P 21/n'
_symmetry_Int_Tables_number      14
_space_group_name_Hall           '-P 2yn'
loop_
_symmetry_equiv_pos_site_id
_symmetry_equiv_pos_as_xyz
1 x,y,z
2 1/2-x,1/2+y,1/2-z
3 -x,-y,-z
4 1/2+x,1/2-y,1/2+z
_cell_length_a                   11.5290(8)
_cell_length_b                   11.3445(8)
_cell_length_c                   16.9415(12)
_cell_angle_alpha                90
_cell_angle_beta                 94.1240(10)
_cell_angle_gamma                90
_cell_volume                     2210.05
_exptl_crystal_colour            colorless
_exptl_crystal_description       block
_cell_formula_units_Z            4
_exptl_crystal_recrystallization_method ethanol
loop_
_atom_site_label
_atom_site_type_symbol
_atom_site_fract_x
_atom_site_fract_y
_atom_site_fract_z
O1 O -0.05573(9) 0.52133(10) 0.22760(7)
C1 C 0.02356(14) 0.70141(14) 0.28369(10)
C2 C 0.00158(15) 0.81414(15) 0.31856(10)
C3 C 0.09189(18) 0.88901(16) 0.34917(12)
H1 H 0.1690 0.8664 0.3461
C4 C 0.0671(2) 0.99450(19) 0.38335(14)
H2 H 0.1277 1.0429 0.4029
C5 C -0.0481(2) 1.03080(19) 0.38940(13)
H3 H -0.0636 1.1029 0.4125
C6 C -0.13680(19) 0.96044(17) 0.36139(12)
H4 H -0.2131 0.9844 0.3660
C7 C -0.11483(15) 0.85058(15) 0.32505(10)
C8 C -0.20620(16) 0.77609(17) 0.29728(11)
H5 H -0.2827 0.8009 0.3001
C9 C -0.18454(15) 0.66785(17) 0.26615(11)
H6 H -0.2459 0.6190 0.2486
C10 C -0.07002(14) 0.63104(15) 0.26090(10)
C11 C 0.13810(14) 0.65912(16) 0.26738(11)
H7 H 0.2014 0.7102 0.2712
C12 C 0.15246(15) 0.54795(16) 0.24703(11)
H8 H 0.2246 0.5232 0.2320
C13 C 0.05385(13) 0.46006(15) 0.24772(10)
C14 C 0.05931(13) 0.36723(15) 0.18275(10)
C15 C 0.08758(15) 0.40152(17) 0.10790(11)
H9 H 0.1049 0.4803 0.0990
C16 C 0.09075(16) 0.32194(19) 0.04607(10)
C17 C 0.06515(15) 0.20493(18) 0.06114(11)
H10 H 0.0681 0.1502 0.0205
C18 C 0.03534(15) 0.16678(17) 0.13457(11)
C19 C 0.03291(14) 0.24949(16) 0.19521(10)
H11 H 0.0132 0.2254 0.2450
C20 C 0.1227(2) 0.3622(2) -0.03457(12)
H12 H 0.2052 0.3558 -0.0377
H13 H 0.0994 0.4428 -0.0427
H14 H 0.0837 0.3137 -0.0746
C21 C 0.0056(2) 0.03991(19) 0.14847(14)
H15 H -0.0731 0.0251 0.1286
H16 H 0.0136 0.0235 0.2042
H17 H 0.0573 -0.0099 0.1216
C22 C 0.05351(14) 0.40690(14) 0.33044(9)
C23 C 0.15580(15) 0.35773(16) 0.36443(10)
H18 H 0.2215 0.3562 0.3357
C24 C 0.16198(16) 0.31105(17) 0.44007(11)
C25 C 0.06333(17) 0.31587(16) 0.48215(11)
H19 H 0.0669 0.2861 0.5334
C26 C -0.03954(16) 0.36308(15) 0.45067(10)
C27 C -0.04380(14) 0.40774(14) 0.37397(10)
H20 H -0.1132 0.4387 0.3515
C28 C -0.14498(18) 0.36910(19) 0.49831(13)
H21 H -0.1582 0.2933 0.5212
H22 H -0.2117 0.3913 0.4644
H23 H -0.1321 0.4265 0.5397
C29 C 0.2750(2) 0.2597(2) 0.47629(15)
H24 H 0.3097 0.3137 0.5147
H25 H 0.3272 0.2466 0.4355
H26 H 0.2595 0.1862 0.5016
loop_
_geom_bond_atom_site_label_1
_geom_bond_atom_site_label_2
_geom_bond_site_symmetry_1
_geom_bond_site_symmetry_2
O1 C10 1_555 1_555
C1 C2 1_555 1_555
C2 C3 1_555 1_555
C3 H1 1_555 1_555
C4 C3 1_555 1_555
H2 C4 1_555 1_555
C5 C4 1_555 1_555
H3 C5 1_555 1_555
C6 C5 1_555 1_555
H4 C6 1_555 1_555
C7 C2 1_555 1_555
C8 C7 1_555 1_555
H5 C8 1_555 1_555
C9 C8 1_555 1_555
H6 C9 1_555 1_555
C10 C1 1_555 1_555
C11 C1 1_555 1_555
H7 C11 1_555 1_555
C12 C11 1_555 1_555
H8 C12 1_555 1_555
C13 O1 1_555 1_555
C14 C13 1_555 1_555
C15 C14 1_555 1_555
H9 C15 1_555 1_555
C16 C15 1_555 1_555
C17 C16 1_555 1_555
H10 C17 1_555 1_555
C18 C17 1_555 1_555
C19 C14 1_555 1_555
H11 C19 1_555 1_555
C20 C16 1_555 1_555
H12 C20 1_555 1_555
H13 C20 1_555 1_555
H14 C20 1_555 1_555
C21 C18 1_555 1_555
H15 C21 1_555 1_555
H16 C21 1_555 1_555
H17 C21 1_555 1_555
C22 C13 1_555 1_555
C23 C22 1_555 1_555
H18 C23 1_555 1_555
C24 C23 1_555 1_555
C25 C24 1_555 1_555
H19 C25 1_555 1_555
C26 C25 1_555 1_555
C27 C22 1_555 1_555
H20 C27 1_555 1_555
C28 C26 1_555 1_555
H21 C28 1_555 1_555
H22 C28 1_555 1_555
H23 C28 1_555 1_555
C29 C24 1_555 1_555
H24 C29 1_555 1_555
H25 C29 1_555 1_555
H26 C29 1_555 1_555
C6 C7 1_555 1_555
C9 C10 1_555 1_555
C12 C13 1_555 1_555
C18 C19 1_555 1_555
C26 C27 1_555 1_555

#END
