
#######################################################################
#
#                 Cambridge Crystallographic Data Centre
#                                CCDC 
#
#######################################################################
#
# If this CIF has been generated from an entry in the Cambridge 
# Structural Database, then it will include bibliographic, chemical, 
# crystal, experimental, refinement or atomic coordinate data resulting 
# from the CCDC's data processing and validation procedures.
#
#######################################################################

data_CESBOU
_chemical_name_common            
3,3'-(ethene-1,2-diyl)bis(6-bromo-9-hexyl-9H-carbazole)
_chemical_formula_moiety         'C38 H40 Br2 N2'
_chemical_name_systematic        
(E)-1,2-bis(6-bromo-9-hexyl-9H-carbazol-3-yl)ethene
_symmetry_cell_setting           triclinic
_symmetry_space_group_name_H-M   'P -1'
_symmetry_Int_Tables_number      2
_space_group_name_Hall           '-P 1'
loop_
_symmetry_equiv_pos_site_id
_symmetry_equiv_pos_as_xyz
1 x,y,z
2 -x,-y,-z
_cell_length_a                   8.5553(12)
_cell_length_b                   11.4379(16)
_cell_length_c                   17.333(2)
_cell_angle_alpha                101.247(2)
_cell_angle_beta                 98.3920(10)
_cell_angle_gamma                104.990(2)
_cell_volume                     1572.03
_exptl_crystal_colour            'pale yellow'
_exptl_crystal_description       block
_cell_formula_units_Z            2
loop_
_atom_site_label
_atom_site_type_symbol
_atom_site_fract_x
_atom_site_fract_y
_atom_site_fract_z
Br1 Br 0.07518(3) 1.08100(2) 0.368357(13)
Br2 Br 0.48276(3) 0.47768(2) 1.151520(13)
N1 N 0.4919(2) 0.74884(16) 0.43613(10)
N2 N -0.0392(2) 0.70603(16) 1.03984(10)
C1 C 1.1045(3) 0.4685(2) 0.39475(17)
H1 H 1.1716 0.5189 0.4456
H2 H 1.1708 0.4298 0.3643
H3 H 1.0153 0.4052 0.4035
C2 C 1.0354(3) 0.5495(2) 0.34896(14)
H4 H 0.9748 0.4989 0.2961
H5 H 1.1265 0.6142 0.3415
C3 C 0.9216(3) 0.6105(2) 0.39002(13)
H6 H 0.9814 0.6600 0.4432
H7 H 0.8292 0.5459 0.3966
C4 C 0.8552(3) 0.6937(2) 0.34368(13)
H8 H 0.7862 0.6423 0.2927
H9 H 0.9476 0.7526 0.3322
C5 C 0.7551(3) 0.7660(2) 0.38762(13)
H10 H 0.7431 0.8322 0.3619
H11 H 0.8151 0.8044 0.4426
C6 C 0.5841(3) 0.68408(19) 0.38851(13)
H12 H 0.5210 0.6516 0.3337
H13 H 0.5961 0.6136 0.4096
C7 C 0.4684(2) 0.73873(18) 0.51204(12)
C8 C 0.3640(2) 0.80997(17) 0.53622(12)
C9 C 0.3180(2) 0.81224(17) 0.61012(11)
H14 H 0.2492 0.8592 0.6261
C10 C 0.3754(2) 0.74392(18) 0.66009(12)
C11 C 0.3229(3) 0.7348(2) 0.73609(12)
H15 H 0.3830 0.7018 0.7707
C12 C 0.1974(3) 0.76918(19) 0.76010(12)
H16 H 0.1424 0.8068 0.7267
C13 C 0.1359(2) 0.75442(19) 0.83351(12)
C14 C 0.2124(2) 0.70651(17) 0.89176(11)
H17 H 0.3077 0.6841 0.8855
C15 C 0.1458(2) 0.69252(18) 0.95890(12)
C16 C 0.0028(2) 0.72944(19) 0.96916(12)
C17 C -0.1801(2) 0.7281(2) 1.07101(13)
H18 H -0.2301 0.6583 1.0923
H19 H -0.2617 0.7320 1.0272
C18 C -0.1347(3) 0.8482(2) 1.13693(14)
H20 H -0.0536 0.8443 1.1810
H21 H -0.0844 0.9182 1.1158
C19 C -0.2842(3) 0.8703(2) 1.16877(13)
H22 H -0.3470 0.7934 1.1792
H23 H -0.2453 0.9325 1.2196
C20 C -0.3993(3) 0.9134(2) 1.11272(12)
H24 H -0.3361 0.9880 1.0998
H25 H -0.4442 0.8492 1.0630
C21 C -0.5411(3) 0.9413(2) 1.14864(13)
H26 H -0.4966 0.9951 1.2023
H27 H -0.6138 0.8638 1.1537
C22 C -0.6416(3) 1.0029(2) 1.10040(16)
H28 H -0.5721 1.0817 1.0972
H29 H -0.7299 1.0161 1.1261
H30 H -0.6870 0.9502 1.0472
C23 C 0.3243(2) 0.86664(18) 0.47177(11)
C24 C 0.2259(2) 0.94360(18) 0.45978(12)
H31 H 0.1709 0.9708 0.4989
C25 C 0.2127(2) 0.97824(19) 0.38768(12)
C26 C 0.2924(3) 0.9391(2) 0.32750(13)
H32 H 0.2804 0.9650 0.2799
C27 C 0.3894(3) 0.8616(2) 0.33856(12)
H33 H 0.4425 0.8340 0.2987
C28 C 0.4054(2) 0.82602(19) 0.41109(12)
C29 C 0.0727(2) 0.65426(19) 1.07554(12)
C30 C 0.0789(3) 0.6144(2) 1.14621(13)
H34 H 0.0020 0.6224 1.1781
C31 C 0.2025(3) 0.5627(2) 1.16787(13)
H35 H 0.2091 0.5345 1.2147
C32 C 0.3170(3) 0.55263(19) 1.11963(12)
C33 C 0.3143(2) 0.59188(18) 1.04918(11)
H36 H 0.3921 0.5835 1.0179
C34 C 0.1905(2) 0.64437(18) 1.02687(12)
C35 C -0.0731(3) 0.7797(2) 0.91302(14)
H37 H -0.1658 0.8052 0.9203
C36 C -0.0061(3) 0.7904(2) 0.84590(13)
H38 H -0.0567 0.8226 0.8073
C37 C 0.4842(3) 0.6770(2) 0.63531(13)
H39 H 0.5258 0.6340 0.6696
C38 C 0.5315(3) 0.6729(2) 0.56168(13)
H40 H 0.6027 0.6278 0.5463
loop_
_geom_bond_atom_site_label_1
_geom_bond_atom_site_label_2
_geom_bond_site_symmetry_1
_geom_bond_site_symmetry_2
Br1 C25 1_555 1_555
Br2 C32 1_555 1_555
N1 C6 1_555 1_555
N2 C16 1_555 1_555
C1 H1 1_555 1_555
H2 C1 1_555 1_555
H3 C1 1_555 1_555
C2 C1 1_555 1_555
H4 C2 1_555 1_555
H5 C2 1_555 1_555
C3 C2 1_555 1_555
H6 C3 1_555 1_555
H7 C3 1_555 1_555
C4 C3 1_555 1_555
H8 C4 1_555 1_555
H9 C4 1_555 1_555
C5 C4 1_555 1_555
H10 C5 1_555 1_555
H11 C5 1_555 1_555
C6 C5 1_555 1_555
H12 C6 1_555 1_555
H13 C6 1_555 1_555
C7 N1 1_555 1_555
C8 C7 1_555 1_555
C9 C8 1_555 1_555
H14 C9 1_555 1_555
C10 C9 1_555 1_555
C11 C10 1_555 1_555
H15 C11 1_555 1_555
C12 C11 1_555 1_555
H16 C12 1_555 1_555
C13 C12 1_555 1_555
C14 C13 1_555 1_555
H17 C14 1_555 1_555
C15 C14 1_555 1_555
C16 C15 1_555 1_555
C17 N2 1_555 1_555
H18 C17 1_555 1_555
H19 C17 1_555 1_555
C18 C17 1_555 1_555
H20 C18 1_555 1_555
H21 C18 1_555 1_555
C19 C18 1_555 1_555
H22 C19 1_555 1_555
H23 C19 1_555 1_555
C20 C19 1_555 1_555
H24 C20 1_555 1_555
H25 C20 1_555 1_555
C21 C20 1_555 1_555
H26 C21 1_555 1_555
H27 C21 1_555 1_555
C22 C21 1_555 1_555
H28 C22 1_555 1_555
H29 C22 1_555 1_555
H30 C22 1_555 1_555
C23 C8 1_555 1_555
C24 C23 1_555 1_555
H31 C24 1_555 1_555
C25 C24 1_555 1_555
C26 C25 1_555 1_555
H32 C26 1_555 1_555
C27 C26 1_555 1_555
H33 C27 1_555 1_555
C28 N1 1_555 1_555
C29 N2 1_555 1_555
C30 C29 1_555 1_555
H34 C30 1_555 1_555
C31 C30 1_555 1_555
H35 C31 1_555 1_555
C32 C31 1_555 1_555
C33 C32 1_555 1_555
H36 C33 1_555 1_555
C34 C15 1_555 1_555
C35 C16 1_555 1_555
H37 C35 1_555 1_555
C36 C13 1_555 1_555
H38 C36 1_555 1_555
C37 C10 1_555 1_555
H39 C37 1_555 1_555
C38 C7 1_555 1_555
H40 C38 1_555 1_555
C23 C28 1_555 1_555
C27 C28 1_555 1_555
C29 C34 1_555 1_555
C33 C34 1_555 1_555
C35 C36 1_555 1_555
C37 C38 1_555 1_555

#END
