
#######################################################################
#
#                 Cambridge Crystallographic Data Centre
#                                CCDC 
#
#######################################################################
#
# If this CIF has been generated from an entry in the Cambridge 
# Structural Database, then it will include bibliographic, chemical, 
# crystal, experimental, refinement or atomic coordinate data resulting 
# from the CCDC's data processing and validation procedures.
#
#######################################################################

data_CESCUZ
_chemical_formula_moiety         'C7 H12 N6 2+,2(C6 H2 N3 O7 1-)'
_chemical_name_systematic        
"1,1'-Methylenebis(4-methyl-1H-triazolium) dipicrate"
_symmetry_cell_setting           triclinic
_symmetry_space_group_name_H-M   'P -1'
_symmetry_Int_Tables_number      2
_space_group_name_Hall           '-P 1'
loop_
_symmetry_equiv_pos_site_id
_symmetry_equiv_pos_as_xyz
1 x,y,z
2 -x,-y,-z
_cell_length_a                   7.0658(5)
_cell_length_b                   8.8036(6)
_cell_length_c                   20.5831(14)
_cell_angle_alpha                96.5870(10)
_cell_angle_beta                 90.1220(10)
_cell_angle_gamma                94.2550(10)
_cell_volume                     1268.33
_exptl_crystal_colour            yellow
_exptl_crystal_description       block
_chemical_melting_point          '488-490 K'
_cell_formula_units_Z            2
_exptl_crystal_recrystallization_method acetonitrile
loop_
_atom_site_label
_atom_site_type_symbol
_atom_site_fract_x
_atom_site_fract_y
_atom_site_fract_z
C1 C 0.8452(3) 1.2680(2) 0.26685(11)
H1 H 0.9088 1.1780 0.2730
H2 H 0.8550 1.3380 0.3063
H3 H 0.9031 1.3164 0.2316
C2 C 0.4944(3) 1.29727(19) 0.27592(9)
H4 H 0.5035 1.3831 0.3069
C3 C 0.5777(2) 1.10902(18) 0.20943(7)
H5 H 0.6478 1.0378 0.1850
C4 C 0.2568(3) 1.0074(2) 0.17085(8)
H6 H 0.3190 0.9573 0.1332
H7 H 0.1563 1.0635 0.1551
C5 C 0.2620(2) 0.78501(19) 0.23424(8)
H8 H 0.3891 0.7658 0.2289
C6 C -0.0308(2) 0.7730(2) 0.26073(9)
H9 H -0.1448 0.7394 0.2787
C7 C 0.1709(3) 0.5850(2) 0.30640(11)
H10 H 0.1775 0.4911 0.2781
H11 H 0.0698 0.5734 0.3369
H12 H 0.2889 0.6093 0.3298
N1 N 0.64543(19) 1.22482(14) 0.25114(6)
N2 N 0.3361(2) 1.23246(17) 0.25121(7)
N3 N 0.39281(19) 1.11307(15) 0.20880(6)
N4 N 0.17587(19) 0.89257(16) 0.21023(6)
N5 N -0.01164(19) 0.88714(18) 0.22611(7)
N6 N 0.13510(19) 0.70840(15) 0.26752(7)
C8 C 0.6822(2) 0.7123(2) 0.40862(8)
C9 C 0.6749(2) 0.87732(19) 0.41929(7)
C10 C 0.7250(2) 0.9661(2) 0.47706(8)
H13 H 0.7162 1.0716 0.4810
C11 C 0.7881(2) 0.8976(2) 0.52895(8)
C12 C 0.7965(3) 0.7394(2) 0.52445(8)
H14 H 0.8352 0.6934 0.5602
C13 C 0.7474(3) 0.6530(2) 0.46723(9)
N7 N 0.6101(2) 0.96010(19) 0.36757(7)
N8 N 0.8428(2) 0.9904(2) 0.58924(7)
N9 N 0.7642(3) 0.4882(2) 0.46542(10)
O1 O 0.6363(2) 0.62960(16) 0.35715(6)
O2 O 0.6002(2) 0.89723(19) 0.31130(6)
O3 O 0.5659(3) 1.09097(18) 0.38168(7)
O4 O 0.8252(3) 1.12783(18) 0.59354(8)
O5 O 0.9074(3) 0.9288(2) 0.63359(7)
O6 O 0.7262(4) 0.4285(2) 0.51424(10)
O7 O 0.8260(4) 0.4190(2) 0.41641(10)
C14 C 0.6671(2) 0.73578(18) 0.08687(7)
C15 C 0.6724(2) 0.57001(18) 0.07777(8)
C16 C 0.7299(2) 0.48787(19) 0.02140(8)
H15 H 0.7242 0.3813 0.0177
C17 C 0.7961(2) 0.5654(2) -0.02971(8)
C18 C 0.8088(2) 0.7245(2) -0.02421(8)
H16 H 0.8562 0.7760 -0.0584
C19 C 0.7513(2) 0.80387(19) 0.03166(8)
N10 N 0.6096(2) 0.48227(17) 0.13045(7)
N11 N 0.8541(2) 0.4803(2) -0.08951(8)
N12 N 0.7765(3) 0.97110(18) 0.03608(8)
O8 O 0.59240(18) 0.80976(14) 0.13349(6)
O9 O 0.6085(3) 0.54589(18) 0.18632(7)
O10 O 0.5619(3) 0.34698(16) 0.11732(8)
O11 O 0.8457(2) 0.33982(19) -0.09285(8)
O12 O 0.9113(3) 0.5514(2) -0.13432(7)
O13 O 0.7588(3) 1.0309(2) -0.01386(8)
O14 O 0.8243(2) 1.04396(16) 0.08849(7)
loop_
_geom_bond_atom_site_label_1
_geom_bond_atom_site_label_2
_geom_bond_site_symmetry_1
_geom_bond_site_symmetry_2
C1 H1 1_555 1_555
H2 C1 1_555 1_555
H3 C1 1_555 1_555
C2 H4 1_555 1_555
C3 H5 1_555 1_555
C4 H6 1_555 1_555
H7 C4 1_555 1_555
C5 H8 1_555 1_555
C6 H9 1_555 1_555
C7 H10 1_555 1_555
H11 C7 1_555 1_555
H12 C7 1_555 1_555
N1 C1 1_555 1_555
N2 C2 1_555 1_555
N3 C3 1_555 1_555
N4 C4 1_555 1_555
N5 C6 1_555 1_555
N6 C5 1_555 1_555
C8 C9 1_555 1_555
C9 C10 1_555 1_555
C10 H13 1_555 1_555
C11 C10 1_555 1_555
C12 C11 1_555 1_555
H14 C12 1_555 1_555
C13 C8 1_555 1_555
N7 C9 1_555 1_555
N8 C11 1_555 1_555
N9 C13 1_555 1_555
O1 C8 1_555 1_555
O2 N7 1_555 1_555
O3 N7 1_555 1_555
O4 N8 1_555 1_555
O5 N8 1_555 1_555
O6 N9 1_555 1_555
O7 N9 1_555 1_555
C14 C15 1_555 1_555
C15 C16 1_555 1_555
C16 H15 1_555 1_555
C17 C16 1_555 1_555
C18 C17 1_555 1_555
H16 C18 1_555 1_555
C19 C14 1_555 1_555
N10 C15 1_555 1_555
N11 C17 1_555 1_555
N12 C19 1_555 1_555
O8 C14 1_555 1_555
O9 N10 1_555 1_555
O10 N10 1_555 1_555
O11 N11 1_555 1_555
O12 N11 1_555 1_555
O13 N12 1_555 1_555
O14 N12 1_555 1_555
C2 N1 1_555 1_555
C3 N1 1_555 1_555
C4 N3 1_555 1_555
C5 N4 1_555 1_555
C6 N6 1_555 1_555
C7 N6 1_555 1_555
N2 N3 1_555 1_555
N4 N5 1_555 1_555
C12 C13 1_555 1_555
C18 C19 1_555 1_555

#END
