
#######################################################################
#
#                 Cambridge Crystallographic Data Centre
#                                CCDC 
#
#######################################################################
#
# If this CIF has been generated from an entry in the Cambridge 
# Structural Database, then it will include bibliographic, chemical, 
# crystal, experimental, refinement or atomic coordinate data resulting 
# from the CCDC's data processing and validation procedures.
#
#######################################################################

data_CESCOT
_chemical_formula_moiety         'C21 H24 O2'
_chemical_name_systematic        Pregna-1,4,9(11),16-tetraene-3,20-dione
_symmetry_cell_setting           orthorhombic
_symmetry_space_group_name_H-M   'P 21 21 21'
_symmetry_Int_Tables_number      19
_space_group_name_Hall           'P 2ac 2ab'
loop_
_symmetry_equiv_pos_site_id
_symmetry_equiv_pos_as_xyz
1 x,y,z
2 1/2+x,1/2-y,-z
3 -x,1/2+y,1/2-z
4 1/2-x,-y,1/2+z
_cell_length_a                   6.6433(19)
_cell_length_b                   11.278(4)
_cell_length_c                   22.951(8)
_cell_angle_alpha                90
_cell_angle_beta                 90
_cell_angle_gamma                90
_cell_volume                     1719.56
_exptl_crystal_colour            colorless
_exptl_crystal_description       chunk
_cell_formula_units_Z            4
_exptl_crystal_recrystallization_method methanol/dichloromethane
loop_
_atom_site_label
_atom_site_type_symbol
_atom_site_fract_x
_atom_site_fract_y
_atom_site_fract_z
O1 O 0.4852(4) 0.9160(3) -0.01135(9)
O2 O 0.7845(4) 0.7254(2) 0.41831(10)
C1 C 0.5076(5) 0.7236(3) 0.11068(13)
H1 H 0.5851 0.6602 0.1237
C2 C 0.5583(5) 0.7737(4) 0.06033(13)
H2 H 0.6680 0.7444 0.0397
C3 C 0.4459(5) 0.8732(3) 0.03691(13)
C4 C 0.2849(5) 0.9187(3) 0.07242(11)
H3 H 0.2158 0.9857 0.0598
C5 C 0.2308(4) 0.8687(2) 0.12273(11)
C6 C 0.0610(5) 0.9184(3) 0.15841(11)
H4 H -0.0493 0.8620 0.1593
H5 H 0.0125 0.9909 0.1406
C7 C 0.1307(5) 0.9440(3) 0.22043(11)
H6 H 0.0152 0.9673 0.2436
H7 H 0.2236 1.0104 0.2197
C8 C 0.2337(4) 0.8383(2) 0.24965(10)
H8 H 0.1332 0.7764 0.2567
C9 C 0.3984(4) 0.7883(2) 0.21085(10)
C10 C 0.3353(4) 0.7620(2) 0.14763(11)
C11 C 0.5823(4) 0.7677(2) 0.23091(11)
H9 H 0.6783 0.7441 0.2038
C12 C 0.6513(4) 0.7789(3) 0.29318(11)
H10 H 0.7303 0.8506 0.2978
H11 H 0.7357 0.7118 0.3033
C13 C 0.4698(4) 0.7830(2) 0.33342(11)
C14 C 0.3255(4) 0.8749(2) 0.30746(10)
H12 H 0.4087 0.9445 0.2988
C15 C 0.1915(4) 0.9116(3) 0.35889(10)
H13 H 0.1434 0.9924 0.3548
H14 H 0.0777 0.8585 0.3636
C16 C 0.3388(5) 0.8997(3) 0.40807(12)
H15 H 0.3215 0.9352 0.4443
C17 C 0.4965(4) 0.8331(2) 0.39434(11)
C18 C 0.3747(5) 0.6592(2) 0.33910(12)
H16 H 0.4604 0.6095 0.3623
H17 H 0.3590 0.6249 0.3011
H18 H 0.2454 0.6659 0.3575
C19 C 0.1861(6) 0.6556(3) 0.14813(12)
H19 H 0.0752 0.6733 0.1735
H20 H 0.2543 0.5859 0.1619
H21 H 0.1370 0.6420 0.1094
C20 C 0.6632(5) 0.8013(3) 0.43314(12)
C21 C 0.6834(6) 0.8645(3) 0.49060(12)
H22 H 0.8008 0.8361 0.5106
H23 H 0.5662 0.8495 0.5139
H24 H 0.6960 0.9482 0.4839
loop_
_geom_bond_atom_site_label_1
_geom_bond_atom_site_label_2
_geom_bond_site_symmetry_1
_geom_bond_site_symmetry_2
O1 C3 1_555 1_555
O2 C20 1_555 1_555
C1 H1 1_555 1_555
C2 C1 1_555 1_555
H2 C2 1_555 1_555
C3 C2 1_555 1_555
C4 C3 1_555 1_555
H3 C4 1_555 1_555
C5 C4 1_555 1_555
C6 C5 1_555 1_555
H4 C6 1_555 1_555
H5 C6 1_555 1_555
C7 C6 1_555 1_555
H6 C7 1_555 1_555
H7 C7 1_555 1_555
C8 C7 1_555 1_555
H8 C8 1_555 1_555
C9 C8 1_555 1_555
C10 C1 1_555 1_555
C11 C9 1_555 1_555
H9 C11 1_555 1_555
C12 C11 1_555 1_555
H10 C12 1_555 1_555
H11 C12 1_555 1_555
C13 C12 1_555 1_555
C14 C8 1_555 1_555
H12 C14 1_555 1_555
C15 C14 1_555 1_555
H13 C15 1_555 1_555
H14 C15 1_555 1_555
C16 C15 1_555 1_555
H15 C16 1_555 1_555
C17 C13 1_555 1_555
C18 C13 1_555 1_555
H16 C18 1_555 1_555
H17 C18 1_555 1_555
H18 C18 1_555 1_555
C19 C10 1_555 1_555
H19 C19 1_555 1_555
H20 C19 1_555 1_555
H21 C19 1_555 1_555
C20 C17 1_555 1_555
C21 C20 1_555 1_555
H22 C21 1_555 1_555
H23 C21 1_555 1_555
H24 C21 1_555 1_555
C5 C10 1_555 1_555
C9 C10 1_555 1_555
C13 C14 1_555 1_555
C16 C17 1_555 1_555

#END
