
#######################################################################
#
#                 Cambridge Crystallographic Data Centre
#                                CCDC 
#
#######################################################################
#
# If this CIF has been generated from an entry in the Cambridge 
# Structural Database, then it will include bibliographic, chemical, 
# crystal, experimental, refinement or atomic coordinate data resulting 
# from the CCDC's data processing and validation procedures.
#
#######################################################################

data_CESDIO
_chemical_formula_moiety         'C56 H76 Mg2 N4 O2'
_chemical_name_systematic        
bis(\m~2~-1-Methyl-3-(3,5-di-t-butyl-2-oxybenzyl)imidazol-2-ylidene-C,O,O)-dimesityl-di-magnesium
_symmetry_cell_setting           monoclinic
_symmetry_space_group_name_H-M   'P 21/a'
_symmetry_Int_Tables_number      14
_space_group_name_Hall           '-P 2yab'
loop_
_symmetry_equiv_pos_site_id
_symmetry_equiv_pos_as_xyz
1 x,y,z
2 1/2-x,1/2+y,-z
3 -x,-y,-z
4 1/2+x,1/2-y,z
_cell_length_a                   12.325(4)
_cell_length_b                   25.461(9)
_cell_length_c                   17.227(6)
_cell_angle_alpha                90
_cell_angle_beta                 89.957(5)
_cell_angle_gamma                90
_cell_volume                     5405.95
_exptl_crystal_colour            colorless
_exptl_crystal_description       prism
_cell_formula_units_Z            4
_exptl_crystal_recrystallization_method tetrahydrofuran/toluene/hexane
loop_
_atom_site_label
_atom_site_type_symbol
_atom_site_fract_x
_atom_site_fract_y
_atom_site_fract_z
Mg1 Mg 0.05130(11) 0.05412(5) 0.00257(8)
O1 O -0.0990(2) 0.02041(10) 0.0050(2)
N1 N -0.0290(3) 0.08581(12) 0.1723(2)
N2 N 0.1096(3) 0.13241(12) 0.1462(2)
C1 C -0.1879(3) 0.0496(2) 0.0247(2)
C2 C -0.2683(3) 0.0646(2) -0.0287(2)
C3 C -0.3490(3) 0.0991(2) -0.0030(2)
C4 C -0.3569(3) 0.1181(2) 0.0729(2)
C5 C -0.2810(3) 0.0996(2) 0.1249(2)
C6 C -0.1986(3) 0.0657(1) 0.1036(2)
C7 C -0.1183(3) 0.0483(2) 0.1634(2)
C8 C 0.0530(3) 0.0910(2) 0.1196(2)
C9 C -0.0238(4) 0.1239(2) 0.2294(2)
C10 C 0.0641(4) 0.1530(2) 0.2127(3)
C11 C 0.2091(4) 0.1525(2) 0.1116(3)
C12 C -0.2724(4) 0.0431(2) -0.1123(2)
C13 C -0.2998(4) -0.0154(2) -0.1077(3)
C14 C -0.3615(4) 0.0693(2) -0.1603(3)
C15 C -0.1641(4) 0.0517(2) -0.1552(3)
C16 C -0.4416(4) 0.1592(2) 0.0962(3)
C17 C -0.5289(4) 0.1678(2) 0.0349(3)
C18 C -0.4969(4) 0.1430(2) 0.1722(3)
C19 C -0.3817(4) 0.2114(2) 0.1088(4)
C20 C 0.1107(4) 0.1171(2) -0.0718(2)
C21 C 0.2115(4) 0.1182(2) -0.1088(2)
C22 C 0.2512(4) 0.1643(2) -0.1438(3)
C23 C 0.1907(4) 0.2103(2) -0.1453(3)
C24 C 0.0917(4) 0.2095(2) -0.1097(3)
C25 C 0.0518(4) 0.1646(2) -0.0723(2)
C26 C 0.2842(4) 0.0704(2) -0.1119(3)
C27 C 0.2339(5) 0.2591(2) -0.1840(3)
C28 C -0.0561(4) 0.1690(2) -0.0297(3)
H1 H -0.4032(3) 0.1106(2) -0.0401(2)
H2 H -0.2852(3) 0.1109(2) 0.1785(2)
H3 H -0.0883(3) 0.0148(2) 0.1476(2)
H4 H -0.1553(3) 0.0444(2) 0.2128(2)
H5 H -0.0742(4) 0.1286(2) 0.2722(2)
H6 H 0.0908(4) 0.1829(2) 0.2419(3)
H7 H 0.2640(4) 0.1253(2) 0.1112(3)
H8 H 0.1937(4) 0.1634(2) 0.0588(3)
H9 H 0.2352(4) 0.1824(2) 0.1411(3)
H10 H -0.3703(4) -0.0200(2) -0.0835(3)
H11 H -0.3012(4) -0.0300(2) -0.1597(3)
H12 H -0.2451(4) -0.0334(2) -0.0772(3)
H13 H -0.3474(4) 0.1067(2) -0.1643(3)
H14 H -0.3627(4) 0.0540(2) -0.2118(3)
H15 H -0.4310(4) 0.0638(2) -0.1353(3)
H16 H -0.1058(4) 0.0357(2) -0.1257(3)
H17 H -0.1682(4) 0.0354(2) -0.2060(3)
H18 H -0.1502(4) 0.0889(2) -0.1610(3)
H19 H -0.5793(4) 0.1946(2) 0.0523(3)
H20 H -0.4952(4) 0.1789(2) -0.0133(3)
H21 H -0.5677(4) 0.1352(2) 0.0265(3)
H22 H -0.5476(4) 0.1700(2) 0.1886(3)
H23 H -0.5357(4) 0.1104(2) 0.1636(3)
H24 H -0.4425(4) 0.1379(2) 0.2121(3)
H25 H -0.3259(4) 0.2070(2) 0.1479(4)
H26 H -0.3487(4) 0.2225(2) 0.0604(4)
H27 H -0.4332(4) 0.2378(2) 0.1260(4)
H28 H 0.3221(4) 0.1637(2) -0.1683(3)
H29 H 0.0472(4) 0.2409(2) -0.1107(3)
H30 H 0.2487(4) 0.0416(2) -0.0852(3)
H31 H 0.2970(4) 0.0607(2) -0.1656(3)
H32 H 0.3528(4) 0.0780(2) -0.0868(3)
H33 H 0.3051(5) 0.2519(2) -0.2054(3)
H34 H 0.1851(5) 0.2697(2) -0.2253(3)
H35 H 0.2394(5) 0.2872(2) -0.1461(3)
H36 H -0.0513(4) 0.1956(2) 0.0104(3)
H37 H -0.1120(4) 0.1787(2) -0.0667(3)
H38 H -0.0741(4) 0.1354(2) -0.0064(3)
Mg1B Mg -0.05130(11) -0.05412(5) -0.00257(8)
O1B O 0.0990(2) -0.02041(10) -0.0050(2)
N1B N 0.0290(3) -0.08581(12) -0.1723(2)
N2B N -0.1096(3) -0.13241(12) -0.1462(2)
C1B C 0.1879(3) -0.0496(2) -0.0247(2)
C2B C 0.2683(3) -0.0646(2) 0.0287(2)
C3B C 0.3490(3) -0.0991(2) 0.0030(2)
C4B C 0.3569(3) -0.1181(2) -0.0729(2)
C5B C 0.2810(3) -0.0996(2) -0.1249(2)
C6B C 0.1986(3) -0.0657(1) -0.1036(2)
C7B C 0.1183(3) -0.0483(2) -0.1634(2)
C8B C -0.0530(3) -0.0910(2) -0.1196(2)
C9B C 0.0238(4) -0.1239(2) -0.2294(2)
C10B C -0.0641(4) -0.1530(2) -0.2127(3)
C11B C -0.2091(4) -0.1525(2) -0.1116(3)
C12B C 0.2724(4) -0.0431(2) 0.1123(2)
C13B C 0.2998(4) 0.0154(2) 0.1077(3)
C14B C 0.3615(4) -0.0693(2) 0.1603(3)
C15B C 0.1641(4) -0.0517(2) 0.1552(3)
C16B C 0.4416(4) -0.1592(2) -0.0962(3)
C17B C 0.5289(4) -0.1678(2) -0.0349(3)
C18B C 0.4969(4) -0.1430(2) -0.1722(3)
C19B C 0.3817(4) -0.2114(2) -0.1088(4)
C20B C -0.1107(4) -0.1171(2) 0.0718(2)
C21B C -0.2115(4) -0.1182(2) 0.1088(2)
C22B C -0.2512(4) -0.1643(2) 0.1438(3)
C23B C -0.1907(4) -0.2103(2) 0.1453(3)
C24B C -0.0917(4) -0.2095(2) 0.1097(3)
C25B C -0.0518(4) -0.1646(2) 0.0723(2)
C26B C -0.2842(4) -0.0704(2) 0.1119(3)
C27B C -0.2339(5) -0.2591(2) 0.1840(3)
C28B C 0.0561(4) -0.1690(2) 0.0297(3)
H1B H 0.4032(3) -0.1106(2) 0.0401(2)
H2B H 0.2852(3) -0.1109(2) -0.1785(2)
H3B H 0.0883(3) -0.0148(2) -0.1476(2)
H4B H 0.1553(3) -0.0444(2) -0.2128(2)
H5B H 0.0742(4) -0.1286(2) -0.2722(2)
H6B H -0.0908(4) -0.1829(2) -0.2419(3)
H7B H -0.2640(4) -0.1253(2) -0.1112(3)
H8B H -0.1937(4) -0.1634(2) -0.0588(3)
H9B H -0.2352(4) -0.1824(2) -0.1411(3)
H10B H 0.3703(4) 0.0200(2) 0.0835(3)
H11B H 0.3012(4) 0.0300(2) 0.1597(3)
H12B H 0.2451(4) 0.0334(2) 0.0772(3)
H13B H 0.3474(4) -0.1067(2) 0.1643(3)
H14B H 0.3627(4) -0.0540(2) 0.2118(3)
H15B H 0.4310(4) -0.0638(2) 0.1353(3)
H16B H 0.1058(4) -0.0357(2) 0.1257(3)
H17B H 0.1682(4) -0.0354(2) 0.2060(3)
H18B H 0.1502(4) -0.0889(2) 0.1610(3)
H19B H 0.5793(4) -0.1946(2) -0.0523(3)
H20B H 0.4952(4) -0.1789(2) 0.0133(3)
H21B H 0.5677(4) -0.1352(2) -0.0265(3)
H22B H 0.5476(4) -0.1700(2) -0.1886(3)
H23B H 0.5357(4) -0.1104(2) -0.1636(3)
H24B H 0.4425(4) -0.1379(2) -0.2121(3)
H25B H 0.3259(4) -0.2070(2) -0.1479(4)
H26B H 0.3487(4) -0.2225(2) -0.0604(4)
H27B H 0.4332(4) -0.2378(2) -0.1260(4)
H28B H -0.3221(4) -0.1637(2) 0.1683(3)
H29B H -0.0472(4) -0.2409(2) 0.1107(3)
H30B H -0.2487(4) -0.0416(2) 0.0852(3)
H31B H -0.2970(4) -0.0607(2) 0.1656(3)
H32B H -0.3528(4) -0.0780(2) 0.0868(3)
H33B H -0.3051(5) -0.2519(2) 0.2054(3)
H34B H -0.1851(5) -0.2697(2) 0.2253(3)
H35B H -0.2394(5) -0.2872(2) 0.1461(3)
H36B H 0.0513(4) -0.1956(2) -0.0104(3)
H37B H 0.1120(4) -0.1787(2) 0.0667(3)
H38B H 0.0741(4) -0.1354(2) 0.0064(3)
Mg2 Mg -0.05125(11) 0.05416(5) 0.50259(8)
O2 O 0.0992(2) 0.02054(10) 0.5051(2)
N3 N 0.0289(3) 0.08567(12) 0.6722(2)
N4 N -0.1094(3) 0.13249(13) 0.6467(2)
C29 C 0.1883(3) 0.0495(2) 0.5247(2)
C30 C 0.2681(3) 0.0647(2) 0.4713(2)
C31 C 0.3496(3) 0.0990(2) 0.4969(2)
C32 C 0.3570(3) 0.1181(2) 0.5725(3)
C33 C 0.2806(3) 0.0997(2) 0.6249(2)
C34 C 0.1990(3) 0.0658(2) 0.6035(2)
C35 C 0.1182(3) 0.0485(2) 0.6635(2)
C36 C -0.0528(3) 0.0909(2) 0.6197(2)
C37 C 0.0238(4) 0.1240(2) 0.7294(2)
C38 C -0.0644(4) 0.1530(2) 0.7128(3)
C39 C -0.2090(4) 0.1526(2) 0.6116(3)
C40 C 0.2721(4) 0.0432(2) 0.3877(2)
C41 C 0.3000(4) -0.0152(2) 0.3919(3)
C42 C 0.1642(4) 0.0515(2) 0.3444(3)
C43 C 0.3618(4) 0.0695(2) 0.3395(3)
C44 C 0.4420(4) 0.1594(2) 0.5966(3)
C45 C 0.5288(4) 0.1677(2) 0.5351(3)
C46 C 0.4972(4) 0.1429(2) 0.6722(3)
C47 C 0.3810(4) 0.2114(2) 0.6084(4)
C48 C -0.1111(4) 0.1168(2) 0.4284(2)
C49 C -0.2114(4) 0.1182(2) 0.3912(2)
C50 C -0.2515(4) 0.1643(2) 0.3562(3)
C51 C -0.1906(4) 0.2101(2) 0.3547(3)
C52 C -0.0913(4) 0.2095(2) 0.3902(3)
C53 C -0.0517(4) 0.1646(2) 0.4275(3)
C54 C -0.2847(4) 0.0704(2) 0.3882(3)
C55 C -0.2334(5) 0.2593(2) 0.3157(4)
C56 C 0.0565(4) 0.1691(2) 0.4701(3)
H39 H 0.4039(3) 0.1103(2) 0.4597(2)
H40 H 0.2843(3) 0.1112(2) 0.6785(2)
H41 H 0.1547(3) 0.0443(2) 0.7130(2)
H42 H 0.0881(3) 0.0150(2) 0.6474(2)
H43 H 0.0743(4) 0.1290(2) 0.7719(2)
H44 H -0.0918(4) 0.1825(2) 0.7424(3)
H45 H -0.2349(4) 0.1827(2) 0.6406(3)
H46 H -0.1941(4) 0.1629(2) 0.5585(3)
H47 H -0.2639(4) 0.1253(2) 0.6121(3)
H48 H 0.2450(4) -0.0335(2) 0.4217(3)
H49 H 0.3030(4) -0.0297(2) 0.3399(3)
H50 H 0.3700(4) -0.0195(2) 0.4169(3)
H51 H 0.1507(4) 0.0888(2) 0.3385(3)
H52 H 0.1685(4) 0.0352(2) 0.2936(3)
H53 H 0.1055(4) 0.0357(2) 0.3737(3)
H54 H 0.4311(4) 0.0642(2) 0.3650(3)
H55 H 0.3639(4) 0.0537(2) 0.2882(3)
H56 H 0.3476(4) 0.1068(2) 0.3348(3)
H57 H 0.5683(4) 0.1352(2) 0.5271(3)
H58 H 0.4944(4) 0.1782(2) 0.4868(3)
H59 H 0.5787(4) 0.1950(2) 0.5516(3)
H60 H 0.4426(4) 0.1375(2) 0.7120(3)
H61 H 0.5361(4) 0.1104(2) 0.6633(3)
H62 H 0.5477(4) 0.1698(2) 0.6891(3)
H63 H 0.4320(4) 0.2386(2) 0.6234(4)
H64 H 0.3461(4) 0.2212(2) 0.5601(4)
H65 H 0.3265(4) 0.2074(2) 0.6486(4)
H66 H -0.3226(4) 0.1639(2) 0.3321(3)
H67 H -0.0469(4) 0.2409(2) 0.3894(3)
H68 H -0.3527(4) 0.0780(2) 0.4142(3)
H69 H -0.2988(4) 0.0611(2) 0.3345(3)
H70 H -0.2489(4) 0.0414(2) 0.4141(3)
H71 H -0.2387(5) 0.2875(2) 0.3534(4)
H72 H -0.1844(5) 0.2696(2) 0.2743(4)
H73 H -0.3046(5) 0.2522(2) 0.2943(4)
H74 H 0.0753(4) 0.1357(2) 0.4934(3)
H75 H 0.1122(4) 0.1791(2) 0.4331(3)
H76 H 0.0510(4) 0.1957(2) 0.5102(3)
Mg2B Mg 0.05125(11) -0.05416(5) 0.49741(8)
O2B O -0.0992(2) -0.02054(10) 0.4949(2)
N3B N -0.0289(3) -0.08567(12) 0.3278(2)
N4B N 0.1094(3) -0.13249(13) 0.3533(2)
C29B C -0.1883(3) -0.0495(2) 0.4753(2)
C30B C -0.2681(3) -0.0647(2) 0.5287(2)
C31B C -0.3496(3) -0.0990(2) 0.5031(2)
C32B C -0.3570(3) -0.1181(2) 0.4275(3)
C33B C -0.2806(3) -0.0997(2) 0.3751(2)
C34B C -0.1990(3) -0.0658(2) 0.3965(2)
C35B C -0.1182(3) -0.0485(2) 0.3365(2)
C36B C 0.0528(3) -0.0909(2) 0.3803(2)
C37B C -0.0238(4) -0.1240(2) 0.2706(2)
C38B C 0.0644(4) -0.1530(2) 0.2872(3)
C39B C 0.2090(4) -0.1526(2) 0.3884(3)
C40B C -0.2721(4) -0.0432(2) 0.6123(2)
C41B C -0.3000(4) 0.0152(2) 0.6081(3)
C42B C -0.1642(4) -0.0515(2) 0.6556(3)
C43B C -0.3618(4) -0.0695(2) 0.6605(3)
C44B C -0.4420(4) -0.1594(2) 0.4034(3)
C45B C -0.5288(4) -0.1677(2) 0.4649(3)
C46B C -0.4972(4) -0.1429(2) 0.3278(3)
C47B C -0.3810(4) -0.2114(2) 0.3916(4)
C48B C 0.1111(4) -0.1168(2) 0.5716(2)
C49B C 0.2114(4) -0.1182(2) 0.6088(2)
C50B C 0.2515(4) -0.1643(2) 0.6438(3)
C51B C 0.1906(4) -0.2101(2) 0.6453(3)
C52B C 0.0913(4) -0.2095(2) 0.6098(3)
C53B C 0.0517(4) -0.1646(2) 0.5725(3)
C54B C 0.2847(4) -0.0704(2) 0.6118(3)
C55B C 0.2334(5) -0.2593(2) 0.6843(4)
C56B C -0.0565(4) -0.1691(2) 0.5299(3)
H39B H -0.4039(3) -0.1103(2) 0.5403(2)
H40B H -0.2843(3) -0.1112(2) 0.3215(2)
H41B H -0.1547(3) -0.0443(2) 0.2870(2)
H42B H -0.0881(3) -0.0150(2) 0.3526(2)
H43B H -0.0743(4) -0.1290(2) 0.2281(2)
H44B H 0.0918(4) -0.1825(2) 0.2576(3)
H45B H 0.2349(4) -0.1827(2) 0.3594(3)
H46B H 0.1941(4) -0.1629(2) 0.4415(3)
H47B H 0.2639(4) -0.1253(2) 0.3879(3)
H48B H -0.2450(4) 0.0335(2) 0.5783(3)
H49B H -0.3030(4) 0.0297(2) 0.6601(3)
H50B H -0.3700(4) 0.0195(2) 0.5831(3)
H51B H -0.1507(4) -0.0888(2) 0.6615(3)
H52B H -0.1685(4) -0.0352(2) 0.7064(3)
H53B H -0.1055(4) -0.0357(2) 0.6263(3)
H54B H -0.4311(4) -0.0642(2) 0.6350(3)
H55B H -0.3639(4) -0.0537(2) 0.7118(3)
H56B H -0.3476(4) -0.1068(2) 0.6652(3)
H57B H -0.5683(4) -0.1352(2) 0.4729(3)
H58B H -0.4944(4) -0.1782(2) 0.5132(3)
H59B H -0.5787(4) -0.1950(2) 0.4484(3)
H60B H -0.4426(4) -0.1375(2) 0.2880(3)
H61B H -0.5361(4) -0.1104(2) 0.3367(3)
H62B H -0.5477(4) -0.1698(2) 0.3109(3)
H63B H -0.4320(4) -0.2386(2) 0.3766(4)
H64B H -0.3461(4) -0.2212(2) 0.4399(4)
H65B H -0.3265(4) -0.2074(2) 0.3514(4)
H66B H 0.3226(4) -0.1639(2) 0.6679(3)
H67B H 0.0469(4) -0.2409(2) 0.6106(3)
H68B H 0.3527(4) -0.0780(2) 0.5858(3)
H69B H 0.2988(4) -0.0611(2) 0.6655(3)
H70B H 0.2489(4) -0.0414(2) 0.5859(3)
H71B H 0.2387(5) -0.2875(2) 0.6466(4)
H72B H 0.1844(5) -0.2696(2) 0.7257(4)
H73B H 0.3046(5) -0.2522(2) 0.7057(4)
H74B H -0.0753(4) -0.1357(2) 0.5066(3)
H75B H -0.1122(4) -0.1791(2) 0.5669(3)
H76B H -0.0510(4) -0.1957(2) 0.4898(3)
loop_
_geom_bond_atom_site_label_1
_geom_bond_atom_site_label_2
_geom_bond_site_symmetry_1
_geom_bond_site_symmetry_2
Mg1 O1 1_555 1_555
Mg2 O2 1_555 1_555
O1 C1 1_555 1_555
O2 C29 1_555 1_555
N1 C7 1_555 1_555
N2 C8 1_555 1_555
N3 C35 1_555 1_555
N4 C36 1_555 1_555
C1 C2 1_555 1_555
C2 C3 1_555 1_555
C3 C4 1_555 1_555
C4 C5 1_555 1_555
C5 C6 1_555 1_555
C6 C1 1_555 1_555
C7 C6 1_555 1_555
C8 Mg1 1_555 1_555
C9 N1 1_555 1_555
C10 N2 1_555 1_555
C11 N2 1_555 1_555
C12 C2 1_555 1_555
C13 C12 1_555 1_555
C14 C12 1_555 1_555
C15 C12 1_555 1_555
C16 C4 1_555 1_555
C17 C16 1_555 1_555
C18 C16 1_555 1_555
C19 C16 1_555 1_555
C20 Mg1 1_555 1_555
C21 C20 1_555 1_555
C22 C21 1_555 1_555
C23 C22 1_555 1_555
C24 C23 1_555 1_555
C25 C20 1_555 1_555
C26 C21 1_555 1_555
C27 C23 1_555 1_555
C28 C25 1_555 1_555
C29 C30 1_555 1_555
C30 C31 1_555 1_555
C31 C32 1_555 1_555
C32 C33 1_555 1_555
C33 C34 1_555 1_555
C34 C29 1_555 1_555
C35 C34 1_555 1_555
C36 Mg2 1_555 1_555
C37 N3 1_555 1_555
C38 N4 1_555 1_555
C39 N4 1_555 1_555
C40 C30 1_555 1_555
C41 C40 1_555 1_555
C42 C40 1_555 1_555
C43 C40 1_555 1_555
C44 C32 1_555 1_555
C45 C44 1_555 1_555
C46 C44 1_555 1_555
C47 C44 1_555 1_555
C48 Mg2 1_555 1_555
C49 C48 1_555 1_555
C50 C49 1_555 1_555
C51 C50 1_555 1_555
C52 C51 1_555 1_555
C53 C48 1_555 1_555
C54 C49 1_555 1_555
C55 C51 1_555 1_555
C56 C53 1_555 1_555
H1 C3 1_555 1_555
H2 C5 1_555 1_555
H3 C7 1_555 1_555
H4 C7 1_555 1_555
H5 C9 1_555 1_555
H6 C10 1_555 1_555
H7 C11 1_555 1_555
H8 C11 1_555 1_555
H9 C11 1_555 1_555
H10 C13 1_555 1_555
H11 C13 1_555 1_555
H12 C13 1_555 1_555
H13 C14 1_555 1_555
H14 C14 1_555 1_555
H15 C14 1_555 1_555
H16 C15 1_555 1_555
H17 C15 1_555 1_555
H18 C15 1_555 1_555
H19 C17 1_555 1_555
H20 C17 1_555 1_555
H21 C17 1_555 1_555
H22 C18 1_555 1_555
H23 C18 1_555 1_555
H24 C18 1_555 1_555
H25 C19 1_555 1_555
H26 C19 1_555 1_555
H27 C19 1_555 1_555
H28 C22 1_555 1_555
H29 C24 1_555 1_555
H30 C26 1_555 1_555
H31 C26 1_555 1_555
H32 C26 1_555 1_555
H33 C27 1_555 1_555
H34 C27 1_555 1_555
H35 C27 1_555 1_555
H36 C28 1_555 1_555
H37 C28 1_555 1_555
H38 C28 1_555 1_555
H39 C31 1_555 1_555
H40 C33 1_555 1_555
H41 C35 1_555 1_555
H42 C35 1_555 1_555
H43 C37 1_555 1_555
H44 C38 1_555 1_555
H45 C39 1_555 1_555
H46 C39 1_555 1_555
H47 C39 1_555 1_555
H48 C41 1_555 1_555
H49 C41 1_555 1_555
H50 C41 1_555 1_555
H51 C42 1_555 1_555
H52 C42 1_555 1_555
H53 C42 1_555 1_555
H54 C43 1_555 1_555
H55 C43 1_555 1_555
H56 C43 1_555 1_555
H57 C45 1_555 1_555
H58 C45 1_555 1_555
H59 C45 1_555 1_555
H60 C46 1_555 1_555
H61 C46 1_555 1_555
H62 C46 1_555 1_555
H63 C47 1_555 1_555
H64 C47 1_555 1_555
H65 C47 1_555 1_555
H66 C50 1_555 1_555
H67 C52 1_555 1_555
H68 C54 1_555 1_555
H69 C54 1_555 1_555
H70 C54 1_555 1_555
H71 C55 1_555 1_555
H72 C55 1_555 1_555
H73 C55 1_555 1_555
H74 C56 1_555 1_555
H75 C56 1_555 1_555
H76 C56 1_555 1_555
Mg1B O1 1_555 1_555
Mg2B O2 1_555 1_555
O1B Mg1 1_555 1_555
O2B Mg2 1_555 1_555
N1B C7B 1_555 1_555
N2B C8B 1_555 1_555
N3B C35B 1_555 1_555
N4B C36B 1_555 1_555
C1B O1B 1_555 1_555
C2B C1B 1_555 1_555
C3B C2B 1_555 1_555
C4B C3B 1_555 1_555
C5B C4B 1_555 1_555
C6B C1B 1_555 1_555
C7B C6B 1_555 1_555
C8B Mg1B 1_555 1_555
C9B N1B 1_555 1_555
C10B N2B 1_555 1_555
C11B N2B 1_555 1_555
C12B C2B 1_555 1_555
C13B C12B 1_555 1_555
C14B C12B 1_555 1_555
C15B C12B 1_555 1_555
C16B C4B 1_555 1_555
C17B C16B 1_555 1_555
C18B C16B 1_555 1_555
C19B C16B 1_555 1_555
C20B Mg1B 1_555 1_555
C21B C20B 1_555 1_555
C22B C21B 1_555 1_555
C23B C22B 1_555 1_555
C24B C23B 1_555 1_555
C25B C20B 1_555 1_555
C26B C21B 1_555 1_555
C27B C23B 1_555 1_555
C28B C25B 1_555 1_555
C29B O2B 1_555 1_555
C30B C29B 1_555 1_555
C31B C30B 1_555 1_555
C32B C31B 1_555 1_555
C33B C32B 1_555 1_555
C34B C29B 1_555 1_555
C35B C34B 1_555 1_555
C36B Mg2B 1_555 1_555
C37B N3B 1_555 1_555
C38B N4B 1_555 1_555
C39B N4B 1_555 1_555
C40B C30B 1_555 1_555
C41B C40B 1_555 1_555
C42B C40B 1_555 1_555
C43B C40B 1_555 1_555
C44B C32B 1_555 1_555
C45B C44B 1_555 1_555
C46B C44B 1_555 1_555
C47B C44B 1_555 1_555
C48B Mg2B 1_555 1_555
C49B C48B 1_555 1_555
C50B C49B 1_555 1_555
C51B C50B 1_555 1_555
C52B C51B 1_555 1_555
C53B C48B 1_555 1_555
C54B C49B 1_555 1_555
C55B C51B 1_555 1_555
C56B C53B 1_555 1_555
H1B C3B 1_555 1_555
H2B C5B 1_555 1_555
H3B C7B 1_555 1_555
H4B C7B 1_555 1_555
H5B C9B 1_555 1_555
H6B C10B 1_555 1_555
H7B C11B 1_555 1_555
H8B C11B 1_555 1_555
H9B C11B 1_555 1_555
H10B C13B 1_555 1_555
H11B C13B 1_555 1_555
H12B C13B 1_555 1_555
H13B C14B 1_555 1_555
H14B C14B 1_555 1_555
H15B C14B 1_555 1_555
H16B C15B 1_555 1_555
H17B C15B 1_555 1_555
H18B C15B 1_555 1_555
H19B C17B 1_555 1_555
H20B C17B 1_555 1_555
H21B C17B 1_555 1_555
H22B C18B 1_555 1_555
H23B C18B 1_555 1_555
H24B C18B 1_555 1_555
H25B C19B 1_555 1_555
H26B C19B 1_555 1_555
H27B C19B 1_555 1_555
H28B C22B 1_555 1_555
H29B C24B 1_555 1_555
H30B C26B 1_555 1_555
H31B C26B 1_555 1_555
H32B C26B 1_555 1_555
H33B C27B 1_555 1_555
H34B C27B 1_555 1_555
H35B C27B 1_555 1_555
H36B C28B 1_555 1_555
H37B C28B 1_555 1_555
H38B C28B 1_555 1_555
H39B C31B 1_555 1_555
H40B C33B 1_555 1_555
H41B C35B 1_555 1_555
H42B C35B 1_555 1_555
H43B C37B 1_555 1_555
H44B C38B 1_555 1_555
H45B C39B 1_555 1_555
H46B C39B 1_555 1_555
H47B C39B 1_555 1_555
H48B C41B 1_555 1_555
H49B C41B 1_555 1_555
H50B C41B 1_555 1_555
H51B C42B 1_555 1_555
H52B C42B 1_555 1_555
H53B C42B 1_555 1_555
H54B C43B 1_555 1_555
H55B C43B 1_555 1_555
H56B C43B 1_555 1_555
H57B C45B 1_555 1_555
H58B C45B 1_555 1_555
H59B C45B 1_555 1_555
H60B C46B 1_555 1_555
H61B C46B 1_555 1_555
H62B C46B 1_555 1_555
H63B C47B 1_555 1_555
H64B C47B 1_555 1_555
H65B C47B 1_555 1_555
H66B C50B 1_555 1_555
H67B C52B 1_555 1_555
H68B C54B 1_555 1_555
H69B C54B 1_555 1_555
H70B C54B 1_555 1_555
H71B C55B 1_555 1_555
H72B C55B 1_555 1_555
H73B C55B 1_555 1_555
H74B C56B 1_555 1_555
H75B C56B 1_555 1_555
H76B C56B 1_555 1_555
N1 C8 1_555 1_555
N3 C36 1_555 1_555
C9 C10 1_555 1_555
C24 C25 1_555 1_555
C37 C38 1_555 1_555
C52 C53 1_555 1_555
Mg1B O1B 1_555 1_555
Mg2B O2B 1_555 1_555
N1B C8B 1_555 1_555
N3B C36B 1_555 1_555
C5B C6B 1_555 1_555
C9B C10B 1_555 1_555
C24B C25B 1_555 1_555
C33B C34B 1_555 1_555
C37B C38B 1_555 1_555
C52B C53B 1_555 1_555

#END
