
#######################################################################
#
#                 Cambridge Crystallographic Data Centre
#                                CCDC 
#
#######################################################################
#
# If this CIF has been generated from an entry in the Cambridge 
# Structural Database, then it will include bibliographic, chemical, 
# crystal, experimental, refinement or atomic coordinate data resulting 
# from the CCDC's data processing and validation procedures.
#
#######################################################################

data_CESGUF
_chemical_formula_moiety         'C29 H18 B1 F1 N4'
_chemical_name_systematic        
(cyano)(fluoro)[3-phenyl-N-(3-phenyl-2H-isoindol-1-yl)-1H-isoindol-1-iminato]boron
_symmetry_cell_setting           monoclinic
_symmetry_space_group_name_H-M   'P 21/n'
_symmetry_Int_Tables_number      14
_space_group_name_Hall           '-P 2yn'
loop_
_symmetry_equiv_pos_site_id
_symmetry_equiv_pos_as_xyz
1 x,y,z
2 1/2-x,1/2+y,1/2-z
3 -x,-y,-z
4 1/2+x,1/2-y,1/2+z
_cell_length_a                   10.5710(4)
_cell_length_b                   12.6280(4)
_cell_length_c                   17.0460(6)
_cell_angle_alpha                90
_cell_angle_beta                 105.919(2)
_cell_angle_gamma                90
_cell_volume                     2188.22
_exptl_crystal_colour            violet
_exptl_crystal_description       block
_cell_formula_units_Z            4
loop_
_atom_site_label
_atom_site_type_symbol
_atom_site_fract_x
_atom_site_fract_y
_atom_site_fract_z
F1 F 0.39559(7) 0.40405(6) 0.52718(4)
N1 N 0.31521(14) 0.41065(10) 0.71486(9)
N2 N 0.50341(10) 0.25870(8) 0.60952(6)
N3 N 0.73398(10) 0.29613(8) 0.63253(6)
N4 N 0.58953(10) 0.44206(8) 0.63431(6)
C1 C 0.37259(13) 0.39661(10) 0.66832(8)
C2 C 0.63440(11) 0.22947(9) 0.61937(7)
C3 C 0.64023(12) 0.11688(9) 0.61644(7)
C4 C 0.74372(13) 0.04666(10) 0.62148(8)
H1 H 0.8313 0.0716 0.6301
C5 C 0.71563(14) -0.05970(10) 0.61363(8)
H2 H 0.7849 -0.1089 0.6170
C6 C 0.58636(14) -0.09705(10) 0.60072(9)
H3 H 0.5698 -0.1710 0.5948
C7 C 0.48380(13) -0.02906(10) 0.59650(8)
H4 H 0.3966 -0.0548 0.5876
C8 C 0.51113(12) 0.07974(9) 0.60567(7)
C9 C 0.42815(12) 0.17008(9) 0.60112(7)
C10 C 0.28524(12) 0.16684(10) 0.58517(7)
C11 C 0.22909(13) 0.08972(11) 0.62394(8)
H5 H 0.2840 0.0447 0.6637
C12 C 0.09415(14) 0.07873(13) 0.60468(10)
H6 H 0.0564 0.0263 0.6313
C13 C 0.01390(14) 0.14365(15) 0.54686(10)
H7 H -0.0789 0.1350 0.5330
C14 C 0.06838(14) 0.22105(13) 0.50912(9)
H8 H 0.0128 0.2664 0.4701
C15 C 0.20306(12) 0.23287(11) 0.52778(8)
H9 H 0.2399 0.2862 0.5014
C16 C 0.71280(11) 0.39829(10) 0.63954(7)
C17 C 0.80748(12) 0.48139(10) 0.65776(7)
C18 C 0.94172(13) 0.48456(11) 0.66374(8)
H10 H 0.9881 0.4224 0.6568
C19 C 1.00487(13) 0.58075(12) 0.68008(9)
H11 H 1.0961 0.5848 0.6840
C20 C 0.93778(14) 0.67263(11) 0.69107(8)
H12 H 0.9848 0.7374 0.7032
C21 C 0.80499(13) 0.67119(10) 0.68468(8)
H13 H 0.7597 0.7338 0.6919
C22 C 0.73920(12) 0.57415(9) 0.66716(7)
C23 C 0.60320(12) 0.54721(9) 0.65073(7)
C24 C 0.49310(12) 0.61899(9) 0.64756(7)
C25 C 0.49433(13) 0.68304(10) 0.71423(8)
H14 H 0.5678 0.6817 0.7611
C26 C 0.38860(15) 0.74875(11) 0.71233(9)
H15 H 0.3882 0.7898 0.7590
C27 C 0.28400(14) 0.75508(11) 0.64333(9)
H16 H 0.2119 0.8005 0.6422
C28 C 0.28472(13) 0.69498(11) 0.57586(9)
H17 H 0.2140 0.7007 0.5276
C29 C 0.38759(13) 0.62650(10) 0.57794(8)
H18 H 0.3862 0.5843 0.5316
B1 B 0.46099(13) 0.37668(10) 0.60649(8)
loop_
_geom_bond_atom_site_label_1
_geom_bond_atom_site_label_2
_geom_bond_site_symmetry_1
_geom_bond_site_symmetry_2
F1 B1 1_555 1_555
N1 C1 1_555 1_555
N2 C2 1_555 1_555
N3 C2 1_555 1_555
N4 C16 1_555 1_555
C1 B1 1_555 1_555
C2 C3 1_555 1_555
C3 C4 1_555 1_555
C4 H1 1_555 1_555
C5 C4 1_555 1_555
H2 C5 1_555 1_555
C6 C5 1_555 1_555
H3 C6 1_555 1_555
C7 C6 1_555 1_555
H4 C7 1_555 1_555
C8 C3 1_555 1_555
C9 N2 1_555 1_555
C10 C9 1_555 1_555
C11 C10 1_555 1_555
H5 C11 1_555 1_555
C12 C11 1_555 1_555
H6 C12 1_555 1_555
C13 C12 1_555 1_555
H7 C13 1_555 1_555
C14 C13 1_555 1_555
H8 C14 1_555 1_555
C15 C10 1_555 1_555
H9 C15 1_555 1_555
C16 N3 1_555 1_555
C17 C16 1_555 1_555
C18 C17 1_555 1_555
H10 C18 1_555 1_555
C19 C18 1_555 1_555
H11 C19 1_555 1_555
C20 C19 1_555 1_555
H12 C20 1_555 1_555
C21 C20 1_555 1_555
H13 C21 1_555 1_555
C22 C17 1_555 1_555
C23 N4 1_555 1_555
C24 C23 1_555 1_555
C25 C24 1_555 1_555
H14 C25 1_555 1_555
C26 C25 1_555 1_555
H15 C26 1_555 1_555
C27 C26 1_555 1_555
H16 C27 1_555 1_555
C28 C27 1_555 1_555
H17 C28 1_555 1_555
C29 C24 1_555 1_555
H18 C29 1_555 1_555
B1 N2 1_555 1_555
N4 B1 1_555 1_555
C7 C8 1_555 1_555
C8 C9 1_555 1_555
C14 C15 1_555 1_555
C21 C22 1_555 1_555
C22 C23 1_555 1_555
C28 C29 1_555 1_555

#END
