
#######################################################################
#
#                 Cambridge Crystallographic Data Centre
#                                CCDC 
#
#######################################################################
#
# If this CIF has been generated from an entry in the Cambridge 
# Structural Database, then it will include bibliographic, chemical, 
# crystal, experimental, refinement or atomic coordinate data resulting 
# from the CCDC's data processing and validation procedures.
#
#######################################################################

data_CESHEN
_chemical_compound_source        'Podocarpus milanjianus Rendle'
_chemical_formula_moiety         'C20 H24 O8 S1'
_chemical_name_systematic        'Podolactone C'
_chemical_properties_biological  'antitumour activity'
_symmetry_cell_setting           orthorhombic
_symmetry_space_group_name_H-M   'P 21 21 21'
_symmetry_Int_Tables_number      19
_space_group_name_Hall           'P 2ac 2ab'
loop_
_symmetry_equiv_pos_site_id
_symmetry_equiv_pos_as_xyz
1 x,y,z
2 1/2+x,1/2-y,-z
3 -x,1/2+y,1/2-z
4 1/2-x,-y,1/2+z
_cell_length_a                   7.597(3)
_cell_length_b                   11.794(4)
_cell_length_c                   22.330(14)
_cell_angle_alpha                90
_cell_angle_beta                 90
_cell_angle_gamma                90
_cell_volume                     2000.75
_chemical_melting_point          290-2deg.C
_cell_formula_units_Z            4
loop_
_atom_site_label
_atom_site_type_symbol
_atom_site_fract_x
_atom_site_fract_y
_atom_site_fract_z
O1 O 1.30170 0.52250 0.42650
C1 C 1.22220 0.52930 0.53080
O2 O 1.05290 0.58360 0.53450
O3 O 1.31400 0.50950 0.77520
C2 C 1.43070 0.62050 0.60560
C3 C 1.38170 0.60480 0.54140
C4 C 1.29500 0.67330 0.70770
O4 O 1.15960 0.49580 0.68860
C5 C 1.25660 0.45280 0.47850
O5 O 1.62730 0.65640 0.71970
C6 C 1.46820 0.63880 0.49430
O6 O 1.47030 0.65540 0.38900
C7 C 1.12320 0.56980 0.63920
C8 C 1.50780 0.50360 0.62390
C9 C 1.26510 0.55160 0.73000
C10 C 1.10500 0.50700 0.58090
C11 C 1.41900 0.60780 0.43390
C12 C 1.60950 0.74900 0.67580
C13 C 1.57490 0.71210 0.61310
C14 C 1.26330 0.65840 0.64030
C15 C 1.47500 0.72380 0.72590
C16 C 1.14240 0.74810 0.73560
S1 S 0.77920 0.35610 0.40380
O7 O 1.02670 0.31570 0.50020
O8 O 0.65070 0.37520 0.45380
C17 C 1.19380 0.29010 0.40870
C18 C 0.96790 0.44320 0.42050
C19 C 0.69490 0.43600 0.34250
C20 C 1.10990 0.37310 0.45300
loop_
_geom_bond_atom_site_label_1
_geom_bond_atom_site_label_2
_geom_bond_site_symmetry_1
_geom_bond_site_symmetry_2
O1 C5 1_555 1_555
C1 O2 1_555 1_555
O2 C10 1_555 1_555
O3 C9 1_555 1_555
C2 C3 1_555 1_555
C3 C1 1_555 1_555
C4 C9 1_555 1_555
O4 C7 1_555 1_555
C5 C1 1_555 1_555
O5 C12 1_555 1_555
C6 C3 1_555 1_555
O6 C11 1_555 1_555
C7 C10 1_555 1_555
C8 C2 1_555 1_555
C9 O4 1_555 1_555
C10 C1 1_555 1_555
C11 O1 1_555 1_555
C12 C13 1_555 1_555
C13 C2 1_555 1_555
C14 C2 1_555 1_555
C15 C4 1_555 1_555
C16 C4 1_555 1_555
S1 O8 1_555 1_555
O7 C20 1_555 1_555
C17 C20 1_555 1_555
C18 S1 1_555 1_555
C19 S1 1_555 1_555
C20 C5 1_555 1_555
C4 C14 1_555 1_555
O5 C15 1_555 1_555
C6 C11 1_555 1_555
C7 C14 1_555 1_555
C12 C15 1_555 1_555
C18 C20 1_555 1_555

#END
