
#######################################################################
#
#                 Cambridge Crystallographic Data Centre
#                                CCDC 
#
#######################################################################
#
# If this CIF has been generated from an entry in the Cambridge 
# Structural Database, then it will include bibliographic, chemical, 
# crystal, experimental, refinement or atomic coordinate data resulting 
# from the CCDC's data processing and validation procedures.
#
#######################################################################

data_CESTEC
_chemical_formula_moiety         'C4 N9 O6 1-,1.5(C4 H8 O2),C1 H6 N3 1+'
_chemical_name_systematic        
'guanidinium 1,3-bis(3-nitro-1,2,4-oxadiazol-5-yl)triaz-2-en-1-ide 1,4-dioxane solvate'
_symmetry_cell_setting           triclinic
_symmetry_space_group_name_H-M   'P -1'
_symmetry_Int_Tables_number      2
_space_group_name_Hall           '-P 1'
loop_
_symmetry_equiv_pos_site_id
_symmetry_equiv_pos_as_xyz
1 x,y,z
2 -x,-y,-z
_cell_length_a                   8.9077(8)
_cell_length_b                   11.0719(10)
_cell_length_c                   11.9040(10)
_cell_angle_alpha                105.744(3)
_cell_angle_beta                 95.441(3)
_cell_angle_gamma                109.541(3)
_cell_volume                     1042.38
_exptl_crystal_colour            colorless
_exptl_crystal_description       block
_cell_formula_units_Z            2
loop_
_atom_site_label
_atom_site_type_symbol
_atom_site_fract_x
_atom_site_fract_y
_atom_site_fract_z
C1 C 0.7304(2) 0.6721(2) 0.74597(17)
C2 C 0.5102(2) 0.52250(19) 0.65901(16)
C3 C 0.3131(2) 0.10463(19) 0.41516(16)
C4 C 0.3949(2) -0.04321(19) 0.33587(17)
N1 N 0.9069(2) 0.7448(2) 0.78590(18)
N2 N 0.6345(2) 0.73593(19) 0.77505(17)
N3 N 0.66529(18) 0.54195(16) 0.67540(13)
N4 N 0.37302(18) 0.41531(17) 0.59432(14)
N5 N 0.40796(17) 0.31369(16) 0.53717(13)
N6 N 0.27598(17) 0.21056(17) 0.47444(14)
N7 N 0.45056(17) 0.08575(15) 0.40903(13)
N8 N 0.2402(2) -0.10719(19) 0.29620(18)
N9 N 0.5056(2) -0.11333(18) 0.30375(15)
O1 O 0.9544(3) 0.86376(19) 0.8444(2)
O2 O 0.9919(2) 0.6808(2) 0.75584(18)
O3 O 0.48248(18) 0.63384(15) 0.71605(14)
O4 O 0.18242(16) -0.00568(15) 0.34955(14)
O5 O 0.65043(19) -0.04650(17) 0.33758(15)
O6 O 0.4450(2) -0.23306(17) 0.24810(18)
C5 C 0.9141(2) 0.3215(2) 0.53891(19)
N10 N 1.0384(2) 0.4274(2) 0.60904(19)
H1 H 1.0233 0.4978 0.6500
H2 H 1.1349 0.4264 0.6140
N11 N 0.9382(2) 0.2145(2) 0.47514(18)
H3 H 1.0351 0.2143 0.4796
H4 H 0.8571 0.1449 0.4291
N12 N 0.76611(19) 0.3224(2) 0.53091(18)
H5 H 0.7505 0.3926 0.5718
H6 H 0.6850 0.2528 0.4849
C6 C 0.2419(6) 0.4867(3) 1.0444(3)
H7 H 0.3511 0.5033 1.0829
H8 H 0.1998 0.5430 1.0995
C7 C 0.2509(6) 0.5275(3) 0.9401(3)
H9 H 0.1464 0.5290 0.9108
H10 H 0.3310 0.6190 0.9620
C8 C 0.1906(5) 0.3066(3) 0.8222(3)
H11 H 0.2293 0.2498 0.7646
H12 H 0.0813 0.2932 0.7866
C9 C 0.1856(6) 0.2655(3) 0.9272(3)
H13 H 0.1056 0.1741 0.9063
H14 H 0.2908 0.2639 0.9546
O7 O 0.2925(3) 0.4433(2) 0.84777(19)
O8 O 0.1459(3) 0.3527(2) 1.02297(17)
C10 C 0.3445(3) 0.9448(3) 1.0186(2)
H15 H 0.3119 1.0220 1.0387
H16 H 0.2543 0.8660 1.0191
C11 C 0.3829(3) 0.9221(4) 0.8993(3)
H17 H 0.4049 0.8397 0.8764
H18 H 0.2894 0.9102 0.8424
O9 O 0.4810(2) 0.9687(2) 1.10472(17)
C10A C 0.6555(3) 1.0552(3) 0.9814(2)
H15A H 0.6881 0.9780 0.9613
H16A H 0.7457 1.1340 0.9809
C11A C 0.6171(3) 1.0779(4) 1.1007(3)
H17A H 0.5951 1.1603 1.1236
H18A H 0.7106 1.0898 1.1576
O9A O 0.5190(2) 1.0313(2) 0.89528(17)
loop_
_geom_bond_atom_site_label_1
_geom_bond_atom_site_label_2
_geom_bond_site_symmetry_1
_geom_bond_site_symmetry_2
C1 N1 1_555 1_555
C2 N3 1_555 1_555
C3 N6 1_555 1_555
C4 N7 1_555 1_555
N1 O1 1_555 1_555
N2 C1 1_555 1_555
N3 C1 1_555 1_555
N4 C2 1_555 1_555
N5 N4 1_555 1_555
N6 N5 1_555 1_555
N7 C3 1_555 1_555
N8 C4 1_555 1_555
N9 C4 1_555 1_555
O2 N1 1_555 1_555
O3 C2 1_555 1_555
O4 C3 1_555 1_555
O5 N9 1_555 1_555
O6 N9 1_555 1_555
C5 N10 1_555 1_555
N10 H1 1_555 1_555
H2 N10 1_555 1_555
N11 C5 1_555 1_555
H3 N11 1_555 1_555
H4 N11 1_555 1_555
N12 C5 1_555 1_555
H5 N12 1_555 1_555
H6 N12 1_555 1_555
C6 H7 1_555 1_555
H8 C6 1_555 1_555
C7 C6 1_555 1_555
H9 C7 1_555 1_555
H10 C7 1_555 1_555
C8 H11 1_555 1_555
H12 C8 1_555 1_555
C9 C8 1_555 1_555
H13 C9 1_555 1_555
H14 C9 1_555 1_555
O7 C7 1_555 1_555
O8 C6 1_555 1_555
C10 H15 1_555 1_555
H16 C10 1_555 1_555
C11 C10 1_555 1_555
H17 C11 1_555 1_555
H18 C11 1_555 1_555
O9 C10 1_555 1_555
C10A H15A 1_555 1_555
H16A C10A 1_555 1_555
C11A O9 1_555 1_555
H17A C11A 1_555 1_555
H18A C11A 1_555 1_555
O9A C11 1_555 1_555
N2 O3 1_555 1_555
N8 O4 1_555 1_555
C8 O7 1_555 1_555
C9 O8 1_555 1_555
C10A C11A 1_555 1_555
C10A O9A 1_555 1_555

#END
