
#######################################################################
#
#                 Cambridge Crystallographic Data Centre
#                                CCDC 
#
#######################################################################
#
# If this CIF has been generated from an entry in the Cambridge 
# Structural Database, then it will include bibliographic, chemical, 
# crystal, experimental, refinement or atomic coordinate data resulting 
# from the CCDC's data processing and validation procedures.
#
#######################################################################

data_CESVOO
_chemical_formula_moiety         'C26 H30 N8 O4,2(C6 H10 O1)'
_chemical_name_systematic        
"N,N'-[1,3-phenylenebis(propane-2,2-diyl)]bis[2-(pyridine-4-carbonyl)hydrazine-1-carboxamide] cyclohexanone solvate"
_symmetry_cell_setting           monoclinic
_symmetry_space_group_name_H-M   'P 21/c'
_symmetry_Int_Tables_number      14
_space_group_name_Hall           '-P 2ybc'
loop_
_symmetry_equiv_pos_site_id
_symmetry_equiv_pos_as_xyz
1 x,y,z
2 -x,1/2+y,1/2-z
3 -x,-y,-z
4 x,1/2-y,1/2+z
_cell_length_a                   16.641(3)
_cell_length_b                   16.911(3)
_cell_length_c                   26.532(4)
_cell_angle_alpha                90
_cell_angle_beta                 92.145(5)
_cell_angle_gamma                90
_cell_volume                     7461.3
_exptl_crystal_colour            colorless
_exptl_crystal_description       irregular
_cell_formula_units_Z            8
loop_
_atom_site_label
_atom_site_type_symbol
_atom_site_fract_x
_atom_site_fract_y
_atom_site_fract_z
O1 O 0.2240(3) 0.3207(3) 0.4403(2)
O2 O 0.1041(3) 0.2912(3) 0.5530(2)
O3 O 0.4771(3) 0.3502(3) 0.54927(19)
O4 O 0.3531(3) 0.1708(3) 0.54840(19)
N1 N 0.0392(4) 0.3289(4) 0.2859(3)
N2 N 0.1313(4) 0.2297(4) 0.4604(2)
H1 H 0.084239 0.208155 0.453003
N3 N 0.1743(4) 0.2072(4) 0.5036(2)
H2 H 0.211891 0.170785 0.502180
N4 N 0.2048(3) 0.2150(3) 0.5882(2)
H3 H 0.232744 0.171554 0.583454
N5 N 0.3675(4) 0.3937(3) 0.5017(2)
H4 H 0.341938 0.385932 0.472525
N6 N 0.4217(3) 0.2723(4) 0.4863(2)
H5 H 0.373263 0.260742 0.476160
N7 N 0.4617(4) 0.2061(4) 0.5057(2)
H6 H 0.511761 0.196286 0.498041
N8 N 0.5430(4) -0.0491(4) 0.5958(2)
C1 C 0.1129(5) 0.3535(5) 0.2975(3)
H7 H 0.140224 0.382048 0.272519
C2 C 0.1528(5) 0.3411(5) 0.3428(3)
H8 H 0.205766 0.360981 0.348422
C3 C 0.1158(5) 0.2995(4) 0.3803(3)
C4 C 0.0376(5) 0.2721(5) 0.3694(3)
H9 H 0.009342 0.242921 0.393646
C5 C 0.0026(5) 0.2888(5) 0.3223(3)
H10 H -0.050725 0.270659 0.315412
C6 C 0.1614(5) 0.2845(5) 0.4297(3)
C7 C 0.1575(5) 0.2425(5) 0.5492(3)
C8 C 0.2122(4) 0.2538(5) 0.6383(3)
C9 C 0.1325(5) 0.2491(5) 0.6649(3)
H11 H 0.091981 0.280863 0.646401
H12 H 0.139808 0.269439 0.699356
H13 H 0.114681 0.193908 0.666016
C10 C 0.2766(5) 0.2086(5) 0.6677(3)
H14 H 0.260340 0.153196 0.670637
H15 H 0.284121 0.231721 0.701380
H16 H 0.327202 0.211662 0.649993
C11 C 0.2409(4) 0.3403(5) 0.6317(3)
C12 C 0.2305(4) 0.3958(5) 0.6690(3)
H17 H 0.203059 0.381926 0.698518
C13 C 0.2601(5) 0.4719(5) 0.6634(3)
H18 H 0.253704 0.509701 0.689490
C14 C 0.2989(5) 0.4932(5) 0.6200(3)
H19 H 0.317412 0.545914 0.616018
C15 C 0.3105(4) 0.4380(5) 0.5827(3)
C16 C 0.2820(4) 0.3623(5) 0.5892(3)
H20 H 0.290619 0.323954 0.563819
C17 C 0.3450(4) 0.4637(5) 0.5315(3)
C18 C 0.2758(5) 0.5023(5) 0.5006(3)
H21 H 0.295771 0.521693 0.468612
H22 H 0.254194 0.546696 0.519645
H23 H 0.233225 0.463277 0.493885
C19 C 0.4150(4) 0.5212(5) 0.5377(3)
H24 H 0.458797 0.496221 0.557637
H25 H 0.397276 0.568967 0.554933
H26 H 0.434170 0.535391 0.504366
C20 C 0.4247(4) 0.3410(4) 0.5163(3)
C21 C 0.4222(4) 0.1574(5) 0.5364(3)
C22 C 0.4669(4) 0.0858(4) 0.5554(3)
C23 C 0.5441(4) 0.0650(5) 0.5413(3)
H27 H 0.572237 0.095940 0.517792
C24 C 0.5780(5) -0.0021(5) 0.5628(3)
H28 H 0.630636 -0.015998 0.553162
C25 C 0.4692(6) -0.0279(5) 0.6076(3)
H29 H 0.442055 -0.060098 0.630820
C26 C 0.4290(5) 0.0376(5) 0.5884(3)
H30 H 0.375830 0.048972 0.598072
O5 O 0.7329(3) 0.1768(3) 0.5597(2)
O6 O 0.5988(3) 0.2061(3) 0.4513(2)
O7 O 0.9668(3) 0.1508(3) 0.45603(19)
O8 O 0.8422(3) 0.3242(3) 0.4597(2)
N9 N 0.5774(5) 0.1762(5) 0.7183(3)
N10 N 0.6399(4) 0.2704(4) 0.5423(2)
H31 H 0.594519 0.292528 0.550874
N11 N 0.6755(4) 0.2933(4) 0.4985(2)
H32 H 0.712119 0.330838 0.499034
N12 N 0.6932(4) 0.2822(4) 0.4133(2)
H33 H 0.722487 0.325261 0.416955
N13 N 0.8628(3) 0.1030(4) 0.5005(2)
H34 H 0.838573 0.108813 0.529232
N14 N 0.9184(4) 0.2220(4) 0.5217(2)
H35 H 0.896509 0.220344 0.551352
N15 N 0.9550(4) 0.2892(4) 0.5039(2)
H36 H 1.005302 0.300220 0.512662
N16 N 1.0287(4) 0.5403(4) 0.4106(3)
C27 C 0.6472(6) 0.1461(5) 0.7042(3)
H37 H 0.677734 0.115571 0.728089
C28 C 0.6780(5) 0.1565(5) 0.6568(3)
H38 H 0.727037 0.131912 0.648383
C29 C 0.6366(5) 0.2027(4) 0.6225(3)
C30 C 0.5642(5) 0.2351(5) 0.6357(3)
H39 H 0.533233 0.266887 0.612743
C31 C 0.5383(6) 0.2192(6) 0.6838(4)
H40 H 0.488258 0.241229 0.692737
C32 C 0.6743(5) 0.2146(5) 0.5717(3)
C33 C 0.6527(5) 0.2561(5) 0.4534(3)
C34 C 0.6907(4) 0.2427(5) 0.3641(3)
C35 C 0.6055(5) 0.2440(5) 0.3402(3)
H41 H 0.570211 0.210813 0.360007
H42 H 0.606646 0.223584 0.305632
H43 H 0.585212 0.298397 0.339537
C36 C 0.7472(5) 0.2905(5) 0.3307(3)
H44 H 0.726084 0.344227 0.326136
H45 H 0.750339 0.264690 0.297772
H46 H 0.800963 0.292894 0.347005
C37 C 0.7252(4) 0.1587(5) 0.3693(3)
C38 C 0.7170(5) 0.1046(5) 0.3296(3)
H47 H 0.687409 0.118720 0.299682
C39 C 0.7517(5) 0.0310(5) 0.3338(3)
H48 H 0.747368 -0.004680 0.306236
C40 C 0.7931(5) 0.0082(5) 0.3778(3)
H49 H 0.815149 -0.043535 0.380599
C41 C 0.8023(4) 0.0609(5) 0.4180(3)
C42 C 0.7689(4) 0.1344(4) 0.4121(3)
H50 H 0.776129 0.171173 0.438936
C43 C 0.8385(4) 0.0343(5) 0.4688(3)
C44 C 0.7720(5) -0.0051(5) 0.4979(3)
H51 H 0.794051 -0.024055 0.530446
H52 H 0.749987 -0.049871 0.478376
H53 H 0.729118 0.033301 0.503516
C45 C 0.9092(5) -0.0230(4) 0.4649(3)
H54 H 0.952703 0.002923 0.447284
H55 H 0.891583 -0.070174 0.446171
H56 H 0.928586 -0.038271 0.498874
C46 C 0.9183(4) 0.1570(5) 0.4894(3)
C47 C 0.9119(5) 0.3377(5) 0.4728(3)
C48 C 0.9556(4) 0.4085(4) 0.4533(3)
C49 C 1.0360(5) 0.4263(5) 0.4638(3)
H57 H 1.067348 0.394556 0.486521
C50 C 1.0694(5) 0.4906(5) 0.4408(3)
H58 H 1.125236 0.500098 0.446891
C51 C 0.9505(5) 0.5241(5) 0.4015(3)
H59 H 0.919894 0.559016 0.380386
C52 C 0.9123(5) 0.4592(5) 0.4213(3)
H60 H 0.857084 0.449471 0.413205
O9 O 0.3116(3) 0.1654(3) 0.4341(2)
C53 C 0.3190(4) 0.1623(5) 0.3887(3)
C54 C 0.2698(5) 0.1055(5) 0.3576(3)
H61 H 0.216733 0.129909 0.349758
H62 H 0.260486 0.057731 0.378170
C55 C 0.3058(5) 0.0797(5) 0.3082(3)
H63 H 0.350833 0.042596 0.315385
H64 H 0.264463 0.051684 0.287157
C56 C 0.3360(5) 0.1508(5) 0.2798(3)
H65 H 0.290870 0.187522 0.272108
H66 H 0.358149 0.133455 0.247478
C57 C 0.4018(5) 0.1937(5) 0.3117(3)
H67 H 0.447706 0.157459 0.318310
H68 H 0.421440 0.239843 0.292788
C58 C 0.3690(5) 0.2215(5) 0.3618(3)
H69 H 0.415024 0.236740 0.384501
H70 H 0.336141 0.269475 0.355444
O10 O 0.3051(4) 0.4075(4) 0.2842(3)
C59 C 0.3718(5) 0.4330(5) 0.2947(4)
C60 C 0.3960(7) 0.4542(6) 0.3484(4)
H71 H 0.435686 0.415308 0.361965
H72 H 0.348293 0.452484 0.369532
C61 C 0.4329(7) 0.5376(6) 0.3501(4)
H73 H 0.452601 0.549748 0.384883
H74 H 0.391379 0.577043 0.340117
C62 C 0.5034(6) 0.5425(7) 0.3139(5)
H75 H 0.527105 0.596216 0.315190
H76 H 0.545796 0.504192 0.324409
C63 C 0.4735(6) 0.5243(7) 0.2607(5)
H77 H 0.435084 0.565905 0.249299
H78 H 0.519405 0.525256 0.238072
C64 C 0.4326(6) 0.4449(8) 0.2567(4)
H79 H 0.406602 0.439640 0.222689
H80 H 0.473812 0.402802 0.260433
O11 O 0.8127(3) 0.3323(4) 0.5755(2)
C65 C 0.8338(5) 0.3490(5) 0.6180(3)
C66 C 0.9005(5) 0.3053(5) 0.6471(3)
H81 H 0.909973 0.254220 0.630086
H82 H 0.950517 0.336738 0.645687
C67 C 0.8834(6) 0.2894(6) 0.7017(3)
H83 H 0.842903 0.246649 0.703469
H84 H 0.933273 0.270884 0.719460
C68 C 0.8529(5) 0.3614(5) 0.7279(3)
H85 H 0.895547 0.402200 0.729602
H86 H 0.839652 0.347418 0.762907
C69 C 0.7787(6) 0.3948(7) 0.7006(3)
H87 H 0.761447 0.443387 0.717965
H88 H 0.734382 0.355828 0.701758
C70 C 0.7950(6) 0.4140(5) 0.6460(3)
H89 H 0.743486 0.427586 0.628278
H90 H 0.830062 0.461242 0.645192
O12 O 0.8319(4) 0.4134(4) 0.2423(3)
C71 C 0.8932(6) 0.4409(5) 0.2254(4)
C72 C 0.9371(6) 0.5072(6) 0.2509(3)
H91 H 0.990767 0.488844 0.263247
H92 H 0.907045 0.525108 0.280321
C73 C 0.9467(6) 0.5761(5) 0.2144(4)
H93 H 0.893322 0.599050 0.205439
H94 H 0.980211 0.617895 0.230788
C74 C 0.9862(7) 0.5475(7) 0.1669(5)
H95 H 0.991753 0.592288 0.143258
H96 H 1.040758 0.527191 0.175758
C75 C 0.9376(7) 0.4837(6) 0.1418(4)
H97 H 0.965151 0.465216 0.111527
H98 H 0.884574 0.505261 0.130609
C76 C 0.9251(6) 0.4132(5) 0.1773(3)
H99 H 0.886886 0.375252 0.161043
H100 H 0.976879 0.385601 0.183813
loop_
_geom_bond_atom_site_label_1
_geom_bond_atom_site_label_2
_geom_bond_site_symmetry_1
_geom_bond_site_symmetry_2
O1 C6 1_555 1_555
O2 C7 1_555 1_555
O3 C20 1_555 1_555
O4 C21 1_555 1_555
N1 C1 1_555 1_555
N2 H1 1_555 1_555
N3 N2 1_555 1_555
H2 N3 1_555 1_555
N4 H3 1_555 1_555
N5 H4 1_555 1_555
N6 H5 1_555 1_555
N7 N6 1_555 1_555
H6 N7 1_555 1_555
N8 C24 1_555 1_555
C1 H7 1_555 1_555
C2 C1 1_555 1_555
H8 C2 1_555 1_555
C3 C2 1_555 1_555
C4 C3 1_555 1_555
H9 C4 1_555 1_555
C5 N1 1_555 1_555
H10 C5 1_555 1_555
C6 N2 1_555 1_555
C7 N3 1_555 1_555
C8 N4 1_555 1_555
C9 C8 1_555 1_555
H11 C9 1_555 1_555
H12 C9 1_555 1_555
H13 C9 1_555 1_555
C10 C8 1_555 1_555
H14 C10 1_555 1_555
H15 C10 1_555 1_555
H16 C10 1_555 1_555
C11 C8 1_555 1_555
C12 C11 1_555 1_555
H17 C12 1_555 1_555
C13 C12 1_555 1_555
H18 C13 1_555 1_555
C14 C13 1_555 1_555
H19 C14 1_555 1_555
C15 C14 1_555 1_555
C16 C11 1_555 1_555
H20 C16 1_555 1_555
C17 N5 1_555 1_555
C18 C17 1_555 1_555
H21 C18 1_555 1_555
H22 C18 1_555 1_555
H23 C18 1_555 1_555
C19 C17 1_555 1_555
H24 C19 1_555 1_555
H25 C19 1_555 1_555
H26 C19 1_555 1_555
C20 N5 1_555 1_555
C21 N7 1_555 1_555
C22 C21 1_555 1_555
C23 C22 1_555 1_555
H27 C23 1_555 1_555
C24 C23 1_555 1_555
H28 C24 1_555 1_555
C25 N8 1_555 1_555
H29 C25 1_555 1_555
C26 C22 1_555 1_555
H30 C26 1_555 1_555
O5 C32 1_555 1_555
O6 C33 1_555 1_555
O7 C46 1_555 1_555
O8 C47 1_555 1_555
N9 C27 1_555 1_555
N10 H31 1_555 1_555
N11 N10 1_555 1_555
H32 N11 1_555 1_555
N12 H33 1_555 1_555
N13 H34 1_555 1_555
N14 H35 1_555 1_555
N15 N14 1_555 1_555
H36 N15 1_555 1_555
N16 C50 1_555 1_555
C27 H37 1_555 1_555
C28 C27 1_555 1_555
H38 C28 1_555 1_555
C29 C28 1_555 1_555
C30 C29 1_555 1_555
H39 C30 1_555 1_555
C31 N9 1_555 1_555
H40 C31 1_555 1_555
C32 N10 1_555 1_555
C33 N11 1_555 1_555
C34 N12 1_555 1_555
C35 C34 1_555 1_555
H41 C35 1_555 1_555
H42 C35 1_555 1_555
H43 C35 1_555 1_555
C36 C34 1_555 1_555
H44 C36 1_555 1_555
H45 C36 1_555 1_555
H46 C36 1_555 1_555
C37 C34 1_555 1_555
C38 C37 1_555 1_555
H47 C38 1_555 1_555
C39 C38 1_555 1_555
H48 C39 1_555 1_555
C40 C39 1_555 1_555
H49 C40 1_555 1_555
C41 C40 1_555 1_555
C42 C37 1_555 1_555
H50 C42 1_555 1_555
C43 N13 1_555 1_555
C44 C43 1_555 1_555
H51 C44 1_555 1_555
H52 C44 1_555 1_555
H53 C44 1_555 1_555
C45 C43 1_555 1_555
H54 C45 1_555 1_555
H55 C45 1_555 1_555
H56 C45 1_555 1_555
C46 N13 1_555 1_555
C47 N15 1_555 1_555
C48 C47 1_555 1_555
C49 C48 1_555 1_555
H57 C49 1_555 1_555
C50 C49 1_555 1_555
H58 C50 1_555 1_555
C51 N16 1_555 1_555
H59 C51 1_555 1_555
C52 C48 1_555 1_555
H60 C52 1_555 1_555
O9 C53 1_555 1_555
C53 C54 1_555 1_555
C54 H61 1_555 1_555
H62 C54 1_555 1_555
C55 C54 1_555 1_555
H63 C55 1_555 1_555
H64 C55 1_555 1_555
C56 C55 1_555 1_555
H65 C56 1_555 1_555
H66 C56 1_555 1_555
C57 C56 1_555 1_555
H67 C57 1_555 1_555
H68 C57 1_555 1_555
C58 C53 1_555 1_555
H69 C58 1_555 1_555
H70 C58 1_555 1_555
O10 C59 1_555 1_555
C59 C60 1_555 1_555
C60 H71 1_555 1_555
H72 C60 1_555 1_555
C61 C60 1_555 1_555
H73 C61 1_555 1_555
H74 C61 1_555 1_555
C62 C61 1_555 1_555
H75 C62 1_555 1_555
H76 C62 1_555 1_555
C63 C62 1_555 1_555
H77 C63 1_555 1_555
H78 C63 1_555 1_555
C64 C59 1_555 1_555
H79 C64 1_555 1_555
H80 C64 1_555 1_555
O11 C65 1_555 1_555
C65 C66 1_555 1_555
C66 H81 1_555 1_555
H82 C66 1_555 1_555
C67 C66 1_555 1_555
H83 C67 1_555 1_555
H84 C67 1_555 1_555
C68 C67 1_555 1_555
H85 C68 1_555 1_555
H86 C68 1_555 1_555
C69 C68 1_555 1_555
H87 C69 1_555 1_555
H88 C69 1_555 1_555
C70 C65 1_555 1_555
H89 C70 1_555 1_555
H90 C70 1_555 1_555
O12 C71 1_555 1_555
C71 C72 1_555 1_555
C72 H91 1_555 1_555
H92 C72 1_555 1_555
C73 C72 1_555 1_555
H93 C73 1_555 1_555
H94 C73 1_555 1_555
C74 C73 1_555 1_555
H95 C74 1_555 1_555
H96 C74 1_555 1_555
C75 C74 1_555 1_555
H97 C75 1_555 1_555
H98 C75 1_555 1_555
C76 C71 1_555 1_555
H99 C76 1_555 1_555
H100 C76 1_555 1_555
N4 C7 1_555 1_555
N6 C20 1_555 1_555
C3 C6 1_555 1_555
C4 C5 1_555 1_555
C15 C16 1_555 1_555
C15 C17 1_555 1_555
C25 C26 1_555 1_555
N12 C33 1_555 1_555
N14 C46 1_555 1_555
C29 C32 1_555 1_555
C30 C31 1_555 1_555
C41 C42 1_555 1_555
C41 C43 1_555 1_555
C51 C52 1_555 1_555
C57 C58 1_555 1_555
C63 C64 1_555 1_555
C69 C70 1_555 1_555
C75 C76 1_555 1_555

#END
