
#######################################################################
#
#                 Cambridge Crystallographic Data Centre
#                                CCDC 
#
#######################################################################
#
# If this CIF has been generated from an entry in the Cambridge 
# Structural Database, then it will include bibliographic, chemical, 
# crystal, experimental, refinement or atomic coordinate data resulting 
# from the CCDC's data processing and validation procedures.
#
#######################################################################

data_CESVEB
_chemical_formula_moiety         'C4 H5 O5 1-,C4 H6 O5,Li1 1+'
_chemical_name_systematic        'Lithium hydrogen malate'
_symmetry_cell_setting           monoclinic
_symmetry_space_group_name_H-M   'P 21'
_symmetry_Int_Tables_number      4
_space_group_name_Hall           'P 2yb'
loop_
_symmetry_equiv_pos_site_id
_symmetry_equiv_pos_as_xyz
1 x,y,z
2 -x,1/2+y,-z
_cell_length_a                   5.269(3)
_cell_length_b                   16.915(5)
_cell_length_c                   6.403(3)
_cell_angle_alpha                90
_cell_angle_beta                 94.05(2)
_cell_angle_gamma                90
_cell_volume                     569.243
_cell_formula_units_Z            2
loop_
_atom_site_label
_atom_site_type_symbol
_atom_site_fract_x
_atom_site_fract_y
_atom_site_fract_z
Li1 Li 0.82670 0.86010 -0.04090
C1 C 0.60430 0.97890 0.19290
C2 C 0.77370 0.93780 0.36440
C3 C 0.92610 0.99880 0.49370
C4 C 1.09970 0.96340 0.66610
O1 O 0.60480 0.95310 0.01160
O2 O 0.47700 1.03600 0.25250
O3 O 1.29850 1.00710 0.71580
O4 O 1.05790 0.90090 0.74940
O5 O 0.93000 0.88410 0.26200
H1 H 0.68100 0.90800 0.45500
H2 H 0.78200 1.03200 0.56300
H3 H 1.03800 1.03100 0.38800
H4 H 1.39300 0.98900 0.84800
H5 H 0.99400 0.85600 0.33500
C5 C 0.80800 0.69410 -0.09820
C6 C 0.56830 0.71930 -0.22940
C7 C 0.59580 0.70150 -0.46020
C8 C 0.35840 0.72280 -0.59090
O6 O 0.95290 0.74470 -0.02050
O7 O 0.85450 0.62000 -0.07950
O8 O 0.35690 0.69740 -0.78250
O9 O 0.18350 0.75950 -0.52420
O10 O 0.53890 0.80100 -0.19190
H6 H 0.42700 0.69200 -0.18600
H7 H 0.63600 0.64700 -0.47700
H8 H 0.73200 0.73300 -0.50900
H9 H 0.74500 0.58600 -0.13200
H10 H 0.21400 0.71300 -0.86700
H11 H 0.38200 0.81300 -0.20200
loop_
_geom_bond_atom_site_label_1
_geom_bond_atom_site_label_2
_geom_bond_site_symmetry_1
_geom_bond_site_symmetry_2
C1 C2 1_555 1_555
C2 C3 1_555 1_555
C3 C4 1_555 1_555
C4 O3 1_555 1_555
O1 C1 1_555 1_555
O2 C1 1_555 1_555
O3 H4 1_555 1_555
O4 C4 1_555 1_555
O5 C2 1_555 1_555
H1 C2 1_555 1_555
H2 C3 1_555 1_555
H3 C3 1_555 1_555
H5 O5 1_555 1_555
C5 C6 1_555 1_555
C6 C7 1_555 1_555
C7 C8 1_555 1_555
C8 O8 1_555 1_555
O6 C5 1_555 1_555
O7 C5 1_555 1_555
O8 H10 1_555 1_555
O9 C8 1_555 1_555
O10 C6 1_555 1_555
H6 C6 1_555 1_555
H7 C7 1_555 1_555
H8 C7 1_555 1_555
H9 O7 1_555 1_555
H11 O10 1_555 1_555

#END
