
#######################################################################
#
#                 Cambridge Crystallographic Data Centre
#                                CCDC 
#
#######################################################################
#
# If this CIF has been generated from an entry in the Cambridge 
# Structural Database, then it will include bibliographic, chemical, 
# crystal, experimental, refinement or atomic coordinate data resulting 
# from the CCDC's data processing and validation procedures.
#
#######################################################################

data_CESVOL
_chemical_formula_moiety         'C16 H19 N1 O5'
_chemical_name_systematic        
2-Methoxycarbonyl-10-oxa-11-azatetracyclo(7.6.1.0^2,7^.0^12,16^)hexadec-11-ene-3,6-dione
_symmetry_cell_setting           triclinic
_symmetry_space_group_name_H-M   'P -1'
_symmetry_Int_Tables_number      2
_space_group_name_Hall           '-P 1'
loop_
_symmetry_equiv_pos_site_id
_symmetry_equiv_pos_as_xyz
1 x,y,z
2 -x,-y,-z
_cell_length_a                   9.378(1)
_cell_length_b                   10.915(2)
_cell_length_c                   8.044(2)
_cell_angle_alpha                111.55(2)
_cell_angle_beta                 109.18(1)
_cell_angle_gamma                89.91(2)
_cell_volume                     716.644
_exptl_crystal_colour            white
_chemical_melting_point          234-236deg.C
_cell_formula_units_Z            2
loop_
_atom_site_label
_atom_site_type_symbol
_atom_site_fract_x
_atom_site_fract_y
_atom_site_fract_z
C1 C 0.84110 0.88050 0.56430
C2 C 0.82520 0.82070 0.35820
C3 C 0.67540 0.72950 0.23550
C4 C 0.64250 0.63140 0.31360
C5 C 0.75840 0.63930 0.50140
C6 C 0.70280 0.55230 0.58340
C7 C 0.82090 0.55120 0.76280
C8 C 0.93970 0.67480 0.89110
C9 C 0.95590 0.78830 0.81980
C10 C 0.81080 0.78330 0.65270
C11 C 1.10320 0.78680 0.77520
C12 C 1.24240 0.80120 0.95020
C13 C 1.23380 0.69320 1.02610
C14 C 1.08280 0.61200 0.91710
N1 N 1.06690 0.48890 0.81490
O1 O 0.91070 0.44400 0.70560
O2 O 0.87400 0.99850 0.66170
O3 O 0.53010 0.54900 0.23050
C15 C 0.68270 0.83000 0.72760
O4 O 0.68260 0.85140 0.88410
O5 O 0.56490 0.84350 0.58960
C16 C 0.42830 0.88170 0.63110
H1 H 0.83600 0.89300 0.31600
H2 H 0.91600 0.77300 0.36100
H3 H 0.58700 0.78100 0.22200
H4 H 0.67200 0.68500 0.11600
H5 H 0.85100 0.61000 0.47300
H6 H 0.61100 0.58300 0.60600
H7 H 0.67700 0.46300 0.49200
H8 H 0.77100 0.52800 0.83700
H9 H 0.92500 0.71400 1.01100
H10 H 0.96600 0.86800 0.92400
H11 H 1.11500 0.85600 0.73700
H12 H 1.10200 0.70400 0.66500
H13 H 1.24500 0.88900 1.05100
H14 H 1.33800 0.80400 0.92500
H15 H 1.24600 0.73400 1.15200
H16 H 1.31700 0.63200 1.00900
H17 H 0.45600 0.94900 0.76100
H18 H 0.37600 0.80600 0.63000
H19 H 0.37500 0.90800 0.52300
loop_
_geom_bond_atom_site_label_1
_geom_bond_atom_site_label_2
_geom_bond_site_symmetry_1
_geom_bond_site_symmetry_2
C1 C2 1_555 1_555
C2 C3 1_555 1_555
C3 C4 1_555 1_555
C4 C5 1_555 1_555
C5 C6 1_555 1_555
C6 C7 1_555 1_555
C7 C8 1_555 1_555
C8 C9 1_555 1_555
C9 C10 1_555 1_555
C10 C1 1_555 1_555
C11 C9 1_555 1_555
C12 C11 1_555 1_555
C13 C12 1_555 1_555
C14 C8 1_555 1_555
N1 C14 1_555 1_555
O1 C7 1_555 1_555
O2 C1 1_555 1_555
O3 C4 1_555 1_555
C15 C10 1_555 1_555
O4 C15 1_555 1_555
O5 C15 1_555 1_555
C16 O5 1_555 1_555
H1 C2 1_555 1_555
H2 C2 1_555 1_555
H3 C3 1_555 1_555
H4 C3 1_555 1_555
H5 C5 1_555 1_555
H6 C6 1_555 1_555
H7 C6 1_555 1_555
H8 C7 1_555 1_555
H9 C8 1_555 1_555
H10 C9 1_555 1_555
H11 C11 1_555 1_555
H12 C11 1_555 1_555
H13 C12 1_555 1_555
H14 C12 1_555 1_555
H15 C13 1_555 1_555
H16 C13 1_555 1_555
H17 C16 1_555 1_555
H18 C16 1_555 1_555
H19 C16 1_555 1_555
C5 C10 1_555 1_555
C13 C14 1_555 1_555
N1 O1 1_555 1_555

#END
