
#######################################################################
#
#                 Cambridge Crystallographic Data Centre
#                                CCDC 
#
#######################################################################
#
# If this CIF has been generated from an entry in the Cambridge 
# Structural Database, then it will include bibliographic, chemical, 
# crystal, experimental, refinement or atomic coordinate data resulting 
# from the CCDC's data processing and validation procedures.
#
#######################################################################

data_CESWIJ
_chemical_formula_moiety         'C26 H30 N8 O4'
_chemical_name_systematic        
N,N'-[1,3-phenylenebis(propane-2,2-diyl)]bis[2-(pyridine-4-carbonyl)hydrazine-1-carboxamide]
_symmetry_cell_setting           tetragonal
_symmetry_space_group_name_H-M   'I -4 2 d'
_symmetry_Int_Tables_number      122
_space_group_name_Hall           'I -4 2bw'
loop_
_symmetry_equiv_pos_site_id
_symmetry_equiv_pos_as_xyz
1 x,y,z
2 y,-x,-z
3 -x,-y,z
4 -y,x,-z
5 x,1/2-y,1/4-z
6 -x,1/2+y,1/4-z
7 -y,1/2-x,1/4+z
8 y,1/2+x,1/4+z
9 1/2+x,1/2+y,1/2+z
10 1/2+y,1/2-x,1/2-z
11 1/2-x,1/2-y,1/2+z
12 1/2-y,1/2+x,1/2-z
13 1/2+x,-y,3/4-z
14 1/2-x,y,3/4-z
15 1/2-y,-x,3/4+z
16 1/2+y,x,3/4+z
_cell_length_a                   15.8133(5)
_cell_length_b                   15.8133(5)
_cell_length_c                   20.5773(8)
_cell_angle_alpha                90
_cell_angle_beta                 90
_cell_angle_gamma                90
_cell_volume                     5145.57
_exptl_crystal_colour            colorless
_exptl_crystal_description       prism
_cell_formula_units_Z            8
loop_
_atom_site_label
_atom_site_type_symbol
_atom_site_fract_x
_atom_site_fract_y
_atom_site_fract_z
O1 O 0.82315(8) 0.36383(8) 0.24609(6)
O2 O 0.68922(8) 0.19409(7) 0.21724(5)
N1 N 1.02801(10) 0.38295(10) 0.06179(8)
N2 N 0.73597(8) 0.34230(8) 0.16102(6)
N3 N 0.66641(8) 0.33672(8) 0.20273(6)
N4 N 0.62012(8) 0.26997(8) 0.29500(6)
C1 C 0.88534(10) 0.36379(9) 0.14114(7)
C2 C 0.87703(10) 0.38656(10) 0.07605(7)
C3 C 0.95023(11) 0.39753(11) 0.03956(8)
C4 C 1.03473(12) 0.35921(14) 0.12416(10)
C5 C 0.96599(11) 0.35077(12) 0.16569(9)
C6 C 0.81260(10) 0.35587(9) 0.18758(7)
C7 C 0.66147(9) 0.26111(9) 0.23817(7)
C8 C 0.59756(9) 0.19915(10) 0.33827(7)
C9 C 0.52883(10) 0.14538(11) 0.30575(9)
C10 C 0.56188(10) 0.24073(11) 0.39994(8)
C11 C 0.67683(9) 0.14858(9) 0.35645(7)
C12 C 0.67712(11) 0.06031(10) 0.35763(8)
C13 C 0.750000 0.01685(15) 0.375000
C14 C 0.750000 0.19128(13) 0.375000
H1 H 0.7268(13) 0.3308(14) 0.1210(12)
H2 H 0.8241(15) 0.3946(15) 0.0565(11)
H3 H 0.6607(15) 0.3797(17) 0.2287(12)
H4 H 0.9477(14) 0.4190(15) -0.0057(11)
H5 H 0.6054(15) 0.3189(16) 0.3042(11)
H6 H 1.0942(16) 0.3477(16) 0.1419(12)
H7 H 0.9757(16) 0.3360(16) 0.2090(13)
H8 H 0.5071(18) 0.1007(17) 0.3368(13)
H9 H 0.5494(16) 0.1183(17) 0.2686(12)
H10 H 0.4839(16) 0.1820(15) 0.2936(12)
H11 H 0.5391(15) 0.1973(16) 0.4266(11)
H12 H 0.5141(17) 0.2799(15) 0.3866(11)
H13 H 0.6081(16) 0.2686(15) 0.4247(12)
H14 H 0.6282(15) 0.0273(14) 0.3442(11)
H15 H 0.750000 -0.041(2) 0.375000
H16 H 0.750000 0.251(2) 0.375000
O1M O 0.67685(8) 0.36383(8) 0.50391(6)
O2M O 0.81078(8) 0.19409(7) 0.53276(5)
N1M N 0.47199(10) 0.38295(10) 0.68821(8)
N2M N 0.76403(8) 0.34230(8) 0.58898(6)
N3M N 0.83359(8) 0.33672(8) 0.54727(6)
N4M N 0.87988(8) 0.26997(8) 0.45500(6)
C1M C 0.61466(10) 0.36379(9) 0.60886(7)
C2M C 0.62297(10) 0.38656(10) 0.67395(7)
C3M C 0.54977(11) 0.39753(11) 0.71044(8)
C4M C 0.46527(12) 0.35921(14) 0.62584(10)
C5M C 0.53401(11) 0.35077(12) 0.58431(9)
C6M C 0.68740(10) 0.35587(9) 0.56242(7)
C7M C 0.83853(9) 0.26111(9) 0.51183(7)
C8M C 0.90244(9) 0.19915(10) 0.41173(7)
C9M C 0.97117(10) 0.14538(11) 0.44425(9)
C10M C 0.93812(10) 0.24073(11) 0.35006(8)
C11M C 0.82317(9) 0.14858(9) 0.39355(7)
C12M C 0.82288(11) 0.06031(10) 0.39237(8)
H1M H 0.7732(13) 0.3308(14) 0.6290(12)
H2M H 0.6759(15) 0.3946(15) 0.6935(11)
H3M H 0.8393(15) 0.3797(17) 0.5213(12)
H4M H 0.5523(14) 0.4190(15) 0.7557(11)
H5M H 0.8946(15) 0.3189(16) 0.4458(11)
H6M H 0.4058(16) 0.3477(16) 0.6081(12)
H7M H 0.5243(16) 0.3360(16) 0.5410(13)
H8M H 0.9929(18) 0.1007(17) 0.4132(13)
H9M H 0.9506(16) 0.1183(17) 0.4814(12)
H10M H 1.0161(16) 0.1820(15) 0.4564(12)
H11M H 0.9609(15) 0.1973(16) 0.3234(11)
H12M H 0.9859(17) 0.2799(15) 0.3634(11)
H13M H 0.8919(16) 0.2686(15) 0.3253(12)
H14M H 0.8718(15) 0.0273(14) 0.4058(11)
loop_
_geom_bond_atom_site_label_1
_geom_bond_atom_site_label_2
_geom_bond_site_symmetry_1
_geom_bond_site_symmetry_2
O1 C6 1_555 1_555
O2 C7 1_555 1_555
N1 C3 1_555 1_555
N2 N3 1_555 1_555
N3 C7 1_555 1_555
N4 C7 1_555 1_555
C1 C2 1_555 1_555
C2 C3 1_555 1_555
C3 H4 1_555 1_555
C4 N1 1_555 1_555
C5 C1 1_555 1_555
C6 N2 1_555 1_555
C8 N4 1_555 1_555
C9 C8 1_555 1_555
C10 C8 1_555 1_555
C11 C8 1_555 1_555
C12 C11 1_555 1_555
C13 C12 1_555 1_555
C14 C11 1_555 1_555
H1 N2 1_555 1_555
H2 C2 1_555 1_555
H3 N3 1_555 1_555
H5 N4 1_555 1_555
H6 C4 1_555 1_555
H7 C5 1_555 1_555
H8 C9 1_555 1_555
H9 C9 1_555 1_555
H10 C9 1_555 1_555
H11 C10 1_555 1_555
H12 C10 1_555 1_555
H13 C10 1_555 1_555
H14 C12 1_555 1_555
H15 C13 1_555 1_555
H16 C14 1_555 1_555
O1M C6M 1_555 1_555
O2M C7M 1_555 1_555
N1M C3M 1_555 1_555
N2M N3M 1_555 1_555
N3M C7M 1_555 1_555
N4M C7M 1_555 1_555
C1M C2M 1_555 1_555
C2M C3M 1_555 1_555
C3M H4M 1_555 1_555
C4M N1M 1_555 1_555
C5M C1M 1_555 1_555
C6M N2M 1_555 1_555
C8M N4M 1_555 1_555
C9M C8M 1_555 1_555
C10M C8M 1_555 1_555
C11M C14 1_555 1_555
C12M C13 1_555 1_555
H1M N2M 1_555 1_555
H2M C2M 1_555 1_555
H3M N3M 1_555 1_555
H5M N4M 1_555 1_555
H6M C4M 1_555 1_555
H7M C5M 1_555 1_555
H8M C9M 1_555 1_555
H9M C9M 1_555 1_555
H10M C9M 1_555 1_555
H11M C10M 1_555 1_555
H12M C10M 1_555 1_555
H13M C10M 1_555 1_555
H14M C12M 1_555 1_555
C1 C6 1_555 1_555
C4 C5 1_555 1_555
C1M C6M 1_555 1_555
C4M C5M 1_555 1_555
C8M C11M 1_555 1_555
C11M C12M 1_555 1_555

#END
