
#######################################################################
#
#                 Cambridge Crystallographic Data Centre
#                                CCDC 
#
#######################################################################
#
# If this CIF has been generated from an entry in the Cambridge 
# Structural Database, then it will include bibliographic, chemical, 
# crystal, experimental, refinement or atomic coordinate data resulting 
# from the CCDC's data processing and validation procedures.
#
#######################################################################

data_CESWAZ
_chemical_compound_source        
'marine sponge Halichondria rugosa Ridley and Dendy'
_chemical_formula_moiety         'C4 H12 N3 O3 S1,H2 O1'
_chemical_name_systematic        'Halichondria sulfonic acid monohydrate'
_chemical_properties_biological  'anti-HIV acitivty'
_symmetry_cell_setting           monoclinic
_symmetry_space_group_name_H-M   'P 21/c'
_symmetry_Int_Tables_number      14
_space_group_name_Hall           '-P 2ybc'
loop_
_symmetry_equiv_pos_site_id
_symmetry_equiv_pos_as_xyz
1 x,y,z
2 -x,1/2+y,1/2-z
3 -x,-y,-z
4 x,1/2-y,1/2+z
_cell_length_a                   16.6690(10)
_cell_length_b                   7.844
_cell_length_c                   14.1280(10)
_cell_angle_alpha                90
_cell_angle_beta                 111.19
_cell_angle_gamma                90
_cell_volume                     1722.36
_exptl_crystal_colour            colorless
_exptl_crystal_description       needles
_cell_formula_units_Z            8
loop_
_atom_site_label
_atom_site_type_symbol
_atom_site_fract_x
_atom_site_fract_y
_atom_site_fract_z
S1 S 0.55044(3) 0.06116(8) 0.68571(4)
O1 O 0.61612(11) 0.1923(3) 0.70538(13)
N2 N 0.29522(12) 0.1160(3) 0.55041(15)
O3 O 0.53715(10) 0.0089(2) 0.77808(12)
N3 N 0.26099(13) 0.0758(3) 0.37695(15)
H1 H 0.2232 0.0830 0.3146
H2 H 0.3130 0.0364 0.3877
O5 O 0.56648(11) -0.0834(2) 0.62998(13)
N5 N 0.16055(13) 0.1833(3) 0.43583(16)
H5 H 0.1238 0.1894 0.3729
H6 H 0.1449 0.2162 0.4862
C1 C 0.23955(15) 0.1245(3) 0.45486(18)
C2 C 0.37805(15) 0.0271(3) 0.58007(19)
H9 H 0.3787 -0.0469 0.5236
H10 H 0.3853 -0.0465 0.6395
C6 C 0.27197(17) 0.1854(4) 0.63353(19)
H19 H 0.3229 0.1866 0.6962
H20 H 0.2272 0.1141 0.6431
H21 H 0.2503 0.3020 0.6167
C8 C 0.45249(15) 0.1534(3) 0.60648(18)
H27 H 0.4394 0.2533 0.6412
H28 H 0.4587 0.1940 0.5431
N1 N 0.20037(14) 0.6625(3) 0.41816(17)
O2 O -0.05774(11) 0.7513(3) 0.44358(13)
S2 S -0.05682(4) 0.66705(8) 0.35183(4)
O4 O -0.07103(11) 0.7878(2) 0.26950(13)
N4 N 0.24235(14) 0.6967(3) 0.59289(16)
H3 H 0.1923 0.7421 0.5859
H4 H 0.2819 0.6844 0.6538
O6 O -0.11501(11) 0.5231(3) 0.32254(14)
N6 N 0.33597(13) 0.5794(3) 0.52410(16)
H7 H 0.3481 0.5468 0.4712
H8 H 0.3747 0.5683 0.5857
C3 C 0.11469(16) 0.7311(3) 0.3971(2)
H11 H 0.0979 0.8022 0.3350
H12 H 0.1151 0.8047 0.4542
C4 C 0.25833(17) 0.6461(3) 0.5109(2)
C5 C 0.22144(17) 0.5997(4) 0.33156(19)
H13 H 0.1717 0.6155 0.2686
H14 H 0.2361 0.4783 0.3410
H15 H 0.2706 0.6637 0.3275
C7 C 0.04892(15) 0.5878(3) 0.38222(19)
H25 H 0.0649 0.5194 0.4452
H26 H 0.0505 0.5118 0.3270
O7 O 0.08498(15) 0.8741(3) 0.60337(17)
O8 O 0.41118(15) 0.0594(4) 0.88347(18)
H29 H 0.425(2) 0.151(5) 0.877(3)
H30 H 0.428(3) 0.006(7) 0.849(4)
H16? H 0.2805 0.5562 0.3561
H17? H 0.2162 0.6933 0.2837
H18? H 0.1816 0.5080 0.2973
H22? H 0.2107 0.2152 0.6079
H23? H 0.3064 0.2876 0.6609
H24? H 0.2833 0.0998 0.6873
loop_
_geom_bond_atom_site_label_1
_geom_bond_atom_site_label_2
_geom_bond_site_symmetry_1
_geom_bond_site_symmetry_2
S1 O1 1_555 1_555
N1 C3 1_555 1_555
O2 S2 1_555 1_555
N2 C1 1_555 1_555
S2 O4 1_555 1_555
O3 S1 1_555 1_555
N3 H1 1_555 1_555
H2 N3 1_555 1_555
N4 H3 1_555 1_555
H4 N4 1_555 1_555
O5 S1 1_555 1_555
N5 H5 1_555 1_555
H6 N5 1_555 1_555
O6 S2 1_555 1_555
N6 H7 1_555 1_555
H8 N6 1_555 1_555
C1 N3 1_555 1_555
C2 N2 1_555 1_555
H9 C2 1_555 1_555
H10 C2 1_555 1_555
C3 H11 1_555 1_555
H12 C3 1_555 1_555
C4 N1 1_555 1_555
C5 N1 1_555 1_555
H13 C5 1_555 1_555
H14 C5 1_555 1_555
H15 C5 1_555 1_555
C6 N2 1_555 1_555
H19 C6 1_555 1_555
H20 C6 1_555 1_555
H21 C6 1_555 1_555
C7 S2 1_555 1_555
H25 C7 1_555 1_555
H26 C7 1_555 1_555
C8 S1 1_555 1_555
H27 C8 1_555 1_555
H28 C8 1_555 1_555
O8 H29 1_555 1_555
H30 O8 1_555 1_555
N4 C4 1_555 1_555
N5 C1 1_555 1_555
N6 C4 1_555 1_555
C2 C8 1_555 1_555
C3 C7 1_555 1_555

#END
