
#######################################################################
#
#                 Cambridge Crystallographic Data Centre
#                                CCDC 
#
#######################################################################
#
# If this CIF has been generated from an entry in the Cambridge 
# Structural Database, then it will include bibliographic, chemical, 
# crystal, experimental, refinement or atomic coordinate data resulting 
# from the CCDC's data processing and validation procedures.
#
#######################################################################

data_CESYIK
_chemical_formula_moiety         'C11 H28 B20'
_chemical_name_systematic        
2,4:3,6-bis(1,2-Dicarba-closo-dodecaborane-1,2-diyl)-1-methylbicyclo(3.1.0)hexane
_symmetry_cell_setting           monoclinic
_symmetry_space_group_name_H-M   'P 21/c'
_symmetry_Int_Tables_number      14
_space_group_name_Hall           '-P 2ybc'
loop_
_symmetry_equiv_pos_site_id
_symmetry_equiv_pos_as_xyz
1 x,y,z
2 -x,1/2+y,1/2-z
3 -x,-y,-z
4 x,1/2-y,1/2+z
_cell_length_a                   16.2191(11)
_cell_length_b                   9.6468(6)
_cell_length_c                   14.5023(10)
_cell_angle_alpha                90
_cell_angle_beta                 105.8590(10)
_cell_angle_gamma                90
_cell_volume                     2182.7
_exptl_crystal_colour            colorless
_exptl_crystal_description       block
_cell_formula_units_Z            4
loop_
_atom_site_label
_atom_site_type_symbol
_atom_site_fract_x
_atom_site_fract_y
_atom_site_fract_z
B1 B 0.19504(18) 0.6832(3) 0.3678(2)
H1 H 0.2483 0.6321 0.3477
B2 B 0.1967(2) 0.7029(3) 0.4881(2)
H2 H 0.2516 0.6682 0.5465
B3 B 0.1380(2) 0.8538(3) 0.5019(2)
H3 H 0.1556 0.9146 0.5686
B4 B 0.09814(18) 0.9336(3) 0.3906(2)
H4 H 0.0879 1.0464 0.3856
B5 B 0.09015(18) 0.6698(3) 0.2937(2)
H5 H 0.0754 0.6139 0.2250
B6 B 0.12383(19) 0.5858(3) 0.4091(2)
H6 H 0.1298 0.4725 0.4167
B7 B 0.0881(2) 0.6869(3) 0.4924(2)
H7 H 0.0718 0.6388 0.5539
B8 B 0.0293(2) 0.8291(3) 0.4305(2)
H8 H -0.0257 0.8720 0.4515
B9 B 0.03196(18) 0.8209(3) 0.3078(2)
H9 H -0.0196 0.8608 0.2477
B10 B 0.02205(19) 0.6670(3) 0.3720(2)
H10 H -0.0376 0.6062 0.3547
B11 B 0.38275(18) 1.1715(3) 0.3514(2)
H11 H 0.4107 1.1327 0.4246
B12 B 0.4424(2) 1.1761(3) 0.2660(3)
H12 H 0.5090 1.1389 0.2835
B13 B 0.3715(2) 1.1506(3) 0.1498(3)
H13 H 0.3930 1.0970 0.0935
B14 B 0.26658(19) 1.1315(3) 0.1596(2)
H14 H 0.2195 1.0667 0.1087
B15 B 0.3063(2) 1.3069(3) 0.3276(2)
H15 H 0.2840 1.3550 0.3852
B16 B 0.4119(2) 1.3317(3) 0.3142(3)
H16 H 0.4591 1.3987 0.3631
B17 B 0.4059(2) 1.3204(3) 0.1905(3)
H17 H 0.4495 1.3798 0.1592
B18 B 0.2970(2) 1.2922(3) 0.1259(2)
H18 H 0.2700 1.3337 0.0533
B19 B 0.23575(19) 1.2821(3) 0.2109(2)
H19 H 0.1683 1.3146 0.1946
B20 B 0.3218(2) 1.4019(3) 0.2283(3)
H20 H 0.3105 1.5144 0.2217
C1 C 0.19935(15) 0.8488(2) 0.42028(16)
C2 C 0.13916(14) 0.8300(2) 0.31247(16)
C3 C 0.27403(15) 0.9447(2) 0.40497(16)
H21 H 0.3062 0.9947 0.4624
C4 C 0.22487(14) 1.0391(2) 0.32094(16)
H22 H 0.1782 1.0874 0.3386
C5 C 0.18801(14) 0.9150(2) 0.25269(16)
H23 H 0.1532 0.9420 0.1888
C6 C 0.35260(16) 0.9188(2) 0.26870(19)
H24 H 0.3980 0.8674 0.2508
C7 C 0.27076(15) 0.8374(2) 0.25390(17)
H25 H 0.2668 0.7452 0.2246
C8 C 0.32965(15) 0.8581(2) 0.35564(18)
C9 C 0.39290(17) 0.7556(3) 0.4158(2)
H26 H 0.4209 0.7968 0.4766
H27 H 0.4349 0.7314 0.3831
H28 H 0.3629 0.6736 0.4259
C10 C 0.35363(15) 1.0710(2) 0.24876(19)
C11 C 0.27816(15) 1.1427(2) 0.28197(17)
loop_
_geom_bond_atom_site_label_1
_geom_bond_atom_site_label_2
_geom_bond_site_symmetry_1
_geom_bond_site_symmetry_2
B1 H1 1_555 1_555
B2 B1 1_555 1_555
H2 B2 1_555 1_555
B3 B2 1_555 1_555
H3 B3 1_555 1_555
B4 B3 1_555 1_555
H4 B4 1_555 1_555
B5 B1 1_555 1_555
H5 B5 1_555 1_555
B6 B1 1_555 1_555
H6 B6 1_555 1_555
B7 B2 1_555 1_555
H7 B7 1_555 1_555
B8 B3 1_555 1_555
H8 B8 1_555 1_555
B9 B4 1_555 1_555
H9 B9 1_555 1_555
B10 B5 1_555 1_555
H10 B10 1_555 1_555
B11 H11 1_555 1_555
B12 B11 1_555 1_555
H12 B12 1_555 1_555
B13 B12 1_555 1_555
H13 B13 1_555 1_555
B14 B13 1_555 1_555
H14 B14 1_555 1_555
B15 B11 1_555 1_555
H15 B15 1_555 1_555
B16 B11 1_555 1_555
H16 B16 1_555 1_555
B17 B12 1_555 1_555
H17 B17 1_555 1_555
B18 B13 1_555 1_555
H18 B18 1_555 1_555
B19 B14 1_555 1_555
H19 B19 1_555 1_555
B20 B15 1_555 1_555
H20 B20 1_555 1_555
C1 B1 1_555 1_555
C2 B1 1_555 1_555
C3 C1 1_555 1_555
H21 C3 1_555 1_555
C4 C3 1_555 1_555
H22 C4 1_555 1_555
C5 C2 1_555 1_555
H23 C5 1_555 1_555
C6 H24 1_555 1_555
C7 C5 1_555 1_555
H25 C7 1_555 1_555
C8 C3 1_555 1_555
C9 C8 1_555 1_555
H26 C9 1_555 1_555
H27 C9 1_555 1_555
H28 C9 1_555 1_555
C10 B11 1_555 1_555
C11 B11 1_555 1_555
B2 B6 1_555 1_555
B2 C1 1_555 1_555
B3 B7 1_555 1_555
B3 C1 1_555 1_555
B4 B8 1_555 1_555
B4 C1 1_555 1_555
B4 C2 1_555 1_555
B5 B6 1_555 1_555
B5 B9 1_555 1_555
B5 C2 1_555 1_555
B6 B7 1_555 1_555
B6 B10 1_555 1_555
B7 B8 1_555 1_555
B7 B10 1_555 1_555
B8 B9 1_555 1_555
B8 B10 1_555 1_555
B9 B10 1_555 1_555
B9 C2 1_555 1_555
B12 B16 1_555 1_555
B12 C10 1_555 1_555
B13 B17 1_555 1_555
B13 C10 1_555 1_555
B14 B18 1_555 1_555
B14 C10 1_555 1_555
B14 C11 1_555 1_555
B15 B16 1_555 1_555
B15 B19 1_555 1_555
B15 C11 1_555 1_555
B16 B17 1_555 1_555
B16 B20 1_555 1_555
B17 B18 1_555 1_555
B17 B20 1_555 1_555
B18 B19 1_555 1_555
B18 B20 1_555 1_555
B19 B20 1_555 1_555
B19 C11 1_555 1_555
C1 C2 1_555 1_555
C4 C5 1_555 1_555
C4 C11 1_555 1_555
C6 C7 1_555 1_555
C6 C8 1_555 1_555
C6 C10 1_555 1_555
C7 C8 1_555 1_555
C10 C11 1_555 1_555

#END
