
#######################################################################
#
#                 Cambridge Crystallographic Data Centre
#                                CCDC 
#
#######################################################################
#
# If this CIF has been generated from an entry in the Cambridge 
# Structural Database, then it will include bibliographic, chemical, 
# crystal, experimental, refinement or atomic coordinate data resulting 
# from the CCDC's data processing and validation procedures.
#
#######################################################################

data_CESZAD
_chemical_formula_moiety         'C11 H24 B10 Si1'
_chemical_name_systematic        
1,2-(1-(Trimethylsilyl)cyclohexa-2,5-diene-1,4-diyl)-1,2-dicarba-closo-dodecaborane
_symmetry_cell_setting           orthorhombic
_symmetry_space_group_name_H-M   'P b c a'
_symmetry_Int_Tables_number      61
_space_group_name_Hall           '-P 2ac 2ab'
loop_
_symmetry_equiv_pos_site_id
_symmetry_equiv_pos_as_xyz
1 x,y,z
2 1/2-x,-y,1/2+z
3 -x,1/2+y,1/2-z
4 1/2+x,1/2-y,-z
5 -x,-y,-z
6 1/2+x,y,1/2-z
7 x,1/2-y,1/2+z
8 1/2-x,1/2+y,z
_cell_length_a                   13.8031(7)
_cell_length_b                   14.1630(8)
_cell_length_c                   18.1401(9)
_cell_angle_alpha                90
_cell_angle_beta                 90
_cell_angle_gamma                90
_cell_volume                     3546.27
_exptl_crystal_colour            colorless
_exptl_crystal_description       block
_cell_formula_units_Z            8
loop_
_atom_site_label
_atom_site_type_symbol
_atom_site_fract_x
_atom_site_fract_y
_atom_site_fract_z
Si1 Si 0.78564(4) 0.06782(4) 0.51361(3)
C1 C 0.56835(12) 0.04778(11) 0.69095(9)
C2 C 0.62683(12) 0.10082(11) 0.62640(8)
C3 C 0.60585(15) -0.05659(12) 0.69702(10)
H1 H 0.5726 -0.0920 0.7359
C4 C 0.59329(14) -0.10179(12) 0.62202(11)
H2 H 0.5549 -0.1548 0.6142
C5 C 0.64153(12) -0.05926(12) 0.56887(10)
H3 H 0.6391 -0.0803 0.5203
C6 C 0.70207(11) 0.02716(11) 0.59157(9)
C7 C 0.71431(15) -0.05269(14) 0.70917(11)
H4 H 0.7442 -0.0784 0.7505
C8 C 0.76251(14) -0.01011(14) 0.65662(10)
H5 H 0.8294 -0.0028 0.6585
C9 C 0.8527(2) -0.0410(2) 0.48642(17)
H6 H 0.8969 -0.0264 0.4472
H7 H 0.8075 -0.0881 0.4701
H8 H 0.8882 -0.0646 0.5280
C10 C 0.71917(17) 0.1142(2) 0.43239(11)
H9 H 0.7647 0.1336 0.3953
H10 H 0.6805 0.1674 0.4470
H11 H 0.6780 0.0657 0.4128
C11 C 0.87209(15) 0.15840(17) 0.54741(12)
H12 H 0.9134 0.1779 0.5077
H13 H 0.9108 0.1322 0.5864
H14 H 0.8368 0.2119 0.5657
B1 B 0.50380(14) 0.07481(14) 0.61047(11)
H15 H 0.4770 0.0238 0.5696
B2 B 0.45033(15) 0.08470(15) 0.69782(12)
H16 H 0.3901 0.0384 0.7144
B3 B 0.53841(17) 0.12144(17) 0.76261(12)
H17 H 0.5346 0.0986 0.8205
B4 B 0.65068(16) 0.13596(15) 0.71799(11)
H18 H 0.7195 0.1250 0.7473
B5 B 0.55180(16) 0.18294(15) 0.58310(12)
H19 H 0.5583 0.2016 0.5245
B6 B 0.43815(16) 0.17569(16) 0.63018(13)
H20 H 0.3689 0.1912 0.6027
B7 B 0.45744(17) 0.20523(16) 0.72413(14)
H21 H 0.4007 0.2388 0.7577
B8 B 0.58084(18) 0.23582(17) 0.73471(14)
H22 H 0.6036 0.2901 0.7745
B9 B 0.64034(17) 0.22024(14) 0.64741(13)
H23 H 0.7029 0.2626 0.6296
B10 B 0.52023(19) 0.26634(16) 0.65251(15)
H24 H 0.5044 0.3404 0.6389
loop_
_geom_bond_atom_site_label_1
_geom_bond_atom_site_label_2
_geom_bond_site_symmetry_1
_geom_bond_site_symmetry_2
Si1 C6 1_555 1_555
C1 C2 1_555 1_555
C2 C6 1_555 1_555
C3 C1 1_555 1_555
H1 C3 1_555 1_555
C4 C3 1_555 1_555
H2 C4 1_555 1_555
C5 C4 1_555 1_555
H3 C5 1_555 1_555
C6 C5 1_555 1_555
C7 C3 1_555 1_555
H4 C7 1_555 1_555
C8 C6 1_555 1_555
H5 C8 1_555 1_555
C9 Si1 1_555 1_555
H6 C9 1_555 1_555
H7 C9 1_555 1_555
H8 C9 1_555 1_555
C10 Si1 1_555 1_555
H9 C10 1_555 1_555
H10 C10 1_555 1_555
H11 C10 1_555 1_555
C11 Si1 1_555 1_555
H12 C11 1_555 1_555
H13 C11 1_555 1_555
H14 C11 1_555 1_555
B1 C1 1_555 1_555
H15 B1 1_555 1_555
B2 C1 1_555 1_555
H16 B2 1_555 1_555
B3 C1 1_555 1_555
H17 B3 1_555 1_555
B4 C1 1_555 1_555
H18 B4 1_555 1_555
B5 C2 1_555 1_555
H19 B5 1_555 1_555
B6 B1 1_555 1_555
H20 B6 1_555 1_555
B7 B2 1_555 1_555
H21 B7 1_555 1_555
B8 B3 1_555 1_555
H22 B8 1_555 1_555
B9 C2 1_555 1_555
H23 B9 1_555 1_555
B10 B5 1_555 1_555
H24 B10 1_555 1_555
C2 B1 1_555 1_555
C2 B4 1_555 1_555
C7 C8 1_555 1_555
B1 B2 1_555 1_555
B1 B5 1_555 1_555
B2 B3 1_555 1_555
B2 B6 1_555 1_555
B3 B4 1_555 1_555
B3 B7 1_555 1_555
B4 B8 1_555 1_555
B4 B9 1_555 1_555
B5 B6 1_555 1_555
B5 B9 1_555 1_555
B6 B7 1_555 1_555
B6 B10 1_555 1_555
B7 B8 1_555 1_555
B7 B10 1_555 1_555
B8 B9 1_555 1_555
B8 B10 1_555 1_555
B9 B10 1_555 1_555

#END
