
#######################################################################
#
#                 Cambridge Crystallographic Data Centre
#                                CCDC 
#
#######################################################################
#
# If this CIF has been generated from an entry in the Cambridge 
# Structural Database, then it will include bibliographic, chemical, 
# crystal, experimental, refinement or atomic coordinate data resulting 
# from the CCDC's data processing and validation procedures.
#
#######################################################################

data_CESZIL
_chemical_formula_moiety         'C9 H18 B10'
_chemical_name_systematic        
1,2-(1-Methylcyclohexa-2,5-diene-1,4-diyl)-1,2-dicarba-closo-dodecaborane
_symmetry_cell_setting           monoclinic
_symmetry_space_group_name_H-M   'P 21/n'
_symmetry_Int_Tables_number      14
_space_group_name_Hall           '-P 2yn'
loop_
_symmetry_equiv_pos_site_id
_symmetry_equiv_pos_as_xyz
1 x,y,z
2 1/2-x,1/2+y,1/2-z
3 -x,-y,-z
4 1/2+x,1/2-y,1/2+z
_cell_length_a                   7.8518(8)
_cell_length_b                   11.1980(12)
_cell_length_c                   15.7007(16)
_cell_angle_alpha                90
_cell_angle_beta                 90.659(2)
_cell_angle_gamma                90
_cell_volume                     1380.38
_exptl_crystal_colour            colorless
_exptl_crystal_description       block
_cell_formula_units_Z            4
loop_
_atom_site_label
_atom_site_type_symbol
_atom_site_fract_x
_atom_site_fract_y
_atom_site_fract_z
C1 C 0.07036(17) 0.23518(12) 0.58198(9)
C2 C 0.21138(17) 0.24651(12) 0.65580(9)
C3 C 0.1550(2) 0.26985(13) 0.49321(9)
C4 C 0.0270(3) 0.26224(17) 0.41998(10)
H1 H 0.0817 0.2836 0.3678
H2 H -0.0656 0.3162 0.4302
H3 H -0.0159 0.1822 0.4157
C5 C 0.2327(2) 0.39400(14) 0.50536(11)
H4 H 0.1999 0.4589 0.4720
C6 C 0.3490(2) 0.40307(15) 0.56612(11)
H5 H 0.4050 0.4742 0.5787
C7 C 0.38382(19) 0.28713(15) 0.61394(10)
H6 H 0.4762 0.2955 0.6560
C8 C 0.3099(2) 0.18798(14) 0.48380(10)
H7 H 0.3212 0.1358 0.4381
C9 C 0.4260(2) 0.19643(16) 0.54478(11)
H8 H 0.5251 0.1510 0.5456
B1 B 0.0470(2) 0.35355(14) 0.65529(11)
H9 H 0.0610 0.4491 0.6407
B2 B -0.1306(2) 0.27242(15) 0.61889(12)
H10 H -0.2299 0.3145 0.5790
B3 B -0.0722(2) 0.12062(15) 0.60297(11)
H11 H -0.1343 0.0667 0.5530
B4 B 0.1434(2) 0.10094(14) 0.62901(10)
H12 H 0.2200 0.0320 0.5975
B5 B 0.1251(2) 0.29364(16) 0.75156(11)
H13 H 0.1933 0.3495 0.7984
B6 B -0.0990(2) 0.30639(16) 0.72973(12)
H14 H -0.1802 0.3702 0.7638
B7 B -0.1766(2) 0.16386(17) 0.69876(13)
H15 H -0.3080 0.1361 0.7121
B8 B -0.0050(2) 0.06138(15) 0.70445(11)
H16 H -0.0258 -0.0324 0.7224
B9 B 0.1833(2) 0.14190(15) 0.73529(11)
H17 H 0.2891 0.1019 0.7719
B10 B -0.0176(2) 0.17676(16) 0.78112(12)
H18 H -0.0447 0.1573 0.8483
loop_
_geom_bond_atom_site_label_1
_geom_bond_atom_site_label_2
_geom_bond_site_symmetry_1
_geom_bond_site_symmetry_2
C1 C2 1_555 1_555
C2 C7 1_555 1_555
C3 C1 1_555 1_555
C4 C3 1_555 1_555
H1 C4 1_555 1_555
H2 C4 1_555 1_555
H3 C4 1_555 1_555
C5 C3 1_555 1_555
H4 C5 1_555 1_555
C6 C5 1_555 1_555
H5 C6 1_555 1_555
C7 C6 1_555 1_555
H6 C7 1_555 1_555
C8 C3 1_555 1_555
H7 C8 1_555 1_555
C9 C7 1_555 1_555
H8 C9 1_555 1_555
B1 C1 1_555 1_555
H9 B1 1_555 1_555
B2 C1 1_555 1_555
H10 B2 1_555 1_555
B3 C1 1_555 1_555
H11 B3 1_555 1_555
B4 C1 1_555 1_555
H12 B4 1_555 1_555
B5 C2 1_555 1_555
H13 B5 1_555 1_555
B6 B1 1_555 1_555
H14 B6 1_555 1_555
B7 B2 1_555 1_555
H15 B7 1_555 1_555
B8 B3 1_555 1_555
H16 B8 1_555 1_555
B9 C2 1_555 1_555
H17 B9 1_555 1_555
B10 B5 1_555 1_555
H18 B10 1_555 1_555
C2 B1 1_555 1_555
C2 B4 1_555 1_555
C8 C9 1_555 1_555
B1 B2 1_555 1_555
B1 B5 1_555 1_555
B2 B3 1_555 1_555
B2 B6 1_555 1_555
B3 B4 1_555 1_555
B3 B7 1_555 1_555
B4 B8 1_555 1_555
B4 B9 1_555 1_555
B5 B6 1_555 1_555
B5 B9 1_555 1_555
B6 B7 1_555 1_555
B6 B10 1_555 1_555
B7 B8 1_555 1_555
B7 B10 1_555 1_555
B8 B9 1_555 1_555
B8 B10 1_555 1_555
B9 B10 1_555 1_555

#END
