
#######################################################################
#
#                 Cambridge Crystallographic Data Centre
#                                CCDC 
#
#######################################################################
#
# If this CIF has been generated from an entry in the Cambridge 
# Structural Database, then it will include bibliographic, chemical, 
# crystal, experimental, refinement or atomic coordinate data resulting 
# from the CCDC's data processing and validation procedures.
#
#######################################################################

data_CESZEH
_chemical_formula_moiety         'C12 H24 B10'
_chemical_name_systematic        
1,2-(1-t-Butylcyclohexa-2,5-diene-1,4-diyl)-1,2-dicarba-closo-dodecaborane
_symmetry_cell_setting           orthorhombic
_symmetry_space_group_name_H-M   'P n m a'
_symmetry_Int_Tables_number      62
_space_group_name_Hall           '-P 2ac 2n'
loop_
_symmetry_equiv_pos_site_id
_symmetry_equiv_pos_as_xyz
1 x,y,z
2 1/2-x,-y,1/2+z
3 -x,1/2+y,-z
4 1/2+x,1/2-y,1/2-z
5 -x,-y,-z
6 1/2+x,y,1/2-z
7 x,1/2-y,z
8 1/2-x,1/2+y,1/2+z
_cell_length_a                   13.7034(7)
_cell_length_b                   11.7088(6)
_cell_length_c                   10.3673(5)
_cell_angle_alpha                90
_cell_angle_beta                 90
_cell_angle_gamma                90
_cell_volume                     1663.44
_exptl_crystal_colour            colorless
_exptl_crystal_description       block
_cell_formula_units_Z            4
loop_
_atom_site_label
_atom_site_type_symbol
_atom_site_fract_x
_atom_site_fract_y
_atom_site_fract_z
B1 B 0.32680(15) 0.37545(18) 0.56334(19)
H1 H 0.2967 0.4573 0.5298
B2 B 0.30663(15) 0.32526(18) 0.72160(18)
H2 H 0.2612 0.3733 0.7901
B3 B 0.43901(14) 0.3256(2) 0.50679(19)
H3 H 0.4813 0.3736 0.4347
B4 B 0.42381(17) 0.3723(2) 0.6701(2)
H4 H 0.4571 0.4514 0.7067
B5 B 0.4129(2) 0.2500 0.7691(3)
H5 H 0.4387 0.2500 0.8696
B6 B 0.4945(2) 0.2500 0.6355(3)
H6 H 0.5742 0.2500 0.6487
C1 C 0.26096(16) 0.2500 0.5932(2)
C2 C 0.33165(15) 0.2500 0.4692(2)
C3 C 0.15129(17) 0.2500 0.5496(3)
H7 H 0.1062 0.2500 0.6229
C4 C 0.13723(14) 0.35202(19) 0.4635(2)
H8 H 0.0928 0.4098 0.4817
C5 C 0.19330(13) 0.35270(17) 0.36006(18)
H9 H 0.1918 0.4126 0.3012
C6 C 0.26088(16) 0.2500 0.3417(2)
C7 C 0.31087(19) 0.2500 0.2059(2)
C8 C 0.2290(2) 0.2500 0.1038(3)
C9 C 0.37354(18) 0.3564(2) 0.1844(2)
H10 H 0.4028 0.3531 0.1003
H11 H 0.4238 0.3596 0.2488
H12 H 0.3334 0.4234 0.1906
B1F B 0.32680(15) 0.12455(18) 0.56334(19)
H1F H 0.2967 0.0427 0.5298
B2F B 0.30663(15) 0.17474(18) 0.72160(18)
H2F H 0.2612 0.1267 0.7901
B3F B 0.43901(14) 0.1744(2) 0.50679(19)
H3F H 0.4813 0.1264 0.4347
B4F B 0.42381(17) 0.1277(2) 0.6701(2)
H4F H 0.4571 0.0486 0.7067
C4F C 0.13723(14) 0.14798(19) 0.4635(2)
H8F H 0.0928 0.0902 0.4817
C5F C 0.19330(13) 0.14730(17) 0.36006(18)
H9F H 0.1918 0.0874 0.3012
C9F C 0.37354(18) 0.1436(2) 0.1844(2)
H10F H 0.4028 0.1469 0.1003
H11F H 0.4238 0.1404 0.2488
H12F H 0.3334 0.0766 0.1906
H13? H 0.1900 0.3175 0.1136
H14? H 0.2574 0.2511 0.0191
H15? H 0.1888 0.3164 0.1152
H16? H 0.2574 0.2489 0.0191
H17? H 0.2574 0.2511 0.0191
H18? H 0.2574 0.2511 0.0191
H19? H 0.2574 0.2489 0.0191
H20? H 0.2574 0.2489 0.0191
H21? H 0.2574 0.2489 0.0191
H22? H 0.2574 0.2511 0.0191
H23? H 0.2574 0.2489 0.0191
H24? H 0.2574 0.2511 0.0191
H25? H 0.2574 0.2511 0.0191
H26? H 0.2574 0.2511 0.0191
H27? H 0.2574 0.2489 0.0191
H28? H 0.2574 0.2511 0.0191
H29? H 0.2574 0.2511 0.0191
H30? H 0.2574 0.2511 0.0191
H31? H 0.2574 0.2489 0.0191
H32? H 0.2574 0.2511 0.0191
H33? H 0.2574 0.2489 0.0191
H34? H 0.2574 0.2489 0.0191
H35? H 0.2574 0.2489 0.0191
H36? H 0.2574 0.2511 0.0191
H37? H 0.2574 0.2511 0.0191
H38? H 0.2574 0.2511 0.0191
H39? H 0.2574 0.2489 0.0191
H40? H 0.2574 0.2511 0.0191
H41? H 0.2574 0.2489 0.0191
H42? H 0.2574 0.2489 0.0191
H43? H 0.2574 0.2489 0.0191
H44? H 0.2574 0.2511 0.0191
H45? H 0.2574 0.2489 0.0191
H46? H 0.2574 0.2489 0.0191
H47? H 0.2574 0.2489 0.0191
H48? H 0.2574 0.2511 0.0191
H49? H 0.2574 0.2489 0.0191
H50? H 0.2574 0.2511 0.0191
H51? H 0.2574 0.2511 0.0191
H52? H 0.2574 0.2511 0.0191
H53? H 0.2574 0.2489 0.0191
H54? H 0.2574 0.2511 0.0191
H55? H 0.2574 0.2489 0.0191
H56? H 0.2574 0.2511 0.0191
H57? H 0.2574 0.2489 0.0191
H58? H 0.2574 0.2489 0.0191
H59? H 0.2574 0.2489 0.0191
H60? H 0.2574 0.2511 0.0191
H61? H 0.2574 0.2489 0.0191
H62? H 0.2574 0.2489 0.0191
H63? H 0.2574 0.2489 0.0191
H64? H 0.2574 0.2511 0.0191
H65? H 0.2574 0.2489 0.0191
H66? H 0.2574 0.2511 0.0191
H67? H 0.2574 0.2511 0.0191
H68? H 0.2574 0.2511 0.0191
H69? H 0.2574 0.2489 0.0191
H70? H 0.2574 0.2489 0.0191
H71? H 0.2574 0.2489 0.0191
H72? H 0.2574 0.2511 0.0191
H73? H 0.2574 0.2489 0.0191
H74? H 0.2574 0.2511 0.0191
H75? H 0.2574 0.2511 0.0191
H76? H 0.2574 0.2511 0.0191
H77? H 0.2574 0.2489 0.0191
H78? H 0.2574 0.2511 0.0191
H79? H 0.2574 0.2511 0.0191
H80? H 0.2574 0.2511 0.0191
H81? H 0.2574 0.2489 0.0191
H82? H 0.2574 0.2511 0.0191
H83? H 0.2574 0.2489 0.0191
H84? H 0.2574 0.2489 0.0191
H85? H 0.2574 0.2489 0.0191
H86? H 0.2574 0.2511 0.0191
loop_
_geom_bond_atom_site_label_1
_geom_bond_atom_site_label_2
_geom_bond_site_symmetry_1
_geom_bond_site_symmetry_2
B1 H1 1_555 1_555
B2 B1 1_555 1_555
H2 B2 1_555 1_555
B3 B1 1_555 1_555
H3 B3 1_555 1_555
B4 B1 1_555 1_555
H4 B4 1_555 1_555
B5 B2 1_555 1_555
H5 B5 1_555 1_555
B6 B3 1_555 1_555
H6 B6 1_555 1_555
C1 B1 1_555 1_555
C2 B1 1_555 1_555
C3 C1 1_555 1_555
H7 C3 1_555 1_555
C4 C3 1_555 1_555
H8 C4 1_555 1_555
C5 C4 1_555 1_555
H9 C5 1_555 1_555
C6 C2 1_555 1_555
C7 C6 1_555 1_555
C8 C7 1_555 1_555
C9 C7 1_555 1_555
H10 C9 1_555 1_555
H11 C9 1_555 1_555
H12 C9 1_555 1_555
B1F C1 1_555 1_555
H1F B1F 1_555 1_555
B2F B2 1_555 1_555
H2F B2F 1_555 1_555
B3F B3 1_555 1_555
H3F B3F 1_555 1_555
B4F B5 1_555 1_555
H4F B4F 1_555 1_555
C4F C3 1_555 1_555
H8F C4F 1_555 1_555
C5F C6 1_555 1_555
H9F C5F 1_555 1_555
C9F C7 1_555 1_555
H10F C9F 1_555 1_555
H11F C9F 1_555 1_555
H12F C9F 1_555 1_555
B2 B4 1_555 1_555
B2 C1 1_555 1_555
B3 B4 1_555 1_555
B3 C2 1_555 1_555
B4 B5 1_555 1_555
B4 B6 1_555 1_555
B5 B6 1_555 1_555
B5 B2F 1_555 1_555
B6 B3F 1_555 1_555
B6 B4F 1_555 1_555
C1 C2 1_555 1_555
C1 B2F 1_555 1_555
C2 B1F 1_555 1_555
C2 B3F 1_555 1_555
C5 C6 1_555 1_555
B1F B2F 1_555 1_555
B1F B3F 1_555 1_555
B1F B4F 1_555 1_555
B2F B4F 1_555 1_555
B3F B4F 1_555 1_555
C4F C5F 1_555 1_555

#END
