
#######################################################################
#
#                 Cambridge Crystallographic Data Centre
#                                CCDC 
#
#######################################################################
#
# If this CIF has been generated from an entry in the Cambridge 
# Structural Database, then it will include bibliographic, chemical, 
# crystal, experimental, refinement or atomic coordinate data resulting 
# from the CCDC's data processing and validation procedures.
#
#######################################################################

data_CETCAG
_chemical_formula_moiety         'C13 H16 O3'
_chemical_name_systematic        4-Isopropoxy-5-methoxyindan-1-one
_symmetry_cell_setting           monoclinic
_symmetry_space_group_name_H-M   'C 2/c'
_symmetry_Int_Tables_number      15
_space_group_name_Hall           '-C 2yn'
loop_
_symmetry_equiv_pos_site_id
_symmetry_equiv_pos_as_xyz
1 x,y,z
2 1/2+x,1/2+y,z
3 -x,y,1/2-z
4 1/2-x,1/2+y,1/2-z
5 -x,-y,-z
6 1/2-x,1/2-y,-z
7 x,-y,1/2+z
8 1/2+x,1/2-y,1/2+z
_cell_length_a                   24.9870(8)
_cell_length_b                   4.75200(10)
_cell_length_c                   20.3990(7)
_cell_angle_alpha                90
_cell_angle_beta                 107.361(2)
_cell_angle_gamma                90
_cell_volume                     2311.8
_exptl_crystal_colour            colorless
_exptl_crystal_description       needle
_chemical_melting_point          '52-55 deg.C'
_cell_formula_units_Z            8
_exptl_crystal_recrystallization_method 'ethyl acetate/hexane'
loop_
_atom_site_label
_atom_site_type_symbol
_atom_site_fract_x
_atom_site_fract_y
_atom_site_fract_z
C1 C 0.58361(6) 0.2828(3) 0.73940(7)
C2 C 0.54622(6) 0.0724(3) 0.69111(7)
H1 H 0.5065 0.1330 0.6788
H2 H 0.5496 -0.1154 0.7129
C3 C 0.56637(5) 0.0622(3) 0.62673(7)
H3 H 0.5794 -0.1291 0.6198
H4 H 0.5359 0.1177 0.5853
C4 C 0.61407(5) 0.2705(3) 0.64167(7)
C5 C 0.64684(5) 0.3385(3) 0.60008(6)
C6 C 0.68976(5) 0.5385(3) 0.62409(7)
C7 C 0.69798(6) 0.6693(3) 0.68769(7)
H5 H 0.7265 0.8077 0.7028
C8 C 0.66486(6) 0.5984(3) 0.72882(7)
H6 H 0.6704 0.6864 0.7721
C9 C 0.62334(5) 0.3961(3) 0.70562(7)
C10 C 0.62181(5) 0.3577(3) 0.47666(7)
H7 H 0.6434 0.5381 0.4831
C11 C 0.56032(6) 0.4231(4) 0.45941(8)
H8 H 0.5391 0.2471 0.4550
H9 H 0.5482 0.5266 0.4159
H10 H 0.5536 0.5381 0.4960
C12 C 0.63674(8) 0.1843(3) 0.42347(8)
H11 H 0.6771 0.1460 0.4384
H12 H 0.6268 0.2871 0.3798
H13 H 0.6161 0.0061 0.4173
C13 C 0.76159(6) 0.8140(3) 0.59946(8)
H14 H 0.7425 0.9878 0.6056
H15 H 0.7788 0.8400 0.5625
H16 H 0.7907 0.7684 0.6423
O1 O 0.58091(5) 0.3452(2) 0.79610(5)
O2 O 0.63992(4) 0.19462(18) 0.53995(4)
O3 O 0.72182(4) 0.58899(19) 0.58195(5)
loop_
_geom_bond_atom_site_label_1
_geom_bond_atom_site_label_2
_geom_bond_site_symmetry_1
_geom_bond_site_symmetry_2
C1 C2 1_555 1_555
C2 H1 1_555 1_555
H2 C2 1_555 1_555
C3 C2 1_555 1_555
H3 C3 1_555 1_555
H4 C3 1_555 1_555
C4 C3 1_555 1_555
C5 C4 1_555 1_555
C6 C5 1_555 1_555
C7 C6 1_555 1_555
H5 C7 1_555 1_555
C8 C7 1_555 1_555
H6 C8 1_555 1_555
C9 C1 1_555 1_555
C10 H7 1_555 1_555
C11 C10 1_555 1_555
H8 C11 1_555 1_555
H9 C11 1_555 1_555
H10 C11 1_555 1_555
C12 C10 1_555 1_555
H11 C12 1_555 1_555
H12 C12 1_555 1_555
H13 C12 1_555 1_555
C13 H14 1_555 1_555
H15 C13 1_555 1_555
H16 C13 1_555 1_555
O1 C1 1_555 1_555
O2 C5 1_555 1_555
O3 C6 1_555 1_555
C4 C9 1_555 1_555
C8 C9 1_555 1_555
C10 O2 1_555 1_555
C13 O3 1_555 1_555

#END
