
#######################################################################
#
#                 Cambridge Crystallographic Data Centre
#                                CCDC 
#
#######################################################################
#
# If this CIF has been generated from an entry in the Cambridge 
# Structural Database, then it will include bibliographic, chemical, 
# crystal, experimental, refinement or atomic coordinate data resulting 
# from the CCDC's data processing and validation procedures.
#
#######################################################################

data_CETCEK
_chemical_formula_moiety         'C19 H18 O3'
_chemical_name_systematic        4-Isopropoxy-5-methoxy-3-phenylinden-1-one
_symmetry_cell_setting           triclinic
_symmetry_space_group_name_H-M   'P -1'
_symmetry_Int_Tables_number      2
_space_group_name_Hall           '-P 1'
loop_
_symmetry_equiv_pos_site_id
_symmetry_equiv_pos_as_xyz
1 x,y,z
2 -x,-y,-z
_cell_length_a                   6.1400(5)
_cell_length_b                   8.6324(7)
_cell_length_c                   14.9839(14)
_cell_angle_alpha                79.603(5)
_cell_angle_beta                 81.924(5)
_cell_angle_gamma                85.581(5)
_cell_volume                     772.313
_exptl_crystal_colour            yellow
_exptl_crystal_description       plate
_chemical_melting_point          '63-68 deg.C'
_cell_formula_units_Z            2
_exptl_crystal_recrystallization_method 'ethyl acetate/hexane'
loop_
_atom_site_label
_atom_site_type_symbol
_atom_site_fract_x
_atom_site_fract_y
_atom_site_fract_z
C1 C 0.7008(3) 0.85052(19) 0.02415(11)
C2 C 0.7359(3) 0.94618(19) 0.09449(11)
H1 H 0.8577 1.0096 0.0908
C3 C 0.5682(3) 0.92882(18) 0.16404(11)
C4 C 0.4160(2) 0.81227(17) 0.14662(10)
C5 C 0.2393(2) 0.73918(18) 0.19970(10)
C6 C 0.1314(2) 0.62785(18) 0.16299(11)
C7 C 0.2024(3) 0.5958(2) 0.07595(11)
H2 H 0.1265 0.5243 0.0517
C8 C 0.3860(3) 0.66862(19) 0.02363(11)
H3 H 0.4365 0.6465 -0.0359
C9 C 0.4915(2) 0.77237(18) 0.05991(10)
C10 C 0.5340(2) 1.01566(18) 0.24226(10)
C11 C 0.7017(3) 1.0157(2) 0.29600(12)
H4 H 0.8393 0.9614 0.2819
C12 C 0.6687(3) 1.0947(2) 0.37012(13)
H5 H 0.7821 1.0915 0.4076
C13 C 0.4716(3) 1.1780(2) 0.38945(13)
H6 H 0.4495 1.2324 0.4400
C14 C 0.3063(3) 1.1817(2) 0.33489(13)
H7 H 0.1718 1.2407 0.3473
C15 C 0.3361(3) 1.10005(19) 0.26240(12)
H8 H 0.2207 1.1015 0.2261
C16 C 0.2012(3) 0.6554(2) 0.36342(11)
H9 H 0.1493 0.5519 0.3561
C17 C 0.4425(3) 0.6381(3) 0.37354(14)
H10 H 0.5271 0.6157 0.3164
H11 H 0.4683 0.5512 0.4235
H12 H 0.4893 0.7362 0.3874
C18 C 0.0669(4) 0.7116(3) 0.44392(14)
H13 H 0.1069 0.8181 0.4469
H14 H 0.0958 0.6401 0.5002
H15 H -0.0899 0.7134 0.4374
C19 C -0.1546(3) 0.4462(2) 0.18657(13)
H16 H -0.2216 0.4978 0.1324
H17 H -0.2697 0.4018 0.2344
H18 H -0.0492 0.3615 0.1702
O1 O 0.81833(19) 0.83662(14) -0.04727(8)
O2 O 0.15934(17) 0.77481(12) 0.28457(7)
O3 O -0.04189(18) 0.55997(14) 0.21980(8)
loop_
_geom_bond_atom_site_label_1
_geom_bond_atom_site_label_2
_geom_bond_site_symmetry_1
_geom_bond_site_symmetry_2
C1 C2 1_555 1_555
C2 H1 1_555 1_555
C3 C2 1_555 1_555
C4 C3 1_555 1_555
C5 C4 1_555 1_555
C6 C5 1_555 1_555
C7 C6 1_555 1_555
H2 C7 1_555 1_555
C8 C7 1_555 1_555
H3 C8 1_555 1_555
C9 C1 1_555 1_555
C10 C3 1_555 1_555
C11 C10 1_555 1_555
H4 C11 1_555 1_555
C12 C11 1_555 1_555
H5 C12 1_555 1_555
C13 C12 1_555 1_555
H6 C13 1_555 1_555
C14 C13 1_555 1_555
H7 C14 1_555 1_555
C15 C10 1_555 1_555
H8 C15 1_555 1_555
C16 H9 1_555 1_555
C17 C16 1_555 1_555
H10 C17 1_555 1_555
H11 C17 1_555 1_555
H12 C17 1_555 1_555
C18 C16 1_555 1_555
H13 C18 1_555 1_555
H14 C18 1_555 1_555
H15 C18 1_555 1_555
C19 H16 1_555 1_555
H17 C19 1_555 1_555
H18 C19 1_555 1_555
O1 C1 1_555 1_555
O2 C5 1_555 1_555
O3 C6 1_555 1_555
C4 C9 1_555 1_555
C8 C9 1_555 1_555
C14 C15 1_555 1_555
C16 O2 1_555 1_555
C19 O3 1_555 1_555

#END
