
#######################################################################
#
#                 Cambridge Crystallographic Data Centre
#                                CCDC 
#
#######################################################################
#
# If this CIF has been generated from an entry in the Cambridge 
# Structural Database, then it will include bibliographic, chemical, 
# crystal, experimental, refinement or atomic coordinate data resulting 
# from the CCDC's data processing and validation procedures.
#
#######################################################################

data_CETHUE
_chemical_formula_moiety         'C22 H16 N2'
_chemical_name_systematic        
(2)(1,3)Benzeno(0)(2,3)quinoxalino(0)(1,3)benzenophane
_symmetry_cell_setting           monoclinic
_symmetry_space_group_name_H-M   'P 21/c'
_symmetry_Int_Tables_number      14
_space_group_name_Hall           '-P 2ybc'
loop_
_symmetry_equiv_pos_site_id
_symmetry_equiv_pos_as_xyz
1 x,y,z
2 -x,1/2+y,1/2-z
3 -x,-y,-z
4 x,1/2-y,1/2+z
_cell_length_a                   9.401(2)
_cell_length_b                   14.252(2)
_cell_length_c                   11.863(2)
_cell_angle_alpha                90
_cell_angle_beta                 92.24(1)
_cell_angle_gamma                90
_cell_volume                     1588.23
_exptl_crystal_colour            yellow
_chemical_melting_point          199-201deg.C
_cell_formula_units_Z            4
loop_
_atom_site_label
_atom_site_type_symbol
_atom_site_fract_x
_atom_site_fract_y
_atom_site_fract_z
C1 C 0.68350 0.82020 -0.32360
C2 C 0.73770 0.91430 -0.37660
C3 C 0.68940 0.99750 -0.30830
C4 C 0.55730 1.03880 -0.33120
C5 C 0.49550 1.09590 -0.25340
C6 C 0.55640 1.10410 -0.14610
C7 C 0.68720 1.06260 -0.11950
C8 C 0.75890 1.01860 -0.20640
C9 C 0.73240 1.05060 0.00140
N1 N 0.71160 1.12220 0.06870
C10 C 0.74710 1.11160 0.18080
C11 C 0.72460 1.18570 0.25630
C12 C 0.76040 1.17630 0.36730
C13 C 0.82220 1.09280 0.40820
C14 C 0.84680 1.02000 0.33720
C15 C 0.80860 1.02870 0.22180
N2 N 0.82640 0.95280 0.15240
C16 C 0.78520 0.96150 0.04550
C17 C 0.80560 0.87800 -0.02740
C18 C 0.93300 0.82880 -0.01790
C19 C 0.96820 0.76560 -0.10090
C20 C 0.88460 0.75810 -0.19860
C21 C 0.75570 0.80550 -0.20960
C22 C 0.71130 0.85700 -0.11780
H1 H 0.70400 0.76700 -0.37500
H2 H 0.57700 0.82500 -0.31800
H3 H 0.70100 0.91700 -0.45700
H4 H 0.84500 0.91400 -0.37900
H5 H 0.50700 1.02400 -0.40100
H6 H 0.40300 1.12400 -0.27200
H7 H 0.50600 1.13500 -0.08400
H8 H 0.85600 0.99200 -0.18800
H9 H 0.68200 1.24200 0.22600
H10 H 0.74300 1.23000 0.42000
H11 H 0.85100 1.08700 0.49000
H12 H 0.89000 0.96300 0.36400
H13 H 0.99800 0.84100 0.05000
H14 H 1.05800 0.73100 -0.09600
H15 H 0.91900 0.72200 -0.26400
H16 H 0.61800 0.88900 -0.12100
loop_
_geom_bond_atom_site_label_1
_geom_bond_atom_site_label_2
_geom_bond_site_symmetry_1
_geom_bond_site_symmetry_2
C1 C2 1_555 1_555
C2 C3 1_555 1_555
C3 C4 1_555 1_555
C4 C5 1_555 1_555
C5 C6 1_555 1_555
C6 C7 1_555 1_555
C7 C8 1_555 1_555
C8 C3 1_555 1_555
C9 C7 1_555 1_555
N1 C9 1_555 1_555
C10 N1 1_555 1_555
C11 C10 1_555 1_555
C12 C11 1_555 1_555
C13 C12 1_555 1_555
C14 C13 1_555 1_555
C15 C10 1_555 1_555
N2 C15 1_555 1_555
C16 C9 1_555 1_555
C17 C16 1_555 1_555
C18 C17 1_555 1_555
C19 C18 1_555 1_555
C20 C19 1_555 1_555
C21 C1 1_555 1_555
C22 C17 1_555 1_555
H1 C1 1_555 1_555
H2 C1 1_555 1_555
H3 C2 1_555 1_555
H4 C2 1_555 1_555
H5 C4 1_555 1_555
H6 C5 1_555 1_555
H7 C6 1_555 1_555
H8 C8 1_555 1_555
H9 C11 1_555 1_555
H10 C12 1_555 1_555
H11 C13 1_555 1_555
H12 C14 1_555 1_555
H13 C18 1_555 1_555
H14 C19 1_555 1_555
H15 C20 1_555 1_555
H16 C22 1_555 1_555
C14 C15 1_555 1_555
N2 C16 1_555 1_555
C20 C21 1_555 1_555
C21 C22 1_555 1_555

#END
