
#######################################################################
#
#                 Cambridge Crystallographic Data Centre
#                                CCDC 
#
#######################################################################
#
# If this CIF has been generated from an entry in the Cambridge 
# Structural Database, then it will include bibliographic, chemical, 
# crystal, experimental, refinement or atomic coordinate data resulting 
# from the CCDC's data processing and validation procedures.
#
#######################################################################

data_CETJAM
_chemical_formula_moiety         'C18 H14 S1'
_chemical_name_systematic        
(2)(1,3)Benzeno(0)(3,4)thiopheno(0)(1,3)benzenophane
_symmetry_cell_setting           orthorhombic
_symmetry_space_group_name_H-M   'P 21 21 21'
_symmetry_Int_Tables_number      19
_space_group_name_Hall           'P 2ac 2ab'
loop_
_symmetry_equiv_pos_site_id
_symmetry_equiv_pos_as_xyz
1 x,y,z
2 1/2+x,1/2-y,-z
3 -x,1/2+y,1/2-z
4 1/2-x,-y,1/2+z
_cell_length_a                   7.533
_cell_length_b                   13.346
_cell_length_c                   13.350
_cell_angle_alpha                90
_cell_angle_beta                 90
_cell_angle_gamma                90
_cell_volume                     1342.15
_exptl_crystal_colour            yellowish
_chemical_melting_point          157-159deg.C
_cell_formula_units_Z            4
loop_
_atom_site_label
_atom_site_type_symbol
_atom_site_fract_x
_atom_site_fract_y
_atom_site_fract_z
C1 C 0.17410 -0.16810 0.10980
H1 H 0.10640 -0.23860 0.12040
H2 H 0.10640 -0.10900 0.11310
C2 C 0.23560 -0.17350 -0.00400
H3 H 0.12070 -0.18260 -0.05150
H4 H 0.32320 -0.23690 -0.01350
C3 C 0.33210 -0.07960 -0.03280
C4 C 0.24730 0.00230 -0.07140
H5 H 0.11530 -0.00670 -0.10160
C5 C 0.32540 0.09670 -0.07280
H6 H 0.25890 0.15870 -0.10860
C6 C 0.49060 0.11070 -0.02740
H7 H 0.54830 0.18460 -0.02280
C7 C 0.58030 0.02790 0.01160
C8 C 0.51070 -0.06620 -0.00180
H8 H 0.57850 -0.12230 0.02360
C9 C 0.73170 0.04350 0.08270
C10 C 0.86870 0.10930 0.06740
H9 H 0.88740 0.15240 -0.00020
S1 S 1.00700 0.11430 0.16860
C11 C 0.88270 0.03050 0.23490
H10 H 0.91390 0.00610 0.31010
C12 C 0.73810 -0.00270 0.18170
C13 C 0.61330 -0.08160 0.21560
C14 C 0.67600 -0.16990 0.25680
H11 H 0.81050 -0.17310 0.28410
C15 C 0.57050 -0.25370 0.26230
H12 H 0.61810 -0.32030 0.29950
C16 C 0.40180 -0.25190 0.21970
H13 H 0.32280 -0.31940 0.21830
C17 C 0.33480 -0.16500 0.17940
C18 C 0.43200 -0.07790 0.18800
H14 H 0.36940 -0.00650 0.17380
loop_
_geom_bond_atom_site_label_1
_geom_bond_atom_site_label_2
_geom_bond_site_symmetry_1
_geom_bond_site_symmetry_2
C1 H1 1_555 1_555
H2 C1 1_555 1_555
C2 C1 1_555 1_555
H3 C2 1_555 1_555
H4 C2 1_555 1_555
C3 C2 1_555 1_555
C4 C3 1_555 1_555
H5 C4 1_555 1_555
C5 C4 1_555 1_555
H6 C5 1_555 1_555
C6 C5 1_555 1_555
H7 C6 1_555 1_555
C7 C6 1_555 1_555
C8 C3 1_555 1_555
H8 C8 1_555 1_555
C9 C7 1_555 1_555
C10 C9 1_555 1_555
H9 C10 1_555 1_555
S1 C10 1_555 1_555
C11 S1 1_555 1_555
H10 C11 1_555 1_555
C12 C9 1_555 1_555
C13 C12 1_555 1_555
C14 C13 1_555 1_555
H11 C14 1_555 1_555
C15 C14 1_555 1_555
H12 C15 1_555 1_555
C16 C15 1_555 1_555
H13 C16 1_555 1_555
C17 C1 1_555 1_555
C18 C13 1_555 1_555
H14 C18 1_555 1_555
C7 C8 1_555 1_555
C11 C12 1_555 1_555
C16 C17 1_555 1_555
C17 C18 1_555 1_555

#END
