
#######################################################################
#
#                 Cambridge Crystallographic Data Centre
#                                CCDC 
#
#######################################################################
#
# If this CIF has been generated from an entry in the Cambridge 
# Structural Database, then it will include bibliographic, chemical, 
# crystal, experimental, refinement or atomic coordinate data resulting 
# from the CCDC's data processing and validation procedures.
#
#######################################################################

data_CETJOA
_chemical_formula_moiety         '3(C24 H39 O4 1-),3(Rb1 1+),10(H2 O1)'
_chemical_name_systematic        'tris(Rubidium deoxycholate) decahydrate'
_symmetry_cell_setting           monoclinic
_symmetry_space_group_name_H-M   'P 1 1 21'
_symmetry_Int_Tables_number      4
_space_group_name_Hall           'P 2c'
loop_
_symmetry_equiv_pos_site_id
_symmetry_equiv_pos_as_xyz
1 x,y,z
2 -x,-y,1/2+z
_cell_length_a                   19.834(13)
_cell_length_b                   19.312(14)
_cell_length_c                   11.586(4)
_cell_angle_alpha                90
_cell_angle_beta                 90
_cell_angle_gamma                116.70(3)
_cell_volume                     3964.63
_exptl_crystal_colour            colorless
_cell_formula_units_Z            2
loop_
_atom_site_label
_atom_site_type_symbol
_atom_site_fract_x
_atom_site_fract_y
_atom_site_fract_z
Rb1 Rb 0.15550 0.18040 -0.04990
Rb2 Rb 0.03640 0.06320 0.64430
Rb3 Rb 0.20840 0.03230 0.09490
O1 O 0.11010 0.19140 0.47150
O2 O 0.05960 0.21350 0.76330
O3 O 0.08160 -0.12680 1.15540
O4 O 0.23890 0.23680 0.72990
O5 O 0.26420 0.10890 0.88230
O6 O 0.18620 0.07670 0.61750
O7 O 0.03410 -0.13760 0.83300
O8 O 0.02770 -0.06020 0.46820
O9 O 0.07860 0.01390 0.89870
O10 O 0.10910 0.05070 0.23000
C1 C 0.16640 -0.28880 1.30620
C2 C 0.08520 -0.29520 1.32140
C3 C 0.03030 -0.38030 1.32990
C4 C 0.03470 -0.42290 1.22720
C5 C 0.11470 -0.41630 1.20980
C6 C 0.11570 -0.46260 1.09880
C7 C 0.10940 -0.42400 0.98540
C8 C 0.17100 -0.33980 0.98100
C9 C 0.16770 -0.29270 1.08570
C10 C 0.17410 -0.33060 1.20070
C11 C 0.22080 -0.20890 1.07270
C12 C 0.21570 -0.16860 0.96310
C13 C 0.22020 -0.21260 0.85120
C14 C 0.16150 -0.30050 0.87060
C15 C 0.16170 -0.33510 0.75300
C16 C 0.17360 -0.27100 0.66660
C17 C 0.19660 -0.19430 0.73720
C18 C 0.30220 -0.20510 0.84480
C19 C 0.25470 -0.32830 1.20750
C20 C 0.24580 -0.12280 0.67550
C21 C 0.26730 -0.05180 0.74160
C22 C 0.20390 -0.11640 0.55730
C23 C 0.25390 -0.05200 0.48130
C24 C 0.20860 -0.04740 0.37010
O11 O -0.04570 -0.39220 1.34330
O12 O 0.14380 -0.16490 0.96500
O13 O 0.21340 -0.07160 0.28760
O14 O 0.17710 -0.00270 0.41070
C25 C 0.51900 0.21720 1.12120
C26 C 0.44720 0.17520 1.15360
C27 C 0.42630 0.09200 1.18080
C28 C 0.44250 0.05150 1.07470
C29 C 0.52510 0.10290 1.03860
C30 C 0.54440 0.06770 0.93020
C31 C 0.50050 0.07100 0.82100
C32 C 0.51480 0.15570 0.79440
C33 C 0.49700 0.19230 0.90250
C34 C 0.54170 0.18750 1.01290
C35 C 0.51550 0.27650 0.86960
C36 C 0.46260 0.27970 0.77480
C37 C 0.47260 0.23720 0.66440
C38 C 0.46080 0.15570 0.70020
C39 C 0.46000 0.11580 0.58550
C40 C 0.41960 0.14650 0.49760
C41 C 0.41000 0.21230 0.56880
C42 C 0.55060 0.28640 0.61160
C43 C 0.62940 0.23860 1.00040
C44 C 0.40650 0.27210 0.48500
C45 C 0.41040 0.34470 0.54340
C46 C 0.33730 0.23350 0.41100
C47 C 0.32830 0.28040 0.31050
C48 C 0.26130 0.23300 0.23670
O15 O 0.34820 0.05270 1.20960
O16 O 0.38480 0.24680 0.80450
O17 O 0.26830 0.22290 0.13190
O18 O 0.19880 0.19400 0.28580
C49 C 0.28760 0.46360 0.96760
C50 C 0.29000 0.38570 0.98050
C51 C 0.37450 0.40270 0.99150
C52 C 0.41720 0.44880 0.88670
C53 C 0.41300 0.52460 0.86630
C54 C 0.45390 0.56730 0.76380
C55 C 0.41790 0.53060 0.64670
C56 C 0.33540 0.51500 0.64100
C57 C 0.29330 0.46800 0.74710
C58 C 0.32700 0.51070 0.86150
C59 C 0.20660 0.44110 0.73870
C60 C 0.17380 0.40050 0.62150
C61 C 0.21350 0.44720 0.51510
C62 C 0.29790 0.46770 0.53160
C63 C 0.33070 0.50210 0.40990
C64 C 0.26830 0.45740 0.32520
C65 C 0.19730 0.40580 0.39960
C66 C 0.20160 0.52040 0.50920
C67 C 0.32250 0.58750 0.87370
C68 C 0.12370 0.38860 0.33170
C69 C 0.05100 0.35020 0.40920
C70 C 0.11530 0.33470 0.23260
C71 C 0.04360 0.31050 0.15460
C72 C 0.04120 0.25250 0.06740
O19 O 0.38040 0.33070 0.99470
O20 O 0.17320 0.32510 0.62430
O21 O 0.06390 0.27420 -0.03000
O22 O 0.01410 0.18580 0.10500
loop_
_geom_bond_atom_site_label_1
_geom_bond_atom_site_label_2
_geom_bond_site_symmetry_1
_geom_bond_site_symmetry_2
C1 C2 1_555 1_555
C2 C3 1_555 1_555
C3 C4 1_555 1_555
C4 C5 1_555 1_555
C5 C6 1_555 1_555
C6 C7 1_555 1_555
C7 C8 1_555 1_555
C8 C9 1_555 1_555
C9 C10 1_555 1_555
C10 C1 1_555 1_555
C11 C9 1_555 1_555
C12 C11 1_555 1_555
C13 C12 1_555 1_555
C14 C8 1_555 1_555
C15 C14 1_555 1_555
C16 C15 1_555 1_555
C17 C13 1_555 1_555
C18 C13 1_555 1_555
C19 C10 1_555 1_555
C20 C17 1_555 1_555
C21 C20 1_555 1_555
C22 C20 1_555 1_555
C23 C22 1_555 1_555
C24 C23 1_555 1_555
O11 C3 1_555 1_555
O12 C12 1_555 1_555
O13 C24 1_555 1_555
O14 C24 1_555 1_555
C25 C26 1_555 1_555
C26 C27 1_555 1_555
C27 C28 1_555 1_555
C28 C29 1_555 1_555
C29 C30 1_555 1_555
C30 C31 1_555 1_555
C31 C32 1_555 1_555
C32 C33 1_555 1_555
C33 C34 1_555 1_555
C34 C25 1_555 1_555
C35 C33 1_555 1_555
C36 C35 1_555 1_555
C37 C36 1_555 1_555
C38 C32 1_555 1_555
C39 C38 1_555 1_555
C40 C39 1_555 1_555
C41 C37 1_555 1_555
C42 C37 1_555 1_555
C43 C34 1_555 1_555
C44 C41 1_555 1_555
C45 C44 1_555 1_555
C46 C44 1_555 1_555
C47 C46 1_555 1_555
C48 C47 1_555 1_555
O15 C27 1_555 1_555
O16 C36 1_555 1_555
O17 C48 1_555 1_555
O18 C48 1_555 1_555
C49 C50 1_555 1_555
C50 C51 1_555 1_555
C51 C52 1_555 1_555
C52 C53 1_555 1_555
C53 C54 1_555 1_555
C54 C55 1_555 1_555
C55 C56 1_555 1_555
C56 C57 1_555 1_555
C57 C58 1_555 1_555
C58 C49 1_555 1_555
C59 C57 1_555 1_555
C60 C59 1_555 1_555
C61 C60 1_555 1_555
C62 C56 1_555 1_555
C63 C62 1_555 1_555
C64 C63 1_555 1_555
C65 C61 1_555 1_555
C66 C61 1_555 1_555
C67 C58 1_555 1_555
C68 C65 1_555 1_555
C69 C68 1_555 1_555
C70 C68 1_555 1_555
C71 C70 1_555 1_555
C72 C71 1_555 1_555
O19 C51 1_555 1_555
O20 C60 1_555 1_555
O21 C72 1_555 1_555
O22 C72 1_555 1_555
C5 C10 1_555 1_555
C13 C14 1_555 1_555
C16 C17 1_555 1_555
C29 C34 1_555 1_555
C37 C38 1_555 1_555
C40 C41 1_555 1_555
C53 C58 1_555 1_555
C61 C62 1_555 1_555
C64 C65 1_555 1_555

#END
