
#######################################################################
#
#                 Cambridge Crystallographic Data Centre
#                                CCDC 
#
#######################################################################
#
# If this CIF has been generated from an entry in the Cambridge 
# Structural Database, then it will include bibliographic, chemical, 
# crystal, experimental, refinement or atomic coordinate data resulting 
# from the CCDC's data processing and validation procedures.
#
#######################################################################

data_CETKAQ
_chemical_compound_source        'Streptomyces solisilvae HNM30702'
_chemical_name_common            'Soliseptide A'
_chemical_formula_moiety         'C31 H54 N8 O9,3(H2 O1)'
_chemical_name_systematic        
"12,18-dihydroxy-7-(1-hydroxyethyl)-21-methyl-13-(2-methylpropyl)-10,22-di-isopropylhexadecahydro-1H,16H-dipyridazino[1,6-a:1',6'-g][1,4,7,10,13,16]hexaazacyclooctadecine-5,8,11,14,20,23-hexone trihydrate"
_chemical_properties_biological  'weak antibacterial and antiviral activity'
_symmetry_cell_setting           monoclinic
_symmetry_space_group_name_H-M   'P 21'
_symmetry_Int_Tables_number      4
_space_group_name_Hall           'P 2yb'
loop_
_symmetry_equiv_pos_site_id
_symmetry_equiv_pos_as_xyz
1 x,y,z
2 -x,1/2+y,-z
_cell_length_a                   12.4355(12)
_cell_length_b                   9.3893(9)
_cell_length_c                   17.0944(15)
_cell_angle_alpha                90
_cell_angle_beta                 99.704(9)
_cell_angle_gamma                90
_cell_volume                     1967.39
_cell_formula_units_Z            2
loop_
_atom_site_label
_atom_site_type_symbol
_atom_site_fract_x
_atom_site_fract_y
_atom_site_fract_z
N1 N 0.8127(4) 0.1229(6) 0.2735(3)
N2 N 0.8348(4) 0.2453(6) 0.2291(3)
H1 H 0.7724 0.2732 0.1983
N3 N 0.7519(4) 0.3306(5) 0.4298(3)
N4 N 0.4924(4) 0.5111(6) 0.3603(3)
N5 N 0.4997(4) 0.6358(6) 0.3155(3)
H2 H 0.5549 0.6258 0.2879
N6 N 0.2912(4) 0.3242(6) 0.2159(3)
N7 N 0.3717(4) 0.0706(5) 0.0849(3)
H3 H 0.3937 0.0863 0.0406
N8 N 0.6143(4) -0.1104(6) 0.1554(3)
H4 H 0.6466 -0.1896 0.1696
O1 O 0.6163(4) 0.1256(5) 0.1747(3)
O2 O 0.7771(4) 0.0368(5) 0.3884(2)
O3 O 0.6833(3) 0.4420(5) 0.3163(2)
O4 O 0.7167(3) 0.7454(5) 0.3960(3)
H5 H 0.7382 0.8277 0.3941
O5 O 0.4270(4) 0.2892(5) 0.3602(2)
O6 O 0.2072(3) 0.2457(5) 0.2408(2)
H6 H 0.2336 0.1820 0.2708
O7 O 0.3946(4) 0.3611(5) 0.1227(3)
O8 O 0.3975(4) -0.0626(5) 0.1970(2)
O9 O 0.5627(3) -0.3455(5) 0.0640(2)
H7 H 0.5783 -0.4146 0.0931
C1 C 0.6613(5) 0.0097(8) 0.1843(4)
C2 C 0.7769(5) -0.0080(7) 0.2304(4)
H8 H 0.7773 -0.0858 0.2686
C3 C 0.8594(5) -0.0426(8) 0.1752(4)
H9 H 0.9278 -0.0718 0.2071
H10 H 0.8320 -0.1218 0.1412
C4 C 0.8803(6) 0.0830(8) 0.1237(4)
H11 H 0.8146 0.1057 0.0866
H12 H 0.9376 0.0597 0.0938
C5 C 0.9145(6) 0.2103(8) 0.1780(4)
H13 H 0.9840 0.1895 0.2111
H14 H 0.9244 0.2925 0.1457
C6 C 0.8069(5) 0.1364(7) 0.3503(4)
C7 C 0.8403(5) 0.2762(7) 0.3911(3)
H15 H 0.8511 0.3448 0.3499
C8 C 0.9502(5) 0.2606(8) 0.4478(4)
H16 H 0.9434 0.1868 0.4872
C9 C 0.9793(6) 0.4041(10) 0.4910(5)
H17 H 0.9856 0.4769 0.4526
H18 H 1.0474 0.3948 0.5266
H19 H 0.9229 0.4294 0.5205
C10 C 1.0400(5) 0.2186(8) 0.4015(4)
H20 H 1.0451 0.2888 0.3615
H21 H 1.0231 0.1276 0.3768
H22 H 1.1084 0.2128 0.4371
C11 C 0.7344(6) 0.2690(8) 0.5066(3)
H23 H 0.6695 0.2118 0.4983
H24 H 0.7265 0.3445 0.5431
H25 H 0.7959 0.2109 0.5281
C12 C 0.6776(5) 0.4138(7) 0.3854(3)
C13 C 0.5840(5) 0.4742(6) 0.4223(3)
H26 H 0.5594 0.3996 0.4552
C14 C 0.6151(5) 0.6047(7) 0.4751(3)
H27 H 0.5622 0.6154 0.5104
H28 H 0.6856 0.5874 0.5077
C15 C 0.6209(5) 0.7432(7) 0.4305(4)
H29 H 0.6234 0.8226 0.4680
C16 C 0.5204(6) 0.7592(7) 0.3668(4)
H30 H 0.4574 0.7758 0.3922
H31 H 0.5295 0.8421 0.3347
C17 C 0.4220(5) 0.4091(8) 0.3303(3)
C18 C 0.3310(5) 0.4517(7) 0.2616(3)
H32 H 0.3612 0.5179 0.2266
C19 C 0.2411(5) 0.5275(8) 0.2964(4)
H33 H 0.2160 0.4646 0.3345
H34 H 0.2722 0.6112 0.3249
C20 C 0.1432(6) 0.5733(9) 0.2358(4)
H35 H 0.1128 0.4887 0.2066
C21 C 0.0558(7) 0.6368(12) 0.2781(5)
H36 H 0.0768 0.7314 0.2958
H37 H 0.0481 0.5787 0.3231
H38 H -0.0124 0.6402 0.2423
C22 C 0.1746(7) 0.6805(11) 0.1761(5)
H39 H 0.2273 0.6383 0.1481
H40 H 0.2054 0.7639 0.2038
H41 H 0.1109 0.7067 0.1390
C23 C 0.3269(5) 0.2880(7) 0.1480(4)
C24 C 0.2812(5) 0.1539(7) 0.1039(3)
H42 H 0.2398 0.0980 0.1370
C25 C 0.2063(5) 0.1967(7) 0.0250(4)
H43 H 0.2513 0.2458 -0.0084
C26 C 0.1185(5) 0.2980(9) 0.0405(4)
H44 H 0.0760 0.2543 0.0759
H45 H 0.0720 0.3207 -0.0086
H46 H 0.1514 0.3837 0.0642
C27 C 0.1588(6) 0.0642(9) -0.0191(4)
H47 H 0.1129 0.0916 -0.0677
H48 H 0.1165 0.0124 0.0135
H49 H 0.2170 0.0050 -0.0308
C28 C 0.4229(5) -0.0306(7) 0.1337(4)
C29 C 0.5108(5) -0.1149(7) 0.1009(3)
H50 H 0.5207 -0.0739 0.0499
C30 C 0.4749(5) -0.2693(7) 0.0885(3)
H51 H 0.4612 -0.3085 0.1390
C31 C 0.3738(5) -0.2853(8) 0.0275(4)
H52 H 0.3547 -0.3843 0.0216
H53 H 0.3868 -0.2482 -0.0224
H54 H 0.3150 -0.2336 0.0443
O10 O 0.3141(4) 0.0317(5) 0.3255(2)
H55 H 0.3462 0.1104 0.3379
H56 H 0.3376 -0.0020 0.2854
O11 O 0.6181(4) 0.4284(5) 0.1541(2)
H57 H 0.6382 0.4325 0.2042
H58 H 0.5507 0.4077 0.1446
O12 O 0.7714(5) 0.6595(7) 0.2322(4)
H59 H 0.7622 0.6154 0.2740
H60 H 0.7337 0.6170 0.1929
loop_
_geom_bond_atom_site_label_1
_geom_bond_atom_site_label_2
_geom_bond_site_symmetry_1
_geom_bond_site_symmetry_2
N1 N2 1_555 1_555
N2 H1 1_555 1_555
N3 C7 1_555 1_555
N4 N5 1_555 1_555
N5 H2 1_555 1_555
N6 O6 1_555 1_555
N7 H3 1_555 1_555
N8 H4 1_555 1_555
O1 C1 1_555 1_555
O2 C6 1_555 1_555
O3 C12 1_555 1_555
O4 H5 1_555 1_555
O5 C17 1_555 1_555
O6 H6 1_555 1_555
O7 C23 1_555 1_555
O8 C28 1_555 1_555
O9 H7 1_555 1_555
C1 N8 1_555 1_555
C2 N1 1_555 1_555
H8 C2 1_555 1_555
C3 C2 1_555 1_555
H9 C3 1_555 1_555
H10 C3 1_555 1_555
C4 C3 1_555 1_555
H11 C4 1_555 1_555
H12 C4 1_555 1_555
C5 N2 1_555 1_555
H13 C5 1_555 1_555
H14 C5 1_555 1_555
C6 N1 1_555 1_555
C7 C6 1_555 1_555
H15 C7 1_555 1_555
C8 C7 1_555 1_555
H16 C8 1_555 1_555
C9 C8 1_555 1_555
H17 C9 1_555 1_555
H18 C9 1_555 1_555
H19 C9 1_555 1_555
C10 C8 1_555 1_555
H20 C10 1_555 1_555
H21 C10 1_555 1_555
H22 C10 1_555 1_555
C11 N3 1_555 1_555
H23 C11 1_555 1_555
H24 C11 1_555 1_555
H25 C11 1_555 1_555
C12 N3 1_555 1_555
C13 N4 1_555 1_555
H26 C13 1_555 1_555
C14 C13 1_555 1_555
H27 C14 1_555 1_555
H28 C14 1_555 1_555
C15 O4 1_555 1_555
H29 C15 1_555 1_555
C16 N5 1_555 1_555
H30 C16 1_555 1_555
H31 C16 1_555 1_555
C17 N4 1_555 1_555
C18 N6 1_555 1_555
H32 C18 1_555 1_555
C19 C18 1_555 1_555
H33 C19 1_555 1_555
H34 C19 1_555 1_555
C20 C19 1_555 1_555
H35 C20 1_555 1_555
C21 C20 1_555 1_555
H36 C21 1_555 1_555
H37 C21 1_555 1_555
H38 C21 1_555 1_555
C22 C20 1_555 1_555
H39 C22 1_555 1_555
H40 C22 1_555 1_555
H41 C22 1_555 1_555
C23 N6 1_555 1_555
C24 N7 1_555 1_555
H42 C24 1_555 1_555
C25 C24 1_555 1_555
H43 C25 1_555 1_555
C26 C25 1_555 1_555
H44 C26 1_555 1_555
H45 C26 1_555 1_555
H46 C26 1_555 1_555
C27 C25 1_555 1_555
H47 C27 1_555 1_555
H48 C27 1_555 1_555
H49 C27 1_555 1_555
C28 N7 1_555 1_555
C29 N8 1_555 1_555
H50 C29 1_555 1_555
C30 O9 1_555 1_555
H51 C30 1_555 1_555
C31 C30 1_555 1_555
H52 C31 1_555 1_555
H53 C31 1_555 1_555
H54 C31 1_555 1_555
O10 H55 1_555 1_555
H56 O10 1_555 1_555
O11 H57 1_555 1_555
H58 O11 1_555 1_555
O12 H59 1_555 1_555
H60 O12 1_555 1_555
C1 C2 1_555 1_555
C4 C5 1_555 1_555
C12 C13 1_555 1_555
C14 C15 1_555 1_555
C15 C16 1_555 1_555
C17 C18 1_555 1_555
C23 C24 1_555 1_555
C28 C29 1_555 1_555
C29 C30 1_555 1_555

#END
