
#######################################################################
#
#                 Cambridge Crystallographic Data Centre
#                                CCDC 
#
#######################################################################
#
# If this CIF has been generated from an entry in the Cambridge 
# Structural Database, then it will include bibliographic, chemical, 
# crystal, experimental, refinement or atomic coordinate data resulting 
# from the CCDC's data processing and validation procedures.
#
#######################################################################

data_CETSAV
_chemical_name_common            cis-4-p-Tolylcyclophosphamide
_chemical_formula_moiety         'C14 H21 Cl2 N2 O2 P1'
_chemical_name_systematic        
2-(bis(2-Chloroethyl)amino)-4-tolyl-tetrahydro-2H-1,3,2-oxazaphosphorinane-2-oxide
_symmetry_cell_setting           monoclinic
_symmetry_space_group_name_H-M   'P 21/n'
_symmetry_Int_Tables_number      14
_space_group_name_Hall           '-P 2yn'
loop_
_symmetry_equiv_pos_site_id
_symmetry_equiv_pos_as_xyz
1 x,y,z
2 1/2-x,1/2+y,1/2-z
3 -x,-y,-z
4 1/2+x,1/2-y,1/2+z
_cell_length_a                   8.331(5)
_cell_length_b                   10.344(2)
_cell_length_c                   19.815(4)
_cell_angle_alpha                90
_cell_angle_beta                 99.81(4)
_cell_angle_gamma                90
_cell_volume                     1682.61
_cell_formula_units_Z            4
loop_
_atom_site_label
_atom_site_type_symbol
_atom_site_fract_x
_atom_site_fract_y
_atom_site_fract_z
P1 P 0.75370 0.96960 0.45880
Cl1 Cl 0.40810 0.63470 0.56080
Cl2 Cl 1.03010 0.54420 0.39950
O1 O 0.57980 1.02420 0.42680
O2 O 0.80500 1.02740 0.52670
N1 N 0.86650 1.00230 0.40170
N2 N 0.73870 0.81070 0.46420
C1 C 0.80890 1.01380 0.32730
C2 C 0.64070 1.07730 0.31470
C3 C 0.52410 1.01050 0.35360
C4 C 0.66280 0.75440 0.51970
C5 C 0.48960 0.71580 0.49270
C6 C 0.80260 0.71730 0.41970
C7 C 0.97170 0.67660 0.44940
C8 C 1.29250 1.28440 0.19900
C9 C 0.93150 1.08750 0.29400
C10 C 1.01160 1.19580 0.32390
C11 C 1.12490 1.25970 0.29230
C12 C 1.16500 1.21800 0.23140
C13 C 1.08360 1.10960 0.20140
C14 C 0.96850 1.04750 0.23200
loop_
_geom_bond_atom_site_label_1
_geom_bond_atom_site_label_2
_geom_bond_site_symmetry_1
_geom_bond_site_symmetry_2
P1 O1 1_555 1_555
Cl1 C5 1_555 1_555
Cl2 C7 1_555 1_555
O1 C3 1_555 1_555
O2 P1 1_555 1_555
N1 P1 1_555 1_555
N2 P1 1_555 1_555
C1 N1 1_555 1_555
C2 C1 1_555 1_555
C3 C2 1_555 1_555
C4 N2 1_555 1_555
C5 C4 1_555 1_555
C6 N2 1_555 1_555
C7 C6 1_555 1_555
C8 C12 1_555 1_555
C9 C1 1_555 1_555
C10 C9 1_555 1_555
C11 C10 1_555 1_555
C12 C11 1_555 1_555
C13 C12 1_555 1_555
C14 C9 1_555 1_555
C13 C14 1_555 1_555

#END
