
#######################################################################
#
#                 Cambridge Crystallographic Data Centre
#                                CCDC 
#
#######################################################################
#
# If this CIF has been generated from an entry in the Cambridge 
# Structural Database, then it will include bibliographic, chemical, 
# crystal, experimental, refinement or atomic coordinate data resulting 
# from the CCDC's data processing and validation procedures.
#
#######################################################################

data_CETVUU
_chemical_formula_moiety         'C18 H20 F3 N5 O3'
_chemical_name_systematic        
(3-Methoxy-4-((4-(methylamino)-5-(trifluoromethyl)pyrimidin-2-yl)amino)phenyl)(morpholin-4-yl)methanone
_symmetry_cell_setting           monoclinic
_symmetry_space_group_name_H-M   'P 2/n'
_symmetry_Int_Tables_number      13
_space_group_name_Hall           '-P 2yac'
loop_
_symmetry_equiv_pos_site_id
_symmetry_equiv_pos_as_xyz
1 x,y,z
2 1/2-x,y,1/2-z
3 -x,-y,-z
4 1/2+x,-y,1/2+z
_cell_length_a                   10.8845(6)
_cell_length_b                   5.3661(3)
_cell_length_c                   32.6178(19)
_cell_angle_alpha                90
_cell_angle_beta                 99.248(4)
_cell_angle_gamma                90
_cell_volume                     1880.36
_exptl_crystal_colour            colorless
_exptl_crystal_description       rod
_cell_formula_units_Z            4
loop_
_atom_site_label
_atom_site_type_symbol
_atom_site_fract_x
_atom_site_fract_y
_atom_site_fract_z
C1 C 0.97883(14) 1.0515(3) 0.27066(5)
C2 C 1.07392(15) 0.8819(3) 0.28335(5)
H1 H 1.0948 0.7610 0.2643
C3 C 1.13864(14) 0.8883(3) 0.32372(5)
H2 H 1.2042 0.7730 0.3319
C4 C 1.10905(14) 1.0602(3) 0.35223(5)
C5 C 1.01149(14) 1.2278(3) 0.34022(5)
H3 H 0.9889 1.3438 0.3597
C6 C 0.94818(14) 1.2243(3) 0.30007(5)
C7 C 0.92209(14) 0.9529(3) 0.19439(5)
C8 C 1.01363(14) 0.6549(3) 0.15908(5)
C9 C 0.93795(15) 0.7373(3) 0.12176(5)
C10 C 0.85619(15) 0.9274(3) 0.12561(5)
H4 H 0.8041 0.9824 0.1011
C11 C 0.94581(17) 0.6242(4) 0.08080(5)
C12 C 1.16421(15) 0.3802(3) 0.19994(5)
H5 H 1.2247 0.5078 0.2113
H6 H 1.2082 0.2260 0.1953
H7 H 1.1069 0.3485 0.2196
C13 C 1.19046(14) 1.0828(3) 0.39370(5)
C14 C 1.01631(15) 0.9327(3) 0.42908(5)
H8 H 0.9724 0.9067 0.4004
H9 H 0.9652 1.0453 0.4435
C15 C 1.03357(17) 0.6856(4) 0.45160(5)
H10 H 0.9510 0.6140 0.4537
H11 H 1.0771 0.5685 0.4354
C16 C 1.22374(16) 0.8137(4) 0.49012(5)
H12 H 1.2698 0.6986 0.4744
H13 H 1.2711 0.8297 0.5186
C17 C 1.21392(16) 1.0659(3) 0.46933(5)
H14 H 1.1751 1.1862 0.4864
H15 H 1.2981 1.1277 0.4668
C18 C 0.81690(15) 1.5661(3) 0.31231(5)
H16 H 0.7836 1.4828 0.3349
H17 H 0.7527 1.6737 0.2970
H18 H 0.8892 1.6671 0.3239
N1 N 0.90862(12) 1.0698(3) 0.23088(4)
H19 H 0.8453 1.1734 0.2289
N2 N 1.00434(11) 0.7685(3) 0.19530(4)
N3 N 0.84423(12) 1.0406(3) 0.16111(4)
N4 N 1.09451(12) 0.4667(3) 0.16088(4)
H20 H 1.1059 0.3929 0.1377
N5 N 1.13851(12) 1.0457(3) 0.42807(4)
O1 O 1.30070(10) 1.1404(3) 0.39559(4)
O2 O 1.10342(11) 0.7123(2) 0.49221(4)
O3 O 0.85370(10) 1.3832(2) 0.28483(3)
F1 F 0.86647(14) 0.7266(3) 0.05014(3)
F2 F 0.92367(11) 0.3791(2) 0.07929(3)
F3 F 1.05970(12) 0.6441(3) 0.07012(4)
loop_
_geom_bond_atom_site_label_1
_geom_bond_atom_site_label_2
_geom_bond_site_symmetry_1
_geom_bond_site_symmetry_2
C1 C2 1_555 1_555
C2 H1 1_555 1_555
C3 C2 1_555 1_555
H2 C3 1_555 1_555
C4 C3 1_555 1_555
C5 C4 1_555 1_555
H3 C5 1_555 1_555
C6 C1 1_555 1_555
C7 N1 1_555 1_555
C8 C9 1_555 1_555
C9 C10 1_555 1_555
C10 H4 1_555 1_555
C11 C9 1_555 1_555
C12 H5 1_555 1_555
H6 C12 1_555 1_555
H7 C12 1_555 1_555
C13 C4 1_555 1_555
C14 H8 1_555 1_555
H9 C14 1_555 1_555
C15 C14 1_555 1_555
H10 C15 1_555 1_555
H11 C15 1_555 1_555
C16 H12 1_555 1_555
H13 C16 1_555 1_555
C17 C16 1_555 1_555
H14 C17 1_555 1_555
H15 C17 1_555 1_555
C18 H16 1_555 1_555
H17 C18 1_555 1_555
H18 C18 1_555 1_555
N1 C1 1_555 1_555
H19 N1 1_555 1_555
N2 C7 1_555 1_555
N3 C7 1_555 1_555
N4 C8 1_555 1_555
H20 N4 1_555 1_555
N5 C13 1_555 1_555
O1 C13 1_555 1_555
O2 C15 1_555 1_555
O3 C6 1_555 1_555
F1 C11 1_555 1_555
F2 C11 1_555 1_555
F3 C11 1_555 1_555
C5 C6 1_555 1_555
C8 N2 1_555 1_555
C10 N3 1_555 1_555
C12 N4 1_555 1_555
C14 N5 1_555 1_555
C16 O2 1_555 1_555
C17 N5 1_555 1_555
C18 O3 1_555 1_555

#END
