
#######################################################################
#
#                 Cambridge Crystallographic Data Centre
#                                CCDC 
#
#######################################################################
#
# If this CIF has been generated from an entry in the Cambridge 
# Structural Database, then it will include bibliographic, chemical, 
# crystal, experimental, refinement or atomic coordinate data resulting 
# from the CCDC's data processing and validation procedures.
#
#######################################################################

data_CEVBUD
_chemical_formula_moiety         'C14 H11 Br1 O1 S1'
_chemical_name_systematic        
1-(5-bromothiophen-2-yl)-3-(4-methylphenyl)prop-2-en-1-one
_symmetry_cell_setting           monoclinic
_symmetry_space_group_name_H-M   'P 21/a'
_symmetry_Int_Tables_number      14
_space_group_name_Hall           '-P 2yab'
loop_
_symmetry_equiv_pos_site_id
_symmetry_equiv_pos_as_xyz
1 x,y,z
2 1/2-x,1/2+y,-z
3 -x,-y,-z
4 1/2+x,1/2-y,z
_cell_length_a                   5.895(5)
_cell_length_b                   14.105(7)
_cell_length_c                   15.373(8)
_cell_angle_alpha                90
_cell_angle_beta                 92.89(4)
_cell_angle_gamma                90
_cell_volume                     1276.62
_exptl_crystal_description       block
_cell_formula_units_Z            4
loop_
_atom_site_label
_atom_site_type_symbol
_atom_site_fract_x
_atom_site_fract_y
_atom_site_fract_z
Br1 Br 0.09647(9) 0.14632(3) 0.87836(3)
S1 S -0.04639(15) 0.15122(7) 0.68183(6)
O1 O -0.1535(5) 0.1293(2) 0.4938(2)
C1 C 0.3574(6) 0.1009(3) 0.7287(2)
H1 H 0.4861 0.0850 0.7630
C2 C 0.6763(8) 0.1372(3) 0.0507(3)
H2 H 0.7798 0.1895 0.0577
H3 H 0.5737 0.1483 0.0013
H4 H 0.7602 0.0799 0.0418
C3 C 0.3447(6) 0.0978(3) 0.6370(2)
H5 H 0.4659 0.0805 0.6039
C4 C 0.2947(5) 0.1111(2) 0.2838(2)
C5 C 0.1566(6) 0.1068(2) 0.3601(2)
H6 H 0.0049 0.0907 0.3490
C6 C 0.2083(6) 0.0795(2) 0.2035(2)
H7 H 0.0635 0.0533 0.1993
C7 C 0.2176(6) 0.1226(3) 0.4420(2)
H8 H 0.3702 0.1329 0.4573
C8 C 0.6331(6) 0.1587(2) 0.2131(2)
H9 H 0.7773 0.1857 0.2171
C9 C 0.3314(6) 0.0860(3) 0.1292(2)
H10 H 0.2697 0.0619 0.0769
C10 C 0.5130(6) 0.1505(2) 0.2868(2)
H11 H 0.5777 0.1715 0.3398
C11 C 0.5436(6) 0.1274(2) 0.1313(2)
C12 C 0.1382(5) 0.1226(2) 0.6021(2)
C13 C 0.1590(6) 0.1299(2) 0.7608(2)
C14 C 0.0512(6) 0.1246(3) 0.5110(2)
loop_
_geom_bond_atom_site_label_1
_geom_bond_atom_site_label_2
_geom_bond_site_symmetry_1
_geom_bond_site_symmetry_2
Br1 C13 1_555 1_555
S1 C12 1_555 1_555
O1 C14 1_555 1_555
C1 H1 1_555 1_555
C2 H2 1_555 1_555
H3 C2 1_555 1_555
H4 C2 1_555 1_555
C3 C1 1_555 1_555
H5 C3 1_555 1_555
C4 C5 1_555 1_555
C5 H6 1_555 1_555
C6 C4 1_555 1_555
H7 C6 1_555 1_555
C7 C5 1_555 1_555
H8 C7 1_555 1_555
C8 H9 1_555 1_555
C9 C6 1_555 1_555
H10 C9 1_555 1_555
C10 C4 1_555 1_555
H11 C10 1_555 1_555
C11 C2 1_555 1_555
C12 C3 1_555 1_555
C13 S1 1_555 1_555
C14 C7 1_555 1_555
C1 C13 1_555 1_555
C8 C10 1_555 1_555
C8 C11 1_555 1_555
C9 C11 1_555 1_555
C12 C14 1_555 1_555

#END
