
#######################################################################
#
#                 Cambridge Crystallographic Data Centre
#                                CCDC 
#
#######################################################################
#
# If this CIF has been generated from an entry in the Cambridge 
# Structural Database, then it will include bibliographic, chemical, 
# crystal, experimental, refinement or atomic coordinate data resulting 
# from the CCDC's data processing and validation procedures.
#
#######################################################################

data_CEVCOX
_chemical_formula_moiety         'C66 H74 F2 N14 O19,C1 H1 Cl3'
_chemical_name_systematic        
"N^3^,N^3^'-((2-Butoxy-5-t-butyl-1,3-phenylene)bis(imino(4,6-dinitro-3,1-phenylene)))bis(2-butoxy-5-t-butyl-N-(5-fluoro-2,4-dinitrophenyl)benzene-1,3-diamine) chloroform solvate"
_symmetry_cell_setting           triclinic
_symmetry_space_group_name_H-M   'P -1'
_symmetry_Int_Tables_number      2
_space_group_name_Hall           '-P 1'
loop_
_symmetry_equiv_pos_site_id
_symmetry_equiv_pos_as_xyz
1 x,y,z
2 -x,-y,-z
_cell_length_a                   14.1239(19)
_cell_length_b                   14.187(5)
_cell_length_c                   19.249(6)
_cell_angle_alpha                101.617(4)
_cell_angle_beta                 94.671(5)
_cell_angle_gamma                104.808(5)
_cell_volume                     3616.4
_exptl_crystal_colour            yellow
_exptl_crystal_description       block
_cell_formula_units_Z            2
loop_
_atom_site_label
_atom_site_type_symbol
_atom_site_fract_x
_atom_site_fract_y
_atom_site_fract_z
Cl1 Cl 0.77603(17) 0.33646(18) -0.09963(10)
Cl2 Cl 0.74821(11) 0.46024(13) 0.03025(10)
Cl3 Cl 0.82012(13) 0.28889(14) 0.03525(9)
C1 C 0.8202(4) 0.3853(5) -0.0093(3)
H1 H 0.8898 0.4280 -0.0046
F1 F -0.2277(3) 1.3545(3) -0.32728(19)
F2 F 0.5883(2) 0.5465(2) -0.07602(16)
O1 O -0.3898(4) 1.3226(5) -0.4147(3)
O2 O -0.4479(4) 1.1801(5) -0.4865(3)
O3 O -0.2593(4) 0.9562(4) -0.5401(2)
O4 O -0.1011(3) 1.0005(3) -0.5064(2)
O5 O -0.0499(3) 1.1718(3) -0.23791(19)
O6 O 0.0411(3) 1.3678(3) -0.02274(19)
O7 O 0.1027(3) 1.3704(3) 0.08407(19)
O8 O 0.2891(3) 1.1659(3) 0.13530(17)
O9 O 0.3499(3) 1.0768(3) 0.05554(17)
O10 O 0.1407(2) 0.9608(3) -0.18943(17)
O11 O -0.0227(3) 0.9057(3) -0.38021(19)
O12 O -0.1039(3) 0.7855(3) -0.46970(19)
O13 O 0.0130(3) 0.5263(3) -0.57581(18)
O14 O 0.1566(3) 0.5103(3) -0.5432(2)
O15 O 0.2582(2) 0.6829(3) -0.27523(17)
O16 O 0.6117(3) 0.5775(3) 0.0637(2)
O17 O 0.5490(3) 0.6853(3) 0.1246(2)
O18 O 0.4184(4) 0.9000(3) 0.02625(19)
O19 O 0.3627(3) 0.8727(3) -0.08527(18)
N1 N -0.3838(4) 1.2413(6) -0.4423(3)
N2 N -0.1845(4) 1.0123(4) -0.5021(2)
N3 N -0.0285(3) 1.1387(3) -0.3862(2)
H2 H -0.0212 1.0846 -0.4143
N4 N 0.1087(3) 1.2784(3) -0.1344(2)
H3 H 0.0675 1.3131 -0.1201
N5 N 0.0947(3) 1.3403(3) 0.0189(2)
N6 N 0.2991(3) 1.1350(3) 0.0719(2)
N7 N 0.3065(3) 1.0675(3) -0.0832(2)
H4 H 0.3330 1.0403 -0.0521
N8 N 0.1612(3) 0.9186(3) -0.33152(19)
H5 H 0.1149 0.9499 -0.3321
N9 N -0.0288(3) 0.8278(4) -0.4265(2)
N10 N 0.0939(3) 0.5563(3) -0.5373(2)
N11 N 0.2703(3) 0.6330(3) -0.42782(19)
H6 H 0.2616 0.5788 -0.4620
N12 N 0.4196(3) 0.7435(3) -0.1789(2)
H7 H 0.3848 0.7871 -0.1710
N13 N 0.5649(3) 0.6398(3) 0.0682(2)
N14 N 0.4072(3) 0.8510(3) -0.0351(2)
C2 C -0.2175(5) 1.2727(5) -0.3695(3)
C3 C -0.2934(4) 1.2131(6) -0.4244(3)
C4 C -0.2799(4) 1.1279(5) -0.4647(3)
H8 H -0.3312 1.0854 -0.5011
C5 C -0.1922(4) 1.1025(5) -0.4534(3)
C6 C -0.1150(4) 1.1613(4) -0.3986(3)
C7 C -0.1329(4) 1.2468(4) -0.3563(3)
H9 H -0.0843 1.2874 -0.3174
C8 C 0.0521(4) 1.1950(4) -0.3313(3)
C9 C 0.1443(4) 1.2349(4) -0.3512(3)
H10 H 0.1513 1.2253 -0.4006
C10 C 0.2260(4) 1.2882(4) -0.3005(2)
C11 C 0.2118(4) 1.3013(4) -0.2288(3)
H11 H 0.2661 1.3385 -0.1930
C12 C 0.1216(4) 1.2623(4) -0.2082(3)
C13 C 0.0398(4) 1.2077(4) -0.2591(3)
C14 C 0.3272(4) 1.3305(4) -0.3219(3)
C15 C 0.3858(5) 1.2534(5) -0.3193(4)
H12 H 0.4514 1.2785 -0.3329
H13 H 0.3504 1.1899 -0.3528
H14 H 0.3931 1.2428 -0.2707
C16 C 0.3839(4) 1.4293(5) -0.2702(3)
H15 H 0.4483 1.4546 -0.2853
H16 H 0.3936 1.4183 -0.2218
H17 H 0.3460 1.4783 -0.2704
C17 C 0.3182(5) 1.3494(6) -0.3963(3)
H18 H 0.3843 1.3765 -0.4083
H19 H 0.2798 1.3977 -0.3980
H20 H 0.2846 1.2864 -0.4310
C18 C -0.0577(7) 1.0686(6) -0.2265(5)
H21 H -0.0612 1.0210 -0.2726
H22 H 0.0003 1.0691 -0.1937
C19 C -0.1496(7) 1.0399(7) -0.1946(4)
H23 H -0.1683 0.9667 -0.1981
H24 H -0.2037 1.0554 -0.2221
C20 C -0.1377(6) 1.0942(5) -0.1169(4)
H25 H -0.1062 1.1658 -0.1146
H26 H -0.2052 1.0895 -0.1047
C21 C -0.0829(5) 1.0678(6) -0.0578(4)
H27 H -0.0862 1.1111 -0.0120
H28 H -0.0137 1.0772 -0.0654
H29 H -0.1128 0.9977 -0.0571
C22 C 0.1553(4) 1.2439(4) -0.0848(2)
C23 C 0.2120(4) 1.1789(4) -0.1052(2)
H30 H 0.2201 1.1629 -0.1543
C24 C 0.2578(3) 1.1357(3) -0.0584(2)
C25 C 0.2506(3) 1.1679(4) 0.0162(2)
C26 C 0.1975(3) 1.2351(4) 0.0378(2)
H31 H 0.1944 1.2564 0.0874
C27 C 0.1493(3) 1.2718(4) -0.0101(2)
C28 C 0.3173(4) 1.0373(4) -0.1570(2)
C29 C 0.2338(3) 0.9875(4) -0.2082(2)
C30 C 0.2471(3) 0.9646(4) -0.2794(2)
C31 C 0.3401(4) 0.9872(4) -0.2991(2)
H32 H 0.3466 0.9738 -0.3486
C32 C 0.4251(4) 1.0288(4) -0.2491(3)
C33 C 0.4102(3) 1.0533(4) -0.1772(2)
H33 H 0.4662 1.0819 -0.1413
C34 C 0.1234(4) 0.8693(4) -0.1622(3)
H34 H 0.1640 0.8834 -0.1149
H35 H 0.1431 0.8171 -0.1955
C35 C 0.0171(4) 0.8332(5) -0.1554(3)
H36 H -0.0022 0.8882 -0.1247
H37 H 0.0083 0.7775 -0.1305
C36 C -0.0527(4) 0.7972(5) -0.2253(3)
H38 H -0.1214 0.7861 -0.2144
H39 H -0.0402 0.8509 -0.2521
C37 C -0.0439(5) 0.7024(5) -0.2729(3)
H40 H -0.0898 0.6857 -0.3175
H41 H -0.0602 0.6475 -0.2482
H42 H 0.0239 0.7122 -0.2840
C38 C 0.5300(4) 1.0441(4) -0.2687(3)
C39 C 0.5308(5) 1.0203(7) -0.3489(3)
H43 H 0.5022 1.0657 -0.3701
H44 H 0.4917 0.9509 -0.3695
H45 H 0.5990 1.0287 -0.3588
C40 C 0.5757(5) 0.9726(7) -0.2372(5)
H46 H 0.6431 0.9804 -0.2489
H47 H 0.5357 0.9034 -0.2575
H48 H 0.5776 0.9880 -0.1851
C41 C 0.5922(5) 1.1517(5) -0.2385(4)
H49 H 0.5632 1.1969 -0.2599
H50 H 0.6597 1.1589 -0.2499
H51 H 0.5937 1.1687 -0.1865
C42 C 0.1449(3) 0.8302(4) -0.3805(2)
C43 C 0.0546(3) 0.7859(4) -0.4283(2)
C44 C 0.0429(4) 0.6981(4) -0.4787(2)
H52 H -0.0163 0.6714 -0.5118
C45 C 0.1139(4) 0.6487(4) -0.4824(2)
C46 C 0.2028(3) 0.6853(4) -0.4319(2)
C47 C 0.2157(3) 0.7771(4) -0.3847(2)
H53 H 0.2764 0.8054 -0.3534
C48 C 0.3538(4) 0.6565(4) -0.3741(2)
C49 C 0.4440(4) 0.6514(5) -0.3947(3)
H54 H 0.4487 0.6330 -0.4443
C50 C 0.5278(4) 0.6723(5) -0.3453(3)
C51 C 0.5202(4) 0.7057(5) -0.2732(3)
H55 H 0.5778 0.7271 -0.2386
C52 C 0.4300(4) 0.7082(4) -0.2517(2)
C53 C 0.3447(3) 0.6810(4) -0.3010(3)
C54 C 0.6289(5) 0.6685(8) -0.3682(4)
C55 C 0.6222(6) 0.5991(8) -0.4353(4)
H56 H 0.5639 0.5417 -0.4408
H57 H 0.6818 0.5758 -0.4362
H58 H 0.6162 0.6325 -0.4747
C56 C 0.6750(6) 0.6044(9) -0.3148(5)
H59 H 0.6315 0.5359 -0.3238
H60 H 0.6788 0.6380 -0.2644
H61 H 0.7413 0.6023 -0.3252
C57 C 0.7023(8) 0.7617(9) -0.3463(6)
H62 H 0.6923 0.7974 -0.2995
H63 H 0.6975 0.8019 -0.3816
H64 H 0.7679 0.7502 -0.3426
C58 C 0.1786(4) 0.5905(4) -0.2944(3)
H65 H 0.2037 0.5350 -0.3181
H66 H 0.1257 0.5974 -0.3285
C59 C 0.1378(4) 0.5675(4) -0.2294(3)
H67 H 0.1179 0.6258 -0.2039
H68 H 0.1902 0.5568 -0.1970
C60 C 0.0493(4) 0.4754(4) -0.2459(3)
H69 H 0.0705 0.4163 -0.2681
H70 H -0.0009 0.4840 -0.2813
C61 C 0.0023(4) 0.4556(4) -0.1802(3)
H71 H -0.0472 0.3900 -0.1927
H72 H -0.0298 0.5078 -0.1631
H73 H 0.0534 0.4560 -0.1424
C62 C 0.4566(3) 0.7183(4) -0.1203(3)
C63 C 0.5063(4) 0.6437(4) -0.1248(3)
H74 H 0.5153 0.6103 -0.1708
C64 C 0.5420(3) 0.6177(4) -0.0662(3)
C65 C 0.5296(3) 0.6643(4) 0.0025(3)
C66 C 0.4823(3) 0.7373(4) 0.0092(3)
H75 H 0.4724 0.7684 0.0556
C67 C 0.4482(3) 0.7675(4) -0.0499(2)
C68? C -0.1085(14) 1.0702(11) -0.2465(9)
H76? H -0.0896 1.0252 -0.2860
H77? H -0.1797 1.0647 -0.2574
C69? C -0.0879(16) 1.0438(16) -0.1779(8)
H78? H -0.0155 1.0642 -0.1630
H79? H -0.1117 0.9701 -0.1847
loop_
_geom_bond_atom_site_label_1
_geom_bond_atom_site_label_2
_geom_bond_site_symmetry_1
_geom_bond_site_symmetry_2
Cl1 C1 1_555 1_555
Cl2 C1 1_555 1_555
Cl3 C1 1_555 1_555
C1 H1 1_555 1_555
F1 C2 1_555 1_555
F2 C64 1_555 1_555
O1 N1 1_555 1_555
O2 N1 1_555 1_555
O3 N2 1_555 1_555
O4 N2 1_555 1_555
O5 C13 1_555 1_555
O6 N5 1_555 1_555
O7 N5 1_555 1_555
O8 N6 1_555 1_555
O9 N6 1_555 1_555
O10 C29 1_555 1_555
O11 N9 1_555 1_555
O12 N9 1_555 1_555
O13 N10 1_555 1_555
O14 N10 1_555 1_555
O15 C53 1_555 1_555
O16 N13 1_555 1_555
O17 N13 1_555 1_555
O18 N14 1_555 1_555
O19 N14 1_555 1_555
N1 C3 1_555 1_555
N2 C5 1_555 1_555
N3 H2 1_555 1_555
N4 H3 1_555 1_555
N5 C27 1_555 1_555
N6 C25 1_555 1_555
N7 H4 1_555 1_555
N8 H5 1_555 1_555
N9 C43 1_555 1_555
N10 C45 1_555 1_555
N11 H6 1_555 1_555
N12 H7 1_555 1_555
N13 C65 1_555 1_555
N14 C67 1_555 1_555
C2 C3 1_555 1_555
C3 C4 1_555 1_555
C4 H8 1_555 1_555
C5 C4 1_555 1_555
C6 N3 1_555 1_555
C7 C2 1_555 1_555
H9 C7 1_555 1_555
C8 N3 1_555 1_555
C9 C8 1_555 1_555
H10 C9 1_555 1_555
C10 C9 1_555 1_555
C11 C10 1_555 1_555
H11 C11 1_555 1_555
C12 N4 1_555 1_555
C13 C8 1_555 1_555
C14 C10 1_555 1_555
C15 C14 1_555 1_555
H12 C15 1_555 1_555
H13 C15 1_555 1_555
H14 C15 1_555 1_555
C16 C14 1_555 1_555
H15 C16 1_555 1_555
H16 C16 1_555 1_555
H17 C16 1_555 1_555
C17 C14 1_555 1_555
H18 C17 1_555 1_555
H19 C17 1_555 1_555
H20 C17 1_555 1_555
C18 O5 1_555 1_555
H21 C18 1_555 1_555
H22 C18 1_555 1_555
C19 C18 1_555 1_555
H23 C19 1_555 1_555
H24 C19 1_555 1_555
C20 C19 1_555 1_555
H25 C20 1_555 1_555
H26 C20 1_555 1_555
C21 C20 1_555 1_555
H27 C21 1_555 1_555
H28 C21 1_555 1_555
H29 C21 1_555 1_555
C22 N4 1_555 1_555
C23 C22 1_555 1_555
H30 C23 1_555 1_555
C24 N7 1_555 1_555
C25 C24 1_555 1_555
C26 C25 1_555 1_555
H31 C26 1_555 1_555
C27 C22 1_555 1_555
C28 N7 1_555 1_555
C29 C28 1_555 1_555
C30 N8 1_555 1_555
C31 C30 1_555 1_555
H32 C31 1_555 1_555
C32 C31 1_555 1_555
C33 C28 1_555 1_555
H33 C33 1_555 1_555
C34 O10 1_555 1_555
H34 C34 1_555 1_555
H35 C34 1_555 1_555
C35 C34 1_555 1_555
H36 C35 1_555 1_555
H37 C35 1_555 1_555
C36 C35 1_555 1_555
H38 C36 1_555 1_555
H39 C36 1_555 1_555
C37 C36 1_555 1_555
H40 C37 1_555 1_555
H41 C37 1_555 1_555
H42 C37 1_555 1_555
C38 C32 1_555 1_555
C39 C38 1_555 1_555
H43 C39 1_555 1_555
H44 C39 1_555 1_555
H45 C39 1_555 1_555
C40 C38 1_555 1_555
H46 C40 1_555 1_555
H47 C40 1_555 1_555
H48 C40 1_555 1_555
C41 C38 1_555 1_555
H49 C41 1_555 1_555
H50 C41 1_555 1_555
H51 C41 1_555 1_555
C42 N8 1_555 1_555
C43 C42 1_555 1_555
C44 C43 1_555 1_555
H52 C44 1_555 1_555
C45 C44 1_555 1_555
C46 N11 1_555 1_555
C47 C42 1_555 1_555
H53 C47 1_555 1_555
C48 N11 1_555 1_555
C49 C48 1_555 1_555
H54 C49 1_555 1_555
C50 C49 1_555 1_555
C51 C50 1_555 1_555
H55 C51 1_555 1_555
C52 N12 1_555 1_555
C53 C48 1_555 1_555
C54 C50 1_555 1_555
C55 C54 1_555 1_555
H56 C55 1_555 1_555
H57 C55 1_555 1_555
H58 C55 1_555 1_555
C56 C54 1_555 1_555
H59 C56 1_555 1_555
H60 C56 1_555 1_555
H61 C56 1_555 1_555
C57 C54 1_555 1_555
H62 C57 1_555 1_555
H63 C57 1_555 1_555
H64 C57 1_555 1_555
C58 O15 1_555 1_555
H65 C58 1_555 1_555
H66 C58 1_555 1_555
C59 C58 1_555 1_555
H67 C59 1_555 1_555
H68 C59 1_555 1_555
C60 C59 1_555 1_555
H69 C60 1_555 1_555
H70 C60 1_555 1_555
C61 C60 1_555 1_555
H71 C61 1_555 1_555
H72 C61 1_555 1_555
H73 C61 1_555 1_555
C62 N12 1_555 1_555
C63 C62 1_555 1_555
H74 C63 1_555 1_555
C64 C63 1_555 1_555
C65 C64 1_555 1_555
C66 C65 1_555 1_555
H75 C66 1_555 1_555
C67 C62 1_555 1_555
C5 C6 1_555 1_555
C6 C7 1_555 1_555
C11 C12 1_555 1_555
C12 C13 1_555 1_555
C23 C24 1_555 1_555
C26 C27 1_555 1_555
C29 C30 1_555 1_555
C32 C33 1_555 1_555
C45 C46 1_555 1_555
C46 C47 1_555 1_555
C51 C52 1_555 1_555
C52 C53 1_555 1_555
C66 C67 1_555 1_555

#END
