
#######################################################################
#
#                 Cambridge Crystallographic Data Centre
#                                CCDC 
#
#######################################################################
#
# If this CIF has been generated from an entry in the Cambridge 
# Structural Database, then it will include bibliographic, chemical, 
# crystal, experimental, refinement or atomic coordinate data resulting 
# from the CCDC's data processing and validation procedures.
#
#######################################################################

data_CEVCUD
_chemical_formula_moiety         'C60 H73 F1 N12 O15,2(C1 H2 Cl2)'
_chemical_name_systematic        
"N-(5-((3-Amino-2-butoxy-5-t-butylphenyl)amino)-2,4-dinitrophenyl)-2-butoxy-N'-(5-((2-butoxy-5-t-butyl-3-((5-fluoro-2,4-dinitrophenyl)amino)phenyl)amino)-2,4-dinitrophenyl)-5-t-butylbenzene-1,3-diamine dichloromethane solvate"
_symmetry_cell_setting           triclinic
_symmetry_space_group_name_H-M   'P -1'
_symmetry_Int_Tables_number      2
_space_group_name_Hall           '-P 1'
loop_
_symmetry_equiv_pos_site_id
_symmetry_equiv_pos_as_xyz
1 x,y,z
2 -x,-y,-z
_cell_length_a                   11.6233(12)
_cell_length_b                   16.8765(16)
_cell_length_c                   17.7694(17)
_cell_angle_alpha                83.827(7)
_cell_angle_beta                 84.706(7)
_cell_angle_gamma                85.035(7)
_cell_volume                     3440.31
_exptl_crystal_colour            yellow
_exptl_crystal_description       platelet
_cell_formula_units_Z            2
loop_
_atom_site_label
_atom_site_type_symbol
_atom_site_fract_x
_atom_site_fract_y
_atom_site_fract_z
Cl1 Cl -0.1352(2) 0.58349(15) 0.97441(15)
Cl2 Cl 0.09144(16) 0.64911(11) 0.97134(13)
C1 C -0.0348(7) 0.6233(5) 1.0249(5)
H1 H -0.0725 0.6714 1.0469
H2 H -0.0139 0.5836 1.0676
Cl3 Cl 0.28997(17) 0.29059(10) 0.86851(9)
Cl4 Cl 0.15597(16) 0.32073(9) 0.73699(10)
C2 C 0.2975(6) 0.3129(4) 0.7709(3)
H3 H 0.3467 0.2705 0.7463
H4 H 0.3336 0.3640 0.7569
F1 F 0.8120(3) -0.36894(17) 0.46855(18)
O1 O 0.5357(3) -0.05224(17) 0.55400(17)
O2 O 0.6018(3) -0.0995(2) 0.66133(19)
O3 O 0.7981(4) -0.3510(3) 0.6966(3)
O4 O 0.8215(4) -0.4298(2) 0.6078(3)
O5 O 0.8522(2) -0.13428(17) 0.35521(18)
O6 O 1.0712(3) -0.2191(2) 0.1540(2)
O7 O 1.2032(3) -0.1734(2) 0.07173(19)
O8 O 1.2347(3) 0.0950(2) 0.00175(19)
O9 O 1.0849(3) 0.1804(2) 0.0023(2)
O10 O 0.8759(2) 0.12357(17) 0.25873(17)
O11 O 0.6848(3) 0.07935(17) 0.56814(17)
O12 O 0.7379(3) 0.05386(18) 0.45347(18)
O13 O 0.5062(4) 0.3190(2) 0.6324(2)
O14 O 0.4686(4) 0.4204(2) 0.5509(2)
O15 O 0.7387(3) 0.4084(2) 0.3069(2)
N1 N 0.5947(3) -0.1030(2) 0.5937(2)
N2 N 0.7925(4) -0.3647(3) 0.6306(3)
N3 N 0.6283(3) -0.1103(2) 0.42663(19)
H5 H 0.5874 -0.0698 0.4459
N4 N 0.8882(3) -0.1250(2) 0.1951(2)
H6 H 0.9227 -0.1735 0.2012
N5 N 1.1138(3) -0.1631(2) 0.1126(2)
N6 N 1.1309(3) 0.1137(3) 0.0209(2)
N7 N 0.9018(3) 0.1499(2) 0.0995(2)
H7 H 0.9371 0.1877 0.0706
N8 N 0.6700(3) 0.15414(19) 0.33812(19)
H8 H 0.6872 0.1035 0.3533
N9 N 0.6907(3) 0.09956(19) 0.4993(2)
N10 N 0.5089(4) 0.3500(2) 0.5664(2)
N11 N 0.5314(4) 0.4144(2) 0.4047(2)
H9 H 0.5068 0.4455 0.4405
N12 N 0.7417(4) 0.4808(3) 0.1620(3)
H10 H 0.7457 0.5058 0.1159
H11 H 0.8031 0.4530 0.1791
C3 C 0.6670(4) -0.1713(2) 0.4761(3)
C4 C 0.6550(4) -0.1693(3) 0.5574(3)
C5 C 0.6976(4) -0.2321(3) 0.6049(3)
H12 H 0.6897 -0.2285 0.6581
C6 C 0.7513(4) -0.3001(3) 0.5777(3)
C7 C 0.7611(4) -0.3040(3) 0.4992(3)
C8 C 0.7211(4) -0.2428(3) 0.4503(3)
H13 H 0.7298 -0.2481 0.3974
C9 C 0.6483(4) -0.1062(2) 0.3461(2)
C10 C 0.7606(4) -0.1157(2) 0.3112(3)
C11 C 0.7747(4) -0.1106(2) 0.2321(2)
C12 C 0.6806(4) -0.0938(3) 0.1899(2)
H14 H 0.6926 -0.0904 0.1361
C13 C 0.5687(4) -0.0816(2) 0.2233(2)
C14 C 0.5544(4) -0.0887(2) 0.3025(2)
H15 H 0.4787 -0.0813 0.3272
C15 C 0.9292(4) -0.0717(3) 0.3557(3)
H16 H 0.8840 -0.0195 0.3588
H17 H 0.9818 -0.0685 0.3085
C16 C 0.9985(6) -0.0918(4) 0.4244(4)
H18 H 1.0562 -0.0519 0.4234
H19 H 0.9454 -0.0874 0.4709
C17 C 1.0601(10) -0.1732(5) 0.4288(6)
H20 H 1.0019 -0.2134 0.4388
H21 H 1.1085 -0.1794 0.4724
C18 C 1.1373(8) -0.1907(5) 0.3570(6)
H22 H 1.0887 -0.1940 0.3154
H23 H 1.1834 -0.2416 0.3666
H24 H 1.1890 -0.1477 0.3430
C19 C 0.4670(4) -0.0588(3) 0.1747(3)
C20 C 0.4739(5) -0.1117(3) 0.1102(3)
H25 H 0.5459 -0.1041 0.0778
H26 H 0.4074 -0.0972 0.0800
H27 H 0.4729 -0.1678 0.1312
C21 C 0.4750(5) 0.0289(3) 0.1416(4)
H28 H 0.5488 0.0342 0.1107
H29 H 0.4707 0.0631 0.1831
H30 H 0.4108 0.0451 0.1098
C22 C 0.3511(4) -0.0670(4) 0.2204(3)
H31 H 0.3492 -0.1211 0.2467
H32 H 0.2887 -0.0575 0.1862
H33 H 0.3404 -0.0278 0.2578
C23 C 0.9448(4) -0.0675(3) 0.1511(2)
C24 C 1.0565(4) -0.0840(3) 0.1126(3)
C25 C 1.1125(4) -0.0228(3) 0.0705(2)
H34 H 1.1862 -0.0346 0.0446
C26 C 1.0648(4) 0.0542(3) 0.0652(2)
C27 C 0.9530(4) 0.0739(3) 0.1018(2)
C28 C 0.8981(3) 0.0113(2) 0.1428(2)
H35 H 0.8232 0.0230 0.1671
C29 C 0.7963(4) 0.1720(2) 0.1403(3)
C30 C 0.7054(4) 0.2126(3) 0.1032(3)
H36 H 0.7146 0.2239 0.0496
C31 C 0.6005(4) 0.2373(3) 0.1423(2)
C32 C 0.5876(4) 0.2155(3) 0.2205(2)
H37 H 0.5155 0.2279 0.2480
C33 C 0.6783(4) 0.1762(2) 0.2587(2)
C34 C 0.7846(4) 0.1578(2) 0.2201(2)
C35 C 0.5064(4) 0.2854(3) 0.0994(3)
C36 C 0.4075(4) 0.3180(3) 0.1540(3)
H38 H 0.4391 0.3500 0.1890
H39 H 0.3697 0.2733 0.1831
H40 H 0.3508 0.3515 0.1248
C37 C 0.5568(5) 0.3581(3) 0.0530(3)
H41 H 0.6177 0.3400 0.0154
H42 H 0.5896 0.3906 0.0870
H43 H 0.4952 0.3902 0.0270
C38 C 0.4574(6) 0.2336(4) 0.0477(4)
H44 H 0.5198 0.2133 0.0122
H45 H 0.3982 0.2654 0.0192
H46 H 0.4226 0.1886 0.0783
C39 C 0.9350(4) 0.1832(3) 0.2897(3)
H47 H 0.8816 0.2109 0.3268
H48 H 0.9615 0.2235 0.2485
C40 C 1.0368(5) 0.1425(3) 0.3279(3)
H49 H 1.0766 0.1832 0.3496
H50 H 1.0081 0.1046 0.3705
C41 C 1.1226(5) 0.0983(4) 0.2775(4)
H51 H 1.0838 0.0564 0.2568
H52 H 1.1844 0.0713 0.3081
C42 C 1.1765(6) 0.1508(4) 0.2130(4)
H53 H 1.2263 0.1178 0.1791
H54 H 1.2231 0.1883 0.2329
H55 H 1.1155 0.1808 0.1847
C43 C 0.6379(4) 0.2038(2) 0.3932(2)
C44 C 0.5993(4) 0.2830(2) 0.3748(2)
H56 H 0.5985 0.3019 0.3225
C45 C 0.5617(4) 0.3365(2) 0.4278(2)
C46 C 0.5578(4) 0.3054(2) 0.5057(2)
C47 C 0.6015(4) 0.2276(2) 0.5261(2)
H57 H 0.6030 0.2087 0.5783
C48 C 0.6425(3) 0.1774(2) 0.4721(2)
C49 C 0.5355(5) 0.4507(3) 0.3287(3)
C50 C 0.6365(5) 0.4478(3) 0.2824(3)
C51 C 0.6385(5) 0.4851(3) 0.2076(3)
C52 C 0.5391(5) 0.5276(3) 0.1843(3)
H58 H 0.5396 0.5524 0.1337
C53 C 0.4387(5) 0.5354(3) 0.2319(3)
C54 C 0.4379(5) 0.4948(3) 0.3039(3)
H59 H 0.3688 0.4973 0.3369
C55 C 0.8042(6) 0.4664(4) 0.3396(5)
H60 H 0.7574 0.4893 0.3826
H61 H 0.8251 0.5104 0.3007
C56 C 0.9103(7) 0.4198(6) 0.3661(5)
H62 H 0.9656 0.4576 0.3771
H63 H 0.9474 0.3895 0.3244
C57 C 0.8885(11) 0.3619(6) 0.4359(6)
H64 H 0.9599 0.3264 0.4432
H65 H 0.8268 0.3279 0.4268
C58 C 0.8519(12) 0.4018(8) 0.5108(7)
H66 H 0.9144 0.4328 0.5223
H67 H 0.8369 0.3603 0.5527
H68 H 0.7815 0.4373 0.5043
C59 C 0.3347(5) 0.5878(3) 0.2039(3)
C60 C 0.2876(6) 0.5505(4) 0.1394(4)
H69 H 0.3489 0.5446 0.0982
H70 H 0.2224 0.5851 0.1202
H71 H 0.2613 0.4978 0.1584
C61 C 0.3726(6) 0.6704(3) 0.1755(4)
H72 H 0.4370 0.6657 0.1361
H73 H 0.3979 0.6954 0.2178
H74 H 0.3075 0.7034 0.1542
C62 C 0.2359(6) 0.5968(4) 0.2671(4)
H75 H 0.2654 0.6174 0.3105
H76 H 0.2059 0.5445 0.2832
H77 H 0.1734 0.6340 0.2478
C63? C 1.0530(15) -0.1093(14) 0.3521(15)
H78? H 1.0754 -0.1216 0.2993
H79? H 1.1040 -0.0688 0.3634
C64? C 1.078(5) -0.184(2) 0.4039(19)
H80? H 1.1614 -0.2013 0.4012
H81? H 1.0335 -0.2282 0.3925
C65? C 1.035(3) -0.154(2) 0.482(2)
H82? H 1.0685 -0.1043 0.4867
H83? H 1.0583 -0.1948 0.5225
H84? H 0.9500 -0.1456 0.4855
C66? C 0.8551(18) 0.4404(18) 0.3048(13)
H85? H 0.9179 0.4006 0.2888
H86? H 0.8600 0.4902 0.2702
C67? C 0.861(3) 0.4557(18) 0.3854(13)
H87? H 0.7927 0.4924 0.3991
H88? H 0.9305 0.4848 0.3877
C68? C 0.864(4) 0.386(2) 0.4463(18)
H89? H 0.9453 0.3684 0.4560
H90? H 0.8279 0.3405 0.4298
C69? C 0.797(4) 0.414(3) 0.520(2)
H91? H 0.8401 0.4525 0.5402
H92? H 0.7868 0.3675 0.5573
H93? H 0.7204 0.4388 0.5075
loop_
_geom_bond_atom_site_label_1
_geom_bond_atom_site_label_2
_geom_bond_site_symmetry_1
_geom_bond_site_symmetry_2
Cl1 C1 1_555 1_555
Cl2 C1 1_555 1_555
C1 H1 1_555 1_555
H2 C1 1_555 1_555
Cl3 C2 1_555 1_555
Cl4 C2 1_555 1_555
C2 H3 1_555 1_555
H4 C2 1_555 1_555
F1 C7 1_555 1_555
O1 N1 1_555 1_555
O2 N1 1_555 1_555
O3 N2 1_555 1_555
O4 N2 1_555 1_555
O5 C10 1_555 1_555
O6 N5 1_555 1_555
O7 N5 1_555 1_555
O8 N6 1_555 1_555
O9 N6 1_555 1_555
O10 C34 1_555 1_555
O11 N9 1_555 1_555
O12 N9 1_555 1_555
O13 N10 1_555 1_555
O14 N10 1_555 1_555
O15 C50 1_555 1_555
N1 C4 1_555 1_555
N2 C6 1_555 1_555
N3 H5 1_555 1_555
N4 H6 1_555 1_555
N5 C24 1_555 1_555
N6 C26 1_555 1_555
N7 H7 1_555 1_555
N8 H8 1_555 1_555
N9 C48 1_555 1_555
N10 C46 1_555 1_555
N11 H9 1_555 1_555
N12 H10 1_555 1_555
H11 N12 1_555 1_555
C3 N3 1_555 1_555
C4 C3 1_555 1_555
C5 C4 1_555 1_555
H12 C5 1_555 1_555
C6 C5 1_555 1_555
C7 C6 1_555 1_555
C8 C3 1_555 1_555
H13 C8 1_555 1_555
C9 N3 1_555 1_555
C10 C9 1_555 1_555
C11 N4 1_555 1_555
C12 C11 1_555 1_555
H14 C12 1_555 1_555
C13 C12 1_555 1_555
C14 C9 1_555 1_555
H15 C14 1_555 1_555
C15 O5 1_555 1_555
H16 C15 1_555 1_555
H17 C15 1_555 1_555
C16 C15 1_555 1_555
H18 C16 1_555 1_555
H19 C16 1_555 1_555
C17 C16 1_555 1_555
H20 C17 1_555 1_555
H21 C17 1_555 1_555
C18 C17 1_555 1_555
H22 C18 1_555 1_555
H23 C18 1_555 1_555
H24 C18 1_555 1_555
C19 C13 1_555 1_555
C20 C19 1_555 1_555
H25 C20 1_555 1_555
H26 C20 1_555 1_555
H27 C20 1_555 1_555
C21 C19 1_555 1_555
H28 C21 1_555 1_555
H29 C21 1_555 1_555
H30 C21 1_555 1_555
C22 C19 1_555 1_555
H31 C22 1_555 1_555
H32 C22 1_555 1_555
H33 C22 1_555 1_555
C23 N4 1_555 1_555
C24 C23 1_555 1_555
C25 C24 1_555 1_555
H34 C25 1_555 1_555
C26 C25 1_555 1_555
C27 N7 1_555 1_555
C28 C23 1_555 1_555
H35 C28 1_555 1_555
C29 N7 1_555 1_555
C30 C29 1_555 1_555
H36 C30 1_555 1_555
C31 C30 1_555 1_555
C32 C31 1_555 1_555
H37 C32 1_555 1_555
C33 N8 1_555 1_555
C34 C29 1_555 1_555
C35 C31 1_555 1_555
C36 C35 1_555 1_555
H38 C36 1_555 1_555
H39 C36 1_555 1_555
H40 C36 1_555 1_555
C37 C35 1_555 1_555
H41 C37 1_555 1_555
H42 C37 1_555 1_555
H43 C37 1_555 1_555
C38 C35 1_555 1_555
H44 C38 1_555 1_555
H45 C38 1_555 1_555
H46 C38 1_555 1_555
C39 O10 1_555 1_555
H47 C39 1_555 1_555
H48 C39 1_555 1_555
C40 C39 1_555 1_555
H49 C40 1_555 1_555
H50 C40 1_555 1_555
C41 C40 1_555 1_555
H51 C41 1_555 1_555
H52 C41 1_555 1_555
C42 C41 1_555 1_555
H53 C42 1_555 1_555
H54 C42 1_555 1_555
H55 C42 1_555 1_555
C43 N8 1_555 1_555
C44 C43 1_555 1_555
H56 C44 1_555 1_555
C45 N11 1_555 1_555
C46 C45 1_555 1_555
C47 C46 1_555 1_555
H57 C47 1_555 1_555
C48 C43 1_555 1_555
C49 N11 1_555 1_555
C50 C49 1_555 1_555
C51 N12 1_555 1_555
C52 C51 1_555 1_555
H58 C52 1_555 1_555
C53 C52 1_555 1_555
C54 C49 1_555 1_555
H59 C54 1_555 1_555
C55 O15 1_555 1_555
H60 C55 1_555 1_555
H61 C55 1_555 1_555
C56 C55 1_555 1_555
H62 C56 1_555 1_555
H63 C56 1_555 1_555
C57 C56 1_555 1_555
H64 C57 1_555 1_555
H65 C57 1_555 1_555
C58 C57 1_555 1_555
H66 C58 1_555 1_555
H67 C58 1_555 1_555
H68 C58 1_555 1_555
C59 C53 1_555 1_555
C60 C59 1_555 1_555
H69 C60 1_555 1_555
H70 C60 1_555 1_555
H71 C60 1_555 1_555
C61 C59 1_555 1_555
H72 C61 1_555 1_555
H73 C61 1_555 1_555
H74 C61 1_555 1_555
C62 C59 1_555 1_555
H75 C62 1_555 1_555
H76 C62 1_555 1_555
H77 C62 1_555 1_555
C7 C8 1_555 1_555
C10 C11 1_555 1_555
C13 C14 1_555 1_555
C26 C27 1_555 1_555
C27 C28 1_555 1_555
C32 C33 1_555 1_555
C33 C34 1_555 1_555
C44 C45 1_555 1_555
C47 C48 1_555 1_555
C50 C51 1_555 1_555
C53 C54 1_555 1_555

#END
