
#######################################################################
#
#                 Cambridge Crystallographic Data Centre
#                                CCDC 
#
#######################################################################
#
# If this CIF has been generated from an entry in the Cambridge 
# Structural Database, then it will include bibliographic, chemical, 
# crystal, experimental, refinement or atomic coordinate data resulting 
# from the CCDC's data processing and validation procedures.
#
#######################################################################

data_CEVFOA
_chemical_formula_moiety         'C23 H28 N2 O4 S2'
_chemical_name_systematic        
2-(Cyclohexyl(phenylsulfanyl)methyl)-1-((2-nitrophenyl)sulfonyl)pyrrolidine
_symmetry_cell_setting           triclinic
_symmetry_space_group_name_H-M   'P -1'
_symmetry_Int_Tables_number      2
_space_group_name_Hall           '-P 1'
loop_
_symmetry_equiv_pos_site_id
_symmetry_equiv_pos_as_xyz
1 x,y,z
2 -x,-y,-z
_cell_length_a                   7.585(2)
_cell_length_b                   9.942(3)
_cell_length_c                   15.756(4)
_cell_angle_alpha                104.438(4)
_cell_angle_beta                 91.345(3)
_cell_angle_gamma                101.177(5)
_cell_volume                     1125.58
_exptl_crystal_colour            colorless
_exptl_crystal_description       plate
_cell_formula_units_Z            2
loop_
_atom_site_label
_atom_site_type_symbol
_atom_site_fract_x
_atom_site_fract_y
_atom_site_fract_z
S1 S 0.92615(6) 0.88054(4) 0.17398(3)
S2 S 0.86922(6) 0.44544(5) 0.32089(3)
O1 O 1.31102(19) 0.7810(2) 0.02341(11)
O2 O 1.1348(2) 0.61628(16) 0.06674(10)
O3 O 1.10767(17) 0.87469(14) 0.19704(8)
O4 O 0.8634(2) 1.00961(14) 0.20291(9)
N1 N 1.1624(2) 0.71751(18) 0.03470(10)
N2 N 0.79266(19) 0.76187(16) 0.20857(9)
C1 C 0.8966(2) 0.83590(18) 0.05732(11)
C2 C 1.0058(2) 0.76220(18) 0.00144(11)
C3 C 0.9774(3) 0.7294(2) -0.08859(12)
H1 H 1.0553 0.6806 -0.1250
C4 C 0.8342(3) 0.7683(2) -0.12546(13)
H2 H 0.8102 0.7429 -0.1875
C5 C 0.7263(3) 0.8442(2) -0.07197(14)
H3 H 0.6292 0.8723 -0.0974
C6 C 0.7585(3) 0.8795(2) 0.01861(13)
H4 H 0.6854 0.9341 0.0547
C7 C 0.5939(2) 0.7438(2) 0.18926(14)
H5 H 0.5681 0.7687 0.1339
H6 H 0.5411 0.8041 0.2376
C8 C 0.5190(2) 0.5866(2) 0.18098(14)
H7 H 0.4744 0.5716 0.2372
H8 H 0.4195 0.5480 0.1343
C9 C 0.6799(2) 0.5171(2) 0.15728(12)
H9 H 0.6981 0.5020 0.0938
H10 H 0.6637 0.4248 0.1724
C10 C 0.8383(2) 0.62455(18) 0.21323(11)
H11 H 0.9542 0.6135 0.1860
C11 C 0.8537(2) 0.62274(17) 0.31079(11)
H12 H 0.7407 0.6454 0.3370
C12 C 1.0138(2) 0.73234(18) 0.36549(11)
H13 H 1.0106 0.8253 0.3524
C13 C 0.9950(3) 0.7530(2) 0.46410(12)
H14 H 0.8810 0.7845 0.4791
H15 H 0.9888 0.6610 0.4787
C14 C 1.1521(3) 0.8621(2) 0.51940(13)
H16 H 1.1502 0.9568 0.5103
H17 H 1.1386 0.8674 0.5824
C15 C 1.3309(3) 0.8228(2) 0.49468(13)
H18 H 1.3375 0.7323 0.5089
H19 H 1.4306 0.8972 0.5294
C16 C 1.3524(3) 0.8074(2) 0.39702(13)
H20 H 1.4678 0.7782 0.3819
H21 H 1.3564 0.9002 0.3839
C17 C 1.1966(2) 0.69720(19) 0.34085(12)
H22 H 1.2103 0.6937 0.2781
H23 H 1.2012 0.6023 0.3490
C18 C 0.6423(2) 0.36266(18) 0.32825(11)
C19 C 0.5221(2) 0.43018(19) 0.37967(12)
H24 H 0.5573 0.5275 0.4104
C20 C 0.3506(3) 0.3549(2) 0.38594(13)
H25 H 0.2678 0.4018 0.4199
C21 C 0.2992(3) 0.2125(2) 0.34313(13)
H26 H 0.1818 0.1615 0.3479
C22 C 0.4195(3) 0.1444(2) 0.29338(13)
H27 H 0.3853 0.0461 0.2647
C23 C 0.5899(3) 0.21923(19) 0.28523(12)
H28 H 0.6712 0.1724 0.2501
loop_
_geom_bond_atom_site_label_1
_geom_bond_atom_site_label_2
_geom_bond_site_symmetry_1
_geom_bond_site_symmetry_2
S1 O3 1_555 1_555
S2 C11 1_555 1_555
O1 N1 1_555 1_555
O2 N1 1_555 1_555
O4 S1 1_555 1_555
N1 C2 1_555 1_555
N2 S1 1_555 1_555
C1 S1 1_555 1_555
C2 C1 1_555 1_555
C3 C2 1_555 1_555
H1 C3 1_555 1_555
C4 C3 1_555 1_555
H2 C4 1_555 1_555
C5 C4 1_555 1_555
H3 C5 1_555 1_555
C6 C1 1_555 1_555
H4 C6 1_555 1_555
C7 N2 1_555 1_555
H5 C7 1_555 1_555
H6 C7 1_555 1_555
C8 C7 1_555 1_555
H7 C8 1_555 1_555
H8 C8 1_555 1_555
C9 C8 1_555 1_555
H9 C9 1_555 1_555
H10 C9 1_555 1_555
C10 N2 1_555 1_555
H11 C10 1_555 1_555
C11 C10 1_555 1_555
H12 C11 1_555 1_555
C12 C11 1_555 1_555
H13 C12 1_555 1_555
C13 C12 1_555 1_555
H14 C13 1_555 1_555
H15 C13 1_555 1_555
C14 C13 1_555 1_555
H16 C14 1_555 1_555
H17 C14 1_555 1_555
C15 C14 1_555 1_555
H18 C15 1_555 1_555
H19 C15 1_555 1_555
C16 C15 1_555 1_555
H20 C16 1_555 1_555
H21 C16 1_555 1_555
C17 C12 1_555 1_555
H22 C17 1_555 1_555
H23 C17 1_555 1_555
C18 S2 1_555 1_555
C19 C18 1_555 1_555
H24 C19 1_555 1_555
C20 C19 1_555 1_555
H25 C20 1_555 1_555
C21 C20 1_555 1_555
H26 C21 1_555 1_555
C22 C21 1_555 1_555
H27 C22 1_555 1_555
C23 C18 1_555 1_555
H28 C23 1_555 1_555
C5 C6 1_555 1_555
C9 C10 1_555 1_555
C16 C17 1_555 1_555
C22 C23 1_555 1_555

#END
