
#######################################################################
#
#                 Cambridge Crystallographic Data Centre
#                                CCDC 
#
#######################################################################
#
# If this CIF has been generated from an entry in the Cambridge 
# Structural Database, then it will include bibliographic, chemical, 
# crystal, experimental, refinement or atomic coordinate data resulting 
# from the CCDC's data processing and validation procedures.
#
#######################################################################

data_CEVFEQ
_chemical_formula_moiety         'C22 H28 N2 O6 S2'
_chemical_name_systematic        
1-((2-Nitrophenyl)sulfonyl)-2-pentyl-3-(phenylsulfonyl)piperidine
_symmetry_cell_setting           monoclinic
_symmetry_space_group_name_H-M   'P 21/n'
_symmetry_Int_Tables_number      14
_space_group_name_Hall           '-P 2yn'
loop_
_symmetry_equiv_pos_site_id
_symmetry_equiv_pos_as_xyz
1 x,y,z
2 1/2-x,1/2+y,1/2-z
3 -x,-y,-z
4 1/2+x,1/2-y,1/2+z
_cell_length_a                   13.010(2)
_cell_length_b                   12.1761(19)
_cell_length_c                   15.951(3)
_cell_angle_alpha                90
_cell_angle_beta                 111.573(3)
_cell_angle_gamma                90
_cell_volume                     2349.81
_exptl_crystal_colour            colorless
_exptl_crystal_description       block
_cell_formula_units_Z            4
loop_
_atom_site_label
_atom_site_type_symbol
_atom_site_fract_x
_atom_site_fract_y
_atom_site_fract_z
S1 S 0.51199(5) 0.78929(5) 0.20711(4)
S2 S 0.64318(6) 1.12110(6) 0.39603(4)
O1 O 0.3438(2) 0.6720(2) -0.04953(17)
O2 O 0.43522(19) 0.82212(19) -0.00136(14)
O3 O 0.55357(16) 0.70666(15) 0.16430(15)
O4 O 0.53121(17) 0.77902(17) 0.30141(13)
O5 O 0.53674(17) 1.10936(19) 0.40402(14)
O6 O 0.6725(2) 1.22530(16) 0.36820(15)
N1 N 0.3683(2) 0.7523(2) -0.00076(15)
N2 N 0.55302(17) 0.90812(17) 0.18642(14)
C1 C 0.3097(2) 0.7676(2) 0.06168(17)
C2 C 0.1956(2) 0.7576(2) 0.0240(2)
H1 H 0.1597 0.7407 -0.0381
C3 C 0.1351(2) 0.7727(3) 0.0783(2)
H2 H 0.0568 0.7671 0.0534
C4 C 0.1878(2) 0.7959(2) 0.1685(2)
H3 H 0.1455 0.8059 0.2054
C5 C 0.3020(2) 0.8047(2) 0.20595(19)
H4 H 0.3373 0.8204 0.2684
C6 C 0.3654(2) 0.7906(2) 0.15283(16)
C7 C 0.6452(2) 0.9154(2) 0.15288(18)
H5 H 0.6315 0.9772 0.1098
H6 H 0.6486 0.8469 0.1206
C8 C 0.7543(2) 0.9328(2) 0.23015(18)
H7 H 0.8126 0.9472 0.2055
H8 H 0.7744 0.8649 0.2667
C9 C 0.7499(2) 1.0290(2) 0.29108(19)
H9 H 0.8195 1.0320 0.3445
H10 H 0.7421 1.0991 0.2578
C10 C 0.6518(2) 1.0142(2) 0.32119(17)
H11 H 0.6639 0.9436 0.3556
C11 C 0.5410(2) 1.0031(2) 0.24048(16)
H12 H 0.4820 0.9851 0.2645
C12 C 0.5048(2) 1.1054(2) 0.18088(18)
H13 H 0.5011 1.1685 0.2188
H14 H 0.5612 1.1224 0.1548
C13 C 0.3928(2) 1.0921(2) 0.10448(17)
H15 H 0.3861 1.1481 0.0578
H16 H 0.3899 1.0190 0.0766
C14 C 0.2956(2) 1.1031(3) 0.13434(19)
H17 H 0.2961 1.1782 0.1583
H18 H 0.3058 1.0509 0.1844
C15 C 0.1837(2) 1.0824(3) 0.06159(19)
H19 H 0.1833 1.0082 0.0361
H20 H 0.1716 1.1364 0.0124
C16 C 0.0894(3) 1.0907(3) 0.0954(2)
H21 H 0.0194 1.0752 0.0458
H22 H 0.0871 1.1649 0.1184
H23 H 0.1005 1.0372 0.1439
C17 C 0.7453(2) 1.0862(2) 0.50164(18)
C18 C 0.7136(2) 1.0271(2) 0.56255(18)
H24 H 0.6387 1.0067 0.5484
C19 C 0.7944(3) 0.9988(3) 0.6446(2)
H25 H 0.7747 0.9585 0.6875
C20 C 0.9036(3) 1.0289(3) 0.6646(2)
H26 H 0.9583 1.0088 0.7208
C21 C 0.9332(3) 1.0880(2) 0.6033(2)
H27 H 1.0082 1.1082 0.6176
C22 C 0.8541(2) 1.1182(2) 0.52091(19)
H28 H 0.8739 1.1597 0.4787
loop_
_geom_bond_atom_site_label_1
_geom_bond_atom_site_label_2
_geom_bond_site_symmetry_1
_geom_bond_site_symmetry_2
S1 O3 1_555 1_555
S2 O5 1_555 1_555
O1 N1 1_555 1_555
O2 N1 1_555 1_555
O4 S1 1_555 1_555
O6 S2 1_555 1_555
N1 C1 1_555 1_555
N2 S1 1_555 1_555
C1 C2 1_555 1_555
C2 H1 1_555 1_555
C3 C2 1_555 1_555
H2 C3 1_555 1_555
C4 C3 1_555 1_555
H3 C4 1_555 1_555
C5 C4 1_555 1_555
H4 C5 1_555 1_555
C6 S1 1_555 1_555
C7 N2 1_555 1_555
H5 C7 1_555 1_555
H6 C7 1_555 1_555
C8 C7 1_555 1_555
H7 C8 1_555 1_555
H8 C8 1_555 1_555
C9 C8 1_555 1_555
H9 C9 1_555 1_555
H10 C9 1_555 1_555
C10 S2 1_555 1_555
H11 C10 1_555 1_555
C11 N2 1_555 1_555
H12 C11 1_555 1_555
C12 C11 1_555 1_555
H13 C12 1_555 1_555
H14 C12 1_555 1_555
C13 C12 1_555 1_555
H15 C13 1_555 1_555
H16 C13 1_555 1_555
C14 C13 1_555 1_555
H17 C14 1_555 1_555
H18 C14 1_555 1_555
C15 C14 1_555 1_555
H19 C15 1_555 1_555
H20 C15 1_555 1_555
C16 C15 1_555 1_555
H21 C16 1_555 1_555
H22 C16 1_555 1_555
H23 C16 1_555 1_555
C17 S2 1_555 1_555
C18 C17 1_555 1_555
H24 C18 1_555 1_555
C19 C18 1_555 1_555
H25 C19 1_555 1_555
C20 C19 1_555 1_555
H26 C20 1_555 1_555
C21 C20 1_555 1_555
H27 C21 1_555 1_555
C22 C17 1_555 1_555
H28 C22 1_555 1_555
C1 C6 1_555 1_555
C5 C6 1_555 1_555
C9 C10 1_555 1_555
C10 C11 1_555 1_555
C21 C22 1_555 1_555

#END
