
#######################################################################
#
#                 Cambridge Crystallographic Data Centre
#                                CCDC 
#
#######################################################################
#
# If this CIF has been generated from an entry in the Cambridge 
# Structural Database, then it will include bibliographic, chemical, 
# crystal, experimental, refinement or atomic coordinate data resulting 
# from the CCDC's data processing and validation procedures.
#
#######################################################################

data_CEVHIV
_chemical_formula_moiety         'C12 H9 N2 1+,C35 H29 O20 S5 1-,8.5(H2 O1)'
_chemical_name_systematic        
'5-sulfonato-11,17,23,29-tetrasulfo-31,32,33,34,35-pentahydroxycalix(5)arene 1,10-phenathrolinium clathrate hydrate'
_symmetry_cell_setting           triclinic
_symmetry_space_group_name_H-M   'P -1'
_symmetry_Int_Tables_number      2
_space_group_name_Hall           '-P 1'
loop_
_symmetry_equiv_pos_site_id
_symmetry_equiv_pos_as_xyz
1 x,y,z
2 -x,-y,-z
_cell_length_a                   11.1409(13)
_cell_length_b                   17.431(2)
_cell_length_c                   20.135(2)
_cell_angle_alpha                115.410(2)
_cell_angle_beta                 91.426(2)
_cell_angle_gamma                92.933(2)
_cell_volume                     3522.5
_cell_formula_units_Z            2
loop_
_atom_site_label
_atom_site_type_symbol
_atom_site_fract_x
_atom_site_fract_y
_atom_site_fract_z
S1 S 0.3979(3) 0.2985(2) 0.52017(13)
S2 S 0.56831(15) 0.13298(11) 0.10326(10)
S3 S 0.3727(3) 0.30710(17) -0.16414(12)
S4 S -0.12145(18) 0.24992(14) -0.02275(12)
S5 S -0.1232(2) 0.25640(16) 0.35083(14)
O1 O 0.3757(4) 0.5104(3) 0.3593(3)
H1 H 0.3885 0.5612 0.3867
O2 O 0.356(2) 0.2120(8) 0.4748(10)
O3 O 0.3659(12) 0.3559(7) 0.5953(5)
O4 O 0.5249(10) 0.2948(14) 0.5355(11)
O8 O 0.5539(4) 0.5052(3) 0.2542(2)
H2 H 0.5611 0.5252 0.2243
O9 O 0.4800(5) 0.0983(3) 0.1364(3)
O10 O 0.6892(4) 0.1117(3) 0.1139(3)
O11 O 0.5354(5) 0.1101(3) 0.0264(3)
O12 O 0.3728(4) 0.5169(3) 0.1538(3)
H3 H 0.4185 0.5599 0.1680
O16 O 0.2809(10) 0.2413(6) -0.1740(6)
O17 O 0.4889(9) 0.2689(7) -0.1790(6)
O18 O 0.3661(10) 0.3547(6) -0.2062(5)
O19 O 0.0793(6) 0.5731(4) 0.2115(4)
H4 H 0.0546 0.5781 0.2511
O20 O -0.1210(7) 0.1872(4) 0.0064(4)
O21 O -0.0434(6) 0.2272(4) -0.0836(3)
O22 O -0.2432(6) 0.2634(4) -0.0407(4)
O23 O 0.0945(6) 0.5698(5) 0.3470(4)
H5 H 0.0560 0.5805 0.3171
O24 O -0.1499(15) 0.1990(9) 0.2726(5)
O25 O -0.0340(10) 0.2270(10) 0.3833(9)
O26 O -0.2257(9) 0.2783(9) 0.3940(8)
C1 C 0.2944(7) 0.4667(5) 0.4486(4)
C2 C 0.3025(8) 0.4183(7) 0.4854(4)
H7 H 0.2442 0.4211 0.5186
C3 C 0.3952(9) 0.3641(6) 0.4757(4)
C4 C 0.4865(7) 0.3639(6) 0.4276(4)
H8 H 0.5503 0.3294 0.4209
C5 C 0.4808(6) 0.4141(5) 0.3912(3)
C6 C 0.3836(6) 0.4648(5) 0.3990(4)
C7 C 0.5843(6) 0.4180(5) 0.3452(3)
H9 H 0.6067 0.4775 0.3588
H10 H 0.6524 0.3946 0.3592
C8 C 0.5665(5) 0.3735(4) 0.2625(3)
C9 C 0.5656(5) 0.2850(4) 0.2256(4)
H11 H 0.5656 0.2528 0.2524
C10 C 0.5647(5) 0.2450(4) 0.1497(4)
C11 C 0.5672(5) 0.2923(4) 0.1087(3)
H12 H 0.5683 0.2648 0.0577
C12 C 0.5679(5) 0.3801(4) 0.1441(3)
C13 C 0.5608(5) 0.4191(4) 0.2195(3)
C14 C 0.5851(6) 0.4320(4) 0.0993(4)
H13 H 0.6039 0.4912 0.1330
H14 H 0.6534 0.4123 0.0689
C15 C 0.4773(6) 0.4263(4) 0.0504(4)
C16 C 0.4769(7) 0.3769(5) -0.0246(4)
H15 H 0.5419 0.3447 -0.0449
C17 C 0.3778(8) 0.3751(5) -0.0707(4)
C18 C 0.2836(8) 0.4253(6) -0.0395(5)
H16 H 0.2209 0.4264 -0.0704
C19 C 0.2787(6) 0.4729(5) 0.0339(5)
C20 C 0.3782(6) 0.4716(4) 0.0795(4)
C21 C 0.1732(7) 0.5224(5) 0.0661(5)
H17 H 0.1382 0.5407 0.0311
H18 H 0.2001 0.5729 0.1101
C22 C 0.0760(7) 0.4712(5) 0.0861(6)
C23 C 0.0278(6) 0.3944(5) 0.0313(5)
H19 H 0.0537 0.3757 -0.0163
C24 C -0.0589(6) 0.3452(5) 0.0471(5)
C25 C -0.1013(6) 0.3753(5) 0.1188(5)
H20 H -0.1594 0.3426 0.1295
C26 C -0.0573(7) 0.4526(5) 0.1727(5)
C27 C 0.0337(8) 0.4976(5) 0.1569(6)
C28 C -0.1079(8) 0.4846(6) 0.2475(6)
H21 H -0.1939 0.4699 0.2410
H22 H -0.0966 0.5462 0.2705
C29 C -0.0567(7) 0.4527(6) 0.2998(4)
C30 C -0.1051(7) 0.3785(6) 0.3003(5)
H23 H -0.1684 0.3474 0.2670
C31 C -0.0609(7) 0.3500(5) 0.3494(5)
C32 C 0.0312(7) 0.3981(6) 0.4025(4)
H24 H 0.0566 0.3813 0.4384
C33 C 0.0834(7) 0.4715(6) 0.4002(5)
C34 C 0.0410(8) 0.4961(6) 0.3500(5)
C35 C 0.1870(7) 0.5214(6) 0.4568(5)
H25 H 0.2128 0.5715 0.4501
H26 H 0.1585 0.5402 0.5061
N1 N 0.2544(5) 0.0956(3) 0.0337(3)
N2 N 0.2406(5) 0.1005(4) 0.1772(3)
H6 H 0.2426 0.0524 0.1393
C36 C 0.2641(7) 0.0943(5) -0.0326(4)
H27 H 0.2722 0.0428 -0.0732
C37 C 0.2624(7) 0.1670(6) -0.0420(5)
H28 H 0.2671 0.1647 -0.0889
C38 C 0.2539(7) 0.2420(6) 0.0165(6)
H29 H 0.2554 0.2919 0.0103
C39 C 0.2427(6) 0.2454(4) 0.0875(4)
C40 C 0.2354(7) 0.3232(5) 0.1521(6)
H30 H 0.2350 0.3741 0.1477
C41 C 0.2292(7) 0.3242(5) 0.2176(6)
H31 H 0.2223 0.3759 0.2583
C42 C 0.2328(6) 0.2495(5) 0.2280(4)
C43 C 0.2326(8) 0.2468(7) 0.2977(4)
H32 H 0.2310 0.2977 0.3399
C44 C 0.2347(9) 0.1738(7) 0.3048(5)
H33 H 0.2327 0.1733 0.3508
C45 C 0.2400(8) 0.1003(6) 0.2423(4)
H34 H 0.2433 0.0490 0.2458
C46 C 0.2383(5) 0.1706(4) 0.1661(4)
C47 C 0.2442(5) 0.1695(4) 0.0947(4)
O30 O 0.2770(5) 0.9520(3) 0.0564(3)
O31 O 0.0122(6) 0.0314(4) 0.0690(4)
O32 O 0.2200(12) 0.3080(8) 0.6713(6)
O33 O 0.9412(7) 0.1795(5) 0.1443(4)
O34 O 0.9974(10) 0.0531(6) 0.8559(5)
O35 O 0.5363(15) 0.9861(10) 0.1789(9)
O36 O 0.4131(17) 0.8485(12) 0.1457(10)
O37 O 0.0172(18) 0.2897(12) 0.8149(10)
O38 O 0.3015(19) 0.6844(13) 0.2430(11)
O39 O 0.691(2) 0.3197(15) 0.6201(13)
O40 O 0.774(2) 0.0209(17) 0.2272(14)
O41 O 0.937(3) 0.026(2) 0.285(2)
O5? O 0.2886(8) 0.2414(7) 0.4918(6)
O6? O 0.4306(18) 0.3394(11) 0.5966(5)
O7? O 0.4961(10) 0.2426(9) 0.4943(9)
O13? O 0.3612(18) 0.2216(7) -0.1760(10)
O14? O 0.4766(14) 0.3272(12) -0.1928(11)
O15? O 0.2762(15) 0.3432(12) -0.1919(11)
O27? O -0.0739(14) 0.1844(8) 0.2932(6)
O28? O -0.0792(16) 0.2551(10) 0.4195(6)
O29? O -0.2520(7) 0.2605(8) 0.3530(8)
loop_
_geom_bond_atom_site_label_1
_geom_bond_atom_site_label_2
_geom_bond_site_symmetry_1
_geom_bond_site_symmetry_2
S1 O2 1_555 1_555
S2 O9 1_555 1_555
S3 O16 1_555 1_555
S4 O20 1_555 1_555
S5 O24 1_555 1_555
O1 H1 1_555 1_555
O3 S1 1_555 1_555
O4 S1 1_555 1_555
O8 H2 1_555 1_555
O10 S2 1_555 1_555
O11 S2 1_555 1_555
O12 H3 1_555 1_555
O17 S3 1_555 1_555
O18 S3 1_555 1_555
O19 H4 1_555 1_555
O21 S4 1_555 1_555
O22 S4 1_555 1_555
O23 H5 1_555 1_555
O25 S5 1_555 1_555
O26 S5 1_555 1_555
N1 C36 1_555 1_555
N2 H6 1_555 1_555
C1 C2 1_555 1_555
C2 H7 1_555 1_555
C3 S1 1_555 1_555
C4 C3 1_555 1_555
H8 C4 1_555 1_555
C5 C4 1_555 1_555
C6 O1 1_555 1_555
C7 C5 1_555 1_555
H9 C7 1_555 1_555
H10 C7 1_555 1_555
C8 C7 1_555 1_555
C9 C8 1_555 1_555
H11 C9 1_555 1_555
C10 S2 1_555 1_555
C11 C10 1_555 1_555
H12 C11 1_555 1_555
C12 C11 1_555 1_555
C13 O8 1_555 1_555
C14 C12 1_555 1_555
H13 C14 1_555 1_555
H14 C14 1_555 1_555
C15 C14 1_555 1_555
C16 C15 1_555 1_555
H15 C16 1_555 1_555
C17 S3 1_555 1_555
C18 C17 1_555 1_555
H16 C18 1_555 1_555
C19 C18 1_555 1_555
C20 O12 1_555 1_555
C21 C19 1_555 1_555
H17 C21 1_555 1_555
H18 C21 1_555 1_555
C22 C21 1_555 1_555
C23 C22 1_555 1_555
H19 C23 1_555 1_555
C24 S4 1_555 1_555
C25 C24 1_555 1_555
H20 C25 1_555 1_555
C26 C25 1_555 1_555
C27 O19 1_555 1_555
C28 C26 1_555 1_555
H21 C28 1_555 1_555
H22 C28 1_555 1_555
C29 C28 1_555 1_555
C30 C29 1_555 1_555
H23 C30 1_555 1_555
C31 S5 1_555 1_555
C32 C31 1_555 1_555
H24 C32 1_555 1_555
C33 C32 1_555 1_555
C34 O23 1_555 1_555
C35 C1 1_555 1_555
H25 C35 1_555 1_555
H26 C35 1_555 1_555
C36 H27 1_555 1_555
C37 C36 1_555 1_555
H28 C37 1_555 1_555
C38 C37 1_555 1_555
H29 C38 1_555 1_555
C39 C38 1_555 1_555
C40 C39 1_555 1_555
H30 C40 1_555 1_555
C41 C40 1_555 1_555
H31 C41 1_555 1_555
C42 C41 1_555 1_555
C43 C42 1_555 1_555
H32 C43 1_555 1_555
C44 C43 1_555 1_555
H33 C44 1_555 1_555
C45 N2 1_555 1_555
H34 C45 1_555 1_555
C46 N2 1_555 1_555
C47 N1 1_555 1_555
C1 C6 1_555 1_555
C2 C3 1_555 1_555
C5 C6 1_555 1_555
C8 C13 1_555 1_555
C9 C10 1_555 1_555
C12 C13 1_555 1_555
C15 C20 1_555 1_555
C16 C17 1_555 1_555
C19 C20 1_555 1_555
C22 C27 1_555 1_555
C23 C24 1_555 1_555
C26 C27 1_555 1_555
C29 C34 1_555 1_555
C30 C31 1_555 1_555
C33 C34 1_555 1_555
C33 C35 1_555 1_555
C39 C47 1_555 1_555
C42 C46 1_555 1_555
C44 C45 1_555 1_555
C46 C47 1_555 1_555

#END
