
#######################################################################
#
#                 Cambridge Crystallographic Data Centre
#                                CCDC 
#
#######################################################################
#
# If this CIF has been generated from an entry in the Cambridge 
# Structural Database, then it will include bibliographic, chemical, 
# crystal, experimental, refinement or atomic coordinate data resulting 
# from the CCDC's data processing and validation procedures.
#
#######################################################################

data_CEVQUR
_chemical_formula_moiety         'C19 H14 O3'
_chemical_name_systematic        
2-(3-Methyl-2-furyl)-2-phenyl-1-benzofuran-3(2H)-one
_symmetry_cell_setting           triclinic
_symmetry_space_group_name_H-M   'P -1'
_symmetry_Int_Tables_number      2
_space_group_name_Hall           '-P 1'
loop_
_symmetry_equiv_pos_site_id
_symmetry_equiv_pos_as_xyz
1 x,y,z
2 -x,-y,-z
_cell_length_a                   8.7377(5)
_cell_length_b                   8.8960(5)
_cell_length_c                   10.4794(6)
_cell_angle_alpha                71.552(2)
_cell_angle_beta                 73.334(2)
_cell_angle_gamma                69.603(2)
_cell_volume                     709.847
_exptl_crystal_colour            colorless
_cell_formula_units_Z            2
loop_
_atom_site_label
_atom_site_type_symbol
_atom_site_fract_x
_atom_site_fract_y
_atom_site_fract_z
O1 O 0.54106(11) 0.18324(12) 0.44184(10)
C1 C 0.69042(18) 0.05861(19) -0.05363(15)
H1 H 0.6524 0.0642 -0.1318
C2 C 0.65717(16) 0.20117(17) -0.01144(14)
H2 H 0.5960 0.3050 -0.0588
C3 C 0.71677(15) 0.18705(16) 0.10347(13)
C4 C 0.79714(16) 0.21395(15) 0.29355(13)
C5 C 0.95552(16) 0.26282(16) 0.27084(13)
C6 C 0.96999(17) 0.41833(17) 0.19500(15)
H3 H 0.8791 0.4984 0.1572
C7 C 1.11808(18) 0.45650(18) 0.17449(16)
H4 H 1.1286 0.5622 0.1214
C8 C 1.24970(17) 0.34162(18) 0.23086(16)
H5 H 1.3503 0.3686 0.2171
C9 C 0.77972(18) -0.09414(18) 0.01785(15)
H6 H 0.8008 -0.1902 -0.0132
C10 C 0.83794(17) -0.10913(17) 0.13192(14)
H7 H 0.8984 -0.2129 0.1798
C11 C 0.80390(15) 0.03451(16) 0.17327(13)
C12 C 0.68153(16) 0.23053(16) 0.42716(14)
C13 C 0.44103(18) 0.21355(19) 0.56290(15)
H8 H 0.3359 0.1919 0.5996
C14 C 0.51116(18) 0.27793(18) 0.62288(15)
H9 H 0.4652 0.3098 0.7075
C15 C 0.66938(17) 0.28997(16) 0.53526(14)
C16 C 0.7882(2) 0.35467(19) 0.56697(16)
H10 H 0.8523 0.2674 0.6320
H11 H 0.7255 0.4493 0.6075
H12 H 0.8645 0.3895 0.4821
C17 C 1.08855(17) 0.14719(17) 0.32714(14)
H13 H 1.0790 0.0408 0.3791
C18 C 1.23508(17) 0.18671(18) 0.30770(16)
H14 H 1.3254 0.1078 0.3470
O2 O 0.84809(18) 0.03973(15) 0.28665(13)
O3 O 0.62603(12) 0.45594(12) 0.15358(10)
C19 C 0.7004(12) 0.3093(4) 0.1748(7)
O4? O 0.904(2) -0.0951(16) 0.3719(16)
C20? C 0.845(3) 0.032(2) 0.2949(19)
O5? O 0.711(12) 0.299(3) 0.174(7)
loop_
_geom_bond_atom_site_label_1
_geom_bond_atom_site_label_2
_geom_bond_site_symmetry_1
_geom_bond_site_symmetry_2
O1 C12 1_555 1_555
C1 H1 1_555 1_555
C2 C1 1_555 1_555
H2 C2 1_555 1_555
C3 C2 1_555 1_555
C4 C5 1_555 1_555
C5 C6 1_555 1_555
C6 H3 1_555 1_555
C7 C6 1_555 1_555
H4 C7 1_555 1_555
C8 C7 1_555 1_555
H5 C8 1_555 1_555
C9 C1 1_555 1_555
H6 C9 1_555 1_555
C10 C9 1_555 1_555
H7 C10 1_555 1_555
C11 C3 1_555 1_555
C12 C4 1_555 1_555
C13 O1 1_555 1_555
H8 C13 1_555 1_555
C14 C13 1_555 1_555
H9 C14 1_555 1_555
C15 C12 1_555 1_555
C16 C15 1_555 1_555
H10 C16 1_555 1_555
H11 C16 1_555 1_555
H12 C16 1_555 1_555
C17 C5 1_555 1_555
H13 C17 1_555 1_555
C18 C8 1_555 1_555
H14 C18 1_555 1_555
O2 C4 1_555 1_555
O3 C19 1_555 1_555
C19 C3 1_555 1_555
C4 C19 1_555 1_555
C10 C11 1_555 1_555
C11 O2 1_555 1_555
C14 C15 1_555 1_555
C17 C18 1_555 1_555

#END
