
#######################################################################
#
#                 Cambridge Crystallographic Data Centre
#                                CCDC 
#
#######################################################################
#
# If this CIF has been generated from an entry in the Cambridge 
# Structural Database, then it will include bibliographic, chemical, 
# crystal, experimental, refinement or atomic coordinate data resulting 
# from the CCDC's data processing and validation procedures.
#
#######################################################################

data_CEVQIG
_chemical_formula_moiety         'C32 H30 Cl1 N3 O3 S1'
_chemical_name_systematic        
9-[(4-chlorophenyl)methyl]-13b-methyl-8-[(4-methylphenyl)sulfonyl]-5,8,8a,9,13b,14a-hexahydro-6H-indolo[2',3':5,6][1,3,4]oxadiazino[2,3-a]isoquinoline
_symmetry_cell_setting           monoclinic
_symmetry_space_group_name_H-M   'P 21'
_symmetry_Int_Tables_number      4
_space_group_name_Hall           'P 2yb'
loop_
_symmetry_equiv_pos_site_id
_symmetry_equiv_pos_as_xyz
1 x,y,z
2 -x,1/2+y,-z
_cell_length_a                   8.6912(5)
_cell_length_b                   27.8849(16)
_cell_length_c                   11.4280(6)
_cell_angle_alpha                90
_cell_angle_beta                 94.876(5)
_cell_angle_gamma                90
_cell_volume                     2759.59
_exptl_crystal_colour            colorless
_exptl_crystal_description       block
_cell_formula_units_Z            4
loop_
_atom_site_label
_atom_site_type_symbol
_atom_site_fract_x
_atom_site_fract_y
_atom_site_fract_z
S1 S -0.00858(15) 0.09797(5) 0.79836(11)
Cl1 Cl 0.5043(2) 0.25510(7) 1.26076(14)
O1 O 0.1664(5) 0.16351(16) 0.5138(3)
O2 O -0.1567(5) 0.10269(19) 0.7338(3)
O3 O 0.0197(5) 0.12431(18) 0.9039(3)
N1 N 0.3854(6) 0.14928(19) 0.7320(4)
C1 C 0.1817(6) 0.1902(2) 0.6226(4)
N2 N 0.1354(5) 0.11119(19) 0.7161(4)
N3 N 0.1040(6) 0.0891(2) 0.6036(4)
C2 C 0.0377(7) 0.1033(2) 0.3954(4)
C3 C 0.0583(6) 0.1259(2) 0.5176(4)
H1 H -0.042781 0.139749 0.536560
C4 C 0.3320(7) 0.2164(2) 0.6199(5)
C5 C 0.2177(7) 0.1563(2) 0.7276(5)
H2 H 0.191539 0.172682 0.801187
C6 C 0.6344(6) 0.2472(3) 0.6268(5)
H3 H 0.738809 0.257346 0.628221
C7 C 0.0496(7) 0.0391(3) 0.2614(5)
H4 H 0.076018 0.006778 0.245979
C8 C 0.4469(6) 0.1906(2) 0.6808(4)
C9 C 0.3654(7) 0.2572(3) 0.5592(5)
H5 H 0.285607 0.273694 0.513530
C10 C 0.0414(7) 0.2217(2) 0.6324(4)
H6 H 0.022905 0.241004 0.560968
H7 H 0.059455 0.242899 0.700522
H8 H -0.048868 0.201466 0.642029
C11 C 0.1517(7) 0.0248(2) 0.4717(5)
H9 H 0.231670 0.004341 0.440094
H10 H 0.073017 0.003598 0.502400
C12 C 0.4790(7) 0.1550(3) 0.9467(5)
C13 C 0.0757(6) 0.0571(2) 0.3732(4)
C14 C 0.1346(8) 0.0237(3) 0.9158(5)
H11 H 0.193014 0.047770 0.958245
C15 C 0.6145(7) 0.1818(2) 0.9809(5)
H12 H 0.701206 0.178966 0.936015
C16 C 0.3563(8) 0.1589(3) 1.0173(5)
H13 H 0.264675 0.141005 0.997918
C17 C 0.0710(8) -0.0597(3) 0.8812(6)
C18 C 0.4673(7) 0.1254(2) 0.8350(5)
H14 H 0.572861 0.117052 0.815607
H15 H 0.413123 0.095035 0.850011
C19 C 0.0275(6) 0.0362(2) 0.8279(4)
C20 C 0.5994(7) 0.2049(2) 0.6866(5)
H16 H 0.678041 0.186911 0.729518
C21 C 0.2264(7) 0.0570(2) 0.5722(5)
H17 H 0.264899 0.037278 0.640481
H18 H 0.313663 0.075559 0.544929
C22 C 0.3657(7) 0.1884(3) 1.1152(5)
H19 H 0.282006 0.190181 1.163339
C23 C 0.1589(7) -0.0240(2) 0.9437(5)
H20 H 0.234524 -0.032815 1.004857
C24 C 0.5189(6) 0.2746(2) 0.5651(5)
H21 H 0.542968 0.303884 0.528450
C25 C 0.6237(8) 0.2115(3) 1.0764(5)
H22 H 0.714961 0.229329 1.097541
C26 C -0.0501(7) 0.1142(3) 0.1913(5)
H23 H -0.093537 0.133721 0.128823
C27 C -0.0236(7) 0.1336(3) 0.3020(5)
H24 H -0.045657 0.166365 0.315881
C28 C -0.0600(8) 0.0018(3) 0.7632(5)
H25 H -0.135186 0.010626 0.701754
C29 C -0.0322(8) -0.0458(3) 0.7924(6)
H26 H -0.088343 -0.069807 0.748046
C30 C 0.4961(9) 0.2150(3) 1.1422(5)
C31 C -0.0158(8) 0.0680(3) 0.1696(5)
H27 H -0.035673 0.055200 0.092788
C32 C 0.0907(8) -0.1113(3) 0.9148(6)
H28 H 0.173703 -0.114272 0.977970
H29 H 0.117141 -0.129826 0.846515
H30 H -0.005837 -0.123474 0.941938
S2 S 0.50829(15) 0.43275(5) 0.70228(11)
Cl2 Cl -0.0039(2) 0.27567(7) 0.23913(14)
O4 O 0.3315(4) 0.36758(16) 0.9866(3)
O5 O 0.4800(5) 0.40574(18) 0.5936(3)
O6 O 0.6577(5) 0.42788(19) 0.7668(3)
N4 N 0.1121(5) 0.3812(2) 0.7690(3)
C33 C 0.3177(6) 0.3395(2) 0.8793(4)
N5 N 0.3670(6) 0.41940(19) 0.7844(4)
N6 N 0.3968(5) 0.44058(19) 0.8962(4)
C34 C 0.4630(6) 0.4262(3) 1.1056(5)
C35 C 0.0499(6) 0.3404(2) 0.8158(4)
C36 C 0.1667(6) 0.3133(2) 0.8814(4)
C37 C 0.2813(6) 0.3734(2) 0.7724(4)
H31 H 0.306662 0.356768 0.698869
C38 C 0.4451(6) 0.4063(2) 0.9851(5)
H32 H 0.546080 0.392282 0.966423
C39 C 0.1353(7) 0.2718(2) 0.9399(4)
H33 H 0.215475 0.254045 0.981637
C40 C -0.1332(6) 0.2826(2) 0.8741(4)
H34 H -0.236414 0.271300 0.872792
C41 C 0.3496(7) 0.5036(2) 1.0278(5)
H35 H 0.429514 0.524157 0.996498
H36 H 0.271231 0.524995 1.058327
C42 C 0.4601(6) 0.3085(2) 0.8673(5)
H37 H 0.544053 0.328462 0.842361
H38 H 0.435264 0.283385 0.808560
H39 H 0.492334 0.293585 0.943095
C43 C 0.0216(7) 0.3744(3) 0.5540(5)
C44 C 0.4523(7) 0.4921(2) 1.2425(4)
H40 H 0.428942 0.524562 1.259395
C45 C 0.4217(6) 0.4747(2) 1.1254(4)
C46 C -0.1133(8) 0.3493(2) 0.5221(5)
H41 H -0.199893 0.352690 0.566918
C47 C 0.1427(7) 0.3717(3) 0.4816(5)
H42 H 0.232187 0.390735 0.499769
C48 C 0.1362(8) 0.3420(3) 0.3835(5)
H43 H 0.220197 0.340222 0.335682
C49 C 0.3606(6) 0.5065(3) 0.5838(5)
H44 H 0.299720 0.482912 0.541640
C50 C 0.3404(7) 0.5550(3) 0.5579(5)
H45 H 0.265001 0.564104 0.496852
C51 C 0.4748(6) 0.4931(3) 0.6752(5)
C52 C 0.2742(7) 0.4741(2) 0.9300(5)
H46 H 0.185490 0.456042 0.956573
H47 H 0.237262 0.494638 0.862761
C53 C 0.0016(7) 0.3146(2) 0.3573(5)
C54 C -0.1044(6) 0.3240(3) 0.8146(4)
H48 H -0.186390 0.341224 0.773496
C55 C 0.4257(7) 0.5903(3) 0.6173(5)
C56 C 0.5141(7) 0.4634(3) 1.3305(5)
H49 H 0.533719 0.476239 1.407332
C57 C -0.1222(8) 0.3188(3) 0.4227(5)
H50 H -0.214104 0.301271 0.401625
C58 C 0.5373(8) 0.5760(3) 0.7106(5)
H51 H 0.596967 0.599604 0.753710
C59 C 0.5252(7) 0.3979(3) 1.1947(5)
H52 H 0.552643 0.365766 1.178003
C60 C 0.5498(8) 0.4147(3) 1.3095(5)
H53 H 0.589011 0.394314 1.371577
C61 C 0.0361(6) 0.4049(2) 0.6658(4)
H54 H 0.094489 0.434367 0.650149
H55 H -0.068682 0.414808 0.683941
C62 C -0.0171(7) 0.2567(3) 0.9358(5)
H56 H -0.042175 0.228333 0.975951
C63 C 0.5585(7) 0.5282(3) 0.7378(5)
H57 H 0.631589 0.519289 0.800558
C64 C 0.4060(10) 0.6426(3) 0.5868(6)
H58 H 0.360969 0.645667 0.505525
H59 H 0.506802 0.658500 0.595063
H60 H 0.337268 0.657580 0.639796
loop_
_geom_bond_atom_site_label_1
_geom_bond_atom_site_label_2
_geom_bond_site_symmetry_1
_geom_bond_site_symmetry_2
S1 O2 1_555 1_555
Cl1 C30 1_555 1_555
O1 C1 1_555 1_555
O3 S1 1_555 1_555
N1 C5 1_555 1_555
C1 C4 1_555 1_555
N2 S1 1_555 1_555
N3 N2 1_555 1_555
C2 C3 1_555 1_555
C3 O1 1_555 1_555
H1 C3 1_555 1_555
C4 C8 1_555 1_555
C5 C1 1_555 1_555
H2 C5 1_555 1_555
C6 H3 1_555 1_555
C7 H4 1_555 1_555
C8 N1 1_555 1_555
C9 C4 1_555 1_555
H5 C9 1_555 1_555
C10 C1 1_555 1_555
H6 C10 1_555 1_555
H7 C10 1_555 1_555
H8 C10 1_555 1_555
C11 H9 1_555 1_555
H10 C11 1_555 1_555
C12 C15 1_555 1_555
C13 C2 1_555 1_555
C14 H11 1_555 1_555
C15 H12 1_555 1_555
C16 C12 1_555 1_555
H13 C16 1_555 1_555
C17 C23 1_555 1_555
C18 N1 1_555 1_555
H14 C18 1_555 1_555
H15 C18 1_555 1_555
C19 S1 1_555 1_555
C20 C6 1_555 1_555
H16 C20 1_555 1_555
C21 N3 1_555 1_555
H17 C21 1_555 1_555
H18 C21 1_555 1_555
C22 C16 1_555 1_555
H19 C22 1_555 1_555
C23 C14 1_555 1_555
H20 C23 1_555 1_555
C24 C6 1_555 1_555
H21 C24 1_555 1_555
C25 C15 1_555 1_555
H22 C25 1_555 1_555
C26 H23 1_555 1_555
C27 C2 1_555 1_555
H24 C27 1_555 1_555
C28 C19 1_555 1_555
H25 C28 1_555 1_555
C29 C17 1_555 1_555
H26 C29 1_555 1_555
C30 C22 1_555 1_555
C31 C7 1_555 1_555
H27 C31 1_555 1_555
C32 C17 1_555 1_555
H28 C32 1_555 1_555
H29 C32 1_555 1_555
H30 C32 1_555 1_555
S2 O5 1_555 1_555
Cl2 C53 1_555 1_555
O4 C33 1_555 1_555
O6 S2 1_555 1_555
N4 C35 1_555 1_555
C33 C36 1_555 1_555
N5 S2 1_555 1_555
N6 N5 1_555 1_555
C34 C38 1_555 1_555
C35 C36 1_555 1_555
C36 C39 1_555 1_555
C37 N4 1_555 1_555
H31 C37 1_555 1_555
C38 O4 1_555 1_555
H32 C38 1_555 1_555
C39 H33 1_555 1_555
C40 H34 1_555 1_555
C41 H35 1_555 1_555
H36 C41 1_555 1_555
C42 C33 1_555 1_555
H37 C42 1_555 1_555
H38 C42 1_555 1_555
H39 C42 1_555 1_555
C43 C46 1_555 1_555
C44 H40 1_555 1_555
C45 C34 1_555 1_555
C46 H41 1_555 1_555
C47 C43 1_555 1_555
H42 C47 1_555 1_555
C48 C47 1_555 1_555
H43 C48 1_555 1_555
C49 H44 1_555 1_555
C50 C49 1_555 1_555
H45 C50 1_555 1_555
C51 S2 1_555 1_555
C52 N6 1_555 1_555
H46 C52 1_555 1_555
H47 C52 1_555 1_555
C53 C48 1_555 1_555
C54 C35 1_555 1_555
H48 C54 1_555 1_555
C55 C50 1_555 1_555
C56 C44 1_555 1_555
H49 C56 1_555 1_555
C57 C46 1_555 1_555
H50 C57 1_555 1_555
C58 C55 1_555 1_555
H51 C58 1_555 1_555
C59 C34 1_555 1_555
H52 C59 1_555 1_555
C60 C56 1_555 1_555
H53 C60 1_555 1_555
C61 N4 1_555 1_555
H54 C61 1_555 1_555
H55 C61 1_555 1_555
C62 C39 1_555 1_555
H56 C62 1_555 1_555
C63 C51 1_555 1_555
H57 C63 1_555 1_555
C64 C55 1_555 1_555
H58 C64 1_555 1_555
H59 C64 1_555 1_555
H60 C64 1_555 1_555
N2 C5 1_555 1_555
N3 C3 1_555 1_555
C7 C13 1_555 1_555
C8 C20 1_555 1_555
C9 C24 1_555 1_555
C11 C13 1_555 1_555
C11 C21 1_555 1_555
C12 C18 1_555 1_555
C14 C19 1_555 1_555
C25 C30 1_555 1_555
C26 C27 1_555 1_555
C26 C31 1_555 1_555
C28 C29 1_555 1_555
C33 C37 1_555 1_555
N5 C37 1_555 1_555
N6 C38 1_555 1_555
C40 C54 1_555 1_555
C40 C62 1_555 1_555
C41 C45 1_555 1_555
C41 C52 1_555 1_555
C43 C61 1_555 1_555
C44 C45 1_555 1_555
C49 C51 1_555 1_555
C53 C57 1_555 1_555
C58 C63 1_555 1_555
C59 C60 1_555 1_555

#END
