
#######################################################################
#
#                 Cambridge Crystallographic Data Centre
#                                CCDC 
#
#######################################################################
#
# If this CIF has been generated from an entry in the Cambridge 
# Structural Database, then it will include bibliographic, chemical, 
# crystal, experimental, refinement or atomic coordinate data resulting 
# from the CCDC's data processing and validation procedures.
#
#######################################################################

data_CEVRAY
_chemical_formula_moiety         'C20 H18 O4'
_chemical_name_systematic        
2-Methoxy-3'-methyl-2-phenyl-4H,5'H-spiro[chromene-3,2'-furan]-4-one
_symmetry_cell_setting           monoclinic
_symmetry_space_group_name_H-M   'P 21/n'
_symmetry_Int_Tables_number      14
_space_group_name_Hall           '-P 2yn'
loop_
_symmetry_equiv_pos_site_id
_symmetry_equiv_pos_as_xyz
1 x,y,z
2 1/2-x,1/2+y,1/2-z
3 -x,-y,-z
4 1/2+x,1/2-y,1/2+z
_cell_length_a                   7.3625(4)
_cell_length_b                   14.6288(9)
_cell_length_c                   15.1302(9)
_cell_angle_alpha                90
_cell_angle_beta                 102.119(4)
_cell_angle_gamma                90
_cell_volume                     1593.27
_exptl_crystal_colour            colorless
_exptl_crystal_description       prism
_cell_formula_units_Z            4
loop_
_atom_site_label
_atom_site_type_symbol
_atom_site_fract_x
_atom_site_fract_y
_atom_site_fract_z
O1 O 0.02332(11) 0.88436(6) 0.35902(6)
O2 O -0.18881(10) 0.74233(5) 0.16877(5)
C1 C 0.24733(17) 0.55732(9) 0.02344(9)
H1 H 0.3111 0.5108 -0.0017
C2 C 0.24260(16) 0.64558(9) -0.00960(9)
H2 H 0.3008 0.6593 -0.0584
C3 C 0.15311(15) 0.71442(9) 0.02824(8)
H3 H 0.1504 0.7750 0.0053
C4 C 0.06763(15) 0.69458(8) 0.09967(8)
C5 C -0.02016(15) 0.76862(7) 0.14675(8)
O3 O -0.04977(10) 0.84634(5) 0.08689(5)
C6 C -0.12122(15) 0.92303(8) 0.11959(8)
C7 C -0.22090(16) 0.98283(8) 0.05617(9)
H4 H -0.2383 0.9700 -0.0066
C8 C -0.29461(17) 1.06147(8) 0.08584(9)
H5 H -0.3635 1.1024 0.0427
C9 C -0.26982(16) 1.08162(8) 0.17730(9)
H6 H -0.3206 1.1359 0.1967
C10 C 0.15893(17) 0.53681(9) 0.09326(9)
H7 H 0.1595 0.4759 0.1150
C11 C 0.06970(16) 0.60494(8) 0.13145(8)
H8 H 0.0097 0.5906 0.1795
C12 C 0.10431(15) 0.79688(8) 0.23872(8)
C13 C 0.30278(15) 0.82352(8) 0.23410(8)
C14 C 0.41731(16) 0.76717(8) 0.28690(8)
H9 H 0.5488 0.7700 0.2959
C15 C 0.31552(16) 0.69890(9) 0.33047(9)
H10 H 0.3424 0.6360 0.3126
H11 H 0.3502 0.7040 0.3971
O4 O 0.12271(11) 0.72110(5) 0.29801(5)
C16 C 0.35196(16) 0.90229(8) 0.18065(9)
H12 H 0.4874 0.9068 0.1894
H13 H 0.3028 0.9589 0.2011
H14 H 0.2980 0.8928 0.1164
C17 C 0.00851(15) 0.87607(8) 0.27798(8)
C18 C -0.09492(15) 0.94154(8) 0.21178(8)
C19 C -0.17034(16) 1.02170(8) 0.23963(9)
H15 H -0.1528 1.0350 0.3023
C20 C -0.33464(16) 0.71900(9) 0.09318(9)
H16 H -0.3679 0.7729 0.0547
H17 H -0.4436 0.6980 0.1151
H18 H -0.2919 0.6702 0.0581
loop_
_geom_bond_atom_site_label_1
_geom_bond_atom_site_label_2
_geom_bond_site_symmetry_1
_geom_bond_site_symmetry_2
O1 C17 1_555 1_555
O2 C5 1_555 1_555
C1 H1 1_555 1_555
C2 C1 1_555 1_555
H2 C2 1_555 1_555
C3 C2 1_555 1_555
H3 C3 1_555 1_555
C4 C3 1_555 1_555
C5 C4 1_555 1_555
O3 C5 1_555 1_555
C6 O3 1_555 1_555
C7 C6 1_555 1_555
H4 C7 1_555 1_555
C8 C7 1_555 1_555
H5 C8 1_555 1_555
C9 C8 1_555 1_555
H6 C9 1_555 1_555
C10 C1 1_555 1_555
H7 C10 1_555 1_555
C11 C4 1_555 1_555
H8 C11 1_555 1_555
C12 C5 1_555 1_555
C13 C12 1_555 1_555
C14 C13 1_555 1_555
H9 C14 1_555 1_555
C15 C14 1_555 1_555
H10 C15 1_555 1_555
H11 C15 1_555 1_555
O4 C12 1_555 1_555
C16 C13 1_555 1_555
H12 C16 1_555 1_555
H13 C16 1_555 1_555
H14 C16 1_555 1_555
C17 C12 1_555 1_555
C18 C6 1_555 1_555
C19 C9 1_555 1_555
H15 C19 1_555 1_555
C20 O2 1_555 1_555
H16 C20 1_555 1_555
H17 C20 1_555 1_555
H18 C20 1_555 1_555
C10 C11 1_555 1_555
C15 O4 1_555 1_555
C17 C18 1_555 1_555
C18 C19 1_555 1_555

#END
