
#######################################################################
#
#                 Cambridge Crystallographic Data Centre
#                                CCDC 
#
#######################################################################
#
# If this CIF has been generated from an entry in the Cambridge 
# Structural Database, then it will include bibliographic, chemical, 
# crystal, experimental, refinement or atomic coordinate data resulting 
# from the CCDC's data processing and validation procedures.
#
#######################################################################

data_CEVTOP
_chemical_formula_moiety         'C22 H17 B1 F2 N4 O1'
_chemical_name_systematic        
difluoro{4-[(4-methylphenyl)diazenyl]-2-[(1H-pyrrol-2-yl)(2H-pyrrol-2-ylidene)methyl]phenolato}boron
_symmetry_cell_setting           monoclinic
_symmetry_space_group_name_H-M   'P 21/n'
_symmetry_Int_Tables_number      14
_space_group_name_Hall           '-P 2yn'
loop_
_symmetry_equiv_pos_site_id
_symmetry_equiv_pos_as_xyz
1 x,y,z
2 1/2-x,1/2+y,1/2-z
3 -x,-y,-z
4 1/2+x,1/2-y,1/2+z
_cell_length_a                   6.9013(6)
_cell_length_b                   18.4057(17)
_cell_length_c                   15.0143(14)
_cell_angle_alpha                90
_cell_angle_beta                 91.438(3)
_cell_angle_gamma                90
_cell_volume                     1906.56
_exptl_crystal_colour            red
_exptl_crystal_description       Needle
_cell_formula_units_Z            4
loop_
_atom_site_label
_atom_site_type_symbol
_atom_site_fract_x
_atom_site_fract_y
_atom_site_fract_z
F1 F 0.58662(18) 0.36511(7) 0.39792(7)
F2 F 0.74221(18) 0.42493(6) 0.50918(9)
O1 O 0.8805(7) 0.1938(3) 0.7486(3)
H1 H 0.942455 0.180359 0.792912
N1 N 0.2224(3) 0.02071(13) 0.71753(15)
C1 C 0.7696(2) 0.23920(9) 0.55822(11)
N2 N 0.7882(2) 0.29599(8) 0.49781(9)
N3 N 0.4799(2) 0.34671(8) 0.54782(10)
C2 C -0.5711(9) -0.1490(4) 0.6368(5)
H2 H -0.542963 -0.199361 0.647401
H3 H -0.627409 -0.143302 0.578063
H4 H -0.660680 -0.131990 0.680031
C3 C -0.388(3) -0.1058(13) 0.6443(9)
C4 C -0.2534(9) -0.1120(4) 0.7141(4)
H5 H -0.273262 -0.146330 0.758469
C5 C -0.0904(6) -0.0683(3) 0.7192(3)
H6 H -0.002877 -0.073049 0.766990
C6 C -0.0578(5) -0.01789(19) 0.6537(2)
N4 N 0.1048(4) 0.03090(15) 0.65421(19)
C7 C 0.3849(5) 0.0685(2) 0.7211(3)
C8 C 0.4150(7) 0.1273(3) 0.6656(4)
H7 H 0.322718 0.137449 0.621135
C9 C 0.5786(9) 0.1725(3) 0.6737(4)
C10 C 0.6074(2) 0.23491(9) 0.61181(10)
C11 C 0.9221(2) 0.19040(10) 0.54397(12)
H8 H 0.946783 0.147792 0.575565
C12 C 1.0275(3) 0.21674(11) 0.47543(13)
H9 H 1.136173 0.195235 0.451213
C13 C 0.9421(3) 0.28160(11) 0.44867(13)
H10 H 0.985908 0.310951 0.402943
C14 C -0.3524(7) -0.0545(4) 0.5799(4)
H11 H -0.441665 -0.048465 0.533016
C15 C -0.1884(6) -0.0120(3) 0.5831(3)
H12 H -0.165500 0.020809 0.537491
C16 C 0.5237(5) 0.0520(2) 0.7862(3)
H13 H 0.504611 0.013265 0.824802
C17 C 0.6899(8) 0.0931(4) 0.7938(4)
H14 H 0.783662 0.081326 0.836974
C18 C 0.7196(15) 0.1520(7) 0.7379(8)
C19 C 0.4633(2) 0.28806(9) 0.60562(11)
C20 C 0.3223(3) 0.38883(11) 0.55806(14)
H15 H 0.297548 0.431796 0.527235
C21 C 0.2027(3) 0.35911(11) 0.62086(15)
H16 H 0.085156 0.378015 0.639023
C22 C 0.2893(3) 0.29675(10) 0.65136(13)
H17 H 0.241696 0.265688 0.694511
B1 B 0.6505(3) 0.36094(12) 0.48665(15)
O2? O 0.863(3) 0.1891(15) 0.7518(17)
H18? H 0.945235 0.161848 0.773563
N5? N 0.1717(17) 0.0493(6) 0.6678(9)
C23? C -0.556(3) -0.1620(14) 0.6238(19)
H19? H -0.583327 -0.187127 0.678016
H20? H -0.519738 -0.196503 0.579171
H21? H -0.668454 -0.135723 0.603543
C24? C -0.391(11) -0.110(5) 0.641(4)
C25? C -0.307(3) -0.0629(14) 0.5785(16)
H22? H -0.357722 -0.060104 0.520660
C26? C -0.147(3) -0.0208(12) 0.6042(14)
H23? H -0.105754 0.017163 0.568370
C27? C -0.052(2) -0.0360(9) 0.6819(12)
N6? N 0.1254(15) -0.0032(5) 0.7134(7)
C28? C 0.351(3) 0.0810(12) 0.6940(15)
C29? C 0.400(3) 0.1399(13) 0.6448(17)
H24? H 0.315232 0.160239 0.602527
C30? C 0.585(4) 0.1677(15) 0.662(2)
C31? C -0.290(4) -0.1219(17) 0.7201(18)
H25? H -0.338231 -0.155219 0.760555
C32? C -0.121(3) -0.0860(13) 0.7403(15)
H26? H -0.053505 -0.095667 0.793352
C33? C 0.470(2) 0.0574(10) 0.7612(12)
H27? H 0.432460 0.016242 0.792308
C34? C 0.641(3) 0.0903(16) 0.787(2)
H28? H 0.718471 0.071948 0.832896
C35? C 0.694(6) 0.152(3) 0.740(3)
loop_
_geom_bond_atom_site_label_1
_geom_bond_atom_site_label_2
_geom_bond_site_symmetry_1
_geom_bond_site_symmetry_2
F1 B1 1_555 1_555
F2 B1 1_555 1_555
O1 H1 1_555 1_555
N1 N4 1_555 1_555
C1 N2 1_555 1_555
N2 C13 1_555 1_555
N3 C19 1_555 1_555
C2 H2 1_555 1_555
H3 C2 1_555 1_555
H4 C2 1_555 1_555
C3 C2 1_555 1_555
C4 C3 1_555 1_555
H5 C4 1_555 1_555
C5 C4 1_555 1_555
H6 C5 1_555 1_555
C6 C5 1_555 1_555
N4 C6 1_555 1_555
C7 N1 1_555 1_555
C8 C7 1_555 1_555
H7 C8 1_555 1_555
C9 C8 1_555 1_555
C10 C1 1_555 1_555
C11 C1 1_555 1_555
H8 C11 1_555 1_555
C12 C11 1_555 1_555
H9 C12 1_555 1_555
C13 C12 1_555 1_555
H10 C13 1_555 1_555
C14 C3 1_555 1_555
H11 C14 1_555 1_555
C15 C6 1_555 1_555
H12 C15 1_555 1_555
C16 C7 1_555 1_555
H13 C16 1_555 1_555
C17 C16 1_555 1_555
H14 C17 1_555 1_555
C18 O1 1_555 1_555
C19 C10 1_555 1_555
C20 N3 1_555 1_555
H15 C20 1_555 1_555
C21 C20 1_555 1_555
H16 C21 1_555 1_555
C22 C19 1_555 1_555
H17 C22 1_555 1_555
B1 N2 1_555 1_555
N3 B1 1_555 1_555
C9 C10 1_555 1_555
C9 C18 1_555 1_555
C14 C15 1_555 1_555
C17 C18 1_555 1_555
C21 C22 1_555 1_555

#END
