
#######################################################################
#
#                 Cambridge Crystallographic Data Centre
#                                CCDC 
#
#######################################################################
#
# If this CIF has been generated from an entry in the Cambridge 
# Structural Database, then it will include bibliographic, chemical, 
# crystal, experimental, refinement or atomic coordinate data resulting 
# from the CCDC's data processing and validation procedures.
#
#######################################################################

data_CEVVAD
_chemical_formula_moiety         'C20 H11 Cl1 N2 O2'
_chemical_name_systematic        
7-chloro-16H-dibenzo[2,3:6,7][1,4]oxazepino[5,4-b]quinazolin-16-one
_symmetry_cell_setting           triclinic
_symmetry_space_group_name_H-M   'P -1'
_symmetry_Int_Tables_number      2
_space_group_name_Hall           '-P 1'
loop_
_symmetry_equiv_pos_site_id
_symmetry_equiv_pos_as_xyz
1 x,y,z
2 -x,-y,-z
_cell_length_a                   8.8729(11)
_cell_length_b                   9.3458(12)
_cell_length_c                   10.6991(14)
_cell_angle_alpha                68.9710(10)
_cell_angle_beta                 88.6400(10)
_cell_angle_gamma                69.7930(10)
_cell_volume                     772.053
_cell_formula_units_Z            2
loop_
_atom_site_label
_atom_site_type_symbol
_atom_site_fract_x
_atom_site_fract_y
_atom_site_fract_z
Cl1 Cl -0.00165(5) 1.19380(6) 0.05888(5)
O1 O 0.82342(15) 0.28858(16) 0.34055(14)
O2 O 0.51863(14) 0.67680(15) 0.47199(11)
N1 N 0.36048(16) 0.57092(18) 0.17478(14)
N2 N 0.61148(15) 0.53334(17) 0.27849(13)
C1 C 0.44802(18) 0.6193(2) 0.23334(16)
C2 C 0.68697(19) 0.3707(2) 0.28527(16)
C3 C 0.5893(2) 0.3154(2) 0.21867(16)
C4 C 0.6538(2) 0.1605(2) 0.21080(19)
H1 H 0.7567 0.0891 0.2528
C5 C 0.5639(3) 0.1140(2) 0.1403(2)
H2 H 0.6059 0.0106 0.1351
C6 C 0.4112(3) 0.2210(3) 0.0771(2)
H3 H 0.3532 0.1902 0.0267
C7 C 0.3439(2) 0.3719(2) 0.08771(19)
H4 H 0.2398 0.4412 0.0470
C8 C 0.4329(2) 0.4209(2) 0.16028(16)
C9 C 0.36374(19) 0.7741(2) 0.25556(16)
C10 C 0.23864(19) 0.8980(2) 0.15947(17)
H5 H 0.2174 0.8879 0.0790
C11 C 0.14667(19) 1.0354(2) 0.18422(18)
C12 C 0.1715(2) 1.0523(2) 0.30441(19)
H6 H 0.1053 1.1438 0.3210
C13 C 0.2963(2) 0.9310(2) 0.39912(18)
H7 H 0.3154 0.9407 0.4802
C14 C 0.3926(2) 0.7954(2) 0.37394(16)
C15 C 0.6676(2) 0.6666(2) 0.42273(17)
C16 C 0.7677(3) 0.7239(2) 0.4719(2)
H8 H 0.7384 0.7641 0.5403
C17 C 0.9110(3) 0.7213(3) 0.4190(2)
H9 H 0.9799 0.7577 0.4530
C18 C 0.9528(2) 0.6649(3) 0.3160(2)
H10 H 1.0480 0.6670 0.2784
C19 C 0.8537(2) 0.6051(2) 0.26800(19)
H11 H 0.8830 0.5656 0.1992
C20 C 0.71050(19) 0.6043(2) 0.32281(16)
loop_
_geom_bond_atom_site_label_1
_geom_bond_atom_site_label_2
_geom_bond_site_symmetry_1
_geom_bond_site_symmetry_2
Cl1 C11 1_555 1_555
O1 C2 1_555 1_555
O2 C14 1_555 1_555
N1 C1 1_555 1_555
N2 C1 1_555 1_555
C1 C9 1_555 1_555
C2 N2 1_555 1_555
C3 C2 1_555 1_555
C4 C3 1_555 1_555
H1 C4 1_555 1_555
C5 C4 1_555 1_555
H2 C5 1_555 1_555
C6 C5 1_555 1_555
H3 C6 1_555 1_555
C7 C6 1_555 1_555
H4 C7 1_555 1_555
C8 N1 1_555 1_555
C9 C10 1_555 1_555
C10 H5 1_555 1_555
C11 C10 1_555 1_555
C12 C11 1_555 1_555
H6 C12 1_555 1_555
C13 C12 1_555 1_555
H7 C13 1_555 1_555
C14 C9 1_555 1_555
C15 O2 1_555 1_555
C16 C15 1_555 1_555
H8 C16 1_555 1_555
C17 C16 1_555 1_555
H9 C17 1_555 1_555
C18 C17 1_555 1_555
H10 C18 1_555 1_555
C19 C18 1_555 1_555
H11 C19 1_555 1_555
C20 N2 1_555 1_555
C3 C8 1_555 1_555
C7 C8 1_555 1_555
C13 C14 1_555 1_555
C15 C20 1_555 1_555
C19 C20 1_555 1_555

#END
