
#######################################################################
#
#                 Cambridge Crystallographic Data Centre
#                                CCDC 
#
#######################################################################
#
# If this CIF has been generated from an entry in the Cambridge 
# Structural Database, then it will include bibliographic, chemical, 
# crystal, experimental, refinement or atomic coordinate data resulting 
# from the CCDC's data processing and validation procedures.
#
#######################################################################

data_CEWGOC
_chemical_formula_moiety         'C25 H22 F3 N1 O3 S1'
_chemical_name_systematic        
4-Methoxy-1-((4-methylphenyl)sulfonyl)-2-(4-(trifluoromethyl)benzylidene)-1,2,3,4-tetrahydroquinoline
_symmetry_cell_setting           monoclinic
_symmetry_space_group_name_H-M   'P 21/n'
_symmetry_Int_Tables_number      14
_space_group_name_Hall           '-P 2yn'
loop_
_symmetry_equiv_pos_site_id
_symmetry_equiv_pos_as_xyz
1 x,y,z
2 1/2-x,1/2+y,1/2-z
3 -x,-y,-z
4 1/2+x,1/2-y,1/2+z
_cell_length_a                   11.5728(13)
_cell_length_b                   13.8184(16)
_cell_length_c                   14.6931(16)
_cell_angle_alpha                90
_cell_angle_beta                 97.691(5)
_cell_angle_gamma                90
_cell_volume                     2328.55
_exptl_crystal_colour            colorless
_exptl_crystal_description       Needle
_chemical_melting_point          '124-126 K'
_cell_formula_units_Z            4
loop_
_atom_site_label
_atom_site_type_symbol
_atom_site_fract_x
_atom_site_fract_y
_atom_site_fract_z
S1 S 0.12047(7) 0.79576(6) 0.03959(5)
C1 C 0.0461(3) 0.7974(2) 0.1361(2)
C2 C 0.3293(3) 0.7658(2) 0.14063(18)
C3 C 0.3905(3) 0.8062(2) 0.22079(19)
C4 C 0.2766(2) 0.9297(2) 0.08859(18)
C5 C 0.2908(3) 0.9828(2) 0.01533(19)
H1 H 0.2969 0.9488 -0.0384
C6 C 0.2981(3) 1.0878(2) 0.00929(19)
C7 C 0.3876(3) 0.9126(3) 0.24163(19)
H2 H 0.3837 0.9215 0.3073
C8 C 0.3416(3) 0.6680(3) 0.1220(2)
H3 H 0.3027 0.6419 0.0681
C9 C 0.2853(3) 0.9625(3) 0.18722(19)
H4 H 0.2957 1.0321 0.1908
H5 H 0.2142 0.9463 0.2121
C10 C 0.4600(3) 0.7448(3) 0.2806(2)
H6 H 0.5000 0.7701 0.3345
C11 C -0.0230(3) 0.8758(3) 0.1520(2)
H7 H -0.0302 0.9282 0.1119
C12 C 0.2249(3) 1.1488(3) 0.0498(2)
H8 H 0.1726 1.1227 0.0859
C13 C 0.3747(3) 1.1299(3) -0.0451(2)
H9 H 0.4236 1.0904 -0.0741
C14 C 0.3053(3) 1.2878(3) -0.0155(3)
C15 C -0.0805(3) 0.8750(3) 0.2272(3)
H10 H -0.1260 0.9281 0.2381
C16 C 0.2280(3) 1.2463(3) 0.0378(3)
H11 H 0.1778 1.2857 0.0657
C17 C -0.0734(3) 0.7988(3) 0.2873(3)
C18 C 0.4708(4) 0.6484(3) 0.2620(2)
H12 H 0.5183 0.6092 0.3025
C19 C 0.4106(3) 0.6096(3) 0.1824(2)
H13 H 0.4170 0.5440 0.1699
C20 C 0.3790(3) 1.2281(3) -0.0564(3)
H14 H 0.4319 1.2547 -0.0917
C21 C 0.0542(4) 0.7196(3) 0.1959(3)
H15 H 0.0992 0.6661 0.1852
C22 C -0.1409(5) 0.7998(5) 0.3694(4)
H16 H -0.1348 0.8627 0.3975
H17 H -0.1090 0.7521 0.4132
H18 H -0.2214 0.7853 0.3493
C23 C -0.0043(4) 0.7217(4) 0.2707(3)
H19 H 0.0029 0.6698 0.3114
C24 C 0.3085(5) 1.3930(4) -0.0297(4)
C25 C 0.5873(6) 0.9521(6) 0.2786(6)
H20 H 0.5729 0.9695 0.3394
H21 H 0.6467 0.9934 0.2602
H22 H 0.6127 0.8860 0.2784
F1 F 0.3084(5) 1.4196(3) -0.1154(3)
F2 F 0.2265(5) 1.4403(2) -0.0039(4)
F3 F 0.4083(4) 1.4317(2) 0.0034(4)
O1 O 0.1229(2) 0.69887(19) 0.00730(18)
O2 O 0.0746(2) 0.86965(19) -0.02122(15)
O3 O 0.4852(2) 0.9629(2) 0.2177(2)
N1 N 0.2594(2) 0.82726(18) 0.07666(15)
loop_
_geom_bond_atom_site_label_1
_geom_bond_atom_site_label_2
_geom_bond_site_symmetry_1
_geom_bond_site_symmetry_2
S1 C1 1_555 1_555
C1 C11 1_555 1_555
C2 C3 1_555 1_555
C3 C7 1_555 1_555
C4 C5 1_555 1_555
C5 H1 1_555 1_555
C6 C5 1_555 1_555
C7 H2 1_555 1_555
C8 C2 1_555 1_555
H3 C8 1_555 1_555
C9 C4 1_555 1_555
H4 C9 1_555 1_555
H5 C9 1_555 1_555
C10 C3 1_555 1_555
H6 C10 1_555 1_555
C11 H7 1_555 1_555
C12 C6 1_555 1_555
H8 C12 1_555 1_555
C13 C6 1_555 1_555
H9 C13 1_555 1_555
C14 C16 1_555 1_555
C15 C11 1_555 1_555
H10 C15 1_555 1_555
C16 C12 1_555 1_555
H11 C16 1_555 1_555
C17 C15 1_555 1_555
C18 C10 1_555 1_555
H12 C18 1_555 1_555
C19 C8 1_555 1_555
H13 C19 1_555 1_555
C20 C13 1_555 1_555
H14 C20 1_555 1_555
C21 C1 1_555 1_555
H15 C21 1_555 1_555
C22 C17 1_555 1_555
H16 C22 1_555 1_555
H17 C22 1_555 1_555
H18 C22 1_555 1_555
C23 C17 1_555 1_555
H19 C23 1_555 1_555
C24 C14 1_555 1_555
C25 H20 1_555 1_555
H21 C25 1_555 1_555
H22 C25 1_555 1_555
F1 C24 1_555 1_555
F2 C24 1_555 1_555
F3 C24 1_555 1_555
O1 S1 1_555 1_555
O2 S1 1_555 1_555
O3 C7 1_555 1_555
N1 S1 1_555 1_555
C2 N1 1_555 1_555
C4 N1 1_555 1_555
C7 C9 1_555 1_555
C14 C20 1_555 1_555
C18 C19 1_555 1_555
C21 C23 1_555 1_555
C25 O3 1_555 1_555

#END
