
#######################################################################
#
#                 Cambridge Crystallographic Data Centre
#                                CCDC 
#
#######################################################################
#
# If this CIF has been generated from an entry in the Cambridge 
# Structural Database, then it will include bibliographic, chemical, 
# crystal, experimental, refinement or atomic coordinate data resulting 
# from the CCDC's data processing and validation procedures.
#
#######################################################################

data_CEWHIW
_chemical_formula_moiety         'C12 H16 O8'
_chemical_name_systematic        
(1R)-(1,4:3,6-Dianhydro-D-mannitol-2-yl)-1,4:3,6-dianhydro-D-fructose
_symmetry_cell_setting           monoclinic
_symmetry_space_group_name_H-M   'P 21'
_symmetry_Int_Tables_number      4
_space_group_name_Hall           'P 2yb'
loop_
_symmetry_equiv_pos_site_id
_symmetry_equiv_pos_as_xyz
1 x,y,z
2 -x,1/2+y,-z
_cell_length_a                   5.5388(11)
_cell_length_b                   9.2327(18)
_cell_length_c                   11.961(2)
_cell_angle_alpha                90
_cell_angle_beta                 98.62(3)
_cell_angle_gamma                90
_cell_volume                     604.753
_exptl_crystal_colour            colorless
_exptl_crystal_description       prismatic
_chemical_melting_point          190-191deg.C
_cell_formula_units_Z            2
_exptl_crystal_recrystallization_method 'absolute ethanol'
loop_
_atom_site_label
_atom_site_type_symbol
_atom_site_fract_x
_atom_site_fract_y
_atom_site_fract_z
O1 O 0.9183(5) 0.4158(5) 0.3405(3)
O2 O 0.3696(6) 0.2121(4) 0.2534(3)
O3 O 1.0571(6) 0.4641(7) 0.5640(4)
O4 O 0.4441(6) 0.3511(4) 0.4579(3)
O5 O 0.5575(5) 0.3157(4) 0.0630(3)
O6 O 0.1650(9) 0.5794(5) 0.1410(4)
O7 O 0.5024(6) 0.4790(4) -0.1243(3)
O8 O -0.0025(6) 0.4432(5) -0.0719(3)
C1 C 0.8016(7) 0.2858(6) 0.2972(4)
H1 H 0.8164 0.2109 0.3547
H2 H 0.8715 0.2507 0.2326
C2 C 0.5354(7) 0.3296(5) 0.2626(4)
C3 C 0.4976(7) 0.4310(5) 0.3608(4)
H3 H 0.3729 0.5045 0.3368
C4 C 0.7521(9) 0.4997(6) 0.3950(4)
H4 H 0.7536 0.6021 0.3733
C5 C 0.8052(9) 0.4805(7) 0.5229(4)
H5 H 0.7425 0.5646 0.5594
C6 C 0.6532(9) 0.3466(8) 0.5435(5)
H6 H 0.7459 0.2586 0.5374
H7 H 0.6048 0.3504 0.6181
C7 C 0.5080(8) 0.4131(5) 0.1500(4)
H8 H 0.6241 0.4939 0.1562
C8 C 0.2506(9) 0.4692(6) 0.1101(4)
C9 C 0.1287(8) 0.3660(6) 0.0212(4)
H9 H 0.0219 0.2980 0.0534
C10 C 0.3428(8) 0.2875(5) -0.0177(4)
H10 H 0.3108 0.1832 -0.0239
C11 C 0.3543(8) 0.3528(6) -0.1341(4)
H11 H 0.4109 0.2817 -0.1852
C12 C 0.0920(9) 0.3981(7) -0.1745(4)
H12 H 0.0859 0.4776 -0.2278
H13 H -0.0021 0.3177 -0.2105
H14 H 1.122(11) 0.401(8) 0.508(6)
H15 H 0.654(11) 0.446(7) -0.090(5)
H16 H 0.436(11) 0.129(8) 0.216(5)
loop_
_geom_bond_atom_site_label_1
_geom_bond_atom_site_label_2
_geom_bond_site_symmetry_1
_geom_bond_site_symmetry_2
O1 C1 1_555 1_555
O2 C2 1_555 1_555
O3 C5 1_555 1_555
O4 C3 1_555 1_555
O5 C7 1_555 1_555
O6 C8 1_555 1_555
O7 C11 1_555 1_555
O8 C9 1_555 1_555
C1 H1 1_555 1_555
H2 C1 1_555 1_555
C2 C1 1_555 1_555
C3 C2 1_555 1_555
H3 C3 1_555 1_555
C4 O1 1_555 1_555
H4 C4 1_555 1_555
C5 C4 1_555 1_555
H5 C5 1_555 1_555
C6 O4 1_555 1_555
H6 C6 1_555 1_555
H7 C6 1_555 1_555
C7 C2 1_555 1_555
H8 C7 1_555 1_555
C8 C7 1_555 1_555
C9 C8 1_555 1_555
H9 C9 1_555 1_555
C10 O5 1_555 1_555
H10 C10 1_555 1_555
C11 C10 1_555 1_555
H11 C11 1_555 1_555
C12 O8 1_555 1_555
H12 C12 1_555 1_555
H13 C12 1_555 1_555
H14 O3 1_555 1_555
H15 O7 1_555 1_555
H16 O2 1_555 1_555
C3 C4 1_555 1_555
C5 C6 1_555 1_555
C9 C10 1_555 1_555
C11 C12 1_555 1_555

#END
