
#######################################################################
#
#                 Cambridge Crystallographic Data Centre
#                                CCDC 
#
#######################################################################
#
# If this CIF has been generated from an entry in the Cambridge 
# Structural Database, then it will include bibliographic, chemical, 
# crystal, experimental, refinement or atomic coordinate data resulting 
# from the CCDC's data processing and validation procedures.
#
#######################################################################

data_CEWLOI
_chemical_formula_moiety         'C17 H21 N3 O5'
_chemical_name_systematic        
3-(benzylamino)-9,9-dimethoxy-4-nitro-2-azabicyclo[3.3.1]non-3-en-7-one
_symmetry_cell_setting           monoclinic
_symmetry_space_group_name_H-M   'P 21/c'
_symmetry_Int_Tables_number      14
_space_group_name_Hall           '-P 2ybc'
loop_
_symmetry_equiv_pos_site_id
_symmetry_equiv_pos_as_xyz
1 x,y,z
2 -x,1/2+y,1/2-z
3 -x,-y,-z
4 x,1/2-y,1/2+z
_cell_length_a                   17.67(3)
_cell_length_b                   8.064(12)
_cell_length_c                   12.926(19)
_cell_angle_alpha                90
_cell_angle_beta                 102.53(2)
_cell_angle_gamma                90
_cell_volume                     1797.97
_exptl_crystal_colour            colorless
_exptl_crystal_description       block
_cell_formula_units_Z            4
loop_
_atom_site_label
_atom_site_type_symbol
_atom_site_fract_x
_atom_site_fract_y
_atom_site_fract_z
N1 N 0.31809(15) 0.1565(3) 0.25521(18)
H1 H 0.3393 0.1693 0.3212
N2 N 0.25608(17) 0.3878(3) 0.3818(2)
N3 N 0.22986(14) 0.2509(3) 0.11012(17)
H2 H 0.2477 0.1777 0.0734
O1 O 0.31200(14) 0.2971(3) 0.43300(15)
O2 O 0.22287(15) 0.4867(3) 0.43536(17)
O3 O 0.0435(2) 0.1480(4) 0.1906(3)
O4 O 0.24660(12) 0.6027(3) 0.11684(15)
O5 O 0.11320(13) 0.6250(3) 0.05070(17)
C1 C 0.4787(2) -0.0383(5) 0.3137(3)
H3 H 0.4982 0.0538 0.2848
C2 C 0.5272(2) -0.1303(6) 0.3927(4)
H4 H 0.5788 -0.0994 0.4160
C3 C 0.4992(3) -0.2653(5) 0.4359(3)
H5 H 0.5316 -0.3251 0.4893
C4 C 0.4248(3) -0.3123(5) 0.4013(3)
H6 H 0.4059 -0.4051 0.4301
C5 C 0.3765(2) -0.2207(5) 0.3223(3)
H7 H 0.3253 -0.2536 0.2984
C6 C 0.4032(2) -0.0820(4) 0.2786(2)
C7 C 0.34809(19) 0.0212(4) 0.1992(2)
H8 H 0.3747 0.0666 0.1474
H9 H 0.3056 -0.0471 0.1622
C8 C 0.26159(18) 0.2606(4) 0.2140(2)
C9 C 0.23118(18) 0.3816(4) 0.2754(2)
C10 C 0.17401(18) 0.5276(4) 0.1098(2)
C11 C 0.16628(18) 0.3580(4) 0.0551(2)
H10 H 0.1721 0.3736 -0.0179
C12 C 0.0878(2) 0.2791(4) 0.0517(3)
H11 H 0.0479 0.3432 0.0051
H12 H 0.0872 0.1680 0.0229
C13 C 0.0702(2) 0.2711(5) 0.1586(4)
C14 C 0.0867(2) 0.4276(5) 0.2269(3)
H13 H 0.0842 0.4014 0.2993
H14 H 0.0475 0.5106 0.2006
C15 C 0.16778(18) 0.4980(4) 0.2247(2)
H15 H 0.1747 0.6038 0.2629
C16 C 0.2708(2) 0.6276(5) 0.0189(3)
H16 H 0.2819 0.5223 -0.0091
H17 H 0.3165 0.6954 0.0313
H18 H 0.2301 0.6817 -0.0310
C17 C 0.1093(2) 0.7934(4) 0.0870(3)
H19 H 0.0900 0.7938 0.1509
H20 H 0.0753 0.8568 0.0335
H21 H 0.1602 0.8417 0.1007
loop_
_geom_bond_atom_site_label_1
_geom_bond_atom_site_label_2
_geom_bond_site_symmetry_1
_geom_bond_site_symmetry_2
N1 H1 1_555 1_555
N2 O1 1_555 1_555
N3 H2 1_555 1_555
O2 N2 1_555 1_555
O3 C13 1_555 1_555
O4 C10 1_555 1_555
O5 C10 1_555 1_555
C1 H3 1_555 1_555
C2 C1 1_555 1_555
H4 C2 1_555 1_555
C3 C2 1_555 1_555
H5 C3 1_555 1_555
C4 C3 1_555 1_555
H6 C4 1_555 1_555
C5 C4 1_555 1_555
H7 C5 1_555 1_555
C6 C1 1_555 1_555
C7 N1 1_555 1_555
H8 C7 1_555 1_555
H9 C7 1_555 1_555
C8 N1 1_555 1_555
C9 N2 1_555 1_555
C10 C11 1_555 1_555
C11 N3 1_555 1_555
H10 C11 1_555 1_555
C12 C11 1_555 1_555
H11 C12 1_555 1_555
H12 C12 1_555 1_555
C13 C12 1_555 1_555
C14 C13 1_555 1_555
H13 C14 1_555 1_555
H14 C14 1_555 1_555
C15 C9 1_555 1_555
H15 C15 1_555 1_555
C16 O4 1_555 1_555
H16 C16 1_555 1_555
H17 C16 1_555 1_555
H18 C16 1_555 1_555
C17 O5 1_555 1_555
H19 C17 1_555 1_555
H20 C17 1_555 1_555
H21 C17 1_555 1_555
N3 C8 1_555 1_555
C5 C6 1_555 1_555
C6 C7 1_555 1_555
C8 C9 1_555 1_555
C10 C15 1_555 1_555
C14 C15 1_555 1_555

#END
