
#######################################################################
#
#                 Cambridge Crystallographic Data Centre
#                                CCDC 
#
#######################################################################
#
# If this CIF has been generated from an entry in the Cambridge 
# Structural Database, then it will include bibliographic, chemical, 
# crystal, experimental, refinement or atomic coordinate data resulting 
# from the CCDC's data processing and validation procedures.
#
#######################################################################

data_CEWNUQ
_chemical_formula_moiety         'C14 H20 O4'
_chemical_name_systematic        
5-hydroxy-1-(3-hydroxy-2-methylbutanoyl)-3,5-dimethylbicyclo[4.1.0]hept-3-en-2-one
_symmetry_cell_setting           orthorhombic
_symmetry_space_group_name_H-M   'P 21 21 21'
_symmetry_Int_Tables_number      19
_space_group_name_Hall           'P 2ac 2ab'
loop_
_symmetry_equiv_pos_site_id
_symmetry_equiv_pos_as_xyz
1 x,y,z
2 1/2-x,-y,1/2+z
3 -x,1/2+y,1/2-z
4 1/2+x,1/2-y,-z
_cell_length_a                   9.0317(5)
_cell_length_b                   10.0478(5)
_cell_length_c                   15.5635(8)
_cell_angle_alpha                90
_cell_angle_beta                 90
_cell_angle_gamma                90
_cell_volume                     1412.37
_exptl_crystal_colour            white
_exptl_crystal_description       needle
_cell_formula_units_Z            4
loop_
_atom_site_label
_atom_site_type_symbol
_atom_site_fract_x
_atom_site_fract_y
_atom_site_fract_z
O1 O 0.4772(7) -1.2172(6) -1.4256(4)
H1 H 0.4356 -1.2842 -1.4435
O2 O 0.3733(7) -1.4217(5) -1.5336(3)
O3 O 0.0476(7) -1.2721(6) -1.7515(4)
H2 H 0.0347 -1.2721 -1.6994
C1 C 0.1845(9) -1.3393(8) -1.7713(5)
C2 C 0.3356(7) -1.4021(6) -1.6091(5)
C3 C 0.2491(8) -1.5038(6) -1.6554(4)
O4 O 0.5213(9) -1.0877(8) -1.6223(5)
C4 C 0.3089(9) -1.2522(8) -1.7415(4)
H3 H 0.2989 -1.1578 -1.7563
C5 C 0.3898(7) -1.1028(7) -1.4456(5)
H4 H 0.4564 -1.0263 -1.4508
C6 C 0.4158(10) -1.1623(8) -1.6018(6)
C7 C 0.3812(7) -1.2804(7) -1.6539(4)
C8 C 0.3101(8) -1.1212(7) -1.5314(6)
H5 H 0.2360 -1.1917 -1.5245
C9 C 0.1836(9) -1.4720(8) -1.7302(5)
H6 H 0.1331 -1.5395 -1.7586
C10 C 0.2349(11) -1.6378(7) -1.6139(6)
H7 H 0.1830 -1.6970 -1.6518
H8 H 0.1808 -1.6293 -1.5610
H9 H 0.3317 -1.6729 -1.6022
C11 C 0.4669(9) -1.3039(10) -1.7385(6)
H10 H 0.5459 -1.2423 -1.7527
H11 H 0.4842 -1.3952 -1.7561
C12 C 0.1888(13) -1.3535(11) -1.8690(6)
H12 H 0.2771 -1.4000 -1.8856
H13 H 0.1883 -1.2667 -1.8949
H14 H 0.1036 -1.4025 -1.8880
C13 C 0.2308(14) -0.9953(11) -1.5617(10)
H15 H 0.1797 -1.0133 -1.6145
H16 H 0.3021 -0.9258 -1.5708
H17 H 0.1609 -0.9676 -1.5188
C14 C 0.2825(11) -1.0747(14) -1.3746(8)
H18 H 0.2212 -1.0005 -1.3901
H19 H 0.3360 -1.0540 -1.3229
H20 H 0.2216 -1.1516 -1.3650
loop_
_geom_bond_atom_site_label_1
_geom_bond_atom_site_label_2
_geom_bond_site_symmetry_1
_geom_bond_site_symmetry_2
O1 H1 1_555 1_555
O2 C2 1_555 1_555
O3 H2 1_555 1_555
C1 O3 1_555 1_555
C2 C3 1_555 1_555
C3 C9 1_555 1_555
O4 C6 1_555 1_555
C4 C1 1_555 1_555
H3 C4 1_555 1_555
C5 O1 1_555 1_555
H4 C5 1_555 1_555
C6 C7 1_555 1_555
C7 C2 1_555 1_555
C8 C5 1_555 1_555
H5 C8 1_555 1_555
C9 C1 1_555 1_555
H6 C9 1_555 1_555
C10 C3 1_555 1_555
H7 C10 1_555 1_555
H8 C10 1_555 1_555
H9 C10 1_555 1_555
C11 C4 1_555 1_555
H10 C11 1_555 1_555
H11 C11 1_555 1_555
C12 C1 1_555 1_555
H12 C12 1_555 1_555
H13 C12 1_555 1_555
H14 C12 1_555 1_555
C13 C8 1_555 1_555
H15 C13 1_555 1_555
H16 C13 1_555 1_555
H17 C13 1_555 1_555
C14 C5 1_555 1_555
H18 C14 1_555 1_555
H19 C14 1_555 1_555
H20 C14 1_555 1_555
C4 C7 1_555 1_555
C6 C8 1_555 1_555
C7 C11 1_555 1_555

#END
