
#######################################################################
#
#                 Cambridge Crystallographic Data Centre
#                                CCDC 
#
#######################################################################
#
# If this CIF has been generated from an entry in the Cambridge 
# Structural Database, then it will include bibliographic, chemical, 
# crystal, experimental, refinement or atomic coordinate data resulting 
# from the CCDC's data processing and validation procedures.
#
#######################################################################

data_CEWNOK
_chemical_formula_moiety         'C27 H32 O3 S1'
_chemical_name_systematic        
2,6-di-t-butyl-4-[phenyl(phenylsulfonyl)methyl]phenol
_symmetry_cell_setting           monoclinic
_symmetry_space_group_name_H-M   'P 21/c'
_symmetry_Int_Tables_number      14
_space_group_name_Hall           '-P 2ybc'
loop_
_symmetry_equiv_pos_site_id
_symmetry_equiv_pos_as_xyz
1 x,y,z
2 -x,1/2+y,1/2-z
3 -x,-y,-z
4 x,1/2-y,1/2+z
_cell_length_a                   12.430(4)
_cell_length_b                   9.127(3)
_cell_length_c                   21.477(7)
_cell_angle_alpha                90
_cell_angle_beta                 90.584(8)
_cell_angle_gamma                90
_cell_volume                     2436.41
_exptl_crystal_colour            yellow
_exptl_crystal_description       block
_cell_formula_units_Z            4
loop_
_atom_site_label
_atom_site_type_symbol
_atom_site_fract_x
_atom_site_fract_y
_atom_site_fract_z
S1 S 0.09713(9) 0.19556(12) 0.74592(6)
O1 O 0.4747(2) 0.4928(4) 0.58485(16)
H1 H 0.5238 0.4327 0.5852
O2 O 0.1698(3) 0.0754(3) 0.74123(18)
O3 O 0.0078(2) 0.1814(3) 0.78584(17)
C1 C 0.4017(3) 0.4576(4) 0.63005(19)
C2 C 0.2546(3) 0.3914(4) 0.71995(17)
C3 C 0.2390(3) 0.5105(4) 0.68115(17)
H2 H 0.1782 0.5683 0.6864
C4 C 0.3106(3) 0.5466(4) 0.63477(18)
C5 C 0.4206(3) 0.3389(4) 0.66892(18)
C6 C 0.3452(3) 0.3087(4) 0.71306(18)
H3 H 0.3561 0.2289 0.7393
C7 C 0.1696(3) 0.3583(4) 0.76749(18)
H4 H 0.1177 0.4389 0.7650
C8 C 0.2896(3) 0.6731(4) 0.5908(2)
C9 C 0.2069(3) 0.3516(5) 0.8343(2)
C10 C 0.5195(3) 0.2393(5) 0.6606(2)
C11 C 0.0495(4) 0.2386(5) 0.6724(2)
C12 C 0.1764(4) 0.4596(5) 0.8738(2)
H5 H 0.1310 0.5333 0.8594
C13 C -0.0372(4) 0.3332(5) 0.6660(3)
H6 H -0.0716 0.3695 0.7010
C14 C 0.5197(4) 0.1138(5) 0.7084(2)
H7 H 0.5189 0.1538 0.7497
H8 H 0.5832 0.0553 0.7032
H9 H 0.4570 0.0538 0.7020
C15 C 0.2715(4) 0.2451(6) 0.8577(3)
H10 H 0.2941 0.1699 0.8317
C16 C 0.5177(4) 0.1652(5) 0.5970(2)
H11 H 0.4539 0.1067 0.5929
H12 H 0.5800 0.1038 0.5931
H13 H 0.5182 0.2384 0.5649
C17 C 0.2112(5) 0.4622(7) 0.9346(3)
H14 H 0.1886 0.5373 0.9606
C18 C 0.2834(4) 0.6180(6) 0.5230(2)
H15 H 0.3539 0.5901 0.5095
H16 H 0.2562 0.6948 0.4966
H17 H 0.2362 0.5349 0.5205
C19 C 0.2765(5) 0.3595(8) 0.9570(3)
H18 H 0.3029 0.3648 0.9976
C20 C 0.1819(4) 0.7455(6) 0.6044(2)
H19 H 0.1264 0.6723 0.6051
H20 H 0.1656 0.8161 0.5725
H21 H 0.1857 0.7938 0.6441
C21 C 0.6241(3) 0.3257(6) 0.6700(3)
H22 H 0.6279 0.4026 0.6397
H23 H 0.6845 0.2611 0.6653
H24 H 0.6256 0.3673 0.7111
C22 C -0.0721(5) 0.3732(7) 0.6070(4)
H25 H -0.1313 0.4346 0.6023
C23 C 0.3761(5) 0.7885(5) 0.5965(3)
H26 H 0.3710 0.8360 0.6362
H27 H 0.3668 0.8597 0.5640
H28 H 0.4455 0.7434 0.5928
C24 C 0.0992(4) 0.1894(7) 0.6195(3)
H29 H 0.1585 0.1275 0.6224
C25 C 0.3042(4) 0.2456(9) 0.9188(3)
H30 H 0.3452 0.1685 0.9344
C26 C -0.0218(6) 0.3247(10) 0.5577(3)
H31 H -0.0443 0.3555 0.5184
C27 C 0.0612(6) 0.2318(11) 0.5628(4)
H32 H 0.0933 0.1958 0.5270
loop_
_geom_bond_atom_site_label_1
_geom_bond_atom_site_label_2
_geom_bond_site_symmetry_1
_geom_bond_site_symmetry_2
S1 O2 1_555 1_555
O1 H1 1_555 1_555
O3 S1 1_555 1_555
C1 O1 1_555 1_555
C2 C3 1_555 1_555
C3 H2 1_555 1_555
C4 C1 1_555 1_555
C5 C1 1_555 1_555
C6 C2 1_555 1_555
H3 C6 1_555 1_555
C7 S1 1_555 1_555
H4 C7 1_555 1_555
C8 C4 1_555 1_555
C9 C7 1_555 1_555
C10 C5 1_555 1_555
C11 S1 1_555 1_555
C12 C9 1_555 1_555
H5 C12 1_555 1_555
C13 C11 1_555 1_555
H6 C13 1_555 1_555
C14 C10 1_555 1_555
H7 C14 1_555 1_555
H8 C14 1_555 1_555
H9 C14 1_555 1_555
C15 C9 1_555 1_555
H10 C15 1_555 1_555
C16 C10 1_555 1_555
H11 C16 1_555 1_555
H12 C16 1_555 1_555
H13 C16 1_555 1_555
C17 C12 1_555 1_555
H14 C17 1_555 1_555
C18 C8 1_555 1_555
H15 C18 1_555 1_555
H16 C18 1_555 1_555
H17 C18 1_555 1_555
C19 C17 1_555 1_555
H18 C19 1_555 1_555
C20 C8 1_555 1_555
H19 C20 1_555 1_555
H20 C20 1_555 1_555
H21 C20 1_555 1_555
C21 C10 1_555 1_555
H22 C21 1_555 1_555
H23 C21 1_555 1_555
H24 C21 1_555 1_555
C22 C13 1_555 1_555
H25 C22 1_555 1_555
C23 C8 1_555 1_555
H26 C23 1_555 1_555
H27 C23 1_555 1_555
H28 C23 1_555 1_555
C24 C11 1_555 1_555
H29 C24 1_555 1_555
C25 C15 1_555 1_555
H30 C25 1_555 1_555
C26 C22 1_555 1_555
H31 C26 1_555 1_555
C27 C24 1_555 1_555
H32 C27 1_555 1_555
C2 C7 1_555 1_555
C3 C4 1_555 1_555
C5 C6 1_555 1_555
C19 C25 1_555 1_555
C26 C27 1_555 1_555

#END
