
#######################################################################
#
#                 Cambridge Crystallographic Data Centre
#                                CCDC 
#
#######################################################################
#
# If this CIF has been generated from an entry in the Cambridge 
# Structural Database, then it will include bibliographic, chemical, 
# crystal, experimental, refinement or atomic coordinate data resulting 
# from the CCDC's data processing and validation procedures.
#
#######################################################################

data_CEWWUZ
_chemical_formula_moiety         'C22 H17 N1 O2'
_chemical_name_systematic        
2-t-butylbenzo[1,2]indolizino[6,5,4,3-ija]quinoline-4,11-dione
_symmetry_cell_setting           monoclinic
_symmetry_space_group_name_H-M   'P 21/m'
_symmetry_Int_Tables_number      11
_space_group_name_Hall           '-P 2yb'
loop_
_symmetry_equiv_pos_site_id
_symmetry_equiv_pos_as_xyz
1 x,y,z
2 -x,1/2+y,-z
3 -x,-y,-z
4 x,1/2-y,z
_cell_length_a                   10.9591(10)
_cell_length_b                   6.7680(5)
_cell_length_c                   11.0796(10)
_cell_angle_alpha                90
_cell_angle_beta                 107.392(7)
_cell_angle_gamma                90
_cell_volume                     784.217
_exptl_crystal_colour            yellow
_exptl_crystal_description       needle
_cell_formula_units_Z            2
_exptl_crystal_recrystallization_method dichloromethane/hexane
loop_
_atom_site_label
_atom_site_type_symbol
_atom_site_fract_x
_atom_site_fract_y
_atom_site_fract_z
N1 N 0.08555(19) 0.7500 0.48716(18)
C1 C 0.1359(2) 0.7500 0.6185(2)
C2 C 0.0252(2) 0.7500 0.6667(2)
C3 C 0.0162(3) 0.7500 0.7882(2)
H1 H 0.0911 0.7500 0.8588
C4 C -0.1041(3) 0.7500 0.8058(3)
H2 H -0.1115 0.7500 0.8891
C5 C -0.2138(3) 0.7500 0.7024(3)
H3 H -0.2954 0.7500 0.7161
C6 C -0.2061(2) 0.7500 0.5792(2)
H4 H -0.2812 0.7500 0.5087
C7 C -0.0863(2) 0.7500 0.5623(2)
C8 C -0.0478(2) 0.7500 0.4465(2)
C9 C -0.1111(2) 0.7500 0.3213(2)
H5 H -0.2019 0.7500 0.2947
C10 C -0.0441(2) 0.7500 0.2269(2)
C11 C 0.0979(2) 0.7500 0.2760(2)
C12 C 0.1743(2) 0.7500 0.1972(2)
H6 H 0.1341 0.7500 0.1084
C13 C 0.3079(2) 0.7500 0.2415(2)
C14 C 0.3641(2) 0.7500 0.3731(2)
H7 H 0.4548 0.7500 0.4058
C15 C 0.2925(2) 0.7500 0.4570(2)
C16 C 0.3511(2) 0.7500 0.5967(2)
C17 C 0.2645(2) 0.7500 0.6727(2)
H8 H 0.2982 0.7500 0.7623
C18 C 0.1585(2) 0.7500 0.4070(2)
C19 C 0.3836(2) 0.7500 0.1468(2)
C20 C 0.5289(3) 0.7500 0.2113(3)
H9 H 0.5741 0.7500 0.1473
H10 H 0.5525 0.6318 0.2643
C21 C 0.35039(19) 0.5640(3) 0.06398(19)
H11 H 0.2576 0.5569 0.0249
H12 H 0.3795 0.4466 0.1164
H13 H 0.3929 0.5699 -0.0022
O1 O 0.46876(18) 0.7500 0.64426(18)
O2 O -0.10057(18) 0.7500 0.11240(17)
H10C H 0.5525 0.8682 0.2643
C21C C 0.35039(19) 0.9360(3) 0.06398(19)
H11C H 0.2576 0.9431 0.0249
H12C H 0.3795 1.0534 0.1164
H13C H 0.3929 0.9301 -0.0022
loop_
_geom_bond_atom_site_label_1
_geom_bond_atom_site_label_2
_geom_bond_site_symmetry_1
_geom_bond_site_symmetry_2
N1 C1 1_555 1_555
C1 C2 1_555 1_555
C2 C3 1_555 1_555
C3 H1 1_555 1_555
C4 C3 1_555 1_555
H2 C4 1_555 1_555
C5 C4 1_555 1_555
H3 C5 1_555 1_555
C6 C5 1_555 1_555
H4 C6 1_555 1_555
C7 C2 1_555 1_555
C8 N1 1_555 1_555
C9 C8 1_555 1_555
H5 C9 1_555 1_555
C10 C9 1_555 1_555
C11 C10 1_555 1_555
C12 C11 1_555 1_555
H6 C12 1_555 1_555
C13 C12 1_555 1_555
C14 C13 1_555 1_555
H7 C14 1_555 1_555
C15 C14 1_555 1_555
C16 C15 1_555 1_555
C17 C1 1_555 1_555
H8 C17 1_555 1_555
C18 N1 1_555 1_555
C19 C13 1_555 1_555
C20 C19 1_555 1_555
H9 C20 1_555 1_555
H10 C20 1_555 1_555
C21 C19 1_555 1_555
H11 C21 1_555 1_555
H12 C21 1_555 1_555
H13 C21 1_555 1_555
O1 C16 1_555 1_555
O2 C10 1_555 1_555
H10C C20 1_555 1_555
C21C C19 1_555 1_555
H11C C21C 1_555 1_555
H12C C21C 1_555 1_555
H13C C21C 1_555 1_555
C6 C7 1_555 1_555
C7 C8 1_555 1_555
C11 C18 1_555 1_555
C15 C18 1_555 1_555
C16 C17 1_555 1_555

#END
