
#######################################################################
#
#                 Cambridge Crystallographic Data Centre
#                                CCDC 
#
#######################################################################
#
# If this CIF has been generated from an entry in the Cambridge 
# Structural Database, then it will include bibliographic, chemical, 
# crystal, experimental, refinement or atomic coordinate data resulting 
# from the CCDC's data processing and validation procedures.
#
#######################################################################

data_CEWXEK
_chemical_formula_moiety         'C16 H14 O3 S1'
_chemical_name_systematic        
10-acetyl-3a,4,10,10a-tetrahydro[1]benzothieno[2,3-f][2]benzofuran-1(3H)-one
_symmetry_cell_setting           triclinic
_symmetry_space_group_name_H-M   'P -1'
_symmetry_Int_Tables_number      2
_space_group_name_Hall           '-P 1'
loop_
_symmetry_equiv_pos_site_id
_symmetry_equiv_pos_as_xyz
1 x,y,z
2 -x,-y,-z
_cell_length_a                   8.3647(5)
_cell_length_b                   8.5439(5)
_cell_length_c                   10.0130(5)
_cell_angle_alpha                80.964(4)
_cell_angle_beta                 77.853(4)
_cell_angle_gamma                79.868(5)
_cell_volume                     683.291
_exptl_crystal_colour            colorless
_exptl_crystal_description       plate
_cell_formula_units_Z            2
loop_
_atom_site_label
_atom_site_type_symbol
_atom_site_fract_x
_atom_site_fract_y
_atom_site_fract_z
S1 S 0.47274(8) 0.24789(7) 0.83701(6)
O1 O 0.2803(3) 0.1742(3) 1.4897(2)
O2 O 0.5328(3) 0.1953(3) 1.5154(2)
O3 O 0.8608(3) 0.2681(3) 1.2743(3)
C1 C 0.4583(3) 0.2345(3) 1.0143(3)
C2 C 0.3058(3) 0.1875(3) 1.1107(3)
H1 H 0.305307 0.073239 1.116236
H2 H 0.207539 0.243822 1.077815
C3 C 0.3078(3) 0.2313(3) 1.2502(3)
H3 H 0.282535 0.348121 1.246763
C4 C 0.2005(4) 0.1571(4) 1.3773(3)
H4 H 0.088234 0.213639 1.389086
H5 H 0.198299 0.045153 1.371870
C5 C 0.4409(4) 0.1853(4) 1.4407(3)
C6 C 0.4779(3) 0.1773(3) 1.2886(3)
H6 H 0.510407 0.064179 1.274923
C7 C 0.6109(3) 0.2693(3) 1.1983(3)
H7 H 0.589071 0.379635 1.220654
C8 C 0.5939(3) 0.2726(3) 1.0498(3)
C9 C 0.7176(3) 0.3147(3) 0.9304(3)
C10 C 0.8721(3) 0.3625(3) 0.9235(3)
H8 H 0.905075 0.375818 1.003552
C11 C 0.9739(4) 0.3893(3) 0.7981(3)
H9 H 1.076353 0.419943 0.793773
C12 C 0.9256(4) 0.3711(3) 0.6778(3)
H10 H 0.997778 0.387569 0.594223
C13 C 0.7733(4) 0.3293(3) 0.6790(3)
H11 H 0.740698 0.319810 0.597700
C14 C 0.6701(3) 0.3017(3) 0.8066(3)
C15 C 0.7826(3) 0.1933(3) 1.2265(3)
C16 C 0.8473(4) 0.0276(4) 1.1923(3)
H12 H 0.965815 0.010997 1.178437
H13 H 0.813216 0.013416 1.109795
H14 H 0.804450 -0.048268 1.266738
loop_
_geom_bond_atom_site_label_1
_geom_bond_atom_site_label_2
_geom_bond_site_symmetry_1
_geom_bond_site_symmetry_2
S1 C1 1_555 1_555
O1 C4 1_555 1_555
O2 C5 1_555 1_555
O3 C15 1_555 1_555
C1 C2 1_555 1_555
C2 H1 1_555 1_555
H2 C2 1_555 1_555
C3 C2 1_555 1_555
H3 C3 1_555 1_555
C4 C3 1_555 1_555
H4 C4 1_555 1_555
H5 C4 1_555 1_555
C5 O1 1_555 1_555
C6 C3 1_555 1_555
H6 C6 1_555 1_555
C7 C6 1_555 1_555
H7 C7 1_555 1_555
C8 C1 1_555 1_555
C9 C8 1_555 1_555
C10 C9 1_555 1_555
H8 C10 1_555 1_555
C11 C10 1_555 1_555
H9 C11 1_555 1_555
C12 C11 1_555 1_555
H10 C12 1_555 1_555
C13 C12 1_555 1_555
H11 C13 1_555 1_555
C14 S1 1_555 1_555
C15 C7 1_555 1_555
C16 C15 1_555 1_555
H12 C16 1_555 1_555
H13 C16 1_555 1_555
H14 C16 1_555 1_555
C5 C6 1_555 1_555
C7 C8 1_555 1_555
C9 C14 1_555 1_555
C13 C14 1_555 1_555

#END
