
#######################################################################
#
#                 Cambridge Crystallographic Data Centre
#                                CCDC 
#
#######################################################################
#
# If this CIF has been generated from an entry in the Cambridge 
# Structural Database, then it will include bibliographic, chemical, 
# crystal, experimental, refinement or atomic coordinate data resulting 
# from the CCDC's data processing and validation procedures.
#
#######################################################################

data_CEWYIN01
_chemical_formula_moiety         'C20 H20 O4'
_chemical_name_systematic        
1,3-Dimethoxy-7-(3,5-dimethoxyphenyl)naphthalene
_symmetry_cell_setting           triclinic
_symmetry_space_group_name_H-M   'P -1'
_symmetry_Int_Tables_number      2
_space_group_name_Hall           '-P 1'
loop_
_symmetry_equiv_pos_site_id
_symmetry_equiv_pos_as_xyz
1 x,y,z
2 -x,-y,-z
_cell_length_a                   7.2273(10)
_cell_length_b                   10.9326(16)
_cell_length_c                   12.0189(17)
_cell_angle_alpha                104.163(2)
_cell_angle_beta                 105.646(2)
_cell_angle_gamma                107.170(2)
_cell_volume                     817.632
_exptl_crystal_description       needle
_chemical_melting_point          '363 K'
_cell_formula_units_Z            2
loop_
_atom_site_label
_atom_site_type_symbol
_atom_site_fract_x
_atom_site_fract_y
_atom_site_fract_z
O1 O -0.38489(15) 0.48781(11) 0.28240(10)
O2 O 1.07937(14) 1.21177(11) 0.37463(10)
O3 O 0.34800(14) 0.70460(10) 0.42246(10)
O4 O 0.63572(15) 1.26235(12) 0.03339(10)
C1 C -0.5868(2) 0.45442(19) 0.19752(18)
H1 H -0.6307 0.5285 0.2199
H2 H -0.6824 0.3731 0.1991
H3 H -0.5841 0.439 0.1159
C2 C -0.2223(2) 0.58690(14) 0.27818(13)
C3 C -0.23913(19) 0.67113(14) 0.21271(12)
H4 H -0.3695 0.6647 0.1659
C4 C -0.05576(19) 0.76868(13) 0.21667(11)
C5 C -0.0619(2) 0.86209(15) 0.15385(13)
H5 H -0.1902 0.8602 0.109
C6 C 0.1155(2) 0.95474(15) 0.15737(13)
H6 H 0.105 1.0155 0.116
C7 C 0.31560(19) 0.96132(13) 0.22207(11)
C8 C 0.50712(19) 1.05815(13) 0.21847(12)
C9 C 0.7047(2) 1.08849(13) 0.30324(12)
H7 H 0.718 1.0498 0.3643
C10 C 0.8797(2) 1.17582(14) 0.29629(12)
C11 C 1.1116(2) 1.13563(17) 0.45335(14)
H8 H 1.041 1.1491 0.5097
H9 H 1.258 1.1662 0.4991
H10 H 1.0574 1.0402 0.4044
C12 C -0.0256(2) 0.59656(14) 0.35136(13)
H11 H -0.0178 0.5395 0.397
C13 C 0.15251(19) 0.68902(13) 0.35546(12)
C14 C 0.3664(2) 0.62715(17) 0.50223(16)
H12 H 0.3015 0.6491 0.5601
H13 H 0.5111 0.6492 0.5462
H14 H 0.2991 0.5313 0.4539
C15 C 0.14362(18) 0.77850(12) 0.28650(11)
C16 C 0.32455(19) 0.87358(13) 0.28628(12)
H15 H 0.4541 0.877 0.331
C17 C 0.8636(2) 1.23676(14) 0.20716(13)
H16 H 0.9824 1.2961 0.2036
C18 C 0.6700(2) 1.20801(14) 0.12457(13)
C19 C 0.8131(2) 1.35094(17) 0.02212(15)
H17 H 0.8868 1.4306 0.0959
H18 H 0.7689 1.3781 -0.0474
H19 H 0.9033 1.3039 0.0102
C20 C 0.4926(2) 1.11800(14) 0.12932(13)
H20 H 0.3624 1.0978 0.0717
loop_
_geom_bond_atom_site_label_1
_geom_bond_atom_site_label_2
_geom_bond_site_symmetry_1
_geom_bond_site_symmetry_2
O1 C1 1_555 1_555
O2 C10 1_555 1_555
O3 C13 1_555 1_555
O4 C18 1_555 1_555
C1 H1 1_555 1_555
H2 C1 1_555 1_555
H3 C1 1_555 1_555
C2 O1 1_555 1_555
C3 C2 1_555 1_555
H4 C3 1_555 1_555
C4 C3 1_555 1_555
C5 C4 1_555 1_555
H5 C5 1_555 1_555
C6 C5 1_555 1_555
H6 C6 1_555 1_555
C7 C6 1_555 1_555
C8 C7 1_555 1_555
C9 C8 1_555 1_555
H7 C9 1_555 1_555
C10 C9 1_555 1_555
C11 O2 1_555 1_555
H8 C11 1_555 1_555
H9 C11 1_555 1_555
H10 C11 1_555 1_555
C12 C2 1_555 1_555
H11 C12 1_555 1_555
C13 C12 1_555 1_555
C14 O3 1_555 1_555
H12 C14 1_555 1_555
H13 C14 1_555 1_555
H14 C14 1_555 1_555
C15 C4 1_555 1_555
C16 C7 1_555 1_555
H15 C16 1_555 1_555
C17 C10 1_555 1_555
H16 C17 1_555 1_555
C18 C17 1_555 1_555
C19 O4 1_555 1_555
H17 C19 1_555 1_555
H18 C19 1_555 1_555
H19 C19 1_555 1_555
C20 C8 1_555 1_555
H20 C20 1_555 1_555
C13 C15 1_555 1_555
C15 C16 1_555 1_555
C18 C20 1_555 1_555

#END
