
#######################################################################
#
#                 Cambridge Crystallographic Data Centre
#                                CCDC 
#
#######################################################################
#
# If this CIF has been generated from an entry in the Cambridge 
# Structural Database, then it will include bibliographic, chemical, 
# crystal, experimental, refinement or atomic coordinate data resulting 
# from the CCDC's data processing and validation procedures.
#
#######################################################################

data_CEWZUB
_chemical_formula_moiety         'C29 H30 N1 O5 P1 S1'
_chemical_name_systematic        
'2-(((4-Methylphenyl)sulfonyl)amino)-1-phenylpropyl (2-methoxyphenyl)phenylphosphinate'
_symmetry_cell_setting           orthorhombic
_symmetry_space_group_name_H-M   'P 21 21 21'
_symmetry_Int_Tables_number      19
_space_group_name_Hall           'P 2ac 2ab'
loop_
_symmetry_equiv_pos_site_id
_symmetry_equiv_pos_as_xyz
1 x,y,z
2 1/2+x,1/2-y,-z
3 -x,1/2+y,1/2-z
4 1/2-x,-y,1/2+z
_cell_length_a                   10.5056(5)
_cell_length_b                   10.5990(5)
_cell_length_c                   24.3383(11)
_cell_angle_alpha                90
_cell_angle_beta                 90
_cell_angle_gamma                90
_cell_volume                     2710.04
_cell_formula_units_Z            4
loop_
_atom_site_label
_atom_site_type_symbol
_atom_site_fract_x
_atom_site_fract_y
_atom_site_fract_z
S1 S 0.51424(4) 1.00238(4) 0.796090(15)
P1 P 0.21829(4) 1.01000(4) 0.933120(16)
O1 O 0.29791(11) 0.88369(10) 0.94112(4)
O2 O 0.06375(13) 1.21434(12) 0.96699(5)
O3 O 0.28888(11) 1.10932(10) 0.90315(5)
O4 O 0.58324(12) 0.89940(13) 0.77235(5)
O5 O 0.56277(13) 1.12791(12) 0.79104(5)
N1 N 0.50276(13) 0.97498(13) 0.86150(5)
H1 H 0.4361 1.0230 0.8743
C1 C -0.0195(2) 0.9968(3) 0.70215(9)
H2 H -0.0151 0.9684 0.6639
H3 H -0.0558 1.0819 0.7035
H4 H -0.0734 0.9390 0.7233
C2 C 0.11270(18) 0.9986(2) 0.72653(7)
C3 C 0.1689(2) 1.1107(2) 0.74342(8)
H5 H 0.1220 1.1871 0.7408
C4 C 0.29162(19) 1.11395(18) 0.76402(7)
H6 H 0.3287 1.1914 0.7754
C5 C 0.35950(16) 1.00197(18) 0.76779(6)
C6 C 0.48454(16) 0.84620(15) 0.88343(7)
H7 H 0.5180 0.7854 0.8555
C7 C 0.34327(16) 0.81466(15) 0.89319(6)
H8 H 0.2931 0.8419 0.8604
C8 C 0.07448(16) 0.96212(16) 0.89918(7)
C9 C 0.02856(17) 0.83970(18) 0.90561(7)
H9 H 0.0734 0.7810 0.9279
C10 C -0.08277(18) 0.8040(2) 0.87940(8)
H10 H -0.1129 0.7199 0.8830
C11 C -0.15017(18) 0.8895(2) 0.84817(8)
H11 H -0.2267 0.8645 0.8305
C12 C 0.18198(16) 1.04763(16) 1.00296(7)
C13 C 0.10559(16) 1.15421(17) 1.01297(7)
C14 C -0.0322(2) 1.30898(19) 0.97306(9)
H12 H -0.1024 1.2755 0.9952
H13 H -0.0641 1.3334 0.9368
H14 H 0.0042 1.3829 0.9914
C15 C 0.07701(18) 1.19035(19) 1.06613(8)
H15 H 0.0261 1.2629 1.0728
C16 C 0.1233(2) 1.1198(2) 1.10960(8)
H16 H 0.1041 1.1447 1.1462
C17 C 0.19685(18) 1.0140(2) 1.10081(7)
H17 H 0.2269 0.9658 1.1311
C18 C 0.22679(16) 0.97805(17) 1.04728(7)
H18 H 0.2781 0.9056 1.0411
C19 C -0.10642(18) 1.0117(2) 0.84262(8)
H19 H -0.1541 1.0710 0.8218
C20 C 0.00693(19) 1.04818(18) 0.86729(8)
H20 H 0.0382 1.1315 0.8624
C21 C 0.32195(16) 0.67531(16) 0.90231(7)
C22 C 0.29808(19) 0.62532(17) 0.95387(8)
H21 H 0.2962 0.6790 0.9851
C23 C 0.27674(19) 0.4961(2) 0.95987(8)
H22 H 0.2599 0.4620 0.9952
C24 C 0.2801(2) 0.41746(17) 0.91450(9)
H23 H 0.2643 0.3297 0.9186
C25 C 0.30652(18) 0.46711(17) 0.86327(9)
H24 H 0.3107 0.4130 0.8322
C26 C 0.32693(18) 0.59498(17) 0.85700(7)
H25 H 0.3445 0.6284 0.8216
C27 C 0.56347(17) 0.83081(17) 0.93538(7)
H26 H 0.6536 0.8440 0.9268
H27 H 0.5516 0.7456 0.9501
H28 H 0.5361 0.8929 0.9628
C28 C 0.30562(19) 0.88832(18) 0.75148(7)
H29 H 0.3526 0.8120 0.7542
C29 C 0.1821(2) 0.8879(2) 0.73114(7)
H30 H 0.1446 0.8104 0.7202
H31? H 0.5754 1.0065 0.8775
loop_
_geom_bond_atom_site_label_1
_geom_bond_atom_site_label_2
_geom_bond_site_symmetry_1
_geom_bond_site_symmetry_2
S1 O4 1_555 1_555
P1 O1 1_555 1_555
O1 C7 1_555 1_555
O2 C13 1_555 1_555
O3 P1 1_555 1_555
O5 S1 1_555 1_555
N1 S1 1_555 1_555
H1 N1 1_555 1_555
C1 H2 1_555 1_555
H3 C1 1_555 1_555
H4 C1 1_555 1_555
C2 C1 1_555 1_555
C3 C2 1_555 1_555
H5 C3 1_555 1_555
C4 C3 1_555 1_555
H6 C4 1_555 1_555
C5 S1 1_555 1_555
C6 N1 1_555 1_555
H7 C6 1_555 1_555
C7 C6 1_555 1_555
H8 C7 1_555 1_555
C8 P1 1_555 1_555
C9 C8 1_555 1_555
H9 C9 1_555 1_555
C10 C9 1_555 1_555
H10 C10 1_555 1_555
C11 C10 1_555 1_555
H11 C11 1_555 1_555
C12 P1 1_555 1_555
C13 C12 1_555 1_555
C14 O2 1_555 1_555
H12 C14 1_555 1_555
H13 C14 1_555 1_555
H14 C14 1_555 1_555
C15 C13 1_555 1_555
H15 C15 1_555 1_555
C16 C15 1_555 1_555
H16 C16 1_555 1_555
C17 C16 1_555 1_555
H17 C17 1_555 1_555
C18 C12 1_555 1_555
H18 C18 1_555 1_555
C19 C11 1_555 1_555
H19 C19 1_555 1_555
C20 C8 1_555 1_555
H20 C20 1_555 1_555
C21 C7 1_555 1_555
C22 C21 1_555 1_555
H21 C22 1_555 1_555
C23 C22 1_555 1_555
H22 C23 1_555 1_555
C24 C23 1_555 1_555
H23 C24 1_555 1_555
C25 C24 1_555 1_555
H24 C25 1_555 1_555
C26 C21 1_555 1_555
H25 C26 1_555 1_555
C27 C6 1_555 1_555
H26 C27 1_555 1_555
H27 C27 1_555 1_555
H28 C27 1_555 1_555
C28 C5 1_555 1_555
H29 C28 1_555 1_555
C29 C2 1_555 1_555
H30 C29 1_555 1_555
C4 C5 1_555 1_555
C17 C18 1_555 1_555
C19 C20 1_555 1_555
C25 C26 1_555 1_555
C28 C29 1_555 1_555

#END
