
#######################################################################
#
#                 Cambridge Crystallographic Data Centre
#                                CCDC 
#
#######################################################################
#
# If this CIF has been generated from an entry in the Cambridge 
# Structural Database, then it will include bibliographic, chemical, 
# crystal, experimental, refinement or atomic coordinate data resulting 
# from the CCDC's data processing and validation procedures.
#
#######################################################################

data_CEXBAK
_chemical_formula_moiety         'C16 H19 O2 P1'
_chemical_name_systematic        
'Isopropyl(2-methoxyphenyl)phenylphosphine oxide'
_symmetry_cell_setting           orthorhombic
_symmetry_space_group_name_H-M   'P 21 21 21'
_symmetry_Int_Tables_number      19
_space_group_name_Hall           'P 2ac 2ab'
loop_
_symmetry_equiv_pos_site_id
_symmetry_equiv_pos_as_xyz
1 x,y,z
2 1/2+x,1/2-y,-z
3 -x,1/2+y,1/2-z
4 1/2-x,-y,1/2+z
_cell_length_a                   8.3456(4)
_cell_length_b                   10.6066(5)
_cell_length_c                   16.0521(7)
_cell_angle_alpha                90
_cell_angle_beta                 90
_cell_angle_gamma                90
_cell_volume                     1420.91
_cell_formula_units_Z            4
loop_
_atom_site_label
_atom_site_type_symbol
_atom_site_fract_x
_atom_site_fract_y
_atom_site_fract_z
P1 P 0.830239 0.018297 0.684912
O1 O 0.472316 0.056391 0.702544
O2 O 0.984555 -0.046164 0.667314
C1 C 0.309079 0.095295 0.709735
H1 H 0.267693 0.117737 0.654559
H2 H 0.302316 0.168687 0.746657
H3 H 0.24521 0.026159 0.732924
C2 C 0.503742 -0.050157 0.658114
C3 C 0.666224 -0.078575 0.646662
C4 C 0.817092 0.168165 0.630976
C5 C 0.914141 0.183678 0.560952
H4 H 0.982223 0.116844 0.543648
C6 C 0.912264 0.295594 0.51636
H5 H 0.979246 0.305513 0.468959
C7 C 0.812343 0.392951 0.541169
H6 H 0.810506 0.469557 0.510518
C8 C 0.43125 -0.235862 0.581678
H7 H 0.351177 -0.29021 0.559773
C9 C 0.590474 -0.264242 0.568748
H8 H 0.619785 -0.33657 0.537342
C10 C 0.707938 -0.185972 0.602121
H9 H 0.817818 -0.206207 0.594358
C11 C 0.796292 0.050498 0.794907
H10 H 0.696636 0.102217 0.800257
C12 C 0.937002 0.126919 0.829838
H11 H 0.917288 0.146039 0.888682
H12 H 0.947706 0.20577 0.798507
H13 H 1.03596 0.077796 0.824654
C13 C 0.772173 -0.072466 0.842795
H14 H 0.864256 -0.128035 0.833464
H15 H 0.674336 -0.114103 0.823226
H16 H 0.762451 -0.054163 0.902422
C14 C 0.717449 0.267339 0.655574
H17 H 0.651109 0.258296 0.703294
C15 C 0.71514 0.378968 0.610494
H18 H 0.646742 0.445939 0.62722
C16 C 0.385434 -0.129232 0.62616
H19 H 0.275277 -0.110631 0.634614
loop_
_geom_bond_atom_site_label_1
_geom_bond_atom_site_label_2
_geom_bond_site_symmetry_1
_geom_bond_site_symmetry_2
P1 O2 1_555 1_555
O1 C1 1_555 1_555
C1 H1 1_555 1_555
H2 C1 1_555 1_555
H3 C1 1_555 1_555
C2 O1 1_555 1_555
C3 P1 1_555 1_555
C4 P1 1_555 1_555
C5 C4 1_555 1_555
H4 C5 1_555 1_555
C6 C5 1_555 1_555
H5 C6 1_555 1_555
C7 C6 1_555 1_555
H6 C7 1_555 1_555
C8 H7 1_555 1_555
C9 C8 1_555 1_555
H8 C9 1_555 1_555
C10 C3 1_555 1_555
H9 C10 1_555 1_555
C11 P1 1_555 1_555
H10 C11 1_555 1_555
C12 C11 1_555 1_555
H11 C12 1_555 1_555
H12 C12 1_555 1_555
H13 C12 1_555 1_555
C13 C11 1_555 1_555
H14 C13 1_555 1_555
H15 C13 1_555 1_555
H16 C13 1_555 1_555
C14 C4 1_555 1_555
H17 C14 1_555 1_555
C15 C7 1_555 1_555
H18 C15 1_555 1_555
C16 C2 1_555 1_555
H19 C16 1_555 1_555
C2 C3 1_555 1_555
C8 C16 1_555 1_555
C9 C10 1_555 1_555
C14 C15 1_555 1_555

#END
