
#######################################################################
#
#                 Cambridge Crystallographic Data Centre
#                                CCDC 
#
#######################################################################
#
# If this CIF has been generated from an entry in the Cambridge 
# Structural Database, then it will include bibliographic, chemical, 
# crystal, experimental, refinement or atomic coordinate data resulting 
# from the CCDC's data processing and validation procedures.
#
#######################################################################

data_CEXBEO
_chemical_formula_moiety         'C22 H22 N1 O4 P1 S1'
_chemical_name_systematic        
'4-Methyl-3-((4-methylphenyl)sulfonyl)-2,5-diphenyl-1,3,2-oxazaphospholidine 2-oxide'
_symmetry_cell_setting           monoclinic
_symmetry_space_group_name_H-M   'C 2'
_symmetry_Int_Tables_number      5
_space_group_name_Hall           'C 2y'
loop_
_symmetry_equiv_pos_site_id
_symmetry_equiv_pos_as_xyz
1 x,y,z
2 -x,y,-z
3 1/2+x,1/2+y,z
4 1/2-x,1/2+y,-z
_cell_length_a                   26.4998
_cell_length_b                   6.2607
_cell_length_c                   14.1234
_cell_angle_alpha                90
_cell_angle_beta                 96.5372
_cell_angle_gamma                90
_cell_volume                     2327.94
_cell_formula_units_Z            4
loop_
_atom_site_label
_atom_site_type_symbol
_atom_site_fract_x
_atom_site_fract_y
_atom_site_fract_z
S1 S 0.20075(15) 0.3248(11) 0.2777(3)
P1 P 0.12803(16) 0.5005(12) 0.1231(3)
O1 O 0.2148(4) 0.108(2) 0.3008(8)
O2 O 0.2326(3) 0.459(2) 0.2269(7)
O3 O 0.0730(4) 0.401(2) 0.0988(8)
O4 O 0.1271(4) 0.728(2) 0.1463(8)
N1 N 0.1459(4) 0.326(3) 0.2119(8)
C1 C 0.1516(7) 0.770(4) 0.6379(13)
C2 C 0.1665(6) 0.654(4) 0.5459(13)
C3 C 0.1592(7) 0.762(4) 0.4592(12)
C4 C 0.1712(6) 0.663(3) 0.3802(12)
C5 C 0.1903(6) 0.462(4) 0.3862(12)
C6 C 0.1997(6) 0.350(4) 0.4706(10)
C7 C 0.1876(6) 0.453(4) 0.5511(12)
C8 C 0.2168(5) 0.368(4) -0.1296(11)
C9 C 0.2098(6) 0.197(3) -0.0664(11)
C10 C 0.1833(6) 0.238(3) 0.0130(12)
C11 C 0.1639(6) 0.442(4) 0.0258(12)
C12 C 0.1707(6) 0.607(4) -0.0371(12)
C13 C 0.1974(6) 0.565(3) -0.1164(11)
C14 C 0.0693(6) 0.184(4) 0.1337(12)
C15 C 0.1032(6) 0.178(3) 0.2328(11)
C16 C 0.0761(6) 0.259(4) 0.3161(12)
C17 C 0.0147(5) 0.121(3) 0.1415(11)
C18 C -0.0222(6) 0.277(3) 0.1427(14)
C19 C -0.0718(7) 0.217(4) 0.1544(13)
C20 C -0.0840(7) 0.012(4) 0.1674(13)
C21 C -0.0474(8) -0.140(5) 0.168(2)
C22 C 0.0019(8) -0.083(4) 0.154(2)
H1 H 0.1467 0.9044 0.4567
H2 H 0.1660 0.7345 0.3204
H3 H 0.2135 0.2101 0.4727
H4 H 0.1943 0.3838 0.6112
H5 H 0.2352 0.3436 -0.1824
H6 H 0.2231 0.0588 -0.0766
H7 H 0.1784 0.1269 0.0570
H8 H 0.1574 0.7453 -0.0276
H9 H 0.2021 0.6766 -0.1603
H10 H -0.0137 0.4231 0.1357
H11 H -0.0974 0.3231 0.1526
H12 H -0.1178 -0.0265 0.1764
H13 H -0.0558 -0.2856 0.1776
H14 H 0.0269 -0.1914 0.1538
H15 H 0.1800 0.8463 0.6674
H16 H 0.1411 0.6671 0.6812
H17 H 0.1245 0.8663 0.6201
H18 H 0.0972 0.2414 0.3747
H19 H 0.0685 0.4067 0.3066
H20 H 0.0455 0.1813 0.3179
H21 H 0.0829 0.0891 0.0907
H22 H 0.1161 0.0388 0.2460
loop_
_geom_bond_atom_site_label_1
_geom_bond_atom_site_label_2
_geom_bond_site_symmetry_1
_geom_bond_site_symmetry_2
S1 O1 1_555 1_555
P1 O3 1_555 1_555
O2 S1 1_555 1_555
O3 C14 1_555 1_555
O4 P1 1_555 1_555
N1 S1 1_555 1_555
C1 C2 1_555 1_555
C2 C3 1_555 1_555
C3 C4 1_555 1_555
C4 C5 1_555 1_555
C5 S1 1_555 1_555
C6 C5 1_555 1_555
C7 C2 1_555 1_555
C8 C9 1_555 1_555
C9 C10 1_555 1_555
C10 C11 1_555 1_555
C11 P1 1_555 1_555
C12 C11 1_555 1_555
C13 C8 1_555 1_555
C14 C15 1_555 1_555
C15 N1 1_555 1_555
C16 C15 1_555 1_555
C17 C14 1_555 1_555
C18 C17 1_555 1_555
C19 C18 1_555 1_555
C20 C19 1_555 1_555
C21 C20 1_555 1_555
C22 C17 1_555 1_555
H1 C3 1_555 1_555
H2 C4 1_555 1_555
H3 C6 1_555 1_555
H4 C7 1_555 1_555
H5 C8 1_555 1_555
H6 C9 1_555 1_555
H7 C10 1_555 1_555
H8 C12 1_555 1_555
H9 C13 1_555 1_555
H10 C18 1_555 1_555
H11 C19 1_555 1_555
H12 C20 1_555 1_555
H13 C21 1_555 1_555
H14 C22 1_555 1_555
H15 C1 1_555 1_555
H16 C1 1_555 1_555
H17 C1 1_555 1_555
H18 C16 1_555 1_555
H19 C16 1_555 1_555
H20 C16 1_555 1_555
H21 C14 1_555 1_555
H22 C15 1_555 1_555
P1 N1 1_555 1_555
C6 C7 1_555 1_555
C12 C13 1_555 1_555
C21 C22 1_555 1_555

#END
