
#######################################################################
#
#                 Cambridge Crystallographic Data Centre
#                                CCDC 
#
#######################################################################
#
# If this CIF has been generated from an entry in the Cambridge 
# Structural Database, then it will include bibliographic, chemical, 
# crystal, experimental, refinement or atomic coordinate data resulting 
# from the CCDC's data processing and validation procedures.
#
#######################################################################

data_CEXBUE
_chemical_formula_moiety         'C13 H14 Cl1 N3 O1'
_chemical_name_systematic        
4-Chloro-N-(2-methyl-1,2,4a,5-tetrahydro[1,3]oxazolo[3,4-b]pyridazin-7-ylidene)aniline
_symmetry_cell_setting           orthorhombic
_symmetry_space_group_name_H-M   'P 21 21 21'
_symmetry_Int_Tables_number      19
_space_group_name_Hall           'P 2ac 2ab'
loop_
_symmetry_equiv_pos_site_id
_symmetry_equiv_pos_as_xyz
1 x,y,z
2 1/2+x,1/2-y,-z
3 -x,1/2+y,1/2-z
4 1/2-x,-y,1/2+z
_cell_length_a                   6.3709(8)
_cell_length_b                   12.5855(16)
_cell_length_c                   16.038(2)
_cell_angle_alpha                90
_cell_angle_beta                 90
_cell_angle_gamma                90
_cell_volume                     1285.94
_exptl_crystal_colour            colorless
_exptl_crystal_description       prism
_cell_formula_units_Z            4
loop_
_atom_site_label
_atom_site_type_symbol
_atom_site_fract_x
_atom_site_fract_y
_atom_site_fract_z
Cl1 Cl -0.10952(8) -0.33419(4) 0.85016(3)
N1 N 0.4936(2) 0.22528(11) 0.89991(8)
N2 N 0.4321(2) 0.29701(11) 0.96250(8)
H1 H 0.544(3) 0.3095(15) 0.9950(12)
N3 N 0.2588(2) 0.08746(10) 0.92973(9)
O1 O 0.49098(18) 0.08592(9) 0.81680(7)
C1 C 0.4021(3) 0.13039(12) 0.88618(9)
C2 C 0.6065(3) 0.16909(14) 0.77353(10)
H2 H 0.5188 0.2021 0.7296
H3 H 0.7354 0.1402 0.7476
C3 C 0.6609(2) 0.24980(13) 0.84131(10)
H4 H 0.8011 0.2336 0.8663
C4 C 0.6481(3) 0.36419(13) 0.81614(11)
H5 H 0.7348 0.3896 0.7723
C5 C 0.5184(3) 0.43023(13) 0.85395(11)
H6 H 0.5191 0.5026 0.8370
C6 C 0.3698(3) 0.39805(13) 0.92207(10)
H7 H 0.3730 0.4549 0.9656
C7 C 0.1459(3) 0.39054(16) 0.88965(11)
H8 H 0.1354 0.3317 0.8498
H9 H 0.1080 0.4572 0.8618
H10 H 0.0500 0.3779 0.9364
C8 C 0.1796(3) -0.01347(13) 0.90662(10)
C9 C 0.2843(3) -0.10687(14) 0.92722(11)
H11 H 0.4182 -0.1032 0.9532
C10 C 0.1957(3) -0.20554(14) 0.91037(11)
H12 H 0.2682 -0.2689 0.9247
C11 C 0.0014(3) -0.21035(14) 0.87269(10)
C12 C -0.1066(3) -0.11905(14) 0.85213(11)
H13 H -0.2406 -0.1230 0.8263
C13 C -0.0164(3) -0.02150(14) 0.86975(11)
H14 H -0.0908 0.0416 0.8562
loop_
_geom_bond_atom_site_label_1
_geom_bond_atom_site_label_2
_geom_bond_site_symmetry_1
_geom_bond_site_symmetry_2
Cl1 C11 1_555 1_555
N1 N2 1_555 1_555
N2 H1 1_555 1_555
N3 C1 1_555 1_555
O1 C1 1_555 1_555
C1 N1 1_555 1_555
C2 O1 1_555 1_555
H2 C2 1_555 1_555
H3 C2 1_555 1_555
C3 N1 1_555 1_555
H4 C3 1_555 1_555
C4 C3 1_555 1_555
H5 C4 1_555 1_555
C5 C4 1_555 1_555
H6 C5 1_555 1_555
C6 N2 1_555 1_555
H7 C6 1_555 1_555
C7 C6 1_555 1_555
H8 C7 1_555 1_555
H9 C7 1_555 1_555
H10 C7 1_555 1_555
C8 N3 1_555 1_555
C9 C8 1_555 1_555
H11 C9 1_555 1_555
C10 C9 1_555 1_555
H12 C10 1_555 1_555
C11 C10 1_555 1_555
C12 C11 1_555 1_555
H13 C12 1_555 1_555
C13 C8 1_555 1_555
H14 C13 1_555 1_555
C2 C3 1_555 1_555
C5 C6 1_555 1_555
C12 C13 1_555 1_555

#END
