
#######################################################################
#
#                 Cambridge Crystallographic Data Centre
#                                CCDC 
#
#######################################################################
#
# If this CIF has been generated from an entry in the Cambridge 
# Structural Database, then it will include bibliographic, chemical, 
# crystal, experimental, refinement or atomic coordinate data resulting 
# from the CCDC's data processing and validation procedures.
#
#######################################################################

data_CEXCAL
_chemical_formula_moiety         'C15 H20 Cl1 N3 O2'
_chemical_name_systematic        
N-(4-Chlorophenyl)-3-(2-hydroxyethyl)-5,6-dimethyl-3,6-dihydropyridazine-1(2H)-carboxamide
_symmetry_cell_setting           orthorhombic
_symmetry_space_group_name_H-M   'P 21 21 21'
_symmetry_Int_Tables_number      19
_space_group_name_Hall           'P 2ac 2ab'
loop_
_symmetry_equiv_pos_site_id
_symmetry_equiv_pos_as_xyz
1 x,y,z
2 1/2-x,-y,1/2+z
3 1/2+x,1/2-y,-z
4 -x,1/2+y,1/2-z
_cell_length_a                   5.43700(10)
_cell_length_b                   8.4944(3)
_cell_length_c                   34.8951(10)
_cell_angle_alpha                90
_cell_angle_beta                 90
_cell_angle_gamma                90
_cell_volume                     1611.6
_cell_formula_units_Z            4
loop_
_atom_site_label
_atom_site_type_symbol
_atom_site_fract_x
_atom_site_fract_y
_atom_site_fract_z
Cl1 Cl 1.39089(13) 1.11821(9) 0.438807(18)
O1 O 1.1650(2) 0.97854(16) 0.62900(4)
N1 N 0.6169(3) 0.75471(19) 0.62920(5)
N2 N 0.8228(3) 0.8396(2) 0.64282(5)
N3 N 0.9425(3) 0.8648(2) 0.58043(5)
O2 O 0.1025(3) 0.3015(2) 0.64506(6)
H1 H 0.1005 0.2058 0.6419
C1 C 0.6064(3) 0.5985(2) 0.64729(6)
H2 H 0.7241 0.5299 0.6341
C2 C 1.0601(3) 0.9261(2) 0.54774(6)
C3 C 0.9867(3) 0.9001(2) 0.61774(5)
C4 C 1.2632(4) 1.0441(3) 0.48081(6)
C5 C 1.3767(4) 1.0723(3) 0.51517(7)
H3 H 1.5210 1.1310 0.5159
C6 C 0.3490(4) 0.5319(2) 0.64090(6)
H4 H 0.2370 0.5777 0.6594
H5 H 0.2924 0.5611 0.6155
C7 C 0.8368(4) 0.8731(3) 0.68374(5)
H6 H 1.0078 0.9005 0.6896
C8 C 0.9513(4) 0.8977(3) 0.51264(6)
H7 H 0.8080 0.8381 0.5115
C9 C 0.7758(4) 0.7267(3) 0.70580(6)
C10 C 0.6760(4) 0.6049(3) 0.68884(7)
H8 H 0.6461 0.5158 0.7036
C11 C 1.0519(4) 0.9564(3) 0.47925(6)
H9 H 0.9766 0.9365 0.4558
C12 C 1.2774(4) 1.0138(3) 0.54894(6)
H10 H 1.3551 1.0329 0.5722
C13 C 0.6790(5) 1.0143(3) 0.69403(8)
H11 H 0.6881 1.0328 0.7211
H12 H 0.5115 0.9941 0.6869
H13 H 0.7378 1.1054 0.6806
C14 C 0.3440(5) 0.3547(3) 0.64473(8)
H14 H 0.4318 0.3073 0.6235
H15 H 0.4254 0.3237 0.6683
C15 C 0.8393(7) 0.7325(4) 0.74787(8)
H16 H 0.7357 0.8080 0.7605
H17 H 1.0083 0.7626 0.7509
H18 H 0.8141 0.6305 0.7590
H19 H 0.484(7) 0.814(4) 0.6356(10)
H20 H 0.800(8) 0.812(4) 0.5764(10)
loop_
_geom_bond_atom_site_label_1
_geom_bond_atom_site_label_2
_geom_bond_site_symmetry_1
_geom_bond_site_symmetry_2
Cl1 C4 1_555 1_555
O1 C3 1_555 1_555
N1 N2 1_555 1_555
N2 C3 1_555 1_555
N3 C2 1_555 1_555
O2 H1 1_555 1_555
C1 N1 1_555 1_555
H2 C1 1_555 1_555
C2 C8 1_555 1_555
C3 N3 1_555 1_555
C4 C5 1_555 1_555
C5 H3 1_555 1_555
C6 C1 1_555 1_555
H4 C6 1_555 1_555
H5 C6 1_555 1_555
C7 N2 1_555 1_555
H6 C7 1_555 1_555
C8 H7 1_555 1_555
C9 C7 1_555 1_555
C10 C1 1_555 1_555
H8 C10 1_555 1_555
C11 C4 1_555 1_555
H9 C11 1_555 1_555
C12 C2 1_555 1_555
H10 C12 1_555 1_555
C13 C7 1_555 1_555
H11 C13 1_555 1_555
H12 C13 1_555 1_555
H13 C13 1_555 1_555
C14 O2 1_555 1_555
H14 C14 1_555 1_555
H15 C14 1_555 1_555
C15 C9 1_555 1_555
H16 C15 1_555 1_555
H17 C15 1_555 1_555
H18 C15 1_555 1_555
H19 N1 1_555 1_555
H20 N3 1_555 1_555
C5 C12 1_555 1_555
C6 C14 1_555 1_555
C8 C11 1_555 1_555
C9 C10 1_555 1_555

#END
