
#######################################################################
#
#                 Cambridge Crystallographic Data Centre
#                                CCDC 
#
#######################################################################
#
# If this CIF has been generated from an entry in the Cambridge 
# Structural Database, then it will include bibliographic, chemical, 
# crystal, experimental, refinement or atomic coordinate data resulting 
# from the CCDC's data processing and validation procedures.
#
#######################################################################

data_CEXGET
_chemical_formula_moiety         'C11 H18 O2'
_chemical_name_systematic        
(4aR*,5R*,8aS*)-5-Methyl-1,2,3,4,5,8-hexahydronaphthalene-4a,8a-diol
_symmetry_cell_setting           monoclinic
_symmetry_space_group_name_H-M   'I 2/a'
_symmetry_Int_Tables_number      15
_space_group_name_Hall           '-I 2ya'
loop_
_symmetry_equiv_pos_site_id
_symmetry_equiv_pos_as_xyz
1 x,y,z
2 1/2-x,y,-z
3 1/2+x,1/2+y,1/2+z
4 -x,1/2+y,1/2-z
5 -x,-y,-z
6 1/2+x,-y,z
7 1/2-x,1/2-y,1/2-z
8 x,1/2-y,1/2+z
_cell_length_a                   10.402(5)
_cell_length_b                   9.940(5)
_cell_length_c                   20.008(5)
_cell_angle_alpha                90
_cell_angle_beta                 102.350(5)
_cell_angle_gamma                90
_cell_volume                     2020.87
_chemical_melting_point          '111-113 deg.C'
_cell_formula_units_Z            8
loop_
_atom_site_label
_atom_site_type_symbol
_atom_site_fract_x
_atom_site_fract_y
_atom_site_fract_z
C1 C 0.4834(4) 0.1756(4) 0.0932(3)
C2 C 0.4353(4) 0.2556(4) 0.1503(3)
H1 H 0.4959 0.3341 0.1623
C3 C 0.4454(4) 0.1744(4) 0.2141(3)
H2 H 0.3972 0.2047 0.2466
C4 C 0.5157(5) 0.0645(5) 0.2287(4)
H3 H 0.5209 0.0234 0.2720
C5 C 0.5890(4) 0.0006(4) 0.1788(3)
H4 H 0.5382 -0.0776 0.1566
H5 H 0.6753 -0.0327 0.2043
C6 C 0.6107(4) 0.0986(4) 0.1241(3)
C7 C 0.7245(4) 0.1943(4) 0.1503(3)
H6 H 0.8053 0.1413 0.1677
H7 H 0.7051 0.2470 0.1890
C8 C 0.7493(4) 0.2914(5) 0.0946(3)
H8 H 0.8170 0.3579 0.1154
H9 H 0.7835 0.2402 0.0597
C9 C 0.6241(4) 0.3650(5) 0.0604(3)
H10 H 0.6412 0.4164 0.0208
H11 H 0.6005 0.4303 0.0932
C10 C 0.5073(4) 0.2700(4) 0.0357(3)
H12 H 0.5243 0.2151 -0.0028
H13 H 0.4270 0.3239 0.0186
C11 C 0.2958(4) 0.3131(5) 0.1253(3)
H14 H 0.2335 0.2391 0.1117
H15 H 0.2946 0.3724 0.0860
H16 H 0.2707 0.3644 0.1623
O1 O 0.3827(2) 0.0802(3) 0.0657(2)
H17 H 0.3185 0.1205 0.0413
O2 O 0.6386(3) 0.0206(3) 0.0672(2)
H18 H 0.7178 -0.0037 0.0763
loop_
_geom_bond_atom_site_label_1
_geom_bond_atom_site_label_2
_geom_bond_site_symmetry_1
_geom_bond_site_symmetry_2
C1 C2 1_555 1_555
C2 H1 1_555 1_555
C3 C2 1_555 1_555
H2 C3 1_555 1_555
C4 C3 1_555 1_555
H3 C4 1_555 1_555
C5 C4 1_555 1_555
H4 C5 1_555 1_555
H5 C5 1_555 1_555
C6 C1 1_555 1_555
C7 C6 1_555 1_555
H6 C7 1_555 1_555
H7 C7 1_555 1_555
C8 C7 1_555 1_555
H8 C8 1_555 1_555
H9 C8 1_555 1_555
C9 C8 1_555 1_555
H10 C9 1_555 1_555
H11 C9 1_555 1_555
C10 C1 1_555 1_555
H12 C10 1_555 1_555
H13 C10 1_555 1_555
C11 C2 1_555 1_555
H14 C11 1_555 1_555
H15 C11 1_555 1_555
H16 C11 1_555 1_555
O1 C1 1_555 1_555
H17 O1 1_555 1_555
O2 C6 1_555 1_555
H18 O2 1_555 1_555
C5 C6 1_555 1_555
C9 C10 1_555 1_555

#END
