
#######################################################################
#
#                 Cambridge Crystallographic Data Centre
#                                CCDC 
#
#######################################################################
#
# If this CIF has been generated from an entry in the Cambridge 
# Structural Database, then it will include bibliographic, chemical, 
# crystal, experimental, refinement or atomic coordinate data resulting 
# from the CCDC's data processing and validation procedures.
#
#######################################################################

data_CEXJUM
_chemical_formula_moiety         'C22 H18 I1 N1 O1'
_chemical_name_systematic        
6-Iodo-2-methyl-trans-3,4-diphenyl-3,4-dihydroisoquinolin-1(2H)-one
_symmetry_cell_setting           monoclinic
_symmetry_space_group_name_H-M   'P 2/c'
_symmetry_Int_Tables_number      13
_space_group_name_Hall           '-P 2yc'
loop_
_symmetry_equiv_pos_site_id
_symmetry_equiv_pos_as_xyz
1 x,y,z
2 -x,y,1/2-z
3 -x,-y,-z
4 x,-y,1/2+z
_cell_length_a                   16.564(3)
_cell_length_b                   7.2675(15)
_cell_length_c                   16.904(3)
_cell_angle_alpha                90
_cell_angle_beta                 114.72(3)
_cell_angle_gamma                90
_cell_volume                     1848.41
_exptl_crystal_colour            colorless
_exptl_crystal_description       block
_chemical_melting_point          '192-193 deg.C'
_cell_formula_units_Z            4
loop_
_atom_site_label
_atom_site_type_symbol
_atom_site_fract_x
_atom_site_fract_y
_atom_site_fract_z
I1 I 0.43588(2) 0.38485(6) 0.10799(3)
O1 O 0.7486(2) -0.3003(4) 0.1331(2)
N1 N 0.8242(2) -0.0479(5) 0.1243(2)
C1 C 0.5414(3) 0.2130(7) 0.1178(3)
C2 C 0.5295(3) 0.0237(7) 0.1110(3)
H1 H 0.4746 -0.0288 0.1045
C3 C 0.5985(3) -0.0879(6) 0.1140(3)
H2 H 0.5907 -0.2176 0.1090
C4 C 0.6791(3) -0.0109(6) 0.1242(3)
C5 C 0.6913(3) 0.1780(6) 0.1342(3)
C6 C 0.6214(3) 0.2906(7) 0.1299(4)
H3 H 0.6291 0.4202 0.1354
C7 C 0.7523(3) -0.1326(6) 0.1273(3)
C8 C 0.8967(4) -0.1591(7) 0.1233(4)
H4 H 0.9018 -0.2722 0.1567
H5 H 0.9523 -0.0895 0.1495
H6 H 0.8847 -0.1906 0.0630
C9 C 0.8250(4) 0.1506(7) 0.1068(4)
H7 H 0.8884 0.1908 0.1291
C10 C 0.7819(3) 0.2584(7) 0.1542(4)
H8 H 0.7739 0.3881 0.1326
C11 C 0.7784(4) 0.1974(8) 0.0067(3)
C12 C 0.7231(4) 0.0795(9) -0.0559(3)
H9 H 0.7080 -0.0355 -0.0390
C13 C 0.6887(4) 0.1257(8) -0.1436(3)
H10 H 0.6518 0.0408 -0.1860
C14 C 0.7077(4) 0.2929(8) -0.1696(3)
H11 H 0.6851 0.3217 -0.2299
C15 C 0.7592(3) 0.4189(8) -0.1089(3)
H12 H 0.7717 0.5353 -0.1267
C16 C 0.7926(4) 0.3741(8) -0.0213(3)
H13 H 0.8256 0.4633 0.0209
C17 C 0.8460(4) 0.2588(7) 0.2527(3)
C18 C 0.9054(4) 0.4015(8) 0.2846(3)
H14 H 0.9070 0.4954 0.2462
C19 C 0.9620(3) 0.4099(7) 0.3710(3)
H15 H 1.0006 0.5125 0.3925
C20 C 0.9638(3) 0.2703(7) 0.4272(3)
H16 H 1.0026 0.2786 0.4873
C21 C 0.9096(3) 0.1200(7) 0.3965(3)
H17 H 0.9118 0.0222 0.4346
C22 C 0.8517(4) 0.1126(8) 0.3094(3)
H18 H 0.8152 0.0073 0.2875
loop_
_geom_bond_atom_site_label_1
_geom_bond_atom_site_label_2
_geom_bond_site_symmetry_1
_geom_bond_site_symmetry_2
I1 C1 1_555 1_555
O1 C7 1_555 1_555
N1 C7 1_555 1_555
C1 C2 1_555 1_555
C2 H1 1_555 1_555
C3 C2 1_555 1_555
H2 C3 1_555 1_555
C4 C3 1_555 1_555
C5 C4 1_555 1_555
C6 C1 1_555 1_555
H3 C6 1_555 1_555
C7 C4 1_555 1_555
C8 N1 1_555 1_555
H4 C8 1_555 1_555
H5 C8 1_555 1_555
H6 C8 1_555 1_555
C9 N1 1_555 1_555
H7 C9 1_555 1_555
C10 C5 1_555 1_555
H8 C10 1_555 1_555
C11 C9 1_555 1_555
C12 C11 1_555 1_555
H9 C12 1_555 1_555
C13 C12 1_555 1_555
H10 C13 1_555 1_555
C14 C13 1_555 1_555
H11 C14 1_555 1_555
C15 C14 1_555 1_555
H12 C15 1_555 1_555
C16 C11 1_555 1_555
H13 C16 1_555 1_555
C17 C10 1_555 1_555
C18 C17 1_555 1_555
H14 C18 1_555 1_555
C19 C18 1_555 1_555
H15 C19 1_555 1_555
C20 C19 1_555 1_555
H16 C20 1_555 1_555
C21 C20 1_555 1_555
H17 C21 1_555 1_555
C22 C17 1_555 1_555
H18 C22 1_555 1_555
C5 C6 1_555 1_555
C9 C10 1_555 1_555
C15 C16 1_555 1_555
C21 C22 1_555 1_555

#END
