
#######################################################################
#
#                 Cambridge Crystallographic Data Centre
#                                CCDC 
#
#######################################################################
#
# If this CIF has been generated from an entry in the Cambridge 
# Structural Database, then it will include bibliographic, chemical, 
# crystal, experimental, refinement or atomic coordinate data resulting 
# from the CCDC's data processing and validation procedures.
#
#######################################################################

data_CEXLEW
_chemical_formula_moiety         'C15 H22 O2'
_chemical_name_systematic        'Deoxyisodihydroarteannuin B'
_symmetry_cell_setting           monoclinic
_symmetry_space_group_name_H-M   'P 21'
_symmetry_Int_Tables_number      4
_space_group_name_Hall           'P 2yb'
loop_
_symmetry_equiv_pos_site_id
_symmetry_equiv_pos_as_xyz
1 x,y,z
2 -x,1/2+y,-z
_cell_length_a                   16.262
_cell_length_b                   8.304
_cell_length_c                   10.679
_cell_angle_alpha                90
_cell_angle_beta                 108.08
_cell_angle_gamma                90
_cell_volume                     1370.88
_cell_formula_units_Z            4
loop_
_atom_site_label
_atom_site_type_symbol
_atom_site_fract_x
_atom_site_fract_y
_atom_site_fract_z
C1 C 0.57760 0.44920 0.80300
C2 C 0.52380 0.40970 0.89240
C3 C 0.57480 0.42860 1.03730
C4 C 0.62790 0.58310 1.06470
C5 C 0.63710 0.67240 0.96690
C6 C 0.60500 0.62740 0.82490
C7 C 0.66800 0.67940 0.74830
C8 C 0.74270 0.56300 0.76150
C9 C 0.71060 0.39030 0.73640
C10 C 0.65990 0.34020 0.82390
C11 C 0.60630 0.71060 0.61030
C12 C 0.52710 0.77420 0.63860
C13 C 0.64020 0.82740 0.52420
C14 C 0.62920 0.15870 0.80580
C15 C 0.66690 0.62610 1.20810
O1 O 0.52660 0.72580 0.76010
O2 O 0.46840 0.85580 0.56860
C16 C 0.10320 0.58580 0.8180
C17 C 0.19980 0.55350 0.86990
C18 C 0.24010 0.56480 0.75690
C19 C 0.21100 0.71650 0.67110
C20 C 0.14310 0.80160 0.67730
C21 C 0.08790 0.76250 0.76300
C22 C -0.00800 0.80610 0.69730
C23 C -0.05950 0.67360 0.60180
C24 C -0.04550 0.50600 0.66630
C25 C 0.04980 0.46330 0.70870
C26 C -0.03800 0.84590 0.81520
C27 C 0.04270 0.91540 0.91150
C28 C -0.11540 0.96600 0.78710
C29 C 0.06400 0.29160 0.76810
C30 C 0.26490 0.75660 0.57360
O3 O 0.11310 0.86990 0.88040
O4 O 0.04950 1.00040 1.00530
loop_
_geom_bond_atom_site_label_1
_geom_bond_atom_site_label_2
_geom_bond_site_symmetry_1
_geom_bond_site_symmetry_2
C1 C2 1_555 1_555
C2 C3 1_555 1_555
C3 C4 1_555 1_555
C4 C5 1_555 1_555
C5 C6 1_555 1_555
C6 C1 1_555 1_555
C7 C6 1_555 1_555
C8 C7 1_555 1_555
C9 C8 1_555 1_555
C10 C1 1_555 1_555
C11 C7 1_555 1_555
C12 C11 1_555 1_555
C13 C11 1_555 1_555
C14 C10 1_555 1_555
C15 C4 1_555 1_555
O1 C6 1_555 1_555
O2 C12 1_555 1_555
C16 C17 1_555 1_555
C17 C18 1_555 1_555
C18 C19 1_555 1_555
C19 C20 1_555 1_555
C20 C21 1_555 1_555
C21 C16 1_555 1_555
C22 C21 1_555 1_555
C23 C22 1_555 1_555
C24 C23 1_555 1_555
C25 C16 1_555 1_555
C26 C22 1_555 1_555
C27 C26 1_555 1_555
C28 C26 1_555 1_555
C29 C25 1_555 1_555
C30 C19 1_555 1_555
O3 C21 1_555 1_555
O4 C27 1_555 1_555
C9 C10 1_555 1_555
C12 O1 1_555 1_555
C24 C25 1_555 1_555
C27 O3 1_555 1_555

#END
