
#######################################################################
#
#                 Cambridge Crystallographic Data Centre
#                                CCDC 
#
#######################################################################
#
# If this CIF has been generated from an entry in the Cambridge 
# Structural Database, then it will include bibliographic, chemical, 
# crystal, experimental, refinement or atomic coordinate data resulting 
# from the CCDC's data processing and validation procedures.
#
#######################################################################

data_CEXMAU01
_chemical_name_common            Voriconazole
_chemical_formula_moiety         'C16 H14 F3 N5 O1'
_chemical_name_systematic        
(2R,3S)-2-(2,4-difluorophenyl)-3-(5-fluoropyrimidin-4-yl)-1-(1H-1,2,4-triazol-1-yl)butan-2-ol
_chemical_properties_biological  
'Antifungal drug with potent in vitro activity against the primary opportunistic pathogens: Aspergillus spp., Candida spp. and Cryptococcus species'
_symmetry_cell_setting           monoclinic
_symmetry_space_group_name_H-M   'P 21'
_symmetry_Int_Tables_number      4
_space_group_name_Hall           'P 2yb'
loop_
_symmetry_equiv_pos_site_id
_symmetry_equiv_pos_as_xyz
1 x,y,z
2 -x,1/2+y,-z
_cell_length_a                   7.523(2)
_cell_length_b                   8.306(3)
_cell_length_c                   13.000(4)
_cell_angle_alpha                90
_cell_angle_beta                 99.998(18)
_cell_angle_gamma                90
_cell_volume                     799.982
_exptl_crystal_colour            colorless
_exptl_crystal_description       platelet
_cell_formula_units_Z            2
loop_
_atom_site_label
_atom_site_type_symbol
_atom_site_fract_x
_atom_site_fract_y
_atom_site_fract_z
O1 O 0.12303(15) 0.87732(16) 0.36195(7)
H1 H 0.0967 0.7822 0.3781
F1 F -0.0498(2) 0.42694(19) 0.09746(10)
F2 F 0.35318(17) 0.81982(14) 0.08828(7)
F3 F 0.4613(2) 1.37080(18) 0.09846(10)
N1 N 0.49830(16) 0.79145(17) 0.38345(9)
N2 N 0.62517(17) 0.8785(2) 0.34614(10)
N3 N 0.6614(2) 0.8988(2) 0.52106(11)
N4 N -0.0590(2) 0.6006(2) 0.34631(11)
N5 N -0.1867(2) 0.3408(3) 0.34208(17)
C1 C 0.7180(2) 0.9391(3) 0.43129(14)
H2 H 0.8170 1.0058 0.4304
C2 C 0.5221(2) 0.8068(2) 0.48671(11)
H3 H 0.4495 0.7587 0.5290
C3 C 0.3551(2) 0.7095(2) 0.31305(11)
H4 H 0.3134 0.6183 0.3490
H5 H 0.4030 0.6687 0.2535
C4 C 0.19437(18) 0.8211(2) 0.27413(9)
C5 C 0.0491(2) 0.7278(2) 0.19740(10)
H6 H 0.1070 0.6856 0.1410
C6 C -0.1072(2) 0.8368(3) 0.14782(13)
H7 H -0.1934 0.7746 0.1010
H8 H -0.0613 0.9219 0.1098
H9 H -0.1645 0.8821 0.2016
C7 C -0.0285(2) 0.5870(2) 0.24806(12)
C8 C -0.1364(3) 0.4785(3) 0.38748(16)
H10 H -0.1571 0.4919 0.4554
C9 C -0.1554(3) 0.3259(3) 0.2455(2)
H11 H -0.1868 0.2303 0.2097
C10 C -0.0783(2) 0.4463(3) 0.19625(14)
C11 C 0.26025(18) 0.96996(19) 0.22365(10)
C12 C 0.3391(2) 0.9635(2) 0.13493(11)
C13 C 0.4058(3) 1.0941(3) 0.09062(13)
H12 H 0.4551 1.0854 0.0300
C14 C 0.3962(2) 1.2370(3) 0.13954(13)
C15 C 0.3242(3) 1.2533(2) 0.22843(14)
H13 H 0.3214 1.3531 0.2605
C16 C 0.2560(2) 1.1191(2) 0.26938(11)
H14 H 0.2056 1.1292 0.3295
loop_
_geom_bond_atom_site_label_1
_geom_bond_atom_site_label_2
_geom_bond_site_symmetry_1
_geom_bond_site_symmetry_2
O1 H1 1_555 1_555
F1 C10 1_555 1_555
F2 C12 1_555 1_555
F3 C14 1_555 1_555
N1 N2 1_555 1_555
N2 C1 1_555 1_555
N3 C1 1_555 1_555
N4 C7 1_555 1_555
N5 C8 1_555 1_555
C1 H2 1_555 1_555
C2 N1 1_555 1_555
H3 C2 1_555 1_555
C3 N1 1_555 1_555
H4 C3 1_555 1_555
H5 C3 1_555 1_555
C4 O1 1_555 1_555
C5 C4 1_555 1_555
H6 C5 1_555 1_555
C6 C5 1_555 1_555
H7 C6 1_555 1_555
H8 C6 1_555 1_555
H9 C6 1_555 1_555
C7 C5 1_555 1_555
C8 N4 1_555 1_555
H10 C8 1_555 1_555
C9 N5 1_555 1_555
H11 C9 1_555 1_555
C10 C7 1_555 1_555
C11 C4 1_555 1_555
C12 C11 1_555 1_555
C13 C12 1_555 1_555
H12 C13 1_555 1_555
C14 C13 1_555 1_555
C15 C14 1_555 1_555
H13 C15 1_555 1_555
C16 C11 1_555 1_555
H14 C16 1_555 1_555
N3 C2 1_555 1_555
C3 C4 1_555 1_555
C9 C10 1_555 1_555
C15 C16 1_555 1_555

#END
