
#######################################################################
#
#                 Cambridge Crystallographic Data Centre
#                                CCDC 
#
#######################################################################
#
# If this CIF has been generated from an entry in the Cambridge 
# Structural Database, then it will include bibliographic, chemical, 
# crystal, experimental, refinement or atomic coordinate data resulting 
# from the CCDC's data processing and validation procedures.
#
#######################################################################

data_CEXPOK
_chemical_formula_moiety         'C9 H10 F1 N1 O1'
_chemical_name_systematic        N-Phenyl-2-fluoropropionamide
_symmetry_cell_setting           triclinic
_symmetry_space_group_name_H-M   'P 1'
_symmetry_Int_Tables_number      1
_space_group_name_Hall           'P 1'
loop_
_symmetry_equiv_pos_site_id
_symmetry_equiv_pos_as_xyz
1 x,y,z
_cell_length_a                   5.367(1)
_cell_length_b                   8.821(4)
_cell_length_c                   9.893(3)
_cell_angle_alpha                106.65(2)
_cell_angle_beta                 101.84(2)
_cell_angle_gamma                105.13(2)
_cell_volume                     412.843
_exptl_crystal_colour            colorless
_cell_formula_units_Z            2
loop_
_atom_site_label
_atom_site_type_symbol
_atom_site_fract_x
_atom_site_fract_y
_atom_site_fract_z
F1 F 0.5391(4) 0.6587(3) 0.7242(2)
N1 N 0.2309(5) 0.4023(3) 0.4863(3)
H1 H 0.3982(87) 0.4317(48) 0.5293(42)
O1 O -0.1529(5) 0.4391(3) 0.5333(3)
C1 C 0.1118(6) 0.2612(3) 0.3513(3)
C2 C -0.1265(7) 0.2391(4) 0.2488(3)
H2 H -0.2160(7) 0.3193(4) 0.2656(3)
C3 C -0.2323(7) 0.0982(4) 0.1193(3)
H3 H -0.3954(7) 0.0824(4) 0.0487(3)
C4 C -0.1046(7) -0.0203(4) 0.0912(4)
H4 H -0.1807(7) -0.1170(4) 0.0028(4)
C5 C 0.1351(7) 0.0040(4) 0.1942(4)
H5 H 0.2258(7) -0.0755(4) 0.1765(4)
C6 C 0.2443(6) 0.1453(4) 0.3232(4)
H6 H 0.4103(6) 0.1638(4) 0.3928(4)
C7 C 0.0928(6) 0.4738(4) 0.5691(3)
C8 C 0.2658(8) 0.5968(5) 0.7264(4)
H7 H 0.2595(8) 0.5349(5) 0.7966(4)
C9 C 0.1829(9) 0.7454(6) 0.7781(5)
H8 H -0.0054(9) 0.7069(6) 0.7786(5)
H9 H 0.1989(9) 0.8121(6) 0.7144(5)
H10 H 0.3004(9) 0.8148(6) 0.8791(5)
F2 F 0.9911(4) 0.7956(3) 0.4431(2)
N2 N 0.6869(6) 0.5729(3) 0.1864(3)
H11 H 0.8445(90) 0.6052(50) 0.2148(43)
O2 O 0.3041(5) 0.6178(3) 0.2268(3)
C10 C 0.5717(6) 0.4475(4) 0.0426(3)
C11 C 0.3156(6) 0.3259(4) 0.0011(4)
H12 H 0.2125(6) 0.3284(4) 0.0686(4)
C12 C 0.2154(7) 0.2015(4) -0.1382(4)
H13 H 0.0407(7) 0.1197(4) -0.1664(4)
C13 C 0.3662(7) 0.1959(5) -0.2373(4)
H14 H 0.2951(7) 0.1100(5) -0.3327(4)
C14 C 0.6194(7) 0.3155(5) -0.1955(4)
H15 H 0.7229(7) 0.3132(5) -0.2628(4)
C15 C 0.7236(6) 0.4408(4) -0.0551(3)
H16 H 0.9003(6) 0.5210(4) -0.0256(3)
C16 C 0.5475(6) 0.6458(4) 0.2681(3)
C17 C 0.7116(7) 0.7654(4) 0.4254(3)
H17 H 0.6576(7) 0.7120(4) 0.4963(3)
C18 C 0.6647(8) 0.9301(4) 0.4606(4)
H18 H 0.7648(8) 1.0005(4) 0.5642(4)
H19 H 0.4712(8) 0.9121(4) 0.4442(4)
H20 H 0.7299(8) 0.9865(4) 0.3960(4)
C19? C 0.2519(39) 0.6656(24) 0.6813(21)
H21? H 0.2246(39) 0.7590(24) 0.6486(21)
C20? C 0.1997(38) 0.6580(22) 0.8203(19)
H22? H 0.2880(38) 0.7695(22) 0.8984(19)
H23? H 0.2723(38) 0.5771(22) 0.8493(19)
H24? H 0.0041(38) 0.6223(22) 0.8055(19)
loop_
_geom_bond_atom_site_label_1
_geom_bond_atom_site_label_2
_geom_bond_site_symmetry_1
_geom_bond_site_symmetry_2
F1 C8 1_555 1_555
N1 H1 1_555 1_555
O1 C7 1_555 1_555
C1 N1 1_555 1_555
C2 C1 1_555 1_555
H2 C2 1_555 1_555
C3 C2 1_555 1_555
H3 C3 1_555 1_555
C4 C3 1_555 1_555
H4 C4 1_555 1_555
C5 C4 1_555 1_555
H5 C5 1_555 1_555
C6 C1 1_555 1_555
H6 C6 1_555 1_555
C7 N1 1_555 1_555
C8 C7 1_555 1_555
H7 C8 1_555 1_555
C9 C8 1_555 1_555
H8 C9 1_555 1_555
H9 C9 1_555 1_555
H10 C9 1_555 1_555
F2 C17 1_555 1_555
N2 H11 1_555 1_555
O2 C16 1_555 1_555
C10 N2 1_555 1_555
C11 C10 1_555 1_555
H12 C11 1_555 1_555
C12 C11 1_555 1_555
H13 C12 1_555 1_555
C13 C12 1_555 1_555
H14 C13 1_555 1_555
C14 C13 1_555 1_555
H15 C14 1_555 1_555
C15 C10 1_555 1_555
H16 C15 1_555 1_555
C16 N2 1_555 1_555
C17 C16 1_555 1_555
H17 C17 1_555 1_555
C18 C17 1_555 1_555
H18 C18 1_555 1_555
H19 C18 1_555 1_555
H20 C18 1_555 1_555
C5 C6 1_555 1_555
C14 C15 1_555 1_555

#END
