
#######################################################################
#
#                 Cambridge Crystallographic Data Centre
#                                CCDC 
#
#######################################################################
#
# If this CIF has been generated from an entry in the Cambridge 
# Structural Database, then it will include bibliographic, chemical, 
# crystal, experimental, refinement or atomic coordinate data resulting 
# from the CCDC's data processing and validation procedures.
#
#######################################################################

data_CEXRAZ
_chemical_compound_source        'aerial parts of Xathium sibiricum'
_chemical_name_common            
4S,5R,7R,8R,11R,2-oxo-1(10)-eremophilen-12,8-olide
_chemical_formula_moiety         'C15 H20 O3'
_chemical_name_systematic        'Sibiriolide A'
_chemical_properties_biological  
'plant used in traditional Chinese medicine for the treatment of cancer, fever, sinusitis, headache and skin pruritus'
_symmetry_cell_setting           orthorhombic
_symmetry_space_group_name_H-M   'P 21 21 21'
_symmetry_Int_Tables_number      19
_space_group_name_Hall           'P 2ac 2ab'
loop_
_symmetry_equiv_pos_site_id
_symmetry_equiv_pos_as_xyz
1 x,y,z
2 1/2-x,-y,1/2+z
3 -x,1/2+y,1/2-z
4 1/2+x,1/2-y,-z
_cell_length_a                   8.3691(5)
_cell_length_b                   12.4961(8)
_cell_length_c                   12.9774(9)
_cell_angle_alpha                90
_cell_angle_beta                 90
_cell_angle_gamma                90
_cell_volume                     1357.19
_exptl_crystal_colour            colorless
_exptl_crystal_description       Block
_chemical_melting_point          '198-200 deg.C'
_cell_formula_units_Z            4
loop_
_atom_site_label
_atom_site_type_symbol
_atom_site_fract_x
_atom_site_fract_y
_atom_site_fract_z
O1 O -0.0523(3) 0.11326(16) 0.08529(18)
O2 O 0.4805(4) 0.7119(2) 0.2715(3)
O3 O 0.4157(3) 0.54022(19) 0.26897(19)
C1 C 0.0814(3) 0.2519(2) 0.17037(18)
H1 H 0.1485 0.2040 0.2041
C2 C -0.0336(3) 0.2097(2) 0.09658(19)
C3 C -0.1270(4) 0.2896(2) 0.0351(2)
H2 H -0.2339 0.2943 0.0636
H3 H -0.1366 0.2634 -0.0350
C4 C -0.0549(3) 0.4018(2) 0.0321(2)
H4 H 0.0445 0.3975 -0.0076
C5 C -0.0104(3) 0.43987(19) 0.14227(19)
C6 C 0.0833(3) 0.5461(2) 0.1393(2)
H5 H 0.0368 0.5923 0.0873
H6 H 0.0725 0.5816 0.2054
C7 C 0.2583(4) 0.5309(3) 0.1161(2)
H7 H 0.2720 0.4967 0.0487
C8 C 0.3381(3) 0.4644(2) 0.1998(2)
H8 H 0.4185 0.4174 0.1688
C9 C 0.2215(3) 0.3984(2) 0.2621(2)
H9 H 0.2772 0.3396 0.2953
H10 H 0.1732 0.4424 0.3153
C10 C 0.0951(3) 0.35580(19) 0.19183(18)
C11 C 0.3535(6) 0.6361(4) 0.1207(3)
C12 C 0.4241(4) 0.6366(3) 0.2272(3)
C13 C 0.4540(11) 0.6760(7) 0.0409(6)
C15 C -0.1582(3) 0.4557(3) 0.2107(3)
H11 H -0.1253 0.4792 0.2778
H12 H -0.2149 0.3892 0.2167
H13 H -0.2268 0.5086 0.1804
C16 C -0.1670(5) 0.4761(3) -0.0259(3)
H14 H -0.1882 0.4472 -0.0930
H15 H -0.1181 0.5453 -0.0328
H16 H -0.2654 0.4830 0.0115
C14? C 0.3224(13) 0.7198(9) 0.0711(9)
loop_
_geom_bond_atom_site_label_1
_geom_bond_atom_site_label_2
_geom_bond_site_symmetry_1
_geom_bond_site_symmetry_2
O1 C2 1_555 1_555
O2 C12 1_555 1_555
O3 C8 1_555 1_555
C1 H1 1_555 1_555
C2 C1 1_555 1_555
C3 C2 1_555 1_555
H2 C3 1_555 1_555
H3 C3 1_555 1_555
C4 C3 1_555 1_555
H4 C4 1_555 1_555
C5 C4 1_555 1_555
C6 C5 1_555 1_555
H5 C6 1_555 1_555
H6 C6 1_555 1_555
C7 C6 1_555 1_555
H7 C7 1_555 1_555
C8 C7 1_555 1_555
H8 C8 1_555 1_555
C9 C8 1_555 1_555
H9 C9 1_555 1_555
H10 C9 1_555 1_555
C10 C1 1_555 1_555
C11 C7 1_555 1_555
C12 O3 1_555 1_555
C13 C11 1_555 1_555
C15 C5 1_555 1_555
H11 C15 1_555 1_555
H12 C15 1_555 1_555
H13 C15 1_555 1_555
C16 C4 1_555 1_555
H14 C16 1_555 1_555
H15 C16 1_555 1_555
H16 C16 1_555 1_555
C5 C10 1_555 1_555
C9 C10 1_555 1_555
C11 C12 1_555 1_555

#END
