
#######################################################################
#
#                 Cambridge Crystallographic Data Centre
#                                CCDC 
#
#######################################################################
#
# If this CIF has been generated from an entry in the Cambridge 
# Structural Database, then it will include bibliographic, chemical, 
# crystal, experimental, refinement or atomic coordinate data resulting 
# from the CCDC's data processing and validation procedures.
#
#######################################################################

data_CEXROM
_chemical_name_common            sym-Methoxy-dibenzo-14-crown-4
_chemical_formula_moiety         'C19 H22 O5'
_chemical_name_systematic        
6-Methoxy-2,3:9,10-dibenzo-1,4,8,11-tetraoxacyclotetradeca-2,9-diene
_symmetry_cell_setting           monoclinic
_symmetry_space_group_name_H-M   'P 21/c'
_symmetry_Int_Tables_number      14
_space_group_name_Hall           '-P 2ybc'
loop_
_symmetry_equiv_pos_site_id
_symmetry_equiv_pos_as_xyz
1 x,y,z
2 -x,1/2+y,1/2-z
3 -x,-y,-z
4 x,1/2-y,1/2+z
_cell_length_a                   17.160(3)
_cell_length_b                   4.8770(10)
_cell_length_c                   21.453(4)
_cell_angle_alpha                90
_cell_angle_beta                 112.640(10)
_cell_angle_gamma                90
_cell_volume                     1657.04
_exptl_crystal_colour            colorless
_exptl_crystal_description       needle
_chemical_melting_point          124-125deg.C
_cell_formula_units_Z            4
_exptl_crystal_recrystallization_method acetonitrile
loop_
_atom_site_label
_atom_site_type_symbol
_atom_site_fract_x
_atom_site_fract_y
_atom_site_fract_z
O1 O 0.1277(2) 0.2054(8) -0.0605(2)
C1 C 0.1122(3) 0.0327(13) -0.0129(3)
H1 H 0.0991(3) 0.1450(13) 0.0185(3)
H2 H 0.0656(3) -0.0874(13) -0.0358(3)
C2 C 0.1909(4) -0.1315(12) 0.0251(3)
H3 H 0.1764(4) -0.2686(12) 0.0509(3)
H4 H 0.2080(4) -0.2190(12) -0.0077(3)
C3 C 0.2655(3) 0.0283(13) 0.0730(3)
H5 H 0.3085(3) -0.0960(13) 0.1002(3)
H6 H 0.2474(3) 0.1405(13) 0.1017(3)
O2 O 0.2978(2) 0.1986(9) 0.0344(2)
C4 C 0.3644(4) 0.3656(13) 0.0692(3)
C5 C 0.4079(4) 0.3653(13) 0.1390(3)
H7 H 0.3914(4) 0.2415(13) 0.1665(3)
C6 C 0.4746(4) 0.5470(15) 0.1688(3)
H8 H 0.5039(4) 0.5481(15) 0.2169(3)
C7 C 0.4993(4) 0.7214(15) 0.1300(3)
H9 H 0.5464(4) 0.8419(15) 0.1510(3)
C8 C 0.4558(4) 0.7249(14) 0.0604(3)
H10 H 0.4729(4) 0.8499(14) 0.0335(3)
C9 C 0.3887(3) 0.5481(13) 0.0295(3)
O3 O 0.3416(2) 0.5349(9) -0.0384(2)
C10 C 0.3543(4) 0.7407(14) -0.0807(3)
H11 H 0.3427(4) 0.9183(14) -0.0670(3)
H12 H 0.4112(4) 0.7363(14) -0.0786(3)
C11 C 0.2916(4) 0.6787(16) -0.1522(3)
H13 H 0.2925(4) 0.4864(16) -0.1614(3)
O4 O 0.3163(3) 0.8533(11) -0.1948(2)
C12 C 0.3003(5) 0.7228(23) -0.2587(3)
H14 H 0.3212(36) 0.844(11) -0.2841(31)
H15 H 0.2409(8) 0.695(14) -0.2828(30)
H16 H 0.3292(36) 0.5500(66) -0.2525(38)
C13 C 0.2001(4) 0.7544(14) -0.1633(3)
H17 H 0.1666(4) 0.7753(14) -0.2106(3)
H18 H 0.1993(4) 0.9223(14) -0.1402(3)
O5 O 0.1682(2) 0.5351(9) -0.1360(2)
C14 C 0.0865(4) 0.5567(13) -0.1407(3)
C15 C 0.0274(4) 0.7365(13) -0.1817(3)
H19 H 0.0425(4) 0.8623(13) -0.2096(3)
C16 C -0.0550(4) 0.7383(15) -0.1835(3)
H20 H -0.0965(4) 0.8606(15) -0.2133(3)
C17 C -0.0765(4) 0.5610(15) -0.1428(3)
H21 H -0.1325(4) 0.5656(15) -0.1431(3)
C18 C -0.0173(4) 0.3782(14) -0.1008(3)
H22 H -0.0332(4) 0.2526(14) -0.0733(3)
C19 C 0.0640(4) 0.3755(13) -0.0994(3)
loop_
_geom_bond_atom_site_label_1
_geom_bond_atom_site_label_2
_geom_bond_site_symmetry_1
_geom_bond_site_symmetry_2
O1 C1 1_555 1_555
C1 H1 1_555 1_555
H2 C1 1_555 1_555
C2 C1 1_555 1_555
H3 C2 1_555 1_555
H4 C2 1_555 1_555
C3 C2 1_555 1_555
H5 C3 1_555 1_555
H6 C3 1_555 1_555
O2 C3 1_555 1_555
C4 O2 1_555 1_555
C5 C4 1_555 1_555
H7 C5 1_555 1_555
C6 C5 1_555 1_555
H8 C6 1_555 1_555
C7 C6 1_555 1_555
H9 C7 1_555 1_555
C8 C7 1_555 1_555
H10 C8 1_555 1_555
C9 C4 1_555 1_555
O3 C9 1_555 1_555
C10 O3 1_555 1_555
H11 C10 1_555 1_555
H12 C10 1_555 1_555
C11 C10 1_555 1_555
H13 C11 1_555 1_555
O4 C11 1_555 1_555
C12 O4 1_555 1_555
H14 C12 1_555 1_555
H15 C12 1_555 1_555
H16 C12 1_555 1_555
C13 C11 1_555 1_555
H17 C13 1_555 1_555
H18 C13 1_555 1_555
O5 C13 1_555 1_555
C14 O5 1_555 1_555
C15 C14 1_555 1_555
H19 C15 1_555 1_555
C16 C15 1_555 1_555
H20 C16 1_555 1_555
C17 C16 1_555 1_555
H21 C17 1_555 1_555
C18 C17 1_555 1_555
H22 C18 1_555 1_555
C19 O1 1_555 1_555
C8 C9 1_555 1_555
C14 C19 1_555 1_555
C18 C19 1_555 1_555

#END
