
#######################################################################
#
#                 Cambridge Crystallographic Data Centre
#                                CCDC 
#
#######################################################################
#
# If this CIF has been generated from an entry in the Cambridge 
# Structural Database, then it will include bibliographic, chemical, 
# crystal, experimental, refinement or atomic coordinate data resulting 
# from the CCDC's data processing and validation procedures.
#
#######################################################################

data_CEXTAA
_chemical_name_common            sym-(Methoxy)(methyl)-dibenzo-14-crown-4
_chemical_formula_moiety         'C20 H24 O5'
_chemical_name_systematic        
6-Methoxy-6-methyl-2,3:9,10-dibenzo-1,4,8,11-tetraoxacyclotetradeca-2,9-diene
_symmetry_cell_setting           monoclinic
_symmetry_space_group_name_H-M   'P 21/c'
_symmetry_Int_Tables_number      14
_space_group_name_Hall           '-P 2ybc'
loop_
_symmetry_equiv_pos_site_id
_symmetry_equiv_pos_as_xyz
1 x,y,z
2 -x,1/2+y,1/2-z
3 -x,-y,-z
4 x,1/2-y,1/2+z
_cell_length_a                   20.295(6)
_cell_length_b                   8.139(3)
_cell_length_c                   11.205(5)
_cell_angle_alpha                90
_cell_angle_beta                 101.19(2)
_cell_angle_gamma                90
_cell_volume                     1815.67
_exptl_crystal_colour            colorless
_exptl_crystal_description       block
_chemical_melting_point          90-91deg.C
_cell_formula_units_Z            4
_exptl_crystal_recrystallization_method acetonitrile
loop_
_atom_site_label
_atom_site_type_symbol
_atom_site_fract_x
_atom_site_fract_y
_atom_site_fract_z
O1 O 0.2447(2) 0.6187(5) 0.3047(3)
O2 O 0.3852(3) 0.4926(6) 0.4800(5)
O3 O 0.3067(2) 0.3114(5) 0.5790(3)
O4 O 0.1655(2) 0.4966(4) 0.4552(3)
O5 O 0.1376(2) 0.2067(5) 0.5771(3)
C1 C 0.2926(4) 0.7174(8) 0.2612(5)
H1 H 0.2932(4) 0.8271(8) 0.2952(5)
H2 H 0.2812(4) 0.7259(8) 0.1733(5)
C2 C 0.3600(4) 0.6384(8) 0.2990(7)
H3 H 0.3568(4) 0.5262(8) 0.2693(7)
H4 H 0.3915(4) 0.6954(8) 0.2587(7)
C3 C 0.3883(5) 0.6346(11) 0.4306(8)
H5 H 0.4350(5) 0.6686(11) 0.4433(8)
H6 H 0.3645(5) 0.7136(11) 0.4712(8)
C4 C 0.4033(3) 0.4713(7) 0.6026(7)
C5 C 0.4603(4) 0.5356(10) 0.6736(9)
H7 H 0.4893(4) 0.5991(10) 0.6379(9)
C6 C 0.4749(4) 0.5072(12) 0.7964(10)
H8 H 0.5141(4) 0.5496(12) 0.8432(10)
C7 C 0.4321(5) 0.4168(10) 0.8503(7)
H9 H 0.4417(5) 0.4002(10) 0.9340(7)
C8 C 0.3743(3) 0.3496(7) 0.7808(6)
H10 H 0.3454(3) 0.2869(7) 0.8173(6)
C9 C 0.3600(3) 0.3769(7) 0.6567(5)
C10 C 0.2475(3) 0.2786(7) 0.6241(4)
H11 H 0.2324(3) 0.3776(7) 0.6588(4)
H12 H 0.2563(3) 0.1954(7) 0.6871(4)
C11 C 0.1944(3) 0.2192(6) 0.5198(4)
C12 C 0.1831(3) 0.3391(6) 0.4147(4)
H13 H 0.2237(3) 0.3483(6) 0.3815(4)
H14 H 0.1474(3) 0.2992(6) 0.3509(4)
C13 C 0.1406(4) 0.6077(7) 0.3633(5)
C14 C 0.0753(4) 0.6581(8) 0.3534(5)
H15 H 0.0487(4) 0.6111(8) 0.4030(5)
C15 C 0.0486(4) 0.7781(10) 0.2703(6)
H16 H 0.0045(4) 0.8130(10) 0.2646(6)
C16 C 0.0882(5) 0.8448(9) 0.1964(6)
H17 H 0.0708(5) 0.9258(9) 0.1406(6)
C17 C 0.1527(4) 0.7937(7) 0.2040(5)
H18 H 0.1785(4) 0.8382(7) 0.1519(5)
C18 C 0.1805(4) 0.6758(7) 0.2887(5)
C19 C 0.2149(3) 0.0553(7) 0.4735(5)
H19 H 0.1800(3) 0.0272(7) 0.4055(5)
H20 H 0.2200(3) -0.0351(7) 0.5369(5)
H21 H 0.2599(3) 0.0625(7) 0.4552(5)
C20 C 0.0798(4) 0.1343(11) 0.5114(7)
H22 H 0.0448(23) 0.1175(79) 0.5568(51)
H23 H 0.0618(31) 0.1908(71) 0.4370(33)
H24 H 0.0976(33) 0.0300(41) 0.4931(55)
loop_
_geom_bond_atom_site_label_1
_geom_bond_atom_site_label_2
_geom_bond_site_symmetry_1
_geom_bond_site_symmetry_2
O1 C1 1_555 1_555
O2 C3 1_555 1_555
O3 C9 1_555 1_555
O4 C12 1_555 1_555
O5 C11 1_555 1_555
C1 H1 1_555 1_555
H2 C1 1_555 1_555
C2 C1 1_555 1_555
H3 C2 1_555 1_555
H4 C2 1_555 1_555
C3 C2 1_555 1_555
H5 C3 1_555 1_555
H6 C3 1_555 1_555
C4 O2 1_555 1_555
C5 C4 1_555 1_555
H7 C5 1_555 1_555
C6 C5 1_555 1_555
H8 C6 1_555 1_555
C7 C6 1_555 1_555
H9 C7 1_555 1_555
C8 C7 1_555 1_555
H10 C8 1_555 1_555
C9 C4 1_555 1_555
C10 O3 1_555 1_555
H11 C10 1_555 1_555
H12 C10 1_555 1_555
C11 C10 1_555 1_555
C12 C11 1_555 1_555
H13 C12 1_555 1_555
H14 C12 1_555 1_555
C13 O4 1_555 1_555
C14 C13 1_555 1_555
H15 C14 1_555 1_555
C15 C14 1_555 1_555
H16 C15 1_555 1_555
C16 C15 1_555 1_555
H17 C16 1_555 1_555
C17 C16 1_555 1_555
H18 C17 1_555 1_555
C18 O1 1_555 1_555
C19 C11 1_555 1_555
H19 C19 1_555 1_555
H20 C19 1_555 1_555
H21 C19 1_555 1_555
C20 O5 1_555 1_555
H22 C20 1_555 1_555
H23 C20 1_555 1_555
H24 C20 1_555 1_555
C8 C9 1_555 1_555
C13 C18 1_555 1_555
C17 C18 1_555 1_555

#END
