
#######################################################################
#
#                 Cambridge Crystallographic Data Centre
#                                CCDC 
#
#######################################################################
#
# If this CIF has been generated from an entry in the Cambridge 
# Structural Database, then it will include bibliographic, chemical, 
# crystal, experimental, refinement or atomic coordinate data resulting 
# from the CCDC's data processing and validation procedures.
#
#######################################################################

data_CEXVOQ
_chemical_formula_moiety         'C26 H24 N2 O3 S1'
_chemical_name_systematic        
(+-)-2'-(N,N-Dimethylaminocarbonylthio)-2-hydroxy-3-(N,N-dimethylaminocarbonyl)-1,1'-binaphthyl
_symmetry_cell_setting           monoclinic
_symmetry_space_group_name_H-M   'P 21/c'
_symmetry_Int_Tables_number      14
_space_group_name_Hall           '-P 2ybc'
loop_
_symmetry_equiv_pos_site_id
_symmetry_equiv_pos_as_xyz
1 x,y,z
2 x,1/2-y,1/2+z
3 -x,-y,-z
4 -x,1/2+y,1/2-z
_cell_length_a                   14.950(9)
_cell_length_b                   8.946(2)
_cell_length_c                   17.391(4)
_cell_angle_alpha                90
_cell_angle_beta                 90.49(3)
_cell_angle_gamma                90
_cell_volume                     2325.83
_exptl_crystal_colour            colorless
_exptl_crystal_description       needle
_chemical_melting_point          199-203deg.C
_cell_formula_units_Z            4
_exptl_crystal_recrystallization_method ethanol
loop_
_atom_site_label
_atom_site_type_symbol
_atom_site_fract_x
_atom_site_fract_y
_atom_site_fract_z
S1 S 0.16078(16) 0.5919(3) 0.44257(13)
N1 N 0.5912(5) 0.6329(9) 0.4038(4)
N2 N 0.0468(5) 0.7271(9) 0.5330(4)
O1 O 0.5241(4) 0.6627(6) 0.5185(3)
O2 O 0.3875(4) 0.4979(6) 0.3726(3)
O3 O 0.0109(4) 0.7292(8) 0.4063(4)
C1 C 0.6721(6) 0.5652(12) 0.4385(6)
H1 H 0.7136 0.5402 0.3987
H2 H 0.6558 0.4763 0.4660
H3 H 0.6994 0.6351 0.4734
C2 C 0.5944(7) 0.6514(14) 0.3206(5)
H4 H 0.6496 0.6114 0.3017
H5 H 0.5906 0.7557 0.3081
H6 H 0.5450 0.5992 0.2973
C3 C 0.5242(6) 0.6766(9) 0.4475(5)
C4 C 0.4429(5) 0.7441(10) 0.4093(4)
C5 C 0.4306(5) 0.8941(9) 0.4070(4)
H7 H 0.4735 0.9553 0.4299
C6 C 0.3554(5) 0.9621(10) 0.3714(4)
C7 C 0.3416(7) 1.1196(10) 0.3705(5)
H8 H 0.3846 1.1820 0.3924
C8 C 0.2670(6) 1.1804(11) 0.3384(5)
H9 H 0.2581 1.2833 0.3395
C9 C 0.2052(6) 1.0893(11) 0.3046(5)
H10 H 0.1552 1.1319 0.2812
C10 C 0.2144(6) 0.9380(10) 0.3039(4)
H11 H 0.1704 0.8797 0.2806
C11 C 0.2890(5) 0.8679(9) 0.3379(4)
C12 C 0.3033(5) 0.7095(9) 0.3386(4)
C13 C 0.3780(6) 0.6512(9) 0.3740(4)
C14 C 0.2347(5) 0.6096(9) 0.3016(5)
C15 C 0.2429(6) 0.5714(9) 0.2239(5)
C16 C 0.3142(6) 0.6192(10) 0.1782(5)
H12 H 0.3576 0.6814 0.1994
C17 C 0.3213(7) 0.5757(13) 0.1017(6)
H13 H 0.3696 0.6058 0.0721
C18 C 0.2532(8) 0.4848(14) 0.0705(6)
H14 H 0.2565 0.4572 0.0190
C19 C 0.1838(7) 0.4365(13) 0.1118(6)
H15 H 0.1416 0.3734 0.0893
C20 C 0.1740(7) 0.4806(10) 0.1895(5)
C21 C 0.0998(6) 0.4416(11) 0.2320(6)
H16 H 0.0545 0.3860 0.2089
C22 C 0.0921(5) 0.4821(10) 0.3051(5)
H17 H 0.0415 0.4548 0.3325
C23 C 0.1603(6) 0.5664(9) 0.3415(5)
C24 C 0.0612(6) 0.6929(11) 0.4576(6)
C25 C 0.1066(6) 0.6768(11) 0.5928(5)
H18 H 0.0861 0.7127 0.6416
H19 H 0.1656 0.7146 0.5834
H20 H 0.1080 0.5696 0.5933
C26 C -0.0300(6) 0.8112(12) 0.5535(5)
H21 H -0.0302 0.8266 0.6081
H22 H -0.0830 0.7576 0.5384
H23 H -0.0288 0.9061 0.5278
H24 H 0.4513 0.4426 0.4122
loop_
_geom_bond_atom_site_label_1
_geom_bond_atom_site_label_2
_geom_bond_site_symmetry_1
_geom_bond_site_symmetry_2
S1 C23 1_555 1_555
N1 C1 1_555 1_555
N2 C24 1_555 1_555
O1 C3 1_555 1_555
O2 C13 1_555 1_555
O3 C24 1_555 1_555
C1 H1 1_555 1_555
H2 C1 1_555 1_555
H3 C1 1_555 1_555
C2 N1 1_555 1_555
H4 C2 1_555 1_555
H5 C2 1_555 1_555
H6 C2 1_555 1_555
C3 N1 1_555 1_555
C4 C3 1_555 1_555
C5 C4 1_555 1_555
H7 C5 1_555 1_555
C6 C5 1_555 1_555
C7 C6 1_555 1_555
H8 C7 1_555 1_555
C8 C7 1_555 1_555
H9 C8 1_555 1_555
C9 C8 1_555 1_555
H10 C9 1_555 1_555
C10 C9 1_555 1_555
H11 C10 1_555 1_555
C11 C6 1_555 1_555
C12 C11 1_555 1_555
C13 C4 1_555 1_555
C14 C12 1_555 1_555
C15 C14 1_555 1_555
C16 C15 1_555 1_555
H12 C16 1_555 1_555
C17 C16 1_555 1_555
H13 C17 1_555 1_555
C18 C17 1_555 1_555
H14 C18 1_555 1_555
C19 C18 1_555 1_555
H15 C19 1_555 1_555
C20 C15 1_555 1_555
C21 C20 1_555 1_555
H16 C21 1_555 1_555
C22 C21 1_555 1_555
H17 C22 1_555 1_555
C23 C14 1_555 1_555
C24 S1 1_555 1_555
C25 N2 1_555 1_555
H18 C25 1_555 1_555
H19 C25 1_555 1_555
H20 C25 1_555 1_555
C26 N2 1_555 1_555
H21 C26 1_555 1_555
H22 C26 1_555 1_555
H23 C26 1_555 1_555
H24 O2 1_555 1_555
C10 C11 1_555 1_555
C12 C13 1_555 1_555
C19 C20 1_555 1_555
C22 C23 1_555 1_555

#END
