
#######################################################################
#
#                 Cambridge Crystallographic Data Centre
#                                CCDC 
#
#######################################################################
#
# If this CIF has been generated from an entry in the Cambridge 
# Structural Database, then it will include bibliographic, chemical, 
# crystal, experimental, refinement or atomic coordinate data resulting 
# from the CCDC's data processing and validation procedures.
#
#######################################################################

data_CEXWOU
_chemical_formula_moiety         'C30 H20 Br3 N9 O9'
_chemical_name_systematic        
'trimethyl 1^1^,2^1^,3^1^-tris(6-bromopyridin-2-yl)-1^5^,3^5^-dihydroxy-2^5^-oxo-2^1^,2^5^-dihydro-1^1^H,3^1^H-[1^4^,2^4^:2^4^,3^4^-terpyrazole]-1^3^,2^3^,3^3^-tricarboxylate'
_symmetry_cell_setting           triclinic
_symmetry_space_group_name_H-M   'P -1'
_symmetry_Int_Tables_number      2
_space_group_name_Hall           '-P 1'
loop_
_symmetry_equiv_pos_site_id
_symmetry_equiv_pos_as_xyz
1 x,y,z
2 -x,-y,-z
_cell_length_a                   11.4902(9)
_cell_length_b                   12.3067(10)
_cell_length_c                   15.8694(11)
_cell_angle_alpha                83.760(6)
_cell_angle_beta                 70.989(7)
_cell_angle_gamma                64.998(8)
_cell_volume                     1921.72
_exptl_crystal_colour            white
_exptl_crystal_description       block
_cell_formula_units_Z            2
loop_
_atom_site_label
_atom_site_type_symbol
_atom_site_fract_x
_atom_site_fract_y
_atom_site_fract_z
Br1 Br 1.21970(8) -0.34436(7) 0.14678(6)
Br2 Br 0.67191(6) 0.93299(5) 0.32659(5)
Br3 Br 1.42171(9) 0.40880(12) -0.06368(7)
C1 C 1.1097(6) -0.2916(5) 0.2668(5)
C2 C 1.0816(7) -0.3713(5) 0.3263(5)
H1 H 1.1154 -0.4520 0.3104
C3 C 1.0021(7) -0.3285(5) 0.4099(5)
H2 H 0.9812 -0.3809 0.4527
C4 C 0.9511(6) -0.2079(5) 0.4328(4)
H3 H 0.8948 -0.1772 0.4898
C5 C 0.9887(5) -0.1361(4) 0.3664(4)
C6 C 0.9708(5) 0.0707(4) 0.3247(3)
C7 C 0.9029(5) 0.1792(4) 0.3688(3)
C8 C 0.8380(5) 0.1521(4) 0.4567(3)
C9 C 0.7548(5) 0.2371(5) 0.5329(3)
C10 C 0.6078(7) 0.2696(6) 0.6805(4)
H4 H 0.6561 0.3034 0.7006
H5 H 0.5705 0.2268 0.7279
H6 H 0.5361 0.3328 0.6629
C11 C 0.6357(5) 0.8097(4) 0.3981(3)
C12 C 0.5260(5) 0.8405(5) 0.4731(4)
H7 H 0.4675 0.9203 0.4889
C13 C 0.5052(6) 0.7482(5) 0.5247(4)
H8 H 0.4331 0.7650 0.5771
C14 C 0.5933(5) 0.6304(5) 0.4974(4)
H9 H 0.5814 0.5664 0.5303
C15 C 0.6981(5) 0.6120(4) 0.4205(3)
C16 C 0.7621(5) 0.4064(4) 0.3637(3)
C17 C 0.9011(5) 0.2973(4) 0.3302(3)
C18 C 0.9863(5) 0.3439(4) 0.3582(3)
C19 C 1.1327(5) 0.2803(5) 0.3517(4)
C20 C 1.3186(7) 0.0919(6) 0.3200(6)
H10 H 1.3768 0.1131 0.2688
H11 H 1.3364 0.0091 0.3142
H12 H 1.3353 0.1043 0.3729
C21 C 1.2733(6) 0.3868(6) -0.0716(5)
C22 C 1.2489(8) 0.3930(7) -0.1500(5)
H13 H 1.3035 0.4113 -0.2019
C23 C 1.1427(9) 0.3718(7) -0.1514(5)
H14 H 1.1251 0.3737 -0.2049
C24 C 1.0609(7) 0.3475(6) -0.0734(4)
H15 H 0.9874 0.3331 -0.0728
C25 C 1.0921(6) 0.3454(5) 0.0023(4)
C26 C 1.0312(5) 0.3242(5) 0.1678(3)
C27 C 0.9304(5) 0.2992(4) 0.2296(3)
C28 C 0.8545(6) 0.2877(5) 0.1792(4)
C29 C 0.7349(6) 0.2580(6) 0.2102(4)
C30 C 0.5120(10) 0.3163(11) 0.2064(8)
H16 H 0.5293 0.2360 0.1921
H17 H 0.4508 0.3722 0.1770
H18 H 0.4726 0.3311 0.2697
N1 N 1.0667(4) -0.1752(4) 0.2825(3)
N2 N 0.9436(4) -0.0129(4) 0.3832(3)
N3 N 0.8616(4) 0.0378(4) 0.4646(3)
N4 N 0.7224(4) 0.6984(4) 0.3702(3)
N5 N 0.7919(4) 0.4937(4) 0.3871(3)
N6 N 0.9242(4) 0.4521(4) 0.3881(3)
N7 N 1.1952(5) 0.3655(5) 0.0061(3)
N8 N 1.0137(5) 0.3245(4) 0.0862(3)
N9 N 0.9036(5) 0.3034(4) 0.0933(3)
O1 O 1.0501(4) 0.0418(3) 0.2408(3)
H19 H 1.0766 -0.0302 0.2313
O2 O 0.7391(4) 0.3398(4) 0.5309(3)
O3 O 0.6998(4) 0.1875(4) 0.6045(3)
O4 O 0.6535(4) 0.4202(3) 0.3613(2)
O5 O 1.1968(4) 0.3253(4) 0.3680(3)
O6 O 1.1791(4) 0.1661(3) 0.3261(3)
O7 O 1.1285(4) 0.3465(4) 0.1782(3)
H20 H 1.1898 0.3330 0.1308
O8 O 0.7240(4) 0.1815(4) 0.2595(3)
O9 O 0.6393(6) 0.3311(6) 0.1765(4)
loop_
_geom_bond_atom_site_label_1
_geom_bond_atom_site_label_2
_geom_bond_site_symmetry_1
_geom_bond_site_symmetry_2
Br1 C1 1_555 1_555
Br2 C11 1_555 1_555
Br3 C21 1_555 1_555
C1 C2 1_555 1_555
C2 H1 1_555 1_555
C3 C2 1_555 1_555
H2 C3 1_555 1_555
C4 C3 1_555 1_555
H3 C4 1_555 1_555
C5 C4 1_555 1_555
C6 C7 1_555 1_555
C7 C8 1_555 1_555
C8 C9 1_555 1_555
C9 O2 1_555 1_555
C10 H4 1_555 1_555
H5 C10 1_555 1_555
H6 C10 1_555 1_555
C11 C12 1_555 1_555
C12 H7 1_555 1_555
C13 C12 1_555 1_555
H8 C13 1_555 1_555
C14 C13 1_555 1_555
H9 C14 1_555 1_555
C15 C14 1_555 1_555
C16 C17 1_555 1_555
C17 C7 1_555 1_555
C18 C17 1_555 1_555
C19 C18 1_555 1_555
C20 H10 1_555 1_555
H11 C20 1_555 1_555
H12 C20 1_555 1_555
C21 C22 1_555 1_555
C22 H13 1_555 1_555
C23 C22 1_555 1_555
H14 C23 1_555 1_555
C24 C23 1_555 1_555
H15 C24 1_555 1_555
C25 C24 1_555 1_555
C26 C27 1_555 1_555
C27 C17 1_555 1_555
C28 C27 1_555 1_555
C29 C28 1_555 1_555
C30 H16 1_555 1_555
H17 C30 1_555 1_555
H18 C30 1_555 1_555
N1 C1 1_555 1_555
N2 C5 1_555 1_555
N3 C8 1_555 1_555
N4 C11 1_555 1_555
N5 C15 1_555 1_555
N6 C18 1_555 1_555
N7 C21 1_555 1_555
N8 C25 1_555 1_555
N9 C28 1_555 1_555
O1 C6 1_555 1_555
H19 O1 1_555 1_555
O3 C9 1_555 1_555
O4 C16 1_555 1_555
O5 C19 1_555 1_555
O6 C19 1_555 1_555
O7 C26 1_555 1_555
H20 O7 1_555 1_555
O8 C29 1_555 1_555
O9 C29 1_555 1_555
C5 N1 1_555 1_555
C6 N2 1_555 1_555
C10 O3 1_555 1_555
C15 N4 1_555 1_555
C16 N5 1_555 1_555
C20 O6 1_555 1_555
C25 N7 1_555 1_555
C26 N8 1_555 1_555
C30 O9 1_555 1_555
N2 N3 1_555 1_555
N5 N6 1_555 1_555
N8 N9 1_555 1_555

#END
