
#######################################################################
#
#                 Cambridge Crystallographic Data Centre
#                                CCDC 
#
#######################################################################
#
# If this CIF has been generated from an entry in the Cambridge 
# Structural Database, then it will include bibliographic, chemical, 
# crystal, experimental, refinement or atomic coordinate data resulting 
# from the CCDC's data processing and validation procedures.
#
#######################################################################

data_CEXWEK
_chemical_formula_moiety         'C12 H10 Br1 N3 O4'
_chemical_name_systematic        
'methyl 5-(acetyloxy)-1-(6-bromopyridin-2-yl)-1H-pyrazole-3-carboxylate'
_symmetry_cell_setting           triclinic
_symmetry_space_group_name_H-M   'P -1'
_symmetry_Int_Tables_number      2
_space_group_name_Hall           '-P 1'
loop_
_symmetry_equiv_pos_site_id
_symmetry_equiv_pos_as_xyz
1 x,y,z
2 -x,-y,-z
_cell_length_a                   8.2301(5)
_cell_length_b                   8.2822(9)
_cell_length_c                   10.2140(9)
_cell_angle_alpha                75.469(9)
_cell_angle_beta                 85.272(6)
_cell_angle_gamma                85.321(7)
_cell_volume                     670.317
_exptl_crystal_colour            white
_exptl_crystal_description       needle
_cell_formula_units_Z            2
loop_
_atom_site_label
_atom_site_type_symbol
_atom_site_fract_x
_atom_site_fract_y
_atom_site_fract_z
Br1 Br 0.35950(7) -0.12661(8) -0.35721(5)
O1 O 0.4485(3) 0.2569(4) -0.1034(3)
O2 O 0.2308(4) 0.3608(4) -0.2241(3)
O3 O 0.0714(4) 0.1879(4) 0.4144(3)
N1 N 0.2962(4) -0.0245(5) -0.1211(3)
N2 N 0.2625(4) 0.0963(4) 0.0628(3)
N3 N 0.1874(4) 0.0988(5) 0.1859(3)
O4 O 0.2124(5) 0.4168(5) 0.3584(4)
C1 C 0.3713(6) 0.3151(6) -0.2243(5)
C2 C 0.3355(5) 0.3266(6) 0.1063(4)
H1 H 0.3825 0.4264 0.1017
C3 C 0.2678(5) -0.1453(6) -0.1774(4)
C4 C 0.2321(5) 0.2370(6) 0.2116(4)
C5 C 0.1728(5) 0.2921(6) 0.3351(5)
C6 C 0.1419(5) -0.1672(6) 0.0775(5)
H2 H 0.1002 -0.1715 0.1657
C7 C 0.3511(5) 0.2343(6) 0.0131(4)
C8 C 0.1812(5) -0.2817(6) -0.1151(5)
H3 H 0.1670 -0.3648 -0.1590
C9 C 0.4899(7) 0.3118(8) -0.3402(5)
H4 H 0.4362 0.3521 -0.4232
H5 H 0.5338 0.1992 -0.3337
H6 H 0.5769 0.3818 -0.3390
C10 C 0.1166(6) -0.2907(6) 0.0144(5)
H7 H 0.0556 -0.3802 0.0596
C11 C 0.2323(5) -0.0360(6) 0.0041(4)
C12 C 0.0036(7) 0.2333(7) 0.5366(5)
H8 H -0.0679 0.1499 0.5863
H9 H -0.0569 0.3395 0.5129
H10 H 0.0905 0.2406 0.5916
loop_
_geom_bond_atom_site_label_1
_geom_bond_atom_site_label_2
_geom_bond_site_symmetry_1
_geom_bond_site_symmetry_2
Br1 C3 1_555 1_555
O1 C1 1_555 1_555
O2 C1 1_555 1_555
O3 C5 1_555 1_555
N1 C3 1_555 1_555
N2 N3 1_555 1_555
N3 C4 1_555 1_555
O4 C5 1_555 1_555
C1 C9 1_555 1_555
C2 H1 1_555 1_555
C3 C8 1_555 1_555
C4 C2 1_555 1_555
C5 C4 1_555 1_555
C6 H2 1_555 1_555
C7 O1 1_555 1_555
C8 H3 1_555 1_555
C9 H4 1_555 1_555
H5 C9 1_555 1_555
H6 C9 1_555 1_555
C10 C6 1_555 1_555
H7 C10 1_555 1_555
C11 N1 1_555 1_555
C12 O3 1_555 1_555
H8 C12 1_555 1_555
H9 C12 1_555 1_555
H10 C12 1_555 1_555
N2 C7 1_555 1_555
N2 C11 1_555 1_555
C2 C7 1_555 1_555
C6 C11 1_555 1_555
C8 C10 1_555 1_555

#END
