
#######################################################################
#
#                 Cambridge Crystallographic Data Centre
#                                CCDC 
#
#######################################################################
#
# If this CIF has been generated from an entry in the Cambridge 
# Structural Database, then it will include bibliographic, chemical, 
# crystal, experimental, refinement or atomic coordinate data resulting 
# from the CCDC's data processing and validation procedures.
#
#######################################################################

data_CEXXAH
_chemical_formula_moiety         'C30 H20 Br3 N9 O10'
_chemical_name_systematic        
1,8-bis(6-bromopyridin-2-yl)-4-[2-(6-bromopyridin-2-yl)-5-(methoxycarbonyl)-3-oxo-2,3-dihydro-1H-pyrazol-4-yl]-3,4-bis(methoxycarbonyl)-9-oxo-1,2,7,8-tetraazaspiro[4.4]nona-2,6-dien-7-ium-6-carboxylate
_symmetry_cell_setting           monoclinic
_symmetry_space_group_name_H-M   'C 2/c'
_symmetry_Int_Tables_number      15
_space_group_name_Hall           '-C 2yn'
loop_
_symmetry_equiv_pos_site_id
_symmetry_equiv_pos_as_xyz
1 x,y,z
2 -x,y,1/2-z
3 1/2+x,1/2+y,z
4 1/2-x,1/2+y,1/2-z
5 -x,-y,-z
6 x,-y,1/2+z
7 1/2-x,1/2-y,-z
8 1/2+x,1/2-y,1/2+z
_cell_length_a                   19.8757(8)
_cell_length_b                   23.9543(9)
_cell_length_c                   16.2508(8)
_cell_angle_alpha                90
_cell_angle_beta                 90.869(4)
_cell_angle_gamma                90
_cell_volume                     7736.25
_exptl_crystal_colour            white
_exptl_crystal_description       BLOCK
_cell_formula_units_Z            8
loop_
_atom_site_label
_atom_site_type_symbol
_atom_site_fract_x
_atom_site_fract_y
_atom_site_fract_z
Br1 Br 0.290634(13) 0.363649(10) 0.377033(14)
Br2 Br 0.499777(16) -0.146719(14) 0.056339(19)
Br3 Br 0.536834(14) 0.327676(13) 0.125003(18)
O1 O 0.18612(9) 0.11520(8) 0.06853(8)
O2 O 0.11644(8) 0.14567(7) 0.16917(8)
O3 O 0.10776(8) 0.01479(7) 0.33527(9)
O4 O 0.13021(7) 0.01963(6) 0.20035(8)
O5 O 0.20720(7) 0.23731(6) 0.16554(8)
O6 O 0.41471(12) 0.10587(15) 0.32846(17)
O7 O 0.31987(9) 0.09688(7) 0.38881(8)
O8 O 0.32146(8) 0.09048(6) -0.02706(7)
O9 O 0.32313(7) 0.15677(5) 0.06925(7)
O10 O 0.26696(7) -0.00425(6) 0.29438(7)
N1 N 0.23885(8) 0.25773(6) 0.35626(8)
N2 N 0.20628(7) 0.16815(5) 0.32552(8)
N3 N 0.17028(8) 0.12045(7) 0.33885(9)
N4 N 0.40848(8) -0.07823(6) 0.13222(10)
N5 N 0.33282(8) -0.01267(7) 0.17775(9)
N6 N 0.34852(9) 0.01706(7) 0.10700(9)
H1 H 0.3759 0.0083 0.0686
N7 N 0.41746(9) 0.28223(6) 0.16495(8)
N8 N 0.31988(6) 0.23429(6) 0.20680(8)
N9 N 0.35889(8) 0.19699(7) 0.25385(9)
H2 H 0.4014 0.2011 0.2625
C1 C 0.23173(9) 0.30377(8) 0.40260(11)
C2 C 0.18973(11) 0.30994(11) 0.46737(12)
H3 H 0.1884 0.3425 0.4984
C3 C 0.14869(11) 0.26393(11) 0.48402(11)
H4 H 0.1170 0.2659 0.5254
C4 C 0.15548(9) 0.21649(8) 0.43926(10)
H5 H 0.1308 0.1849 0.4528
C5 C 0.19820(9) 0.21477(8) 0.37459(9)
C6 C 0.17943(10) 0.08602(8) 0.28101(10)
C7 C 0.22201(10) 0.10770(8) 0.21396(9)
C8 C 0.25248(9) 0.16252(7) 0.25576(9)
C9 C 0.17166(9) 0.12341(8) 0.14136(10)
C10 C 0.06769(14) 0.16230(15) 0.10826(17)
H6 H 0.0293 0.1781 0.1348
H7 H 0.0540 0.1304 0.0765
H8 H 0.0871 0.1897 0.0726
C11 C 0.13595(8) 0.03584(7) 0.27663(12)
C12 C 0.08815(14) -0.02985(14) 0.18714(18)
H9 H 0.0879 -0.0396 0.1298
H10 H 0.0430 -0.0220 0.2040
H11 H 0.1059 -0.0604 0.2189
C13 C 0.25433(9) 0.21850(7) 0.20247(9)
C14 C 0.34721(8) 0.28318(6) 0.17553(9)
C15 C 0.30903(14) 0.32825(11) 0.16116(14)
H12 H 0.2630 0.3272 0.1706
C16 C 0.34022(18) 0.37888(11) 0.13073(15)
H13 H 0.3155 0.4109 0.1191
C17 C 0.40851(11) 0.37645(10) 0.12030(11)
H14 H 0.4316 0.4076 0.1016
C18 C 0.44196(14) 0.32908(8) 0.13713(11)
C19 C 0.32632(9) 0.15798(7) 0.28153(10)
C20 C 0.35584(14) 0.11535(10) 0.33762(13)
C21 C 0.43593(10) -0.12732(7) 0.13923(13)
C22 C 0.42548(7) -0.16540(6) 0.19984(13)
H15 H 0.4481 -0.1994 0.2003
C23 C 0.38087(10) -0.15238(7) 0.25993(13)
H16 H 0.3719 -0.1767 0.3029
C24 C 0.35019(10) -0.10144(7) 0.25326(12)
H17 H 0.3181 -0.0910 0.2914
C25 C 0.36669(9) -0.06505(7) 0.18978(11)
C26 C 0.28697(10) 0.01447(9) 0.22959(9)
C27 C 0.27406(9) 0.06628(6) 0.18549(9)
C28 C 0.31030(9) 0.06253(8) 0.11352(10)
C29 C 0.31804(8) 0.10551(8) 0.04576(10)
C30 C 0.32130(15) 0.19612(11) 0.00574(12)
H18 H 0.3246 0.2330 0.0286
H19 H 0.2797 0.1926 -0.0247
H20 H 0.3583 0.1898 -0.0304
loop_
_geom_bond_atom_site_label_1
_geom_bond_atom_site_label_2
_geom_bond_site_symmetry_1
_geom_bond_site_symmetry_2
Br1 C1 1_555 1_555
Br2 C21 1_555 1_555
Br3 C18 1_555 1_555
O1 C9 1_555 1_555
O2 C9 1_555 1_555
O3 C11 1_555 1_555
O4 C11 1_555 1_555
O5 C13 1_555 1_555
O6 C20 1_555 1_555
O7 C20 1_555 1_555
O8 C29 1_555 1_555
O9 C29 1_555 1_555
O10 C26 1_555 1_555
N1 C1 1_555 1_555
N2 N3 1_555 1_555
N3 C6 1_555 1_555
N4 C21 1_555 1_555
N5 N6 1_555 1_555
N6 H1 1_555 1_555
N7 C14 1_555 1_555
N8 N9 1_555 1_555
N9 H2 1_555 1_555
C1 C2 1_555 1_555
C2 H3 1_555 1_555
C3 C2 1_555 1_555
H4 C3 1_555 1_555
C4 C3 1_555 1_555
H5 C4 1_555 1_555
C5 N1 1_555 1_555
C6 C7 1_555 1_555
C7 C8 1_555 1_555
C8 N2 1_555 1_555
C9 C7 1_555 1_555
C10 O2 1_555 1_555
H6 C10 1_555 1_555
H7 C10 1_555 1_555
H8 C10 1_555 1_555
C11 C6 1_555 1_555
C12 O4 1_555 1_555
H9 C12 1_555 1_555
H10 C12 1_555 1_555
H11 C12 1_555 1_555
C13 N8 1_555 1_555
C14 N8 1_555 1_555
C15 C14 1_555 1_555
H12 C15 1_555 1_555
C16 C15 1_555 1_555
H13 C16 1_555 1_555
C17 C16 1_555 1_555
H14 C17 1_555 1_555
C18 N7 1_555 1_555
C19 N9 1_555 1_555
C20 C19 1_555 1_555
C21 C22 1_555 1_555
C22 H15 1_555 1_555
C23 C22 1_555 1_555
H16 C23 1_555 1_555
C24 C23 1_555 1_555
H17 C24 1_555 1_555
C25 N4 1_555 1_555
C26 N5 1_555 1_555
C27 C7 1_555 1_555
C28 N6 1_555 1_555
C29 C28 1_555 1_555
C30 O9 1_555 1_555
H18 C30 1_555 1_555
H19 C30 1_555 1_555
H20 C30 1_555 1_555
N2 C5 1_555 1_555
N5 C25 1_555 1_555
C4 C5 1_555 1_555
C8 C13 1_555 1_555
C8 C19 1_555 1_555
C17 C18 1_555 1_555
C24 C25 1_555 1_555
C26 C27 1_555 1_555
C27 C28 1_555 1_555

#END
