
#######################################################################
#
#                 Cambridge Crystallographic Data Centre
#                                CCDC 
#
#######################################################################
#
# If this CIF has been generated from an entry in the Cambridge 
# Structural Database, then it will include bibliographic, chemical, 
# crystal, experimental, refinement or atomic coordinate data resulting 
# from the CCDC's data processing and validation procedures.
#
#######################################################################

data_CEXXIO
_chemical_formula_moiety         'C7 H7 N2 1+,C7 H5 O6 S1 1-'
_chemical_name_systematic        
'1H-Benzimidazol-3-ium 3-carboxy-4-hydroxybenzenesulfonate'
_symmetry_cell_setting           monoclinic
_symmetry_space_group_name_H-M   'P 21/c'
_symmetry_Int_Tables_number      14
_space_group_name_Hall           '-P 2ybc'
loop_
_symmetry_equiv_pos_site_id
_symmetry_equiv_pos_as_xyz
1 x,y,z
2 -x,1/2+y,1/2-z
3 -x,-y,-z
4 x,1/2-y,1/2+z
_cell_length_a                   7.8714(5)
_cell_length_b                   16.5514(11)
_cell_length_c                   13.6543(7)
_cell_angle_alpha                90
_cell_angle_beta                 124.464(3)
_cell_angle_gamma                90
_cell_volume                     1466.69
_cell_formula_units_Z            4
loop_
_atom_site_label
_atom_site_type_symbol
_atom_site_fract_x
_atom_site_fract_y
_atom_site_fract_z
S1 S -0.64553(6) -0.46509(2) 0.20002(4)
O1 O -0.7016(3) -0.42194(7) 0.09353(12)
O2 O -0.4292(2) -0.49004(8) 0.26692(14)
O3 O -0.7830(2) -0.53160(7) 0.17673(12)
O4 O -0.6790(2) -0.11797(7) 0.38221(12)
O5 O -0.6119(2) -0.15277(7) 0.24987(12)
H1 H -0.5959 -0.1004 0.2478
O6 O -0.7435(2) -0.23319(7) 0.49162(12)
H2 H -0.7195 -0.1809 0.4793
C1 C -0.6560(2) -0.31390(9) 0.27326(13)
H3 H -0.6336 -0.2967 0.2166
C2 C -0.6692(2) -0.39540(9) 0.28930(14)
C3 C -0.6762(2) -0.25700(9) 0.34164(13)
C4 C -0.6575(2) -0.16992(9) 0.32671(14)
C5 C -0.7034(3) -0.42160(10) 0.37388(15)
H4 H -0.7108 -0.4766 0.3850
C6 C -0.7152(3) -0.28337(9) 0.42457(14)
C7 C -0.7262(3) -0.36624(10) 0.44078(16)
H5 H -0.7490 -0.3839 0.4970
N1 N -0.1628(2) -0.39588(9) 0.03166(13)
H6 H -0.1308 -0.4096 -0.0167
N2 N -0.2535(2) -0.40519(10) 0.15318(14)
H7 H -0.2893 -0.4259 0.1967
C8 C -0.1656(2) -0.31759(10) 0.06630(15)
C9 C -0.2167(3) -0.44584(11) 0.08423(17)
H8 H -0.2272 -0.5016 0.0742
C10 C -0.1231(3) -0.24388(12) 0.03660(19)
H9 H -0.0821 -0.2401 -0.0151
C11 C -0.2250(3) -0.32356(11) 0.14417(15)
C12 C -0.2450(3) -0.25488(15) 0.1957(2)
H10 H -0.2845 -0.2583 0.2482
C13 C -0.1449(4) -0.17674(12) 0.0877(2)
H11 H -0.1193 -0.1260 0.0694
C14 C -0.2040(4) -0.18244(14) 0.1659(2)
H12 H -0.2160 -0.1354 0.1988
loop_
_geom_bond_atom_site_label_1
_geom_bond_atom_site_label_2
_geom_bond_site_symmetry_1
_geom_bond_site_symmetry_2
S1 O1 1_555 1_555
O2 S1 1_555 1_555
O3 S1 1_555 1_555
O4 C4 1_555 1_555
O5 H1 1_555 1_555
O6 H2 1_555 1_555
C1 H3 1_555 1_555
C2 S1 1_555 1_555
C3 C1 1_555 1_555
C4 O5 1_555 1_555
C5 C2 1_555 1_555
H4 C5 1_555 1_555
C6 O6 1_555 1_555
C7 C5 1_555 1_555
H5 C7 1_555 1_555
N1 H6 1_555 1_555
N2 H7 1_555 1_555
C8 N1 1_555 1_555
C9 N1 1_555 1_555
H8 C9 1_555 1_555
C10 C8 1_555 1_555
H9 C10 1_555 1_555
C11 N2 1_555 1_555
C12 C11 1_555 1_555
H10 C12 1_555 1_555
C13 C10 1_555 1_555
H11 C13 1_555 1_555
C14 C12 1_555 1_555
H12 C14 1_555 1_555
C1 C2 1_555 1_555
C3 C4 1_555 1_555
C3 C6 1_555 1_555
C6 C7 1_555 1_555
N2 C9 1_555 1_555
C8 C11 1_555 1_555
C13 C14 1_555 1_555

#END
