
#######################################################################
#
#                 Cambridge Crystallographic Data Centre
#                                CCDC 
#
#######################################################################
#
# If this CIF has been generated from an entry in the Cambridge 
# Structural Database, then it will include bibliographic, chemical, 
# crystal, experimental, refinement or atomic coordinate data resulting 
# from the CCDC's data processing and validation procedures.
#
#######################################################################

data_CEXZUD
_chemical_formula_moiety         'C11 H11 Br1 S3 Si1'
_chemical_name_systematic        
(6-bromobisthieno[2,3-b:2',3'-d]thiophen-2-yl)(trimethyl)silane
_symmetry_cell_setting           monoclinic
_symmetry_space_group_name_H-M   'P 21/c'
_symmetry_Int_Tables_number      14
_space_group_name_Hall           '-P 2ybc'
loop_
_symmetry_equiv_pos_site_id
_symmetry_equiv_pos_as_xyz
1 x,y,z
2 -x,1/2+y,1/2-z
3 -x,-y,-z
4 x,1/2-y,1/2+z
_cell_length_a                   11.5286(10)
_cell_length_b                   15.8164(13)
_cell_length_c                   8.4588(7)
_cell_angle_alpha                90
_cell_angle_beta                 110.1900(10)
_cell_angle_gamma                90
_cell_volume                     1447.61
_exptl_crystal_colour            colorless
_exptl_crystal_description       rod
_cell_formula_units_Z            4
loop_
_atom_site_label
_atom_site_type_symbol
_atom_site_fract_x
_atom_site_fract_y
_atom_site_fract_z
Br1 Br -0.39217(3) 0.17916(2) -0.58371(4)
Si1 Si 0.31347(7) 0.41126(4) 0.29956(9)
S1 S -0.20375(7) 0.08511(4) -0.28080(9)
S2 S 0.03244(7) 0.10591(4) 0.04776(9)
S3 S 0.07056(6) 0.36562(4) 0.00234(8)
C1 C -0.2530(2) 0.17968(16) -0.3872(3)
C2 C -0.1834(2) 0.24678(16) -0.3152(3)
H1 H -0.1977 0.3016 -0.3573
C3 C -0.0849(2) 0.22346(15) -0.1663(3)
C4 C -0.0846(2) 0.13829(15) -0.1329(3)
C5 C 0.0152(2) 0.26401(14) -0.0395(3)
C6 C 0.0865(2) 0.21040(14) 0.0821(3)
C7 C 0.1862(2) 0.24908(15) 0.2075(3)
H2 H 0.2421 0.2201 0.2974
C8 C 0.1916(2) 0.33440(15) 0.1819(3)
C9 C 0.3908(3) 0.3702(2) 0.5162(4)
H3 H 0.4275 0.3163 0.5108
H4 H 0.3310 0.3639 0.5711
H5 H 0.4538 0.4091 0.5787
C10 C 0.4265(3) 0.4203(2) 0.1877(5)
H6 H 0.4635 0.3661 0.1857
H7 H 0.4896 0.4602 0.2453
H8 H 0.3847 0.4392 0.0744
C11 C 0.2406(3) 0.51507(18) 0.3050(4)
H9 H 0.1825 0.5095 0.3627
H10 H 0.1985 0.5343 0.1920
H11 H 0.3032 0.5553 0.3632
loop_
_geom_bond_atom_site_label_1
_geom_bond_atom_site_label_2
_geom_bond_site_symmetry_1
_geom_bond_site_symmetry_2
Br1 C1 1_555 1_555
Si1 C8 1_555 1_555
S1 C1 1_555 1_555
S2 C4 1_555 1_555
S3 C5 1_555 1_555
C1 C2 1_555 1_555
C2 H1 1_555 1_555
C3 C2 1_555 1_555
C4 S1 1_555 1_555
C5 C3 1_555 1_555
C6 S2 1_555 1_555
C7 C6 1_555 1_555
H2 C7 1_555 1_555
C8 S3 1_555 1_555
C9 Si1 1_555 1_555
H3 C9 1_555 1_555
H4 C9 1_555 1_555
H5 C9 1_555 1_555
C10 Si1 1_555 1_555
H6 C10 1_555 1_555
H7 C10 1_555 1_555
H8 C10 1_555 1_555
C11 Si1 1_555 1_555
H9 C11 1_555 1_555
H10 C11 1_555 1_555
H11 C11 1_555 1_555
C3 C4 1_555 1_555
C5 C6 1_555 1_555
C7 C8 1_555 1_555

#END
