
#######################################################################
#
#                 Cambridge Crystallographic Data Centre
#                                CCDC 
#
#######################################################################
#
# If this CIF has been generated from an entry in the Cambridge 
# Structural Database, then it will include bibliographic, chemical, 
# crystal, experimental, refinement or atomic coordinate data resulting 
# from the CCDC's data processing and validation procedures.
#
#######################################################################

data_CEXZOX
_chemical_formula_moiety         'C24 H22 S6 Si2'
_chemical_name_systematic        
(thieno[3',2':4,5]thieno[3,2-b]thieno[3'',2'':4',5']thieno[2',3':4,5]thieno[3,2-e][1]benzothiene-2,9-diyl)bis(trimethylsilane)
_symmetry_cell_setting           monoclinic
_symmetry_space_group_name_H-M   'C 2/c'
_symmetry_Int_Tables_number      15
_space_group_name_Hall           '-C 2yn'
loop_
_symmetry_equiv_pos_site_id
_symmetry_equiv_pos_as_xyz
1 x,y,z
2 -x,y,1/2-z
3 1/2+x,1/2+y,z
4 1/2-x,1/2+y,1/2-z
5 -x,-y,-z
6 x,-y,1/2+z
7 1/2-x,1/2-y,-z
8 1/2+x,1/2-y,1/2+z
_cell_length_a                   31.277(9)
_cell_length_b                   16.691(5)
_cell_length_c                   10.668(3)
_cell_angle_alpha                90
_cell_angle_beta                 93.503(6)
_cell_angle_gamma                90
_cell_volume                     5558.76
_exptl_crystal_colour            colorless
_exptl_crystal_description       block
_cell_formula_units_Z            8
loop_
_atom_site_label
_atom_site_type_symbol
_atom_site_fract_x
_atom_site_fract_y
_atom_site_fract_z
Si1 Si 0.04748(5) 0.34258(9) 0.53112(17)
Si2 Si 0.39428(7) 0.59620(12) 1.4859(2)
C1 C 0.0519(2) 0.2414(3) 0.6009(8)
H1 H 0.0440 0.2435 0.6865
H2 H 0.0808 0.2227 0.5984
H3 H 0.0330 0.2055 0.5540
C2 C -0.00713(18) 0.3806(4) 0.5410(8)
H4 H -0.0146 0.3798 0.6269
H5 H -0.0267 0.3474 0.4914
H6 H -0.0087 0.4345 0.5098
C3 C 0.0623(3) 0.3423(5) 0.3645(7)
H7 H 0.0427 0.3087 0.3156
H8 H 0.0909 0.3220 0.3602
H9 H 0.0608 0.3959 0.3320
C4 C 0.08706(14) 0.4089(3) 0.6190(5)
C5 C 0.10204(15) 0.4820(3) 0.5822(5)
H10 H 0.0916 0.5083 0.5098
C6 C 0.13491(14) 0.5137(2) 0.6648(4)
C7 C 0.14475(14) 0.4632(2) 0.7652(4)
C8 C 0.19175(14) 0.5799(2) 0.7738(4)
C9 C 0.16268(15) 0.5815(2) 0.6732(4)
C10 C 0.22143(14) 0.6458(2) 0.7778(4)
C11 C 0.21285(15) 0.6959(2) 0.6733(4)
C12 C 0.23735(16) 0.7643(3) 0.6510(5)
H11 H 0.2302 0.7974 0.5827
C13 C 0.27135(16) 0.7814(3) 0.7300(5)
H12 H 0.2884 0.8256 0.7147
C14 C 0.28115(15) 0.7334(3) 0.8345(4)
C15 C 0.25618(14) 0.6660(2) 0.8638(4)
C16 C 0.27205(14) 0.6321(2) 0.9802(4)
C17 C 0.30824(14) 0.6696(3) 1.0329(4)
C18 C 0.32417(15) 0.6360(3) 1.1487(5)
C19 C 0.29862(16) 0.5731(3) 1.1827(5)
C20 C 0.35783(16) 0.6496(3) 1.2411(5)
H13 H 0.3783 0.6895 1.2340
C21 C 0.35763(18) 0.5987(3) 1.3420(5)
C22 C 0.4387(3) 0.6651(6) 1.4574(10)
H14 H 0.4538 0.6460 1.3877
H15 H 0.4579 0.6676 1.5310
H16 H 0.4274 0.7175 1.4387
C23 C 0.4132(3) 0.4917(5) 1.5121(9)
H17 H 0.4289 0.4748 1.4422
H18 H 0.3890 0.4570 1.5199
H19 H 0.4315 0.4893 1.5876
C24 C 0.3637(3) 0.6306(5) 1.6235(7)
H20 H 0.3413 0.5931 1.6377
H21 H 0.3515 0.6824 1.6055
H22 H 0.3829 0.6339 1.6971
S1 S 0.11376(4) 0.37810(7) 0.75895(13)
S2 S 0.18651(4) 0.49512(6) 0.86630(11)
S3 S 0.16882(4) 0.66394(7) 0.57694(12)
S4 S 0.32368(4) 0.74995(7) 0.94456(13)
S5 S 0.25560(4) 0.55398(7) 1.07631(12)
S6 S 0.31491(5) 0.53203(8) 1.32336(14)
loop_
_geom_bond_atom_site_label_1
_geom_bond_atom_site_label_2
_geom_bond_site_symmetry_1
_geom_bond_site_symmetry_2
Si1 C1 1_555 1_555
Si2 C21 1_555 1_555
C1 H1 1_555 1_555
H2 C1 1_555 1_555
H3 C1 1_555 1_555
C2 Si1 1_555 1_555
H4 C2 1_555 1_555
H5 C2 1_555 1_555
H6 C2 1_555 1_555
C3 Si1 1_555 1_555
H7 C3 1_555 1_555
H8 C3 1_555 1_555
H9 C3 1_555 1_555
C4 Si1 1_555 1_555
C5 C4 1_555 1_555
H10 C5 1_555 1_555
C6 C5 1_555 1_555
C7 C6 1_555 1_555
C8 C9 1_555 1_555
C9 C6 1_555 1_555
C10 C8 1_555 1_555
C11 C10 1_555 1_555
C12 C11 1_555 1_555
H11 C12 1_555 1_555
C13 C12 1_555 1_555
H12 C13 1_555 1_555
C14 C13 1_555 1_555
C15 C10 1_555 1_555
C16 C15 1_555 1_555
C17 C16 1_555 1_555
C18 C17 1_555 1_555
C19 C18 1_555 1_555
C20 C18 1_555 1_555
H13 C20 1_555 1_555
C21 C20 1_555 1_555
C22 Si2 1_555 1_555
H14 C22 1_555 1_555
H15 C22 1_555 1_555
H16 C22 1_555 1_555
C23 Si2 1_555 1_555
H17 C23 1_555 1_555
H18 C23 1_555 1_555
H19 C23 1_555 1_555
C24 Si2 1_555 1_555
H20 C24 1_555 1_555
H21 C24 1_555 1_555
H22 C24 1_555 1_555
S1 C4 1_555 1_555
S2 C7 1_555 1_555
S3 C9 1_555 1_555
S4 C14 1_555 1_555
S5 C16 1_555 1_555
S6 C19 1_555 1_555
C7 S1 1_555 1_555
C8 S2 1_555 1_555
C11 S3 1_555 1_555
C14 C15 1_555 1_555
C17 S4 1_555 1_555
C19 S5 1_555 1_555
C21 S6 1_555 1_555

#END
