
#######################################################################
#
#                 Cambridge Crystallographic Data Centre
#                                CCDC 
#
#######################################################################
#
# If this CIF has been generated from an entry in the Cambridge 
# Structural Database, then it will include bibliographic, chemical, 
# crystal, experimental, refinement or atomic coordinate data resulting 
# from the CCDC's data processing and validation procedures.
#
#######################################################################

data_CEYFEU
_chemical_name_common            
'bis(mu-18-([2-(5-chloro-2-hydroxyphenyl)ethenyl]-4-oxoquinazolin-3-yl)benzo-18-crown-6)-dinitrato-di-potassium acetonitrile solvate'
_chemical_formula_moiety         'C64 H66 Cl2 K2 N6 O22,2(C2 H3 N1)'
_chemical_name_systematic        
'bis(\m-2-[2-(5-chloro-2-hydroxyphenyl)ethenyl]-3-(2,3,5,6,8,9,11,12,14,15-decahydro-1,4,7,10,13,16-benzohexaoxacyclooctadecin-18-yl)quinazolin-4(3H)-one)-dinitrato-di-potassium acetonitrile solvate'
_symmetry_cell_setting           triclinic
_symmetry_space_group_name_H-M   'P -1'
_symmetry_Int_Tables_number      2
_space_group_name_Hall           '-P 1'
loop_
_symmetry_equiv_pos_site_id
_symmetry_equiv_pos_as_xyz
1 x,y,z
2 -x,-y,-z
_cell_length_a                   8.9885(4)
_cell_length_b                   13.9075(6)
_cell_length_c                   14.9053(6)
_cell_angle_alpha                99.901(3)
_cell_angle_beta                 95.630(3)
_cell_angle_gamma                105.018(4)
_cell_volume                     1752.79
_exptl_crystal_colour            colorless
_exptl_crystal_description       needle
_cell_formula_units_Z            1
loop_
_atom_site_label
_atom_site_type_symbol
_atom_site_fract_x
_atom_site_fract_y
_atom_site_fract_z
Cl1 Cl 1.13191(10) 0.49915(7) 0.89476(6)
O1 O 0.63861(19) 0.93932(14) 0.46611(12)
O2 O 0.8878(2) 0.97946(15) 0.36133(12)
O3 O 0.4057(2) 0.77801(15) 0.40834(12)
O4 O 0.8491(2) 0.86037(15) 0.17467(13)
O5 O 0.4663(2) 1.04308(17) 0.77551(13)
O6 O 0.7467(3) 0.7338(3) 0.44439(18)
O7 O 0.3577(2) 0.65348(16) 0.22843(13)
O8 O 0.5969(2) 0.69607(17) 0.12498(13)
O9 O 0.8509(3) 0.69842(18) 0.63533(14)
H1 H 0.8704 0.6817 0.5833
O10 O 0.9259(3) 0.6597(2) 0.46526(15)
O11 O 0.8829(3) 0.7102(2) 0.33840(16)
N1 N 0.5968(2) 0.92409(18) 0.78529(14)
N2 N 0.7611(2) 0.92678(18) 0.92102(15)
N3 N 0.8518(3) 0.7024(2) 0.41528(16)
C1 C 0.5414(3) 0.8810(2) 0.68812(17)
C2 C 0.7022(3) 0.8873(2) 0.83570(17)
C3 C 0.5706(3) 0.8946(2) 0.53245(17)
C4 C 1.0537(3) 0.5598(2) 0.8162(2)
C5 C 0.7531(3) 0.8043(2) 0.78506(19)
H2 H 0.7215 0.7831 0.7218
C6 C 0.4206(3) 0.7943(2) 0.65937(19)
H3 H 0.3714 0.7609 0.7020
C7 C 0.6166(3) 1.0534(2) 0.91943(17)
C8 C 0.8439(3) 0.7586(2) 0.82789(19)
H4 H 0.8666 0.7797 0.8916
C9 C 0.9118(3) 0.6801(2) 0.78788(18)
C10 C 0.7199(3) 1.0100(2) 0.96442(18)
C11 C 0.3721(3) 0.7568(2) 0.56475(19)
H5 H 0.2898 0.6980 0.5443
C12 C 0.6166(3) 0.9319(2) 0.62609(17)
H6 H 0.6978 0.9911 0.6473
C13 C 0.4452(3) 0.8062(2) 0.50182(17)
C14 C 0.5521(3) 1.0097(2) 0.82287(18)
C15 C 0.8352(3) 1.0570(2) 0.41401(18)
H7 H 0.7520 1.0713 0.3767
H8 H 0.9201 1.1191 0.4332
C16 C 0.7774(3) 1.0214(2) 0.49681(18)
H9 H 0.8559 0.9988 0.5300
H10 H 0.7557 1.0766 0.5379
C17 C 0.9188(3) 0.6528(2) 0.69318(19)
C18 C 0.9814(3) 0.6318(2) 0.8481(2)
H11 H 0.9786 0.6488 0.9109
C19 C 0.5776(3) 1.1369(2) 0.96635(19)
H12 H 0.5079 1.1644 0.9364
C20 C 0.7452(3) 1.1361(2) 1.10103(19)
H13 H 0.7884 1.1644 1.1622
C21 C 0.9584(3) 1.0135(2) 0.28665(19)
H14 H 1.0548 1.0668 0.3099
H15 H 0.8892 1.0406 0.2508
C22 C 0.6417(3) 1.1789(2) 1.0566(2)
H16 H 0.6167 1.2351 1.0878
C23 C 0.9908(3) 0.9243(2) 0.22720(19)
H17 H 1.0636 0.9482 0.1865
H18 H 1.0369 0.8867 0.2656
C24 C 0.7843(3) 1.0534(2) 1.05643(19)
H19 H 0.8534 1.0263 1.0873
C25 C 0.8650(3) 0.7684(2) 0.1236(2)
H20 H 0.8962 0.7284 0.1652
H21 H 0.9446 0.7835 0.0845
C26 C 0.7127(3) 0.7102(2) 0.0660(2)
H22 H 0.6861 0.7473 0.0203
H23 H 0.7192 0.6447 0.0341
C27 C 0.9947(3) 0.5802(2) 0.6626(2)
H24 H 1.0006 0.5631 0.6002
C28 C 1.0610(3) 0.5336(2) 0.7237(2)
H25 H 1.1103 0.4848 0.7026
C29 C 0.2696(3) 0.6939(2) 0.37191(19)
H26 H 0.1810 0.7047 0.4001
H27 H 0.2873 0.6313 0.3844
C30 C 0.2393(3) 0.6875(3) 0.2707(2)
H28 H 0.1379 0.6403 0.2453
H29 H 0.2393 0.7538 0.2584
C31 C 0.3258(4) 0.6366(3) 0.1309(2)
H30 H 0.3057 0.6963 0.1129
H31 H 0.2335 0.5797 0.1085
C32 C 0.4605(4) 0.6145(3) 0.0891(2)
H32 H 0.4758 0.5518 0.1031
H33 H 0.4397 0.6061 0.0227
K1 K 0.63711(6) 0.81176(5) 0.29629(4)
Cl1A Cl -0.13191(10) 1.50085(7) 0.10524(6)
O1A O 0.36139(19) 1.06068(14) 0.53389(12)
O2A O 0.1122(2) 1.02054(15) 0.63867(12)
O3A O 0.5943(2) 1.22199(15) 0.59166(12)
O4A O 0.1509(2) 1.13963(15) 0.82533(13)
O5A O 0.5337(2) 0.95692(17) 0.22449(13)
O6A O 0.2533(3) 1.2662(3) 0.55561(18)
O7A O 0.6423(2) 1.34652(16) 0.77157(13)
O8A O 0.4031(2) 1.30393(17) 0.87502(13)
O9A O 0.1491(3) 1.30158(18) 0.36467(14)
H1A H 0.1296 1.3183 0.4167
O10A O 0.0741(3) 1.3403(2) 0.53474(15)
O11A O 0.1171(3) 1.2898(2) 0.66160(16)
N1A N 0.4032(2) 1.07591(18) 0.21471(14)
N2A N 0.2389(2) 1.07322(18) 0.07898(15)
N3A N 0.1482(3) 1.2976(2) 0.58472(16)
C1A C 0.4586(3) 1.1190(2) 0.31188(17)
C2A C 0.2978(3) 1.1127(2) 0.16430(17)
C3A C 0.4294(3) 1.1054(2) 0.46755(17)
C4A C -0.0537(3) 1.4402(2) 0.1838(2)
C5A C 0.2469(3) 1.1957(2) 0.21494(19)
H2A H 0.2785 1.2169 0.2782
C6A C 0.5794(3) 1.2057(2) 0.34063(19)
H3A H 0.6286 1.2391 0.2980
C7A C 0.3834(3) 0.9466(2) 0.08057(17)
C8A C 0.1561(3) 1.2414(2) 0.17211(19)
H4A H 0.1334 1.2203 0.1084
C9A C 0.0882(3) 1.3199(2) 0.21212(18)
C10A C 0.2801(3) 0.9900(2) 0.03558(18)
C11A C 0.6279(3) 1.2432(2) 0.43525(19)
H5A H 0.7102 1.3020 0.4557
C12A C 0.3834(3) 1.0681(2) 0.37391(17)
H6A H 0.3022 1.0089 0.3527
C13A C 0.5548(3) 1.1938(2) 0.49818(17)
C14A C 0.4479(3) 0.9903(2) 0.17713(18)
C15A C 0.1648(3) 0.9430(2) 0.58599(18)
H7A H 0.2480 0.9287 0.6233
H8A H 0.0799 0.8809 0.5668
C16A C 0.2226(3) 0.9786(2) 0.50319(18)
H9A H 0.1441 1.0012 0.4700
H10A H 0.2443 0.9234 0.4621
C17A C 0.0812(3) 1.3472(2) 0.30682(19)
C18A C 0.0186(3) 1.3682(2) 0.1519(2)
H11A H 0.0214 1.3512 0.0891
C19A C 0.4224(3) 0.8631(2) 0.03365(19)
H12A H 0.4921 0.8356 0.0636
C20A C 0.2548(3) 0.8639(2) -0.10103(19)
H13A H 0.2116 0.8356 -0.1622
C21A C 0.0416(3) 0.9865(2) 0.71335(19)
H14A H -0.0548 0.9332 0.6901
H15A H 0.1108 0.9594 0.7492
C22A C 0.3583(3) 0.8211(2) -0.0566(2)
H16A H 0.3833 0.7649 -0.0878
C23A C 0.0092(3) 1.0757(2) 0.77280(19)
H17A H -0.0636 1.0518 0.8135
H18A H -0.0369 1.1133 0.7344
C24A C 0.2157(3) 0.9466(2) -0.05643(19)
H19A H 0.1466 0.9737 -0.0873
C25A C 0.1350(3) 1.2316(2) 0.8764(2)
H20A H 0.1038 1.2716 0.8348
H21A H 0.0554 1.2165 0.9155
C26A C 0.2873(3) 1.2898(2) 0.9340(2)
H22A H 0.3139 1.2527 0.9797
H23A H 0.2808 1.3553 0.9659
C27A C 0.0053(3) 1.4198(2) 0.3374(2)
H24A H -0.0006 1.4369 0.3998
C28A C -0.0610(3) 1.4664(2) 0.2763(2)
H25A H -0.1103 1.5152 0.2974
C29A C 0.7304(3) 1.3061(2) 0.62809(19)
H26A H 0.8190 1.2953 0.5999
H27A H 0.7127 1.3687 0.6156
C30A C 0.7607(3) 1.3125(3) 0.7293(2)
H28A H 0.8621 1.3597 0.7547
H29A H 0.7607 1.2462 0.7416
C31A C 0.6742(4) 1.3634(3) 0.8691(2)
H30A H 0.6943 1.3037 0.8871
H31A H 0.7665 1.4203 0.8915
C32A C 0.5395(4) 1.3855(3) 0.9109(2)
H32A H 0.5242 1.4482 0.8969
H33A H 0.5603 1.3939 0.9773
K1A K 0.36289(6) 1.18824(5) 0.70371(4)
C33 C 0.4768(5) 0.5704(4) 0.7539(5)
N4 N 0.4696(6) 0.6092(4) 0.8273(4)
C34 C 0.4878(6) 0.5246(4) 0.6659(4)
H34 H 0.3937 0.5172 0.6255
H35 H 0.5027 0.4588 0.6665
H36 H 0.5747 0.5660 0.6445
loop_
_geom_bond_atom_site_label_1
_geom_bond_atom_site_label_2
_geom_bond_site_symmetry_1
_geom_bond_site_symmetry_2
Cl1 C4 1_555 1_555
O1 C3 1_555 1_555
O2 C15 1_555 1_555
O3 C13 1_555 1_555
O4 C23 1_555 1_555
O5 C14 1_555 1_555
O6 N3 1_555 1_555
O7 C30 1_555 1_555
O8 C26 1_555 1_555
O9 H1 1_555 1_555
O10 N3 1_555 1_555
O11 N3 1_555 1_555
N1 C1 1_555 1_555
N2 C2 1_555 1_555
C1 C6 1_555 1_555
C2 N1 1_555 1_555
C3 C12 1_555 1_555
C4 C18 1_555 1_555
C5 C2 1_555 1_555
H2 C5 1_555 1_555
C6 H3 1_555 1_555
C7 C10 1_555 1_555
C8 C5 1_555 1_555
H4 C8 1_555 1_555
C9 C8 1_555 1_555
C10 N2 1_555 1_555
C11 C6 1_555 1_555
H5 C11 1_555 1_555
C12 C1 1_555 1_555
H6 C12 1_555 1_555
C13 C3 1_555 1_555
C14 N1 1_555 1_555
C15 H7 1_555 1_555
H8 C15 1_555 1_555
C16 O1 1_555 1_555
H9 C16 1_555 1_555
H10 C16 1_555 1_555
C17 O9 1_555 1_555
C18 C9 1_555 1_555
H11 C18 1_555 1_555
C19 C7 1_555 1_555
H12 C19 1_555 1_555
C20 H13 1_555 1_555
C21 O2 1_555 1_555
H14 C21 1_555 1_555
H15 C21 1_555 1_555
C22 C19 1_555 1_555
H16 C22 1_555 1_555
C23 C21 1_555 1_555
H17 C23 1_555 1_555
H18 C23 1_555 1_555
C24 C10 1_555 1_555
H19 C24 1_555 1_555
C25 O4 1_555 1_555
H20 C25 1_555 1_555
H21 C25 1_555 1_555
C26 C25 1_555 1_555
H22 C26 1_555 1_555
H23 C26 1_555 1_555
C27 C17 1_555 1_555
H24 C27 1_555 1_555
C28 C4 1_555 1_555
H25 C28 1_555 1_555
C29 O3 1_555 1_555
H26 C29 1_555 1_555
H27 C29 1_555 1_555
C30 C29 1_555 1_555
H28 C30 1_555 1_555
H29 C30 1_555 1_555
C31 O7 1_555 1_555
H30 C31 1_555 1_555
H31 C31 1_555 1_555
C32 O8 1_555 1_555
H32 C32 1_555 1_555
H33 C32 1_555 1_555
K1 O1 1_555 1_555
C33 N4 1_555 1_555
C34 C33 1_555 1_555
H34 C34 1_555 1_555
H35 C34 1_555 1_555
H36 C34 1_555 1_555
Cl1A C4A 1_555 1_555
O1A C3A 1_555 1_555
O2A C15A 1_555 1_555
O3A C13A 1_555 1_555
O4A C23A 1_555 1_555
O5A K1 1_555 1_555
O6A N3A 1_555 1_555
O7A C30A 1_555 1_555
O8A C26A 1_555 1_555
O9A H1A 1_555 1_555
O10A N3A 1_555 1_555
O11A N3A 1_555 1_555
N1A C1A 1_555 1_555
N2A C2A 1_555 1_555
C1A C6A 1_555 1_555
C2A N1A 1_555 1_555
C3A C12A 1_555 1_555
C4A C18A 1_555 1_555
C5A C2A 1_555 1_555
H2A C5A 1_555 1_555
C6A H3A 1_555 1_555
C7A C10A 1_555 1_555
C8A C5A 1_555 1_555
H4A C8A 1_555 1_555
C9A C8A 1_555 1_555
C10A N2A 1_555 1_555
C11A C6A 1_555 1_555
H5A C11A 1_555 1_555
C12A C1A 1_555 1_555
H6A C12A 1_555 1_555
C13A C3A 1_555 1_555
C14A O5A 1_555 1_555
C15A H7A 1_555 1_555
H8A C15A 1_555 1_555
C16A O1A 1_555 1_555
H9A C16A 1_555 1_555
H10A C16A 1_555 1_555
C17A O9A 1_555 1_555
C18A C9A 1_555 1_555
H11A C18A 1_555 1_555
C19A C7A 1_555 1_555
H12A C19A 1_555 1_555
C20A H13A 1_555 1_555
C21A O2A 1_555 1_555
H14A C21A 1_555 1_555
H15A C21A 1_555 1_555
C22A C19A 1_555 1_555
H16A C22A 1_555 1_555
C23A C21A 1_555 1_555
H17A C23A 1_555 1_555
H18A C23A 1_555 1_555
C24A C10A 1_555 1_555
H19A C24A 1_555 1_555
C25A O4A 1_555 1_555
H20A C25A 1_555 1_555
H21A C25A 1_555 1_555
C26A C25A 1_555 1_555
H22A C26A 1_555 1_555
H23A C26A 1_555 1_555
C27A C17A 1_555 1_555
H24A C27A 1_555 1_555
C28A C4A 1_555 1_555
H25A C28A 1_555 1_555
C29A O3A 1_555 1_555
H26A C29A 1_555 1_555
H27A C29A 1_555 1_555
C30A C29A 1_555 1_555
H28A C30A 1_555 1_555
H29A C30A 1_555 1_555
C31A O7A 1_555 1_555
H30A C31A 1_555 1_555
H31A C31A 1_555 1_555
C32A O8A 1_555 1_555
H32A C32A 1_555 1_555
H33A C32A 1_555 1_555
K1A O5 1_555 1_555
O2 K1 1_555 1_555
O3 K1 1_555 1_555
O4 K1 1_555 1_555
O6 K1 1_555 1_555
O7 K1 1_555 1_555
O8 K1 1_555 1_555
O11 K1 1_555 1_555
C7 C14 1_555 1_555
C9 C17 1_555 1_555
C11 C13 1_555 1_555
C15 C16 1_555 1_555
C20 C22 1_555 1_555
C20 C24 1_555 1_555
C27 C28 1_555 1_555
C31 C32 1_555 1_555
O1A K1A 1_555 1_555
O2A K1A 1_555 1_555
O3A K1A 1_555 1_555
O4A K1A 1_555 1_555
O6A K1A 1_555 1_555
O7A K1A 1_555 1_555
O8A K1A 1_555 1_555
O11A K1A 1_555 1_555
N1A C14A 1_555 1_555
C7A C14A 1_555 1_555
C9A C17A 1_555 1_555
C11A C13A 1_555 1_555
C15A C16A 1_555 1_555
C20A C22A 1_555 1_555
C20A C24A 1_555 1_555
C27A C28A 1_555 1_555
C31A C32A 1_555 1_555

#END
