
#######################################################################
#
#                 Cambridge Crystallographic Data Centre
#                                CCDC 
#
#######################################################################
#
# If this CIF has been generated from an entry in the Cambridge 
# Structural Database, then it will include bibliographic, chemical, 
# crystal, experimental, refinement or atomic coordinate data resulting 
# from the CCDC's data processing and validation procedures.
#
#######################################################################

data_CEYFAQ
_chemical_name_common            
'bis(mu-18-([2-(2-hydroxyphenyl)ethenyl]-4-oxoquinazolin-3-yl)benzo-18-crown-6)-dinitrato-di-potassium acetonitrile solvate'
_chemical_formula_moiety         'C64 H68 K2 N6 O22,2(C2 H3 N1)'
_chemical_name_systematic        
'bis(\m-3-(2,3,5,6,8,9,11,12,14,15-decahydro-1,4,7,10,13,16-benzohexaoxacyclooctadecin-18-yl)-2-[2-(2-hydroxyphenyl)ethenyl]quinazolin-4(3H)-one)-dinitrato-di-potassium acetonitrile solvate'
_symmetry_cell_setting           monoclinic
_symmetry_space_group_name_H-M   'P 21/c'
_symmetry_Int_Tables_number      14
_space_group_name_Hall           '-P 2ybc'
loop_
_symmetry_equiv_pos_site_id
_symmetry_equiv_pos_as_xyz
1 x,y,z
2 -x,1/2+y,1/2-z
3 -x,-y,-z
4 x,1/2-y,1/2+z
_cell_length_a                   9.9460(6)
_cell_length_b                   15.6575(9)
_cell_length_c                   23.2478(16)
_cell_angle_alpha                90
_cell_angle_beta                 96.624(6)
_cell_angle_gamma                90
_cell_volume                     3596.2
_exptl_crystal_colour            'light yellow'
_exptl_crystal_description       prism
_cell_formula_units_Z            2
loop_
_atom_site_label
_atom_site_type_symbol
_atom_site_fract_x
_atom_site_fract_y
_atom_site_fract_z
K1 K 0.21817(7) 0.23070(4) 0.47807(3)
O1 O 0.06462(18) 0.08556(11) 0.44462(8)
O2 O 0.25806(18) 0.07139(11) 0.52914(8)
N1 N 0.1256(2) -0.20839(14) 0.38486(10)
O3 O 0.4140(2) 0.21379(12) 0.57241(9)
O4 O 0.0121(3) 0.24540(15) 0.38582(12)
O5 O -0.0255(2) -0.25591(14) 0.44458(11)
O6 O 0.3290(2) 0.37859(13) 0.53411(10)
N2 N 0.1597(2) -0.27945(14) 0.29739(10)
O7 O 0.3942(3) 0.01570(17) 0.32942(11)
C1 C 0.1256(2) 0.00704(16) 0.45026(11)
C2 C 0.0906(3) -0.06212(17) 0.41526(12)
H1 H 0.0194 -0.0581 0.3857
O8 O 0.5708(4) 0.2030(3) 0.3677(2)
C3 C 0.2324(3) -0.00061(17) 0.49573(12)
C4 C 0.2733(3) -0.1463(2) 0.31925(14)
C5 C 0.3301(3) -0.14315(19) 0.27049(13)
C6 C 0.4185(3) -0.07823(18) 0.25102(13)
C7 C 0.1619(3) -0.13751(17) 0.42433(12)
C8 C 0.0260(3) -0.26511(17) 0.39948(13)
C9 C -0.0084(3) -0.33200(16) 0.35704(13)
C10 C 0.1840(3) -0.21614(17) 0.33294(13)
C11 C 0.0628(3) -0.33846(17) 0.30901(13)
C12 C 0.4503(3) -0.00002(19) 0.28022(15)
C13 C 0.3012(3) -0.07648(18) 0.50356(13)
H2 H 0.3718 -0.0817 0.5333
C14 C 0.3683(3) 0.14786(19) 0.60856(13)
H3 H 0.2789 0.1619 0.6186
H4 H 0.4295 0.1434 0.6441
O9 O 0.1695(10) 0.3909(7) 0.4296(5)
C15 C 0.2661(3) -0.14564(17) 0.46741(13)
H5 H 0.3133 -0.1969 0.4726
C16 C -0.1134(3) -0.38958(19) 0.36427(15)
H6 H -0.1603 -0.3854 0.3965
O10 O 0.4593(5) 0.2780(3) 0.4224(2)
N3 N 0.4755(4) 0.2118(2) 0.39763(14)
O11 O 0.3934(5) 0.1552(3) 0.3994(2)
C17 C 0.4749(3) -0.0928(2) 0.19970(14)
H7 H 0.4531 -0.1429 0.1792
C18 C 0.3636(3) 0.06510(18) 0.57691(13)
H8 H 0.4500 0.0540 0.5628
H9 H 0.3445 0.0188 0.6024
C19 C 0.0313(3) -0.40576(19) 0.26990(14)
H10 H 0.0810 -0.4131 0.2388
C20 C -0.0724(3) -0.4606(2) 0.27736(16)
H11 H -0.0931 -0.5044 0.2508
C21 C 0.4510(4) 0.2897(2) 0.60320(16)
H12 H 0.5377 0.2821 0.6264
H13 H 0.3840 0.3033 0.6290
C22 C -0.0327(3) 0.0976(2) 0.39501(15)
H14 H -0.1054 0.0564 0.3955
H15 H 0.0097 0.0888 0.3600
C23 C 0.5371(3) 0.0571(2) 0.25828(18)
H16 H 0.5578 0.1083 0.2775
C24 C -0.1469(3) -0.4520(2) 0.32377(16)
H17 H -0.2193 -0.4884 0.3275
C25 C 0.5929(4) 0.0392(3) 0.2086(2)
H18 H 0.6525 0.0780 0.1949
C26 C -0.0883(3) 0.1860(2) 0.39571(18)
H19 H -0.1646 0.1916 0.3660
H20 H -0.1200 0.1973 0.4329
C27 C 0.5625(4) -0.0351(3) 0.17834(17)
H21 H 0.6000 -0.0464 0.1443
C28 C 0.4600(3) 0.3607(2) 0.56120(18)
H22 H 0.4980 0.4111 0.5812
H23 H 0.5185 0.3443 0.5324
C29 C 0.3236(5) 0.4483(2) 0.4949(2)
H24 H 0.3820 0.4372 0.4651
H25 H 0.3548 0.4999 0.5153
C30 C 0.1828(6) 0.4596(3) 0.4684(2)
H26 H 0.1193 0.4553 0.4969
H27 H 0.1704 0.5139 0.4484
C31 C -0.0428(16) 0.3379(10) 0.3913(8)
H28 H -0.0780 0.3458 0.4281
H29 H -0.1141 0.3501 0.3603
C32 C 0.0852(11) 0.3979(5) 0.3867(4)
H30 H 0.1267 0.3829 0.3523
H31 H 0.0556 0.4569 0.3829
H32 H 0.310(3) -0.1918(18) 0.2454(13)
H33 H 0.419(4) 0.065(2) 0.3424(16)
H34 H 0.288(3) -0.1009(18) 0.3432(13)
K1B K -0.21817(7) -0.23070(4) 0.52193(3)
O1B O -0.06462(18) -0.08556(11) 0.55538(8)
O2B O -0.25806(18) -0.07139(11) 0.47086(8)
N1B N -0.1256(2) 0.20839(14) 0.61514(10)
O3B O -0.4140(2) -0.21379(12) 0.42759(9)
O4B O -0.0121(3) -0.24540(15) 0.61418(12)
O5B O 0.0255(2) 0.25591(14) 0.55542(11)
O6B O -0.3290(2) -0.37859(13) 0.46589(10)
N2B N -0.1597(2) 0.27945(14) 0.70261(10)
O7B O -0.3942(3) -0.01570(17) 0.67058(11)
C1B C -0.1256(2) -0.00704(16) 0.54974(11)
C2B C -0.0906(3) 0.06212(17) 0.58474(12)
H1B H -0.0194 0.0581 0.6143
O8B O -0.5708(4) -0.2030(3) 0.6323(2)
C3B C -0.2324(3) 0.00061(17) 0.50427(12)
C4B C -0.2733(3) 0.1463(2) 0.68075(14)
C5B C -0.3301(3) 0.14315(19) 0.72951(13)
C6B C -0.4185(3) 0.07823(18) 0.74898(13)
C7B C -0.1619(3) 0.13751(17) 0.57567(12)
C8B C -0.0260(3) 0.26511(17) 0.60052(13)
C9B C 0.0084(3) 0.33200(16) 0.64296(13)
C10B C -0.1840(3) 0.21614(17) 0.66706(13)
C11B C -0.0628(3) 0.33846(17) 0.69099(13)
C12B C -0.4503(3) 0.00002(19) 0.71978(15)
C13B C -0.3012(3) 0.07648(18) 0.49644(13)
H2B H -0.3718 0.0817 0.4667
C14B C -0.3683(3) -0.14786(19) 0.39144(13)
H3B H -0.2789 -0.1619 0.3814
H4B H -0.4295 -0.1434 0.3559
O9B O -0.1695(10) -0.3909(7) 0.5704(5)
C15B C -0.2661(3) 0.14564(17) 0.53259(13)
H5B H -0.3133 0.1969 0.5274
C16B C 0.1134(3) 0.38958(19) 0.63573(15)
H6B H 0.1603 0.3854 0.6035
O10B O -0.4593(5) -0.2780(3) 0.5776(2)
N3B N -0.4755(4) -0.2118(2) 0.60237(14)
O11B O -0.3934(5) -0.1552(3) 0.6006(2)
C17B C -0.4749(3) 0.0928(2) 0.80030(14)
H7B H -0.4531 0.1429 0.8208
C18B C -0.3636(3) -0.06510(18) 0.42309(13)
H8B H -0.4500 -0.0540 0.4372
H9B H -0.3445 -0.0188 0.3976
C19B C -0.0313(3) 0.40576(19) 0.73010(14)
H10B H -0.0810 0.4131 0.7612
C20B C 0.0724(3) 0.4606(2) 0.72264(16)
H11B H 0.0931 0.5044 0.7492
C21B C -0.4510(4) -0.2897(2) 0.39680(16)
H12B H -0.5377 -0.2821 0.3736
H13B H -0.3840 -0.3033 0.3710
C22B C 0.0327(3) -0.0976(2) 0.60499(15)
H14B H 0.1054 -0.0564 0.6045
H15B H -0.0097 -0.0888 0.6400
C23B C -0.5371(3) -0.0571(2) 0.74172(18)
H16B H -0.5578 -0.1083 0.7225
C24B C 0.1469(3) 0.4520(2) 0.67623(16)
H17B H 0.2193 0.4884 0.6725
C25B C -0.5929(4) -0.0392(3) 0.7914(2)
H18B H -0.6525 -0.0780 0.8051
C26B C 0.0883(3) -0.1860(2) 0.60429(18)
H19B H 0.1646 -0.1916 0.6340
H20B H 0.1200 -0.1973 0.5671
C27B C -0.5625(4) 0.0351(3) 0.82166(17)
H21B H -0.6000 0.0464 0.8557
C28B C -0.4600(3) -0.3607(2) 0.43880(18)
H22B H -0.4980 -0.4111 0.4188
H23B H -0.5185 -0.3443 0.4676
C29B C -0.3236(5) -0.4483(2) 0.5051(2)
H24B H -0.3820 -0.4372 0.5349
H25B H -0.3548 -0.4999 0.4847
C30B C -0.1828(6) -0.4596(3) 0.5316(2)
H26B H -0.1193 -0.4553 0.5031
H27B H -0.1704 -0.5139 0.5516
C31B C 0.0428(16) -0.3379(10) 0.6087(8)
H28B H 0.0780 -0.3458 0.5719
H29B H 0.1141 -0.3501 0.6397
C32B C -0.0852(11) -0.3979(5) 0.6133(4)
H30B H -0.1267 -0.3829 0.6477
H31B H -0.0556 -0.4569 0.6171
H32B H -0.310(3) 0.1918(18) 0.7546(13)
H33B H -0.419(4) -0.065(2) 0.6576(16)
H34B H -0.288(3) 0.1009(18) 0.6568(13)
N4 N 0.1265(4) 0.3807(3) 0.21104(17)
C35 C 0.1762(4) 0.3279(3) 0.2382(2)
C36 C 0.2419(6) 0.2573(3) 0.2721(2)
H41 H 0.3357 0.2547 0.2662
H42 H 0.1985 0.2045 0.2600
H43 H 0.2344 0.2664 0.3125
H35? H 0.1308 0.4795 0.4986
H36? H 0.1828 0.5054 0.4403
C33? C -0.0108(12) 0.3819(7) 0.4215(5)
H37? H -0.0508 0.4374 0.4120
H38? H -0.0585 0.3566 0.4514
O12? O 0.1121(9) 0.3917(7) 0.4409(5)
C34? C -0.0290(15) 0.3245(8) 0.3670(5)
H39? H -0.1229 0.3235 0.3504
H40? H 0.0260 0.3451 0.3381
O13? O 0.540(3) 0.274(2) 0.4235(16)
O14? O 0.519(3) 0.1622(16) 0.3611(12)
O15? O 0.395(6) 0.159(4) 0.427(2)
loop_
_geom_bond_atom_site_label_1
_geom_bond_atom_site_label_2
_geom_bond_site_symmetry_1
_geom_bond_site_symmetry_2
K1 O1 1_555 1_555
O1 C1 1_555 1_555
O2 K1 1_555 1_555
N1 C7 1_555 1_555
O3 K1 1_555 1_555
O4 K1 1_555 1_555
O5 C8 1_555 1_555
O6 K1 1_555 1_555
N2 C10 1_555 1_555
O7 C12 1_555 1_555
C1 C2 1_555 1_555
C2 H1 1_555 1_555
O8 N3 1_555 1_555
C3 O2 1_555 1_555
C4 C5 1_555 1_555
C5 C6 1_555 1_555
C6 C12 1_555 1_555
C7 C2 1_555 1_555
C8 N1 1_555 1_555
C9 C8 1_555 1_555
C10 N1 1_555 1_555
C11 N2 1_555 1_555
C12 C23 1_555 1_555
C13 C3 1_555 1_555
H2 C13 1_555 1_555
C14 O3 1_555 1_555
H3 C14 1_555 1_555
H4 C14 1_555 1_555
O9 K1 1_555 1_555
C15 C7 1_555 1_555
H5 C15 1_555 1_555
C16 C9 1_555 1_555
H6 C16 1_555 1_555
O10 K1 1_555 1_555
N3 O10 1_555 1_555
O11 K1 1_555 1_555
C17 C6 1_555 1_555
H7 C17 1_555 1_555
C18 O2 1_555 1_555
H8 C18 1_555 1_555
H9 C18 1_555 1_555
C19 C11 1_555 1_555
H10 C19 1_555 1_555
C20 C19 1_555 1_555
H11 C20 1_555 1_555
C21 O3 1_555 1_555
H12 C21 1_555 1_555
H13 C21 1_555 1_555
C22 O1 1_555 1_555
H14 C22 1_555 1_555
H15 C22 1_555 1_555
C23 H16 1_555 1_555
C24 C16 1_555 1_555
H17 C24 1_555 1_555
C25 C23 1_555 1_555
H18 C25 1_555 1_555
C26 O4 1_555 1_555
H19 C26 1_555 1_555
H20 C26 1_555 1_555
C27 C17 1_555 1_555
H21 C27 1_555 1_555
C28 O6 1_555 1_555
H22 C28 1_555 1_555
H23 C28 1_555 1_555
C29 O6 1_555 1_555
H24 C29 1_555 1_555
H25 C29 1_555 1_555
C30 O9 1_555 1_555
H26 C30 1_555 1_555
H27 C30 1_555 1_555
C31 O4 1_555 1_555
H28 C31 1_555 1_555
H29 C31 1_555 1_555
C32 O9 1_555 1_555
H30 C32 1_555 1_555
H31 C32 1_555 1_555
H32 C5 1_555 1_555
H33 O7 1_555 1_555
H34 C4 1_555 1_555
N4 C35 1_555 1_555
C35 C36 1_555 1_555
C36 H41 1_555 1_555
H42 C36 1_555 1_555
H43 C36 1_555 1_555
K1B O5 1_555 1_555
O1B K1B 1_555 1_555
O2B K1B 1_555 1_555
N1B C7B 1_555 1_555
O3B K1B 1_555 1_555
O4B K1B 1_555 1_555
O5B K1 1_555 1_555
O6B K1B 1_555 1_555
N2B C10B 1_555 1_555
O7B C12B 1_555 1_555
C1B O1B 1_555 1_555
C2B C1B 1_555 1_555
H1B C2B 1_555 1_555
O8B N3B 1_555 1_555
C3B O2B 1_555 1_555
C4B C5B 1_555 1_555
C5B C6B 1_555 1_555
C6B C12B 1_555 1_555
C7B C2B 1_555 1_555
C8B N1B 1_555 1_555
C9B C8B 1_555 1_555
C10B N1B 1_555 1_555
C11B N2B 1_555 1_555
C12B C23B 1_555 1_555
C13B C3B 1_555 1_555
H2B C13B 1_555 1_555
C14B O3B 1_555 1_555
H3B C14B 1_555 1_555
H4B C14B 1_555 1_555
O9B K1B 1_555 1_555
C15B C7B 1_555 1_555
H5B C15B 1_555 1_555
C16B C9B 1_555 1_555
H6B C16B 1_555 1_555
O10B K1B 1_555 1_555
N3B O10B 1_555 1_555
O11B K1B 1_555 1_555
C17B C6B 1_555 1_555
H7B C17B 1_555 1_555
C18B O2B 1_555 1_555
H8B C18B 1_555 1_555
H9B C18B 1_555 1_555
C19B C11B 1_555 1_555
H10B C19B 1_555 1_555
C20B C19B 1_555 1_555
H11B C20B 1_555 1_555
C21B O3B 1_555 1_555
H12B C21B 1_555 1_555
H13B C21B 1_555 1_555
C22B O1B 1_555 1_555
H14B C22B 1_555 1_555
H15B C22B 1_555 1_555
C23B H16B 1_555 1_555
C24B C16B 1_555 1_555
H17B C24B 1_555 1_555
C25B C23B 1_555 1_555
H18B C25B 1_555 1_555
C26B O4B 1_555 1_555
H19B C26B 1_555 1_555
H20B C26B 1_555 1_555
C27B C17B 1_555 1_555
H21B C27B 1_555 1_555
C28B O6B 1_555 1_555
H22B C28B 1_555 1_555
H23B C28B 1_555 1_555
C29B O6B 1_555 1_555
H24B C29B 1_555 1_555
H25B C29B 1_555 1_555
C30B O9B 1_555 1_555
H26B C30B 1_555 1_555
H27B C30B 1_555 1_555
C31B O4B 1_555 1_555
H28B C31B 1_555 1_555
H29B C31B 1_555 1_555
C32B O9B 1_555 1_555
H30B C32B 1_555 1_555
H31B C32B 1_555 1_555
H32B C5B 1_555 1_555
H33B O7B 1_555 1_555
H34B C4B 1_555 1_555
C1 C3 1_555 1_555
C4 C10 1_555 1_555
C9 C11 1_555 1_555
C13 C15 1_555 1_555
C14 C18 1_555 1_555
N3 O11 1_555 1_555
C20 C24 1_555 1_555
C21 C28 1_555 1_555
C22 C26 1_555 1_555
C25 C27 1_555 1_555
C29 C30 1_555 1_555
C31 C32 1_555 1_555
O5B C8B 1_555 1_555
C1B C3B 1_555 1_555
C4B C10B 1_555 1_555
C9B C11B 1_555 1_555
C13B C15B 1_555 1_555
C14B C18B 1_555 1_555
N3B O11B 1_555 1_555
C20B C24B 1_555 1_555
C21B C28B 1_555 1_555
C22B C26B 1_555 1_555
C25B C27B 1_555 1_555
C29B C30B 1_555 1_555
C31B C32B 1_555 1_555

#END
