
#######################################################################
#
#                 Cambridge Crystallographic Data Centre
#                                CCDC 
#
#######################################################################
#
# If this CIF has been generated from an entry in the Cambridge 
# Structural Database, then it will include bibliographic, chemical, 
# crystal, experimental, refinement or atomic coordinate data resulting 
# from the CCDC's data processing and validation procedures.
#
#######################################################################

data_CEYHUL
_chemical_formula_moiety         'C10 H14 O2'
_chemical_name_systematic        2,3-bis(prop-2-yn-1-yl)butane-1,4-diol
_symmetry_cell_setting           monoclinic
_symmetry_space_group_name_H-M   'C c'
_symmetry_Int_Tables_number      9
_space_group_name_Hall           'C -2yc'
loop_
_symmetry_equiv_pos_site_id
_symmetry_equiv_pos_as_xyz
1 x,y,z
2 x,-y,1/2+z
3 1/2+x,1/2+y,z
4 1/2+x,1/2-y,1/2+z
_cell_length_a                   14.8047(19)
_cell_length_b                   24.843(3)
_cell_length_c                   5.0851(7)
_cell_angle_alpha                90
_cell_angle_beta                 101.707(6)
_cell_angle_gamma                90
_cell_volume                     1831.36
_exptl_crystal_colour            colorless
_exptl_crystal_description       block
_cell_formula_units_Z            8
loop_
_atom_site_label
_atom_site_type_symbol
_atom_site_fract_x
_atom_site_fract_y
_atom_site_fract_z
O1 O 0.22813(13) 0.27314(8) 0.9015(4)
H1 H 0.2447 0.2604 1.0569
C1 C 0.16481(17) 0.35226(11) 0.6642(5)
H2 H 0.1468 0.3291 0.5013
O2 O 0.02947(15) 0.47669(9) 0.4038(4)
H3 H 0.0305 0.4971 0.2729
C2 C 0.09169(19) 0.39725(13) 0.6455(5)
H4 H 0.1091 0.4203 0.8092
C3 C 0.1659(2) 0.31708(11) 0.9070(6)
H5 H 0.1860 0.3384 1.0732
H6 H 0.1031 0.3032 0.9052
C4 C 0.0919(2) 0.43295(13) 0.4001(6)
H7 H 0.1549 0.4469 0.4049
H8 H 0.0726 0.4117 0.2334
C5 C 0.26280(19) 0.37376(11) 0.6678(6)
H9 H 0.3070 0.3434 0.7014
H10 H 0.2649 0.3889 0.4890
C6 C 0.29191(19) 0.41552(12) 0.8736(6)
C7 C 0.3142(2) 0.44851(13) 1.0419(7)
H11 H 0.3321 0.4750 1.1771
C8 C -0.0064(2) 0.37579(12) 0.6367(6)
H12 H -0.0093 0.3602 0.8140
H13 H -0.0503 0.4063 0.6039
C9 C -0.0351(2) 0.33508(13) 0.4304(7)
C10 C -0.0580(3) 0.30145(15) 0.2627(8)
H14 H -0.0764 0.2747 0.1292
O3 O 0.22820(16) 0.22686(9) 0.4015(4)
H15 H 0.2436 0.2400 0.5562
C11 C 0.1644(2) 0.14758(14) 0.1636(6)
H16 H 0.1461 0.1707 0.0004
O4 O 0.02939(16) 0.02330(9) -0.0964(5)
H17 H 0.0318 0.0022 -0.2241
C12 C 0.0928(2) 0.10224(15) 0.1447(6)
H18 H 0.1105 0.0792 0.3081
C13 C 0.1660(2) 0.18283(14) 0.4066(7)
H19 H 0.1033 0.1967 0.4056
H20 H 0.1863 0.1615 0.5726
C14 C 0.0921(2) 0.06705(13) -0.1001(6)
H21 H 0.0725 0.0885 -0.2660
H22 H 0.1549 0.0530 -0.0972
C15 C 0.2628(2) 0.12631(13) 0.1677(6)
H23 H 0.2651 0.1112 -0.0109
H24 H 0.3068 0.1568 0.2014
C16 C 0.2920(2) 0.08461(15) 0.3740(7)
C17 C 0.3141(3) 0.05128(15) 0.5413(9)
H25 H 0.3318 0.0246 0.6754
C18 C -0.0061(2) 0.12416(13) 0.1365(7)
H26 H -0.0502 0.0938 0.1045
H27 H -0.0087 0.1398 0.3139
C19 C -0.0349(2) 0.16478(15) -0.0695(8)
C20 C -0.0582(3) 0.19856(16) -0.2372(8)
H28 H -0.0766 0.2254 -0.3705
loop_
_geom_bond_atom_site_label_1
_geom_bond_atom_site_label_2
_geom_bond_site_symmetry_1
_geom_bond_site_symmetry_2
O1 H1 1_555 1_555
C1 H2 1_555 1_555
O2 H3 1_555 1_555
C2 C1 1_555 1_555
H4 C2 1_555 1_555
C3 O1 1_555 1_555
H5 C3 1_555 1_555
H6 C3 1_555 1_555
C4 O2 1_555 1_555
H7 C4 1_555 1_555
H8 C4 1_555 1_555
C5 C1 1_555 1_555
H9 C5 1_555 1_555
H10 C5 1_555 1_555
C6 C5 1_555 1_555
C7 C6 1_555 1_555
H11 C7 1_555 1_555
C8 C2 1_555 1_555
H12 C8 1_555 1_555
H13 C8 1_555 1_555
C9 C8 1_555 1_555
C10 C9 1_555 1_555
H14 C10 1_555 1_555
O3 H15 1_555 1_555
C11 H16 1_555 1_555
O4 H17 1_555 1_555
C12 C11 1_555 1_555
H18 C12 1_555 1_555
C13 O3 1_555 1_555
H19 C13 1_555 1_555
H20 C13 1_555 1_555
C14 O4 1_555 1_555
H21 C14 1_555 1_555
H22 C14 1_555 1_555
C15 C11 1_555 1_555
H23 C15 1_555 1_555
H24 C15 1_555 1_555
C16 C15 1_555 1_555
C17 C16 1_555 1_555
H25 C17 1_555 1_555
C18 C12 1_555 1_555
H26 C18 1_555 1_555
H27 C18 1_555 1_555
C19 C18 1_555 1_555
C20 C19 1_555 1_555
H28 C20 1_555 1_555
C1 C3 1_555 1_555
C2 C4 1_555 1_555
C11 C13 1_555 1_555
C12 C14 1_555 1_555

#END
