
#######################################################################
#
#                 Cambridge Crystallographic Data Centre
#                                CCDC 
#
#######################################################################
#
# If this CIF has been generated from an entry in the Cambridge 
# Structural Database, then it will include bibliographic, chemical, 
# crystal, experimental, refinement or atomic coordinate data resulting 
# from the CCDC's data processing and validation procedures.
#
#######################################################################

data_CEYJAT
_chemical_formula_moiety         'C10 H10 O4'
_chemical_name_systematic        '2,3-bis(prop-2-yn-1-yl)succinic acid'
_symmetry_cell_setting           triclinic
_symmetry_space_group_name_H-M   'P -1'
_symmetry_Int_Tables_number      2
_space_group_name_Hall           '-P 1'
loop_
_symmetry_equiv_pos_site_id
_symmetry_equiv_pos_as_xyz
1 x,y,z
2 -x,-y,-z
_cell_length_a                   6.8784(5)
_cell_length_b                   8.2785(6)
_cell_length_c                   8.5427(6)
_cell_angle_alpha                78.119(3)
_cell_angle_beta                 87.930(3)
_cell_angle_gamma                88.399(3)
_cell_volume                     475.609
_exptl_crystal_colour            colorless
_exptl_crystal_description       plates
_cell_formula_units_Z            2
loop_
_atom_site_label
_atom_site_type_symbol
_atom_site_fract_x
_atom_site_fract_y
_atom_site_fract_z
O1 O 0.37811(12) 0.42049(10) 0.66875(11)
C1 C 0.30364(17) 0.34053(14) 0.58217(16)
O2 O 0.34555(13) 0.35831(11) 0.42805(11)
H1 H 0.445(3) 0.445(3) 0.396(3)
C2 C 0.08333(17) 0.32746(15) 0.89541(16)
O3 O 0.15373(13) 0.34169(11) 1.02160(12)
C3 C 0.15213(17) 0.21118(14) 0.64126(15)
H2 H 0.2057 0.1063 0.6144
O4 O -0.04007(13) 0.43458(11) 0.81564(12)
H3 H -0.078(3) 0.522(3) 0.880(3)
C4 C 0.12190(17) 0.17641(14) 0.82410(15)
H4 H 0.0028 0.1080 0.8488
C5 C -0.03573(18) 0.25430(15) 0.54461(16)
H5 H -0.0887 0.3625 0.5601
H6 H -0.0035 0.2637 0.4293
C6 C -0.18363(18) 0.12875(16) 0.59466(16)
C7 C -0.29998(19) 0.02424(17) 0.63831(17)
H7 H -0.3930 -0.0593 0.6732
C8 C 0.28980(17) 0.07073(15) 0.90913(16)
H8 H 0.4146 0.1250 0.8730
H9 H 0.2740 0.0639 1.0259
C9 C 0.29673(17) -0.09685(15) 0.87687(16)
C10 C 0.30436(19) -0.23260(16) 0.85118(18)
H10 H 0.3105 -0.3412 0.8306
loop_
_geom_bond_atom_site_label_1
_geom_bond_atom_site_label_2
_geom_bond_site_symmetry_1
_geom_bond_site_symmetry_2
O1 C1 1_555 1_555
C1 O2 1_555 1_555
O2 H1 1_555 1_555
C2 O3 1_555 1_555
C3 C1 1_555 1_555
H2 C3 1_555 1_555
O4 C2 1_555 1_555
H3 O4 1_555 1_555
C4 C2 1_555 1_555
H4 C4 1_555 1_555
C5 C3 1_555 1_555
H5 C5 1_555 1_555
H6 C5 1_555 1_555
C6 C5 1_555 1_555
C7 C6 1_555 1_555
H7 C7 1_555 1_555
C8 C4 1_555 1_555
H8 C8 1_555 1_555
H9 C8 1_555 1_555
C9 C8 1_555 1_555
C10 C9 1_555 1_555
H10 C10 1_555 1_555
C3 C4 1_555 1_555

#END
