
#######################################################################
#
#                 Cambridge Crystallographic Data Centre
#                                CCDC 
#
#######################################################################
#
# If this CIF has been generated from an entry in the Cambridge 
# Structural Database, then it will include bibliographic, chemical, 
# crystal, experimental, refinement or atomic coordinate data resulting 
# from the CCDC's data processing and validation procedures.
#
#######################################################################

data_CEYPIH
_chemical_formula_moiety         'C72 H126 Li6 N12 S6'
_chemical_name_systematic        
hexakis(\m~3~-1-Isopropyl-2,2-dimethyl-5-propyl-1,2-dihydropyrimidine-4-thiolato)-hexa-lithium
_symmetry_cell_setting           monoclinic
_symmetry_space_group_name_H-M   'P 21/c'
_symmetry_Int_Tables_number      14
_space_group_name_Hall           '-P 2ybc'
loop_
_symmetry_equiv_pos_site_id
_symmetry_equiv_pos_as_xyz
1 x,y,z
2 -x,1/2+y,1/2-z
3 -x,-y,-z
4 x,1/2-y,1/2+z
_cell_length_a                   15.514(3)
_cell_length_b                   17.131(3)
_cell_length_c                   17.679(4)
_cell_angle_alpha                90
_cell_angle_beta                 114.08(3)
_cell_angle_gamma                90
_cell_volume                     4289.67
_chemical_melting_point          331.9-332.8K
_cell_formula_units_Z            2
loop_
_atom_site_label
_atom_site_type_symbol
_atom_site_fract_x
_atom_site_fract_y
_atom_site_fract_z
C1 C 0.4997(3) 0.4686(3) 0.2335(3)
C2 C 0.5141(3) 0.3355(3) 0.2723(3)
C3 C 0.5437(3) 0.4364(3) 0.3735(3)
H1 H 0.5573 0.4505 0.4292
C4 C 0.5045(3) 0.4912(3) 0.3151(3)
C5 C 0.4796(3) 0.5710(2) 0.3351(3)
H2 H 0.5077 0.6109 0.3116
H3 H 0.5068 0.5780 0.3960
C6 C 0.3686(4) 0.5836(3) 0.2993(4)
H4 H 0.3568 0.6360 0.3167
H5 H 0.3441 0.5841 0.2380
C7 C 0.3143(5) 0.5281(4) 0.3223(5)
H6 H 0.3196 0.4766 0.3005
H7 H 0.2480 0.5443 0.2992
H8 H 0.3383 0.5256 0.3828
C8 C 0.4126(3) 0.3131(3) 0.2565(3)
H9 H 0.4132 0.2661 0.2885
H10 H 0.3767 0.3026 0.1974
H11 H 0.3828 0.3560 0.2737
C9 C 0.5665(3) 0.2675(3) 0.2540(3)
H12 H 0.6337 0.2805 0.2737
H13 H 0.5403 0.2579 0.1942
H14 H 0.5592 0.2206 0.2826
C10 C 0.6141(3) 0.3087(3) 0.4294(3)
H15 H 0.6110 0.2555 0.4051
C11 C 0.5665(3) 0.3033(3) 0.4889(3)
H16 H 0.5757 0.3524 0.5197
H17 H 0.5943 0.2603 0.5277
H18 H 0.4989 0.2939 0.4576
C12 C 0.7184(3) 0.3293(3) 0.4750(3)
H19 H 0.7244 0.3798 0.5028
H20 H 0.7475 0.3325 0.4352
H21 H 0.7503 0.2890 0.5162
C13 C 0.2461(3) 0.5600(3) -0.1735(3)
C14 C 0.1940(3) 0.4632(3) -0.2824(3)
C15 C 0.0855(3) 0.5567(4) -0.2690(3)
H22 H 0.0235 0.5778 -0.2916
C16 C 0.1569(3) 0.6019(3) -0.2151(3)
C17 C 0.1418(3) 0.6840(3) -0.1921(3)
H23 H 0.1682 0.6882 -0.1310
H24 H 0.0731 0.6940 -0.2134
C18 C 0.1869(3) 0.7468(3) -0.2258(4)
H25 H 0.1830 0.7977 -0.2008
H26 H 0.2545 0.7343 -0.2089
C19 C 0.1401(4) 0.7537(3) -0.3185(4)
H27 H 0.1520 0.7063 -0.3437
H28 H 0.1658 0.7989 -0.3363
H29 H 0.0719 0.7605 -0.3361
C20 C 0.0166(4) 0.4332(4) -0.3402(4)
H30 H 0.0403 0.3787 -0.3391
C21 C -0.0579(5) 0.4315(5) -0.3085(4)
H31 H -0.0592 0.4816 -0.2822
H32 H -0.0448 0.3894 -0.2677
H33 H -0.1193 0.4223 -0.3545
C22 C -0.0333(6) 0.4560(6) -0.4250(5)
H34 H -0.0561 0.5097 -0.4274
H35 H -0.0872 0.4209 -0.4520
H36 H 0.0091 0.4530 -0.4535
C23 C 0.2099(4) 0.3749(3) -0.2805(3)
H37 H 0.1934 0.3513 -0.2376
H38 H 0.2763 0.3643 -0.2682
H39 H 0.1699 0.3526 -0.3346
C24 C 0.2190(3) 0.5055(3) -0.3479(3)
H40 H 0.1784 0.4862 -0.4032
H41 H 0.2853 0.4954 -0.3370
H42 H 0.2094 0.5618 -0.3451
C25 C 0.2942(3) 0.3606(3) -0.0002(3)
C26 C 0.1675(3) 0.4321(3) 0.0086(3)
C27 C 0.1909(4) 0.2972(3) 0.0473(3)
H43 H 0.1708 0.2517 0.0664
C28 C 0.2573(3) 0.2886(3) 0.0146(3)
C29 C 0.3053(3) 0.2041(3) 0.0173(3)
H44 H 0.3748 0.2103 0.0415
H45 H 0.2890 0.1690 0.0540
C30 C 0.2740(4) 0.1660(5) -0.0681(4)
H46 H 0.2914 0.2000 -0.1049
H47 H 0.3067 0.1153 -0.0627
C31 C 0.1672(4) 0.1531(6) -0.1058(5)
H48 H 0.1349 0.2036 -0.1203
H49 H 0.1490 0.1264 -0.0655
H50 H 0.1493 0.1209 -0.1558
C32 C 0.0818(3) 0.3663(3) 0.0888(3)
H51 H 0.0539 0.4198 0.0805
C33 C 0.0014(3) 0.3094(3) 0.0481(3)
H52 H -0.0262 0.3177 -0.0120
H53 H -0.0469 0.3179 0.0696
H54 H 0.0253 0.2558 0.0603
C34 C 0.1331(3) 0.3521(4) 0.1853(3)
H55 H 0.1591 0.2991 0.1958
H56 H 0.0877 0.3583 0.2104
H57 H 0.1844 0.3900 0.2097
C35 C 0.0940(3) 0.4285(3) -0.0806(3)
H58 H 0.0972 0.3775 -0.1044
H59 H 0.1067 0.4698 -0.1131
H60 H 0.0309 0.4360 -0.0816
C36 C 0.1648(3) 0.5076(3) 0.0494(4)
H61 H 0.1009 0.5167 0.0458
H62 H 0.1825 0.5501 0.0215
H63 H 0.2093 0.5057 0.1077
Li1 Li 0.3607(4) 0.5039(4) 0.0273(4)
Li2 Li 0.3797(4) 0.4515(5) -0.1251(4)
Li3 Li 0.5272(5) 0.3975(4) 0.1114(4)
N1 N 0.5129(2) 0.3980(2) 0.2150(2)
N2 N 0.5654(2) 0.3630(2) 0.3595(2)
N3 N 0.2618(2) 0.4276(2) 0.0080(2)
N4 N 0.1531(2) 0.3661(3) 0.0537(2)
N5 N 0.2610(2) 0.4929(2) -0.2000(2)
N6 N 0.0979(3) 0.4834(3) -0.2923(2)
S1 S 0.48426(7) 0.54348(6) 0.15797(7)
S2 S 0.33360(7) 0.59811(7) -0.08244(7)
S3 S 0.40110(7) 0.35861(7) -0.01524(7)
C1B C 0.5003(3) 0.5314(3) -0.2335(3)
C2B C 0.4859(3) 0.6645(3) -0.2723(3)
C3B C 0.4563(3) 0.5636(3) -0.3735(3)
H1B H 0.4427 0.5495 -0.4292
C4B C 0.4955(3) 0.5088(3) -0.3151(3)
C5B C 0.5204(3) 0.4290(2) -0.3351(3)
H2B H 0.4923 0.3891 -0.3116
H3B H 0.4932 0.4220 -0.3960
C6B C 0.6314(4) 0.4164(3) -0.2993(4)
H4B H 0.6432 0.3640 -0.3167
H5B H 0.6559 0.4159 -0.2380
C7B C 0.6857(5) 0.4719(4) -0.3223(5)
H6B H 0.6804 0.5234 -0.3005
H7B H 0.7520 0.4557 -0.2992
H8B H 0.6617 0.4744 -0.3828
C8B C 0.5874(3) 0.6869(3) -0.2565(3)
H9B H 0.5868 0.7339 -0.2885
H10B H 0.6233 0.6974 -0.1974
H11B H 0.6172 0.6440 -0.2737
C9B C 0.4335(3) 0.7325(3) -0.2540(3)
H12B H 0.3663 0.7195 -0.2737
H13B H 0.4597 0.7421 -0.1942
H14B H 0.4408 0.7794 -0.2826
C10B C 0.3859(3) 0.6913(3) -0.4294(3)
H15B H 0.3890 0.7445 -0.4051
C11B C 0.4335(3) 0.6967(3) -0.4889(3)
H16B H 0.4243 0.6476 -0.5197
H17B H 0.4057 0.7397 -0.5277
H18B H 0.5011 0.7061 -0.4576
C12B C 0.2816(3) 0.6707(3) -0.4750(3)
H19B H 0.2756 0.6202 -0.5028
H20B H 0.2525 0.6675 -0.4352
H21B H 0.2497 0.7110 -0.5162
C13B C 0.7539(3) 0.4400(3) 0.1735(3)
C14B C 0.8060(3) 0.5368(3) 0.2824(3)
C15B C 0.9145(3) 0.4433(4) 0.2690(3)
H22B H 0.9765 0.4222 0.2916
C16B C 0.8431(3) 0.3981(3) 0.2151(3)
C17B C 0.8582(3) 0.3160(3) 0.1921(3)
H23B H 0.8318 0.3118 0.1310
H24B H 0.9269 0.3060 0.2134
C18B C 0.8131(3) 0.2532(3) 0.2258(4)
H25B H 0.8170 0.2023 0.2008
H26B H 0.7455 0.2657 0.2089
C19B C 0.8599(4) 0.2463(3) 0.3185(4)
H27B H 0.8480 0.2937 0.3437
H28B H 0.8342 0.2011 0.3363
H29B H 0.9281 0.2395 0.3361
C20B C 0.9834(4) 0.5668(4) 0.3402(4)
H30B H 0.9597 0.6213 0.3391
C21B C 1.0579(5) 0.5685(5) 0.3085(4)
H31B H 1.0592 0.5184 0.2822
H32B H 1.0448 0.6106 0.2677
H33B H 1.1193 0.5777 0.3545
C22B C 1.0333(6) 0.5440(6) 0.4250(5)
H34B H 1.0561 0.4903 0.4274
H35B H 1.0872 0.5791 0.4520
H36B H 0.9909 0.5470 0.4535
C23B C 0.7901(4) 0.6251(3) 0.2805(3)
H37B H 0.8066 0.6487 0.2376
H38B H 0.7237 0.6357 0.2682
H39B H 0.8301 0.6474 0.3346
C24B C 0.7810(3) 0.4945(3) 0.3479(3)
H40B H 0.8216 0.5138 0.4032
H41B H 0.7147 0.5046 0.3370
H42B H 0.7906 0.4382 0.3451
C25B C 0.7058(3) 0.6394(3) 0.0002(3)
C26B C 0.8325(3) 0.5679(3) -0.0086(3)
C27B C 0.8091(4) 0.7028(3) -0.0473(3)
H43B H 0.8292 0.7483 -0.0664
C28B C 0.7427(3) 0.7114(3) -0.0146(3)
C29B C 0.6947(3) 0.7959(3) -0.0173(3)
H44B H 0.6252 0.7897 -0.0415
H45B H 0.7110 0.8310 -0.0540
C30B C 0.7260(4) 0.8340(5) 0.0681(4)
H46B H 0.7086 0.8000 0.1049
H47B H 0.6933 0.8847 0.0627
C31B C 0.8328(4) 0.8469(6) 0.1058(5)
H48B H 0.8651 0.7964 0.1203
H49B H 0.8510 0.8736 0.0655
H50B H 0.8507 0.8791 0.1558
C32B C 0.9182(3) 0.6337(3) -0.0888(3)
H51B H 0.9461 0.5802 -0.0805
C33B C 0.9986(3) 0.6906(3) -0.0481(3)
H52B H 1.0262 0.6823 0.0120
H53B H 1.0469 0.6821 -0.0696
H54B H 0.9747 0.7442 -0.0603
C34B C 0.8669(3) 0.6479(4) -0.1853(3)
H55B H 0.8409 0.7009 -0.1958
H56B H 0.9123 0.6417 -0.2104
H57B H 0.8156 0.6100 -0.2097
C35B C 0.9060(3) 0.5715(3) 0.0806(3)
H58B H 0.9028 0.6225 0.1044
H59B H 0.8933 0.5302 0.1131
H60B H 0.9691 0.5640 0.0816
C36B C 0.8352(3) 0.4924(3) -0.0494(4)
H61B H 0.8991 0.4833 -0.0458
H62B H 0.8175 0.4499 -0.0215
H63B H 0.7907 0.4943 -0.1077
Li1B Li 0.6393(4) 0.4961(4) -0.0273(4)
Li2B Li 0.6203(4) 0.5485(5) 0.1251(4)
Li3B Li 0.4728(5) 0.6025(4) -0.1114(4)
N1B N 0.4871(2) 0.6020(2) -0.2150(2)
N2B N 0.4346(2) 0.6370(2) -0.3595(2)
N3B N 0.7382(2) 0.5724(2) -0.0080(2)
N4B N 0.8469(2) 0.6339(3) -0.0537(2)
N5B N 0.7390(2) 0.5071(2) 0.2000(2)
N6B N 0.9021(3) 0.5166(3) 0.2923(2)
S1B S 0.51574(7) 0.45652(6) -0.15797(7)
S2B S 0.66640(7) 0.40189(7) 0.08244(7)
S3B S 0.59890(7) 0.64139(7) 0.01524(7)
loop_
_geom_bond_atom_site_label_1
_geom_bond_atom_site_label_2
_geom_bond_site_symmetry_1
_geom_bond_site_symmetry_2
C1 C4 1_555 1_555
C2 C8 1_555 1_555
C3 H1 1_555 1_555
C4 C3 1_555 1_555
C5 C4 1_555 1_555
H2 C5 1_555 1_555
H3 C5 1_555 1_555
C6 C5 1_555 1_555
H4 C6 1_555 1_555
H5 C6 1_555 1_555
C7 C6 1_555 1_555
H6 C7 1_555 1_555
H7 C7 1_555 1_555
H8 C7 1_555 1_555
C8 H9 1_555 1_555
H10 C8 1_555 1_555
H11 C8 1_555 1_555
C9 C2 1_555 1_555
H12 C9 1_555 1_555
H13 C9 1_555 1_555
H14 C9 1_555 1_555
C10 H15 1_555 1_555
C11 C10 1_555 1_555
H16 C11 1_555 1_555
H17 C11 1_555 1_555
H18 C11 1_555 1_555
C12 C10 1_555 1_555
H19 C12 1_555 1_555
H20 C12 1_555 1_555
H21 C12 1_555 1_555
C13 C16 1_555 1_555
C14 C23 1_555 1_555
C15 H22 1_555 1_555
C16 C15 1_555 1_555
C17 C16 1_555 1_555
H23 C17 1_555 1_555
H24 C17 1_555 1_555
C18 C17 1_555 1_555
H25 C18 1_555 1_555
H26 C18 1_555 1_555
C19 C18 1_555 1_555
H27 C19 1_555 1_555
H28 C19 1_555 1_555
H29 C19 1_555 1_555
C20 H30 1_555 1_555
C21 C20 1_555 1_555
H31 C21 1_555 1_555
H32 C21 1_555 1_555
H33 C21 1_555 1_555
C22 C20 1_555 1_555
H34 C22 1_555 1_555
H35 C22 1_555 1_555
H36 C22 1_555 1_555
C23 H37 1_555 1_555
H38 C23 1_555 1_555
H39 C23 1_555 1_555
C24 C14 1_555 1_555
H40 C24 1_555 1_555
H41 C24 1_555 1_555
H42 C24 1_555 1_555
C25 C28 1_555 1_555
C26 C35 1_555 1_555
C27 H43 1_555 1_555
C28 C27 1_555 1_555
C29 C28 1_555 1_555
H44 C29 1_555 1_555
H45 C29 1_555 1_555
C30 C29 1_555 1_555
H46 C30 1_555 1_555
H47 C30 1_555 1_555
C31 C30 1_555 1_555
H48 C31 1_555 1_555
H49 C31 1_555 1_555
H50 C31 1_555 1_555
C32 H51 1_555 1_555
C33 C32 1_555 1_555
H52 C33 1_555 1_555
H53 C33 1_555 1_555
H54 C33 1_555 1_555
C34 C32 1_555 1_555
H55 C34 1_555 1_555
H56 C34 1_555 1_555
H57 C34 1_555 1_555
C35 H58 1_555 1_555
H59 C35 1_555 1_555
H60 C35 1_555 1_555
C36 C26 1_555 1_555
H61 C36 1_555 1_555
H62 C36 1_555 1_555
H63 C36 1_555 1_555
Li1 N3 1_555 1_555
Li2 N5 1_555 1_555
Li3 N1 1_555 1_555
N1 C1 1_555 1_555
N2 C2 1_555 1_555
N3 C25 1_555 1_555
N4 C26 1_555 1_555
N5 C13 1_555 1_555
N6 C14 1_555 1_555
S1 C1 1_555 1_555
S2 C13 1_555 1_555
S3 C25 1_555 1_555
C1B C4B 1_555 1_555
C2B C8B 1_555 1_555
C3B H1B 1_555 1_555
C4B C3B 1_555 1_555
C5B C4B 1_555 1_555
H2B C5B 1_555 1_555
H3B C5B 1_555 1_555
C6B C5B 1_555 1_555
H4B C6B 1_555 1_555
H5B C6B 1_555 1_555
C7B C6B 1_555 1_555
H6B C7B 1_555 1_555
H7B C7B 1_555 1_555
H8B C7B 1_555 1_555
C8B H9B 1_555 1_555
H10B C8B 1_555 1_555
H11B C8B 1_555 1_555
C9B C2B 1_555 1_555
H12B C9B 1_555 1_555
H13B C9B 1_555 1_555
H14B C9B 1_555 1_555
C10B H15B 1_555 1_555
C11B C10B 1_555 1_555
H16B C11B 1_555 1_555
H17B C11B 1_555 1_555
H18B C11B 1_555 1_555
C12B C10B 1_555 1_555
H19B C12B 1_555 1_555
H20B C12B 1_555 1_555
H21B C12B 1_555 1_555
C13B C16B 1_555 1_555
C14B C23B 1_555 1_555
C15B H22B 1_555 1_555
C16B C15B 1_555 1_555
C17B C16B 1_555 1_555
H23B C17B 1_555 1_555
H24B C17B 1_555 1_555
C18B C17B 1_555 1_555
H25B C18B 1_555 1_555
H26B C18B 1_555 1_555
C19B C18B 1_555 1_555
H27B C19B 1_555 1_555
H28B C19B 1_555 1_555
H29B C19B 1_555 1_555
C20B H30B 1_555 1_555
C21B C20B 1_555 1_555
H31B C21B 1_555 1_555
H32B C21B 1_555 1_555
H33B C21B 1_555 1_555
C22B C20B 1_555 1_555
H34B C22B 1_555 1_555
H35B C22B 1_555 1_555
H36B C22B 1_555 1_555
C23B H37B 1_555 1_555
H38B C23B 1_555 1_555
H39B C23B 1_555 1_555
C24B C14B 1_555 1_555
H40B C24B 1_555 1_555
H41B C24B 1_555 1_555
H42B C24B 1_555 1_555
C25B C28B 1_555 1_555
C26B C35B 1_555 1_555
C27B H43B 1_555 1_555
C28B C27B 1_555 1_555
C29B C28B 1_555 1_555
H44B C29B 1_555 1_555
H45B C29B 1_555 1_555
C30B C29B 1_555 1_555
H46B C30B 1_555 1_555
H47B C30B 1_555 1_555
C31B C30B 1_555 1_555
H48B C31B 1_555 1_555
H49B C31B 1_555 1_555
H50B C31B 1_555 1_555
C32B H51B 1_555 1_555
C33B C32B 1_555 1_555
H52B C33B 1_555 1_555
H53B C33B 1_555 1_555
H54B C33B 1_555 1_555
C34B C32B 1_555 1_555
H55B C34B 1_555 1_555
H56B C34B 1_555 1_555
H57B C34B 1_555 1_555
C35B H58B 1_555 1_555
H59B C35B 1_555 1_555
H60B C35B 1_555 1_555
C36B C26B 1_555 1_555
H61B C36B 1_555 1_555
H62B C36B 1_555 1_555
H63B C36B 1_555 1_555
Li1B N3B 1_555 1_555
Li2B S1 1_555 1_555
Li3B S2 1_555 1_555
N1B C1B 1_555 1_555
N2B C2B 1_555 1_555
N3B C25B 1_555 1_555
N4B C26B 1_555 1_555
N5B C13B 1_555 1_555
N6B C14B 1_555 1_555
S1B Li2 1_555 1_555
S2B Li3 1_555 1_555
S3B C25B 1_555 1_555
C2 N1 1_555 1_555
C3 N2 1_555 1_555
C10 N2 1_555 1_555
C14 N5 1_555 1_555
C15 N6 1_555 1_555
C20 N6 1_555 1_555
C26 N3 1_555 1_555
C27 N4 1_555 1_555
C32 N4 1_555 1_555
Li1 S1 1_555 1_555
Li1 S2 1_555 1_555
Li1 S3 1_555 1_555
Li2 S3 1_555 1_555
Li3 S3 1_555 1_555
C1B S1B 1_555 1_555
C2B N1B 1_555 1_555
C3B N2B 1_555 1_555
C10B N2B 1_555 1_555
C13B S2B 1_555 1_555
C14B N5B 1_555 1_555
C15B N6B 1_555 1_555
C20B N6B 1_555 1_555
C26B N3B 1_555 1_555
C27B N4B 1_555 1_555
C32B N4B 1_555 1_555
Li1B S1B 1_555 1_555
Li1B S2B 1_555 1_555
Li1B S3B 1_555 1_555
Li2B N5B 1_555 1_555
Li2B S3B 1_555 1_555
Li3B N1B 1_555 1_555
Li3B S3B 1_555 1_555

#END
