
#######################################################################
#
#                 Cambridge Crystallographic Data Centre
#                                CCDC 
#
#######################################################################
#
# If this CIF has been generated from an entry in the Cambridge 
# Structural Database, then it will include bibliographic, chemical, 
# crystal, experimental, refinement or atomic coordinate data resulting 
# from the CCDC's data processing and validation procedures.
#
#######################################################################

data_CEYPII
_chemical_compound_source        
'mangrove-derived Penicillium simplicissimum MA-332'
_chemical_name_common            'Simpterpenoid A'
_chemical_formula_moiety         'C27 H36 O7'
_chemical_name_systematic        
'methyl (3S,5R,8S,10S,14S)-3-acetoxy-8,12,13-trimethyl-17-oxo-14-pyruvoylpodocarpa-9(11),12-diene-14-carboxylate'
_chemical_properties_biological  
'inhibitory activity against influenza neuraminidase'
_symmetry_cell_setting           monoclinic
_symmetry_space_group_name_H-M   'P 21'
_symmetry_Int_Tables_number      4
_space_group_name_Hall           'P 2yb'
loop_
_symmetry_equiv_pos_site_id
_symmetry_equiv_pos_as_xyz
1 x,y,z
2 -x,1/2+y,-z
_cell_length_a                   8.2399(11)
_cell_length_b                   15.3881(14)
_cell_length_c                   10.4172(16)
_cell_angle_alpha                90
_cell_angle_beta                 108.497(17)
_cell_angle_gamma                90
_cell_volume                     1252.63
_cell_formula_units_Z            2
loop_
_atom_site_label
_atom_site_type_symbol
_atom_site_fract_x
_atom_site_fract_y
_atom_site_fract_z
O1 O -0.0182(5) 0.2854(3) 0.1537(4)
O2 O 0.2311(6) 0.5126(3) -0.1178(5)
O3 O 0.4516(6) 0.4421(3) 0.4707(5)
O4 O 0.7663(6) 0.5583(3) 0.6915(5)
O5 O 0.8579(5) 0.4700(3) 0.4850(4)
O6 O 0.8963(6) 0.5999(3) 0.4040(5)
O7 O -0.2795(6) 0.2326(3) 0.0560(5)
C1 C 0.0268(7) 0.4693(4) 0.1161(5)
H1 H -0.0245 0.5267 0.1051
H2 H 0.0338 0.4482 0.2054
C2 C -0.0866(8) 0.4081(4) 0.0086(6)
H3 H -0.2000 0.4058 0.0179
H4 H -0.0975 0.4305 -0.0808
C3 C -0.0127(8) 0.3184(4) 0.0226(6)
H5 H -0.0872 0.2820 -0.0494
C4 C 0.1706(8) 0.3115(4) 0.0167(6)
C5 C 0.2822(7) 0.3829(4) 0.1108(6)
H6 H 0.2970 0.3628 0.2031
C6 C 0.4643(7) 0.3880(4) 0.1014(6)
H7 H 0.5063 0.3299 0.0941
H8 H 0.4634 0.4205 0.0214
C7 C 0.5808(7) 0.4324(4) 0.2273(6)
H9 H 0.6956 0.4353 0.2209
H10 H 0.5855 0.3976 0.3060
C8 C 0.5218(7) 0.5248(4) 0.2476(6)
C9 C 0.3264(8) 0.5329(4) 0.2161(6)
C10 C 0.2071(7) 0.4754(4) 0.1045(6)
C11 C 0.2687(8) 0.5957(4) 0.2760(6)
H11 H 0.1511 0.5994 0.2592
C12 C 0.3769(9) 0.6599(4) 0.3669(7)
C13 C 0.5490(9) 0.6472(4) 0.4185(7)
C14 C 0.6076(8) 0.5539(4) 0.3969(6)
C15 C 0.5520(8) 0.5007(4) 0.4982(7)
C16 C 0.6203(10) 0.5270(5) 0.6451(8)
C17 C 0.5201(9) 0.5067(6) 0.7349(7)
H12 H 0.5757 0.5307 0.8230
H13 H 0.5112 0.4448 0.7420
H14 H 0.4077 0.5312 0.6986
C18 C 0.1843(7) 0.5276(5) -0.0228(6)
H15 H 0.1246 0.5794 -0.0279
C19 C 0.5747(8) 0.5875(4) 0.1485(6)
H16 H 0.5455 0.6461 0.1637
H17 H 0.5150 0.5712 0.0567
H18 H 0.6958 0.5834 0.1648
C20 C 0.2907(8) 0.7431(5) 0.3822(7)
H19 H 0.2594 0.7746 0.2983
H20 H 0.3676 0.7777 0.4521
H21 H 0.1898 0.7305 0.4061
C21 C 0.6694(9) 0.7137(5) 0.4956(7)
H22 H 0.6097 0.7541 0.5348
H23 H 0.7179 0.7442 0.4360
H24 H 0.7592 0.6862 0.5662
C22 C 0.8065(9) 0.5478(5) 0.4289(7)
C23 C 0.1616(8) 0.3189(4) -0.1318(6)
H25 H 0.2724 0.3338 -0.1370
H26 H 0.0809 0.3633 -0.1751
H27 H 0.1257 0.2644 -0.1764
C24 C 0.2450(7) 0.2213(4) 0.0690(6)
H28 H 0.3514 0.2132 0.0512
H29 H 0.1657 0.1769 0.0235
H30 H 0.2641 0.2177 0.1646
C25 C -0.1600(9) 0.2441(5) 0.1543(8)
C26 C -0.1511(9) 0.2167(5) 0.2941(7)
H31 H -0.1417 0.1545 0.3011
H32 H -0.2529 0.2351 0.3123
H33 H -0.0529 0.2428 0.3586
C27 C 1.0418(8) 0.4543(5) 0.5254(7)
H34 H 1.0984 0.4888 0.6037
H35 H 1.0839 0.4699 0.4526
H36 H 1.0642 0.3939 0.5467
loop_
_geom_bond_atom_site_label_1
_geom_bond_atom_site_label_2
_geom_bond_site_symmetry_1
_geom_bond_site_symmetry_2
O1 C3 1_555 1_555
O2 C18 1_555 1_555
O3 C15 1_555 1_555
O4 C16 1_555 1_555
O5 C22 1_555 1_555
O6 C22 1_555 1_555
O7 C25 1_555 1_555
C1 H1 1_555 1_555
H2 C1 1_555 1_555
C2 C1 1_555 1_555
H3 C2 1_555 1_555
H4 C2 1_555 1_555
C3 C2 1_555 1_555
H5 C3 1_555 1_555
C4 C3 1_555 1_555
C5 C4 1_555 1_555
H6 C5 1_555 1_555
C6 C5 1_555 1_555
H7 C6 1_555 1_555
H8 C6 1_555 1_555
C7 C6 1_555 1_555
H9 C7 1_555 1_555
H10 C7 1_555 1_555
C8 C7 1_555 1_555
C9 C8 1_555 1_555
C10 C1 1_555 1_555
C11 C9 1_555 1_555
H11 C11 1_555 1_555
C12 C11 1_555 1_555
C13 C12 1_555 1_555
C14 C8 1_555 1_555
C15 C14 1_555 1_555
C16 C15 1_555 1_555
C17 C16 1_555 1_555
H12 C17 1_555 1_555
H13 C17 1_555 1_555
H14 C17 1_555 1_555
C18 C10 1_555 1_555
H15 C18 1_555 1_555
C19 C8 1_555 1_555
H16 C19 1_555 1_555
H17 C19 1_555 1_555
H18 C19 1_555 1_555
C20 C12 1_555 1_555
H19 C20 1_555 1_555
H20 C20 1_555 1_555
H21 C20 1_555 1_555
C21 C13 1_555 1_555
H22 C21 1_555 1_555
H23 C21 1_555 1_555
H24 C21 1_555 1_555
C22 C14 1_555 1_555
C23 C4 1_555 1_555
H25 C23 1_555 1_555
H26 C23 1_555 1_555
H27 C23 1_555 1_555
C24 C4 1_555 1_555
H28 C24 1_555 1_555
H29 C24 1_555 1_555
H30 C24 1_555 1_555
C25 O1 1_555 1_555
C26 C25 1_555 1_555
H31 C26 1_555 1_555
H32 C26 1_555 1_555
H33 C26 1_555 1_555
C27 O5 1_555 1_555
H34 C27 1_555 1_555
H35 C27 1_555 1_555
H36 C27 1_555 1_555
C5 C10 1_555 1_555
C9 C10 1_555 1_555
C13 C14 1_555 1_555

#END
