
#######################################################################
#
#                 Cambridge Crystallographic Data Centre
#                                CCDC 
#
#######################################################################
#
# If this CIF has been generated from an entry in the Cambridge 
# Structural Database, then it will include bibliographic, chemical, 
# crystal, experimental, refinement or atomic coordinate data resulting 
# from the CCDC's data processing and validation procedures.
#
#######################################################################

data_CEYPON
_chemical_formula_moiety         'C22 H26 N2 S1'
_chemical_name_systematic        
4-(Benzylsulfanyl)-1-isopropyl-2,2-dimethyl-5-phenyl-1,2-dihydropyrimidine
_symmetry_cell_setting           monoclinic
_symmetry_space_group_name_H-M   'P 21/n'
_symmetry_Int_Tables_number      14
_space_group_name_Hall           '-P 2yn'
loop_
_symmetry_equiv_pos_site_id
_symmetry_equiv_pos_as_xyz
1 x,y,z
2 1/2-x,1/2+y,1/2-z
3 -x,-y,-z
4 1/2+x,1/2-y,1/2+z
_cell_length_a                   11.587(2)
_cell_length_b                   16.037(3)
_cell_length_c                   11.823(2)
_cell_angle_alpha                90
_cell_angle_beta                 112.14(3)
_cell_angle_gamma                90
_cell_volume                     2034.97
_cell_formula_units_Z            4
loop_
_atom_site_label
_atom_site_type_symbol
_atom_site_fract_x
_atom_site_fract_y
_atom_site_fract_z
C1 C 0.4023(2) -0.01457(16) 0.2668(3)
C2 C 0.5432(2) 0.10501(17) 0.3086(2)
H1 H 0.6217 0.1260 0.3202
C3 C 0.4553(2) 0.15999(16) 0.3080(2)
C4 C 0.3373(2) 0.12293(16) 0.2935(2)
C5 C 0.3487(3) -0.04772(19) 0.1373(3)
H2 H 0.3490 -0.0043 0.0815
H3 H 0.2648 -0.0662 0.1188
H4 H 0.3984 -0.0936 0.1296
C6 C 0.4130(3) -0.08395(17) 0.3580(3)
H5 H 0.4645 -0.1278 0.3476
H6 H 0.3316 -0.1056 0.3445
H7 H 0.4497 -0.0622 0.4395
C7 C 0.6303(3) -0.02899(17) 0.2887(3)
H8 H 0.6006 -0.0867 0.2753
C8 C 0.6663(3) -0.0053(2) 0.1835(3)
H9 H 0.5933 -0.0044 0.1096
H10 H 0.7245 -0.0454 0.1758
H11 H 0.7041 0.0489 0.1978
C9 C 0.7398(3) -0.02678(19) 0.4084(3)
H12 H 0.7733 0.0287 0.4233
H13 H 0.8027 -0.0647 0.4054
H14 H 0.7134 -0.0430 0.4731
C10 C 0.4842(2) 0.25034(17) 0.3302(3)
C11 C 0.5775(3) 0.27628(18) 0.4360(3)
H15 H 0.6196 0.2372 0.4954
C12 C 0.6098(3) 0.35995(19) 0.4557(3)
H16 H 0.6745 0.3762 0.5271
C13 C 0.5478(3) 0.4180(2) 0.3716(4)
H17 H 0.5692 0.4740 0.3851
C14 C 0.4539(3) 0.3936(2) 0.2672(4)
H18 H 0.4101 0.4333 0.2096
C15 C 0.4229(3) 0.30994(19) 0.2459(3)
H19 H 0.3595 0.2941 0.1733
C16 C 0.0930(2) 0.12178(16) 0.2717(3)
H20 H 0.0778 0.0919 0.1961
H21 H 0.1128 0.0814 0.3374
C17 C -0.0213(2) 0.16992(16) 0.2624(3)
C18 C -0.0426(3) 0.1929(2) 0.3643(3)
H22 H 0.0151 0.1786 0.4410
C19 C -0.1476(3) 0.2365(2) 0.3555(4)
H23 H -0.1600 0.2519 0.4260
C20 C -0.2331(3) 0.2571(2) 0.2447(5)
H24 H -0.3048 0.2859 0.2388
C21 C -0.2137(3) 0.2354(2) 0.1417(4)
H25 H -0.2716 0.2501 0.0653
C22 C -0.1075(3) 0.19165(18) 0.1515(3)
H26 H -0.0949 0.1768 0.0810
N1 N 0.31215(18) 0.04500(13) 0.2785(2)
N2 N 0.52684(19) 0.02256(13) 0.2938(2)
S1 S 0.22161(6) 0.19241(4) 0.30102(8)
loop_
_geom_bond_atom_site_label_1
_geom_bond_atom_site_label_2
_geom_bond_site_symmetry_1
_geom_bond_site_symmetry_2
C1 C5 1_555 1_555
C2 H1 1_555 1_555
C3 C2 1_555 1_555
C4 C3 1_555 1_555
C5 H2 1_555 1_555
H3 C5 1_555 1_555
H4 C5 1_555 1_555
C6 C1 1_555 1_555
H5 C6 1_555 1_555
H6 C6 1_555 1_555
H7 C6 1_555 1_555
C7 H8 1_555 1_555
C8 C7 1_555 1_555
H9 C8 1_555 1_555
H10 C8 1_555 1_555
H11 C8 1_555 1_555
C9 C7 1_555 1_555
H12 C9 1_555 1_555
H13 C9 1_555 1_555
H14 C9 1_555 1_555
C10 C3 1_555 1_555
C11 C10 1_555 1_555
H15 C11 1_555 1_555
C12 C11 1_555 1_555
H16 C12 1_555 1_555
C13 C12 1_555 1_555
H17 C13 1_555 1_555
C14 C13 1_555 1_555
H18 C14 1_555 1_555
C15 C10 1_555 1_555
H19 C15 1_555 1_555
C16 H20 1_555 1_555
H21 C16 1_555 1_555
C17 C16 1_555 1_555
C18 C17 1_555 1_555
H22 C18 1_555 1_555
C19 C18 1_555 1_555
H23 C19 1_555 1_555
C20 C19 1_555 1_555
H24 C20 1_555 1_555
C21 C20 1_555 1_555
H25 C21 1_555 1_555
C22 C17 1_555 1_555
H26 C22 1_555 1_555
N1 C1 1_555 1_555
N2 C1 1_555 1_555
S1 C4 1_555 1_555
C2 N2 1_555 1_555
C4 N1 1_555 1_555
C7 N2 1_555 1_555
C14 C15 1_555 1_555
C16 S1 1_555 1_555
C21 C22 1_555 1_555

#END
