
#######################################################################
#
#                 Cambridge Crystallographic Data Centre
#                                CCDC 
#
#######################################################################
#
# If this CIF has been generated from an entry in the Cambridge 
# Structural Database, then it will include bibliographic, chemical, 
# crystal, experimental, refinement or atomic coordinate data resulting 
# from the CCDC's data processing and validation procedures.
#
#######################################################################

data_CEYQOO
_chemical_formula_moiety         '2(C7 H7 N2 1+),C7 H4 O6 S1 2-,H2 O1'
_chemical_name_systematic        
'bis(1H-1,3-Benzimidazol-3-ium) 2-hydroxy-5-sulfonatobenzoate monohydrate'
_symmetry_cell_setting           monoclinic
_symmetry_space_group_name_H-M   'P 21/c'
_symmetry_Int_Tables_number      14
_space_group_name_Hall           '-P 2ybc'
loop_
_symmetry_equiv_pos_site_id
_symmetry_equiv_pos_as_xyz
1 x,y,z
2 -x,1/2+y,1/2-z
3 -x,-y,-z
4 x,1/2-y,1/2+z
_cell_length_a                   9.924(8)
_cell_length_b                   9.781(6)
_cell_length_c                   22.976(16)
_cell_angle_alpha                90
_cell_angle_beta                 102.64(3)
_cell_angle_gamma                90
_cell_volume                     2176.15
_exptl_crystal_colour            colorless
_cell_formula_units_Z            4
loop_
_atom_site_label
_atom_site_type_symbol
_atom_site_fract_x
_atom_site_fract_y
_atom_site_fract_z
S1 S 0.75193(5) 0.41328(6) -0.11539(3)
O1 O 0.74232(16) 0.43441(18) -0.05431(8)
O2 O 0.85078(15) 0.5070(2) -0.13195(9)
O3 O 0.7778(2) 0.27370(19) -0.12851(10)
C1 C 0.5895(2) 0.4552(2) -0.16062(10)
C2 C 0.5419(2) 0.3873(2) -0.21394(11)
H1 H 0.5942 0.3175 -0.2254
C3 C 0.4180(2) 0.4228(2) -0.24996(11)
H2 H 0.3870 0.3774 -0.2860
C4 C 0.3384(2) 0.5257(2) -0.23328(10)
O4 O 0.21620(16) 0.55669(19) -0.26982(8)
H3 H 0.199(4) 0.645(4) -0.2495(18)
C5 C 0.3854(2) 0.5960(2) -0.17955(9)
O5 O 0.34194(17) 0.76301(18) -0.11130(8)
O6 O 0.18909(17) 0.73673(19) -0.19526(9)
C6 C 0.51141(19) 0.5584(2) -0.14395(10)
H4 H 0.5439 0.6038 -0.1081
C7 C 0.2999(2) 0.7049(3) -0.16067(11)
C8 C 0.1523(2) 1.3220(3) -0.15692(10)
C9 C 0.2797(2) 1.2733(2) -0.12724(12)
N1 N 0.31115(19) 1.3424(2) -0.07388(9)
H5 H 0.3859 1.3328 -0.0471
C10 C 0.2102(2) 1.4249(3) -0.07060(11)
H6 H 0.2071 1.4811 -0.0383
N2 N 0.11349(18) 1.4172(2) -0.11954(9)
H7 H 0.0382 1.4637 -0.1271
C11 C 0.0851(3) 1.2766(4) -0.21219(13)
H8 H -0.0002 1.3114 -0.2315
C12 C 0.1497(5) 1.1792(5) -0.23664(18)
H9 H 0.1079 1.1463 -0.2742
C13 C 0.2751(5) 1.1257(4) -0.2086(2)
H10 H 0.3140 1.0566 -0.2273
C14 C 0.3463(3) 1.1721(3) -0.15262(19)
H11 H 0.4321 1.1376 -0.1338
C15 C 0.1773(2) 1.0198(2) -0.04022(12)
C16 C 0.0650(2) 1.1083(2) -0.04540(12)
N3 N -0.02020(19) 1.0794(2) -0.09953(10)
H12 H -0.0982 1.1181 -0.1139
C17 C 0.0362(2) 0.9819(3) -0.12564(12)
H13 H -0.0020 0.9455 -0.1630
N4 N 0.15431(18) 0.9429(2) -0.09140(10)
H14 H 0.2078 0.8802 -0.0997
C18 C 0.2856(3) 1.0229(3) 0.00932(13)
H15 H 0.3611 0.9646 0.0132
C19 C 0.2754(4) 1.1168(3) 0.05231(15)
H16 H 0.3467 1.1230 0.0860
C20 C 0.1615(4) 1.2035(3) 0.04723(16)
H17 H 0.1586 1.2646 0.0780
C21 C 0.0550(3) 1.2014(3) -0.00128(15)
H18 H -0.0205 1.2594 -0.0046
O7 O 0.4465(2) 0.6992(3) 0.00274(12)
H19 H 0.386(3) 0.673(4) 0.0163(16)
H20 H 0.416(3) 0.718(3) -0.0348(15)
loop_
_geom_bond_atom_site_label_1
_geom_bond_atom_site_label_2
_geom_bond_site_symmetry_1
_geom_bond_site_symmetry_2
S1 O1 1_555 1_555
O2 S1 1_555 1_555
O3 S1 1_555 1_555
C1 S1 1_555 1_555
C2 C1 1_555 1_555
H1 C2 1_555 1_555
C3 C2 1_555 1_555
H2 C3 1_555 1_555
C4 C3 1_555 1_555
O4 C4 1_555 1_555
H3 O4 1_555 1_555
C5 C4 1_555 1_555
O5 C7 1_555 1_555
O6 C7 1_555 1_555
C6 C1 1_555 1_555
H4 C6 1_555 1_555
C7 C5 1_555 1_555
C8 C9 1_555 1_555
C9 N1 1_555 1_555
N1 H5 1_555 1_555
C10 N1 1_555 1_555
H6 C10 1_555 1_555
N2 C8 1_555 1_555
H7 N2 1_555 1_555
C11 C8 1_555 1_555
H8 C11 1_555 1_555
C12 C11 1_555 1_555
H9 C12 1_555 1_555
C13 C12 1_555 1_555
H10 C13 1_555 1_555
C14 C9 1_555 1_555
H11 C14 1_555 1_555
C15 C16 1_555 1_555
C16 N3 1_555 1_555
N3 H12 1_555 1_555
C17 N3 1_555 1_555
H13 C17 1_555 1_555
N4 C15 1_555 1_555
H14 N4 1_555 1_555
C18 C15 1_555 1_555
H15 C18 1_555 1_555
C19 C18 1_555 1_555
H16 C19 1_555 1_555
C20 C19 1_555 1_555
H17 C20 1_555 1_555
C21 C16 1_555 1_555
H18 C21 1_555 1_555
O7 H19 1_555 1_555
H20 O7 1_555 1_555
C5 C6 1_555 1_555
C10 N2 1_555 1_555
C13 C14 1_555 1_555
C17 N4 1_555 1_555
C20 C21 1_555 1_555

#END
