
#######################################################################
#
#                 Cambridge Crystallographic Data Centre
#                                CCDC 
#
#######################################################################
#
# If this CIF has been generated from an entry in the Cambridge 
# Structural Database, then it will include bibliographic, chemical, 
# crystal, experimental, refinement or atomic coordinate data resulting 
# from the CCDC's data processing and validation procedures.
#
#######################################################################

data_CEYTEI
_chemical_formula_moiety         'C20 H17 N3 O1'
_chemical_name_systematic        4-(4-cyanophenyl)-N-(quinolin-8-yl)butanamide
_symmetry_cell_setting           monoclinic
_symmetry_space_group_name_H-M   'C 2/c'
_symmetry_Int_Tables_number      15
_space_group_name_Hall           '-C 2yn'
loop_
_symmetry_equiv_pos_site_id
_symmetry_equiv_pos_as_xyz
1 x,y,z
2 -x,y,1/2-z
3 1/2+x,1/2+y,z
4 1/2-x,1/2+y,1/2-z
5 -x,-y,-z
6 x,-y,1/2+z
7 1/2-x,1/2-y,-z
8 1/2+x,1/2-y,1/2+z
_cell_length_a                   23.384(5)
_cell_length_b                   4.7955(11)
_cell_length_c                   29.080(6)
_cell_angle_alpha                90
_cell_angle_beta                 94.542(3)
_cell_angle_gamma                90
_cell_volume                     3250.73
_cell_formula_units_Z            8
loop_
_atom_site_label
_atom_site_type_symbol
_atom_site_fract_x
_atom_site_fract_y
_atom_site_fract_z
C1 C 0.57195(13) 0.0422(7) 0.71209(9)
C2 C 0.54874(10) 0.2337(6) 0.67690(8)
C3 C 0.49217(11) 0.3220(6) 0.67796(8)
H1 H 0.469330 0.258474 0.701448
C4 C 0.46968(10) 0.5040(6) 0.64421(8)
H2 H 0.431030 0.564006 0.644758
C5 C 0.50220(9) 0.6008(5) 0.60960(7)
C6 C 0.55847(9) 0.5115(5) 0.60967(8)
H3 H 0.581552 0.577978 0.586549
C7 C 0.58185(10) 0.3280(6) 0.64258(9)
H4 H 0.620383 0.266754 0.641713
C8 C 0.47522(9) 0.7849(5) 0.57165(7)
H5 H 0.505219 0.849334 0.551933
H6 H 0.458271 0.951192 0.585480
C9 C 0.42886(9) 0.6305(4) 0.54212(7)
H7 H 0.398709 0.569825 0.561988
H8 H 0.445853 0.461080 0.529323
C10 C 0.40113(9) 0.8041(4) 0.50241(7)
H9 H 0.388971 0.985831 0.514508
H10 H 0.429832 0.840900 0.479893
C11 C 0.34993(9) 0.6607(4) 0.47821(6)
C12 C 0.26638(8) 0.7397(4) 0.42268(6)
C13 C 0.22976(9) 0.5349(4) 0.43591(7)
H11 H 0.237087 0.445716 0.464958
C14 C 0.18174(9) 0.4571(5) 0.40676(8)
H12 H 0.157283 0.313347 0.416205
C15 C 0.16943(9) 0.5836(4) 0.36515(8)
H13 H 0.136735 0.527484 0.345898
C16 C 0.20532(8) 0.7982(4) 0.35068(7)
C17 C 0.19518(9) 0.9398(5) 0.30799(7)
H14 H 0.162586 0.894934 0.287755
C18 C 0.23249(10) 1.1401(5) 0.29628(7)
H15 H 0.226046 1.238675 0.268009
C19 C 0.28058(9) 1.1989(4) 0.32652(7)
H16 H 0.306455 1.337466 0.317471
C20 C 0.25476(8) 0.8759(4) 0.37913(6)
N1 N 0.59028(15) -0.1043(8) 0.74037(9)
N2 N 0.31545(7) 0.8263(3) 0.45030(5)
H17 H 0.324514 1.004219 0.449315
N3 N 0.29253(7) 1.0751(3) 0.36679(6)
O1 O 0.34148(7) 0.4097(3) 0.48262(6)
loop_
_geom_bond_atom_site_label_1
_geom_bond_atom_site_label_2
_geom_bond_site_symmetry_1
_geom_bond_site_symmetry_2
C1 C2 1_555 1_555
C2 C3 1_555 1_555
C3 H1 1_555 1_555
C4 C3 1_555 1_555
H2 C4 1_555 1_555
C5 C4 1_555 1_555
C6 C5 1_555 1_555
H3 C6 1_555 1_555
C7 C2 1_555 1_555
H4 C7 1_555 1_555
C8 C5 1_555 1_555
H5 C8 1_555 1_555
H6 C8 1_555 1_555
C9 C8 1_555 1_555
H7 C9 1_555 1_555
H8 C9 1_555 1_555
C10 C9 1_555 1_555
H9 C10 1_555 1_555
H10 C10 1_555 1_555
C11 C10 1_555 1_555
C12 C13 1_555 1_555
C13 H11 1_555 1_555
C14 C13 1_555 1_555
H12 C14 1_555 1_555
C15 C14 1_555 1_555
H13 C15 1_555 1_555
C16 C15 1_555 1_555
C17 C16 1_555 1_555
H14 C17 1_555 1_555
C18 C17 1_555 1_555
H15 C18 1_555 1_555
C19 C18 1_555 1_555
H16 C19 1_555 1_555
C20 C12 1_555 1_555
N1 C1 1_555 1_555
N2 C11 1_555 1_555
H17 N2 1_555 1_555
N3 C19 1_555 1_555
O1 C11 1_555 1_555
C6 C7 1_555 1_555
C12 N2 1_555 1_555
C16 C20 1_555 1_555
C20 N3 1_555 1_555

#END
