
#######################################################################
#
#                 Cambridge Crystallographic Data Centre
#                                CCDC 
#
#######################################################################
#
# If this CIF has been generated from an entry in the Cambridge 
# Structural Database, then it will include bibliographic, chemical, 
# crystal, experimental, refinement or atomic coordinate data resulting 
# from the CCDC's data processing and validation procedures.
#
#######################################################################

data_CEYVOU
_chemical_formula_moiety         'C21 H20 N2 O1'
_chemical_name_systematic        
2-methyl-3-phenyl-N-(quinolin-8-yl)pent-4-enamide
_symmetry_cell_setting           tetragonal
_symmetry_space_group_name_H-M   'I 41/a'
_symmetry_Int_Tables_number      88
_space_group_name_Hall           '-I 4ad'
loop_
_symmetry_equiv_pos_site_id
_symmetry_equiv_pos_as_xyz
1 x,y,z
2 1/2-x,-y,1/2+z
3 3/4-y,1/4+x,1/4+z
4 3/4+y,3/4-x,3/4+z
5 1/2+x,1/2+y,1/2+z
6 -x,1/2-y,z
7 1/4-y,3/4+x,3/4+z
8 1/4+y,1/4-x,1/4+z
9 -x,-y,-z
10 1/2+x,y,1/2-z
11 1/4+y,3/4-x,3/4-z
12 1/4-y,1/4+x,1/4-z
13 1/2-x,1/2-y,1/2-z
14 x,1/2+y,-z
15 3/4+y,1/4-x,1/4-z
16 3/4-y,3/4+x,3/4-z
_cell_length_a                   19.5302(14)
_cell_length_b                   19.5302(14)
_cell_length_c                   18.7188(15)
_cell_angle_alpha                90
_cell_angle_beta                 90
_cell_angle_gamma                90
_cell_volume                     7139.89
_exptl_crystal_colour            colorless
_exptl_crystal_description       block
_cell_formula_units_Z            16
loop_
_atom_site_label
_atom_site_type_symbol
_atom_site_fract_x
_atom_site_fract_y
_atom_site_fract_z
N1 N 0.3232(2) 0.5061(2) 0.0424(2)
O1 O 0.31153(17) 0.49314(17) 0.16191(14)
C1 C 0.2907(3) 0.4834(2) 0.1014(2)
C2 C 0.2226(3) 0.4477(3) 0.0880(2)
H1 H 0.2198 0.4349 0.0375
C3 C 0.3823(2) 0.5478(2) 0.0390(2)
N2 N 0.3935(2) 0.5106(2) -0.0816(2)
C4 C 0.4774(2) 0.5902(3) -0.0332(3)
C5 C 0.2760(3) 0.3341(3) 0.1233(3)
C6 C 0.4048(3) 0.5866(3) 0.0944(3)
H2 H 0.3811 0.5862 0.1375
C7 C 0.2177(3) 0.3826(3) 0.1336(2)
H3 H 0.2180 0.3968 0.1838
C8 C 0.4991(3) 0.6283(3) 0.0256(4)
H4 H 0.5385 0.6548 0.0224
C9 C 0.2962(4) 0.3124(3) 0.0576(3)
H5 H 0.2752 0.3305 0.0172
C10 C 0.5105(3) 0.5895(3) -0.1002(4)
H6 H 0.5501 0.6152 -0.1069
C11 C 0.1646(3) 0.4986(3) 0.1050(3)
H7 H 0.1675 0.5122 0.1542
H8 H 0.1212 0.4771 0.0964
H9 H 0.1691 0.5382 0.0750
C12 C 0.3096(5) 0.3088(3) 0.1806(4)
H10 H 0.2979 0.3242 0.2260
C13 C 0.3468(5) 0.2647(4) 0.0496(4)
H11 H 0.3594 0.2505 0.0041
C14 C 0.4265(4) 0.5130(4) -0.1423(3)
H12 H 0.4100 0.4869 -0.1801
C15 C 0.4632(3) 0.6269(3) 0.0872(3)
H13 H 0.4777 0.6535 0.1255
C16 C 0.4854(4) 0.5526(4) -0.1537(4)
H14 H 0.5067 0.5530 -0.1982
C17 C 0.1507(4) 0.3464(4) 0.1200(4)
H15 H 0.1449 0.3240 0.0766
C18 C 0.1001(6) 0.3448(6) 0.1659(6)
H16 H 0.1044 0.3668 0.2098
H17 H 0.0598 0.3217 0.1547
C19 C 0.3781(5) 0.2385(4) 0.1061(6)
H18 H 0.4117 0.2052 0.1005
C20 C 0.3602(6) 0.2613(5) 0.1736(5)
H19 H 0.3825 0.2444 0.2137
C21 C 0.4180(2) 0.5485(2) -0.0269(2)
H20 H 0.3118(19) 0.4925(19) 0.001(2)
loop_
_geom_bond_atom_site_label_1
_geom_bond_atom_site_label_2
_geom_bond_site_symmetry_1
_geom_bond_site_symmetry_2
N1 C1 1_555 1_555
O1 C1 1_555 1_555
C1 C2 1_555 1_555
C2 H1 1_555 1_555
C3 N1 1_555 1_555
N2 C14 1_555 1_555
C4 C8 1_555 1_555
C5 C7 1_555 1_555
C6 C3 1_555 1_555
H2 C6 1_555 1_555
C7 C2 1_555 1_555
H3 C7 1_555 1_555
C8 H4 1_555 1_555
C9 C5 1_555 1_555
H5 C9 1_555 1_555
C10 C4 1_555 1_555
H6 C10 1_555 1_555
C11 C2 1_555 1_555
H7 C11 1_555 1_555
H8 C11 1_555 1_555
H9 C11 1_555 1_555
C12 C5 1_555 1_555
H10 C12 1_555 1_555
C13 C9 1_555 1_555
H11 C13 1_555 1_555
C14 H12 1_555 1_555
C15 C6 1_555 1_555
H13 C15 1_555 1_555
C16 C10 1_555 1_555
H14 C16 1_555 1_555
C17 C7 1_555 1_555
H15 C17 1_555 1_555
C18 C17 1_555 1_555
H16 C18 1_555 1_555
H17 C18 1_555 1_555
C19 C13 1_555 1_555
H18 C19 1_555 1_555
C20 C12 1_555 1_555
H19 C20 1_555 1_555
C21 C3 1_555 1_555
H20 N1 1_555 1_555
N2 C21 1_555 1_555
C4 C21 1_555 1_555
C8 C15 1_555 1_555
C14 C16 1_555 1_555
C19 C20 1_555 1_555

#END
