
#######################################################################
#
#                 Cambridge Crystallographic Data Centre
#                                CCDC 
#
#######################################################################
#
# If this CIF has been generated from an entry in the Cambridge 
# Structural Database, then it will include bibliographic, chemical, 
# crystal, experimental, refinement or atomic coordinate data resulting 
# from the CCDC's data processing and validation procedures.
#
#######################################################################

data_CEYWEJ
_chemical_formula_moiety         'C31 H20'
_chemical_name_systematic        
"2',7'-Di(phenylethynyl)spiro(cyclopropane-1, 9'-fluorene)"
_symmetry_cell_setting           triclinic
_symmetry_space_group_name_H-M   'P -1'
_symmetry_Int_Tables_number      2
_space_group_name_Hall           '-P 1'
loop_
_symmetry_equiv_pos_site_id
_symmetry_equiv_pos_as_xyz
1 x,y,z
2 -x,-y,-z
_cell_length_a                   10.357(4)
_cell_length_b                   12.387(4)
_cell_length_c                   18.027(5)
_cell_angle_alpha                79.464(10)
_cell_angle_beta                 87.954(13)
_cell_angle_gamma                71.951(14)
_cell_volume                     2161.3
_exptl_crystal_colour            green
_exptl_crystal_description       block
_chemical_melting_point          '186.1 deg.C'
_cell_formula_units_Z            4
_exptl_crystal_recrystallization_method dichloromethane/hexane
loop_
_atom_site_label
_atom_site_type_symbol
_atom_site_fract_x
_atom_site_fract_y
_atom_site_fract_z
C1 C 0.1740(2) 0.40709(14) 0.39059(9)
C2 C 0.0752(2) 0.51421(14) 0.38636(9)
C3 C 0.1013(2) 0.56810(14) 0.44797(9)
C4 C 0.0360(2) 0.67504(14) 0.46782(10)
C5 C 0.0863(2) 0.70391(17) 0.52866(11)
C6 C 0.1995(2) 0.62895(16) 0.57052(10)
C7 C 0.2637(2) 0.52141(16) 0.55068(10)
C8 C 0.2148(2) 0.49265(14) 0.48938(10)
C9 C 0.2662(2) 0.38586(13) 0.45665(10)
C10 C 0.3216(2) 0.26901(16) 0.50625(11)
C11 C 0.4144(2) 0.31736(17) 0.45716(11)
C12 C 0.1764(2) 0.33884(16) 0.33766(10)
C13 C 0.0778(2) 0.37721(17) 0.27979(10)
C14 C -0.0233(2) 0.48311(17) 0.27728(10)
C15 C -0.0250(2) 0.55211(16) 0.32944(10)
C16 C 0.0874(2) 0.30757(18) 0.22326(11)
C17 C 0.1073(2) 0.24723(18) 0.17731(11)
C18 C 0.1391(2) 0.16942(17) 0.12412(10)
C19 C 0.2598(2) 0.0802(2) 0.13139(12)
C20 C 0.2911(2) 0.0028(2) 0.08305(12)
C21 C 0.2017(3) 0.0152(2) 0.02543(12)
C22 C 0.0828(3) 0.1030(2) 0.01718(12)
C23 C 0.0503(2) 0.18063(19) 0.06545(11)
C24 C 0.2517(2) 0.66024(17) 0.63370(11)
C25 C 0.2976(2) 0.68470(17) 0.68524(11)
C26 C 0.3537(2) 0.71534(17) 0.74748(10)
C27 C 0.2698(2) 0.78950(19) 0.79031(11)
C28 C 0.3241(3) 0.8206(2) 0.84875(12)
C29 C 0.4600(4) 0.7779(2) 0.86543(13)
C30 C 0.5442(3) 0.7042(2) 0.82381(14)
C31 C 0.4918(2) 0.6724(2) 0.76509(12)
H1 H -0.0400 0.7259 0.4406
H2 H 0.0436 0.7753 0.5421
H3 H 0.3386 0.4698 0.5785
H4 H 0.2431 0.2677 0.3405
H5 H -0.0907 0.5075 0.2397
H6 H -0.0920 0.6230 0.3267
H7 H 0.3212 0.0724 0.1699
H8 H 0.3722 -0.0575 0.0892
H9 H 0.2225 -0.0365 -0.0079
H10 H 0.0225 0.1106 -0.0219
H11 H -0.0312 0.2407 0.0588
H12 H 0.1769 0.8183 0.7797
H13 H 0.2676 0.8712 0.8771
H14 H 0.4954 0.7989 0.9053
H15 H 0.6368 0.6755 0.8351
H16 H 0.5493 0.6219 0.7370
H33 H 0.3286 0.2663 0.5601
H34 H 0.2988 0.2049 0.4925
H35 H 0.4484 0.2828 0.4133
H36 H 0.4783 0.3442 0.4810
C32 C 0.5026(2) 0.72953(16) 0.24831(10)
C33 C 0.5385(2) 0.83034(14) 0.24713(10)
C34 C 0.4745(2) 0.88344(14) 0.31052(10)
C35 C 0.4805(2) 0.98120(16) 0.33621(11)
C36 C 0.4130(2) 1.00870(16) 0.40081(11)
C37 C 0.3363(2) 0.94331(16) 0.43969(10)
C38 C 0.3293(2) 0.84472(16) 0.41381(10)
C39 C 0.3993(2) 0.81617(14) 0.34970(9)
C40 C 0.4114(2) 0.71583(14) 0.31222(10)
C41 C 0.2934(2) 0.66963(17) 0.30557(11)
C42 C 0.4100(2) 0.59955(17) 0.35508(11)
C43 C 0.5519(2) 0.66035(18) 0.19508(11)
C44 C 0.6355(2) 0.69259(19) 0.13883(11)
C45 C 0.6697(2) 0.7934(2) 0.13753(12)
C46 C 0.6222(2) 0.86194(18) 0.19104(11)
C47 C 0.6839(2) 0.6212(2) 0.08293(12)
C48 C 0.7189(2) 0.55788(19) 0.03900(12)
C49 C 0.7556(2) 0.47749(19) -0.01195(11)
C50 C 0.8625(3) 0.4734(2) -0.05993(13)
C51 C 0.8956(5) 0.3927(3) -0.10748(17)
C52 C 0.8218(6) 0.3196(3) -0.1065(2)
C53 C 0.7160(4) 0.3241(2) -0.0604(2)
C54 C 0.6825(3) 0.4019(2) -0.01270(16)
C55 C 0.2637(2) 0.97329(17) 0.50607(11)
C56 C 0.2008(2) 0.99626(16) 0.56104(11)
C57 C 0.1211(2) 1.01988(16) 0.62643(10)
C58 C 0.1510(2) 1.08523(17) 0.67480(11)
C59 C 0.0731(2) 1.10554(19) 0.73755(12)
C60 C -0.0653(2) 0.99965(18) 0.70524(11)
C61 C 0.0109(2) 0.97891(18) 0.64221(11)
C62 C -0.0342(2) 1.06242(19) 0.75296(12)
H17 H 0.5293 1.0272 0.3102
H18 H 0.4189 1.0728 0.4188
H19 H 0.2788 0.7997 0.4392
H20 H 0.5293 0.5929 0.1968
H21 H 0.7255 0.8147 0.0999
H22 H 0.6460 0.9288 0.1896
H23 H 0.9124 0.5243 -0.0606
H24 H 0.9682 0.3891 -0.1399
H25 H 0.8446 0.2653 -0.1381
H26 H 0.6653 0.2741 -0.0610
H27 H 0.6099 0.4038 0.0195
H28 H 0.2232 1.1150 0.6649
H29 H 0.0934 1.1490 0.7698
H30 H -0.0854 1.0759 0.7957
H31 H -0.1382 0.9708 0.7154
H32 H -0.0119 0.9369 0.6098
H37 H 0.2091 0.7051 0.3292
H38 H 0.2825 0.6447 0.2589
H39 H 0.4706 0.5314 0.3388
H40 H 0.3972 0.5918 0.4091
loop_
_geom_bond_atom_site_label_1
_geom_bond_atom_site_label_2
_geom_bond_site_symmetry_1
_geom_bond_site_symmetry_2
C1 C2 1_555 1_555
C2 C3 1_555 1_555
C3 C4 1_555 1_555
C4 C5 1_555 1_555
C5 C6 1_555 1_555
C6 C7 1_555 1_555
C7 C8 1_555 1_555
C8 C3 1_555 1_555
C9 C1 1_555 1_555
C10 C9 1_555 1_555
C11 C9 1_555 1_555
C12 C1 1_555 1_555
C13 C12 1_555 1_555
C14 C13 1_555 1_555
C15 C2 1_555 1_555
C16 C13 1_555 1_555
C17 C16 1_555 1_555
C18 C17 1_555 1_555
C19 C18 1_555 1_555
C20 C19 1_555 1_555
C21 C20 1_555 1_555
C22 C21 1_555 1_555
C23 C18 1_555 1_555
C24 C6 1_555 1_555
C25 C24 1_555 1_555
C26 C25 1_555 1_555
C27 C26 1_555 1_555
C28 C27 1_555 1_555
C29 C28 1_555 1_555
C30 C29 1_555 1_555
C31 C26 1_555 1_555
C32 C33 1_555 1_555
C33 C34 1_555 1_555
C34 C35 1_555 1_555
C35 C36 1_555 1_555
C36 C37 1_555 1_555
C37 C38 1_555 1_555
C38 C39 1_555 1_555
C39 C34 1_555 1_555
C40 C32 1_555 1_555
C41 C40 1_555 1_555
C42 C40 1_555 1_555
C43 C32 1_555 1_555
C44 C43 1_555 1_555
C45 C44 1_555 1_555
C46 C33 1_555 1_555
C47 C44 1_555 1_555
C48 C47 1_555 1_555
C49 C48 1_555 1_555
C50 C49 1_555 1_555
C51 C50 1_555 1_555
C52 C51 1_555 1_555
C53 C52 1_555 1_555
C54 C49 1_555 1_555
C55 C37 1_555 1_555
C56 C55 1_555 1_555
C57 C56 1_555 1_555
C58 C57 1_555 1_555
C59 C58 1_555 1_555
C60 C61 1_555 1_555
C61 C57 1_555 1_555
C62 C59 1_555 1_555
H1 C4 1_555 1_555
H2 C5 1_555 1_555
H3 C7 1_555 1_555
H4 C12 1_555 1_555
H5 C14 1_555 1_555
H6 C15 1_555 1_555
H7 C19 1_555 1_555
H8 C20 1_555 1_555
H9 C21 1_555 1_555
H10 C22 1_555 1_555
H11 C23 1_555 1_555
H12 C27 1_555 1_555
H13 C28 1_555 1_555
H14 C29 1_555 1_555
H15 C30 1_555 1_555
H16 C31 1_555 1_555
H17 C35 1_555 1_555
H18 C36 1_555 1_555
H19 C38 1_555 1_555
H20 C43 1_555 1_555
H21 C45 1_555 1_555
H22 C46 1_555 1_555
H23 C50 1_555 1_555
H24 C51 1_555 1_555
H25 C52 1_555 1_555
H26 C53 1_555 1_555
H27 C54 1_555 1_555
H28 C58 1_555 1_555
H29 C59 1_555 1_555
H30 C62 1_555 1_555
H31 C60 1_555 1_555
H32 C61 1_555 1_555
H33 C10 1_555 1_555
H34 C10 1_555 1_555
H35 C11 1_555 1_555
H36 C11 1_555 1_555
H37 C41 1_555 1_555
H38 C41 1_555 1_555
H39 C42 1_555 1_555
H40 C42 1_555 1_555
C8 C9 1_555 1_555
C10 C11 1_555 1_555
C14 C15 1_555 1_555
C22 C23 1_555 1_555
C30 C31 1_555 1_555
C39 C40 1_555 1_555
C41 C42 1_555 1_555
C45 C46 1_555 1_555
C53 C54 1_555 1_555
C60 C62 1_555 1_555

#END
