
#######################################################################
#
#                 Cambridge Crystallographic Data Centre
#                                CCDC 
#
#######################################################################
#
# If this CIF has been generated from an entry in the Cambridge 
# Structural Database, then it will include bibliographic, chemical, 
# crystal, experimental, refinement or atomic coordinate data resulting 
# from the CCDC's data processing and validation procedures.
#
#######################################################################

data_CEYYEM
_chemical_formula_moiety         'C23 H38 B1 N1 O2 Si2'
_chemical_name_systematic        
'2-(Trimethylsilyl)ethyl (4-(1-(t-butyl(dimethyl)silyl)-1,2-azaborinin-2(1H)-yl)phenyl)acetate'
_symmetry_cell_setting           monoclinic
_symmetry_space_group_name_H-M   'P 21/n'
_symmetry_Int_Tables_number      14
_space_group_name_Hall           '-P 2yn'
loop_
_symmetry_equiv_pos_site_id
_symmetry_equiv_pos_as_xyz
1 x,y,z
2 1/2-x,1/2+y,1/2-z
3 -x,-y,-z
4 1/2+x,1/2-y,1/2+z
_cell_length_a                   7.5590(4)
_cell_length_b                   28.1887(16)
_cell_length_c                   11.9973(7)
_cell_angle_alpha                90
_cell_angle_beta                 91.4100(10)
_cell_angle_gamma                90
_cell_volume                     2555.59
_exptl_crystal_colour            colorless
_exptl_crystal_description       block
_cell_formula_units_Z            4
loop_
_atom_site_label
_atom_site_type_symbol
_atom_site_fract_x
_atom_site_fract_y
_atom_site_fract_z
Si1 Si 0.49816(8) 0.19896(2) 0.45166(5)
Si2 Si 1.75921(8) 0.08540(2) 0.99057(5)
O1 O 1.3566(2) 0.05473(5) 0.76358(13)
O2 O 1.2470(2) 0.11716(6) 0.66934(15)
N1 N 0.4435(2) 0.15022(6) 0.35883(14)
B1 B 0.5184(3) 0.10298(9) 0.3598(2)
C1 C 0.3056(3) 0.15975(9) 0.2838(2)
C2 C 0.2361(3) 0.12742(9) 0.2113(2)
C3 C 0.3004(3) 0.08058(9) 0.2099(2)
C4 C 0.4338(3) 0.06719(8) 0.2802(2)
C5 C 0.2821(4) 0.22251(10) 0.4990(2)
C6 C 0.6242(4) 0.17962(10) 0.5783(2)
C7 C 0.6270(3) 0.24582(8) 0.3741(2)
C8 C 0.5186(5) 0.26815(12) 0.2778(3)
C9 C 0.6769(5) 0.28511(11) 0.4580(3)
C10 C 0.7978(4) 0.22535(11) 0.3280(3)
C11 C 0.6818(3) 0.08822(7) 0.43588(17)
C12 C 0.8551(3) 0.09944(8) 0.40792(19)
C13 C 1.0003(3) 0.08393(8) 0.47055(18)
C14 C 0.9777(3) 0.05651(7) 0.56492(17)
C15 C 0.8069(3) 0.04430(8) 0.59361(18)
C16 C 0.6625(3) 0.05942(8) 0.52945(19)
C17 C 1.1335(3) 0.03811(8) 0.6322(2)
C18 C 1.2475(3) 0.07554(8) 0.68807(17)
C19 C 1.4827(3) 0.08521(8) 0.8226(2)
C20 C 1.5689(3) 0.05613(8) 0.9140(2)
C21 C 1.6874(4) 0.14330(9) 1.0482(3)
C22 C 1.9439(4) 0.09417(11) 0.8925(3)
C23 C 1.8326(4) 0.04457(10) 1.1043(2)
H1 H 0.261(3) 0.1904(9) 0.286(2)
H2 H 0.143(3) 0.1365(9) 0.163(2)
H3 H 0.248(3) 0.0593(9) 0.158(2)
H4 H 0.476(3) 0.0354(10) 0.277(2)
H5 H 0.305(4) 0.2450(12) 0.557(3)
H6 H 0.217(4) 0.2372(11) 0.440(3)
H7 H 0.215(4) 0.1963(12) 0.526(3)
H8 H 0.563(4) 0.1546(11) 0.614(2)
H9 H 0.628(4) 0.2059(11) 0.627(2)
H10 H 0.746(4) 0.1695(11) 0.565(2)
H11 H 0.404(5) 0.2801(11) 0.303(3)
H12 H 0.587(4) 0.2936(12) 0.245(3)
H13 H 0.492(4) 0.2441(11) 0.220(3)
H14 H 0.756(4) 0.2731(12) 0.519(3)
H15 H 0.734(4) 0.3117(11) 0.418(3)
H16 H 0.579(5) 0.2985(12) 0.490(3)
H17 H 0.775(4) 0.2003(11) 0.274(3)
H18 H 0.874(4) 0.2131(11) 0.391(3)
H19 H 0.864(4) 0.2514(11) 0.294(3)
H20 H 0.874(3) 0.1185(9) 0.347(2)
H21 H 1.115(3) 0.0923(8) 0.450(2)
H22 H 0.790(3) 0.0242(9) 0.654(2)
H23 H 0.547(4) 0.0498(9) 0.550(2)
H24 H 1.210(3) 0.0210(9) 0.586(2)
H25 H 1.099(3) 0.0160(9) 0.687(2)
H26 H 1.417(3) 0.1120(9) 0.851(2)
H27 H 1.569(3) 0.0970(9) 0.767(2)
H28 H 1.480(4) 0.0468(10) 0.967(2)
H29 H 1.615(3) 0.0283(10) 0.883(2)
H30 H 1.590(5) 0.1404(12) 1.098(3)
H31 H 1.781(5) 0.1571(12) 1.089(3)
H32 H 1.649(4) 0.1645(12) 0.991(3)
H33 H 1.974(4) 0.0645(12) 0.861(2)
H34 H 2.043(4) 0.1080(11) 0.930(3)
H35 H 1.915(4) 0.1153(12) 0.835(3)
H36 H 1.877(4) 0.0155(12) 1.075(3)
H37 H 1.921(4) 0.0598(12) 1.149(3)
H38 H 1.738(4) 0.0353(11) 1.148(3)
loop_
_geom_bond_atom_site_label_1
_geom_bond_atom_site_label_2
_geom_bond_site_symmetry_1
_geom_bond_site_symmetry_2
Si1 N1 1_555 1_555
Si2 C20 1_555 1_555
O1 C18 1_555 1_555
O2 C18 1_555 1_555
N1 B1 1_555 1_555
B1 C4 1_555 1_555
C1 N1 1_555 1_555
C2 C1 1_555 1_555
C3 C2 1_555 1_555
C4 C3 1_555 1_555
C5 Si1 1_555 1_555
C6 Si1 1_555 1_555
C7 Si1 1_555 1_555
C8 C7 1_555 1_555
C9 C7 1_555 1_555
C10 C7 1_555 1_555
C11 B1 1_555 1_555
C12 C11 1_555 1_555
C13 C12 1_555 1_555
C14 C13 1_555 1_555
C15 C14 1_555 1_555
C16 C11 1_555 1_555
C17 C14 1_555 1_555
C18 C17 1_555 1_555
C19 O1 1_555 1_555
C20 C19 1_555 1_555
C21 Si2 1_555 1_555
C22 Si2 1_555 1_555
C23 Si2 1_555 1_555
H1 C1 1_555 1_555
H2 C2 1_555 1_555
H3 C3 1_555 1_555
H4 C4 1_555 1_555
H5 C5 1_555 1_555
H6 C5 1_555 1_555
H7 C5 1_555 1_555
H8 C6 1_555 1_555
H9 C6 1_555 1_555
H10 C6 1_555 1_555
H11 C8 1_555 1_555
H12 C8 1_555 1_555
H13 C8 1_555 1_555
H14 C9 1_555 1_555
H15 C9 1_555 1_555
H16 C9 1_555 1_555
H17 C10 1_555 1_555
H18 C10 1_555 1_555
H19 C10 1_555 1_555
H20 C12 1_555 1_555
H21 C13 1_555 1_555
H22 C15 1_555 1_555
H23 C16 1_555 1_555
H24 C17 1_555 1_555
H25 C17 1_555 1_555
H26 C19 1_555 1_555
H27 C19 1_555 1_555
H28 C20 1_555 1_555
H29 C20 1_555 1_555
H30 C21 1_555 1_555
H31 C21 1_555 1_555
H32 C21 1_555 1_555
H33 C22 1_555 1_555
H34 C22 1_555 1_555
H35 C22 1_555 1_555
H36 C23 1_555 1_555
H37 C23 1_555 1_555
H38 C23 1_555 1_555
C15 C16 1_555 1_555

#END
