
#######################################################################
#
#                 Cambridge Crystallographic Data Centre
#                                CCDC 
#
#######################################################################
#
# If this CIF has been generated from an entry in the Cambridge 
# Structural Database, then it will include bibliographic, chemical, 
# crystal, experimental, refinement or atomic coordinate data resulting 
# from the CCDC's data processing and validation procedures.
#
#######################################################################

data_CEZBEP
_chemical_formula_moiety         'C19 H21 N5 O9'
_chemical_name_systematic        
'Diethyl 6-methoxy-9-nitro-1,4-dioxo-1,2,3,4,5,10-hexahydro-2,3,4a,10a-tetra-azabenzo(g)cyclopenta(cd)azulene-2a,10b-dicarboxylate'
_symmetry_cell_setting           monoclinic
_symmetry_space_group_name_H-M   'P 21/c'
_symmetry_Int_Tables_number      14
_space_group_name_Hall           '-P 2ybc'
loop_
_symmetry_equiv_pos_site_id
_symmetry_equiv_pos_as_xyz
1 x,y,z
2 -x,1/2+y,1/2-z
3 -x,-y,-z
4 x,1/2-y,1/2+z
_cell_length_a                   12.626(3)
_cell_length_b                   8.682(2)
_cell_length_c                   18.974(5)
_cell_angle_alpha                90.00
_cell_angle_beta                 90.023
_cell_angle_gamma                90.00
_cell_volume                     2079.91
_exptl_crystal_colour            colorless
_cell_formula_units_Z            4
loop_
_atom_site_label
_atom_site_type_symbol
_atom_site_fract_x
_atom_site_fract_y
_atom_site_fract_z
C1 C 0.6574(12) 0.905(2) 0.1162(7)
H1 H 0.7137 0.9660 0.0967
H2 H 0.6006 0.9714 0.1307
H3 H 0.6321 0.8341 0.0813
C2 C 0.7802(8) 0.7297(11) 0.1627(6)
C3 C 0.8358(10) 0.7193(13) 0.0991(6)
H4 H 0.8149 0.7772 0.0603
C4 C 0.9212(10) 0.6227(13) 0.0947(6)
H5 H 0.9585 0.6160 0.0525
C5 C 0.9532(8) 0.5353(11) 0.1515(6)
C6 C 0.8956(7) 0.5374(12) 0.2154(5)
C7 C 0.8089(7) 0.6345(10) 0.2201(4)
C8 C 0.7423(8) 0.6368(10) 0.2873(5)
H6 H 0.7882 0.6617 0.3267
H7 H 0.6903 0.7185 0.2833
C9 C 0.9218(8) 0.4358(12) 0.2766(6)
H8 H 0.9873 0.3814 0.2670
H9 H 0.9327 0.4990 0.3182
C10 C 0.5925(8) 0.4565(12) 0.2754(6)
C11 C 0.8213(9) 0.2044(11) 0.2450(5)
C12 C 0.7454(8) 0.3613(10) 0.3288(5)
C13 C 0.7663(8) 0.3892(10) 0.4098(5)
C14 C 0.8446(10) 0.280(2) 0.5110(6)
H10 H 0.8519 0.3864 0.5258
H11 H 0.9116 0.2286 0.5196
C15 C 0.7575(16) 0.202(3) 0.5555(10)
H14 H 0.6917 0.2551 0.5488
H15 H 0.7769 0.2053 0.6044
H16 H 0.7498 0.0965 0.5410
C17 C 0.6664(8) 0.2267(10) 0.3131(5)
C18 C 0.6316(9) 0.1313(12) 0.3774(7)
C19 C 0.6293(15) -0.1172(18) 0.4312(8)
H20 H 0.6834 -0.1937 0.4408
H21 H 0.6199 -0.0551 0.4732
C20 C 0.5291(18) -0.194(2) 0.4131(10)
H22 H 0.4737 -0.1191 0.4097
H23 H 0.5118 -0.2677 0.4492
H24 H 0.5366 -0.2464 0.3688
N1 N 1.0460(7) 0.4423(12) 0.1389(5)
N2 N 0.6887(6) 0.4967(8) 0.3025(4)
N3 N 0.8363(6) 0.3217(9) 0.2912(4)
N4 N 0.5769(7) 0.3082(10) 0.2869(5)
H25 H 0.5170 0.2641 0.2792
N5 N 0.7215(8) 0.1457(10) 0.2591(4)
H26 H 0.6953 0.0677 0.2372
O1 O 0.6948(6) 0.8238(9) 0.1741(4)
O2 O 1.0606(8) 0.3920(13) 0.0785(4)
O3 O 1.1045(7) 0.4075(11) 0.1867(5)
O4 O 0.5332(7) 0.5444(9) 0.2459(5)
O5 O 0.8835(7) 0.1577(10) 0.2001(4)
O6 O 0.7374(7) 0.4962(10) 0.4406(4)
O7 O 0.8212(7) 0.2754(10) 0.4346(4)
O8 O 0.5784(8) 0.1834(10) 0.4232(5)
O9 O 0.6634(7) -0.0181(9) 0.3719(4)
H12? H 0.8673 0.1815 0.5269
H13? H 0.7836 0.3138 0.5367
C16? C 0.936(2) 0.395(3) 0.5232(16)
H17? H 0.9577 0.4381 0.4789
H18? H 0.9948 0.3425 0.5445
H19? H 0.9124 0.4760 0.5538
loop_
_geom_bond_atom_site_label_1
_geom_bond_atom_site_label_2
_geom_bond_site_symmetry_1
_geom_bond_site_symmetry_2
C1 H1 1_555 1_555
H2 C1 1_555 1_555
H3 C1 1_555 1_555
C2 C3 1_555 1_555
C3 H4 1_555 1_555
C4 C3 1_555 1_555
H5 C4 1_555 1_555
C5 C4 1_555 1_555
C6 C5 1_555 1_555
C7 C2 1_555 1_555
C8 C7 1_555 1_555
H6 C8 1_555 1_555
H7 C8 1_555 1_555
C9 C6 1_555 1_555
H8 C9 1_555 1_555
H9 C9 1_555 1_555
C10 N2 1_555 1_555
C11 N3 1_555 1_555
C12 C13 1_555 1_555
C13 O6 1_555 1_555
C14 H10 1_555 1_555
H11 C14 1_555 1_555
C15 C14 1_555 1_555
H14 C15 1_555 1_555
H15 C15 1_555 1_555
H16 C15 1_555 1_555
C17 C12 1_555 1_555
C18 C17 1_555 1_555
C19 H20 1_555 1_555
H21 C19 1_555 1_555
C20 C19 1_555 1_555
H22 C20 1_555 1_555
H23 C20 1_555 1_555
H24 C20 1_555 1_555
N1 C5 1_555 1_555
N2 C8 1_555 1_555
N3 C9 1_555 1_555
N4 C10 1_555 1_555
H25 N4 1_555 1_555
N5 C11 1_555 1_555
H26 N5 1_555 1_555
O1 C1 1_555 1_555
O2 N1 1_555 1_555
O3 N1 1_555 1_555
O4 C10 1_555 1_555
O5 C11 1_555 1_555
O7 C13 1_555 1_555
O8 C18 1_555 1_555
O9 C18 1_555 1_555
C2 O1 1_555 1_555
C6 C7 1_555 1_555
C12 N2 1_555 1_555
C12 N3 1_555 1_555
C14 O7 1_555 1_555
C17 N4 1_555 1_555
C17 N5 1_555 1_555
C19 O9 1_555 1_555

#END
