
#######################################################################
#
#                 Cambridge Crystallographic Data Centre
#                                CCDC 
#
#######################################################################
#
# If this CIF has been generated from an entry in the Cambridge 
# Structural Database, then it will include bibliographic, chemical, 
# crystal, experimental, refinement or atomic coordinate data resulting 
# from the CCDC's data processing and validation procedures.
#
#######################################################################

data_CEZGIA
_chemical_formula_moiety         'C42 H40 N4'
_chemical_name_systematic        
'5,5,10,15,15,20-hexamethyl-10,20-bis(phenylethynyl)-5,10,15,20,22,24-hexahydroporphyrin unknown solvate'
_symmetry_cell_setting           rhombohedral
_symmetry_space_group_name_H-M   'R -3'
_symmetry_Int_Tables_number      148
_space_group_name_Hall           '-R 3'
loop_
_symmetry_equiv_pos_site_id
_symmetry_equiv_pos_as_xyz
1 x,y,z
2 -y,x-y,z
3 -x+y,-x,z
4 2/3+x,1/3+y,1/3+z
5 2/3-y,1/3+x-y,1/3+z
6 2/3-x+y,1/3-x,1/3+z
7 1/3+x,2/3+y,2/3+z
8 1/3-y,2/3+x-y,2/3+z
9 1/3-x+y,2/3-x,2/3+z
10 -x,-y,-z
11 y,-x+y,-z
12 x-y,x,-z
13 1/3-x,2/3-y,2/3-z
14 1/3+y,2/3-x+y,2/3-z
15 1/3+x-y,2/3+x,2/3-z
16 2/3-x,1/3-y,1/3-z
17 2/3+y,1/3-x+y,1/3-z
18 2/3+x-y,1/3+x,1/3-z
_cell_length_a                   26.1757(5)
_cell_length_b                   26.1757(5)
_cell_length_c                   31.6025(9)
_cell_angle_alpha                90
_cell_angle_beta                 90
_cell_angle_gamma                120
_cell_volume                     18752
_exptl_crystal_colour            green
_exptl_crystal_description       block
_cell_formula_units_Z            18
loop_
_atom_site_label
_atom_site_type_symbol
_atom_site_fract_x
_atom_site_fract_y
_atom_site_fract_z
C1 C 0.66383(17) 0.21297(18) 0.23640(12)
C2 C 0.67182(18) 0.25324(18) 0.26611(13)
H1 H 0.649253 0.271911 0.268857
C3 C 0.71950(17) 0.26300(18) 0.29251(12)
H2 H 0.734101 0.289039 0.315623
C4 C 0.74045(17) 0.22764(17) 0.27829(12)
C5 C 0.61754(18) 0.18355(18) 0.20233(13)
C6 C 0.5705(2) 0.1215(2) 0.21696(16)
H3 H 0.540917 0.102856 0.195017
H4 H 0.588981 0.098023 0.222441
H5 H 0.551937 0.124647 0.24264
C7 C 0.5875(2) 0.2209(2) 0.19510(14)
H6 H 0.557601 0.202604 0.173304
H7 H 0.569203 0.223049 0.22122
H8 H 0.616792 0.260305 0.186253
C8 C 0.6440(2) 0.1794(2) 0.16061(13)
C9 C 0.6254(2) 0.1357(2) 0.13085(15)
H9 H 0.593805 0.096979 0.133916
C10 C 0.6616(2) 0.1587(2) 0.09479(16)
H10 H 0.657936 0.138076 0.069594
C11 C 0.7026(2) 0.2155(2) 0.10262(13)
C12 C 0.7504(2) 0.2619(2) 0.07487(14)
C13 C 0.7573(2) 0.2325(3) 0.03737(16)
C14 C 0.7628(2) 0.2110(3) 0.00601(17)
C15 C 0.7654(3) 0.1823(4) -0.03343(17)
C16 C 0.8063(4) 0.2150(4) -0.0632(2)
H11 H 0.833164 0.255342 -0.059025
C17 C 0.8067(6) 0.1861(7) -0.1002(3)
H12 H 0.836618 0.20733 -0.120136
C18 C 0.7674(7) 0.1306(8) -0.1088(4)
H13 H 0.766258 0.114626 -0.135684
C19 C 0.7282(5) 0.0969(5) -0.0778(3)
H14 H 0.702143 0.056461 -0.082336
C20 C 0.7274(4) 0.1231(4) -0.0395(2)
H15 H 0.701021 0.100262 -0.018029
C21 C 0.8092(2) 0.2960(2) 0.09790(13)
C22 C 0.8494(3) 0.3549(2) 0.09818(15)
H16 H 0.845095 0.384595 0.084821
C23 C 0.8983(2) 0.3631(2) 0.12199(15)
H17 H 0.932191 0.399586 0.127562
C24 C 0.8884(2) 0.3095(2) 0.13567(13)
C25 C 0.92407(19) 0.29049(19) 0.16172(14)
C26 C 0.89163(17) 0.25781(18) 0.20101(13)
C27 C 0.90037(19) 0.21851(19) 0.22384(15)
H18 H 0.927197 0.205917 0.216741
C28 C 0.86438(15) 0.20023(15) 0.25847(11)
H19 H 0.862667 0.173233 0.278831
C29 C 0.83140(17) 0.22711(18) 0.25896(12)
C30 C 0.78906(18) 0.21791(18) 0.29428(13)
C31 C 0.76334(19) 0.1571(2) 0.31010(13)
C32 C 0.7433(2) 0.1072(2) 0.32211(14)
C33 C 0.7187(2) 0.0462(2) 0.33479(15)
C34 C 0.7338(3) 0.0099(3) 0.31294(18)
H20 H 0.76022 0.025151 0.290068
C35 C 0.7107(3) -0.0486(3) 0.3242(2)
H21 H 0.720547 -0.073065 0.308755
C36 C 0.6731(4) -0.0707(3) 0.3584(2)
H22 H 0.657256 -0.110399 0.366304
C37 C 0.6588(3) -0.0351(3) 0.38059(19)
H23 H 0.633347 -0.050453 0.403941
C38 C 0.6813(2) 0.0232(2) 0.36937(16)
H24 H 0.6712 0.047319 0.38515
C39 C 0.7311(3) 0.3064(2) 0.05998(17)
H25 H 0.726344 0.326142 0.084394
H26 H 0.760968 0.33546 0.041363
H27 H 0.693922 0.285433 0.044901
C40 C 0.9393(2) 0.2505(2) 0.13423(16)
H28 H 0.962341 0.238121 0.150874
H29 H 0.903145 0.216086 0.124988
H30 H 0.961957 0.272477 0.109723
C41 C 0.9821(2) 0.3456(2) 0.17408(17)
H31 H 1.00569 0.33411 0.190918
H32 H 1.003632 0.365671 0.148711
H33 H 0.973643 0.371858 0.190445
C42 C 0.8224(2) 0.2619(2) 0.33065(13)
H34 H 0.839382 0.301969 0.32018
H35 H 0.795184 0.255767 0.353475
H36 H 0.853671 0.255498 0.341039
N1 N 0.70558(15) 0.19693(15) 0.24442(10)
H37 H 0.709417 0.170767 0.229945
N2 N 0.69140(16) 0.22807(17) 0.14293(11)
H38 H 0.711575 0.26208 0.155405
N3 N 0.83346(17) 0.26861(17) 0.12053(11)
H39 H 0.816575 0.230751 0.124734
N4 N 0.84811(18) 0.26326(19) 0.22379(13)
H40 H 0.834006 0.285923 0.216735
loop_
_geom_bond_atom_site_label_1
_geom_bond_atom_site_label_2
_geom_bond_site_symmetry_1
_geom_bond_site_symmetry_2
C1 C2 1_555 1_555
C2 H1 1_555 1_555
C3 C2 1_555 1_555
H2 C3 1_555 1_555
C4 C3 1_555 1_555
C5 C1 1_555 1_555
C6 C5 1_555 1_555
H3 C6 1_555 1_555
H4 C6 1_555 1_555
H5 C6 1_555 1_555
C7 C5 1_555 1_555
H6 C7 1_555 1_555
H7 C7 1_555 1_555
H8 C7 1_555 1_555
C8 C5 1_555 1_555
C9 C8 1_555 1_555
H9 C9 1_555 1_555
C10 C9 1_555 1_555
H10 C10 1_555 1_555
C11 C10 1_555 1_555
C12 C11 1_555 1_555
C13 C12 1_555 1_555
C14 C13 1_555 1_555
C15 C14 1_555 1_555
C16 C15 1_555 1_555
H11 C16 1_555 1_555
C17 C16 1_555 1_555
H12 C17 1_555 1_555
C18 C17 1_555 1_555
H13 C18 1_555 1_555
C19 C18 1_555 1_555
H14 C19 1_555 1_555
C20 C15 1_555 1_555
H15 C20 1_555 1_555
C21 C12 1_555 1_555
C22 C21 1_555 1_555
H16 C22 1_555 1_555
C23 C22 1_555 1_555
H17 C23 1_555 1_555
C24 C23 1_555 1_555
C25 C24 1_555 1_555
C26 C25 1_555 1_555
C27 C26 1_555 1_555
H18 C27 1_555 1_555
C28 C27 1_555 1_555
H19 C28 1_555 1_555
C29 C28 1_555 1_555
C30 C4 1_555 1_555
C31 C30 1_555 1_555
C32 C31 1_555 1_555
C33 C32 1_555 1_555
C34 C33 1_555 1_555
H20 C34 1_555 1_555
C35 C34 1_555 1_555
H21 C35 1_555 1_555
C36 C35 1_555 1_555
H22 C36 1_555 1_555
C37 C36 1_555 1_555
H23 C37 1_555 1_555
C38 C33 1_555 1_555
H24 C38 1_555 1_555
C39 C12 1_555 1_555
H25 C39 1_555 1_555
H26 C39 1_555 1_555
H27 C39 1_555 1_555
C40 C25 1_555 1_555
H28 C40 1_555 1_555
H29 C40 1_555 1_555
H30 C40 1_555 1_555
C41 C25 1_555 1_555
H31 C41 1_555 1_555
H32 C41 1_555 1_555
H33 C41 1_555 1_555
C42 C30 1_555 1_555
H34 C42 1_555 1_555
H35 C42 1_555 1_555
H36 C42 1_555 1_555
N1 C1 1_555 1_555
H37 N1 1_555 1_555
N2 C8 1_555 1_555
H38 N2 1_555 1_555
N3 C21 1_555 1_555
H39 N3 1_555 1_555
N4 C26 1_555 1_555
H40 N4 1_555 1_555
C4 N1 1_555 1_555
C11 N2 1_555 1_555
C19 C20 1_555 1_555
C24 N3 1_555 1_555
C29 C30 1_555 1_555
C29 N4 1_555 1_555
C37 C38 1_555 1_555

#END
