
#######################################################################
#
#                 Cambridge Crystallographic Data Centre
#                                CCDC 
#
#######################################################################
#
# If this CIF has been generated from an entry in the Cambridge 
# Structural Database, then it will include bibliographic, chemical, 
# crystal, experimental, refinement or atomic coordinate data resulting 
# from the CCDC's data processing and validation procedures.
#
#######################################################################

data_CEZGOG
_chemical_formula_moiety         'C42 H40 N4,C8 H20 N1 1+,Cl1 1-'
_chemical_name_systematic        
'tetraethylammonium chloride 5,5,10,15,15,20-hexamethyl-10,20-bis(phenylethynyl)-5,10,15,20,22,24-hexahydroporphyrin'
_symmetry_cell_setting           monoclinic
_symmetry_space_group_name_H-M   'P 21'
_symmetry_Int_Tables_number      4
_space_group_name_Hall           'P 2yb'
loop_
_symmetry_equiv_pos_site_id
_symmetry_equiv_pos_as_xyz
1 x,y,z
2 -x,1/2+y,-z
_cell_length_a                   10.1635(19)
_cell_length_b                   20.791(4)
_cell_length_c                   10.5547(19)
_cell_angle_alpha                90
_cell_angle_beta                 102.641(2)
_cell_angle_gamma                90
_cell_volume                     2176.24
_exptl_crystal_colour            colorless
_exptl_crystal_description       brick
_cell_formula_units_Z            2
loop_
_atom_site_label
_atom_site_type_symbol
_atom_site_fract_x
_atom_site_fract_y
_atom_site_fract_z
C1 C 0.8136(3) 0.97977(16) 0.3499(3)
C2 C 0.8747(3) 1.03024(17) 0.4223(3)
H1 H 0.9594 1.0477 0.4196
C3 C 0.7881(4) 1.05174(17) 0.5022(3)
H2 H 0.8049 1.0861 0.5614
C4 C 0.6758(3) 1.01365(16) 0.4779(3)
C5 C 0.5488(3) 1.01478(16) 0.5318(3)
C6 C 0.5399(3) 0.95601(15) 0.6153(3)
C7 C 0.5518(3) 0.94967(17) 0.7464(3)
H3 H 0.5708 0.983 0.8079
C8 C 0.5303(3) 0.88390(17) 0.7732(3)
H4 H 0.5325 0.866 0.8554
C9 C 0.5057(3) 0.85143(17) 0.6572(3)
C10 C 0.4713(3) 0.78118(16) 0.6252(3)
C11 C 0.5853(3) 0.74351(16) 0.5889(3)
C12 C 0.6642(3) 0.69545(17) 0.6507(3)
H5 H 0.6632 0.6791 0.7335
C13 C 0.7486(3) 0.67408(16) 0.5683(3)
H6 H 0.8132 0.6411 0.5869
C14 C 0.7196(3) 0.70974(16) 0.4580(3)
C15 C 0.7738(3) 0.70776(16) 0.3345(3)
C16 C 0.8563(3) 0.76709(16) 0.3215(3)
C17 C 0.9919(3) 0.77561(18) 0.3285(3)
H7 H 1.0582 0.7434 0.3468
C18 C 1.0147(3) 0.84143(17) 0.3034(3)
H8 H 1.0983 0.8604 0.3022
C19 C 0.8933(3) 0.87180(16) 0.2814(3)
C20 C 0.8544(3) 0.94084(16) 0.2428(3)
C21 C 0.4237(3) 1.01764(18) 0.4185(3)
H9 H 0.3427 1.0185 0.4529
H10 H 0.4222 0.98 0.3638
H11 H 0.4277 1.0562 0.3676
C22 C 0.5494(4) 1.07530(17) 0.6145(3)
H12 H 0.4684 1.0763 0.649
H13 H 0.552 1.1131 0.5613
H14 H 0.6281 1.0749 0.6856
C23 C 0.3438(3) 0.77590(18) 0.5138(3)
H15 H 0.3618 0.7952 0.4356
H16 H 0.2694 0.7982 0.5385
H17 H 0.3205 0.731 0.4975
C24 C 0.6550(4) 0.70345(19) 0.2156(3)
H18 H 0.6015 0.6656 0.2231
H19 H 0.6896 0.7005 0.1371
H20 H 0.5992 0.7416 0.2117
C25 C 0.8620(4) 0.64771(18) 0.3376(4)
H21 H 0.8092 0.6097 0.3461
H22 H 0.9383 0.6503 0.411
H23 H 0.8942 0.6451 0.2578
C26 C 0.7378(3) 0.94161(18) 0.1198(3)
H24 H 0.6582 0.9219 0.1398
H25 H 0.7647 0.9177 0.0507
H26 H 0.7176 0.9857 0.0921
C27 C 0.4362(3) 0.75076(17) 0.7407(3)
C28 C 0.3945(3) 0.72671(16) 0.8259(3)
C29 C 0.3291(3) 0.70040(17) 0.9232(3)
C30 C 0.3227(3) 0.73658(19) 1.0329(3)
H27 H 0.3678 0.7763 1.0474
C31 C 0.2507(4) 0.7142(2) 1.1199(3)
H28 H 0.2467 0.7388 1.1938
C32 C 0.1843(4) 0.6562(2) 1.0999(4)
H29 H 0.1343 0.6415 1.1593
C33 C 0.1913(4) 0.6197(2) 0.9925(4)
H30 H 0.1466 0.5798 0.9792
C34 C 0.2637(3) 0.64138(18) 0.9040(3)
H31 H 0.2687 0.6162 0.8312
C35 C 0.9726(3) 0.97127(17) 0.2072(3)
C36 C 1.0650(3) 0.99313(17) 0.1691(3)
C37 C 1.1752(3) 1.01696(18) 0.1170(3)
C38 C 1.1933(4) 1.0821(2) 0.1004(3)
H32 H 1.1335 1.1119 0.1243
C39 C 1.2990(5) 1.1035(2) 0.0487(4)
H33 H 1.3113 1.1479 0.0382
C40 C 1.3866(5) 1.0602(3) 0.0124(4)
H34 H 1.4579 1.075 -0.0235
C41 C 1.3699(4) 0.9957(2) 0.0287(4)
H35 H 1.4293 0.9662 0.0032
C42 C 1.2658(3) 0.9737(2) 0.0827(3)
H36 H 1.2564 0.9294 0.0963
N1 N 0.6927(3) 0.96978(14) 0.3846(3)
N2 N 0.5122(3) 0.89579(13) 0.5620(3)
N3 N 0.6207(3) 0.75287(13) 0.4712(3)
N4 N 0.7971(3) 0.82638(13) 0.2926(3)
H37 H 0.634(4) 0.9380(19) 0.350(4)
H38 H 0.496(3) 0.8874(15) 0.477(3)
H39 H 0.580(3) 0.7804(16) 0.405(3)
H40 H 0.702(4) 0.8347(18) 0.273(3)
C43 C 0.9589(3) 0.81194(17) 0.6598(3)
H41 H 0.865 0.7998 0.6564
H42 H 0.9635 0.8291 0.5744
C44 C 1.0452(3) 0.75226(19) 0.6849(4)
H43 H 1.0134 0.7211 0.6167
H44 H 1.0395 0.734 0.7681
H45 H 1.1381 0.7634 0.686
C45 C 1.0042(3) 0.83997(19) 0.8968(3)
H46 H 1.081 0.8105 0.92
H47 H 1.0216 0.8763 0.9573
C46 C 0.8793(4) 0.8053(2) 0.9167(4)
H48 H 0.8929 0.7913 1.0062
H49 H 0.8624 0.7682 0.8597
H50 H 0.8026 0.8342 0.8968
C47 C 0.8928(3) 0.91758(17) 0.7249(3)
H51 H 0.8883 0.9306 0.6348
H52 H 0.8047 0.8996 0.7292
C48 C 0.9180(4) 0.97687(19) 0.8103(3)
H53 H 0.8463 1.0078 0.7811
H54 H 1.0038 0.9959 0.805
H55 H 0.9199 0.9649 0.8995
C49 C 1.1393(3) 0.89086(19) 0.7598(3)
H56 H 1.166 0.9207 0.8328
H57 H 1.2028 0.8548 0.7746
C50 C 1.1527(4) 0.9249(2) 0.6371(4)
H58 H 1.2449 0.9395 0.6457
H59 H 1.0923 0.9616 0.6225
H60 H 1.1294 0.8955 0.5642
N5 N 0.9984(2) 0.86514(16) 0.7605(2)
Cl1 Cl 0.47658(7) 0.85798(4) 0.25644(7)
loop_
_geom_bond_atom_site_label_1
_geom_bond_atom_site_label_2
_geom_bond_site_symmetry_1
_geom_bond_site_symmetry_2
C1 C2 1_555 1_555
C2 H1 1_555 1_555
C3 C2 1_555 1_555
H2 C3 1_555 1_555
C4 C3 1_555 1_555
C5 C4 1_555 1_555
C6 C5 1_555 1_555
C7 C6 1_555 1_555
H3 C7 1_555 1_555
C8 C7 1_555 1_555
H4 C8 1_555 1_555
C9 C8 1_555 1_555
C10 C9 1_555 1_555
C11 C10 1_555 1_555
C12 C11 1_555 1_555
H5 C12 1_555 1_555
C13 C12 1_555 1_555
H6 C13 1_555 1_555
C14 C13 1_555 1_555
C15 C14 1_555 1_555
C16 C15 1_555 1_555
C17 C16 1_555 1_555
H7 C17 1_555 1_555
C18 C17 1_555 1_555
H8 C18 1_555 1_555
C19 C18 1_555 1_555
C20 C1 1_555 1_555
C21 C5 1_555 1_555
H9 C21 1_555 1_555
H10 C21 1_555 1_555
H11 C21 1_555 1_555
C22 C5 1_555 1_555
H12 C22 1_555 1_555
H13 C22 1_555 1_555
H14 C22 1_555 1_555
C23 C10 1_555 1_555
H15 C23 1_555 1_555
H16 C23 1_555 1_555
H17 C23 1_555 1_555
C24 C15 1_555 1_555
H18 C24 1_555 1_555
H19 C24 1_555 1_555
H20 C24 1_555 1_555
C25 C15 1_555 1_555
H21 C25 1_555 1_555
H22 C25 1_555 1_555
H23 C25 1_555 1_555
C26 C20 1_555 1_555
H24 C26 1_555 1_555
H25 C26 1_555 1_555
H26 C26 1_555 1_555
C27 C10 1_555 1_555
C28 C27 1_555 1_555
C29 C28 1_555 1_555
C30 C29 1_555 1_555
H27 C30 1_555 1_555
C31 C30 1_555 1_555
H28 C31 1_555 1_555
C32 C31 1_555 1_555
H29 C32 1_555 1_555
C33 C32 1_555 1_555
H30 C33 1_555 1_555
C34 C29 1_555 1_555
H31 C34 1_555 1_555
C35 C20 1_555 1_555
C36 C35 1_555 1_555
C37 C36 1_555 1_555
C38 C37 1_555 1_555
H32 C38 1_555 1_555
C39 C38 1_555 1_555
H33 C39 1_555 1_555
C40 C39 1_555 1_555
H34 C40 1_555 1_555
C41 C40 1_555 1_555
H35 C41 1_555 1_555
C42 C37 1_555 1_555
H36 C42 1_555 1_555
N1 C1 1_555 1_555
N2 C6 1_555 1_555
N3 C11 1_555 1_555
N4 C16 1_555 1_555
H37 N1 1_555 1_555
H38 N2 1_555 1_555
H39 N3 1_555 1_555
H40 N4 1_555 1_555
C43 H41 1_555 1_555
H42 C43 1_555 1_555
C44 C43 1_555 1_555
H43 C44 1_555 1_555
H44 C44 1_555 1_555
H45 C44 1_555 1_555
C45 H46 1_555 1_555
H47 C45 1_555 1_555
C46 C45 1_555 1_555
H48 C46 1_555 1_555
H49 C46 1_555 1_555
H50 C46 1_555 1_555
C47 H51 1_555 1_555
H52 C47 1_555 1_555
C48 C47 1_555 1_555
H53 C48 1_555 1_555
H54 C48 1_555 1_555
H55 C48 1_555 1_555
C49 H56 1_555 1_555
H57 C49 1_555 1_555
C50 C49 1_555 1_555
H58 C50 1_555 1_555
H59 C50 1_555 1_555
H60 C50 1_555 1_555
N5 C43 1_555 1_555
C4 N1 1_555 1_555
C9 N2 1_555 1_555
C14 N3 1_555 1_555
C19 C20 1_555 1_555
C19 N4 1_555 1_555
C33 C34 1_555 1_555
C41 C42 1_555 1_555
C45 N5 1_555 1_555
C47 N5 1_555 1_555
C49 N5 1_555 1_555

#END
