
#######################################################################
#
#                 Cambridge Crystallographic Data Centre
#                                CCDC 
#
#######################################################################
#
# If this CIF has been generated from an entry in the Cambridge 
# Structural Database, then it will include bibliographic, chemical, 
# crystal, experimental, refinement or atomic coordinate data resulting 
# from the CCDC's data processing and validation procedures.
#
#######################################################################

data_CEZGIX
_chemical_formula_moiety         'C39 H51 Ba1 N11 2+,2(Cl1 O4 1-),C2 H3 N1'
_chemical_name_systematic        
'(1,5,9,13,17,21,28,32-Octa-aza-7,19,30(2,6)-tripyridinabicyclo(11.11.11)pentatriacontaphane-5,8,17,20,28,31-hexaene)-barium diperchlorate acetonitrile solvate'
_symmetry_cell_setting           monoclinic
_symmetry_space_group_name_H-M   'P 21/c'
_symmetry_Int_Tables_number      14
_space_group_name_Hall           '-P 2ybc'
loop_
_symmetry_equiv_pos_site_id
_symmetry_equiv_pos_as_xyz
1 x,y,z
2 x,1/2-y,1/2+z
3 -x,-y,-z
4 -x,1/2+y,1/2-z
_cell_length_a                   10.578(5)
_cell_length_b                   23.863(4)
_cell_length_c                   18.547(3)
_cell_angle_alpha                90.00
_cell_angle_beta                 92.19(2)
_cell_angle_gamma                90.00
_cell_volume                     4678.27
_exptl_crystal_colour            colorless
_exptl_crystal_description       cubic
_cell_formula_units_Z            4
_exptl_crystal_recrystallization_method 'diethyl ether/acetonitrile'
loop_
_atom_site_label
_atom_site_type_symbol
_atom_site_fract_x
_atom_site_fract_y
_atom_site_fract_z
Ba1 Ba -0.08628(4) 0.861552(11) -0.21686(2)
N1 N 0.1046(4) 0.8613(2) -0.0239(2)
C1 C 0.0107(7) 0.8700(3) 0.0309(3)
H1 H 0.0545(7) 0.8685(3) 0.0778(3)
H2 H -0.0476(7) 0.8387(3) 0.0285(3)
C2 C -0.0689(5) 0.9247(2) 0.0279(2)
H3 H -0.1303(5) 0.9228(2) 0.0653(2)
H4 H -0.0130(5) 0.9559(2) 0.0393(2)
C3 C -0.1344(5) 0.9365(2) -0.0381(2)
H5 H -0.2035(5) 0.9619(2) -0.0289(2)
H6 H -0.0773(5) 0.9557(2) -0.0695(2)
N2 N -0.1835(4) 0.88904(14) -0.0744(2)
C4 C -0.2901(5) 0.8707(2) -0.0545(2)
H7 H -0.3356(5) 0.8904(2) -0.0208(2)
C5 C -0.3412(5) 0.8170(2) -0.0860(2)
C6 C -0.4443(5) 0.7898(2) -0.0514(2)
H8 H -0.4819(5) 0.8066(2) -0.0123(2)
C7 C -0.4858(5) 0.7397(2) -0.0762(2)
H9 H -0.5425(5) 0.7184(2) -0.0507(2)
C8 C -0.4424(5) 0.7219(2) -0.1388(2)
H10 H -0.4818(5) 0.6915(2) -0.1614(2)
C9 C -0.3368(5) 0.7480(2) -0.1728(2)
N3 N -0.3037(4) 0.79963(13) -0.1478(2)
C10 C -0.2846(5) 0.7309(2) -0.2394(2)
H11 H -0.3136(5) 0.6972(2) -0.2588(2)
N4 N -0.2032(4) 0.75700(14) -0.2745(2)
C11 C -0.1567(5) 0.7351(2) -0.3444(2)
H12 H -0.0688(5) 0.7456(2) -0.3490(2)
H13 H -0.1617(5) 0.6945(2) -0.3447(2)
C12 C -0.2317(5) 0.7575(2) -0.4054(2)
H14 H -0.3203(5) 0.7549(2) -0.3941(2)
H15 H -0.2189(5) 0.7336(2) -0.4468(2)
C13 C -0.2039(5) 0.8182(2) -0.4270(2)
H16 H -0.1130(5) 0.8219(2) -0.4308(2)
H17 H -0.2416(5) 0.8243(2) -0.4748(2)
N5 N -0.2470(5) 0.8642(2) -0.3796(2)
C14 C 0.1834(8) 0.8115(3) -0.0138(3)
H18 H 0.2342(8) 0.8146(3) 0.0307(3)
H19 H 0.2400(8) 0.8078(3) -0.0535(3)
C15 C 0.0878(5) 0.7551(2) -0.0106(2)
H20 H 0.1401(5) 0.7221(2) -0.0029(2)
H21 H 0.0355(5) 0.7590(2) 0.0310(2)
C16 C 0.0026(5) 0.7455(2) -0.0762(2)
H22 H -0.0098(5) 0.7054(2) -0.0814(2)
H23 H -0.0791(5) 0.7619(2) -0.0670(2)
N6 N 0.0432(4) 0.76709(15) -0.1446(2)
C17 C 0.1245(5) 0.7375(2) -0.1705(2)
H24 H 0.1531(5) 0.7055(2) -0.1463(2)
N7 N 0.1310(4) 0.80113(12) -0.2749(2)
C18 C 0.1779(5) 0.7532(2) -0.2419(2)
C19 C 0.2854(5) 0.7238(2) -0.2643(2)
H25 H 0.3160(5) 0.6931(2) -0.2382(2)
C20 C 0.3449(5) 0.7414(2) -0.3259(2)
H26 H 0.4145(5) 0.7225(2) -0.3432(2)
C21 C 0.3006(4) 0.78327(14) -0.3563(2)
H27 H 0.3389(4) 0.79200(14) -0.3992(2)
C22 C 0.2111(4) 0.81751(14) -0.3402(2)
C23 C 0.1839(3) 0.86639(12) -0.3668(2)
H28 H 0.2409(3) 0.88630(12) -0.3940(2)
N8 N 0.0561(3) 0.88905(11) -0.35152(15)
C24 C 0.0079(5) 0.9437(2) -0.3923(2)
H29 H -0.0241(5) 0.9704(2) -0.3579(2)
H30 H 0.0772(5) 0.9612(2) -0.4167(2)
C25 C -0.0969(5) 0.9273(2) -0.4470(2)
H31 H -0.0712(5) 0.8930(2) -0.4704(2)
H32 H -0.1022(5) 0.9561(2) -0.4838(2)
C26 C -0.2343(6) 0.9178(2) -0.4188(3)
H33 H -0.2551(6) 0.9485(2) -0.3870(3)
H34 H -0.2946(6) 0.9184(2) -0.4596(3)
C27 C 0.1958(8) 0.9072(3) -0.0150(4)
H35 H 0.2346(8) 0.9061(3) 0.0332(4)
H36 H 0.1526(8) 0.9429(3) -0.0211(4)
C28 C 0.3014(5) 0.9018(2) -0.0726(2)
H37 H 0.3530(5) 0.9353(2) -0.0682(2)
H38 H 0.3551(5) 0.8707(2) -0.0573(2)
C29 C 0.2724(5) 0.8939(2) -0.1489(2)
H39 H 0.2659(5) 0.8541(2) -0.1592(2)
H40 H 0.3409(5) 0.9089(2) -0.1764(2)
N9 N 0.1441(4) 0.92368(14) -0.1739(2)
C30 C 0.1630(5) 0.9722(2) -0.1860(2)
H41 H 0.2445(5) 0.9868(2) -0.1828(2)
N10 N -0.0605(4) 0.98696(12) -0.2125(2)
C31 C 0.0544(6) 1.0078(2) -0.2059(2)
C32 C 0.0707(6) 1.0694(2) -0.2222(3)
H42 H 0.1495(6) 1.0866(2) -0.2231(3)
C33 C -0.0444(6) 1.0987(2) -0.2358(3)
H43 H -0.0397(6) 1.1375(2) -0.2403(3)
C34 C -0.1652(7) 1.0741(2) -0.2432(3)
H44 H -0.2364(7) 1.0948(2) -0.2573(3)
C35 C -0.1726(5) 1.0161(2) -0.2280(2)
C36 C -0.2922(6) 0.9915(2) -0.2378(2)
H45 H -0.3649(6) 1.0133(2) -0.2428(2)
N11 N -0.2975(4) 0.93832(14) -0.2398(2)
C37 C -0.4311(5) 0.9131(2) -0.2538(2)
H46 H -0.4938(5) 0.9372(2) -0.2328(2)
H47 H -0.4356(5) 0.8766(2) -0.2311(2)
C38 C -0.4600(5) 0.9073(2) -0.3358(2)
H48 H -0.4320(5) 0.9408(2) -0.3603(2)
H49 H -0.5505(5) 0.9037(2) -0.3448(2)
C39 C -0.3908(5) 0.8543(2) -0.3672(2)
H50 H -0.3994(5) 0.8232(2) -0.3340(2)
H51 H -0.4326(5) 0.8438(2) -0.4127(2)
Cl1 Cl 0.30838(10) 0.59678(3) -0.05952(4)
O1 O 0.3746(3) 0.62342(12) -0.00519(12)
O2 O 0.3492(5) 0.54279(8) -0.0650(4)
O3 O 0.3315(5) 0.62005(14) -0.12530(10)
O4 O 0.1803(2) 0.5881(3) -0.0629(4)
Cl2 Cl -0.46536(10) 0.90374(3) 0.14412(4)
O12 O -0.4440(8) 0.96333(8) 0.1541(4)
O13 O -0.5769(2) 0.9124(3) 0.0966(2)
O14 O -0.4544(12) 0.9099(4) 0.22482(11)
O15 O -0.3570(2) 0.86733(14) 0.1339(4)
C40 C -0.3455(6) 0.9661(2) 0.3705(3)
H52 H -0.3372(6) 0.9884(2) 0.4135(3)
H53 H -0.4304(6) 0.9529(2) 0.3616(3)
H54 H -0.3232(6) 0.9866(2) 0.3283(3)
C41 C -0.2641(7) 0.9167(2) 0.3739(3)
N12 N -0.2138(5) 0.8773(2) 0.3722(2)
O5? O 0.2596(4) 0.64833(9) -0.0452(3)
O6? O 0.3572(5) 0.56171(12) -0.00734(14)
O7? O 0.3421(6) 0.5757(2) -0.12451(11)
O8? O -0.4505(9) 0.94806(11) 0.0935(2)
O9? O -0.3960(4) 0.9099(4) 0.21168(12)
O10? O -0.4794(8) 0.85546(10) 0.0996(2)
O11? O -0.5131(4) 0.8831(2) 0.20986(12)
loop_
_geom_bond_atom_site_label_1
_geom_bond_atom_site_label_2
_geom_bond_site_symmetry_1
_geom_bond_site_symmetry_2
Ba1 N2 1_555 1_555
N1 C1 1_555 1_555
C1 H1 1_555 1_555
H2 C1 1_555 1_555
C2 C1 1_555 1_555
H3 C2 1_555 1_555
H4 C2 1_555 1_555
C3 C2 1_555 1_555
H5 C3 1_555 1_555
H6 C3 1_555 1_555
N2 C3 1_555 1_555
C4 N2 1_555 1_555
H7 C4 1_555 1_555
C5 C4 1_555 1_555
C6 C5 1_555 1_555
H8 C6 1_555 1_555
C7 C6 1_555 1_555
H9 C7 1_555 1_555
C8 C7 1_555 1_555
H10 C8 1_555 1_555
C9 C8 1_555 1_555
N3 Ba1 1_555 1_555
C10 C9 1_555 1_555
H11 C10 1_555 1_555
N4 Ba1 1_555 1_555
C11 N4 1_555 1_555
H12 C11 1_555 1_555
H13 C11 1_555 1_555
C12 C11 1_555 1_555
H14 C12 1_555 1_555
H15 C12 1_555 1_555
C13 C12 1_555 1_555
H16 C13 1_555 1_555
H17 C13 1_555 1_555
N5 C13 1_555 1_555
C14 N1 1_555 1_555
H18 C14 1_555 1_555
H19 C14 1_555 1_555
C15 C14 1_555 1_555
H20 C15 1_555 1_555
H21 C15 1_555 1_555
C16 C15 1_555 1_555
H22 C16 1_555 1_555
H23 C16 1_555 1_555
N6 Ba1 1_555 1_555
C17 N6 1_555 1_555
H24 C17 1_555 1_555
N7 Ba1 1_555 1_555
C18 C17 1_555 1_555
C19 C18 1_555 1_555
H25 C19 1_555 1_555
C20 C19 1_555 1_555
H26 C20 1_555 1_555
C21 C20 1_555 1_555
H27 C21 1_555 1_555
C22 N7 1_555 1_555
C23 C22 1_555 1_555
H28 C23 1_555 1_555
N8 Ba1 1_555 1_555
C24 N8 1_555 1_555
H29 C24 1_555 1_555
H30 C24 1_555 1_555
C25 C24 1_555 1_555
H31 C25 1_555 1_555
H32 C25 1_555 1_555
C26 N5 1_555 1_555
H33 C26 1_555 1_555
H34 C26 1_555 1_555
C27 N1 1_555 1_555
H35 C27 1_555 1_555
H36 C27 1_555 1_555
C28 C27 1_555 1_555
H37 C28 1_555 1_555
H38 C28 1_555 1_555
C29 C28 1_555 1_555
H39 C29 1_555 1_555
H40 C29 1_555 1_555
N9 Ba1 1_555 1_555
C30 N9 1_555 1_555
H41 C30 1_555 1_555
N10 Ba1 1_555 1_555
C31 C30 1_555 1_555
C32 C31 1_555 1_555
H42 C32 1_555 1_555
C33 C32 1_555 1_555
H43 C33 1_555 1_555
C34 C33 1_555 1_555
H44 C34 1_555 1_555
C35 N10 1_555 1_555
C36 C35 1_555 1_555
H45 C36 1_555 1_555
N11 Ba1 1_555 1_555
C37 N11 1_555 1_555
H46 C37 1_555 1_555
H47 C37 1_555 1_555
C38 C37 1_555 1_555
H48 C38 1_555 1_555
H49 C38 1_555 1_555
C39 N5 1_555 1_555
H50 C39 1_555 1_555
H51 C39 1_555 1_555
Cl1 O1 1_555 1_555
O2 Cl1 1_555 1_555
O3 Cl1 1_555 1_555
O4 Cl1 1_555 1_555
Cl2 O12 1_555 1_555
O13 Cl2 1_555 1_555
O14 Cl2 1_555 1_555
O15 Cl2 1_555 1_555
C40 H52 1_555 1_555
H53 C40 1_555 1_555
H54 C40 1_555 1_555
C41 C40 1_555 1_555
N12 C41 1_555 1_555
C5 N3 1_555 1_555
C9 N3 1_555 1_555
C10 N4 1_555 1_555
C16 N6 1_555 1_555
N7 C18 1_555 1_555
C21 C22 1_555 1_555
C23 N8 1_555 1_555
C25 C26 1_555 1_555
C29 N9 1_555 1_555
N10 C31 1_555 1_555
C34 C35 1_555 1_555
C36 N11 1_555 1_555
C38 C39 1_555 1_555

#END
