
#######################################################################
#
#                 Cambridge Crystallographic Data Centre
#                                CCDC 
#
#######################################################################
#
# If this CIF has been generated from an entry in the Cambridge 
# Structural Database, then it will include bibliographic, chemical, 
# crystal, experimental, refinement or atomic coordinate data resulting 
# from the CCDC's data processing and validation procedures.
#
#######################################################################

data_CEZGUM
_chemical_formula_moiety         'C42 H40 N4,2(C3 H6 O1),H2 O1'
_chemical_name_systematic        
'5,5,10,15,15,20-hexamethyl-10,20-bis(phenylethynyl)-5,10,15,20,22,24-hexahydroporphyrin acetone  solvate monohydrate'
_symmetry_cell_setting           monoclinic
_symmetry_space_group_name_H-M   'P 21/c'
_symmetry_Int_Tables_number      14
_space_group_name_Hall           '-P 2ybc'
loop_
_symmetry_equiv_pos_site_id
_symmetry_equiv_pos_as_xyz
1 x,y,z
2 -x,1/2+y,1/2-z
3 -x,-y,-z
4 x,1/2-y,1/2+z
_cell_length_a                   16.8622(6)
_cell_length_b                   9.5715(4)
_cell_length_c                   26.4871(9)
_cell_angle_alpha                90
_cell_angle_beta                 90.972(2)
_cell_angle_gamma                90
_cell_volume                     4274.31
_exptl_crystal_colour            brown
_exptl_crystal_description       plate
_cell_formula_units_Z            4
loop_
_atom_site_label
_atom_site_type_symbol
_atom_site_fract_x
_atom_site_fract_y
_atom_site_fract_z
C1 C 0.20196(11) 0.1951(2) 0.27906(7)
C2 C 0.24419(12) 0.3127(2) 0.26792(8)
H1 H 0.2241 0.4031 0.2657
C3 C 0.32419(12) 0.2725(2) 0.26029(8)
H2 H 0.3657 0.3318 0.2522
C4 C 0.32933(11) 0.1315(2) 0.26694(8)
C5 C 0.39961(11) 0.0333(2) 0.26232(8)
C6 C 0.41853(11) -0.0444(2) 0.31094(8)
C7 C 0.47605(12) -0.0239(2) 0.34679(9)
H3 H 0.5141 0.0464 0.3467
C8 C 0.46789(12) -0.1279(3) 0.38410(9)
H4 H 0.4998 -0.1378 0.4129
C9 C 0.40568(11) -0.2111(2) 0.37103(8)
C10 C 0.37377(12) -0.3438(2) 0.39408(8)
C11 C 0.28415(12) -0.3422(2) 0.39606(8)
C12 C 0.22806(12) -0.4374(2) 0.38015(8)
H5 H 0.238 -0.5214 0.3638
C13 C 0.15236(12) -0.3847(2) 0.39300(8)
H6 H 0.1039 -0.4281 0.3865
C14 C 0.16321(11) -0.2588(2) 0.41656(8)
C15 C 0.10452(11) -0.1577(2) 0.43919(8)
C16 C 0.10452(11) -0.0175(2) 0.41242(8)
C17 C 0.09129(12) 0.1142(2) 0.43000(9)
H7 H 0.0833 0.1389 0.4635
C18 C 0.09187(12) 0.2064(2) 0.38840(9)
H8 H 0.0842 0.3026 0.3898
C19 C 0.10552(11) 0.1308(2) 0.34574(8)
C20 C 0.11504(11) 0.1767(2) 0.29118(8)
C21 C 0.38169(11) -0.0730(2) 0.22264(8)
C22 C 0.36753(12) -0.1637(2) 0.19309(9)
C23 C 0.35153(12) -0.2785(2) 0.15948(9)
C24 C 0.36772(14) -0.2699(3) 0.10815(9)
H9 H 0.3893 -0.1884 0.0951
C25 C 0.35188(15) -0.3813(3) 0.07664(10)
H10 H 0.3625 -0.3746 0.0424
C26 C 0.32043(14) -0.5025(3) 0.09574(10)
H11 H 0.3094 -0.5772 0.0743
C27 C 0.30531(13) -0.5138(3) 0.14639(10)
H12 H 0.2848 -0.5964 0.1593
C28 C 0.32057(12) -0.4022(3) 0.17812(9)
H13 H 0.31 -0.41 0.2124
C29 C 0.47284(12) 0.1183(2) 0.24683(9)
H14 H 0.4846 0.1872 0.2722
H15 H 0.4622 0.1638 0.2151
H16 H 0.5174 0.0568 0.2435
C30 C 0.40008(13) -0.4694(2) 0.36240(10)
H17 H 0.4569 -0.4709 0.3608
H18 H 0.3779 -0.4617 0.3289
H19 H 0.3818 -0.5542 0.3777
C31 C 0.40806(13) -0.3594(3) 0.44827(9)
H20 H 0.4649 -0.3596 0.4473
H21 H 0.3899 -0.4456 0.4626
H22 H 0.3906 -0.2827 0.4686
C32 C 0.02376(13) -0.2216(2) 0.43499(8)
C33 C -0.04024(13) -0.2733(2) 0.43354(8)
C34 C -0.11866(13) -0.3348(2) 0.43387(9)
C35 C -0.16866(15) -0.3272(3) 0.39161(11)
H23 H -0.1514 -0.2844 0.3622
C36 C -0.24520(17) -0.3844(3) 0.39349(15)
H24 H -0.2793 -0.3798 0.3656
C37 C -0.26919(18) -0.4481(3) 0.43802(17)
H25 H -0.3203 -0.4843 0.4398
C38 C -0.21964(19) -0.4587(3) 0.47892(14)
H26 H -0.2362 -0.5039 0.508
C39 C -0.14531(16) -0.4024(3) 0.47679(11)
H27 H -0.1116 -0.4094 0.5048
C40 C 0.12394(13) -0.1361(3) 0.49602(8)
H28 H 0.1758 -0.0955 0.4998
H29 H 0.1227 -0.2245 0.5131
H30 H 0.0853 -0.0747 0.5104
C41 C 0.07612(12) 0.0699(2) 0.25492(8)
H31 H 0.0212 0.0591 0.2631
H32 H 0.1026 -0.0185 0.2583
H33 H 0.0803 0.1025 0.2208
C42 C 0.07294(13) 0.3176(2) 0.28373(9)
H34 H 0.0178 0.3076 0.2914
H35 H 0.0781 0.3473 0.2493
H36 H 0.0966 0.3859 0.3058
N1 N 0.25432(9) 0.0846(2) 0.27807(7)
N2 N 0.37558(10) -0.15956(18) 0.32618(7)
N3 N 0.24373(10) -0.2336(2) 0.41810(7)
N4 N 0.11277(10) -0.00654(19) 0.36101(7)
H37 H 0.2412(12) -0.007(2) 0.2831(8)
H38 H 0.3344(12) -0.196(2) 0.3102(8)
H39 H 0.2661(12) -0.159(2) 0.4318(8)
H40 H 0.1237(13) -0.075(2) 0.3409(8)
C43 C 0.12464(12) 0.6573(3) 0.16666(10)
C44 C 0.14124(16) 0.7910(3) 0.14085(11)
H41 H 0.1547 0.861 0.1655
H42 H 0.095 0.8201 0.1219
H43 H 0.1847 0.7787 0.1183
C45 C 0.09826(14) 0.5370(3) 0.13485(10)
H44 H 0.0931 0.4554 0.1556
H45 H 0.1367 0.5197 0.1093
H46 H 0.048 0.5583 0.1191
O1 O 0.13066(9) 0.64536(18) 0.21226(6)
C46 C 0.34603(13) 0.1073(3) 0.44639(9)
C47 C 0.41646(18) 0.1877(3) 0.46630(12)
H47 H 0.4441 0.1328 0.4913
H48 H 0.3988 0.2734 0.4812
H49 H 0.4515 0.2082 0.4391
C48 C 0.30170(14) 0.1663(3) 0.40299(10)
H50 H 0.2602 0.103 0.3929
H51 H 0.337 0.18 0.3754
H52 H 0.279 0.2543 0.4124
O2 O 0.32708(10) -0.00237(18) 0.46574(6)
O3 O 0.20294(10) 0.78482(18) 0.29083(8)
H53 H 0.1794(19) 0.743(3) 0.2641(13)
H54 H 0.2009(17) 0.721(3) 0.3145(12)
loop_
_geom_bond_atom_site_label_1
_geom_bond_atom_site_label_2
_geom_bond_site_symmetry_1
_geom_bond_site_symmetry_2
C1 C2 1_555 1_555
C2 H1 1_555 1_555
C3 C2 1_555 1_555
H2 C3 1_555 1_555
C4 C3 1_555 1_555
C5 C4 1_555 1_555
C6 C5 1_555 1_555
C7 C6 1_555 1_555
H3 C7 1_555 1_555
C8 C7 1_555 1_555
H4 C8 1_555 1_555
C9 C8 1_555 1_555
C10 C9 1_555 1_555
C11 C10 1_555 1_555
C12 C11 1_555 1_555
H5 C12 1_555 1_555
C13 C12 1_555 1_555
H6 C13 1_555 1_555
C14 C13 1_555 1_555
C15 C14 1_555 1_555
C16 C15 1_555 1_555
C17 C16 1_555 1_555
H7 C17 1_555 1_555
C18 C17 1_555 1_555
H8 C18 1_555 1_555
C19 C18 1_555 1_555
C20 C1 1_555 1_555
C21 C5 1_555 1_555
C22 C21 1_555 1_555
C23 C22 1_555 1_555
C24 C23 1_555 1_555
H9 C24 1_555 1_555
C25 C24 1_555 1_555
H10 C25 1_555 1_555
C26 C25 1_555 1_555
H11 C26 1_555 1_555
C27 C26 1_555 1_555
H12 C27 1_555 1_555
C28 C23 1_555 1_555
H13 C28 1_555 1_555
C29 C5 1_555 1_555
H14 C29 1_555 1_555
H15 C29 1_555 1_555
H16 C29 1_555 1_555
C30 C10 1_555 1_555
H17 C30 1_555 1_555
H18 C30 1_555 1_555
H19 C30 1_555 1_555
C31 C10 1_555 1_555
H20 C31 1_555 1_555
H21 C31 1_555 1_555
H22 C31 1_555 1_555
C32 C15 1_555 1_555
C33 C32 1_555 1_555
C34 C33 1_555 1_555
C35 C34 1_555 1_555
H23 C35 1_555 1_555
C36 C35 1_555 1_555
H24 C36 1_555 1_555
C37 C36 1_555 1_555
H25 C37 1_555 1_555
C38 C37 1_555 1_555
H26 C38 1_555 1_555
C39 C34 1_555 1_555
H27 C39 1_555 1_555
C40 C15 1_555 1_555
H28 C40 1_555 1_555
H29 C40 1_555 1_555
H30 C40 1_555 1_555
C41 C20 1_555 1_555
H31 C41 1_555 1_555
H32 C41 1_555 1_555
H33 C41 1_555 1_555
C42 C20 1_555 1_555
H34 C42 1_555 1_555
H35 C42 1_555 1_555
H36 C42 1_555 1_555
N1 C1 1_555 1_555
N2 C6 1_555 1_555
N3 C11 1_555 1_555
N4 C16 1_555 1_555
H37 N1 1_555 1_555
H38 N2 1_555 1_555
H39 N3 1_555 1_555
H40 N4 1_555 1_555
C43 C44 1_555 1_555
C44 H41 1_555 1_555
H42 C44 1_555 1_555
H43 C44 1_555 1_555
C45 C43 1_555 1_555
H44 C45 1_555 1_555
H45 C45 1_555 1_555
H46 C45 1_555 1_555
O1 C43 1_555 1_555
C46 C47 1_555 1_555
C47 H47 1_555 1_555
H48 C47 1_555 1_555
H49 C47 1_555 1_555
C48 C46 1_555 1_555
H50 C48 1_555 1_555
H51 C48 1_555 1_555
H52 C48 1_555 1_555
O2 C46 1_555 1_555
O3 H53 1_555 1_555
H54 O3 1_555 1_555
C4 N1 1_555 1_555
C9 N2 1_555 1_555
C14 N3 1_555 1_555
C19 C20 1_555 1_555
C19 N4 1_555 1_555
C27 C28 1_555 1_555
C38 C39 1_555 1_555

#END
