
#######################################################################
#
#                 Cambridge Crystallographic Data Centre
#                                CCDC 
#
#######################################################################
#
# If this CIF has been generated from an entry in the Cambridge 
# Structural Database, then it will include bibliographic, chemical, 
# crystal, experimental, refinement or atomic coordinate data resulting 
# from the CCDC's data processing and validation procedures.
#
#######################################################################

data_CEZHEX
_chemical_formula_moiety         'C17 H13 N1 O5 S1'
_chemical_name_systematic        
'2-[(2-oxo-5-phenylfuran-3(2H)-ylidene)methyl]phenyl sulfamate'
_symmetry_cell_setting           triclinic
_symmetry_space_group_name_H-M   'P -1'
_symmetry_Int_Tables_number      2
_space_group_name_Hall           '-P 1'
loop_
_symmetry_equiv_pos_site_id
_symmetry_equiv_pos_as_xyz
1 x,y,z
2 -x,-y,-z
_cell_length_a                   7.2603(15)
_cell_length_b                   9.5447(19)
_cell_length_c                   11.402(2)
_cell_angle_alpha                95.14(3)
_cell_angle_beta                 93.71(3)
_cell_angle_gamma                92.80(3)
_cell_volume                     784.114
_exptl_crystal_colour            yellow
_exptl_crystal_description       block
_cell_formula_units_Z            2
loop_
_atom_site_label
_atom_site_type_symbol
_atom_site_fract_x
_atom_site_fract_y
_atom_site_fract_z
S1 S 0.32472(10) 0.61586(7) 0.63378(6)
O1 O 0.3230(3) 0.14907(18) 1.09508(15)
O2 O 0.1847(2) 0.49232(18) 0.66774(14)
C1 C 0.2353(3) -0.0996(3) 1.0742(2)
O3 O 0.3938(3) 0.37563(19) 1.07262(16)
C2 C 0.2074(3) 0.3539(3) 0.6176(2)
O4 O 0.2674(3) 0.7352(2) 0.70151(17)
C3 C 0.2689(3) 0.0286(3) 1.0180(2)
O5 O 0.3177(3) 0.6122(2) 0.50884(15)
C4 C 0.3087(3) 0.2051(3) 0.9019(2)
C5 C 0.2588(4) 0.0585(3) 0.9066(2)
H1 H 0.2248 -0.0056 0.8416
N1 N 0.5231(3) 0.5780(2) 0.67867(19)
H2 H 0.5378 0.4988 0.7148
H3 H 0.6222 0.6347 0.6680
C6 C 0.3151(4) 0.2929(3) 0.8172(2)
H4 H 0.3491 0.3868 0.8410
C7 C 0.2741(3) 0.2559(3) 0.6909(2)
C8 C 0.3482(4) 0.2594(3) 1.0276(2)
C9 C 0.2430(4) -0.1008(3) 1.1958(2)
H5 H 0.2715 -0.0176 1.2439
C10 C 0.1491(4) 0.3172(3) 0.5006(2)
H6 H 0.0996 0.3838 0.4548
C11 C 0.1959(4) -0.2258(3) 1.0032(3)
H7 H 0.1907 -0.2265 0.9214
C12 C 0.2083(4) -0.2255(3) 1.2460(3)
H8 H 0.2118 -0.2256 1.3276
C13 C 0.1649(4) 0.1822(4) 0.4528(3)
H9 H 0.1250 0.1567 0.3743
C14 C 0.2389(4) 0.0845(3) 0.5197(3)
H10 H 0.2528 -0.0063 0.4857
C15 C 0.1691(4) -0.3482(3) 1.1759(3)
H11 H 0.1453 -0.4316 1.2100
C16 C 0.1647(4) -0.3490(3) 1.0544(3)
H12 H 0.1405 -0.4333 1.0072
C17 C 0.2934(4) 0.1197(3) 0.6376(2)
H13 H 0.3436 0.0521 0.6821
loop_
_geom_bond_atom_site_label_1
_geom_bond_atom_site_label_2
_geom_bond_site_symmetry_1
_geom_bond_site_symmetry_2
S1 O2 1_555 1_555
O1 C3 1_555 1_555
O2 C2 1_555 1_555
C1 C3 1_555 1_555
O3 C8 1_555 1_555
C2 C7 1_555 1_555
O4 S1 1_555 1_555
C3 C5 1_555 1_555
O5 S1 1_555 1_555
C4 C5 1_555 1_555
C5 H1 1_555 1_555
N1 S1 1_555 1_555
H2 N1 1_555 1_555
H3 N1 1_555 1_555
C6 C4 1_555 1_555
H4 C6 1_555 1_555
C7 C6 1_555 1_555
C8 O1 1_555 1_555
C9 C1 1_555 1_555
H5 C9 1_555 1_555
C10 C2 1_555 1_555
H6 C10 1_555 1_555
C11 C1 1_555 1_555
H7 C11 1_555 1_555
C12 C9 1_555 1_555
H8 C12 1_555 1_555
C13 C10 1_555 1_555
H9 C13 1_555 1_555
C14 C13 1_555 1_555
H10 C14 1_555 1_555
C15 C12 1_555 1_555
H11 C15 1_555 1_555
C16 C11 1_555 1_555
H12 C16 1_555 1_555
C17 C7 1_555 1_555
H13 C17 1_555 1_555
C4 C8 1_555 1_555
C14 C17 1_555 1_555
C15 C16 1_555 1_555

#END
