
#######################################################################
#
#                 Cambridge Crystallographic Data Centre
#                                CCDC 
#
#######################################################################
#
# If this CIF has been generated from an entry in the Cambridge 
# Structural Database, then it will include bibliographic, chemical, 
# crystal, experimental, refinement or atomic coordinate data resulting 
# from the CCDC's data processing and validation procedures.
#
#######################################################################

data_CEZLOL
_chemical_formula_moiety         'C28 H22 Br1 N1 O3'
_chemical_name_systematic        
"Methyl (3'R,4'R,6'R)-4'-benzoyl-4-bromo-6'-cyano-3', 4', 5', 6'-tetrahydro-[1, 1': 3', 1''-terphenyl]-4'-carboxylate"
_symmetry_cell_setting           orthorhombic
_symmetry_space_group_name_H-M   'P 21 21 21'
_symmetry_Int_Tables_number      19
_space_group_name_Hall           'P 2ac 2ab'
loop_
_symmetry_equiv_pos_site_id
_symmetry_equiv_pos_as_xyz
1 x,y,z
2 1/2-x,-y,1/2+z
3 1/2+x,1/2-y,-z
4 -x,1/2+y,1/2-z
_cell_length_a                   7.08505(8)
_cell_length_b                   14.72156(11)
_cell_length_c                   22.19846(18)
_cell_angle_alpha                90
_cell_angle_beta                 90
_cell_angle_gamma                90
_cell_volume                     2315.37
_exptl_crystal_colour            colorless
_exptl_crystal_description       prism
_chemical_melting_point          '201.3-203.3 deg.C'
_cell_formula_units_Z            4
loop_
_atom_site_label
_atom_site_type_symbol
_atom_site_fract_x
_atom_site_fract_y
_atom_site_fract_z
C1 C -0.4407(4) -0.10266(16) -0.56228(10)
C2 C -0.3263(4) -0.14727(17) -0.60297(11)
H1 H -0.2223 -0.1169 -0.6210
C3 C -0.3653(4) -0.23686(16) -0.61719(10)
H2 H -0.2872 -0.2676 -0.6454
C4 C -0.5167(4) -0.28313(16) -0.59110(10)
C5 C -0.6290(4) -0.23606(16) -0.54993(11)
H3 H -0.7327 -0.2661 -0.5315
C6 C -0.5918(4) -0.14588(16) -0.53542(11)
H4 H -0.6693 -0.1145 -0.5074
C7 C -0.5542(3) -0.37984(16) -0.60813(10)
C8 C -0.4154(4) -0.43486(16) -0.62526(10)
H5 H -0.2912 -0.4106 -0.6244
C9 C -0.4352(3) -0.53193(15) -0.64596(10)
H6 H -0.3536 -0.5391 -0.6824
C10 C -0.6425(3) -0.55216(14) -0.66605(10)
C11 C -0.7800(3) -0.51533(16) -0.61924(10)
H7 H -0.7609 -0.5485 -0.5809
H8 H -0.9105 -0.5274 -0.6330
C12 C -0.7579(4) -0.41285(15) -0.60744(11)
H9 H -0.8091 -0.4006 -0.5663
C13 C -0.6754(3) -0.51002(14) -0.72932(10)
C14 C -0.8614(3) -0.51944(17) -0.76061(9)
C15 C -0.9826(4) -0.59325(18) -0.75491(12)
H10 H -0.9513 -0.6417 -0.7285
C16 C -1.1486(4) -0.5964(2) -0.78765(13)
H11 H -1.2290 -0.6478 -0.7844
C17 C -1.1987(4) -0.5253(3) -0.82512(12)
H12 H -1.3135 -0.5275 -0.8472
C18 C -1.0807(5) -0.4512(2) -0.83024(13)
H13 H -1.1161 -0.4014 -0.8550
C19 C -0.9115(4) -0.44907(18) -0.79948(11)
H14 H -0.8282 -0.3991 -0.8049
C20 C -0.3607(3) -0.59727(16) -0.59848(10)
C21 C -0.3879(4) -0.58230(17) -0.53697(11)
H15 H -0.4534 -0.5296 -0.5237
C22 C -0.3197(4) -0.6442(2) -0.49503(12)
H16 H -0.3395 -0.6335 -0.4533
C23 C -0.2235(4) -0.7210(2) -0.51314(13)
H17 H -0.1782 -0.7632 -0.4842
C24 C -0.1936(4) -0.7359(2) -0.57378(14)
H18 H -0.1273 -0.7885 -0.5866
C25 C -0.2603(4) -0.67419(17) -0.61612(11)
H19 H -0.2371 -0.6846 -0.6577
C26 C -0.6643(3) -0.65576(15) -0.67032(10)
C27 C -0.5667(4) -0.78421(16) -0.72561(13)
H20 H -0.4832 -0.8002 -0.7592
H21 H -0.6945 -0.8063 -0.7340
H22 H -0.5197 -0.8123 -0.6885
C28 C -0.8699(4) -0.35810(15) -0.65038(11)
Br1 Br -0.39364(4) 0.02212(2) -0.54560(2)
N1 N -0.9583(4) -0.31611(17) -0.68350(12)
O1 O -0.5517(2) -0.46534(12) -0.75244(8)
O2 O -0.7496(3) -0.70235(11) -0.63540(8)
O3 O -0.5705(3) -0.68600(10) -0.71841(7)
loop_
_geom_bond_atom_site_label_1
_geom_bond_atom_site_label_2
_geom_bond_site_symmetry_1
_geom_bond_site_symmetry_2
C1 C2 1_555 1_555
C2 H1 1_555 1_555
C3 C2 1_555 1_555
H2 C3 1_555 1_555
C4 C3 1_555 1_555
C5 C4 1_555 1_555
H3 C5 1_555 1_555
C6 C1 1_555 1_555
H4 C6 1_555 1_555
C7 C4 1_555 1_555
C8 C7 1_555 1_555
H5 C8 1_555 1_555
C9 C8 1_555 1_555
H6 C9 1_555 1_555
C10 C9 1_555 1_555
C11 C10 1_555 1_555
H7 C11 1_555 1_555
H8 C11 1_555 1_555
C12 C7 1_555 1_555
H9 C12 1_555 1_555
C13 C10 1_555 1_555
C14 C13 1_555 1_555
C15 C14 1_555 1_555
H10 C15 1_555 1_555
C16 C15 1_555 1_555
H11 C16 1_555 1_555
C17 C16 1_555 1_555
H12 C17 1_555 1_555
C18 C17 1_555 1_555
H13 C18 1_555 1_555
C19 C14 1_555 1_555
H14 C19 1_555 1_555
C20 C9 1_555 1_555
C21 C20 1_555 1_555
H15 C21 1_555 1_555
C22 C21 1_555 1_555
H16 C22 1_555 1_555
C23 C22 1_555 1_555
H17 C23 1_555 1_555
C24 C23 1_555 1_555
H18 C24 1_555 1_555
C25 C20 1_555 1_555
H19 C25 1_555 1_555
C26 C10 1_555 1_555
C27 H20 1_555 1_555
H21 C27 1_555 1_555
H22 C27 1_555 1_555
C28 C12 1_555 1_555
Br1 C1 1_555 1_555
N1 C28 1_555 1_555
O1 C13 1_555 1_555
O2 C26 1_555 1_555
O3 C26 1_555 1_555
C5 C6 1_555 1_555
C11 C12 1_555 1_555
C18 C19 1_555 1_555
C24 C25 1_555 1_555
C27 O3 1_555 1_555

#END
