
#######################################################################
#
#                 Cambridge Crystallographic Data Centre
#                                CCDC 
#
#######################################################################
#
# If this CIF has been generated from an entry in the Cambridge 
# Structural Database, then it will include bibliographic, chemical, 
# crystal, experimental, refinement or atomic coordinate data resulting 
# from the CCDC's data processing and validation procedures.
#
#######################################################################

data_CEZLUR
_chemical_formula_moiety         'C28 H23 N1 O3'
_chemical_name_systematic        
'methyl 2^2^-(benzenecarbonyl)-2^6^-cyano-2^2^,2^3^,2^4^,2^5^-tetrahydro[1^1^,2^1^:2^3^,3^1^-terphenyl]-2^4^-carboxylate'
_symmetry_cell_setting           monoclinic
_symmetry_space_group_name_H-M   'P 21/c'
_symmetry_Int_Tables_number      14
_space_group_name_Hall           '-P 2ybc'
loop_
_symmetry_equiv_pos_site_id
_symmetry_equiv_pos_as_xyz
1 x,y,z
2 -x,1/2+y,1/2-z
3 -x,-y,-z
4 x,1/2-y,1/2+z
_cell_length_a                   13.4299(3)
_cell_length_b                   15.4336(2)
_cell_length_c                   11.6657(2)
_cell_angle_alpha                90
_cell_angle_beta                 114.037(2)
_cell_angle_gamma                90
_cell_volume                     2208.29
_exptl_crystal_colour            colorless
_exptl_crystal_description       block
_chemical_melting_point          '152.3-154.5 deg.C'
_cell_formula_units_Z            4
loop_
_atom_site_label
_atom_site_type_symbol
_atom_site_fract_x
_atom_site_fract_y
_atom_site_fract_z
O1 O 0.18392(10) 0.22954(8) 0.02307(12)
O2 O 0.49321(9) 0.42332(9) 0.31924(12)
O3 O 0.52012(11) 0.39659(10) 0.51898(13)
N1 N 0.00883(13) 0.53232(10) 0.15137(15)
C1 C 0.06917(14) 0.47527(11) 0.17701(16)
C2 C 0.12320(13) 0.32453(11) 0.19825(15)
C3 C 0.32683(13) 0.28947(11) 0.27210(17)
C4 C 0.18540(13) 0.19581(11) 0.11824(16)
C5 C 0.41006(13) 0.21900(11) 0.33458(17)
C6 C 0.13829(13) 0.05453(12) 0.01116(17)
C7 C 0.16776(12) 0.10081(11) 0.12332(17)
C8 C 0.00747(13) 0.29598(11) 0.15127(16)
C9 C 0.13452(15) -0.07767(12) 0.1172(2)
C10 C -0.13585(15) 0.22108(12) 0.18522(18)
C11 C 0.47164(14) 0.18592(12) 0.27325(18)
C12 C 0.34285(14) 0.37071(12) 0.35409(18)
C13 C 0.15115(13) 0.40859(11) 0.21242(16)
C14 C -0.06902(14) 0.32339(12) 0.03470(17)
C15 C 0.20939(13) 0.25396(11) 0.23381(16)
C16 C -0.02639(14) 0.24310(11) 0.22536(17)
C17 C -0.17804(14) 0.30053(12) -0.00455(18)
C18 C 0.17926(14) 0.05637(12) 0.23197(18)
C19 C -0.21192(14) 0.25064(12) 0.07080(18)
C20 C 0.26750(14) 0.44173(11) 0.27331(18)
C21 C 0.12190(14) -0.03404(12) 0.0083(2)
C22 C 0.16306(15) -0.03271(12) 0.2291(2)
C23 C 0.46176(14) 0.39806(11) 0.40995(19)
C24 C 0.54761(15) 0.12119(13) 0.3278(2)
C25 C 0.60623(14) 0.45007(14) 0.36361(19)
C26 C 0.42630(16) 0.18544(13) 0.45139(18)
C27 C 0.56452(16) 0.08978(13) 0.4447(2)
C28 C 0.50347(18) 0.12179(14) 0.5064(2)
H1 H 0.19830(14) 0.08714(12) 0.30852(18)
H2 H 0.17153(15) -0.06274(12) 0.3036(2)
H3 H 0.12358(15) -0.13856(12) 0.1152(2)
H4 H 0.10201(14) -0.06496(12) -0.0683(2)
H5 H 0.12947(13) 0.08421(12) -0.06371(17)
H6 H 0.02535(14) 0.22204(11) 0.30344(17)
H7 H -0.15865(15) 0.18555(12) 0.23656(18)
H8 H -0.28686(14) 0.23659(12) 0.04455(18)
H9 H -0.22966(14) 0.31947(12) -0.08405(18)
H10 H -0.04654(14) 0.35779(12) -0.01802(17)
H11 H 0.38395(16) 0.20644(13) 0.49380(18)
H12 H 0.51467(18) 0.09994(14) 0.5869(2)
H13 H 0.61789(16) 0.04628(13) 0.4828(2)
H14 H 0.58822(15) 0.09837(13) 0.2844(2)
H15 H 0.46141(14) 0.20799(12) 0.19320(18)
H16 H 0.33457(13) 0.30722(11) 0.19368(17)
H17 H 0.32089(14) 0.35663(12) 0.42422(18)
H18 H 0.20624(13) 0.21850(11) 0.30400(16)
H19 H 0.27081(14) 0.49276(11) 0.32616(18)
H20 H 0.29194(14) 0.45995(11) 0.20757(18)
H21 H 0.6223(4) 0.4669(10) 0.2919(2)
H22 H 0.6191(3) 0.4995(7) 0.4206(12)
H23 H 0.65369(15) 0.4019(4) 0.4083(13)
loop_
_geom_bond_atom_site_label_1
_geom_bond_atom_site_label_2
_geom_bond_site_symmetry_1
_geom_bond_site_symmetry_2
O1 C4 1_555 1_555
O2 C23 1_555 1_555
O3 C23 1_555 1_555
N1 C1 1_555 1_555
C1 C13 1_555 1_555
C2 C8 1_555 1_555
C3 C5 1_555 1_555
C4 C7 1_555 1_555
C5 C11 1_555 1_555
C6 C7 1_555 1_555
C7 C18 1_555 1_555
C8 C14 1_555 1_555
C9 C21 1_555 1_555
C10 C16 1_555 1_555
C11 C24 1_555 1_555
C12 C3 1_555 1_555
C13 C2 1_555 1_555
C14 C17 1_555 1_555
C15 C2 1_555 1_555
C16 C8 1_555 1_555
C17 C19 1_555 1_555
C18 C22 1_555 1_555
C19 C10 1_555 1_555
C20 C12 1_555 1_555
C21 C6 1_555 1_555
C22 C9 1_555 1_555
C23 C12 1_555 1_555
C24 C27 1_555 1_555
C25 O2 1_555 1_555
C26 C5 1_555 1_555
C27 C28 1_555 1_555
C28 C26 1_555 1_555
H1 C18 1_555 1_555
H2 C22 1_555 1_555
H3 C9 1_555 1_555
H4 C21 1_555 1_555
H5 C6 1_555 1_555
H6 C16 1_555 1_555
H7 C10 1_555 1_555
H8 C19 1_555 1_555
H9 C17 1_555 1_555
H10 C14 1_555 1_555
H11 C26 1_555 1_555
H12 C28 1_555 1_555
H13 C27 1_555 1_555
H14 C24 1_555 1_555
H15 C11 1_555 1_555
H16 C3 1_555 1_555
H17 C12 1_555 1_555
H18 C15 1_555 1_555
H19 C20 1_555 1_555
H20 C20 1_555 1_555
H21 C25 1_555 1_555
H22 C25 1_555 1_555
H23 C25 1_555 1_555
C3 C15 1_555 1_555
C4 C15 1_555 1_555
C13 C20 1_555 1_555

#END
