
#######################################################################
#
#                 Cambridge Crystallographic Data Centre
#                                CCDC 
#
#######################################################################
#
# If this CIF has been generated from an entry in the Cambridge 
# Structural Database, then it will include bibliographic, chemical, 
# crystal, experimental, refinement or atomic coordinate data resulting 
# from the CCDC's data processing and validation procedures.
#
#######################################################################

data_CEZNEC
_chemical_name_common            
(4Z)-4-(2-(imidazolidin-2-ylidene)-3-oxo-3-phenylpropylidene)-3-methyl-1-phenyl-1H-pyrazol-5(4H)-one
_chemical_formula_moiety         'C22 H20 N4 O2'
_chemical_name_systematic        
4-(2-(Imidazolidin-2-ylidene)-3-oxo-3-phenylpropylidene)-5-methyl-2-phenyl-2,4-dihydro-3H-pyrazol-3-one
_symmetry_cell_setting           monoclinic
_symmetry_space_group_name_H-M   'P 21/c'
_symmetry_Int_Tables_number      14
_space_group_name_Hall           '-P 2ybc'
loop_
_symmetry_equiv_pos_site_id
_symmetry_equiv_pos_as_xyz
1 x,y,z
2 -x,1/2+y,1/2-z
3 -x,-y,-z
4 x,1/2-y,1/2+z
_cell_length_a                   21.059(3)
_cell_length_b                   11.2828(16)
_cell_length_c                   15.679(2)
_cell_angle_alpha                90
_cell_angle_beta                 95.888(2)
_cell_angle_gamma                90
_cell_volume                     3705.75
_exptl_crystal_colour            yellow
_exptl_crystal_description       block
_chemical_melting_point          '504-508 K'
_cell_formula_units_Z            8
loop_
_atom_site_label
_atom_site_type_symbol
_atom_site_fract_x
_atom_site_fract_y
_atom_site_fract_z
N1 N 0.27636(10) 0.93623(18) 0.51252(13)
H1 H 0.2598 0.8729 0.5312
N2 N 0.32568(12) 1.04738(19) 0.43025(15)
H2 H 0.3479 1.0675 0.3895
N3 N 0.42742(10) 1.03731(18) 0.18334(13)
N4 N 0.42757(10) 0.92975(19) 0.13810(13)
O1 O 0.25333(10) 0.71733(16) 0.47144(13)
O2 O 0.39381(10) 1.10980(16) 0.30822(12)
C1 C 0.30707(12) 0.9390(2) 0.44307(16)
C2 C 0.27344(14) 1.0502(2) 0.55372(18)
H3 H 0.2970 1.0500 0.6102
H4 H 0.2297 1.0739 0.5586
C3 C 0.30476(14) 1.1297(2) 0.49235(18)
H5 H 0.2745 1.1864 0.4652
H6 H 0.3406 1.1721 0.5217
C4 C 0.31796(11) 0.8368(2) 0.39143(15)
C5 C 0.29278(13) 0.7244(2) 0.41759(16)
C6 C 0.31281(13) 0.6099(2) 0.38137(15)
C7 C 0.37578(14) 0.5801(2) 0.37664(17)
H7 H 0.4078 0.6349 0.3926
C8 C 0.39157(15) 0.4701(3) 0.3486(2)
H8 H 0.4342 0.4501 0.3462
C9 C 0.34457(18) 0.3894(3) 0.32402(19)
H9 H 0.3555 0.3151 0.3044
C10 C 0.28225(16) 0.4171(3) 0.32813(18)
H10 H 0.2505 0.3624 0.3110
C11 C 0.26647(14) 0.5264(2) 0.35768(17)
H11 H 0.2238 0.5445 0.3619
C12 C 0.34634(11) 0.8347(2) 0.31452(15)
H12 H 0.3429 0.7583 0.2922
C13 C 0.37779(11) 0.9049(2) 0.25909(15)
C14 C 0.39865(12) 1.0260(2) 0.25757(17)
C15 C 0.44691(11) 1.1410(2) 0.14237(17)
C16 C 0.45809(13) 1.2452(2) 0.18673(19)
H13 H 0.4544 1.2485 0.2453
C17 C 0.47474(14) 1.3444(3) 0.1436(2)
H14 H 0.4814 1.4156 0.1731
C18 C 0.48174(16) 1.3402(3) 0.0576(3)
H15 H 0.4933 1.4079 0.0291
C19 C 0.47166(15) 1.2361(3) 0.0144(2)
H16 H 0.4770 1.2328 -0.0437
C20 C 0.45384(13) 1.1364(3) 0.05533(18)
H17 H 0.4464 1.0660 0.0251
C21 C 0.39858(12) 0.8548(2) 0.18256(16)
C22 C 0.39155(14) 0.7293(2) 0.15292(18)
H18 H 0.4052 0.7224 0.0966
H19 H 0.3476 0.7059 0.1513
H20 H 0.4173 0.6788 0.1918
N5 N 0.24384(10) 0.95870(18) 0.10670(13)
H21 H 0.2424 0.8913 0.0810
N6 N 0.23209(10) 1.08616(19) 0.20603(13)
H22 H 0.2233 1.1138 0.2546
N7 N 0.12079(10) 1.1528(2) 0.43546(13)
N8 N 0.10066(11) 1.0545(2) 0.48005(14)
O3 O 0.22242(9) 0.73195(16) 0.14448(13)
O4 O 0.16479(10) 1.19568(17) 0.31025(12)
C23 C 0.22046(11) 0.9776(2) 0.18028(16)
C24 C 0.27214(13) 1.0637(2) 0.07397(17)
H23 H 0.2507 1.0864 0.0187
H24 H 0.3172 1.0521 0.0687
C25 C 0.26191(13) 1.1549(2) 0.14190(17)
H25 H 0.3021 1.1888 0.1660
H26 H 0.2340 1.2181 0.1188
C26 C 0.18581(11) 0.8908(2) 0.22469(15)
C27 C 0.18229(13) 0.7711(2) 0.18850(16)
C28 C 0.12686(14) 0.6921(2) 0.20129(15)
C29 C 0.06563(14) 0.7356(3) 0.20452(16)
H27 H 0.0586 0.8170 0.2031
C30 C 0.01565(15) 0.6599(4) 0.2097(2)
H28 H -0.0253 0.6899 0.2115
C31 C 0.0257(2) 0.5401(4) 0.2123(2)
H29 H -0.0084 0.4889 0.2170
C32 C 0.0854(2) 0.4953(3) 0.20789(19)
H30 H 0.0920 0.4138 0.2090
C33 C 0.13596(15) 0.5713(3) 0.20175(16)
H31 H 0.1766 0.5407 0.1979
C34 C 0.15778(11) 0.9063(2) 0.30116(15)
H32 H 0.1439 0.8334 0.3197
C35 C 0.14354(11) 0.9943(2) 0.35919(15)
C36 C 0.14635(12) 1.1210(2) 0.36151(17)
C37 C 0.10872(12) 1.2665(3) 0.46719(17)
C38 C 0.11595(15) 1.3677(3) 0.4213(2)
H33 H 0.1304 1.3630 0.3673
C39 C 0.10199(15) 1.4762(3) 0.4542(2)
H34 H 0.1061 1.5438 0.4214
C40 C 0.08242(15) 1.4871(3) 0.5333(2)
H35 H 0.0733 1.5612 0.5551
C41 C 0.07637(18) 1.3880(4) 0.5799(2)
H36 H 0.0638 1.3944 0.6349
C42 C 0.08851(15) 1.2771(3) 0.5476(2)
H37 H 0.0830 1.2097 0.5802
C43 C 0.11407(13) 0.9632(2) 0.43515(16)
C44 C 0.09607(15) 0.8425(3) 0.46302(18)
H38 H 0.0768 0.8483 0.5158
H39 H 0.1336 0.7938 0.4715
H40 H 0.0662 0.8078 0.4197
loop_
_geom_bond_atom_site_label_1
_geom_bond_atom_site_label_2
_geom_bond_site_symmetry_1
_geom_bond_site_symmetry_2
N1 H1 1_555 1_555
N2 H2 1_555 1_555
N3 N4 1_555 1_555
N4 C21 1_555 1_555
O1 C5 1_555 1_555
O2 C14 1_555 1_555
C1 N1 1_555 1_555
C2 N1 1_555 1_555
H3 C2 1_555 1_555
H4 C2 1_555 1_555
C3 N2 1_555 1_555
H5 C3 1_555 1_555
H6 C3 1_555 1_555
C4 C1 1_555 1_555
C5 C4 1_555 1_555
C6 C5 1_555 1_555
C7 C6 1_555 1_555
H7 C7 1_555 1_555
C8 C7 1_555 1_555
H8 C8 1_555 1_555
C9 C8 1_555 1_555
H9 C9 1_555 1_555
C10 C9 1_555 1_555
H10 C10 1_555 1_555
C11 C6 1_555 1_555
H11 C11 1_555 1_555
C12 C4 1_555 1_555
H12 C12 1_555 1_555
C13 C12 1_555 1_555
C14 N3 1_555 1_555
C15 N3 1_555 1_555
C16 C15 1_555 1_555
H13 C16 1_555 1_555
C17 C16 1_555 1_555
H14 C17 1_555 1_555
C18 C17 1_555 1_555
H15 C18 1_555 1_555
C19 C18 1_555 1_555
H16 C19 1_555 1_555
C20 C15 1_555 1_555
H17 C20 1_555 1_555
C21 C13 1_555 1_555
C22 C21 1_555 1_555
H18 C22 1_555 1_555
H19 C22 1_555 1_555
H20 C22 1_555 1_555
N5 H21 1_555 1_555
N6 H22 1_555 1_555
N7 N8 1_555 1_555
N8 C43 1_555 1_555
O3 C27 1_555 1_555
O4 C36 1_555 1_555
C23 N5 1_555 1_555
C24 N5 1_555 1_555
H23 C24 1_555 1_555
H24 C24 1_555 1_555
C25 N6 1_555 1_555
H25 C25 1_555 1_555
H26 C25 1_555 1_555
C26 C23 1_555 1_555
C27 C26 1_555 1_555
C28 C27 1_555 1_555
C29 C28 1_555 1_555
H27 C29 1_555 1_555
C30 C29 1_555 1_555
H28 C30 1_555 1_555
C31 C30 1_555 1_555
H29 C31 1_555 1_555
C32 C31 1_555 1_555
H30 C32 1_555 1_555
C33 C28 1_555 1_555
H31 C33 1_555 1_555
C34 C26 1_555 1_555
H32 C34 1_555 1_555
C35 C34 1_555 1_555
C36 N7 1_555 1_555
C37 N7 1_555 1_555
C38 C37 1_555 1_555
H33 C38 1_555 1_555
C39 C38 1_555 1_555
H34 C39 1_555 1_555
C40 C39 1_555 1_555
H35 C40 1_555 1_555
C41 C40 1_555 1_555
H36 C41 1_555 1_555
C42 C37 1_555 1_555
H37 C42 1_555 1_555
C43 C35 1_555 1_555
C44 C43 1_555 1_555
H38 C44 1_555 1_555
H39 C44 1_555 1_555
H40 C44 1_555 1_555
N2 C1 1_555 1_555
C2 C3 1_555 1_555
C10 C11 1_555 1_555
C13 C14 1_555 1_555
C19 C20 1_555 1_555
N6 C23 1_555 1_555
C24 C25 1_555 1_555
C32 C33 1_555 1_555
C35 C36 1_555 1_555
C41 C42 1_555 1_555

#END
