
#######################################################################
#
#                 Cambridge Crystallographic Data Centre
#                                CCDC 
#
#######################################################################
#
# If this CIF has been generated from an entry in the Cambridge 
# Structural Database, then it will include bibliographic, chemical, 
# crystal, experimental, refinement or atomic coordinate data resulting 
# from the CCDC's data processing and validation procedures.
#
#######################################################################

data_CEZPON
_chemical_formula_moiety         'C17 H26 O2'
_chemical_name_systematic        
(4RS,5SR)-anti-5-Hydroxy-2,2,4-trimethyl-5-(mesityl)pentan-3-one
_symmetry_cell_setting           monoclinic
_symmetry_space_group_name_H-M   'P 21/c'
_symmetry_Int_Tables_number      14
_space_group_name_Hall           '-P 2ybc'
loop_
_symmetry_equiv_pos_site_id
_symmetry_equiv_pos_as_xyz
1 x,y,z
2 -x,1/2+y,1/2-z
3 -x,-y,-z
4 x,1/2-y,1/2+z
_cell_length_a                   7.952(4)
_cell_length_b                   22.9243(13)
_cell_length_c                   8.4014(5)
_cell_angle_alpha                90
_cell_angle_beta                 90.348(14)
_cell_angle_gamma                90
_cell_volume                     1531.5
_exptl_crystal_colour            colorless
_exptl_crystal_description       plate
_chemical_melting_point          '106.0-106.8 deg.C'
_cell_formula_units_Z            4
_exptl_crystal_recrystallization_method dichloromethane/hexane
loop_
_atom_site_label
_atom_site_type_symbol
_atom_site_fract_x
_atom_site_fract_y
_atom_site_fract_z
O1 O 1.10530(10) 0.42707(4) -0.04843(10)
H1 H 1.0885(19) 0.4512(7) -0.1255(18)
O2 O 1.02634(11) 0.48911(4) 0.26912(10)
C1 C 0.84279(15) 0.37302(5) -0.09950(13)
C2 C 0.67898(15) 0.38778(5) -0.14953(14)
C3 C 0.58996(16) 0.35028(5) -0.24940(14)
H2 H 0.4792 0.3606 -0.2816
C4 C 0.65802(16) 0.29817(5) -0.30349(14)
C5 C 0.81934(16) 0.28419(5) -0.25371(14)
H3 H 0.8682 0.2488 -0.2901
C6 C 0.91302(15) 0.32003(5) -0.15211(14)
C7 C 0.59247(16) 0.44345(5) -0.09745(15)
H4 H 0.4825 0.4464 -0.1502
H5 H 0.6618 0.4771 -0.1267
H6 H 0.5771 0.4428 0.0182
C8 C 0.55675(18) 0.25803(6) -0.40931(16)
H7 H 0.6324 0.2306 -0.4626
H8 H 0.4962 0.2811 -0.4894
H9 H 0.4759 0.2363 -0.3447
C9 C 1.08658(16) 0.29899(5) -0.10316(15)
H10 H 1.0797 0.2787 -0.0008
H11 H 1.1625 0.3325 -0.0930
H12 H 1.1298 0.2722 -0.1841
C10 C 0.93863(15) 0.41504(5) 0.00833(14)
H13 H 0.8753 0.4527 0.0096
C11 C 0.95414(15) 0.39365(5) 0.18116(14)
H14 H 1.0112 0.3548 0.1827
C12 C 1.05894(15) 0.43721(5) 0.27700(14)
C13 C 1.19787(15) 0.41458(5) 0.38666(14)
C14 C 0.78119(16) 0.38816(6) 0.25882(15)
H15 H 0.7939 0.3712 0.3652
H16 H 0.7091 0.3629 0.1935
H17 H 0.7298 0.4269 0.2675
C15 C 1.11619(17) 0.37453(6) 0.51111(16)
H18 H 1.0333 0.3967 0.5721
H19 H 1.2030 0.3594 0.5834
H20 H 1.0602 0.3419 0.4571
C16 C 1.28536(17) 0.46535(6) 0.47123(16)
H21 H 1.3376 0.4909 0.3921
H22 H 1.3720 0.4501 0.5435
H23 H 1.2025 0.4876 0.5323
C17 C 1.32559(17) 0.37987(6) 0.28842(17)
H24 H 1.2720 0.3445 0.2469
H25 H 1.4215 0.3691 0.3561
H26 H 1.3648 0.4039 0.1995
loop_
_geom_bond_atom_site_label_1
_geom_bond_atom_site_label_2
_geom_bond_site_symmetry_1
_geom_bond_site_symmetry_2
O1 H1 1_555 1_555
O2 C12 1_555 1_555
C1 C2 1_555 1_555
C2 C3 1_555 1_555
C3 H2 1_555 1_555
C4 C3 1_555 1_555
C5 C4 1_555 1_555
H3 C5 1_555 1_555
C6 C1 1_555 1_555
C7 C2 1_555 1_555
H4 C7 1_555 1_555
H5 C7 1_555 1_555
H6 C7 1_555 1_555
C8 C4 1_555 1_555
H7 C8 1_555 1_555
H8 C8 1_555 1_555
H9 C8 1_555 1_555
C9 C6 1_555 1_555
H10 C9 1_555 1_555
H11 C9 1_555 1_555
H12 C9 1_555 1_555
C10 O1 1_555 1_555
H13 C10 1_555 1_555
C11 C10 1_555 1_555
H14 C11 1_555 1_555
C12 C11 1_555 1_555
C13 C12 1_555 1_555
C14 C11 1_555 1_555
H15 C14 1_555 1_555
H16 C14 1_555 1_555
H17 C14 1_555 1_555
C15 C13 1_555 1_555
H18 C15 1_555 1_555
H19 C15 1_555 1_555
H20 C15 1_555 1_555
C16 C13 1_555 1_555
H21 C16 1_555 1_555
H22 C16 1_555 1_555
H23 C16 1_555 1_555
C17 C13 1_555 1_555
H24 C17 1_555 1_555
H25 C17 1_555 1_555
H26 C17 1_555 1_555
C1 C10 1_555 1_555
C5 C6 1_555 1_555

#END
