
#######################################################################
#
#                 Cambridge Crystallographic Data Centre
#                                CCDC 
#
#######################################################################
#
# If this CIF has been generated from an entry in the Cambridge 
# Structural Database, then it will include bibliographic, chemical, 
# crystal, experimental, refinement or atomic coordinate data resulting 
# from the CCDC's data processing and validation procedures.
#
#######################################################################

data_CEZPED
_chemical_formula_moiety         'C19 H13 Cl2 N1 O1'
_chemical_name_systematic        
(2RS,3RS)-anti-3-(2,6-Dichlorophenyl)-3-hydroxy-2-(2-naphthyl)propanenitrile
_symmetry_cell_setting           orthorhombic
_symmetry_space_group_name_H-M   'P b c a'
_symmetry_Int_Tables_number      61
_space_group_name_Hall           '-P 2ac 2ab'
loop_
_symmetry_equiv_pos_site_id
_symmetry_equiv_pos_as_xyz
1 x,y,z
2 1/2-x,-y,1/2+z
3 -x,1/2+y,1/2-z
4 1/2+x,1/2-y,-z
5 -x,-y,-z
6 1/2+x,y,1/2-z
7 x,1/2-y,1/2+z
8 1/2-x,1/2+y,z
_cell_length_a                   19.541(3)
_cell_length_b                   8.2533(9)
_cell_length_c                   20.397(3)
_cell_angle_alpha                90
_cell_angle_beta                 90
_cell_angle_gamma                90
_cell_volume                     3289.58
_exptl_crystal_colour            colorless
_exptl_crystal_description       prism
_chemical_melting_point          '154.0-155.2 deg.C'
_cell_formula_units_Z            8
_exptl_crystal_recrystallization_method dichloromethane/hexane
loop_
_atom_site_label
_atom_site_type_symbol
_atom_site_fract_x
_atom_site_fract_y
_atom_site_fract_z
Cl1 Cl 0.10850(4) 0.65730(8) 0.45317(3)
Cl2 Cl 0.01082(4) 0.39583(8) 0.22563(3)
O1 O 0.13225(9) 0.6053(2) 0.24967(8)
H1 H 0.1470 0.7005 0.2533
N1 N 0.28558(14) 0.3877(4) 0.26880(12)
C1 C 0.04257(13) 0.5918(3) 0.40211(13)
C2 C -0.02302(14) 0.6014(3) 0.42715(15)
H2 H -0.0306 0.6435 0.4699
C3 C -0.07713(15) 0.5495(4) 0.38981(16)
H3 H -0.1224 0.5562 0.4066
C4 C -0.06578(14) 0.4874(3) 0.32765(16)
H4 H -0.1032 0.4512 0.3017
C5 C 0.00030(14) 0.4783(3) 0.30347(14)
C6 C 0.05680(12) 0.5320(3) 0.33947(12)
C7 C 0.12918(12) 0.5321(3) 0.31256(12)
H5 H 0.1588 0.5959 0.3431
C8 C 0.15902(13) 0.3582(3) 0.30699(12)
H6 H 0.1325 0.2977 0.2730
C9 C 0.23027(15) 0.3740(3) 0.28455(13)
C10 C 0.15400(13) 0.2667(3) 0.37132(13)
C11 C 0.19887(13) 0.2885(3) 0.42086(13)
H7 H 0.2372 0.3574 0.4143
C12 C 0.19008(13) 0.2103(3) 0.48303(13)
C13 C 0.23536(15) 0.2358(4) 0.53495(13)
H8 H 0.2740 0.3041 0.5291
C14 C 0.22440(17) 0.1632(4) 0.59403(15)
H9 H 0.2556 0.1817 0.6290
C15 C 0.16761(17) 0.0612(4) 0.60413(14)
H10 H 0.1603 0.0125 0.6457
C16 C 0.12307(16) 0.0326(4) 0.55387(15)
H11 H 0.0853 -0.0379 0.5605
C17 C 0.13275(13) 0.1077(3) 0.49112(13)
C18 C 0.08742(14) 0.0834(3) 0.43824(15)
H12 H 0.0495 0.0125 0.4433
C19 C 0.09745(14) 0.1602(3) 0.38008(15)
H13 H 0.0664 0.1427 0.3449
loop_
_geom_bond_atom_site_label_1
_geom_bond_atom_site_label_2
_geom_bond_site_symmetry_1
_geom_bond_site_symmetry_2
Cl1 C1 1_555 1_555
Cl2 C5 1_555 1_555
O1 H1 1_555 1_555
N1 C9 1_555 1_555
C1 C2 1_555 1_555
C2 H2 1_555 1_555
C3 C2 1_555 1_555
H3 C3 1_555 1_555
C4 C3 1_555 1_555
H4 C4 1_555 1_555
C5 C4 1_555 1_555
C6 C1 1_555 1_555
C7 O1 1_555 1_555
H5 C7 1_555 1_555
C8 C7 1_555 1_555
H6 C8 1_555 1_555
C9 C8 1_555 1_555
C10 C8 1_555 1_555
C11 C10 1_555 1_555
H7 C11 1_555 1_555
C12 C11 1_555 1_555
C13 C12 1_555 1_555
H8 C13 1_555 1_555
C14 C13 1_555 1_555
H9 C14 1_555 1_555
C15 C14 1_555 1_555
H10 C15 1_555 1_555
C16 C15 1_555 1_555
H11 C16 1_555 1_555
C17 C12 1_555 1_555
C18 C17 1_555 1_555
H12 C18 1_555 1_555
C19 C10 1_555 1_555
H13 C19 1_555 1_555
C5 C6 1_555 1_555
C6 C7 1_555 1_555
C16 C17 1_555 1_555
C18 C19 1_555 1_555

#END
