
#######################################################################
#
#                 Cambridge Crystallographic Data Centre
#                                CCDC 
#
#######################################################################
#
# If this CIF has been generated from an entry in the Cambridge 
# Structural Database, then it will include bibliographic, chemical, 
# crystal, experimental, refinement or atomic coordinate data resulting 
# from the CCDC's data processing and validation procedures.
#
#######################################################################

data_CEZQAA
_chemical_formula_moiety         'C16 H23 N1 O1'
_chemical_name_systematic        
(2RS,3RS)-anti-3-Hydroxy-4,4-dimethyl-2-(mesityl)pentanenitrile
_symmetry_cell_setting           monoclinic
_symmetry_space_group_name_H-M   'P 21'
_symmetry_Int_Tables_number      4
_space_group_name_Hall           'P 2yb'
loop_
_symmetry_equiv_pos_site_id
_symmetry_equiv_pos_as_xyz
1 x,y,z
2 -x,1/2+y,-z
_cell_length_a                   11.539(2)
_cell_length_b                   5.6179(11)
_cell_length_c                   11.803(2)
_cell_angle_alpha                90
_cell_angle_beta                 111.051(4)
_cell_angle_gamma                90
_cell_volume                     714.065
_exptl_crystal_colour            colorless
_exptl_crystal_description       bar
_chemical_melting_point          '97.1-99.6 deg.C'
_cell_formula_units_Z            2
_exptl_crystal_recrystallization_method dichloromethane/hexane
loop_
_atom_site_label
_atom_site_type_symbol
_atom_site_fract_x
_atom_site_fract_y
_atom_site_fract_z
C1 C 0.7823(3) 0.0194(7) 0.2056(3)
H1 H 0.8525 0.0648 0.2813
O1 O 0.72187(19) 0.2347(4) 0.15812(19)
H2 H 0.6754 0.2174 0.0842
C2 C 0.5718(3) -0.1801(7) 0.1522(3)
N1 N 0.4775(3) -0.2161(6) 0.0794(3)
C3 C 0.6962(3) -0.1457(7) 0.2489(3)
H3 H 0.7368 -0.3058 0.2649
C4 C 0.8446(3) -0.1025(6) 0.1230(3)
C5 C 0.7494(3) -0.2113(7) 0.0082(3)
H4 H 0.7923 -0.2751 -0.0434
H5 H 0.6904 -0.0883 -0.0364
H6 H 0.7046 -0.3399 0.0309
C6 C 0.9210(3) 0.0899(7) 0.0877(3)
H7 H 0.9701 0.0154 0.0447
H8 H 0.9767 0.1685 0.1612
H9 H 0.8647 0.2079 0.0348
C7 C 0.9336(3) -0.2960(7) 0.1953(3)
H10 H 0.8858 -0.4306 0.2083
H11 H 0.9868 -0.2316 0.2740
H12 H 0.9852 -0.3499 0.1501
C8 C 0.6893(3) -0.0585(7) 0.3712(3)
C9 C 0.7745(3) -0.1632(7) 0.4779(3)
C10 C 0.7803(3) -0.0714(8) 0.5909(3)
H13 H 0.8378 -0.1393 0.6629
C11 C 0.7055(3) 0.1144(8) 0.6010(3)
C12 C 0.6222(3) 0.2061(7) 0.4958(3)
H14 H 0.5692 0.3310 0.5018
C13 C 0.6107(3) 0.1255(7) 0.3792(3)
C14 C 0.8609(3) -0.3642(7) 0.4772(3)
H15 H 0.9201 -0.3092 0.4406
H16 H 0.8126 -0.4975 0.4298
H17 H 0.9062 -0.4165 0.5607
C15 C 0.7199(3) 0.2210(8) 0.7244(3)
H18 H 0.7659 0.1098 0.7888
H19 H 0.6376 0.2499 0.7282
H20 H 0.7655 0.3716 0.7352
C16 C 0.5135(3) 0.2455(8) 0.2728(3)
H21 H 0.5455 0.2658 0.2069
H22 H 0.4935 0.4016 0.2980
H23 H 0.4384 0.1469 0.2445
loop_
_geom_bond_atom_site_label_1
_geom_bond_atom_site_label_2
_geom_bond_site_symmetry_1
_geom_bond_site_symmetry_2
C1 H1 1_555 1_555
O1 C1 1_555 1_555
H2 O1 1_555 1_555
C2 N1 1_555 1_555
C3 C1 1_555 1_555
H3 C3 1_555 1_555
C4 C1 1_555 1_555
C5 C4 1_555 1_555
H4 C5 1_555 1_555
H5 C5 1_555 1_555
H6 C5 1_555 1_555
C6 C4 1_555 1_555
H7 C6 1_555 1_555
H8 C6 1_555 1_555
H9 C6 1_555 1_555
C7 C4 1_555 1_555
H10 C7 1_555 1_555
H11 C7 1_555 1_555
H12 C7 1_555 1_555
C8 C3 1_555 1_555
C9 C8 1_555 1_555
C10 C9 1_555 1_555
H13 C10 1_555 1_555
C11 C10 1_555 1_555
C12 C11 1_555 1_555
H14 C12 1_555 1_555
C13 C8 1_555 1_555
C14 C9 1_555 1_555
H15 C14 1_555 1_555
H16 C14 1_555 1_555
H17 C14 1_555 1_555
C15 C11 1_555 1_555
H18 C15 1_555 1_555
H19 C15 1_555 1_555
H20 C15 1_555 1_555
C16 C13 1_555 1_555
H21 C16 1_555 1_555
H22 C16 1_555 1_555
H23 C16 1_555 1_555
C2 C3 1_555 1_555
C12 C13 1_555 1_555

#END
