
#######################################################################
#
#                 Cambridge Crystallographic Data Centre
#                                CCDC 
#
#######################################################################
#
# If this CIF has been generated from an entry in the Cambridge 
# Structural Database, then it will include bibliographic, chemical, 
# crystal, experimental, refinement or atomic coordinate data resulting 
# from the CCDC's data processing and validation procedures.
#
#######################################################################

data_CEZQOO
_chemical_formula_moiety         'C19 H21 N1 O1'
_chemical_name_systematic        
(2RS,3RS)-anti-3-Hydroxy-2-(p-tolyl)-3-(mesityl)propanenitrile
_symmetry_cell_setting           monoclinic
_symmetry_space_group_name_H-M   'P 21'
_symmetry_Int_Tables_number      4
_space_group_name_Hall           'P 2yb'
loop_
_symmetry_equiv_pos_site_id
_symmetry_equiv_pos_as_xyz
1 x,y,z
2 -x,1/2+y,-z
_cell_length_a                   7.549(2)
_cell_length_b                   21.693(5)
_cell_length_c                   10.004(2)
_cell_angle_alpha                90
_cell_angle_beta                 95.960(10)
_cell_angle_gamma                90
_cell_volume                     1629.4
_exptl_crystal_colour            colorless
_exptl_crystal_description       block
_cell_formula_units_Z            4
loop_
_atom_site_label
_atom_site_type_symbol
_atom_site_fract_x
_atom_site_fract_y
_atom_site_fract_z
O1 O -0.0188(3) 0.36231(9) 0.6194(2)
H1 H -0.1108 0.3497 0.6577
C1 C -0.0519(4) 0.42651(12) 0.5966(3)
H3 H -0.1489 0.4386 0.6492
C2 C 0.1153(4) 0.46376(14) 0.6503(3)
H4 H 0.2107 0.4547 0.5938
C5 C 0.1745(5) 0.44499(14) 0.7881(4)
N1 N 0.2191(5) 0.43110(15) 0.8961(3)
C7 C -0.1115(3) 0.44009(12) 0.4507(3)
C8 C -0.2764(4) 0.46946(14) 0.4168(3)
C9 C -0.3324(5) 0.48164(14) 0.2835(4)
H7 H -0.4412 0.5013 0.2627
C10 C -0.2343(5) 0.46589(16) 0.1802(4)
C11 C -0.0736(5) 0.43693(15) 0.2143(3)
H8 H -0.0048 0.4260 0.1461
C12 C -0.0096(4) 0.42323(13) 0.3468(3)
C13 C -0.3934(4) 0.4887(2) 0.5227(4)
H9 H -0.3342 0.5200 0.5785
H10 H -0.4169 0.4537 0.5768
H11 H -0.5037 0.5047 0.4801
C14 C -0.2958(8) 0.4820(2) 0.0366(4)
H12 H -0.2367 0.4560 -0.0224
H13 H -0.2679 0.5243 0.0203
H14 H -0.4222 0.4760 0.0203
C15 C 0.1678(4) 0.39043(15) 0.3701(3)
H15 H 0.2598 0.4199 0.3965
H16 H 0.1931 0.3703 0.2888
H17 H 0.1631 0.3603 0.4400
C16 C 0.0782(4) 0.53263(13) 0.6444(3)
C17 C -0.0159(5) 0.56033(15) 0.7394(3)
H18 H -0.0531 0.5369 0.8092
C18 C -0.0552(5) 0.62286(16) 0.7315(3)
H19 H -0.1201 0.6407 0.7956
C19 C 0.0004(4) 0.65905(14) 0.6301(3)
C20 C 0.0937(4) 0.63082(15) 0.5368(3)
H20 H 0.1321 0.6542 0.4675
C21 C 0.1325(4) 0.56812(14) 0.5429(3)
H21 H 0.1955 0.5502 0.4779
C22 C -0.0414(5) 0.72666(16) 0.6238(4)
H22 H -0.0495 0.7403 0.5321
H23 H 0.0513 0.7490 0.6759
H24 H -0.1528 0.7339 0.6595
O2 O 0.2801(3) 0.28868(10) 0.68028(19)
H2 H 0.1750 0.2996 0.6425
C3 C 0.2850(3) 0.27479(12) 0.8187(3)
H5 H 0.2473 0.3116 0.8651
C4 C 0.4801(4) 0.26069(14) 0.8720(3)
H6 H 0.5092 0.2194 0.8411
C6 C 0.5992(4) 0.30497(16) 0.8149(3)
N2 N 0.6923(4) 0.33827(17) 0.7701(3)
C23 C 0.1615(3) 0.22215(13) 0.8466(3)
C24 C 0.1668(4) 0.16561(14) 0.7799(3)
C25 C 0.0466(4) 0.12004(14) 0.8036(3)
H25 H 0.0511 0.0826 0.7590
C26 C -0.0815(4) 0.12873(15) 0.8927(4)
C27 C -0.0829(4) 0.18410(16) 0.9597(3)
H26 H -0.1660 0.1902 1.0208
C28 C 0.0365(4) 0.23133(14) 0.9388(3)
C29 C 0.3001(4) 0.15047(15) 0.6823(3)
H27 H 0.2513 0.1196 0.6202
H28 H 0.4076 0.1352 0.7307
H29 H 0.3263 0.1870 0.6338
C30 C -0.2143(5) 0.07880(19) 0.9141(5)
H30 H -0.3092 0.0798 0.8424
H31 H -0.2620 0.0854 0.9983
H32 H -0.1564 0.0394 0.9153
C31 C 0.0271(4) 0.28994(16) 1.0184(3)
H33 H 0.1381 0.2963 1.0726
H34 H -0.0673 0.2868 1.0754
H35 H 0.0044 0.3241 0.9579
C32 C 0.5067(3) 0.26088(13) 1.0243(3)
C33 C 0.4897(4) 0.20710(14) 1.0948(3)
H36 H 0.4641 0.1705 1.0485
C34 C 0.5104(4) 0.20697(17) 1.2338(3)
H37 H 0.4979 0.1703 1.2800
C35 C 0.5494(4) 0.26073(17) 1.3047(3)
C36 C 0.5655(4) 0.31438(17) 1.2336(3)
H38 H 0.5913 0.3510 1.2799
C37 C 0.5439(4) 0.31482(15) 1.0947(3)
H39 H 0.5545 0.3516 1.0486
C38 C 0.5733(5) 0.2612(2) 1.4563(3)
H40 H 0.6777 0.2846 1.4870
H41 H 0.5867 0.2197 1.4890
H42 H 0.4709 0.2796 1.4895
loop_
_geom_bond_atom_site_label_1
_geom_bond_atom_site_label_2
_geom_bond_site_symmetry_1
_geom_bond_site_symmetry_2
O1 H1 1_555 1_555
O2 H2 1_555 1_555
C1 O1 1_555 1_555
H3 C1 1_555 1_555
C2 C1 1_555 1_555
H4 C2 1_555 1_555
C3 O2 1_555 1_555
H5 C3 1_555 1_555
C4 C3 1_555 1_555
H6 C4 1_555 1_555
C5 C2 1_555 1_555
N1 C5 1_555 1_555
C6 C4 1_555 1_555
N2 C6 1_555 1_555
C7 C1 1_555 1_555
C8 C7 1_555 1_555
C9 C8 1_555 1_555
H7 C9 1_555 1_555
C10 C9 1_555 1_555
C11 C10 1_555 1_555
H8 C11 1_555 1_555
C12 C7 1_555 1_555
C13 C8 1_555 1_555
H9 C13 1_555 1_555
H10 C13 1_555 1_555
H11 C13 1_555 1_555
C14 C10 1_555 1_555
H12 C14 1_555 1_555
H13 C14 1_555 1_555
H14 C14 1_555 1_555
C15 C12 1_555 1_555
H15 C15 1_555 1_555
H16 C15 1_555 1_555
H17 C15 1_555 1_555
C16 C2 1_555 1_555
C17 C16 1_555 1_555
H18 C17 1_555 1_555
C18 C17 1_555 1_555
H19 C18 1_555 1_555
C19 C18 1_555 1_555
C20 C19 1_555 1_555
H20 C20 1_555 1_555
C21 C16 1_555 1_555
H21 C21 1_555 1_555
C22 C19 1_555 1_555
H22 C22 1_555 1_555
H23 C22 1_555 1_555
H24 C22 1_555 1_555
C23 C3 1_555 1_555
C24 C23 1_555 1_555
C25 C24 1_555 1_555
H25 C25 1_555 1_555
C26 C25 1_555 1_555
C27 C26 1_555 1_555
H26 C27 1_555 1_555
C28 C23 1_555 1_555
C29 C24 1_555 1_555
H27 C29 1_555 1_555
H28 C29 1_555 1_555
H29 C29 1_555 1_555
C30 C26 1_555 1_555
H30 C30 1_555 1_555
H31 C30 1_555 1_555
H32 C30 1_555 1_555
C31 C28 1_555 1_555
H33 C31 1_555 1_555
H34 C31 1_555 1_555
H35 C31 1_555 1_555
C32 C4 1_555 1_555
C33 C32 1_555 1_555
H36 C33 1_555 1_555
C34 C33 1_555 1_555
H37 C34 1_555 1_555
C35 C34 1_555 1_555
C36 C35 1_555 1_555
H38 C36 1_555 1_555
C37 C32 1_555 1_555
H39 C37 1_555 1_555
C38 C35 1_555 1_555
H40 C38 1_555 1_555
H41 C38 1_555 1_555
H42 C38 1_555 1_555
C11 C12 1_555 1_555
C20 C21 1_555 1_555
C27 C28 1_555 1_555
C36 C37 1_555 1_555

#END
