
#######################################################################
#
#                 Cambridge Crystallographic Data Centre
#                                CCDC 
#
#######################################################################
#
# If this CIF has been generated from an entry in the Cambridge 
# Structural Database, then it will include bibliographic, chemical, 
# crystal, experimental, refinement or atomic coordinate data resulting 
# from the CCDC's data processing and validation procedures.
#
#######################################################################

data_CEZQOQ
_chemical_formula_moiety         'C27 H21 N1 O5'
_chemical_name_systematic        
'methyl 1-(3-methoxy-3-oxo-1-phenylprop-1-en-1-yl)-4-oxo-2-phenyl-1,4-dihydroquinoline-3-carboxylate'
_symmetry_cell_setting           orthorhombic
_symmetry_space_group_name_H-M   'P b c a'
_symmetry_Int_Tables_number      61
_space_group_name_Hall           '-P 2ac 2ab'
loop_
_symmetry_equiv_pos_site_id
_symmetry_equiv_pos_as_xyz
1 x,y,z
2 1/2-x,-y,1/2+z
3 -x,1/2+y,1/2-z
4 1/2+x,1/2-y,-z
5 -x,-y,-z
6 1/2+x,y,1/2-z
7 x,1/2-y,1/2+z
8 1/2-x,1/2+y,z
_cell_length_a                   16.5817(14)
_cell_length_b                   14.8989(12)
_cell_length_c                   18.1243(15)
_cell_angle_alpha                90
_cell_angle_beta                 90
_cell_angle_gamma                90
_cell_volume                     4477.59
_exptl_crystal_colour            colorless
_exptl_crystal_description       Block
_cell_formula_units_Z            8
loop_
_atom_site_label
_atom_site_type_symbol
_atom_site_fract_x
_atom_site_fract_y
_atom_site_fract_z
C1 C 0.97068(10) 0.77520(11) -0.06238(9)
C2 C 0.95051(11) 0.72150(13) -0.12320(10)
H1 H 0.9002 0.6941 -0.1257
C3 C 1.00512(12) 0.70958(14) -0.17883(11)
H2 H 0.9915 0.6737 -0.2190
C4 C 1.08038(12) 0.74990(15) -0.17656(11)
H3 H 1.1169 0.7410 -0.2148
C5 C 1.10050(11) 0.80275(13) -0.11789(10)
H4 H 1.1510 0.8299 -0.1165
C6 C 1.04624(9) 0.81673(11) -0.05966(9)
C7 C 1.06853(9) 0.87258(11) 0.00269(9)
C8 C 1.01091(9) 0.87516(11) 0.06214(9)
C9 C 0.93720(9) 0.83489(10) 0.05731(8)
N1 N 0.91615(8) 0.78732(9) -0.00437(7)
C10 C 1.03938(9) 0.91734(11) 0.13183(9)
C11 C 1.03893(18) 1.04368(16) 0.20878(13)
H5 H 1.0182 1.0112 0.2504
H6 H 1.0186 1.1040 0.2096
H7 H 1.0968 1.0449 0.2111
C12 C 0.87734(9) 0.84220(12) 0.11845(9)
C13 C 0.86715(12) 0.77273(14) 0.16834(10)
H8 H 0.8967 0.7201 0.1630
C14 C 0.81317(14) 0.78145(18) 0.22605(11)
H9 H 0.8055 0.7340 0.2586
C15 C 0.77118(13) 0.8590(2) 0.23546(12)
H10 H 0.7355 0.8648 0.2748
C16 C 0.78151(14) 0.92821(18) 0.18707(13)
H11 H 0.7528 0.9812 0.1937
C17 C 0.83456(12) 0.92040(15) 0.12801(11)
H12 H 0.8411 0.9678 0.0952
C18 C 0.83515(9) 0.75118(12) -0.01328(9)
C19 C 0.77880(10) 0.81041(12) -0.05401(9)
C20 C 0.79774(12) 0.89917(12) -0.06757(11)
H13 H 0.8463 0.9225 -0.0504
C21 C 0.74532(14) 0.95358(15) -0.10632(13)
H14 H 0.7586 1.0133 -0.1149
C22 C 0.67371(14) 0.91992(16) -0.13226(14)
H15 H 0.6383 0.9569 -0.1579
C23 C 0.65459(13) 0.83134(16) -0.12013(13)
H16 H 0.6063 0.8083 -0.1381
C24 C 0.70622(11) 0.77701(14) -0.08183(11)
H17 H 0.6928 0.7171 -0.0742
C25 C 0.81857(11) 0.66876(12) 0.01014(10)
H18 H 0.7653 0.6497 0.0068
C26 C 0.87721(11) 0.60510(13) 0.04091(11)
C27 C 0.89392(17) 0.45264(16) 0.07152(18)
H19 H 0.9370 0.4457 0.0366
H20 H 0.8630 0.3982 0.0737
H21 H 0.9160 0.4655 0.1193
O1 O 1.13359(7) 0.91370(8) 0.00571(7)
O2 O 1.08317(9) 0.88091(10) 0.17437(8)
O3 O 1.01372(10) 0.99993(9) 0.14129(8)
O4 O 0.84245(9) 0.52560(10) 0.04883(10)
O5 O 0.94598(9) 0.61863(10) 0.05669(11)
loop_
_geom_bond_atom_site_label_1
_geom_bond_atom_site_label_2
_geom_bond_site_symmetry_1
_geom_bond_site_symmetry_2
C1 C2 1_555 1_555
C2 H1 1_555 1_555
C3 C2 1_555 1_555
H2 C3 1_555 1_555
C4 C3 1_555 1_555
H3 C4 1_555 1_555
C5 C4 1_555 1_555
H4 C5 1_555 1_555
C6 C1 1_555 1_555
C7 C6 1_555 1_555
C8 C7 1_555 1_555
C9 C8 1_555 1_555
N1 C1 1_555 1_555
C10 C8 1_555 1_555
C11 H5 1_555 1_555
H6 C11 1_555 1_555
H7 C11 1_555 1_555
C12 C9 1_555 1_555
C13 C12 1_555 1_555
H8 C13 1_555 1_555
C14 C13 1_555 1_555
H9 C14 1_555 1_555
C15 C14 1_555 1_555
H10 C15 1_555 1_555
C16 C15 1_555 1_555
H11 C16 1_555 1_555
C17 C12 1_555 1_555
H12 C17 1_555 1_555
C18 N1 1_555 1_555
C19 C18 1_555 1_555
C20 C19 1_555 1_555
H13 C20 1_555 1_555
C21 C20 1_555 1_555
H14 C21 1_555 1_555
C22 C21 1_555 1_555
H15 C22 1_555 1_555
C23 C22 1_555 1_555
H16 C23 1_555 1_555
C24 C19 1_555 1_555
H17 C24 1_555 1_555
C25 C18 1_555 1_555
H18 C25 1_555 1_555
C26 C25 1_555 1_555
C27 H19 1_555 1_555
H20 C27 1_555 1_555
H21 C27 1_555 1_555
O1 C7 1_555 1_555
O2 C10 1_555 1_555
O3 C10 1_555 1_555
O4 C26 1_555 1_555
O5 C26 1_555 1_555
C5 C6 1_555 1_555
C9 N1 1_555 1_555
C11 O3 1_555 1_555
C16 C17 1_555 1_555
C23 C24 1_555 1_555
C27 O4 1_555 1_555

#END
