
#######################################################################
#
#                 Cambridge Crystallographic Data Centre
#                                CCDC 
#
#######################################################################
#
# If this CIF has been generated from an entry in the Cambridge 
# Structural Database, then it will include bibliographic, chemical, 
# crystal, experimental, refinement or atomic coordinate data resulting 
# from the CCDC's data processing and validation procedures.
#
#######################################################################

data_CEZRAD
_chemical_formula_moiety         'C27 H20 Cl1 N1 O5'
_chemical_name_systematic        
'methyl 6-chloro-1-(3-methoxy-3-oxo-1-phenylprop-1-en-1-yl)-4-oxo-2-phenyl-1,4-dihydroquinoline-3-carboxylate'
_symmetry_cell_setting           orthorhombic
_symmetry_space_group_name_H-M   'P 21 21 21'
_symmetry_Int_Tables_number      19
_space_group_name_Hall           'P 2ac 2ab'
loop_
_symmetry_equiv_pos_site_id
_symmetry_equiv_pos_as_xyz
1 x,y,z
2 1/2-x,-y,1/2+z
3 -x,1/2+y,1/2-z
4 1/2+x,1/2-y,-z
_cell_length_a                   10.1147(16)
_cell_length_b                   13.035(2)
_cell_length_c                   17.789(3)
_cell_angle_alpha                90
_cell_angle_beta                 90
_cell_angle_gamma                90
_cell_volume                     2345.39
_exptl_crystal_colour            colorless
_exptl_crystal_description       block
_cell_formula_units_Z            4
loop_
_atom_site_label
_atom_site_type_symbol
_atom_site_fract_x
_atom_site_fract_y
_atom_site_fract_z
C1 C 0.6844(3) 0.3401(2) 0.08060(14)
H1 H 0.6871 0.3751 0.0351
C2 C 0.7823(3) 0.2732(2) 0.09866(16)
C3 C 0.7801(3) 0.2190(2) 0.16613(17)
H2 H 0.8480 0.1735 0.1776
C4 C 0.6776(3) 0.2329(2) 0.21557(14)
H3 H 0.6758 0.1966 0.2606
C5 C 0.5757(2) 0.30180(17) 0.19823(12)
C6 C 0.5789(2) 0.35657(18) 0.13068(12)
C7 C 0.4750(2) 0.42922(18) 0.11149(12)
C8 C 0.3630(2) 0.42931(19) 0.16213(12)
C9 C 0.3641(2) 0.37596(17) 0.22832(11)
C10 C 0.2468(3) 0.4940(2) 0.14176(13)
C11 C 0.0870(4) 0.5252(4) 0.0486(2)
H4 H 0.0130 0.5199 0.0822
H5 H 0.0619 0.5004 -0.0002
H6 H 0.1139 0.5956 0.0449
C12 C 0.2512(2) 0.38093(19) 0.28224(12)
C13 C 0.2577(3) 0.4432(2) 0.34534(13)
H7 H 0.3330 0.4824 0.3542
C14 C 0.1531(3) 0.4476(3) 0.39514(16)
H8 H 0.1577 0.4900 0.4371
C15 C 0.0430(3) 0.3896(3) 0.3826(2)
H9 H -0.0267 0.3913 0.4167
C16 C 0.0346(3) 0.3286(3) 0.3197(2)
H10 H -0.0412 0.2899 0.3116
C17 C 0.1375(2) 0.3239(2) 0.26820(16)
H11 H 0.1307 0.2835 0.2253
C18 C 0.1408(3) 0.0128(3) 0.2674(2)
H12 H 0.0902 0.0602 0.2377
H13 H 0.0823 -0.0256 0.2992
H14 H 0.1877 -0.0332 0.2348
C19 C 0.3209(3) 0.12802(19) 0.27723(14)
C20 C 0.4053(2) 0.17966(18) 0.33237(13)
H15 H 0.4100 0.1509 0.3801
C21 C 0.4755(2) 0.26388(18) 0.32006(11)
C22 C 0.5634(2) 0.31183(18) 0.37663(12)
C23 C 0.6054(3) 0.2567(2) 0.43945(13)
H16 H 0.5805 0.1885 0.4453
C24 C 0.6839(3) 0.3033(2) 0.49309(14)
H17 H 0.7114 0.2662 0.5349
C25 C 0.7219(3) 0.4042(2) 0.48513(14)
H18 H 0.7735 0.4354 0.5219
C26 C 0.6832(3) 0.4590(2) 0.42260(14)
H19 H 0.7099 0.5268 0.4167
C27 C 0.6048(2) 0.41308(19) 0.36886(13)
H20 H 0.5791 0.4504 0.3267
Cl1 Cl 0.91307(11) 0.25335(9) 0.03719(6)
N1 N 0.47002(18) 0.31568(15) 0.24785(10)
O1 O 0.48358(19) 0.48775(15) 0.05687(9)
O2 O 0.1956(2) 0.4642(2) 0.07723(11)
O3 O 0.2026(2) 0.56289(18) 0.17837(14)
O4 O 0.3269(2) 0.13540(16) 0.20985(10)
O5 O 0.2335(2) 0.06847(17) 0.31286(11)
loop_
_geom_bond_atom_site_label_1
_geom_bond_atom_site_label_2
_geom_bond_site_symmetry_1
_geom_bond_site_symmetry_2
C1 H1 1_555 1_555
C2 C1 1_555 1_555
C3 C2 1_555 1_555
H2 C3 1_555 1_555
C4 C3 1_555 1_555
H3 C4 1_555 1_555
C5 C4 1_555 1_555
C6 C1 1_555 1_555
C7 C6 1_555 1_555
C8 C7 1_555 1_555
C9 C8 1_555 1_555
C10 C8 1_555 1_555
C11 H4 1_555 1_555
H5 C11 1_555 1_555
H6 C11 1_555 1_555
C12 C9 1_555 1_555
C13 C12 1_555 1_555
H7 C13 1_555 1_555
C14 C13 1_555 1_555
H8 C14 1_555 1_555
C15 C14 1_555 1_555
H9 C15 1_555 1_555
C16 C15 1_555 1_555
H10 C16 1_555 1_555
C17 C12 1_555 1_555
H11 C17 1_555 1_555
C18 H12 1_555 1_555
H13 C18 1_555 1_555
H14 C18 1_555 1_555
C19 C20 1_555 1_555
C20 H15 1_555 1_555
C21 C20 1_555 1_555
C22 C21 1_555 1_555
C23 C22 1_555 1_555
H16 C23 1_555 1_555
C24 C23 1_555 1_555
H17 C24 1_555 1_555
C25 C24 1_555 1_555
H18 C25 1_555 1_555
C26 C25 1_555 1_555
H19 C26 1_555 1_555
C27 C22 1_555 1_555
H20 C27 1_555 1_555
Cl1 C2 1_555 1_555
N1 C5 1_555 1_555
O1 C7 1_555 1_555
O2 C10 1_555 1_555
O3 C10 1_555 1_555
O4 C19 1_555 1_555
O5 C18 1_555 1_555
C5 C6 1_555 1_555
C9 N1 1_555 1_555
C11 O2 1_555 1_555
C16 C17 1_555 1_555
C19 O5 1_555 1_555
C21 N1 1_555 1_555
C26 C27 1_555 1_555

#END
