
#######################################################################
#
#                 Cambridge Crystallographic Data Centre
#                                CCDC 
#
#######################################################################
#
# If this CIF has been generated from an entry in the Cambridge 
# Structural Database, then it will include bibliographic, chemical, 
# crystal, experimental, refinement or atomic coordinate data resulting 
# from the CCDC's data processing and validation procedures.
#
#######################################################################

data_CEZVOT
_chemical_formula_moiety         'C13 H14 Cl1 I1 N2 O4'
_chemical_name_systematic        
'Methyl 2-chloro-5-iodo-4-(2-(1-(ethoxycarbonyl)ethylidene)hydrazino)benzoate'
_symmetry_cell_setting           monoclinic
_symmetry_space_group_name_H-M   'P 21/m'
_symmetry_Int_Tables_number      11
_space_group_name_Hall           '-P 2yb'
loop_
_symmetry_equiv_pos_site_id
_symmetry_equiv_pos_as_xyz
1 x,y,z
2 -x,1/2+y,-z
3 -x,-y,-z
4 x,1/2-y,z
_cell_length_a                   9.6431(4)
_cell_length_b                   6.7783(3)
_cell_length_c                   12.9116(5)
_cell_angle_alpha                90
_cell_angle_beta                 98.226(2)
_cell_angle_gamma                90
_cell_volume                     835.268
_exptl_crystal_colour            white
_exptl_crystal_description       'plate-like prism'
_cell_formula_units_Z            2
_exptl_crystal_recrystallization_method dichloromethane/hexane
loop_
_atom_site_label
_atom_site_type_symbol
_atom_site_fract_x
_atom_site_fract_y
_atom_site_fract_z
I1 I 0.77853(6) 0.2500 -0.20915(5)
Cl1 Cl 0.1712(3) 0.2500 -0.0306(2)
O1 O 0.2341(8) 0.2500 -0.3675(6)
O2 O 0.0834(8) 0.2500 -0.2532(7)
O3 O 0.8736(10) 0.2500 0.3771(7)
O4 O 0.6469(9) 0.2500 0.3189(6)
N1 N 0.7018(8) 0.2500 0.0257(6)
N2 N 0.6878(9) 0.2500 0.1287(6)
C1 C 0.1164(14) 0.2500 -0.4525(11)
C2 C 0.2004(11) 0.2500 -0.2703(8)
C3 C 0.3287(10) 0.2500 -0.1915(7)
C4 C 0.3251(10) 0.2500 -0.0834(8)
C5 C 0.4459(10) 0.2500 -0.0122(7)
H4 H 0.4401 0.2500 0.0591
C6 C 0.5761(9) 0.2500 -0.0458(7)
C7 C 0.5845(9) 0.2500 -0.1539(8)
C8 C 0.4604(10) 0.2500 -0.2246(8)
H5 H 0.4656 0.2500 -0.2960
C9 C 0.8025(11) 0.2500 0.1938(8)
C10 C 0.9488(12) 0.2500 0.1664(10)
C11 C 0.7786(12) 0.2500 0.3059(8)
C12 C 0.614(2) 0.2500 0.4287(11)
H9 H 0.6527 0.1338 0.4659
C13 C 0.463(2) 0.2500 0.4207(13)
H9C H 0.6527 0.3662 0.4659
H1? H 0.0395 0.1784 -0.4310
H2? H 0.1444 0.1882 -0.5131
H3? H 0.0881 0.3834 -0.4691
H6? H 0.9726 0.3805 0.1461
H7? H 0.9539 0.1604 0.1095
H8? H 1.0133 0.2090 0.2262
H10? H 0.6527 0.3662 0.4659
H11? H 0.4245 0.3356 0.3647
H12? H 0.4363 0.2960 0.4853
H13? H 0.4286 0.1184 0.4069
loop_
_geom_bond_atom_site_label_1
_geom_bond_atom_site_label_2
_geom_bond_site_symmetry_1
_geom_bond_site_symmetry_2
I1 C7 1_555 1_555
Cl1 C4 1_555 1_555
O1 C1 1_555 1_555
O2 C2 1_555 1_555
O3 C11 1_555 1_555
O4 C11 1_555 1_555
N1 N2 1_555 1_555
N2 C9 1_555 1_555
C2 O1 1_555 1_555
C3 C2 1_555 1_555
C4 C3 1_555 1_555
C5 C4 1_555 1_555
H4 C5 1_555 1_555
C6 N1 1_555 1_555
C7 C6 1_555 1_555
C8 C3 1_555 1_555
H5 C8 1_555 1_555
C9 C10 1_555 1_555
C11 C9 1_555 1_555
C12 O4 1_555 1_555
H9 C12 1_555 1_555
C13 C12 1_555 1_555
H9C C12 1_555 1_555
C5 C6 1_555 1_555
C7 C8 1_555 1_555

#END
