
#######################################################################
#
#                 Cambridge Crystallographic Data Centre
#                                CCDC 
#
#######################################################################
#
# If this CIF has been generated from an entry in the Cambridge 
# Structural Database, then it will include bibliographic, chemical, 
# crystal, experimental, refinement or atomic coordinate data resulting 
# from the CCDC's data processing and validation procedures.
#
#######################################################################

data_CEZVUZ
_chemical_formula_moiety         'C13 H15 Cl1 N2 O4'
_chemical_name_systematic        
'Methyl 2-chloro-4-(2-(1-(ethoxycarbonyl)ethylidene)hydrazino)benzoate'
_symmetry_cell_setting           orthorhombic
_symmetry_space_group_name_H-M   'P b c a'
_symmetry_Int_Tables_number      61
_space_group_name_Hall           '-P 2ac 2ab'
loop_
_symmetry_equiv_pos_site_id
_symmetry_equiv_pos_as_xyz
1 x,y,z
2 1/2-x,-y,1/2+z
3 -x,1/2+y,1/2-z
4 1/2+x,1/2-y,-z
5 -x,-y,-z
6 1/2+x,y,1/2-z
7 x,1/2-y,1/2+z
8 1/2-x,1/2+y,z
_cell_length_a                   14.5483(6)
_cell_length_b                   7.9339(3)
_cell_length_c                   25.0267(13)
_cell_angle_alpha                90
_cell_angle_beta                 90
_cell_angle_gamma                90
_cell_volume                     2888.7
_exptl_crystal_colour            white
_exptl_crystal_description       needle
_cell_formula_units_Z            8
_exptl_crystal_recrystallization_method dichloromethane/hexane
loop_
_atom_site_label
_atom_site_type_symbol
_atom_site_fract_x
_atom_site_fract_y
_atom_site_fract_z
Cl1 Cl 0.17278(8) 1.04153(17) 0.68910(6)
O1 O 0.4535(2) 1.1833(4) 0.63192(13)
O2 O 0.3056(2) 1.1397(5) 0.61313(14)
O3 O 0.1689(3) 0.5040(5) 0.96629(17)
O4 O 0.1059(3) 0.6551(5) 0.90006(18)
N1 N 0.3500(3) 0.7705(5) 0.84084(16)
N2 N 0.2669(3) 0.7306(5) 0.86180(16)
C1 C 0.3176(4) 1.2361(8) 0.5640(2)
H1 H 0.3246 1.3534 0.5725
H2 H 0.2647 1.2214 0.5415
H3 H 0.3714 1.1970 0.5455
C2 C 0.3790(4) 1.1268(6) 0.6445(2)
C3 C 0.3617(3) 1.0376(5) 0.69566(19)
C4 C 0.2774(3) 0.9937(5) 0.71816(19)
C5 C 0.2718(3) 0.9091(5) 0.76604(19)
H4 H 0.2144 0.8846 0.7805
C6 C 0.3511(3) 0.8596(6) 0.7931(2)
C7 C 0.4355(3) 0.9044(6) 0.7718(2)
H5 H 0.4893 0.8765 0.7897
C8 C 0.4397(3) 0.9895(6) 0.7244(2)
H6 H 0.4972 1.0166 0.7106
C9 C 0.2681(3) 0.6418(6) 0.9048(2)
C10 C 0.3502(3) 0.5826(7) 0.9339(2)
H7 H 0.3888 0.5192 0.9102
H8 H 0.3316 0.5122 0.9632
H9 H 0.3837 0.6779 0.9474
C11 C 0.1760(4) 0.5928(7) 0.9268(3)
C12 C 0.0129(4) 0.6089(9) 0.9178(3)
H10 H -0.0159 0.5419 0.8901
H11 H 0.0182 0.5384 0.9494
C13 C -0.0416(5) 0.7372(9) 0.9292(4)
H12 H -0.0173 0.7979 0.9592
H13 H -0.1018 0.6958 0.9378
H14 H -0.0453 0.8110 0.8989
loop_
_geom_bond_atom_site_label_1
_geom_bond_atom_site_label_2
_geom_bond_site_symmetry_1
_geom_bond_site_symmetry_2
Cl1 C4 1_555 1_555
O1 C2 1_555 1_555
O2 C1 1_555 1_555
O3 C11 1_555 1_555
O4 C11 1_555 1_555
N1 N2 1_555 1_555
N2 C9 1_555 1_555
C1 H1 1_555 1_555
H2 C1 1_555 1_555
H3 C1 1_555 1_555
C2 O2 1_555 1_555
C3 C2 1_555 1_555
C4 C3 1_555 1_555
C5 C4 1_555 1_555
H4 C5 1_555 1_555
C6 N1 1_555 1_555
C7 C6 1_555 1_555
H5 C7 1_555 1_555
C8 C3 1_555 1_555
H6 C8 1_555 1_555
C9 C10 1_555 1_555
C10 H7 1_555 1_555
H8 C10 1_555 1_555
H9 C10 1_555 1_555
C11 C9 1_555 1_555
C12 O4 1_555 1_555
H10 C12 1_555 1_555
H11 C12 1_555 1_555
C13 C12 1_555 1_555
H12 C13 1_555 1_555
H13 C13 1_555 1_555
H14 C13 1_555 1_555
C5 C6 1_555 1_555
C7 C8 1_555 1_555

#END
