
#######################################################################
#
#                 Cambridge Crystallographic Data Centre
#                                CCDC 
#
#######################################################################
#
# If this CIF has been generated from an entry in the Cambridge 
# Structural Database, then it will include bibliographic, chemical, 
# crystal, experimental, refinement or atomic coordinate data resulting 
# from the CCDC's data processing and validation procedures.
#
#######################################################################

data_CHLSOS
_chemical_formula_moiety         'C29 H48 O2 S1'
_chemical_name_systematic        Cholestan-4-one-3-spiro(2,5-oxathiolane)
_symmetry_cell_setting           monoclinic
_symmetry_space_group_name_H-M   'P 21'
_symmetry_Int_Tables_number      4
_space_group_name_Hall           'P 2yb'
loop_
_symmetry_equiv_pos_site_id
_symmetry_equiv_pos_as_xyz
1 x,y,z
2 -x,1/2+y,-z
_cell_length_a                   16.636(3)
_cell_length_b                   6.563(1)
_cell_length_c                   12.982(3)
_cell_angle_alpha                90
_cell_angle_beta                 102.59(1)
_cell_angle_gamma                90
_cell_volume                     1383.32
_chemical_melting_point          145deg.C
_cell_formula_units_Z            2
loop_
_atom_site_label
_atom_site_type_symbol
_atom_site_fract_x
_atom_site_fract_y
_atom_site_fract_z
C1 C 0.22650 0.43214 0.29102
C2 C 0.16339 0.42039 0.36153
C3 C 0.26102 0.60466 0.51586
C4 C 0.30939 0.58943 0.63098
C5 C 0.25145 0.54727 0.70630
C6 C 0.20310 0.34961 0.66727
C7 C 0.16016 0.29535 0.75778
C8 C 0.22501 0.35602 0.85674
C9 C 0.29400 0.47896 0.82074
C10 C 0.19353 0.72751 0.71064
C11 C 0.10413 0.60404 0.33923
C12 C 0.18687 0.42394 0.17303
C13 C 0.33177 0.64683 0.90072
C14 C 0.39575 0.77686 0.86381
C15 C 0.37186 0.54775 1.00772
C16 C 0.40094 0.70188 1.09630
C17 C 0.43022 0.59911 1.20208
C18 C 0.47691 0.74049 1.28910
C19 C 0.50623 0.61497 1.39054
C20 C 0.43022 0.91800 1.30772
C21 C 0.06545 0.07812 -0.01414
C22 C 0.13742 -0.06473 0.01113
C23 C 0.13167 0.23942 0.14226
C24 C 0.07370 0.21163 0.21803
C25 C 0.11556 0.21564 0.33402
C26 C 0.05517 0.17204 0.40555
C27 C 0.10252 0.16723 0.52141
C28 C 0.15133 0.36394 0.55521
C29 C 0.20906 0.41009 0.47885
H1 H 0.26530 0.31460 0.31220
H2 H 0.25110 0.55320 0.30120
H3 H 0.22340 0.72950 0.50140
H4 H 0.29730 0.64050 0.47100
H5 H 0.33580 0.71790 0.64410
H6 H 0.35160 0.46010 0.64010
H7 H 0.24800 0.23320 0.66280
H8 H 0.13870 0.15510 0.75670
H9 H 0.10470 0.37160 0.75520
H10 H 0.24880 0.22450 0.90080
H11 H 0.18980 0.46260 0.90140
H12 H 0.33790 0.37680 0.81750
H13 H 0.22890 0.84330 0.73470
H14 H 0.16140 0.68050 0.76390
H15 H 0.16130 0.75340 0.64930
H16 H 0.14000 0.71220 0.34140
H17 H 0.07300 0.60320 0.38960
H18 H 0.06990 0.59440 0.27160
H19 H 0.22720 0.44190 0.12370
H20 H 0.28690 0.72500 0.92130
H21 H 0.14750 0.55460 0.14510
H22 H 0.37140 0.85250 0.80180
H23 H 0.44560 0.65780 0.85810
H24 H 0.42460 0.88640 0.91330
H25 H 0.41700 0.47370 1.00210
H26 H 0.33370 0.44910 1.03480
H27 H 0.34830 0.80570 1.10070
H28 H 0.45090 0.76260 1.08330
H29 H 0.46250 0.45470 1.19670
H30 H 0.38400 0.52820 1.22650
H31 H 0.53460 0.82080 1.24430
H32 H 0.44900 0.54850 1.41240
H33 H 0.53860 0.69030 1.44770
H34 H 0.53450 0.46940 1.37100
H35 H 0.46190 1.00660 1.35350
H36 H 0.38090 0.85240 1.33680
H37 H 0.41690 1.01110 1.25050
H38 H 0.02130 0.03090 0.01790
H39 H 0.05370 0.10260 -0.09320
H40 H 0.18520 -0.03500 -0.03800
H41 H 0.12270 -0.21920 0.00670
H42 H 0.15730 0.12490 0.34230
H43 H 0.02770 0.03720 0.37860
H44 H 0.00620 0.27250 0.39790
H45 H 0.05800 0.13790 0.56340
H46 H 0.14280 0.04990 0.52270
H47 H 0.11160 0.46120 0.55330
H48 H 0.24370 0.27500 0.47470
O1 O 0.09018 0.26688 0.03728
O2 O 0.00004 0.19377 0.18636
S1 S 0.19024 -0.00123 0.14519
loop_
_geom_bond_atom_site_label_1
_geom_bond_atom_site_label_2
_geom_bond_site_symmetry_1
_geom_bond_site_symmetry_2
C1 C2 1_555 1_555
C2 C11 1_555 1_555
C3 C4 1_555 1_555
C4 C5 1_555 1_555
C5 C6 1_555 1_555
C6 C7 1_555 1_555
C7 C8 1_555 1_555
C8 C9 1_555 1_555
C9 C5 1_555 1_555
C10 C5 1_555 1_555
C11 H16 1_555 1_555
C12 C1 1_555 1_555
C13 C9 1_555 1_555
C14 C13 1_555 1_555
C15 C13 1_555 1_555
C16 C15 1_555 1_555
C17 C16 1_555 1_555
C18 C17 1_555 1_555
C19 C18 1_555 1_555
C20 C18 1_555 1_555
C21 C22 1_555 1_555
C22 H40 1_555 1_555
C23 C12 1_555 1_555
C24 C23 1_555 1_555
C25 C2 1_555 1_555
C26 C25 1_555 1_555
C27 C26 1_555 1_555
C28 C6 1_555 1_555
C29 C2 1_555 1_555
H1 C1 1_555 1_555
H2 C1 1_555 1_555
H3 C3 1_555 1_555
H4 C3 1_555 1_555
H5 C4 1_555 1_555
H6 C4 1_555 1_555
H7 C6 1_555 1_555
H8 C7 1_555 1_555
H9 C7 1_555 1_555
H10 C8 1_555 1_555
H11 C8 1_555 1_555
H12 C9 1_555 1_555
H13 C10 1_555 1_555
H14 C10 1_555 1_555
H15 C10 1_555 1_555
H17 C11 1_555 1_555
H18 C11 1_555 1_555
H19 C12 1_555 1_555
H20 C13 1_555 1_555
H21 C12 1_555 1_555
H22 C14 1_555 1_555
H23 C14 1_555 1_555
H24 C14 1_555 1_555
H25 C15 1_555 1_555
H26 C15 1_555 1_555
H27 C16 1_555 1_555
H28 C16 1_555 1_555
H29 C17 1_555 1_555
H30 C17 1_555 1_555
H31 C18 1_555 1_555
H32 C19 1_555 1_555
H33 C19 1_555 1_555
H34 C19 1_555 1_555
H35 C20 1_555 1_555
H36 C20 1_555 1_555
H37 C20 1_555 1_555
H38 C21 1_555 1_555
H39 C21 1_555 1_555
H41 C22 1_555 1_555
H42 C25 1_555 1_555
H43 C26 1_555 1_555
H44 C26 1_555 1_555
H45 C27 1_555 1_555
H46 C27 1_555 1_555
H47 C28 1_555 1_555
H48 C29 1_555 1_555
O1 C21 1_555 1_555
O2 C24 1_555 1_555
S1 C22 1_555 1_555
C3 C29 1_555 1_555
C23 O1 1_555 1_555
C23 S1 1_555 1_555
C24 C25 1_555 1_555
C27 C28 1_555 1_555
C28 C29 1_555 1_555

#END
