
#######################################################################
#
#                 Cambridge Crystallographic Data Centre
#                                CCDC 
#
#######################################################################
#
# If this CIF has been generated from an entry in the Cambridge 
# Structural Database, then it will include bibliographic, chemical, 
# crystal, experimental, refinement or atomic coordinate data resulting 
# from the CCDC's data processing and validation procedures.
#
#######################################################################

data_CIBBEU
_chemical_compound_source        'Mylabris phalerata pallas'
_chemical_formula_moiety         'C10 H13 N1 O4'
_chemical_name_systematic        N-Hydroxy-cantharidinimide
_symmetry_cell_setting           monoclinic
_symmetry_space_group_name_H-M   'P 21/c'
_symmetry_Int_Tables_number      14
_space_group_name_Hall           '-P 2ybc'
loop_
_symmetry_equiv_pos_site_id
_symmetry_equiv_pos_as_xyz
1 x,y,z
2 -x,1/2+y,1/2-z
3 -x,-y,-z
4 x,1/2-y,1/2+z
_cell_length_a                   11.657
_cell_length_b                   7.737
_cell_length_c                   11.101
_cell_angle_alpha                90
_cell_angle_beta                 90.22
_cell_angle_gamma                90
_cell_volume                     1001.19
_chemical_melting_point          168-70deg.C
_cell_formula_units_Z            4
loop_
_atom_site_label
_atom_site_type_symbol
_atom_site_fract_x
_atom_site_fract_y
_atom_site_fract_z
C1 C 0.7026 0.0536 0.3788
C2 C 0.6117 0.1838 0.3339
C3 C 0.5881 0.3234 0.4289
C4 C 0.6949 0.4392 0.4192
C5 C 0.7676 0.3402 0.3272
C6 C 0.8136 0.1683 0.3814
C7 C 0.8932 0.0869 0.2898
C8 C 0.7244 -0.0735 0.2759
C9 C 0.6726 -0.0487 0.4925
C10 C 0.8766 0.1885 0.5032
N1 N 0.8352 -0.046 0.2361
O1 O 0.6595 -0.1801 0.2354
O2 O 0.8795 -0.1342 0.1381
O3 O 0.9908 0.1241 0.2651
O4 O 0.6799 0.2775 0.2443
H1 H 0.532 0.137 0.304
H2 H 0.514 0.382 0.411
H3 H 0.660 0.549 0.395
H4 H 0.843 0.398 0.301
H5 H 0.738 -0.114 0.509
H6 H 0.592 -0.112 0.482
H7 H 0.952 0.261 0.507
H8 H 0.824 0.231 0.564
H9 H 0.904 0.079 0.526
H10 H 0.931 -0.204 0.160
loop_
_geom_bond_atom_site_label_1
_geom_bond_atom_site_label_2
_geom_bond_site_symmetry_1
_geom_bond_site_symmetry_2
C1 C2 1_555 1_555
C2 C3 1_555 1_555
C3 C4 1_555 1_555
C4 C5 1_555 1_555
C5 C6 1_555 1_555
C6 C1 1_555 1_555
C7 C6 1_555 1_555
C8 C1 1_555 1_555
C9 C1 1_555 1_555
C10 C6 1_555 1_555
N1 C7 1_555 1_555
O1 C8 1_555 1_555
O2 N1 1_555 1_555
O3 C7 1_555 1_555
O4 C2 1_555 1_555
H1 C2 1_555 1_555
H2 C3 1_555 1_555
H3 C4 1_555 1_555
H4 C5 1_555 1_555
H5 C9 1_555 1_555
H6 C9 1_555 1_555
H7 C10 1_555 1_555
H8 C10 1_555 1_555
H9 C10 1_555 1_555
H10 O2 1_555 1_555
C5 O4 1_555 1_555
C8 N1 1_555 1_555

#END
