
#######################################################################
#
#                 Cambridge Crystallographic Data Centre
#                                CCDC 
#
#######################################################################
#
# If this CIF has been generated from an entry in the Cambridge 
# Structural Database, then it will include bibliographic, chemical, 
# crystal, experimental, refinement or atomic coordinate data resulting 
# from the CCDC's data processing and validation procedures.
#
#######################################################################

data_CIBBIY
_chemical_compound_source        'Mylabris phalerate pallas'
_chemical_formula_moiety         'C8 H7 N1 O4'
_chemical_name_systematic        Didemethyl-N-hydroxy-cantharidinimide
_chemical_properties_biological  'antitumour drug'
_symmetry_cell_setting           monoclinic
_symmetry_space_group_name_H-M   'C 2/c'
_symmetry_Int_Tables_number      15
_space_group_name_Hall           '-C 2yn'
loop_
_symmetry_equiv_pos_site_id
_symmetry_equiv_pos_as_xyz
1 x,y,z
2 1/2+x,1/2+y,z
3 -x,y,1/2-z
4 1/2-x,1/2+y,1/2-z
5 -x,-y,-z
6 1/2-x,1/2-y,-z
7 x,-y,1/2+z
8 1/2+x,1/2-y,1/2+z
_cell_length_a                   8.879
_cell_length_b                   7.853
_cell_length_c                   21.532
_cell_angle_alpha                90
_cell_angle_beta                 92.58
_cell_angle_gamma                90
_cell_volume                     1499.84
_chemical_melting_point          196deg.C
_cell_formula_units_Z            8
loop_
_atom_site_label
_atom_site_type_symbol
_atom_site_fract_x
_atom_site_fract_y
_atom_site_fract_z
C1 C 0.1450 0.7109 0.6001
C2 C 0.2630 0.5689 0.5885
C3 C 0.3873 0.5915 0.6381
C4 C 0.3323 0.5422 0.6906
C5 C 0.1718 0.4848 0.6752
C6 C 0.0803 0.6531 0.6620
C7 C -0.085 0.6128 0.6471
C8 C 0.013 0.7009 0.5525
N1 N -0.1093 0.6457 0.5844
O1 O -0.1779 0.5627 0.6813
O2 O -0.2466 0.6107 0.5540
O3 O 0.0110 0.7329 0.4982
O4 O 0.1832 0.4234 0.6122
H1 H 0.185 0.828 0.597
H2 H 0.29 0.553 0.544
H3 H 0.359 0.551 0.732
H4 H 0.114 0.404 0.704
H5 H 0.092 0.743 0.699
loop_
_geom_bond_atom_site_label_1
_geom_bond_atom_site_label_2
_geom_bond_site_symmetry_1
_geom_bond_site_symmetry_2
C1 C2 1_555 1_555
C2 C3 1_555 1_555
C3 C4 1_555 1_555
C4 C5 1_555 1_555
C5 C6 1_555 1_555
C6 C1 1_555 1_555
C7 C6 1_555 1_555
C8 C1 1_555 1_555
N1 C7 1_555 1_555
O1 C7 1_555 1_555
O2 N1 1_555 1_555
O3 C8 1_555 1_555
O4 C2 1_555 1_555
H1 C1 1_555 1_555
H2 C2 1_555 1_555
H3 C4 1_555 1_555
H4 C5 1_555 1_555
H5 C6 1_555 1_555
C5 O4 1_555 1_555
C8 N1 1_555 1_555

#END
