
#######################################################################
#
#                 Cambridge Crystallographic Data Centre
#                                CCDC 
#
#######################################################################
#
# If this CIF has been generated from an entry in the Cambridge 
# Structural Database, then it will include bibliographic, chemical, 
# crystal, experimental, refinement or atomic coordinate data resulting 
# from the CCDC's data processing and validation procedures.
#
#######################################################################

data_CIBFUO
_chemical_formula_moiety         'C20 H32 N2 2+,2(C1 H1 I3),2(I1 1-)'
_chemical_name_systematic        
'Azulene-1,3-diyl-bis(methylene-ethyldimethylammonium) di-iodide bis(tri-iodomethane)'
_symmetry_cell_setting           monoclinic
_symmetry_space_group_name_H-M   'P 21/c'
_symmetry_Int_Tables_number      14
_space_group_name_Hall           '-P 2ybc'
loop_
_symmetry_equiv_pos_site_id
_symmetry_equiv_pos_as_xyz
1 x,y,z
2 -x,1/2+y,1/2-z
3 -x,-y,-z
4 x,1/2-y,1/2+z
_cell_length_a                   16.043(8)
_cell_length_b                   12.137(6)
_cell_length_c                   18.360(7)
_cell_angle_alpha                90
_cell_angle_beta                 100.06(3)
_cell_angle_gamma                90
_cell_volume                     3519.98
_exptl_crystal_colour            red-violet
_chemical_melting_point          123-7deg.C
_cell_formula_units_Z            4
loop_
_atom_site_label
_atom_site_type_symbol
_atom_site_fract_x
_atom_site_fract_y
_atom_site_fract_z
N1 N 0.29050 -0.20350 0.29380
N2 N 0.16740 0.16690 0.50240
C1 C 0.34100 -0.05570 0.38540
C2 C 0.28680 0.03580 0.38770
C3 C 0.29700 0.07780 0.46260
C4 C 0.38400 0.02510 0.58480
C5 C 0.44380 -0.03360 0.63310
C6 C 0.49320 -0.12350 0.61520
C7 C 0.49440 -0.17420 0.54840
C8 C 0.44790 -0.15580 0.47730
C9 C 0.38380 -0.07600 0.45800
C10 C 0.35770 0.00930 0.50840
C11 C 0.35380 -0.11110 0.31740
C12 C 0.25790 0.18250 0.48400
C13 C 0.30110 -0.29550 0.35130
C14 C 0.20040 -0.16300 0.28410
C15 C 0.31560 -0.24880 0.22120
C16 C 0.26020 -0.34370 0.19080
C17 C 0.10510 0.12620 0.43440
C18 C 0.13840 0.28420 0.52210
C19 C 0.17250 0.08870 0.56760
C20 C 0.08740 0.06670 0.59270
C21 C 0.41080 0.45630 0.58250
I1 I 0.37039 0.34587 0.66507
I2 I 0.31160 0.56822 0.53942
I3 I 0.52616 0.53730 0.63154
C22 C -0.00480 0.04590 0.13540
I4 I 0.06703 -0.07378 0.08828
I5 I -0.10861 -0.03093 0.17703
I6 I 0.07506 0.14769 0.21563
I7 I 0.28966 0.33035 0.28445
I8 I 0.14555 -0.22192 0.48700
loop_
_geom_bond_atom_site_label_1
_geom_bond_atom_site_label_2
_geom_bond_site_symmetry_1
_geom_bond_site_symmetry_2
N1 C11 1_555 1_555
N2 C12 1_555 1_555
C1 C2 1_555 1_555
C2 C3 1_555 1_555
C3 C10 1_555 1_555
C4 C5 1_555 1_555
C5 C6 1_555 1_555
C6 C7 1_555 1_555
C7 C8 1_555 1_555
C8 C9 1_555 1_555
C9 C1 1_555 1_555
C10 C4 1_555 1_555
C11 C1 1_555 1_555
C12 C3 1_555 1_555
C13 N1 1_555 1_555
C14 N1 1_555 1_555
C15 N1 1_555 1_555
C16 C15 1_555 1_555
C17 N2 1_555 1_555
C18 N2 1_555 1_555
C19 N2 1_555 1_555
C20 C19 1_555 1_555
C21 I1 1_555 1_555
I2 C21 1_555 1_555
I3 C21 1_555 1_555
C22 I4 1_555 1_555
I5 C22 1_555 1_555
I6 C22 1_555 1_555
C9 C10 1_555 1_555

#END
