
#######################################################################
#
#                 Cambridge Crystallographic Data Centre
#                                CCDC 
#
#######################################################################
#
# If this CIF has been generated from an entry in the Cambridge 
# Structural Database, then it will include bibliographic, chemical, 
# crystal, experimental, refinement or atomic coordinate data resulting 
# from the CCDC's data processing and validation procedures.
#
#######################################################################

data_CIBFOI
_chemical_formula_moiety         'C18 H34 N2 2+,2(C1 H1 I3),2(I1 1-)'
_chemical_name_systematic        
'5-t-Butylphenylene-1,3-bis(methylenetrimethylammonium) di-iodide bis(tri-iodomethane)'
_symmetry_cell_setting           monoclinic
_symmetry_space_group_name_H-M   'C c'
_symmetry_Int_Tables_number      9
_space_group_name_Hall           'C -2yc'
loop_
_symmetry_equiv_pos_site_id
_symmetry_equiv_pos_as_xyz
1 x,y,z
2 1/2+x,1/2+y,z
3 x,-y,1/2+z
4 1/2+x,1/2-y,1/2+z
_cell_length_a                   13.535(6)
_cell_length_b                   16.425(3)
_cell_length_c                   16.100(2)
_cell_angle_alpha                90
_cell_angle_beta                 93.13(3)
_cell_angle_gamma                90
_cell_volume                     3573.89
_exptl_crystal_colour            'light yellow'
_chemical_melting_point          159-64deg.C
_cell_formula_units_Z            4
loop_
_atom_site_label
_atom_site_type_symbol
_atom_site_fract_x
_atom_site_fract_y
_atom_site_fract_z
N1 N 0.23650 0.07850 0.28980
N2 N 0.36440 0.38660 0.03680
C1 C 0.20620 0.20770 0.20740
C2 C 0.28900 0.24250 0.16830
C3 C 0.29580 0.32720 0.16840
C4 C 0.23000 0.37510 0.20850
C5 C 0.14860 0.34190 0.24610
C6 C 0.13800 0.25900 0.24240
C7 C 0.19540 0.11570 0.21130
C8 C 0.38230 0.36360 0.13070
C9 C 0.19160 0.10810 0.36440
C10 C 0.21930 -0.01320 0.27910
C11 C 0.34610 0.09450 0.29940
C12 C 0.45670 0.42760 0.01020
C13 C 0.27920 0.45110 0.02560
C14 C 0.33820 0.31140 -0.01710
C15 C 0.07400 0.39050 0.28850
C16 C -0.01730 0.40260 0.24000
C17 C 0.10780 0.47750 0.31430
C18 C 0.07140 0.37140 0.38310
C19 C -0.02050 0.19600 -0.00360
I1 I 0.00000 0.32086 0.00000
I2 I 0.12154 0.12833 -0.00868
I3 I -0.12012 0.15652 -0.10427
C20 C 0.68250 0.21330 0.16910
I4 I 0.56450 0.14762 0.10464
I5 I 0.73277 0.31847 0.09581
I6 I 0.64501 0.25686 0.28612
I7 I 0.35488 0.03170 0.02282
I8 I -0.09262 0.08765 0.23091
loop_
_geom_bond_atom_site_label_1
_geom_bond_atom_site_label_2
_geom_bond_site_symmetry_1
_geom_bond_site_symmetry_2
N1 C7 1_555 1_555
N2 C8 1_555 1_555
C1 C2 1_555 1_555
C2 C3 1_555 1_555
C3 C4 1_555 1_555
C4 C5 1_555 1_555
C5 C6 1_555 1_555
C6 C1 1_555 1_555
C7 C1 1_555 1_555
C8 C3 1_555 1_555
C9 N1 1_555 1_555
C10 N1 1_555 1_555
C11 N1 1_555 1_555
C12 N2 1_555 1_555
C13 N2 1_555 1_555
C14 N2 1_555 1_555
C15 C5 1_555 1_555
C16 C15 1_555 1_555
C17 C15 1_555 1_555
C18 C15 1_555 1_555
C19 I1 1_555 1_555
I2 C19 1_555 1_555
I3 C19 1_555 1_555
C20 I4 1_555 1_555
I5 C20 1_555 1_555
I6 C20 1_555 1_555

#END
