
#######################################################################
#
#                 Cambridge Crystallographic Data Centre
#                                CCDC 
#
#######################################################################
#
# If this CIF has been generated from an entry in the Cambridge 
# Structural Database, then it will include bibliographic, chemical, 
# crystal, experimental, refinement or atomic coordinate data resulting 
# from the CCDC's data processing and validation procedures.
#
#######################################################################

data_CIBHUS
_chemical_formula_moiety         'C17 H15 N1 O1'
_chemical_name_systematic        
3'-Phenyl-2',3'-dihydro-1'H-spiro[cyclopropane-1,4'-isoquinolin]-1'-one
_symmetry_cell_setting           monoclinic
_symmetry_space_group_name_H-M   'P 21/c'
_symmetry_Int_Tables_number      14
_space_group_name_Hall           '-P 2ybc'
loop_
_symmetry_equiv_pos_site_id
_symmetry_equiv_pos_as_xyz
1 x,y,z
2 -x,1/2+y,1/2-z
3 -x,-y,-z
4 x,1/2-y,1/2+z
_cell_length_a                   9.1485(6)
_cell_length_b                   13.8946(8)
_cell_length_c                   10.4647(7)
_cell_angle_alpha                90
_cell_angle_beta                 102.948(6)
_cell_angle_gamma                90
_cell_volume                     1296.4
_exptl_crystal_colour            colorless
_exptl_crystal_description       block
_cell_formula_units_Z            4
loop_
_atom_site_label
_atom_site_type_symbol
_atom_site_fract_x
_atom_site_fract_y
_atom_site_fract_z
O1 O 0.67360(14) -0.02217(8) 0.97541(12)
N1 N 0.54545(15) 0.11141(9) 0.89689(12)
H1 H 0.4796 0.0975 0.9411
C1 C 0.8947(2) 0.01382(14) 0.83635(17)
H2 H 0.8948 -0.0457 0.8771
C2 C 1.0061(2) 0.03574(17) 0.77229(19)
H3 H 1.0816 -0.0086 0.7697
C3 C 1.0050(2) 0.12316(19) 0.71247(19)
H4 H 1.0793 0.1377 0.6677
C4 C 0.8952(2) 0.19036(15) 0.71739(17)
H5 H 0.8972 0.2497 0.6768
C5 C 0.78147(19) 0.17042(12) 0.78227(14)
C6 C 0.78214(18) 0.07983(11) 0.84065(14)
C7 C 0.66319(18) 0.05256(11) 0.90972(15)
C8 C 0.51844(19) 0.19733(11) 0.81437(14)
H6 H 0.4694 0.2445 0.8605
C9 C 0.6670(2) 0.24119(11) 0.80216(15)
C10 C 0.7244(3) 0.32627(13) 0.8900(2)
H7 H 0.6647 0.3479 0.9503
H8 H 0.8320 0.3325 0.9222
C11 C 0.6620(2) 0.34096(12) 0.74671(19)
H9 H 0.7319 0.3564 0.6924
H10 H 0.5648 0.3718 0.7205
C12 C 0.41261(18) 0.17908(11) 0.68246(14)
C13 C 0.32263(19) 0.25390(12) 0.62167(16)
H11 H 0.3268 0.3130 0.6640
C14 C 0.2275(2) 0.24293(13) 0.50064(17)
H12 H 0.1694 0.2944 0.4615
C15 C 0.2187(2) 0.15554(13) 0.43779(17)
H13 H 0.1542 0.1475 0.3561
C16 C 0.3057(2) 0.08004(13) 0.49616(18)
H14 H 0.2995 0.0208 0.4540
C17 C 0.4025(2) 0.09182(12) 0.61737(17)
H15 H 0.4615 0.0404 0.6555
loop_
_geom_bond_atom_site_label_1
_geom_bond_atom_site_label_2
_geom_bond_site_symmetry_1
_geom_bond_site_symmetry_2
O1 C7 1_555 1_555
N1 H1 1_555 1_555
C1 H2 1_555 1_555
C2 C1 1_555 1_555
H3 C2 1_555 1_555
C3 C2 1_555 1_555
H4 C3 1_555 1_555
C4 C3 1_555 1_555
H5 C4 1_555 1_555
C5 C4 1_555 1_555
C6 C1 1_555 1_555
C7 N1 1_555 1_555
C8 N1 1_555 1_555
H6 C8 1_555 1_555
C9 C5 1_555 1_555
C10 C9 1_555 1_555
H7 C10 1_555 1_555
H8 C10 1_555 1_555
C11 C9 1_555 1_555
H9 C11 1_555 1_555
H10 C11 1_555 1_555
C12 C8 1_555 1_555
C13 C12 1_555 1_555
H11 C13 1_555 1_555
C14 C13 1_555 1_555
H12 C14 1_555 1_555
C15 C14 1_555 1_555
H13 C15 1_555 1_555
C16 C15 1_555 1_555
H14 C16 1_555 1_555
C17 C12 1_555 1_555
H15 C17 1_555 1_555
C5 C6 1_555 1_555
C6 C7 1_555 1_555
C8 C9 1_555 1_555
C10 C11 1_555 1_555
C16 C17 1_555 1_555

#END
