
#######################################################################
#
#                 Cambridge Crystallographic Data Centre
#                                CCDC 
#
#######################################################################
#
# If this CIF has been generated from an entry in the Cambridge 
# Structural Database, then it will include bibliographic, chemical, 
# crystal, experimental, refinement or atomic coordinate data resulting 
# from the CCDC's data processing and validation procedures.
#
#######################################################################

data_CIBLAD
_chemical_formula_moiety         'C27 H30 O4 Si2'
_chemical_name_systematic        
'ethyl 1,1-dimethyl-3-oxo-6,7-diphenyl-5-(trimethylsilyl)-1,3-dihydro-2,1-benzoxasilole-4-carboxylate'
_symmetry_cell_setting           monoclinic
_symmetry_space_group_name_H-M   'P 21/n'
_symmetry_Int_Tables_number      14
_space_group_name_Hall           '-P 2yn'
loop_
_symmetry_equiv_pos_site_id
_symmetry_equiv_pos_as_xyz
1 x,y,z
2 1/2-x,1/2+y,1/2-z
3 -x,-y,-z
4 1/2+x,1/2-y,1/2+z
_cell_length_a                   12.706(3)
_cell_length_b                   10.826(2)
_cell_length_c                   19.407(4)
_cell_angle_alpha                90
_cell_angle_beta                 91.50(3)
_cell_angle_gamma                90
_cell_volume                     2668.62
_exptl_crystal_colour            colorless
_exptl_crystal_description       Prism
_cell_formula_units_Z            4
loop_
_atom_site_label
_atom_site_type_symbol
_atom_site_fract_x
_atom_site_fract_y
_atom_site_fract_z
Si1 Si 0.43432(7) 0.47754(8) 0.10597(5)
Si2 Si 0.61426(9) 0.03870(10) 0.31302(6)
O1 O 0.7561(2) 0.0997(3) 0.16763(15)
O2 O 0.6126(2) 0.0331(2) 0.10892(13)
O3 O 0.6454(2) 0.2677(3) 0.04731(14)
O4 O 0.52316(18) 0.4141(2) 0.05276(11)
C1 C 0.4504(2) 0.3617(3) 0.24678(15)
C2 C 0.4964(2) 0.2682(3) 0.28774(15)
C3 C 0.5626(2) 0.1768(3) 0.25973(16)
C4 C 0.5880(2) 0.1895(3) 0.18993(16)
C5 C 0.5464(2) 0.2867(3) 0.15067(16)
C6 C 0.4753(2) 0.3701(3) 0.17715(16)
C7 C 0.3788(3) 0.4571(3) 0.27590(15)
C8 C 0.2716(3) 0.4461(4) 0.2685(2)
H1 H 0.2427 0.3782 0.2455
C9 C 0.2055(4) 0.5361(5) 0.2951(2)
H2 H 0.1329 0.5280 0.2897
C10 C 0.2461(5) 0.6346(5) 0.3286(2)
H3 H 0.2017 0.6938 0.3469
C11 C 0.3522(5) 0.6474(4) 0.3357(2)
H4 H 0.3801 0.7161 0.3583
C12 C 0.4192(3) 0.5591(3) 0.30954(19)
H5 H 0.4917 0.5689 0.3147
C13 C 0.4752(3) 0.2744(3) 0.36315(16)
C14 C 0.3786(3) 0.2465(3) 0.38890(19)
H6 H 0.3256 0.2167 0.3594
C15 C 0.3591(4) 0.2621(4) 0.4582(2)
H7 H 0.2933 0.2423 0.4751
C16 C 0.4360(5) 0.3062(4) 0.5017(2)
H8 H 0.4229 0.3166 0.5483
C17 C 0.5318(4) 0.3349(5) 0.4769(2)
H9 H 0.5845 0.3654 0.5064
C18 C 0.5508(3) 0.3190(4) 0.40825(19)
H10 H 0.6168 0.3391 0.3919
C19 C 0.5242(4) -0.0068(4) 0.3829(3)
H11 H 0.5455 -0.0854 0.4014
H12 H 0.4535 -0.0125 0.3646
H13 H 0.5272 0.0542 0.4188
C20 C 0.7461(4) 0.0772(5) 0.3492(3)
H14 H 0.7763 0.0055 0.3711
H15 H 0.7400 0.1422 0.3826
H16 H 0.7905 0.1040 0.3129
C21 C 0.6224(5) -0.1031(4) 0.2592(3)
H17 H 0.6867 -0.1021 0.2344
H18 H 0.5636 -0.1057 0.2272
H19 H 0.6212 -0.1747 0.2884
C22 C 0.6637(3) 0.1034(3) 0.15546(19)
C23 C 0.6794(4) -0.0442(5) 0.0660(3)
H20 H 0.7406 0.0031 0.0530
H21 H 0.7038 -0.1147 0.0927
C24 C 0.6281(6) -0.0848(7) 0.0081(3)
H22 H 0.5598 -0.1149 0.0198
H23 H 0.6677 -0.1503 -0.0122
H24 H 0.6205 -0.0180 -0.0241
C25 C 0.5780(3) 0.3170(3) 0.07901(17)
C26 C 0.3016(3) 0.4497(4) 0.06871(19)
H25 H 0.2914 0.4994 0.0281
H26 H 0.2499 0.4711 0.1018
H27 H 0.2944 0.3640 0.0568
C27 C 0.4601(3) 0.6419(3) 0.1218(2)
H28 H 0.5305 0.6521 0.1400
H29 H 0.4109 0.6729 0.1543
H30 H 0.4522 0.6868 0.0793
loop_
_geom_bond_atom_site_label_1
_geom_bond_atom_site_label_2
_geom_bond_site_symmetry_1
_geom_bond_site_symmetry_2
Si1 O4 1_555 1_555
Si2 C3 1_555 1_555
O1 C22 1_555 1_555
O2 C22 1_555 1_555
O3 C25 1_555 1_555
O4 C25 1_555 1_555
C1 C2 1_555 1_555
C2 C3 1_555 1_555
C3 C4 1_555 1_555
C4 C5 1_555 1_555
C5 C6 1_555 1_555
C6 Si1 1_555 1_555
C7 C1 1_555 1_555
C8 C7 1_555 1_555
H1 C8 1_555 1_555
C9 C8 1_555 1_555
H2 C9 1_555 1_555
C10 C9 1_555 1_555
H3 C10 1_555 1_555
C11 C10 1_555 1_555
H4 C11 1_555 1_555
C12 C7 1_555 1_555
H5 C12 1_555 1_555
C13 C2 1_555 1_555
C14 C13 1_555 1_555
H6 C14 1_555 1_555
C15 C14 1_555 1_555
H7 C15 1_555 1_555
C16 C15 1_555 1_555
H8 C16 1_555 1_555
C17 C16 1_555 1_555
H9 C17 1_555 1_555
C18 C13 1_555 1_555
H10 C18 1_555 1_555
C19 Si2 1_555 1_555
H11 C19 1_555 1_555
H12 C19 1_555 1_555
H13 C19 1_555 1_555
C20 Si2 1_555 1_555
H14 C20 1_555 1_555
H15 C20 1_555 1_555
H16 C20 1_555 1_555
C21 Si2 1_555 1_555
H17 C21 1_555 1_555
H18 C21 1_555 1_555
H19 C21 1_555 1_555
C22 C4 1_555 1_555
C23 O2 1_555 1_555
H20 C23 1_555 1_555
H21 C23 1_555 1_555
C24 C23 1_555 1_555
H22 C24 1_555 1_555
H23 C24 1_555 1_555
H24 C24 1_555 1_555
C25 C5 1_555 1_555
C26 Si1 1_555 1_555
H25 C26 1_555 1_555
H26 C26 1_555 1_555
H27 C26 1_555 1_555
C27 Si1 1_555 1_555
H28 C27 1_555 1_555
H29 C27 1_555 1_555
H30 C27 1_555 1_555
C1 C6 1_555 1_555
C11 C12 1_555 1_555
C17 C18 1_555 1_555

#END
