
#######################################################################
#
#                 Cambridge Crystallographic Data Centre
#                                CCDC 
#
#######################################################################
#
# If this CIF has been generated from an entry in the Cambridge 
# Structural Database, then it will include bibliographic, chemical, 
# crystal, experimental, refinement or atomic coordinate data resulting 
# from the CCDC's data processing and validation procedures.
#
#######################################################################

data_CIBQIN
_chemical_formula_moiety         'C15 H23 N3 O3'
_chemical_name_systematic        
N-Cyclohexyl-N'-(butylaminocarbonyl)squaramide
_symmetry_cell_setting           triclinic
_symmetry_space_group_name_H-M   'P -1'
_symmetry_Int_Tables_number      2
_space_group_name_Hall           '-P 1'
loop_
_symmetry_equiv_pos_site_id
_symmetry_equiv_pos_as_xyz
1 x,y,z
2 -x,-y,-z
_cell_length_a                   5.9800(4)
_cell_length_b                   9.5090(5)
_cell_length_c                   14.1543(8)
_cell_angle_alpha                89.694(6)
_cell_angle_beta                 81.471(5)
_cell_angle_gamma                87.322(5)
_cell_volume                     795.096
_cell_formula_units_Z            2
loop_
_atom_site_label
_atom_site_type_symbol
_atom_site_fract_x
_atom_site_fract_y
_atom_site_fract_z
O1 O 1.1109(5) 0.9916(3) 0.8368(2)
O2 O 1.1628(4) 1.0531(3) 0.6069(2)
O3 O 0.4513(4) 0.7506(3) 0.6646(2)
N1 N 0.6539(5) 0.8246(3) 0.8235(2)
N2 N 0.7290(5) 0.8858(3) 0.5880(2)
N3 N 0.4912(5) 0.7765(4) 0.5039(2)
C1 C 0.8014(5) 0.8885(4) 0.7628(2)
C2 C 1.0097(6) 0.9649(4) 0.7719(2)
C3 C 1.0317(6) 0.9921(4) 0.6668(2)
C4 C 0.8330(5) 0.9154(4) 0.6640(2)
C5 C 0.5456(6) 0.7997(4) 0.5904(2)
C6 C 0.3021(8) 0.6907(7) 0.4916(3)
C7 C 0.2970(9) 0.6561(6) 0.3909(3)
C8 C 0.0974(11) 0.5711(7) 0.3764(4)
C9 C 0.0685(15) 0.5364(10) 0.2822(5)
C10 C 0.6721(6) 0.8110(4) 0.9256(2)
C11 C 0.8314(7) 0.6898(4) 0.9440(3)
C12 C 0.8493(7) 0.6801(5) 1.0500(3)
C13 C 0.6187(7) 0.6661(5) 1.1093(3)
C14 C 0.4567(7) 0.7856(5) 1.0889(3)
C15 C 0.4406(6) 0.7966(5) 0.9828(3)
H1 H 0.5412(77) 0.7890(45) 0.8012(31)
H2 H 0.7908(63) 0.9146(38) 0.5297(29)
H3 H 0.5641(73) 0.8118(45) 0.4557(32)
H4 H 0.3056(59) 0.6054(39) 0.5335(27)
H5 H 0.1605(63) 0.7499(36) 0.5188(25)
H6 H 0.4436(66) 0.6144(37) 0.3619(26)
H7 H 0.3002(58) 0.7415(38) 0.3516(25)
H8 H 0.1083(57) 0.4777(37) 0.4195(25)
H9 H -0.0579(63) 0.6007(35) 0.4127(25)
H10 H -0.0667(60) 0.4735(36) 0.2793(24)
H11 H 0.0598(65) 0.6262(39) 0.2464(29)
H12 H 0.1993(61) 0.5381(38) 0.2271(27)
H13 H 0.7293(53) 0.8943(35) 0.9442(23)
H14 H 0.9745(67) 0.7005(37) 0.9082(27)
H15 H 0.7715(58) 0.5977(38) 0.9206(25)
H16 H 0.9157(64) 0.7617(44) 1.0685(28)
H17 H 0.9586(85) 0.6018(53) 1.0642(33)
H18 H 0.5494(83) 0.5827(53) 1.0971(34)
H19 H 0.6307(63) 0.6640(39) 1.1796(30)
H20 H 0.5199(68) 0.8744(44) 1.1122(29)
H21 H 0.3051(75) 0.7752(43) 1.1210(30)
H22 H 0.3774(62) 0.7135(41) 0.9622(26)
H23 H 0.3365(65) 0.8708(41) 0.9696(26)
loop_
_geom_bond_atom_site_label_1
_geom_bond_atom_site_label_2
_geom_bond_site_symmetry_1
_geom_bond_site_symmetry_2
O1 C2 1_555 1_555
O2 C3 1_555 1_555
O3 C5 1_555 1_555
N1 C1 1_555 1_555
N2 C4 1_555 1_555
N3 C5 1_555 1_555
C1 C2 1_555 1_555
C2 C3 1_555 1_555
C3 C4 1_555 1_555
C4 C1 1_555 1_555
C5 N2 1_555 1_555
C6 N3 1_555 1_555
C7 C6 1_555 1_555
C8 C7 1_555 1_555
C9 C8 1_555 1_555
C10 N1 1_555 1_555
C11 C10 1_555 1_555
C12 C11 1_555 1_555
C13 C12 1_555 1_555
C14 C13 1_555 1_555
C15 C10 1_555 1_555
H1 N1 1_555 1_555
H2 N2 1_555 1_555
H3 N3 1_555 1_555
H4 C6 1_555 1_555
H5 C6 1_555 1_555
H6 C7 1_555 1_555
H7 C7 1_555 1_555
H8 C8 1_555 1_555
H9 C8 1_555 1_555
H10 C9 1_555 1_555
H11 C9 1_555 1_555
H12 C9 1_555 1_555
H13 C10 1_555 1_555
H14 C11 1_555 1_555
H15 C11 1_555 1_555
H16 C12 1_555 1_555
H17 C12 1_555 1_555
H18 C13 1_555 1_555
H19 C13 1_555 1_555
H20 C14 1_555 1_555
H21 C14 1_555 1_555
H22 C15 1_555 1_555
H23 C15 1_555 1_555
C14 C15 1_555 1_555

#END
