
#######################################################################
#
#                 Cambridge Crystallographic Data Centre
#                                CCDC 
#
#######################################################################
#
# If this CIF has been generated from an entry in the Cambridge 
# Structural Database, then it will include bibliographic, chemical, 
# crystal, experimental, refinement or atomic coordinate data resulting 
# from the CCDC's data processing and validation procedures.
#
#######################################################################

data_CIBVUH
_chemical_formula_moiety         '2(C2 H5 N4 1+),C8 N12 O8 2-'
_chemical_name_systematic        
"bis(5-amino-4H-1,2,4-triazol-1-ium) 4,4'-((5,5'-bi(1,2,4-oxadiazole))-3,3'-diyl)bis(1,2,5-oxadiazol-3-nitramide)"
_symmetry_cell_setting           monoclinic
_symmetry_space_group_name_H-M   'P 21/c'
_symmetry_Int_Tables_number      14
_space_group_name_Hall           '-P 2ybc'
loop_
_symmetry_equiv_pos_site_id
_symmetry_equiv_pos_as_xyz
1 x,y,z
2 -x,1/2+y,1/2-z
3 -x,-y,-z
4 x,1/2-y,1/2+z
_cell_length_a                   11.9498(14)
_cell_length_b                   6.8573(9)
_cell_length_c                   13.2689(18)
_cell_angle_alpha                90
_cell_angle_beta                 102.775(5)
_cell_angle_gamma                90
_cell_volume                     1060.38
_exptl_crystal_description       block
_chemical_melting_point          '182.7 deg.C (dec.)'
_cell_formula_units_Z            2
_chemical_properties_physical    explosive
loop_
_atom_site_label
_atom_site_type_symbol
_atom_site_fract_x
_atom_site_fract_y
_atom_site_fract_z
C1 C 0.6161(2) 0.4838(4) 0.20654(19)
C2 C 0.5374(2) 0.4897(4) 0.0515(2)
C3 C 0.7287(2) 0.4654(4) 0.4011(2)
C4 C 0.6326(2) 0.5089(4) 0.3185(2)
N1 N 0.69203(19) 0.4015(4) 0.16335(16)
N2 N 0.51732(17) 0.5445(3) 0.13889(16)
N3 N 0.70354(18) 0.5162(3) 0.48889(16)
N4 N 0.55056(18) 0.5832(4) 0.35600(17)
N5 N 0.83066(17) 0.3960(4) 0.38216(16)
N6 N 0.90522(19) 0.3289(4) 0.46272(17)
O1 O 0.63876(15) 0.4050(3) 0.05744(13)
O2 O 0.59259(15) 0.5914(3) 0.46128(14)
O3 O 1.00179(15) 0.2768(3) 0.44633(14)
O4 O 0.88566(16) 0.3115(3) 0.55122(14)
C1B C 0.3839(2) 0.5162(4) -0.20654(19)
C2B C 0.4626(2) 0.5103(4) -0.0515(2)
C3B C 0.2713(2) 0.5346(4) -0.4011(2)
C4B C 0.3674(2) 0.4911(4) -0.3185(2)
N1B N 0.30797(19) 0.5985(4) -0.16335(16)
N2B N 0.48268(17) 0.4555(3) -0.13889(16)
N3B N 0.29646(18) 0.4838(3) -0.48889(16)
N4B N 0.44944(18) 0.4168(4) -0.35600(17)
N5B N 0.16934(17) 0.6040(4) -0.38216(16)
N6B N 0.09478(19) 0.6711(4) -0.46272(17)
O1B O 0.36124(15) 0.5950(3) -0.05744(13)
O2B O 0.40741(15) 0.4086(3) -0.46128(14)
O3B O -0.00179(15) 0.7232(3) -0.44633(14)
O4B O 0.11434(16) 0.6885(3) -0.55122(14)
C5 C 0.0873(2) 0.0698(4) 0.7163(2)
C6 C 0.2720(3) 0.0400(5) 0.7417(3)
H1 H 0.3493 0.0154 0.7761
N7 N 0.24162(19) 0.0894(4) 0.6458(2)
N8 N 0.12405(18) 0.1096(4) 0.63101(18)
H2 H 0.082(2) 0.152(4) 0.5692(18)
N9 N 0.1826(2) 0.0269(4) 0.78790(19)
H3 H 0.181(2) -0.003(4) 0.8525(19)
N10 N -0.0199(2) 0.0641(4) 0.7259(2)
H4 H -0.075(2) 0.111(5) 0.673(2)
H5 H -0.039(3) 0.069(5) 0.785(3)
loop_
_geom_bond_atom_site_label_1
_geom_bond_atom_site_label_2
_geom_bond_site_symmetry_1
_geom_bond_site_symmetry_2
C1 C4 1_555 1_555
C2 N2 1_555 1_555
C3 C4 1_555 1_555
C4 N4 1_555 1_555
N1 C1 1_555 1_555
N2 C1 1_555 1_555
N3 C3 1_555 1_555
N4 O2 1_555 1_555
N5 C3 1_555 1_555
N6 N5 1_555 1_555
O1 C2 1_555 1_555
O2 N3 1_555 1_555
O3 N6 1_555 1_555
O4 N6 1_555 1_555
C5 N8 1_555 1_555
C6 H1 1_555 1_555
N7 C6 1_555 1_555
N8 N7 1_555 1_555
H2 N8 1_555 1_555
N9 C5 1_555 1_555
H3 N9 1_555 1_555
N10 C5 1_555 1_555
H4 N10 1_555 1_555
H5 N10 1_555 1_555
C1B C4B 1_555 1_555
C2B C2 1_555 1_555
C3B C4B 1_555 1_555
C4B N4B 1_555 1_555
N1B C1B 1_555 1_555
N2B C1B 1_555 1_555
N3B C3B 1_555 1_555
N4B O2B 1_555 1_555
N5B C3B 1_555 1_555
N6B N5B 1_555 1_555
O1B C2B 1_555 1_555
O2B N3B 1_555 1_555
O3B N6B 1_555 1_555
O4B N6B 1_555 1_555
N1 O1 1_555 1_555
C6 N9 1_555 1_555
C2B N2B 1_555 1_555
N1B O1B 1_555 1_555

#END
