
#######################################################################
#
#                 Cambridge Crystallographic Data Centre
#                                CCDC 
#
#######################################################################
#
# If this CIF has been generated from an entry in the Cambridge 
# Structural Database, then it will include bibliographic, chemical, 
# crystal, experimental, refinement or atomic coordinate data resulting 
# from the CCDC's data processing and validation procedures.
#
#######################################################################

data_CIBYAP
_chemical_formula_moiety         'C27 H26 N2 O6'
_chemical_name_systematic        
'Dimethyl 2-(4-hydroxy-3-methoxyphenyl)-1,3-diphenyl-1,2,3,6-tetrahydropyrimidine-4,5-dicarboxylate'
_symmetry_cell_setting           monoclinic
_symmetry_space_group_name_H-M   'C 2/c'
_symmetry_Int_Tables_number      15
_space_group_name_Hall           '-C 2yn'
loop_
_symmetry_equiv_pos_site_id
_symmetry_equiv_pos_as_xyz
1 x,y,z
2 -x,y,1/2-z
3 1/2+x,1/2+y,z
4 1/2-x,1/2+y,1/2-z
5 -x,-y,-z
6 x,-y,1/2+z
7 1/2-x,1/2-y,-z
8 1/2+x,1/2-y,1/2+z
_cell_length_a                   21.750(6)
_cell_length_b                   9.476(3)
_cell_length_c                   24.315(7)
_cell_angle_alpha                90
_cell_angle_beta                 101.661(4)
_cell_angle_gamma                90
_cell_volume                     4907.96
_cell_formula_units_Z            8
loop_
_atom_site_label
_atom_site_type_symbol
_atom_site_fract_x
_atom_site_fract_y
_atom_site_fract_z
N1 N 0.09253(10) 0.7995(2) 0.12005(9)
O1 O 0.22253(10) 0.4646(2) 0.12778(9)
C1 C 0.07909(12) 0.8425(3) 0.01728(11)
O2 O 0.22885(10) 0.7873(2) 0.16992(9)
O3 O 0.23226(9) 0.9431(2) -0.01611(8)
N2 N 0.01645(10) 0.6652(2) 0.05512(9)
C2 C 0.14249(13) 0.8766(3) 0.02534(11)
H1 H 0.1667 0.8774 0.0615
O4 O 0.15836(10) 0.9377(3) -0.11983(9)
H2 H 0.1960 0.9540 -0.1101
C3 C 0.09039(12) 0.9062(3) 0.16087(11)
C4 C 0.13127(12) 0.6830(3) 0.12966(11)
O5 O 0.14994(9) 0.3536(2) 0.06419(9)
C5 C 0.04764(12) 0.8025(3) 0.06567(11)
H3 H 0.0156 0.8736 0.0680
C6 C 0.16986(13) 0.9092(3) -0.01927(12)
O6 O 0.19004(9) 0.6193(2) 0.21854(8)
C7 C 0.16993(15) 0.4619(3) 0.09900(12)
C8 C 0.06345(12) 0.5584(3) 0.04967(12)
H4 H 0.0753 0.5692 0.0135
H5 H 0.0451 0.4654 0.0507
C9 C 0.13405(14) 0.9090(3) -0.07396(12)
C10 C 0.12159(12) 0.5686(3) 0.09553(11)
C11 C 0.18919(14) 0.7024(3) 0.17499(12)
C12 C 0.04340(13) 0.8440(3) -0.03667(12)
H6 H 0.0009 0.8224 -0.0427
C13 C -0.02458(13) 0.6334(3) 0.09268(12)
C14 C 0.07033(14) 0.8772(3) -0.08152(12)
H7 H 0.0456 0.8784 -0.1175
C15 C 0.09262(13) 1.0465(3) 0.14594(13)
H8 H 0.0963 1.0707 0.1097
C16 C 0.08464(14) 0.8716(4) 0.21478(12)
H9 H 0.0822 0.7774 0.2249
C17 C -0.07526(15) 0.7219(4) 0.09403(17)
H10 H -0.0819 0.8007 0.0708
C18 C 0.08939(15) 1.1509(4) 0.18503(17)
H11 H 0.0905 1.2453 0.1748
C19 C 0.08464(17) 1.1163(5) 0.23849(18)
H12 H 0.0829 1.1869 0.2647
C20 C 0.08250(16) 0.9762(5) 0.25353(15)
H13 H 0.0796 0.9525 0.2900
C21 C 0.19620(16) 0.2468(3) 0.06050(17)
H14 H 0.2318 0.2896 0.0494
H15 H 0.1783 0.1773 0.0332
H16 H 0.2093 0.2024 0.0964
C22 C -0.11612(18) 0.6936(5) 0.1298(2)
H17 H -0.1489 0.7556 0.1313
C23 C -0.01764(19) 0.5161(4) 0.12688(18)
H18 H 0.0159 0.4550 0.1272
C24 C -0.1087(2) 0.5766(6) 0.1626(2)
H19 H -0.1364 0.5568 0.1860
C25 C 0.24870(17) 0.6231(5) 0.26051(16)
H20 H 0.2831 0.5991 0.2430
H21 H 0.2465 0.5566 0.2898
H22 H 0.2550 0.7163 0.2762
C26 C -0.0599(3) 0.4892(6) 0.1604(2)
H23 H -0.0550 0.4082 0.1824
C27 C 0.27407(13) 0.9289(3) 0.03702(12)
H24 H 0.2630 0.9962 0.0629
H25 H 0.3163 0.9460 0.0327
H26 H 0.2710 0.8352 0.0512
loop_
_geom_bond_atom_site_label_1
_geom_bond_atom_site_label_2
_geom_bond_site_symmetry_1
_geom_bond_site_symmetry_2
N1 C3 1_555 1_555
O1 C7 1_555 1_555
C1 C2 1_555 1_555
O2 C11 1_555 1_555
O3 C6 1_555 1_555
N2 C5 1_555 1_555
C2 H1 1_555 1_555
O4 H2 1_555 1_555
C3 C15 1_555 1_555
C4 N1 1_555 1_555
O5 C7 1_555 1_555
C5 N1 1_555 1_555
H3 C5 1_555 1_555
C6 C2 1_555 1_555
O6 C11 1_555 1_555
C7 C10 1_555 1_555
C8 N2 1_555 1_555
H4 C8 1_555 1_555
H5 C8 1_555 1_555
C9 O4 1_555 1_555
C10 C4 1_555 1_555
C11 C4 1_555 1_555
C12 C1 1_555 1_555
H6 C12 1_555 1_555
C13 N2 1_555 1_555
C14 C9 1_555 1_555
H7 C14 1_555 1_555
C15 H8 1_555 1_555
C16 C3 1_555 1_555
H9 C16 1_555 1_555
C17 C13 1_555 1_555
H10 C17 1_555 1_555
C18 C15 1_555 1_555
H11 C18 1_555 1_555
C19 C18 1_555 1_555
H12 C19 1_555 1_555
C20 C16 1_555 1_555
H13 C20 1_555 1_555
C21 O5 1_555 1_555
H14 C21 1_555 1_555
H15 C21 1_555 1_555
H16 C21 1_555 1_555
C22 C17 1_555 1_555
H17 C22 1_555 1_555
C23 C13 1_555 1_555
H18 C23 1_555 1_555
C24 C22 1_555 1_555
H19 C24 1_555 1_555
C25 O6 1_555 1_555
H20 C25 1_555 1_555
H21 C25 1_555 1_555
H22 C25 1_555 1_555
C26 C23 1_555 1_555
H23 C26 1_555 1_555
C27 O3 1_555 1_555
H24 C27 1_555 1_555
H25 C27 1_555 1_555
H26 C27 1_555 1_555
C1 C5 1_555 1_555
C6 C9 1_555 1_555
C8 C10 1_555 1_555
C12 C14 1_555 1_555
C19 C20 1_555 1_555
C24 C26 1_555 1_555

#END
