
#######################################################################
#
#                 Cambridge Crystallographic Data Centre
#                                CCDC 
#
#######################################################################
#
# If this CIF has been generated from an entry in the Cambridge 
# Structural Database, then it will include bibliographic, chemical, 
# crystal, experimental, refinement or atomic coordinate data resulting 
# from the CCDC's data processing and validation procedures.
#
#######################################################################

data_CIBZAR
_chemical_formula_moiety         'C60,C6 F3 I3'
_chemical_name_systematic        
'C60fullerene 1,3,5-trifluoro-2,4,6-triiodobenzene'
_symmetry_cell_setting           monoclinic
_symmetry_space_group_name_H-M   'P 21/c'
_symmetry_Int_Tables_number      14
_space_group_name_Hall           '-P 2ybc'
loop_
_symmetry_equiv_pos_site_id
_symmetry_equiv_pos_as_xyz
1 x,y,z
2 -x,1/2+y,1/2-z
3 -x,-y,-z
4 x,1/2-y,1/2+z
_cell_length_a                   17.7067(5)
_cell_length_b                   30.8410(7)
_cell_length_c                   14.4506(3)
_cell_angle_alpha                90
_cell_angle_beta                 111.705(3)
_cell_angle_gamma                90
_cell_volume                     7331.87
_exptl_crystal_colour            'dull dark black'
_exptl_crystal_description       block
_cell_formula_units_Z            8
_exptl_crystal_recrystallization_method toluene
loop_
_atom_site_label
_atom_site_type_symbol
_atom_site_fract_x
_atom_site_fract_y
_atom_site_fract_z
C1 C 0.6675(10) 0.9290(6) 0.4269(12)
C2 C 0.6416(9) 0.8924(5) 0.3688(11)
C3 C 0.6882(9) 0.8542(5) 0.3908(11)
C4 C 0.7621(8) 0.8546(4) 0.4711(10)
C5 C 0.7874(8) 0.8932(4) 0.5318(10)
C6 C 0.7428(9) 0.9296(5) 0.5137(11)
C7 C 0.6036(11) 0.9540(6) 0.4535(14)
C8 C 0.5284(10) 0.9384(6) 0.4118(12)
C9 C 0.5033(14) 0.8994(8) 0.3549(17)
C10 C 0.5520(12) 0.8772(7) 0.3329(15)
C11 C 0.5544(10) 0.8282(5) 0.3390(12)
C12 C 0.6402(10) 0.8146(5) 0.3760(12)
C13 C 0.6690(10) 0.7795(5) 0.4453(12)
C14 C 0.7437(11) 0.7819(6) 0.5314(13)
C15 C 0.7905(10) 0.8160(6) 0.5485(13)
C16 C 0.8295(7) 0.8341(4) 0.6493(9)
C17 C 0.8289(8) 0.8795(4) 0.6400(10)
C18 C 0.8144(9) 0.9064(5) 0.7092(11)
C19 C 0.7617(12) 0.9432(7) 0.6812(15)
C20 C 0.7253(12) 0.9546(7) 0.5888(15)
C21 C 0.6398(12) 0.9697(6) 0.5548(14)
C22 C 0.5938(11) 0.9702(6) 0.6087(14)
C23 C 0.5048(10) 0.9525(5) 0.5671(12)
C24 C 0.4779(10) 0.9391(6) 0.4724(12)
C25 C 0.4286(10) 0.9013(5) 0.4548(12)
C26 C 0.4414(9) 0.8726(5) 0.3807(11)
C27 C 0.4406(10) 0.8301(5) 0.3920(12)
C28 C 0.5027(9) 0.8043(5) 0.3698(12)
C29 C 0.5309(9) 0.7704(5) 0.4327(12)
C30 C 0.6095(11) 0.7571(6) 0.4729(13)
C31 C 0.6433(12) 0.7449(7) 0.5762(15)
C32 C 0.7361(10) 0.7630(6) 0.6161(13)
C33 C 0.7658(10) 0.7779(6) 0.7126(13)
C34 C 0.8155(9) 0.8147(5) 0.7300(11)
C35 C 0.8008(9) 0.8440(5) 0.8022(12)
C36 C 0.8017(10) 0.8860(6) 0.7896(13)
C37 C 0.7379(11) 0.9114(6) 0.8150(13)
C38 C 0.7121(9) 0.9462(5) 0.7508(11)
C39 C 0.6309(10) 0.9581(5) 0.7132(12)
C40 C 0.5736(9) 0.9354(5) 0.7432(11)
C41 C 0.4977(10) 0.9335(5) 0.6541(12)
C42 C 0.4535(10) 0.8980(6) 0.6411(12)
C43 C 0.4148(7) 0.8823(4) 0.5357(9)
C44 C 0.4140(8) 0.8371(4) 0.5430(9)
C45 C 0.4273(9) 0.8107(5) 0.4735(10)
C46 C 0.4781(12) 0.7732(6) 0.5010(14)
C47 C 0.5166(11) 0.7614(6) 0.5944(14)
C48 C 0.6021(12) 0.7469(7) 0.6310(15)
C49 C 0.6386(11) 0.7630(6) 0.7307(14)
C50 C 0.7156(10) 0.7782(5) 0.7713(12)
C51 C 0.7358(13) 0.8167(7) 0.8295(16)
C52 C 0.6851(12) 0.8393(7) 0.8510(15)
C53 C 0.6864(10) 0.8895(6) 0.8438(13)
C54 C 0.6020(10) 0.9012(5) 0.8085(12)
C55 C 0.5536(9) 0.8615(5) 0.7920(11)
C56 C 0.4806(8) 0.8614(4) 0.7121(10)
C57 C 0.4549(8) 0.8236(4) 0.6516(10)
C58 C 0.5001(9) 0.7874(5) 0.6693(11)
C59 C 0.5759(10) 0.7879(5) 0.7561(12)
C60 C 0.6004(10) 0.8251(5) 0.8151(12)
C61 C 0.1720(9) 0.9047(5) 0.1663(11)
C62 C 0.1812(9) 0.9411(5) 0.2324(10)
C63 C 0.1194(8) 0.9716(4) 0.2088(10)
C64 C 0.0453(9) 0.9673(5) 0.1200(11)
C65 C 0.0367(10) 0.9333(5) 0.0582(12)
C66 C 0.1026(9) 0.9011(5) 0.0809(11)
C67 C 0.0628(10) 0.8604(5) 0.0512(12)
C68 C 0.0955(9) 0.8227(5) 0.1072(11)
C69 C 0.1688(8) 0.8269(5) 0.1948(10)
C70 C 0.2045(8) 0.8661(4) 0.2222(10)
C71 C 0.2362(9) 0.8796(5) 0.3271(11)
C72 C 0.2203(9) 0.9269(5) 0.3343(11)
C73 C 0.1981(9) 0.9425(5) 0.4076(11)
C74 C 0.1344(9) 0.9742(5) 0.3838(11)
C75 C 0.0954(9) 0.9889(5) 0.2868(11)
C76 C 0.0063(9) 0.9942(5) 0.2474(11)
C77 C -0.0247(8) 0.9808(4) 0.1456(10)
C78 C -0.0985(8) 0.9597(4) 0.1082(10)
C79 C -0.1078(8) 0.9233(4) 0.0416(10)
C80 C -0.0409(8) 0.9106(4) 0.0180(10)
C81 C -0.0227(9) 0.8659(5) 0.0131(11)
C82 C -0.0705(10) 0.8343(5) 0.0326(12)
C83 C -0.0382(11) 0.7954(6) 0.0940(13)
C84 C 0.0436(11) 0.7901(6) 0.1275(13)
C85 C 0.0857(9) 0.7742(5) 0.2323(11)
C86 C 0.1622(8) 0.7968(4) 0.2697(10)
C87 C 0.1943(7) 0.8094(4) 0.3706(9)
C88 C 0.2304(9) 0.8520(5) 0.3971(11)
C89 C 0.2093(8) 0.8699(4) 0.4790(10)
C90 C 0.1928(8) 0.9128(5) 0.4836(10)
C91 C 0.1245(8) 0.9265(5) 0.5096(10)
C92 C 0.0905(10) 0.9645(5) 0.4481(12)
C93 C 0.0079(9) 0.9704(5) 0.4120(11)
C94 C -0.0342(8) 0.9858(4) 0.3099(9)
C95 C -0.1109(8) 0.9639(4) 0.2719(9)
C96 C -0.1440(7) 0.9506(4) 0.1725(9)
C97 C -0.1806(9) 0.9085(5) 0.1436(11)
C98 C -0.1572(9) 0.8906(5) 0.0627(10)
C99 C -0.1397(10) 0.8470(5) 0.0575(12)
C100 C -0.1470(10) 0.8181(5) 0.1336(12)
C101 C -0.0821(10) 0.7866(6) 0.1571(13)
C102 C -0.0453(10) 0.7721(5) 0.2542(12)
C103 C 0.0436(9) 0.7666(5) 0.2936(11)
C104 C 0.0754(8) 0.7792(4) 0.3949(10)
C105 C 0.1505(8) 0.8012(4) 0.4337(9)
C106 C 0.1595(8) 0.8373(4) 0.5001(9)
C107 C 0.0940(8) 0.8498(4) 0.5245(9)
C108 C 0.0760(8) 0.8948(4) 0.5295(10)
C109 C -0.0118(8) 0.9006(5) 0.4904(10)
C110 C -0.0450(8) 0.9374(5) 0.4343(10)
C111 C -0.1153(7) 0.9353(4) 0.3494(9)
C112 C -0.1541(8) 0.8952(4) 0.3186(10)
C113 C -0.1867(9) 0.8820(5) 0.2145(12)
C114 C -0.1695(9) 0.8343(5) 0.2061(11)
C115 C -0.1303(9) 0.8204(5) 0.3086(11)
C116 C -0.0688(9) 0.7899(5) 0.3313(11)
C117 C 0.0057(9) 0.7934(5) 0.4199(11)
C118 C 0.0139(10) 0.8264(5) 0.4827(12)
C119 C -0.0501(9) 0.8596(5) 0.4603(10)
C120 C -0.1205(8) 0.8566(4) 0.3750(10)
I1 I 0.67138(5) 0.48184(3) 0.45975(7)
I2 I 0.67322(5) 0.28861(3) 0.39208(6)
I3 I 0.95005(4) 0.37228(3) 0.72226(5)
F1 F 0.6202(4) 0.3877(2) 0.3697(4)
F2 F 0.8369(4) 0.30282(19) 0.5756(5)
F3 F 0.8319(4) 0.45181(19) 0.6348(5)
C121 C 0.7258(6) 0.4211(3) 0.5009(8)
C122 C 0.6908(6) 0.3839(3) 0.4471(7)
C123 C 0.7265(6) 0.3438(3) 0.4721(7)
C124 C 0.8001(6) 0.3415(3) 0.5521(7)
C125 C 0.8364(6) 0.3772(3) 0.6073(7)
C126 C 0.7974(6) 0.4167(3) 0.5812(7)
I4 I 0.30386(4) 0.70469(2) 0.29774(5)
I5 I 0.31649(5) 0.51308(2) 0.22468(5)
I6 I 0.58404(5) 0.59756(3) 0.56688(5)
F4 F 0.2556(4) 0.6100(2) 0.2119(4)
F5 F 0.4776(4) 0.52783(19) 0.4124(5)
F6 F 0.4644(4) 0.67608(19) 0.4751(5)
C127 C 0.3593(6) 0.6447(3) 0.3416(7)
C128 C 0.3264(6) 0.6074(3) 0.2889(7)
C129 C 0.3642(6) 0.5675(3) 0.3111(7)
C130 C 0.4382(6) 0.5657(3) 0.3916(7)
C131 C 0.4721(6) 0.6014(3) 0.4485(7)
C132 C 0.4322(6) 0.6406(3) 0.4228(7)
loop_
_geom_bond_atom_site_label_1
_geom_bond_atom_site_label_2
_geom_bond_site_symmetry_1
_geom_bond_site_symmetry_2
C1 C2 1_555 1_555
C2 C3 1_555 1_555
C3 C4 1_555 1_555
C4 C5 1_555 1_555
C5 C6 1_555 1_555
C6 C1 1_555 1_555
C7 C1 1_555 1_555
C8 C7 1_555 1_555
C9 C8 1_555 1_555
C10 C2 1_555 1_555
C11 C10 1_555 1_555
C12 C3 1_555 1_555
C13 C12 1_555 1_555
C14 C13 1_555 1_555
C15 C4 1_555 1_555
C16 C15 1_555 1_555
C17 C5 1_555 1_555
C18 C17 1_555 1_555
C19 C18 1_555 1_555
C20 C6 1_555 1_555
C21 C7 1_555 1_555
C22 C21 1_555 1_555
C23 C22 1_555 1_555
C24 C8 1_555 1_555
C25 C24 1_555 1_555
C26 C9 1_555 1_555
C27 C26 1_555 1_555
C28 C11 1_555 1_555
C29 C28 1_555 1_555
C30 C13 1_555 1_555
C31 C30 1_555 1_555
C32 C14 1_555 1_555
C33 C32 1_555 1_555
C34 C16 1_555 1_555
C35 C34 1_555 1_555
C36 C18 1_555 1_555
C37 C36 1_555 1_555
C38 C19 1_555 1_555
C39 C22 1_555 1_555
C40 C39 1_555 1_555
C41 C23 1_555 1_555
C42 C41 1_555 1_555
C43 C25 1_555 1_555
C44 C43 1_555 1_555
C45 C27 1_555 1_555
C46 C29 1_555 1_555
C47 C46 1_555 1_555
C48 C31 1_555 1_555
C49 C48 1_555 1_555
C50 C33 1_555 1_555
C51 C35 1_555 1_555
C52 C51 1_555 1_555
C53 C37 1_555 1_555
C54 C40 1_555 1_555
C55 C54 1_555 1_555
C56 C42 1_555 1_555
C57 C44 1_555 1_555
C58 C47 1_555 1_555
C59 C49 1_555 1_555
C60 C52 1_555 1_555
C61 C62 1_555 1_555
C62 C63 1_555 1_555
C63 C64 1_555 1_555
C64 C65 1_555 1_555
C65 C66 1_555 1_555
C66 C61 1_555 1_555
C67 C66 1_555 1_555
C68 C67 1_555 1_555
C69 C68 1_555 1_555
C70 C61 1_555 1_555
C71 C70 1_555 1_555
C72 C62 1_555 1_555
C73 C72 1_555 1_555
C74 C73 1_555 1_555
C75 C63 1_555 1_555
C76 C75 1_555 1_555
C77 C64 1_555 1_555
C78 C77 1_555 1_555
C79 C78 1_555 1_555
C80 C65 1_555 1_555
C81 C67 1_555 1_555
C82 C81 1_555 1_555
C83 C82 1_555 1_555
C84 C68 1_555 1_555
C85 C84 1_555 1_555
C86 C69 1_555 1_555
C87 C86 1_555 1_555
C88 C71 1_555 1_555
C89 C88 1_555 1_555
C90 C73 1_555 1_555
C91 C90 1_555 1_555
C92 C74 1_555 1_555
C93 C92 1_555 1_555
C94 C76 1_555 1_555
C95 C94 1_555 1_555
C96 C78 1_555 1_555
C97 C96 1_555 1_555
C98 C79 1_555 1_555
C99 C82 1_555 1_555
C100 C99 1_555 1_555
C101 C83 1_555 1_555
C102 C101 1_555 1_555
C103 C85 1_555 1_555
C104 C103 1_555 1_555
C105 C87 1_555 1_555
C106 C89 1_555 1_555
C107 C106 1_555 1_555
C108 C91 1_555 1_555
C109 C108 1_555 1_555
C110 C93 1_555 1_555
C111 C95 1_555 1_555
C112 C111 1_555 1_555
C113 C97 1_555 1_555
C114 C100 1_555 1_555
C115 C114 1_555 1_555
C116 C102 1_555 1_555
C117 C104 1_555 1_555
C118 C107 1_555 1_555
C119 C109 1_555 1_555
C120 C112 1_555 1_555
I1 C121 1_555 1_555
I2 C123 1_555 1_555
I3 C125 1_555 1_555
F1 C122 1_555 1_555
F2 C124 1_555 1_555
F3 C126 1_555 1_555
C121 C122 1_555 1_555
C122 C123 1_555 1_555
C123 C124 1_555 1_555
C124 C125 1_555 1_555
C125 C126 1_555 1_555
C126 C121 1_555 1_555
I4 C127 1_555 1_555
I5 C129 1_555 1_555
I6 C131 1_555 1_555
F4 C128 1_555 1_555
F5 C130 1_555 1_555
F6 C132 1_555 1_555
C127 C128 1_555 1_555
C128 C129 1_555 1_555
C129 C130 1_555 1_555
C130 C131 1_555 1_555
C131 C132 1_555 1_555
C132 C127 1_555 1_555
C9 C10 1_555 1_555
C11 C12 1_555 1_555
C14 C15 1_555 1_555
C16 C17 1_555 1_555
C19 C20 1_555 1_555
C20 C21 1_555 1_555
C23 C24 1_555 1_555
C25 C26 1_555 1_555
C27 C28 1_555 1_555
C29 C30 1_555 1_555
C31 C32 1_555 1_555
C33 C34 1_555 1_555
C35 C36 1_555 1_555
C37 C38 1_555 1_555
C38 C39 1_555 1_555
C40 C41 1_555 1_555
C42 C43 1_555 1_555
C44 C45 1_555 1_555
C45 C46 1_555 1_555
C47 C48 1_555 1_555
C49 C50 1_555 1_555
C50 C51 1_555 1_555
C52 C53 1_555 1_555
C53 C54 1_555 1_555
C55 C56 1_555 1_555
C55 C60 1_555 1_555
C56 C57 1_555 1_555
C57 C58 1_555 1_555
C58 C59 1_555 1_555
C59 C60 1_555 1_555
C69 C70 1_555 1_555
C71 C72 1_555 1_555
C74 C75 1_555 1_555
C76 C77 1_555 1_555
C79 C80 1_555 1_555
C80 C81 1_555 1_555
C83 C84 1_555 1_555
C85 C86 1_555 1_555
C87 C88 1_555 1_555
C89 C90 1_555 1_555
C91 C92 1_555 1_555
C93 C94 1_555 1_555
C95 C96 1_555 1_555
C97 C98 1_555 1_555
C98 C99 1_555 1_555
C100 C101 1_555 1_555
C102 C103 1_555 1_555
C104 C105 1_555 1_555
C105 C106 1_555 1_555
C107 C108 1_555 1_555
C109 C110 1_555 1_555
C110 C111 1_555 1_555
C112 C113 1_555 1_555
C113 C114 1_555 1_555
C115 C116 1_555 1_555
C115 C120 1_555 1_555
C116 C117 1_555 1_555
C117 C118 1_555 1_555
C118 C119 1_555 1_555
C119 C120 1_555 1_555

#END
