
#######################################################################
#
#                 Cambridge Crystallographic Data Centre
#                                CCDC 
#
#######################################################################
#
# If this CIF has been generated from an entry in the Cambridge 
# Structural Database, then it will include bibliographic, chemical, 
# crystal, experimental, refinement or atomic coordinate data resulting 
# from the CCDC's data processing and validation procedures.
#
#######################################################################

data_CIBZAR01
_chemical_formula_moiety         'C60,C6 F3 I3'
_chemical_name_systematic        
'C60fullerene 1,3,5-trifluoro-2,4,6-triiodobenzene'
_symmetry_cell_setting           monoclinic
_symmetry_space_group_name_H-M   'P 21/c'
_symmetry_Int_Tables_number      14
_space_group_name_Hall           '-P 2ybc'
loop_
_symmetry_equiv_pos_site_id
_symmetry_equiv_pos_as_xyz
1 x,y,z
2 -x,1/2+y,1/2-z
3 -x,-y,-z
4 x,1/2-y,1/2+z
_cell_length_a                   17.8420(4)
_cell_length_b                   31.2793(5)
_cell_length_c                   14.5650(3)
_cell_angle_alpha                90
_cell_angle_beta                 111.619(3)
_cell_angle_gamma                90
_cell_volume                     7556.71
_exptl_crystal_colour            'dark black'
_exptl_crystal_description       block
_cell_formula_units_Z            8
_exptl_crystal_recrystallization_method toluene
loop_
_atom_site_label
_atom_site_type_symbol
_atom_site_fract_x
_atom_site_fract_y
_atom_site_fract_z
I4 I 0.30515(3) 0.79851(2) 0.78701(4)
I5 I 0.32746(5) 0.98744(2) 0.73541(5)
I6 I 0.58598(4) 0.89632(3) 1.06818(5)
F4 F 0.2635(3) 0.89313(16) 0.7127(3)
F5 F 0.4849(3) 0.96895(14) 0.9234(3)
F6 F 0.4635(3) 0.82194(13) 0.9664(3)
C7 C 0.3622(3) 0.85659(17) 0.8376(4)
C8 C 0.3342(4) 0.8939(2) 0.7905(4)
C9 C 0.3722(4) 0.93227(18) 0.8165(4)
C10 C 0.4436(4) 0.93231(18) 0.8962(4)
C11 C 0.4768(3) 0.8956(2) 0.9496(4)
C12 C 0.4340(3) 0.85803(19) 0.9182(4)
C13 C 0.8164(9) 0.6641(5) 0.2771(11)
C14 C 0.7459(11) 0.6922(6) 0.3133(13)
C15 C 0.5530(13) 0.6817(8) 0.2683(16)
C16 C 0.6171(12) 0.7207(6) 0.2573(14)
C17 C 0.4597(9) 0.5934(5) 0.1318(11)
C18 C 0.6587(9) 0.6048(5) 0.3300(11)
C19 C 0.6156(10) 0.6218(6) 0.3238(12)
C20 C 0.7488(10) 0.6671(6) 0.3375(12)
C21 C 0.6427(10) 0.5782(5) 0.2953(11)
C22 C 0.7034(10) 0.5912(6) 0.3232(12)
C23 C 0.5763(11) 0.5564(6) 0.2174(13)
C24 C 0.5612(10) 0.5350(5) 0.0605(12)
C25 C 0.7932(9) 0.5731(5) 0.1869(11)
C26 C 0.7769(11) 0.5739(6) 0.2505(13)
C27 C 0.7522(11) 0.7123(6) 0.0261(14)
C28 C 0.8291(11) 0.6691(6) 0.2229(13)
C29 C 0.5045(13) 0.7338(7) -0.0070(15)
C30 C 0.4734(10) 0.6195(5) -0.1437(12)
C31 C 0.5736(10) 0.7354(5) 0.1898(12)
C32 C 0.7133(12) 0.7430(6) 0.1741(14)
C33 C 0.7712(10) 0.7012(5) 0.2724(12)
C34 C 0.6902(7) 0.7361(4) 0.2252(9)
C35 C 0.4859(12) 0.7123(7) -0.0817(15)
C36 C 0.6102(11) 0.5984(6) -0.1444(13)
C37 C 0.6588(10) 0.5457(6) -0.0230(13)
C38 C 0.8297(10) 0.6164(6) 0.2194(12)
C39 C 0.7555(10) 0.6956(5) -0.0092(12)
C40 C 0.7410(9) 0.5802(5) 0.2987(11)
C41 C 0.7200(9) 0.7172(5) 0.2768(10)
C42 C 0.5545(11) 0.5957(6) -0.1502(13)
C43 C 0.5687(11) 0.5355(6) 0.1211(14)
C44 C 0.6131(10) 0.5288(5) 0.0652(12)
C45 C 0.6554(11) 0.7542(6) 0.0678(13)
C46 C 0.4776(10) 0.6925(6) -0.1215(12)
C47 C 0.5223(11) 0.5815(6) -0.1285(14)
C48 C 0.6008(11) 0.5407(6) 0.1874(13)
C49 C 0.8117(9) 0.5934(5) 0.2331(11)
C50 C 0.8276(11) 0.6399(7) 0.2556(14)
C51 C 0.7884(10) 0.7156(6) 0.1583(12)
C52 C 0.7881(10) 0.5723(6) 0.1225(12)
C53 C 0.8044(8) 0.6870(5) 0.2553(10)
C54 C 0.7089(9) 0.6765(5) 0.3377(11)
C55 C 0.7897(9) 0.6942(5) 0.0574(11)
C56 C 0.7870(9) 0.6777(5) 0.2988(11)
C57 C 0.7472(9) 0.5521(5) 0.0893(11)
C58 C 0.4538(10) 0.5783(6) -0.0404(13)
C59 C 0.7340(10) 0.7320(5) 0.0637(12)
C60 C 0.8098(10) 0.6942(6) 0.1299(13)
C61 C 0.4825(12) 0.7083(7) 0.1382(15)
C62 C 0.7749(13) 0.7161(7) 0.0867(16)
C63 C 0.5737(11) 0.7519(6) 0.0864(12)
C64 C 0.5601(10) 0.5627(5) -0.0971(12)
C65 C 0.4761(10) 0.5957(6) -0.1292(12)
C66 C 0.7822(10) 0.6204(6) 0.3149(12)
C67 C 0.4632(11) 0.5849(6) -0.0873(13)
C68 C 0.5350(8) 0.5716(4) 0.2070(9)
C69 C 0.7481(9) 0.6024(5) 0.3241(11)
C70 C 0.6332(10) 0.5541(5) 0.2446(11)
C71 C 0.8386(10) 0.6441(6) 0.1914(13)
C72 C 0.6882(11) 0.7433(6) 0.0359(13)
C73 C 0.7156(13) 0.7265(7) 0.0069(15)
C74 C 0.7103(8) 0.6494(5) 0.3490(10)
C75 C 0.5154(9) 0.6067(5) -0.1578(10)
C76 C 0.5236(9) 0.7203(5) 0.1739(11)
C77 C 0.4266(10) 0.6823(5) 0.0324(12)
C78 C 0.6672(11) 0.7521(6) 0.1274(13)
C79 C 0.6919(10) 0.5681(6) 0.2872(12)
C80 C 0.6529(9) 0.7490(5) 0.1772(11)
C81 C 0.6707(10) 0.5327(5) 0.1496(13)
C82 C 0.4488(10) 0.6879(6) 0.1063(12)
C83 C 0.7554(11) 0.5566(6) 0.1997(14)
C84 C 0.6262(11) 0.5610(6) -0.0848(13)
C85 C 0.8171(8) 0.6738(5) 0.0928(10)
C86 C 0.7569(11) 0.6189(6) -0.0325(13)
C87 C 0.7298(9) 0.5718(5) -0.0169(11)
C88 C 0.5387(12) 0.5424(6) -0.0046(15)
C89 C 0.6202(10) 0.7556(5) 0.1058(12)
C90 C 0.6610(11) 0.6739(6) -0.1237(13)
C91 C 0.4507(11) 0.5833(6) 0.0727(13)
C92 C 0.5579(12) 0.7456(6) 0.0152(14)
C93 C 0.4962(12) 0.6681(7) 0.2131(15)
C94 C 0.4700(12) 0.7158(6) -0.0321(14)
C95 C 0.5637(8) 0.7189(5) 0.2290(10)
C96 C 0.7865(10) 0.6551(6) 0.3155(12)
C97 C 0.7531(9) 0.7299(5) 0.1766(11)
C98 C 0.8161(12) 0.5969(7) 0.1169(15)
C99 C 0.8102(12) 0.6486(7) 0.0565(14)
C100 C 0.4399(11) 0.6422(6) 0.1260(14)
C101 C 0.5596(11) 0.6178(6) -0.1669(13)
C102 C 0.4216(12) 0.6296(7) -0.0860(14)
C103 C 0.6726(9) 0.7006(5) -0.0919(11)
C104 C 0.4387(11) 0.6121(6) 0.0994(14)
C105 C 0.6028(8) 0.6767(5) 0.3083(10)
C106 C 0.4626(8) 0.6158(5) 0.1664(10)
C107 C 0.4830(15) 0.6492(8) -0.1579(17)
C108 C 0.6620(9) 0.5306(5) 0.0887(12)
C109 C 0.6318(9) 0.7382(5) 0.2168(10)
C110 C 0.6099(12) 0.7351(6) -0.0593(14)
C111 C 0.7462(13) 0.6371(7) 0.3429(15)
C112 C 0.5661(8) 0.6564(5) 0.2951(10)
C113 C 0.8111(9) 0.6402(5) 0.2971(11)
C114 C 0.6249(13) 0.6288(7) -0.1518(16)
C115 C 0.7226(13) 0.6810(7) -0.0648(16)
C116 C 0.7615(10) 0.6706(6) -0.0315(12)
C117 C 0.7100(10) 0.5432(6) 0.1992(13)
C118 C 0.5194(10) 0.6440(6) 0.2537(12)
C119 C 0.5532(13) 0.5914(7) 0.2580(15)
C120 C 0.4580(13) 0.7063(7) 0.0531(16)
C121 C 0.4919(9) 0.5718(5) 0.1459(11)
C122 C 0.5006(10) 0.7287(6) 0.0959(13)
C123 C 0.6247(8) 0.6926(4) -0.1279(9)
C124 C 0.6657(10) 0.7299(5) -0.0346(12)
C125 C 0.6740(10) 0.6327(5) 0.3452(11)
C126 C 0.5257(9) 0.7022(5) 0.2157(10)
C127 C 0.6110(10) 0.6504(6) 0.3251(12)
C128 C 0.5486(8) 0.5497(4) -0.0556(9)
C129 C 0.4168(8) 0.6340(5) 0.0436(10)
C130 C 0.5263(9) 0.7312(5) -0.0556(10)
C131 C 0.4444(9) 0.7012(5) -0.0097(11)
C132 C 0.5653(10) 0.6450(6) -0.1730(12)
C133 C 0.5196(8) 0.7104(4) -0.1105(10)
C134 C 0.6156(7) 0.5307(4) 0.1276(9)
C135 C 0.8117(7) 0.6153(4) 0.2767(8)
C136 C 0.5580(9) 0.7281(5) -0.0819(11)
C137 C 0.7787(8) 0.6458(4) -0.0102(10)
C138 C 0.7594(11) 0.5694(6) 0.0403(13)
C139 C 0.7874(7) 0.6748(4) 0.0225(9)
C140 C 0.4918(8) 0.5592(5) -0.0366(10)
C141 C 0.7450(7) 0.7250(4) 0.2348(9)
C142 C 0.4957(10) 0.6801(5) -0.1476(12)
C143 C 0.5902(8) 0.7008(4) 0.2758(9)
C144 C 0.6863(10) 0.5496(6) 0.2411(13)
C145 C 0.5059(10) 0.5666(6) -0.0858(12)
C146 C 0.7668(8) 0.5572(5) 0.1509(10)
C147 C 0.4277(9) 0.6644(5) 0.0790(11)
C148 C 0.7016(10) 0.5400(5) 0.0598(12)
C149 C 0.4226(8) 0.6090(5) 0.0372(10)
C150 C 0.4234(9) 0.6795(5) -0.0336(11)
C151 C 0.4872(8) 0.5594(5) 0.0797(10)
C152 C 0.5800(8) 0.7423(4) -0.0263(10)
C153 C 0.5907(9) 0.5360(5) 0.0016(11)
C154 C 0.5388(10) 0.6921(6) -0.1454(12)
C155 C 0.5736(9) 0.6755(5) -0.1587(10)
C156 C 0.6209(9) 0.6612(5) -0.1543(11)
C157 C 0.6947(10) 0.6991(6) 0.3142(12)
C158 C 0.6517(8) 0.5840(4) -0.1038(9)
C159 C 0.5907(7) 0.5730(4) 0.2606(8)
C160 C 0.7945(8) 0.6166(4) 0.0253(10)
C161 C 0.4769(7) 0.7253(4) 0.0253(8)
C162 C 0.5863(11) 0.5780(6) -0.1235(13)
C163 C 0.6013(8) 0.7477(4) 0.1514(10)
C164 C 0.7812(9) 0.5955(5) 0.2868(11)
C165 C 0.6698(11) 0.7211(6) 0.2744(13)
C166 C 0.6598(9) 0.6092(5) -0.1283(11)
C167 C 0.7535(9) 0.7319(5) 0.1182(11)
C168 C 0.8165(9) 0.5936(5) 0.1774(11)
C169 C 0.6830(8) 0.5651(5) -0.0532(10)
C170 C 0.7108(8) 0.6177(4) 0.3450(9)
C171 C 0.4152(8) 0.6558(5) 0.0172(10)
C172 C 0.5338(10) 0.5525(5) 0.1524(12)
C173 C 0.7434(8) 0.6455(4) -0.0615(10)
C174 C 0.6074(9) 0.5986(5) 0.3032(10)
C175 C 0.8359(8) 0.6211(5) 0.1606(11)
C176 C 0.7080(9) 0.7455(5) 0.0994(10)
C177 C 0.4948(8) 0.5933(5) 0.1917(10)
C178 C 0.6431(10) 0.6958(5) 0.3080(11)
C179 C 0.5205(8) 0.6304(5) -0.1709(10)
C180 C 0.4669(10) 0.5671(6) 0.0148(13)
C181 C 0.7003(10) 0.6258(6) -0.1012(12)
C182 C 0.4559(7) 0.6702(4) 0.1513(8)
C183 C 0.5605(8) 0.6299(5) 0.2887(10)
C184 C 0.8227(10) 0.6209(6) 0.0982(12)
C185 C 0.4767(7) 0.6415(4) 0.1966(9)
C186 C 0.5239(8) 0.7407(4) 0.0607(10)
C187 C 0.6525(8) 0.5380(4) 0.1971(10)
C188 C 0.7931(10) 0.5951(5) 0.0519(12)
C189 C 0.8333(8) 0.6481(4) 0.1325(10)
C190 C 0.8136(8) 0.6926(4) 0.1974(9)
C191 C 0.4306(9) 0.5947(5) -0.0044(11)
C192 C 0.4447(10) 0.6883(6) -0.0831(12)
C193 C 0.4815(7) 0.6892(4) 0.1708(9)
C194 C 0.5011(12) 0.6185(7) 0.2232(14)
C195 C 0.6459(9) 0.5346(5) 0.0241(11)
C196 C 0.7297(8) 0.5611(5) 0.2545(10)
C197 C 0.7222(9) 0.5414(5) 0.1306(11)
C198 C 0.5462(8) 0.7405(5) 0.1286(10)
C199 C 0.7045(8) 0.7115(4) -0.0434(10)
C200 C 0.6446(7) 0.7163(4) -0.0846(9)
C201 C 0.7626(7) 0.5935(4) -0.0023(9)
C202 C 0.4512(9) 0.6664(5) -0.1254(11)
C203 C 0.6090(9) 0.7535(5) 0.0436(10)
C204 C 0.7860(8) 0.7110(4) 0.2205(10)
C205 C 0.5246(8) 0.5434(4) 0.0911(10)
C206 C 0.5039(10) 0.5491(5) 0.0275(12)
C207 C 0.5306(8) 0.6617(4) -0.1701(9)
C208 C 0.7068(12) 0.5908(7) -0.0687(14)
C209 C 0.7091(9) 0.5515(5) 0.0134(12)
C210 C 0.6664(9) 0.6398(5) -0.1341(11)
C211 C 0.6010(8) 0.5454(4) -0.0460(9)
C212 C 0.5891(11) 0.7108(6) -0.1140(13)
C213 C 0.6672(10) 0.6673(6) 0.3394(12)
C214 C 0.6310(10) 0.7472(6) 0.0035(13)
C215 C 0.6992(9) 0.6548(5) -0.1053(11)
C216 C 0.8311(7) 0.6708(4) 0.1576(9)
C217 C 0.4150(12) 0.6536(7) -0.0393(16)
C218 C 0.4444(8) 0.6108(4) -0.1098(10)
C219 C 0.4136(9) 0.6253(5) -0.0151(12)
C220 C 0.4313(9) 0.6610(5) -0.0912(11)
C221 C 0.4331(10) 0.6029(5) -0.0595(12)
C222 C 0.4443(7) 0.6380(4) -0.1220(9)
C223 C 0.8289(11) 0.4547(6) 0.2521(13)
C224 C 0.8600(9) 0.3478(5) -0.0127(11)
C225 C 0.9088(11) 0.3398(6) -0.0095(13)
C226 C 0.8146(11) 0.3099(6) 0.1060(13)
C227 C 0.8565(11) 0.2959(6) 0.2651(14)
C228 C 0.9349(9) 0.2696(5) 0.2365(11)
C229 C 1.0459(10) 0.2762(5) 0.2882(12)
C230 C 0.9246(12) 0.2952(6) 0.0580(14)
C231 C 0.9836(11) 0.4473(6) 0.0400(13)
C232 C 0.9523(18) 0.3805(10) -0.016(2)
C233 C 0.9241(10) 0.3995(6) -0.0239(12)
C234 C 0.8162(13) 0.3070(7) 0.2124(16)
C235 C 0.9869(12) 0.2662(6) 0.2570(14)
C236 C 0.9001(11) 0.3273(6) 0.3945(13)
C237 C 0.7905(15) 0.3407(9) 0.2425(19)
C238 C 0.7696(9) 0.3606(5) 0.1971(12)
C239 C 0.8320(12) 0.4100(7) -0.0010(14)
C240 C 0.8211(8) 0.4363(5) 0.2871(11)
C241 C 0.8603(14) 0.4544(8) 0.0522(17)
C242 C 1.0387(12) 0.4479(7) 0.0773(14)
C243 C 1.0194(14) 0.4781(7) 0.1345(17)
C244 C 1.1839(10) 0.3734(6) 0.2910(13)
C245 C 1.0770(12) 0.4798(6) 0.2558(14)
C246 C 1.1650(11) 0.4308(6) 0.3188(13)
C247 C 0.9180(11) 0.4825(6) 0.2899(13)
C248 C 0.9931(13) 0.4113(8) 0.4742(16)
C249 C 1.0722(9) 0.2827(5) 0.3433(10)
C250 C 1.0290(15) 0.2732(8) 0.1903(19)
C251 C 1.0746(10) 0.2976(5) 0.1523(12)
C252 C 0.9823(11) 0.2910(6) 0.0884(13)
C253 C 0.9304(14) 0.3162(8) 0.0167(16)
C254 C 1.1399(8) 0.3987(5) 0.1578(10)
C255 C 1.1050(10) 0.3689(6) 0.1027(13)
C256 C 1.0746(13) 0.2801(7) 0.2574(16)
C257 C 1.0989(10) 0.2910(6) 0.3148(13)
C258 C 0.8831(9) 0.4784(5) 0.1193(11)
C259 C 1.1758(13) 0.3638(8) 0.3957(16)
C260 C 0.7768(14) 0.4049(8) 0.0600(17)
C261 C 1.0456(12) 0.4887(6) 0.3006(14)
C262 C 1.0243(10) 0.2725(5) 0.2289(12)
C263 C 0.9345(13) 0.4866(7) 0.1340(16)
C264 C 1.0134(12) 0.4728(6) 0.3860(14)
C265 C 0.9437(10) 0.2870(5) 0.3513(12)
C266 C 0.7778(11) 0.3795(6) 0.0537(14)
C267 C 0.9550(12) 0.3251(6) 0.4341(14)
C268 C 0.7969(10) 0.4356(6) 0.2220(13)
C269 C 0.8924(11) 0.4842(6) 0.2259(13)
C270 C 0.7626(9) 0.3848(5) 0.1713(11)
C271 C 0.8632(9) 0.4313(5) 0.0027(10)
C272 C 0.9363(12) 0.4415(7) 0.0142(15)
C273 C 0.9057(11) 0.4712(6) 0.0769(13)
C274 C 1.1477(12) 0.4189(7) 0.1993(15)
C275 C 1.1032(9) 0.4559(5) 0.3986(10)
C276 C 1.1441(13) 0.4459(7) 0.2586(15)
C277 C 1.1914(9) 0.3786(5) 0.3433(12)
C278 C 0.9078(10) 0.4538(6) 0.3736(12)
C279 C 0.8184(11) 0.3620(6) -0.0001(13)
C280 C 1.1234(13) 0.3590(7) 0.4666(15)
C281 C 1.0709(11) 0.4271(6) 0.0852(13)
C282 C 0.7664(9) 0.3578(5) 0.1476(12)
C283 C 0.7764(11) 0.3811(6) 0.2371(14)
C284 C 1.0325(12) 0.2855(6) 0.1463(14)
C285 C 1.0362(11) 0.4279(6) 0.4703(12)
C286 C 0.8545(12) 0.2882(6) 0.2217(15)
C287 C 0.7829(9) 0.3309(5) 0.1156(12)
C288 C 1.0003(11) 0.4658(6) 0.0831(13)
C289 C 0.9009(10) 0.4226(6) -0.0145(12)
C290 C 0.8689(9) 0.4742(5) 0.2612(11)
C291 C 1.0575(9) 0.4643(5) 0.4003(11)
C292 C 1.1689(14) 0.4219(8) 0.3781(17)
C293 C 1.0811(12) 0.3134(7) 0.4305(14)
C294 C 0.8108(12) 0.4423(7) 0.0672(15)
C295 C 0.9056(11) 0.4715(6) 0.3284(13)
C296 C 0.9287(12) 0.4321(6) 0.4246(14)
C297 C 1.1091(12) 0.3020(7) 0.2097(15)
C298 C 0.8004(10) 0.3337(6) 0.0566(13)
C299 C 0.8077(8) 0.3868(5) 0.3031(10)
C300 C 0.8284(10) 0.4321(5) 0.0250(11)
C301 C 0.8904(12) 0.2929(7) 0.3221(15)
C302 C 0.9686(15) 0.2767(8) 0.1361(18)
C303 C 0.9859(13) 0.3818(7) 0.4816(16)
C304 C 1.0427(10) 0.4002(6) 0.0344(12)
C305 C 1.1203(11) 0.4624(6) 0.2741(13)
C306 C 1.0085(11) 0.3230(6) 0.4552(13)
C307 C 1.1756(13) 0.4196(7) 0.2755(16)
C308 C 0.9622(12) 0.4208(7) -0.0032(14)
C309 C 0.9845(14) 0.4878(7) 0.3210(17)
C310 C 1.0531(10) 0.4824(5) 0.1989(12)
C311 C 0.9736(10) 0.3017(5) 0.4056(12)
C312 C 0.8983(14) 0.4515(7) 0.0228(16)
C313 C 1.1271(12) 0.3044(7) 0.2756(15)
C314 C 0.8687(12) 0.3207(6) 0.0162(14)
C315 C 0.9765(11) 0.4309(6) 0.4473(13)
C316 C 0.9999(13) 0.4884(7) 0.1737(15)
C317 C 1.0522(11) 0.2906(6) 0.3818(13)
C318 C 0.8239(13) 0.4600(8) 0.1935(17)
C319 C 0.9004(11) 0.3796(6) -0.0314(13)
C320 C 1.0765(10) 0.3548(6) 0.4826(12)
C321 C 1.0837(11) 0.4423(6) 0.4422(14)
C322 C 1.1713(17) 0.3638(10) 0.233(2)
C323 C 1.1433(11) 0.3430(6) 0.1859(13)
C324 C 1.1347(13) 0.4336(8) 0.4238(17)
C325 C 0.8879(14) 0.2767(8) 0.2048(17)
C326 C 0.9664(11) 0.4797(6) 0.1072(13)
C327 C 0.8205(9) 0.3378(5) 0.3038(11)
C328 C 0.9205(13) 0.3070(8) 0.3815(16)
C329 C 1.1071(14) 0.4677(8) 0.3244(17)
C330 C 0.8267(8) 0.3366(5) 0.0134(10)
C331 C 1.1755(11) 0.3882(7) 0.3978(14)
C332 C 1.0058(12) 0.3797(7) 0.0058(14)
C333 C 0.7722(12) 0.3579(7) 0.0882(16)
C334 C 0.7826(10) 0.3318(6) 0.1739(13)
C335 C 0.7944(8) 0.3628(5) 0.2772(10)
C336 C 1.0804(12) 0.3874(7) 0.4845(14)
C337 C 0.9657(13) 0.4959(7) 0.2024(16)
C338 C 1.0251(11) 0.3217(6) 0.0565(13)
C339 C 0.8615(16) 0.2893(9) 0.1111(19)
C340 C 0.9713(11) 0.3521(6) 0.4648(13)
C341 C 1.0145(13) 0.4523(8) 0.4336(16)
C342 C 1.0275(11) 0.3027(6) 0.4243(14)
C343 C 1.0316(13) 0.3001(7) 0.0972(15)
C344 C 0.8564(13) 0.4351(7) 0.3472(16)
C345 C 1.0622(12) 0.4643(7) 0.1426(14)
C346 C 0.9074(11) 0.4881(6) 0.1811(14)
C347 C 0.9690(11) 0.2663(6) 0.1933(13)
C348 C 1.0210(12) 0.2764(7) 0.3286(15)
C349 C 0.9229(10) 0.3477(6) 0.4349(12)
C350 C 0.8282(11) 0.3158(6) 0.2787(14)
C351 C 0.8805(15) 0.3607(8) 0.4050(18)
C352 C 0.7742(10) 0.4105(6) 0.1892(13)
C353 C 1.0333(10) 0.4826(6) 0.3536(12)
C354 C 0.8529(12) 0.3390(7) 0.3531(15)
C355 C 1.0233(9) 0.4896(5) 0.2289(11)
C356 C 0.7992(9) 0.4137(5) 0.0284(11)
C357 C 0.8326(13) 0.2936(7) 0.1571(16)
C358 C 0.9520(12) 0.3539(7) -0.0120(14)
C359 C 0.7937(10) 0.4100(6) 0.2646(12)
C360 C 1.0971(15) 0.4008(9) 0.0978(19)
C361 C 1.0795(14) 0.3183(8) 0.1146(17)
C362 C 0.9608(11) 0.2746(6) 0.3093(14)
C363 C 0.7622(10) 0.3836(6) 0.1174(12)
C364 C 1.0724(13) 0.4720(7) 0.3621(16)
C365 C 0.8215(11) 0.3618(6) 0.3298(13)
C366 C 0.8557(16) 0.3772(9) -0.0229(19)
C367 C 1.1176(11) 0.4455(6) 0.1819(13)
C368 C 1.1658(9) 0.3923(5) 0.2127(12)
C369 C 0.8384(8) 0.3116(5) 0.0598(10)
C370 C 0.8957(9) 0.3589(5) -0.0249(11)
C371 C 0.9590(10) 0.4709(5) 0.3747(12)
C372 C 0.8280(7) 0.4120(4) 0.3288(9)
C373 C 1.1347(11) 0.3085(6) 0.3489(13)
C374 C 1.0971(9) 0.4671(5) 0.2117(11)
C375 C 1.0898(10) 0.4444(5) 0.1263(12)
C376 C 0.9579(9) 0.4518(5) 0.4119(11)
C377 C 1.1164(9) 0.4214(5) 0.4548(11)
C378 C 1.1556(7) 0.3786(4) 0.4382(8)
C379 C 1.1308(9) 0.3233(5) 0.4133(11)
C380 C 1.1113(8) 0.3355(4) 0.4531(10)
C381 C 1.0281(11) 0.3490(6) 0.4784(13)
C382 C 1.1576(8) 0.4062(5) 0.4272(10)
C383 C 1.0653(10) 0.3481(6) 0.0686(12)
C384 C 0.8037(9) 0.3132(5) 0.1535(12)
C385 C 1.1132(8) 0.3464(4) 0.1285(9)
C386 C 0.8758(10) 0.2969(5) 0.0637(12)
C387 C 1.1789(10) 0.3508(6) 0.3364(13)
C388 C 1.1808(9) 0.4045(5) 0.3359(11)
C389 C 1.0361(8) 0.3727(5) 0.4916(10)
C390 C 1.1042(10) 0.3017(5) 0.3776(12)
C391 C 1.0638(9) 0.3319(5) 0.4672(10)
C392 C 1.1465(9) 0.3234(5) 0.2406(11)
C393 C 0.9741(9) 0.3304(5) 0.0139(10)
C394 C 0.9077(9) 0.2784(5) 0.2705(10)
C395 C 0.8823(10) 0.4119(6) 0.3994(12)
C396 C 1.0733(9) 0.2860(5) 0.2044(11)
C397 C 1.1340(12) 0.4474(7) 0.3730(16)
C398 C 1.1592(8) 0.3236(4) 0.3099(10)
C399 C 0.7960(8) 0.3874(5) 0.0193(10)
C400 C 0.9014(9) 0.3880(5) 0.4255(11)
C401 C 1.1431(9) 0.4495(5) 0.3212(12)
C402 C 1.1392(9) 0.3702(5) 0.1587(11)
C403 C 1.0766(9) 0.4162(5) 0.4786(11)
C404 C 1.1484(9) 0.3509(5) 0.4297(11)
C405 C 0.9158(9) 0.2828(5) 0.1044(11)
C406 C 1.1186(8) 0.3207(5) 0.1746(10)
C407 C 0.9964(8) 0.2864(4) 0.3743(10)
C408 C 0.9266(10) 0.2723(5) 0.1724(12)
C409 C 1.1185(8) 0.4242(4) 0.1440(10)
C410 C 1.1820(9) 0.3966(6) 0.2815(12)
C411 C 1.1581(10) 0.3302(6) 0.3711(13)
C412 C 0.8398(10) 0.3923(6) 0.3608(12)
C413 C 0.9843(8) 0.3070(5) 0.0492(10)
C414 C 0.9947(10) 0.4033(6) 0.0022(12)
C415 C 0.7904(8) 0.3597(5) 0.0296(10)
C416 C 0.8743(10) 0.4062(6) -0.0211(12)
C417 C 1.0504(9) 0.3733(5) 0.0395(10)
C418 C 1.0418(7) 0.4006(4) 0.4880(8)
C419 C 1.1735(10) 0.3439(6) 0.2798(12)
C420 C 0.8656(10) 0.4583(5) 0.3050(12)
C421 C 1.1312(12) 0.3987(7) 0.4626(14)
C422 C 1.0147(11) 0.3516(6) 0.0208(13)
C423 C 1.0231(9) 0.4247(5) 0.0368(10)
C424 C 0.8442(10) 0.4627(5) 0.0957(12)
C425 C 0.9964(8) 0.4927(5) 0.2671(10)
C426 C 0.7672(9) 0.4102(5) 0.1325(11)
C427 C 0.8125(10) 0.4537(5) 0.1230(12)
C428 C 0.7834(12) 0.4292(7) 0.1008(15)
C429 C 0.9380(10) 0.4914(5) 0.2455(12)
C430 C 0.7896(7) 0.4373(4) 0.1625(9)
C431 C 0.8560(11) 0.4737(6) 0.1575(13)
C432 C 0.9493(10) 0.4649(5) 0.0613(11)
C433 C 0.8581(9) 0.3161(5) 0.3329(10)
C434 C 0.9354(10) 0.3703(5) 0.4509(11)
C435 C 0.9369(13) 0.4040(7) 0.4499(16)
I1 I 0.33544(5) 0.52388(2) 0.56016(6)
I2 I 0.05873(4) 0.62412(3) 0.27833(4)
I3 I 0.32367(3) 0.71478(2) 0.60032(4)
F1 F 0.1770(3) 0.54859(14) 0.3811(4)
F2 F 0.1647(2) 0.69582(13) 0.4173(3)
F3 F 0.3818(2) 0.61864(18) 0.6330(3)
C1 C 0.2799(4) 0.5824(2) 0.5080(4)
C2 C 0.2085(4) 0.58481(18) 0.4282(4)
C3 C 0.1696(3) 0.6222(2) 0.3959(4)
C4 C 0.2035(3) 0.65880(18) 0.4458(4)
C5 C 0.2756(3) 0.65874(18) 0.5259(4)
C6 C 0.3125(3) 0.6200(2) 0.5549(4)
loop_
_geom_bond_atom_site_label_1
_geom_bond_atom_site_label_2
_geom_bond_site_symmetry_1
_geom_bond_site_symmetry_2
I1 C1 1_555 1_555
I2 C3 1_555 1_555
I3 C5 1_555 1_555
F1 C2 1_555 1_555
F2 C4 1_555 1_555
F3 C6 1_555 1_555
C1 C2 1_555 1_555
C2 C3 1_555 1_555
C3 C4 1_555 1_555
C4 C5 1_555 1_555
C5 C6 1_555 1_555
C6 C1 1_555 1_555
I4 C7 1_555 1_555
I5 C9 1_555 1_555
I6 C11 1_555 1_555
F4 C8 1_555 1_555
F5 C10 1_555 1_555
F6 C12 1_555 1_555
C7 C8 1_555 1_555
C8 C9 1_555 1_555
C9 C10 1_555 1_555
C10 C11 1_555 1_555
C11 C12 1_555 1_555
C12 C7 1_555 1_555
C13 C28 1_555 1_555
C14 C20 1_555 1_555
C15 C93 1_555 1_555
C16 C31 1_555 1_555
C17 C91 1_555 1_555
C18 C19 1_555 1_555
C19 C125 1_555 1_555
C20 C54 1_555 1_555
C21 C18 1_555 1_555
C22 C18 1_555 1_555
C23 C48 1_555 1_555
C24 C43 1_555 1_555
C25 C26 1_555 1_555
C26 C40 1_555 1_555
C27 C39 1_555 1_555
C28 C50 1_555 1_555
C29 C92 1_555 1_555
C30 C65 1_555 1_555
C31 C76 1_555 1_555
C32 C34 1_555 1_555
C33 C14 1_555 1_555
C34 C41 1_555 1_555
C35 C46 1_555 1_555
C36 C42 1_555 1_555
C37 C84 1_555 1_555
C38 C49 1_555 1_555
C39 C55 1_555 1_555
C40 C22 1_555 1_555
C41 C14 1_555 1_555
C42 C47 1_555 1_555
C43 C48 1_555 1_555
C44 C24 1_555 1_555
C45 C72 1_555 1_555
C46 C133 1_555 1_555
C47 C64 1_555 1_555
C48 C70 1_555 1_555
C49 C25 1_555 1_555
C50 C13 1_555 1_555
C51 C60 1_555 1_555
C52 C25 1_555 1_555
C53 C13 1_555 1_555
C54 C14 1_555 1_555
C55 C27 1_555 1_555
C56 C13 1_555 1_555
C57 C52 1_555 1_555
C58 C67 1_555 1_555
C59 C27 1_555 1_555
C60 C55 1_555 1_555
C61 C76 1_555 1_555
C62 C27 1_555 1_555
C63 C89 1_555 1_555
C64 C84 1_555 1_555
C65 C47 1_555 1_555
C66 C69 1_555 1_555
C67 C65 1_555 1_555
C68 C23 1_555 1_555
C69 C22 1_555 1_555
C70 C21 1_555 1_555
C71 C28 1_555 1_555
C72 C59 1_555 1_555
C73 C27 1_555 1_555
C74 C20 1_555 1_555
C75 C30 1_555 1_555
C76 C95 1_555 1_555
C77 C82 1_555 1_555
C78 C32 1_555 1_555
C79 C21 1_555 1_555
C80 C32 1_555 1_555
C81 C108 1_555 1_555
C82 C61 1_555 1_555
C83 C25 1_555 1_555
C84 C158 1_555 1_555
C85 C55 1_555 1_555
C86 C137 1_555 1_555
C87 C138 1_555 1_555
C88 C24 1_555 1_555
C89 C45 1_555 1_555
C90 C103 1_555 1_555
C91 C104 1_555 1_555
C92 C63 1_555 1_555
C93 C118 1_555 1_555
C94 C29 1_555 1_555
C95 C16 1_555 1_555
C96 C13 1_555 1_555
C97 C32 1_555 1_555
C98 C52 1_555 1_555
C99 C85 1_555 1_555
C100 C104 1_555 1_555
C101 C36 1_555 1_555
C102 C217 1_555 1_555
C103 C115 1_555 1_555
C104 C17 1_555 1_555
C105 C15 1_555 1_555
C106 C17 1_555 1_555
C107 C30 1_555 1_555
C108 C44 1_555 1_555
C109 C16 1_555 1_555
C110 C124 1_555 1_555
C111 C20 1_555 1_555
C112 C15 1_555 1_555
C113 C13 1_555 1_555
C114 C36 1_555 1_555
C115 C39 1_555 1_555
C116 C39 1_555 1_555
C117 C81 1_555 1_555
C118 C112 1_555 1_555
C119 C68 1_555 1_555
C120 C61 1_555 1_555
C121 C17 1_555 1_555
C122 C61 1_555 1_555
C123 C90 1_555 1_555
C124 C72 1_555 1_555
C125 C18 1_555 1_555
C126 C15 1_555 1_555
C127 C19 1_555 1_555
C128 C64 1_555 1_555
C129 C100 1_555 1_555
C130 C29 1_555 1_555
C131 C77 1_555 1_555
C132 C101 1_555 1_555
C133 C35 1_555 1_555
C134 C24 1_555 1_555
C135 C38 1_555 1_555
C136 C110 1_555 1_555
C137 C99 1_555 1_555
C138 C52 1_555 1_555
C139 C39 1_555 1_555
C140 C58 1_555 1_555
C141 C32 1_555 1_555
C142 C46 1_555 1_555
C143 C15 1_555 1_555
C144 C70 1_555 1_555
C145 C47 1_555 1_555
C146 C25 1_555 1_555
C147 C77 1_555 1_555
C148 C57 1_555 1_555
C149 C91 1_555 1_555
C150 C77 1_555 1_555
C151 C91 1_555 1_555
C152 C92 1_555 1_555
C153 C24 1_555 1_555
C154 C133 1_555 1_555
C155 C123 1_555 1_555
C156 C90 1_555 1_555
C157 C14 1_555 1_555
C158 C36 1_555 1_555
C159 C21 1_555 1_555
C160 C86 1_555 1_555
C161 C29 1_555 1_555
C162 C36 1_555 1_555
C163 C31 1_555 1_555
C164 C26 1_555 1_555
C165 C16 1_555 1_555
C166 C36 1_555 1_555
C167 C51 1_555 1_555
C168 C25 1_555 1_555
C169 C37 1_555 1_555
C170 C18 1_555 1_555
C171 C77 1_555 1_555
C172 C23 1_555 1_555
C173 C86 1_555 1_555
C174 C18 1_555 1_555
C175 C38 1_555 1_555
C176 C32 1_555 1_555
C177 C17 1_555 1_555
C178 C16 1_555 1_555
C179 C30 1_555 1_555
C180 C58 1_555 1_555
C181 C86 1_555 1_555
C182 C82 1_555 1_555
C183 C19 1_555 1_555
C184 C98 1_555 1_555
C185 C93 1_555 1_555
C186 C29 1_555 1_555
C187 C48 1_555 1_555
C188 C98 1_555 1_555
C189 C71 1_555 1_555
C190 C28 1_555 1_555
C191 C58 1_555 1_555
C192 C35 1_555 1_555
C193 C61 1_555 1_555
C194 C106 1_555 1_555
C195 C37 1_555 1_555
C196 C26 1_555 1_555
C197 C57 1_555 1_555
C198 C31 1_555 1_555
C199 C27 1_555 1_555
C200 C103 1_555 1_555
C201 C86 1_555 1_555
C202 C46 1_555 1_555
C203 C45 1_555 1_555
C204 C33 1_555 1_555
C205 C24 1_555 1_555
C206 C24 1_555 1_555
C207 C107 1_555 1_555
C208 C86 1_555 1_555
C209 C37 1_555 1_555
C210 C90 1_555 1_555
C211 C37 1_555 1_555
C212 C110 1_555 1_555
C213 C54 1_555 1_555
C214 C45 1_555 1_555
C215 C90 1_555 1_555
C216 C28 1_555 1_555
C217 C131 1_555 1_555
C218 C30 1_555 1_555
C219 C102 1_555 1_555
C220 C102 1_555 1_555
C221 C58 1_555 1_555
C222 C30 1_555 1_555
C223 C240 1_555 1_555
C224 C225 1_555 1_555
C225 C253 1_555 1_555
C226 C287 1_555 1_555
C227 C234 1_555 1_555
C228 C235 1_555 1_555
C229 C235 1_555 1_555
C230 C252 1_555 1_555
C231 C242 1_555 1_555
C232 C233 1_555 1_555
C233 C289 1_555 1_555
C234 C286 1_555 1_555
C235 C262 1_555 1_555
C236 C267 1_555 1_555
C237 C238 1_555 1_555
C238 C270 1_555 1_555
C239 C271 1_555 1_555
C240 C268 1_555 1_555
C241 C271 1_555 1_555
C242 C281 1_555 1_555
C243 C288 1_555 1_555
C244 C277 1_555 1_555
C245 C261 1_555 1_555
C246 C276 1_555 1_555
C247 C269 1_555 1_555
C248 C285 1_555 1_555
C249 C229 1_555 1_555
C250 C262 1_555 1_555
C251 C284 1_555 1_555
C252 C284 1_555 1_555
C253 C230 1_555 1_555
C254 C274 1_555 1_555
C255 C360 1_555 1_555
C256 C229 1_555 1_555
C257 C229 1_555 1_555
C258 C263 1_555 1_555
C259 C277 1_555 1_555
C260 C266 1_555 1_555
C261 C329 1_555 1_555
C262 C229 1_555 1_555
C263 C273 1_555 1_555
C264 C291 1_555 1_555
C265 C301 1_555 1_555
C266 C333 1_555 1_555
C267 C306 1_555 1_555
C268 C223 1_555 1_555
C269 C290 1_555 1_555
C270 C282 1_555 1_555
C271 C289 1_555 1_555
C272 C231 1_555 1_555
C273 C241 1_555 1_555
C274 C276 1_555 1_555
C275 C291 1_555 1_555
C276 C305 1_555 1_555
C277 C331 1_555 1_555
C278 C295 1_555 1_555
C279 C224 1_555 1_555
C280 C320 1_555 1_555
C281 C304 1_555 1_555
C282 C238 1_555 1_555
C283 C238 1_555 1_555
C284 C250 1_555 1_555
C285 C315 1_555 1_555
C286 C227 1_555 1_555
C287 C282 1_555 1_555
C288 C231 1_555 1_555
C289 C272 1_555 1_555
C290 C223 1_555 1_555
C291 C321 1_555 1_555
C292 C246 1_555 1_555
C293 C317 1_555 1_555
C294 C241 1_555 1_555
C295 C247 1_555 1_555
C296 C278 1_555 1_555
C297 C251 1_555 1_555
C298 C226 1_555 1_555
C299 C283 1_555 1_555
C300 C239 1_555 1_555
C301 C227 1_555 1_555
C302 C250 1_555 1_555
C303 C248 1_555 1_555
C304 C332 1_555 1_555
C305 C245 1_555 1_555
C306 C311 1_555 1_555
C307 C244 1_555 1_555
C308 C231 1_555 1_555
C309 C247 1_555 1_555
C310 C243 1_555 1_555
C311 C265 1_555 1_555
C312 C241 1_555 1_555
C313 C256 1_555 1_555
C314 C224 1_555 1_555
C315 C248 1_555 1_555
C316 C243 1_555 1_555
C317 C249 1_555 1_555
C318 C223 1_555 1_555
C319 C232 1_555 1_555
C320 C336 1_555 1_555
C321 C275 1_555 1_555
C322 C244 1_555 1_555
C323 C322 1_555 1_555
C324 C275 1_555 1_555
C325 C228 1_555 1_555
C326 C243 1_555 1_555
C327 C237 1_555 1_555
C328 C236 1_555 1_555
C329 C245 1_555 1_555
C330 C224 1_555 1_555
C331 C259 1_555 1_555
C332 C232 1_555 1_555
C333 C282 1_555 1_555
C334 C234 1_555 1_555
C335 C237 1_555 1_555
C336 C280 1_555 1_555
C337 C263 1_555 1_555
C338 C343 1_555 1_555
C339 C226 1_555 1_555
C340 C267 1_555 1_555
C341 C264 1_555 1_555
C342 C293 1_555 1_555
C343 C251 1_555 1_555
C344 C240 1_555 1_555
C345 C242 1_555 1_555
C346 C258 1_555 1_555
C347 C228 1_555 1_555
C348 C229 1_555 1_555
C349 C236 1_555 1_555
C350 C227 1_555 1_555
C351 C236 1_555 1_555
C352 C268 1_555 1_555
C353 C261 1_555 1_555
C354 C236 1_555 1_555
C355 C245 1_555 1_555
C356 C239 1_555 1_555
C357 C226 1_555 1_555
C358 C225 1_555 1_555
C359 C240 1_555 1_555
C360 C254 1_555 1_555
C361 C251 1_555 1_555
C362 C228 1_555 1_555
C363 C260 1_555 1_555
C364 C261 1_555 1_555
C365 C299 1_555 1_555
C366 C224 1_555 1_555
C367 C274 1_555 1_555
C368 C254 1_555 1_555
C369 C226 1_555 1_555
C370 C224 1_555 1_555
C371 C247 1_555 1_555
C372 C240 1_555 1_555
C373 C257 1_555 1_555
C374 C245 1_555 1_555
C375 C242 1_555 1_555
C376 C278 1_555 1_555
C377 C321 1_555 1_555
C378 C259 1_555 1_555
C379 C293 1_555 1_555
C380 C280 1_555 1_555
C381 C306 1_555 1_555
C382 C292 1_555 1_555
C383 C255 1_555 1_555
C384 C226 1_555 1_555
C385 C255 1_555 1_555
C386 C230 1_555 1_555
C387 C244 1_555 1_555
C388 C246 1_555 1_555
C389 C303 1_555 1_555
C390 C249 1_555 1_555
C391 C293 1_555 1_555
C392 C297 1_555 1_555
C393 C225 1_555 1_555
C394 C227 1_555 1_555
C395 C296 1_555 1_555
C396 C250 1_555 1_555
C397 C275 1_555 1_555
C398 C313 1_555 1_555
C399 C239 1_555 1_555
C400 C351 1_555 1_555
C401 C246 1_555 1_555
C402 C254 1_555 1_555
C403 C285 1_555 1_555
C404 C259 1_555 1_555
C405 C230 1_555 1_555
C406 C251 1_555 1_555
C407 C265 1_555 1_555
C408 C228 1_555 1_555
C409 C254 1_555 1_555
C410 C244 1_555 1_555
C411 C259 1_555 1_555
C412 C299 1_555 1_555
C413 C252 1_555 1_555
C414 C232 1_555 1_555
C415 C266 1_555 1_555
C416 C233 1_555 1_555
C417 C255 1_555 1_555
C418 C248 1_555 1_555
C419 C244 1_555 1_555
C420 C223 1_555 1_555
C421 C280 1_555 1_555
C422 C332 1_555 1_555
C423 C231 1_555 1_555
C424 C241 1_555 1_555
C425 C261 1_555 1_555
C426 C260 1_555 1_555
C427 C294 1_555 1_555
C428 C260 1_555 1_555
C429 C247 1_555 1_555
C430 C268 1_555 1_555
C431 C258 1_555 1_555
C432 C231 1_555 1_555
C433 C236 1_555 1_555
C434 C303 1_555 1_555
C435 C248 1_555 1_555
C14 C56 1_555 1_555
C16 C143 1_555 1_555
C19 C174 1_555 1_555
C20 C56 1_555 1_555
C20 C96 1_555 1_555
C21 C22 1_555 1_555
C21 C174 1_555 1_555
C22 C79 1_555 1_555
C22 C170 1_555 1_555
C23 C70 1_555 1_555
C23 C159 1_555 1_555
C26 C49 1_555 1_555
C26 C83 1_555 1_555
C28 C53 1_555 1_555
C31 C95 1_555 1_555
C31 C109 1_555 1_555
C33 C41 1_555 1_555
C33 C53 1_555 1_555
C33 C56 1_555 1_555
C33 C141 1_555 1_555
C34 C80 1_555 1_555
C34 C109 1_555 1_555
C34 C141 1_555 1_555
C34 C165 1_555 1_555
C35 C94 1_555 1_555
C35 C130 1_555 1_555
C38 C50 1_555 1_555
C38 C71 1_555 1_555
C38 C168 1_555 1_555
C39 C199 1_555 1_555
C40 C69 1_555 1_555
C40 C79 1_555 1_555
C40 C164 1_555 1_555
C40 C196 1_555 1_555
C41 C141 1_555 1_555
C41 C157 1_555 1_555
C41 C165 1_555 1_555
C42 C75 1_555 1_555
C42 C101 1_555 1_555
C42 C162 1_555 1_555
C43 C134 1_555 1_555
C43 C172 1_555 1_555
C43 C205 1_555 1_555
C44 C134 1_555 1_555
C44 C153 1_555 1_555
C44 C195 1_555 1_555
C45 C78 1_555 1_555
C45 C176 1_555 1_555
C46 C192 1_555 1_555
C47 C75 1_555 1_555
C48 C134 1_555 1_555
C48 C172 1_555 1_555
C49 C135 1_555 1_555
C49 C164 1_555 1_555
C49 C168 1_555 1_555
C50 C71 1_555 1_555
C50 C113 1_555 1_555
C50 C135 1_555 1_555
C51 C62 1_555 1_555
C51 C97 1_555 1_555
C51 C190 1_555 1_555
C51 C204 1_555 1_555
C52 C146 1_555 1_555
C52 C168 1_555 1_555
C53 C56 1_555 1_555
C53 C190 1_555 1_555
C53 C204 1_555 1_555
C54 C74 1_555 1_555
C54 C157 1_555 1_555
C55 C62 1_555 1_555
C55 C139 1_555 1_555
C56 C96 1_555 1_555
C57 C138 1_555 1_555
C57 C146 1_555 1_555
C57 C209 1_555 1_555
C59 C62 1_555 1_555
C59 C73 1_555 1_555
C59 C167 1_555 1_555
C59 C176 1_555 1_555
C60 C62 1_555 1_555
C60 C85 1_555 1_555
C60 C190 1_555 1_555
C60 C216 1_555 1_555
C62 C167 1_555 1_555
C63 C163 1_555 1_555
C63 C186 1_555 1_555
C63 C198 1_555 1_555
C63 C203 1_555 1_555
C64 C145 1_555 1_555
C64 C162 1_555 1_555
C64 C211 1_555 1_555
C65 C75 1_555 1_555
C65 C145 1_555 1_555
C65 C218 1_555 1_555
C66 C96 1_555 1_555
C66 C111 1_555 1_555
C66 C113 1_555 1_555
C66 C135 1_555 1_555
C66 C164 1_555 1_555
C67 C140 1_555 1_555
C67 C145 1_555 1_555
C67 C218 1_555 1_555
C67 C221 1_555 1_555
C68 C121 1_555 1_555
C68 C159 1_555 1_555
C68 C172 1_555 1_555
C68 C177 1_555 1_555
C69 C111 1_555 1_555
C69 C164 1_555 1_555
C69 C170 1_555 1_555
C70 C79 1_555 1_555
C70 C159 1_555 1_555
C70 C187 1_555 1_555
C71 C175 1_555 1_555
C71 C216 1_555 1_555
C72 C73 1_555 1_555
C72 C176 1_555 1_555
C72 C214 1_555 1_555
C73 C124 1_555 1_555
C73 C199 1_555 1_555
C74 C111 1_555 1_555
C74 C125 1_555 1_555
C74 C170 1_555 1_555
C74 C213 1_555 1_555
C75 C101 1_555 1_555
C75 C179 1_555 1_555
C76 C122 1_555 1_555
C76 C126 1_555 1_555
C76 C198 1_555 1_555
C77 C120 1_555 1_555
C78 C80 1_555 1_555
C78 C89 1_555 1_555
C78 C176 1_555 1_555
C79 C144 1_555 1_555
C79 C196 1_555 1_555
C80 C89 1_555 1_555
C80 C109 1_555 1_555
C80 C163 1_555 1_555
C81 C134 1_555 1_555
C81 C187 1_555 1_555
C81 C197 1_555 1_555
C82 C120 1_555 1_555
C82 C147 1_555 1_555
C82 C193 1_555 1_555
C83 C117 1_555 1_555
C83 C146 1_555 1_555
C83 C196 1_555 1_555
C83 C197 1_555 1_555
C84 C162 1_555 1_555
C84 C169 1_555 1_555
C84 C211 1_555 1_555
C85 C139 1_555 1_555
C85 C189 1_555 1_555
C85 C216 1_555 1_555
C87 C169 1_555 1_555
C87 C201 1_555 1_555
C87 C208 1_555 1_555
C87 C209 1_555 1_555
C88 C128 1_555 1_555
C88 C140 1_555 1_555
C88 C153 1_555 1_555
C88 C206 1_555 1_555
C89 C163 1_555 1_555
C89 C203 1_555 1_555
C90 C115 1_555 1_555
C91 C121 1_555 1_555
C91 C180 1_555 1_555
C91 C191 1_555 1_555
C92 C130 1_555 1_555
C92 C186 1_555 1_555
C92 C203 1_555 1_555
C93 C126 1_555 1_555
C93 C182 1_555 1_555
C93 C193 1_555 1_555
C94 C131 1_555 1_555
C94 C161 1_555 1_555
C94 C192 1_555 1_555
C95 C126 1_555 1_555
C95 C143 1_555 1_555
C96 C111 1_555 1_555
C96 C113 1_555 1_555
C97 C141 1_555 1_555
C97 C167 1_555 1_555
C97 C204 1_555 1_555
C98 C168 1_555 1_555
C98 C175 1_555 1_555
C99 C139 1_555 1_555
C99 C160 1_555 1_555
C99 C184 1_555 1_555
C99 C189 1_555 1_555
C100 C106 1_555 1_555
C100 C147 1_555 1_555
C100 C182 1_555 1_555
C100 C185 1_555 1_555
C101 C114 1_555 1_555
C101 C179 1_555 1_555
C102 C218 1_555 1_555
C102 C221 1_555 1_555
C102 C222 1_555 1_555
C103 C123 1_555 1_555
C103 C199 1_555 1_555
C104 C106 1_555 1_555
C104 C129 1_555 1_555
C104 C149 1_555 1_555
C105 C112 1_555 1_555
C105 C127 1_555 1_555
C105 C143 1_555 1_555
C105 C178 1_555 1_555
C105 C213 1_555 1_555
C106 C177 1_555 1_555
C106 C185 1_555 1_555
C107 C142 1_555 1_555
C107 C179 1_555 1_555
C107 C202 1_555 1_555
C107 C222 1_555 1_555
C108 C148 1_555 1_555
C108 C195 1_555 1_555
C108 C197 1_555 1_555
C109 C163 1_555 1_555
C109 C165 1_555 1_555
C110 C152 1_555 1_555
C110 C200 1_555 1_555
C110 C214 1_555 1_555
C111 C170 1_555 1_555
C112 C127 1_555 1_555
C112 C183 1_555 1_555
C113 C135 1_555 1_555
C114 C132 1_555 1_555
C114 C156 1_555 1_555
C114 C166 1_555 1_555
C114 C210 1_555 1_555
C115 C116 1_555 1_555
C115 C199 1_555 1_555
C115 C215 1_555 1_555
C116 C137 1_555 1_555
C116 C139 1_555 1_555
C116 C173 1_555 1_555
C117 C144 1_555 1_555
C117 C187 1_555 1_555
C117 C196 1_555 1_555
C117 C197 1_555 1_555
C118 C183 1_555 1_555
C118 C185 1_555 1_555
C118 C194 1_555 1_555
C119 C159 1_555 1_555
C119 C174 1_555 1_555
C119 C177 1_555 1_555
C119 C183 1_555 1_555
C119 C194 1_555 1_555
C120 C122 1_555 1_555
C120 C131 1_555 1_555
C120 C161 1_555 1_555
C121 C151 1_555 1_555
C121 C172 1_555 1_555
C121 C177 1_555 1_555
C122 C161 1_555 1_555
C122 C186 1_555 1_555
C122 C198 1_555 1_555
C123 C156 1_555 1_555
C123 C200 1_555 1_555
C123 C212 1_555 1_555
C124 C199 1_555 1_555
C124 C200 1_555 1_555
C124 C214 1_555 1_555
C125 C127 1_555 1_555
C125 C170 1_555 1_555
C125 C213 1_555 1_555
C126 C193 1_555 1_555
C127 C183 1_555 1_555
C127 C213 1_555 1_555
C128 C145 1_555 1_555
C128 C153 1_555 1_555
C128 C211 1_555 1_555
C129 C147 1_555 1_555
C129 C149 1_555 1_555
C129 C171 1_555 1_555
C129 C219 1_555 1_555
C130 C133 1_555 1_555
C130 C136 1_555 1_555
C130 C152 1_555 1_555
C131 C150 1_555 1_555
C131 C161 1_555 1_555
C131 C192 1_555 1_555
C132 C155 1_555 1_555
C132 C156 1_555 1_555
C132 C179 1_555 1_555
C132 C207 1_555 1_555
C133 C136 1_555 1_555
C134 C187 1_555 1_555
C135 C164 1_555 1_555
C136 C152 1_555 1_555
C136 C212 1_555 1_555
C137 C139 1_555 1_555
C137 C160 1_555 1_555
C137 C173 1_555 1_555
C138 C188 1_555 1_555
C138 C201 1_555 1_555
C138 C209 1_555 1_555
C140 C145 1_555 1_555
C140 C180 1_555 1_555
C140 C206 1_555 1_555
C141 C204 1_555 1_555
C142 C154 1_555 1_555
C142 C202 1_555 1_555
C142 C207 1_555 1_555
C143 C178 1_555 1_555
C144 C187 1_555 1_555
C144 C196 1_555 1_555
C146 C197 1_555 1_555
C147 C171 1_555 1_555
C147 C182 1_555 1_555
C148 C195 1_555 1_555
C148 C197 1_555 1_555
C148 C209 1_555 1_555
C149 C191 1_555 1_555
C149 C219 1_555 1_555
C150 C171 1_555 1_555
C150 C192 1_555 1_555
C150 C217 1_555 1_555
C150 C220 1_555 1_555
C151 C172 1_555 1_555
C151 C180 1_555 1_555
C151 C205 1_555 1_555
C151 C206 1_555 1_555
C152 C203 1_555 1_555
C152 C214 1_555 1_555
C153 C195 1_555 1_555
C153 C211 1_555 1_555
C154 C155 1_555 1_555
C154 C207 1_555 1_555
C154 C212 1_555 1_555
C155 C156 1_555 1_555
C155 C207 1_555 1_555
C156 C210 1_555 1_555
C157 C165 1_555 1_555
C157 C178 1_555 1_555
C158 C162 1_555 1_555
C158 C166 1_555 1_555
C158 C169 1_555 1_555
C158 C208 1_555 1_555
C159 C174 1_555 1_555
C160 C184 1_555 1_555
C160 C188 1_555 1_555
C160 C201 1_555 1_555
C161 C186 1_555 1_555
C163 C198 1_555 1_555
C165 C178 1_555 1_555
C166 C181 1_555 1_555
C166 C208 1_555 1_555
C166 C210 1_555 1_555
C167 C176 1_555 1_555
C168 C175 1_555 1_555
C169 C208 1_555 1_555
C169 C209 1_555 1_555
C171 C217 1_555 1_555
C171 C219 1_555 1_555
C172 C205 1_555 1_555
C173 C181 1_555 1_555
C173 C215 1_555 1_555
C174 C183 1_555 1_555
C175 C184 1_555 1_555
C175 C189 1_555 1_555
C177 C194 1_555 1_555
C178 C213 1_555 1_555
C179 C207 1_555 1_555
C180 C191 1_555 1_555
C180 C206 1_555 1_555
C181 C208 1_555 1_555
C181 C210 1_555 1_555
C181 C215 1_555 1_555
C182 C185 1_555 1_555
C182 C193 1_555 1_555
C183 C194 1_555 1_555
C184 C188 1_555 1_555
C184 C189 1_555 1_555
C185 C194 1_555 1_555
C186 C198 1_555 1_555
C188 C201 1_555 1_555
C189 C216 1_555 1_555
C190 C204 1_555 1_555
C190 C216 1_555 1_555
C191 C219 1_555 1_555
C191 C221 1_555 1_555
C192 C202 1_555 1_555
C192 C220 1_555 1_555
C195 C211 1_555 1_555
C199 C200 1_555 1_555
C200 C212 1_555 1_555
C201 C208 1_555 1_555
C202 C220 1_555 1_555
C202 C222 1_555 1_555
C203 C214 1_555 1_555
C205 C206 1_555 1_555
C210 C215 1_555 1_555
C217 C219 1_555 1_555
C217 C220 1_555 1_555
C218 C221 1_555 1_555
C218 C222 1_555 1_555
C219 C221 1_555 1_555
C220 C222 1_555 1_555
C225 C314 1_555 1_555
C225 C370 1_555 1_555
C228 C394 1_555 1_555
C230 C314 1_555 1_555
C232 C358 1_555 1_555
C233 C308 1_555 1_555
C233 C319 1_555 1_555
C234 C350 1_555 1_555
C234 C357 1_555 1_555
C234 C384 1_555 1_555
C235 C347 1_555 1_555
C235 C348 1_555 1_555
C235 C362 1_555 1_555
C237 C334 1_555 1_555
C237 C350 1_555 1_555
C238 C334 1_555 1_555
C239 C366 1_555 1_555
C239 C416 1_555 1_555
C240 C420 1_555 1_555
C241 C300 1_555 1_555
C242 C288 1_555 1_555
C242 C423 1_555 1_555
C243 C345 1_555 1_555
C245 C310 1_555 1_555
C246 C307 1_555 1_555
C247 C290 1_555 1_555
C249 C257 1_555 1_555
C249 C348 1_555 1_555
C251 C396 1_555 1_555
C252 C302 1_555 1_555
C252 C343 1_555 1_555
C253 C314 1_555 1_555
C253 C370 1_555 1_555
C253 C393 1_555 1_555
C253 C413 1_555 1_555
C255 C402 1_555 1_555
C256 C257 1_555 1_555
C256 C262 1_555 1_555
C256 C396 1_555 1_555
C257 C313 1_555 1_555
C257 C390 1_555 1_555
C258 C273 1_555 1_555
C258 C424 1_555 1_555
C259 C387 1_555 1_555
C260 C356 1_555 1_555
C260 C399 1_555 1_555
C261 C355 1_555 1_555
C262 C284 1_555 1_555
C262 C347 1_555 1_555
C263 C316 1_555 1_555
C263 C326 1_555 1_555
C263 C346 1_555 1_555
C264 C309 1_555 1_555
C264 C353 1_555 1_555
C264 C371 1_555 1_555
C265 C328 1_555 1_555
C265 C362 1_555 1_555
C265 C394 1_555 1_555
C266 C363 1_555 1_555
C266 C399 1_555 1_555
C267 C311 1_555 1_555
C267 C328 1_555 1_555
C267 C349 1_555 1_555
C268 C318 1_555 1_555
C268 C359 1_555 1_555
C269 C346 1_555 1_555
C269 C429 1_555 1_555
C269 C431 1_555 1_555
C270 C283 1_555 1_555
C270 C352 1_555 1_555
C270 C363 1_555 1_555
C270 C426 1_555 1_555
C271 C300 1_555 1_555
C271 C312 1_555 1_555
C271 C416 1_555 1_555
C272 C308 1_555 1_555
C272 C312 1_555 1_555
C272 C432 1_555 1_555
C273 C312 1_555 1_555
C273 C326 1_555 1_555
C273 C432 1_555 1_555
C274 C307 1_555 1_555
C274 C368 1_555 1_555
C274 C409 1_555 1_555
C275 C364 1_555 1_555
C276 C307 1_555 1_555
C276 C367 1_555 1_555
C276 C374 1_555 1_555
C276 C401 1_555 1_555
C277 C387 1_555 1_555
C277 C388 1_555 1_555
C278 C344 1_555 1_555
C278 C371 1_555 1_555
C278 C420 1_555 1_555
C279 C330 1_555 1_555
C279 C366 1_555 1_555
C279 C399 1_555 1_555
C279 C415 1_555 1_555
C280 C378 1_555 1_555
C280 C404 1_555 1_555
C281 C360 1_555 1_555
C281 C375 1_555 1_555
C281 C409 1_555 1_555
C281 C423 1_555 1_555
C282 C334 1_555 1_555
C282 C363 1_555 1_555
C283 C335 1_555 1_555
C283 C352 1_555 1_555
C283 C359 1_555 1_555
C284 C302 1_555 1_555
C284 C343 1_555 1_555
C284 C396 1_555 1_555
C285 C321 1_555 1_555
C285 C341 1_555 1_555
C285 C418 1_555 1_555
C286 C325 1_555 1_555
C286 C357 1_555 1_555
C286 C394 1_555 1_555
C287 C298 1_555 1_555
C287 C333 1_555 1_555
C287 C334 1_555 1_555
C287 C384 1_555 1_555
C288 C326 1_555 1_555
C288 C345 1_555 1_555
C288 C432 1_555 1_555
C289 C308 1_555 1_555
C289 C312 1_555 1_555
C289 C416 1_555 1_555
C290 C295 1_555 1_555
C290 C318 1_555 1_555
C290 C420 1_555 1_555
C291 C341 1_555 1_555
C291 C353 1_555 1_555
C291 C364 1_555 1_555
C292 C324 1_555 1_555
C292 C331 1_555 1_555
C292 C388 1_555 1_555
C292 C397 1_555 1_555
C293 C380 1_555 1_555
C293 C390 1_555 1_555
C294 C300 1_555 1_555
C294 C356 1_555 1_555
C294 C424 1_555 1_555
C294 C428 1_555 1_555
C295 C371 1_555 1_555
C295 C420 1_555 1_555
C296 C315 1_555 1_555
C296 C376 1_555 1_555
C296 C435 1_555 1_555
C297 C313 1_555 1_555
C297 C396 1_555 1_555
C297 C406 1_555 1_555
C298 C330 1_555 1_555
C298 C333 1_555 1_555
C298 C369 1_555 1_555
C298 C415 1_555 1_555
C299 C335 1_555 1_555
C299 C359 1_555 1_555
C299 C372 1_555 1_555
C300 C356 1_555 1_555
C301 C328 1_555 1_555
C301 C394 1_555 1_555
C301 C433 1_555 1_555
C302 C347 1_555 1_555
C302 C405 1_555 1_555
C302 C408 1_555 1_555
C303 C340 1_555 1_555
C303 C418 1_555 1_555
C303 C435 1_555 1_555
C304 C360 1_555 1_555
C304 C414 1_555 1_555
C304 C417 1_555 1_555
C304 C423 1_555 1_555
C305 C329 1_555 1_555
C305 C374 1_555 1_555
C305 C401 1_555 1_555
C306 C340 1_555 1_555
C306 C342 1_555 1_555
C306 C391 1_555 1_555
C307 C388 1_555 1_555
C307 C410 1_555 1_555
C308 C414 1_555 1_555
C308 C423 1_555 1_555
C309 C353 1_555 1_555
C309 C371 1_555 1_555
C309 C425 1_555 1_555
C309 C429 1_555 1_555
C310 C316 1_555 1_555
C310 C345 1_555 1_555
C310 C355 1_555 1_555
C310 C374 1_555 1_555
C311 C328 1_555 1_555
C311 C342 1_555 1_555
C311 C407 1_555 1_555
C312 C432 1_555 1_555
C313 C373 1_555 1_555
C313 C392 1_555 1_555
C314 C330 1_555 1_555
C314 C369 1_555 1_555
C314 C386 1_555 1_555
C315 C341 1_555 1_555
C315 C376 1_555 1_555
C315 C435 1_555 1_555
C316 C326 1_555 1_555
C316 C337 1_555 1_555
C316 C355 1_555 1_555
C317 C342 1_555 1_555
C317 C348 1_555 1_555
C317 C390 1_555 1_555
C317 C407 1_555 1_555
C318 C427 1_555 1_555
C318 C430 1_555 1_555
C318 C431 1_555 1_555
C319 C366 1_555 1_555
C319 C370 1_555 1_555
C319 C416 1_555 1_555
C320 C380 1_555 1_555
C320 C381 1_555 1_555
C320 C389 1_555 1_555
C320 C391 1_555 1_555
C321 C324 1_555 1_555
C321 C341 1_555 1_555
C321 C403 1_555 1_555
C322 C368 1_555 1_555
C322 C402 1_555 1_555
C322 C419 1_555 1_555
C323 C385 1_555 1_555
C323 C392 1_555 1_555
C323 C402 1_555 1_555
C323 C406 1_555 1_555
C324 C377 1_555 1_555
C324 C382 1_555 1_555
C324 C397 1_555 1_555
C325 C339 1_555 1_555
C325 C357 1_555 1_555
C325 C394 1_555 1_555
C325 C408 1_555 1_555
C326 C432 1_555 1_555
C327 C335 1_555 1_555
C327 C350 1_555 1_555
C327 C354 1_555 1_555
C327 C365 1_555 1_555
C327 C433 1_555 1_555
C328 C433 1_555 1_555
C329 C364 1_555 1_555
C329 C397 1_555 1_555
C329 C401 1_555 1_555
C330 C369 1_555 1_555
C330 C415 1_555 1_555
C331 C378 1_555 1_555
C331 C382 1_555 1_555
C331 C388 1_555 1_555
C332 C414 1_555 1_555
C332 C417 1_555 1_555
C333 C363 1_555 1_555
C333 C415 1_555 1_555
C334 C384 1_555 1_555
C335 C365 1_555 1_555
C336 C389 1_555 1_555
C336 C403 1_555 1_555
C336 C418 1_555 1_555
C336 C421 1_555 1_555
C337 C346 1_555 1_555
C337 C355 1_555 1_555
C337 C425 1_555 1_555
C337 C429 1_555 1_555
C338 C361 1_555 1_555
C338 C383 1_555 1_555
C338 C393 1_555 1_555
C338 C413 1_555 1_555
C338 C422 1_555 1_555
C339 C357 1_555 1_555
C339 C369 1_555 1_555
C339 C386 1_555 1_555
C339 C405 1_555 1_555
C339 C408 1_555 1_555
C340 C349 1_555 1_555
C340 C381 1_555 1_555
C340 C434 1_555 1_555
C341 C376 1_555 1_555
C342 C391 1_555 1_555
C342 C407 1_555 1_555
C343 C361 1_555 1_555
C343 C413 1_555 1_555
C344 C372 1_555 1_555
C344 C395 1_555 1_555
C344 C420 1_555 1_555
C345 C367 1_555 1_555
C345 C374 1_555 1_555
C345 C375 1_555 1_555
C346 C429 1_555 1_555
C346 C431 1_555 1_555
C347 C408 1_555 1_555
C348 C362 1_555 1_555
C348 C407 1_555 1_555
C349 C351 1_555 1_555
C349 C434 1_555 1_555
C350 C433 1_555 1_555
C351 C354 1_555 1_555
C351 C365 1_555 1_555
C351 C412 1_555 1_555
C351 C434 1_555 1_555
C352 C359 1_555 1_555
C352 C426 1_555 1_555
C352 C430 1_555 1_555
C353 C364 1_555 1_555
C354 C365 1_555 1_555
C354 C433 1_555 1_555
C355 C425 1_555 1_555
C356 C399 1_555 1_555
C357 C384 1_555 1_555
C358 C370 1_555 1_555
C358 C393 1_555 1_555
C358 C422 1_555 1_555
C359 C372 1_555 1_555
C360 C409 1_555 1_555
C360 C417 1_555 1_555
C361 C383 1_555 1_555
C361 C385 1_555 1_555
C361 C406 1_555 1_555
C362 C394 1_555 1_555
C362 C407 1_555 1_555
C363 C426 1_555 1_555
C365 C412 1_555 1_555
C366 C370 1_555 1_555
C366 C416 1_555 1_555
C367 C374 1_555 1_555
C367 C375 1_555 1_555
C367 C409 1_555 1_555
C368 C402 1_555 1_555
C368 C410 1_555 1_555
C369 C386 1_555 1_555
C371 C376 1_555 1_555
C372 C395 1_555 1_555
C372 C412 1_555 1_555
C373 C379 1_555 1_555
C373 C390 1_555 1_555
C373 C398 1_555 1_555
C373 C411 1_555 1_555
C375 C409 1_555 1_555
C377 C403 1_555 1_555
C377 C421 1_555 1_555
C378 C382 1_555 1_555
C378 C404 1_555 1_555
C378 C421 1_555 1_555
C379 C380 1_555 1_555
C379 C390 1_555 1_555
C379 C404 1_555 1_555
C379 C411 1_555 1_555
C380 C391 1_555 1_555
C380 C404 1_555 1_555
C381 C389 1_555 1_555
C381 C391 1_555 1_555
C382 C421 1_555 1_555
C383 C385 1_555 1_555
C383 C417 1_555 1_555
C383 C422 1_555 1_555
C385 C402 1_555 1_555
C385 C406 1_555 1_555
C386 C405 1_555 1_555
C387 C398 1_555 1_555
C387 C411 1_555 1_555
C387 C419 1_555 1_555
C388 C410 1_555 1_555
C389 C418 1_555 1_555
C392 C398 1_555 1_555
C392 C406 1_555 1_555
C392 C419 1_555 1_555
C393 C413 1_555 1_555
C393 C422 1_555 1_555
C395 C400 1_555 1_555
C395 C412 1_555 1_555
C395 C435 1_555 1_555
C397 C401 1_555 1_555
C398 C411 1_555 1_555
C398 C419 1_555 1_555
C399 C415 1_555 1_555
C400 C412 1_555 1_555
C400 C434 1_555 1_555
C400 C435 1_555 1_555
C403 C418 1_555 1_555
C404 C411 1_555 1_555
C405 C408 1_555 1_555
C414 C423 1_555 1_555
C417 C422 1_555 1_555
C424 C427 1_555 1_555
C424 C431 1_555 1_555
C425 C429 1_555 1_555
C426 C428 1_555 1_555
C426 C430 1_555 1_555
C427 C428 1_555 1_555
C427 C430 1_555 1_555
C427 C431 1_555 1_555
C428 C430 1_555 1_555
C434 C435 1_555 1_555

#END
