
#######################################################################
#
#                 Cambridge Crystallographic Data Centre
#                                CCDC 
#
#######################################################################
#
# If this CIF has been generated from an entry in the Cambridge 
# Structural Database, then it will include bibliographic, chemical, 
# crystal, experimental, refinement or atomic coordinate data resulting 
# from the CCDC's data processing and validation procedures.
#
#######################################################################

data_CIBZEU
_chemical_formula_moiety         'C20 H10 S4'
_chemical_name_systematic        2,2'-Bithieno[3,2-b][1]benzothiophene
_symmetry_cell_setting           monoclinic
_symmetry_space_group_name_H-M   'P 21/c'
_symmetry_Int_Tables_number      14
_space_group_name_Hall           '-P 2ybc'
loop_
_symmetry_equiv_pos_site_id
_symmetry_equiv_pos_as_xyz
1 x,y,z
2 -x,1/2+y,1/2-z
3 -x,-y,-z
4 x,1/2-y,1/2+z
_cell_length_a                   14.1293(6)
_cell_length_b                   3.9653(2)
_cell_length_c                   15.0241(6)
_cell_angle_alpha                90
_cell_angle_beta                 111.527(2)
_cell_angle_gamma                90
_cell_volume                     783.037
_cell_formula_units_Z            2
loop_
_atom_site_label
_atom_site_type_symbol
_atom_site_fract_x
_atom_site_fract_y
_atom_site_fract_z
S1 S 0.4570 -0.1281(2) 0.1224
S2 S 0.1686 0.2709(2) -0.0240
C1 C 0.4551(1) 0.0183(5) 0.0123(1)
C2 C 0.3638(2) 0.1588(5) -0.0415(1)
H1 H 0.3489 0.2502 -0.1022
C3 C 0.2945(1) 0.1477(5) 0.0067(1)
C4 C 0.3331(1) 0.0002(5) 0.0953(1)
C5 C 0.2625(2) -0.0217(5) 0.1436(1)
C6 C 0.2726(2) -0.1584(6) 0.2319(1)
H2 H 0.3340 -0.2538 0.2709
C7 C 0.1910(2) -0.1510(6) 0.2611(2)
H3 H 0.1974 -0.2427 0.3200
C8 C 0.0987(2) -0.0077(7) 0.2034(2)
H4 H 0.0445 -0.0044 0.2246
C9 C 0.0865(2) 0.1284(6) 0.1159(2)
H5 H 0.0248 0.2244 0.0778
C10 C 0.1683(2) 0.1198(6) 0.0854(1)
S1B S 0.5430 0.1281(2) -0.1224
S2B S 0.8314 -0.2709(2) 0.0240
C1B C 0.5449(1) -0.0183(5) -0.0123(1)
C2B C 0.6362(2) -0.1588(5) 0.0415(1)
H1B H 0.6511 -0.2502 0.1022
C3B C 0.7055(1) -0.1477(5) -0.0067(1)
C4B C 0.6669(1) -0.0002(5) -0.0953(1)
C5B C 0.7375(2) 0.0217(5) -0.1436(1)
C6B C 0.7274(2) 0.1584(6) -0.2319(1)
H2B H 0.6660 0.2538 -0.2709
C7B C 0.8090(2) 0.1510(6) -0.2611(2)
H3B H 0.8026 0.2427 -0.3200
C8B C 0.9013(2) 0.0077(7) -0.2034(2)
H4B H 0.9555 0.0044 -0.2246
C9B C 0.9135(2) -0.1284(6) -0.1159(2)
H5B H 0.9752 -0.2244 -0.0778
C10B C 0.8317(2) -0.1198(6) -0.0854(1)
loop_
_geom_bond_atom_site_label_1
_geom_bond_atom_site_label_2
_geom_bond_site_symmetry_1
_geom_bond_site_symmetry_2
S1 C1 1_555 1_555
S2 C3 1_555 1_555
C1 C2 1_555 1_555
C2 H1 1_555 1_555
C3 C2 1_555 1_555
C4 S1 1_555 1_555
C5 C4 1_555 1_555
C6 C5 1_555 1_555
H2 C6 1_555 1_555
C7 C6 1_555 1_555
H3 C7 1_555 1_555
C8 C7 1_555 1_555
H4 C8 1_555 1_555
C9 C8 1_555 1_555
H5 C9 1_555 1_555
C10 S2 1_555 1_555
S1B C1B 1_555 1_555
S2B C3B 1_555 1_555
C1B C1 1_555 1_555
C2B C1B 1_555 1_555
H1B C2B 1_555 1_555
C3B C2B 1_555 1_555
C4B S1B 1_555 1_555
C5B C4B 1_555 1_555
C6B C5B 1_555 1_555
H2B C6B 1_555 1_555
C7B C6B 1_555 1_555
H3B C7B 1_555 1_555
C8B C7B 1_555 1_555
H4B C8B 1_555 1_555
C9B C8B 1_555 1_555
H5B C9B 1_555 1_555
C10B S2B 1_555 1_555
C3 C4 1_555 1_555
C5 C10 1_555 1_555
C9 C10 1_555 1_555
C3B C4B 1_555 1_555
C5B C10B 1_555 1_555
C9B C10B 1_555 1_555

#END
