
#######################################################################
#
#                 Cambridge Crystallographic Data Centre
#                                CCDC 
#
#######################################################################
#
# If this CIF has been generated from an entry in the Cambridge 
# Structural Database, then it will include bibliographic, chemical, 
# crystal, experimental, refinement or atomic coordinate data resulting 
# from the CCDC's data processing and validation procedures.
#
#######################################################################

data_CICGED
_chemical_formula_moiety         'C23 H38 O9'
_chemical_name_systematic        
'2-{2-[(2,2-dimethyl-1,3-dioxolan-4-yl)methyl]-3,9-dihydroxydecahydrofuro[3,2-b]pyrano[2,3-e]pyran-7-yl}ethyl 2,2-dimethylpropanoate'
_symmetry_cell_setting           monoclinic
_symmetry_space_group_name_H-M   'P 21'
_symmetry_Int_Tables_number      4
_space_group_name_Hall           'P 2yb'
loop_
_symmetry_equiv_pos_site_id
_symmetry_equiv_pos_as_xyz
1 x,y,z
2 -x,1/2+y,-z
_cell_length_a                   5.61485(9)
_cell_length_b                   39.2135(7)
_cell_length_c                   5.91429(10)
_cell_angle_alpha                90
_cell_angle_beta                 116.0588(11)
_cell_angle_gamma                90
_cell_volume                     1169.82
_exptl_crystal_colour            colorless
_exptl_crystal_description       plate
_cell_formula_units_Z            2
_exptl_crystal_recrystallization_method 'used as received'
loop_
_atom_site_label
_atom_site_type_symbol
_atom_site_fract_x
_atom_site_fract_y
_atom_site_fract_z
O1 O 0.8927(5) 0.12751(7) 0.8038(6)
O2 O 0.5551(6) 0.16083(7) 0.7831(7)
O3 O 0.4391(5) 0.24310(6) 0.6786(4)
O4 O 0.6022(5) 0.26403(7) 0.2705(5)
H1 H 0.652(9) 0.2759(13) 0.391(9)
O5 O 0.1005(4) 0.29933(6) 0.1441(4)
O6 O 0.6942(5) 0.30311(7) 0.6755(5)
H2 H 0.823(10) 0.3010(13) 0.822(9)
O7 O 0.390(3) 0.3666(4) 0.633(3)
O8 O 0.7428(18) 0.4661(2) 0.8080(17)
O9 O 0.7948(18) 0.4520(2) 1.1857(17)
C1 C 0.233(4) 0.3953(4) 0.231(3)
H3 H 0.4135 0.3984 0.2436
H4 H 0.1217 0.4145 0.1320
C2 C 0.246(2) 0.3956(3) 0.489(3)
H5 H 0.0605 0.3936 0.4688
C3 C 0.365(2) 0.4275(2) 0.644(2)
H6 H 0.2646 0.4477 0.5500
H7 H 0.3475 0.4261 0.8032
C4 C 0.647(2) 0.4318(2) 0.703(2)
H8 H 0.6706 0.4287 0.5478
H9 H 0.7539 0.4143 0.8259
C5 C 0.803(2) 0.4732(2) 1.044(2)
C6 C 0.4557(10) 0.10423(12) 0.6269(9)
H10 H 0.4332 0.1122 0.4616
H11 H 0.2846 0.1050 0.6339
H12 H 0.5225 0.0808 0.6539
C7 C 0.6495(8) 0.12680(10) 0.8276(8)
C8 C 0.6976(10) 0.11580(12) 1.0865(9)
H13 H 0.7710 0.0927 1.1180
H14 H 0.5300 0.1161 1.1003
H15 H 0.8235 0.1315 1.2108
C9 C 1.0077(9) 0.16018(10) 0.8952(10)
H16 H 1.1225 0.1675 0.8162
H17 H 1.1135 0.1599 1.0803
C10 C 0.7683(8) 0.18338(10) 0.8183(9)
H18 H 0.7969 0.1996 0.9582
C11 C 0.7024(7) 0.20314(9) 0.5775(8)
H19 H 0.8454 0.2199 0.6082
H20 H 0.6981 0.1871 0.4465
C12 C 0.4409(7) 0.22182(8) 0.4793(7)
H21 H 0.2948 0.2047 0.4308
C13 C 0.3788(6) 0.24596(9) 0.2581(7)
H22 H 0.2947 0.2330 0.0962
C14 C 0.1724(6) 0.26842(8) 0.2875(6)
H23 H 0.0072 0.2545 0.2314
C15 C 0.2818(6) 0.27276(8) 0.5760(6)
H24 H 0.1299 0.2726 0.6213
C16 C 0.4436(6) 0.30497(9) 0.6814(6)
H25 H 0.4705 0.3086 0.8584
C17 C 0.2887(7) 0.33448(9) 0.5187(6)
H26 H 0.1065 0.3328 0.5086
C18 C 0.2556(7) 0.32940(9) 0.2518(6)
H27 H 0.4338 0.3270 0.2538
C19 C 0.1089(8) 0.35921(9) 0.0853(7)
H28 H -0.0817 0.3579 0.0448
H29 H 0.1256 0.3582 -0.0744
C20 C 0.9286(8) 0.51049(9) 1.1224(7)
C21 C 0.9943(13) 0.52276(18) 1.3852(10)
H30 H 1.1195 0.5069 1.5082
H31 H 0.8317 0.5238 1.4078
H32 H 1.0744 0.5455 1.4101
C22 C 1.1866(9) 0.50630(12) 1.0978(10)
H33 H 1.1474 0.4973 0.9304
H34 H 1.3033 0.4904 1.2265
H35 H 1.2746 0.5285 1.1206
C23 C 0.7521(9) 0.53649(10) 0.9291(9)
H36 H 0.8406 0.5587 0.9643
H37 H 0.5830 0.5384 0.9392
H38 H 0.7194 0.5290 0.7598
O10? O 0.455(3) 0.3642(4) 0.612(4)
O11? O 0.649(2) 0.46918(17) 0.8617(15)
O12? O 0.7930(19) 0.4636(2) 1.2844(16)
C24? C 0.282(3) 0.3883(4) 0.193(3)
H39? H 0.2006 0.4090 0.0930
H40? H 0.4537 0.3843 0.1868
C25? C 0.329(3) 0.3935(3) 0.461(3)
H41? H 0.1548 0.3972 0.4650
C26? C 0.501(2) 0.4242(2) 0.5716(17)
H42? H 0.4307 0.4433 0.4512
H43? H 0.6817 0.4191 0.5906
C27? C 0.522(2) 0.43561(16) 0.8239(17)
H44? H 0.3441 0.4374 0.8200
H45? H 0.6313 0.4196 0.9589
C28? C 0.7980(18) 0.4799(2) 1.1234(15)
H46? H 0.1141 0.3376 0.5235
H47? H 0.0784 0.3553 -0.0907
H48? H -0.0642 0.3628 0.0883
loop_
_geom_bond_atom_site_label_1
_geom_bond_atom_site_label_2
_geom_bond_site_symmetry_1
_geom_bond_site_symmetry_2
O1 C7 1_555 1_555
O2 C7 1_555 1_555
O3 C12 1_555 1_555
O4 H1 1_555 1_555
O5 C14 1_555 1_555
O6 H2 1_555 1_555
O7 C2 1_555 1_555
O8 C4 1_555 1_555
O9 C5 1_555 1_555
C1 H3 1_555 1_555
H4 C1 1_555 1_555
C2 C1 1_555 1_555
H5 C2 1_555 1_555
C3 C2 1_555 1_555
H6 C3 1_555 1_555
H7 C3 1_555 1_555
C4 C3 1_555 1_555
H8 C4 1_555 1_555
H9 C4 1_555 1_555
C5 O8 1_555 1_555
C6 H10 1_555 1_555
H11 C6 1_555 1_555
H12 C6 1_555 1_555
C7 C6 1_555 1_555
C8 C7 1_555 1_555
H13 C8 1_555 1_555
H14 C8 1_555 1_555
H15 C8 1_555 1_555
C9 O1 1_555 1_555
H16 C9 1_555 1_555
H17 C9 1_555 1_555
C10 O2 1_555 1_555
H18 C10 1_555 1_555
C11 C10 1_555 1_555
H19 C11 1_555 1_555
H20 C11 1_555 1_555
C12 C11 1_555 1_555
H21 C12 1_555 1_555
C13 O4 1_555 1_555
H22 C13 1_555 1_555
C14 C13 1_555 1_555
H23 C14 1_555 1_555
C15 O3 1_555 1_555
H24 C15 1_555 1_555
C16 O6 1_555 1_555
H25 C16 1_555 1_555
C17 O7 1_555 1_555
H26 C17 1_555 1_555
C18 O5 1_555 1_555
H27 C18 1_555 1_555
C19 C1 1_555 1_555
H28 C19 1_555 1_555
H29 C19 1_555 1_555
C20 C5 1_555 1_555
C21 C20 1_555 1_555
H30 C21 1_555 1_555
H31 C21 1_555 1_555
H32 C21 1_555 1_555
C22 C20 1_555 1_555
H33 C22 1_555 1_555
H34 C22 1_555 1_555
H35 C22 1_555 1_555
C23 C20 1_555 1_555
H36 C23 1_555 1_555
H37 C23 1_555 1_555
H38 C23 1_555 1_555
C9 C10 1_555 1_555
C12 C13 1_555 1_555
C14 C15 1_555 1_555
C15 C16 1_555 1_555
C16 C17 1_555 1_555
C17 C18 1_555 1_555
C18 C19 1_555 1_555

#END
