
#######################################################################
#
#                 Cambridge Crystallographic Data Centre
#                                CCDC 
#
#######################################################################
#
# If this CIF has been generated from an entry in the Cambridge 
# Structural Database, then it will include bibliographic, chemical, 
# crystal, experimental, refinement or atomic coordinate data resulting 
# from the CCDC's data processing and validation procedures.
#
#######################################################################

data_CICNEI
_chemical_formula_moiety         'C22 H32 N4 S2 2+,2(Br1 1-),H2 O1'
_chemical_name_systematic        
"5,5'-(1,3-Phenylenedimethylene)bis(2-amino-4-t-butylthiazol-3-ium) dibromide monohydrate"
_symmetry_cell_setting           triclinic
_symmetry_space_group_name_H-M   'P -1'
_symmetry_Int_Tables_number      2
_space_group_name_Hall           '-P 1'
loop_
_symmetry_equiv_pos_site_id
_symmetry_equiv_pos_as_xyz
1 x,y,z
2 -x,-y,-z
_cell_length_a                   8.9104(5)
_cell_length_b                   9.9136(5)
_cell_length_c                   15.8574(8)
_cell_angle_alpha                87.7420(10)
_cell_angle_beta                 78.0190(10)
_cell_angle_gamma                71.8050(10)
_cell_volume                     1301.24
_exptl_crystal_colour            colorless
_exptl_crystal_description       block
_chemical_melting_point          463.6-464.5K
_cell_formula_units_Z            2
_exptl_crystal_recrystallization_method ethanol
loop_
_atom_site_label
_atom_site_type_symbol
_atom_site_fract_x
_atom_site_fract_y
_atom_site_fract_z
Br1 Br 0.25498(5) 1.24569(4) 1.18698(2)
Br2 Br 0.55055(6) 0.84294(4) 0.39514(3)
S1 S 0.22272(12) 0.85025(10) 0.96410(6)
S2 S 0.44511(11) 0.64652(10) 0.72660(6)
C1 C 0.2366(4) 0.9915(4) 1.0193(2)
C2 C 0.1230(4) 0.8691(4) 1.1295(2)
C3 C 0.1364(4) 0.7853(4) 1.0620(2)
C4 C 0.0552(4) 0.8669(4) 1.2255(2)
C5 C -0.0800(5) 1.0070(4) 1.2520(3)
H1 H -0.0359 1.0864 1.2405
H2 H -0.1266 1.0067 1.3136
H3 H -0.1640 1.0174 1.2187
C6 C 0.1913(5) 0.8533(5) 1.2740(3)
H4 H 0.2746 0.7612 1.2594
H5 H 0.1475 0.8603 1.3362
H6 H 0.2388 0.9297 1.2573
C7 C -0.0139(6) 0.7448(5) 1.2501(3)
H7 H -0.0946 0.7479 1.2158
H8 H -0.0647 0.7538 1.3115
H9 H 0.0732 0.6543 1.2386
C8 C 0.0896(5) 0.6526(4) 1.0542(3)
H10 H 0.0995 0.5981 1.1075
H11 H -0.0250 0.6808 1.0491
C9 C 0.1919(4) 0.5578(4) 0.9776(2)
C10 C 0.1505(4) 0.5771(4) 0.8974(2)
H12 H 0.0555 0.6504 0.8908
C11 C 0.2456(4) 0.4908(4) 0.8263(2)
C12 C 0.3822(5) 0.3825(4) 0.8373(3)
H13 H 0.4462 0.3210 0.7899
C13 C 0.4262(5) 0.3631(4) 0.9168(3)
H14 H 0.5213 0.2898 0.9233
C14 C 0.3320(5) 0.4501(4) 0.9872(3)
H15 H 0.3626 0.4365 1.0416
C15 C 0.2030(5) 0.5180(4) 0.7381(2)
H16 H 0.0853 0.5649 0.7452
H17 H 0.2305 0.4261 0.7069
C16 C 0.2921(4) 0.6108(4) 0.6849(2)
C17 C 0.2797(4) 0.6721(4) 0.6087(2)
C18 C 0.4898(4) 0.7414(4) 0.6372(2)
C19 C 0.1713(5) 0.6716(4) 0.5460(2)
C20 C 0.0880(6) 0.8264(5) 0.5248(3)
H18 H 0.0201 0.8782 0.5776
H19 H 0.0209 0.8277 0.4828
H20 H 0.1700 0.8717 0.5004
C21 C 0.2753(5) 0.5883(5) 0.4639(3)
H21 H 0.3551 0.6347 0.4371
H22 H 0.2064 0.5859 0.4236
H23 H 0.3311 0.4911 0.4785
C22 C 0.0409(5) 0.6038(5) 0.5842(3)
H24 H 0.0917 0.5035 0.5950
H25 H -0.0304 0.6113 0.5437
H26 H -0.0222 0.6532 0.6387
N1 N 0.1818(4) 0.9832(3) 1.10288(19)
H27 H 0.1822 1.0465 1.1402
N2 N 0.2944(4) 1.0916(3) 0.9839(2)
H28 H 0.2988 1.1597 1.0163
H29 H 0.3290 1.0906 0.9277
N3 N 0.3936(4) 0.7450(3) 0.58320(19)
H30 H 0.4003 0.7903 0.5344
N4 N 0.6064(4) 0.8003(3) 0.6226(2)
H31 H 0.6239 0.8455 0.5745
H32 H 0.6666 0.7943 0.6610
O1 O 0.4233(4) 1.0337(3) 0.80968(19)
H33 H 0.432(5) 1.054(5) 0.7559(10)
H34 H 0.513(3) 0.971(4) 0.814(2)
loop_
_geom_bond_atom_site_label_1
_geom_bond_atom_site_label_2
_geom_bond_site_symmetry_1
_geom_bond_site_symmetry_2
S1 C1 1_555 1_555
S2 C16 1_555 1_555
C1 N1 1_555 1_555
C2 C3 1_555 1_555
C3 S1 1_555 1_555
C4 C2 1_555 1_555
C5 C4 1_555 1_555
H1 C5 1_555 1_555
H2 C5 1_555 1_555
H3 C5 1_555 1_555
C6 C4 1_555 1_555
H4 C6 1_555 1_555
H5 C6 1_555 1_555
H6 C6 1_555 1_555
C7 C4 1_555 1_555
H7 C7 1_555 1_555
H8 C7 1_555 1_555
H9 C7 1_555 1_555
C8 C3 1_555 1_555
H10 C8 1_555 1_555
H11 C8 1_555 1_555
C9 C8 1_555 1_555
C10 C9 1_555 1_555
H12 C10 1_555 1_555
C11 C10 1_555 1_555
C12 C11 1_555 1_555
H13 C12 1_555 1_555
C13 C12 1_555 1_555
H14 C13 1_555 1_555
C14 C9 1_555 1_555
H15 C14 1_555 1_555
C15 C11 1_555 1_555
H16 C15 1_555 1_555
H17 C15 1_555 1_555
C16 C15 1_555 1_555
C17 C16 1_555 1_555
C18 S2 1_555 1_555
C19 C17 1_555 1_555
C20 C19 1_555 1_555
H18 C20 1_555 1_555
H19 C20 1_555 1_555
H20 C20 1_555 1_555
C21 C19 1_555 1_555
H21 C21 1_555 1_555
H22 C21 1_555 1_555
H23 C21 1_555 1_555
C22 C19 1_555 1_555
H24 C22 1_555 1_555
H25 C22 1_555 1_555
H26 C22 1_555 1_555
N1 C2 1_555 1_555
H27 N1 1_555 1_555
N2 C1 1_555 1_555
H28 N2 1_555 1_555
H29 N2 1_555 1_555
N3 C17 1_555 1_555
H30 N3 1_555 1_555
N4 C18 1_555 1_555
H31 N4 1_555 1_555
H32 N4 1_555 1_555
O1 H33 1_555 1_555
H34 O1 1_555 1_555
C13 C14 1_555 1_555
C18 N3 1_555 1_555

#END
