
#######################################################################
#
#                 Cambridge Crystallographic Data Centre
#                                CCDC 
#
#######################################################################
#
# If this CIF has been generated from an entry in the Cambridge 
# Structural Database, then it will include bibliographic, chemical, 
# crystal, experimental, refinement or atomic coordinate data resulting 
# from the CCDC's data processing and validation procedures.
#
#######################################################################

data_CICPAI
_chemical_formula_moiety         'C23 H19 B1 N2'
_chemical_name_systematic        
6,6-diphenyl-6,11-dihydro-5,6-benzo[c]pyrido[2,1-f][1,5,2]diazaborinine
_symmetry_cell_setting           triclinic
_symmetry_space_group_name_H-M   'P -1'
_symmetry_Int_Tables_number      2
_space_group_name_Hall           '-P 1'
loop_
_symmetry_equiv_pos_site_id
_symmetry_equiv_pos_as_xyz
1 x,y,z
2 -x,-y,-z
_cell_length_a                   9.5765(11)
_cell_length_b                   10.1909(12)
_cell_length_c                   10.8774(16)
_cell_angle_alpha                115.915(13)
_cell_angle_beta                 106.476(11)
_cell_angle_gamma                90.377(10)
_cell_volume                     905.061
_exptl_crystal_description       block
_cell_formula_units_Z            2
loop_
_atom_site_label
_atom_site_type_symbol
_atom_site_fract_x
_atom_site_fract_y
_atom_site_fract_z
N1 N 0.2348(2) 0.2219(3) 0.2851(2)
C1 C 0.2493(2) 0.1982(3) 0.5195(2)
C2 C 0.1566(2) -0.0314(3) 0.2598(3)
N2 N 0.1786(2) 0.0061(3) 0.0660(2)
H1 H 0.1554(2) -0.0304(3) -0.0262(2)
C3 C 0.1591(2) -0.0892(3) 0.1211(3)
C4 C -0.1263(3) 0.0720(3) 0.3085(3)
H2 H -0.1042(3) -0.0186(3) 0.3035(3)
C5 C 0.3941(3) 0.1723(3) 0.5583(3)
H3 H 0.4350(3) 0.1216(3) 0.4857(3)
C6 C -0.0143(3) 0.1734(3) 0.3287(2)
C7 C 0.2979(3) 0.3686(3) 0.3632(3)
H4 H 0.3047(3) 0.4175(3) 0.4601(3)
C8 C 0.2313(3) 0.1521(3) 0.1447(3)
C9 C 0.2809(3) 0.3230(3) 0.7751(3)
H5 H 0.2416(3) 0.3749(3) 0.8487(3)
C10 C 0.1955(3) 0.2745(3) 0.6319(3)
H6 H 0.0993(3) 0.2942(3) 0.6115(3)
C11 C 0.4219(3) 0.2943(3) 0.8075(3)
H7 H 0.4790(3) 0.3263(3) 0.9031(3)
C12 C 0.4789(3) 0.2184(3) 0.6988(3)
H8 H 0.5749(3) 0.1981(3) 0.7200(3)
C13 C -0.0569(3) 0.3049(3) 0.3352(3)
H9 H 0.0140(3) 0.3774(3) 0.3492(3)
C14 C 0.1423(2) -0.1293(3) 0.3113(3)
H10 H 0.1419(2) -0.0922(3) 0.4060(3)
C15 C -0.2699(3) 0.1000(4) 0.2956(3)
H11 H -0.3416(3) 0.0287(4) 0.2821(3)
C16 C -0.3066(3) 0.2314(4) 0.3025(3)
H12 H -0.4027(3) 0.2506(4) 0.2942(3)
C17 C 0.1465(3) -0.2415(4) 0.0380(3)
H13 H 0.1497(3) -0.2788(4) -0.0558(3)
B1 B 0.1557(3) 0.1415(3) 0.3515(3)
C18 C -0.2001(3) 0.3343(4) 0.3217(3)
H14 H -0.2235(3) 0.4242(4) 0.3259(3)
C19 C 0.2825(3) 0.2290(4) 0.0832(3)
H15 H 0.2769(3) 0.1802(4) -0.0134(3)
C20 C 0.3502(3) 0.4449(4) 0.3062(4)
H16 H 0.3922(3) 0.5435(4) 0.3632(4)
C21 C 0.1283(3) -0.2801(4) 0.2313(4)
H17 H 0.1180(3) -0.3429(4) 0.2706(4)
C22 C 0.1300(3) -0.3351(4) 0.0915(4)
H18 H 0.1197(3) -0.4364(4) 0.0344(4)
C23 C 0.3405(3) 0.3744(4) 0.1626(4)
H19 H 0.3731(3) 0.4256(4) 0.1206(4)
loop_
_geom_bond_atom_site_label_1
_geom_bond_atom_site_label_2
_geom_bond_site_symmetry_1
_geom_bond_site_symmetry_2
N1 C7 1_555 1_555
C1 C5 1_555 1_555
C2 C3 1_555 1_555
N2 H1 1_555 1_555
C3 N2 1_555 1_555
C4 H2 1_555 1_555
C5 H3 1_555 1_555
C6 C4 1_555 1_555
C7 H4 1_555 1_555
C8 N1 1_555 1_555
C9 H5 1_555 1_555
C10 C1 1_555 1_555
H6 C10 1_555 1_555
C11 C9 1_555 1_555
H7 C11 1_555 1_555
C12 C5 1_555 1_555
H8 C12 1_555 1_555
C13 C6 1_555 1_555
H9 C13 1_555 1_555
C14 C2 1_555 1_555
H10 C14 1_555 1_555
C15 C4 1_555 1_555
H11 C15 1_555 1_555
C16 C15 1_555 1_555
H12 C16 1_555 1_555
C17 C3 1_555 1_555
H13 C17 1_555 1_555
B1 N1 1_555 1_555
C18 C13 1_555 1_555
H14 C18 1_555 1_555
C19 C8 1_555 1_555
H15 C19 1_555 1_555
C20 C7 1_555 1_555
H16 C20 1_555 1_555
C21 C14 1_555 1_555
H17 C21 1_555 1_555
C22 C17 1_555 1_555
H18 C22 1_555 1_555
C23 C19 1_555 1_555
H19 C23 1_555 1_555
C1 B1 1_555 1_555
C2 B1 1_555 1_555
N2 C8 1_555 1_555
C6 B1 1_555 1_555
C9 C10 1_555 1_555
C11 C12 1_555 1_555
C16 C18 1_555 1_555
C20 C23 1_555 1_555
C21 C22 1_555 1_555

#END
