
#######################################################################
#
#                 Cambridge Crystallographic Data Centre
#                                CCDC 
#
#######################################################################
#
# If this CIF has been generated from an entry in the Cambridge 
# Structural Database, then it will include bibliographic, chemical, 
# crystal, experimental, refinement or atomic coordinate data resulting 
# from the CCDC's data processing and validation procedures.
#
#######################################################################

data_CICPUA
_chemical_formula_moiety         'C29 H22 F6 N4 S2'
_chemical_name_systematic        
1,2-bis(5-(2,2-Dicyanovinyl)-2-n-butyl-3-thienyl)-3,3,4,4,5,5-hexafluorocyclopent-1-ene
_symmetry_cell_setting           monoclinic
_symmetry_space_group_name_H-M   'C 2/c'
_symmetry_Int_Tables_number      15
_space_group_name_Hall           '-C 2yn'
loop_
_symmetry_equiv_pos_site_id
_symmetry_equiv_pos_as_xyz
1 x,y,z
2 1/2+x,1/2+y,z
3 -x,y,1/2-z
4 1/2-x,1/2+y,1/2-z
5 -x,-y,-z
6 1/2-x,1/2-y,-z
7 x,-y,1/2+z
8 1/2+x,1/2-y,1/2+z
_cell_length_a                   20.8617(17)
_cell_length_b                   8.9036(7)
_cell_length_c                   31.734(3)
_cell_angle_alpha                90
_cell_angle_beta                 91.801(10)
_cell_angle_gamma                90
_cell_volume                     5891.5
_exptl_crystal_colour            yellow
_exptl_crystal_description       block
_chemical_melting_point          '403 K'
_cell_formula_units_Z            8
_chemical_properties_physical    light-sensitive
_exptl_crystal_recrystallization_method 'diethyl ether/hexane'
_exptl_crystal_preparation       photochromic
loop_
_atom_site_label
_atom_site_type_symbol
_atom_site_fract_x
_atom_site_fract_y
_atom_site_fract_z
S1 S 0.34614(3) 0.94519(7) 0.065367(18)
S2 S 0.14181(3) 0.60393(7) 0.140966(18)
F1 F 0.42234(9) 0.9638(2) 0.21678(5)
F2 F 0.45948(7) 0.7450(3) 0.20272(5)
F3 F 0.40242(8) 0.8486(2) 0.28890(5)
F4 F 0.40837(8) 0.62479(19) 0.26488(5)
F5 F 0.28255(7) 0.86621(19) 0.27031(4)
F6 F 0.28808(8) 0.62501(19) 0.26922(4)
N1 N 0.51996(15) 0.6334(3) -0.04852(9)
N2 N 0.39603(15) 1.0267(4) -0.03025(8)
N3 N -0.00732(13) 0.5521(4) 0.11051(9)
N4 N -0.10277(13) 0.8596(4) 0.19571(10)
C1 C 0.40108(11) 0.8007(3) 0.07207(7)
C2 C 0.40147(11) 0.7500(3) 0.11275(7)
H1 H 0.4282 0.6732 0.1226
C3 C 0.35760(10) 0.8250(3) 0.13843(7)
C4 C 0.32340(10) 0.9344(3) 0.11691(7)
C5 C 0.44063(11) 0.7407(3) 0.04009(7)
H2 H 0.4642 0.6560 0.0480
C6 C 0.44910(12) 0.7877(3) 0.00030(8)
C7 C 0.48911(15) 0.7033(3) -0.02698(9)
C8 C 0.41933(14) 0.9200(4) -0.01715(8)
C9 C 0.27335(11) 1.0394(3) 0.13239(7)
H3 H 0.2893 1.1414 0.1304
H4 H 0.2666 1.0185 0.1619
C10 C 0.20903(11) 1.0292(3) 0.10836(7)
H5 H 0.2155 1.0516 0.0789
H6 H 0.1933 0.9270 0.1100
C11 C 0.15891(13) 1.1340(4) 0.12458(10)
H7 H 0.1532 1.1124 0.1542
H8 H 0.1748 1.2361 0.1226
C12 C 0.09494(14) 1.1258(4) 0.10217(11)
H9 H 0.0998 1.1470 0.0728
H10 H 0.0666 1.1982 0.1140
H11 H 0.0774 1.0269 0.1053
C13 C 0.35057(10) 0.7935(2) 0.18383(7)
C14 C 0.40648(12) 0.8170(3) 0.21406(7)
C15 C 0.38374(12) 0.7624(3) 0.25679(7)
C16 C 0.31102(11) 0.7497(3) 0.25091(7)
C17 C 0.29797(10) 0.7518(2) 0.20414(6)
C18 C 0.22207(10) 0.6157(2) 0.15356(6)
C19 C 0.23383(10) 0.7151(2) 0.18654(6)
C20 C 0.17678(11) 0.7758(3) 0.20215(7)
H12 H 0.1761 0.8417 0.2249
C21 C 0.12248(11) 0.7285(3) 0.18066(7)
C22 C 0.05937(11) 0.7794(3) 0.18969(8)
H13 H 0.0572 0.8483 0.2116
C23 C 0.00241(11) 0.7422(3) 0.17107(8)
C24 C -0.00339(12) 0.6364(4) 0.13732(9)
C25 C -0.05601(14) 0.8085(4) 0.18485(9)
C26 C 0.26755(11) 0.5151(3) 0.13119(7)
H14 H 0.2590 0.4119 0.1390
H15 H 0.3110 0.5387 0.1408
C27 C 0.26367(12) 0.5275(3) 0.08337(7)
H16 H 0.2200 0.5077 0.0736
H17 H 0.2744 0.6293 0.0753
C28 C 0.30844(15) 0.4190(3) 0.06202(8)
H18 H 0.3518 0.4358 0.0728
H19 H 0.2965 0.3171 0.0693
C29 C 0.30730(18) 0.4343(5) 0.01458(9)
H20 H 0.2647 0.4148 0.0035
H21 H 0.3366 0.3634 0.0030
H22 H 0.3198 0.5343 0.0071
loop_
_geom_bond_atom_site_label_1
_geom_bond_atom_site_label_2
_geom_bond_site_symmetry_1
_geom_bond_site_symmetry_2
S1 C1 1_555 1_555
S2 C18 1_555 1_555
F1 C14 1_555 1_555
F2 C14 1_555 1_555
F3 C15 1_555 1_555
F4 C15 1_555 1_555
F5 C16 1_555 1_555
F6 C16 1_555 1_555
N1 C7 1_555 1_555
N2 C8 1_555 1_555
N3 C24 1_555 1_555
N4 C25 1_555 1_555
C1 C2 1_555 1_555
C2 H1 1_555 1_555
C3 C2 1_555 1_555
C4 S1 1_555 1_555
C5 C1 1_555 1_555
H2 C5 1_555 1_555
C6 C5 1_555 1_555
C7 C6 1_555 1_555
C8 C6 1_555 1_555
C9 C4 1_555 1_555
H3 C9 1_555 1_555
H4 C9 1_555 1_555
C10 C9 1_555 1_555
H5 C10 1_555 1_555
H6 C10 1_555 1_555
C11 C10 1_555 1_555
H7 C11 1_555 1_555
H8 C11 1_555 1_555
C12 C11 1_555 1_555
H9 C12 1_555 1_555
H10 C12 1_555 1_555
H11 C12 1_555 1_555
C13 C3 1_555 1_555
C14 C13 1_555 1_555
C15 C14 1_555 1_555
C16 C15 1_555 1_555
C17 C13 1_555 1_555
C18 C19 1_555 1_555
C19 C17 1_555 1_555
C20 C19 1_555 1_555
H12 C20 1_555 1_555
C21 S2 1_555 1_555
C22 C21 1_555 1_555
H13 C22 1_555 1_555
C23 C22 1_555 1_555
C24 C23 1_555 1_555
C25 C23 1_555 1_555
C26 C18 1_555 1_555
H14 C26 1_555 1_555
H15 C26 1_555 1_555
C27 C26 1_555 1_555
H16 C27 1_555 1_555
H17 C27 1_555 1_555
C28 C27 1_555 1_555
H18 C28 1_555 1_555
H19 C28 1_555 1_555
C29 C28 1_555 1_555
H20 C29 1_555 1_555
H21 C29 1_555 1_555
H22 C29 1_555 1_555
C3 C4 1_555 1_555
C16 C17 1_555 1_555
C20 C21 1_555 1_555

#END
