
#######################################################################
#
#                 Cambridge Crystallographic Data Centre
#                                CCDC 
#
#######################################################################
#
# If this CIF has been generated from an entry in the Cambridge 
# Structural Database, then it will include bibliographic, chemical, 
# crystal, experimental, refinement or atomic coordinate data resulting 
# from the CCDC's data processing and validation procedures.
#
#######################################################################

data_CICQIQ03
_chemical_formula_moiety         'C10 H10 I1 N2 1+,F6 P1 1-'
_chemical_name_systematic        'di(pyridin-1-yl)iodonium hexafluorophosphate'
_symmetry_cell_setting           monoclinic
_symmetry_space_group_name_H-M   'C 2/m'
_symmetry_Int_Tables_number      12
_space_group_name_Hall           '-C 2y'
loop_
_symmetry_equiv_pos_site_id
_symmetry_equiv_pos_as_xyz
1 x,y,z
2 -x,y,-z
3 1/2+x,1/2+y,z
4 1/2-x,1/2+y,-z
5 -x,-y,-z
6 x,-y,z
7 1/2-x,1/2-y,-z
8 1/2+x,1/2-y,z
_cell_length_a                   13.6827(6)
_cell_length_b                   6.7491(3)
_cell_length_c                   8.4045(3)
_cell_angle_alpha                90
_cell_angle_beta                 106.045(4)
_cell_angle_gamma                90
_cell_volume                     745.887
_exptl_crystal_colour            colorless
_exptl_crystal_description       block
_cell_formula_units_Z            2
_chemical_properties_physical    Moisture-sensitive
loop_
_atom_site_label
_atom_site_type_symbol
_atom_site_fract_x
_atom_site_fract_y
_atom_site_fract_z
I1 I 0.000 0.500 0.500
N1 N 0.14688(17) 0.500 0.4247(3)
C1 C 0.2362(2) 0.500 0.5425(4)
H1 H 0.2364 0.500 0.6556
C2 C 0.3272(2) 0.500 0.5031(4)
H2 H 0.3897 0.500 0.5879
C3 C 0.3265(3) 0.500 0.3388(5)
H3 H 0.3886 0.500 0.3091
C4 C 0.2345(3) 0.500 0.2173(4)
H4 H 0.2327 0.500 0.1035
C5 C 0.1451(2) 0.500 0.2641(4)
H5 H 0.0816 0.500 0.1815
N1A N -0.14688(17) 0.500 0.5753(3)
C1A C -0.2362(2) 0.500 0.4575(4)
H1A H -0.2364 0.500 0.3444
C2A C -0.3272(2) 0.500 0.4969(4)
H2A H -0.3897 0.500 0.4121
C3A C -0.3265(3) 0.500 0.6612(5)
H3A H -0.3886 0.500 0.6909
C4A C -0.2345(3) 0.500 0.7827(4)
H4A H -0.2327 0.500 0.8965
C5A C -0.1451(2) 0.500 0.7359(4)
H5A H -0.0816 0.500 0.8185
P1 P 0.500 0.500 1
F1 F 0.48437(15) 0.6653(3) 1.1252(2)
F2 F 0.61902(16) 0.500 1.0832(3)
F1A F 0.51563(15) 0.6653(3) 0.8748(2)
F2A F 0.38098(16) 0.500 0.9168(3)
F1D F 0.51563(15) 0.3347(3) 0.8748(2)
F1E F 0.48437(15) 0.3347(3) 1.1252(2)
loop_
_geom_bond_atom_site_label_1
_geom_bond_atom_site_label_2
_geom_bond_site_symmetry_1
_geom_bond_site_symmetry_2
I1 N1 1_555 1_555
N1 C1 1_555 1_555
C1 H1 1_555 1_555
C2 C1 1_555 1_555
H2 C2 1_555 1_555
C3 C2 1_555 1_555
H3 C3 1_555 1_555
C4 C3 1_555 1_555
H4 C4 1_555 1_555
C5 N1 1_555 1_555
H5 C5 1_555 1_555
P1 F1 1_555 1_555
F2 P1 1_555 1_555
N1A I1 1_555 1_555
C1A N1A 1_555 1_555
H1A C1A 1_555 1_555
C2A C1A 1_555 1_555
H2A C2A 1_555 1_555
C3A C2A 1_555 1_555
H3A C3A 1_555 1_555
C4A C3A 1_555 1_555
H4A C4A 1_555 1_555
C5A N1A 1_555 1_555
H5A C5A 1_555 1_555
F1A P1 1_555 1_555
F2A P1 1_555 1_555
F1D P1 1_555 1_555
F1E P1 1_555 1_555
C4 C5 1_555 1_555
C4A C5A 1_555 1_555

#END
