
#######################################################################
#
#                 Cambridge Crystallographic Data Centre
#                                CCDC 
#
#######################################################################
#
# If this CIF has been generated from an entry in the Cambridge 
# Structural Database, then it will include bibliographic, chemical, 
# crystal, experimental, refinement or atomic coordinate data resulting 
# from the CCDC's data processing and validation procedures.
#
#######################################################################

data_CICQUC
_chemical_formula_moiety         'C19 H25 N1 O5'
_chemical_name_systematic        
'Benzyl (3-t-butyl-4-formyl-2-nitrocyclopentyl)acetate'
_symmetry_cell_setting           orthorhombic
_symmetry_space_group_name_H-M   'P 21 21 21'
_symmetry_Int_Tables_number      19
_space_group_name_Hall           'P 2ac 2ab'
loop_
_symmetry_equiv_pos_site_id
_symmetry_equiv_pos_as_xyz
1 x,y,z
2 1/2-x,-y,1/2+z
3 1/2+x,1/2-y,-z
4 -x,1/2+y,1/2-z
_cell_length_a                   6.4665(3)
_cell_length_b                   16.4511(6)
_cell_length_c                   17.4551(7)
_cell_angle_alpha                90
_cell_angle_beta                 90
_cell_angle_gamma                90
_cell_volume                     1856.89
_cell_formula_units_Z            4
loop_
_atom_site_label
_atom_site_type_symbol
_atom_site_fract_x
_atom_site_fract_y
_atom_site_fract_z
O1 O 0.9371(2) 0.14709(6) 0.11341(7)
O2 O 0.9085(2) 0.28069(7) 0.13462(8)
O3 O 1.7081(3) 0.28970(11) 0.42109(10)
O4 O 1.5394(2) 0.18747(8) 0.23435(10)
O5 O 1.4191(3) 0.22385(12) 0.12566(9)
N1 N 1.4405(2) 0.23325(9) 0.19436(9)
C1 C 0.8217(3) 0.07669(11) 0.00170(9)
C2 C 0.9649(3) 0.01495(12) 0.00657(11)
H1 H 1.0917 0.0241 0.0327
C3 C 0.9266(5) -0.06015(13) -0.02611(12)
H2 H 1.0267 -0.1022 -0.0222
C4 C 0.7464(6) -0.07382(15) -0.06377(12)
H3 H 0.7207 -0.1254 -0.0863
C5 C 0.6035(5) -0.01414(17) -0.06928(13)
H4 H 0.4777 -0.0239 -0.0958
C6 C 0.6398(4) 0.06218(15) -0.03600(12)
H5 H 0.5382 0.1037 -0.0396
C7 C 0.8625(4) 0.15870(11) 0.03590(10)
H6 H 0.9672 0.1881 0.0051
H7 H 0.7338 0.1913 0.0364
C8 C 0.9538(3) 0.21395(10) 0.15586(10)
C9 C 1.0345(3) 0.19417(10) 0.23498(10)
H8 H 1.1347 0.1489 0.2310
H9 H 0.9180 0.1756 0.2673
C10 C 1.1390(2) 0.26588(9) 0.27375(9)
H10 H 1.0334 0.3100 0.2788
C11 C 1.2204(3) 0.24761(11) 0.35381(9)
H11 H 1.2935 0.1947 0.3550
H12 H 1.1063 0.2465 0.3916
C12 C 1.3702(3) 0.31807(9) 0.37044(8)
H13 H 1.2886 0.3643 0.3920
C13 C 1.4607(2) 0.34505(8) 0.29241(7)
H14 H 1.6037 0.3223 0.2886
C14 C 1.3271(2) 0.30229(8) 0.23163(8)
H15 H 1.2803 0.3422 0.1921
C15 C 1.5273(4) 0.29279(11) 0.42877(10)
H16 H 1.4751 0.2775 0.4776
C16 C 1.4765(3) 0.43837(8) 0.28067(9)
C17 C 1.6032(4) 0.47492(11) 0.34630(12)
H17 H 1.6139 0.5339 0.3393
H18 H 1.7420 0.4510 0.3464
H19 H 1.5349 0.4633 0.3952
C18 C 1.5911(3) 0.45477(11) 0.20576(11)
H20 H 1.6021 0.5136 0.1977
H21 H 1.5149 0.4302 0.1631
H22 H 1.7300 0.4311 0.2085
C19 C 1.2634(3) 0.47855(10) 0.27830(12)
H23 H 1.2796 0.5372 0.2708
H24 H 1.1911 0.4684 0.3267
H25 H 1.1830 0.4557 0.2358
loop_
_geom_bond_atom_site_label_1
_geom_bond_atom_site_label_2
_geom_bond_site_symmetry_1
_geom_bond_site_symmetry_2
O1 C7 1_555 1_555
O2 C8 1_555 1_555
O3 C15 1_555 1_555
O4 N1 1_555 1_555
O5 N1 1_555 1_555
N1 C14 1_555 1_555
C1 C2 1_555 1_555
C2 H1 1_555 1_555
C3 C2 1_555 1_555
H2 C3 1_555 1_555
C4 C3 1_555 1_555
H3 C4 1_555 1_555
C5 C4 1_555 1_555
H4 C5 1_555 1_555
C6 C1 1_555 1_555
H5 C6 1_555 1_555
C7 C1 1_555 1_555
H6 C7 1_555 1_555
H7 C7 1_555 1_555
C8 O1 1_555 1_555
C9 C8 1_555 1_555
H8 C9 1_555 1_555
H9 C9 1_555 1_555
C10 C9 1_555 1_555
H10 C10 1_555 1_555
C11 C10 1_555 1_555
H11 C11 1_555 1_555
H12 C11 1_555 1_555
C12 C11 1_555 1_555
H13 C12 1_555 1_555
C13 C12 1_555 1_555
H14 C13 1_555 1_555
C14 C10 1_555 1_555
H15 C14 1_555 1_555
C15 C12 1_555 1_555
H16 C15 1_555 1_555
C16 C13 1_555 1_555
C17 C16 1_555 1_555
H17 C17 1_555 1_555
H18 C17 1_555 1_555
H19 C17 1_555 1_555
C18 C16 1_555 1_555
H20 C18 1_555 1_555
H21 C18 1_555 1_555
H22 C18 1_555 1_555
C19 C16 1_555 1_555
H23 C19 1_555 1_555
H24 C19 1_555 1_555
H25 C19 1_555 1_555
C5 C6 1_555 1_555
C13 C14 1_555 1_555

#END
