
#######################################################################
#
#                 Cambridge Crystallographic Data Centre
#                                CCDC 
#
#######################################################################
#
# If this CIF has been generated from an entry in the Cambridge 
# Structural Database, then it will include bibliographic, chemical, 
# crystal, experimental, refinement or atomic coordinate data resulting 
# from the CCDC's data processing and validation procedures.
#
#######################################################################

data_CICRIS
_chemical_formula_moiety         'C15 H14 Cl1 I1 N6 O1'
_chemical_name_systematic        
5-({4-[(4-chlorophenoxy)methyl]-5-iodo-1H-1,2,3-triazol-1-yl}methyl)-2-methylpyrimidin-4-amine
_symmetry_cell_setting           monoclinic
_symmetry_space_group_name_H-M   'P 21/n'
_symmetry_Int_Tables_number      14
_space_group_name_Hall           '-P 2yn'
loop_
_symmetry_equiv_pos_site_id
_symmetry_equiv_pos_as_xyz
1 x,y,z
2 1/2-x,1/2+y,1/2-z
3 -x,-y,-z
4 1/2+x,1/2-y,1/2+z
_cell_length_a                   12.9548(10)
_cell_length_b                   14.6217(12)
_cell_length_c                   18.9683(15)
_cell_angle_alpha                90
_cell_angle_beta                 106.9210(10)
_cell_angle_gamma                90
_cell_volume                     3437.45
_cell_formula_units_Z            8
loop_
_atom_site_label
_atom_site_type_symbol
_atom_site_fract_x
_atom_site_fract_y
_atom_site_fract_z
C1 C 0.6385(3) 0.7011(2) 1.18564(19)
C2 C 0.5786(3) 0.6995(2) 1.06089(18)
H1 H 0.5916 0.6896 1.0158
C3 C 0.4764(3) 0.7237(2) 1.06011(17)
C4 C 0.4608(3) 0.7366(2) 1.13048(18)
C5 C 0.7278(3) 0.6883(3) 1.2556(2)
H2 H 0.7473 0.7465 1.2792
H3 H 0.7892 0.6621 1.2446
H4 H 0.7041 0.6482 1.2879
C6 C 0.3861(3) 0.7324(2) 0.98961(18)
H5 H 0.4055 0.6996 0.9509
H6 H 0.3218 0.7039 0.9961
C7 C 0.4120(3) 0.8844(2) 0.93072(17)
C8 C 0.3647(3) 0.9679(3) 0.93162(18)
C9 C 0.3965(4) 1.0578(3) 0.9064(2)
H7 H 0.3481 1.1047 0.9143
H8 H 0.4687 1.0731 0.9366
C10 C 0.2954(4) 1.0619(3) 0.7787(2)
C11 C 0.2981(4) 1.0467(3) 0.7075(2)
H9 H 0.3635 1.0388 0.6972
C12 C 0.2015(6) 1.0435(3) 0.6516(3)
H10 H 0.2019 1.0313 0.6035
C13 C 0.1057(5) 1.0581(3) 0.6665(3)
C14 C 0.1047(4) 1.0782(4) 0.7373(3)
H11 H 0.0399 1.0912 0.7469
C15 C 0.1998(4) 1.0791(3) 0.7937(2)
H12 H 0.1992 1.0913 0.8417
Cl1 Cl -0.01492(16) 1.04691(13) 0.59745(9)
I1 I 0.536907(19) 0.843942(17) 0.889552(12)
N1 N 0.6618(2) 0.6888(2) 1.12209(16)
N2 N 0.5422(2) 0.7242(2) 1.19239(15)
N3 N 0.3645(2) 0.7601(3) 1.13891(17)
H13 H 0.3075 0.7805 1.0974
H14 H 0.3703 0.7633 1.1868
N4 N 0.3614(2) 0.8278(2) 0.96652(15)
N5 N 0.2851(3) 0.8746(2) 0.98782(18)
N6 N 0.2877(3) 0.9593(2) 0.96637(18)
O1 O 0.3944(3) 1.0593(2) 0.83105(16)
C16 C 0.2481(3) 0.7379(2) 0.29908(19)
C17 C 0.3093(3) 0.7037(3) 0.42048(19)
H15 H 0.2955 0.6849 0.4637
C18 C 0.4134(3) 0.7207(2) 0.42300(17)
C19 C 0.4310(3) 0.7445(2) 0.35541(18)
C20 C 0.1569(3) 0.7498(3) 0.2305(2)
H16 H 0.0901 0.7364 0.2407
H17 H 0.1661 0.7088 0.1932
H18 H 0.1558 0.8117 0.2135
C21 C 0.5032(3) 0.7104(2) 0.49364(19)
H19 H 0.4765 0.6775 0.5292
H20 H 0.5608 0.6745 0.4844
C22 C 0.5041(3) 0.8610(2) 0.56227(17)
C23 C 0.5746(3) 0.9326(2) 0.57373(17)
C24 C 0.5712(3) 1.0218(3) 0.6116(2)
H21 H 0.6277 1.0611 0.6046
H22 H 0.5026 1.0513 0.5885
C25 C 0.6881(3) 1.0064(2) 0.73570(19)
C26 C 0.6993(3) 1.0249(2) 0.8088(2)
H23 H 0.6389 1.0402 0.8233
C27 C 0.7987(4) 1.0209(3) 0.8603(2)
H24 H 0.8060 1.0343 0.9095
C28 C 0.8883(3) 0.9966(2) 0.8382(2)
C29 C 0.8769(3) 0.9746(3) 0.7657(2)
H25 H 0.9364 0.9557 0.7515
C30 C 0.7765(3) 0.9808(3) 0.7138(2)
H26 H 0.7688 0.9678 0.6646
Cl2 Cl 1.01623(9) 0.99407(8) 0.90118(6)
I2 I 0.363906(18) 0.841044(16) 0.592893(13)
N7 N 0.2249(2) 0.7121(2) 0.35982(16)
N8 N 0.3474(2) 0.7537(2) 0.29387(15)
N9 N 0.5295(2) 0.7588(3) 0.34805(17)
H27 H 0.5283 0.7479 0.3017
H28 H 0.5836 0.7711 0.3818
N10 N 0.5462(2) 0.7992(2) 0.52478(14)
N11 N 0.6371(2) 0.8312(2) 0.51315(17)
N12 N 0.6544(2) 0.9128(2) 0.54296(17)
O2 O 0.5842(2) 1.01375(19) 0.68884(14)
loop_
_geom_bond_atom_site_label_1
_geom_bond_atom_site_label_2
_geom_bond_site_symmetry_1
_geom_bond_site_symmetry_2
C1 C5 1_555 1_555
C2 H1 1_555 1_555
C3 C2 1_555 1_555
C4 C3 1_555 1_555
C5 H2 1_555 1_555
H3 C5 1_555 1_555
H4 C5 1_555 1_555
C6 C3 1_555 1_555
H5 C6 1_555 1_555
H6 C6 1_555 1_555
C7 C8 1_555 1_555
C8 C9 1_555 1_555
C9 H7 1_555 1_555
H8 C9 1_555 1_555
C10 C11 1_555 1_555
C11 H9 1_555 1_555
C12 C11 1_555 1_555
H10 C12 1_555 1_555
C13 C12 1_555 1_555
C14 C13 1_555 1_555
H11 C14 1_555 1_555
C15 C10 1_555 1_555
H12 C15 1_555 1_555
Cl1 C13 1_555 1_555
I1 C7 1_555 1_555
N1 C1 1_555 1_555
N2 C1 1_555 1_555
N3 C4 1_555 1_555
H13 N3 1_555 1_555
H14 N3 1_555 1_555
N4 C6 1_555 1_555
N5 N4 1_555 1_555
N6 C8 1_555 1_555
O1 C9 1_555 1_555
C16 C20 1_555 1_555
C17 H15 1_555 1_555
C18 C17 1_555 1_555
C19 C18 1_555 1_555
C20 H16 1_555 1_555
H17 C20 1_555 1_555
H18 C20 1_555 1_555
C21 C18 1_555 1_555
H19 C21 1_555 1_555
H20 C21 1_555 1_555
C22 C23 1_555 1_555
C23 C24 1_555 1_555
C24 H21 1_555 1_555
H22 C24 1_555 1_555
C25 C26 1_555 1_555
C26 H23 1_555 1_555
C27 C26 1_555 1_555
H24 C27 1_555 1_555
C28 C27 1_555 1_555
C29 C28 1_555 1_555
H25 C29 1_555 1_555
C30 C25 1_555 1_555
H26 C30 1_555 1_555
Cl2 C28 1_555 1_555
I2 C22 1_555 1_555
N7 C16 1_555 1_555
N8 C16 1_555 1_555
N9 C19 1_555 1_555
H27 N9 1_555 1_555
H28 N9 1_555 1_555
N10 C21 1_555 1_555
N11 N10 1_555 1_555
N12 C23 1_555 1_555
O2 C24 1_555 1_555
C2 N1 1_555 1_555
C4 N2 1_555 1_555
C7 N4 1_555 1_555
C10 O1 1_555 1_555
C14 C15 1_555 1_555
N5 N6 1_555 1_555
C17 N7 1_555 1_555
C19 N8 1_555 1_555
C22 N10 1_555 1_555
C25 O2 1_555 1_555
C29 C30 1_555 1_555
N11 N12 1_555 1_555

#END
