
#######################################################################
#
#                 Cambridge Crystallographic Data Centre
#                                CCDC 
#
#######################################################################
#
# If this CIF has been generated from an entry in the Cambridge 
# Structural Database, then it will include bibliographic, chemical, 
# crystal, experimental, refinement or atomic coordinate data resulting 
# from the CCDC's data processing and validation procedures.
#
#######################################################################

data_CICSIR
_chemical_formula_moiety         'C13 H14 N2 O2,H2 O1'
_chemical_name_systematic        
'1-(4-Aminophenyl)-2-ethyl-3-hydroxy-1,4-dihydropyridin-4-one monohydrate'
_symmetry_cell_setting           triclinic
_symmetry_space_group_name_H-M   'P -1'
_symmetry_Int_Tables_number      2
_space_group_name_Hall           '-P 1'
loop_
_symmetry_equiv_pos_site_id
_symmetry_equiv_pos_as_xyz
1 x,y,z
2 -x,-y,-z
_cell_length_a                   7.8992(14)
_cell_length_b                   8.0162(15)
_cell_length_c                   11.4759(19)
_cell_angle_alpha                96.835(2)
_cell_angle_beta                 106.273(2)
_cell_angle_gamma                113.143(3)
_cell_volume                     619.435
_exptl_crystal_colour            yellow
_exptl_crystal_description       plate
_cell_formula_units_Z            2
_exptl_crystal_recrystallization_method methanol/water
loop_
_atom_site_label
_atom_site_type_symbol
_atom_site_fract_x
_atom_site_fract_y
_atom_site_fract_z
N1 N 0.2932(2) 0.4626(2) 0.13373(15)
N2 N 0.2456(4) 1.0252(4) 0.4479(2)
O1 O 0.3004(2) 0.02104(19) -0.07892(12)
O2 O 0.6375(2) 0.2808(2) 0.11625(14)
H1 H 0.6220 0.1884 0.0671
C1 C 0.4659(3) 0.4445(3) 0.15894(17)
C2 C 0.4666(3) 0.2958(3) 0.08741(17)
C3 C 0.2953(3) 0.1587(3) -0.01476(17)
C4 C 0.1269(3) 0.1900(3) -0.03696(19)
H4 H 0.0120 0.1085 -0.1040
C5 C 0.1280(3) 0.3360(3) 0.0369(2)
H5 H 0.0128 0.3498 0.0209
C6 C 0.2799(3) 0.6082(3) 0.21302(18)
C7 C 0.1834(3) 0.5618(3) 0.2967(2)
H6 H 0.1250 0.4377 0.3004
C8 C 0.1741(3) 0.6998(3) 0.3745(2)
H7 H 0.1093 0.6679 0.4307
C9 C 0.2597(3) 0.8856(3) 0.37046(18)
C10 C 0.3514(3) 0.9284(3) 0.28396(19)
H8 H 0.4068 1.0518 0.2784
C11 C 0.3620(3) 0.7914(3) 0.20597(18)
H9 H 0.4246 0.8226 0.1486
C12 C 0.6474(3) 0.5818(3) 0.26744(18)
H10 H 0.6434 0.7017 0.2829
H11 H 0.7629 0.6010 0.2461
C13 C 0.6645(4) 0.5139(4) 0.3857(2)
H12 H 0.7824 0.6047 0.4528
H13 H 0.6702 0.3961 0.3711
H14 H 0.5519 0.4978 0.4083
H15 H 0.346(5) 1.136(5) 0.464(3)
H16 H 0.214(4) 0.983(4) 0.513(2)
O3 O 0.0972(2) 0.8939(2) 0.65506(14)
H2 H 0.1591 0.9252 0.7339
H3 H -0.0016 0.9169 0.6437
loop_
_geom_bond_atom_site_label_1
_geom_bond_atom_site_label_2
_geom_bond_site_symmetry_1
_geom_bond_site_symmetry_2
N1 C1 1_555 1_555
N2 C9 1_555 1_555
O1 C3 1_555 1_555
O2 H1 1_555 1_555
O3 H2 1_555 1_555
H3 O3 1_555 1_555
C1 C2 1_555 1_555
C2 O2 1_555 1_555
C3 C2 1_555 1_555
C4 C3 1_555 1_555
H4 C4 1_555 1_555
C5 N1 1_555 1_555
H5 C5 1_555 1_555
C6 N1 1_555 1_555
C7 C6 1_555 1_555
H6 C7 1_555 1_555
C8 C7 1_555 1_555
H7 C8 1_555 1_555
C9 C8 1_555 1_555
C10 C9 1_555 1_555
H8 C10 1_555 1_555
C11 C6 1_555 1_555
H9 C11 1_555 1_555
C12 C1 1_555 1_555
H10 C12 1_555 1_555
H11 C12 1_555 1_555
C13 C12 1_555 1_555
H12 C13 1_555 1_555
H13 C13 1_555 1_555
H14 C13 1_555 1_555
H15 N2 1_555 1_555
H16 N2 1_555 1_555
C4 C5 1_555 1_555
C10 C11 1_555 1_555

#END
