
#######################################################################
#
#                 Cambridge Crystallographic Data Centre
#                                CCDC 
#
#######################################################################
#
# If this CIF has been generated from an entry in the Cambridge 
# Structural Database, then it will include bibliographic, chemical, 
# crystal, experimental, refinement or atomic coordinate data resulting 
# from the CCDC's data processing and validation procedures.
#
#######################################################################

data_CICYOD
_chemical_formula_moiety         'C14 H14 N4 O2'
_chemical_name_systematic        N,N'-bis(4-Pyridylmethyl)oxalamide
_symmetry_cell_setting           monoclinic
_symmetry_space_group_name_H-M   'P 21/n'
_symmetry_Int_Tables_number      14
_space_group_name_Hall           '-P 2yn'
loop_
_symmetry_equiv_pos_site_id
_symmetry_equiv_pos_as_xyz
1 x,y,z
2 1/2-x,1/2+y,1/2-z
3 -x,-y,-z
4 1/2+x,1/2-y,1/2+z
_cell_length_a                   9.5188(4)
_cell_length_b                   15.4474(7)
_cell_length_c                   17.8238(8)
_cell_angle_alpha                90
_cell_angle_beta                 93.8330(10)
_cell_angle_gamma                90
_cell_volume                     2614.96
_exptl_crystal_colour            colorless
_exptl_crystal_description       rod
_cell_formula_units_Z            8
loop_
_atom_site_label
_atom_site_type_symbol
_atom_site_fract_x
_atom_site_fract_y
_atom_site_fract_z
O1 O 0.27862(14) 0.49834(8) 0.40856(7)
O2 O 0.02876(15) 0.65640(9) 0.35216(7)
N1 N 0.2152(2) 0.33400(15) 0.08532(12)
N2 N 0.23215(16) 0.56187(10) 0.29444(8)
H1 H 0.1746 0.5967 0.2681
N3 N 0.07727(16) 0.59737(10) 0.46793(8)
H2 H 0.1336 0.5622 0.4946
N4 N 0.11569(18) 0.80950(10) 0.68638(9)
C1 C 0.3346(3) 0.3791(2) 0.08474(15)
H3 H 0.3941 0.3685 0.0450
C2 C 0.3776(2) 0.44002(17) 0.13779(13)
H4 H 0.4635 0.4705 0.1338
C3 C 0.2945(2) 0.45641(12) 0.19686(10)
C4 C 0.1703(2) 0.41028(13) 0.19821(11)
H5 H 0.1092 0.4195 0.2375
C5 C 0.1352(2) 0.35056(15) 0.14220(13)
H6 H 0.0492 0.3196 0.1444
C6 C 0.3444(2) 0.51944(13) 0.25742(10)
H7 H 0.4050 0.4882 0.2957
H8 H 0.4029 0.5642 0.2349
C7 C 0.21346(19) 0.54981(11) 0.36692(10)
C8 C 0.09608(19) 0.60771(11) 0.39500(10)
C9 C -0.03317(19) 0.64233(12) 0.50485(10)
H9 H -0.0987 0.5991 0.5240
H10 H -0.0871 0.6788 0.4674
C10 C -0.0079(2) 0.76838(13) 0.68657(11)
H11 H -0.0644 0.7778 0.7278
C11 C -0.0578(2) 0.71299(13) 0.63022(10)
H12 H -0.1462 0.6851 0.6332
C12 C 0.02241(19) 0.69834(12) 0.56889(10)
C13 C 0.1509(2) 0.74020(12) 0.56878(10)
H13 H 0.2098 0.7319 0.5284
C14 C 0.1924(2) 0.79405(12) 0.62786(11)
H14 H 0.2812 0.8219 0.6268
O3 O 0.22234(14) 0.50284(8) 0.59179(7)
O4 O 0.46974(15) 0.34272(9) 0.64601(7)
N5 N 0.3074(2) 0.66508(13) 0.90842(11)
N6 N 0.26497(16) 0.43590(10) 0.70461(8)
H15 H 0.3209 0.3998 0.7305
N7 N 0.41804(16) 0.40165(10) 0.53061(8)
H16 H 0.3594 0.4354 0.5039
N8 N 0.38497(18) 0.17985(11) 0.32010(9)
C15 C 0.2681(2) 0.58569(16) 0.92753(12)
H17 H 0.2757 0.5706 0.9793
C16 C 0.2169(2) 0.52399(13) 0.87661(11)
H18 H 0.1884 0.4688 0.8936
C17 C 0.20756(19) 0.54329(12) 0.80063(10)
C18 C 0.2486(2) 0.62546(13) 0.78050(12)
H19 H 0.2442 0.6419 0.7290
C19 C 0.2962(2) 0.68374(14) 0.83530(13)
H20 H 0.3222 0.7401 0.8200
C20 C 0.1525(2) 0.47910(13) 0.74215(10)
H21 H 0.0954 0.4350 0.7664
H22 H 0.0902 0.5095 0.7041
C21 C 0.28526(19) 0.44946(11) 0.63280(10)
C22 C 0.40124(19) 0.39142(11) 0.60343(10)
C23 C 0.53094(19) 0.35846(12) 0.49355(10)
H23 H 0.5907 0.3262 0.5316
H24 H 0.5905 0.4027 0.4711
C24 C 0.4363(2) 0.25705(13) 0.30350(11)
H25 H 0.4409 0.2721 0.2521
C25 C 0.4831(2) 0.31632(12) 0.35749(10)
H26 H 0.5199 0.3705 0.3429
C26 C 0.47640(19) 0.29659(12) 0.43297(10)
C27 C 0.4224(2) 0.21695(14) 0.45048(11)
H27 H 0.4150 0.2005 0.5014
C28 C 0.3791(3) 0.16140(15) 0.39275(12)
H28 H 0.3429 0.1065 0.4057
loop_
_geom_bond_atom_site_label_1
_geom_bond_atom_site_label_2
_geom_bond_site_symmetry_1
_geom_bond_site_symmetry_2
O1 C7 1_555 1_555
O2 C8 1_555 1_555
N1 C1 1_555 1_555
N2 H1 1_555 1_555
N3 H2 1_555 1_555
N4 C10 1_555 1_555
C1 H3 1_555 1_555
C2 C1 1_555 1_555
H4 C2 1_555 1_555
C3 C2 1_555 1_555
C4 C3 1_555 1_555
H5 C4 1_555 1_555
C5 N1 1_555 1_555
H6 C5 1_555 1_555
C6 N2 1_555 1_555
H7 C6 1_555 1_555
H8 C6 1_555 1_555
C7 N2 1_555 1_555
C8 N3 1_555 1_555
C9 N3 1_555 1_555
H9 C9 1_555 1_555
H10 C9 1_555 1_555
C10 H11 1_555 1_555
C11 C10 1_555 1_555
H12 C11 1_555 1_555
C12 C9 1_555 1_555
C13 C12 1_555 1_555
H13 C13 1_555 1_555
C14 N4 1_555 1_555
H14 C14 1_555 1_555
O3 C21 1_555 1_555
O4 C22 1_555 1_555
N5 C15 1_555 1_555
N6 H15 1_555 1_555
N7 H16 1_555 1_555
N8 C24 1_555 1_555
C15 H17 1_555 1_555
C16 C15 1_555 1_555
H18 C16 1_555 1_555
C17 C16 1_555 1_555
C18 C17 1_555 1_555
H19 C18 1_555 1_555
C19 N5 1_555 1_555
H20 C19 1_555 1_555
C20 N6 1_555 1_555
H21 C20 1_555 1_555
H22 C20 1_555 1_555
C21 N6 1_555 1_555
C22 N7 1_555 1_555
C23 N7 1_555 1_555
H23 C23 1_555 1_555
H24 C23 1_555 1_555
C24 H25 1_555 1_555
C25 C24 1_555 1_555
H26 C25 1_555 1_555
C26 C23 1_555 1_555
C27 C26 1_555 1_555
H27 C27 1_555 1_555
C28 N8 1_555 1_555
H28 C28 1_555 1_555
C3 C6 1_555 1_555
C4 C5 1_555 1_555
C7 C8 1_555 1_555
C11 C12 1_555 1_555
C13 C14 1_555 1_555
C17 C20 1_555 1_555
C18 C19 1_555 1_555
C21 C22 1_555 1_555
C25 C26 1_555 1_555
C27 C28 1_555 1_555

#END
