
#######################################################################
#
#                 Cambridge Crystallographic Data Centre
#                                CCDC 
#
#######################################################################
#
# If this CIF has been generated from an entry in the Cambridge 
# Structural Database, then it will include bibliographic, chemical, 
# crystal, experimental, refinement or atomic coordinate data resulting 
# from the CCDC's data processing and validation procedures.
#
#######################################################################

data_CIDBIC
_chemical_formula_moiety         'C15 H19 Cl1 O4'
_chemical_name_systematic        
5-Chloro-6-hydroxy-7-methyl-3-methylene-6-(3-oxobut-1-en-1-yl)octahydro-2H-cyclohepta[b]furan-2-one
_symmetry_cell_setting           orthorhombic
_symmetry_space_group_name_H-M   'P 21 21 21'
_symmetry_Int_Tables_number      19
_space_group_name_Hall           'P 2ac 2ab'
loop_
_symmetry_equiv_pos_site_id
_symmetry_equiv_pos_as_xyz
1 x,y,z
2 1/2-x,-y,1/2+z
3 1/2+x,1/2-y,-z
4 -x,1/2+y,1/2-z
_cell_length_a                   7.2183(2)
_cell_length_b                   13.1818(6)
_cell_length_c                   15.7159(6)
_cell_angle_alpha                90
_cell_angle_beta                 90
_cell_angle_gamma                90
_cell_volume                     1495.37
_exptl_crystal_colour            colorless
_exptl_crystal_description       block
_cell_formula_units_Z            4
loop_
_atom_site_label
_atom_site_type_symbol
_atom_site_fract_x
_atom_site_fract_y
_atom_site_fract_z
Cl1 Cl 0.17085(8) 0.52466(5) 0.20118(4)
O1 O -0.3580(2) 0.57437(15) -0.01723(12)
O2 O -0.3102(3) 0.58845(18) -0.15663(12)
O3 O -0.1029(2) 0.78968(12) 0.20374(12)
H1 H -0.0056 0.8208 0.1971
O4 O 0.1692(3) 0.82878(16) 0.49046(12)
C1 C -0.0634(3) 0.68820(18) 0.22723(15)
C2 C 0.0015(3) 0.6814(2) 0.31853(15)
H2 H 0.0012 0.6176 0.3438
C3 C 0.0583(3) 0.7579(2) 0.36494(15)
H3 H 0.0543 0.8219 0.3401
C4 C 0.1276(3) 0.7516(2) 0.45274(16)
C5 C 0.0971(3) 0.65000(19) 0.16982(15)
H4 H 0.2023 0.6950 0.1812
C6 C 0.0661(3) 0.6534(2) 0.07430(15)
H5 H 0.1863 0.6546 0.0466
H6 H 0.0044 0.7167 0.0606
C7 C -0.0467(3) 0.5666(2) 0.03598(14)
H7 H 0.0131 0.5025 0.0514
C8 C -0.2514(3) 0.5609(2) 0.06237(15)
H8 H -0.2762 0.4928 0.0847
C9 C -0.3254(3) 0.63778(19) 0.12491(14)
H9 H -0.4591 0.6309 0.1276
H10 H -0.2984 0.7051 0.1034
C10 C -0.2475(3) 0.62925(19) 0.21554(14)
H11 H -0.2242 0.5574 0.2276
C11 C -0.0536(4) 0.5736(2) -0.05937(16)
C12 C -0.2481(4) 0.5794(2) -0.08572(18)
C13 C 0.0827(5) 0.5767(2) -0.11465(18)
H12 H 0.0571 0.5827 -0.1724
H13 H 0.2048 0.5728 -0.0960
C14 C -0.3908(3) 0.6682(2) 0.27935(17)
H14 H -0.3432 0.6610 0.3361
H15 H -0.5030 0.6296 0.2739
H16 H -0.4163 0.7384 0.2682
C15 C 0.1508(4) 0.6512(2) 0.49458(17)
H17 H 0.2545 0.6164 0.4698
H18 H 0.0406 0.6116 0.4866
H19 H 0.1724 0.6608 0.5543
loop_
_geom_bond_atom_site_label_1
_geom_bond_atom_site_label_2
_geom_bond_site_symmetry_1
_geom_bond_site_symmetry_2
Cl1 C5 1_555 1_555
O1 C8 1_555 1_555
O2 C12 1_555 1_555
O3 H1 1_555 1_555
O4 C4 1_555 1_555
C1 O3 1_555 1_555
C2 C1 1_555 1_555
H2 C2 1_555 1_555
C3 C2 1_555 1_555
H3 C3 1_555 1_555
C4 C3 1_555 1_555
C5 C1 1_555 1_555
H4 C5 1_555 1_555
C6 C5 1_555 1_555
H5 C6 1_555 1_555
H6 C6 1_555 1_555
C7 C6 1_555 1_555
H7 C7 1_555 1_555
C8 C7 1_555 1_555
H8 C8 1_555 1_555
C9 C8 1_555 1_555
H9 C9 1_555 1_555
H10 C9 1_555 1_555
C10 C1 1_555 1_555
H11 C10 1_555 1_555
C11 C7 1_555 1_555
C12 O1 1_555 1_555
C13 C11 1_555 1_555
H12 C13 1_555 1_555
H13 C13 1_555 1_555
C14 C10 1_555 1_555
H14 C14 1_555 1_555
H15 C14 1_555 1_555
H16 C14 1_555 1_555
C15 C4 1_555 1_555
H17 C15 1_555 1_555
H18 C15 1_555 1_555
H19 C15 1_555 1_555
C9 C10 1_555 1_555
C11 C12 1_555 1_555

#END
