
#######################################################################
#
#                 Cambridge Crystallographic Data Centre
#                                CCDC 
#
#######################################################################
#
# If this CIF has been generated from an entry in the Cambridge 
# Structural Database, then it will include bibliographic, chemical, 
# crystal, experimental, refinement or atomic coordinate data resulting 
# from the CCDC's data processing and validation procedures.
#
#######################################################################

data_CIDMOR
_chemical_formula_moiety         
'C24 H60 N8 O3 6+,N3 1-,Cl1 1-,4(F6 P1 1-),3(H2 O1)'
_chemical_name_systematic        
'7,19,30-Trioxa-1,13-diaza-4,10,16,22,27,33-hexa-azoniabicyclo(11.11.11)pentacontane azide chloride tetrakis(hexafluorophosphate) trihydrate'
_symmetry_cell_setting           monoclinic
_symmetry_space_group_name_H-M   'P 21/c'
_symmetry_Int_Tables_number      14
_space_group_name_Hall           '-P 2ybc'
loop_
_symmetry_equiv_pos_site_id
_symmetry_equiv_pos_as_xyz
1 x,y,z
2 -x,1/2+y,1/2-z
3 -x,-y,-z
4 x,1/2-y,1/2+z
_cell_length_a                   15.236(7)
_cell_length_b                   14.097(6)
_cell_length_c                   24.410(10)
_cell_angle_alpha                90
_cell_angle_beta                 90.67(8)
_cell_angle_gamma                90
_cell_volume                     5242.47
_chemical_melting_point          220deg.C.(dec.)
_cell_formula_units_Z            4
loop_
_atom_site_label
_atom_site_type_symbol
_atom_site_fract_x
_atom_site_fract_y
_atom_site_fract_z
N4 N 0.02390 0.28320 0.14620
N5 N 0.60320 0.25990 0.16740
C1 C -0.01050 0.23110 0.09730
C2 C 0.05630 0.24130 0.05000
N6 N 0.13360 0.18470 0.06080
C3 C 0.20060 0.20080 0.01870
C4 C 0.25220 0.11590 0.01720
O1 O 0.30650 0.10600 0.06800
C5 C 0.35420 0.02380 0.07030
C6 C 0.41810 0.02820 0.11590
N7 N 0.48050 0.11020 0.11100
C7 C 0.57300 0.09570 0.12970
C8 C 0.63000 0.18100 0.12700
C9 C -0.00190 0.38800 0.14620
C10 C 0.05290 0.44490 0.18090
N8 N 0.14000 0.45950 0.15310
C11 C 0.20300 0.51770 0.18590
C12 C 0.26950 0.55970 0.15780
O2 O 0.32000 0.48620 0.13020
C13 C 0.37600 0.53620 0.09940
C14 C 0.43950 0.46390 0.07550
N9 N 0.49780 0.42100 0.12070
C15 C 0.59150 0.40460 0.10700
C16 C 0.64490 0.35450 0.15320
C17 C -0.01320 0.23330 0.19780
C18 C 0.04330 0.15090 0.21170
N10 N 0.12660 0.18380 0.24150
C19 C 0.18730 0.10200 0.25460
C20 C 0.25370 0.12840 0.29940
O3 O 0.30300 0.20580 0.28140
C21 C 0.35700 0.23920 0.32570
C22 C 0.42020 0.30660 0.30220
N11 N 0.48240 0.25270 0.26320
C23 C 0.57350 0.28360 0.26700
C24 C 0.63260 0.23100 0.22470
Cl1 Cl 0.48930 0.03120 0.26840
O4 O 0.05630 0.00480 0.04830
O5 O 0.04500 0.20480 0.34450
O6 O 0.93360 0.10400 0.41410
P1 P 0.51490 0.27260 0.46540
F1 F 0.59280 0.20830 0.48710
F2 F 0.47140 0.18340 0.43690
F3 F 0.43710 0.33690 0.44360
F4 F 0.55850 0.36190 0.49390
P2 P 0.83100 0.36040 0.32480
F5 F 0.90810 0.40120 0.28900
F6 F 0.76230 0.39230 0.27930
F7 F 0.75390 0.31970 0.36050
F8 F 0.89970 0.32870 0.37020
F9 F 0.82350 0.46240 0.35120
F10 F 0.83980 0.25830 0.29870
P3 P -0.16910 -0.03630 0.14540
F11 F -0.07880 -0.00330 0.17160
F12 F -0.21970 0.03320 0.18480
F13 F -0.11850 -0.10580 0.10600
F14 F -0.16160 -0.11510 0.19130
F15 F -0.17640 0.04500 0.10100
P4 P 0.18100 0.48120 -0.03700
F16 F 0.09820 0.54620 -0.02670
F17 F 0.11840 0.39520 -0.05140
F18 F 0.26370 0.41630 -0.04730
F19 F 0.24350 0.56730 -0.02240
F20 F 0.17860 0.44830 0.02490
F21 F 0.18080 0.50930 -0.09680
N1 N 0.38400 0.26760 0.15840
N2 N 0.30790 0.27080 0.15660
N3 N 0.23340 0.27390 0.15550
loop_
_geom_bond_atom_site_label_1
_geom_bond_atom_site_label_2
_geom_bond_site_symmetry_1
_geom_bond_site_symmetry_2
N1 N2 1_555 1_555
N2 N3 1_555 1_555
N4 C1 1_555 1_555
N5 C8 1_555 1_555
C1 C2 1_555 1_555
C2 N6 1_555 1_555
N6 C3 1_555 1_555
C3 C4 1_555 1_555
C4 O1 1_555 1_555
O1 C5 1_555 1_555
C5 C6 1_555 1_555
C6 N7 1_555 1_555
N7 C7 1_555 1_555
C7 C8 1_555 1_555
C9 N4 1_555 1_555
C10 C9 1_555 1_555
N8 C10 1_555 1_555
C11 N8 1_555 1_555
C12 C11 1_555 1_555
O2 C12 1_555 1_555
C13 O2 1_555 1_555
C14 C13 1_555 1_555
N9 C14 1_555 1_555
C15 N9 1_555 1_555
C16 N5 1_555 1_555
C17 N4 1_555 1_555
C18 C17 1_555 1_555
N10 C18 1_555 1_555
C19 N10 1_555 1_555
C20 C19 1_555 1_555
O3 C20 1_555 1_555
C21 O3 1_555 1_555
C22 C21 1_555 1_555
N11 C22 1_555 1_555
C23 N11 1_555 1_555
C24 N5 1_555 1_555
P1 F1 1_555 1_555
F2 P1 1_555 1_555
F3 P1 1_555 1_555
F4 P1 1_555 1_555
P2 F5 1_555 1_555
F6 P2 1_555 1_555
F7 P2 1_555 1_555
F8 P2 1_555 1_555
F9 P2 1_555 1_555
F10 P2 1_555 1_555
P3 F11 1_555 1_555
F12 P3 1_555 1_555
F13 P3 1_555 1_555
F14 P3 1_555 1_555
F15 P3 1_555 1_555
P4 F16 1_555 1_555
F17 P4 1_555 1_555
F18 P4 1_555 1_555
F19 P4 1_555 1_555
F20 P4 1_555 1_555
F21 P4 1_555 1_555
C15 C16 1_555 1_555
C23 C24 1_555 1_555

#END
