
#######################################################################
#
#                 Cambridge Crystallographic Data Centre
#                                CCDC 
#
#######################################################################
#
# If this CIF has been generated from an entry in the Cambridge 
# Structural Database, then it will include bibliographic, chemical, 
# crystal, experimental, refinement or atomic coordinate data resulting 
# from the CCDC's data processing and validation procedures.
#
#######################################################################

data_CIDNEI
_chemical_formula_moiety         'C24 H60 N8 O3 6+,6(Br1 1-)'
_chemical_name_systematic        
'7,19,30-Trioxa-1,13-diaza-4,10,16,22,27,33-hexa-azoniabicyclo(11.11.11)pentacontane hexabromide'
_symmetry_cell_setting           trigonal
_symmetry_space_group_name_H-M   'P 31'
_symmetry_Int_Tables_number      144
_space_group_name_Hall           'P 31'
loop_
_symmetry_equiv_pos_site_id
_symmetry_equiv_pos_as_xyz
1 x,y,z
2 -y,x-y,1/3+z
3 -x+y,-x,2/3+z
_cell_length_a                   11.537(7)
_cell_length_b                   11.537(7)
_cell_length_c                   25.413(9)
_cell_angle_alpha                90
_cell_angle_beta                 90
_cell_angle_gamma                120
_cell_volume                     2929.36
_chemical_melting_point          'above 260deg.C'
_cell_formula_units_Z            3
loop_
_atom_site_label
_atom_site_type_symbol
_atom_site_fract_x
_atom_site_fract_y
_atom_site_fract_z
Br1 Br 0.36600 0.36730 0.00000
Br2 Br 0.68470 -0.00470 0.83460
Br3 Br 0.86300 0.76770 0.37940
Br4 Br 0.24800 0.71640 0.45060
Br5 Br 0.76460 0.85500 -0.38220
Br6 Br 0.69300 0.23590 -0.46570
N1 N 0.55380 0.18050 0.02310
C1 C 0.65490 0.25650 0.06440
C2 C 0.72140 0.40830 0.05990
N2 N 0.62220 0.44660 0.08060
C3 C 0.68400 0.59390 0.09810
C4 C 0.76060 0.69250 0.05060
O1 O 0.68490 0.62760 0.00860
C5 C 0.17650 0.61500 0.02620
C6 C 0.11790 0.51260 0.07370
N3 N 0.22010 0.47540 0.09170
C7 C 0.18550 0.40830 0.14150
C8 C 0.28440 0.36280 0.15480
O2 O 0.26880 0.25930 0.12300
C9 C 0.19540 0.13230 0.14240
C10 C 0.14660 0.03110 0.09580
N4 N 0.26460 0.06230 0.06110
C11 C 0.36160 0.02630 0.08700
C12 C 0.47620 0.05520 0.04700
N5 N 0.18550 0.55630 -0.02330
C13 C 0.26580 0.65110 -0.05740
C14 C 0.45830 0.74470 -0.04870
N6 N 0.49430 0.67310 -0.05230
C15 C 0.57920 0.66060 -0.09090
C16 C 0.71230 0.74820 -0.03580
C17 C 0.62140 0.18140 -0.02740
C18 C 0.51730 0.13080 -0.07130
N7 N 0.47920 0.23200 -0.09030
C19 C 0.39840 0.18590 -0.14070
C20 C 0.36800 0.29540 -0.15460
O3 O 0.26690 0.28730 -0.12140
C21 C 0.12730 0.19010 -0.14350
C22 C 0.04430 0.15590 -0.09610
N8 N 0.07070 0.26590 -0.06000
C23 C 0.03760 0.37330 -0.08330
C24 C 0.04600 0.45980 -0.04390
loop_
_geom_bond_atom_site_label_1
_geom_bond_atom_site_label_2
_geom_bond_site_symmetry_1
_geom_bond_site_symmetry_2
N1 C1 1_555 1_555
C1 C2 1_555 1_555
C2 N2 1_555 1_555
N2 C3 1_555 1_555
C3 C4 1_555 1_555
C4 O1 1_555 1_555
O1 C16 1_555 1_555
C5 C6 1_555 1_555
C6 N3 1_555 1_555
N3 C7 1_555 1_555
C7 C8 1_555 1_555
C8 O2 1_555 1_555
O2 C9 1_555 1_555
C9 C10 1_555 1_555
C10 N4 1_555 1_555
N4 C11 1_555 1_555
C11 C12 1_555 1_555
C12 N1 1_555 1_555
N5 C5 1_555 1_555
C13 N5 1_555 1_555
C14 C13 1_555 1_555
N6 C14 1_555 1_555
C15 N6 1_555 1_555
C16 C15 1_555 1_555
C17 N1 1_555 1_555
C18 C17 1_555 1_555
N7 C18 1_555 1_555
C19 N7 1_555 1_555
C20 C19 1_555 1_555
O3 C20 1_555 1_555
C21 O3 1_555 1_555
C22 C21 1_555 1_555
N8 C22 1_555 1_555
C23 N8 1_555 1_555
C24 N5 1_555 1_555
C23 C24 1_555 1_555

#END
