
#######################################################################
#
#                 Cambridge Crystallographic Data Centre
#                                CCDC 
#
#######################################################################
#
# If this CIF has been generated from an entry in the Cambridge 
# Structural Database, then it will include bibliographic, chemical, 
# crystal, experimental, refinement or atomic coordinate data resulting 
# from the CCDC's data processing and validation procedures.
#
#######################################################################

data_CIDNEJ
_chemical_formula_moiety         'C16 H6 N4 O8,4(C2 H6 O1 S1)'
_chemical_name_systematic        
'meso-4,10-Dihydroxy-5,11-dihydro-2,5,8,11-tetra-azaperylene-1,3,6,7,9,12-hexaone dimethylsulfoxide solvate'
_chemical_properties_biological  
'inhibitory activity against Schizosaccharomyces pombe lumazine synthase'
_symmetry_cell_setting           triclinic
_symmetry_space_group_name_H-M   'P -1'
_symmetry_Int_Tables_number      2
_space_group_name_Hall           '-P 1'
loop_
_symmetry_equiv_pos_site_id
_symmetry_equiv_pos_as_xyz
1 x,y,z
2 -x,-y,-z
_cell_length_a                   5.5393(5)
_cell_length_b                   11.6122(12)
_cell_length_c                   11.7393(11)
_cell_angle_alpha                76.437(6)
_cell_angle_beta                 86.662(6)
_cell_angle_gamma                88.973(6)
_cell_volume                     732.802
_exptl_crystal_description       needle
_cell_formula_units_Z            1
loop_
_atom_site_label
_atom_site_type_symbol
_atom_site_fract_x
_atom_site_fract_y
_atom_site_fract_z
S1 S -0.78168(10) -0.52087(5) 0.76356(5)
O5 O -0.6152(3) -0.41518(14) 0.72228(14)
C9 C -0.6646(4) -0.6057(2) 0.8950(2)
C10 C -1.0490(4) -0.4666(2) 0.8262(2)
H4 H -0.5160 -0.6461 0.8760
H5 H -0.7843 -0.6647 0.9353
H6 H -0.6288 -0.5532 0.9461
H7 H -1.0042 -0.4159 0.8776
H8 H -1.1449 -0.5335 0.8721
H9 H -1.1447 -0.4205 0.7635
S2 S -0.48262(10) -0.28225(5) 0.42922(5)
O6 O -0.4382(3) -0.21615(15) 0.30238(14)
C11 C -0.7252(5) -0.3812(2) 0.4289(2)
C12 C -0.6422(5) -0.1817(2) 0.4990(2)
H10 H -0.5376 -0.1146 0.4994
H11 H -0.6908 -0.2220 0.5799
H12 H -0.7864 -0.1528 0.4562
H13 H -0.8553 -0.3381 0.3835
H14 H -0.7867 -0.4143 0.5097
H15 H -0.6668 -0.4455 0.3932
O1 O -0.8594(3) -0.23702(14) 0.92116(14)
O2 O -0.1821(3) -0.19352(14) 0.68442(13)
O3 O 0.0969(3) -0.02532(14) 0.67237(14)
O4 O -0.1268(3) 0.26287(13) 0.85127(13)
N1 N -0.4991(3) -0.22460(17) 0.81954(16)
N2 N 0.0153(3) 0.10564(17) 0.78601(17)
C1 C -0.6589(4) -0.19247(19) 0.90282(18)
C2 C -0.3047(4) -0.15966(19) 0.76741(19)
C3 C -0.2474(4) -0.05707(18) 0.80390(18)
C4 C -0.0413(4) 0.00585(19) 0.75228(19)
C5 C -0.3798(4) -0.02672(18) 0.90099(18)
C6 C -0.5726(4) -0.09947(18) 0.95993(18)
C7 C -0.3123(4) 0.07510(18) 0.93878(19)
C8 C -0.1378(4) 0.15735(19) 0.85887(19)
H1 H -0.536(4) -0.285(2) 0.793(2)
H2 H -0.029(7) -0.118(3) 0.666(3)
H3 H 0.147(5) 0.147(2) 0.751(2)
O1A O -0.1406(3) 0.23702(14) 1.07884(14)
O2A O -0.8179(3) 0.19352(14) 1.31558(13)
O3A O -1.0969(3) 0.02532(14) 1.32763(14)
O4A O -0.8732(3) -0.26287(13) 1.14873(13)
N1A N -0.5009(3) 0.22460(17) 1.18046(16)
N2A N -1.0153(3) -0.10564(17) 1.21399(17)
C1A C -0.3411(4) 0.19247(19) 1.09718(18)
C2A C -0.6953(4) 0.15966(19) 1.23259(19)
C3A C -0.7526(4) 0.05707(18) 1.19610(18)
C4A C -0.9587(4) -0.00585(19) 1.24772(19)
C5A C -0.6202(4) 0.02672(18) 1.09901(18)
C6A C -0.4274(4) 0.09947(18) 1.04007(18)
C7A C -0.6877(4) -0.07510(18) 1.06122(19)
C8A C -0.8622(4) -0.15735(19) 1.14113(19)
H1A H -0.464(4) 0.285(2) 1.207(2)
H2A H -0.971(7) 0.118(3) 1.334(3)
H3A H -1.147(5) -0.147(2) 1.249(2)
loop_
_geom_bond_atom_site_label_1
_geom_bond_atom_site_label_2
_geom_bond_site_symmetry_1
_geom_bond_site_symmetry_2
S1 O5 1_555 1_555
S2 O6 1_555 1_555
O1 C1 1_555 1_555
O2 C2 1_555 1_555
O3 C4 1_555 1_555
O4 C8 1_555 1_555
N1 C1 1_555 1_555
N2 C4 1_555 1_555
C1 C6 1_555 1_555
C2 N1 1_555 1_555
C3 C2 1_555 1_555
C4 C3 1_555 1_555
C5 C3 1_555 1_555
C6 C5 1_555 1_555
C7 C5 1_555 1_555
C8 N2 1_555 1_555
C9 S1 1_555 1_555
C10 S1 1_555 1_555
C11 S2 1_555 1_555
C12 S2 1_555 1_555
H1 N1 1_555 1_555
H2 O2 1_555 1_555
H3 N2 1_555 1_555
H4 C9 1_555 1_555
H5 C9 1_555 1_555
H6 C9 1_555 1_555
H7 C10 1_555 1_555
H8 C10 1_555 1_555
H9 C10 1_555 1_555
H10 C12 1_555 1_555
H11 C12 1_555 1_555
H12 C12 1_555 1_555
H13 C11 1_555 1_555
H14 C11 1_555 1_555
H15 C11 1_555 1_555
O1A C1A 1_555 1_555
O2A C2A 1_555 1_555
O3A C4A 1_555 1_555
O4A C8A 1_555 1_555
N1A C1A 1_555 1_555
N2A C4A 1_555 1_555
C1A C6A 1_555 1_555
C2A N1A 1_555 1_555
C3A C2A 1_555 1_555
C4A C3A 1_555 1_555
C5A C3A 1_555 1_555
C6A C7 1_555 1_555
C7A C6 1_555 1_555
C8A N2A 1_555 1_555
H1A N1A 1_555 1_555
H2A O2A 1_555 1_555
H3A N2A 1_555 1_555
C7 C8 1_555 1_555
C5A C6A 1_555 1_555
C5A C7A 1_555 1_555
C7A C8A 1_555 1_555

#END
