
#######################################################################
#
#                 Cambridge Crystallographic Data Centre
#                                CCDC 
#
#######################################################################
#
# If this CIF has been generated from an entry in the Cambridge 
# Structural Database, then it will include bibliographic, chemical, 
# crystal, experimental, refinement or atomic coordinate data resulting 
# from the CCDC's data processing and validation procedures.
#
#######################################################################

data_CIDPOV
_chemical_formula_moiety         'C20 H19 Cl2 N3 O2'
_chemical_name_systematic        
2,6-Dichloro-N,N-bis(4-methoxybenzyl)pyrimidin-4-amine
_symmetry_cell_setting           monoclinic
_symmetry_space_group_name_H-M   'P 21/c'
_symmetry_Int_Tables_number      14
_space_group_name_Hall           '-P 2ybc'
loop_
_symmetry_equiv_pos_site_id
_symmetry_equiv_pos_as_xyz
1 x,y,z
2 -x,1/2+y,1/2-z
3 -x,-y,-z
4 x,1/2-y,1/2+z
_cell_length_a                   21.9143(10)
_cell_length_b                   10.1032(5)
_cell_length_c                   8.7088(4)
_cell_angle_alpha                90
_cell_angle_beta                 98.099(1)
_cell_angle_gamma                90
_cell_volume                     1908.94
_exptl_crystal_colour            colorless
_exptl_crystal_description       block
_chemical_melting_point          129-131deg.C
_cell_formula_units_Z            4
loop_
_atom_site_label
_atom_site_type_symbol
_atom_site_fract_x
_atom_site_fract_y
_atom_site_fract_z
Cl1 Cl 0.12693(2) 0.79059(4) 0.70303(5)
Cl2 Cl 0.31196(2) 0.92749(4) 0.42687(6)
O1 O 0.02925(6) 0.09222(14) 0.18698(16)
O2 O 0.53369(6) 0.22473(14) 0.67484(16)
N1 N 0.22168(6) 0.84447(13) 0.56435(16)
N2 N 0.28214(6) 0.68033(14) 0.45479(16)
N3 N 0.26162(6) 0.45620(13) 0.47373(15)
C1 C 0.18847(8) 0.74399(17) 0.60966(18)
C2 C 0.19836(7) 0.61316(16) 0.58704(17)
H1 H 0.1735 0.5466 0.6242
C3 C 0.24741(7) 0.58177(15) 0.50553(17)
C4 C 0.26631(8) 0.80218(16) 0.48881(19)
C5 C 0.23431(8) 0.34233(16) 0.54187(19)
H2 H 0.2202 0.3706 0.6398
H3 H 0.2667 0.2744 0.5681
C6 C 0.18062(7) 0.27972(15) 0.43906(18)
C7 C 0.13978(8) 0.35295(17) 0.3355(2)
H4 H 0.1468 0.4450 0.3243
C8 C 0.08893(8) 0.29431(17) 0.2482(2)
H5 H 0.0616 0.3458 0.1778
C9 C 0.07843(8) 0.16024(18) 0.2645(2)
C10 C 0.11929(8) 0.08532(17) 0.3662(2)
H6 H 0.1124 -0.0069 0.3768
C11 C 0.16981(8) 0.14461(16) 0.45187(19)
H7 H 0.1976 0.0925 0.5205
C12 C -0.01074(9) 0.1634(2) 0.0720(2)
H8 H -0.0441 0.1051 0.0260
H9 H 0.0127 0.1943 -0.0090
H10 H -0.0282 0.2396 0.1202
C13 C 0.30655(7) 0.42387(16) 0.36862(19)
H11 H 0.3145 0.5040 0.3091
H12 H 0.2886 0.3558 0.2937
C14 C 0.36679(7) 0.37347(16) 0.45302(18)
C15 C 0.38614(8) 0.24473(17) 0.4309(2)
H13 H 0.3610 0.1880 0.3616
C16 C 0.44141(8) 0.19774(18) 0.5079(2)
H14 H 0.4536 0.1090 0.4925
C17 C 0.47913(8) 0.28010(18) 0.6078(2)
C18 C 0.46069(8) 0.40883(17) 0.6317(2)
H15 H 0.4861 0.4657 0.7001
C19 C 0.40477(8) 0.45377(17) 0.5549(2)
H16 H 0.3921 0.5418 0.5725
C20 C 0.57485(9) 0.3074(2) 0.7745(2)
H17 H 0.6146 0.2624 0.8007
H18 H 0.5572 0.3256 0.8697
H19 H 0.5810 0.3909 0.7215
loop_
_geom_bond_atom_site_label_1
_geom_bond_atom_site_label_2
_geom_bond_site_symmetry_1
_geom_bond_site_symmetry_2
Cl1 C1 1_555 1_555
Cl2 C4 1_555 1_555
O1 C9 1_555 1_555
O2 C17 1_555 1_555
N1 C1 1_555 1_555
N2 C3 1_555 1_555
N3 C3 1_555 1_555
C1 C2 1_555 1_555
C2 H1 1_555 1_555
C3 C2 1_555 1_555
C4 N1 1_555 1_555
C5 N3 1_555 1_555
H2 C5 1_555 1_555
H3 C5 1_555 1_555
C6 C5 1_555 1_555
C7 C6 1_555 1_555
H4 C7 1_555 1_555
C8 C7 1_555 1_555
H5 C8 1_555 1_555
C9 C8 1_555 1_555
C10 C9 1_555 1_555
H6 C10 1_555 1_555
C11 C6 1_555 1_555
H7 C11 1_555 1_555
C12 O1 1_555 1_555
H8 C12 1_555 1_555
H9 C12 1_555 1_555
H10 C12 1_555 1_555
C13 N3 1_555 1_555
H11 C13 1_555 1_555
H12 C13 1_555 1_555
C14 C13 1_555 1_555
C15 C14 1_555 1_555
H13 C15 1_555 1_555
C16 C15 1_555 1_555
H14 C16 1_555 1_555
C17 C16 1_555 1_555
C18 C17 1_555 1_555
H15 C18 1_555 1_555
C19 C14 1_555 1_555
H16 C19 1_555 1_555
C20 O2 1_555 1_555
H17 C20 1_555 1_555
H18 C20 1_555 1_555
H19 C20 1_555 1_555
N2 C4 1_555 1_555
C10 C11 1_555 1_555
C18 C19 1_555 1_555

#END
