
#######################################################################
#
#                 Cambridge Crystallographic Data Centre
#                                CCDC 
#
#######################################################################
#
# If this CIF has been generated from an entry in the Cambridge 
# Structural Database, then it will include bibliographic, chemical, 
# crystal, experimental, refinement or atomic coordinate data resulting 
# from the CCDC's data processing and validation procedures.
#
#######################################################################

data_CIDPUB
_chemical_formula_moiety         'C27 H27 Cl1 N4 O3'
_chemical_name_systematic        
6-Chloro-N^4^,N^4^-bis(4-methoxybenzyl)-N^2^-(4-methoxyphenyl)pyrimidine-2,4-diamine
_symmetry_cell_setting           monoclinic
_symmetry_space_group_name_H-M   'C 2/c'
_symmetry_Int_Tables_number      15
_space_group_name_Hall           '-C 2yn'
loop_
_symmetry_equiv_pos_site_id
_symmetry_equiv_pos_as_xyz
1 x,y,z
2 1/2+x,1/2+y,z
3 -x,y,1/2-z
4 1/2-x,1/2+y,1/2-z
5 -x,-y,-z
6 1/2-x,1/2-y,-z
7 x,-y,1/2+z
8 1/2+x,1/2-y,1/2+z
_cell_length_a                   16.9620(14)
_cell_length_b                   10.7877(9)
_cell_length_c                   27.228(2)
_cell_angle_alpha                90
_cell_angle_beta                 98.375(1)
_cell_angle_gamma                90
_cell_volume                     4929.08
_exptl_crystal_colour            colorless
_exptl_crystal_description       block
_chemical_melting_point          142-145deg.C
_cell_formula_units_Z            8
loop_
_atom_site_label
_atom_site_type_symbol
_atom_site_fract_x
_atom_site_fract_y
_atom_site_fract_z
Cl1 Cl 0.09740(2) 0.66413(4) 0.145809(14)
O1 O 0.12047(7) 0.22738(11) 0.48910(4)
O2 O 0.29586(8) 0.88783(12) 0.46835(5)
O3 O 0.41518(8) 0.28997(10) 0.07987(4)
N1 N 0.09227(8) 0.55012(11) 0.22966(5)
N2 N 0.20690(7) 0.50353(12) 0.28973(5)
N3 N 0.07727(8) 0.45896(12) 0.30321(5)
H1 H 0.0283(13) 0.4783(17) 0.2931(7)
N4 N 0.33388(8) 0.55334(13) 0.27687(5)
C1 C 0.12899(9) 0.50481(13) 0.27377(5)
C2 C 0.14207(9) 0.59885(14) 0.20174(6)
C3 C 0.22350(9) 0.60383(14) 0.21284(6)
H2 H 0.2562 0.6389 0.1909
C4 C 0.25503(9) 0.55279(14) 0.25939(6)
C5 C 0.09203(9) 0.40034(13) 0.35019(6)
C6 C 0.02516(9) 0.36962(14) 0.37182(6)
H3 H -0.0263 0.3882 0.3546
C7 C 0.03158(10) 0.31257(14) 0.41800(6)
H4 H -0.0149 0.2929 0.4322
C8 C 0.10687(10) 0.28449(14) 0.44328(6)
C9 C 0.17401(10) 0.31368(15) 0.42196(6)
H5 H 0.2253 0.2939 0.4391
C10 C 0.16732(10) 0.37139(15) 0.37591(6)
H6 H 0.2139 0.3912 0.3619
C11 C 0.05330(12) 0.21362(18) 0.51474(7)
H7 H 0.0708 0.1797 0.5479
H8 H 0.0147 0.1570 0.4962
H9 H 0.0283 0.2946 0.5177
C12 C 0.36080(10) 0.52201(16) 0.32898(6)
H10 H 0.4190 0.5069 0.3336
H11 H 0.3345 0.4442 0.3371
C13 C 0.34289(9) 0.62272(15) 0.36464(6)
C14 C 0.32327(10) 0.74298(15) 0.34943(6)
H12 H 0.3205 0.7633 0.3153
C15 C 0.30742(10) 0.83499(15) 0.38258(6)
H13 H 0.2943 0.9167 0.3711
C16 C 0.31098(10) 0.80584(16) 0.43246(6)
C17 C 0.33027(11) 0.68528(16) 0.44877(6)
H14 H 0.3330 0.6650 0.4829
C18 C 0.34538(10) 0.59582(16) 0.41517(6)
H15 H 0.3578 0.5139 0.4266
C19 C 0.28095(13) 1.01341(18) 0.45405(7)
H16 H 0.2715 1.0621 0.4830
H17 H 0.2339 1.0177 0.4286
H18 H 0.3272 1.0470 0.4407
C20 C 0.39143(10) 0.59891(16) 0.24602(6)
H19 H 0.4439 0.6089 0.2669
H20 H 0.3742 0.6815 0.2327
C21 C 0.40047(9) 0.51265(15) 0.20300(6)
C22 C 0.39608(11) 0.38494(16) 0.20761(6)
H21 H 0.3892 0.3501 0.2387
C23 C 0.40157(11) 0.30685(15) 0.16762(7)
H22 H 0.3979 0.2196 0.1714
C24 C 0.41248(10) 0.35708(15) 0.12190(6)
C25 C 0.42005(10) 0.48447(15) 0.11759(6)
H23 H 0.4298 0.5194 0.0870
C26 C 0.41351(10) 0.56084(15) 0.15761(6)
H24 H 0.4180 0.6480 0.1539
C27 C 0.39308(12) 0.16161(15) 0.08114(7)
H25 H 0.3881 0.1269 0.0476
H26 H 0.3420 0.1543 0.0937
H27 H 0.4341 0.1161 0.1031
loop_
_geom_bond_atom_site_label_1
_geom_bond_atom_site_label_2
_geom_bond_site_symmetry_1
_geom_bond_site_symmetry_2
Cl1 C2 1_555 1_555
O1 C8 1_555 1_555
O2 C16 1_555 1_555
O3 C24 1_555 1_555
N1 C1 1_555 1_555
N2 C1 1_555 1_555
N3 H1 1_555 1_555
N4 C4 1_555 1_555
C1 N3 1_555 1_555
C2 N1 1_555 1_555
C3 C2 1_555 1_555
H2 C3 1_555 1_555
C4 N2 1_555 1_555
C5 N3 1_555 1_555
C6 C5 1_555 1_555
H3 C6 1_555 1_555
C7 C6 1_555 1_555
H4 C7 1_555 1_555
C8 C7 1_555 1_555
C9 C8 1_555 1_555
H5 C9 1_555 1_555
C10 C5 1_555 1_555
H6 C10 1_555 1_555
C11 O1 1_555 1_555
H7 C11 1_555 1_555
H8 C11 1_555 1_555
H9 C11 1_555 1_555
C12 N4 1_555 1_555
H10 C12 1_555 1_555
H11 C12 1_555 1_555
C13 C12 1_555 1_555
C14 C13 1_555 1_555
H12 C14 1_555 1_555
C15 C14 1_555 1_555
H13 C15 1_555 1_555
C16 C15 1_555 1_555
C17 C16 1_555 1_555
H14 C17 1_555 1_555
C18 C13 1_555 1_555
H15 C18 1_555 1_555
C19 O2 1_555 1_555
H16 C19 1_555 1_555
H17 C19 1_555 1_555
H18 C19 1_555 1_555
C20 N4 1_555 1_555
H19 C20 1_555 1_555
H20 C20 1_555 1_555
C21 C20 1_555 1_555
C22 C21 1_555 1_555
H21 C22 1_555 1_555
C23 C22 1_555 1_555
H22 C23 1_555 1_555
C24 C23 1_555 1_555
C25 C24 1_555 1_555
H23 C25 1_555 1_555
C26 C21 1_555 1_555
H24 C26 1_555 1_555
C27 O3 1_555 1_555
H25 C27 1_555 1_555
H26 C27 1_555 1_555
H27 C27 1_555 1_555
C3 C4 1_555 1_555
C9 C10 1_555 1_555
C17 C18 1_555 1_555
C25 C26 1_555 1_555

#END
