
#######################################################################
#
#                 Cambridge Crystallographic Data Centre
#                                CCDC 
#
#######################################################################
#
# If this CIF has been generated from an entry in the Cambridge 
# Structural Database, then it will include bibliographic, chemical, 
# crystal, experimental, refinement or atomic coordinate data resulting 
# from the CCDC's data processing and validation procedures.
#
#######################################################################

data_CIDREM
_chemical_formula_moiety         'C20 H16 Cl1 N1 O4'
_chemical_name_systematic        
'Dimethyl 2-chloro-1,5-diphenylpyrrole-3,4-dicarboxylate'
_symmetry_cell_setting           triclinic
_symmetry_space_group_name_H-M   'P -1'
_symmetry_Int_Tables_number      2
_space_group_name_Hall           '-P 1'
loop_
_symmetry_equiv_pos_site_id
_symmetry_equiv_pos_as_xyz
1 x,y,z
2 -x,-y,-z
_cell_length_a                   10.588(6)
_cell_length_b                   9.973(4)
_cell_length_c                   11.316(4)
_cell_angle_alpha                119.11(3)
_cell_angle_beta                 120.92(3)
_cell_angle_gamma                73.64(4)
_cell_volume                     894.807
_cell_formula_units_Z            2
loop_
_atom_site_label
_atom_site_type_symbol
_atom_site_fract_x
_atom_site_fract_y
_atom_site_fract_z
N1 N 0.30470 0.39660 0.53850
C1 C 0.24750 0.54350 0.55150
C2 C 0.23740 0.56040 0.43270
C3 C 0.29130 0.41980 0.34570
C4 C 0.33220 0.32470 0.41530
C5 C 0.33890 0.32910 0.63970
C6 C 0.46720 0.36490 0.77380
C7 C 0.50270 0.29250 0.86470
C8 C 0.41320 0.18490 0.82180
C9 C 0.28290 0.15120 0.68930
C10 C 0.24510 0.22570 0.59810
C11 C 0.21290 0.65650 0.67810
C12 C 0.27380 0.79980 0.76470
C13 C 0.23890 0.90920 0.88080
C14 C 0.14150 0.87450 0.90920
C15 C 0.08240 0.73270 0.82550
C16 C 0.11680 0.62190 0.70960
C17 C 0.18210 0.69890 0.40400
O1 O 0.08900 0.78810 0.43230
O2 O 0.24860 0.71340 0.33790
C18 C 0.19820 0.83630 0.29190
C19 C 0.29020 0.37280 0.19920
O3 O 0.38510 0.29630 0.16350
O4 O 0.16760 0.41850 0.10590
C20 C 0.15920 0.38950 -0.03580
Cl1 Cl 0.40100 0.14020 0.36340
H1 H 0.52500 0.45040 0.80540
H2 H 0.59860 0.32070 0.96220
H3 H 0.45130 0.14030 0.90000
H4 H 0.22450 0.07450 0.66040
H5 H 0.14780 0.20440 0.49770
H6 H 0.34140 0.83230 0.74180
H7 H 0.28630 1.01440 0.95400
H8 H 0.13080 0.96420 1.00470
H9 H 0.02230 0.72600 0.86570
H10 H 0.06690 0.51490 0.64410
H11 H 0.27410 0.89410 0.33350
H12 H 0.11640 0.89730 0.30800
H13 H 0.16430 0.78390 0.18990
H14 H 0.06090 0.44340 -0.09260
H15 H 0.23790 0.40660 -0.02150
H16 H 0.17190 0.28150 -0.09440
loop_
_geom_bond_atom_site_label_1
_geom_bond_atom_site_label_2
_geom_bond_site_symmetry_1
_geom_bond_site_symmetry_2
N1 C1 1_555 1_555
C1 C2 1_555 1_555
C2 C3 1_555 1_555
C3 C4 1_555 1_555
C4 N1 1_555 1_555
C5 N1 1_555 1_555
C6 C5 1_555 1_555
C7 C6 1_555 1_555
C8 C7 1_555 1_555
C9 C8 1_555 1_555
C10 C5 1_555 1_555
C11 C1 1_555 1_555
C12 C11 1_555 1_555
C13 C12 1_555 1_555
C14 C13 1_555 1_555
C15 C14 1_555 1_555
C16 C11 1_555 1_555
C17 C2 1_555 1_555
O1 C17 1_555 1_555
O2 C17 1_555 1_555
C18 O2 1_555 1_555
C19 C3 1_555 1_555
O3 C19 1_555 1_555
O4 C19 1_555 1_555
C20 O4 1_555 1_555
Cl1 C4 1_555 1_555
H1 C6 1_555 1_555
H2 C7 1_555 1_555
H3 C8 1_555 1_555
H4 C9 1_555 1_555
H5 C10 1_555 1_555
H6 C12 1_555 1_555
H7 C13 1_555 1_555
H8 C14 1_555 1_555
H9 C15 1_555 1_555
H10 C16 1_555 1_555
H11 C18 1_555 1_555
H12 C18 1_555 1_555
H13 C18 1_555 1_555
H14 C20 1_555 1_555
H15 C20 1_555 1_555
H16 C20 1_555 1_555
C9 C10 1_555 1_555
C15 C16 1_555 1_555

#END
