
#######################################################################
#
#                 Cambridge Crystallographic Data Centre
#                                CCDC 
#
#######################################################################
#
# If this CIF has been generated from an entry in the Cambridge 
# Structural Database, then it will include bibliographic, chemical, 
# crystal, experimental, refinement or atomic coordinate data resulting 
# from the CCDC's data processing and validation procedures.
#
#######################################################################

data_CIFDED
_chemical_formula_moiety         'C25 H26 F1 N1 O4'
_chemical_name_systematic        
4-(4-fluorobenzoyl)-9,9-dimethoxy-2-(2-phenylethyl)-2-azabicyclo[3.3.1]non-3-en-7-one
_symmetry_cell_setting           monoclinic
_symmetry_space_group_name_H-M   'P 21/c'
_symmetry_Int_Tables_number      14
_space_group_name_Hall           '-P 2ybc'
loop_
_symmetry_equiv_pos_site_id
_symmetry_equiv_pos_as_xyz
1 x,y,z
2 -x,1/2+y,1/2-z
3 -x,-y,-z
4 x,1/2-y,1/2+z
_cell_length_a                   11.1233(11)
_cell_length_b                   16.7726(16)
_cell_length_c                   12.5093(13)
_cell_angle_alpha                90
_cell_angle_beta                 114.965(2)
_cell_angle_gamma                90
_cell_volume                     2115.76
_exptl_crystal_colour            colorless
_exptl_crystal_description       block
_cell_formula_units_Z            4
loop_
_atom_site_label
_atom_site_type_symbol
_atom_site_fract_x
_atom_site_fract_y
_atom_site_fract_z
F1 F 0.99411(13) 0.40828(8) 1.01496(14)
O1 O 0.40454(14) 0.52128(7) 0.78509(13)
O2 O 0.21690(13) 0.37783(7) 0.42309(11)
O3 O 0.01904(13) 0.39910(7) 0.44160(12)
O4 O 0.05833(15) 0.32351(10) 0.77443(13)
N1 N 0.30620(14) 0.26756(8) 0.60848(13)
C1 C 0.8607(2) 0.41891(12) 0.9532(2)
C2 C 0.8029(2) 0.39585(12) 0.8380(2)
H1 H 0.853102 0.373597 0.802053
C3 C 0.6668(2) 0.40653(11) 0.77573(18)
H2 H 0.625374 0.390974 0.697119
C4 C 0.59217(18) 0.44004(10) 0.82922(16)
C5 C 0.44633(19) 0.45684(10) 0.76467(16)
C6 C 0.35667(18) 0.40089(10) 0.68202(15)
C7 C 0.39063(18) 0.32330(10) 0.67553(15)
H3 H 0.478072 0.308229 0.720616
C8 C 0.16606(17) 0.28744(10) 0.53891(16)
H4 H 0.130836 0.253285 0.468822
C9 C 0.15361(17) 0.37465(10) 0.49926(16)
C10 C 0.2326(3) 0.45451(13) 0.3816(2)
H5 H 0.255536 0.448496 0.316156
H6 H 0.301865 0.482985 0.443870
H7 H 0.151060 0.483704 0.356845
C11 C -0.0609(2) 0.35785(14) 0.3350(2)
H8 H -0.016967 0.357948 0.283396
H9 H -0.145154 0.384063 0.296940
H10 H -0.074228 0.303861 0.353095
C12 C 0.21511(18) 0.42679(10) 0.60926(16)
H11 H 0.215450 0.482238 0.584700
C13 C 0.13038(19) 0.42122(11) 0.67863(17)
H12 H 0.178969 0.445259 0.755517
H13 H 0.050319 0.452280 0.637909
C14 C 0.09153(17) 0.33796(12) 0.69574(17)
C15 C 0.08581(19) 0.27324(11) 0.61040(18)
H14 H -0.006203 0.265487 0.555784
H15 H 0.116391 0.224028 0.654296
C16 C 0.35249(19) 0.18841(10) 0.59387(17)
H16 H 0.284482 0.149503 0.585273
H17 H 0.430943 0.175025 0.664446
C17 C 0.38520(19) 0.18287(11) 0.48803(18)
H18 H 0.404532 0.127718 0.477925
H19 H 0.307623 0.198520 0.418152
C18 C 0.50091(18) 0.23377(10) 0.49694(16)
C19 C 0.4833(2) 0.29893(12) 0.42403(17)
H20 H 0.398229 0.312329 0.369639
C20 C 0.5894(2) 0.34436(12) 0.4305(2)
H21 H 0.575511 0.388034 0.380868
C21 C 0.7157(2) 0.32517(13) 0.5102(2)
H22 H 0.787512 0.355325 0.513904
C22 C 0.7352(2) 0.26136(13) 0.5841(2)
H23 H 0.820310 0.248649 0.638977
C23 C 0.62865(19) 0.21591(12) 0.57724(18)
H24 H 0.643054 0.172535 0.627480
C24 C 0.6571(2) 0.46312(11) 0.94656(18)
H25 H 0.608739 0.486296 0.983582
C25 C 0.7917(2) 0.45230(12) 1.0091(2)
H26 H 0.834332 0.467523 1.087745
loop_
_geom_bond_atom_site_label_1
_geom_bond_atom_site_label_2
_geom_bond_site_symmetry_1
_geom_bond_site_symmetry_2
F1 C1 1_555 1_555
O1 C5 1_555 1_555
O2 C9 1_555 1_555
O3 C9 1_555 1_555
O4 C14 1_555 1_555
N1 C7 1_555 1_555
C1 C2 1_555 1_555
C2 H1 1_555 1_555
C3 C2 1_555 1_555
H2 C3 1_555 1_555
C4 C3 1_555 1_555
C5 C4 1_555 1_555
C6 C5 1_555 1_555
C7 C6 1_555 1_555
H3 C7 1_555 1_555
C8 N1 1_555 1_555
H4 C8 1_555 1_555
C9 C8 1_555 1_555
C10 O2 1_555 1_555
H5 C10 1_555 1_555
H6 C10 1_555 1_555
H7 C10 1_555 1_555
C11 O3 1_555 1_555
H8 C11 1_555 1_555
H9 C11 1_555 1_555
H10 C11 1_555 1_555
C12 C6 1_555 1_555
H11 C12 1_555 1_555
C13 C12 1_555 1_555
H12 C13 1_555 1_555
H13 C13 1_555 1_555
C14 C13 1_555 1_555
C15 C8 1_555 1_555
H14 C15 1_555 1_555
H15 C15 1_555 1_555
C16 N1 1_555 1_555
H16 C16 1_555 1_555
H17 C16 1_555 1_555
C17 C16 1_555 1_555
H18 C17 1_555 1_555
H19 C17 1_555 1_555
C18 C17 1_555 1_555
C19 C18 1_555 1_555
H20 C19 1_555 1_555
C20 C19 1_555 1_555
H21 C20 1_555 1_555
C21 C20 1_555 1_555
H22 C21 1_555 1_555
C22 C21 1_555 1_555
H23 C22 1_555 1_555
C23 C18 1_555 1_555
H24 C23 1_555 1_555
C24 C4 1_555 1_555
H25 C24 1_555 1_555
C25 C1 1_555 1_555
H26 C25 1_555 1_555
C9 C12 1_555 1_555
C14 C15 1_555 1_555
C22 C23 1_555 1_555
C24 C25 1_555 1_555

#END
