
#######################################################################
#
#                 Cambridge Crystallographic Data Centre
#                                CCDC 
#
#######################################################################
#
# If this CIF has been generated from an entry in the Cambridge 
# Structural Database, then it will include bibliographic, chemical, 
# crystal, experimental, refinement or atomic coordinate data resulting 
# from the CCDC's data processing and validation procedures.
#
#######################################################################

data_CIFDUT
_chemical_formula_moiety         'C29 H33 F1 N2 O6'
_chemical_name_systematic        
't-butyl [(1R,5R)-4-(4-fluorobenzoyl)-9,9-dimethoxy-2-(4-methoxyphenyl)-2-azabicyclo[3.3.1]nona-3,7-dien-7-yl]carbamate'
_symmetry_cell_setting           triclinic
_symmetry_space_group_name_H-M   'P -1'
_symmetry_Int_Tables_number      2
_space_group_name_Hall           '-P 1'
loop_
_symmetry_equiv_pos_site_id
_symmetry_equiv_pos_as_xyz
1 x,y,z
2 -x,-y,-z
_cell_length_a                   11.496
_cell_length_b                   12.240
_cell_length_c                   13.457
_cell_angle_alpha                79.41
_cell_angle_beta                 67.16
_cell_angle_gamma                71.68
_cell_volume                     1652.5
_exptl_crystal_colour            colorless
_exptl_crystal_description       block
_cell_formula_units_Z            2
loop_
_atom_site_label
_atom_site_type_symbol
_atom_site_fract_x
_atom_site_fract_y
_atom_site_fract_z
F1 F -0.63412(11) 0.98350(11) 0.18054(10)
O1 O 0.05677(12) 0.14056(9) -0.19446(9)
O2 O -0.00842(14) 0.25659(9) -0.32633(10)
O3 O -0.49846(15) 0.83472(12) -0.54206(12)
O4 O -0.04800(11) 0.70531(9) -0.01252(8)
O5 O 0.20856(10) 0.58511(9) -0.40136(8)
O6 O 0.07422(11) 0.77082(9) -0.36654(8)
N1 N 0.04078(13) 0.32520(10) -0.20454(10)
H1 H 0.0588 0.3049 -0.1448
N2 N -0.14584(12) 0.69330(10) -0.32037(9)
C1 C 0.02620(16) 0.24198(13) -0.24951(12)
C2 C 0.02913(14) 0.44108(12) -0.24380(11)
C3 C -0.01419(14) 0.49083(12) -0.32394(11)
H2 H -0.0457 0.4475 -0.3548
C4 C -0.01513(14) 0.61271(12) -0.36726(11)
H3 H 0.0095 0.6175 -0.4475
C5 C -0.23526(15) 0.72804(12) -0.37745(11)
C6 C -0.22824(16) 0.65843(13) -0.45107(12)
H4 H -0.1637 0.5863 -0.4628
C7 C -0.31328(17) 0.69155(14) -0.50809(13)
H5 H -0.3052 0.6432 -0.5594
C8 C -0.40855(18) 0.79366(15) -0.49042(14)
C9 C -0.4805(2) 0.7757(2) -0.62920(18)
H6 H -0.4871 0.6968 -0.6037
H7 H -0.3938 0.7734 -0.6843
H8 H -0.5482 0.8157 -0.6605
C10 C -0.41804(19) 0.86448(16) -0.41635(15)
H9 H -0.4848 0.9352 -0.4030
C11 C -0.33041(18) 0.83242(14) -0.36179(13)
H10 H -0.3358 0.8827 -0.3132
C12 C -0.17859(15) 0.72439(12) -0.21948(11)
H11 H -0.2654 0.7693 -0.1848
C13 C -0.09342(15) 0.69464(12) -0.16488(11)
C14 C -0.13145(15) 0.72707(12) -0.05622(11)
C15 C -0.26862(15) 0.79189(13) 0.00517(11)
C16 C -0.28297(17) 0.88729(14) 0.05601(12)
H12 H -0.2074 0.9076 0.0507
C17 C -0.40577(18) 0.95248(15) 0.11390(14)
H13 H -0.4158 1.0188 0.1468
C18 C -0.51265(17) 0.91941(16) 0.12286(13)
C19 C -0.50377(18) 0.82537(16) 0.07719(13)
H14 H -0.5801 0.8042 0.0859
C20 C -0.38001(16) 0.76116(14) 0.01754(12)
H15 H -0.3715 0.6953 -0.0152
C21 C 0.04982(14) 0.63206(12) -0.21916(11)
H16 H 0.1053 0.6651 -0.1978
C22 C 0.08330(14) 0.65266(12) -0.34094(11)
C23 C 0.31635(18) 0.60769(19) -0.38799(17)
H17 H 0.3122 0.5863 -0.3131
H18 H 0.3117 0.6900 -0.4049
H19 H 0.3989 0.5623 -0.4369
C24 C 0.0888(2) 0.81079(16) -0.47676(14)
H20 H 0.0114 0.8098 -0.4905
H21 H 0.1670 0.7601 -0.5251
H22 H 0.0979 0.8897 -0.4899
C25 C 0.07845(16) 0.50279(12) -0.18789(12)
H23 H 0.1742 0.4698 -0.2069
H24 H 0.0366 0.4901 -0.1087
C26 C 0.06411(18) 0.03288(13) -0.23484(14)
C27 C 0.1684(2) 0.01739(17) -0.34598(16)
H25 H 0.1363 0.0717 -0.3989
H26 H 0.1893 -0.0618 -0.3651
H27 H 0.2474 0.0322 -0.3461
C28 C -0.0685(2) 0.03359(17) -0.23298(19)
H28 H -0.1343 0.0516 -0.1611
H29 H -0.0648 -0.0425 -0.2494
H30 H -0.0924 0.0921 -0.2872
C29 C 0.1061(3) -0.05871(16) -0.15350(19)
H31 H 0.1913 -0.0564 -0.1553
H32 H 0.1131 -0.1350 -0.1718
H33 H 0.0409 -0.0439 -0.0809
loop_
_geom_bond_atom_site_label_1
_geom_bond_atom_site_label_2
_geom_bond_site_symmetry_1
_geom_bond_site_symmetry_2
F1 C18 1_555 1_555
O1 C1 1_555 1_555
O2 C1 1_555 1_555
O3 C8 1_555 1_555
O4 C14 1_555 1_555
O5 C22 1_555 1_555
O6 C22 1_555 1_555
N1 H1 1_555 1_555
N2 C4 1_555 1_555
C1 N1 1_555 1_555
C2 N1 1_555 1_555
C3 C2 1_555 1_555
H2 C3 1_555 1_555
C4 C3 1_555 1_555
H3 C4 1_555 1_555
C5 N2 1_555 1_555
C6 C5 1_555 1_555
H4 C6 1_555 1_555
C7 C6 1_555 1_555
H5 C7 1_555 1_555
C8 C7 1_555 1_555
C9 O3 1_555 1_555
H6 C9 1_555 1_555
H7 C9 1_555 1_555
H8 C9 1_555 1_555
C10 C8 1_555 1_555
H9 C10 1_555 1_555
C11 C5 1_555 1_555
H10 C11 1_555 1_555
C12 N2 1_555 1_555
H11 C12 1_555 1_555
C13 C12 1_555 1_555
C14 C13 1_555 1_555
C15 C14 1_555 1_555
C16 C15 1_555 1_555
H12 C16 1_555 1_555
C17 C16 1_555 1_555
H13 C17 1_555 1_555
C18 C17 1_555 1_555
C19 C18 1_555 1_555
H14 C19 1_555 1_555
C20 C15 1_555 1_555
H15 C20 1_555 1_555
C21 C13 1_555 1_555
H16 C21 1_555 1_555
C22 C4 1_555 1_555
C23 O5 1_555 1_555
H17 C23 1_555 1_555
H18 C23 1_555 1_555
H19 C23 1_555 1_555
C24 O6 1_555 1_555
H20 C24 1_555 1_555
H21 C24 1_555 1_555
H22 C24 1_555 1_555
C25 C2 1_555 1_555
H23 C25 1_555 1_555
H24 C25 1_555 1_555
C26 O1 1_555 1_555
C27 C26 1_555 1_555
H25 C27 1_555 1_555
H26 C27 1_555 1_555
H27 C27 1_555 1_555
C28 C26 1_555 1_555
H28 C28 1_555 1_555
H29 C28 1_555 1_555
H30 C28 1_555 1_555
C29 C26 1_555 1_555
H31 C29 1_555 1_555
H32 C29 1_555 1_555
H33 C29 1_555 1_555
C10 C11 1_555 1_555
C19 C20 1_555 1_555
C21 C22 1_555 1_555
C21 C25 1_555 1_555

#END
