
#######################################################################
#
#                 Cambridge Crystallographic Data Centre
#                                CCDC 
#
#######################################################################
#
# If this CIF has been generated from an entry in the Cambridge 
# Structural Database, then it will include bibliographic, chemical, 
# crystal, experimental, refinement or atomic coordinate data resulting 
# from the CCDC's data processing and validation procedures.
#
#######################################################################

data_CIFGII
_chemical_formula_moiety         'C8 H6 Cl1 N1 O3'
_chemical_name_systematic        
exo-(S,S,R)-8-Chloro-4-hydroxy-3-oxo-2-oxabicyclo(2.2.2)oct-5-ene-8-carbonitrile
_symmetry_cell_setting           tetragonal
_symmetry_space_group_name_H-M   'P 43'
_symmetry_Int_Tables_number      78
_space_group_name_Hall           'P 4cw'
loop_
_symmetry_equiv_pos_site_id
_symmetry_equiv_pos_as_xyz
1 x,y,z
2 -y,x,3/4+z
3 -x,-y,1/2+z
4 y,-x,1/4+z
_cell_length_a                   8.1373(2)
_cell_length_b                   8.1373(2)
_cell_length_c                   13.0130(4)
_cell_angle_alpha                90
_cell_angle_beta                 90
_cell_angle_gamma                90
_cell_volume                     861.664
_exptl_crystal_colour            colorless
_exptl_crystal_description       prism
_cell_formula_units_Z            4
loop_
_atom_site_label
_atom_site_type_symbol
_atom_site_fract_x
_atom_site_fract_y
_atom_site_fract_z
Cl1 Cl -0.96336(7) -0.28891(4) -0.04630(12)
O1 O -0.95620(14) -0.64457(13) -0.12033(12)
O2 O -0.99863(14) -0.74029(14) 0.14861(12)
O3 O -0.89215(14) -0.88634(12) 0.02142(14)
N1 N -0.59961(18) -0.5288(3) 0.00258(17)
C1 C -0.91229(14) -0.46851(14) 0.02521(13)
C2 C -1.00678(12) -0.61995(12) -0.01957(13)
C3 C -1.18763(15) -0.59110(17) -0.00237(15)
C4 C -1.22634(18) -0.5726(2) 0.09559(18)
C5 C -1.0828(2) -0.5832(2) 0.16623(14)
C6 C -0.95875(19) -0.4495(2) 0.14010(15)
C7 C -0.95912(13) -0.76355(14) 0.05039(13)
C8 C -0.73508(16) -0.49743(17) 0.01146(15)
H1 H -0.984(3) -0.728(3) -0.1338(18)
H2 H -1.257(3) -0.595(3) -0.0625(16)
H3 H -1.328(3) -0.548(3) 0.1156(17)
H4 H -1.104(3) -0.593(3) 0.2424(16)
H5 H -1.011(3) -0.348(3) 0.1476(17)
H6 H -0.871(3) -0.464(3) 0.1744(16)
loop_
_geom_bond_atom_site_label_1
_geom_bond_atom_site_label_2
_geom_bond_site_symmetry_1
_geom_bond_site_symmetry_2
Cl1 C1 1_555 1_555
O1 C2 1_555 1_555
O2 C5 1_555 1_555
O3 C7 1_555 1_555
N1 C8 1_555 1_555
C1 C2 1_555 1_555
C2 C3 1_555 1_555
C3 C4 1_555 1_555
C4 C5 1_555 1_555
C5 C6 1_555 1_555
C6 C1 1_555 1_555
C7 O2 1_555 1_555
C8 C1 1_555 1_555
H1 O1 1_555 1_555
H2 C3 1_555 1_555
H3 C4 1_555 1_555
H4 C5 1_555 1_555
H5 C6 1_555 1_555
H6 C6 1_555 1_555
C2 C7 1_555 1_555

#END
