
#######################################################################
#
#                 Cambridge Crystallographic Data Centre
#                                CCDC 
#
#######################################################################
#
# If this CIF has been generated from an entry in the Cambridge 
# Structural Database, then it will include bibliographic, chemical, 
# crystal, experimental, refinement or atomic coordinate data resulting 
# from the CCDC's data processing and validation procedures.
#
#######################################################################

data_CIFLOT
_chemical_formula_moiety         'C20 H30 N2 O2'
_chemical_name_systematic        
1,3-di-t-butyl-4-(2-(4-methoxyphenyl)ethenyl)imidazolidin-2-one
_symmetry_cell_setting           monoclinic
_symmetry_space_group_name_H-M   'P 21/n'
_symmetry_Int_Tables_number      14
_space_group_name_Hall           '-P 2yn'
loop_
_symmetry_equiv_pos_site_id
_symmetry_equiv_pos_as_xyz
1 x,y,z
2 1/2-x,1/2+y,1/2-z
3 -x,-y,-z
4 1/2+x,1/2-y,1/2+z
_cell_length_a                   8.0156(5)
_cell_length_b                   10.2134(6)
_cell_length_c                   23.4505(13)
_cell_angle_alpha                90
_cell_angle_beta                 95.475(3)
_cell_angle_gamma                90
_cell_volume                     1911.05
_exptl_crystal_colour            colorless
_exptl_crystal_description       plate
_cell_formula_units_Z            4
loop_
_atom_site_label
_atom_site_type_symbol
_atom_site_fract_x
_atom_site_fract_y
_atom_site_fract_z
O1 O 0.49177(15) 0.97304(12) 0.14215(5)
O2 O 1.30246(16) 0.87737(13) 0.49458(5)
N1 N 0.74558(17) 1.08383(14) 0.14200(6)
N2 N 0.57558(16) 1.13214(14) 0.20995(6)
C1 C 0.5926(2) 1.05462(17) 0.16268(7)
C2 C 0.8118(2) 1.20231(17) 0.17075(7)
H1 H 0.7721 1.2821 0.1496
H2 H 0.9358 1.2020 0.1755
C3 C 0.7388(2) 1.19247(17) 0.22852(7)
H3 H 0.7225 1.2818 0.2446
C4 C 0.7727(2) 1.05941(18) 0.08081(7)
C5 C 0.9407(2) 1.1188(2) 0.06890(8)
H4 H 0.9382 1.2136 0.0752
H5 H 0.9614 1.1011 0.0291
H6 H 1.0305 1.0797 0.0947
C6 C 0.6316(2) 1.12288(19) 0.04161(8)
H7 H 0.6298 1.2173 0.0490
H8 H 0.5240 1.0845 0.0493
H9 H 0.6509 1.1075 0.0015
C7 C 0.7789(3) 0.91191(18) 0.07070(8)
H10 H 0.6714 0.8727 0.0780
H11 H 0.8688 0.8733 0.0967
H12 H 0.8006 0.8950 0.0309
C8 C 0.4427(2) 1.10965(17) 0.24921(7)
C9 C 0.4515(2) 1.21916(19) 0.29356(8)
H13 H 0.4363 1.3038 0.2741
H14 H 0.5611 1.2173 0.3160
H15 H 0.3630 1.2068 0.3191
C10 C 0.2711(2) 1.11548(19) 0.21482(8)
H16 H 0.2571 1.2007 0.1957
H17 H 0.1831 1.1037 0.2407
H18 H 0.2629 1.0457 0.1860
C11 C 0.4658(2) 0.97710(18) 0.27917(8)
H19 H 0.4606 0.9072 0.2504
H20 H 0.3766 0.9643 0.3045
H21 H 0.5750 0.9748 0.3018
C12 C 0.8455(2) 1.10999(17) 0.27079(7)
H22 H 0.8589 1.0200 0.2621
C13 C 0.9221(2) 1.15540(17) 0.31952(7)
H23 H 0.9064 1.2458 0.3270
C14 C 1.0279(2) 1.08310(17) 0.36325(7)
C15 C 1.1018(2) 1.14953(18) 0.41064(7)
H24 H 1.0886 1.2418 0.4127
C16 C 1.1948(2) 1.08509(18) 0.45536(8)
H25 H 1.2437 1.1330 0.4874
C17 C 1.2155(2) 0.95058(17) 0.45270(7)
C18 C 1.1474(2) 0.88233(18) 0.40464(7)
H26 H 1.1644 0.7905 0.4020
C19 C 1.0552(2) 0.94770(17) 0.36075(7)
H27 H 1.0094 0.9000 0.3282
C20 C 1.3432(3) 0.9395(2) 0.54870(8)
H28 H 1.4051 0.8781 0.5750
H29 H 1.2398 0.9662 0.5647
H30 H 1.4126 1.0168 0.5436
loop_
_geom_bond_atom_site_label_1
_geom_bond_atom_site_label_2
_geom_bond_site_symmetry_1
_geom_bond_site_symmetry_2
O1 C1 1_555 1_555
O2 C17 1_555 1_555
N1 C1 1_555 1_555
N2 C1 1_555 1_555
C2 N1 1_555 1_555
H1 C2 1_555 1_555
H2 C2 1_555 1_555
C3 N2 1_555 1_555
H3 C3 1_555 1_555
C4 N1 1_555 1_555
C5 C4 1_555 1_555
H4 C5 1_555 1_555
H5 C5 1_555 1_555
H6 C5 1_555 1_555
C6 C4 1_555 1_555
H7 C6 1_555 1_555
H8 C6 1_555 1_555
H9 C6 1_555 1_555
C7 C4 1_555 1_555
H10 C7 1_555 1_555
H11 C7 1_555 1_555
H12 C7 1_555 1_555
C8 N2 1_555 1_555
C9 C8 1_555 1_555
H13 C9 1_555 1_555
H14 C9 1_555 1_555
H15 C9 1_555 1_555
C10 C8 1_555 1_555
H16 C10 1_555 1_555
H17 C10 1_555 1_555
H18 C10 1_555 1_555
C11 C8 1_555 1_555
H19 C11 1_555 1_555
H20 C11 1_555 1_555
H21 C11 1_555 1_555
C12 C3 1_555 1_555
H22 C12 1_555 1_555
C13 C12 1_555 1_555
H23 C13 1_555 1_555
C14 C13 1_555 1_555
C15 C14 1_555 1_555
H24 C15 1_555 1_555
C16 C15 1_555 1_555
H25 C16 1_555 1_555
C17 C16 1_555 1_555
C18 C17 1_555 1_555
H26 C18 1_555 1_555
C19 C14 1_555 1_555
H27 C19 1_555 1_555
C20 O2 1_555 1_555
H28 C20 1_555 1_555
H29 C20 1_555 1_555
H30 C20 1_555 1_555
C2 C3 1_555 1_555
C18 C19 1_555 1_555

#END
