
#######################################################################
#
#                 Cambridge Crystallographic Data Centre
#                                CCDC 
#
#######################################################################
#
# If this CIF has been generated from an entry in the Cambridge 
# Structural Database, then it will include bibliographic, chemical, 
# crystal, experimental, refinement or atomic coordinate data resulting 
# from the CCDC's data processing and validation procedures.
#
#######################################################################

data_CIFNEM
_chemical_formula_moiety         'C12 H21 N2 O2 1+,Br1 1-'
_chemical_name_systematic        
'1-(1-Ethoxy-3-methyl-1-oxobutan-2-yl)-3-ethyl-1H-imidazol-3-ium bromide'
_symmetry_cell_setting           orthorhombic
_symmetry_space_group_name_H-M   'P 21 21 21'
_symmetry_Int_Tables_number      19
_space_group_name_Hall           'P 2ac 2ab'
loop_
_symmetry_equiv_pos_site_id
_symmetry_equiv_pos_as_xyz
1 x,y,z
2 1/2-x,-y,1/2+z
3 1/2+x,1/2-y,-z
4 -x,1/2+y,1/2-z
_cell_length_a                   9.4730(10)
_cell_length_b                   10.9893(11)
_cell_length_c                   14.3127(15)
_cell_angle_alpha                90
_cell_angle_beta                 90
_cell_angle_gamma                90
_cell_volume                     1489.98
_exptl_crystal_colour            colorless
_exptl_crystal_description       block
_cell_formula_units_Z            4
loop_
_atom_site_label
_atom_site_type_symbol
_atom_site_fract_x
_atom_site_fract_y
_atom_site_fract_z
Br1 Br 0.832374(13) 0.396996(11) 0.336266(9)
C1 C 0.11177(17) 0.15203(16) 0.39328(13)
H1 H 0.1439 0.2168 0.4353
H2 H 0.0185 0.1236 0.4132
H3 H 0.1059 0.1836 0.3294
C2 C 0.21454(14) 0.04799(14) 0.39630(10)
H4 H 0.2184 0.0145 0.4605
H5 H 0.1820 -0.0175 0.3539
C3 C 0.40136(13) 0.09706(14) 0.27997(9)
H6 H 0.3511 0.0717 0.2259
C4 C 0.56667(15) 0.17156(13) 0.37277(10)
H7 H 0.6525 0.2069 0.3937
C5 C 0.45766(15) 0.13495(12) 0.42690(10)
H8 H 0.4520 0.1404 0.4930
C6 C 0.62273(15) 0.17269(13) 0.20115(9)
H9 H 0.6963 0.2313 0.2232
C7 C 0.70099(14) 0.05776(13) 0.16675(11)
H10 H 0.7705 0.0849 0.1185
C8 C 0.78538(18) 0.00046(17) 0.24597(12)
H11 H 0.7205 -0.0345 0.2920
H12 H 0.8437 0.0629 0.2760
H13 H 0.8463 -0.0638 0.2208
C9 C 0.60379(18) -0.03394(14) 0.11992(13)
H14 H 0.6600 -0.1011 0.0946
H15 H 0.5521 0.0059 0.0691
H16 H 0.5366 -0.0657 0.1659
C10 C 0.54074(16) 0.23587(13) 0.12368(10)
C11 C 0.5699(2) 0.32344(16) -0.02764(10)
H17 H 0.6408 0.3770 -0.0575
H18 H 0.4872 0.3738 -0.0107
C12 C 0.5262(2) 0.22739(16) -0.09422(11)
H19 H 0.6080 0.1770 -0.1104
H20 H 0.4883 0.2652 -0.1509
H21 H 0.4533 0.1764 -0.0654
N1 N 0.35642(11) 0.08833(10) 0.36794(8)
N2 N 0.52943(12) 0.14775(10) 0.28108(8)
O1 O 0.41634(12) 0.25329(11) 0.12254(8)
O2 O 0.63036(12) 0.26883(10) 0.05706(7)
loop_
_geom_bond_atom_site_label_1
_geom_bond_atom_site_label_2
_geom_bond_site_symmetry_1
_geom_bond_site_symmetry_2
C1 H1 1_555 1_555
H2 C1 1_555 1_555
H3 C1 1_555 1_555
C2 C1 1_555 1_555
H4 C2 1_555 1_555
H5 C2 1_555 1_555
C3 H6 1_555 1_555
C4 H7 1_555 1_555
C5 C4 1_555 1_555
H8 C5 1_555 1_555
C6 H9 1_555 1_555
C7 C6 1_555 1_555
H10 C7 1_555 1_555
C8 C7 1_555 1_555
H11 C8 1_555 1_555
H12 C8 1_555 1_555
H13 C8 1_555 1_555
C9 C7 1_555 1_555
H14 C9 1_555 1_555
H15 C9 1_555 1_555
H16 C9 1_555 1_555
C10 C6 1_555 1_555
C11 H17 1_555 1_555
H18 C11 1_555 1_555
C12 C11 1_555 1_555
H19 C12 1_555 1_555
H20 C12 1_555 1_555
H21 C12 1_555 1_555
N1 C2 1_555 1_555
N2 C3 1_555 1_555
O1 C10 1_555 1_555
O2 C10 1_555 1_555
C3 N1 1_555 1_555
C4 N2 1_555 1_555
C5 N1 1_555 1_555
C6 N2 1_555 1_555
C11 O2 1_555 1_555

#END
