
#######################################################################
#
#                 Cambridge Crystallographic Data Centre
#                                CCDC 
#
#######################################################################
#
# If this CIF has been generated from an entry in the Cambridge 
# Structural Database, then it will include bibliographic, chemical, 
# crystal, experimental, refinement or atomic coordinate data resulting 
# from the CCDC's data processing and validation procedures.
#
#######################################################################

data_CIFNAJ
_chemical_formula_moiety         'C18 H22 F1 N1 O3'
_chemical_name_systematic        
2-fluoro-1-(4-methoxyphenyl)-3-[(4-methoxyphenyl)amino]-2-methylpropan-1-ol
_symmetry_cell_setting           orthorhombic
_symmetry_space_group_name_H-M   'P 21 21 21'
_symmetry_Int_Tables_number      19
_space_group_name_Hall           'P 2ac 2ab'
loop_
_symmetry_equiv_pos_site_id
_symmetry_equiv_pos_as_xyz
1 x,y,z
2 1/2-x,-y,1/2+z
3 1/2+x,1/2-y,-z
4 -x,1/2+y,1/2-z
_cell_length_a                   5.69563(16)
_cell_length_b                   7.7161(2)
_cell_length_c                   38.1150(11)
_cell_angle_alpha                90
_cell_angle_beta                 90
_cell_angle_gamma                90
_cell_volume                     1675.08
_cell_formula_units_Z            4
loop_
_atom_site_label
_atom_site_type_symbol
_atom_site_fract_x
_atom_site_fract_y
_atom_site_fract_z
C1 C 0.5580(5) 0.1648(4) 0.58473(8)
H1 H 0.6856 0.1627 0.5999
C2 C 0.5632(6) 0.0629(5) 0.55481(9)
H2 H 0.6930 -0.0063 0.5501
C3 C 0.3741(6) 0.0646(4) 0.53205(7)
C4 C 0.1849(6) 0.1687(5) 0.53924(9)
H3 H 0.0584 0.1723 0.5238
C5 C 0.1824(6) 0.2688(5) 0.56956(8)
H4 H 0.0518 0.3371 0.5744
C6 C 0.3686(5) 0.2690(4) 0.59252(7)
C7 C 0.3695(5) 0.3747(4) 0.62593(7)
H5 H 0.4800 0.3196 0.6422
C8 C 0.4418(5) 0.5643(4) 0.62216(7)
C9 C 0.4882(5) 0.6450(4) 0.65797(8)
H6 H 0.5321 0.7656 0.6551
H7 H 0.3461 0.6407 0.6720
C10 C 0.2752(6) 0.6716(4) 0.60015(9)
H8 H 0.3283 0.7897 0.5996
H9 H 0.1207 0.6668 0.6102
H10 H 0.2709 0.6264 0.5767
C11 C 0.7152(5) 0.5650(4) 0.71170(7)
C12 C 0.5659(5) 0.6474(4) 0.73511(8)
H11 H 0.4330 0.7041 0.7268
C13 C 0.6129(5) 0.6460(4) 0.77079(7)
H12 H 0.5111 0.7016 0.7862
C14 C 0.8082(5) 0.5635(4) 0.78359(7)
C15 C 0.9612(5) 0.4823(4) 0.76071(8)
H13 H 1.0949 0.4271 0.7692
C16 C 0.9136(5) 0.4839(4) 0.72523(7)
H14 H 1.0170 0.4292 0.7099
C17 C 0.1995(11) -0.0544(6) 0.48063(10)
H15 H 0.2374 -0.1297 0.4614
H16 H 0.1600 0.0584 0.4718
H17 H 0.0682 -0.1010 0.4933
C18 C 1.0343(7) 0.4733(5) 0.83356(9)
H18 H 1.0231 0.3545 0.8263
H19 H 1.0315 0.4792 0.8587
H20 H 1.1786 0.5220 0.8250
F1 F 0.6615(3) 0.5620(3) 0.60451(4)
N1 N 0.6739(5) 0.5535(4) 0.67584(7)
H21 H 0.790(6) 0.521(4) 0.6639(8)
O1 O 0.1442(4) 0.3769(3) 0.64252(6)
H22 H 0.148(7) 0.293(6) 0.6556(11)
O2 O 0.3955(6) -0.0412(4) 0.50335(6)
O3 O 0.8422(4) 0.5680(3) 0.81976(5)
loop_
_geom_bond_atom_site_label_1
_geom_bond_atom_site_label_2
_geom_bond_site_symmetry_1
_geom_bond_site_symmetry_2
C1 H1 1_555 1_555
C2 C1 1_555 1_555
H2 C2 1_555 1_555
C3 C2 1_555 1_555
C4 C3 1_555 1_555
H3 C4 1_555 1_555
C5 C4 1_555 1_555
H4 C5 1_555 1_555
C6 C1 1_555 1_555
C7 C6 1_555 1_555
H5 C7 1_555 1_555
C8 C7 1_555 1_555
C9 C8 1_555 1_555
H6 C9 1_555 1_555
H7 C9 1_555 1_555
C10 C8 1_555 1_555
H8 C10 1_555 1_555
H9 C10 1_555 1_555
H10 C10 1_555 1_555
C11 C12 1_555 1_555
C12 H11 1_555 1_555
C13 C12 1_555 1_555
H12 C13 1_555 1_555
C14 C13 1_555 1_555
C15 C14 1_555 1_555
H13 C15 1_555 1_555
C16 C11 1_555 1_555
H14 C16 1_555 1_555
C17 H15 1_555 1_555
H16 C17 1_555 1_555
H17 C17 1_555 1_555
C18 H18 1_555 1_555
H19 C18 1_555 1_555
H20 C18 1_555 1_555
F1 C8 1_555 1_555
N1 C9 1_555 1_555
H21 N1 1_555 1_555
O1 C7 1_555 1_555
H22 O1 1_555 1_555
O2 C3 1_555 1_555
O3 C14 1_555 1_555
C5 C6 1_555 1_555
C11 N1 1_555 1_555
C15 C16 1_555 1_555
C17 O2 1_555 1_555
C18 O3 1_555 1_555

#END
