
#######################################################################
#
#                 Cambridge Crystallographic Data Centre
#                                CCDC 
#
#######################################################################
#
# If this CIF has been generated from an entry in the Cambridge 
# Structural Database, then it will include bibliographic, chemical, 
# crystal, experimental, refinement or atomic coordinate data resulting 
# from the CCDC's data processing and validation procedures.
#
#######################################################################

data_CIFNEL01
_chemical_formula_moiety         'C17 H24 N4 O6'
_chemical_name_systematic        
N^2^-(3,5-Dinitrobenzoyl)-N,N-diethylleucinamide
_symmetry_cell_setting           monoclinic
_symmetry_space_group_name_H-M   'C 2/c'
_symmetry_Int_Tables_number      15
_space_group_name_Hall           '-C 2yn'
loop_
_symmetry_equiv_pos_site_id
_symmetry_equiv_pos_as_xyz
1 x,y,z
2 -x,y,1/2-z
3 1/2+x,1/2+y,z
4 1/2-x,1/2+y,1/2-z
5 -x,-y,-z
6 x,-y,1/2+z
7 1/2-x,1/2-y,-z
8 1/2+x,1/2-y,1/2+z
_cell_length_a                   32.3644(12)
_cell_length_b                   12.2340(3)
_cell_length_c                   20.5370(6)
_cell_angle_alpha                90
_cell_angle_beta                 108.300(4)
_cell_angle_gamma                90
_cell_volume                     7720.3
_exptl_crystal_colour            colorless
_exptl_crystal_description       parallelepiped
_cell_formula_units_Z            16
loop_
_atom_site_label
_atom_site_type_symbol
_atom_site_fract_x
_atom_site_fract_y
_atom_site_fract_z
O1 O 0.18598(3) 0.60012(7) 0.15829(5)
O2 O 0.08517(3) 0.81980(6) 0.12503(5)
O3 O 0.22809(4) 0.96337(8) -0.02872(6)
O4 O 0.29790(4) 0.97877(8) 0.01464(6)
O5 O 0.37587(3) 0.75241(7) 0.20489(5)
O6 O 0.34058(3) 0.64215(7) 0.25075(5)
N1 N 0.14455(4) 0.71335(8) 0.07700(6)
H1 H 0.1424(5) 0.7717(11) 0.0523(8)
N2 N 0.05598(4) 0.66344(8) 0.14711(6)
N3 N 0.26298(4) 0.94019(8) 0.01363(6)
N4 N 0.34217(4) 0.71181(8) 0.20876(6)
C1 C 0.22361(4) 0.81119(9) 0.06467(7)
H2 H 0.1972 0.8337 0.0315
C2 C 0.26278(4) 0.85708(9) 0.06605(7)
C3 C 0.30206(4) 0.82835(9) 0.11276(7)
H3 H 0.3285 0.8624 0.1132
C4 C 0.30081(4) 0.74732(9) 0.15886(7)
C5 C 0.26271(4) 0.69854(9) 0.16000(7)
H4 H 0.2632 0.6432 0.1927
C6 C 0.22350(4) 0.73110(9) 0.11288(7)
C7 C 0.18280(4) 0.67600(9) 0.11773(7)
C8 C 0.10400(4) 0.65963(9) 0.07381(7)
H5 H 0.1098 0.5820 0.0892
C9 C 0.08175(4) 0.71929(10) 0.11917(7)
C10 C 0.03177(5) 0.72559(11) 0.18430(8)
H6 H 0.0492 0.7896 0.2065
H7 H 0.0271 0.6790 0.2208
C11 C -0.01149(6) 0.76405(13) 0.13774(10)
H8 H -0.0266 0.8053 0.1644
H9 H -0.0292 0.7008 0.1165
H10 H -0.0070 0.8112 0.1020
C12 C 0.05079(5) 0.54433(10) 0.14594(8)
H11 H 0.0616 0.5131 0.1098
H12 H 0.0195 0.5262 0.1343
C13 C 0.07492(7) 0.49382(11) 0.21332(9)
H13 H 0.0706 0.4144 0.2106
H14 H 0.0640 0.5236 0.2491
H15 H 0.1060 0.5102 0.2246
C14 C 0.07291(4) 0.66311(10) 0.00054(7)
H16 H 0.0660 0.7405 -0.0125
H17 H 0.0454 0.6267 -0.0003
C15 C 0.08971(5) 0.60952(11) -0.05337(8)
H18 H 0.1190 0.6411 -0.0487
C16 C 0.09502(6) 0.48667(11) -0.04273(9)
H19 H 0.1062 0.4552 -0.0778
H20 H 0.0668 0.4538 -0.0464
H21 H 0.1156 0.4718 0.0028
C17 C 0.05953(6) 0.63809(12) -0.12463(8)
H22 H 0.0570 0.7177 -0.1295
H23 H 0.0307 0.6065 -0.1310
H24 H 0.0715 0.6085 -0.1593
O7 O 0.20877(3) 1.06993(7) 0.13743(5)
O8 O 0.12782(3) 0.89666(6) -0.01495(5)
O9 O 0.13106(3) 0.71477(7) 0.28759(5)
O10 O 0.18859(4) 0.62004(7) 0.33942(6)
O11 O 0.32607(4) 0.83914(8) 0.39509(6)
O12 O 0.33637(3) 0.88470(8) 0.29901(5)
N5 N 0.14404(4) 0.98491(8) 0.11374(6)
H25 H 0.1289(5) 0.9295(11) 0.1207(8)
N6 N 0.13073(4) 1.06206(8) -0.06191(6)
N7 N 0.17053(4) 0.69909(9) 0.30618(6)
N8 N 0.31301(4) 0.86155(8) 0.33399(7)
C18 C 0.17792(4) 0.85289(9) 0.23432(7)
H26 H 0.1472 0.8516 0.2135
C19 C 0.19793(5) 0.78203(10) 0.28702(7)
C20 C 0.24186(5) 0.78305(10) 0.32135(7)
H27 H 0.2548 0.7342 0.3580
C21 C 0.26594(5) 0.85908(10) 0.29947(7)
C22 C 0.24810(5) 0.92958(10) 0.24512(7)
H28 H 0.2660 0.9792 0.2307
C23 C 0.20361(4) 0.92637(9) 0.21220(7)
C24 C 0.18544(5) 1.00068(9) 0.15110(7)
C25 C 0.12308(4) 1.05146(9) 0.05393(7)
H29 H 0.1362 1.1262 0.0600
C26 C 0.12835(4) 0.99795(10) -0.01041(7)
C27 C 0.13347(5) 1.01133(11) -0.12518(7)
H30 H 0.1450 0.9361 -0.1149
H31 H 0.1541 1.0534 -0.1422
C28 C 0.09006(6) 1.00698(12) -0.18032(8)
H32 H 0.0935 0.9733 -0.2216
H33 H 0.0786 1.0813 -0.1910
H34 H 0.0697 0.9635 -0.1643
C29 C 0.13564(5) 1.18176(10) -0.05706(7)
H35 H 0.1198 1.2105 -0.0266
H36 H 0.1225 1.2143 -0.1031
C30 C 0.18309(6) 1.21548(11) -0.02936(8)
H37 H 0.1851 1.2954 -0.0268
H38 H 0.1987 1.1884 -0.0600
H39 H 0.1961 1.1844 0.0165
C31 C 0.07427(4) 1.05926(10) 0.04431(7)
H40 H 0.0624 0.9843 0.0428
H41 H 0.0596 1.0940 -0.0006
C32 C 0.06287(5) 1.12364(11) 0.10011(8)
H42 H 0.0848 1.1053 0.1453
C33 C 0.06479(6) 1.24628(11) 0.08871(11)
H43 H 0.0576 1.2855 0.1254
H44 H 0.0438 1.2658 0.0443
H45 H 0.0942 1.2665 0.0891
C34 C 0.01818(5) 1.09180(13) 0.10315(10)
H46 H 0.0117 1.1334 0.1395
H47 H 0.0178 1.0135 0.1129
H48 H -0.0038 1.1079 0.0590
loop_
_geom_bond_atom_site_label_1
_geom_bond_atom_site_label_2
_geom_bond_site_symmetry_1
_geom_bond_site_symmetry_2
O1 C7 1_555 1_555
O2 C9 1_555 1_555
O3 N3 1_555 1_555
O4 N3 1_555 1_555
O5 N4 1_555 1_555
O6 N4 1_555 1_555
N1 H1 1_555 1_555
N2 C9 1_555 1_555
N3 C2 1_555 1_555
N4 C4 1_555 1_555
C1 H2 1_555 1_555
C2 C1 1_555 1_555
C3 C2 1_555 1_555
H3 C3 1_555 1_555
C4 C3 1_555 1_555
C5 C4 1_555 1_555
H4 C5 1_555 1_555
C6 C1 1_555 1_555
C7 N1 1_555 1_555
C8 N1 1_555 1_555
H5 C8 1_555 1_555
C9 C8 1_555 1_555
C10 N2 1_555 1_555
H6 C10 1_555 1_555
H7 C10 1_555 1_555
C11 C10 1_555 1_555
H8 C11 1_555 1_555
H9 C11 1_555 1_555
H10 C11 1_555 1_555
C12 N2 1_555 1_555
H11 C12 1_555 1_555
H12 C12 1_555 1_555
C13 C12 1_555 1_555
H13 C13 1_555 1_555
H14 C13 1_555 1_555
H15 C13 1_555 1_555
C14 C8 1_555 1_555
H16 C14 1_555 1_555
H17 C14 1_555 1_555
C15 C14 1_555 1_555
H18 C15 1_555 1_555
C16 C15 1_555 1_555
H19 C16 1_555 1_555
H20 C16 1_555 1_555
H21 C16 1_555 1_555
C17 C15 1_555 1_555
H22 C17 1_555 1_555
H23 C17 1_555 1_555
H24 C17 1_555 1_555
O7 C24 1_555 1_555
O8 C26 1_555 1_555
O9 N7 1_555 1_555
O10 N7 1_555 1_555
O11 N8 1_555 1_555
O12 N8 1_555 1_555
N5 H25 1_555 1_555
N6 C26 1_555 1_555
N7 C19 1_555 1_555
N8 C21 1_555 1_555
C18 H26 1_555 1_555
C19 C18 1_555 1_555
C20 C19 1_555 1_555
H27 C20 1_555 1_555
C21 C20 1_555 1_555
C22 C21 1_555 1_555
H28 C22 1_555 1_555
C23 C18 1_555 1_555
C24 N5 1_555 1_555
C25 N5 1_555 1_555
H29 C25 1_555 1_555
C26 C25 1_555 1_555
C27 N6 1_555 1_555
H30 C27 1_555 1_555
H31 C27 1_555 1_555
C28 C27 1_555 1_555
H32 C28 1_555 1_555
H33 C28 1_555 1_555
H34 C28 1_555 1_555
C29 N6 1_555 1_555
H35 C29 1_555 1_555
H36 C29 1_555 1_555
C30 C29 1_555 1_555
H37 C30 1_555 1_555
H38 C30 1_555 1_555
H39 C30 1_555 1_555
C31 C25 1_555 1_555
H40 C31 1_555 1_555
H41 C31 1_555 1_555
C32 C31 1_555 1_555
H42 C32 1_555 1_555
C33 C32 1_555 1_555
H43 C33 1_555 1_555
H44 C33 1_555 1_555
H45 C33 1_555 1_555
C34 C32 1_555 1_555
H46 C34 1_555 1_555
H47 C34 1_555 1_555
H48 C34 1_555 1_555
C5 C6 1_555 1_555
C6 C7 1_555 1_555
C22 C23 1_555 1_555
C23 C24 1_555 1_555

#END
