
#######################################################################
#
#                 Cambridge Crystallographic Data Centre
#                                CCDC 
#
#######################################################################
#
# If this CIF has been generated from an entry in the Cambridge 
# Structural Database, then it will include bibliographic, chemical, 
# crystal, experimental, refinement or atomic coordinate data resulting 
# from the CCDC's data processing and validation procedures.
#
#######################################################################

data_CIFROY02
_chemical_formula_moiety         'C2 H2 N4 O2'
_chemical_name_systematic        3-nitro-1H-1,2,4-triazole
_symmetry_cell_setting           tetragonal
_symmetry_space_group_name_H-M   'P 41 21 2'
_symmetry_Int_Tables_number      92
_space_group_name_Hall           'P 4abw 2nw'
loop_
_symmetry_equiv_pos_site_id
_symmetry_equiv_pos_as_xyz
1 x,y,z
2 1/2-y,1/2+x,1/4+z
3 -x,-y,1/2+z
4 1/2+y,1/2-x,3/4+z
5 1/2+x,1/2-y,3/4-z
6 1/2-x,1/2+y,1/4-z
7 y,x,-z
8 -y,-x,1/2-z
_cell_length_a                   6.8413(3)
_cell_length_b                   6.8413(3)
_cell_length_c                   18.8196(12)
_cell_angle_alpha                90
_cell_angle_beta                 90
_cell_angle_gamma                90
_cell_volume                     880.821
_exptl_crystal_colour            yellow
_chemical_melting_point          '544 K'
_cell_formula_units_Z            8
_exptl_crystal_recrystallization_method 
'Re-crystallisation from solvent: methanol'
loop_
_atom_site_label
_atom_site_type_symbol
_atom_site_fract_x
_atom_site_fract_y
_atom_site_fract_z
N1 N 0.4742(2) 0.0251(2) 0.02027(7)
H1 H 0.5858 0.0806 0.0143
O1 O -0.10150(19) -0.1699(2) 0.08344(6)
N2 N 0.2286(2) -0.1717(2) 0.00217(7)
O2 O 0.0217(2) 0.0511(2) 0.15308(6)
N3 N 0.0295(2) -0.0584(2) 0.10162(7)
C1 C 0.4037(3) -0.1168(3) -0.02051(8)
H2 H 0.4681 -0.1701 -0.0595
N4 N 0.3461(2) 0.0702(2) 0.07246(7)
C2 C 0.2046(3) -0.0533(3) 0.05874(8)
loop_
_geom_bond_atom_site_label_1
_geom_bond_atom_site_label_2
_geom_bond_site_symmetry_1
_geom_bond_site_symmetry_2
N1 H1 1_555 1_555
O1 N3 1_555 1_555
N2 C1 1_555 1_555
O2 N3 1_555 1_555
N3 C2 1_555 1_555
C1 N1 1_555 1_555
H2 C1 1_555 1_555
N4 N1 1_555 1_555
C2 N2 1_555 1_555
N4 C2 1_555 1_555

#END
