
#######################################################################
#
#                 Cambridge Crystallographic Data Centre
#                                CCDC 
#
#######################################################################
#
# If this CIF has been generated from an entry in the Cambridge 
# Structural Database, then it will include bibliographic, chemical, 
# crystal, experimental, refinement or atomic coordinate data resulting 
# from the CCDC's data processing and validation procedures.
#
#######################################################################

data_CIFROY03
_chemical_formula_moiety         'C2 H2 N4 O2'
_chemical_name_systematic        3-nitro-1H-1,2,4-triazole
_symmetry_cell_setting           monoclinic
_symmetry_space_group_name_H-M   'P 21/c'
_symmetry_Int_Tables_number      14
_space_group_name_Hall           '-P 2ybc'
loop_
_symmetry_equiv_pos_site_id
_symmetry_equiv_pos_as_xyz
1 x,y,z
2 -x,1/2+y,1/2-z
3 -x,-y,-z
4 x,1/2-y,1/2+z
_cell_length_a                   8.7895(6)
_cell_length_b                   10.0707(8)
_cell_length_c                   9.9645(5)
_cell_angle_alpha                90
_cell_angle_beta                 107.082(6)
_cell_angle_gamma                90
_cell_volume                     843.112
_exptl_crystal_colour            white
_chemical_melting_point          '544 K'
_cell_formula_units_Z            8
_exptl_crystal_recrystallization_method 
'Re-crystallisation from solvent: methanol, ethyl acetate & hydroxylamine'
loop_
_atom_site_label
_atom_site_type_symbol
_atom_site_fract_x
_atom_site_fract_y
_atom_site_fract_z
O1 O 0.18398(13) 0.08442(11) 0.10883(10)
N1 N 0.01755(14) -0.07425(12) 0.23324(11)
N2 N 0.18937(14) -0.03533(13) 0.08537(11)
O2 O 0.25857(12) -0.08366(11) 0.00737(10)
N3 N 0.01835(13) -0.29108(13) 0.22142(11)
H1 H -0.0033 -0.3742 0.2362
C1 C -0.03483(16) -0.18565(15) 0.27552(14)
H2 H -0.1008 -0.1898 0.3357
N4 N 0.11015(13) -0.25245(13) 0.14064(11)
C2 C 0.10456(16) -0.12284(15) 0.15385(13)
O3 O 0.35707(13) -0.01670(11) 0.73153(10)
O4 O 0.23094(12) 0.04038(11) 0.51724(10)
N5 N 0.32637(14) -0.02837(12) 0.60363(12)
N6 N 0.49801(14) -0.24353(13) 0.42048(11)
H3 H 0.5169 -0.2777 0.3457
N7 N 0.51204(14) -0.21378(13) 0.64052(11)
C3 C 0.41189(16) -0.13001(15) 0.55244(13)
N8 N 0.39725(14) -0.14173(13) 0.41798(11)
C4 C 0.56493(16) -0.28537(15) 0.55144(13)
H4 H 0.6395 -0.3560 0.5773
loop_
_geom_bond_atom_site_label_1
_geom_bond_atom_site_label_2
_geom_bond_site_symmetry_1
_geom_bond_site_symmetry_2
O1 N2 1_555 1_555
N1 C1 1_555 1_555
N2 O2 1_555 1_555
N3 H1 1_555 1_555
C1 N3 1_555 1_555
H2 C1 1_555 1_555
N4 N3 1_555 1_555
C2 N1 1_555 1_555
O3 N5 1_555 1_555
O4 N5 1_555 1_555
N5 C3 1_555 1_555
N6 H3 1_555 1_555
N7 C3 1_555 1_555
C3 N8 1_555 1_555
N8 N6 1_555 1_555
C4 N6 1_555 1_555
H4 C4 1_555 1_555
N2 C2 1_555 1_555
N4 C2 1_555 1_555
N7 C4 1_555 1_555

#END
