
#######################################################################
#
#                 Cambridge Crystallographic Data Centre
#                                CCDC 
#
#######################################################################
#
# If this CIF has been generated from an entry in the Cambridge 
# Structural Database, then it will include bibliographic, chemical, 
# crystal, experimental, refinement or atomic coordinate data resulting 
# from the CCDC's data processing and validation procedures.
#
#######################################################################

data_CIFRER
_chemical_formula_moiety         'C4 H6 F1 N7 O4'
_chemical_name_systematic        
N-(2-fluoro-2,2-dinitroethyl)-1-methyl-1H-tetrazol-5-amine
_symmetry_cell_setting           monoclinic
_symmetry_space_group_name_H-M   'P 21/n'
_symmetry_Int_Tables_number      14
_space_group_name_Hall           '-P 2yn'
loop_
_symmetry_equiv_pos_site_id
_symmetry_equiv_pos_as_xyz
1 x,y,z
2 1/2-x,1/2+y,1/2-z
3 -x,-y,-z
4 1/2+x,1/2-y,1/2+z
_cell_length_a                   8.760(5)
_cell_length_b                   5.919(4)
_cell_length_c                   18.180(9)
_cell_angle_alpha                90
_cell_angle_beta                 99.609(14)
_cell_angle_gamma                90
_cell_volume                     929.416
_exptl_crystal_colour            colorless
_exptl_crystal_description       block
_cell_formula_units_Z            4
loop_
_atom_site_label
_atom_site_type_symbol
_atom_site_fract_x
_atom_site_fract_y
_atom_site_fract_z
F1 F 0.2293(3) 0.3275(5) 0.66292(14)
N1 N 0.6190(4) 0.6921(5) 0.82432(17)
N2 N 0.5244(4) 0.4569(5) 0.72148(17)
H1 H 0.5262 0.3385 0.7509
N3 N 0.5480(4) 0.8574(5) 0.71739(18)
O1 O 0.3542(4) 0.3168(6) 0.50242(18)
N4 N 0.5980(4) 1.0113(5) 0.7715(2)
N5 N 0.2564(5) 0.3491(6) 0.5401(2)
N6 N 0.6411(4) 0.9162(5) 0.8356(2)
O2 O 0.2862(5) 0.7951(6) 0.5649(2)
N7 N 0.2505(4) 0.6840(7) 0.6156(2)
O3 O 0.1841(4) 0.7469(7) 0.6644(2)
C1 C 0.5619(4) 0.6604(6) 0.7523(2)
O4 O 0.1184(4) 0.3118(6) 0.5227(2)
C2 C 0.3080(5) 0.4394(7) 0.6193(2)
C3 C 0.4818(4) 0.4260(7) 0.6432(2)
H2 H 0.5191 0.2769 0.6290
H3 H 0.5321 0.5437 0.6168
C4 C 0.6553(5) 0.5289(7) 0.8845(2)
H4 H 0.7441 0.4373 0.8763
H5 H 0.5656 0.4306 0.8855
H6 H 0.6805 0.6088 0.9322
loop_
_geom_bond_atom_site_label_1
_geom_bond_atom_site_label_2
_geom_bond_site_symmetry_1
_geom_bond_site_symmetry_2
F1 C2 1_555 1_555
N1 N6 1_555 1_555
N2 H1 1_555 1_555
N3 N4 1_555 1_555
O1 N5 1_555 1_555
N4 N6 1_555 1_555
N5 O4 1_555 1_555
O2 N7 1_555 1_555
N7 O3 1_555 1_555
C1 N1 1_555 1_555
C2 N5 1_555 1_555
C3 N2 1_555 1_555
H2 C3 1_555 1_555
H3 C3 1_555 1_555
C4 N1 1_555 1_555
H4 C4 1_555 1_555
H5 C4 1_555 1_555
H6 C4 1_555 1_555
N2 C1 1_555 1_555
N3 C1 1_555 1_555
N7 C2 1_555 1_555
C2 C3 1_555 1_555

#END
