
#######################################################################
#
#                 Cambridge Crystallographic Data Centre
#                                CCDC 
#
#######################################################################
#
# If this CIF has been generated from an entry in the Cambridge 
# Structural Database, then it will include bibliographic, chemical, 
# crystal, experimental, refinement or atomic coordinate data resulting 
# from the CCDC's data processing and validation procedures.
#
#######################################################################

data_CIFSOB
_chemical_formula_moiety         'C11 H14 O2'
_chemical_name_systematic        
Hexahydro-1H-cyclopenta[a]pentalene-3,4(2H,3aH)-dione
_symmetry_cell_setting           monoclinic
_symmetry_space_group_name_H-M   'P 21/c'
_symmetry_Int_Tables_number      14
_space_group_name_Hall           '-P 2ybc'
loop_
_symmetry_equiv_pos_site_id
_symmetry_equiv_pos_as_xyz
1 x,y,z
2 -x,1/2+y,1/2-z
3 -x,-y,-z
4 x,1/2-y,1/2+z
_cell_length_a                   7.5992(7)
_cell_length_b                   10.7294(10)
_cell_length_c                   10.8664(10)
_cell_angle_alpha                90
_cell_angle_beta                 93.805(2)
_cell_angle_gamma                90
_cell_volume                     884.037
_exptl_crystal_colour            colorless
_exptl_crystal_description       block
_cell_formula_units_Z            4
loop_
_atom_site_label
_atom_site_type_symbol
_atom_site_fract_x
_atom_site_fract_y
_atom_site_fract_z
C1 C -0.01361(14) 0.14025(10) 0.14263(10)
C2 C -0.11505(15) 0.25581(10) 0.17611(11)
H1 H -0.0627 0.2932 0.2534
H2 H -0.2399 0.2351 0.1873
C3 C -0.10081(14) 0.34549(10) 0.06773(11)
H3 H -0.0966 0.4331 0.0964
H4 H -0.2021 0.3353 0.0064
C4 C 0.07285(14) 0.30863(10) 0.01235(10)
H5 H 0.0713 0.3333 -0.0765
C5 C 0.08179(13) 0.16572(10) 0.02599(10)
H6 H 0.0184 0.1246 -0.0467
C6 C 0.33899(14) 0.01652(11) 0.10143(10)
C7 C 0.43286(16) 0.05482(11) 0.22350(11)
H7 H 0.5614 0.0402 0.2225
H8 H 0.3871 0.0072 0.2926
C8 C 0.39371(15) 0.19408(11) 0.23651(11)
H9 H 0.4931 0.2371 0.2823
H10 H 0.2853 0.2070 0.2806
C9 C 0.36899(14) 0.24324(10) 0.10250(10)
H11 H 0.4859 0.2624 0.0698
C10 C 0.27963(14) 0.13356(10) 0.03091(10)
H12 H 0.3207 0.1305 -0.0546
C11 C 0.24336(15) 0.35623(10) 0.08427(12)
H13 H 0.2993 0.4225 0.0369
H14 H 0.2152 0.3907 0.1651
O1 O -0.00764(11) 0.04324(7) 0.20031(8)
O2 O 0.32330(11) -0.08929(7) 0.06324(8)
loop_
_geom_bond_atom_site_label_1
_geom_bond_atom_site_label_2
_geom_bond_site_symmetry_1
_geom_bond_site_symmetry_2
C1 C2 1_555 1_555
C2 H1 1_555 1_555
H2 C2 1_555 1_555
C3 C2 1_555 1_555
H3 C3 1_555 1_555
H4 C3 1_555 1_555
C4 C3 1_555 1_555
H5 C4 1_555 1_555
C5 C1 1_555 1_555
H6 C5 1_555 1_555
C6 C7 1_555 1_555
C7 H7 1_555 1_555
H8 C7 1_555 1_555
C8 C7 1_555 1_555
H9 C8 1_555 1_555
H10 C8 1_555 1_555
C9 C8 1_555 1_555
H11 C9 1_555 1_555
C10 C5 1_555 1_555
H12 C10 1_555 1_555
C11 C4 1_555 1_555
H13 C11 1_555 1_555
H14 C11 1_555 1_555
O1 C1 1_555 1_555
O2 C6 1_555 1_555
C4 C5 1_555 1_555
C6 C10 1_555 1_555
C9 C10 1_555 1_555
C9 C11 1_555 1_555

#END
