
#######################################################################
#
#                 Cambridge Crystallographic Data Centre
#                                CCDC 
#
#######################################################################
#
# If this CIF has been generated from an entry in the Cambridge 
# Structural Database, then it will include bibliographic, chemical, 
# crystal, experimental, refinement or atomic coordinate data resulting 
# from the CCDC's data processing and validation procedures.
#
#######################################################################

data_CIFZUP
_chemical_formula_moiety         'C6 H12 N2,C1 Br3 F1'
_chemical_name_systematic        
'1,4-diazabicyclo[2.2.2]octane tribromo(fluoro)methane'
_symmetry_cell_setting           triclinic
_symmetry_space_group_name_H-M   'P -1'
_symmetry_Int_Tables_number      2
_space_group_name_Hall           '-P 1'
loop_
_symmetry_equiv_pos_site_id
_symmetry_equiv_pos_as_xyz
1 x,y,z
2 -x,-y,-z
_cell_length_a                   6.5248(4)
_cell_length_b                   14.6823(8)
_cell_length_c                   19.4306(13)
_cell_angle_alpha                72.579(2)
_cell_angle_beta                 85.379(2)
_cell_angle_gamma                85.795(2)
_cell_volume                     1767.91
_exptl_crystal_colour            colorless
_exptl_crystal_description       block
_cell_formula_units_Z            6
loop_
_atom_site_label
_atom_site_type_symbol
_atom_site_fract_x
_atom_site_fract_y
_atom_site_fract_z
N1 N 0.2559(4) 0.60172(16) 0.36435(13)
C1 C 0.4110(5) 0.5776(2) 0.41862(17)
H1 H 0.485503 0.516397 0.418449
H2 H 0.341932 0.569264 0.467211
C2 C 0.5661(5) 0.6572(2) 0.40249(19)
H3 H 0.571326 0.679830 0.445453
H4 H 0.705448 0.631588 0.391498
C3 C 0.1426(5) 0.6901(2) 0.36751(18)
H5 H 0.063669 0.678982 0.414721
H6 H 0.043587 0.709529 0.329074
C4 C 0.2913(5) 0.7712(2) 0.35763(19)
H7 H 0.247609 0.827873 0.318131
H8 H 0.287630 0.789973 0.402614
C5 C 0.3637(6) 0.6172(2) 0.29333(17)
H9 H 0.262435 0.629271 0.255904
H10 H 0.450234 0.559380 0.292121
C6 C 0.5005(6) 0.7038(3) 0.27718(19)
H11 H 0.642767 0.684901 0.263057
H12 H 0.447637 0.755930 0.236207
N2 N 0.5025(4) 0.73793(17) 0.34014(13)
N3 N 0.3335(4) 0.32356(15) 0.09053(12)
C7 C 0.2768(5) 0.2528(2) 0.15993(15)
H13 H 0.302905 0.187476 0.155458
H14 H 0.128208 0.261633 0.172651
C8 C 0.4038(5) 0.2647(2) 0.22003(16)
H15 H 0.309779 0.277889 0.258900
H16 H 0.485561 0.204609 0.241141
C9 C 0.5555(5) 0.3100(2) 0.07328(17)
H17 H 0.595786 0.356935 0.026602
H18 H 0.585963 0.245080 0.068494
C10 C 0.6801(4) 0.3233(2) 0.13322(17)
H19 H 0.766671 0.264501 0.153553
H20 H 0.772211 0.376727 0.112559
C11 C 0.2928(5) 0.42016(19) 0.09834(16)
H21 H 0.144000 0.430657 0.109829
H22 H 0.332041 0.468543 0.052286
C12 C 0.4181(5) 0.4315(2) 0.15958(18)
H23 H 0.509310 0.485554 0.139960
H24 H 0.322846 0.445949 0.197708
N4 N 0.5423(4) 0.34348(16) 0.19072(13)
C13 C 0.8707(5) 1.0106(2) 0.23416(16)
Br1 Br 0.99248(7) 1.06458(2) 0.29988(2)
Br2 Br 0.73102(5) 0.89535(2) 0.28489(2)
Br3 Br 1.07436(5) 0.98997(2) 0.16172(2)
F1 F 0.7257(3) 1.07720(12) 0.19991(10)
C14 C 0.8930(4) 0.32687(18) 0.39668(14)
Br4 Br 1.03545(4) 0.44239(2) 0.38674(2)
Br5 Br 0.75340(4) 0.33689(2) 0.31001(2)
Br6 Br 1.08276(4) 0.21508(2) 0.42040(2)
F2 F 0.7460(3) 0.31661(12) 0.45212(9)
C15 C 1.0051(4) 0.65595(18) 0.11220(15)
Br7 Br 0.89572(4) 0.55318(2) 0.19073(2)
Br8 Br 0.98973(5) 0.77306(2) 0.13848(2)
Br9 Br 0.86694(4) 0.67005(2) 0.02453(2)
F3 F 1.2085(2) 0.63339(11) 0.10065(9)
N5? N 0.360(2) 1.0612(10) 0.4648(7)
C16? C 0.3952(10) 0.9829(4) 0.4321(3)
H25? H 0.444697 1.008836 0.380856
H26? H 0.264138 0.952240 0.433603
C17? C 0.5573(10) 0.9070(4) 0.4731(3)
H27? H 0.493891 0.844644 0.493746
H28? H 0.673761 0.899110 0.439095
C18? C 0.5548(9) 1.1062(4) 0.4624(4)
H29? H 0.533038 1.157211 0.486311
H30? H 0.602823 1.135924 0.411407
C19? C 0.7213(8) 1.0314(4) 0.5007(3)
H31? H 0.837427 1.026809 0.465636
H32? H 0.775048 1.051806 0.539705
C20? C 0.2897(9) 1.0191(4) 0.5408(3)
H33? H 0.161298 0.985949 0.543451
H34? H 0.259758 1.070429 0.564126
C21? C 0.4574(8) 0.9470(4) 0.5815(3)
H35? H 0.504514 0.969316 0.620608
H36? H 0.398589 0.883824 0.603739
N6? N 0.633(2) 0.9380(10) 0.5313(7)
N7? N 0.350(2) 0.9823(9) 0.0529(8)
C22? C 0.4294(10) 1.0777(4) 0.0424(3)
H37? H 0.490907 1.078797 0.087064
H38? H 0.314318 1.126732 0.032762
C23? C 0.5931(11) 1.1013(4) -0.0214(3)
H39? H 0.544639 1.158229 -0.059707
H40? H 0.722610 1.116229 -0.004733
C24? C 0.5239(8) 0.9109(4) 0.0692(3)
H41? H 0.475655 0.846566 0.074865
H42? H 0.580076 0.910284 0.115161
C25? C 0.6952(9) 0.9352(4) 0.0073(3)
H43? H 0.823332 0.947138 0.026541
H44? H 0.723753 0.880287 -0.012247
C26? C 0.2677(9) 0.9813(4) -0.0154(3)
H45? H 0.153173 1.030246 -0.027819
H46? H 0.212992 0.918038 -0.009395
C27? C 0.4375(9) 1.0017(5) -0.0767(3)
H47? H 0.459419 0.946319 -0.095995
H48? H 0.393782 1.058074 -0.116423
N8? N 0.632(2) 1.0201(9) -0.0507(8)
loop_
_geom_bond_atom_site_label_1
_geom_bond_atom_site_label_2
_geom_bond_site_symmetry_1
_geom_bond_site_symmetry_2
N1 C1 1_555 1_555
C1 H1 1_555 1_555
H2 C1 1_555 1_555
C2 C1 1_555 1_555
H3 C2 1_555 1_555
H4 C2 1_555 1_555
C3 N1 1_555 1_555
H5 C3 1_555 1_555
H6 C3 1_555 1_555
C4 C3 1_555 1_555
H7 C4 1_555 1_555
H8 C4 1_555 1_555
C5 N1 1_555 1_555
H9 C5 1_555 1_555
H10 C5 1_555 1_555
C6 C5 1_555 1_555
H11 C6 1_555 1_555
H12 C6 1_555 1_555
N2 C2 1_555 1_555
N3 C7 1_555 1_555
C7 H13 1_555 1_555
H14 C7 1_555 1_555
C8 C7 1_555 1_555
H15 C8 1_555 1_555
H16 C8 1_555 1_555
C9 N3 1_555 1_555
H17 C9 1_555 1_555
H18 C9 1_555 1_555
C10 C9 1_555 1_555
H19 C10 1_555 1_555
H20 C10 1_555 1_555
C11 N3 1_555 1_555
H21 C11 1_555 1_555
H22 C11 1_555 1_555
C12 C11 1_555 1_555
H23 C12 1_555 1_555
H24 C12 1_555 1_555
N4 C8 1_555 1_555
C13 Br1 1_555 1_555
Br2 C13 1_555 1_555
Br3 C13 1_555 1_555
F1 C13 1_555 1_555
C14 Br4 1_555 1_555
Br5 C14 1_555 1_555
Br6 C14 1_555 1_555
F2 C14 1_555 1_555
C15 Br7 1_555 1_555
Br8 C15 1_555 1_555
Br9 C15 1_555 1_555
F3 C15 1_555 1_555
C4 N2 1_555 1_555
C6 N2 1_555 1_555
C10 N4 1_555 1_555
C12 N4 1_555 1_555

#END
