
#######################################################################
#
#                 Cambridge Crystallographic Data Centre
#                                CCDC 
#
#######################################################################
#
# If this CIF has been generated from an entry in the Cambridge 
# Structural Database, then it will include bibliographic, chemical, 
# crystal, experimental, refinement or atomic coordinate data resulting 
# from the CCDC's data processing and validation procedures.
#
#######################################################################

data_CIGBOM
_chemical_formula_moiety         'C6 H12 N2,C1 Br3 N1 O2,C1 H1 Cl3'
_chemical_name_systematic        
'1,4-diazabicyclo[2.2.2]octane tribromo(nitro)methane chloroform solvate'
_symmetry_cell_setting           orthorhombic
_symmetry_space_group_name_H-M   'P n a 21'
_symmetry_Int_Tables_number      33
_space_group_name_Hall           'P 2c -2n'
loop_
_symmetry_equiv_pos_site_id
_symmetry_equiv_pos_as_xyz
1 x,y,z
2 -x,-y,1/2+z
3 1/2+x,1/2-y,z
4 1/2-x,1/2+y,1/2+z
_cell_length_a                   14.314(2)
_cell_length_b                   18.260(3)
_cell_length_c                   6.4262(10)
_cell_angle_alpha                90
_cell_angle_beta                 90
_cell_angle_gamma                90
_cell_volume                     1679.64
_exptl_crystal_colour            yellow
_exptl_crystal_description       block
_cell_formula_units_Z            4
loop_
_atom_site_label
_atom_site_type_symbol
_atom_site_fract_x
_atom_site_fract_y
_atom_site_fract_z
N1 N 0.4604(3) 0.2116(3) 0.4371(9)
N2 N 0.3596(3) 0.2865(3) 0.1885(9)
C1 C 0.3608(4) 0.2034(4) 0.4883(12)
H1 H 0.3499 0.2189 0.6338
H2 H 0.3427 0.1512 0.4759
C2 C 0.4747(5) 0.1865(4) 0.2234(11)
H3 H 0.4589 0.1338 0.2132
H4 H 0.5411 0.1926 0.1845
C3 C 0.4854(5) 0.2890(3) 0.4528(13)
H5 H 0.5526 0.2954 0.4213
H6 H 0.4741 0.3065 0.5964
C4 C 0.3007(5) 0.2496(4) 0.3421(12)
H7 H 0.2549 0.2178 0.2701
H8 H 0.2656 0.2865 0.4236
C5 C 0.4127(5) 0.2306(4) 0.0727(11)
H9 H 0.4523 0.2547 -0.0336
H10 H 0.3690 0.1972 0.0005
C6 C 0.4265(4) 0.3344(4) 0.2986(12)
H11 H 0.3921 0.3730 0.3749
H12 H 0.4682 0.3586 0.1964
Br1 Br 0.91168(4) 0.51072(3) 0.51063(12)
Br2 Br 0.93138(4) 0.63415(3) 0.16094(10)
Br3 Br 0.75312(4) 0.63231(3) 0.46937(12)
O1 O 0.7317(4) 0.5544(3) 0.0642(10)
O2 O 0.8218(4) 0.4640(3) 0.1264(9)
N3 N 0.7944(3) 0.5258(3) 0.1575(9)
C7 C 0.8443(4) 0.5725(3) 0.3216(10)
Cl1 Cl 0.65527(11) 0.42923(9) 0.4875(3)
Cl2 Cl 0.66511(12) 0.33452(10) 0.8485(3)
Cl3 Cl 0.53489(17) 0.45459(12) 0.8369(4)
C8 C 0.6455(5) 0.4244(4) 0.7606(13)
H13 H 0.6936 0.4573 0.8239
loop_
_geom_bond_atom_site_label_1
_geom_bond_atom_site_label_2
_geom_bond_site_symmetry_1
_geom_bond_site_symmetry_2
N1 C1 1_555 1_555
N2 C4 1_555 1_555
C1 H1 1_555 1_555
H2 C1 1_555 1_555
C2 N1 1_555 1_555
H3 C2 1_555 1_555
H4 C2 1_555 1_555
C3 N1 1_555 1_555
H5 C3 1_555 1_555
H6 C3 1_555 1_555
C4 C1 1_555 1_555
H7 C4 1_555 1_555
H8 C4 1_555 1_555
C5 N2 1_555 1_555
H9 C5 1_555 1_555
H10 C5 1_555 1_555
C6 N2 1_555 1_555
H11 C6 1_555 1_555
H12 C6 1_555 1_555
Br1 C7 1_555 1_555
Br2 C7 1_555 1_555
Br3 C7 1_555 1_555
O1 N3 1_555 1_555
O2 N3 1_555 1_555
N3 C7 1_555 1_555
Cl1 C8 1_555 1_555
Cl2 C8 1_555 1_555
Cl3 C8 1_555 1_555
C8 H13 1_555 1_555
C2 C5 1_555 1_555
C3 C6 1_555 1_555

#END
