
#######################################################################
#
#                 Cambridge Crystallographic Data Centre
#                                CCDC 
#
#######################################################################
#
# If this CIF has been generated from an entry in the Cambridge 
# Structural Database, then it will include bibliographic, chemical, 
# crystal, experimental, refinement or atomic coordinate data resulting 
# from the CCDC's data processing and validation procedures.
#
#######################################################################

data_CIGDEB
_chemical_compound_source        'Poronia punctata'
_chemical_formula_moiety         'C19 H28 O7'
_chemical_name_systematic        'Punctatin C'
_symmetry_cell_setting           monoclinic
_symmetry_space_group_name_H-M   'P 21'
_symmetry_Int_Tables_number      4
_space_group_name_Hall           'P 2yb'
loop_
_symmetry_equiv_pos_site_id
_symmetry_equiv_pos_as_xyz
1 x,y,z
2 -x,1/2+y,-z
_cell_length_a                   5.932(3)
_cell_length_b                   17.509(3)
_cell_length_c                   9.166(2)
_cell_angle_alpha                90
_cell_angle_beta                 99.23(2)
_cell_angle_gamma                90
_cell_volume                     939.686
_chemical_melting_point          158-161deg.C
_cell_formula_units_Z            2
loop_
_atom_site_label
_atom_site_type_symbol
_atom_site_fract_x
_atom_site_fract_y
_atom_site_fract_z
O1 O 0.10676 0.09140 0.29611
O2 O 0.38087 0.05585 0.55012
O3 O 0.45347 -0.12522 0.16469
O4 O 0.69895 -0.08513 0.01766
O5 O 0.86895 -0.13194 0.40912
O6 O -0.02812 -0.22028 -0.33745
O7 O 0.05698 -0.29071 -0.14037
C1 C 0.60672 0.08706 0.54214
C2 C 0.58219 0.14160 0.41279
C3 C 0.50508 0.10622 0.26060
C4 C 0.29481 0.05356 0.24075
C5 C 0.33265 -0.02424 0.31973
C6 C 0.53507 -0.07011 0.27964
C7 C 0.64108 -0.11082 0.41939
C8 C 0.61400 -0.05422 0.54143
C9 C 0.76623 0.01694 0.55175
C10 C 0.87749 0.04150 0.70871
C11 C 0.72856 0.11511 0.69794
C12 C 0.57658 0.12107 0.81379
C13 C 0.87474 0.18639 0.69340
C14 C 0.37481 -0.02007 0.49189
C15 C 0.54935 -0.12593 0.04162
C16 C 0.42922 -0.18465 -0.06455
C17 C 0.18407 -0.16320 -0.12036
C18 C 0.05586 -0.22589 -0.21115
C19 C 0.20932 0.04061 0.07738
H1 H 0.12331 0.09542 0.38003
H2 H 0.92630 -0.16396 0.48109
H3 H -0.03058 -0.28291 -0.32767
H4 H 0.70991 0.16714 0.40453
H5 H 0.47874 0.18308 0.43754
H6 H 0.48174 0.14479 0.19998
H7 H 0.63740 0.07728 0.23415
H8 H 0.19864 -0.05295 0.28164
H9 H 0.64439 -0.03735 0.24286
H10 H 0.56941 -0.15793 0.42993
H11 H 0.62849 -0.07507 0.63155
H12 H 0.88951 0.01488 0.48166
H13 H 0.86255 0.00430 0.78268
H14 H 1.02249 0.05005 0.72551
H15 H 0.65094 0.12999 0.90164
H16 H 0.46501 0.07628 0.80993
H17 H 0.48545 0.16139 0.80105
H18 H 0.75298 0.23129 0.68321
H19 H 0.96243 0.18379 0.61993
H20 H 0.97178 0.19226 0.79031
H21 H 0.27492 -0.04414 0.53567
H22 H 0.40786 -0.23212 -0.01105
H23 H 0.48832 -0.18878 -0.13990
H24 H 0.10470 -0.16232 -0.03830
H25 H 0.17427 -0.11262 -0.18277
H26 H 0.32229 0.01389 0.03305
H27 H 0.16891 0.08939 0.03427
H28 H 0.06181 0.00891 0.06996
loop_
_geom_bond_atom_site_label_1
_geom_bond_atom_site_label_2
_geom_bond_site_symmetry_1
_geom_bond_site_symmetry_2
O1 C4 1_555 1_555
O2 C1 1_555 1_555
O3 C6 1_555 1_555
O4 C15 1_555 1_555
O5 C7 1_555 1_555
O6 C18 1_555 1_555
O7 C18 1_555 1_555
C1 C2 1_555 1_555
C2 C3 1_555 1_555
C3 C4 1_555 1_555
C4 C5 1_555 1_555
C5 C6 1_555 1_555
C6 C7 1_555 1_555
C7 C8 1_555 1_555
C8 C9 1_555 1_555
C9 C1 1_555 1_555
C10 C9 1_555 1_555
C11 C1 1_555 1_555
C12 C11 1_555 1_555
C13 C11 1_555 1_555
C14 O2 1_555 1_555
C15 O3 1_555 1_555
C16 C15 1_555 1_555
C17 C16 1_555 1_555
C18 C17 1_555 1_555
C19 C4 1_555 1_555
H1 O1 1_555 1_555
H2 O5 1_555 1_555
H3 O6 1_555 1_555
H4 C2 1_555 1_555
H5 C2 1_555 1_555
H6 C3 1_555 1_555
H7 C3 1_555 1_555
H8 C5 1_555 1_555
H9 C6 1_555 1_555
H10 C7 1_555 1_555
H11 C8 1_555 1_555
H12 C9 1_555 1_555
H13 C10 1_555 1_555
H14 C10 1_555 1_555
H15 C12 1_555 1_555
H16 C12 1_555 1_555
H17 C12 1_555 1_555
H18 C13 1_555 1_555
H19 C13 1_555 1_555
H20 C13 1_555 1_555
H21 C14 1_555 1_555
H22 C16 1_555 1_555
H23 C16 1_555 1_555
H24 C17 1_555 1_555
H25 C17 1_555 1_555
H26 C19 1_555 1_555
H27 C19 1_555 1_555
H28 C19 1_555 1_555
C5 C14 1_555 1_555
C8 C14 1_555 1_555
C10 C11 1_555 1_555

#END
