
#######################################################################
#
#                 Cambridge Crystallographic Data Centre
#                                CCDC 
#
#######################################################################
#
# If this CIF has been generated from an entry in the Cambridge 
# Structural Database, then it will include bibliographic, chemical, 
# crystal, experimental, refinement or atomic coordinate data resulting 
# from the CCDC's data processing and validation procedures.
#
#######################################################################

data_CIGDUU
_chemical_formula_moiety         'C28 H40 N4'
_chemical_name_systematic        
N',N''-(cyclohexane-1,2-diyl)bis(2,2-dimethyl-N-phenylpropanimidamide)
_symmetry_cell_setting           monoclinic
_symmetry_space_group_name_H-M   'P 21/n'
_symmetry_Int_Tables_number      14
_space_group_name_Hall           '-P 2yn'
loop_
_symmetry_equiv_pos_site_id
_symmetry_equiv_pos_as_xyz
1 x,y,z
2 1/2-x,1/2+y,1/2-z
3 -x,-y,-z
4 1/2+x,1/2-y,1/2+z
_cell_length_a                   9.2163(9)
_cell_length_b                   23.394(2)
_cell_length_c                   12.4499(13)
_cell_angle_alpha                90
_cell_angle_beta                 93.755(2)
_cell_angle_gamma                90
_cell_volume                     2678.51
_exptl_crystal_colour            colorless
_exptl_crystal_description       block
_cell_formula_units_Z            4
loop_
_atom_site_label
_atom_site_type_symbol
_atom_site_fract_x
_atom_site_fract_y
_atom_site_fract_z
C1 C 0.6619(3) 0.67658(10) 0.3959(2)
H1 H 0.733575 0.656392 0.443574
C2 C 0.5287(3) 0.68871(12) 0.4583(2)
H2 H 0.498740 0.653578 0.491833
H3 H 0.554988 0.715829 0.515220
C3 C 0.4014(3) 0.71241(13) 0.3890(3)
H4 H 0.317682 0.716149 0.431751
H5 H 0.425818 0.750090 0.363080
C4 C 0.3643(3) 0.67344(13) 0.2943(3)
H6 H 0.287417 0.690709 0.248202
H7 H 0.328301 0.637361 0.320297
C5 C 0.4943(3) 0.66238(12) 0.2295(2)
H8 H 0.524205 0.697826 0.197151
H9 H 0.467604 0.635640 0.172061
C6 C 0.6200(3) 0.63812(10) 0.3002(2)
H10 H 0.589049 0.601252 0.328230
C7 C 0.8541(3) 0.75583(11) 0.3958(2)
C8 C 0.8774(3) 0.81464(12) 0.3452(2)
C9 C 0.8408(8) 0.8145(2) 0.2242(4)
H11 H 0.904759 0.788739 0.190333
H12 H 0.852660 0.852383 0.196318
H13 H 0.741983 0.802395 0.209631
C10 C 0.7704(7) 0.85703(19) 0.3947(5)
H14 H 0.672761 0.848332 0.368274
H15 H 0.794112 0.895392 0.374835
H16 H 0.778389 0.853549 0.471738
C11 C 1.0289(6) 0.8365(3) 0.3756(6)
H17 H 1.039540 0.842830 0.451923
H18 H 1.044347 0.871710 0.338587
H19 H 1.099018 0.808709 0.355739
C12 C 0.9544(3) 0.68622(13) 0.5214(3)
C13 C 0.8949(3) 0.68267(15) 0.6204(3)
H20 H 0.846475 0.714036 0.646834
C14 C 0.9066(4) 0.63338(17) 0.6798(3)
H21 H 0.865523 0.631334 0.745977
C15 C 0.9776(4) 0.58778(18) 0.6424(4)
H22 H 0.984641 0.554369 0.682930
C16 C 1.0385(4) 0.59024(17) 0.5467(4)
H23 H 1.086919 0.558512 0.521760
C17 C 1.0292(4) 0.63949(16) 0.4857(3)
H24 H 1.073314 0.641232 0.420686
C18 C 0.7743(3) 0.58877(11) 0.1672(2)
C19 C 0.9027(3) 0.60192(13) 0.0989(2)
C20 C 0.9342(6) 0.66482(17) 0.0888(5)
H25 H 0.847710 0.684323 0.061797
H26 H 1.009475 0.670260 0.039996
H27 H 0.965512 0.679960 0.158151
C21 C 1.0360(4) 0.5731(2) 0.1544(3)
H28 H 1.056226 0.589670 0.224262
H29 H 1.118211 0.578424 0.111888
H30 H 1.017484 0.532918 0.161849
C22 C 0.8765(5) 0.5755(2) -0.0119(3)
H31 H 0.877401 0.534622 -0.005759
H32 H 0.951696 0.587455 -0.056820
H33 H 0.783776 0.587796 -0.043301
C23 C 0.6062(3) 0.51761(11) 0.2158(3)
C24 C 0.6523(3) 0.49626(12) 0.3153(3)
H34 H 0.749565 0.500052 0.339126
C25 C 0.5585(4) 0.46950(13) 0.3805(3)
H35 H 0.592209 0.455203 0.447216
C26 C 0.4161(4) 0.46412(14) 0.3466(3)
H36 H 0.351333 0.446934 0.390852
C27 C 0.3688(4) 0.48376(14) 0.2486(3)
H37 H 0.271199 0.479630 0.225845
C28 C 0.4620(4) 0.50983(13) 0.1815(3)
H38 H 0.427927 0.522122 0.113382
N1 N 0.7285(2) 0.72992(9) 0.35970(19)
N2 N 0.9509(3) 0.73749(12) 0.4631(3)
H39 H 1.025162 0.759425 0.474864
N3 N 0.7509(3) 0.62837(10) 0.2429(2)
N4 N 0.7053(3) 0.54202(10) 0.1497(2)
H40 H 0.721618 0.523902 0.091613
C29? C 0.7738(15) 0.8272(6) 0.2505(11)
H41? H 0.684100 0.841329 0.275257
H42? H 0.755467 0.792771 0.209789
H43? H 0.815396 0.855397 0.205791
C30? C 0.8845(17) 0.8605(4) 0.4268(9)
H44? H 0.793748 0.862473 0.460337
H45? H 0.902730 0.896404 0.392752
H46? H 0.961567 0.852536 0.480291
C31? C 1.0346(10) 0.8105(4) 0.2973(10)
H47? H 1.058253 0.846478 0.265818
H48? H 1.033219 0.781176 0.243229
H49? H 1.106186 0.801285 0.354109
loop_
_geom_bond_atom_site_label_1
_geom_bond_atom_site_label_2
_geom_bond_site_symmetry_1
_geom_bond_site_symmetry_2
C1 H1 1_555 1_555
C2 C1 1_555 1_555
H2 C2 1_555 1_555
H3 C2 1_555 1_555
C3 C2 1_555 1_555
H4 C3 1_555 1_555
H5 C3 1_555 1_555
C4 C3 1_555 1_555
H6 C4 1_555 1_555
H7 C4 1_555 1_555
C5 C4 1_555 1_555
H8 C5 1_555 1_555
H9 C5 1_555 1_555
C6 C1 1_555 1_555
H10 C6 1_555 1_555
C7 C8 1_555 1_555
C8 C9 1_555 1_555
C9 H11 1_555 1_555
H12 C9 1_555 1_555
H13 C9 1_555 1_555
C10 C8 1_555 1_555
H14 C10 1_555 1_555
H15 C10 1_555 1_555
H16 C10 1_555 1_555
C11 C8 1_555 1_555
H17 C11 1_555 1_555
H18 C11 1_555 1_555
H19 C11 1_555 1_555
C12 C13 1_555 1_555
C13 H20 1_555 1_555
C14 C13 1_555 1_555
H21 C14 1_555 1_555
C15 C14 1_555 1_555
H22 C15 1_555 1_555
C16 C15 1_555 1_555
H23 C16 1_555 1_555
C17 C12 1_555 1_555
H24 C17 1_555 1_555
C18 C19 1_555 1_555
C19 C20 1_555 1_555
C20 H25 1_555 1_555
H26 C20 1_555 1_555
H27 C20 1_555 1_555
C21 C19 1_555 1_555
H28 C21 1_555 1_555
H29 C21 1_555 1_555
H30 C21 1_555 1_555
C22 C19 1_555 1_555
H31 C22 1_555 1_555
H32 C22 1_555 1_555
H33 C22 1_555 1_555
C23 C24 1_555 1_555
C24 H34 1_555 1_555
C25 C24 1_555 1_555
H35 C25 1_555 1_555
C26 C25 1_555 1_555
H36 C26 1_555 1_555
C27 C26 1_555 1_555
H37 C27 1_555 1_555
C28 C23 1_555 1_555
H38 C28 1_555 1_555
N1 C1 1_555 1_555
N2 C7 1_555 1_555
H39 N2 1_555 1_555
N3 C6 1_555 1_555
N4 C18 1_555 1_555
H40 N4 1_555 1_555
C5 C6 1_555 1_555
C7 N1 1_555 1_555
C12 N2 1_555 1_555
C16 C17 1_555 1_555
C18 N3 1_555 1_555
C23 N4 1_555 1_555
C27 C28 1_555 1_555

#END
