
#######################################################################
#
#                 Cambridge Crystallographic Data Centre
#                                CCDC 
#
#######################################################################
#
# If this CIF has been generated from an entry in the Cambridge 
# Structural Database, then it will include bibliographic, chemical, 
# crystal, experimental, refinement or atomic coordinate data resulting 
# from the CCDC's data processing and validation procedures.
#
#######################################################################

data_CIGJAD
_chemical_formula_moiety         'C6 H10 N4 O2'
_chemical_name_systematic        
4-Cyanoimino-3-methoxymethyl-perhydro-1,3,5-oxadiazine
_symmetry_cell_setting           triclinic
_symmetry_space_group_name_H-M   'P -1'
_symmetry_Int_Tables_number      2
_space_group_name_Hall           '-P 1'
loop_
_symmetry_equiv_pos_site_id
_symmetry_equiv_pos_as_xyz
1 x,y,z
2 -x,-y,-z
_cell_length_a                   10.307(3)
_cell_length_b                   8.166(2)
_cell_length_c                   5.082(1)
_cell_angle_alpha                97.34(2)
_cell_angle_beta                 91.98(2)
_cell_angle_gamma                107.13(2)
_cell_volume                     404.235
_cell_formula_units_Z            2
loop_
_atom_site_label
_atom_site_type_symbol
_atom_site_fract_x
_atom_site_fract_y
_atom_site_fract_z
C1 C 0.33420 0.17360 0.61600
C2 C 0.23110 -0.11560 0.37710
C3 C 0.15530 0.10270 0.25130
C4 C 0.48940 0.24020 0.96900
C5 C 0.28010 0.41010 0.42480
C6 C 0.12860 0.46290 0.74410
N1 N 0.31980 0.00420 0.59080
N2 N 0.25770 0.22620 0.44450
N3 N 0.41640 0.29120 0.79970
N4 N 0.55600 0.20890 1.12810
O1 O 0.11710 -0.05980 0.33180
O2 O 0.16020 0.45470 0.47190
H1 H 0.19900 -0.23200 0.42400
H2 H 0.27300 -0.08900 0.18900
H3 H 0.07200 0.14600 0.24900
H4 H 0.19900 0.08600 0.07500
H5 H 0.36300 0.48400 0.55900
H6 H 0.30100 0.43100 0.23300
H7 H 0.10800 0.34300 0.79700
H8 H 0.21000 0.55100 0.86100
H9 H 0.04800 0.50200 0.78000
H10 H 0.36400 -0.03800 0.70500
loop_
_geom_bond_atom_site_label_1
_geom_bond_atom_site_label_2
_geom_bond_site_symmetry_1
_geom_bond_site_symmetry_2
C1 N1 1_555 1_555
C2 N1 1_555 1_555
C3 N2 1_555 1_555
C4 N3 1_555 1_555
C5 N2 1_555 1_555
C6 O2 1_555 1_555
N1 H10 1_555 1_555
N2 C1 1_555 1_555
N3 C1 1_555 1_555
N4 C4 1_555 1_555
O1 C2 1_555 1_555
O2 C5 1_555 1_555
H1 C2 1_555 1_555
H2 C2 1_555 1_555
H3 C3 1_555 1_555
H4 C3 1_555 1_555
H5 C5 1_555 1_555
H6 C5 1_555 1_555
H7 C6 1_555 1_555
H8 C6 1_555 1_555
H9 C6 1_555 1_555
C3 O1 1_555 1_555

#END
