
#######################################################################
#
#                 Cambridge Crystallographic Data Centre
#                                CCDC 
#
#######################################################################
#
# If this CIF has been generated from an entry in the Cambridge 
# Structural Database, then it will include bibliographic, chemical, 
# crystal, experimental, refinement or atomic coordinate data resulting 
# from the CCDC's data processing and validation procedures.
#
#######################################################################

data_CIHDIJ
_chemical_formula_moiety         'C6 H6 N1 O2 1+,C4 H4 N1 O4 S1 1-'
_chemical_name_systematic        
'3-carboxypyridin-1-ium 6-methyl-2,2,4-trioxo-2H,4H-1,2,3-oxathiazin-3-ide'
_symmetry_cell_setting           monoclinic
_symmetry_space_group_name_H-M   'P 21/n'
_symmetry_Int_Tables_number      14
_space_group_name_Hall           '-P 2yn'
loop_
_symmetry_equiv_pos_site_id
_symmetry_equiv_pos_as_xyz
1 x,y,z
2 1/2-x,1/2+y,1/2-z
3 -x,-y,-z
4 1/2+x,1/2-y,1/2+z
_cell_length_a                   6.9494(16)
_cell_length_b                   24.182(6)
_cell_length_c                   7.5634(17)
_cell_angle_alpha                90
_cell_angle_beta                 111.119(2)
_cell_angle_gamma                90
_cell_volume                     1185.66
_exptl_crystal_colour            white
_exptl_crystal_description       Blocks
_cell_formula_units_Z            4
loop_
_atom_site_label
_atom_site_type_symbol
_atom_site_fract_x
_atom_site_fract_y
_atom_site_fract_z
S1 S 0.17620(6) 0.154659(15) 0.68080(5)
O1 O 0.19169(18) 0.04208(4) 1.01003(15)
O2 O 0.01046(19) 0.19038(4) 0.74365(15)
O3 O 0.0925(2) 0.15583(5) 0.47912(16)
N1 N 0.1685(2) 0.09436(5) 0.75773(17)
C1 C 0.1575(2) 0.08886(6) 0.9305(2)
O4 O 0.37095(19) 0.18101(5) 0.77236(17)
C2 C 0.0952(2) 0.13521(6) 1.0209(2)
C3 C 0.0185(3) 0.18178(6) 0.9273(2)
C4 C -0.0728(4) 0.22845(9) 0.9971(3)
H1 H 0.098(3) 0.1312(8) 1.147(3)
H2 H -0.074(3) 0.2224(8) 1.119(3)
H3 H 0.002(4) 0.2589(11) 0.992(4)
H4 H -0.213(5) 0.2345(11) 0.909(4)
O5 O 0.32490(18) -0.06180(5) 0.23784(15)
O6 O 0.21026(18) 0.01413(4) 0.33821(16)
C5 C 0.2820(2) -0.03652(6) 0.3572(2)
C6 C 0.3085(2) -0.06193(6) 0.54496(19)
C7 C 0.2666(2) -0.03182(6) 0.6816(2)
C8 C 0.3536(2) -0.10818(7) 0.8883(2)
C9 C 0.3767(2) -0.11620(6) 0.5830(2)
N2 N 0.2915(2) -0.05571(6) 0.84781(18)
C10 C 0.3972(3) -0.13960(7) 0.7559(2)
H5 H 0.227(3) 0.0033(8) 0.666(2)
H6 H 0.409(3) -0.1373(8) 0.490(3)
H7 H 0.437(3) -0.1748(8) 0.783(3)
H8 H 0.206(4) 0.0258(11) 0.223(4)
H9 H 0.365(3) -0.1194(8) 1.012(3)
H10 H 0.265(3) -0.0362(9) 0.926(3)
loop_
_geom_bond_atom_site_label_1
_geom_bond_atom_site_label_2
_geom_bond_site_symmetry_1
_geom_bond_site_symmetry_2
S1 O2 1_555 1_555
O1 C1 1_555 1_555
O2 C3 1_555 1_555
O3 S1 1_555 1_555
N1 S1 1_555 1_555
C1 N1 1_555 1_555
O4 S1 1_555 1_555
C2 C1 1_555 1_555
C3 C2 1_555 1_555
C4 C3 1_555 1_555
H1 C2 1_555 1_555
H2 C4 1_555 1_555
H3 C4 1_555 1_555
H4 C4 1_555 1_555
O5 C5 1_555 1_555
O6 C5 1_555 1_555
C5 C6 1_555 1_555
C6 C7 1_555 1_555
C7 N2 1_555 1_555
C8 N2 1_555 1_555
C9 C6 1_555 1_555
N2 H10 1_555 1_555
C10 C8 1_555 1_555
H5 C7 1_555 1_555
H6 C9 1_555 1_555
H7 C10 1_555 1_555
H8 O6 1_555 1_555
H9 C8 1_555 1_555
C9 C10 1_555 1_555

#END
