
#######################################################################
#
#                 Cambridge Crystallographic Data Centre
#                                CCDC 
#
#######################################################################
#
# If this CIF has been generated from an entry in the Cambridge 
# Structural Database, then it will include bibliographic, chemical, 
# crystal, experimental, refinement or atomic coordinate data resulting 
# from the CCDC's data processing and validation procedures.
#
#######################################################################

data_CIHFIL
_chemical_name_common            'sildenafil acesulfame'
_chemical_formula_moiety         'C22 H31 N6 O4 S1 1+,C4 H4 N1 O4 S1 1-'
_chemical_name_systematic        
'4-{[4-ethoxy-3-(1-methyl-7-oxo-3-propyl-6,7-dihydro-1H-pyrazolo[4,3-d]pyrimidin-5-yl)phenyl]sulfonyl}-1-methylpiperazin-1-ium 6-methyl-2,2,4-trioxo-2H,4H-1,2,3-oxathiazin-3-ide'
_chemical_properties_biological  
'Sildenafil is a medication used to treat erectile dysfunction and pulmonary arterial hypertension.'
_symmetry_cell_setting           triclinic
_symmetry_space_group_name_H-M   'P -1'
_symmetry_Int_Tables_number      2
_space_group_name_Hall           '-P 1'
loop_
_symmetry_equiv_pos_site_id
_symmetry_equiv_pos_as_xyz
1 x,y,z
2 -x,-y,-z
_cell_length_a                   9.9895(6)
_cell_length_b                   11.1273(7)
_cell_length_c                   13.9608(9)
_cell_angle_alpha                79.5730(10)
_cell_angle_beta                 73.7830(10)
_cell_angle_gamma                88.8810(10)
_cell_volume                     1464.69
_exptl_crystal_colour            white
_exptl_crystal_description       Blocks
_cell_formula_units_Z            2
loop_
_atom_site_label
_atom_site_type_symbol
_atom_site_fract_x
_atom_site_fract_y
_atom_site_fract_z
S1 S 0.56606(3) 0.54355(3) 0.12315(2)
N1 N 0.31804(11) 0.55469(10) 0.49935(8)
O1 O 0.63170(10) 0.83165(9) 0.42283(7)
O2 O 0.69506(10) 0.54585(10) 0.04501(8)
O3 O 0.33141(11) 0.76464(9) 0.71326(7)
N2 N 0.41631(12) 0.70611(11) 0.55927(8)
N3 N 0.45768(11) 0.62669(10) 0.07165(8)
O4 O 0.49379(11) 0.42996(9) 0.17419(8)
C1 C 0.51652(13) 0.66978(11) 0.38385(9)
N4 N 0.03514(12) 0.47042(10) 0.72478(9)
C2 C 0.10475(13) 0.45510(11) 0.63146(10)
C3 C 0.21741(14) 0.60313(12) 0.66897(10)
N5 N 0.26945(12) 0.80842(10) 0.02203(9)
C4 C 0.21895(14) 0.68305(13) 0.07760(11)
N6 N 0.10437(12) 0.56104(10) 0.74708(8)
C5 C 0.41211(13) 0.64018(11) 0.48509(9)
C6 C 0.62131(14) 0.76280(12) 0.35317(10)
C7 C 0.51188(14) 0.74962(13) 0.01564(11)
C8 C 0.22119(14) 0.53720(11) 0.59269(10)
C9 C 0.50543(14) 0.60057(12) 0.31190(10)
C10 C 0.71283(14) 0.78246(13) 0.25504(10)
C11 C 0.59516(14) 0.62167(12) 0.21475(10)
C12 C 0.72321(17) 0.93977(13) 0.38746(11)
C13 C 0.32104(14) 0.69740(12) 0.65527(10)
C14 C 0.69980(14) 0.71270(13) 0.18582(10)
C15 C 0.31599(14) 0.63095(13) 0.13930(10)
C16 C 0.41439(15) 0.80418(13) -0.04507(11)
C17 C 0.06185(14) 0.36214(12) 0.57950(10)
C18 C -0.11684(18) 0.20465(15) 0.57961(12)
C19 C -0.07875(16) 0.29874(15) 0.63470(11)
C20 C 0.7167(2) 0.99674(16) 0.47831(13)
C21 C 0.05583(18) 0.59602(16) 0.84617(11)
C22 C 0.17625(19) 0.86726(16) -0.03831(13)
H1 H 0.4386(17) 0.5413(15) 0.3321(12)
H2 H 0.3152(17) 0.6796(15) 0.1900(13)
H3 H 0.4082(18) 0.7566(16) -0.0950(13)
H4 H 0.7594(18) 0.7296(16) 0.1203(14)
H5 H 0.7832(17) 0.8430(15) 0.2346(12)
H6 H -0.078(2) 0.2601(17) 0.7023(15)
H7 H -0.0483(19) 0.1385(17) 0.5743(13)
H8 H -0.1147(19) 0.2424(16) 0.5097(14)
H9 H 0.8193(19) 0.9128(15) 0.3581(13)
H10 H 0.6003(18) 0.7415(15) -0.0296(13)
H11 H 0.0601(18) 0.4028(16) 0.5102(14)
H12 H 0.6896(19) 0.9957(17) 0.3397(14)
H13 H 0.482(2) 0.7599(17) 0.5433(14)
H14 H 0.2200(17) 0.6336(14) 0.0266(12)
H15 H 0.2684(18) 0.8539(16) 0.0689(13)
H16 H 0.5202(17) 0.8032(15) 0.0614(12)
H17 H 0.4435(18) 0.8865(17) -0.0771(13)
H18 H 0.1278(18) 0.6888(15) 0.1207(13)
H19 H 0.2845(18) 0.5512(17) 0.1722(14)
H20 H 0.1330(18) 0.3003(16) 0.5695(13)
H21 H 0.2067(19) 0.9501(18) -0.0618(14)
H22 H 0.082(2) 0.8610(17) 0.0063(15)
H23 H -0.208(2) 0.1717(19) 0.6126(16)
H24 H -0.150(2) 0.3645(18) 0.6411(15)
H25 H 0.774(2) 1.0694(19) 0.4567(15)
H26 H 0.1865(19) 0.8253(17) -0.0960(14)
H27 H 0.755(2) 0.9407(18) 0.5252(15)
H28 H 0.095(2) 0.550(2) 0.8908(18)
H29 H 0.621(2) 1.0161(19) 0.5107(16)
H30 H -0.041(3) 0.586(2) 0.8703(18)
H31 H 0.079(3) 0.679(3) 0.8427(19)
S2 S 0.11038(3) 1.05755(3) 0.15835(2)
O5 O 0.08999(10) 1.12928(10) 0.25281(8)
O6 O -0.02024(11) 0.99471(11) 0.17820(9)
O7 O 0.14887(11) 1.14986(10) 0.06904(8)
O8 O 0.43825(12) 0.92779(10) 0.19442(9)
N7 N 0.22788(13) 0.96350(11) 0.16692(9)
C23 C 0.32729(15) 1.10223(13) 0.24784(10)
C24 C 0.33649(15) 0.99275(13) 0.20110(10)
C25 C 0.21166(15) 1.16392(13) 0.27192(10)
C26 C 0.1907(2) 1.27145(17) 0.32347(15)
H32 H 0.4057(19) 1.1272(16) 0.2633(14)
H33 H 0.274(2) 1.2904(19) 0.3396(16)
H34 H 0.162(2) 1.339(2) 0.2844(17)
H35 H 0.118(2) 1.252(2) 0.3852(18)
loop_
_geom_bond_atom_site_label_1
_geom_bond_atom_site_label_2
_geom_bond_site_symmetry_1
_geom_bond_site_symmetry_2
S1 O2 1_555 1_555
N1 C5 1_555 1_555
O1 C6 1_555 1_555
O3 C13 1_555 1_555
N2 C5 1_555 1_555
N3 S1 1_555 1_555
O4 S1 1_555 1_555
C1 C5 1_555 1_555
N4 C2 1_555 1_555
C2 C8 1_555 1_555
C3 N6 1_555 1_555
N5 C4 1_555 1_555
C4 C15 1_555 1_555
N6 N4 1_555 1_555
C6 C1 1_555 1_555
C7 N3 1_555 1_555
C8 N1 1_555 1_555
C9 C1 1_555 1_555
C10 C6 1_555 1_555
C11 S1 1_555 1_555
C12 O1 1_555 1_555
C13 N2 1_555 1_555
C14 C10 1_555 1_555
C15 N3 1_555 1_555
C16 N5 1_555 1_555
C17 C2 1_555 1_555
C18 C19 1_555 1_555
C19 C17 1_555 1_555
C20 C12 1_555 1_555
C21 N6 1_555 1_555
C22 N5 1_555 1_555
H1 C9 1_555 1_555
H2 C15 1_555 1_555
H3 C16 1_555 1_555
H4 C14 1_555 1_555
H5 C10 1_555 1_555
H6 C19 1_555 1_555
H7 C18 1_555 1_555
H8 C18 1_555 1_555
H9 C12 1_555 1_555
H10 C7 1_555 1_555
H11 C17 1_555 1_555
H12 C12 1_555 1_555
H13 N2 1_555 1_555
H14 C4 1_555 1_555
H15 N5 1_555 1_555
H16 C7 1_555 1_555
H17 C16 1_555 1_555
H18 C4 1_555 1_555
H19 C15 1_555 1_555
H20 C17 1_555 1_555
H21 C22 1_555 1_555
H22 C22 1_555 1_555
H23 C18 1_555 1_555
H24 C19 1_555 1_555
H25 C20 1_555 1_555
H26 C22 1_555 1_555
H27 C20 1_555 1_555
H28 C21 1_555 1_555
H29 C20 1_555 1_555
H30 C21 1_555 1_555
H31 C21 1_555 1_555
S2 O5 1_555 1_555
O5 C25 1_555 1_555
O6 S2 1_555 1_555
O7 S2 1_555 1_555
O8 C24 1_555 1_555
N7 S2 1_555 1_555
C23 C24 1_555 1_555
C24 N7 1_555 1_555
C25 C23 1_555 1_555
C26 C25 1_555 1_555
H32 C23 1_555 1_555
H33 C26 1_555 1_555
H34 C26 1_555 1_555
H35 C26 1_555 1_555
C3 C8 1_555 1_555
C3 C13 1_555 1_555
C7 C16 1_555 1_555
C9 C11 1_555 1_555
C11 C14 1_555 1_555

#END
