
#######################################################################
#
#                 Cambridge Crystallographic Data Centre
#                                CCDC 
#
#######################################################################
#
# If this CIF has been generated from an entry in the Cambridge 
# Structural Database, then it will include bibliographic, chemical, 
# crystal, experimental, refinement or atomic coordinate data resulting 
# from the CCDC's data processing and validation procedures.
#
#######################################################################

data_CIHGIJ
_chemical_formula_moiety         'C10 H10 N2 O3'
_chemical_name_systematic        3-(p-Ethoxyphenyl)-sydnone
_symmetry_cell_setting           monoclinic
_symmetry_space_group_name_H-M   'P 21/n'
_symmetry_Int_Tables_number      14
_space_group_name_Hall           '-P 2yn'
loop_
_symmetry_equiv_pos_site_id
_symmetry_equiv_pos_as_xyz
1 x,y,z
2 1/2-x,1/2+y,1/2-z
3 -x,-y,-z
4 1/2+x,1/2-y,1/2+z
_cell_length_a                   7.609(1)
_cell_length_b                   7.350(1)
_cell_length_c                   17.567(4)
_cell_angle_alpha                90
_cell_angle_beta                 94.93(1)
_cell_angle_gamma                90
_cell_volume                     978.82
_cell_formula_units_Z            4
loop_
_atom_site_label
_atom_site_type_symbol
_atom_site_fract_x
_atom_site_fract_y
_atom_site_fract_z
C1 C 0.02230 0.25830 0.51540
C2 C 0.01910 0.27430 0.43760
C3 C -0.13000 0.21790 0.39230
C4 C -0.27210 0.14700 0.42670
C5 C -0.26690 0.13400 0.50520
C6 C -0.11940 0.18910 0.55010
C7 C 0.32840 0.37830 0.54040
C8 C 0.43870 0.41380 0.60680
C9 C -0.44450 0.10370 0.30640
C10 C -0.62520 0.03070 0.28120
N1 N 0.17840 0.31270 0.56280
N2 N 0.17260 0.29760 0.63670
O1 O 0.3364 0.3600 0.6659
O2 O 0.58500 0.47540 0.62230
O3 O -0.42380 0.08510 0.38860
H1 H 0.35330 0.39070 0.48210
H2 H 0.11640 0.32840 0.41280
H3 H -0.12920 0.23140 0.33730
H4 H -0.36450 0.06990 0.52890
H5 H -0.11880 0.18330 0.60580
H6 H -0.43010 0.23690 0.29670
H7 H -0.34730 0.03510 0.28650
H8 H -0.62340 -0.09640 0.29000
H9 H -0.70890 0.11030 0.30500
H10 H -0.64640 0.05960 0.22230
loop_
_geom_bond_atom_site_label_1
_geom_bond_atom_site_label_2
_geom_bond_site_symmetry_1
_geom_bond_site_symmetry_2
C1 C2 1_555 1_555
C2 C3 1_555 1_555
C3 C4 1_555 1_555
C4 C5 1_555 1_555
C5 C6 1_555 1_555
C6 C1 1_555 1_555
C7 C8 1_555 1_555
C8 O1 1_555 1_555
C9 C10 1_555 1_555
C10 H8 1_555 1_555
N1 C1 1_555 1_555
N2 N1 1_555 1_555
O1 N2 1_555 1_555
O2 C8 1_555 1_555
O3 C4 1_555 1_555
H1 C7 1_555 1_555
H2 C2 1_555 1_555
H3 C3 1_555 1_555
H4 C5 1_555 1_555
H5 C6 1_555 1_555
H6 C9 1_555 1_555
H7 C9 1_555 1_555
H9 C10 1_555 1_555
H10 C10 1_555 1_555
C7 N1 1_555 1_555
C9 O3 1_555 1_555

#END
