
#######################################################################
#
#                 Cambridge Crystallographic Data Centre
#                                CCDC 
#
#######################################################################
#
# If this CIF has been generated from an entry in the Cambridge 
# Structural Database, then it will include bibliographic, chemical, 
# crystal, experimental, refinement or atomic coordinate data resulting 
# from the CCDC's data processing and validation procedures.
#
#######################################################################

data_CIHGOP
_chemical_formula_moiety         'C9 H8 N2 O2'
_chemical_name_systematic        3-(p-Tolyl)-sydnone
_symmetry_cell_setting           monoclinic
_symmetry_space_group_name_H-M   'P 21/c'
_symmetry_Int_Tables_number      14
_space_group_name_Hall           '-P 2ybc'
loop_
_symmetry_equiv_pos_site_id
_symmetry_equiv_pos_as_xyz
1 x,y,z
2 -x,1/2+y,1/2-z
3 -x,-y,-z
4 x,1/2-y,1/2+z
_cell_length_a                   3.853(2)
_cell_length_b                   11.819(3)
_cell_length_c                   18.249(3)
_cell_angle_alpha                90
_cell_angle_beta                 92.22(3)
_cell_angle_gamma                90
_cell_volume                     830.41
_cell_formula_units_Z            4
loop_
_atom_site_label
_atom_site_type_symbol
_atom_site_fract_x
_atom_site_fract_y
_atom_site_fract_z
C1 C 0.38220 0.12550 0.80910
C2 C 0.39670 0.20580 0.75450
C3 C 0.28510 0.17700 0.68430
C4 C 0.15930 0.07030 0.66820
C5 C 0.14770 -0.00770 0.72420
C6 C 0.25820 0.01830 0.79500
C7 C 0.66170 0.09000 0.93230
C8 C 0.72420 0.15710 0.99490
C9 C 0.04200 0.04090 0.59160
N1 N 0.49810 0.15540 0.88280
N2 N 0.43790 0.25970 0.90370
O1 O 0.57850 0.26230 0.97460
O2 O 0.86040 0.14430 1.05560
H1 H 0.48480 0.28170 0.76510
H2 H 0.29180 0.23460 0.64260
H3 H 0.06060 -0.08050 0.71310
H4 H 0.25020 -0.03720 0.83260
H5 H 0.73220 0.01000 0.92460
H6 H -0.03710 0.10080 0.55890
H7 H -0.15060 -0.01270 0.59100
H8 H 0.21290 -0.00320 0.56640
loop_
_geom_bond_atom_site_label_1
_geom_bond_atom_site_label_2
_geom_bond_site_symmetry_1
_geom_bond_site_symmetry_2
C1 C2 1_555 1_555
C2 C3 1_555 1_555
C3 C4 1_555 1_555
C4 C5 1_555 1_555
C5 C6 1_555 1_555
C6 C1 1_555 1_555
C7 C8 1_555 1_555
C8 O1 1_555 1_555
C9 C4 1_555 1_555
N1 C1 1_555 1_555
N2 N1 1_555 1_555
O1 N2 1_555 1_555
O2 C8 1_555 1_555
H1 C2 1_555 1_555
H2 C3 1_555 1_555
H3 C5 1_555 1_555
H4 C6 1_555 1_555
H5 C7 1_555 1_555
H6 C9 1_555 1_555
H7 C9 1_555 1_555
H8 C9 1_555 1_555
C7 N1 1_555 1_555

#END
