
#######################################################################
#
#                 Cambridge Crystallographic Data Centre
#                                CCDC 
#
#######################################################################
#
# If this CIF has been generated from an entry in the Cambridge 
# Structural Database, then it will include bibliographic, chemical, 
# crystal, experimental, refinement or atomic coordinate data resulting 
# from the CCDC's data processing and validation procedures.
#
#######################################################################

data_CIHKEM
_chemical_formula_moiety         'C19 H34 Cl2 P1 1+,Cl1 1-,2(C1 H1 Cl3)'
_chemical_name_systematic        
'tricyclohexyl(dichloromethyl)phosphanium chloride chloroform solvate'
_symmetry_cell_setting           monoclinic
_symmetry_space_group_name_H-M   'P 21/c'
_symmetry_Int_Tables_number      14
_space_group_name_Hall           '-P 2ybc'
loop_
_symmetry_equiv_pos_site_id
_symmetry_equiv_pos_as_xyz
1 x,y,z
2 -x,1/2+y,1/2-z
3 -x,-y,-z
4 x,1/2-y,1/2+z
_cell_length_a                   10.9200(4)
_cell_length_b                   13.9926(6)
_cell_length_c                   19.8402(8)
_cell_angle_alpha                90
_cell_angle_beta                 101.6400(10)
_cell_angle_gamma                90
_cell_volume                     2969.22
_exptl_crystal_colour            colorless
_exptl_crystal_description       needle
_cell_formula_units_Z            4
_chemical_properties_physical    Moisture-sensitive,Hygroscopic
loop_
_atom_site_label
_atom_site_type_symbol
_atom_site_fract_x
_atom_site_fract_y
_atom_site_fract_z
Cl1 Cl 0.26506(4) 0.40987(3) 0.65169(2)
Cl2 Cl 0.41671(4) 0.48579(3) 0.55965(2)
P1 P 0.34325(3) 0.61296(3) 0.66876(2)
C1 C 0.38573(15) 0.49204(12) 0.64402(8)
C2 C 0.35963(14) 0.60446(11) 0.76287(8)
C3 C 0.24160(16) 0.56616(13) 0.78483(8)
C4 C 0.26705(17) 0.55138(14) 0.86276(9)
C5 C 0.30709(17) 0.64377(14) 0.90100(9)
C6 C 0.42259(17) 0.68403(14) 0.87888(8)
C7 C 0.40216(16) 0.69824(12) 0.80097(8)
C8 C 0.45741(14) 0.69856(11) 0.65063(8)
C9 C 0.59150(14) 0.66221(12) 0.67909(8)
C10 C 0.68436(15) 0.74363(13) 0.67711(9)
C11 C 0.67306(16) 0.78051(13) 0.60392(9)
C12 C 0.53975(16) 0.81436(13) 0.57452(9)
C13 C 0.44368(16) 0.73477(13) 0.57618(8)
C14 C 0.18199(14) 0.63975(12) 0.62783(8)
C15 C 0.14936(15) 0.74336(13) 0.64371(9)
C16 C 0.01127(17) 0.76337(15) 0.61460(10)
C17 C -0.02150(18) 0.74287(16) 0.53764(10)
C18 C 0.00990(17) 0.64032(16) 0.52233(9)
C19 C 0.14812(16) 0.61782(14) 0.55015(8)
H1 H 0.458(2) 0.4739(15) 0.6749(11)
H2 H 0.4263(19) 0.5597(14) 0.7742(10)
H3 H 0.1738(19) 0.6147(15) 0.7721(10)
H4 H 0.2152(18) 0.5096(15) 0.7606(10)
H5 H 0.196(2) 0.5250(16) 0.8764(11)
H6 H 0.332(2) 0.5037(16) 0.8745(11)
H7 H 0.322(2) 0.6326(16) 0.9496(12)
H8 H 0.239(2) 0.6893(16) 0.8897(11)
H9 H 0.493(2) 0.6383(16) 0.8931(11)
H10 H 0.447(2) 0.7450(17) 0.9000(11)
H11 H 0.4764(19) 0.7212(14) 0.7882(10)
H12 H 0.339(2) 0.7461(16) 0.7857(11)
H13 H 0.4418(18) 0.7520(15) 0.6784(10)
H14 H 0.6099(19) 0.6092(15) 0.6506(10)
H15 H 0.6004(17) 0.6370(14) 0.7248(10)
H16 H 0.7670(19) 0.7199(14) 0.6957(10)
H17 H 0.6664(18) 0.7950(15) 0.7073(10)
H18 H 0.697(2) 0.7290(16) 0.5745(11)
H19 H 0.734(2) 0.8313(16) 0.6031(11)
H20 H 0.5354(19) 0.8368(15) 0.5280(11)
H21 H 0.5189(19) 0.8678(15) 0.6014(11)
H22 H 0.362(2) 0.7591(15) 0.5606(10)
H23 H 0.4593(19) 0.6857(15) 0.5474(11)
H24 H 0.1314(19) 0.5950(15) 0.6516(10)
H25 H 0.201(2) 0.7861(16) 0.6206(11)
H26 H 0.1698(19) 0.7532(15) 0.6933(11)
H27 H -0.040(2) 0.7212(16) 0.6400(11)
H28 H -0.006(2) 0.8290(17) 0.6234(11)
H29 H 0.032(2) 0.7866(17) 0.5166(12)
H30 H -0.108(2) 0.7525(17) 0.5191(12)
H31 H -0.008(2) 0.6291(16) 0.4733(12)
H32 H -0.0383(19) 0.5964(15) 0.5425(10)
H33 H 0.1688(19) 0.5501(16) 0.5419(11)
H34 H 0.2026(19) 0.6592(15) 0.5264(10)
Cl3 Cl 0.39013(3) -0.07312(3) 0.72180(2)
Cl4 Cl 0.23423(5) 0.17929(3) 0.63066(3)
Cl5 Cl 0.26055(5) 0.03595(4) 0.53055(3)
Cl6 Cl 0.04049(5) 0.03909(5) 0.58954(3)
C20 C 0.20236(17) 0.06041(13) 0.60509(9)
H35 H 0.241(2) 0.0217(16) 0.6388(11)
Cl7 Cl 0.08822(5) 0.03369(4) 0.78009(3)
Cl8 Cl 0.03652(5) -0.16509(4) 0.80370(3)
Cl9 Cl 0.23860(6) -0.06775(5) 0.89354(3)
C21 C 0.15394(16) -0.07706(14) 0.80884(9)
H36 H 0.209(2) -0.0956(15) 0.7784(11)
loop_
_geom_bond_atom_site_label_1
_geom_bond_atom_site_label_2
_geom_bond_site_symmetry_1
_geom_bond_site_symmetry_2
Cl1 C1 1_555 1_555
Cl2 C1 1_555 1_555
P1 C1 1_555 1_555
C1 H1 1_555 1_555
C2 P1 1_555 1_555
C3 C2 1_555 1_555
C4 C3 1_555 1_555
C5 C4 1_555 1_555
C6 C5 1_555 1_555
C7 C2 1_555 1_555
C8 P1 1_555 1_555
C9 C8 1_555 1_555
C10 C9 1_555 1_555
C11 C10 1_555 1_555
C12 C11 1_555 1_555
C13 C8 1_555 1_555
C14 P1 1_555 1_555
C15 C14 1_555 1_555
C16 C15 1_555 1_555
C17 C16 1_555 1_555
C18 C17 1_555 1_555
C19 C14 1_555 1_555
H2 C2 1_555 1_555
H3 C3 1_555 1_555
H4 C3 1_555 1_555
H5 C4 1_555 1_555
H6 C4 1_555 1_555
H7 C5 1_555 1_555
H8 C5 1_555 1_555
H9 C6 1_555 1_555
H10 C6 1_555 1_555
H11 C7 1_555 1_555
H12 C7 1_555 1_555
H13 C8 1_555 1_555
H14 C9 1_555 1_555
H15 C9 1_555 1_555
H16 C10 1_555 1_555
H17 C10 1_555 1_555
H18 C11 1_555 1_555
H19 C11 1_555 1_555
H20 C12 1_555 1_555
H21 C12 1_555 1_555
H22 C13 1_555 1_555
H23 C13 1_555 1_555
H24 C14 1_555 1_555
H25 C15 1_555 1_555
H26 C15 1_555 1_555
H27 C16 1_555 1_555
H28 C16 1_555 1_555
H29 C17 1_555 1_555
H30 C17 1_555 1_555
H31 C18 1_555 1_555
H32 C18 1_555 1_555
H33 C19 1_555 1_555
H34 C19 1_555 1_555
Cl4 C20 1_555 1_555
Cl5 C20 1_555 1_555
Cl6 C20 1_555 1_555
C20 H35 1_555 1_555
Cl7 C21 1_555 1_555
Cl8 C21 1_555 1_555
Cl9 C21 1_555 1_555
C21 H36 1_555 1_555
C6 C7 1_555 1_555
C12 C13 1_555 1_555
C18 C19 1_555 1_555

#END
