
#######################################################################
#
#                 Cambridge Crystallographic Data Centre
#                                CCDC 
#
#######################################################################
#
# If this CIF has been generated from an entry in the Cambridge 
# Structural Database, then it will include bibliographic, chemical, 
# crystal, experimental, refinement or atomic coordinate data resulting 
# from the CCDC's data processing and validation procedures.
#
#######################################################################

data_CIHSOD
_chemical_formula_moiety         'C25 H28 Cl1 N5 O4,2(C4 H8 O1)'
_chemical_name_systematic        
"Di-t-butyl 4,4'-((6-chloro-1,3,5-triazine-2,4-diyl)diimino)dibenzoate tetrahydrofuran solvate"
_symmetry_cell_setting           triclinic
_symmetry_space_group_name_H-M   'P -1'
_symmetry_Int_Tables_number      2
_space_group_name_Hall           '-P 1'
loop_
_symmetry_equiv_pos_site_id
_symmetry_equiv_pos_as_xyz
1 x,y,z
2 -x,-y,-z
_cell_length_a                   11.0837(2)
_cell_length_b                   11.3509(2)
_cell_length_c                   15.2407(4)
_cell_angle_alpha                73.7600(10)
_cell_angle_beta                 81.4260(10)
_cell_angle_gamma                72.3540(10)
_cell_volume                     1749.96
_exptl_crystal_colour            colorless
_exptl_crystal_description       prism
_cell_formula_units_Z            2
loop_
_atom_site_label
_atom_site_type_symbol
_atom_site_fract_x
_atom_site_fract_y
_atom_site_fract_z
Cl1 Cl -0.00979(12) -0.02204(12) 0.73633(7)
O1 O -0.3831(3) 0.9321(3) 0.2569(2)
O2 O -0.2105(2) 0.8439(2) 0.17514(17)
O3 O 0.4102(3) 0.2999(3) 0.02211(19)
O4 O 0.2243(2) 0.4515(2) 0.02726(16)
N1 N -0.0803(3) 0.2040(3) 0.6301(2)
N2 N -0.1546(3) 0.4035(3) 0.5414(2)
H1 H -0.2031 0.4113 0.5902
N3 N 0.0159(3) 0.2642(3) 0.47902(19)
N4 N 0.1834(3) 0.1084(3) 0.4311(2)
H2 H 0.2337 0.0333 0.4489
N5 N 0.0911(3) 0.0541(3) 0.5738(2)
C1 C 0.0025(4) 0.0926(4) 0.6347(2)
C2 C -0.0688(3) 0.2883(4) 0.5483(2)
C3 C -0.1779(3) 0.5128(3) 0.4679(2)
C4 C -0.0953(3) 0.5342(3) 0.3916(3)
H3 H -0.0166 0.4756 0.3872
C5 C -0.1302(3) 0.6433(3) 0.3218(3)
H4 H -0.0746 0.6561 0.2702
C6 C -0.2451(3) 0.7336(3) 0.3264(2)
C7 C -0.3243(4) 0.7138(4) 0.4048(3)
H5 H -0.4012 0.7748 0.4104
C8 C -0.2918(4) 0.6061(4) 0.4746(3)
H6 H -0.3464 0.5952 0.5270
C9 C -0.2878(4) 0.8477(4) 0.2506(3)
C10 C -0.2370(4) 0.9429(3) 0.0886(3)
C11 C -0.3606(5) 0.9481(4) 0.0559(3)
H7 H -0.3572 0.8656 0.0492
H8 H -0.3746 1.0095 -0.0021
H9 H -0.4288 0.9726 0.0998
C12 C -0.2369(6) 1.0700(4) 0.0999(4)
H10 H -0.1571 1.0632 0.1209
H11 H -0.3043 1.0960 0.1439
H12 H -0.2495 1.1321 0.0421
C13 C -0.1274(5) 0.8939(5) 0.0247(4)
H13 H -0.1298 0.8125 0.0191
H14 H -0.0490 0.8850 0.0487
H15 H -0.1338 0.9531 -0.0345
C14 C 0.0929(3) 0.1455(4) 0.4951(2)
C15 C 0.2094(3) 0.1724(3) 0.3398(2)
C16 C 0.1257(4) 0.2807(4) 0.2914(3)
H16 H 0.0472 0.3153 0.3191
C17 C 0.1586(4) 0.3371(4) 0.2022(3)
H17 H 0.1026 0.4108 0.1707
C18 C 0.2738(3) 0.2859(3) 0.1587(2)
C19 C 0.3537(4) 0.1750(4) 0.2067(3)
H18 H 0.4302 0.1380 0.1779
C20 C 0.3229(4) 0.1183(4) 0.2958(3)
H19 H 0.3782 0.0435 0.3266
C21 C 0.3124(4) 0.3439(3) 0.0629(2)
C22 C 0.2377(4) 0.5261(4) -0.0674(3)
C23 C 0.2339(6) 0.4490(5) -0.1330(3)
H20 H 0.1565 0.4241 -0.1205
H21 H 0.3050 0.3743 -0.1252
H22 H 0.2379 0.4999 -0.1948
C24 C 0.3558(5) 0.5707(4) -0.0828(3)
H23 H 0.4293 0.4987 -0.0804
H24 H 0.3568 0.6121 -0.0360
H25 H 0.3566 0.6298 -0.1417
C25 C 0.1202(5) 0.6397(4) -0.0709(3)
H26 H 0.0454 0.6106 -0.0616
H27 H 0.1208 0.6994 -0.1297
H28 H 0.1204 0.6807 -0.0238
O5 O -0.3746(3) 0.1298(3) 0.49777(18)
C26 C -0.3235(6) 0.2339(5) 0.4719(4)
H29 H -0.2377 0.2075 0.4910
H30 H -0.3739 0.2999 0.5018
C27 C -0.3225(9) 0.2837(7) 0.3738(5)
H31 H -0.3638 0.3747 0.3583
H32 H -0.2361 0.2693 0.3466
C28 C -0.3890(9) 0.2178(8) 0.3421(4)
H33 H -0.3357 0.1761 0.2968
H34 H -0.4643 0.2771 0.3136
C29 C -0.4245(5) 0.1238(5) 0.4195(3)
H35 H -0.5162 0.1419 0.4283
H36 H -0.3903 0.0391 0.4088
O6 O 0.3516(4) 0.5821(4) 0.3095(2)
C30 C 0.2990(9) 0.5739(9) 0.2357(6)
H37 H 0.3574 0.5101 0.2072
H38 H 0.2211 0.5488 0.2560
C31 C 0.2743(10) 0.6888(11) 0.1751(8)
H39 H 0.2882 0.6765 0.1135
H40 H 0.1857 0.7341 0.1843
C32 C 0.3434(9) 0.7570(9) 0.1824(6)
H41 H 0.2922 0.8436 0.1809
H42 H 0.4089 0.7596 0.1325
C33 C 0.4024(8) 0.6953(8) 0.2733(6)
H43 H 0.4943 0.6698 0.2650
H44 H 0.3762 0.7524 0.3137
loop_
_geom_bond_atom_site_label_1
_geom_bond_atom_site_label_2
_geom_bond_site_symmetry_1
_geom_bond_site_symmetry_2
Cl1 C1 1_555 1_555
O1 C9 1_555 1_555
O2 C9 1_555 1_555
O3 C21 1_555 1_555
O4 C21 1_555 1_555
N1 C1 1_555 1_555
N2 H1 1_555 1_555
N3 C2 1_555 1_555
N4 H2 1_555 1_555
N5 C1 1_555 1_555
C2 N1 1_555 1_555
C3 N2 1_555 1_555
C4 C3 1_555 1_555
H3 C4 1_555 1_555
C5 C4 1_555 1_555
H4 C5 1_555 1_555
C6 C5 1_555 1_555
C7 C6 1_555 1_555
H5 C7 1_555 1_555
C8 C3 1_555 1_555
H6 C8 1_555 1_555
C9 C6 1_555 1_555
C10 O2 1_555 1_555
C11 C10 1_555 1_555
H7 C11 1_555 1_555
H8 C11 1_555 1_555
H9 C11 1_555 1_555
C12 C10 1_555 1_555
H10 C12 1_555 1_555
H11 C12 1_555 1_555
H12 C12 1_555 1_555
C13 C10 1_555 1_555
H13 C13 1_555 1_555
H14 C13 1_555 1_555
H15 C13 1_555 1_555
C14 N3 1_555 1_555
C15 N4 1_555 1_555
C16 C15 1_555 1_555
H16 C16 1_555 1_555
C17 C16 1_555 1_555
H17 C17 1_555 1_555
C18 C17 1_555 1_555
C19 C18 1_555 1_555
H18 C19 1_555 1_555
C20 C15 1_555 1_555
H19 C20 1_555 1_555
C21 C18 1_555 1_555
C22 O4 1_555 1_555
C23 C22 1_555 1_555
H20 C23 1_555 1_555
H21 C23 1_555 1_555
H22 C23 1_555 1_555
C24 C22 1_555 1_555
H23 C24 1_555 1_555
H24 C24 1_555 1_555
H25 C24 1_555 1_555
C25 C22 1_555 1_555
H26 C25 1_555 1_555
H27 C25 1_555 1_555
H28 C25 1_555 1_555
O5 C26 1_555 1_555
C26 H29 1_555 1_555
H30 C26 1_555 1_555
C27 C26 1_555 1_555
H31 C27 1_555 1_555
H32 C27 1_555 1_555
C28 C27 1_555 1_555
H33 C28 1_555 1_555
H34 C28 1_555 1_555
C29 O5 1_555 1_555
H35 C29 1_555 1_555
H36 C29 1_555 1_555
O6 C30 1_555 1_555
C30 H37 1_555 1_555
H38 C30 1_555 1_555
C31 C30 1_555 1_555
H39 C31 1_555 1_555
H40 C31 1_555 1_555
C32 C31 1_555 1_555
H41 C32 1_555 1_555
H42 C32 1_555 1_555
C33 O6 1_555 1_555
H43 C33 1_555 1_555
H44 C33 1_555 1_555
N2 C2 1_555 1_555
N4 C14 1_555 1_555
N5 C14 1_555 1_555
C7 C8 1_555 1_555
C19 C20 1_555 1_555
C28 C29 1_555 1_555
C32 C33 1_555 1_555

#END
