
#######################################################################
#
#                 Cambridge Crystallographic Data Centre
#                                CCDC 
#
#######################################################################
#
# If this CIF has been generated from an entry in the Cambridge 
# Structural Database, then it will include bibliographic, chemical, 
# crystal, experimental, refinement or atomic coordinate data resulting 
# from the CCDC's data processing and validation procedures.
#
#######################################################################

data_CIHWEY
_chemical_formula_moiety         'C21 H13 N5 O2 S2,C3 H7 N1 O1'
_chemical_name_systematic        
'N^2^,N^6^-bis(1,3-benzothiazol-2-yl)pyridine-2,6-dicarboxamide N,N-dimethylformamide solvate'
_symmetry_cell_setting           monoclinic
_symmetry_space_group_name_H-M   'C 2/c'
_symmetry_Int_Tables_number      15
_space_group_name_Hall           '-C 2yn'
loop_
_symmetry_equiv_pos_site_id
_symmetry_equiv_pos_as_xyz
1 x,y,z
2 -x,y,1/2-z
3 1/2+x,1/2+y,z
4 1/2-x,1/2+y,1/2-z
5 -x,-y,-z
6 x,-y,1/2+z
7 1/2-x,1/2-y,-z
8 1/2+x,1/2-y,1/2+z
_cell_length_a                   21.6495(7)
_cell_length_b                   7.3556(3)
_cell_length_c                   30.0659(9)
_cell_angle_alpha                90
_cell_angle_beta                 103.501(3)
_cell_angle_gamma                90
_cell_volume                     4655.54
_exptl_crystal_colour            'light yellow'
_exptl_crystal_description       Block
_cell_formula_units_Z            8
loop_
_atom_site_label
_atom_site_type_symbol
_atom_site_fract_x
_atom_site_fract_y
_atom_site_fract_z
C1 C 0.73883(11) 0.0790(4) 0.70043(8)
C2 C 0.74734(10) 0.0980(3) 0.65267(7)
C3 C 0.80659(11) 0.0643(4) 0.64476(8)
H1 H 0.8405 0.0311 0.6686
C4 C 0.81427(11) 0.0812(4) 0.60081(9)
H2 H 0.8539 0.0635 0.5945
C5 C 0.76263(11) 0.1245(4) 0.56642(8)
H3 H 0.7665 0.1344 0.5363
C6 C 0.70489(10) 0.1533(3) 0.57725(7)
C7 C 0.64730(11) 0.1883(3) 0.53972(7)
C8 C 0.53509(10) 0.2543(3) 0.52351(7)
C9 C 0.44357(11) 0.2483(3) 0.45965(7)
C10 C 0.39400(12) 0.2400(4) 0.42060(8)
H4 H 0.4015 0.2041 0.3927
C11 C 0.33423(12) 0.2856(4) 0.42424(9)
H5 H 0.3008 0.2810 0.3984
C12 C 0.32259(12) 0.3389(4) 0.46600(9)
H6 H 0.2816 0.3700 0.4678
C13 C 0.37128(12) 0.3456(4) 0.50451(8)
H7 H 0.3632 0.3798 0.5324
C14 C 0.43245(11) 0.3013(3) 0.50164(7)
C15 C 0.66578(10) 0.1126(3) 0.74926(7)
C16 C 0.60726(11) 0.1289(3) 0.79960(7)
C17 C 0.55438(12) 0.1588(4) 0.81733(8)
H8 H 0.5163 0.1987 0.7986
C18 C 0.55932(14) 0.1285(4) 0.86312(9)
H9 H 0.5241 0.1479 0.8753
C19 C 0.61551(14) 0.0697(4) 0.89154(8)
H10 H 0.6176 0.0506 0.9224
C20 C 0.66802(12) 0.0393(4) 0.87476(8)
H11 H 0.7057 -0.0016 0.8938
C21 C 0.66389(11) 0.0708(3) 0.82860(7)
N1 N 0.68093(8) 0.1241(3) 0.70705(6)
H12 H 0.6523 0.1616 0.6840
N2 N 0.69666(8) 0.1432(3) 0.61998(6)
N3 N 0.59373(8) 0.2365(3) 0.55292(6)
H13 H 0.5967 0.2573 0.5815
N4 N 0.48585(8) 0.3029(3) 0.53778(6)
N5 N 0.60987(8) 0.1522(3) 0.75406(6)
O1 O 0.78178(8) 0.0235(3) 0.73077(6)
O2 O 0.64902(8) 0.1691(3) 0.49973(5)
S1 S 0.52335(3) 0.20150(9) 0.46540(2)
S2 S 0.72182(3) 0.04332(10) 0.79794(2)
C25 C 0.5928(2) 0.4671(7) 0.67624(16)
H21 H 0.6321 0.4634 0.6971
C26 C 0.4904(3) 0.6000(9) 0.6463(2)
H22 H 0.4933 0.5314 0.6197
H23 H 0.4776 0.7223 0.6375
H24 H 0.4597 0.5448 0.6605
C27 C 0.5670(4) 0.7443(11) 0.7110(3)
H25 H 0.5343 0.7499 0.7277
H26 H 0.5681 0.8569 0.6950
H27 H 0.6073 0.7243 0.7318
O4 O 0.5810(9) 0.349(3) 0.6484(7)
N7 N 0.5543(8) 0.602(3) 0.6797(5)
O3? O 0.5921(11) 0.336(4) 0.6447(9)
N6? N 0.5404(9) 0.580(3) 0.6701(6)
C22? C 0.5453(3) 0.4614(9) 0.64102(17)
H14? H 0.5135 0.4594 0.6142
C23? C 0.5943(4) 0.5972(12) 0.7126(3)
H15? H 0.5783 0.5743 0.7393
H16? H 0.6117 0.7177 0.7142
H17? H 0.6268 0.5103 0.7111
C24? C 0.4911(5) 0.7123(17) 0.6672(3)
H18? H 0.4681 0.7246 0.6359
H19? H 0.5094 0.8273 0.6782
H20? H 0.4626 0.6736 0.6855
loop_
_geom_bond_atom_site_label_1
_geom_bond_atom_site_label_2
_geom_bond_site_symmetry_1
_geom_bond_site_symmetry_2
C1 C2 1_555 1_555
C2 C3 1_555 1_555
C3 H1 1_555 1_555
C4 C3 1_555 1_555
H2 C4 1_555 1_555
C5 C4 1_555 1_555
H3 C5 1_555 1_555
C6 C5 1_555 1_555
C7 C6 1_555 1_555
C8 N3 1_555 1_555
C9 C10 1_555 1_555
C10 H4 1_555 1_555
C11 C10 1_555 1_555
H5 C11 1_555 1_555
C12 C11 1_555 1_555
H6 C12 1_555 1_555
C13 C12 1_555 1_555
H7 C13 1_555 1_555
C14 C9 1_555 1_555
C15 N1 1_555 1_555
C16 C17 1_555 1_555
C17 H8 1_555 1_555
C18 C17 1_555 1_555
H9 C18 1_555 1_555
C19 C18 1_555 1_555
H10 C19 1_555 1_555
C20 C19 1_555 1_555
H11 C20 1_555 1_555
C21 C16 1_555 1_555
N1 C1 1_555 1_555
H12 N1 1_555 1_555
N2 C2 1_555 1_555
N3 C7 1_555 1_555
H13 N3 1_555 1_555
N4 C8 1_555 1_555
N5 C15 1_555 1_555
O1 C1 1_555 1_555
O2 C7 1_555 1_555
S1 C8 1_555 1_555
S2 C15 1_555 1_555
C25 H21 1_555 1_555
C26 H22 1_555 1_555
H23 C26 1_555 1_555
H24 C26 1_555 1_555
C27 H25 1_555 1_555
H26 C27 1_555 1_555
H27 C27 1_555 1_555
O4 C25 1_555 1_555
N7 C25 1_555 1_555
C6 N2 1_555 1_555
C9 S1 1_555 1_555
C13 C14 1_555 1_555
C14 N4 1_555 1_555
C16 N5 1_555 1_555
C20 C21 1_555 1_555
C21 S2 1_555 1_555
C26 N7 1_555 1_555
C27 N7 1_555 1_555

#END
