
#######################################################################
#
#                 Cambridge Crystallographic Data Centre
#                                CCDC 
#
#######################################################################
#
# If this CIF has been generated from an entry in the Cambridge 
# Structural Database, then it will include bibliographic, chemical, 
# crystal, experimental, refinement or atomic coordinate data resulting 
# from the CCDC's data processing and validation procedures.
#
#######################################################################

data_CIHXAV
_chemical_formula_moiety         'C28 H26 Cl1 N1 O2 S1 Si1'
_chemical_name_systematic        
5-[(4-chlorophenyl)ethynyl]-4,4,12-trimethyl-3,4,6,7,13,13a-hexahydro-9H-9\l^6^-silino[2',3':5,6]indolo[1,7-bc][1,2]benzothiazine-9,9-dione
_symmetry_cell_setting           monoclinic
_symmetry_space_group_name_H-M   'P 21/n'
_symmetry_Int_Tables_number      14
_space_group_name_Hall           '-P 2yn'
loop_
_symmetry_equiv_pos_site_id
_symmetry_equiv_pos_as_xyz
1 x,y,z
2 1/2-x,1/2+y,1/2-z
3 -x,-y,-z
4 1/2+x,1/2-y,1/2+z
_cell_length_a                   7.8931(2)
_cell_length_b                   27.8402(8)
_cell_length_c                   12.0156(4)
_cell_angle_alpha                90
_cell_angle_beta                 108.0270(10)
_cell_angle_gamma                90
_cell_volume                     2510.76
_exptl_crystal_colour            colorless
_exptl_crystal_description       plate
_cell_formula_units_Z            4
loop_
_atom_site_label
_atom_site_type_symbol
_atom_site_fract_x
_atom_site_fract_y
_atom_site_fract_z
Cl1 Cl 1.41616(6) 0.22224(2) 0.53188(4)
S1 S -0.09650(5) 0.15688(2) -0.21275(4)
Si1 Si 0.36525(7) 0.05921(2) 0.34003(4)
O1 O 0.00001(16) 0.12050(5) -0.25334(11)
O2 O -0.17359(17) 0.19511(5) -0.29231(11)
N1 N 0.02858(19) 0.18149(5) -0.09011(12)
C1 C 1.1970(2) 0.20504(6) 0.46074(16)
C2 C 1.1052(3) 0.17965(7) 0.52269(16)
H1 H 1.1596 0.1722 0.6011
C3 C 0.9322(3) 0.16541(7) 0.46713(17)
H2 H 0.8698 0.1484 0.5085
C4 C 0.8500(2) 0.17636(6) 0.34890(16)
C5 C 0.9462(3) 0.20169(7) 0.28867(16)
H3 H 0.893 0.2089 0.21
C6 C 1.1197(3) 0.21633(7) 0.34370(17)
H4 H 1.1829 0.2334 0.3029
C7 C 0.6685(2) 0.16270(6) 0.29200(16)
C8 C 0.5153(2) 0.15176(6) 0.24574(15)
C9 C 0.3362(2) 0.13857(6) 0.18001(15)
C10 C 0.2533(2) 0.16451(6) 0.07877(16)
C11 C 0.3158(3) 0.20784(6) 0.02753(16)
H5 H 0.4369 0.2035 0.0257
H6 H 0.3103 0.2366 0.0719
C12 C 0.1838(2) 0.21069(7) -0.09693(16)
H7 H 0.1488 0.2437 -0.1183
H8 H 0.2353 0.1973 -0.1537
C13 C 0.0864(2) 0.15016(6) 0.00804(15)
C14 C -0.0046(2) 0.11028(6) 0.03006(15)
C15 C 0.0842(2) 0.08280(6) 0.13123(15)
C16 C 0.0105(2) 0.03517(6) 0.14683(16)
H9 H -0.0737 0.0224 0.0812
C17 C 0.0503(3) 0.00855(7) 0.24324(17)
H10 H -0.003 -0.0215 0.2381
C18 C 0.1750(3) 0.02355(8) 0.35973(18)
H11 H 0.2207 -0.0047 0.4066
H12 H 0.1111 0.0428 0.4009
C19 C 0.2509(2) 0.09777(6) 0.20869(15)
C20 C -0.2520(2) 0.12916(6) -0.15877(15)
C21 C -0.4239(2) 0.13344(7) -0.21999(16)
H13 H -0.4585 0.1539 -0.2843
C22 C -0.5569(2) 0.10611(7) -0.18621(16)
H14 H -0.6712 0.1027 -0.2383
C23 C -0.5151(2) 0.08584(6) -0.08048(16)
C24 C -0.3325(2) 0.09491(7) 0.00584(15)
H15 H -0.3056 0.0699 0.0649
H16 H -0.3337 0.1253 0.0449
C25 C -0.1860(2) 0.09603(6) -0.05359(15)
H17 H -0.1753 0.0636 -0.0826
C26 C -0.6449(2) 0.05607(7) -0.04275(17)
H18 H -0.7637 0.0629 -0.092
H19 H -0.6352 0.0635 0.037
H20 H -0.6193 0.0226 -0.0491
C27 C 0.5332(3) 0.02076(8) 0.30232(19)
H21 H 0.621 0.0408 0.2852
H22 H 0.475 0.0015 0.2351
H23 H 0.5902 0.0002 0.3673
C28 C 0.4694(3) 0.09342(7) 0.47763(16)
H24 H 0.5214 0.0714 0.5403
H25 H 0.3802 0.1123 0.4963
H26 H 0.5603 0.1142 0.4671
loop_
_geom_bond_atom_site_label_1
_geom_bond_atom_site_label_2
_geom_bond_site_symmetry_1
_geom_bond_site_symmetry_2
Cl1 C1 1_555 1_555
S1 O1 1_555 1_555
Si1 C18 1_555 1_555
O2 S1 1_555 1_555
N1 S1 1_555 1_555
C1 C2 1_555 1_555
C2 H1 1_555 1_555
C3 C2 1_555 1_555
H2 C3 1_555 1_555
C4 C3 1_555 1_555
C5 C4 1_555 1_555
H3 C5 1_555 1_555
C6 C1 1_555 1_555
H4 C6 1_555 1_555
C7 C4 1_555 1_555
C8 C7 1_555 1_555
C9 C8 1_555 1_555
C10 C9 1_555 1_555
C11 C10 1_555 1_555
H5 C11 1_555 1_555
H6 C11 1_555 1_555
C12 N1 1_555 1_555
H7 C12 1_555 1_555
H8 C12 1_555 1_555
C13 N1 1_555 1_555
C14 C13 1_555 1_555
C15 C14 1_555 1_555
C16 C15 1_555 1_555
H9 C16 1_555 1_555
C17 C16 1_555 1_555
H10 C17 1_555 1_555
C18 C17 1_555 1_555
H11 C18 1_555 1_555
H12 C18 1_555 1_555
C19 Si1 1_555 1_555
C20 S1 1_555 1_555
C21 C20 1_555 1_555
H13 C21 1_555 1_555
C22 C21 1_555 1_555
H14 C22 1_555 1_555
C23 C22 1_555 1_555
C24 C23 1_555 1_555
H15 C24 1_555 1_555
H16 C24 1_555 1_555
C25 C14 1_555 1_555
H17 C25 1_555 1_555
C26 C23 1_555 1_555
H18 C26 1_555 1_555
H19 C26 1_555 1_555
H20 C26 1_555 1_555
C27 Si1 1_555 1_555
H21 C27 1_555 1_555
H22 C27 1_555 1_555
H23 C27 1_555 1_555
C28 Si1 1_555 1_555
H24 C28 1_555 1_555
H25 C28 1_555 1_555
H26 C28 1_555 1_555
C5 C6 1_555 1_555
C9 C19 1_555 1_555
C10 C13 1_555 1_555
C11 C12 1_555 1_555
C15 C19 1_555 1_555
C20 C25 1_555 1_555
C24 C25 1_555 1_555

#END
