
#######################################################################
#
#                 Cambridge Crystallographic Data Centre
#                                CCDC 
#
#######################################################################
#
# If this CIF has been generated from an entry in the Cambridge 
# Structural Database, then it will include bibliographic, chemical, 
# crystal, experimental, refinement or atomic coordinate data resulting 
# from the CCDC's data processing and validation procedures.
#
#######################################################################

data_CIJDUX
_chemical_formula_moiety         'C26 H6 B2 Br2 F18 O1 S2'
_chemical_name_systematic        
2,8-dibromo-4,6-bis(2,4,6-tris(trifluoromethyl)phenyl)-4,6-dihydrobisthieno[3,2-c:2',3'-e][1,2,7]oxadiborepine
_symmetry_cell_setting           monoclinic
_symmetry_space_group_name_H-M   'P 21/c'
_symmetry_Int_Tables_number      14
_space_group_name_Hall           '-P 2ybc'
loop_
_symmetry_equiv_pos_site_id
_symmetry_equiv_pos_as_xyz
1 x,y,z
2 -x,1/2+y,1/2-z
3 -x,-y,-z
4 x,1/2-y,1/2+z
_cell_length_a                   11.7222(5)
_cell_length_b                   15.8690(6)
_cell_length_c                   17.8469(7)
_cell_angle_alpha                90
_cell_angle_beta                 107.1070(10)
_cell_angle_gamma                90
_cell_volume                     3172.99
_exptl_crystal_colour            colorless
_exptl_crystal_description       prismatic
_cell_formula_units_Z            4
loop_
_atom_site_label
_atom_site_type_symbol
_atom_site_fract_x
_atom_site_fract_y
_atom_site_fract_z
Br1 Br 0.62693(6) 0.67368(4) 0.61578(4)
Br2 Br -0.09776(5) 0.42018(4) 0.35166(3)
S1 S 0.39501(12) 0.57590(8) 0.53210(7)
S2 S 0.14897(11) 0.49352(7) 0.44553(6)
O1 O 0.3411(2) 0.32730(17) 0.67589(15)
B1 B 0.4278(4) 0.3877(3) 0.6929(3)
B2 B 0.2406(4) 0.3125(3) 0.6158(3)
C1 C 0.5220(4) 0.5836(3) 0.6096(3)
C2 C 0.5331(4) 0.5202(3) 0.6608(3)
H1 H 0.5977 0.5148 0.7056
C3 C 0.4361(4) 0.4614(3) 0.6398(2)
C4 C 0.3526(4) 0.4846(3) 0.5700(2)
C5 C 0.2401(4) 0.4452(2) 0.5288(2)
C6 C 0.1893(4) 0.3714(2) 0.5461(2)
C7 C 0.0762(4) 0.3558(3) 0.4900(2)
H2 H 0.0293 0.3091 0.4919
C8 C 0.0440(4) 0.4156(3) 0.4339(2)
C9 C 0.5228(3) 0.3733(3) 0.7766(2)
C10 C 0.6191(4) 0.3185(3) 0.7874(3)
C11 C 0.6968(5) 0.3007(3) 0.8609(3)
H3 H 0.7594 0.2630 0.8660
C12 C 0.6808(4) 0.3388(3) 0.9256(3)
C13 C 0.5888(4) 0.3934(3) 0.9186(3)
H4 H 0.5781 0.4190 0.9629
C14 C 0.5107(4) 0.4108(3) 0.8447(2)
C15 C 0.4143(6) 0.4726(5) 0.8401(3)
C16 C 0.6441(6) 0.2791(6) 0.7185(4)
C17 C 0.7638(6) 0.3207(5) 1.0057(4)
C18 C 0.1788(3) 0.2234(2) 0.6237(2)
C19 C 0.1065(4) 0.2135(3) 0.6724(2)
C20 C 0.0612(4) 0.1353(3) 0.6849(3)
H5 H 0.0130 0.1307 0.7178
C21 C 0.0880(4) 0.0651(3) 0.6484(3)
C22 C 0.1580(4) 0.0725(3) 0.5987(3)
H6 H 0.1754 0.0253 0.5733
C23 C 0.2023(4) 0.1509(3) 0.5869(2)
C24 C 0.2749(5) 0.1561(3) 0.5299(3)
C25 C 0.0707(5) 0.2869(3) 0.7126(3)
C26 C 0.0417(8) -0.0195(4) 0.6627(5)
F1 F 0.1156(13) 0.3573(8) 0.7028(10)
F2 F 0.0793(19) 0.2769(6) 0.7838(6)
F3 F -0.0483(8) 0.3038(9) 0.6784(8)
F4 F -0.0710(15) -0.0156(15) 0.6625(14)
F5 F 0.0560(17) -0.0786(8) 0.6196(12)
F6 F 0.095(2) -0.0434(10) 0.7368(10)
F7 F 0.8526(13) 0.2739(14) 1.0070(5)
F8 F 0.8102(15) 0.3924(7) 1.0391(9)
F9 F 0.7058(12) 0.2852(12) 1.0502(6)
F10 F 0.5704(9) 0.1964(7) 0.7120(5)
F11 F 0.3125(7) 0.4114(6) 0.8528(5)
F12 F 0.3230(4) 0.0846(2) 0.5209(3)
F13 F 0.2090(4) 0.1796(3) 0.45860(18)
F14 F 0.3587(3) 0.2143(2) 0.5491(2)
F15 F 0.5747(4) 0.2907(3) 0.6538(2)
F16 F 0.7315(4) 0.2331(4) 0.7294(2)
F17 F 0.3371(4) 0.4820(3) 0.7770(2)
F18 F 0.4069(4) 0.5051(3) 0.9011(2)
F19? F 0.1631(14) 0.3011(11) 0.7825(8)
F20? F 0.075(2) 0.3565(12) 0.6801(14)
F21? F -0.0172(16) 0.2774(8) 0.7355(14)
F22? F -0.027(4) -0.0224(19) 0.699(3)
F23? F 0.132(3) -0.0705(12) 0.696(2)
F24? F -0.012(3) -0.0565(15) 0.5902(15)
F25? F 0.791(2) 0.2422(12) 1.0154(14)
F26? F 0.8753(18) 0.3493(16) 1.0097(11)
F27? F 0.744(3) 0.351(2) 1.0635(8)
F28? F 0.7171(10) 0.3429(8) 0.6844(6)
F29? F 0.4629(9) 0.5560(4) 0.8199(6)
loop_
_geom_bond_atom_site_label_1
_geom_bond_atom_site_label_2
_geom_bond_site_symmetry_1
_geom_bond_site_symmetry_2
Br1 C1 1_555 1_555
Br2 C8 1_555 1_555
S1 C1 1_555 1_555
S2 C5 1_555 1_555
O1 B1 1_555 1_555
B1 C3 1_555 1_555
B2 O1 1_555 1_555
C1 C2 1_555 1_555
C2 H1 1_555 1_555
C3 C2 1_555 1_555
C4 S1 1_555 1_555
C5 C4 1_555 1_555
C6 B2 1_555 1_555
C7 C6 1_555 1_555
H2 C7 1_555 1_555
C8 S2 1_555 1_555
C9 B1 1_555 1_555
C10 C9 1_555 1_555
C11 C10 1_555 1_555
H3 C11 1_555 1_555
C12 C11 1_555 1_555
C13 C12 1_555 1_555
H4 C13 1_555 1_555
C14 C9 1_555 1_555
C15 C14 1_555 1_555
C16 C10 1_555 1_555
C17 C12 1_555 1_555
C18 B2 1_555 1_555
C19 C18 1_555 1_555
C20 C19 1_555 1_555
H5 C20 1_555 1_555
C21 C20 1_555 1_555
C22 C21 1_555 1_555
H6 C22 1_555 1_555
C23 C18 1_555 1_555
C24 C23 1_555 1_555
C25 C19 1_555 1_555
C26 C21 1_555 1_555
F1 C25 1_555 1_555
F2 C25 1_555 1_555
F3 C25 1_555 1_555
F4 C26 1_555 1_555
F5 C26 1_555 1_555
F6 C26 1_555 1_555
F7 C17 1_555 1_555
F8 C17 1_555 1_555
F9 C17 1_555 1_555
F10 C16 1_555 1_555
F11 C15 1_555 1_555
F12 C24 1_555 1_555
F13 C24 1_555 1_555
F14 C24 1_555 1_555
F15 C16 1_555 1_555
F16 C16 1_555 1_555
F17 C15 1_555 1_555
F18 C15 1_555 1_555
C3 C4 1_555 1_555
C5 C6 1_555 1_555
C7 C8 1_555 1_555
C13 C14 1_555 1_555
C22 C23 1_555 1_555

#END
