
#######################################################################
#
#                 Cambridge Crystallographic Data Centre
#                                CCDC 
#
#######################################################################
#
# If this CIF has been generated from an entry in the Cambridge 
# Structural Database, then it will include bibliographic, chemical, 
# crystal, experimental, refinement or atomic coordinate data resulting 
# from the CCDC's data processing and validation procedures.
#
#######################################################################

data_CIJLAK
_chemical_formula_moiety         'C36 H22 Br2 O4'
_chemical_name_systematic        
'2-(4-Benzoyl-2-(4-bromophenyl)-5-phenyl-3-furyl)phenyl 4-bromobenzoate'
_symmetry_cell_setting           monoclinic
_symmetry_space_group_name_H-M   'P 21/c'
_symmetry_Int_Tables_number      14
_space_group_name_Hall           '-P 2ybc'
loop_
_symmetry_equiv_pos_site_id
_symmetry_equiv_pos_as_xyz
1 x,y,z
2 -x,1/2+y,1/2-z
3 -x,-y,-z
4 x,1/2-y,1/2+z
_cell_length_a                   16.6326(7)
_cell_length_b                   18.9665(8)
_cell_length_c                   9.2524(4)
_cell_angle_alpha                90
_cell_angle_beta                 97.506(2)
_cell_angle_gamma                90
_cell_volume                     2893.77
_exptl_crystal_colour            colorless
_exptl_crystal_description       prism
_cell_formula_units_Z            4
loop_
_atom_site_label
_atom_site_type_symbol
_atom_site_fract_x
_atom_site_fract_y
_atom_site_fract_z
C1 C 0.3438(2) 0.0405(2) 0.3852(4)
C2 C 0.4034(2) 0.0894(2) 0.4245(4)
H1 H 0.3946 0.1271 0.4883
C3 C 0.4768(2) 0.0831(2) 0.3699(4)
H2 H 0.5188 0.1162 0.3977
C4 C 0.4895(2) 0.0287(2) 0.2748(4)
C5 C 0.4283(2) -0.0208(2) 0.2405(4)
H3 H 0.4368 -0.0591 0.1781
C6 C 0.3558(2) -0.0152(2) 0.2959(4)
H4 H 0.3145 -0.0494 0.2726
C7 C 0.5649(2) 0.0262(2) 0.2095(4)
C8 C 0.6126(2) 0.0769(2) 0.1613(4)
C9 C 0.6820(2) 0.0408(2) 0.1169(4)
C10 C 0.6694(2) -0.0295(2) 0.1355(4)
C11 C 0.7076(2) -0.0951(2) 0.0979(4)
C12 C 0.6914(2) -0.1574(2) 0.1672(4)
H5 H 0.6585 -0.1563 0.2437
C13 C 0.7221(2) -0.2207(2) 0.1271(5)
H6 H 0.7098 -0.2629 0.1748
C14 C 0.7709(3) -0.2227(2) 0.0176(5)
H7 H 0.7925 -0.2664 -0.0098
C15 C 0.7882(3) -0.1617(2) -0.0520(5)
H8 H 0.8218 -0.1634 -0.1275
C16 C 0.7571(2) -0.0977(2) -0.0127(4)
H9 H 0.7695 -0.0557 -0.0611
C17 C 0.7483(2) 0.0786(2) 0.0547(4)
C18 C 0.8347(2) 0.0679(2) 0.1162(4)
C19 C 0.8587(2) 0.0258(2) 0.2352(4)
H10 H 0.8192 0.0011 0.2807
C20 C 0.9403(3) 0.0190(3) 0.2893(5)
H11 H 0.9565 -0.0101 0.3715
C21 C 0.9972(3) 0.0546(3) 0.2232(6)
H12 H 1.0531 0.0492 0.2588
C22 C 0.9744(3) 0.0979(4) 0.1062(6)
H13 H 1.0142 0.1230 0.0618
C23 C 0.8931(3) 0.1048(3) 0.0534(5)
H14 H 0.8772 0.1352 -0.0269
C24 C 0.5896(2) 0.15212(19) 0.1525(4)
C25 C 0.5128(2) 0.1709(2) 0.0850(4)
H15 H 0.4794 0.1361 0.0334
C26 C 0.4843(2) 0.2390(2) 0.0913(4)
H16 H 0.4314 0.2504 0.0458
C27 C 0.5322(3) 0.2901(2) 0.1634(4)
H17 H 0.5122 0.3368 0.1693
C28 C 0.6098(2) 0.2733(2) 0.2275(4)
H18 H 0.6436 0.3085 0.2768
C29 C 0.6374(2) 0.2058(2) 0.2193(4)
C30 C 0.7316(2) 0.1656(2) 0.4157(4)
C31 C 0.8190(2) 0.1683(2) 0.4759(4)
C32 C 0.8425(2) 0.1385(2) 0.6101(4)
H19 H 0.8034 0.1165 0.6614
C33 C 0.9230(2) 0.1406(2) 0.6708(4)
H20 H 0.9396 0.1192 0.7627
C34 C 0.9785(2) 0.1737(2) 0.5976(4)
C35 C 0.9572(2) 0.2026(2) 0.4631(5)
H21 H 0.9967 0.2243 0.4123
C36 C 0.8762(2) 0.1998(2) 0.4019(4)
H22 H 0.8602 0.2198 0.3084
O1 O 0.59803(14) -0.03904(13) 0.1921(3)
O2 O 0.73041(16) 0.12133(15) -0.0426(3)
O3 O 0.71878(14) 0.19270(13) 0.2790(3)
O4 O 0.67899(16) 0.14249(18) 0.4783(3)
Br1 Br 0.24161(3) 0.05278(3) 0.45307(5)
Br2 Br 1.08740(3) 0.17786(3) 0.68831(6)
loop_
_geom_bond_atom_site_label_1
_geom_bond_atom_site_label_2
_geom_bond_site_symmetry_1
_geom_bond_site_symmetry_2
C1 C2 1_555 1_555
C2 H1 1_555 1_555
C3 C2 1_555 1_555
H2 C3 1_555 1_555
C4 C3 1_555 1_555
C5 C4 1_555 1_555
H3 C5 1_555 1_555
C6 C1 1_555 1_555
H4 C6 1_555 1_555
C7 C4 1_555 1_555
C8 C7 1_555 1_555
C9 C8 1_555 1_555
C10 C9 1_555 1_555
C11 C10 1_555 1_555
C12 C11 1_555 1_555
H5 C12 1_555 1_555
C13 C12 1_555 1_555
H6 C13 1_555 1_555
C14 C13 1_555 1_555
H7 C14 1_555 1_555
C15 C14 1_555 1_555
H8 C15 1_555 1_555
C16 C11 1_555 1_555
H9 C16 1_555 1_555
C17 C9 1_555 1_555
C18 C17 1_555 1_555
C19 C18 1_555 1_555
H10 C19 1_555 1_555
C20 C19 1_555 1_555
H11 C20 1_555 1_555
C21 C20 1_555 1_555
H12 C21 1_555 1_555
C22 C21 1_555 1_555
H13 C22 1_555 1_555
C23 C18 1_555 1_555
H14 C23 1_555 1_555
C24 C8 1_555 1_555
C25 C24 1_555 1_555
H15 C25 1_555 1_555
C26 C25 1_555 1_555
H16 C26 1_555 1_555
C27 C26 1_555 1_555
H17 C27 1_555 1_555
C28 C27 1_555 1_555
H18 C28 1_555 1_555
C29 C24 1_555 1_555
C30 C31 1_555 1_555
C31 C32 1_555 1_555
C32 H19 1_555 1_555
C33 C32 1_555 1_555
H20 C33 1_555 1_555
C34 C33 1_555 1_555
C35 C34 1_555 1_555
H21 C35 1_555 1_555
C36 C31 1_555 1_555
H22 C36 1_555 1_555
O1 C7 1_555 1_555
O2 C17 1_555 1_555
O3 C29 1_555 1_555
O4 C30 1_555 1_555
Br1 C1 1_555 1_555
Br2 C34 1_555 1_555
C5 C6 1_555 1_555
C10 O1 1_555 1_555
C15 C16 1_555 1_555
C22 C23 1_555 1_555
C28 C29 1_555 1_555
C30 O3 1_555 1_555
C35 C36 1_555 1_555

#END
