
#######################################################################
#
#                 Cambridge Crystallographic Data Centre
#                                CCDC 
#
#######################################################################
#
# If this CIF has been generated from an entry in the Cambridge 
# Structural Database, then it will include bibliographic, chemical, 
# crystal, experimental, refinement or atomic coordinate data resulting 
# from the CCDC's data processing and validation procedures.
#
#######################################################################

data_CIJRUK
_chemical_formula_moiety         'C11 H15 N4 O1 1+,H2 O1,Cl1 1-'
_chemical_name_systematic        
'1-(4,6-Dimethylpyrimidin-2-yl)-3-(2-hydroxyethyl)-1H-imidazol-3-ium chloride monohydrate'
_symmetry_cell_setting           orthorhombic
_symmetry_space_group_name_H-M   'P b c n'
_symmetry_Int_Tables_number      60
_space_group_name_Hall           '-P 2n 2ab'
loop_
_symmetry_equiv_pos_site_id
_symmetry_equiv_pos_as_xyz
1 x,y,z
2 1/2-x,1/2-y,1/2+z
3 -x,y,1/2-z
4 1/2+x,1/2-y,-z
5 -x,-y,-z
6 1/2+x,1/2+y,1/2-z
7 x,-y,1/2+z
8 1/2-x,1/2+y,z
_cell_length_a                   8.6485(13)
_cell_length_b                   16.109(2)
_cell_length_c                   19.950(3)
_cell_angle_alpha                90
_cell_angle_beta                 90
_cell_angle_gamma                90
_cell_volume                     2779.41
_exptl_crystal_colour            colorless
_exptl_crystal_description       block
_cell_formula_units_Z            8
loop_
_atom_site_label
_atom_site_type_symbol
_atom_site_fract_x
_atom_site_fract_y
_atom_site_fract_z
C1 C 0.1643(3) 0.11310(16) 0.29680(12)
C2 C 0.3177(3) 0.13832(18) 0.20835(14)
C3 C 0.3274(3) 0.05384(19) 0.19915(13)
H1 H 0.3861 0.0323 0.1642
C4 C 0.2498(3) 0.00151(17) 0.24190(14)
C5 C 0.3988(3) 0.19913(18) 0.16413(13)
H2 H 0.3248 0.2372 0.1456
H3 H 0.4499 0.1700 0.1285
H4 H 0.4738 0.2293 0.1899
C6 C 0.2521(4) -0.09111(17) 0.23475(17)
H5 H 0.1908 -0.1156 0.2696
H6 H 0.3567 -0.1107 0.2382
H7 H 0.2104 -0.1063 0.1919
C7 C 0.0550(3) 0.22846(15) 0.36645(13)
H8 H 0.0966 0.2734 0.3435
C8 C -0.0338(3) 0.23192(15) 0.42141(14)
H9 H -0.0649 0.2796 0.4439
C9 C -0.0029(3) 0.10038(15) 0.39543(12)
H10 H -0.0073 0.0427 0.3963
C10 C -0.1628(3) 0.12498(18) 0.49654(13)
H11 H -0.1891 0.0667 0.4923
H12 H -0.2583 0.1565 0.4976
C11 C -0.0761(4) 0.13845(18) 0.56076(14)
H13 H -0.0400 0.1954 0.5623
H14 H -0.1463 0.1303 0.5981
N1 N 0.2316(2) 0.16961(12) 0.25900(11)
N2 N 0.1656(3) 0.03186(13) 0.29311(10)
N3 N 0.0730(2) 0.14630(12) 0.35040(10)
N4 N -0.0704(2) 0.15074(12) 0.43831(10)
O1 O 0.0507(3) 0.08516(12) 0.56834(11)
H15 H 0.1214 0.1007 0.5440
Cl1 Cl 0.32868(9) 0.11262(5) 0.47235(4)
O2 O 0.5527(2) 0.06098(12) 0.59503(9)
H19 H 0.4870 0.0732 0.5657
H20 H 0.5994 0.0180 0.5836
H16? H 0.3144 -0.1061 0.1968
H17? H 0.1486 -0.1111 0.2283
H18? H 0.2949 -0.1155 0.2746
loop_
_geom_bond_atom_site_label_1
_geom_bond_atom_site_label_2
_geom_bond_site_symmetry_1
_geom_bond_site_symmetry_2
C1 N1 1_555 1_555
C2 C3 1_555 1_555
C3 H1 1_555 1_555
C4 C3 1_555 1_555
C5 C2 1_555 1_555
H2 C5 1_555 1_555
H3 C5 1_555 1_555
H4 C5 1_555 1_555
C6 C4 1_555 1_555
H5 C6 1_555 1_555
H6 C6 1_555 1_555
H7 C6 1_555 1_555
C7 H8 1_555 1_555
C8 C7 1_555 1_555
H9 C8 1_555 1_555
C9 H10 1_555 1_555
C10 H11 1_555 1_555
H12 C10 1_555 1_555
C11 C10 1_555 1_555
H13 C11 1_555 1_555
H14 C11 1_555 1_555
N1 C2 1_555 1_555
N2 C1 1_555 1_555
N3 C1 1_555 1_555
N4 C8 1_555 1_555
O1 C11 1_555 1_555
H15 O1 1_555 1_555
O2 H19 1_555 1_555
H20 O2 1_555 1_555
C4 N2 1_555 1_555
C7 N3 1_555 1_555
C9 N3 1_555 1_555
C9 N4 1_555 1_555
C10 N4 1_555 1_555

#END
