
#######################################################################
#
#                 Cambridge Crystallographic Data Centre
#                                CCDC 
#
#######################################################################
#
# If this CIF has been generated from an entry in the Cambridge 
# Structural Database, then it will include bibliographic, chemical, 
# crystal, experimental, refinement or atomic coordinate data resulting 
# from the CCDC's data processing and validation procedures.
#
#######################################################################

data_CIJVUO
_chemical_formula_moiety         'C12 H7 O4 1-,C3 H5 N2 1+'
_chemical_name_systematic        '1H-Imidazol-3-ium 8-carboxy-1-naphthoate'
_symmetry_cell_setting           monoclinic
_symmetry_space_group_name_H-M   'P 21/c'
_symmetry_Int_Tables_number      14
_space_group_name_Hall           '-P 2ybc'
loop_
_symmetry_equiv_pos_site_id
_symmetry_equiv_pos_as_xyz
1 x,y,z
2 -x,1/2+y,1/2-z
3 -x,-y,-z
4 x,1/2-y,1/2+z
_cell_length_a                   8.209(3)
_cell_length_b                   21.882(9)
_cell_length_c                   7.794(3)
_cell_angle_alpha                90
_cell_angle_beta                 111.789(6)
_cell_angle_gamma                90
_cell_volume                     1300.01
_exptl_crystal_colour            colorless
_exptl_crystal_description       block
_cell_formula_units_Z            4
loop_
_atom_site_label
_atom_site_type_symbol
_atom_site_fract_x
_atom_site_fract_y
_atom_site_fract_z
O1 O 0.41897(12) 0.56263(5) 0.70906(13)
O2 O 0.22349(12) 0.51086(4) 0.47623(14)
O3 O 0.56659(13) 0.58124(5) 0.42902(14)
H1 H 0.6400 0.5539 0.4633
O4 O 0.74494(13) 0.62673(5) 0.68760(16)
C1 C 0.29154(18) 0.56010(7) 0.5599(2)
C2 C 0.20336(18) 0.61897(6) 0.47340(18)
C3 C 0.48129(19) 0.67739(7) 0.50177(19)
C4 C 0.29631(18) 0.67245(6) 0.45567(19)
C5 C 0.02465(19) 0.62075(7) 0.4239(2)
H2 H -0.0336 0.5855 0.4361
C6 C 0.60903(19) 0.62559(7) 0.5540(2)
C7 C 0.1953(2) 0.72688(7) 0.3899(2)
C8 C 0.5553(2) 0.73286(7) 0.4922(2)
H3 H 0.6767 0.7355 0.5302
C9 C 0.0114(2) 0.72571(8) 0.3408(2)
H4 H -0.0530 0.7612 0.2973
C10 C -0.0729(2) 0.67407(8) 0.3556(2)
H5 H -0.1942 0.6739 0.3209
C11 C 0.2784(2) 0.78174(7) 0.3750(2)
H6 H 0.2104 0.8163 0.3280
C12 C 0.4546(2) 0.78555(7) 0.4271(2)
H7 H 0.5078 0.8225 0.4198
N1 N -0.07358(15) 0.49111(6) 0.16602(16)
H8 H 0.0152 0.5022 0.2613
C13 C -0.2556(2) 0.43563(8) -0.0520(2)
H9 H -0.3100 0.4030 -0.1284
N2 N -0.31455(16) 0.49426(6) -0.06794(17)
H10 H -0.4095 0.5077 -0.1512
C14 C -0.10433(19) 0.43377(7) 0.0947(2)
H11 H -0.0338 0.3996 0.1392
C15 C -0.2023(2) 0.52697(8) 0.0651(2)
H12 H -0.2121 0.5685 0.0847
loop_
_geom_bond_atom_site_label_1
_geom_bond_atom_site_label_2
_geom_bond_site_symmetry_1
_geom_bond_site_symmetry_2
O1 C1 1_555 1_555
O2 C1 1_555 1_555
O3 H1 1_555 1_555
O4 C6 1_555 1_555
C1 C2 1_555 1_555
C2 C4 1_555 1_555
C3 C4 1_555 1_555
C4 C7 1_555 1_555
C5 C2 1_555 1_555
H2 C5 1_555 1_555
C6 O3 1_555 1_555
C7 C9 1_555 1_555
C8 C3 1_555 1_555
H3 C8 1_555 1_555
C9 H4 1_555 1_555
C10 C5 1_555 1_555
H5 C10 1_555 1_555
C11 C7 1_555 1_555
H6 C11 1_555 1_555
C12 C8 1_555 1_555
H7 C12 1_555 1_555
N1 H8 1_555 1_555
C13 H9 1_555 1_555
N2 C13 1_555 1_555
H10 N2 1_555 1_555
C14 N1 1_555 1_555
H11 C14 1_555 1_555
C15 N1 1_555 1_555
H12 C15 1_555 1_555
C3 C6 1_555 1_555
C9 C10 1_555 1_555
C11 C12 1_555 1_555
C13 C14 1_555 1_555
N2 C15 1_555 1_555

#END
