
#######################################################################
#
#                 Cambridge Crystallographic Data Centre
#                                CCDC 
#
#######################################################################
#
# If this CIF has been generated from an entry in the Cambridge 
# Structural Database, then it will include bibliographic, chemical, 
# crystal, experimental, refinement or atomic coordinate data resulting 
# from the CCDC's data processing and validation procedures.
#
#######################################################################

data_CIJWAV
_chemical_formula_moiety         'C7 H5 Cl1 O3,C3 H5 N2 1+,C7 H4 Cl1 O3 1-'
_chemical_name_systematic        
'Imidazolium 5-chlorosalicylate 5-chlorosalicylic acid'
_symmetry_cell_setting           orthorhombic
_symmetry_space_group_name_H-M   'P b c n'
_symmetry_Int_Tables_number      60
_space_group_name_Hall           '-P 2n 2ab'
loop_
_symmetry_equiv_pos_site_id
_symmetry_equiv_pos_as_xyz
1 x,y,z
2 1/2-x,1/2-y,1/2+z
3 -x,y,1/2-z
4 1/2+x,1/2-y,-z
5 -x,-y,-z
6 1/2+x,1/2+y,1/2-z
7 x,-y,1/2+z
8 1/2-x,1/2+y,z
_cell_length_a                   13.780(4)
_cell_length_b                   8.1525(19)
_cell_length_c                   16.076(4)
_cell_angle_alpha                90
_cell_angle_beta                 90
_cell_angle_gamma                90
_cell_volume                     1806
_exptl_crystal_colour            colorless
_exptl_crystal_description       block
_cell_formula_units_Z            4
loop_
_atom_site_label
_atom_site_type_symbol
_atom_site_fract_x
_atom_site_fract_y
_atom_site_fract_z
C8 C 0.5000 0.0767(4) 0.2500
H6 H 0.5000 -0.0373 0.2500
C9 C 0.4724(2) 0.3255(3) 0.28424(16)
H7 H 0.4499 0.4172 0.3127
N1 N 0.45592(12) 0.1689(2) 0.30407(9)
H8 H 0.4220 0.1349 0.3455
C9B C 0.5276(2) 0.3255(3) 0.21576(16)
H7B H 0.5501 0.4172 0.1873
N1B N 0.54408(12) 0.1689(2) 0.19593(9)
H8B H 0.5780 0.1349 0.1545
Cl1 Cl 0.69160(5) 0.23054(8) 0.73168(3)
C1 C 0.76018(11) 0.4080(2) 0.95673(9)
C2 C 0.66921(12) 0.4184(2) 0.99461(11)
C3 C 0.58712(13) 0.3657(3) 0.95229(13)
H1 H 0.5270 0.3683 0.9785
C4 C 0.59414(14) 0.3100(2) 0.87205(13)
H2 H 0.5387 0.2775 0.8434
C5 C 0.68402(13) 0.3021(2) 0.83382(11)
C6 C 0.76665(12) 0.3482(2) 0.87567(10)
H3 H 0.8269 0.3395 0.8499
C7 C 0.84943(12) 0.4605(2) 1.00183(10)
O1 O 0.84167(9) 0.52144(19) 1.07291(7)
O2 O 0.92958(9) 0.44067(19) 0.96404(8)
H4 H 0.9741 0.4743 0.9933
O3 O 0.65702(10) 0.4784(2) 1.07221(9)
H5 H 0.7097 0.5065 1.0911
loop_
_geom_bond_atom_site_label_1
_geom_bond_atom_site_label_2
_geom_bond_site_symmetry_1
_geom_bond_site_symmetry_2
Cl1 C5 1_555 1_555
C1 C2 1_555 1_555
C2 C3 1_555 1_555
C3 H1 1_555 1_555
C4 C3 1_555 1_555
H2 C4 1_555 1_555
C5 C4 1_555 1_555
C6 C1 1_555 1_555
H3 C6 1_555 1_555
C7 C1 1_555 1_555
O1 C7 1_555 1_555
O2 C7 1_555 1_555
H4 O2 1_555 1_555
O3 C2 1_555 1_555
H5 O3 1_555 1_555
C8 H6 1_555 1_555
C9 H7 1_555 1_555
N1 C8 1_555 1_555
H8 N1 1_555 1_555
C9B C9 1_555 1_555
H7B C9B 1_555 1_555
N1B C8 1_555 1_555
H8B N1B 1_555 1_555
C5 C6 1_555 1_555
C9 N1 1_555 1_555
C9B N1B 1_555 1_555

#END
