
#######################################################################
#
#                 Cambridge Crystallographic Data Centre
#                                CCDC 
#
#######################################################################
#
# If this CIF has been generated from an entry in the Cambridge 
# Structural Database, then it will include bibliographic, chemical, 
# crystal, experimental, refinement or atomic coordinate data resulting 
# from the CCDC's data processing and validation procedures.
#
#######################################################################

data_CIJXOI
_chemical_compound_source        'Peripentadenia mearsii'
_chemical_formula_moiety         'C9 H14 N1 O1 1+,C6 H2 N3 O7 1-'
_chemical_name_systematic        'Mearsine picrate'
_symmetry_cell_setting           orthorhombic
_symmetry_space_group_name_H-M   'P 21 21 21'
_symmetry_Int_Tables_number      19
_space_group_name_Hall           'P 2ac 2ab'
loop_
_symmetry_equiv_pos_site_id
_symmetry_equiv_pos_as_xyz
1 x,y,z
2 1/2+x,1/2-y,-z
3 -x,1/2+y,1/2-z
4 1/2-x,-y,1/2+z
_cell_length_a                   23.4614(11)
_cell_length_b                   10.8541(6)
_cell_length_c                   6.6458(4)
_cell_angle_alpha                90
_cell_angle_beta                 90
_cell_angle_gamma                90
_cell_volume                     1692.37
_chemical_melting_point          212-213deg.C
_cell_formula_units_Z            4
loop_
_atom_site_label
_atom_site_type_symbol
_atom_site_fract_x
_atom_site_fract_y
_atom_site_fract_z
C1 C -0.26210 0.11520 -0.16250
C2 C -0.28950 -0.00340 -0.15650
C3 C -0.26080 -0.11360 -0.15590
C4 C -0.20190 -0.11370 -0.15120
C5 C -0.17150 -0.00430 -0.15050
C6 C -0.20050 0.10400 -0.15360
N1 N -0.35140 -0.01040 -0.15930
N2 N -0.17170 -0.22930 -0.14280
N3 N -0.16710 0.21790 -0.15530
O1 O -0.28610 0.21640 -0.18250
O2 O -0.37860 0.07790 -0.09940
O3 O -0.37410 -0.10480 -0.21720
O4 O -0.19790 -0.32470 -0.16360
O5 O -0.12050 -0.22670 -0.11400
O6 O -0.12400 0.21850 -0.25670
O7 O -0.18200 0.30390 -0.05230
H2 H -0.28400 -0.18700 -0.16000
H3 H -0.13000 -0.00600 -0.14800
C7 C -0.44100 0.33520 -0.16070
C8 C -0.46610 0.37900 0.03930
C9 C -0.44910 0.51410 0.07700
C10 C -0.41200 0.55860 -0.10410
C11 C -0.36370 0.47110 -0.12040
C12 C -0.44870 0.54470 -0.29190
C13 C -0.46440 0.41370 -0.33140
C14 C -0.49990 0.59880 0.10810
C15 C -0.30380 0.50830 -0.10260
N4 N -0.37930 0.35870 -0.14900
O8 O -0.46390 0.63170 -0.39170
H1 H -0.34900 0.30300 -0.16300
H4 H -0.44900 0.24800 -0.18700
H5 H -0.45200 0.33200 0.15600
H6 H -0.50700 0.36600 0.02600
H7 H -0.42200 0.52200 0.19500
H8 H -0.39900 0.64400 -0.08900
H9 H -0.50600 0.40900 -0.33000
H10 H -0.45000 0.38100 -0.46400
H11 H -0.51900 0.57300 0.22600
H12 H -0.48500 0.68000 0.12800
H13 H -0.52200 0.59500 -0.00800
H14 H -0.29800 0.57000 -0.18100
H15 H -0.27900 0.43900 -0.10600
H16 H -0.30100 0.55200 0.02500
loop_
_geom_bond_atom_site_label_1
_geom_bond_atom_site_label_2
_geom_bond_site_symmetry_1
_geom_bond_site_symmetry_2
C1 C2 1_555 1_555
C2 C3 1_555 1_555
C3 C4 1_555 1_555
C4 C5 1_555 1_555
C5 C6 1_555 1_555
C6 C1 1_555 1_555
N1 C2 1_555 1_555
N2 C4 1_555 1_555
N3 C6 1_555 1_555
O1 C1 1_555 1_555
O2 N1 1_555 1_555
O3 N1 1_555 1_555
O4 N2 1_555 1_555
O5 N2 1_555 1_555
O6 N3 1_555 1_555
O7 N3 1_555 1_555
C7 C8 1_555 1_555
C8 C9 1_555 1_555
C9 C10 1_555 1_555
C10 C11 1_555 1_555
C11 C15 1_555 1_555
C12 C10 1_555 1_555
C13 C7 1_555 1_555
C14 C9 1_555 1_555
C15 H14 1_555 1_555
N4 C7 1_555 1_555
O8 C12 1_555 1_555
H1 N4 1_555 1_555
H2 C3 1_555 1_555
H3 C5 1_555 1_555
H4 C7 1_555 1_555
H5 C8 1_555 1_555
H6 C8 1_555 1_555
H7 C9 1_555 1_555
H8 C10 1_555 1_555
H9 C13 1_555 1_555
H10 C13 1_555 1_555
H11 C14 1_555 1_555
H12 C14 1_555 1_555
H13 C14 1_555 1_555
H15 C15 1_555 1_555
H16 C15 1_555 1_555
C11 N4 1_555 1_555
C12 C13 1_555 1_555

#END
