
#######################################################################
#
#                 Cambridge Crystallographic Data Centre
#                                CCDC 
#
#######################################################################
#
# If this CIF has been generated from an entry in the Cambridge 
# Structural Database, then it will include bibliographic, chemical, 
# crystal, experimental, refinement or atomic coordinate data resulting 
# from the CCDC's data processing and validation procedures.
#
#######################################################################

data_CIJYEB
_chemical_formula_moiety         'C12 H22 O5'
_chemical_name_systematic        
6-(Hydroxymethyl)-2-methyl-2-propylhexahydro-4H-furo[2,3-b]pyran-4,5-diol
_symmetry_cell_setting           monoclinic
_symmetry_space_group_name_H-M   'P 21'
_symmetry_Int_Tables_number      4
_space_group_name_Hall           'P 2yb'
loop_
_symmetry_equiv_pos_site_id
_symmetry_equiv_pos_as_xyz
1 x,y,z
2 -x,1/2+y,-z
_cell_length_a                   6.2466(4)
_cell_length_b                   6.8285(6)
_cell_length_c                   16.0444(15)
_cell_angle_alpha                90
_cell_angle_beta                 94.122(8)
_cell_angle_gamma                90
_cell_volume                     682.602
_exptl_crystal_colour            colorless
_exptl_crystal_description       block
_cell_formula_units_Z            2
loop_
_atom_site_label
_atom_site_type_symbol
_atom_site_fract_x
_atom_site_fract_y
_atom_site_fract_z
O1 O -0.9621(5) -0.9593(6) -0.3437(2)
O2 O -0.7980(6) -1.0604(8) -0.2172(2)
O3 O -0.3535(5) -1.0647(7) -0.4156(2)
H1 H -0.2442 -0.9988 -0.4077
O4 O -0.5302(5) -0.6776(6) -0.4280(3)
H2 H -0.582(10) -0.624(11) -0.486(5)
O5 O -1.1339(8) -0.5659(10) -0.3556(4)
H3 H -1.2439 -0.6318 -0.3583
C1 C -0.5139(7) -0.9932(8) -0.3644(3)
H4 H -0.439(7) -0.925(6) -0.310(3)
C2 C -0.6560(7) -0.8469(8) -0.4124(4)
H5 H -0.699(7) -0.902(7) -0.467(3)
C3 C -0.8395(7) -0.7888(8) -0.3594(4)
H6 H -0.784(8) -0.733(8) -0.300(3)
C4 C -0.8481(8) -1.1145(9) -0.3010(4)
H7 H -1.001(12) -1.228(12) -0.321(5)
C5 C -0.6390(7) -1.1685(9) -0.3358(4)
H8 H -0.666(8) -1.253(9) -0.387(3)
C6 C -0.5262(11) -1.2730(12) -0.2599(4)
H9 H -0.546(11) -1.432(10) -0.261(4)
H10 H -0.352(9) -1.246(8) -0.263(3)
C7 C -0.6219(11) -1.1825(14) -0.1834(4)
C8 C -0.9904(8) -0.6464(9) -0.4047(4)
H11 H -1.089(4) -0.706(4) -0.4608(16)
H12 H -0.904(8) -0.521(9) -0.425(3)
C9 C -0.4672(16) -1.044(3) -0.1346(5)
H13 H -0.4008 -0.9587 -0.1728
H14 H -0.3588 -1.1184 -0.1034
H15 H -0.5450 -0.9665 -0.0969
C10 C -0.695(2) -1.311(3) -0.1167(7)
H16 H -0.5755 -1.3887 -0.0935
H17 H -0.7455 -1.2307 -0.0722
C11 C -0.855(3) -1.431(2) -0.1457(9)
H18 H -0.8042 -1.5075 -0.1914
H19 H -0.9738 -1.3518 -0.1684
C12 C -0.946(2) -1.586(3) -0.0753(7)
H20 H -0.8494 -1.6948 -0.0674
H21 H -1.0857 -1.6332 -0.0950
H22 H -0.9562 -1.5191 -0.0231
loop_
_geom_bond_atom_site_label_1
_geom_bond_atom_site_label_2
_geom_bond_site_symmetry_1
_geom_bond_site_symmetry_2
O1 C3 1_555 1_555
O2 C4 1_555 1_555
O3 H1 1_555 1_555
O4 H2 1_555 1_555
O5 H3 1_555 1_555
C1 O3 1_555 1_555
H4 C1 1_555 1_555
C2 O4 1_555 1_555
H5 C2 1_555 1_555
C3 C2 1_555 1_555
H6 C3 1_555 1_555
C4 O1 1_555 1_555
H7 C4 1_555 1_555
C5 C1 1_555 1_555
H8 C5 1_555 1_555
C6 C5 1_555 1_555
H9 C6 1_555 1_555
H10 C6 1_555 1_555
C7 O2 1_555 1_555
C8 O5 1_555 1_555
H11 C8 1_555 1_555
H12 C8 1_555 1_555
C9 C7 1_555 1_555
H13 C9 1_555 1_555
H14 C9 1_555 1_555
H15 C9 1_555 1_555
C10 C7 1_555 1_555
H16 C10 1_555 1_555
H17 C10 1_555 1_555
C11 C10 1_555 1_555
H18 C11 1_555 1_555
H19 C11 1_555 1_555
C12 C11 1_555 1_555
H20 C12 1_555 1_555
H21 C12 1_555 1_555
H22 C12 1_555 1_555
C1 C2 1_555 1_555
C3 C8 1_555 1_555
C4 C5 1_555 1_555
C6 C7 1_555 1_555

#END
