
#######################################################################
#
#                 Cambridge Crystallographic Data Centre
#                                CCDC 
#
#######################################################################
#
# If this CIF has been generated from an entry in the Cambridge 
# Structural Database, then it will include bibliographic, chemical, 
# crystal, experimental, refinement or atomic coordinate data resulting 
# from the CCDC's data processing and validation procedures.
#
#######################################################################

data_CIJZUR
_chemical_formula_moiety         'C11 H13 N3 O4'
_chemical_name_systematic        'Methyl 3-(2-nitrophenylhydrazono)butanoate'
_symmetry_cell_setting           monoclinic
_symmetry_space_group_name_H-M   'P 21/n'
_symmetry_Int_Tables_number      14
_space_group_name_Hall           '-P 2yn'
loop_
_symmetry_equiv_pos_site_id
_symmetry_equiv_pos_as_xyz
1 x,y,z
2 1/2-x,1/2+y,1/2-z
3 -x,-y,-z
4 1/2+x,1/2-y,1/2+z
_cell_length_a                   12.1494(4)
_cell_length_b                   5.1355(2)
_cell_length_c                   18.6969(6)
_cell_angle_alpha                90
_cell_angle_beta                 102.079(2)
_cell_angle_gamma                90
_cell_volume                     1140.73
_exptl_crystal_colour            colorless
_exptl_crystal_description       plate
_cell_formula_units_Z            4
_exptl_crystal_recrystallization_method ethanol
loop_
_atom_site_label
_atom_site_type_symbol
_atom_site_fract_x
_atom_site_fract_y
_atom_site_fract_z
C1 C 0.45922(13) 0.3031(3) 0.33540(8)
C2 C 0.57012(13) 0.3105(3) 0.32352(9)
N1 N 0.65264(11) 0.4910(3) 0.36133(8)
O1 O 0.75021(10) 0.4772(3) 0.35191(8)
O2 O 0.62525(10) 0.6564(2) 0.40332(7)
C3 C 0.60631(14) 0.1370(4) 0.27520(9)
C4 C 0.53425(15) -0.0463(4) 0.23858(9)
C5 C 0.42442(14) -0.0596(3) 0.25068(9)
C6 C 0.38764(14) 0.1084(3) 0.29745(9)
N2 N 0.42133(11) 0.4699(3) 0.38180(8)
N3 N 0.31239(11) 0.4447(3) 0.39129(8)
C7 C 0.27959(13) 0.6086(3) 0.43426(9)
C8 C 0.34938(14) 0.8266(3) 0.47396(10)
C9 C 0.16198(13) 0.5701(3) 0.44509(9)
C10 C 0.08386(13) 0.7894(3) 0.41402(9)
O3 O 0.10607(10) 0.9629(2) 0.37597(7)
O4 O -0.01560(9) 0.7650(2) 0.43366(6)
C11 C -0.09780(14) 0.9636(4) 0.40543(10)
H1 H 0.6813 0.1469 0.2679
H2 H 0.5583 -0.1627 0.2054
H3 H 0.3744 -0.1881 0.2259
H4 H 0.3127 0.0941 0.3046
H5 H 0.4658 0.5914 0.4053
H6 H 0.3598 0.9613 0.4388
H7 H 0.4230 0.7590 0.4987
H8 H 0.3109 0.9016 0.5103
H9 H 0.1320 0.4049 0.4215
H10 H 0.1637 0.5546 0.4981
H11 H -0.1174 0.9525 0.3519
H12 H -0.0661 1.1358 0.4200
H13 H -0.1655 0.9370 0.4252
loop_
_geom_bond_atom_site_label_1
_geom_bond_atom_site_label_2
_geom_bond_site_symmetry_1
_geom_bond_site_symmetry_2
C1 C2 1_555 1_555
C2 N1 1_555 1_555
N1 O1 1_555 1_555
O2 N1 1_555 1_555
C3 C2 1_555 1_555
C4 C3 1_555 1_555
C5 C4 1_555 1_555
C6 C1 1_555 1_555
N2 C1 1_555 1_555
N3 N2 1_555 1_555
C7 N3 1_555 1_555
C8 C7 1_555 1_555
C9 C7 1_555 1_555
C10 C9 1_555 1_555
O3 C10 1_555 1_555
O4 C10 1_555 1_555
C11 O4 1_555 1_555
H1 C3 1_555 1_555
H2 C4 1_555 1_555
H3 C5 1_555 1_555
H4 C6 1_555 1_555
H5 N2 1_555 1_555
H6 C8 1_555 1_555
H7 C8 1_555 1_555
H8 C8 1_555 1_555
H9 C9 1_555 1_555
H10 C9 1_555 1_555
H11 C11 1_555 1_555
H12 C11 1_555 1_555
H13 C11 1_555 1_555
C5 C6 1_555 1_555

#END
