
#######################################################################
#
#                 Cambridge Crystallographic Data Centre
#                                CCDC 
#
#######################################################################
#
# If this CIF has been generated from an entry in the Cambridge 
# Structural Database, then it will include bibliographic, chemical, 
# crystal, experimental, refinement or atomic coordinate data resulting 
# from the CCDC's data processing and validation procedures.
#
#######################################################################

data_CIKBAA
_chemical_formula_moiety         'C11 H12 N4 O6'
_chemical_name_systematic        
'Methyl 3-(2,4-dinitrophenylhydrazono)butanoate'
_symmetry_cell_setting           orthorhombic
_symmetry_space_group_name_H-M   'P b c a'
_symmetry_Int_Tables_number      61
_space_group_name_Hall           '-P 2ac 2ab'
loop_
_symmetry_equiv_pos_site_id
_symmetry_equiv_pos_as_xyz
1 x,y,z
2 1/2-x,-y,1/2+z
3 -x,1/2+y,1/2-z
4 1/2+x,1/2-y,-z
5 -x,-y,-z
6 1/2+x,y,1/2-z
7 x,1/2-y,1/2+z
8 1/2-x,1/2+y,z
_cell_length_a                   10.6100(3)
_cell_length_b                   12.1878(4)
_cell_length_c                   20.522(2)
_cell_angle_alpha                90
_cell_angle_beta                 90
_cell_angle_gamma                90
_cell_volume                     2653.75
_exptl_crystal_colour            yellow
_exptl_crystal_description       block
_cell_formula_units_Z            8
_exptl_crystal_recrystallization_method ethanol
loop_
_atom_site_label
_atom_site_type_symbol
_atom_site_fract_x
_atom_site_fract_y
_atom_site_fract_z
O1 O 0.01578(11) 0.55193(10) 0.69090(6)
O2 O 0.13782(15) 0.43776(15) 0.74791(7)
O3 O 0.66390(10) 0.26911(9) 0.64925(6)
O4 O 0.85592(10) 0.32760(10) 0.65229(7)
O5 O 0.98648(10) 0.63378(10) 0.52622(6)
O6 O 0.84785(11) 0.75212(10) 0.49240(6)
N1 N 0.48258(11) 0.40416(11) 0.61533(7)
N2 N 0.36163(11) 0.44540(11) 0.61213(6)
N3 N 0.74485(12) 0.33937(10) 0.63681(7)
N4 N 0.87653(13) 0.66549(11) 0.52018(7)
C1 C 0.57946(13) 0.46822(12) 0.59429(7)
C2 C 0.70780(14) 0.43794(12) 0.60203(8)
C3 C 0.80473(14) 0.50226(13) 0.57740(8)
C4 C 0.77522(14) 0.59849(12) 0.54603(8)
C5 C 0.65006(15) 0.63349(12) 0.53913(8)
C6 C 0.55446(15) 0.56928(12) 0.56314(8)
C7 C 0.10115(16) 0.47250(15) 0.69668(9)
C8 C 0.14400(14) 0.43223(14) 0.63058(8)
C9 C 0.27347(14) 0.38216(14) 0.63305(8)
C10 C 0.29115(17) 0.26882(15) 0.65951(11)
C11 C -0.0374(2) 0.59322(18) 0.75140(10)
H1 H 0.5001 0.3380 0.6364
H2 H 0.8901 0.4801 0.5822
H3 H 0.6316 0.7010 0.5181
H4 H 0.4697 0.5933 0.5587
H5 H 0.0834 0.3769 0.6143
H6 H 0.1444 0.4945 0.5996
H7 H 0.3444 0.2264 0.6297
H8 H 0.2089 0.2329 0.6638
H9 H 0.3317 0.2729 0.7023
H10 H -0.0849 0.5346 0.7730
H11 H -0.0939 0.6548 0.7419
H12 H 0.0307 0.6180 0.7801
loop_
_geom_bond_atom_site_label_1
_geom_bond_atom_site_label_2
_geom_bond_site_symmetry_1
_geom_bond_site_symmetry_2
O1 C7 1_555 1_555
O2 C7 1_555 1_555
O3 N3 1_555 1_555
O4 N3 1_555 1_555
O5 N4 1_555 1_555
O6 N4 1_555 1_555
N1 N2 1_555 1_555
N2 C9 1_555 1_555
N3 C2 1_555 1_555
N4 C4 1_555 1_555
C1 N1 1_555 1_555
C2 C1 1_555 1_555
C3 C2 1_555 1_555
C4 C3 1_555 1_555
C5 C4 1_555 1_555
C6 C1 1_555 1_555
C7 C8 1_555 1_555
C8 C9 1_555 1_555
C9 C10 1_555 1_555
C10 H7 1_555 1_555
C11 O1 1_555 1_555
H1 N1 1_555 1_555
H2 C3 1_555 1_555
H3 C5 1_555 1_555
H4 C6 1_555 1_555
H5 C8 1_555 1_555
H6 C8 1_555 1_555
H8 C10 1_555 1_555
H9 C10 1_555 1_555
H10 C11 1_555 1_555
H11 C11 1_555 1_555
H12 C11 1_555 1_555
C5 C6 1_555 1_555

#END
