
#######################################################################
#
#                 Cambridge Crystallographic Data Centre
#                                CCDC 
#
#######################################################################
#
# If this CIF has been generated from an entry in the Cambridge 
# Structural Database, then it will include bibliographic, chemical, 
# crystal, experimental, refinement or atomic coordinate data resulting 
# from the CCDC's data processing and validation procedures.
#
#######################################################################

data_CIKBEE
_chemical_formula_moiety         'C13 H13 N3 O3'
_chemical_name_systematic        
4-isopropylidene-3-methyl-1-(3-nitrophenyl)-1H-pyrazol-5(4H)-one
_symmetry_cell_setting           monoclinic
_symmetry_space_group_name_H-M   'P 21/c'
_symmetry_Int_Tables_number      14
_space_group_name_Hall           '-P 2ybc'
loop_
_symmetry_equiv_pos_site_id
_symmetry_equiv_pos_as_xyz
1 x,y,z
2 -x,1/2+y,1/2-z
3 -x,-y,-z
4 x,1/2-y,1/2+z
_cell_length_a                   8.8910(3)
_cell_length_b                   10.1699(6)
_cell_length_c                   13.4731(7)
_cell_angle_alpha                90
_cell_angle_beta                 100.415(3)
_cell_angle_gamma                90
_cell_volume                     1198.17
_exptl_crystal_colour            red
_exptl_crystal_description       block
_cell_formula_units_Z            4
loop_
_atom_site_label
_atom_site_type_symbol
_atom_site_fract_x
_atom_site_fract_y
_atom_site_fract_z
C1 C 0.6412(2) 0.3896(2) 0.58841(16)
C2 C 0.5480(2) 0.2940(2) 0.53563(16)
C3 C 0.4712(2) 0.2100(2) 0.59011(16)
N1 N 0.3745(2) 0.10745(18) 0.53370(14)
O1 O 0.37429(19) 0.09546(17) 0.44281(12)
O2 O 0.29733(18) 0.03864(17) 0.58002(13)
C4 C 0.4805(2) 0.2175(2) 0.69288(16)
C5 C 0.5737(3) 0.3139(2) 0.74368(17)
C6 C 0.6550(2) 0.3989(2) 0.69307(16)
N2 N 0.7228(2) 0.47471(19) 0.53473(13)
N3 N 0.7157(2) 0.45083(19) 0.42918(14)
C7 C 0.8088(3) 0.5830(2) 0.56848(18)
O3 O 0.8279(2) 0.62522(18) 0.65341(12)
C8 C 0.8663(2) 0.6299(2) 0.47662(17)
C9 C 0.7981(2) 0.5402(2) 0.39738(18)
C10 C 0.8126(3) 0.5385(3) 0.28851(18)
C11 C 0.9605(2) 0.7355(2) 0.47696(19)
C12 C 1.0160(3) 0.8131(3) 0.5715(2)
C13 C 1.0143(3) 0.7835(3) 0.38357(19)
H1 H 0.5372 0.2865 0.4644
H2 H 0.4250 0.1588 0.7276
H3 H 0.5822 0.3218 0.8147
H4 H 0.7200 0.4634 0.7294
H5 H 0.7449 0.4709 0.2529
H6 H 0.9186 0.5188 0.2829
H7 H 0.7837 0.6246 0.2584
H8 H 0.9291 0.8571 0.5929
H9 H 1.0902 0.8791 0.5583
H10 H 1.0648 0.7536 0.6250
H11 H 1.0159 0.7100 0.3368
H12 H 1.1175 0.8202 0.4022
H13 H 0.9445 0.8517 0.3509
loop_
_geom_bond_atom_site_label_1
_geom_bond_atom_site_label_2
_geom_bond_site_symmetry_1
_geom_bond_site_symmetry_2
C1 C2 1_555 1_555
C2 C3 1_555 1_555
C3 N1 1_555 1_555
N1 O1 1_555 1_555
O2 N1 1_555 1_555
C4 C3 1_555 1_555
C5 C4 1_555 1_555
C6 C1 1_555 1_555
N2 C1 1_555 1_555
N3 N2 1_555 1_555
C7 N2 1_555 1_555
O3 C7 1_555 1_555
C8 C7 1_555 1_555
C9 N3 1_555 1_555
C10 C9 1_555 1_555
C11 C8 1_555 1_555
C12 C11 1_555 1_555
C13 C11 1_555 1_555
H1 C2 1_555 1_555
H2 C4 1_555 1_555
H3 C5 1_555 1_555
H4 C6 1_555 1_555
H5 C10 1_555 1_555
H6 C10 1_555 1_555
H7 C10 1_555 1_555
H8 C12 1_555 1_555
H9 C12 1_555 1_555
H10 C12 1_555 1_555
H11 C13 1_555 1_555
H12 C13 1_555 1_555
H13 C13 1_555 1_555
C5 C6 1_555 1_555
C8 C9 1_555 1_555

#END
