
#######################################################################
#
#                 Cambridge Crystallographic Data Centre
#                                CCDC 
#
#######################################################################
#
# If this CIF has been generated from an entry in the Cambridge 
# Structural Database, then it will include bibliographic, chemical, 
# crystal, experimental, refinement or atomic coordinate data resulting 
# from the CCDC's data processing and validation procedures.
#
#######################################################################

data_CIKDAC
_chemical_formula_moiety         'C12 H11 N2 1+,C7 H5 O5 S1 1-'
_chemical_name_systematic        
'4-(2-(4-pyridyl)ethenyl)pyridinium 2-carboxybenzenesulfonate'
_symmetry_cell_setting           triclinic
_symmetry_space_group_name_H-M   'P -1'
_symmetry_Int_Tables_number      2
_space_group_name_Hall           '-P 1'
loop_
_symmetry_equiv_pos_site_id
_symmetry_equiv_pos_as_xyz
1 x,y,z
2 -x,-y,-z
_cell_length_a                   8.7451(11)
_cell_length_b                   10.0346(13)
_cell_length_c                   10.7877(14)
_cell_angle_alpha                95.3770(10)
_cell_angle_beta                 104.9540(10)
_cell_angle_gamma                104.047(2)
_cell_volume                     874.819
_exptl_crystal_colour            'pale yellow'
_exptl_crystal_description       brick
_cell_formula_units_Z            2
loop_
_atom_site_label
_atom_site_type_symbol
_atom_site_fract_x
_atom_site_fract_y
_atom_site_fract_z
S1 S 0.42777(7) 0.78017(5) 0.80645(5)
O1 O 0.0436(2) 0.45903(17) 0.68689(17)
O2 O 0.2524(2) 0.45248(16) 0.85457(16)
O3 O 0.54928(18) 0.73581(16) 0.90142(14)
O4 O 0.4846(2) 0.92381(17) 0.79259(18)
O5 O 0.3627(2) 0.68389(17) 0.68485(14)
C1 C 0.1534(3) 0.5088(2) 0.7994(2)
C2 C 0.1417(3) 0.6458(2) 0.86118(19)
C3 C 0.2594(3) 0.7712(2) 0.87205(18)
C4 C 0.2484(3) 0.8932(2) 0.9374(2)
H1 H 0.3260 0.9773 0.9437
C5 C 0.1222(3) 0.8891(3) 0.9928(2)
H2 H 0.1175 0.9703 1.0390
C6 C 0.0037(3) 0.7669(3) 0.9807(2)
H3 H -0.0821 0.7654 1.0171
C7 C 0.0126(3) 0.6453(3) 0.9138(2)
H4 H -0.0689 0.5627 0.9040
H15 H 0.062(4) 0.389(2) 0.647(3)
N1 N 0.8844(2) -0.2544(2) 0.4335(2)
N2 N 0.5713(2) 0.4792(2) 0.79293(17)
C8 C 0.8208(3) -0.1638(2) 0.3702(2)
H5 H 0.8111 -0.1695 0.2818
C9 C 0.7684(3) -0.0619(2) 0.4281(2)
H6 H 0.7257 -0.0004 0.3798
C10 C 0.7803(3) -0.0525(2) 0.5594(2)
C11 C 0.8444(3) -0.1490(2) 0.6244(2)
H7 H 0.8528 -0.1480 0.7122
C12 C 0.8954(3) -0.2457(3) 0.5592(3)
H8 H 0.9397 -0.3081 0.6052
C13 C 0.7306(3) 0.0539(2) 0.6308(2)
H9 H 0.7207 0.0406 0.7129
C14 C 0.6987(3) 0.1666(2) 0.5887(2)
H10 H 0.7065 0.1794 0.5060
C15 C 0.6522(2) 0.2728(2) 0.66169(19)
C16 C 0.6112(3) 0.2570(2) 0.7770(2)
H11 H 0.6110 0.1750 0.8106
C17 C 0.5712(3) 0.3618(2) 0.8410(2)
H12 H 0.5439 0.3509 0.9179
C18 C 0.6486(3) 0.3971(2) 0.6148(2)
H13 H 0.6740 0.4109 0.5376
C19 C 0.6080(3) 0.4984(2) 0.6820(2)
H14 H 0.6057 0.5813 0.6505
H16 H 0.548(4) 0.543(2) 0.833(3)
loop_
_geom_bond_atom_site_label_1
_geom_bond_atom_site_label_2
_geom_bond_site_symmetry_1
_geom_bond_site_symmetry_2
S1 O3 1_555 1_555
O1 C1 1_555 1_555
O2 C1 1_555 1_555
O4 S1 1_555 1_555
O5 S1 1_555 1_555
C1 C2 1_555 1_555
C2 C3 1_555 1_555
C3 S1 1_555 1_555
C4 C3 1_555 1_555
H1 C4 1_555 1_555
C5 C4 1_555 1_555
H2 C5 1_555 1_555
C6 C5 1_555 1_555
H3 C6 1_555 1_555
C7 C2 1_555 1_555
H4 C7 1_555 1_555
N1 C8 1_555 1_555
N2 C17 1_555 1_555
C8 H5 1_555 1_555
C9 C8 1_555 1_555
H6 C9 1_555 1_555
C10 C9 1_555 1_555
C11 C10 1_555 1_555
H7 C11 1_555 1_555
C12 N1 1_555 1_555
H8 C12 1_555 1_555
C13 C10 1_555 1_555
H9 C13 1_555 1_555
C14 C13 1_555 1_555
H10 C14 1_555 1_555
C15 C14 1_555 1_555
C16 C15 1_555 1_555
H11 C16 1_555 1_555
C17 C16 1_555 1_555
H12 C17 1_555 1_555
C18 C15 1_555 1_555
H13 C18 1_555 1_555
C19 N2 1_555 1_555
H14 C19 1_555 1_555
H15 O1 1_555 1_555
H16 N2 1_555 1_555
C6 C7 1_555 1_555
C11 C12 1_555 1_555
C18 C19 1_555 1_555

#END
