
#######################################################################
#
#                 Cambridge Crystallographic Data Centre
#                                CCDC 
#
#######################################################################
#
# If this CIF has been generated from an entry in the Cambridge 
# Structural Database, then it will include bibliographic, chemical, 
# crystal, experimental, refinement or atomic coordinate data resulting 
# from the CCDC's data processing and validation procedures.
#
#######################################################################

data_CIKLAJ
_chemical_compound_source        'Clavularia sp'
_chemical_formula_moiety         'C22 H35 Cl1 O5'
_chemical_name_systematic        
9-Acetoxymethyl-10-chloro-6,7-epoxy-9-hydroxy-5-(1-hydroxy-1-methyl-ethyl)-2-methyl-13-methylene-tricyclo(8.4.0.0^2,6^)tetradecane
_symmetry_cell_setting           orthorhombic
_symmetry_space_group_name_H-M   'P 21 21 21'
_symmetry_Int_Tables_number      19
_space_group_name_Hall           'P 2ac 2ab'
loop_
_symmetry_equiv_pos_site_id
_symmetry_equiv_pos_as_xyz
1 x,y,z
2 1/2+x,1/2-y,-z
3 -x,1/2+y,1/2-z
4 1/2-x,-y,1/2+z
_cell_length_a                   12.722(2)
_cell_length_b                   14.726(4)
_cell_length_c                   12.255(3)
_cell_angle_alpha                90
_cell_angle_beta                 90
_cell_angle_gamma                90
_cell_volume                     2295.9
_cell_formula_units_Z            4
loop_
_atom_site_label
_atom_site_type_symbol
_atom_site_fract_x
_atom_site_fract_y
_atom_site_fract_z
Cl1 Cl 0.0018 0.1662 0.1690
C1 C 0.2865 0.5024 0.3055
C2 C 0.1825 0.4688 0.3542
C3 C 0.1899 0.3783 0.4151
C4 C 0.0896 0.3219 0.4138
C5 C 0.1069 0.2196 0.4040
C6 C 0.1694 0.1921 0.3014
C7 C 0.1214 0.2278 0.1967
C8 C 0.1924 0.2270 0.0939
C9 C 0.2918 0.2842 0.1116
C10 C 0.2694 0.3803 0.1503
C11 C 0.3353 0.4284 0.2307
C12 C 0.4333 0.3872 0.2833
C13 C 0.4357 0.4282 0.3994
C14 C 0.3721 0.5171 0.3930
C15 C 0.2655 0.5907 0.2443
C16 C -0.0048 0.3569 0.4225
C17 C 0.2232 0.1295 0.0660
C18 C 0.5369 0.4021 0.2204
C19 C 0.5657 0.5023 0.2063
C20 C 0.6261 0.3487 0.2731
C21 C 0.3415 0.0560 -0.0534
C22 C 0.4246 0.0687 -0.1368
O1 O 0.1372 0.2690 0.0070
O2 O 0.3001 0.1349 -0.0199
O3 O 0.5260 0.3623 0.1126
O4 O 0.3421 0.4500 0.1142
O5 O 0.3112 -0.0147 -0.0185
loop_
_geom_bond_atom_site_label_1
_geom_bond_atom_site_label_2
_geom_bond_site_symmetry_1
_geom_bond_site_symmetry_2
Cl1 C7 1_555 1_555
C1 C2 1_555 1_555
C2 C3 1_555 1_555
C3 C4 1_555 1_555
C4 C5 1_555 1_555
C5 C6 1_555 1_555
C6 C7 1_555 1_555
C7 C8 1_555 1_555
C8 C9 1_555 1_555
C9 C10 1_555 1_555
C10 C11 1_555 1_555
C11 C1 1_555 1_555
C12 C11 1_555 1_555
C13 C12 1_555 1_555
C14 C1 1_555 1_555
C15 C1 1_555 1_555
C16 C4 1_555 1_555
C17 C8 1_555 1_555
C18 C12 1_555 1_555
C19 C18 1_555 1_555
C20 C18 1_555 1_555
C21 C22 1_555 1_555
O1 C8 1_555 1_555
O2 C17 1_555 1_555
O3 C18 1_555 1_555
O4 C10 1_555 1_555
O5 C21 1_555 1_555
C11 O4 1_555 1_555
C13 C14 1_555 1_555
C21 O2 1_555 1_555

#END
