
#######################################################################
#
#                 Cambridge Crystallographic Data Centre
#                                CCDC 
#
#######################################################################
#
# If this CIF has been generated from an entry in the Cambridge 
# Structural Database, then it will include bibliographic, chemical, 
# crystal, experimental, refinement or atomic coordinate data resulting 
# from the CCDC's data processing and validation procedures.
#
#######################################################################

data_CIKNUG01
_chemical_name_common            'Coumarin 334'
_chemical_formula_moiety         'C17 H17 N1 O3'
_chemical_name_systematic        
10-Acetyl-2,3,6,7-tetrahydro-1H,5H,11H-pyrano[2,3-f]pyrido[3,2,1-ij]quinolin-11-one
_symmetry_cell_setting           monoclinic
_symmetry_space_group_name_H-M   'C 2/c'
_symmetry_Int_Tables_number      15
_space_group_name_Hall           '-C 2yn'
loop_
_symmetry_equiv_pos_site_id
_symmetry_equiv_pos_as_xyz
1 x,y,z
2 -x,y,1/2-z
3 1/2+x,1/2+y,z
4 1/2-x,1/2+y,1/2-z
5 -x,-y,-z
6 x,-y,1/2+z
7 1/2-x,1/2-y,-z
8 1/2+x,1/2-y,1/2+z
_cell_length_a                   29.6484(15)
_cell_length_b                   16.7796(8)
_cell_length_c                   23.3020(12)
_cell_angle_alpha                90
_cell_angle_beta                 110.434(2)
_cell_angle_gamma                90
_cell_volume                     10863
_exptl_crystal_colour            red
_exptl_crystal_description       block
_cell_formula_units_Z            32
loop_
_atom_site_label
_atom_site_type_symbol
_atom_site_fract_x
_atom_site_fract_y
_atom_site_fract_z
N1 N 0.30475(8) 0.77478(15) 0.15735(10)
C1 C 0.24609(10) 0.88748(16) 0.01714(12)
H1 H 0.2523 0.9321 -0.0041
C2 C 0.28117(10) 0.86198(16) 0.06959(12)
C3 C 0.32958(10) 0.90411(18) 0.09430(13)
H2 H 0.3530 0.8770 0.0793
H3 H 0.3261 0.9599 0.0795
C4 C 0.34790(10) 0.90307(17) 0.16374(13)
H4 H 0.3260 0.9344 0.1789
H5 H 0.3803 0.9276 0.1799
C5 C 0.35033(10) 0.81753(17) 0.18598(13)
H6 H 0.3763 0.7892 0.1767
H7 H 0.3586 0.8174 0.2310
C6 C 0.29786(11) 0.70730(18) 0.19353(13)
H8 H 0.2868 0.7276 0.2263
H9 H 0.3291 0.6802 0.2134
C7 C 0.26172(11) 0.64772(18) 0.15511(14)
H10 H 0.2545 0.6081 0.1822
H11 H 0.2756 0.6190 0.1281
C8 C 0.19307(10) 0.78420(15) 0.02678(12)
C9 C 0.22623(10) 0.75743(15) 0.08120(12)
C10 C 0.27128(10) 0.79716(15) 0.10356(12)
C11 C 0.11343(10) 0.76334(16) -0.04963(13)
C12 C 0.12083(10) 0.83143(16) -0.08244(12)
C13 C 0.20097(10) 0.84924(17) -0.00628(13)
C14 C 0.08374(10) 0.85904(17) -0.14095(13)
C15 C 0.16401(10) 0.87194(16) -0.05994(12)
H12 H 0.1688 0.9170 -0.0818
C16 C 0.03588(10) 0.81926(18) -0.16502(13)
H13 H 0.0136 0.8523 -0.1972
H14 H 0.0233 0.8121 -0.1317
H15 H 0.0393 0.7671 -0.1820
C17 C 0.21546(10) 0.68916(16) 0.11635(13)
H16 H 0.1941 0.6505 0.0873
H17 H 0.1984 0.7094 0.1432
O4 O 0.14983(7) 0.74426(10) 0.00553(9)
O5 O 0.09327(8) 0.91457(13) -0.16971(9)
O11 O 0.07921(7) 0.71799(12) -0.06429(10)
O1 O 0.10089(6) -0.00558(11) 0.49468(8)
C18 C 0.05761(10) 0.03442(15) 0.47325(12)
C19 C 0.12986(10) 0.08193(15) 0.58262(12)
C20 C 0.00441(10) 0.13731(15) 0.48386(12)
H18 H -0.0018 0.1814 0.5056
C21 C 0.04988(10) 0.09860(16) 0.50680(12)
C22 C -0.02081(9) 0.04742(15) 0.39716(12)
C23 C 0.02436(10) 0.00788(15) 0.41944(12)
C24 C 0.13750(10) 0.01371(16) 0.54973(13)
C25 C -0.03050(9) 0.11239(15) 0.43136(12)
C26 C 0.03487(10) -0.05985(16) 0.38358(13)
H19 H 0.0563 -0.0988 0.4122
H20 H 0.0517 -0.0391 0.3568
C27 C -0.09745(11) 0.15376(18) 0.33812(13)
H21 H -0.0758 0.1854 0.3228
H22 H -0.1298 0.1784 0.3226
C28 C 0.16666(10) 0.10977(17) 0.64018(13)
C29 C -0.04724(11) -0.04049(18) 0.30690(13)
H23 H -0.0359 -0.0194 0.2747
H24 H -0.0785 -0.0674 0.2863
C30 C 0.21406(10) 0.06836(18) 0.66666(13)
H25 H 0.2356 0.1002 0.7004
H26 H 0.2284 0.0618 0.6349
H27 H 0.2093 0.0159 0.6821
C31 C -0.10021(10) 0.06846(17) 0.31495(13)
H28 H -0.1260 0.0398 0.3242
H29 H -0.1087 0.0691 0.2699
C32 C -0.01123(11) -0.10129(19) 0.34473(15)
H30 H -0.0040 -0.1404 0.3173
H31 H -0.0251 -0.1305 0.3716
N2 N -0.05458(8) 0.02568(14) 0.34291(11)
O7 O 0.15743(7) 0.16720(12) 0.66682(9)
O12 O 0.17161(7) -0.03128(12) 0.56407(10)
C67 C -0.07850(10) 0.15430(17) 0.40773(13)
H66 H -0.0748 0.2099 0.4228
H67 H -0.1017 0.1270 0.4231
C68 C 0.08680(9) 0.12193(15) 0.56037(12)
H68 H 0.0819 0.1670 0.5822
C33 C 0.07233(9) 0.48167(16) -0.00503(12)
C34 C 0.05570(9) 0.42390(16) 0.02625(12)
C35 C 0.04712(9) 0.43910(16) 0.07970(12)
C36 C 0.05532(9) 0.51783(16) 0.10329(12)
C37 C 0.08059(9) 0.45860(16) -0.05836(12)
H32 H 0.0925 0.4972 -0.0793
C38 C 0.07221(9) 0.38248(16) -0.08163(12)
C39 C 0.07121(9) 0.57881(15) 0.07135(12)
C40 C 0.07985(9) 0.55928(16) 0.01907(12)
H33 H 0.0912 0.5992 -0.0014
C41 C 0.07408(10) 0.28227(17) -0.16543(13)
H34 H 0.0397 0.2690 -0.1805
H35 H 0.0917 0.2440 -0.1338
H36 H 0.0863 0.2799 -0.1994
C42 C 0.05376(9) 0.32322(16) -0.05027(12)
C43 C 0.02971(11) 0.37466(17) 0.11228(12)
H37 H -0.0057 0.3698 0.0937
H38 H 0.0441 0.3229 0.1076
C44 C 0.07890(10) 0.66269(16) 0.09579(13)
H39 H 0.0489 0.6938 0.0776
H40 H 0.1045 0.6886 0.0842
C45 C 0.05587(11) 0.61609(17) 0.18268(13)
H41 H 0.0660 0.6133 0.2279
H42 H 0.0247 0.6446 0.1671
C46 C 0.02907(11) 0.47765(18) 0.18798(14)
H43 H -0.0065 0.4819 0.1712
H44 H 0.0398 0.4900 0.2323
C47 C 0.08101(10) 0.36409(16) -0.13908(12)
C48 C 0.09331(11) 0.66198(18) 0.16507(13)
H45 H 0.0956 0.7173 0.1806
H46 H 0.1252 0.6365 0.1836
C49 C 0.04356(12) 0.39433(18) 0.17955(13)
H47 H 0.0276 0.3565 0.1990
H48 H 0.0788 0.3884 0.1999
N3 N 0.04978(9) 0.53542(14) 0.15757(11)
O3 O 0.04704(7) 0.34732(11) 0.00340(8)
O6 O 0.09405(8) 0.41887(12) -0.16484(9)
O10 O 0.04247(8) 0.25497(11) -0.06525(9)
C50 C 0.19382(9) 0.32721(15) 0.97551(12)
C51 C 0.17785(9) 0.26911(16) 1.00694(12)
C52 C 0.17800(9) 0.36777(16) 1.08397(12)
C53 C 0.19435(9) 0.23308(16) 0.89823(12)
C54 C 0.17659(11) 0.46740(17) 1.16841(13)
H49 H 0.1652 0.4691 1.2031
H50 H 0.1584 0.5057 1.1372
H51 H 0.2109 0.4811 1.1825
C55 C 0.20195(9) 0.31233(16) 0.92168(12)
C56 C 0.17935(9) 0.17188(16) 0.93050(13)
C57 C 0.16989(9) 0.29138(16) 1.06066(12)
H52 H 0.1585 0.2524 1.0818
C58 C 0.21880(11) 0.37680(17) 0.88855(13)
H53 H 0.2045 0.4285 0.8936
H54 H 0.2542 0.3818 0.9067
C59 C 0.17087(9) 0.19110(15) 0.98306(12)
H55 H 0.1600 0.1509 1.0038
C60 C 0.16948(10) 0.38552(17) 1.14163(13)
C61 C 0.19385(11) 0.13493(17) 0.81859(13)
H56 H 0.2253 0.1072 0.8335
H57 H 0.1830 0.1376 0.7734
C62 C 0.21922(11) 0.27355(18) 0.81186(13)
H58 H 0.2075 0.2612 0.7675
H59 H 0.2548 0.2697 0.8274
C63 C 0.19572(9) 0.42713(16) 1.05216(12)
C64 C 0.17232(10) 0.08778(16) 0.90666(13)
H60 H 0.1473 0.0613 0.9189
H61 H 0.2027 0.0576 0.9246
C65 C 0.15731(10) 0.08803(17) 0.83757(13)
H62 H 0.1251 0.1126 0.8194
H63 H 0.1554 0.0326 0.8223
C66 C 0.20447(12) 0.35769(18) 0.82133(14)
H64 H 0.2200 0.3960 0.8018
H65 H 0.1692 0.3633 0.8015
N4 N 0.19957(9) 0.21553(14) 0.84360(11)
O2 O 0.20195(7) 0.40368(11) 0.99800(8)
O8 O 0.20666(7) 0.49575(11) 1.06676(9)
O9 O 0.15677(8) 0.33157(12) 1.16838(10)
loop_
_geom_bond_atom_site_label_1
_geom_bond_atom_site_label_2
_geom_bond_site_symmetry_1
_geom_bond_site_symmetry_2
N1 C5 1_555 1_555
C1 H1 1_555 1_555
C2 C1 1_555 1_555
C3 C2 1_555 1_555
H2 C3 1_555 1_555
H3 C3 1_555 1_555
C4 C3 1_555 1_555
H4 C4 1_555 1_555
H5 C4 1_555 1_555
C5 C4 1_555 1_555
H6 C5 1_555 1_555
H7 C5 1_555 1_555
C6 N1 1_555 1_555
H8 C6 1_555 1_555
H9 C6 1_555 1_555
C7 C6 1_555 1_555
H10 C7 1_555 1_555
H11 C7 1_555 1_555
C8 C9 1_555 1_555
C9 C10 1_555 1_555
C10 N1 1_555 1_555
C11 C12 1_555 1_555
C12 C14 1_555 1_555
C13 C1 1_555 1_555
C14 C16 1_555 1_555
C15 C12 1_555 1_555
H12 C15 1_555 1_555
C16 H13 1_555 1_555
H14 C16 1_555 1_555
H15 C16 1_555 1_555
C17 C7 1_555 1_555
H16 C17 1_555 1_555
H17 C17 1_555 1_555
O1 C18 1_555 1_555
C18 C21 1_555 1_555
C19 C24 1_555 1_555
C20 H18 1_555 1_555
C21 C20 1_555 1_555
C22 C23 1_555 1_555
C23 C18 1_555 1_555
C24 O1 1_555 1_555
C25 C20 1_555 1_555
C26 C23 1_555 1_555
H19 C26 1_555 1_555
H20 C26 1_555 1_555
C27 H21 1_555 1_555
H22 C27 1_555 1_555
C28 C19 1_555 1_555
C29 H23 1_555 1_555
H24 C29 1_555 1_555
C30 C28 1_555 1_555
H25 C30 1_555 1_555
H26 C30 1_555 1_555
H27 C30 1_555 1_555
C31 C27 1_555 1_555
H28 C31 1_555 1_555
H29 C31 1_555 1_555
C32 C26 1_555 1_555
H30 C32 1_555 1_555
H31 C32 1_555 1_555
C33 C34 1_555 1_555
C34 C35 1_555 1_555
C35 C36 1_555 1_555
C36 C39 1_555 1_555
C37 C33 1_555 1_555
H32 C37 1_555 1_555
C38 C37 1_555 1_555
C39 C40 1_555 1_555
C40 C33 1_555 1_555
H33 C40 1_555 1_555
C41 H34 1_555 1_555
H35 C41 1_555 1_555
H36 C41 1_555 1_555
C42 C38 1_555 1_555
C43 C35 1_555 1_555
H37 C43 1_555 1_555
H38 C43 1_555 1_555
C44 C39 1_555 1_555
H39 C44 1_555 1_555
H40 C44 1_555 1_555
C45 H41 1_555 1_555
H42 C45 1_555 1_555
C46 H43 1_555 1_555
H44 C46 1_555 1_555
C47 C38 1_555 1_555
C48 C44 1_555 1_555
H45 C48 1_555 1_555
H46 C48 1_555 1_555
C49 C43 1_555 1_555
H47 C49 1_555 1_555
H48 C49 1_555 1_555
C50 C51 1_555 1_555
C51 C57 1_555 1_555
C52 C57 1_555 1_555
C53 C55 1_555 1_555
C54 H49 1_555 1_555
H50 C54 1_555 1_555
H51 C54 1_555 1_555
C55 C50 1_555 1_555
C56 C53 1_555 1_555
C57 H52 1_555 1_555
C58 C55 1_555 1_555
H53 C58 1_555 1_555
H54 C58 1_555 1_555
C59 C51 1_555 1_555
H55 C59 1_555 1_555
C60 C52 1_555 1_555
C61 H56 1_555 1_555
H57 C61 1_555 1_555
C62 H58 1_555 1_555
H59 C62 1_555 1_555
C63 C52 1_555 1_555
C64 C56 1_555 1_555
H60 C64 1_555 1_555
H61 C64 1_555 1_555
C65 C61 1_555 1_555
H62 C65 1_555 1_555
H63 C65 1_555 1_555
C66 C58 1_555 1_555
H64 C66 1_555 1_555
H65 C66 1_555 1_555
N2 C22 1_555 1_555
N3 C36 1_555 1_555
N4 C53 1_555 1_555
O2 C50 1_555 1_555
O3 C34 1_555 1_555
O4 C8 1_555 1_555
O5 C14 1_555 1_555
O6 C47 1_555 1_555
O7 C28 1_555 1_555
O8 C63 1_555 1_555
O9 C60 1_555 1_555
O10 C42 1_555 1_555
O11 C11 1_555 1_555
O12 C24 1_555 1_555
C67 C25 1_555 1_555
H66 C67 1_555 1_555
H67 C67 1_555 1_555
C68 C19 1_555 1_555
H68 C68 1_555 1_555
C2 C10 1_555 1_555
C8 C13 1_555 1_555
C9 C17 1_555 1_555
C11 O4 1_555 1_555
C13 C15 1_555 1_555
C21 C68 1_555 1_555
C22 C25 1_555 1_555
C27 C67 1_555 1_555
C29 C32 1_555 1_555
C29 N2 1_555 1_555
C31 N2 1_555 1_555
C41 C47 1_555 1_555
C42 O3 1_555 1_555
C45 C48 1_555 1_555
C45 N3 1_555 1_555
C46 C49 1_555 1_555
C46 N3 1_555 1_555
C54 C60 1_555 1_555
C56 C59 1_555 1_555
C61 N4 1_555 1_555
C62 C66 1_555 1_555
C62 N4 1_555 1_555
C63 O2 1_555 1_555
C64 C65 1_555 1_555

#END
