
#######################################################################
#
#                 Cambridge Crystallographic Data Centre
#                                CCDC 
#
#######################################################################
#
# If this CIF has been generated from an entry in the Cambridge 
# Structural Database, then it will include bibliographic, chemical, 
# crystal, experimental, refinement or atomic coordinate data resulting 
# from the CCDC's data processing and validation procedures.
#
#######################################################################

data_CIKQEV
_chemical_formula_moiety         'C30 H26 Br4 N2 O5'
_chemical_name_systematic        
"phenyl 3-phenyl-2-(4,5,6,7-tetrabromo-1',3'-dimethyl-2',4',6'-trioxo-1',3,3',3a,4,4',5,6,6',7-decahydro-2H,2'H-spiro[azulene-1,5'-pyrimidin]-2-ylidene)propanoate"
_symmetry_cell_setting           triclinic
_symmetry_space_group_name_H-M   'P -1'
_symmetry_Int_Tables_number      2
_space_group_name_Hall           '-P 1'
loop_
_symmetry_equiv_pos_site_id
_symmetry_equiv_pos_as_xyz
1 x,y,z
2 -x,-y,-z
_cell_length_a                   9.2210(3)
_cell_length_b                   10.3330(3)
_cell_length_c                   15.6479(6)
_cell_angle_alpha                83.674(3)
_cell_angle_beta                 89.722(3)
_cell_angle_gamma                86.396(3)
_cell_volume                     1478.93
_exptl_crystal_colour            colorless
_exptl_crystal_description       Plate
_cell_formula_units_Z            2
loop_
_atom_site_label
_atom_site_type_symbol
_atom_site_fract_x
_atom_site_fract_y
_atom_site_fract_z
Br1 Br 1.07743(5) 0.63516(5) 0.90585(3)
Br2 Br 0.77629(6) 0.89774(5) 1.05618(3)
Br3 Br 0.94984(6) 0.93517(5) 0.77594(3)
Br4 Br 0.57787(5) 1.07374(4) 0.78932(3)
O1 O 0.8592(4) 0.2437(3) 0.8919(2)
O2 O 0.7288(4) 0.5692(3) 0.6819(2)
O3 O 0.4258(3) 0.4704(3) 0.9158(2)
O4 O 0.4702(4) 0.3792(3) 0.7292(2)
O5 O 0.2568(3) 0.4339(3) 0.6599(2)
N1 N 0.7975(4) 0.4056(4) 0.7863(3)
N2 N 0.6407(4) 0.3542(3) 0.9040(2)
C1 C 0.8916(5) 0.7022(4) 0.9588(3)
H1 H 0.896097 0.669255 1.021367
C2 C 0.8888(5) 0.8495(4) 0.9532(3)
H2 H 0.990914 0.873985 0.960186
C3 C 0.8220(5) 0.9381(5) 0.8766(3)
H3 H 0.819964 1.029070 0.893001
C4 C 0.6660(5) 0.9139(4) 0.8548(3)
H4 H 0.612019 0.900762 0.910318
C5 C 0.6410(5) 0.7973(4) 0.8059(3)
H5 H 0.700981 0.804936 0.752344
C6 C 0.6812(5) 0.6664(4) 0.8564(3)
C7 C 0.7765(5) 0.6313(4) 0.9202(3)
H6 H 0.769646 0.544245 0.945905
C8 C 0.4818(5) 0.7865(4) 0.7802(3)
H7 H 0.415111 0.812832 0.825845
H8 H 0.457840 0.842514 0.726012
C9 C 0.4703(5) 0.6438(4) 0.7686(3)
C10 C 0.5974(5) 0.5635(4) 0.8145(3)
C11 C 0.7078(5) 0.5126(4) 0.7524(3)
C12 C 0.7722(5) 0.3302(4) 0.8625(3)
C13 C 0.5422(5) 0.4596(4) 0.8814(3)
C14 C 0.9342(5) 0.3752(6) 0.7415(4)
H9 H 0.928106 0.415613 0.681813
H10 H 0.950335 0.280434 0.742202
H11 H 1.015160 0.409337 0.770550
C15 C 0.6017(5) 0.2606(5) 0.9775(3)
H12 H 0.508865 0.224729 0.965679
H13 H 0.592748 0.305285 1.029529
H14 H 0.677537 0.189539 0.986054
C16 C 0.3644(5) 0.5984(4) 0.7246(3)
C17 C 0.3732(5) 0.4594(5) 0.7072(3)
C18 C 0.2637(5) 0.3158(4) 0.6222(3)
C19 C 0.2584(5) 0.1976(5) 0.6721(3)
H15 H 0.251930 0.193159 0.732933
C20 C 0.2628(6) 0.0861(5) 0.6310(4)
H16 H 0.261540 0.003410 0.664075
C21 C 0.2691(6) 0.0929(5) 0.5423(4)
H17 H 0.272736 0.015155 0.514939
C22 C 0.2701(6) 0.2127(5) 0.4934(3)
H18 H 0.273753 0.217148 0.432478
C23 C 0.2659(5) 0.3257(5) 0.5330(3)
H19 H 0.264537 0.408600 0.499948
C24 C 0.2346(5) 0.6843(4) 0.6884(3)
H20 H 0.229422 0.765609 0.716642
H21 H 0.145245 0.638726 0.703862
C25 C 0.2355(5) 0.7208(5) 0.5914(3)
C26 C 0.3637(5) 0.7224(6) 0.5438(3)
H22 H 0.453837 0.697243 0.571852
C27 C 0.3611(6) 0.7604(6) 0.4558(3)
H23 H 0.449560 0.762243 0.424363
C28 C 0.2316(6) 0.7954(6) 0.4138(3)
H24 H 0.229471 0.820486 0.353570
C29 C 0.1048(6) 0.7934(7) 0.4608(4)
H25 H 0.014666 0.817702 0.432569
C30 C 0.1069(6) 0.7566(6) 0.5484(4)
H26 H 0.018148 0.755921 0.579461
loop_
_geom_bond_atom_site_label_1
_geom_bond_atom_site_label_2
_geom_bond_site_symmetry_1
_geom_bond_site_symmetry_2
Br1 C1 1_555 1_555
Br2 C2 1_555 1_555
Br3 C3 1_555 1_555
Br4 C4 1_555 1_555
O1 C12 1_555 1_555
O2 C11 1_555 1_555
O3 C13 1_555 1_555
O4 C17 1_555 1_555
O5 C17 1_555 1_555
N1 C11 1_555 1_555
N2 C12 1_555 1_555
C1 H1 1_555 1_555
C2 C1 1_555 1_555
H2 C2 1_555 1_555
C3 C2 1_555 1_555
H3 C3 1_555 1_555
C4 C3 1_555 1_555
H4 C4 1_555 1_555
C5 C4 1_555 1_555
H5 C5 1_555 1_555
C6 C5 1_555 1_555
C7 C1 1_555 1_555
H6 C7 1_555 1_555
C8 C5 1_555 1_555
H7 C8 1_555 1_555
H8 C8 1_555 1_555
C9 C8 1_555 1_555
C10 C6 1_555 1_555
C11 C10 1_555 1_555
C12 N1 1_555 1_555
C13 N2 1_555 1_555
C14 N1 1_555 1_555
H9 C14 1_555 1_555
H10 C14 1_555 1_555
H11 C14 1_555 1_555
C15 N2 1_555 1_555
H12 C15 1_555 1_555
H13 C15 1_555 1_555
H14 C15 1_555 1_555
C16 C9 1_555 1_555
C17 C16 1_555 1_555
C18 O5 1_555 1_555
C19 C18 1_555 1_555
H15 C19 1_555 1_555
C20 C19 1_555 1_555
H16 C20 1_555 1_555
C21 C20 1_555 1_555
H17 C21 1_555 1_555
C22 C21 1_555 1_555
H18 C22 1_555 1_555
C23 C18 1_555 1_555
H19 C23 1_555 1_555
C24 C16 1_555 1_555
H20 C24 1_555 1_555
H21 C24 1_555 1_555
C25 C24 1_555 1_555
C26 C25 1_555 1_555
H22 C26 1_555 1_555
C27 C26 1_555 1_555
H23 C27 1_555 1_555
C28 C27 1_555 1_555
H24 C28 1_555 1_555
C29 C28 1_555 1_555
H25 C29 1_555 1_555
C30 C25 1_555 1_555
H26 C30 1_555 1_555
C6 C7 1_555 1_555
C9 C10 1_555 1_555
C10 C13 1_555 1_555
C22 C23 1_555 1_555
C29 C30 1_555 1_555

#END
