
#######################################################################
#
#                 Cambridge Crystallographic Data Centre
#                                CCDC 
#
#######################################################################
#
# If this CIF has been generated from an entry in the Cambridge 
# Structural Database, then it will include bibliographic, chemical, 
# crystal, experimental, refinement or atomic coordinate data resulting 
# from the CCDC's data processing and validation procedures.
#
#######################################################################

data_CIKQUJ
_chemical_formula_moiety         'C36 H18 N4 O2,C6 H6'
_chemical_name_systematic        
"(R)-(+)-3,3'-(1,1'-Binaphthyl-2,2'-dioxy)diphthalonitrile benzene solvate"
_symmetry_cell_setting           orthorhombic
_symmetry_space_group_name_H-M   'P 21 21 21'
_symmetry_Int_Tables_number      19
_space_group_name_Hall           'P 2ac 2ab'
loop_
_symmetry_equiv_pos_site_id
_symmetry_equiv_pos_as_xyz
1 x,y,z
2 1/2-x,-y,1/2+z
3 -x,1/2+y,1/2-z
4 1/2+x,1/2-y,-z
_cell_length_a                   7.87830(10)
_cell_length_b                   12.2854(2)
_cell_length_c                   35.3968(5)
_cell_angle_alpha                90
_cell_angle_beta                 90
_cell_angle_gamma                90
_cell_volume                     3425.99
_exptl_crystal_colour            colorless
_exptl_crystal_description       block
_cell_formula_units_Z            4
loop_
_atom_site_label
_atom_site_type_symbol
_atom_site_fract_x
_atom_site_fract_y
_atom_site_fract_z
O1 O 0.1382(3) 0.24330(18) 0.85664(7)
O2 O 0.3103(4) -0.0648(2) 0.86696(7)
N1 N 0.5117(6) 0.3449(3) 0.89188(12)
N2 N 0.4688(7) 0.6613(4) 0.87275(19)
N3 N 0.4446(6) -0.0563(4) 0.70672(12)
N4 N 0.2478(5) -0.2275(3) 0.78731(10)
C1 C 0.3576(7) 0.6042(4) 0.86531(16)
C2 C 0.2210(5) 0.5334(3) 0.85618(11)
C3 C 0.0708(5) 0.5749(3) 0.84235(12)
H1 H 0.0586 0.6495 0.8386
C4 C -0.0598(5) 0.5060(3) 0.83415(11)
H2 H -0.1625 0.5345 0.8258
C5 C -0.0423(5) 0.3943(3) 0.83802(10)
H3 H -0.1318 0.3482 0.8319
C6 C 0.1085(5) 0.3523(3) 0.85096(9)
C7 C 0.2408(5) 0.4210(3) 0.86122(9)
C8 C 0.3917(6) 0.3773(3) 0.87786(11)
C9 C 0.0561(4) 0.1644(3) 0.83539(9)
C10 C 0.0262(5) 0.1796(3) 0.79661(9)
H4 H 0.0523 0.2456 0.7852
C11 C -0.0408(5) 0.0972(3) 0.77607(9)
H5 H -0.0565 0.1065 0.7502
C12 C -0.0872(4) -0.0024(3) 0.79300(9)
C13 C -0.1665(5) -0.0864(4) 0.77246(11)
H6 H -0.1823 -0.0788 0.7466
C14 C -0.2198(5) -0.1778(4) 0.78994(15)
H7 H -0.2738 -0.2320 0.7761
C15 C -0.1943(5) -0.1916(3) 0.82898(14)
H8 H -0.2339 -0.2542 0.8408
C16 C -0.1127(5) -0.1147(3) 0.84941(11)
H9 H -0.0935 -0.1261 0.8750
C17 C -0.0560(4) -0.0170(3) 0.83221(9)
C18 C 0.0245(4) 0.0673(2) 0.85308(8)
C19 C 0.0871(5) 0.0476(3) 0.89238(8)
C20 C 0.0049(5) 0.0909(3) 0.92492(8)
C21 C -0.1454(6) 0.1520(3) 0.92207(10)
H10 H -0.1930 0.1652 0.8985
C22 C -0.2222(7) 0.1922(4) 0.95379(12)
H11 H -0.3217 0.2324 0.9516
C23 C -0.1520(9) 0.1732(5) 0.98937(13)
H12 H -0.2053 0.2007 1.0108
C24 C -0.0090(8) 0.1158(4) 0.99294(11)
H13 H 0.0367 0.1046 1.0169
C25 C 0.0740(6) 0.0717(3) 0.96123(9)
C26 C 0.2243(8) 0.0088(4) 0.96445(11)
H14 H 0.2711 -0.0036 0.9882
C27 C 0.3003(6) -0.0335(4) 0.93352(11)
H15 H 0.3980 -0.0754 0.9360
C28 C 0.2308(5) -0.0138(3) 0.89762(9)
C29 C 0.3806(5) -0.0007(3) 0.83978(10)
C30 C 0.4572(5) 0.0987(3) 0.84743(12)
H16 H 0.4622 0.1241 0.8721
C31 C 0.5255(5) 0.1595(4) 0.81873(14)
H17 H 0.5752 0.2264 0.8241
C32 C 0.5207(5) 0.1220(4) 0.78195(14)
H18 H 0.5661 0.1639 0.7625
C33 C 0.4486(4) 0.0224(3) 0.77414(10)
C34 C 0.4460(5) -0.0202(4) 0.73636(12)
C35 C 0.3780(4) -0.0403(3) 0.80310(10)
C36 C 0.3035(5) -0.1449(4) 0.79493(10)
C37 C 1.108(2) 0.6227(16) 0.9599(5)
H19 H 1.2131 0.6350 0.9710
C38 C 1.0635(19) 0.5159(13) 0.9502(3)
H20 H 1.1383 0.4580 0.9533
C39 C 0.902(2) 0.5017(9) 0.9357(2)
H21 H 0.8636 0.4330 0.9288
C40 C 0.7992(11) 0.5927(14) 0.9319(2)
H22 H 0.6924 0.5807 0.9216
C41 C 0.837(2) 0.6995(12) 0.9418(3)
H23 H 0.7594 0.7566 0.9404
C42 C 1.002(2) 0.7105(13) 0.9537(5)
H24 H 1.0442 0.7802 0.9578
loop_
_geom_bond_atom_site_label_1
_geom_bond_atom_site_label_2
_geom_bond_site_symmetry_1
_geom_bond_site_symmetry_2
O1 C6 1_555 1_555
O2 C28 1_555 1_555
N1 C8 1_555 1_555
N2 C1 1_555 1_555
N3 C34 1_555 1_555
N4 C36 1_555 1_555
C1 C2 1_555 1_555
C2 C3 1_555 1_555
C3 H1 1_555 1_555
C4 C3 1_555 1_555
H2 C4 1_555 1_555
C5 C4 1_555 1_555
H3 C5 1_555 1_555
C6 C5 1_555 1_555
C7 C2 1_555 1_555
C8 C7 1_555 1_555
C9 O1 1_555 1_555
C10 C9 1_555 1_555
H4 C10 1_555 1_555
C11 C10 1_555 1_555
H5 C11 1_555 1_555
C12 C11 1_555 1_555
C13 C12 1_555 1_555
H6 C13 1_555 1_555
C14 C13 1_555 1_555
H7 C14 1_555 1_555
C15 C14 1_555 1_555
H8 C15 1_555 1_555
C16 C15 1_555 1_555
H9 C16 1_555 1_555
C17 C12 1_555 1_555
C18 C9 1_555 1_555
C19 C18 1_555 1_555
C20 C19 1_555 1_555
C21 C20 1_555 1_555
H10 C21 1_555 1_555
C22 C21 1_555 1_555
H11 C22 1_555 1_555
C23 C22 1_555 1_555
H12 C23 1_555 1_555
C24 C23 1_555 1_555
H13 C24 1_555 1_555
C25 C20 1_555 1_555
C26 C25 1_555 1_555
H14 C26 1_555 1_555
C27 C26 1_555 1_555
H15 C27 1_555 1_555
C28 C19 1_555 1_555
C29 O2 1_555 1_555
C30 C29 1_555 1_555
H16 C30 1_555 1_555
C31 C30 1_555 1_555
H17 C31 1_555 1_555
C32 C31 1_555 1_555
H18 C32 1_555 1_555
C33 C32 1_555 1_555
C34 C33 1_555 1_555
C35 C29 1_555 1_555
C36 C35 1_555 1_555
C37 H19 1_555 1_555
C38 C37 1_555 1_555
H20 C38 1_555 1_555
C39 C38 1_555 1_555
H21 C39 1_555 1_555
C40 C39 1_555 1_555
H22 C40 1_555 1_555
C41 C40 1_555 1_555
H23 C41 1_555 1_555
C42 C37 1_555 1_555
H24 C42 1_555 1_555
C6 C7 1_555 1_555
C16 C17 1_555 1_555
C17 C18 1_555 1_555
C24 C25 1_555 1_555
C27 C28 1_555 1_555
C33 C35 1_555 1_555
C41 C42 1_555 1_555

#END
