
#######################################################################
#
#                 Cambridge Crystallographic Data Centre
#                                CCDC 
#
#######################################################################
#
# If this CIF has been generated from an entry in the Cambridge 
# Structural Database, then it will include bibliographic, chemical, 
# crystal, experimental, refinement or atomic coordinate data resulting 
# from the CCDC's data processing and validation procedures.
#
#######################################################################

data_CIKSUL
_chemical_formula_moiety         'C22 H14 O6,2(H2 O1)'
_chemical_name_systematic        '2,5-Dibenzoylterephthalic acid dihydrate'
_symmetry_cell_setting           triclinic
_symmetry_space_group_name_H-M   'P -1'
_symmetry_Int_Tables_number      2
_space_group_name_Hall           '-P 1'
loop_
_symmetry_equiv_pos_site_id
_symmetry_equiv_pos_as_xyz
1 x,y,z
2 -x,-y,-z
_cell_length_a                   5.7220(11)
_cell_length_b                   8.0630(16)
_cell_length_c                   10.963(2)
_cell_angle_alpha                102.74(3)
_cell_angle_beta                 101.59(3)
_cell_angle_gamma                97.49(3)
_cell_volume                     475.14
_exptl_crystal_colour            colorless
_exptl_crystal_description       plate
_cell_formula_units_Z            1
loop_
_atom_site_label
_atom_site_type_symbol
_atom_site_fract_x
_atom_site_fract_y
_atom_site_fract_z
O1 O -0.1212(6) -0.4871(4) 0.1929(3)
H1 H -0.275(4) -0.505(7) 0.158(5)
H2 H -0.095(9) -0.390(4) 0.176(5)
O2 O 0.0978(5) -0.1456(4) 0.1920(3)
O3 O 0.3663(5) 0.4355(3) 0.0982(3)
O4 O 0.0816(5) 0.2472(4) 0.1329(3)
H3 H 0.002(9) 0.344(7) 0.155(5)
C1 C 0.3251(10) 0.2233(7) 0.5483(4)
H4 H 0.2314 0.2332 0.6089
C2 C 0.5549(10) 0.3219(6) 0.5782(4)
H5 H 0.6188 0.3945 0.6602
C3 C 0.6902(9) 0.3127(6) 0.4862(4)
H6 H 0.8431 0.3814 0.5054
C4 C 0.5962(8) 0.2005(5) 0.3652(4)
H7 H 0.6880 0.1930 0.3038
C5 C 0.3682(7) 0.1001(5) 0.3351(3)
C6 C 0.2352(8) 0.1105(5) 0.4289(4)
H8 H 0.0837 0.0402 0.4105
C7 C 0.2633(7) -0.0260(5) 0.2083(3)
C8 C 0.3820(6) -0.0090(4) 0.0984(3)
C9 C 0.3948(7) 0.1395(4) 0.0501(3)
C10 C 0.4862(7) -0.1452(5) 0.0477(3)
H9 H 0.4764 -0.2428 0.0798
C11 C 0.2797(7) 0.2898(4) 0.0967(3)
O2A O 0.9022(5) 0.1456(4) -0.1920(3)
O3A O 0.6337(5) -0.4355(3) -0.0982(3)
O4A O 0.9184(5) -0.2472(4) -0.1329(3)
H3A H 0.998(9) -0.344(7) -0.155(5)
C1A C 0.6749(10) -0.2233(7) -0.5483(4)
H4A H 0.7686 -0.2332 -0.6089
C2A C 0.4451(10) -0.3219(6) -0.5782(4)
H5A H 0.3812 -0.3945 -0.6602
C3A C 0.3098(9) -0.3127(6) -0.4862(4)
H6A H 0.1569 -0.3814 -0.5054
C4A C 0.4038(8) -0.2005(5) -0.3652(4)
H7A H 0.3120 -0.1930 -0.3038
C5A C 0.6318(7) -0.1001(5) -0.3351(3)
C6A C 0.7648(8) -0.1105(5) -0.4289(4)
H8A H 0.9163 -0.0402 -0.4105
C7A C 0.7367(7) 0.0260(5) -0.2083(3)
C8A C 0.6180(6) 0.0090(4) -0.0984(3)
C9A C 0.6052(7) -0.1395(4) -0.0501(3)
C10A C 0.5138(7) 0.1452(5) -0.0477(3)
H9A H 0.5236 0.2428 -0.0798
C11A C 0.7203(7) -0.2898(4) -0.0967(3)
loop_
_geom_bond_atom_site_label_1
_geom_bond_atom_site_label_2
_geom_bond_site_symmetry_1
_geom_bond_site_symmetry_2
O1 H1 1_555 1_555
H2 O1 1_555 1_555
O2 C7 1_555 1_555
O3 C11 1_555 1_555
O4 H3 1_555 1_555
C1 H4 1_555 1_555
C2 C1 1_555 1_555
H5 C2 1_555 1_555
C3 C2 1_555 1_555
H6 C3 1_555 1_555
C4 C3 1_555 1_555
H7 C4 1_555 1_555
C5 C4 1_555 1_555
C6 C1 1_555 1_555
H8 C6 1_555 1_555
C7 C5 1_555 1_555
C8 C7 1_555 1_555
C9 C8 1_555 1_555
C10 C8 1_555 1_555
H9 C10 1_555 1_555
C11 O4 1_555 1_555
O2A C7A 1_555 1_555
O3A C11A 1_555 1_555
O4A H3A 1_555 1_555
C1A H4A 1_555 1_555
C2A C1A 1_555 1_555
H5A C2A 1_555 1_555
C3A C2A 1_555 1_555
H6A C3A 1_555 1_555
C4A C3A 1_555 1_555
H7A C4A 1_555 1_555
C5A C4A 1_555 1_555
C6A C1A 1_555 1_555
H8A C6A 1_555 1_555
C7A C5A 1_555 1_555
C8A C7A 1_555 1_555
C9A C10 1_555 1_555
C10A C9 1_555 1_555
H9A C10A 1_555 1_555
C11A O4A 1_555 1_555
C5 C6 1_555 1_555
C9 C11 1_555 1_555
C5A C6A 1_555 1_555
C8A C9A 1_555 1_555
C8A C10A 1_555 1_555
C9A C11A 1_555 1_555

#END
