
#######################################################################
#
#                 Cambridge Crystallographic Data Centre
#                                CCDC 
#
#######################################################################
#
# If this CIF has been generated from an entry in the Cambridge 
# Structural Database, then it will include bibliographic, chemical, 
# crystal, experimental, refinement or atomic coordinate data resulting 
# from the CCDC's data processing and validation procedures.
#
#######################################################################

data_CIKVEZ
_chemical_name_common            
'methyl 5-nitro-2-oxo-4,6-dip-tolylpiperidine-3-carboxylate'
_chemical_formula_moiety         'C21 H22 N2 O5'
_chemical_name_systematic        
'Methyl 4,6-bis(4-methylphenyl)-5-nitro-2-oxopiperidine-3-carboxylate'
_symmetry_cell_setting           triclinic
_symmetry_space_group_name_H-M   'P -1'
_symmetry_Int_Tables_number      2
_space_group_name_Hall           '-P 1'
loop_
_symmetry_equiv_pos_site_id
_symmetry_equiv_pos_as_xyz
1 x,y,z
2 -x,-y,-z
_cell_length_a                   5.8533(13)
_cell_length_b                   13.005(3)
_cell_length_c                   13.861(3)
_cell_angle_alpha                87.054(2)
_cell_angle_beta                 81.856(2)
_cell_angle_gamma                83.443(2)
_cell_volume                     1036.99
_exptl_crystal_description       block
_cell_formula_units_Z            2
loop_
_atom_site_label
_atom_site_type_symbol
_atom_site_fract_x
_atom_site_fract_y
_atom_site_fract_z
O1 O 1.0439(2) 0.51829(8) 0.11905(8)
C1 C 0.9768(2) 0.26922(10) 0.24980(9)
H1 H 1.1344 0.2423 0.2221
N1 N 0.7967(3) 0.12247(10) 0.19609(9)
C2 C 0.8066(2) 0.23751(10) 0.18529(10)
H2 H 0.6519 0.2734 0.2052
C3 C 0.9577(2) 0.38824(10) 0.24217(10)
H3 H 0.8045 0.4153 0.2746
N2 N 0.9341(2) 0.37240(9) 0.06883(8)
H4 H 0.9294 0.4022 0.0122
O2 O 1.3424(2) 0.40012(10) 0.27874(11)
C4 C 0.8856(3) 0.26428(10) 0.07722(10)
H5 H 1.0308 0.2209 0.0566
C5 C 0.9331(2) 0.22883(10) 0.35495(10)
C6 C 0.9844(2) 0.43062(10) 0.13709(10)
O3 O 0.9753(3) 0.06602(9) 0.17435(10)
C7 C 0.7116(3) 0.24562(11) 0.01022(10)
C8 C 1.1402(3) 0.43050(11) 0.29129(11)
C9 C 0.8579(3) 0.15166(13) 0.54918(11)
O4 O 0.6095(3) 0.09199(11) 0.22605(11)
C10 C 1.1093(3) 0.17102(13) 0.39670(12)
H6 H 1.2548 0.1572 0.3603
C11 C 0.6823(3) 0.20954(14) 0.50699(11)
H7 H 0.5366 0.2230 0.5434
C12 C 0.7192(3) 0.24794(13) 0.41143(11)
H8 H 0.5985 0.2871 0.3850
O5 O 1.0468(3) 0.50721(11) 0.34852(11)
C13 C 0.5567(3) 0.32518(13) -0.01984(12)
H9 H 0.5518 0.3909 0.0043
C14 C 0.7083(3) 0.14820(12) -0.02523(12)
H10 H 0.8106 0.0934 -0.0060
C15 C 0.4042(3) 0.21065(15) -0.12081(12)
C16 C 0.4094(3) 0.30779(15) -0.08532(13)
H11 H 0.3107 0.3630 -0.1062
C17 C 1.0705(3) 0.13333(14) 0.49298(13)
H12 H 1.1915 0.0949 0.5198
C18 C 0.5555(4) 0.13089(14) -0.08881(13)
H13 H 0.5546 0.0644 -0.1104
C19 C 0.8181(4) 0.11020(18) 0.65334(13)
H14 H 0.7883 0.1669 0.6967
H15 H 0.9536 0.0665 0.6677
H16 H 0.6872 0.0708 0.6618
C20 C 0.2401(4) 0.1953(2) -0.19319(16)
H17 H 0.3163 0.2060 -0.2584
H18 H 0.1039 0.2440 -0.1817
H19 H 0.1965 0.1261 -0.1852
C21 C 1.2099(7) 0.5595(3) 0.3927(3)
H20 H 1.2942 0.5106 0.4326
H21 H 1.1268 0.6137 0.4324
H22 H 1.3165 0.5886 0.3425
loop_
_geom_bond_atom_site_label_1
_geom_bond_atom_site_label_2
_geom_bond_site_symmetry_1
_geom_bond_site_symmetry_2
O1 C6 1_555 1_555
C1 H1 1_555 1_555
N1 C2 1_555 1_555
C2 C1 1_555 1_555
H2 C2 1_555 1_555
C3 C1 1_555 1_555
H3 C3 1_555 1_555
N2 H4 1_555 1_555
O2 C8 1_555 1_555
C4 C2 1_555 1_555
H5 C4 1_555 1_555
C5 C1 1_555 1_555
C6 C3 1_555 1_555
O3 N1 1_555 1_555
C7 C4 1_555 1_555
C8 C3 1_555 1_555
C9 C11 1_555 1_555
O4 N1 1_555 1_555
C10 C5 1_555 1_555
H6 C10 1_555 1_555
C11 H7 1_555 1_555
C12 C5 1_555 1_555
H8 C12 1_555 1_555
O5 C8 1_555 1_555
C13 C7 1_555 1_555
H9 C13 1_555 1_555
C14 C7 1_555 1_555
H10 C14 1_555 1_555
C15 C16 1_555 1_555
C16 C13 1_555 1_555
H11 C16 1_555 1_555
C17 C9 1_555 1_555
H12 C17 1_555 1_555
C18 C14 1_555 1_555
H13 C18 1_555 1_555
C19 C9 1_555 1_555
H14 C19 1_555 1_555
H15 C19 1_555 1_555
H16 C19 1_555 1_555
C20 C15 1_555 1_555
H17 C20 1_555 1_555
H18 C20 1_555 1_555
H19 C20 1_555 1_555
C21 O5 1_555 1_555
H20 C21 1_555 1_555
H21 C21 1_555 1_555
H22 C21 1_555 1_555
N2 C4 1_555 1_555
N2 C6 1_555 1_555
C10 C17 1_555 1_555
C11 C12 1_555 1_555
C15 C18 1_555 1_555

#END
