
#######################################################################
#
#                 Cambridge Crystallographic Data Centre
#                                CCDC 
#
#######################################################################
#
# If this CIF has been generated from an entry in the Cambridge 
# Structural Database, then it will include bibliographic, chemical, 
# crystal, experimental, refinement or atomic coordinate data resulting 
# from the CCDC's data processing and validation procedures.
#
#######################################################################

data_CILCEG
_chemical_name_common            
'(5beta,8alpha,9beta,10alpha,12alpha,15beta)-15-Hydroxy-17-(methylsulfinyl)atisan-19-oic acid'
_chemical_formula_moiety         'C21 H34 O4 S1'
_chemical_name_systematic        'Serofendic acid B'
_chemical_properties_biological  'Neuroprotective activity.'
_symmetry_cell_setting           orthorhombic
_symmetry_space_group_name_H-M   'P 21 21 2'
_symmetry_Int_Tables_number      18
_space_group_name_Hall           'P 2 2ab'
loop_
_symmetry_equiv_pos_site_id
_symmetry_equiv_pos_as_xyz
1 x,y,z
2 1/2+x,1/2-y,-z
3 1/2-x,1/2+y,-z
4 -x,-y,z
_cell_length_a                   10.9199(6)
_cell_length_b                   41.853(2)
_cell_length_c                   8.3347(4)
_cell_angle_alpha                90
_cell_angle_beta                 90
_cell_angle_gamma                90
_cell_volume                     3809.21
_exptl_crystal_colour            colorless
_exptl_crystal_description       platelet
_chemical_melting_point          '229-230 deg.C'
_cell_formula_units_Z            8
_exptl_crystal_recrystallization_method 'hexane/ethyl acetate'
loop_
_atom_site_label
_atom_site_type_symbol
_atom_site_fract_x
_atom_site_fract_y
_atom_site_fract_z
S1 S -1.07608(18) -0.24979(5) -1.0140(2)
O1 O -1.4243(6) -0.02305(14) -1.5568(7)
O2 O -0.9390(4) -0.24569(11) -0.9908(5)
O4 O -0.9748(4) -0.14914(12) -1.1430(6)
O8 O -1.3947(4) -0.02040(11) -1.2955(6)
C6 C -1.2215(7) -0.05323(17) -1.6399(8)
C9 C -1.1354(6) -0.09642(13) -1.0915(8)
C13 C -1.1964(6) -0.13306(16) -1.3156(8)
C14 C -1.2042(6) -0.06899(17) -1.1712(7)
C16 C -1.2529(6) -0.11114(16) -1.5865(7)
C17 C -1.3033(6) -0.13790(16) -1.0413(8)
C20 C -1.1389(6) -0.18896(16) -1.1167(8)
C21 C -1.2612(6) -0.18675(17) -1.2055(8)
C23 C -1.2686(5) -0.10525(16) -1.4020(8)
C25 C -1.1828(6) -0.12955(17) -1.1325(8)
C26 C -1.2328(6) -0.04421(16) -1.4595(7)
C28 C -1.0926(6) -0.15487(16) -1.0731(8)
C30 C -1.3563(6) -0.16986(16) -1.1003(8)
C31 C -1.2025(6) -0.07353(16) -1.3552(8)
C35 C -1.3603(6) -0.02900(17) -1.4332(10)
C37 C -1.1431(6) -0.01708(16) -1.4247(8)
C38 C -1.2440(7) -0.16671(14) -1.3576(8)
C39 C -1.4047(6) -0.10423(17) -1.3620(8)
C40 C -1.2950(7) -0.08219(16) -1.6858(8)
C41 C -1.1464(6) -0.21197(16) -0.9715(9)
C42 C -1.1293(7) -0.27094(18) -0.8405(8)
H6 H -1.1129 -0.1321 -1.3584
H7 H -1.0795 -0.1981 -1.1919
H8 H -1.2901 -0.2082 -1.2337
H9 H -1.0856 -0.1532 -0.9562
H10 H -1.1162 -0.0778 -1.3793
H11 H -1.2484 -0.0352 -1.7043
H12 H -1.1361 -0.0571 -1.6647
H13 H -1.0499 -0.0952 -1.1224
H14 H -1.1395 -0.0936 -0.9761
H15 H -1.1658 -0.0488 -1.1434
H16 H -1.2881 -0.0685 -1.1331
H17 H -1.1675 -0.1155 -1.6096
H18 H -1.3003 -0.1298 -1.6175
H19 H -1.2867 -0.1392 -0.9272
H20 H -1.3629 -0.1211 -1.0582
H21 H -1.3769 -0.1832 -1.0092
H22 H -1.4304 -0.1661 -1.1616
H23 H -1.3216 -0.1649 -1.4137
H24 H -1.1862 -0.1772 -1.4283
H25 H -1.2842 -0.0866 -1.7992
H26 H -1.3812 -0.0782 -1.6666
H27 H -1.2317 -0.2154 -0.9435
H28 H -1.1061 -0.2023 -0.8800
H56 H -1.1837 0.0031 -1.4389
H57 H -1.0749 -0.0185 -1.4970
H58 H -1.1143 -0.0188 -1.3161
H59 H -1.4172 -0.0913 -1.2682
H60 H -1.4336 -0.1255 -1.3419
H61 H -1.4489 -0.0952 -1.4506
H62 H -1.1518 -0.2559 -0.7586
H63 H -1.0653 -0.2846 -0.8011
H64 H -1.1992 -0.2837 -0.8687
H65 H -0.919(5) -0.1606(13) -1.094(6)
S2 S -0.93703(19) -0.23336(4) -0.4208(2)
O3 O -0.8451(4) -0.18669(12) -0.9250(5)
O5 O -1.0631(4) -0.23392(11) -0.4934(6)
O6 O -0.6489(4) -0.00278(12) -0.9264(5)
O7 O -0.5185(4) -0.04314(11) -0.9635(5)
C1 C -0.8081(6) -0.12496(16) -0.7369(8)
C2 C -0.7309(6) -0.05293(16) -1.0234(7)
C3 C -0.6311(6) -0.0305(2) -0.9612(8)
C4 C -0.7771(6) -0.08907(14) -0.7717(8)
C5 C -0.8064(6) -0.16427(16) -0.5062(9)
C7 C -0.8462(6) -0.18896(14) -0.6296(8)
C8 C -0.7094(6) -0.05604(17) -1.2045(8)
C10 C -0.8564(6) -0.03737(14) -0.9973(8)
C11 C -0.7354(6) -0.08710(16) -0.9475(7)
C12 C -0.6104(6) -0.15199(16) -0.6495(8)
C15 C -0.6196(6) -0.10816(14) -0.9730(8)
C18 C -0.7101(6) -0.14986(16) -0.7807(8)
C19 C -0.6530(6) -0.14268(14) -0.9473(8)
C22 C -0.8510(6) -0.13133(16) -0.5612(7)
C24 C -0.6659(6) -0.16305(18) -0.4891(8)
C27 C -0.8329(6) -0.22374(17) -0.5803(9)
C29 C -0.8995(6) -0.07082(14) -0.7517(8)
C32 C -0.8914(6) -0.27346(16) -0.3937(9)
C33 C -0.8968(6) -0.03703(16) -0.8225(8)
C34 C -0.7710(6) -0.18303(16) -0.7846(8)
C36 C -0.6826(6) -0.07380(17) -0.6576(8)
H1 H -0.8789 -0.1300 -0.8047
H2 H -0.8431 -0.1694 -0.4021
H3 H -0.9327 -0.1851 -0.6546
H4 H -0.8000 -0.0982 -1.0074
H5 H -0.7058 -0.1991 -0.7890
H29 H -0.8536 -0.0156 -1.0366
H30 H -0.9170 -0.0488 -1.0600
H31 H -0.5475 -0.1669 -0.6828
H32 H -0.5725 -0.1312 -0.6356
H33 H -0.5885 -0.1052 -1.0810
H34 H -0.5562 -0.1019 -0.8979
H35 H -0.5800 -0.1556 -0.9600
H36 H -0.7107 -0.1491 -1.0298
H37 H -0.8184 -0.1150 -0.4907
H38 H -0.9397 -0.1305 -0.5557
H39 H -0.6434 -0.1483 -0.4044
H40 H -0.6348 -0.1840 -0.4614
H41 H -0.7495 -0.2277 -0.5453
H42 H -0.8493 -0.2374 -0.6719
H43 H -0.9642 -0.0829 -0.8034
H44 H -0.9190 -0.0694 -0.6383
H45 H -0.9777 -0.0276 -0.8147
H46 H -0.8408 -0.0239 -0.7607
H47 H -0.6554 -0.0737 -1.2249
H48 H -0.6732 -0.0367 -1.2445
H49 H -0.7862 -0.0597 -1.2576
H50 H -0.8499 -0.2808 -0.4883
H51 H -0.9623 -0.2865 -0.3748
H52 H -0.8372 -0.2749 -0.3033
H53 H -0.6017 -0.0770 -0.6996
H54 H -0.6887 -0.0836 -0.5537
H55 H -0.6987 -0.0513 -0.6483
H66 H -0.876(8) -0.208(2) -0.935(11)
loop_
_geom_bond_atom_site_label_1
_geom_bond_atom_site_label_2
_geom_bond_site_symmetry_1
_geom_bond_site_symmetry_2
S1 O2 1_555 1_555
S2 O5 1_555 1_555
O1 C35 1_555 1_555
O3 C34 1_555 1_555
O4 C28 1_555 1_555
O6 C3 1_555 1_555
O7 C3 1_555 1_555
O8 C35 1_555 1_555
C1 C4 1_555 1_555
C2 C3 1_555 1_555
C4 C11 1_555 1_555
C5 C7 1_555 1_555
C6 C26 1_555 1_555
C7 C27 1_555 1_555
C8 C2 1_555 1_555
C9 C14 1_555 1_555
C10 C2 1_555 1_555
C11 C2 1_555 1_555
C12 C18 1_555 1_555
C13 C23 1_555 1_555
C14 C31 1_555 1_555
C15 C11 1_555 1_555
C16 C23 1_555 1_555
C17 C25 1_555 1_555
C18 C1 1_555 1_555
C19 C15 1_555 1_555
C20 C21 1_555 1_555
C21 C30 1_555 1_555
C22 C1 1_555 1_555
C23 C31 1_555 1_555
C24 C5 1_555 1_555
C25 C9 1_555 1_555
C26 C31 1_555 1_555
C27 S2 1_555 1_555
C28 C20 1_555 1_555
C29 C4 1_555 1_555
C30 C17 1_555 1_555
C31 H10 1_555 1_555
C32 S2 1_555 1_555
C33 C10 1_555 1_555
C34 C7 1_555 1_555
C35 C26 1_555 1_555
C36 C4 1_555 1_555
C37 C26 1_555 1_555
C38 C13 1_555 1_555
C39 C23 1_555 1_555
C40 C6 1_555 1_555
C41 S1 1_555 1_555
C42 S1 1_555 1_555
H1 C1 1_555 1_555
H2 C5 1_555 1_555
H3 C7 1_555 1_555
H4 C11 1_555 1_555
H5 C34 1_555 1_555
H6 C13 1_555 1_555
H7 C20 1_555 1_555
H8 C21 1_555 1_555
H9 C28 1_555 1_555
H11 C6 1_555 1_555
H12 C6 1_555 1_555
H13 C9 1_555 1_555
H14 C9 1_555 1_555
H15 C14 1_555 1_555
H16 C14 1_555 1_555
H17 C16 1_555 1_555
H18 C16 1_555 1_555
H19 C17 1_555 1_555
H20 C17 1_555 1_555
H21 C30 1_555 1_555
H22 C30 1_555 1_555
H23 C38 1_555 1_555
H24 C38 1_555 1_555
H25 C40 1_555 1_555
H26 C40 1_555 1_555
H27 C41 1_555 1_555
H28 C41 1_555 1_555
H29 C10 1_555 1_555
H30 C10 1_555 1_555
H31 C12 1_555 1_555
H32 C12 1_555 1_555
H33 C15 1_555 1_555
H34 C15 1_555 1_555
H35 C19 1_555 1_555
H36 C19 1_555 1_555
H37 C22 1_555 1_555
H38 C22 1_555 1_555
H39 C24 1_555 1_555
H40 C24 1_555 1_555
H41 C27 1_555 1_555
H42 C27 1_555 1_555
H43 C29 1_555 1_555
H44 C29 1_555 1_555
H45 C33 1_555 1_555
H46 C33 1_555 1_555
H47 C8 1_555 1_555
H48 C8 1_555 1_555
H49 C8 1_555 1_555
H50 C32 1_555 1_555
H51 C32 1_555 1_555
H52 C32 1_555 1_555
H53 C36 1_555 1_555
H54 C36 1_555 1_555
H55 C36 1_555 1_555
H56 C37 1_555 1_555
H57 C37 1_555 1_555
H58 C37 1_555 1_555
H59 C39 1_555 1_555
H60 C39 1_555 1_555
H61 C39 1_555 1_555
H62 C42 1_555 1_555
H63 C42 1_555 1_555
H64 C42 1_555 1_555
H65 O4 1_555 1_555
H66 O3 1_555 1_555
C5 C22 1_555 1_555
C12 C24 1_555 1_555
C13 C25 1_555 1_555
C16 C40 1_555 1_555
C18 C19 1_555 1_555
C18 C34 1_555 1_555
C20 C41 1_555 1_555
C21 C38 1_555 1_555
C25 C28 1_555 1_555
C29 C33 1_555 1_555

#END
