
#######################################################################
#
#                 Cambridge Crystallographic Data Centre
#                                CCDC 
#
#######################################################################
#
# If this CIF has been generated from an entry in the Cambridge 
# Structural Database, then it will include bibliographic, chemical, 
# crystal, experimental, refinement or atomic coordinate data resulting 
# from the CCDC's data processing and validation procedures.
#
#######################################################################

data_CILDEJ
_chemical_formula_moiety         'C32 H31 B1 Cl1 F2 N3 O1'
_chemical_name_systematic        
3,6-di-t-butyl-9-[4-(6-chloro-1,1-difluoro-1H-9,1-pyrimido[1,6-c][1,3,2]oxazaborinin-3-yl)phenyl]-9H-carbazole
_symmetry_cell_setting           monoclinic
_symmetry_space_group_name_H-M   'P 21/c'
_symmetry_Int_Tables_number      14
_space_group_name_Hall           '-P 2ybc'
loop_
_symmetry_equiv_pos_site_id
_symmetry_equiv_pos_as_xyz
1 x,y,z
2 -x,1/2+y,1/2-z
3 -x,-y,-z
4 x,1/2-y,1/2+z
_cell_length_a                   24.409(2)
_cell_length_b                   9.5355(8)
_cell_length_c                   13.1083(10)
_cell_angle_alpha                90
_cell_angle_beta                 103.983(3)
_cell_angle_gamma                90
_cell_volume                     2960.57
_exptl_crystal_colour            yellow
_exptl_crystal_description       block
_cell_formula_units_Z            4
loop_
_atom_site_label
_atom_site_type_symbol
_atom_site_fract_x
_atom_site_fract_y
_atom_site_fract_z
B1 B 0.43320(6) 0.43822(15) 0.10767(11)
F1 F 0.39477(3) 0.37430(8) 0.02734(6)
F2 F 0.42068(3) 0.41412(8) 0.20405(6)
O1 O 0.49026(4) 0.39050(9) 0.10988(7)
N1 N 0.43038(4) 0.60365(11) 0.08842(8)
N2 N 0.37326(4) 0.80549(11) 0.03974(8)
N3 N 0.74174(4) 0.17028(11) 0.27589(8)
Cl1 Cl 0.41252(2) 1.06152(3) 0.05126(3)
C1 C 0.38048(5) 0.66920(14) 0.05082(9)
H1 H 0.3478 0.6119 0.0307
C2 C 0.42090(6) 0.88217(13) 0.06800(9)
C3 C 0.47364(5) 0.82832(14) 0.10760(10)
H2 H 0.5058 0.8875 0.1266
C4 C 0.47843(5) 0.68186(13) 0.11917(9)
C5 C 0.53062(5) 0.61261(14) 0.15911(10)
H3 H 0.5629 0.6658 0.1925
C6 C 0.53520(5) 0.47101(13) 0.15027(9)
C7 C 0.58915(5) 0.39429(13) 0.18065(9)
C8 C 0.64093(5) 0.46524(14) 0.20757(10)
H4 H 0.6416 0.5647 0.2044
C9 C 0.69115(5) 0.39176(14) 0.23876(10)
H5 H 0.7260 0.4408 0.2568
C10 C 0.69049(5) 0.24519(13) 0.24360(9)
C11 C 0.63917(5) 0.17339(13) 0.21613(9)
H6 H 0.6386 0.0739 0.2192
C12 C 0.58913(5) 0.24727(13) 0.18448(9)
H7 H 0.5544 0.1978 0.1651
C13 C 0.75856(5) 0.05848(13) 0.22126(9)
C14 C 0.72891(5) -0.01006(14) 0.13067(10)
H8 H 0.6916 0.0169 0.0963
C15 C 0.75584(6) -0.11859(14) 0.09279(10)
H9 H 0.7359 -0.1670 0.0317
C16 C 0.81160(5) -0.16094(13) 0.14067(10)
C17 C 0.84074(5) -0.08846(13) 0.22940(9)
H10 H 0.8785 -0.1139 0.2624
C18 C 0.81460(5) 0.02210(13) 0.27030(9)
C19 C 0.83300(5) 0.11706(13) 0.35836(9)
C20 C 0.88384(5) 0.13271(13) 0.43507(9)
H11 H 0.9153 0.0749 0.4332
C21 C 0.88827(5) 0.23279(13) 0.51386(10)
C22 C 0.84019(5) 0.31476(14) 0.51555(10)
H12 H 0.8426 0.3806 0.5709
C23 C 0.78977(5) 0.30317(14) 0.44004(10)
H13 H 0.7581 0.3598 0.4427
C24 C 0.78716(5) 0.20529(13) 0.35993(9)
C25 C 0.83719(6) -0.28345(14) 0.09233(10)
C26 C 0.83751(7) -0.24777(16) -0.02214(11)
H14 H 0.7986 -0.2361 -0.0636
H15 H 0.8556 -0.3240 -0.0519
H16 H 0.8585 -0.1605 -0.0237
C27 C 0.80177(7) -0.41658(15) 0.09477(13)
H17 H 0.8025 -0.4404 0.1678
H18 H 0.8176 -0.4944 0.0623
H19 H 0.7627 -0.3996 0.0558
C28 C 0.89806(6) -0.31430(15) 0.15186(12)
H20 H 0.9213 -0.2307 0.1514
H21 H 0.9129 -0.3921 0.1177
H22 H 0.8989 -0.3399 0.2246
C29 C 0.94296(5) 0.25828(14) 0.59881(10)
C30 C 0.93345(6) 0.22287(17) 0.70762(11)
H23 H 0.9241 0.1232 0.7102
H24 H 0.9023 0.2796 0.7203
H25 H 0.9679 0.2432 0.7618
C31 C 0.99215(6) 0.16982(18) 0.58074(12)
H26 H 0.9829 0.0701 0.5834
H27 H 1.0263 0.1907 0.6356
H28 H 0.9987 0.1921 0.5117
C32 C 0.95910(7) 0.41391(17) 0.59742(14)
H29 H 0.9949 0.4302 0.6490
H30 H 0.9295 0.4716 0.6152
H31 H 0.9632 0.4392 0.5272
loop_
_geom_bond_atom_site_label_1
_geom_bond_atom_site_label_2
_geom_bond_site_symmetry_1
_geom_bond_site_symmetry_2
B1 F1 1_555 1_555
F2 B1 1_555 1_555
O1 B1 1_555 1_555
N1 B1 1_555 1_555
N2 C1 1_555 1_555
N3 C10 1_555 1_555
Cl1 C2 1_555 1_555
C1 N1 1_555 1_555
H1 C1 1_555 1_555
C2 N2 1_555 1_555
C3 C2 1_555 1_555
H2 C3 1_555 1_555
C4 N1 1_555 1_555
C5 C4 1_555 1_555
H3 C5 1_555 1_555
C6 O1 1_555 1_555
C7 C6 1_555 1_555
C8 C7 1_555 1_555
H4 C8 1_555 1_555
C9 C8 1_555 1_555
H5 C9 1_555 1_555
C10 C9 1_555 1_555
C11 C10 1_555 1_555
H6 C11 1_555 1_555
C12 C7 1_555 1_555
H7 C12 1_555 1_555
C13 N3 1_555 1_555
C14 C13 1_555 1_555
H8 C14 1_555 1_555
C15 C14 1_555 1_555
H9 C15 1_555 1_555
C16 C15 1_555 1_555
C17 C16 1_555 1_555
H10 C17 1_555 1_555
C18 C13 1_555 1_555
C19 C18 1_555 1_555
C20 C19 1_555 1_555
H11 C20 1_555 1_555
C21 C20 1_555 1_555
C22 C21 1_555 1_555
H12 C22 1_555 1_555
C23 C22 1_555 1_555
H13 C23 1_555 1_555
C24 N3 1_555 1_555
C25 C16 1_555 1_555
C26 C25 1_555 1_555
H14 C26 1_555 1_555
H15 C26 1_555 1_555
H16 C26 1_555 1_555
C27 C25 1_555 1_555
H17 C27 1_555 1_555
H18 C27 1_555 1_555
H19 C27 1_555 1_555
C28 C25 1_555 1_555
H20 C28 1_555 1_555
H21 C28 1_555 1_555
H22 C28 1_555 1_555
C29 C21 1_555 1_555
C30 C29 1_555 1_555
H23 C30 1_555 1_555
H24 C30 1_555 1_555
H25 C30 1_555 1_555
C31 C29 1_555 1_555
H26 C31 1_555 1_555
H27 C31 1_555 1_555
H28 C31 1_555 1_555
C32 C29 1_555 1_555
H29 C32 1_555 1_555
H30 C32 1_555 1_555
H31 C32 1_555 1_555
C3 C4 1_555 1_555
C5 C6 1_555 1_555
C11 C12 1_555 1_555
C17 C18 1_555 1_555
C19 C24 1_555 1_555
C23 C24 1_555 1_555

#END
