
#######################################################################
#
#                 Cambridge Crystallographic Data Centre
#                                CCDC 
#
#######################################################################
#
# If this CIF has been generated from an entry in the Cambridge 
# Structural Database, then it will include bibliographic, chemical, 
# crystal, experimental, refinement or atomic coordinate data resulting 
# from the CCDC's data processing and validation procedures.
#
#######################################################################

data_CILHIO02
_chemical_formula_moiety         'C10 H8 S8 1+,C10 H8 S8,I3 1-'
_chemical_name_systematic        
'bis(bis(Ethylenedithio)-tetrathiafulvalene) tri-iodide'
_symmetry_cell_setting           triclinic
_symmetry_space_group_name_H-M   'P -1'
_symmetry_Int_Tables_number      2
_space_group_name_Hall           '-P 1'
loop_
_symmetry_equiv_pos_site_id
_symmetry_equiv_pos_as_xyz
1 x,y,z
2 -x,-y,-z
_cell_length_a                   6.615(1)
_cell_length_b                   9.100(1)
_cell_length_c                   15.286(2)
_cell_angle_alpha                94.38(1)
_cell_angle_beta                 95.59(1)
_cell_angle_gamma                109.78(1)
_cell_volume                     855.863
_exptl_crystal_colour            'dark brown'
_cell_formula_units_Z            1
loop_
_atom_site_label
_atom_site_type_symbol
_atom_site_fract_x
_atom_site_fract_y
_atom_site_fract_z
I1 I 0.0000 0.0000 0.0000
I2 I 0.4020(1) 0.2530(1) -0.0148(1)
I2A I -0.4020(1) -0.2530(1) 0.0148(1)
S1 S 0.4619(1) -0.2614(1) 0.4479(1)
S2 S 0.0969(2) -0.1471(1) 0.4304(1)
S3 S 0.2804(1) -0.4306(1) 0.6193(1)
S4 S -0.0812(1) -0.3125(1) 0.5983(1)
S5 S 0.6394(2) -0.1371(1) 0.2891(1)
S6 S 0.2099(2) 0.0060(2) 0.2705(1)
S7 S 0.1983(2) -0.5404(1) 0.7929(1)
S8 S -0.2349(2) -0.3961(1) 0.7679(1)
C1 C 0.2286(5) -0.2544(4) 0.4881(2)
C2 C 0.1524(5) -0.3249(4) 0.5593(2)
C3 C 0.4404(5) -0.1574(4) 0.3584(2)
C4 C 0.2723(5) -0.1035(4) 0.3498(2)
C5 C 0.1179(5) -0.4517(4) 0.7052(2)
C6 C -0.0468(5) -0.3963(4) 0.6956(2)
C7 C 0.6268(7) 0.0291(5) 0.2379(3)
C8 C 0.4085(7) 0.0196(6) 0.1979(3)
C9 C 0.0109(13) -0.5275(14) 0.8660(4)
C10 C -0.1499(15) -0.4896(13) 0.8531(5)
loop_
_geom_bond_atom_site_label_1
_geom_bond_atom_site_label_2
_geom_bond_site_symmetry_1
_geom_bond_site_symmetry_2
S1 C1 1_555 1_555
S2 C1 1_555 1_555
S3 C2 1_555 1_555
S4 C2 1_555 1_555
S5 C3 1_555 1_555
S6 C4 1_555 1_555
S7 C5 1_555 1_555
S8 C6 1_555 1_555
C1 C2 1_555 1_555
C3 S1 1_555 1_555
C4 S2 1_555 1_555
C5 S3 1_555 1_555
C6 S4 1_555 1_555
C7 S5 1_555 1_555
C8 S6 1_555 1_555
C9 S7 1_555 1_555
C10 S8 1_555 1_555
I1 I2 1_555 1_555
I2A I1 1_555 1_555
C3 C4 1_555 1_555
C5 C6 1_555 1_555
C7 C8 1_555 1_555
C9 C10 1_555 1_555

#END
