
#######################################################################
#
#                 Cambridge Crystallographic Data Centre
#                                CCDC 
#
#######################################################################
#
# If this CIF has been generated from an entry in the Cambridge 
# Structural Database, then it will include bibliographic, chemical, 
# crystal, experimental, refinement or atomic coordinate data resulting 
# from the CCDC's data processing and validation procedures.
#
#######################################################################

data_CILHIO08
_chemical_formula_moiety         'C10 H8 S8 1+,C10 H8 S8,I3 1-'
_chemical_name_systematic        
'bis(bis(Ethylenedithio)-tetrathiafulvalene) tri-iodide'
_symmetry_cell_setting           triclinic
_symmetry_space_group_name_H-M   'P -1'
_symmetry_Int_Tables_number      2
_space_group_name_Hall           '-P 1'
loop_
_symmetry_equiv_pos_site_id
_symmetry_equiv_pos_as_xyz
1 x,y,z
2 -x,-y,-z
_cell_length_a                   6.433(4)
_cell_length_b                   8.947(7)
_cell_length_c                   14.927(19)
_cell_angle_alpha                95.15(9)
_cell_angle_beta                 96.77(8)
_cell_angle_gamma                111.40(5)
_cell_volume                     786.095
_cell_formula_units_Z            1
loop_
_atom_site_label
_atom_site_type_symbol
_atom_site_fract_x
_atom_site_fract_y
_atom_site_fract_z
I1 I 0.000 0.000 0.000
I2 I 0.427(2) 0.243(2) -0.023(2)
I2A I -0.427(2) -0.243(2) 0.023(2)
S1 S 0.465(4) -0.264(4) 0.445(3)
S2 S 0.101(4) -0.140(4) 0.436(3)
S3 S 0.283(4) -0.436(4) 0.621(3)
S4 S -0.094(3) -0.320(3) 0.598(3)
S5 S 0.620(4) -0.156(4) 0.270(4)
S6 S 0.192(4) 0.007(4) 0.263(3)
S7 S 0.203(4) -0.552(4) 0.796(3)
S8 S -0.250(4) -0.413(4) 0.763(3)
C1 C 0.225(2) -0.255(2) 0.487(2)
C2 C 0.146(2) -0.334(2) 0.557(2)
C3 C 0.439(2) -0.156(2) 0.357(1)
C4 C 0.269(2) -0.103(2) 0.349(1)
C5 C 0.120(2) -0.457(2) 0.711(1)
C6 C -0.052(2) -0.404(2) 0.699(2)
C7 C 0.636(2) 0.040(2) 0.239(2)
C8 C 0.412(2) 0.032(2) 0.194(2)
C9 C -0.044(2) -0.595(2) 0.853(2)
C10 C -0.096(2) -0.440(2) 0.878(2)
H1 H 0.761(4) 0.066(4) 0.195(3)
H2 H 0.694(6) 0.126(6) 0.279(5)
H3 H 0.432(4) 0.148(4) 0.168(4)
H4 H 0.348(6) -0.061(5) 0.140(5)
H5 H -0.174(6) -0.680(5) 0.828(4)
H6 H 0.017(4) -0.626(4) 0.917(3)
H7 H -0.231(5) -0.464(4) 0.920(4)
H8 H 0.044(5) -0.335(5) 0.906(4)
loop_
_geom_bond_atom_site_label_1
_geom_bond_atom_site_label_2
_geom_bond_site_symmetry_1
_geom_bond_site_symmetry_2
S1 C1 1_555 1_555
S2 C1 1_555 1_555
S3 C2 1_555 1_555
S4 C2 1_555 1_555
S5 C3 1_555 1_555
S6 C4 1_555 1_555
S7 C5 1_555 1_555
S8 C6 1_555 1_555
C1 C2 1_555 1_555
C3 S1 1_555 1_555
C4 S2 1_555 1_555
C5 S3 1_555 1_555
C6 S4 1_555 1_555
C7 S5 1_555 1_555
C8 S6 1_555 1_555
C9 S7 1_555 1_555
C10 S8 1_555 1_555
H1 C7 1_555 1_555
H2 C7 1_555 1_555
H3 C8 1_555 1_555
H4 C8 1_555 1_555
H5 C9 1_555 1_555
H6 C9 1_555 1_555
H7 C10 1_555 1_555
H8 C10 1_555 1_555
I1 I2 1_555 1_555
I2A I1 1_555 1_555
C3 C4 1_555 1_555
C5 C6 1_555 1_555
C7 C8 1_555 1_555
C9 C10 1_555 1_555

#END
