
#######################################################################
#
#                 Cambridge Crystallographic Data Centre
#                                CCDC 
#
#######################################################################
#
# If this CIF has been generated from an entry in the Cambridge 
# Structural Database, then it will include bibliographic, chemical, 
# crystal, experimental, refinement or atomic coordinate data resulting 
# from the CCDC's data processing and validation procedures.
#
#######################################################################

data_CILHIO31
_chemical_formula_moiety         'C10 H8 S8 1+,C10 H8 S8,I3 1-'
_chemical_name_systematic        
'bis(bis(Ethylenedithio)tetrathiafulvalene) tri-iodide'
_symmetry_cell_setting           triclinic
_symmetry_space_group_name_H-M   'P -1'
_symmetry_Int_Tables_number      2
_space_group_name_Hall           '-P 1'
loop_
_symmetry_equiv_pos_site_id
_symmetry_equiv_pos_as_xyz
1 x,y,z
2 -x,-y,-z
_cell_length_a                   6.46590
_cell_length_b                   9.25730
_cell_length_c                   15.27251
_cell_angle_alpha                98.2770
_cell_angle_beta                 89.7480
_cell_angle_gamma                108.9131
_cell_volume                     854.928
_exptl_crystal_description       hexagon
_cell_formula_units_Z            1
loop_
_atom_site_label
_atom_site_type_symbol
_atom_site_fract_x
_atom_site_fract_y
_atom_site_fract_z
I1 I 0.4925(13) 1.2468(9) 0.4978(4)
I2 I 0.3446(8) 0.9192(5) 0.5149(3)
I3 I 0.3610(7) 1.4271(4) 0.5140(2)
I2A I 0.6554(8) 1.0808(5) 0.4851(3)
I3A I 0.6390(7) 1.5729(4) 0.4860(2)
I1A I 0.5075(13) 0.7532(9) 0.5022(4)
I1A_2 I 0.5075(13) 1.7532(9) 0.5022(4)
S1 S 0.2765(10) 0.5025(8) -0.2119(4)
S2 S -0.2949(10) 0.3569(8) -0.2303(4)
S3 S 0.2223(8) 0.3501(7) -0.0517(4)
S4 S -0.2550(9) 0.2239(7) -0.0701(4)
S5 S 0.2114(8) 0.1767(7) 0.1187(3)
S6 S -0.2678(8) 0.0531(7) 0.0984(4)
S7 S 0.2366(10) 0.0797(8) 0.2928(4)
S8 S -0.3389(10) -0.0666(8) 0.2689(4)
C1 C 0.0508(21) 0.0075(27) 0.3714(14)
C2 C -0.1864(22) -0.0739(27) 0.3577(15)
C3 C 0.0751(19) 0.0864(20) 0.2037(12)
C4 C -0.1455(19) 0.0271(19) 0.1951(11)
C5 C -0.0262(20) 0.1612(18) 0.0585(11)
C6 C -0.0188(23) 0.2367(22) -0.0109(12)
C7 C 0.1004(17) 0.3933(18) -0.1429(12)
C8 C -0.1212(18) 0.3401(18) -0.1484(10)
C9 C 0.1013(22) 0.5781(19) -0.2649(14)
C10 C -0.1169(19) 0.4714(20) -0.3012(14)
loop_
_geom_bond_atom_site_label_1
_geom_bond_atom_site_label_2
_geom_bond_site_symmetry_1
_geom_bond_site_symmetry_2
S1 C7 1_555 1_555
S2 C8 1_555 1_555
S3 C6 1_555 1_555
S4 C6 1_555 1_555
S5 C3 1_555 1_555
S6 C4 1_555 1_555
S7 C1 1_555 1_555
S8 C2 1_555 1_555
C1 C2 1_555 1_555
C3 S7 1_555 1_555
C4 S8 1_555 1_555
C5 S5 1_555 1_555
C6 C5 1_555 1_555
C7 S3 1_555 1_555
C8 S4 1_555 1_555
C9 S1 1_555 1_555
C10 S2 1_555 1_555
I1 I2 1_555 1_555
I2 I2A 1_555 1_555
I3 I1 1_555 1_555
I2A I1 1_555 1_555
I3A I1 1_555 1_555
I1A I2 1_555 1_555
I1A_2 I3 1_555 1_555
S6 C5 1_555 1_555
C3 C4 1_555 1_555
C7 C8 1_555 1_555
C9 C10 1_555 1_555
I3 I3A 1_555 1_555
I2A I1A 1_555 1_555
I3A I1A_2 1_555 1_555

#END
