
#######################################################################
#
#                 Cambridge Crystallographic Data Centre
#                                CCDC 
#
#######################################################################
#
# If this CIF has been generated from an entry in the Cambridge 
# Structural Database, then it will include bibliographic, chemical, 
# crystal, experimental, refinement or atomic coordinate data resulting 
# from the CCDC's data processing and validation procedures.
#
#######################################################################

data_CILHIO20
_chemical_formula_moiety         'C10 H8 S8 1+,C10 H8 S8,I3 1-'
_chemical_name_systematic        
'\a-bis(bis(Ethylenedithio)tetrathiafulvalene) tri-iodide'
_symmetry_cell_setting           triclinic
_symmetry_space_group_name_H-M   'P -1'
_symmetry_Int_Tables_number      2
_space_group_name_Hall           '-P 1'
loop_
_symmetry_equiv_pos_site_id
_symmetry_equiv_pos_as_xyz
1 x,y,z
2 -x,-y,-z
_cell_length_a                   9.080(2)
_cell_length_b                   10.720(3)
_cell_length_c                   17.390(3)
_cell_angle_alpha                96.69(2)
_cell_angle_beta                 97.76(2)
_cell_angle_gamma                91.14(2)
_cell_volume                     1664.69
_cell_formula_units_Z            2
loop_
_atom_site_label
_atom_site_type_symbol
_atom_site_fract_x
_atom_site_fract_y
_atom_site_fract_z
I1 I 0.00000 0.50000 0.50000
I2 I 0.30976(4) 0.57531(4) 0.49370(2)
I2A I -0.30976(4) 0.42469(4) 0.50630(2)
I3 I 0.50000 0.00000 0.50000
I4 I 0.81000(2) -0.07490(2) 0.51240(2)
I4A I 0.19000(2) 0.07490(2) 0.48760(2)
S1 S 0.8913(2) -0.0599(1) 0.1135(1)
S2 S 0.7012(2) 0.1451(1) 0.0661(1)
S3 S 0.7227(2) 0.2884(1) 0.2206(1)
S4 S 0.9464(2) 0.0425(1) 0.2822(1)
S5 S 0.8344(2) -0.1946(1) -0.0678(1)
S6 S 0.6443(2) 0.0129(1) -0.1098(1)
S7 S 0.8123(2) -0.3264(1) -0.2265(1)
S8 S 0.5966(2) -0.0720(1) -0.2802(1)
C1 C 0.7835(6) 0.0039(5) 0.0383(3)
C2 C 0.8640(6) 0.0615(5) 0.1867(3)
C3 C 0.7752(6) 0.1559(5) 0.1653(3)
C4 C 0.8270(7) 0.2743(5) 0.3163(3)
C5 C 0.8272(7) 0.1421(6) 0.3380(3)
C6 C 0.7589(6) -0.0526(5) -0.0371(3)
C7 C 0.7650(6) -0.1954(5) -0.1668(3)
C8 C 0.6785(6) -0.0991(5) -0.1868(3)
C9 C 0.7463(6) -0.2876(5) -0.3239(3)
C10 C 0.5940(6) -0.2293(5) -0.3310(3)
S9 S 0.4144(2) 0.3224(1) 0.9335(1)
S10 S 0.5515(2) 0.5469(1) 0.8874(1)
S11 S 0.3551(2) 0.1855(1) 0.7764(1)
S12 S 0.5195(2) 0.4551(1) 0.7182(1)
C11 C 0.4909(7) 0.4725(5) 0.9624(3)
C12 C 0.4286(6) 0.3213(5) 0.8341(3)
C13 C 0.4911(7) 0.4255(5) 0.8116(3)
C14 C 0.4221(7) 0.2040(5) 0.6848(3)
C15 C 0.3981(6) 0.3341(5) 0.6583(3)
C11A C 0.5091(7) 0.5275(5) 1.0376(3)
S9A S 0.5856(2) 0.6776(1) 1.0665(1)
S10A S 0.4485(2) 0.4531(1) 1.1126(1)
C12A C 0.5714(6) 0.6787(5) 1.1659(3)
C13A C 0.5089(7) 0.5745(5) 1.1884(3)
S11A S 0.6449(2) 0.8145(1) 1.2236(1)
S12A S 0.4805(2) 0.5449(1) 1.2818(1)
C14A C 0.5779(7) 0.7960(5) 1.3152(3)
C15A C 0.6019(6) 0.6659(5) 1.3417(3)
S13 S 0.8790(2) 0.3341(1) 0.9326(1)
S14 S 1.0814(2) 0.5275(1) 0.8897(1)
S15 S 0.8172(2) 0.1942(1) 0.7756(1)
S16 S 1.0378(2) 0.4340(1) 0.7201(1)
C16 C 0.9918(6) 0.4718(5) 0.9625(3)
C17 C 0.9068(6) 0.3253(5) 0.8342(3)
C18 C 0.9973(6) 0.4142(5) 0.8135(3)
C19 C 0.8337(6) 0.2319(5) 0.6779(3)
C20 C 0.9887(6) 0.2779(5) 0.6689(3)
C16A C 1.0082(6) 0.5282(5) 1.0375(3)
S13A S 1.1210(2) 0.6659(1) 1.0674(1)
S14A S 0.9186(2) 0.4725(1) 1.1103(1)
C17A C 1.0932(6) 0.6747(5) 1.1658(3)
C18A C 1.0027(6) 0.5858(5) 1.1865(3)
S15A S 1.1828(2) 0.8058(1) 1.2244(1)
S16A S 0.9622(2) 0.5660(1) 1.2799(1)
C19A C 1.1663(6) 0.7681(5) 1.3221(3)
C20A C 1.0113(6) 0.7221(5) 1.3311(3)
loop_
_geom_bond_atom_site_label_1
_geom_bond_atom_site_label_2
_geom_bond_site_symmetry_1
_geom_bond_site_symmetry_2
I1 I2 1_555 1_555
I3 I4 1_555 1_555
S1 C1 1_555 1_555
S2 C1 1_555 1_555
S3 C3 1_555 1_555
S4 C2 1_555 1_555
S5 C6 1_555 1_555
S6 C6 1_555 1_555
S7 C7 1_555 1_555
S8 C8 1_555 1_555
C1 C6 1_555 1_555
C2 S1 1_555 1_555
C3 S2 1_555 1_555
C4 S3 1_555 1_555
C5 S4 1_555 1_555
C7 S5 1_555 1_555
C8 S6 1_555 1_555
C9 S7 1_555 1_555
C10 S8 1_555 1_555
S9 C11 1_555 1_555
S10 C11 1_555 1_555
S11 C12 1_555 1_555
S12 C13 1_555 1_555
C11 C11A 1_555 1_555
C12 S9 1_555 1_555
C13 S10 1_555 1_555
C14 S11 1_555 1_555
C15 S12 1_555 1_555
S13 C16 1_555 1_555
S14 C16 1_555 1_555
S15 C17 1_555 1_555
S16 C18 1_555 1_555
C16 C16A 1_555 1_555
C17 S13 1_555 1_555
C18 S14 1_555 1_555
C19 S15 1_555 1_555
C20 S16 1_555 1_555
I2A I1 1_555 1_555
I4A I3 1_555 1_555
C11A S9A 1_555 1_555
S9A C12A 1_555 1_555
S10A C11A 1_555 1_555
C12A C13A 1_555 1_555
C13A S10A 1_555 1_555
S11A C12A 1_555 1_555
S12A C13A 1_555 1_555
C14A S11A 1_555 1_555
C15A S12A 1_555 1_555
C16A S13A 1_555 1_555
S13A C17A 1_555 1_555
S14A C16A 1_555 1_555
C17A C18A 1_555 1_555
C18A S14A 1_555 1_555
S15A C17A 1_555 1_555
S16A C18A 1_555 1_555
C19A S15A 1_555 1_555
C20A S16A 1_555 1_555
C2 C3 1_555 1_555
C4 C5 1_555 1_555
C7 C8 1_555 1_555
C9 C10 1_555 1_555
C12 C13 1_555 1_555
C14 C15 1_555 1_555
C17 C18 1_555 1_555
C19 C20 1_555 1_555
C14A C15A 1_555 1_555
C19A C20A 1_555 1_555

#END
