
#######################################################################
#
#                 Cambridge Crystallographic Data Centre
#                                CCDC 
#
#######################################################################
#
# If this CIF has been generated from an entry in the Cambridge 
# Structural Database, then it will include bibliographic, chemical, 
# crystal, experimental, refinement or atomic coordinate data resulting 
# from the CCDC's data processing and validation procedures.
#
#######################################################################

data_CILHIO21
_chemical_formula_moiety         'C10 H8 S8 1+,C10 H8 S8,I3 1-'
_chemical_name_systematic        
'\a-bis(bis(Ethylenedithio)tetrathiafulvalene) tri-iodide'
_symmetry_cell_setting           triclinic
_symmetry_space_group_name_H-M   'P -1'
_symmetry_Int_Tables_number      2
_space_group_name_Hall           '-P 1'
loop_
_symmetry_equiv_pos_site_id
_symmetry_equiv_pos_as_xyz
1 x,y,z
2 -x,-y,-z
_cell_length_a                   9.183(1)
_cell_length_b                   10.804(2)
_cell_length_c                   17.442(2)
_cell_angle_alpha                96.96(1)
_cell_angle_beta                 97.93(1)
_cell_angle_gamma                90.85(1)
_cell_volume                     1700.42
_cell_formula_units_Z            2
loop_
_atom_site_label
_atom_site_type_symbol
_atom_site_fract_x
_atom_site_fract_y
_atom_site_fract_z
I1 I 0.00000 0.50000 0.50000
I2 I 0.30670(2) 0.57150(2) 0.49400(2)
I2A I -0.30670(2) 0.42850(2) 0.50600(2)
I3 I 0.50000 0.00000 0.50000
I4 I 0.80880(2) -0.06850(2) 0.51190(2)
I4A I 0.19120(2) 0.06850(2) 0.48810(2)
S1 S 0.8876(2) -0.0578(2) 0.1129(2)
S2 S 0.7011(2) 0.1467(2) 0.0659(2)
S3 S 0.7225(2) 0.2886(2) 0.2202(2)
S4 S 0.9421(2) 0.0434(2) 0.2808(2)
S5 S 0.8314(2) -0.1920(2) -0.0678(2)
S6 S 0.6447(2) 0.0147(2) -0.1101(2)
S7 S 0.8107(2) -0.3232(2) -0.2260(2)
S8 S 0.5965(2) -0.0720(2) -0.2797(2)
C1 C 0.7798(2) 0.0058(2) 0.0377(2)
C2 C 0.8599(2) 0.0622(2) 0.1865(2)
C3 C 0.7747(2) 0.1562(2) 0.1643(2)
C4 C 0.8269(2) 0.2769(2) 0.3151(2)
C5 C 0.8293(2) 0.1449(2) 0.3372(2)
C6 C 0.7567(2) -0.0498(2) -0.0374(2)
C7 C 0.7630(2) -0.1929(2) -0.1670(2)
C8 C 0.6782(2) -0.0975(2) -0.1865(2)
C9 C 0.7464(2) -0.2850(2) -0.3230(2)
C10 C 0.5955(2) -0.2289(2) -0.3304(2)
S9 S 0.4153(2) 0.3236(2) 0.9334(2)
S10 S 0.5517(2) 0.5457(2) 0.8879(2)
S11 S 0.3555(2) 0.1886(2) 0.7764(2)
S12 S 0.5164(2) 0.4547(2) 0.7192(2)
C11 C 0.4930(2) 0.4726(2) 0.9623(2)
C12 C 0.4285(2) 0.3237(2) 0.8344(2)
C13 C 0.4899(2) 0.4254(2) 0.8127(2)
C14 C 0.4205(2) 0.2063(2) 0.6856(2)
C15 C 0.3973(2) 0.3338(2) 0.6590(2)
C11A C 0.5070(2) 0.5274(2) 1.0377(2)
S9A S 0.5847(2) 0.6764(2) 1.0666(2)
S10A S 0.4483(2) 0.4543(2) 1.1121(2)
C12A C 0.5715(2) 0.6763(2) 1.1656(2)
C13A C 0.5101(2) 0.5746(2) 1.1873(2)
S11A S 0.6445(2) 0.8114(2) 1.2236(2)
S12A S 0.4836(2) 0.5453(2) 1.2808(2)
C14A C 0.5795(2) 0.7937(2) 1.3144(2)
C15A C 0.6027(2) 0.6662(2) 1.3410(2)
S13 S 0.8831(2) 0.3348(2) 0.9328(2)
S14 S 1.0771(2) 0.5273(2) 0.8898(2)
S15 S 0.8193(2) 0.1961(2) 0.7763(2)
S16 S 1.0354(2) 0.4327(2) 0.7211(2)
C16 C 0.9917(2) 0.4714(2) 0.9627(2)
C17 C 0.9096(2) 0.3251(2) 0.8348(2)
C18 C 0.9961(2) 0.4133(2) 0.8144(2)
C19 C 0.8331(2) 0.2335(2) 0.6793(2)
C20 C 0.9876(2) 0.2788(2) 0.6703(2)
C16A C 1.0083(2) 0.5286(2) 1.0373(2)
S13A S 1.1169(2) 0.6652(2) 1.0672(2)
S14A S 0.9229(2) 0.4727(2) 1.1102(2)
C17A C 1.0904(2) 0.6749(2) 1.1652(2)
C18A C 1.0039(2) 0.5867(2) 1.1856(2)
S15A S 1.1807(2) 0.8039(2) 1.2237(2)
S16A S 0.9646(2) 0.5673(2) 1.2789(2)
C19A C 1.1669(2) 0.7665(2) 1.3207(2)
C20A C 1.0124(2) 0.7212(2) 1.3297(2)
loop_
_geom_bond_atom_site_label_1
_geom_bond_atom_site_label_2
_geom_bond_site_symmetry_1
_geom_bond_site_symmetry_2
I1 I2 1_555 1_555
I3 I4 1_555 1_555
S1 C1 1_555 1_555
S2 C1 1_555 1_555
S3 C3 1_555 1_555
S4 C2 1_555 1_555
S5 C6 1_555 1_555
S6 C6 1_555 1_555
S7 C7 1_555 1_555
S8 C8 1_555 1_555
C1 C6 1_555 1_555
C2 S1 1_555 1_555
C3 S2 1_555 1_555
C4 S3 1_555 1_555
C5 S4 1_555 1_555
C7 S5 1_555 1_555
C8 S6 1_555 1_555
C9 S7 1_555 1_555
C10 S8 1_555 1_555
S9 C11 1_555 1_555
S10 C11 1_555 1_555
S11 C12 1_555 1_555
S12 C13 1_555 1_555
C11 C11A 1_555 1_555
C12 S9 1_555 1_555
C13 S10 1_555 1_555
C14 S11 1_555 1_555
C15 S12 1_555 1_555
S13 C16 1_555 1_555
S14 C16 1_555 1_555
S15 C17 1_555 1_555
S16 C18 1_555 1_555
C16 C16A 1_555 1_555
C17 S13 1_555 1_555
C18 S14 1_555 1_555
C19 S15 1_555 1_555
C20 S16 1_555 1_555
I2A I1 1_555 1_555
I4A I3 1_555 1_555
C11A S9A 1_555 1_555
S9A C12A 1_555 1_555
S10A C11A 1_555 1_555
C12A C13A 1_555 1_555
C13A S10A 1_555 1_555
S11A C12A 1_555 1_555
S12A C13A 1_555 1_555
C14A S11A 1_555 1_555
C15A S12A 1_555 1_555
C16A S13A 1_555 1_555
S13A C17A 1_555 1_555
S14A C16A 1_555 1_555
C17A C18A 1_555 1_555
C18A S14A 1_555 1_555
S15A C17A 1_555 1_555
S16A C18A 1_555 1_555
C19A S15A 1_555 1_555
C20A S16A 1_555 1_555
C2 C3 1_555 1_555
C4 C5 1_555 1_555
C7 C8 1_555 1_555
C9 C10 1_555 1_555
C12 C13 1_555 1_555
C14 C15 1_555 1_555
C17 C18 1_555 1_555
C19 C20 1_555 1_555
C14A C15A 1_555 1_555
C19A C20A 1_555 1_555

#END
