
#######################################################################
#
#                 Cambridge Crystallographic Data Centre
#                                CCDC 
#
#######################################################################
#
# If this CIF has been generated from an entry in the Cambridge 
# Structural Database, then it will include bibliographic, chemical, 
# crystal, experimental, refinement or atomic coordinate data resulting 
# from the CCDC's data processing and validation procedures.
#
#######################################################################

data_CILNOD
_chemical_formula_moiety         'C19 H22 N2 O1'
_chemical_name_systematic        
4-[3-phenyl-1-(pyridin-2-yl)but-2-en-1-yl]morpholine
_symmetry_cell_setting           triclinic
_symmetry_space_group_name_H-M   'P -1'
_symmetry_Int_Tables_number      2
_space_group_name_Hall           '-P 1'
loop_
_symmetry_equiv_pos_site_id
_symmetry_equiv_pos_as_xyz
1 x,y,z
2 -x,-y,-z
_cell_length_a                   9.656(7)
_cell_length_b                   10.040(7)
_cell_length_c                   10.588(7)
_cell_angle_alpha                85.578(9)
_cell_angle_beta                 64.071(8)
_cell_angle_gamma                65.750(8)
_cell_volume                     835.083
_exptl_crystal_colour            colorless
_exptl_crystal_description       block
_cell_formula_units_Z            2
loop_
_atom_site_label
_atom_site_type_symbol
_atom_site_fract_x
_atom_site_fract_y
_atom_site_fract_z
C1 C 0.8908(2) 0.7811(2) 0.6142(2)
H1 H 0.8909 0.8756 0.6310
C2 C 1.0168(2) 0.6612(2) 0.6541(2)
H2 H 1.0579 0.5665 0.6113
C3 C 1.0766(2) 0.6726(2) 0.7421(2)
C4 C 1.0189(3) 0.8158(2) 0.8257(3)
H3 H 0.9331 0.8926 0.8064
H4 H 1.1137 0.8399 0.7989
H5 H 0.9733 0.8062 0.9249
C5 C 1.2060(3) 0.5391(2) 0.7633(2)
C6 C 1.1963(3) 0.5103(3) 0.8965(2)
H6 H 1.1093 0.5777 0.9751
C7 C 1.3138(4) 0.3830(3) 0.9142(3)
H7 H 1.3035 0.3648 1.0047
C8 C 1.4446(3) 0.2840(3) 0.8001(3)
H8 H 1.5231 0.1984 0.8125
C9 C 1.4593(3) 0.3116(3) 0.6678(3)
H9 H 1.5492 0.2449 0.5898
C10 C 1.3414(3) 0.4385(3) 0.6478(3)
H10 H 1.3533 0.4559 0.5569
C11 C 0.7152(3) 0.7880(2) 0.7053(2)
C12 C 0.6702(3) 0.6799(3) 0.6876(2)
H11 H 0.7480 0.6007 0.6171
C13 C 0.5103(3) 0.6890(3) 0.7742(3)
H12 H 0.4779 0.6174 0.7622
C14 C 0.4002(3) 0.8058(3) 0.8782(3)
H13 H 0.2911 0.8156 0.9385
C15 C 0.4540(3) 0.9070(3) 0.8912(3)
H14 H 0.3786 0.9856 0.9629
C16 C 1.1100(3) 0.7417(3) 0.3724(2)
H15 H 1.1912 0.6670 0.3997
H16 H 1.1128 0.8353 0.3841
C17 C 1.1576(3) 0.7031(3) 0.2197(2)
H17 H 1.2720 0.6940 0.1607
H18 H 1.1562 0.6087 0.2084
C18 C 0.8764(3) 0.8265(3) 0.2622(2)
H19 H 0.8703 0.7346 0.2499
H20 H 0.7983 0.9027 0.2332
C19 C 0.8224(3) 0.8647(3) 0.4167(2)
H21 H 0.8215 0.9594 0.4308
H22 H 0.7084 0.8718 0.4731
N1 N 0.94005(19) 0.75098(18) 0.46283(16)
N2 N 0.6092(2) 0.9012(2) 0.8074(2)
O1 O 1.0437(2) 0.81216(18) 0.17425(16)
loop_
_geom_bond_atom_site_label_1
_geom_bond_atom_site_label_2
_geom_bond_site_symmetry_1
_geom_bond_site_symmetry_2
C1 H1 1_555 1_555
C2 C1 1_555 1_555
H2 C2 1_555 1_555
C3 C2 1_555 1_555
C4 C3 1_555 1_555
H3 C4 1_555 1_555
H4 C4 1_555 1_555
H5 C4 1_555 1_555
C5 C3 1_555 1_555
C6 C5 1_555 1_555
H6 C6 1_555 1_555
C7 C6 1_555 1_555
H7 C7 1_555 1_555
C8 C7 1_555 1_555
H8 C8 1_555 1_555
C9 C8 1_555 1_555
H9 C9 1_555 1_555
C10 C5 1_555 1_555
H10 C10 1_555 1_555
C11 C1 1_555 1_555
C12 C11 1_555 1_555
H11 C12 1_555 1_555
C13 C12 1_555 1_555
H12 C13 1_555 1_555
C14 C13 1_555 1_555
H13 C14 1_555 1_555
C15 C14 1_555 1_555
H14 C15 1_555 1_555
C16 H15 1_555 1_555
H16 C16 1_555 1_555
C17 C16 1_555 1_555
H17 C17 1_555 1_555
H18 C17 1_555 1_555
C18 H19 1_555 1_555
H20 C18 1_555 1_555
C19 C18 1_555 1_555
H21 C19 1_555 1_555
H22 C19 1_555 1_555
N1 C1 1_555 1_555
N2 C11 1_555 1_555
O1 C17 1_555 1_555
C9 C10 1_555 1_555
C15 N2 1_555 1_555
C16 N1 1_555 1_555
C18 O1 1_555 1_555
C19 N1 1_555 1_555

#END
