
#######################################################################
#
#                 Cambridge Crystallographic Data Centre
#                                CCDC 
#
#######################################################################
#
# If this CIF has been generated from an entry in the Cambridge 
# Structural Database, then it will include bibliographic, chemical, 
# crystal, experimental, refinement or atomic coordinate data resulting 
# from the CCDC's data processing and validation procedures.
#
#######################################################################

data_CILQIY
_chemical_formula_moiety         'C15 H19 N1 O4'
_chemical_name_systematic        
'Methyl 2-acetyl-3-acetamido-3-(4-methylphenyl)propionate'
_symmetry_cell_setting           monoclinic
_symmetry_space_group_name_H-M   'P 21/c'
_symmetry_Int_Tables_number      14
_space_group_name_Hall           '-P 2ybc'
loop_
_symmetry_equiv_pos_site_id
_symmetry_equiv_pos_as_xyz
1 x,y,z
2 -x,1/2+y,1/2-z
3 -x,-y,-z
4 x,1/2-y,1/2+z
_cell_length_a                   18.198(6)
_cell_length_b                   5.1498(16)
_cell_length_c                   15.990(5)
_cell_angle_alpha                90
_cell_angle_beta                 99.836(5)
_cell_angle_gamma                90
_cell_volume                     1476.49
_exptl_crystal_colour            colorless
_exptl_crystal_description       needle
_cell_formula_units_Z            4
_exptl_crystal_recrystallization_method 'n-hexane/ethyl acetate'
loop_
_atom_site_label
_atom_site_type_symbol
_atom_site_fract_x
_atom_site_fract_y
_atom_site_fract_z
N1 N 0.34575(12) 0.9106(4) 0.48159(14)
H1 H 0.3561 1.0632 0.4651
O1 O 0.36283(11) 0.4784(4) 0.46969(13)
O2 O 0.42297(11) 0.8873(4) 0.65751(13)
O3 O 0.25746(11) 0.8485(4) 0.70877(12)
O4 O 0.20142(11) 1.2312(4) 0.67311(12)
C1 C 0.21134(15) 0.8927(6) 0.49123(17)
C2 C 0.15966(16) 0.7126(6) 0.50622(19)
H2 H 0.1738 0.5824 0.5460
C3 C 0.08734(17) 0.7208(7) 0.4635(2)
H3 H 0.0537 0.5940 0.4741
C4 C 0.06376(17) 0.9148(8) 0.4051(2)
C5 C 0.11507(18) 1.1010(7) 0.3908(2)
H4 H 0.1006 1.2341 0.3522
C6 C 0.18840(17) 1.0902(7) 0.43394(18)
H5 H 0.2223 1.2171 0.4241
C7 C -0.01613(19) 0.9265(9) 0.3576(2)
H6 H -0.0190 1.0453 0.3109
H7 H -0.0484 0.9847 0.3955
H8 H -0.0314 0.7569 0.3366
C8 C 0.29134(14) 0.8816(5) 0.53876(17)
H9 H 0.2992 0.7117 0.5665
C9 C 0.37971(15) 0.7039(6) 0.45458(17)
C10 C 0.44044(15) 0.7605(6) 0.40538(19)
H10 H 0.4858 0.6795 0.4326
H11 H 0.4477 0.9448 0.4031
H12 H 0.4269 0.6935 0.3488
C11 C 0.30495(14) 1.0916(6) 0.60757(17)
H13 H 0.3004 1.2624 0.5801
C12 C 0.38259(16) 1.0705(6) 0.66341(17)
C13 C 0.40355(17) 1.2842(7) 0.7250(2)
H14 H 0.4042 1.4454 0.6950
H15 H 0.4522 1.2511 0.7572
H16 H 0.3679 1.2944 0.7627
C14 C 0.24776(16) 1.0719(6) 0.66567(17)
C15 C 0.20687(18) 0.7905(7) 0.76591(19)
H17 H 0.1565 0.7997 0.7359
H18 H 0.2136 0.9140 0.8115
H19 H 0.2167 0.6188 0.7885
loop_
_geom_bond_atom_site_label_1
_geom_bond_atom_site_label_2
_geom_bond_site_symmetry_1
_geom_bond_site_symmetry_2
N1 H1 1_555 1_555
O1 C9 1_555 1_555
O2 C12 1_555 1_555
O3 C14 1_555 1_555
O4 C14 1_555 1_555
C1 C2 1_555 1_555
C2 H2 1_555 1_555
C3 C2 1_555 1_555
H3 C3 1_555 1_555
C4 C3 1_555 1_555
C5 C4 1_555 1_555
H4 C5 1_555 1_555
C6 C1 1_555 1_555
H5 C6 1_555 1_555
C7 C4 1_555 1_555
H6 C7 1_555 1_555
H7 C7 1_555 1_555
H8 C7 1_555 1_555
C8 N1 1_555 1_555
H9 C8 1_555 1_555
C9 N1 1_555 1_555
C10 C9 1_555 1_555
H10 C10 1_555 1_555
H11 C10 1_555 1_555
H12 C10 1_555 1_555
C11 C8 1_555 1_555
H13 C11 1_555 1_555
C12 C11 1_555 1_555
C13 C12 1_555 1_555
H14 C13 1_555 1_555
H15 C13 1_555 1_555
H16 C13 1_555 1_555
C14 C11 1_555 1_555
C15 O3 1_555 1_555
H17 C15 1_555 1_555
H18 C15 1_555 1_555
H19 C15 1_555 1_555
C1 C8 1_555 1_555
C5 C6 1_555 1_555

#END
