
#######################################################################
#
#                 Cambridge Crystallographic Data Centre
#                                CCDC 
#
#######################################################################
#
# If this CIF has been generated from an entry in the Cambridge 
# Structural Database, then it will include bibliographic, chemical, 
# crystal, experimental, refinement or atomic coordinate data resulting 
# from the CCDC's data processing and validation procedures.
#
#######################################################################

data_CILQIA
_chemical_formula_moiety         'C26 H24 N2 O3'
_chemical_name_systematic        
8-benzyl-5-(2-hydroxy-5-methylphenyl)-1,2,3,4,5,8-hexahydroazepino[2,3-e]indole-9,10-dione
_symmetry_cell_setting           triclinic
_symmetry_space_group_name_H-M   'P -1'
_symmetry_Int_Tables_number      2
_space_group_name_Hall           '-P 1'
loop_
_symmetry_equiv_pos_site_id
_symmetry_equiv_pos_as_xyz
1 x,y,z
2 -x,-y,-z
_cell_length_a                   7.4591(17)
_cell_length_b                   12.033(3)
_cell_length_c                   12.1333(18)
_cell_angle_alpha                102.784(17)
_cell_angle_beta                 94.976(16)
_cell_angle_gamma                99.04(2)
_cell_volume                     1040.46
_exptl_crystal_colour            white
_exptl_crystal_description       block
_cell_formula_units_Z            2
loop_
_atom_site_label
_atom_site_type_symbol
_atom_site_fract_x
_atom_site_fract_y
_atom_site_fract_z
N1 N 0.0868(7) -0.0760(4) 0.1640(4)
N2 N -0.2726(7) 0.1872(4) 0.0878(4)
H1 H -0.3345 0.1267 0.0401
O1 O -0.1270(6) -0.2418(4) 0.0875(4)
O2 O -0.3521(6) -0.0694(4) 0.0431(4)
O3 O 0.2367(7) 0.4745(4) 0.0196(4)
H2 H 0.1844 0.4069 0.0070
C1 C 0.0768(10) -0.2224(7) 0.3555(7)
H3 H 0.0233 -0.2830 0.2938
C2 C 0.0385(12) -0.2275(9) 0.4638(10)
H4 H -0.0393 -0.2913 0.4751
C3 C 0.1153(15) -0.1384(11) 0.5540(9)
H5 H 0.0882 -0.1416 0.6267
C4 C 0.2282(16) -0.0470(10) 0.5400(10)
H6 H 0.2807 0.0135 0.6019
C5 C 0.2669(11) -0.0442(7) 0.4274(9)
H7 H 0.3461 0.0187 0.4155
C6 C 0.1892(9) -0.1321(6) 0.3381(7)
C7 C 0.2243(8) -0.1281(5) 0.2176(6)
H8 H 0.3450 -0.0832 0.2193
H9 H 0.2214 -0.2061 0.1730
C8 C -0.0785(10) -0.1366(6) 0.1110(5)
C9 C -0.1932(10) -0.0452(6) 0.0877(5)
C10 C -0.0739(8) 0.0637(5) 0.1301(5)
C11 C 0.0919(8) 0.0438(5) 0.1786(5)
C12 C 0.2291(8) 0.1327(5) 0.2280(5)
H10 H 0.3411 0.1202 0.2580
C13 C 0.1957(8) 0.2447(5) 0.2322(5)
H11 H 0.2890 0.3061 0.2684
C14 C 0.0365(8) 0.2722(5) 0.1874(5)
C15 C -0.1085(8) 0.1754(5) 0.1361(5)
C16 C -0.3583(8) 0.2904(6) 0.1067(6)
H12 H -0.4899 0.2668 0.0880
H13 H -0.3155 0.3385 0.0565
C17 C -0.3147(8) 0.3593(5) 0.2275(6)
H14 H -0.3200 0.3061 0.2771
H15 H -0.4087 0.4056 0.2442
C18 C -0.1284(8) 0.4396(5) 0.2561(6)
H16 H -0.1431 0.5148 0.2438
H17 H -0.0866 0.4501 0.3363
C19 C 0.0180(7) 0.3967(5) 0.1871(5)
H18 H -0.0239 0.3955 0.1080
C20 C 0.1984(8) 0.4825(5) 0.2185(6)
C21 C 0.2943(8) 0.5155(5) 0.1346(6)
C22 C 0.4515(9) 0.6008(5) 0.1640(6)
H19 H 0.5115 0.6246 0.1068
C23 C 0.5195(9) 0.6504(5) 0.2762(7)
H20 H 0.6254 0.7066 0.2942
C24 C 0.4312(9) 0.6170(6) 0.3624(6)
C25 C 0.2723(8) 0.5322(5) 0.3313(6)
H21 H 0.2134 0.5079 0.3887
C26 C 0.5009(9) 0.6703(6) 0.4846(6)
H22 H 0.6300 0.6712 0.4969
H23 H 0.4393 0.6258 0.5313
H24 H 0.4783 0.7482 0.5043
loop_
_geom_bond_atom_site_label_1
_geom_bond_atom_site_label_2
_geom_bond_site_symmetry_1
_geom_bond_site_symmetry_2
N1 C7 1_555 1_555
N2 H1 1_555 1_555
O1 C8 1_555 1_555
O2 C9 1_555 1_555
O3 H2 1_555 1_555
C1 H3 1_555 1_555
C2 C1 1_555 1_555
H4 C2 1_555 1_555
C3 C2 1_555 1_555
H5 C3 1_555 1_555
C4 C3 1_555 1_555
H6 C4 1_555 1_555
C5 C4 1_555 1_555
H7 C5 1_555 1_555
C6 C1 1_555 1_555
C7 C6 1_555 1_555
H8 C7 1_555 1_555
H9 C7 1_555 1_555
C8 N1 1_555 1_555
C9 C8 1_555 1_555
C10 C9 1_555 1_555
C11 N1 1_555 1_555
C12 C11 1_555 1_555
H10 C12 1_555 1_555
C13 C12 1_555 1_555
H11 C13 1_555 1_555
C14 C13 1_555 1_555
C15 N2 1_555 1_555
C16 N2 1_555 1_555
H12 C16 1_555 1_555
H13 C16 1_555 1_555
C17 C16 1_555 1_555
H14 C17 1_555 1_555
H15 C17 1_555 1_555
C18 C17 1_555 1_555
H16 C18 1_555 1_555
H17 C18 1_555 1_555
C19 C14 1_555 1_555
H18 C19 1_555 1_555
C20 C19 1_555 1_555
C21 O3 1_555 1_555
C22 C21 1_555 1_555
H19 C22 1_555 1_555
C23 C22 1_555 1_555
H20 C23 1_555 1_555
C24 C23 1_555 1_555
C25 C20 1_555 1_555
H21 C25 1_555 1_555
C26 C24 1_555 1_555
H22 C26 1_555 1_555
H23 C26 1_555 1_555
H24 C26 1_555 1_555
C5 C6 1_555 1_555
C10 C11 1_555 1_555
C10 C15 1_555 1_555
C14 C15 1_555 1_555
C18 C19 1_555 1_555
C20 C21 1_555 1_555
C24 C25 1_555 1_555

#END
