
#######################################################################
#
#                 Cambridge Crystallographic Data Centre
#                                CCDC 
#
#######################################################################
#
# If this CIF has been generated from an entry in the Cambridge 
# Structural Database, then it will include bibliographic, chemical, 
# crystal, experimental, refinement or atomic coordinate data resulting 
# from the CCDC's data processing and validation procedures.
#
#######################################################################

data_CILREX
_chemical_formula_moiety         'C49 H54 Br4 O10,C1 H2 Cl2'
_chemical_name_systematic        
'4,14,30,34-tetrakis(2-bromoethoxy)-9,19,24,26,28,32-hexamethoxyhexacyclo[21.2.2.2^3,6^.2^8,11^.2^13,16^.2^18,21^]pentatriaconta-1(25),3,5,8,10,13,15,18,20,23,26,28,30,32,34-pentadecaene dichloromethane solvate'
_symmetry_cell_setting           triclinic
_symmetry_space_group_name_H-M   'P -1'
_symmetry_Int_Tables_number      2
_space_group_name_Hall           '-P 1'
loop_
_symmetry_equiv_pos_site_id
_symmetry_equiv_pos_as_xyz
1 x,y,z
2 -x,-y,-z
_cell_length_a                   11.4946(9)
_cell_length_b                   11.8499(9)
_cell_length_c                   19.8029(15)
_cell_angle_alpha                84.121(5)
_cell_angle_beta                 79.614(4)
_cell_angle_gamma                85.610(4)
_cell_volume                     2634.55
_exptl_crystal_colour            colorless
_exptl_crystal_description       Block
_cell_formula_units_Z            2
loop_
_atom_site_label
_atom_site_type_symbol
_atom_site_fract_x
_atom_site_fract_y
_atom_site_fract_z
O1 O 1.0489(9) -0.0926(12) 0.2101(6)
O2 O 0.5993(10) -0.1591(9) 0.3533(5)
O3 O 0.8919(9) 0.0899(8) 0.4503(6)
O4 O 0.4243(8) 0.2081(9) 0.4280(5)
O5 O 0.7527(8) 0.4919(8) 0.3776(5)
O6 O 0.3683(8) 0.4946(10) 0.2454(5)
O7 O 0.8040(8) 0.5705(8) 0.1228(5)
O8 O 0.5121(7) 0.3065(8) 0.0208(4)
O9 O 0.9759(7) 0.2319(8) 0.0168(5)
O10 O 0.6658(8) -0.1132(7) 0.0901(5)
Br1 Br 1.3360(2) 0.0962(2) 0.20325(14)
Br2 Br 0.27043(18) -0.2437(2) 0.33896(12)
Br3 Br 0.83670(19) 0.5967(2) 0.49911(12)
Br4 Br 0.12431(18) 0.6334(2) 0.22312(11)
C1 C 0.8529(13) -0.1377(10) 0.2101(6)
C2 C 0.9350(12) -0.1053(12) 0.2454(7)
C3 C 0.9042(14) -0.0900(13) 0.3164(7)
H1 H 0.9625 -0.0681 0.3401
C4 C 0.7924(13) -0.1060(10) 0.3513(6)
C5 C 0.7100(12) -0.1375(11) 0.3149(7)
C6 C 0.7395(12) -0.1567(11) 0.2446(6)
H2 H 0.6823 -0.1822 0.2213
C7 C 1.1200(15) -0.0137(15) 0.2304(8)
H3 H 1.1406 -0.0409 0.2759
H4 H 1.0754 0.0608 0.2344
C8 C 1.2354(18) -0.001(2) 0.1757(12)
H5 H 1.2146 0.0307 0.1308
H6 H 1.2771 -0.0761 0.1696
C9 C 0.5051(13) -0.1812(12) 0.3207(7)
H7 H 0.5299 -0.2415 0.2891
H8 H 0.4791 -0.1117 0.2938
C10 C 0.4077(15) -0.2184(15) 0.3768(8)
H9 H 0.3875 -0.1595 0.4097
H10 H 0.4339 -0.2895 0.4021
C11 C 0.7591(14) -0.0834(11) 0.4256(7)
H11 H 0.8304 -0.0958 0.4476
H12 H 0.7008 -0.1380 0.4494
C12 C 0.7068(13) 0.0364(11) 0.4346(6)
C13 C 0.7761(13) 0.1234(12) 0.4454(7)
C14 C 0.7261(12) 0.2334(11) 0.4511(6)
H13 H 0.7736 0.2912 0.4591
C15 C 0.6092(12) 0.2605(10) 0.4452(6)
C16 C 0.5408(12) 0.1762(11) 0.4332(6)
C17 C 0.5869(12) 0.0636(12) 0.4279(7)
H14 H 0.5385 0.0065 0.4199
C18 C 0.9641(17) 0.1756(18) 0.4614(14)
H15 H 1.0440 0.1424 0.4643
H16 H 0.9301 0.2084 0.5046
H17 H 0.9682 0.2353 0.4231
C19 C 0.3604(14) 0.1331(15) 0.3979(8)
H18 H 0.2796 0.1656 0.3973
H19 H 0.3576 0.0592 0.4252
H20 H 0.4004 0.1232 0.3507
C20 C 0.5552(12) 0.3826(11) 0.4501(6)
H21 H 0.4732 0.3808 0.4761
H22 H 0.6018 0.4245 0.4757
C21 C 0.5538(12) 0.4431(10) 0.3804(6)
C22 C 0.6583(10) 0.4931(10) 0.3429(6)
C23 C 0.6571(11) 0.5471(10) 0.2782(7)
H23 H 0.7252 0.5848 0.2552
C24 C 0.5596(12) 0.5485(11) 0.2452(7)
C25 C 0.4624(11) 0.4945(11) 0.2799(6)
C26 C 0.4600(12) 0.4439(11) 0.3467(7)
H24 H 0.3905 0.4086 0.3698
C27 C 0.8316(16) 0.5781(16) 0.3597(10)
H25 H 0.7877 0.6533 0.3613
H26 H 0.8758 0.5721 0.3123
C28 C 0.9154(15) 0.5664(16) 0.4095(8)
H27 H 0.9788 0.6199 0.3936
H28 H 0.9527 0.4883 0.4110
C29 C 0.2621(15) 0.4441(16) 0.2814(9)
H29 H 0.2335 0.4774 0.3257
H30 H 0.2760 0.3609 0.2906
C30 C 0.1723(16) 0.4715(19) 0.2323(11)
H31 H 0.1013 0.4278 0.2498
H32 H 0.2078 0.4473 0.1863
C31 C 0.5633(12) 0.6034(12) 0.1717(6)
H33 H 0.4823 0.6313 0.1653
H34 H 0.6133 0.6695 0.1643
C32 C 0.6128(10) 0.5199(10) 0.1186(6)
C33 C 0.7347(11) 0.5029(11) 0.0959(7)
C34 C 0.7787(12) 0.4266(10) 0.0478(6)
H35 H 0.8616 0.4204 0.0311
C35 C 0.7041(10) 0.3580(10) 0.0228(6)
C36 C 0.5831(11) 0.3735(10) 0.0465(6)
C37 C 0.5367(11) 0.4553(11) 0.0935(6)
H36 H 0.4535 0.4659 0.1079
C38 C 0.9310(13) 0.5421(13) 0.1083(9)
H37 H 0.9725 0.5951 0.1290
H38 H 0.9583 0.5477 0.0583
H39 H 0.9476 0.4643 0.1278
C39 C 0.3897(12) 0.3226(13) 0.0413(8)
H40 H 0.3495 0.2707 0.0189
H41 H 0.3643 0.4013 0.0278
H42 H 0.3693 0.3073 0.0914
C40 C 0.7553(12) 0.2690(11) -0.0243(6)
H43 H 0.6960 0.2538 -0.0523
H44 H 0.8254 0.2979 -0.0561
C41 C 0.7910(10) 0.1605(10) 0.0141(6)
C42 C 0.8994(10) 0.1432(11) 0.0367(6)
C43 C 0.9297(11) 0.0428(11) 0.0725(6)
H45 H 1.0064 0.0317 0.0846
C44 C 0.8519(10) -0.0415(10) 0.0912(6)
C45 C 0.7396(11) -0.0259(10) 0.0712(6)
C46 C 0.7113(11) 0.0750(10) 0.0325(6)
H46 H 0.6361 0.0853 0.0186
C47 C 1.0821(12) 0.2205(14) 0.0458(8)
H47 H 1.1294 0.2862 0.0289
H48 H 1.1280 0.1509 0.0321
H49 H 1.0615 0.2166 0.0962
C48 C 0.5527(14) -0.0958(14) 0.0734(10)
H50 H 0.5083 -0.1637 0.0893
H51 H 0.5590 -0.0810 0.0233
H52 H 0.5112 -0.0305 0.0957
C49 C 0.8854(13) -0.1498(12) 0.1326(6)
H53 H 0.9716 -0.1680 0.1203
H54 H 0.8436 -0.2133 0.1210
Cl1 Cl -0.1268(10) 0.2612(9) 0.2391(6)
Cl2 Cl -0.361(2) 0.1968(16) 0.2110(7)
C50 C -0.245(3) 0.196(3) 0.2568(13)
H55 H -0.2833 0.2187 0.3028
H56 H -0.2187 0.1152 0.2641
H57? H 0.2109 0.4656 0.1838
H58? H 0.1347 0.5490 0.2368
Br5? Br 0.0511(10) 0.3519(13) 0.2632(7)
loop_
_geom_bond_atom_site_label_1
_geom_bond_atom_site_label_2
_geom_bond_site_symmetry_1
_geom_bond_site_symmetry_2
O1 C2 1_555 1_555
O2 C5 1_555 1_555
O3 C13 1_555 1_555
O4 C16 1_555 1_555
O5 C22 1_555 1_555
O6 C25 1_555 1_555
O7 C33 1_555 1_555
O8 C36 1_555 1_555
O9 C42 1_555 1_555
O10 C45 1_555 1_555
Br1 C8 1_555 1_555
Br2 C10 1_555 1_555
Br3 C28 1_555 1_555
Br4 C30 1_555 1_555
C1 C2 1_555 1_555
C2 C3 1_555 1_555
C3 H1 1_555 1_555
C4 C3 1_555 1_555
C5 C4 1_555 1_555
C6 C1 1_555 1_555
H2 C6 1_555 1_555
C7 O1 1_555 1_555
H3 C7 1_555 1_555
H4 C7 1_555 1_555
C8 C7 1_555 1_555
H5 C8 1_555 1_555
H6 C8 1_555 1_555
C9 O2 1_555 1_555
H7 C9 1_555 1_555
H8 C9 1_555 1_555
C10 C9 1_555 1_555
H9 C10 1_555 1_555
H10 C10 1_555 1_555
C11 C4 1_555 1_555
H11 C11 1_555 1_555
H12 C11 1_555 1_555
C12 C11 1_555 1_555
C13 C12 1_555 1_555
C14 C13 1_555 1_555
H13 C14 1_555 1_555
C15 C14 1_555 1_555
C16 C15 1_555 1_555
C17 C12 1_555 1_555
H14 C17 1_555 1_555
C18 O3 1_555 1_555
H15 C18 1_555 1_555
H16 C18 1_555 1_555
H17 C18 1_555 1_555
C19 O4 1_555 1_555
H18 C19 1_555 1_555
H19 C19 1_555 1_555
H20 C19 1_555 1_555
C20 C15 1_555 1_555
H21 C20 1_555 1_555
H22 C20 1_555 1_555
C21 C20 1_555 1_555
C22 C21 1_555 1_555
C23 C22 1_555 1_555
H23 C23 1_555 1_555
C24 C23 1_555 1_555
C25 C24 1_555 1_555
C26 C21 1_555 1_555
H24 C26 1_555 1_555
C27 O5 1_555 1_555
H25 C27 1_555 1_555
H26 C27 1_555 1_555
C28 C27 1_555 1_555
H27 C28 1_555 1_555
H28 C28 1_555 1_555
C29 O6 1_555 1_555
H29 C29 1_555 1_555
H30 C29 1_555 1_555
C30 C29 1_555 1_555
H31 C30 1_555 1_555
H32 C30 1_555 1_555
C31 C24 1_555 1_555
H33 C31 1_555 1_555
H34 C31 1_555 1_555
C32 C31 1_555 1_555
C33 C32 1_555 1_555
C34 C33 1_555 1_555
H35 C34 1_555 1_555
C35 C34 1_555 1_555
C36 C35 1_555 1_555
C37 C32 1_555 1_555
H36 C37 1_555 1_555
C38 O7 1_555 1_555
H37 C38 1_555 1_555
H38 C38 1_555 1_555
H39 C38 1_555 1_555
C39 O8 1_555 1_555
H40 C39 1_555 1_555
H41 C39 1_555 1_555
H42 C39 1_555 1_555
C40 C35 1_555 1_555
H43 C40 1_555 1_555
H44 C40 1_555 1_555
C41 C40 1_555 1_555
C42 C41 1_555 1_555
C43 C42 1_555 1_555
H45 C43 1_555 1_555
C44 C43 1_555 1_555
C45 C44 1_555 1_555
C46 C41 1_555 1_555
H46 C46 1_555 1_555
C47 O9 1_555 1_555
H47 C47 1_555 1_555
H48 C47 1_555 1_555
H49 C47 1_555 1_555
C48 O10 1_555 1_555
H50 C48 1_555 1_555
H51 C48 1_555 1_555
H52 C48 1_555 1_555
C49 C1 1_555 1_555
H53 C49 1_555 1_555
H54 C49 1_555 1_555
Cl1 C50 1_555 1_555
Cl2 C50 1_555 1_555
C50 H55 1_555 1_555
H56 C50 1_555 1_555
C5 C6 1_555 1_555
C16 C17 1_555 1_555
C25 C26 1_555 1_555
C36 C37 1_555 1_555
C44 C49 1_555 1_555
C45 C46 1_555 1_555

#END
