
#######################################################################
#
#                 Cambridge Crystallographic Data Centre
#                                CCDC 
#
#######################################################################
#
# If this CIF has been generated from an entry in the Cambridge 
# Structural Database, then it will include bibliographic, chemical, 
# crystal, experimental, refinement or atomic coordinate data resulting 
# from the CCDC's data processing and validation procedures.
#
#######################################################################

data_CILRUN
_chemical_formula_moiety         'C57 H70 O12 S4,C5 H6 N2'
_chemical_name_systematic        
'24,49,54,56,58,60-hexamethoxy-6,12,18,31,37,43-hexaoxa-9,15,34,40-tetrathiaoctacyclo[51.2.2.2^23,26^.2^48,51^.0^3,30^.0^5,28^.0^19,46^.0^21,44^]henhexaconta-1(55),3(30),4,19(46),20,23,25,28,44,48,50,53,56,58,60-pentadecaene pentanedinitrile clathrate'
_symmetry_cell_setting           monoclinic
_symmetry_space_group_name_H-M   'C 2/c'
_symmetry_Int_Tables_number      15
_space_group_name_Hall           '-C 2yn'
loop_
_symmetry_equiv_pos_site_id
_symmetry_equiv_pos_as_xyz
1 x,y,z
2 -x,y,1/2-z
3 1/2+x,1/2+y,z
4 1/2-x,1/2+y,1/2-z
5 -x,-y,-z
6 x,-y,1/2+z
7 1/2-x,1/2-y,-z
8 1/2+x,1/2-y,1/2+z
_cell_length_a                   19.9757(3)
_cell_length_b                   15.1182(2)
_cell_length_c                   21.4721(3)
_cell_angle_alpha                90
_cell_angle_beta                 115.3200(10)
_cell_angle_gamma                90
_cell_volume                     5861.56
_exptl_crystal_colour            colorless
_exptl_crystal_description       Block
_cell_formula_units_Z            4
loop_
_atom_site_label
_atom_site_type_symbol
_atom_site_fract_x
_atom_site_fract_y
_atom_site_fract_z
O1 O 0.34696(13) 0.23085(16) 0.48807(13)
O2 O 0.61513(10) 0.17353(11) 0.45808(9)
O3 O 0.76414(10) 0.34439(11) 0.32716(10)
O4 O 0.37255(9) 0.06660(12) 0.27099(8)
O5 O 0.64043(10) 0.51983(13) 0.47089(9)
O6 O 0.60162(10) 0.60511(12) 0.20730(9)
S1 S 0.51991(4) 0.21750(6) 0.58250(4)
S2 S 0.82862(4) 0.32159(5) 0.17516(4)
C1 C 0.28169(19) 0.2278(2) 0.42490(19)
H1 H 0.2408 0.2005 0.4327
H2 H 0.2907 0.1911 0.3910
C2 C 0.37562(19) 0.1487(2) 0.5123(2)
H3 H 0.3881 0.1188 0.4776
H4 H 0.3374 0.1127 0.5183
C3 C 0.44262(18) 0.1522(2) 0.57858(17)
H5 H 0.4603 0.0908 0.5918
H6 H 0.4277 0.1751 0.6140
C4 C 0.54438(17) 0.1610(2) 0.52127(15)
H7 H 0.5717 0.1059 0.5418
H8 H 0.4992 0.1452 0.4797
C5 C 0.59227(14) 0.22243(17) 0.50241(13)
H9 H 0.5638 0.2755 0.4785
H10 H 0.6358 0.2417 0.5442
C6 C 0.65348(12) 0.21782(15) 0.42777(11)
C7 C 0.67062(12) 0.16896(15) 0.38128(11)
C8 C 0.70776(12) 0.21094(16) 0.34759(12)
H11 H 0.7193 0.1787 0.3155
C9 C 0.72822(13) 0.29929(16) 0.36011(12)
C10 C 0.71441(12) 0.34722(15) 0.40873(12)
C11 C 0.67625(13) 0.30565(15) 0.44176(12)
H12 H 0.6655 0.3378 0.4744
C12 C 0.77573(14) 0.29902(17) 0.27392(14)
H13 H 0.7283 0.2759 0.2387
H14 H 0.8103 0.2488 0.2935
C13 C 0.80811(16) 0.36596(18) 0.24257(15)
H15 H 0.8542 0.3901 0.2792
H16 H 0.7728 0.4155 0.2238
C14 C 0.7391(2) 0.3184(2) 0.10221(18)
H17 H 0.7013 0.3420 0.1161
H18 H 0.7400 0.3570 0.0653
C15 C 0.64688(12) 0.07309(15) 0.36549(11)
H19 H 0.6455 0.0451 0.4066
H20 H 0.6834 0.0407 0.3542
C16 C 0.57087(12) 0.06680(14) 0.30529(11)
C17 C 0.50739(12) 0.06697(14) 0.31685(11)
H21 H 0.5121 0.0674 0.3628
C18 C 0.43729(12) 0.06649(15) 0.26240(12)
C19 C 0.37942(15) 0.0647(2) 0.33949(13)
H22 H 0.3300 0.0649 0.3388
H23 H 0.4071 0.1169 0.3645
H24 H 0.4059 0.0110 0.3626
C20 C 0.73890(12) 0.44250(15) 0.42571(12)
H25 H 0.7517 0.4538 0.4749
H26 H 0.7839 0.4527 0.4182
C21 C 0.67903(12) 0.50632(15) 0.38180(12)
C22 C 0.66982(12) 0.52728(15) 0.31555(12)
H27 H 0.7029 0.5031 0.2988
C23 C 0.61333(13) 0.58281(15) 0.27339(12)
C24 C 0.56404(12) 0.61963(14) 0.29684(12)
C25 C 0.57385(13) 0.59972(15) 0.36330(12)
H28 H 0.5415 0.6252 0.3804
C26 C 0.62996(13) 0.54332(15) 0.40545(11)
C27 C 0.58567(17) 0.5482(2) 0.49224(15)
H29 H 0.5989 0.5277 0.5394
H30 H 0.5375 0.5234 0.4613
H31 H 0.5828 0.6129 0.4908
C28 C 0.64683(17) 0.5642(2) 0.17992(14)
H32 H 0.6334 0.5863 0.1332
H33 H 0.6395 0.5000 0.1785
H34 H 0.6989 0.5779 0.2091
C29 C 0.5000 0.6766(2) 0.2500
H35 H 0.4836 0.7150 0.2782
H35A H 0.5164 0.7150 0.2218
O1A O 0.65304(13) 0.23085(16) 0.01193(13)
O2A O 0.38487(10) 0.17353(11) 0.04192(9)
O3A O 0.23586(10) 0.34439(11) 0.17284(10)
O4A O 0.62745(9) 0.06660(12) 0.22901(8)
O5A O 0.35957(10) 0.51983(13) 0.02911(9)
O6A O 0.39838(10) 0.60511(12) 0.29270(9)
S1A S 0.48009(4) 0.21750(6) -0.08250(4)
S2A S 0.17138(4) 0.32159(5) 0.32484(4)
C1A C 0.71831(19) 0.2278(2) 0.07510(19)
H1A H 0.7592 0.2005 0.0673
H2A H 0.7093 0.1911 0.1090
C2A C 0.62438(19) 0.1487(2) -0.0123(2)
H3A H 0.6119 0.1188 0.0224
H4A H 0.6626 0.1127 -0.0183
C3A C 0.55738(18) 0.1522(2) -0.07858(17)
H5A H 0.5397 0.0908 -0.0918
H6A H 0.5723 0.1751 -0.1140
C4A C 0.45562(17) 0.1610(2) -0.02127(15)
H7A H 0.4283 0.1059 -0.0418
H8A H 0.5008 0.1452 0.0203
C5A C 0.40773(14) 0.22243(17) -0.00241(13)
H9A H 0.4362 0.2755 0.0215
H10A H 0.3642 0.2417 -0.0442
C6A C 0.34652(12) 0.21782(15) 0.07223(11)
C7A C 0.32938(12) 0.16896(15) 0.11872(11)
C8A C 0.29224(12) 0.21094(16) 0.15241(12)
H11A H 0.2807 0.1787 0.1845
C9A C 0.27178(13) 0.29929(16) 0.13989(12)
C10A C 0.28559(12) 0.34722(15) 0.09127(12)
C11A C 0.32375(13) 0.30565(15) 0.05824(12)
H12A H 0.3345 0.3378 0.0256
C12A C 0.22427(14) 0.29902(17) 0.22608(14)
H13A H 0.2717 0.2759 0.2613
H14A H 0.1897 0.2488 0.2065
C13A C 0.19189(16) 0.36596(18) 0.25743(15)
H15A H 0.1458 0.3901 0.2208
H16A H 0.2272 0.4155 0.2762
C14A C 0.2609(2) 0.3184(2) 0.39779(18)
H17A H 0.2987 0.3420 0.3839
H18A H 0.2600 0.3570 0.4347
C15A C 0.35312(12) 0.07309(15) 0.13451(11)
H19A H 0.3545 0.0451 0.0934
H20A H 0.3166 0.0407 0.1458
C16A C 0.42913(12) 0.06680(14) 0.19471(11)
C17A C 0.49261(12) 0.06697(14) 0.18315(11)
H21A H 0.4879 0.0674 0.1372
C18A C 0.56271(12) 0.06649(15) 0.23760(12)
C19A C 0.62058(15) 0.0647(2) 0.16051(13)
H22A H 0.6700 0.0649 0.1612
H23A H 0.5929 0.1169 0.1355
H24A H 0.5941 0.0110 0.1374
C20A C 0.26110(12) 0.44250(15) 0.07429(12)
H25A H 0.2483 0.4538 0.0251
H26A H 0.2161 0.4527 0.0818
C21A C 0.32097(12) 0.50632(15) 0.11820(12)
C22A C 0.33018(12) 0.52728(15) 0.18445(12)
H27A H 0.2971 0.5031 0.2012
C23A C 0.38667(13) 0.58281(15) 0.22661(12)
C24A C 0.43596(12) 0.61963(14) 0.20316(12)
C25A C 0.42615(13) 0.59972(15) 0.13670(12)
H28A H 0.4585 0.6252 0.1196
C26A C 0.37004(13) 0.54332(15) 0.09455(11)
C27A C 0.41433(17) 0.5482(2) 0.00776(15)
H29A H 0.4011 0.5277 -0.0394
H30A H 0.4625 0.5234 0.0387
H31A H 0.4172 0.6129 0.0092
C28A C 0.35317(17) 0.5642(2) 0.32008(14)
H32A H 0.3666 0.5863 0.3668
H33A H 0.3605 0.5000 0.3215
H34A H 0.3011 0.5779 0.2909
N1 N 0.5770(3) 0.2902(3) 0.1385(3)
C30 C 0.5516(2) 0.3239(3) 0.1664(2)
C31 C 0.5164(4) 0.3777(4) 0.2036(4)
H37 H 0.4701 0.4058 0.1704
H38 H 0.5506 0.4246 0.2317
C32 C 0.5000 0.3117(5) 0.2500
H39 H 0.4566 0.2739 0.2233
H39A H 0.5434 0.2739 0.2767
N1A N 0.4230(3) 0.2902(3) 0.3615(3)
C30A C 0.4484(2) 0.3239(3) 0.3336(2)
C31A C 0.4836(4) 0.3777(4) 0.2964(4)
H37A H 0.5299 0.4058 0.3296
H38A H 0.4494 0.4246 0.2683
H36? H 0.4836 0.7150 0.2782
H40? H 0.4566 0.2739 0.2233
loop_
_geom_bond_atom_site_label_1
_geom_bond_atom_site_label_2
_geom_bond_site_symmetry_1
_geom_bond_site_symmetry_2
O1 C1 1_555 1_555
O2 C5 1_555 1_555
O3 C9 1_555 1_555
O4 C18 1_555 1_555
O5 C26 1_555 1_555
O6 C23 1_555 1_555
S1 C3 1_555 1_555
S2 C13 1_555 1_555
C1 H1 1_555 1_555
H2 C1 1_555 1_555
C2 O1 1_555 1_555
H3 C2 1_555 1_555
H4 C2 1_555 1_555
C3 C2 1_555 1_555
H5 C3 1_555 1_555
H6 C3 1_555 1_555
C4 S1 1_555 1_555
H7 C4 1_555 1_555
H8 C4 1_555 1_555
C5 C4 1_555 1_555
H9 C5 1_555 1_555
H10 C5 1_555 1_555
C6 O2 1_555 1_555
C7 C6 1_555 1_555
C8 C7 1_555 1_555
H11 C8 1_555 1_555
C9 C8 1_555 1_555
C10 C9 1_555 1_555
C11 C6 1_555 1_555
H12 C11 1_555 1_555
C12 O3 1_555 1_555
H13 C12 1_555 1_555
H14 C12 1_555 1_555
C13 C12 1_555 1_555
H15 C13 1_555 1_555
H16 C13 1_555 1_555
C14 S2 1_555 1_555
H17 C14 1_555 1_555
H18 C14 1_555 1_555
C15 C7 1_555 1_555
H19 C15 1_555 1_555
H20 C15 1_555 1_555
C16 C15 1_555 1_555
C17 C16 1_555 1_555
H21 C17 1_555 1_555
C18 C17 1_555 1_555
C19 O4 1_555 1_555
H22 C19 1_555 1_555
H23 C19 1_555 1_555
H24 C19 1_555 1_555
C20 C10 1_555 1_555
H25 C20 1_555 1_555
H26 C20 1_555 1_555
C21 C20 1_555 1_555
C22 C21 1_555 1_555
H27 C22 1_555 1_555
C23 C22 1_555 1_555
C24 C23 1_555 1_555
C25 C24 1_555 1_555
H28 C25 1_555 1_555
C26 C21 1_555 1_555
C27 O5 1_555 1_555
H29 C27 1_555 1_555
H30 C27 1_555 1_555
H31 C27 1_555 1_555
C28 O6 1_555 1_555
H32 C28 1_555 1_555
H33 C28 1_555 1_555
H34 C28 1_555 1_555
C29 C24 1_555 1_555
H35 C29 1_555 1_555
N1 C30 1_555 1_555
C30 C31 1_555 1_555
C31 H37 1_555 1_555
H38 C31 1_555 1_555
C32 C31 1_555 1_555
H39 C32 1_555 1_555
H35A C29 1_555 1_555
O1A C1A 1_555 1_555
O2A C5A 1_555 1_555
O3A C9A 1_555 1_555
O4A C18A 1_555 1_555
O5A C26A 1_555 1_555
O6A C23A 1_555 1_555
S1A C3A 1_555 1_555
S2A C13A 1_555 1_555
C1A C14 1_555 1_555
H1A C1A 1_555 1_555
H2A C1A 1_555 1_555
C2A O1A 1_555 1_555
H3A C2A 1_555 1_555
H4A C2A 1_555 1_555
C3A C2A 1_555 1_555
H5A C3A 1_555 1_555
H6A C3A 1_555 1_555
C4A S1A 1_555 1_555
H7A C4A 1_555 1_555
H8A C4A 1_555 1_555
C5A C4A 1_555 1_555
H9A C5A 1_555 1_555
H10A C5A 1_555 1_555
C6A O2A 1_555 1_555
C7A C6A 1_555 1_555
C8A C7A 1_555 1_555
H11A C8A 1_555 1_555
C9A C8A 1_555 1_555
C10A C9A 1_555 1_555
C11A C6A 1_555 1_555
H12A C11A 1_555 1_555
C12A O3A 1_555 1_555
H13A C12A 1_555 1_555
H14A C12A 1_555 1_555
C13A C12A 1_555 1_555
H15A C13A 1_555 1_555
H16A C13A 1_555 1_555
C14A C1 1_555 1_555
H17A C14A 1_555 1_555
H18A C14A 1_555 1_555
C15A C7A 1_555 1_555
H19A C15A 1_555 1_555
H20A C15A 1_555 1_555
C16A C18 1_555 1_555
C17A C16A 1_555 1_555
H21A C17A 1_555 1_555
C18A C16 1_555 1_555
C19A O4A 1_555 1_555
H22A C19A 1_555 1_555
H23A C19A 1_555 1_555
H24A C19A 1_555 1_555
C20A C10A 1_555 1_555
H25A C20A 1_555 1_555
H26A C20A 1_555 1_555
C21A C20A 1_555 1_555
C22A C21A 1_555 1_555
H27A C22A 1_555 1_555
C23A C22A 1_555 1_555
C24A C29 1_555 1_555
C25A C24A 1_555 1_555
H28A C25A 1_555 1_555
C26A C21A 1_555 1_555
C27A O5A 1_555 1_555
H29A C27A 1_555 1_555
H30A C27A 1_555 1_555
H31A C27A 1_555 1_555
C28A O6A 1_555 1_555
H32A C28A 1_555 1_555
H33A C28A 1_555 1_555
H34A C28A 1_555 1_555
H39A C32 1_555 1_555
N1A C30A 1_555 1_555
C30A C31A 1_555 1_555
C31A C32 1_555 1_555
H37A C31A 1_555 1_555
H38A C31A 1_555 1_555
C10 C11 1_555 1_555
C25 C26 1_555 1_555
S2A C14A 1_555 1_555
C10A C11A 1_555 1_555
C15A C16A 1_555 1_555
C17A C18A 1_555 1_555
C23A C24A 1_555 1_555
C25A C26A 1_555 1_555

#END
