
#######################################################################
#
#                 Cambridge Crystallographic Data Centre
#                                CCDC 
#
#######################################################################
#
# If this CIF has been generated from an entry in the Cambridge 
# Structural Database, then it will include bibliographic, chemical, 
# crystal, experimental, refinement or atomic coordinate data resulting 
# from the CCDC's data processing and validation procedures.
#
#######################################################################

data_CILRIB
_chemical_formula_moiety         'C57 H70 O12 S4,C6 H14'
_chemical_name_systematic        
'24,49,54,56,58,60-hexamethoxy-6,12,18,31,37,43-hexaoxa-9,15,34,40-tetrathiaoctacyclo[51.2.2.2^23,26^.2^48,51^.0^3,30^.0^5,28^.0^19,46^.0^21,44^]henhexaconta-1(55),3(30),4,19(46),20,23,25,28,44,48,50,53,56,58,60-pentadecaene n-hexane clathrate'
_symmetry_cell_setting           monoclinic
_symmetry_space_group_name_H-M   'P 21/c'
_symmetry_Int_Tables_number      14
_space_group_name_Hall           '-P 2ybc'
loop_
_symmetry_equiv_pos_site_id
_symmetry_equiv_pos_as_xyz
1 x,y,z
2 -x,1/2+y,1/2-z
3 -x,-y,-z
4 x,1/2-y,1/2+z
_cell_length_a                   12.3602(8)
_cell_length_b                   20.7802(13)
_cell_length_c                   23.5946(16)
_cell_angle_alpha                90
_cell_angle_beta                 91.817(3)
_cell_angle_gamma                90
_cell_volume                     6057.17
_exptl_crystal_colour            colorless
_exptl_crystal_description       needle
_cell_formula_units_Z            4
loop_
_atom_site_label
_atom_site_type_symbol
_atom_site_fract_x
_atom_site_fract_y
_atom_site_fract_z
O1 O 0.4322(2) 0.23949(12) 0.26147(10)
O2 O 0.4891(2) 0.10547(13) 0.48996(11)
O3 O 0.9292(2) 0.03492(12) 0.43284(9)
O4 O 0.9947(2) -0.06205(12) 0.21835(10)
O5 O 1.1391(5) 0.1362(4) 0.0574(4)
O6 O 0.8199(2) 0.29340(14) 0.16136(10)
O7 O 0.7813(2) 0.26915(13) 0.38313(11)
O8 O 1.10530(19) 0.15770(11) 0.26004(10)
O9 O 0.6555(2) -0.11271(13) 0.33438(10)
O10 O 0.6529(2) -0.08122(14) 0.10167(11)
O11 O 0.3619(2) 0.00829(12) 0.23646(11)
O12 O 0.5184(2) 0.14535(14) 0.05597(11)
S1 S 0.29068(9) 0.23247(5) 0.41202(5)
S2 S 0.74862(8) 0.02748(5) 0.57020(4)
S3 S 1.17765(9) -0.05826(6) 0.08213(4)
S4 S 1.01226(10) 0.30561(6) 0.02910(5)
C1 C 0.4279(3) 0.24351(18) 0.32161(15)
H1 H 0.4458 0.2877 0.3346
H2 H 0.4804 0.2133 0.3397
C2 C 0.3144(3) 0.22621(19) 0.33713(16)
H3 H 0.2991 0.1815 0.3247
H4 H 0.2631 0.2549 0.3163
C3 C 0.3465(3) 0.1585(2) 0.44014(19)
H5 H 0.2965 0.1406 0.4680
H6 H 0.3519 0.1269 0.4089
C4 C 0.4559(3) 0.16692(19) 0.46816(17)
H7 H 0.5082 0.1826 0.4404
H8 H 0.4524 0.1986 0.4993
C5 C 0.5948(3) 0.10565(19) 0.51616(16)
H9 H 0.5958 0.1326 0.5508
H10 H 0.6481 0.1232 0.4898
C6 C 0.6218(3) 0.03686(19) 0.53094(16)
H11 H 0.6247 0.0115 0.4955
H12 H 0.5629 0.0189 0.5536
C7 C 0.8456(3) 0.05072(18) 0.51880(14)
H13 H 0.8267 0.0942 0.5045
H14 H 0.9179 0.0535 0.5379
C8 C 0.8525(3) 0.00563(18) 0.46881(14)
H15 H 0.8776 -0.0375 0.4813
H16 H 0.7812 0.0013 0.4489
C9 C 1.0756(3) -0.03484(18) 0.18380(14)
H17 H 1.1485 -0.0411 0.2015
H18 H 1.0629 0.0118 0.1783
C10 C 1.0655(3) -0.0703(2) 0.12761(15)
H19 H 0.9983 -0.0560 0.1073
H20 H 1.0583 -0.1169 0.1353
C11 C 1.1961(6) 0.0308(4) 0.0817(3)
H21 H 1.2105 0.0444 0.1215
H22 H 1.2627 0.0399 0.0609
C12 C 1.1196(6) 0.0685(2) 0.0605(2)
H23 H 1.0545 0.0621 0.0833
H24 H 1.1013 0.0531 0.0217
C13 C 1.0733(6) 0.1780(3) 0.0420(2)
H25 H 1.0105 0.1748 0.0669
H26 H 1.0469 0.1667 0.0032
C14 C 1.1066(6) 0.2455(4) 0.0411(3)
H27 H 1.1616 0.2497 0.0117
H28 H 1.1437 0.2547 0.0780
C15 C 0.9569(3) 0.3083(2) 0.09880(17)
H29 H 1.0029 0.2814 0.1244
H30 H 0.9619 0.3531 0.1128
C16 C 0.8410(3) 0.2861(2) 0.10330(15)
H31 H 0.7915 0.3131 0.0796
H32 H 0.8329 0.2406 0.0914
C17 C 0.7137(3) 0.29172(16) 0.24109(15)
C18 C 0.6178(3) 0.27777(16) 0.26743(15)
H33 H 0.6127 0.2848 0.3070
C19 C 0.5293(3) 0.25375(16) 0.23690(15)
C20 C 0.5344(3) 0.24367(16) 0.17853(15)
C21 C 0.6313(3) 0.25690(17) 0.15230(15)
H34 H 0.6367 0.2498 0.1127
C22 C 0.7204(3) 0.28046(17) 0.18343(16)
C23 C 0.8098(3) 0.31801(16) 0.27521(16)
H35 H 0.7835 0.3453 0.3063
H36 H 0.8537 0.3454 0.2504
C24 C 0.8805(3) 0.26480(16) 0.30020(14)
C25 C 0.8635(3) 0.24018(17) 0.35379(15)
C26 C 0.9253(3) 0.18964(16) 0.37514(14)
H37 H 0.9124 0.1737 0.4121
C27 C 1.0062(3) 0.16174(16) 0.34345(14)
C28 C 1.0235(3) 0.18692(16) 0.28992(14)
C29 C 0.9619(3) 0.23749(16) 0.26886(15)
H38 H 0.9755 0.2539 0.2322
C30 C 0.7654(4) 0.2510(3) 0.43894(19)
H39 H 0.7051 0.2757 0.4540
H40 H 0.8313 0.2595 0.4619
H41 H 0.7484 0.2049 0.4403
C31 C 1.1207(3) 0.1789(2) 0.20357(15)
H42 H 1.1801 0.1546 0.1872
H43 H 1.1386 0.2248 0.2038
H44 H 1.0541 0.1719 0.1808
C32 C 1.0683(3) 0.10405(16) 0.36587(14)
H45 H 1.0711 0.1053 0.4078
H46 H 1.1435 0.1059 0.3527
C33 C 1.0162(3) 0.04156(16) 0.34613(14)
C34 C 0.9444(3) 0.00851(17) 0.37991(14)
C35 C 0.8929(3) -0.04672(16) 0.36005(14)
H47 H 0.8451 -0.0689 0.3840
C36 C 0.9098(3) -0.07025(16) 0.30596(15)
C37 C 0.9825(3) -0.03719(17) 0.27238(14)
C38 C 1.0347(3) 0.01726(17) 0.29257(14)
H48 H 1.0845 0.0386 0.2692
C39 C 0.8510(3) -0.12924(16) 0.28354(15)
H49 H 0.9002 -0.1541 0.2595
H50 H 0.8318 -0.1569 0.3159
C40 C 0.7498(3) -0.11304(16) 0.24948(15)
C41 C 0.6518(3) -0.10443(17) 0.27608(15)
C42 C 0.5578(3) -0.08953(17) 0.24516(15)
H51 H 0.4916 -0.0847 0.2641
C43 C 0.5594(3) -0.08162(17) 0.18663(15)
C44 C 0.6574(3) -0.08930(18) 0.15954(15)
C45 C 0.7507(3) -0.10544(17) 0.19074(15)
H52 H 0.8165 -0.1114 0.1717
C46 C 0.5619(3) -0.0961(2) 0.36440(17)
H53 H 0.5748 -0.1045 0.4049
H54 H 0.5005 -0.1221 0.3504
H55 H 0.5456 -0.0504 0.3586
C47 C 0.7489(4) -0.0926(2) 0.07219(17)
H56 H 0.7352 -0.0854 0.0316
H57 H 0.7724 -0.1372 0.0784
H58 H 0.8057 -0.0632 0.0862
C48 C 0.4568(3) -0.06311(18) 0.15333(16)
H59 H 0.4585 -0.0821 0.1149
H60 H 0.3932 -0.0809 0.1725
C49 C 0.4454(3) 0.00879(18) 0.14855(15)
C50 C 0.4015(3) 0.04418(18) 0.19236(15)
C51 C 0.3974(3) 0.11049(18) 0.19044(15)
H61 H 0.3671 0.1334 0.2209
C52 C 0.4370(3) 0.14453(19) 0.14433(15)
C53 C 0.4791(3) 0.1091(2) 0.10011(15)
C54 C 0.4829(3) 0.04270(19) 0.10256(16)
H62 H 0.5121 0.0196 0.0718
C55 C 0.3342(3) 0.0416(2) 0.28642(16)
H63 H 0.3070 0.0109 0.3141
H64 H 0.2779 0.0735 0.2772
H65 H 0.3984 0.0635 0.3025
C56 C 0.5385(5) 0.1126(3) 0.00465(19)
H66 H 0.5656 0.1432 -0.0232
H67 H 0.4712 0.0931 -0.0102
H68 H 0.5926 0.0789 0.0118
C57 C 0.4381(3) 0.21709(18) 0.14456(16)
H69 H 0.3704 0.2331 0.1610
H70 H 0.4405 0.2329 0.1050
C58 C 0.6519(5) 0.0891(3) 0.3627(3)
H71 H 0.5796 0.0843 0.3781
H72 H 0.6826 0.1306 0.3745
H73 H 0.6987 0.0543 0.3770
C59 C 0.6433(5) 0.0859(3) 0.2953(4)
H74 H 0.6094 0.0443 0.2846
H75 H 0.5932 0.1203 0.2821
C60 C 0.7395(5) 0.0920(3) 0.2653(3)
H76 H 0.7904 0.0581 0.2788
H77 H 0.7727 0.1341 0.2751
C61 C 0.7286(6) 0.0873(3) 0.1998(3)
H78 H 0.6774 0.1208 0.1859
H79 H 0.6974 0.0449 0.1895
C62 C 0.8398(6) 0.0958(3) 0.1690(2)
H80 H 0.8915 0.0610 0.1792
H81 H 0.8736 0.1380 0.1777
C63 C 0.7931(6) 0.0904(3) 0.0937(5)
H82 H 0.8551 0.0951 0.0692
H83 H 0.7407 0.1248 0.0853
H84 H 0.7586 0.0486 0.0868
O13? O 1.0971(10) 0.1112(5) 0.0261(5)
C64? C 1.1276(10) 0.0001(5) 0.0410(4)
H85? H 1.1710 0.0006 0.0065
H86? H 1.0535 -0.0133 0.0289
H87? H 1.0646 0.0698 0.0901
H88? H 1.1898 0.0798 0.0792
H89? H 1.0346 0.1770 0.0781
H90? H 1.1431 0.2002 0.0496
C65? C 1.0186(10) 0.2117(6) 0.0073(4)
H91? H 0.9440 0.1945 0.0044
H92? H 1.0503 0.2081 -0.0305
loop_
_geom_bond_atom_site_label_1
_geom_bond_atom_site_label_2
_geom_bond_site_symmetry_1
_geom_bond_site_symmetry_2
O1 C1 1_555 1_555
O2 C4 1_555 1_555
O3 C8 1_555 1_555
O4 C9 1_555 1_555
O5 C12 1_555 1_555
O6 C16 1_555 1_555
O7 C25 1_555 1_555
O8 C28 1_555 1_555
O9 C41 1_555 1_555
O10 C44 1_555 1_555
O11 C50 1_555 1_555
O12 C53 1_555 1_555
S1 C2 1_555 1_555
S2 C6 1_555 1_555
S3 C10 1_555 1_555
S4 C14 1_555 1_555
C1 H1 1_555 1_555
H2 C1 1_555 1_555
C2 C1 1_555 1_555
H3 C2 1_555 1_555
H4 C2 1_555 1_555
C3 S1 1_555 1_555
H5 C3 1_555 1_555
H6 C3 1_555 1_555
C4 C3 1_555 1_555
H7 C4 1_555 1_555
H8 C4 1_555 1_555
C5 O2 1_555 1_555
H9 C5 1_555 1_555
H10 C5 1_555 1_555
C6 C5 1_555 1_555
H11 C6 1_555 1_555
H12 C6 1_555 1_555
C7 S2 1_555 1_555
H13 C7 1_555 1_555
H14 C7 1_555 1_555
C8 C7 1_555 1_555
H15 C8 1_555 1_555
H16 C8 1_555 1_555
C9 H17 1_555 1_555
H18 C9 1_555 1_555
C10 C9 1_555 1_555
H19 C10 1_555 1_555
H20 C10 1_555 1_555
C11 S3 1_555 1_555
H21 C11 1_555 1_555
H22 C11 1_555 1_555
C12 C11 1_555 1_555
H23 C12 1_555 1_555
H24 C12 1_555 1_555
C13 O5 1_555 1_555
H25 C13 1_555 1_555
H26 C13 1_555 1_555
C14 C13 1_555 1_555
H27 C14 1_555 1_555
H28 C14 1_555 1_555
C15 S4 1_555 1_555
H29 C15 1_555 1_555
H30 C15 1_555 1_555
C16 C15 1_555 1_555
H31 C16 1_555 1_555
H32 C16 1_555 1_555
C17 C18 1_555 1_555
C18 H33 1_555 1_555
C19 O1 1_555 1_555
C20 C19 1_555 1_555
C21 C20 1_555 1_555
H34 C21 1_555 1_555
C22 O6 1_555 1_555
C23 C17 1_555 1_555
H35 C23 1_555 1_555
H36 C23 1_555 1_555
C24 C23 1_555 1_555
C25 C24 1_555 1_555
C26 C25 1_555 1_555
H37 C26 1_555 1_555
C27 C26 1_555 1_555
C28 C27 1_555 1_555
C29 C24 1_555 1_555
H38 C29 1_555 1_555
C30 O7 1_555 1_555
H39 C30 1_555 1_555
H40 C30 1_555 1_555
H41 C30 1_555 1_555
C31 O8 1_555 1_555
H42 C31 1_555 1_555
H43 C31 1_555 1_555
H44 C31 1_555 1_555
C32 C27 1_555 1_555
H45 C32 1_555 1_555
H46 C32 1_555 1_555
C33 C32 1_555 1_555
C34 O3 1_555 1_555
C35 C34 1_555 1_555
H47 C35 1_555 1_555
C36 C35 1_555 1_555
C37 O4 1_555 1_555
C38 C33 1_555 1_555
H48 C38 1_555 1_555
C39 C36 1_555 1_555
H49 C39 1_555 1_555
H50 C39 1_555 1_555
C40 C39 1_555 1_555
C41 C40 1_555 1_555
C42 C41 1_555 1_555
H51 C42 1_555 1_555
C43 C42 1_555 1_555
C44 C43 1_555 1_555
C45 C40 1_555 1_555
H52 C45 1_555 1_555
C46 O9 1_555 1_555
H53 C46 1_555 1_555
H54 C46 1_555 1_555
H55 C46 1_555 1_555
C47 O10 1_555 1_555
H56 C47 1_555 1_555
H57 C47 1_555 1_555
H58 C47 1_555 1_555
C48 C43 1_555 1_555
H59 C48 1_555 1_555
H60 C48 1_555 1_555
C49 C48 1_555 1_555
C50 C49 1_555 1_555
C51 C50 1_555 1_555
H61 C51 1_555 1_555
C52 C51 1_555 1_555
C53 C52 1_555 1_555
C54 C49 1_555 1_555
H62 C54 1_555 1_555
C55 O11 1_555 1_555
H63 C55 1_555 1_555
H64 C55 1_555 1_555
H65 C55 1_555 1_555
C56 O12 1_555 1_555
H66 C56 1_555 1_555
H67 C56 1_555 1_555
H68 C56 1_555 1_555
C57 C20 1_555 1_555
H69 C57 1_555 1_555
H70 C57 1_555 1_555
C58 H71 1_555 1_555
H72 C58 1_555 1_555
H73 C58 1_555 1_555
C59 C58 1_555 1_555
H74 C59 1_555 1_555
H75 C59 1_555 1_555
C60 C59 1_555 1_555
H76 C60 1_555 1_555
H77 C60 1_555 1_555
C61 C60 1_555 1_555
H78 C61 1_555 1_555
H79 C61 1_555 1_555
C62 C61 1_555 1_555
H80 C62 1_555 1_555
H81 C62 1_555 1_555
C63 C62 1_555 1_555
H82 C63 1_555 1_555
H83 C63 1_555 1_555
H84 C63 1_555 1_555
C17 C22 1_555 1_555
C18 C19 1_555 1_555
C21 C22 1_555 1_555
C28 C29 1_555 1_555
C33 C34 1_555 1_555
C36 C37 1_555 1_555
C37 C38 1_555 1_555
C44 C45 1_555 1_555
C52 C57 1_555 1_555
C53 C54 1_555 1_555

#END
