
#######################################################################
#
#                 Cambridge Crystallographic Data Centre
#                                CCDC 
#
#######################################################################
#
# If this CIF has been generated from an entry in the Cambridge 
# Structural Database, then it will include bibliographic, chemical, 
# crystal, experimental, refinement or atomic coordinate data resulting 
# from the CCDC's data processing and validation procedures.
#
#######################################################################

data_CILROH
_chemical_formula_moiety         'C57 H70 O12 S4,C4 H4 N2'
_chemical_name_systematic        
'24,49,54,56,58,60-hexamethoxy-6,12,18,31,37,43-hexaoxa-9,15,34,40-tetrathiaoctacyclo[51.2.2.2^23,26^.2^48,51^.0^3,30^.0^5,28^.0^19,46^.0^21,44^]henhexaconta-1(55),3(30),4,19(46),20,23,25,28,44,48,50,53,56,58,60-pentadecaene butanedinitrile clathrate'
_symmetry_cell_setting           monoclinic
_symmetry_space_group_name_H-M   'C 2/c'
_symmetry_Int_Tables_number      15
_space_group_name_Hall           '-C 2yn'
loop_
_symmetry_equiv_pos_site_id
_symmetry_equiv_pos_as_xyz
1 x,y,z
2 -x,y,1/2-z
3 1/2+x,1/2+y,z
4 1/2-x,1/2+y,1/2-z
5 -x,-y,-z
6 x,-y,1/2+z
7 1/2-x,1/2-y,-z
8 1/2+x,1/2-y,1/2+z
_cell_length_a                   19.8753(9)
_cell_length_b                   15.0811(7)
_cell_length_c                   21.3179(13)
_cell_angle_alpha                90
_cell_angle_beta                 115.230(3)
_cell_angle_gamma                90
_cell_volume                     5780.29
_exptl_crystal_colour            colorless
_exptl_crystal_description       Block
_cell_formula_units_Z            4
loop_
_atom_site_label
_atom_site_type_symbol
_atom_site_fract_x
_atom_site_fract_y
_atom_site_fract_z
N1 N 0.0624(9) 0.1551(10) 0.1415(7)
N2 N -0.0698(9) 0.1681(10) 0.3347(8)
C30 C 0.0399(9) 0.1410(11) 0.1811(7)
C31 C 0.0062(12) 0.1201(11) 0.2277(9)
H36 H -0.0429 0.0914 0.2028
H37 H 0.0387 0.0809 0.2659
C32 C 0.0000 0.1959(8) 0.2500
H38 H -0.0310 0.2351 0.2112
H39 H 0.0495 0.2236 0.2753
C33 C -0.0391(10) 0.1793(11) 0.3012(8)
N1A N -0.0624(9) 0.1551(10) 0.3585(7)
N2A N 0.0698(9) 0.1681(10) 0.1653(8)
C30A C -0.0399(9) 0.1410(11) 0.3189(7)
C31A C -0.0062(12) 0.1201(11) 0.2723(9)
H36A H 0.0429 0.0914 0.2972
H37A H -0.0387 0.0809 0.2341
H38A H 0.0310 0.2351 0.2888
H39A H -0.0495 0.2236 0.2247
C33A C 0.0391(10) 0.1793(11) 0.1988(8)
O1 O 0.26824(19) 0.1539(2) 0.33196(18)
O2 O 0.1119(2) 0.3241(2) 0.45797(19)
O3 O -0.1467(4) 0.2833(6) 0.4750(5)
O4 O 0.1286(2) 0.4283(2) 0.22978(19)
O5 O 0.10373(19) -0.1087(2) 0.20872(18)
O6 O 0.1385(2) -0.0215(2) 0.47226(18)
S1 S 0.32557(10) 0.17225(11) 0.17446(9)
C1 C 0.2772(3) 0.1969(3) 0.2777(3)
H1 H 0.3129 0.2464 0.2963
H2 H 0.2289 0.2216 0.2445
C2 C 0.3050(3) 0.1325(3) 0.2421(3)
H3 H 0.2674 0.0849 0.2230
H4 H 0.3506 0.1050 0.2774
C3 C 0.2309(4) 0.1848(6) 0.1044(4)
H5 H 0.2246 0.1439 0.0660
H6 H 0.1939 0.1687 0.1221
C4 C 0.2179(5) 0.2731(6) 0.0789(6)
H7 H 0.2236 0.3139 0.1173
H8 H 0.2555 0.2895 0.0620
C5 C -0.1316(4) 0.3393(8) 0.5162(5)
H9 H -0.1692 0.3344 0.5350
H10 H -0.1432 0.3951 0.4891
S2 S 0.01923(11) 0.29562(16) 0.58567(10)
C6 C -0.0622(3) 0.3570(6) 0.5761(4)
H11 H -0.0706 0.3465 0.6181
H12 H -0.0509 0.4209 0.5756
C7 C 0.0441(4) 0.3420(4) 0.5206(3)
H13 H -0.0015 0.3577 0.4789
H14 H 0.0737 0.3966 0.5385
C8 C 0.0871(6) 0.2777(4) 0.5024(5)
H15 H 0.1300 0.2563 0.5444
H16 H 0.0560 0.2262 0.4781
C9 C 0.1526(3) 0.2804(4) 0.4281(3)
C10 C 0.1749(3) 0.1917(3) 0.4433(3)
H17 H 0.1624 0.1596 0.4752
C11 C 0.2148(3) 0.1510(3) 0.4122(3)
C12 C 0.2306(3) 0.1984(3) 0.3642(3)
C13 C 0.2097(3) 0.2867(3) 0.3517(3)
H18 H 0.2225 0.3189 0.3201
C14 C 0.1707(3) 0.3300(3) 0.3834(2)
C15 C 0.1476(3) 0.4252(3) 0.3666(3)
H19 H 0.1843 0.4569 0.3549
H20 H 0.1461 0.4544 0.4076
C16 C 0.0711(3) 0.4301(3) 0.3057(3)
C17 C 0.0632(3) 0.4301(3) 0.2389(3)
C18 C 0.0073(3) 0.4300(3) 0.3164(3)
H21 H 0.0116 0.4299 0.3625
C19 C 0.1218(3) 0.4219(5) 0.1604(3)
H22 H 0.1714 0.4212 0.1611
H23 H 0.0938 0.4730 0.1335
H24 H 0.0954 0.3671 0.1391
C20 C 0.0000 -0.1800(4) 0.2500
H25 H 0.0167 -0.2184 0.2218
C21 C 0.0640(3) -0.1219(3) 0.2973(3)
C22 C 0.1140(3) -0.0857(3) 0.2740(3)
C23 C 0.1703(3) -0.0286(3) 0.3170(3)
H26 H 0.2034 -0.0034 0.3004
C24 C 0.1788(3) -0.0081(3) 0.3832(2)
C25 C 0.1287(3) -0.0447(3) 0.4061(3)
C26 C 0.0721(3) -0.1010(3) 0.3637(3)
H27 H 0.0387 -0.1254 0.3804
C27 C 0.1486(3) -0.0656(4) 0.1815(3)
H28 H 0.1361 -0.0876 0.1345
H29 H 0.2011 -0.0778 0.2111
H30 H 0.1398 -0.0016 0.1798
C28 C 0.0816(4) -0.0425(5) 0.4909(3)
H31 H 0.0951 -0.0229 0.5386
H32 H 0.0737 -0.1068 0.4879
H33 H 0.0358 -0.0127 0.4595
C29 C 0.2388(3) 0.0544(3) 0.4283(3)
H34 H 0.2842 0.0442 0.4211
H35 H 0.2510 0.0420 0.4776
O1A O -0.26824(19) 0.1539(2) 0.16804(18)
O2A O -0.1119(2) 0.3241(2) 0.04203(19)
O3A O 0.1467(4) 0.2833(6) 0.0250(5)
O4A O -0.1286(2) 0.4283(2) 0.27022(19)
O5A O -0.10373(19) -0.1087(2) 0.29128(18)
O6A O -0.1385(2) -0.0215(2) 0.02774(18)
S1A S -0.32557(10) 0.17225(11) 0.32554(9)
C1A C -0.2772(3) 0.1969(3) 0.2223(3)
H1A H -0.3129 0.2464 0.2037
H2A H -0.2289 0.2216 0.2555
C2A C -0.3050(3) 0.1325(3) 0.2579(3)
H3A H -0.2674 0.0849 0.2770
H4A H -0.3506 0.1050 0.2226
C3A C -0.2309(4) 0.1848(6) 0.3956(4)
H5A H -0.2246 0.1439 0.4340
H6A H -0.1939 0.1687 0.3779
C4A C -0.2179(5) 0.2731(6) 0.4211(6)
H7A H -0.2236 0.3139 0.3827
H8A H -0.2555 0.2895 0.4380
C5A C 0.1316(4) 0.3393(8) -0.0162(5)
H9A H 0.1692 0.3344 -0.0350
H10A H 0.1432 0.3951 0.0109
S2A S -0.01923(11) 0.29562(16) -0.08567(10)
C6A C 0.0622(3) 0.3570(6) -0.0761(4)
H11A H 0.0706 0.3465 -0.1181
H12A H 0.0509 0.4209 -0.0756
C7A C -0.0441(4) 0.3420(4) -0.0206(3)
H13A H 0.0015 0.3577 0.0211
H14A H -0.0737 0.3966 -0.0385
C8A C -0.0871(6) 0.2777(4) -0.0024(5)
H15A H -0.1300 0.2563 -0.0444
H16A H -0.0560 0.2262 0.0219
C9A C -0.1526(3) 0.2804(4) 0.0719(3)
C10A C -0.1749(3) 0.1917(3) 0.0567(3)
H17A H -0.1624 0.1596 0.0248
C11A C -0.2148(3) 0.1510(3) 0.0878(3)
C12A C -0.2306(3) 0.1984(3) 0.1358(3)
C13A C -0.2097(3) 0.2867(3) 0.1483(3)
H18A H -0.2225 0.3189 0.1799
C14A C -0.1707(3) 0.3300(3) 0.1166(2)
C15A C -0.1476(3) 0.4252(3) 0.1334(3)
H19A H -0.1843 0.4569 0.1451
H20A H -0.1461 0.4544 0.0924
C16A C -0.0711(3) 0.4301(3) 0.1943(3)
C17A C -0.0632(3) 0.4301(3) 0.2611(3)
C18A C -0.0073(3) 0.4300(3) 0.1836(3)
H21A H -0.0116 0.4299 0.1375
C19A C -0.1218(3) 0.4219(5) 0.3396(3)
H22A H -0.1714 0.4212 0.3389
H23A H -0.0938 0.4730 0.3665
H24A H -0.0954 0.3671 0.3609
H25A H -0.0167 -0.2184 0.2782
C21A C -0.0640(3) -0.1219(3) 0.2027(3)
C22A C -0.1140(3) -0.0857(3) 0.2260(3)
C23A C -0.1703(3) -0.0286(3) 0.1830(3)
H26A H -0.2034 -0.0034 0.1996
C24A C -0.1788(3) -0.0081(3) 0.1168(2)
C25A C -0.1287(3) -0.0447(3) 0.0939(3)
C26A C -0.0721(3) -0.1010(3) 0.1363(3)
H27A H -0.0387 -0.1254 0.1196
C27A C -0.1486(3) -0.0656(4) 0.3185(3)
H28A H -0.1361 -0.0876 0.3655
H29A H -0.2011 -0.0778 0.2889
H30A H -0.1398 -0.0016 0.3202
C28A C -0.0816(4) -0.0425(5) 0.0091(3)
H31A H -0.0951 -0.0229 -0.0386
H32A H -0.0737 -0.1068 0.0121
H33A H -0.0358 -0.0127 0.0405
C29A C -0.2388(3) 0.0544(3) 0.0717(3)
H34A H -0.2842 0.0442 0.0789
H35A H -0.2510 0.0420 0.0224
C34? C 0.2769(9) 0.2716(7) 0.1472(6)
H40? H 0.2559 0.2872 0.1803
H41? H 0.3129 0.3185 0.1501
H42? H 0.2437 0.3116 0.0584
H43? H 0.2265 0.2126 0.0659
H44? H -0.1551 0.3238 0.5474
H45? H -0.1563 0.3940 0.4914
S3? S 0.0177(6) 0.3853(7) 0.5330(6)
C35? C -0.0549(9) 0.362(4) 0.5600(8)
H46? H -0.0356 0.3134 0.5941
H47? H -0.0572 0.4151 0.5866
C36? C 0.0139(11) 0.2698(8) 0.5107(14)
H48? H 0.0195 0.2294 0.5492
H49? H -0.0305 0.2538 0.4680
C37? C 0.0811(17) 0.2787(15) 0.5002(16)
H50? H 0.0918 0.2160 0.4941
H51? H 0.1180 0.2941 0.5476
H52? H 0.0167 -0.2184 0.2218
loop_
_geom_bond_atom_site_label_1
_geom_bond_atom_site_label_2
_geom_bond_site_symmetry_1
_geom_bond_site_symmetry_2
O1 C1 1_555 1_555
O2 C8 1_555 1_555
O3 C5 1_555 1_555
O4 C17 1_555 1_555
O5 C22 1_555 1_555
O6 C25 1_555 1_555
S1 C2 1_555 1_555
C1 H1 1_555 1_555
H2 C1 1_555 1_555
C2 C1 1_555 1_555
H3 C2 1_555 1_555
H4 C2 1_555 1_555
C3 S1 1_555 1_555
H5 C3 1_555 1_555
H6 C3 1_555 1_555
C4 C3 1_555 1_555
H7 C4 1_555 1_555
H8 C4 1_555 1_555
C5 H9 1_555 1_555
H10 C5 1_555 1_555
S2 C6 1_555 1_555
C6 C5 1_555 1_555
H11 C6 1_555 1_555
H12 C6 1_555 1_555
C7 S2 1_555 1_555
H13 C7 1_555 1_555
H14 C7 1_555 1_555
C8 C7 1_555 1_555
H15 C8 1_555 1_555
H16 C8 1_555 1_555
C9 O2 1_555 1_555
C10 C9 1_555 1_555
H17 C10 1_555 1_555
C11 C10 1_555 1_555
C12 O1 1_555 1_555
C13 C12 1_555 1_555
H18 C13 1_555 1_555
C14 C9 1_555 1_555
C15 C14 1_555 1_555
H19 C15 1_555 1_555
H20 C15 1_555 1_555
C16 C15 1_555 1_555
C17 C16 1_555 1_555
C18 C16 1_555 1_555
H21 C18 1_555 1_555
C19 O4 1_555 1_555
H22 C19 1_555 1_555
H23 C19 1_555 1_555
H24 C19 1_555 1_555
C20 H25 1_555 1_555
C21 C20 1_555 1_555
C22 C21 1_555 1_555
C23 C22 1_555 1_555
H26 C23 1_555 1_555
C24 C23 1_555 1_555
C25 C24 1_555 1_555
C26 C21 1_555 1_555
H27 C26 1_555 1_555
C27 O5 1_555 1_555
H28 C27 1_555 1_555
H29 C27 1_555 1_555
H30 C27 1_555 1_555
C28 O6 1_555 1_555
H31 C28 1_555 1_555
H32 C28 1_555 1_555
H33 C28 1_555 1_555
C29 C11 1_555 1_555
H34 C29 1_555 1_555
H35 C29 1_555 1_555
N1 C30 1_555 1_555
N2 C33 1_555 1_555
C30 C31 1_555 1_555
C31 H36 1_555 1_555
H37 C31 1_555 1_555
C32 C31 1_555 1_555
H38 C32 1_555 1_555
H39 C32 1_555 1_555
C33 C32 1_555 1_555
O1A C1A 1_555 1_555
O2A C8A 1_555 1_555
O3A C4 1_555 1_555
O4A C17A 1_555 1_555
O5A C22A 1_555 1_555
O6A C25A 1_555 1_555
S1A C2A 1_555 1_555
C1A H1A 1_555 1_555
H2A C1A 1_555 1_555
C2A C1A 1_555 1_555
H3A C2A 1_555 1_555
H4A C2A 1_555 1_555
C3A S1A 1_555 1_555
H5A C3A 1_555 1_555
H6A C3A 1_555 1_555
C4A O3 1_555 1_555
H7A C4A 1_555 1_555
H8A C4A 1_555 1_555
C5A O3A 1_555 1_555
H9A C5A 1_555 1_555
H10A C5A 1_555 1_555
S2A C6A 1_555 1_555
C6A C5A 1_555 1_555
H11A C6A 1_555 1_555
H12A C6A 1_555 1_555
C7A S2A 1_555 1_555
H13A C7A 1_555 1_555
H14A C7A 1_555 1_555
C8A C7A 1_555 1_555
H15A C8A 1_555 1_555
H16A C8A 1_555 1_555
C9A O2A 1_555 1_555
C10A C9A 1_555 1_555
H17A C10A 1_555 1_555
C11A C10A 1_555 1_555
C12A O1A 1_555 1_555
C13A C12A 1_555 1_555
H18A C13A 1_555 1_555
C14A C9A 1_555 1_555
C15A C14A 1_555 1_555
H19A C15A 1_555 1_555
H20A C15A 1_555 1_555
C16A C15A 1_555 1_555
C17A C18 1_555 1_555
C18A C17 1_555 1_555
H21A C18A 1_555 1_555
C19A O4A 1_555 1_555
H22A C19A 1_555 1_555
H23A C19A 1_555 1_555
H24A C19A 1_555 1_555
H25A C20 1_555 1_555
C21A C20 1_555 1_555
C22A C21A 1_555 1_555
C23A C22A 1_555 1_555
H26A C23A 1_555 1_555
C24A C23A 1_555 1_555
C25A C24A 1_555 1_555
C26A C21A 1_555 1_555
H27A C26A 1_555 1_555
C27A O5A 1_555 1_555
H28A C27A 1_555 1_555
H29A C27A 1_555 1_555
H30A C27A 1_555 1_555
C28A O6A 1_555 1_555
H31A C28A 1_555 1_555
H32A C28A 1_555 1_555
H33A C28A 1_555 1_555
C29A C11A 1_555 1_555
H34A C29A 1_555 1_555
H35A C29A 1_555 1_555
N1A C33 1_555 1_555
N2A C30 1_555 1_555
C30A N2 1_555 1_555
C31A C31 1_555 1_555
H36A C31A 1_555 1_555
H37A C31 1_555 1_555
H38A C32 1_555 1_555
H39A C32 1_555 1_555
C33A N1 1_555 1_555
C11 C12 1_555 1_555
C13 C14 1_555 1_555
C24 C29 1_555 1_555
C25 C26 1_555 1_555
C30 C33A 1_555 1_555
C31 C33A 1_555 1_555
H37 C31A 1_555 1_555
C32 C31A 1_555 1_555
C32 C33A 1_555 1_555
C33 C30A 1_555 1_555
C33 C31A 1_555 1_555
C3A C4A 1_555 1_555
C11A C12A 1_555 1_555
C13A C14A 1_555 1_555
C16A C17A 1_555 1_555
C16A C18A 1_555 1_555
C24A C29A 1_555 1_555
C25A C26A 1_555 1_555
N1A C30A 1_555 1_555
N2A C33A 1_555 1_555
C30A C31A 1_555 1_555
C31A H37A 1_555 1_555

#END
