
#######################################################################
#
#                 Cambridge Crystallographic Data Centre
#                                CCDC 
#
#######################################################################
#
# If this CIF has been generated from an entry in the Cambridge 
# Structural Database, then it will include bibliographic, chemical, 
# crystal, experimental, refinement or atomic coordinate data resulting 
# from the CCDC's data processing and validation procedures.
#
#######################################################################

data_CILSIC
_chemical_formula_moiety         'C57 H70 O12 S4,C8 H12 N2'
_chemical_name_systematic        
'24,49,54,56,58,60-hexamethoxy-6,12,18,31,37,43-hexaoxa-9,15,34,40-tetrathiaoctacyclo[51.2.2.2^23,26^.2^48,51^.0^3,30^.0^5,28^.0^19,46^.0^21,44^]henhexaconta-1(55),3(30),4,19(46),20,23,25,28,44,48,50,53,56,58,60-pentadecaene octanedinitrile clathrate'
_symmetry_cell_setting           triclinic
_symmetry_space_group_name_H-M   'P -1'
_symmetry_Int_Tables_number      2
_space_group_name_Hall           '-P 1'
loop_
_symmetry_equiv_pos_site_id
_symmetry_equiv_pos_as_xyz
1 x,y,z
2 -x,-y,-z
_cell_length_a                   11.9933(2)
_cell_length_b                   12.8305(2)
_cell_length_c                   21.4857(3)
_cell_angle_alpha                93.2320(10)
_cell_angle_beta                 90.4630(10)
_cell_angle_gamma                108.9480(10)
_cell_volume                     3120.88
_exptl_crystal_colour            colorless
_exptl_crystal_description       Block
_cell_formula_units_Z            2
loop_
_atom_site_label
_atom_site_type_symbol
_atom_site_fract_x
_atom_site_fract_y
_atom_site_fract_z
O1 O 0.30614(16) 0.10100(14) 0.72001(8)
O2 O 0.31447(13) 0.11003(13) 0.99713(7)
O3 O 0.78236(13) 0.44752(12) 0.98896(7)
O4 O 1.12833(13) 0.56345(12) 0.81290(7)
O5 O 0.94931(18) 0.73732(16) 0.56874(10)
O6 O 0.51746(14) 0.52366(12) 0.64531(7)
O7 O 0.40532(13) 0.41761(13) 0.87621(7)
O8 O 0.82120(13) 0.73737(13) 0.81974(7)
O9 O 0.93150(14) 0.15612(13) 0.88801(7)
O10 O 1.02334(14) 0.24378(12) 0.64117(7)
O11 O 0.64591(13) -0.06119(12) 0.72291(7)
O12 O 0.62573(15) 0.21013(12) 0.53522(7)
S1 S 0.10021(6) -0.05426(5) 0.85425(3)
S2 S 0.60767(5) 0.22232(5) 1.10558(3)
S3 S 1.22947(5) 0.77719(5) 0.67881(3)
S4 S 0.69455(7) 0.74779(6) 0.59712(3)
C1 C 0.2366(4) 0.0964(3) 0.78079(17)
H1 H 0.2855 0.1475 0.8142
H2 H 0.1640 0.1153 0.7737
C2 C 0.2077(4) -0.0220(3) 0.79696(17)
H3 H 0.2801 -0.0344 0.8125
H4 H 0.1784 -0.0713 0.7591
C3 C 0.1617(2) 0.0424(2) 0.91948(11)
H5 H 0.1701 0.1178 0.9073
H6 H 0.1062 0.0257 0.9543
C4 C 0.2800(2) 0.0398(2) 0.94190(11)
H7 H 0.2747 -0.0366 0.9506
H8 H 0.3391 0.0654 0.9094
C5 C 0.4311(2) 0.1215(2) 1.01709(11)
H9 H 0.4882 0.1655 0.9878
H10 H 0.4409 0.0479 1.0178
C6 C 0.4538(2) 0.1782(2) 1.08126(10)
H11 H 0.4070 0.1271 1.1114
H12 H 0.4267 0.2433 1.0821
C7 C 0.66367(19) 0.34878(18) 1.06571(10)
H13 H 0.5967 0.3649 1.0460
H14 H 0.7023 0.4103 1.0967
C8 C 0.75123(19) 0.34341(18) 1.01618(10)
H15 H 0.8216 0.3319 1.0350
H16 H 0.7149 0.2824 0.9845
C9 C 1.13610(19) 0.65970(18) 0.78027(10)
H17 H 1.1635 0.7265 0.8091
H18 H 1.0578 0.6541 0.7625
C10 C 1.2228(2) 0.66694(19) 0.72876(11)
H19 H 1.1995 0.5960 0.7034
H20 H 1.3021 0.6792 0.7474
C11 C 1.0949(2) 0.7136(2) 0.63316(13)
H21 H 1.1053 0.6550 0.6041
H22 H 1.0304 0.6783 0.6613
C12 C 1.0607(3) 0.7946(3) 0.59677(15)
H23 H 1.0564 0.8572 0.6246
H24 H 1.1193 0.8238 0.5645
C13 C 0.9019(2) 0.8063(2) 0.53488(14)
H25 H 0.9402 0.8205 0.4942
H26 H 0.9154 0.8779 0.5586
C14 C 0.7709(2) 0.7464(2) 0.52524(12)
H27 H 0.7579 0.6691 0.5098
H28 H 0.7386 0.7824 0.4934
C15 C 0.5480(2) 0.66277(19) 0.57348(12)
H29 H 0.4912 0.6874 0.5985
H30 H 0.5344 0.6744 0.5293
C16 C 0.5223(2) 0.54095(19) 0.58014(10)
H31 H 0.4461 0.4984 0.5590
H32 H 0.5851 0.5164 0.5610
C17 C 0.46333(18) 0.41721(17) 0.66208(10)
C18 C 0.46045(18) 0.32466(17) 0.62466(10)
H33 H 0.4951 0.3338 0.5849
C19 C 0.40781(19) 0.21866(17) 0.64418(10)
C20 C 0.3563(2) 0.20729(18) 0.70248(10)
C21 C 0.35686(19) 0.29997(19) 0.73916(10)
H34 H 0.3197 0.2909 0.7783
C22 C 0.41061(18) 0.40593(18) 0.71986(10)
C23 C 0.41161(18) 0.50626(19) 0.76058(10)
H35 H 0.3373 0.4887 0.7837
H36 H 0.4147 0.5673 0.7337
C24 C 0.51497(18) 0.54429(17) 0.80683(10)
C25 C 0.51001(18) 0.49787(17) 0.86388(10)
C26 C 0.60653(18) 0.53277(17) 0.90519(10)
H37 H 0.6015 0.5005 0.9442
C27 C 0.71017(18) 0.61384(17) 0.89060(10)
C28 C 0.71567(18) 0.65910(17) 0.83261(10)
C29 C 0.61905(18) 0.62436(17) 0.79146(10)
H38 H 0.6241 0.6558 0.7522
C30 C 0.4049(2) 0.3506(2) 0.92580(11)
H39 H 0.3258 0.2972 0.9293
H40 H 0.4274 0.3968 0.9647
H41 H 0.4614 0.3110 0.9180
C31 C 0.8345(2) 0.7754(2) 0.75870(12)
H42 H 0.9127 0.8305 0.7555
H43 H 0.7738 0.8089 0.7499
H44 H 0.8261 0.7131 0.7284
C32 C 0.81672(18) 0.64680(17) 0.93495(10)
H45 H 0.8636 0.7252 0.9307
H46 H 0.7904 0.6384 0.9785
C33 C 0.89206(17) 0.57469(16) 0.92028(9)
C34 C 0.87109(17) 0.47314(17) 0.94640(9)
C35 C 0.93744(17) 0.40611(17) 0.92939(9)
H47 H 0.9233 0.3380 0.9484
C36 C 1.02459(17) 0.43637(16) 0.88504(9)
C37 C 1.04393(17) 0.53694(17) 0.85804(9)
C38 C 0.97971(17) 0.60552(17) 0.87664(9)
H48 H 0.9962 0.6751 0.8591
C39 C 1.09433(17) 0.36028(17) 0.86654(9)
H49 H 1.1735 0.4052 0.8534
H50 H 1.1049 0.3209 0.9033
C40 C 1.03446(17) 0.27636(16) 0.81396(9)
C41 C 0.95174(18) 0.17521(17) 0.82607(9)
C42 C 0.89601(19) 0.10005(17) 0.77742(10)
H51 H 0.8398 0.0315 0.7865
C43 C 0.92080(18) 0.12313(16) 0.71554(10)
C44 C 1.00331(18) 0.22383(17) 0.70335(9)
C45 C 1.05962(17) 0.29910(16) 0.75209(9)
H52 H 1.1163 0.3673 0.7430
C46 C 0.8426(2) 0.0565(2) 0.90231(12)
H53 H 0.8371 0.0529 0.9477
H54 H 0.8630 -0.0069 0.8847
H55 H 0.7666 0.0549 0.8844
C47 C 1.1184(2) 0.3388(2) 0.62722(11)
H56 H 1.1233 0.3436 0.5819
H57 H 1.1923 0.3334 0.6441
H58 H 1.1051 0.4050 0.6460
C48 C 0.85527(19) 0.04142(17) 0.66314(10)
H59 H 0.9055 0.0507 0.6262
H60 H 0.8399 -0.0346 0.6763
C49 C 0.73927(19) 0.05665(16) 0.64538(9)
C50 C 0.63623(19) 0.00676(16) 0.67749(9)
C51 C 0.53202(19) 0.02665(17) 0.66347(10)
H61 H 0.4637 -0.0065 0.6866
C52 C 0.52613(19) 0.09484(16) 0.61585(10)
C53 C 0.6271(2) 0.14106(16) 0.58298(9)
C54 C 0.7317(2) 0.12245(16) 0.59771(10)
H62 H 0.7998 0.1557 0.5745
C55 C 0.5394(2) -0.1265(2) 0.74895(12)
H63 H 0.5573 -0.1711 0.7807
H64 H 0.4885 -0.1753 0.7160
H65 H 0.4988 -0.0782 0.7681
C56 C 0.6109(3) 0.1552(2) 0.47496(11)
H66 H 0.6107 0.2075 0.4434
H67 H 0.5358 0.0944 0.4723
H68 H 0.6758 0.1258 0.4675
C57 C 0.4130(2) 0.11988(18) 0.60371(11)
H69 H 0.4077 0.1347 0.5593
H70 H 0.3447 0.0546 0.6122
N1 N 0.5529(4) 0.1096(4) 0.84919(19)
N2 N 0.7569(3) 0.4543(2) 0.46135(13)
C60 C 0.6008(4) 0.1890(3) 0.83107(18)
C61 C 0.6589(4) 0.3006(4) 0.81342(18)
H75 H 0.7196 0.3396 0.8458
H76 H 0.6003 0.3398 0.8122
C62 C 0.7147(3) 0.3061(3) 0.75323(16)
H77 H 0.6533 0.2755 0.7199
H78 H 0.7672 0.2604 0.7525
C63 C 0.7881(3) 0.4276(3) 0.74018(15)
H79 H 0.7345 0.4717 0.7364
H80 H 0.8441 0.4609 0.7756
C64 C 0.8559(3) 0.4304(2) 0.68045(14)
H81 H 0.9306 0.4930 0.6850
H82 H 0.8764 0.3617 0.6754
C65 C 0.7922(2) 0.4417(2) 0.62196(13)
H83 H 0.7774 0.5134 0.6249
H84 H 0.7148 0.3823 0.6183
C66 C 0.8623(2) 0.4352(2) 0.56386(14)
H85 H 0.9395 0.4947 0.5678
H86 H 0.8774 0.3637 0.5613
C67 C 0.8024(3) 0.4455(2) 0.50643(15)
C58? C 0.2900(6) 0.0619(5) 0.7759(3)
H71? H 0.3378 0.1170 0.8080
H72? H 0.3109 -0.0065 0.7772
C59? C 0.1591(6) 0.0388(6) 0.7857(3)
H73? H 0.1149 0.0025 0.7469
H74? H 0.1442 0.1098 0.7938
loop_
_geom_bond_atom_site_label_1
_geom_bond_atom_site_label_2
_geom_bond_site_symmetry_1
_geom_bond_site_symmetry_2
O1 C1 1_555 1_555
O2 C4 1_555 1_555
O3 C8 1_555 1_555
O4 C9 1_555 1_555
O5 C12 1_555 1_555
O6 C16 1_555 1_555
O7 C25 1_555 1_555
O8 C28 1_555 1_555
O9 C41 1_555 1_555
O10 C44 1_555 1_555
O11 C50 1_555 1_555
O12 C53 1_555 1_555
S1 C2 1_555 1_555
S2 C6 1_555 1_555
S3 C10 1_555 1_555
S4 C14 1_555 1_555
C1 H1 1_555 1_555
H2 C1 1_555 1_555
C2 C1 1_555 1_555
H3 C2 1_555 1_555
H4 C2 1_555 1_555
C3 S1 1_555 1_555
H5 C3 1_555 1_555
H6 C3 1_555 1_555
C4 C3 1_555 1_555
H7 C4 1_555 1_555
H8 C4 1_555 1_555
C5 O2 1_555 1_555
H9 C5 1_555 1_555
H10 C5 1_555 1_555
C6 C5 1_555 1_555
H11 C6 1_555 1_555
H12 C6 1_555 1_555
C7 S2 1_555 1_555
H13 C7 1_555 1_555
H14 C7 1_555 1_555
C8 C7 1_555 1_555
H15 C8 1_555 1_555
H16 C8 1_555 1_555
C9 H17 1_555 1_555
H18 C9 1_555 1_555
C10 C9 1_555 1_555
H19 C10 1_555 1_555
H20 C10 1_555 1_555
C11 S3 1_555 1_555
H21 C11 1_555 1_555
H22 C11 1_555 1_555
C12 C11 1_555 1_555
H23 C12 1_555 1_555
H24 C12 1_555 1_555
C13 O5 1_555 1_555
H25 C13 1_555 1_555
H26 C13 1_555 1_555
C14 C13 1_555 1_555
H27 C14 1_555 1_555
H28 C14 1_555 1_555
C15 S4 1_555 1_555
H29 C15 1_555 1_555
H30 C15 1_555 1_555
C16 C15 1_555 1_555
H31 C16 1_555 1_555
H32 C16 1_555 1_555
C17 O6 1_555 1_555
C18 C17 1_555 1_555
H33 C18 1_555 1_555
C19 C18 1_555 1_555
C20 O1 1_555 1_555
C21 C20 1_555 1_555
H34 C21 1_555 1_555
C22 C17 1_555 1_555
C23 C22 1_555 1_555
H35 C23 1_555 1_555
H36 C23 1_555 1_555
C24 C23 1_555 1_555
C25 C24 1_555 1_555
C26 C25 1_555 1_555
H37 C26 1_555 1_555
C27 C26 1_555 1_555
C28 C27 1_555 1_555
C29 C24 1_555 1_555
H38 C29 1_555 1_555
C30 O7 1_555 1_555
H39 C30 1_555 1_555
H40 C30 1_555 1_555
H41 C30 1_555 1_555
C31 O8 1_555 1_555
H42 C31 1_555 1_555
H43 C31 1_555 1_555
H44 C31 1_555 1_555
C32 C27 1_555 1_555
H45 C32 1_555 1_555
H46 C32 1_555 1_555
C33 C32 1_555 1_555
C34 O3 1_555 1_555
C35 C34 1_555 1_555
H47 C35 1_555 1_555
C36 C35 1_555 1_555
C37 O4 1_555 1_555
C38 C33 1_555 1_555
H48 C38 1_555 1_555
C39 C36 1_555 1_555
H49 C39 1_555 1_555
H50 C39 1_555 1_555
C40 C39 1_555 1_555
C41 C40 1_555 1_555
C42 C41 1_555 1_555
H51 C42 1_555 1_555
C43 C42 1_555 1_555
C44 C43 1_555 1_555
C45 C40 1_555 1_555
H52 C45 1_555 1_555
C46 O9 1_555 1_555
H53 C46 1_555 1_555
H54 C46 1_555 1_555
H55 C46 1_555 1_555
C47 O10 1_555 1_555
H56 C47 1_555 1_555
H57 C47 1_555 1_555
H58 C47 1_555 1_555
C48 C43 1_555 1_555
H59 C48 1_555 1_555
H60 C48 1_555 1_555
C49 C48 1_555 1_555
C50 C49 1_555 1_555
C51 C50 1_555 1_555
H61 C51 1_555 1_555
C52 C51 1_555 1_555
C53 C52 1_555 1_555
C54 C49 1_555 1_555
H62 C54 1_555 1_555
C55 O11 1_555 1_555
H63 C55 1_555 1_555
H64 C55 1_555 1_555
H65 C55 1_555 1_555
C56 O12 1_555 1_555
H66 C56 1_555 1_555
H67 C56 1_555 1_555
H68 C56 1_555 1_555
C57 C19 1_555 1_555
H69 C57 1_555 1_555
H70 C57 1_555 1_555
N1 C60 1_555 1_555
N2 C67 1_555 1_555
C60 C61 1_555 1_555
C61 H75 1_555 1_555
H76 C61 1_555 1_555
C62 C61 1_555 1_555
H77 C62 1_555 1_555
H78 C62 1_555 1_555
C63 C62 1_555 1_555
H79 C63 1_555 1_555
H80 C63 1_555 1_555
C64 C63 1_555 1_555
H81 C64 1_555 1_555
H82 C64 1_555 1_555
C65 C64 1_555 1_555
H83 C65 1_555 1_555
H84 C65 1_555 1_555
C66 C65 1_555 1_555
H85 C66 1_555 1_555
H86 C66 1_555 1_555
C67 C66 1_555 1_555
C19 C20 1_555 1_555
C21 C22 1_555 1_555
C28 C29 1_555 1_555
C33 C34 1_555 1_555
C36 C37 1_555 1_555
C37 C38 1_555 1_555
C44 C45 1_555 1_555
C52 C57 1_555 1_555
C53 C54 1_555 1_555

#END
