
#######################################################################
#
#                 Cambridge Crystallographic Data Centre
#                                CCDC 
#
#######################################################################
#
# If this CIF has been generated from an entry in the Cambridge 
# Structural Database, then it will include bibliographic, chemical, 
# crystal, experimental, refinement or atomic coordinate data resulting 
# from the CCDC's data processing and validation procedures.
#
#######################################################################

data_CILSEW
_chemical_formula_moiety         'C15 H19 N1 O4 S1'
_chemical_name_systematic        
1-(Hydroxymethyl)-2-p-tosylhexahydro-3H-pyrrolizin-3-one
_symmetry_cell_setting           orthorhombic
_symmetry_space_group_name_H-M   'P 21 21 2'
_symmetry_Int_Tables_number      18
_space_group_name_Hall           'P 2 2ab'
loop_
_symmetry_equiv_pos_site_id
_symmetry_equiv_pos_as_xyz
1 x,y,z
2 -x,-y,z
3 1/2-x,1/2+y,-z
4 1/2+x,1/2-y,-z
_cell_length_a                   13.606(3)
_cell_length_b                   14.294(4)
_cell_length_c                   7.8751(13)
_cell_angle_alpha                90
_cell_angle_beta                 90
_cell_angle_gamma                90
_cell_volume                     1531.58
_exptl_crystal_colour            colorless
_exptl_crystal_description       'platy needles'
_cell_formula_units_Z            4
loop_
_atom_site_label
_atom_site_type_symbol
_atom_site_fract_x
_atom_site_fract_y
_atom_site_fract_z
N1 N 0.3326(5) 0.2804(6) -0.1346(10)
C1 C 0.3101(6) 0.2280(9) -0.0011(13)
O1 O 0.2297(4) 0.2232(8) 0.0689(10)
C2 C 0.3994(6) 0.1726(6) 0.0550(11)
H1 H 0.3878 0.1056 0.0382
C3 C 0.4838(5) 0.2068(5) -0.0640(11)
H2 H 0.5303 0.2437 0.0034
C4 C 0.4342(6) 0.2712(6) -0.1921(11)
H3 H 0.4352 0.2417 -0.3044
C5 C 0.4634(9) 0.3708(7) -0.2083(18)
H4 H 0.5181 0.3778 -0.2864
H5 H 0.4819 0.3966 -0.0989
C6 C 0.3724(10) 0.4179(8) -0.276(2)
H6 H 0.3716 0.4836 -0.2454
H7 H 0.3697 0.4128 -0.3990
C7 C 0.2870(9) 0.3672(8) -0.1963(16)
H8 H 0.2591 0.4031 -0.1035
H9 H 0.2360 0.3543 -0.2791
S1 S 0.43088(14) 0.19484(14) 0.2695(3)
O2 O 0.4302(5) 0.2935(4) 0.2897(8)
O3 O 0.5216(4) 0.1454(5) 0.2992(9)
C8 C 0.3397(6) 0.1461(5) 0.4030(11)
C9 C 0.2606(7) 0.1986(5) 0.4561(10)
H10 H 0.2505 0.2584 0.4129
C10 C 0.1967(6) 0.1619(7) 0.5730(12)
H11 H 0.1447 0.1983 0.6120
C11 C 0.2076(7) 0.0736(7) 0.6332(13)
C12 C 0.2855(7) 0.0213(6) 0.5795(14)
H12 H 0.2942 -0.0385 0.6236
C13 C 0.3524(6) 0.0550(5) 0.4606(13)
H13 H 0.4037 0.0179 0.4212
C14 C 0.1373(9) 0.0362(8) 0.7676(16)
H14 H 0.1572 0.0584 0.8774
H15 H 0.1384 -0.0309 0.7664
H16 H 0.0719 0.0577 0.7436
C15 C 0.5392(7) 0.1291(7) -0.1507(17)
H17 H 0.5621 0.0848 -0.0662
H18 H 0.4954 0.0963 -0.2275
O4 O 0.6155(8) 0.1618(9) -0.2370(18)
H21 H 0.6472 0.1975 -0.1766
H19? H 0.5808 0.1571 -0.2350
H20? H 0.4911 0.0923 -0.2097
O5? O 0.5936(13) 0.0751(12) -0.063(3)
H22? H 0.5677 0.0234 -0.0564
loop_
_geom_bond_atom_site_label_1
_geom_bond_atom_site_label_2
_geom_bond_site_symmetry_1
_geom_bond_site_symmetry_2
N1 C1 1_555 1_555
C1 O1 1_555 1_555
C2 C1 1_555 1_555
H1 C2 1_555 1_555
C3 C2 1_555 1_555
H2 C3 1_555 1_555
C4 N1 1_555 1_555
H3 C4 1_555 1_555
C5 C4 1_555 1_555
H4 C5 1_555 1_555
H5 C5 1_555 1_555
C6 C5 1_555 1_555
H6 C6 1_555 1_555
H7 C6 1_555 1_555
C7 N1 1_555 1_555
H8 C7 1_555 1_555
H9 C7 1_555 1_555
S1 C2 1_555 1_555
O2 S1 1_555 1_555
O3 S1 1_555 1_555
C8 S1 1_555 1_555
C9 C8 1_555 1_555
H10 C9 1_555 1_555
C10 C9 1_555 1_555
H11 C10 1_555 1_555
C11 C10 1_555 1_555
C12 C11 1_555 1_555
H12 C12 1_555 1_555
C13 C8 1_555 1_555
H13 C13 1_555 1_555
C14 C11 1_555 1_555
H14 C14 1_555 1_555
H15 C14 1_555 1_555
H16 C14 1_555 1_555
C15 C3 1_555 1_555
H17 C15 1_555 1_555
H18 C15 1_555 1_555
O4 C15 1_555 1_555
H21 O4 1_555 1_555
C3 C4 1_555 1_555
C6 C7 1_555 1_555
C12 C13 1_555 1_555

#END
