
#######################################################################
#
#                 Cambridge Crystallographic Data Centre
#                                CCDC 
#
#######################################################################
#
# If this CIF has been generated from an entry in the Cambridge 
# Structural Database, then it will include bibliographic, chemical, 
# crystal, experimental, refinement or atomic coordinate data resulting 
# from the CCDC's data processing and validation procedures.
#
#######################################################################

data_CILXUT
_chemical_formula_moiety         'C21 H18 Br2'
_chemical_name_systematic        
3,6-dibromo-9-methyl-10,11,12,13-tetrahydro-9H-9,13-methanocyclohepta[l]phenanthrene
_symmetry_cell_setting           monoclinic
_symmetry_space_group_name_H-M   'P 21/c'
_symmetry_Int_Tables_number      14
_space_group_name_Hall           '-P 2ybc'
loop_
_symmetry_equiv_pos_site_id
_symmetry_equiv_pos_as_xyz
1 x,y,z
2 -x,1/2+y,1/2-z
3 -x,-y,-z
4 x,1/2-y,1/2+z
_cell_length_a                   7.258(3)
_cell_length_b                   18.732(7)
_cell_length_c                   12.399(5)
_cell_angle_alpha                90
_cell_angle_beta                 93.746(5)
_cell_angle_gamma                90
_cell_volume                     1682.13
_exptl_crystal_colour            yellow
_exptl_crystal_description       block
_cell_formula_units_Z            4
loop_
_atom_site_label
_atom_site_type_symbol
_atom_site_fract_x
_atom_site_fract_y
_atom_site_fract_z
Br1 Br 0.23232(5) 0.37608(2) 0.79673(3)
Br2 Br 0.42885(5) 0.74755(2) 0.56849(3)
C1 C 0.1703(4) 0.41940(16) 0.4228(2)
C2 C 0.3581(4) 0.66953(16) 0.4755(3)
C3 C 0.2089(4) 0.39429(17) 0.6449(2)
C4 C 0.3220(4) 0.60395(16) 0.5199(2)
H1 H 0.3339 0.5980 0.5945
C5 C 0.2888(5) 0.62639(17) 0.2979(3)
H2 H 0.2775 0.6337 0.2236
C6 C 0.2274(4) 0.47560(15) 0.4953(2)
C7 C 0.1543(5) 0.33821(17) 0.5751(3)
H3 H 0.1304 0.2931 0.6022
C8 C 0.2453(4) 0.46109(16) 0.6076(2)
H4 H 0.2819 0.4971 0.6560
C9 C 0.2482(4) 0.55828(16) 0.3395(2)
C10 C 0.1670(5) 0.5020(2) 0.1479(3)
H5 H 0.1220 0.5478 0.1186
C11 C 0.2671(4) 0.54591(15) 0.4529(2)
C12 C 0.1857(4) 0.50118(17) 0.2703(3)
C13 C 0.0971(5) 0.38554(18) 0.2115(3)
C14 C 0.2778(5) 0.3540(2) 0.1718(3)
H6 H 0.3266 0.3190 0.2238
H7 H 0.2505 0.3296 0.1036
C15 C 0.3442(4) 0.68178(17) 0.3642(3)
H8 H 0.3718 0.7262 0.3360
C16 C 0.1370(4) 0.35110(17) 0.4665(3)
H9 H 0.1023 0.3139 0.4198
C17 C -0.0484(5) 0.3283(2) 0.2222(3)
H10 H -0.0933 0.3127 0.1516
H11 H -0.1489 0.3475 0.2597
H12 H 0.0048 0.2886 0.2620
C18 C 0.1474(4) 0.43470(16) 0.3085(2)
C19 C 0.0280(5) 0.4418(2) 0.1273(3)
H13 H 0.0308 0.4235 0.0542
H14 H -0.0963 0.4574 0.1396
C20 C 0.4249(5) 0.4113(2) 0.1567(3)
H15 H 0.4832 0.4234 0.2270
H16 H 0.5191 0.3915 0.1135
C21 C 0.3510(6) 0.4791(2) 0.1030(3)
H17 H 0.3325 0.4714 0.0257
H18 H 0.4409 0.5170 0.1150
loop_
_geom_bond_atom_site_label_1
_geom_bond_atom_site_label_2
_geom_bond_site_symmetry_1
_geom_bond_site_symmetry_2
Br1 C3 1_555 1_555
Br2 C2 1_555 1_555
C1 C6 1_555 1_555
C2 C4 1_555 1_555
C3 C7 1_555 1_555
C4 H1 1_555 1_555
C5 H2 1_555 1_555
C6 C8 1_555 1_555
C7 H3 1_555 1_555
C8 C3 1_555 1_555
H4 C8 1_555 1_555
C9 C5 1_555 1_555
C10 H5 1_555 1_555
C11 C4 1_555 1_555
C12 C9 1_555 1_555
C13 C14 1_555 1_555
C14 H6 1_555 1_555
H7 C14 1_555 1_555
C15 C2 1_555 1_555
H8 C15 1_555 1_555
C16 C1 1_555 1_555
H9 C16 1_555 1_555
C17 C13 1_555 1_555
H10 C17 1_555 1_555
H11 C17 1_555 1_555
H12 C17 1_555 1_555
C18 C1 1_555 1_555
C19 C10 1_555 1_555
H13 C19 1_555 1_555
H14 C19 1_555 1_555
C20 C14 1_555 1_555
H15 C20 1_555 1_555
H16 C20 1_555 1_555
C21 C10 1_555 1_555
H17 C21 1_555 1_555
H18 C21 1_555 1_555
C5 C15 1_555 1_555
C6 C11 1_555 1_555
C7 C16 1_555 1_555
C9 C11 1_555 1_555
C10 C12 1_555 1_555
C12 C18 1_555 1_555
C13 C18 1_555 1_555
C13 C19 1_555 1_555
C20 C21 1_555 1_555

#END
