
#######################################################################
#
#                 Cambridge Crystallographic Data Centre
#                                CCDC 
#
#######################################################################
#
# If this CIF has been generated from an entry in the Cambridge 
# Structural Database, then it will include bibliographic, chemical, 
# crystal, experimental, refinement or atomic coordinate data resulting 
# from the CCDC's data processing and validation procedures.
#
#######################################################################

data_CIMBUX
_chemical_formula_moiety         'C60 Cl22'
_chemical_name_systematic        'docosachloro-C60graphene unknown solvate'
_symmetry_cell_setting           monoclinic
_symmetry_space_group_name_H-M   'C 2/c'
_symmetry_Int_Tables_number      15
_space_group_name_Hall           '-C 2yn'
loop_
_symmetry_equiv_pos_site_id
_symmetry_equiv_pos_as_xyz
1 x,y,z
2 -x,y,1/2-z
3 1/2+x,1/2+y,z
4 1/2-x,1/2+y,1/2-z
5 -x,-y,-z
6 x,-y,1/2+z
7 1/2-x,1/2-y,-z
8 1/2+x,1/2-y,1/2+z
_cell_length_a                   27.683(6)
_cell_length_b                   21.998(4)
_cell_length_c                   21.006(4)
_cell_angle_alpha                90
_cell_angle_beta                 91.15(3)
_cell_angle_gamma                90
_cell_volume                     12789.5
_cell_formula_units_Z            8
loop_
_atom_site_label
_atom_site_type_symbol
_atom_site_fract_x
_atom_site_fract_y
_atom_site_fract_z
Cl1 Cl 0.20631(4) 1.11079(5) 0.58969(5)
Cl2 Cl 0.26274(4) 1.06563(6) 0.35705(5)
Cl3 Cl 0.28127(4) 1.12915(5) 0.48542(6)
Cl4 Cl 0.11994(4) 1.03230(6) 0.53989(6)
Cl5 Cl 0.34261(5) 1.08052(6) 0.25879(6)
Cl6 Cl 0.12569(5) 0.95251(6) 0.85874(6)
Cl7 Cl 0.04103(4) 1.00965(6) 0.63810(7)
Cl8 Cl 0.21996(5) 0.54443(6) 0.77550(6)
Cl9 Cl 0.05851(4) 0.91860(7) 0.74678(7)
Cl10 Cl 0.20797(5) 0.74115(6) 0.92210(6)
Cl11 Cl 0.14649(5) 0.85108(6) 0.95608(6)
Cl12 Cl 0.43962(5) 1.01453(7) 0.27632(6)
Cl13 Cl 0.51064(5) 1.05714(7) 0.38320(7)
Cl14 Cl 0.16193(5) 0.65084(6) 0.82696(7)
Cl15 Cl 0.48040(5) 0.65167(7) 0.66106(7)
Cl16 Cl 0.40072(5) 0.63134(7) 0.75803(7)
Cl17 Cl 0.60218(5) 0.97837(7) 0.39813(7)
Cl18 Cl 0.31123(5) 0.56522(6) 0.69850(7)
Cl19 Cl 0.45369(6) 0.60341(7) 0.52457(8)
Cl20 Cl 0.59628(5) 0.85186(8) 0.46013(7)
Cl21 Cl 0.54781(6) 0.75497(8) 0.37128(7)
Cl22 Cl 0.52282(6) 0.62606(7) 0.41486(8)
C1 C 0.34317(18) 0.7028(2) 0.6822(2)
C2 C 0.26204(16) 0.9469(2) 0.57477(19)
C3 C 0.33685(15) 0.91193(19) 0.52454(19)
C4 C 0.18966(15) 0.92922(19) 0.66936(19)
C5 C 0.33828(15) 0.8599(2) 0.56324(19)
C6 C 0.23315(15) 1.0471(2) 0.5556(2)
C7 C 0.37738(16) 0.8191(2) 0.5595(2)
C8 C 0.30365(16) 0.7989(2) 0.6498(2)
C9 C 0.34170(16) 0.7550(2) 0.6432(2)
C10 C 0.41523(16) 0.8837(2) 0.4809(2)
C11 C 0.15403(16) 0.9199(2) 0.7165(2)
C12 C 0.37892(16) 0.7644(2) 0.5990(2)
C13 C 0.16613(15) 0.8786(2) 0.7693(2)
C14 C 0.21492(18) 0.6666(2) 0.7899(2)
C15 C 0.10759(16) 0.9437(2) 0.7054(2)
C16 C 0.26676(17) 0.7356(2) 0.7325(2)
C17 C 0.26842(15) 0.7913(2) 0.69663(19)
C18 C 0.22462(17) 0.9894(2) 0.58166(19)
C19 C 0.29769(15) 0.95460(19) 0.5284(2)
C20 C 0.28375(18) 0.6278(2) 0.7321(2)
C21 C 0.37332(16) 0.9753(2) 0.43919(19)
C22 C 0.50478(19) 0.9800(2) 0.3999(2)
C23 C 0.30148(16) 0.8498(2) 0.6095(2)
C24 C 0.37625(16) 0.9243(2) 0.4829(2)
C25 C 0.19908(16) 0.8305(2) 0.7568(2)
C26 C 0.32027(17) 1.0415(2) 0.3768(2)
C27 C 0.29661(15) 1.0066(2) 0.4880(2)
C28 C 0.22955(17) 0.7267(2) 0.7771(2)
C29 C 0.23208(15) 0.83584(19) 0.70481(19)
C30 C 0.33016(16) 1.0103(2) 0.4348(2)
C31 C 0.41615(16) 0.7221(2) 0.5930(2)
C32 C 0.26359(15) 0.8939(2) 0.6161(2)
C33 C 0.20416(16) 0.7808(2) 0.7998(2)
C34 C 0.45733(17) 0.8991(2) 0.4436(2)
C35 C 0.18774(17) 0.7893(2) 0.8614(2)
C36 C 0.35652(18) 1.0433(2) 0.3305(2)
C37 C 0.26750(16) 1.0565(2) 0.5088(2)
C38 C 0.24139(19) 0.6172(2) 0.7664(2)
C39 C 0.49781(17) 0.8610(2) 0.4465(2)
C40 C 0.22985(15) 0.88699(19) 0.66438(19)
C41 C 0.38767(18) 0.6726(2) 0.6892(2)
C42 C 0.09910(16) 0.9819(2) 0.6528(2)
C43 C 0.15059(15) 0.8841(2) 0.8320(2)
C44 C 0.47009(19) 0.6778(2) 0.5076(2)
C45 C 0.16193(18) 0.8407(2) 0.8775(2)
C46 C 0.29926(17) 0.6878(2) 0.7183(2)
C47 C 0.45266(17) 0.7849(2) 0.5093(2)
C48 C 0.41614(16) 0.8304(2) 0.5179(2)
C49 C 0.41133(16) 0.9850(2) 0.3965(2)
C50 C 0.54651(17) 0.9467(3) 0.4126(2)
C51 C 0.18314(16) 0.97383(19) 0.6204(2)
C52 C 0.40076(17) 1.0170(2) 0.3400(2)
C53 C 0.49099(17) 0.7965(2) 0.4666(2)
C54 C 0.51270(18) 0.7463(3) 0.4382(2)
C55 C 0.42422(18) 0.6816(2) 0.6454(2)
C56 C 0.44865(17) 0.7264(2) 0.5386(2)
C57 C 0.54317(18) 0.8870(3) 0.4343(2)
C58 C 0.13536(16) 0.9965(2) 0.6104(2)
C59 C 0.45831(17) 0.9559(2) 0.4121(2)
C60 C 0.50198(19) 0.6879(3) 0.4569(2)
loop_
_geom_bond_atom_site_label_1
_geom_bond_atom_site_label_2
_geom_bond_site_symmetry_1
_geom_bond_site_symmetry_2
Cl1 C6 1_555 1_555
Cl2 C26 1_555 1_555
Cl3 C37 1_555 1_555
Cl4 C58 1_555 1_555
Cl5 C36 1_555 1_555
Cl6 C43 1_555 1_555
Cl7 C42 1_555 1_555
Cl8 C38 1_555 1_555
Cl9 C15 1_555 1_555
Cl10 C35 1_555 1_555
Cl11 C45 1_555 1_555
Cl12 C52 1_555 1_555
Cl13 C22 1_555 1_555
Cl14 C14 1_555 1_555
Cl15 C55 1_555 1_555
Cl16 C41 1_555 1_555
Cl17 C50 1_555 1_555
Cl18 C20 1_555 1_555
Cl19 C44 1_555 1_555
Cl20 C57 1_555 1_555
Cl21 C54 1_555 1_555
Cl22 C60 1_555 1_555
C1 C9 1_555 1_555
C2 C18 1_555 1_555
C3 C5 1_555 1_555
C4 C11 1_555 1_555
C5 C7 1_555 1_555
C6 C18 1_555 1_555
C7 C12 1_555 1_555
C8 C9 1_555 1_555
C9 C12 1_555 1_555
C10 C24 1_555 1_555
C11 C13 1_555 1_555
C12 C31 1_555 1_555
C13 C25 1_555 1_555
C14 C28 1_555 1_555
C15 C11 1_555 1_555
C16 C17 1_555 1_555
C17 C8 1_555 1_555
C18 C51 1_555 1_555
C19 C2 1_555 1_555
C20 C38 1_555 1_555
C21 C24 1_555 1_555
C22 C50 1_555 1_555
C23 C5 1_555 1_555
C24 C3 1_555 1_555
C25 C29 1_555 1_555
C26 C30 1_555 1_555
C27 C19 1_555 1_555
C28 C16 1_555 1_555
C29 C17 1_555 1_555
C30 C21 1_555 1_555
C31 C55 1_555 1_555
C32 C2 1_555 1_555
C33 C25 1_555 1_555
C34 C10 1_555 1_555
C35 C33 1_555 1_555
C36 C26 1_555 1_555
C37 C6 1_555 1_555
C38 C14 1_555 1_555
C39 C34 1_555 1_555
C40 C4 1_555 1_555
C41 C1 1_555 1_555
C42 C15 1_555 1_555
C43 C13 1_555 1_555
C44 C56 1_555 1_555
C45 C35 1_555 1_555
C46 C1 1_555 1_555
C47 C48 1_555 1_555
C48 C7 1_555 1_555
C49 C21 1_555 1_555
C50 C57 1_555 1_555
C51 C4 1_555 1_555
C52 C36 1_555 1_555
C53 C39 1_555 1_555
C54 C53 1_555 1_555
C55 C41 1_555 1_555
C56 C31 1_555 1_555
C57 C39 1_555 1_555
C58 C42 1_555 1_555
C59 C22 1_555 1_555
C60 C44 1_555 1_555
C3 C19 1_555 1_555
C8 C23 1_555 1_555
C10 C48 1_555 1_555
C16 C46 1_555 1_555
C20 C46 1_555 1_555
C23 C32 1_555 1_555
C27 C30 1_555 1_555
C27 C37 1_555 1_555
C28 C33 1_555 1_555
C29 C40 1_555 1_555
C32 C40 1_555 1_555
C34 C59 1_555 1_555
C43 C45 1_555 1_555
C47 C53 1_555 1_555
C47 C56 1_555 1_555
C49 C52 1_555 1_555
C49 C59 1_555 1_555
C51 C58 1_555 1_555
C54 C60 1_555 1_555

#END
