
#######################################################################
#
#                 Cambridge Crystallographic Data Centre
#                                CCDC 
#
#######################################################################
#
# If this CIF has been generated from an entry in the Cambridge 
# Structural Database, then it will include bibliographic, chemical, 
# crystal, experimental, refinement or atomic coordinate data resulting 
# from the CCDC's data processing and validation procedures.
#
#######################################################################

data_CIMCEI
_chemical_formula_moiety         'C42 Cl18,2(C1 S2)'
_chemical_name_systematic        
'1,2,3,4,5,6,7,8,9,10,11,12,13,14,15,16,17,18-octadecachlorohexabenzo[bc,ef,hi,kl,no,qr]coronene methanedithione solvate'
_symmetry_cell_setting           triclinic
_symmetry_space_group_name_H-M   'P -1'
_symmetry_Int_Tables_number      2
_space_group_name_Hall           '-P 1'
loop_
_symmetry_equiv_pos_site_id
_symmetry_equiv_pos_as_xyz
1 x,y,z
2 -x,-y,-z
_cell_length_a                   9.1469(18)
_cell_length_b                   10.368(2)
_cell_length_c                   12.092(2)
_cell_angle_alpha                86.48(3)
_cell_angle_beta                 88.75(3)
_cell_angle_gamma                75.41(3)
_cell_volume                     1107.65
_cell_formula_units_Z            1
loop_
_atom_site_label
_atom_site_type_symbol
_atom_site_fract_x
_atom_site_fract_y
_atom_site_fract_z
C1 C 0.0325(13) 0.2538(13) 0.8727(9)
C2 C 0.2141(14) 0.7665(13) 0.4784(8)
C3 C 0.1133(13) 0.5398(12) 0.5572(9)
C4 C 0.1080(12) 0.7241(12) 0.4141(8)
C5 C 0.2339(12) 0.5743(12) 0.6125(8)
C6 C 0.0422(13) 0.7976(13) 0.3177(8)
C7 C 0.0566(12) 0.6095(12) 0.4568(8)
C8 C 0.2012(14) 0.3979(14) 0.8880(9)
C9 C 0.1063(13) 0.3678(12) 0.7085(9)
C10 C 0.0584(12) 0.4315(13) 0.6004(8)
C11 C 0.2992(13) 0.4978(13) 0.7092(9)
C12 C -0.0358(13) 0.7296(13) 0.2434(9)
C13 C 0.3012(13) 0.6697(12) 0.5618(8)
C14 C 0.4496(13) 0.4946(14) 0.7350(9)
C15 C 0.1153(14) 0.3189(14) 0.9376(9)
C16 C 0.2053(11) 0.4196(13) 0.7716(9)
C17 C 0.0502(14) 0.9300(13) 0.3048(9)
C18 C 0.1336(14) 0.9834(13) 0.3766(9)
C19 C 0.2166(14) 0.9042(13) 0.4600(9)
C20 C 0.4547(14) 0.6622(14) 0.5874(10)
C21 C 0.5258(13) 0.5780(14) 0.6750(9)
Cl1 Cl 0.3032(4) 0.9762(3) 0.5565(2)
Cl2 Cl 0.1319(4) 1.1499(3) 0.3633(2)
Cl3 Cl 0.2828(4) 0.4906(4) 0.9723(2)
Cl4 Cl 0.5647(4) 0.7399(4) 0.5012(2)
Cl5 Cl 0.1044(4) 0.3004(4) 1.0804(2)
Cl6 Cl 0.7091(3) 0.5711(4) 0.7077(2)
Cl7 Cl -0.0948(4) 0.1766(4) 0.9404(2)
Cl8 Cl 0.5550(4) 0.3695(4) 0.8231(2)
Cl9 Cl -0.0690(4) 1.0409(4) 0.2129(2)
C1A C -0.0325(13) 0.7462(13) 0.1273(9)
C2A C -0.2141(14) 0.2335(13) 0.5216(8)
C3A C -0.1133(13) 0.4602(12) 0.4428(9)
C4A C -0.1080(12) 0.2759(12) 0.5859(8)
C5A C -0.2339(12) 0.4257(12) 0.3875(8)
C6A C -0.0422(13) 0.2024(13) 0.6823(8)
C7A C -0.0566(12) 0.3905(12) 0.5432(8)
C8A C -0.2012(14) 0.6021(14) 0.1120(9)
C9A C -0.1063(13) 0.6322(12) 0.2915(9)
C10A C -0.0584(12) 0.5685(13) 0.3996(8)
C11A C -0.2992(13) 0.5022(13) 0.2908(9)
C12A C 0.0358(13) 0.2704(13) 0.7566(9)
C13A C -0.3012(13) 0.3303(12) 0.4382(8)
C14A C -0.4496(13) 0.5054(14) 0.2650(9)
C15A C -0.1153(14) 0.6811(14) 0.0624(9)
C16A C -0.2053(11) 0.5804(13) 0.2284(9)
C17A C -0.0502(14) 0.0700(13) 0.6952(9)
C18A C -0.1336(14) 0.0166(13) 0.6234(9)
C19A C -0.2166(14) 0.0958(13) 0.5400(9)
C20A C -0.4547(14) 0.3378(14) 0.4126(10)
C21A C -0.5258(13) 0.4220(14) 0.3250(9)
Cl1A Cl -0.3032(4) 0.0238(3) 0.4435(2)
Cl2A Cl -0.1319(4) -0.1499(3) 0.6367(2)
Cl3A Cl -0.2828(4) 0.5094(4) 0.0277(2)
Cl4A Cl -0.5647(4) 0.2601(4) 0.4988(2)
Cl5A Cl -0.1044(4) 0.6996(4) -0.0804(2)
Cl6A Cl -0.7091(3) 0.4289(4) 0.2923(2)
Cl7A Cl 0.0948(4) 0.8234(4) 0.0596(2)
Cl8A Cl -0.5550(4) 0.6305(4) 0.1769(2)
Cl9A Cl 0.0690(4) -0.0409(4) 0.7871(2)
C22 C 0.4680(19) 0.930(2) 0.8451(13)
S1 S 0.4955(9) 1.0569(7) 0.7826(6)
S2 S 0.4384(6) 0.7988(6) 0.8998(4)
loop_
_geom_bond_atom_site_label_1
_geom_bond_atom_site_label_2
_geom_bond_site_symmetry_1
_geom_bond_site_symmetry_2
C1 C15 1_555 1_555
C2 C4 1_555 1_555
C3 C5 1_555 1_555
C4 C6 1_555 1_555
C5 C11 1_555 1_555
C6 C12 1_555 1_555
C7 C3 1_555 1_555
C8 C15 1_555 1_555
C9 C10 1_555 1_555
C10 C3 1_555 1_555
C11 C14 1_555 1_555
C12 C1A 1_555 1_555
C13 C2 1_555 1_555
C14 C21 1_555 1_555
C15 Cl5 1_555 1_555
C16 C8 1_555 1_555
C17 C6 1_555 1_555
C18 C17 1_555 1_555
C19 C2 1_555 1_555
C20 C13 1_555 1_555
C21 C20 1_555 1_555
Cl1 C19 1_555 1_555
Cl2 C18 1_555 1_555
Cl3 C8 1_555 1_555
Cl4 C20 1_555 1_555
Cl6 C21 1_555 1_555
Cl7 C1 1_555 1_555
Cl8 C14 1_555 1_555
Cl9 C17 1_555 1_555
C22 S1 1_555 1_555
S2 C22 1_555 1_555
C1A C15A 1_555 1_555
C2A C4A 1_555 1_555
C3A C5A 1_555 1_555
C4A C6A 1_555 1_555
C5A C11A 1_555 1_555
C6A C12A 1_555 1_555
C7A C10 1_555 1_555
C8A C15A 1_555 1_555
C9A C12 1_555 1_555
C10A C7 1_555 1_555
C11A C14A 1_555 1_555
C12A C1 1_555 1_555
C13A C2A 1_555 1_555
C14A C21A 1_555 1_555
C15A Cl5A 1_555 1_555
C16A C8A 1_555 1_555
C17A C6A 1_555 1_555
C18A C17A 1_555 1_555
C19A C2A 1_555 1_555
C20A C13A 1_555 1_555
C21A C20A 1_555 1_555
Cl1A C19A 1_555 1_555
Cl2A C18A 1_555 1_555
Cl3A C8A 1_555 1_555
Cl4A C20A 1_555 1_555
Cl6A C21A 1_555 1_555
Cl7A C1A 1_555 1_555
Cl8A C14A 1_555 1_555
Cl9A C17A 1_555 1_555
C4 C7 1_555 1_555
C5 C13 1_555 1_555
C9 C16 1_555 1_555
C9 C12A 1_555 1_555
C11 C16 1_555 1_555
C18 C19 1_555 1_555
C3A C7A 1_555 1_555
C3A C10A 1_555 1_555
C4A C7A 1_555 1_555
C5A C13A 1_555 1_555
C9A C10A 1_555 1_555
C9A C16A 1_555 1_555
C11A C16A 1_555 1_555
C18A C19A 1_555 1_555

#END
