
#######################################################################
#
#                 Cambridge Crystallographic Data Centre
#                                CCDC 
#
#######################################################################
#
# If this CIF has been generated from an entry in the Cambridge 
# Structural Database, then it will include bibliographic, chemical, 
# crystal, experimental, refinement or atomic coordinate data resulting 
# from the CCDC's data processing and validation procedures.
#
#######################################################################

data_CIMMUI04
_chemical_formula_moiety         'C19 H17 B1 F2 I2 N2'
_chemical_name_systematic        
5,5-difluoro-2,8-diiodo-1,3,7,9-tetramethyl-10-phenyl-5H-4,5-dipyrrolo[1,2-c:2',1'-f][1,3,2]diazaborinine
_symmetry_cell_setting           monoclinic
_symmetry_space_group_name_H-M   'P 21/n'
_symmetry_Int_Tables_number      14
_space_group_name_Hall           '-P 2yn'
loop_
_symmetry_equiv_pos_site_id
_symmetry_equiv_pos_as_xyz
1 x,y,z
2 1/2-x,1/2+y,1/2-z
3 -x,-y,-z
4 1/2+x,1/2-y,1/2+z
_cell_length_a                   11.4365(4)
_cell_length_b                   12.9084(5)
_cell_length_c                   13.2216(5)
_cell_angle_alpha                90
_cell_angle_beta                 90.8090(12)
_cell_angle_gamma                90
_cell_volume                     1951.67
_exptl_crystal_colour            violet
_exptl_crystal_description       plate
_cell_formula_units_Z            4
_exptl_crystal_recrystallization_method n-Hexane/dichloromethane
loop_
_atom_site_label
_atom_site_type_symbol
_atom_site_fract_x
_atom_site_fract_y
_atom_site_fract_z
I1 I 0.21494(2) 0.58968(2) 0.70452(2)
I2 I 0.92359(2) 0.20034(2) 1.10173(2)
F1 F 0.42442(11) 0.35468(11) 1.05747(10)
F2 F 0.43405(11) 0.23231(10) 0.93518(10)
N1 N 0.44734(15) 0.41097(14) 0.88489(14)
N2 N 0.61093(15) 0.32461(14) 0.97824(13)
C1 C 0.34060(18) 0.44621(17) 0.85884(16)
C2 C 0.35197(18) 0.51488(17) 0.77670(16)
C3 C 0.46868(18) 0.52081(17) 0.74991(16)
C4 C 0.52891(18) 0.45437(16) 0.81925(15)
C5 C 0.64753(18) 0.43245(16) 0.83155(15)
C6 C 0.68898(17) 0.36972(16) 0.91017(15)
C7 C 0.80457(18) 0.33924(17) 0.93891(16)
C8 C 0.79145(18) 0.27614(17) 1.02268(16)
C9 C 0.67206(18) 0.26770(17) 1.04539(16)
C10 C 0.73180(17) 0.47399(17) 0.75691(15)
C11 C 0.7835(2) 0.57023(18) 0.76971(17)
H1 H 0.7657 0.6111 0.8272
C12 C 0.8615(2) 0.60693(18) 0.69813(18)
H2 H 0.8974 0.6727 0.7071
C13 C 0.8867(2) 0.5478(2) 0.61388(18)
H3 H 0.9398 0.5732 0.5651
C14 C 0.8348(2) 0.4516(2) 0.60057(18)
H4 H 0.8520 0.4113 0.5426
C15 C 0.7577(2) 0.41442(18) 0.67202(17)
H5 H 0.7225 0.3483 0.6632
C16 C 0.2316(2) 0.4128(2) 0.90936(19)
H6 H 0.2329 0.3376 0.9188
H7 H 0.1638 0.4320 0.8672
H8 H 0.2262 0.4470 0.9753
C17 C 0.5171(2) 0.5854(2) 0.66684(19)
H9 H 0.5649 0.6412 0.6959
H10 H 0.4527 0.6152 0.6268
H11 H 0.5655 0.5421 0.6232
C18 C 0.91828(18) 0.37019(19) 0.89249(18)
H12 H 0.9289 0.4452 0.8992
H13 H 0.9175 0.3513 0.8207
H14 H 0.9828 0.3343 0.9273
C19 C 0.6169(2) 0.20701(19) 1.12803(17)
H15 H 0.6292 0.2429 1.1926
H16 H 0.6524 0.1380 1.1316
H17 H 0.5328 0.2003 1.1142
B1 B 0.4756(2) 0.32913(18) 0.96681(17)
loop_
_geom_bond_atom_site_label_1
_geom_bond_atom_site_label_2
_geom_bond_site_symmetry_1
_geom_bond_site_symmetry_2
I1 C2 1_555 1_555
I2 C8 1_555 1_555
F1 B1 1_555 1_555
F2 B1 1_555 1_555
N1 C1 1_555 1_555
N2 C6 1_555 1_555
C1 C2 1_555 1_555
C2 C3 1_555 1_555
C3 C4 1_555 1_555
C4 N1 1_555 1_555
C5 C4 1_555 1_555
C6 C5 1_555 1_555
C7 C6 1_555 1_555
C8 C7 1_555 1_555
C9 N2 1_555 1_555
C10 C5 1_555 1_555
C11 C10 1_555 1_555
H1 C11 1_555 1_555
C12 C11 1_555 1_555
H2 C12 1_555 1_555
C13 C12 1_555 1_555
H3 C13 1_555 1_555
C14 C13 1_555 1_555
H4 C14 1_555 1_555
C15 C10 1_555 1_555
H5 C15 1_555 1_555
C16 C1 1_555 1_555
H6 C16 1_555 1_555
H7 C16 1_555 1_555
H8 C16 1_555 1_555
C17 C3 1_555 1_555
H9 C17 1_555 1_555
H10 C17 1_555 1_555
H11 C17 1_555 1_555
C18 C7 1_555 1_555
H12 C18 1_555 1_555
H13 C18 1_555 1_555
H14 C18 1_555 1_555
C19 C9 1_555 1_555
H15 C19 1_555 1_555
H16 C19 1_555 1_555
H17 C19 1_555 1_555
B1 N1 1_555 1_555
N2 B1 1_555 1_555
C8 C9 1_555 1_555
C14 C15 1_555 1_555

#END
