
#######################################################################
#
#                 Cambridge Crystallographic Data Centre
#                                CCDC 
#
#######################################################################
#
# If this CIF has been generated from an entry in the Cambridge 
# Structural Database, then it will include bibliographic, chemical, 
# crystal, experimental, refinement or atomic coordinate data resulting 
# from the CCDC's data processing and validation procedures.
#
#######################################################################

data_CIMPEV
_chemical_formula_moiety         'C23 H14 F1 N1 O2,C2 H6 O1 S1'
_chemical_name_systematic        
'2-(4-Fluorophenyl)-3-phenylchromeno[4,3-b]pyrrol-4(1H)-one dimethylsulfoxide solvate'
_symmetry_cell_setting           triclinic
_symmetry_space_group_name_H-M   'P -1'
_symmetry_Int_Tables_number      2
_space_group_name_Hall           '-P 1'
loop_
_symmetry_equiv_pos_site_id
_symmetry_equiv_pos_as_xyz
1 x,y,z
2 -x,-y,-z
_cell_length_a                   8.0501(10)
_cell_length_b                   11.4843(14)
_cell_length_c                   12.3393(15)
_cell_angle_alpha                75.852(2)
_cell_angle_beta                 72.035(2)
_cell_angle_gamma                80.198(2)
_cell_volume                     1046.65
_exptl_crystal_colour            colorless
_exptl_crystal_description       Block
_cell_formula_units_Z            2
loop_
_atom_site_label
_atom_site_type_symbol
_atom_site_fract_x
_atom_site_fract_y
_atom_site_fract_z
F1 F 0.2226(3) 0.83803(18) 0.86197(18)
O1 O 0.25729(14) 0.25382(9) 0.35534(9)
O2 O 0.26146(15) 0.14547(9) 0.52864(10)
N1 N 0.23387(15) 0.55890(11) 0.47370(11)
C1 C 0.26491(18) 0.36006(13) 0.27319(13)
C2 C 0.29068(19) 0.35024(14) 0.15927(13)
H1 H 0.3034 0.2732 0.1404
C3 C 0.2976(2) 0.45380(15) 0.07368(13)
H2 H 0.3156 0.4480 -0.0047
C4 C 0.27840(19) 0.56717(14) 0.10163(13)
H3 H 0.2817 0.6380 0.0424
C5 C 0.25455(18) 0.57655(13) 0.21513(13)
H4 H 0.2425 0.6537 0.2336
C6 C 0.24815(18) 0.47206(13) 0.30299(12)
C7 C 0.23380(17) 0.46751(12) 0.42291(12)
C8 C 0.23253(18) 0.36025(13) 0.50482(12)
C9 C 0.24963(18) 0.24650(13) 0.47144(13)
C10 C 0.23321(18) 0.38904(13) 0.61148(12)
C11 C 0.23314(18) 0.51336(13) 0.58848(12)
C12 C 0.23203(18) 0.59714(12) 0.66185(13)
C13 C 0.32277(19) 0.69962(13) 0.61326(13)
H5 H 0.3880 0.7130 0.5335
C14 C 0.3188(2) 0.78202(14) 0.67998(15)
H6 H 0.3796 0.8520 0.6463
C15 C 0.2249(2) 0.76064(14) 0.79629(15)
C16 C 0.1335(2) 0.66049(14) 0.84630(14)
H7 H 0.0684 0.6477 0.9261
C17 C 0.13731(19) 0.57892(13) 0.77936(13)
H8 H 0.0749 0.5098 0.8137
C18 C 0.24037(19) 0.30436(12) 0.72157(12)
C19 C 0.36166(19) 0.31283(13) 0.77892(13)
H9 H 0.4398 0.3737 0.7465
C20 C 0.3695(2) 0.23380(14) 0.88224(14)
H10 H 0.4520 0.2403 0.9208
C21 C 0.2559(2) 0.14553(15) 0.92831(14)
H11 H 0.2603 0.0914 0.9994
C22 C 0.1353(2) 0.13417(15) 0.87310(14)
H12 H 0.0587 0.0724 0.9057
C23 C 0.1272(2) 0.21361(13) 0.76996(13)
H13 H 0.0444 0.2064 0.7319
H14 H 0.225(3) 0.6353(19) 0.4417(17)
S1 S 0.19293(5) 0.91203(3) 0.39439(3)
O3 O 0.19860(15) 0.79492(9) 0.35734(10)
C24 C 0.0695(2) 1.02110(14) 0.31221(15)
H16 H 0.1215 1.0211 0.2292
H17 H 0.0708 1.1013 0.3263
H18 H -0.0519 1.0011 0.3358
C25 C 0.4038(2) 0.96379(15) 0.32255(19)
H19 H 0.4915 0.9115 0.3574
H20 H 0.4014 1.0468 0.3310
H21 H 0.4346 0.9615 0.2398
F2? F 0.2706(3) 0.0659(2) 1.02476(19)
H15? H 0.2233 0.8160 0.8427
loop_
_geom_bond_atom_site_label_1
_geom_bond_atom_site_label_2
_geom_bond_site_symmetry_1
_geom_bond_site_symmetry_2
F1 C15 1_555 1_555
O1 C1 1_555 1_555
O2 C9 1_555 1_555
N1 C7 1_555 1_555
C1 C2 1_555 1_555
C2 H1 1_555 1_555
C3 C2 1_555 1_555
H2 C3 1_555 1_555
C4 C3 1_555 1_555
H3 C4 1_555 1_555
C5 C4 1_555 1_555
H4 C5 1_555 1_555
C6 C1 1_555 1_555
C7 C6 1_555 1_555
C8 C7 1_555 1_555
C9 O1 1_555 1_555
C10 C8 1_555 1_555
C11 N1 1_555 1_555
C12 C11 1_555 1_555
C13 C12 1_555 1_555
H5 C13 1_555 1_555
C14 C13 1_555 1_555
H6 C14 1_555 1_555
C15 C14 1_555 1_555
C16 C15 1_555 1_555
H7 C16 1_555 1_555
C17 C12 1_555 1_555
H8 C17 1_555 1_555
C18 C10 1_555 1_555
C19 C18 1_555 1_555
H9 C19 1_555 1_555
C20 C19 1_555 1_555
H10 C20 1_555 1_555
C21 C20 1_555 1_555
H11 C21 1_555 1_555
C22 C21 1_555 1_555
H12 C22 1_555 1_555
C23 C18 1_555 1_555
H13 C23 1_555 1_555
H14 N1 1_555 1_555
S1 O3 1_555 1_555
C24 S1 1_555 1_555
H16 C24 1_555 1_555
H17 C24 1_555 1_555
H18 C24 1_555 1_555
C25 S1 1_555 1_555
H19 C25 1_555 1_555
H20 C25 1_555 1_555
H21 C25 1_555 1_555
C5 C6 1_555 1_555
C8 C9 1_555 1_555
C10 C11 1_555 1_555
C16 C17 1_555 1_555
C22 C23 1_555 1_555

#END
