
#######################################################################
#
#                 Cambridge Crystallographic Data Centre
#                                CCDC 
#
#######################################################################
#
# If this CIF has been generated from an entry in the Cambridge 
# Structural Database, then it will include bibliographic, chemical, 
# crystal, experimental, refinement or atomic coordinate data resulting 
# from the CCDC's data processing and validation procedures.
#
#######################################################################

data_CIMPAR
_chemical_formula_moiety         'C23 H15 N1 O4'
_chemical_name_systematic        N-(3-Benzoyl-2-oxo-2H-chromen-4-yl)benzamide
_symmetry_cell_setting           monoclinic
_symmetry_space_group_name_H-M   'P 21/n'
_symmetry_Int_Tables_number      14
_space_group_name_Hall           '-P 2yn'
loop_
_symmetry_equiv_pos_site_id
_symmetry_equiv_pos_as_xyz
1 x,y,z
2 1/2-x,1/2+y,1/2-z
3 -x,-y,-z
4 1/2+x,1/2-y,1/2+z
_cell_length_a                   11.9460(8)
_cell_length_b                   9.8327(6)
_cell_length_c                   14.9424(10)
_cell_angle_alpha                90
_cell_angle_beta                 95.4020(10)
_cell_angle_gamma                90
_cell_volume                     1747.36
_exptl_crystal_colour            yellow
_exptl_crystal_description       block
_cell_formula_units_Z            4
loop_
_atom_site_label
_atom_site_type_symbol
_atom_site_fract_x
_atom_site_fract_y
_atom_site_fract_z
O1 O 0.09285(8) 0.61509(10) 1.17502(7)
O2 O 0.24549(8) 0.73058(11) 1.22024(7)
O3 O 0.20776(8) 0.86198(11) 0.89855(7)
O4 O 0.20087(8) 1.02913(10) 1.06566(7)
N1 N 0.03200(10) 0.86145(12) 0.94669(8)
H1 H -0.0387(15) 0.8911(18) 0.9346(11)
C1 C 0.16934(11) 0.71619(14) 1.16235(9)
C2 C -0.00446(12) 0.60106(15) 1.11961(9)
C3 C -0.07750(13) 0.49968(16) 1.14233(10)
H2 H -0.0589 0.4436 1.1933
C4 C -0.17751(13) 0.48169(16) 1.08972(10)
H3 H -0.2286 0.4131 1.1047
C5 C -0.20409(12) 0.56362(15) 1.01464(10)
H4 H -0.2738 0.5515 0.9794
C6 C -0.13021(11) 0.66217(15) 0.99104(10)
H5 H -0.1482 0.7157 0.9387
C7 C -0.02831(11) 0.68354(14) 1.04427(9)
C8 C 0.05542(11) 0.78387(14) 1.02457(9)
C9 C 0.15092(11) 0.79883(14) 1.08120(9)
C10 C 0.10935(11) 0.89552(14) 0.88732(9)
C11 C 0.06165(11) 0.97829(14) 0.80916(9)
C12 C -0.04868(12) 0.96245(15) 0.77171(9)
H6 H -0.0954 0.8948 0.7943
C13 C -0.09025(13) 1.04562(16) 0.70144(10)
H7 H -0.1656 1.0349 0.6759
C14 C -0.02252(14) 1.14410(16) 0.66837(10)
H8 H -0.0519 1.2019 0.6209
C15 C 0.08811(14) 1.15879(16) 0.70428(11)
H9 H 0.1347 1.2261 0.6811
C16 C 0.13068(13) 1.07511(16) 0.77403(10)
H10 H 0.2069 1.0838 0.7979
C17 C 0.23441(11) 0.91172(14) 1.07355(9)
C18 C 0.35626(11) 0.87869(15) 1.08063(9)
C19 C 0.43363(12) 0.97969(15) 1.10812(10)
H11 H 0.4081 1.0673 1.1238
C20 C 0.54792(12) 0.95254(16) 1.11270(10)
H12 H 0.6008 1.0216 1.1309
C21 C 0.58488(12) 0.82395(17) 1.09052(10)
H13 H 0.6632 0.8055 1.0930
C22 C 0.50812(12) 0.72254(16) 1.06483(10)
H14 H 0.5337 0.6342 1.0510
C23 C 0.39401(12) 0.74994(15) 1.05930(10)
H15 H 0.3414 0.6807 1.0409
loop_
_geom_bond_atom_site_label_1
_geom_bond_atom_site_label_2
_geom_bond_site_symmetry_1
_geom_bond_site_symmetry_2
O1 C1 1_555 1_555
O2 C1 1_555 1_555
O3 C10 1_555 1_555
O4 C17 1_555 1_555
N1 H1 1_555 1_555
C1 C9 1_555 1_555
C2 O1 1_555 1_555
C3 C2 1_555 1_555
H2 C3 1_555 1_555
C4 C3 1_555 1_555
H3 C4 1_555 1_555
C5 C4 1_555 1_555
H4 C5 1_555 1_555
C6 C5 1_555 1_555
H5 C6 1_555 1_555
C7 C2 1_555 1_555
C8 N1 1_555 1_555
C9 C8 1_555 1_555
C10 N1 1_555 1_555
C11 C10 1_555 1_555
C12 C11 1_555 1_555
H6 C12 1_555 1_555
C13 C12 1_555 1_555
H7 C13 1_555 1_555
C14 C13 1_555 1_555
H8 C14 1_555 1_555
C15 C14 1_555 1_555
H9 C15 1_555 1_555
C16 C11 1_555 1_555
H10 C16 1_555 1_555
C17 C9 1_555 1_555
C18 C17 1_555 1_555
C19 C18 1_555 1_555
H11 C19 1_555 1_555
C20 C19 1_555 1_555
H12 C20 1_555 1_555
C21 C20 1_555 1_555
H13 C21 1_555 1_555
C22 C21 1_555 1_555
H14 C22 1_555 1_555
C23 C18 1_555 1_555
H15 C23 1_555 1_555
C6 C7 1_555 1_555
C7 C8 1_555 1_555
C15 C16 1_555 1_555
C22 C23 1_555 1_555

#END
