
#######################################################################
#
#                 Cambridge Crystallographic Data Centre
#                                CCDC 
#
#######################################################################
#
# If this CIF has been generated from an entry in the Cambridge 
# Structural Database, then it will include bibliographic, chemical, 
# crystal, experimental, refinement or atomic coordinate data resulting 
# from the CCDC's data processing and validation procedures.
#
#######################################################################

data_CIMRIB01
_chemical_formula_moiety         'C22 H16 Br1 N3 O1'
_chemical_name_systematic        
(1-Benzyl-4-phenyl-1H-1,2,3-triazol-5-yl)(4-bromophenyl)methanone
_symmetry_cell_setting           orthorhombic
_symmetry_space_group_name_H-M   'P b c a'
_symmetry_Int_Tables_number      61
_space_group_name_Hall           '-P 2ac 2ab'
loop_
_symmetry_equiv_pos_site_id
_symmetry_equiv_pos_as_xyz
1 x,y,z
2 1/2-x,-y,1/2+z
3 -x,1/2+y,1/2-z
4 1/2+x,1/2-y,-z
5 -x,-y,-z
6 1/2+x,y,1/2-z
7 x,1/2-y,1/2+z
8 1/2-x,1/2+y,z
_cell_length_a                   14.9815(14)
_cell_length_b                   9.6496(10)
_cell_length_c                   25.528(2)
_cell_angle_alpha                90
_cell_angle_beta                 90
_cell_angle_gamma                90
_cell_volume                     3690.47
_exptl_crystal_colour            colorless
_exptl_crystal_description       Block
_cell_formula_units_Z            8
loop_
_atom_site_label
_atom_site_type_symbol
_atom_site_fract_x
_atom_site_fract_y
_atom_site_fract_z
Br1 Br 0.158973(16) -0.28390(2) 0.062323(9)
O1 O 0.11950(10) 0.02937(16) 0.30331(6)
N1 N 0.17990(12) 0.31587(18) 0.29020(7)
N2 N 0.16895(12) 0.45004(19) 0.27779(7)
N3 N 0.12037(12) 0.45579(19) 0.23469(7)
C1 C 0.15191(14) -0.1741(2) 0.12412(8)
C2 C 0.11072(15) -0.2255(2) 0.16889(9)
H1 H 0.0858 -0.3138 0.1692
C3 C 0.10762(14) -0.1422(2) 0.21300(9)
H2 H 0.0814 -0.1757 0.2435
C4 C 0.14343(13) -0.0083(2) 0.21232(8)
C5 C 0.18565(14) 0.0398(2) 0.16729(9)
H3 H 0.2108 0.1279 0.1669
C6 C 0.19044(14) -0.0433(2) 0.12289(9)
H4 H 0.2190 -0.0118 0.0928
C7 C 0.13386(13) 0.0788(2) 0.26009(8)
C8 C 0.13970(14) 0.2324(2) 0.25402(8)
C9 C 0.10205(14) 0.3241(2) 0.21837(8)
C10 C 0.04966(14) 0.2973(2) 0.17051(8)
C11 C 0.06324(15) 0.3799(2) 0.12635(9)
H5 H 0.1037 0.4529 0.1278
C12 C 0.01679(16) 0.3539(3) 0.08030(9)
H6 H 0.0252 0.4107 0.0513
C13 C -0.04234(16) 0.2428(3) 0.07749(9)
H7 H -0.0722 0.2237 0.0464
C14 C -0.05645(15) 0.1607(2) 0.12139(9)
H8 H -0.0963 0.0869 0.1197
C15 C -0.01162(14) 0.1879(2) 0.16780(9)
H9 H -0.0223 0.1334 0.1972
C16 C 0.23980(14) 0.2785(2) 0.33387(8)
H10 H 0.2980 0.3196 0.3280
H11 H 0.2472 0.1787 0.3348
C17 C 0.20367(14) 0.3276(2) 0.38620(8)
C18 C 0.24984(15) 0.4278(2) 0.41447(9)
H12 H 0.3029 0.4637 0.4013
C19 C 0.21715(17) 0.4747(3) 0.46238(9)
H13 H 0.2484 0.5416 0.4812
C20 C 0.13779(17) 0.4213(3) 0.48199(9)
H14 H 0.1155 0.4529 0.5138
C21 C 0.09190(17) 0.3209(3) 0.45403(10)
H15 H 0.0392 0.2845 0.4674
C22 C 0.12415(16) 0.2742(3) 0.40603(9)
H16 H 0.0927 0.2075 0.3873
loop_
_geom_bond_atom_site_label_1
_geom_bond_atom_site_label_2
_geom_bond_site_symmetry_1
_geom_bond_site_symmetry_2
Br1 C1 1_555 1_555
O1 C7 1_555 1_555
N1 N2 1_555 1_555
N2 N3 1_555 1_555
N3 C9 1_555 1_555
C1 C2 1_555 1_555
C2 H1 1_555 1_555
C3 C2 1_555 1_555
H2 C3 1_555 1_555
C4 C3 1_555 1_555
C5 C4 1_555 1_555
H3 C5 1_555 1_555
C6 C1 1_555 1_555
H4 C6 1_555 1_555
C7 C4 1_555 1_555
C8 N1 1_555 1_555
C9 C8 1_555 1_555
C10 C9 1_555 1_555
C11 C10 1_555 1_555
H5 C11 1_555 1_555
C12 C11 1_555 1_555
H6 C12 1_555 1_555
C13 C12 1_555 1_555
H7 C13 1_555 1_555
C14 C13 1_555 1_555
H8 C14 1_555 1_555
C15 C10 1_555 1_555
H9 C15 1_555 1_555
C16 N1 1_555 1_555
H10 C16 1_555 1_555
H11 C16 1_555 1_555
C17 C16 1_555 1_555
C18 C17 1_555 1_555
H12 C18 1_555 1_555
C19 C18 1_555 1_555
H13 C19 1_555 1_555
C20 C19 1_555 1_555
H14 C20 1_555 1_555
C21 C20 1_555 1_555
H15 C21 1_555 1_555
C22 C17 1_555 1_555
H16 C22 1_555 1_555
C5 C6 1_555 1_555
C7 C8 1_555 1_555
C14 C15 1_555 1_555
C21 C22 1_555 1_555

#END
