
#######################################################################
#
#                 Cambridge Crystallographic Data Centre
#                                CCDC 
#
#######################################################################
#
# If this CIF has been generated from an entry in the Cambridge 
# Structural Database, then it will include bibliographic, chemical, 
# crystal, experimental, refinement or atomic coordinate data resulting 
# from the CCDC's data processing and validation procedures.
#
#######################################################################

data_CIMVIF
_chemical_formula_moiety         'C17 H11 Br1 N2 O1'
_chemical_name_systematic        4-Bromo-2-(9H-pyrido[2,3-b]indol-2-yl)phenol
_symmetry_cell_setting           monoclinic
_symmetry_space_group_name_H-M   'P 21/c'
_symmetry_Int_Tables_number      14
_space_group_name_Hall           '-P 2ybc'
loop_
_symmetry_equiv_pos_site_id
_symmetry_equiv_pos_as_xyz
1 x,y,z
2 -x,1/2+y,1/2-z
3 -x,-y,-z
4 x,1/2-y,1/2+z
_cell_length_a                   14.5336(5)
_cell_length_b                   6.3146(2)
_cell_length_c                   15.7054(6)
_cell_angle_alpha                90
_cell_angle_beta                 108.490(2)
_cell_angle_gamma                90
_cell_volume                     1366.94
_exptl_crystal_colour            colorless
_exptl_crystal_description       column
_cell_formula_units_Z            4
_exptl_crystal_recrystallization_method tetrahydrofuran
loop_
_atom_site_label
_atom_site_type_symbol
_atom_site_fract_x
_atom_site_fract_y
_atom_site_fract_z
Br1 Br 0.47279(2) 1.19738(7) 1.11707(3)
O1 O 0.13949(14) 0.5882(3) 1.04461(13)
H1 H 0.091(2) 0.640(5) 1.003(2)
N1 N -0.12585(14) 0.7459(3) 0.83469(14)
H2 H -0.1296 0.6222 0.8563
N2 N 0.03373(14) 0.8387(3) 0.92862(13)
C1 C -0.3403(2) 0.8882(6) 0.64078(19)
H3 H -0.3999 0.8386 0.6040
C2 C -0.2858(2) 0.7625(5) 0.71051(19)
H4 H -0.3077 0.6300 0.7214
C3 C -0.19717(18) 0.8420(4) 0.76367(17)
C4 C -0.04924(17) 0.8821(4) 0.86392(16)
C5 C 0.10381(17) 0.9890(4) 0.94659(16)
C6 C 0.19721(17) 0.9314(4) 1.01453(16)
C7 C 0.27714(18) 1.0679(5) 1.03450(18)
H5 H 0.2704 1.2005 1.0074
C8 C 0.3652(2) 1.0091(5) 1.09345(19)
C9 C 0.3785(2) 0.8147(5) 1.1348(2)
H6 H 0.4388 0.7764 1.1742
C10 C -0.3085(2) 1.0866(6) 0.62403(19)
H7 H -0.3465 1.1663 0.5759
C11 C -0.2215(2) 1.1664(5) 0.67771(18)
H8 H -0.2010 1.3003 0.6668
C12 C -0.16432(17) 1.0436(4) 0.74893(17)
C13 C -0.06921(17) 1.0710(4) 0.81377(16)
C14 C 0.0021(2) 1.2240(4) 0.83479(18)
H9 H -0.0080 1.3532 0.8048
C15 C 0.08885(19) 1.1828(4) 0.90093(17)
H10 H 0.1377 1.2845 0.9153
C16 C 0.21119(18) 0.7343(4) 1.05818(17)
C17 C 0.3018(2) 0.6787(5) 1.11708(19)
H11 H 0.3101 0.5468 1.1448
loop_
_geom_bond_atom_site_label_1
_geom_bond_atom_site_label_2
_geom_bond_site_symmetry_1
_geom_bond_site_symmetry_2
Br1 C8 1_555 1_555
O1 H1 1_555 1_555
N1 H2 1_555 1_555
N2 C4 1_555 1_555
C1 H3 1_555 1_555
C2 C1 1_555 1_555
H4 C2 1_555 1_555
C3 N1 1_555 1_555
C4 N1 1_555 1_555
C5 N2 1_555 1_555
C6 C5 1_555 1_555
C7 C6 1_555 1_555
H5 C7 1_555 1_555
C8 C7 1_555 1_555
C9 C8 1_555 1_555
H6 C9 1_555 1_555
C10 C1 1_555 1_555
H7 C10 1_555 1_555
C11 C10 1_555 1_555
H8 C11 1_555 1_555
C12 C3 1_555 1_555
C13 C4 1_555 1_555
C14 C13 1_555 1_555
H9 C14 1_555 1_555
C15 C5 1_555 1_555
H10 C15 1_555 1_555
C16 O1 1_555 1_555
C17 C9 1_555 1_555
H11 C17 1_555 1_555
C2 C3 1_555 1_555
C6 C16 1_555 1_555
C11 C12 1_555 1_555
C12 C13 1_555 1_555
C14 C15 1_555 1_555
C16 C17 1_555 1_555

#END
