
#######################################################################
#
#                 Cambridge Crystallographic Data Centre
#                                CCDC 
#
#######################################################################
#
# If this CIF has been generated from an entry in the Cambridge 
# Structural Database, then it will include bibliographic, chemical, 
# crystal, experimental, refinement or atomic coordinate data resulting 
# from the CCDC's data processing and validation procedures.
#
#######################################################################

data_CIMWAY
_chemical_formula_moiety         'C18 H23 N1 O2'
_chemical_name_systematic        
7-(1,6-Dioxaspiro[4.5]dec-3-ylmethyl)-1-methyl-1H-indole
_symmetry_cell_setting           monoclinic
_symmetry_space_group_name_H-M   'P 21/n'
_symmetry_Int_Tables_number      14
_space_group_name_Hall           '-P 2yn'
loop_
_symmetry_equiv_pos_site_id
_symmetry_equiv_pos_as_xyz
1 x,y,z
2 1/2-x,1/2+y,1/2-z
3 -x,-y,-z
4 1/2+x,1/2-y,1/2+z
_cell_length_a                   7.335(4)
_cell_length_b                   11.239(6)
_cell_length_c                   18.641(10)
_cell_angle_alpha                90
_cell_angle_beta                 98.321(6)
_cell_angle_gamma                90
_cell_volume                     1520.55
_exptl_crystal_colour            colorless
_exptl_crystal_description       block
_cell_formula_units_Z            4
loop_
_atom_site_label
_atom_site_type_symbol
_atom_site_fract_x
_atom_site_fract_y
_atom_site_fract_z
C1 C 0.1543(8) 1.1504(5) 0.4546(4)
H1 H 0.1264 1.2246 0.4722
C2 C 0.1368(7) 1.1216(6) 0.3850(4)
H2 H 0.0937 1.1715 0.3465
C3 C 0.1947(7) 1.0020(5) 0.3792(3)
C4 C 0.2038(8) 0.9257(6) 0.3219(3)
H3 H 0.1721 0.9519 0.2744
C5 C 0.2593(8) 0.8123(6) 0.3357(3)
H4 H 0.2652 0.7602 0.2973
C6 C 0.3081(7) 0.7721(5) 0.4069(3)
H5 H 0.3453 0.6935 0.4145
C7 C 0.3033(6) 0.8446(4) 0.4664(2)
C8 C 0.2440(6) 0.9605(4) 0.4514(3)
C9 C 0.3623(6) 0.8000(5) 0.5428(2)
H6 H 0.4632 0.8495 0.5651
H7 H 0.2604 0.8114 0.5699
C10 C 0.4223(7) 0.6721(5) 0.5509(3)
H8 H 0.5112 0.6555 0.5177
C11 C 0.2664(8) 0.5818(5) 0.5385(3)
H9 H 0.2910 0.5212 0.5041
H10 H 0.1499 0.6201 0.5209
C12 C 0.2651(8) 0.5277(5) 0.6155(3)
C13 C 0.2087(10) 0.3999(6) 0.6168(4)
H11 H 0.3007 0.3510 0.5985
H12 H 0.0928 0.3892 0.5851
C14 C 0.1865(9) 0.3583(5) 0.6944(3)
H13 H 0.1295 0.2803 0.6925
H14 H 0.3063 0.3530 0.7240
C15 C 0.0696(10) 0.4455(6) 0.7262(4)
H15 H -0.0551 0.4414 0.7006
H16 H 0.0660 0.4254 0.7765
C16 C 0.1393(12) 0.5655(6) 0.7217(4)
H17 H 0.0581 0.6199 0.7422
H18 H 0.2598 0.5706 0.7508
C17 C 0.5120(9) 0.6459(6) 0.6292(3)
H19 H 0.6452 0.6449 0.6321
H20 H 0.4785 0.7069 0.6617
C18 C 0.2516(8) 1.0614(5) 0.5751(3)
H21 H 0.3808 1.0519 0.5918
H22 H 0.1843 0.9990 0.5947
H23 H 0.2112 1.1371 0.5908
N1 N 0.2191(5) 1.0559(4) 0.4968(2)
O1 O 0.4484(6) 0.5349(4) 0.6485(2)
O2 O 0.1537(5) 0.6017(3) 0.6509(2)
loop_
_geom_bond_atom_site_label_1
_geom_bond_atom_site_label_2
_geom_bond_site_symmetry_1
_geom_bond_site_symmetry_2
C1 H1 1_555 1_555
C2 C1 1_555 1_555
H2 C2 1_555 1_555
C3 C2 1_555 1_555
C4 C3 1_555 1_555
H3 C4 1_555 1_555
C5 C4 1_555 1_555
H4 C5 1_555 1_555
C6 C5 1_555 1_555
H5 C6 1_555 1_555
C7 C6 1_555 1_555
C8 C3 1_555 1_555
C9 C7 1_555 1_555
H6 C9 1_555 1_555
H7 C9 1_555 1_555
C10 C9 1_555 1_555
H8 C10 1_555 1_555
C11 C10 1_555 1_555
H9 C11 1_555 1_555
H10 C11 1_555 1_555
C12 C11 1_555 1_555
C13 C12 1_555 1_555
H11 C13 1_555 1_555
H12 C13 1_555 1_555
C14 C13 1_555 1_555
H13 C14 1_555 1_555
H14 C14 1_555 1_555
C15 C14 1_555 1_555
H15 C15 1_555 1_555
H16 C15 1_555 1_555
C16 C15 1_555 1_555
H17 C16 1_555 1_555
H18 C16 1_555 1_555
C17 C10 1_555 1_555
H19 C17 1_555 1_555
H20 C17 1_555 1_555
C18 H21 1_555 1_555
H22 C18 1_555 1_555
H23 C18 1_555 1_555
N1 C1 1_555 1_555
O1 C12 1_555 1_555
O2 C12 1_555 1_555
C7 C8 1_555 1_555
C8 N1 1_555 1_555
C16 O2 1_555 1_555
C17 O1 1_555 1_555
C18 N1 1_555 1_555

#END
