
#######################################################################
#
#                 Cambridge Crystallographic Data Centre
#                                CCDC 
#
#######################################################################
#
# If this CIF has been generated from an entry in the Cambridge 
# Structural Database, then it will include bibliographic, chemical, 
# crystal, experimental, refinement or atomic coordinate data resulting 
# from the CCDC's data processing and validation procedures.
#
#######################################################################

data_CIMWUS
_chemical_formula_moiety         'C16 H20 I2 O2'
_chemical_name_systematic        
2-(Iodomethyl)-2-((1-(2-iodophenyl)but-3-en-2-yl)oxy)tetrahydro-2H-pyran
_symmetry_cell_setting           monoclinic
_symmetry_space_group_name_H-M   'P 21/c'
_symmetry_Int_Tables_number      14
_space_group_name_Hall           '-P 2ybc'
loop_
_symmetry_equiv_pos_site_id
_symmetry_equiv_pos_as_xyz
1 x,y,z
2 -x,1/2+y,1/2-z
3 -x,-y,-z
4 x,1/2-y,1/2+z
_cell_length_a                   8.616(4)
_cell_length_b                   22.680(12)
_cell_length_c                   18.209(9)
_cell_angle_alpha                90
_cell_angle_beta                 96.020(6)
_cell_angle_gamma                90
_cell_volume                     3538.61
_exptl_crystal_colour            colorless
_exptl_crystal_description       stick
_cell_formula_units_Z            8
loop_
_atom_site_label
_atom_site_type_symbol
_atom_site_fract_x
_atom_site_fract_y
_atom_site_fract_z
C1 C 0.1749(8) 0.4670(3) 0.2805(3)
H1 H 0.1616 0.4521 0.2302
H2 H 0.0726 0.4691 0.2981
C2 C 0.2752(8) 0.4254(3) 0.3280(4)
H3 H 0.3755 0.4211 0.3089
H4 H 0.2260 0.3869 0.3277
C3 C 0.2985(8) 0.4489(3) 0.4062(3)
H5 H 0.3674 0.4228 0.4367
H6 H 0.1990 0.4503 0.4266
C4 C 0.3690(7) 0.5105(3) 0.4063(3)
H7 H 0.3719 0.5270 0.4555
H8 H 0.4755 0.5077 0.3939
C5 C 0.2772(7) 0.5517(2) 0.3517(3)
C6 C 0.0187(7) 0.5985(3) 0.3405(3)
H9 H 0.0170 0.5866 0.2887
C7 C -0.1355(7) 0.5824(3) 0.3681(4)
H10 H -0.1292 0.5915 0.4204
H11 H -0.2161 0.6073 0.3432
C8 C -0.1854(7) 0.5191(3) 0.3576(3)
C9 C -0.2526(7) 0.4980(3) 0.2894(3)
C10 C -0.2940(8) 0.4389(3) 0.2807(4)
H12 H -0.3382 0.4253 0.2350
C11 C -0.2698(9) 0.4002(3) 0.3397(4)
H13 H -0.2955 0.3605 0.3334
C12 C -0.2073(9) 0.4207(4) 0.4077(5)
H14 H -0.1936 0.3953 0.4480
C13 C -0.1657(8) 0.4787(4) 0.4152(4)
H15 H -0.1220 0.4919 0.4611
C14 C 0.3712(7) 0.6051(3) 0.3321(3)
H16 H 0.3054 0.6293 0.2977
H17 H 0.4577 0.5914 0.3065
C15 C 0.0398(8) 0.6643(3) 0.3461(4)
H18 H 0.0667 0.6805 0.3926
C16 C 0.0229(11) 0.6996(4) 0.2905(5)
H19 H -0.0040 0.6849 0.2432
H20 H 0.0376 0.7399 0.2976
I1 I 0.46279(5) 0.65944(2) 0.42226(2)
I2 I -0.29108(5) 0.55140(2) 0.19499(2)
O1 O 0.2424(5) 0.52528(17) 0.28091(18)
O2 O 0.1389(4) 0.56598(17) 0.38422(19)
C17 C 0.5956(8) 0.5829(3) -0.0184(4)
H21 H 0.4885 0.5967 -0.0212
H22 H 0.5972 0.5422 -0.0023
C18 C 0.6505(9) 0.5860(3) -0.0939(4)
H23 H 0.5819 0.5629 -0.1285
H24 H 0.7550 0.5699 -0.0926
C19 C 0.6502(9) 0.6503(3) -0.1188(4)
H25 H 0.6925 0.6532 -0.1660
H26 H 0.5442 0.6653 -0.1249
C20 C 0.7482(7) 0.6866(3) -0.0616(3)
H27 H 0.7381 0.7279 -0.0748
H28 H 0.8570 0.6757 -0.0621
C21 C 0.7016(7) 0.6783(3) 0.0164(3)
C22 C 0.4755(6) 0.7018(3) 0.0821(3)
H29 H 0.4919 0.6620 0.1023
C23 C 0.3015(6) 0.7110(2) 0.0560(3)
H30 H 0.2429 0.7085 0.0986
H31 H 0.2878 0.7505 0.0361
C24 C 0.2333(6) 0.6677(3) -0.0014(3)
C25 C 0.1854(7) 0.6110(3) 0.0162(3)
C26 C 0.1281(7) 0.5721(3) -0.0395(4)
H32 H 0.0988 0.5341 -0.0274
C27 C 0.1152(8) 0.5895(3) -0.1112(4)
H33 H 0.0756 0.5634 -0.1479
C28 C 0.1600(8) 0.6452(3) -0.1301(3)
H34 H 0.1525 0.6566 -0.1794
C29 C 0.2162(7) 0.6839(3) -0.0750(3)
H35 H 0.2434 0.7219 -0.0878
C30 C 0.8280(7) 0.6987(3) 0.0755(3)
H36 H 0.9193 0.6740 0.0733
H37 H 0.7912 0.6928 0.1235
C31 C 0.5257(7) 0.7465(3) 0.1402(4)
H38 H 0.5437 0.7848 0.1249
C32 C 0.5458(10) 0.7356(4) 0.2104(4)
H39 H 0.5288 0.6978 0.2277
H40 H 0.5772 0.7656 0.2435
I3 I 0.89627(6) 0.78869(2) 0.06682(3)
I4 I 0.20263(5) 0.58000(2) 0.12571(2)
O3 O 0.6898(4) 0.61762(17) 0.0354(2)
O4 O 0.5579(4) 0.70838(16) 0.01764(19)
loop_
_geom_bond_atom_site_label_1
_geom_bond_atom_site_label_2
_geom_bond_site_symmetry_1
_geom_bond_site_symmetry_2
C1 H1 1_555 1_555
H2 C1 1_555 1_555
C2 C1 1_555 1_555
H3 C2 1_555 1_555
H4 C2 1_555 1_555
C3 C2 1_555 1_555
H5 C3 1_555 1_555
H6 C3 1_555 1_555
C4 C3 1_555 1_555
H7 C4 1_555 1_555
H8 C4 1_555 1_555
C5 C4 1_555 1_555
C6 H9 1_555 1_555
C7 C6 1_555 1_555
H10 C7 1_555 1_555
H11 C7 1_555 1_555
C8 C7 1_555 1_555
C9 C8 1_555 1_555
C10 C9 1_555 1_555
H12 C10 1_555 1_555
C11 C10 1_555 1_555
H13 C11 1_555 1_555
C12 C11 1_555 1_555
H14 C12 1_555 1_555
C13 C8 1_555 1_555
H15 C13 1_555 1_555
C14 C5 1_555 1_555
H16 C14 1_555 1_555
H17 C14 1_555 1_555
C15 C6 1_555 1_555
H18 C15 1_555 1_555
C16 C15 1_555 1_555
H19 C16 1_555 1_555
H20 C16 1_555 1_555
I1 C14 1_555 1_555
I2 C9 1_555 1_555
O1 C1 1_555 1_555
O2 C5 1_555 1_555
C17 H21 1_555 1_555
H22 C17 1_555 1_555
C18 C17 1_555 1_555
H23 C18 1_555 1_555
H24 C18 1_555 1_555
C19 C18 1_555 1_555
H25 C19 1_555 1_555
H26 C19 1_555 1_555
C20 C19 1_555 1_555
H27 C20 1_555 1_555
H28 C20 1_555 1_555
C21 C20 1_555 1_555
C22 H29 1_555 1_555
C23 C22 1_555 1_555
H30 C23 1_555 1_555
H31 C23 1_555 1_555
C24 C23 1_555 1_555
C25 C24 1_555 1_555
C26 C25 1_555 1_555
H32 C26 1_555 1_555
C27 C26 1_555 1_555
H33 C27 1_555 1_555
C28 C27 1_555 1_555
H34 C28 1_555 1_555
C29 C24 1_555 1_555
H35 C29 1_555 1_555
C30 C21 1_555 1_555
H36 C30 1_555 1_555
H37 C30 1_555 1_555
C31 C22 1_555 1_555
H38 C31 1_555 1_555
C32 C31 1_555 1_555
H39 C32 1_555 1_555
H40 C32 1_555 1_555
I3 C30 1_555 1_555
I4 C25 1_555 1_555
O3 C17 1_555 1_555
O4 C21 1_555 1_555
C5 O1 1_555 1_555
C6 O2 1_555 1_555
C12 C13 1_555 1_555
C21 O3 1_555 1_555
C22 O4 1_555 1_555
C28 C29 1_555 1_555

#END
