
#######################################################################
#
#                 Cambridge Crystallographic Data Centre
#                                CCDC 
#
#######################################################################
#
# If this CIF has been generated from an entry in the Cambridge 
# Structural Database, then it will include bibliographic, chemical, 
# crystal, experimental, refinement or atomic coordinate data resulting 
# from the CCDC's data processing and validation procedures.
#
#######################################################################

data_CINGIP
_chemical_formula_moiety         'C48 H42 O6,C1 H1 Cl3'
_chemical_name_systematic        
'1,1,1,6,6,6-hexakis(4-Methoxyphenyl)-hexa-2,4-diyne chloroform clathrate'
_symmetry_cell_setting           cubic
_symmetry_space_group_name_H-M   'P a 3'
_symmetry_Int_Tables_number      205
_space_group_name_Hall           '-P 2ac 2ab 3'
loop_
_symmetry_equiv_pos_site_id
_symmetry_equiv_pos_as_xyz
1 x,y,z
2 z,x,y
3 y,z,x
4 -x,1/2+y,1/2-z
5 -z,1/2+x,1/2-y
6 -y,1/2+z,1/2-x
7 1/2-x,-y,1/2+z
8 1/2-z,-x,1/2+y
9 1/2-y,-z,1/2+x
10 1/2+x,1/2-y,-z
11 1/2+z,1/2-x,-y
12 1/2+y,1/2-z,-x
13 -x,-y,-z
14 -z,-x,-y
15 -y,-z,-x
16 x,1/2-y,1/2+z
17 z,1/2-x,1/2+y
18 y,1/2-z,1/2+x
19 1/2+x,y,1/2-z
20 1/2+z,x,1/2-y
21 1/2+y,z,1/2-x
22 1/2-x,1/2+y,z
23 1/2-z,1/2+x,y
24 1/2-y,1/2+z,x
_cell_length_a                   16.381(3)
_cell_length_b                   16.381(3)
_cell_length_c                   16.381(3)
_cell_angle_alpha                90
_cell_angle_beta                 90
_cell_angle_gamma                90
_cell_volume                     4395.63
_cell_formula_units_Z            4
loop_
_atom_site_label
_atom_site_type_symbol
_atom_site_fract_x
_atom_site_fract_y
_atom_site_fract_z
C1 C 0.6181 0.1181 0.3819
C2 C 0.5659 0.0659 0.4341
C3 C 0.5263 0.0263 0.4737
C4 C 0.5631 0.1562 0.3143
C5 C 0.5922 0.1683 0.2345
C6 C 0.5389 0.2028 0.1784
C7 C 0.4664 0.2306 0.1988
C8 C 0.4361 0.2196 0.2759
C9 C 0.4856 0.1819 0.3367
O1 O 0.4095 0.2677 0.1448
C10 C 0.4351 0.2813 0.0640
H1 H 0.6489 0.1512 0.2211
H2 H 0.5562 0.2060 0.1190
H3 H 0.3783 0.2369 0.2895
H4 H 0.4644 0.1736 0.3937
H5 H 0.4492 0.2293 0.0337
H6 H 0.4827 0.3150 0.0558
H7 H 0.3928 0.3051 0.0275
C4K C 0.6562 0.1857 0.4369
C4D C 0.6857 0.0631 0.3438
C3L C 0.4737 -0.0263 0.5263
C5K C 0.6683 0.2655 0.4078
C9K C 0.6819 0.1633 0.5144
C5D C 0.7655 0.0922 0.3317
C9D C 0.6633 -0.0144 0.3181
C2L C 0.4341 -0.0659 0.5659
C6K C 0.7028 0.3216 0.4611
H1K H 0.6512 0.2789 0.3511
C8K C 0.7196 0.2241 0.5639
H4K H 0.6736 0.1063 0.5356
C6D C 0.8216 0.0389 0.2972
H1D H 0.7789 0.1489 0.3488
C8D C 0.7241 -0.0639 0.2804
H4D H 0.6063 -0.0356 0.3264
C1L C 0.3819 -0.1181 0.6181
C7K C 0.7306 0.3012 0.5336
H2K H 0.7060 0.3810 0.4438
H3K H 0.7369 0.2105 0.6217
C7D C 0.8012 -0.0336 0.2694
H2D H 0.8810 0.0562 0.2940
H3D H 0.7105 -0.1217 0.2631
C4L C 0.4369 -0.1562 0.6857
C4W C 0.3438 -0.1857 0.5631
C4P C 0.3143 -0.0631 0.6562
O1K O 0.7677 0.3552 0.5905
O1D O 0.8552 -0.0905 0.2323
C5L C 0.4078 -0.1683 0.7655
C9L C 0.5144 -0.1819 0.6633
C5W C 0.3317 -0.2655 0.5922
C9W C 0.3181 -0.1633 0.4856
C5P C 0.2345 -0.0922 0.6683
C9P C 0.3367 0.0144 0.6819
C10K C 0.7813 0.4360 0.5649
C10D C 0.9360 -0.0649 0.2187
C6L C 0.4611 -0.2028 0.8216
H1L H 0.3511 -0.1512 0.7789
C8L C 0.5639 -0.2196 0.7241
H4L H 0.5356 -0.1736 0.6063
C6W C 0.2972 -0.3216 0.5389
H1W H 0.3488 -0.2789 0.6489
C8W C 0.2804 -0.2241 0.4361
H4W H 0.3264 -0.1063 0.4644
C6P C 0.1784 -0.0389 0.7028
H1P H 0.2211 -0.1489 0.6512
C8P C 0.2759 0.0639 0.7196
H4P H 0.3937 0.0356 0.6736
H5K H 0.7293 0.4663 0.5508
H6K H 0.8150 0.4442 0.5173
H7K H 0.8051 0.4725 0.6072
H5D H 0.9663 -0.0508 0.2707
H6D H 0.9442 -0.0173 0.1850
H7D H 0.9725 -0.1072 0.1949
C7L C 0.5336 -0.2306 0.8012
H2L H 0.4438 -0.2060 0.8810
H3L H 0.6217 -0.2369 0.7105
C7W C 0.2694 -0.3012 0.4664
H2W H 0.2940 -0.3810 0.5562
H3W H 0.2631 -0.2105 0.3783
C7P C 0.1988 0.0336 0.7306
H2P H 0.1190 -0.0562 0.7060
H3P H 0.2895 0.1217 0.7369
O1L O 0.5905 -0.2677 0.8552
O1W O 0.2323 -0.3552 0.4095
O1P O 0.1448 0.0905 0.7677
C10L C 0.5649 -0.2813 0.9360
C10W C 0.2187 -0.4360 0.4351
C10P C 0.0640 0.0649 0.7813
H5L H 0.5508 -0.2293 0.9663
H6L H 0.5173 -0.3150 0.9442
H7L H 0.6072 -0.3051 0.9725
H5W H 0.2707 -0.4663 0.4492
H6W H 0.1850 -0.4442 0.4827
H7W H 0.1949 -0.4725 0.3928
H5P H 0.0337 0.0508 0.7293
H6P H 0.0558 0.0173 0.8150
H7P H 0.0275 0.1072 0.8051
loop_
_geom_bond_atom_site_label_1
_geom_bond_atom_site_label_2
_geom_bond_site_symmetry_1
_geom_bond_site_symmetry_2
C1 C2 1_555 1_555
C2 C3 1_555 1_555
C3 C3L 1_555 1_555
C4 C1 1_555 1_555
C5 C4 1_555 1_555
C6 C5 1_555 1_555
C7 C6 1_555 1_555
C8 C7 1_555 1_555
C9 C4 1_555 1_555
O1 C7 1_555 1_555
C10 O1 1_555 1_555
H1 C5 1_555 1_555
H2 C6 1_555 1_555
H3 C8 1_555 1_555
H4 C9 1_555 1_555
H5 C10 1_555 1_555
H6 C10 1_555 1_555
H7 C10 1_555 1_555
C4K C1 1_555 1_555
C4D C1 1_555 1_555
C3L C2L 1_555 1_555
C5K C4K 1_555 1_555
C9K C4K 1_555 1_555
C5D C4D 1_555 1_555
C9D C4D 1_555 1_555
C2L C1L 1_555 1_555
C6K C5K 1_555 1_555
H1K C5K 1_555 1_555
C8K C9K 1_555 1_555
H4K C9K 1_555 1_555
C6D C5D 1_555 1_555
H1D C5D 1_555 1_555
C8D C9D 1_555 1_555
H4D C9D 1_555 1_555
C1L C4L 1_555 1_555
C7K C6K 1_555 1_555
H2K C6K 1_555 1_555
H3K C8K 1_555 1_555
C7D C6D 1_555 1_555
H2D C6D 1_555 1_555
H3D C8D 1_555 1_555
C4L C5L 1_555 1_555
C4W C1L 1_555 1_555
C4P C1L 1_555 1_555
O1K C7K 1_555 1_555
O1D C7D 1_555 1_555
C5L C6L 1_555 1_555
C9L C4L 1_555 1_555
C5W C4W 1_555 1_555
C9W C4W 1_555 1_555
C5P C4P 1_555 1_555
C9P C4P 1_555 1_555
C10K O1K 1_555 1_555
C10D O1D 1_555 1_555
C6L C7L 1_555 1_555
H1L C5L 1_555 1_555
C8L C9L 1_555 1_555
H4L C9L 1_555 1_555
C6W C5W 1_555 1_555
H1W C5W 1_555 1_555
C8W C9W 1_555 1_555
H4W C9W 1_555 1_555
C6P C5P 1_555 1_555
H1P C5P 1_555 1_555
C8P C9P 1_555 1_555
H4P C9P 1_555 1_555
H5K C10K 1_555 1_555
H6K C10K 1_555 1_555
H7K C10K 1_555 1_555
H5D C10D 1_555 1_555
H6D C10D 1_555 1_555
H7D C10D 1_555 1_555
C7L C8L 1_555 1_555
H2L C6L 1_555 1_555
H3L C8L 1_555 1_555
C7W C6W 1_555 1_555
H2W C6W 1_555 1_555
H3W C8W 1_555 1_555
C7P C6P 1_555 1_555
H2P C6P 1_555 1_555
H3P C8P 1_555 1_555
O1L C7L 1_555 1_555
O1W C7W 1_555 1_555
O1P C7P 1_555 1_555
C10L O1L 1_555 1_555
C10W O1W 1_555 1_555
C10P O1P 1_555 1_555
H5L C10L 1_555 1_555
H6L C10L 1_555 1_555
H7L C10L 1_555 1_555
H5W C10W 1_555 1_555
H6W C10W 1_555 1_555
H7W C10W 1_555 1_555
H5P C10P 1_555 1_555
H6P C10P 1_555 1_555
H7P C10P 1_555 1_555
C8 C9 1_555 1_555
C8K C7K 1_555 1_555
C8D C7D 1_555 1_555
C8W C7W 1_555 1_555
C8P C7P 1_555 1_555

#END
