
#######################################################################
#
#                 Cambridge Crystallographic Data Centre
#                                CCDC 
#
#######################################################################
#
# If this CIF has been generated from an entry in the Cambridge 
# Structural Database, then it will include bibliographic, chemical, 
# crystal, experimental, refinement or atomic coordinate data resulting 
# from the CCDC's data processing and validation procedures.
#
#######################################################################

data_CINGEL
_chemical_formula_moiety         'C54 H38,C8 H10'
_chemical_name_systematic        
'1,1,6,6-Tetraphenyl-1,6-bis(biphenyl)-hexa-2,4-diyne p-xylene clathrate'
_symmetry_cell_setting           triclinic
_symmetry_space_group_name_H-M   'P -1'
_symmetry_Int_Tables_number      2
_space_group_name_Hall           '-P 1'
loop_
_symmetry_equiv_pos_site_id
_symmetry_equiv_pos_as_xyz
1 x,y,z
2 -x,-y,-z
_cell_length_a                   12.978(3)
_cell_length_b                   18.799(5)
_cell_length_c                   9.560(2)
_cell_angle_alpha                102.06(2)
_cell_angle_beta                 91.69(2)
_cell_angle_gamma                89.56(2)
_cell_volume                     2279.91
_cell_formula_units_Z            2
loop_
_atom_site_label
_atom_site_type_symbol
_atom_site_fract_x
_atom_site_fract_y
_atom_site_fract_z
C1 C 0.3672 0.6128 0.8753
C2 C 0.3063 0.6701 0.8226
C3 C 0.2583 0.7113 0.7773
C4 C 0.2053 0.7661 0.7239
C5 C 0.1593 0.8107 0.6763
C6 C 0.1059 0.8692 0.6170
C7 C 0.3557 0.5405 0.7643
C8 C 0.3468 0.4750 0.8044
C9 C 0.3448 0.4109 0.7026
C10 C 0.3513 0.4115 0.5623
C11 C 0.3599 0.4762 0.5214
C12 C 0.3627 0.5402 0.6212
C13 C 0.3223 0.6068 1.0210
C14 C 0.2204 0.5930 1.0276
C15 C 0.1768 0.5867 1.1563
C16 C 0.2407 0.5939 1.2777
C17 C 0.3414 0.6077 1.2707
C18 C 0.3815 0.6143 1.1446
C19 C 0.4814 0.6342 0.8917
C20 C 0.5569 0.5832 0.8586
C21 C 0.6614 0.6008 0.8788
C22 C 0.6924 0.6713 0.9362
C23 C 0.6133 0.7234 0.9728
C24 C 0.5122 0.7046 0.9470
C25 C 0.8018 0.6891 0.9613
C26 C 0.8742 0.6581 0.8630
C27 C 0.9782 0.6736 0.8865
C28 C 1.0122 0.7203 1.0068
C29 C 0.9399 0.7511 1.1059
C30 C 0.8366 0.7357 1.0819
C31 C 0.1597 0.8741 0.4769
C32 C 0.1790 0.8115 0.3778
C33 C 0.2203 0.8149 0.2507
C34 C 0.2428 0.8810 0.2169
C35 C 0.2229 0.9427 0.3148
C36 C 0.1838 0.9388 0.4422
C37 C 0.1176 0.9400 0.7335
C38 C 0.0394 0.9876 0.7697
C39 C 0.0533 1.0500 0.8716
C40 C 0.1430 1.0668 0.9425
C41 C 0.2242 1.0203 0.9070
C42 C 0.2123 0.9573 0.8041
C43 C -0.0082 0.8507 0.5879
C44 C -0.0631 0.8720 0.4784
C45 C -0.1678 0.8584 0.4583
C46 C -0.2223 0.8223 0.5440
C47 C -0.1658 0.8015 0.6545
C48 C -0.0597 0.8145 0.6741
C49 C -0.3328 0.8063 0.5207
C50 C -0.3898 0.7835 0.6208
C51 C -0.4940 0.7680 0.6000
C52 C -0.5443 0.7763 0.4781
C53 C -0.4912 0.7990 0.3766
C54 C -0.3840 0.8131 0.3954
H1 H 0.3419 0.4736 0.9027
H2 H 0.3388 0.3659 0.7318
H3 H 0.3498 0.3673 0.4928
H4 H 0.3641 0.4771 0.4228
H5 H 0.3696 0.5849 0.5909
H6 H 0.1780 0.5876 0.9434
H7 H 0.1052 0.5776 1.1607
H8 H 0.2129 0.5891 1.3660
H9 H 0.3847 0.6129 1.3540
H10 H 0.4529 0.6245 1.1417
H11 H 0.5378 0.5340 0.8205
H12 H 0.7120 0.5637 0.8527
H13 H 0.6310 0.7724 1.0160
H14 H 0.4610 0.7415 0.9681
H15 H 0.8521 0.6256 0.7773
H16 H 1.0263 0.6510 0.8176
H17 H 1.0838 0.7316 1.0226
H18 H 0.9623 0.7831 1.1920
H19 H 0.7887 0.7585 1.1505
H20 H 0.1635 0.7655 0.3984
H21 H 0.2340 0.7712 0.1838
H22 H 0.2712 0.8833 0.1274
H23 H 0.2367 0.9889 0.2938
H24 H 0.1726 0.9827 0.5104
H25 H -0.0263 0.9775 0.7236
H26 H -0.0030 1.0827 0.8927
H27 H 0.1502 1.1095 1.0152
H28 H 0.2894 1.0316 0.9537
H29 H 0.2693 0.9254 0.7813
H30 H -0.0288 0.8967 0.4162
H31 H -0.2034 0.8750 0.3828
H32 H -0.2003 0.7773 0.7177
H33 H -0.0236 0.7983 0.7494
H34 H -0.3562 0.7768 0.7066
H35 H -0.5304 0.7523 0.6725
H36 H -0.6162 0.7660 0.4641
H37 H -0.5265 0.8065 0.2918
H38 H -0.3478 0.8272 0.3216
C55 C 0.4991 0.9929 0.8493
C56 C 0.4893 0.9337 0.9121
C57 C 0.5099 1.0592 0.9404
C58 C 0.4955 0.9868 0.6897
H39 H 0.4819 0.8866 0.8527
H40 H 0.5170 1.1014 0.9013
H41 H 0.4311 0.9671 0.6509
H42 H 0.5496 0.9560 0.6478
H43 H 0.5036 1.0338 0.6688
C57A C 0.4901 0.9408 1.0596
C56A C 0.5107 1.0663 1.0879
C55A C 0.5009 1.0071 1.1507
H40A H 0.4830 0.8986 1.0987
H39A H 0.5181 1.1134 1.1473
C58A C 0.5045 1.0132 1.3103
H41A H 0.5689 1.0329 1.3491
H42A H 0.4504 1.0440 1.3522
H43A H 0.4964 0.9662 1.3312
C59 C 0.0238 0.4339 0.5425
C60 C -0.0605 0.4421 0.4477
C61 C 0.0813 0.4938 0.5914
C62 C 0.0511 0.3653 0.5904
H44 H -0.1032 0.4012 0.4106
H45 H 0.1382 0.4912 0.6545
H46 H 0.0659 0.3279 0.5106
H47 H -0.0049 0.3507 0.6403
H48 H 0.1103 0.3733 0.6537
C61A C -0.0813 0.5062 0.4086
C60A C 0.0605 0.5579 0.5523
C59A C -0.0238 0.5661 0.4575
H45A H -0.1382 0.5088 0.3455
H44A H 0.1032 0.5988 0.5894
C62A C -0.0511 0.6347 0.4096
H46A H -0.0659 0.6721 0.4894
H47A H 0.0049 0.6493 0.3597
H48A H -0.1103 0.6267 0.3463
loop_
_geom_bond_atom_site_label_1
_geom_bond_atom_site_label_2
_geom_bond_site_symmetry_1
_geom_bond_site_symmetry_2
C1 C2 1_555 1_555
C2 C3 1_555 1_555
C3 C4 1_555 1_555
C4 C5 1_555 1_555
C5 C6 1_555 1_555
C6 C31 1_555 1_555
C7 C1 1_555 1_555
C8 C7 1_555 1_555
C9 C8 1_555 1_555
C10 C9 1_555 1_555
C11 C10 1_555 1_555
C12 C7 1_555 1_555
C13 C1 1_555 1_555
C14 C13 1_555 1_555
C15 C14 1_555 1_555
C16 C15 1_555 1_555
C17 C16 1_555 1_555
C18 C13 1_555 1_555
C19 C1 1_555 1_555
C20 C19 1_555 1_555
C21 C20 1_555 1_555
C22 C21 1_555 1_555
C23 C22 1_555 1_555
C24 C19 1_555 1_555
C25 C22 1_555 1_555
C26 C25 1_555 1_555
C27 C26 1_555 1_555
C28 C27 1_555 1_555
C29 C28 1_555 1_555
C30 C25 1_555 1_555
C31 C32 1_555 1_555
C32 C33 1_555 1_555
C33 C34 1_555 1_555
C34 C35 1_555 1_555
C35 C36 1_555 1_555
C36 C31 1_555 1_555
C37 C6 1_555 1_555
C38 C37 1_555 1_555
C39 C38 1_555 1_555
C40 C39 1_555 1_555
C41 C40 1_555 1_555
C42 C37 1_555 1_555
C43 C6 1_555 1_555
C44 C43 1_555 1_555
C45 C44 1_555 1_555
C46 C45 1_555 1_555
C47 C46 1_555 1_555
C48 C43 1_555 1_555
C49 C46 1_555 1_555
C50 C49 1_555 1_555
C51 C50 1_555 1_555
C52 C51 1_555 1_555
C53 C52 1_555 1_555
C54 C49 1_555 1_555
H1 C8 1_555 1_555
H2 C9 1_555 1_555
H3 C10 1_555 1_555
H4 C11 1_555 1_555
H5 C12 1_555 1_555
H6 C14 1_555 1_555
H7 C15 1_555 1_555
H8 C16 1_555 1_555
H9 C17 1_555 1_555
H10 C18 1_555 1_555
H11 C20 1_555 1_555
H12 C21 1_555 1_555
H13 C23 1_555 1_555
H14 C24 1_555 1_555
H15 C26 1_555 1_555
H16 C27 1_555 1_555
H17 C28 1_555 1_555
H18 C29 1_555 1_555
H19 C30 1_555 1_555
H20 C32 1_555 1_555
H21 C33 1_555 1_555
H22 C34 1_555 1_555
H23 C35 1_555 1_555
H24 C36 1_555 1_555
H25 C38 1_555 1_555
H26 C39 1_555 1_555
H27 C40 1_555 1_555
H28 C41 1_555 1_555
H29 C42 1_555 1_555
H30 C44 1_555 1_555
H31 C45 1_555 1_555
H32 C47 1_555 1_555
H33 C48 1_555 1_555
H34 C50 1_555 1_555
H35 C51 1_555 1_555
H36 C52 1_555 1_555
H37 C53 1_555 1_555
H38 C54 1_555 1_555
C55 C56 1_555 1_555
C56 H39 1_555 1_555
C57 C55 1_555 1_555
C58 C55 1_555 1_555
H40 C57 1_555 1_555
H41 C58 1_555 1_555
H42 C58 1_555 1_555
H43 C58 1_555 1_555
C59 C60 1_555 1_555
C60 H44 1_555 1_555
C61 C59 1_555 1_555
C62 C59 1_555 1_555
H45 C61 1_555 1_555
H46 C62 1_555 1_555
H47 C62 1_555 1_555
H48 C62 1_555 1_555
C57A C56 1_555 1_555
C56A C57 1_555 1_555
C55A C57A 1_555 1_555
H40A C57A 1_555 1_555
H39A C56A 1_555 1_555
C58A C55A 1_555 1_555
H41A C58A 1_555 1_555
H42A C58A 1_555 1_555
H43A C58A 1_555 1_555
C61A C60 1_555 1_555
C60A C61 1_555 1_555
C59A C61A 1_555 1_555
H45A C61A 1_555 1_555
H44A C60A 1_555 1_555
C62A C59A 1_555 1_555
H46A C62A 1_555 1_555
H47A C62A 1_555 1_555
H48A C62A 1_555 1_555
C11 C12 1_555 1_555
C17 C18 1_555 1_555
C23 C24 1_555 1_555
C29 C30 1_555 1_555
C41 C42 1_555 1_555
C47 C48 1_555 1_555
C53 C54 1_555 1_555
C56A C55A 1_555 1_555
C60A C59A 1_555 1_555

#END
