
#######################################################################
#
#                 Cambridge Crystallographic Data Centre
#                                CCDC 
#
#######################################################################
#
# If this CIF has been generated from an entry in the Cambridge 
# Structural Database, then it will include bibliographic, chemical, 
# crystal, experimental, refinement or atomic coordinate data resulting 
# from the CCDC's data processing and validation procedures.
#
#######################################################################

data_CINKEP
_chemical_formula_moiety         
'C12 H13 Cl1 N1 O2 1+,C12 H4 N4 1-,C12 H4 N4,C2 H3 N1'
_chemical_name_systematic        
'5-Chloro-8-hydroxyethoxy-N-methylquinolinium bis(7,7,8,8-tetracyanoquinodimethanide) acetonitrile solvate'
_symmetry_cell_setting           triclinic
_symmetry_space_group_name_H-M   'P -1'
_symmetry_Int_Tables_number      2
_space_group_name_Hall           '-P 1'
loop_
_symmetry_equiv_pos_site_id
_symmetry_equiv_pos_as_xyz
1 x,y,z
2 -x,-y,-z
_cell_length_a                   8.041(5)
_cell_length_b                   13.765(3)
_cell_length_c                   15.467(4)
_cell_angle_alpha                95.74(2)
_cell_angle_beta                 92.63(3)
_cell_angle_gamma                103.33(3)
_cell_volume                     1653.27
_exptl_crystal_colour            black
_cell_formula_units_Z            2
loop_
_atom_site_label
_atom_site_type_symbol
_atom_site_fract_x
_atom_site_fract_y
_atom_site_fract_z
Cl1 Cl 0.72213 0.10630 0.11437
C1 C 0.57996 -0.01037 0.10860
C2 C 0.43422 -0.01857 0.15159
C3 C 0.31565 -0.11166 0.14515
C4 C 0.34160 -0.19554 0.09823
O1 O 0.22554 -0.28494 0.08859
C5 C 0.06713 -0.29135 0.13160
C6 C -0.03779 -0.39706 0.10871
O2 O -0.12560 -0.41330 0.02751
C7 C 0.49684 -0.18912 0.05496
C8 C 0.61521 -0.09405 0.05881
C9 C 0.76272 -0.08542 0.01119
C10 C 0.79111 -0.16633 -0.03745
C11 C 0.67837 -0.25930 -0.03766
N1 N 0.53868 -0.27048 0.00750
C12 C 0.44077 -0.37630 0.00907
H1 H 0.4103 0.0460 0.1902
H2 H 0.1993 -0.1172 0.1785
H3 H 0.0940 -0.2752 0.2013
H4 H -0.0007 -0.2387 0.1086
H5 H -0.1297 -0.4135 0.1571
H6 H 0.0471 -0.4474 0.1097
H7 H 0.8530 -0.0136 0.0136
H8 H 0.9012 -0.1586 -0.0759
H9 H 0.7040 -0.3242 -0.0750
H10 H 0.3309 -0.3773 0.0469
H11 H 0.5223 -0.4183 0.0381
H12 H 0.3983 -0.4099 -0.0567
N2 N 0.70432 0.16065 0.64752
C13 C 0.56666 0.17321 0.64704
C14 C 0.39756 0.18914 0.64746
C15 C 0.35837 0.23854 0.72713
N3 N 0.32881 0.27788 0.79153
C16 C 0.27980 0.15861 0.57614
C17 C 0.11250 0.17687 0.57697
C18 C -0.00245 0.14650 0.50694
C19 C 0.04093 0.09450 0.42912
C20 C 0.20939 0.07629 0.42809
C21 C 0.32348 0.10653 0.49820
C22 C -0.07809 0.06263 0.35830
C23 C -0.24636 0.07830 0.35840
N4 N -0.38433 0.08975 0.35823
C24 C -0.04154 0.00956 0.28001
N5 N -0.01592 -0.03496 0.21682
H13 H 0.0763 0.2157 0.6346
H14 H -0.1281 0.1617 0.5097
H15 H 0.2460 0.0378 0.3703
H16 H 0.4492 0.0913 0.4956
N6 N -0.06494 0.33597 0.38714
C25 C 0.07280 0.32595 0.38365
C26 C 0.24264 0.31275 0.38199
C27 C 0.28303 0.25915 0.30533
N7 N 0.31667 0.21447 0.24398
C28 C 0.36111 0.34614 0.45431
C29 C 0.52955 0.32952 0.45517
C30 C 0.64305 0.36194 0.52546
C31 C 0.59623 0.41306 0.60253
C32 C 0.42853 0.42888 0.60196
C33 C 0.31530 0.39789 0.53139
C34 C 0.71357 0.44599 0.67566
C35 C 0.88277 0.43105 0.67576
N8 N 1.02039 0.41823 0.67463
C36 C 0.66760 0.49229 0.75426
N9 N 0.62757 0.52867 0.81768
H17 H 0.5679 0.2902 0.3984
H18 H 0.7704 0.3491 0.5233
H19 H 0.3897 0.4667 0.6594
H20 H 0.1891 0.4124 0.5332
N10 N 0.96038 0.33464 0.12827
C37 C 0.85170 0.34742 0.16882
C38 C 0.71048 0.36242 0.21936
H21 H 0.7599 0.4072 0.2803
H22 H 0.6343 0.2904 0.2321
H23 H 0.6320 0.4007 0.1834
loop_
_geom_bond_atom_site_label_1
_geom_bond_atom_site_label_2
_geom_bond_site_symmetry_1
_geom_bond_site_symmetry_2
Cl1 C1 1_555 1_555
C1 C2 1_555 1_555
C2 C3 1_555 1_555
C3 C4 1_555 1_555
C4 O1 1_555 1_555
O1 C5 1_555 1_555
C5 C6 1_555 1_555
C6 O2 1_555 1_555
C7 C4 1_555 1_555
C8 C1 1_555 1_555
C9 C8 1_555 1_555
C10 C9 1_555 1_555
C11 C10 1_555 1_555
N1 C7 1_555 1_555
C12 N1 1_555 1_555
H1 C2 1_555 1_555
H2 C3 1_555 1_555
H3 C5 1_555 1_555
H4 C5 1_555 1_555
H5 C6 1_555 1_555
H6 C6 1_555 1_555
H7 C9 1_555 1_555
H8 C10 1_555 1_555
H9 C11 1_555 1_555
H10 C12 1_555 1_555
H11 C12 1_555 1_555
H12 C12 1_555 1_555
N2 C13 1_555 1_555
C13 C14 1_555 1_555
C14 C15 1_555 1_555
C15 N3 1_555 1_555
C16 C14 1_555 1_555
C17 C16 1_555 1_555
C18 C17 1_555 1_555
C19 C18 1_555 1_555
C20 C19 1_555 1_555
C21 C16 1_555 1_555
C22 C19 1_555 1_555
C23 C22 1_555 1_555
N4 C23 1_555 1_555
C24 C22 1_555 1_555
N5 C24 1_555 1_555
H13 C17 1_555 1_555
H14 C18 1_555 1_555
H15 C20 1_555 1_555
H16 C21 1_555 1_555
N6 C25 1_555 1_555
C25 C26 1_555 1_555
C26 C27 1_555 1_555
C27 N7 1_555 1_555
C28 C26 1_555 1_555
C29 C28 1_555 1_555
C30 C29 1_555 1_555
C31 C30 1_555 1_555
C32 C31 1_555 1_555
C33 C28 1_555 1_555
C34 C31 1_555 1_555
C35 C34 1_555 1_555
N8 C35 1_555 1_555
C36 C34 1_555 1_555
N9 C36 1_555 1_555
H17 C29 1_555 1_555
H18 C30 1_555 1_555
H19 C32 1_555 1_555
H20 C33 1_555 1_555
N10 C37 1_555 1_555
C37 C38 1_555 1_555
C38 H21 1_555 1_555
H22 C38 1_555 1_555
H23 C38 1_555 1_555
C7 C8 1_555 1_555
C11 N1 1_555 1_555
C20 C21 1_555 1_555
C32 C33 1_555 1_555

#END
