
#######################################################################
#
#                 Cambridge Crystallographic Data Centre
#                                CCDC 
#
#######################################################################
#
# If this CIF has been generated from an entry in the Cambridge 
# Structural Database, then it will include bibliographic, chemical, 
# crystal, experimental, refinement or atomic coordinate data resulting 
# from the CCDC's data processing and validation procedures.
#
#######################################################################

data_CINLES
_chemical_formula_moiety         'C15 H11 N4 O2 1+,H2 O1,Cl1 1-'
_chemical_name_systematic        
'3-(3-formylimidazo[1,2-a]pyridin-1-ium-2-yl)-2-oxo-2,3-dihydroimidazo[1,2-a]pyridin-1-ium-3-ide chloride monohydrate'
_symmetry_cell_setting           monoclinic
_symmetry_space_group_name_H-M   'P 21/c'
_symmetry_Int_Tables_number      14
_space_group_name_Hall           '-P 2ybc'
loop_
_symmetry_equiv_pos_site_id
_symmetry_equiv_pos_as_xyz
1 x,y,z
2 -x,1/2+y,1/2-z
3 -x,-y,-z
4 x,1/2-y,1/2+z
_cell_length_a                   6.6544(2)
_cell_length_b                   27.5714(11)
_cell_length_c                   8.0748(3)
_cell_angle_alpha                90
_cell_angle_beta                 91.623(3)
_cell_angle_gamma                90
_cell_volume                     1480.9
_cell_formula_units_Z            4
loop_
_atom_site_label
_atom_site_type_symbol
_atom_site_fract_x
_atom_site_fract_y
_atom_site_fract_z
Cl1 Cl 0.28545(7) 0.147099(17) 0.17865(6)
O1 O 0.2065(2) 0.06064(5) 0.42392(17)
H1 H 0.233(3) 0.0854(7) 0.368(3)
H2 H 0.096(3) 0.0682(8) 0.477(3)
O2 O 0.8736(2) 0.08278(5) -0.39850(15)
N1 N 0.6623(2) 0.17015(5) -0.00596(17)
H3 H 0.5614 0.1579 0.0435
N2 N 0.80649(19) 0.01863(5) -0.21978(17)
H4 H 0.8149 -0.0047 -0.2900
O3 O 1.2537(2) 0.19630(5) -0.2615(2)
N3 N 0.76057(18) 0.05793(5) 0.01260(16)
N4 N 0.8761(2) 0.22280(5) -0.10267(17)
C1 C 1.1349(3) 0.16601(7) -0.2172(2)
H5 H 1.1689 0.1336 -0.2315
C2 C 0.9441(2) 0.17648(6) -0.1437(2)
C3 C 0.8345(2) 0.06735(6) -0.2576(2)
C4 C 0.8072(2) 0.14396(6) -0.0844(2)
C5 C 0.9556(3) 0.26788(6) -0.1336(2)
H6 H 1.0751 0.2711 -0.1895
C6 C 0.6746(3) 0.30276(7) 0.0028(3)
H7 H 0.6070 0.3305 0.0361
C7 C 0.5966(3) 0.25816(7) 0.0357(2)
H8 H 0.4774 0.2548 0.0920
C8 C 0.7644(2) 0.01280(5) -0.0587(2)
C9 C 0.8042(2) 0.09262(6) -0.1084(2)
C10 C 0.6904(2) -0.02308(6) 0.1984(2)
H9 H 0.6646 -0.0502 0.2628
C11 C 0.8553(3) 0.30734(7) -0.0806(2)
H10 H 0.9072 0.3381 -0.0999
C12 C 0.7024(2) 0.21799(6) -0.0183(2)
C13 C 0.6889(3) 0.02307(7) 0.2709(2)
H11 H 0.6634 0.0263 0.3829
C14 C 0.7294(2) -0.02871(6) 0.0345(2)
H12 H 0.7324 -0.0593 -0.0136
C15 C 0.7246(3) 0.06309(6) 0.1778(2)
H13 H 0.7245 0.0937 0.2260
loop_
_geom_bond_atom_site_label_1
_geom_bond_atom_site_label_2
_geom_bond_site_symmetry_1
_geom_bond_site_symmetry_2
O1 H1 1_555 1_555
H2 O1 1_555 1_555
O2 C3 1_555 1_555
N1 H3 1_555 1_555
N2 H4 1_555 1_555
O3 C1 1_555 1_555
N3 C8 1_555 1_555
N4 C2 1_555 1_555
C1 H5 1_555 1_555
C2 C1 1_555 1_555
C3 N2 1_555 1_555
C4 N1 1_555 1_555
C5 N4 1_555 1_555
H6 C5 1_555 1_555
C6 H7 1_555 1_555
C7 C6 1_555 1_555
H8 C7 1_555 1_555
C8 N2 1_555 1_555
C9 N3 1_555 1_555
C10 H9 1_555 1_555
C11 C5 1_555 1_555
H10 C11 1_555 1_555
C12 N1 1_555 1_555
C13 C10 1_555 1_555
H11 C13 1_555 1_555
C14 C8 1_555 1_555
H12 C14 1_555 1_555
C15 N3 1_555 1_555
H13 C15 1_555 1_555
N4 C12 1_555 1_555
C2 C4 1_555 1_555
C3 C9 1_555 1_555
C4 C9 1_555 1_555
C6 C11 1_555 1_555
C7 C12 1_555 1_555
C10 C14 1_555 1_555
C13 C15 1_555 1_555

#END
