
#######################################################################
#
#                 Cambridge Crystallographic Data Centre
#                                CCDC 
#
#######################################################################
#
# If this CIF has been generated from an entry in the Cambridge 
# Structural Database, then it will include bibliographic, chemical, 
# crystal, experimental, refinement or atomic coordinate data resulting 
# from the CCDC's data processing and validation procedures.
#
#######################################################################

data_CINMER04
_chemical_name_common            'Chincomeronic acid'
_chemical_formula_moiety         'C7 H5 N1 O4'
_chemical_name_systematic        '3,4-Pyridinedicarboxylic acid'
_symmetry_cell_setting           monoclinic
_symmetry_space_group_name_H-M   'P 21/c'
_symmetry_Int_Tables_number      14
_space_group_name_Hall           '-P 2ybc'
loop_
_symmetry_equiv_pos_site_id
_symmetry_equiv_pos_as_xyz
1 x,y,z
2 -x,1/2+y,1/2-z
3 -x,-y,-z
4 x,1/2-y,1/2+z
_cell_length_a                   7.5942(14)
_cell_length_b                   7.3317(13)
_cell_length_c                   12.113(2)
_cell_angle_alpha                90
_cell_angle_beta                 104.339(4)
_cell_angle_gamma                90
_cell_volume                     653.422
_exptl_crystal_description       blocks
_cell_formula_units_Z            4
_exptl_crystal_recrystallization_method water
loop_
_atom_site_label
_atom_site_type_symbol
_atom_site_fract_x
_atom_site_fract_y
_atom_site_fract_z
N1 N 0.7075(4) -0.0868(4) 0.6903(2)
O1 O 0.7399(4) -0.5926(3) 0.5356(2)
O2 O 0.7220(4) -0.5978(3) 0.9527(2)
C1 C 0.7847(4) -0.0813(4) 0.8034(3)
O3 O 0.6116(5) -0.7172(4) 0.6647(3)
C2 C 0.7829(4) -0.4063(4) 0.8105(2)
C3 C 0.7141(4) -0.4100(4) 0.6910(2)
C4 C 0.6757(4) -0.2466(4) 0.6327(3)
C5 C 0.8219(4) -0.2387(4) 0.8653(3)
O4 O 0.9347(4) -0.6868(4) 0.8650(3)
C6 C 0.8185(4) -0.5810(4) 0.8789(2)
C7 C 0.6813(4) -0.5893(4) 0.6264(2)
H1 H 0.875(5) -0.233(5) 0.946(3)
H2 H 0.627(5) -0.243(5) 0.549(3)
H3 H 0.822(6) 0.031(4) 0.838(3)
H4 H 0.669(6) 0.040(7) 0.648(4)
H5 H 0.731(10) -0.750(10) 0.992(6)
loop_
_geom_bond_atom_site_label_1
_geom_bond_atom_site_label_2
_geom_bond_site_symmetry_1
_geom_bond_site_symmetry_2
N1 C1 1_555 1_555
O1 C7 1_555 1_555
O2 C6 1_555 1_555
C1 C5 1_555 1_555
O3 C7 1_555 1_555
C2 C3 1_555 1_555
C3 C4 1_555 1_555
C4 N1 1_555 1_555
C5 C2 1_555 1_555
O4 C6 1_555 1_555
C6 C2 1_555 1_555
C7 C3 1_555 1_555
H1 C5 1_555 1_555
H2 C4 1_555 1_555
H3 C1 1_555 1_555
H4 N1 1_555 1_555
H5 O2 1_555 1_555

#END
