
#######################################################################
#
#                 Cambridge Crystallographic Data Centre
#                                CCDC 
#
#######################################################################
#
# If this CIF has been generated from an entry in the Cambridge 
# Structural Database, then it will include bibliographic, chemical, 
# crystal, experimental, refinement or atomic coordinate data resulting 
# from the CCDC's data processing and validation procedures.
#
#######################################################################

data_CINMIX
_chemical_formula_moiety         'C29 H36 O6'
_chemical_name_systematic        
1,7-bis(4-butoxy-3-methoxyphenyl)-5-hydroxyhepta-1,4,6-trien-3-one
_symmetry_cell_setting           monoclinic
_symmetry_space_group_name_H-M   'P 21/c'
_symmetry_Int_Tables_number      14
_space_group_name_Hall           '-P 2ybc'
loop_
_symmetry_equiv_pos_site_id
_symmetry_equiv_pos_as_xyz
1 x,y,z
2 -x,1/2+y,1/2-z
3 -x,-y,-z
4 x,1/2-y,1/2+z
_cell_length_a                   25.387(5)
_cell_length_b                   4.999(5)
_cell_length_c                   22.849(5)
_cell_angle_alpha                90
_cell_angle_beta                 114.022(5)
_cell_angle_gamma                90
_cell_volume                     2648.61
_exptl_crystal_colour            orange
_exptl_crystal_description       needle
_cell_formula_units_Z            4
loop_
_atom_site_label
_atom_site_type_symbol
_atom_site_fract_x
_atom_site_fract_y
_atom_site_fract_z
O1 O 0.38773(8) 1.4590(4) 0.07434(9)
O2 O 1.07000(8) 0.5697(4) 0.12010(10)
O3 O 0.40962(8) 1.1177(4) 0.16715(9)
O4 O 0.98288(8) 0.8712(4) 0.06027(9)
C1 C 0.44848(10) 1.1240(5) 0.13966(12)
O5 O 0.68052(9) 0.4693(4) 0.19370(12)
H1 H 0.7116 0.3910 0.2068
C2 C 0.92848(10) 0.6810(5) 0.11589(12)
H2 H 0.8977 0.7964 0.0955
C3 C 1.02401(11) 0.5293(6) 0.13485(13)
C4 C 0.97625(11) 0.6991(5) 0.10285(12)
C5 C 0.92502(10) 0.4900(5) 0.15977(12)
C6 C 0.43655(11) 1.3105(5) 0.09015(12)
C7 C 0.53520(11) 0.9860(5) 0.12804(12)
O6 O 0.78100(9) 0.3588(4) 0.20642(11)
C8 C 0.68283(11) 0.6781(6) 0.16147(13)
C9 C 0.87511(11) 0.4639(6) 0.17500(12)
H3 H 0.8750 0.3155 0.1995
C10 C 0.73173(11) 0.7344(6) 0.15114(13)
H4 H 0.7324 0.8877 0.1284
C11 C 0.58626(11) 0.8177(6) 0.14921(13)
H5 H 0.5861 0.6687 0.1735
C12 C 0.78022(11) 0.5678(6) 0.17386(12)
C13 C 0.49676(11) 0.9657(6) 0.15758(12)
H6 H 0.5041 0.8415 0.1903
C14 C 0.97122(11) 0.3203(6) 0.18870(13)
H7 H 0.9692 0.1894 0.2167
C15 C 0.63292(11) 0.8519(6) 0.13786(14)
H8 H 0.6337 0.9978 0.1130
C16 C 0.82954(11) 0.6241(6) 0.15864(12)
H9 H 0.8291 0.7802 0.1363
C17 C 1.02062(11) 0.3403(6) 0.17699(13)
H10 H 1.0515 0.2257 0.1977
C18 C 0.52231(12) 1.1693(6) 0.07871(14)
H11 H 0.5469 1.1855 0.0579
C19 C 0.47367(12) 1.3288(6) 0.05981(15)
H12 H 0.4659 1.4495 0.0263
C20 C 0.41274(13) 0.8981(7) 0.20779(14)
H13 H 0.4089 0.7340 0.1846
H14 H 0.3822 0.9112 0.2222
H15 H 0.4492 0.9005 0.2441
C21 C 0.93484(12) 1.0316(7) 0.02204(14)
H16 H 0.9026 0.9182 -0.0015
H17 H 0.9447 1.1357 -0.0074
H18 H 0.9249 1.1490 0.0492
C22 C 0.37309(13) 1.6393(7) 0.02155(15)
H19 H 0.3635 1.5405 -0.0180
H20 H 0.4054 1.7566 0.0276
C23 C 1.11992(12) 0.4064(7) 0.15231(15)
H21 H 1.1111 0.2212 0.1394
H22 H 1.1316 0.4173 0.1983
C24 C 1.16712(13) 0.5033(8) 0.13528(17)
H23 H 1.1738 0.6914 0.1462
H24 H 1.1552 0.4866 0.0894
C25 C 0.32090(17) 1.8036(10) 0.0185(2)
H25 H 0.3287 1.8763 0.0606
H26 H 0.3148 1.9522 -0.0108
C26 C 1.22271(15) 0.3519(10) 0.1690(2)
H27 H 1.2302 0.3430 0.2141
H28 H 1.2166 0.1701 0.1528
C27 C 0.27152(19) 1.6481(11) -0.0017(2)
H29 H 0.2775 1.4979 0.0272
H30 H 0.2629 1.5785 -0.0442
C28 C 1.27331(17) 0.4500(12) 0.1643(2)
H31 H 1.2708 0.4196 0.1218
H32 H 1.3064 0.3586 0.1947
H33 H 1.2769 0.6384 0.1733
C29 C 0.21785(16) 1.8291(12) -0.0028(2)
H34 H 0.2294 1.9268 0.0367
H35 H 0.1859 1.7150 -0.0077
H36 H 0.2065 1.9524 -0.0380
loop_
_geom_bond_atom_site_label_1
_geom_bond_atom_site_label_2
_geom_bond_site_symmetry_1
_geom_bond_site_symmetry_2
O1 C6 1_555 1_555
O2 C3 1_555 1_555
O3 C1 1_555 1_555
O4 C4 1_555 1_555
C1 C6 1_555 1_555
O5 H1 1_555 1_555
C2 H2 1_555 1_555
C3 C4 1_555 1_555
C4 C2 1_555 1_555
C5 C2 1_555 1_555
C6 C19 1_555 1_555
C7 C11 1_555 1_555
O6 C12 1_555 1_555
C8 O5 1_555 1_555
C9 C5 1_555 1_555
H3 C9 1_555 1_555
C10 C8 1_555 1_555
H4 C10 1_555 1_555
C11 H5 1_555 1_555
C12 C10 1_555 1_555
C13 C1 1_555 1_555
H6 C13 1_555 1_555
C14 C5 1_555 1_555
H7 C14 1_555 1_555
C15 C8 1_555 1_555
H8 C15 1_555 1_555
C16 C9 1_555 1_555
H9 C16 1_555 1_555
C17 C3 1_555 1_555
H10 C17 1_555 1_555
C18 C7 1_555 1_555
H11 C18 1_555 1_555
C19 C18 1_555 1_555
H12 C19 1_555 1_555
C20 O3 1_555 1_555
H13 C20 1_555 1_555
H14 C20 1_555 1_555
H15 C20 1_555 1_555
C21 O4 1_555 1_555
H16 C21 1_555 1_555
H17 C21 1_555 1_555
H18 C21 1_555 1_555
C22 O1 1_555 1_555
H19 C22 1_555 1_555
H20 C22 1_555 1_555
C23 O2 1_555 1_555
H21 C23 1_555 1_555
H22 C23 1_555 1_555
C24 C23 1_555 1_555
H23 C24 1_555 1_555
H24 C24 1_555 1_555
C25 C22 1_555 1_555
H25 C25 1_555 1_555
H26 C25 1_555 1_555
C26 C24 1_555 1_555
H27 C26 1_555 1_555
H28 C26 1_555 1_555
C27 C25 1_555 1_555
H29 C27 1_555 1_555
H30 C27 1_555 1_555
C28 C26 1_555 1_555
H31 C28 1_555 1_555
H32 C28 1_555 1_555
H33 C28 1_555 1_555
C29 C27 1_555 1_555
H34 C29 1_555 1_555
H35 C29 1_555 1_555
H36 C29 1_555 1_555
C7 C13 1_555 1_555
C11 C15 1_555 1_555
C12 C16 1_555 1_555
C14 C17 1_555 1_555

#END
