
#######################################################################
#
#                 Cambridge Crystallographic Data Centre
#                                CCDC 
#
#######################################################################
#
# If this CIF has been generated from an entry in the Cambridge 
# Structural Database, then it will include bibliographic, chemical, 
# crystal, experimental, refinement or atomic coordinate data resulting 
# from the CCDC's data processing and validation procedures.
#
#######################################################################

data_CINQEX
_chemical_formula_moiety         'C37 H37 N5 O2,1.25(H2 O1)'
_chemical_name_systematic        
"3',6'-bis(Diethylamino)-2-(7-methyl-1,8-naphthyridin-2-yl)spiro[isoindole-1,9'-xanthen]-3(2H)-one hydrate"
_symmetry_cell_setting           monoclinic
_symmetry_space_group_name_H-M   'C 2/c'
_symmetry_Int_Tables_number      15
_space_group_name_Hall           '-C 2yn'
loop_
_symmetry_equiv_pos_site_id
_symmetry_equiv_pos_as_xyz
1 x,y,z
2 -x,y,1/2-z
3 1/2+x,1/2+y,z
4 1/2-x,1/2+y,1/2-z
5 -x,-y,-z
6 x,-y,1/2+z
7 1/2-x,1/2-y,-z
8 1/2+x,1/2-y,1/2+z
_cell_length_a                   24.7312(12)
_cell_length_b                   25.7108(12)
_cell_length_c                   20.9872(12)
_cell_angle_alpha                90
_cell_angle_beta                 91.845(4)
_cell_angle_gamma                90
_cell_volume                     13338
_exptl_crystal_colour            colorless
_exptl_crystal_description       block
_cell_formula_units_Z            16
loop_
_atom_site_label
_atom_site_type_symbol
_atom_site_fract_x
_atom_site_fract_y
_atom_site_fract_z
N1 N -0.05117(8) 0.05482(7) 0.03504(11)
N2 N -0.00355(7) 0.12460(6) -0.00029(8)
N3 N 0.04361(7) 0.19769(6) -0.02943(7)
N4 N -0.15068(9) 0.25441(11) 0.15636(11)
N5 N 0.18397(10) 0.07839(11) 0.19046(11)
O1 O 0.02091(7) 0.17411(8) 0.16381(7)
O2 O 0.06712(8) 0.22903(8) -0.12908(8)
C1 C -0.10259(13) -0.01594(11) 0.08000(18)
H1 H -0.0931 0.0034 0.1178
H2 H -0.0887 -0.0507 0.0840
H3 H -0.1413 -0.0171 0.0744
C2 C -0.07830(11) 0.01039(11) 0.02236(18)
C3 C -0.08619(12) -0.00912(12) -0.03976(19)
H4 H -0.1063 -0.0393 -0.0466
C4 C -0.06470(13) 0.01568(13) -0.08919(18)
H5 H -0.0682 0.0026 -0.1304
C5 C -0.03730(11) 0.06114(10) -0.07653(14)
C6 C -0.01472(12) 0.08953(12) -0.12421(15)
H6 H -0.0183 0.0777 -0.1660
C7 C 0.01294(11) 0.13490(11) -0.11206(12)
H7 H 0.0281 0.1540 -0.1446
C8 C 0.01736(9) 0.15142(9) -0.04722(11)
C9 C -0.03051(9) 0.07997(9) -0.01546(13)
C10 C 0.06656(10) 0.23312(10) -0.07171(12)
C11 C 0.08884(9) 0.27407(9) -0.03309(12)
C12 C 0.11735(11) 0.31818(11) -0.05255(15)
H8 H 0.1233 0.3246 -0.0954
C13 C 0.13560(12) 0.35046(12) -0.00715(17)
H9 H 0.1547 0.3797 -0.0195
C14 C 0.12794(11) 0.34321(10) 0.05658(17)
H10 H 0.1417 0.3670 0.0863
C15 C 0.09843(10) 0.29845(10) 0.07687(14)
H11 H 0.0920 0.2923 0.1196
C16 C 0.08023(9) 0.26523(9) 0.02984(12)
C17 C 0.05010(8) 0.21413(8) 0.03905(10)
C18 C 0.08415(8) 0.17679(8) 0.07834(9)
C19 C 0.13305(10) 0.15957(9) 0.05946(11)
H12 H 0.1450 0.1705 0.0201
C20 C 0.16546(11) 0.12737(10) 0.09468(11)
H13 H 0.1982 0.1164 0.0787
C21 C 0.15055(11) 0.11086(11) 0.15365(12)
C22 C 0.10162(10) 0.12736(11) 0.17421(12)
H14 H 0.0897 0.1164 0.2136
C23 C 0.06958(9) 0.16041(9) 0.13661(11)
C24 C -0.01478(9) 0.20571(10) 0.12839(11)
C25 C -0.00374(8) 0.22328(8) 0.06950(10)
C26 C -0.04470(9) 0.25191(9) 0.04050(11)
H15 H -0.0392 0.2650 -0.0001
C27 C -0.09297(10) 0.26219(9) 0.06792(11)
H16 H -0.1194 0.2809 0.0453
C28 C -0.10284(10) 0.24513(10) 0.12854(12)
C29 C -0.06256(11) 0.21684(12) 0.15847(12)
H17 H -0.0673 0.2049 0.1997
C30 C -0.1884(2) 0.2930(2) 0.1276(2)
H18 H -0.1690 0.3197 0.1049
H19 H -0.2100 0.3093 0.1597
C31 C -0.2242(2) 0.2598(2) 0.0810(3)
H20 H -0.2501 0.2818 0.0592
H21 H -0.2428 0.2336 0.1045
H22 H -0.2017 0.2434 0.0504
C32 C -0.1691(3) 0.2203(3) 0.2117(3)
H23 H -0.2077 0.2138 0.2083
H24 H -0.1502 0.1872 0.2123
C33 C -0.1574(5) 0.2458(5) 0.2598(6)
H25 H -0.1667 0.2265 0.2970
H26 H -0.1771 0.2780 0.2585
H27 H -0.1193 0.2530 0.2613
C34 C 0.2248(2) 0.0457(2) 0.1626(2)
H28 H 0.2151 0.0366 0.1188
H29 H 0.2308 0.0141 0.1872
C35 C 0.2748(2) 0.0822(2) 0.1667(3)
H30 H 0.3053 0.0650 0.1488
H31 H 0.2830 0.0907 0.2105
H32 H 0.2671 0.1135 0.1432
C36 C 0.1704(2) 0.0590(2) 0.2520(2)
H33 H 0.2026 0.0565 0.2796
H34 H 0.1448 0.0819 0.2718
C37 C 0.1488(4) 0.0121(3) 0.2426(4)
H35 H 0.1390 -0.0024 0.2828
H36 H 0.1746 -0.0102 0.2230
H37 H 0.1171 0.0151 0.2153
N6 N 0.44586(9) -0.05396(8) 0.42549(14)
N7 N 0.38481(8) -0.00688(7) 0.48242(10)
N8 N 0.31883(9) 0.03948(8) 0.53338(9)
N9 N 0.40875(11) 0.17867(9) 0.30582(10)
N10 N 0.22922(10) -0.14280(8) 0.34704(11)
O3 O 0.31458(7) 0.02181(6) 0.34024(7)
O4 O 0.30419(12) 0.06051(11) 0.63985(10)
C46 C 0.50428(15) -0.10574(15) 0.3618(2)
H58 H 0.4793 -0.0927 0.3297
H59 H 0.5029 -0.1430 0.3622
H60 H 0.5403 -0.0946 0.3526
C47 C 0.48907(14) -0.08510(12) 0.4263(2)
C48 C 0.51898(14) -0.09837(12) 0.4791(2)
H61 H 0.5489 -0.1200 0.4757
C49 C 0.50445(15) -0.07928(13) 0.5386(2)
H62 H 0.5250 -0.0872 0.5752
C50 C 0.45896(12) -0.04858(11) 0.54172(18)
C51 C 0.43823(15) -0.02711(13) 0.59742(18)
H63 H 0.4564 -0.0335 0.6361
C52 C 0.39319(14) 0.00232(13) 0.59714(16)
H64 H 0.3801 0.0163 0.6345
C53 C 0.36658(12) 0.01089(10) 0.53697(13)
C54 C 0.43096(11) -0.03632(10) 0.48367(17)
C55 C 0.28901(13) 0.06163(12) 0.58327(13)
C56 C 0.24045(13) 0.08525(12) 0.55422(15)
C57 C 0.19830(15) 0.11222(14) 0.58454(18)
H65 H 0.1982 0.1162 0.6286
C58 C 0.15792(16) 0.13206(16) 0.5460(2)
H66 H 0.1299 0.1504 0.5641
C59 C 0.15773(12) 0.12589(11) 0.4837(2)
H67 H 0.1298 0.1406 0.4589
C60 C 0.19784(11) 0.09819(10) 0.45380(17)
H68 H 0.1966 0.0932 0.4099
C61 C 0.24016(11) 0.07802(10) 0.49201(12)
C62 C 0.29037(9) 0.04755(8) 0.47125(10)
C63 C 0.32324(9) 0.08096(8) 0.42824(10)
C64 C 0.34335(10) 0.12947(9) 0.44808(12)
H69 H 0.3371 0.1403 0.4895
C65 C 0.37162(10) 0.16157(9) 0.40979(11)
H70 H 0.3849 0.1930 0.4256
C66 C 0.38047(10) 0.14765(9) 0.34835(12)
C67 C 0.36033(11) 0.10006(10) 0.32724(11)
H71 H 0.3654 0.0898 0.2854
C68 C 0.33287(9) 0.06783(9) 0.36753(11)
C69 C 0.28633(9) -0.01283(9) 0.37701(10)
C70 C 0.27454(9) -0.00218(8) 0.43897(10)
C71 C 0.24736(10) -0.04184(9) 0.46990(12)
H72 H 0.2391 -0.0370 0.5124
C72 C 0.23223(9) -0.08707(9) 0.44127(11)
H73 H 0.2142 -0.1121 0.4644
C73 C 0.24342(10) -0.09639(9) 0.37785(12)
C74 C 0.27130(10) -0.05818(9) 0.34637(11)
H74 H 0.2800 -0.0631 0.3040
C75 C 0.19494(19) -0.17855(18) 0.3771(2)
H75 H 0.1752 -0.1995 0.3458
H76 H 0.1692 -0.1605 0.4032
C76 C 0.2359(2) -0.2148(2) 0.4213(2)
H77 H 0.2154 -0.2405 0.4431
H78 H 0.2550 -0.1933 0.4520
H79 H 0.2614 -0.2317 0.3947
C77 C 0.20373(16) -0.13475(17) 0.27218(18)
H80 H 0.2275 -0.1120 0.2492
H81 H 0.2032 -0.1682 0.2507
C78 C 0.1547(2) -0.1151(2) 0.2697(3)
H82 H 0.1440 -0.1083 0.2261
H83 H 0.1543 -0.0832 0.2935
H84 H 0.1300 -0.1394 0.2877
C79 C 0.38688(18) 0.1811(2) 0.2410(2)
H85 H 0.3926 0.1475 0.2212
H86 H 0.4086 0.2059 0.2181
C80 C 0.3275(3) 0.1966(3) 0.2293(3)
H87 H 0.3203 0.1953 0.1841
H88 H 0.3208 0.2311 0.2445
H89 H 0.3044 0.1724 0.2502
C81 C 0.4058(3) 0.2643(3) 0.3067(4)
H90 H 0.4218 0.2974 0.3171
H91 H 0.3725 0.2606 0.3284
H92 H 0.3988 0.2622 0.2615
C82 C 0.4424(4) 0.2234(3) 0.3263(5)
H93 H 0.4498 0.2235 0.3720
H94 H 0.4762 0.2248 0.3041
N6A N 0.55414(9) -0.05396(8) 0.07451(14)
N7A N 0.61519(8) -0.00688(7) 0.01758(10)
N8A N 0.68117(9) 0.03948(8) -0.03338(9)
N9A N 0.59125(11) 0.17867(9) 0.19418(10)
N10A N 0.77078(10) -0.14280(8) 0.15296(11)
O3A O 0.68542(7) 0.02181(6) 0.15976(7)
O4A O 0.69581(12) 0.06051(11) -0.13985(10)
C46A C 0.49572(15) -0.10574(15) 0.1382(2)
H58A H 0.5207 -0.0927 0.1703
H59A H 0.4971 -0.1430 0.1378
H60A H 0.4597 -0.0946 0.1474
C47A C 0.51093(14) -0.08510(12) 0.0737(2)
C48A C 0.48102(14) -0.09837(12) 0.0209(2)
H61A H 0.4511 -0.1200 0.0243
C49A C 0.49555(15) -0.07928(13) -0.0386(2)
H62A H 0.4750 -0.0872 -0.0752
C50A C 0.54104(12) -0.04858(11) -0.04172(18)
C51A C 0.56177(15) -0.02711(13) -0.09742(18)
H63A H 0.5436 -0.0335 -0.1361
C52A C 0.60681(14) 0.00232(13) -0.09714(16)
H64A H 0.6199 0.0163 -0.1345
C53A C 0.63342(12) 0.01089(10) -0.03697(13)
C54A C 0.56904(11) -0.03632(10) 0.01633(17)
C55A C 0.71099(13) 0.06163(12) -0.08327(13)
C56A C 0.75955(13) 0.08525(12) -0.05422(15)
C57A C 0.80170(15) 0.11222(14) -0.08454(18)
H65A H 0.8018 0.1162 -0.1286
C58A C 0.84208(16) 0.13206(16) -0.0460(2)
H66A H 0.8701 0.1504 -0.0641
C59A C 0.84227(12) 0.12589(11) 0.0163(2)
H67A H 0.8702 0.1406 0.0411
C60A C 0.80216(11) 0.09819(10) 0.04620(17)
H68A H 0.8034 0.0932 0.0901
C61A C 0.75984(11) 0.07802(10) 0.00799(12)
C62A C 0.70963(9) 0.04755(8) 0.02875(10)
C63A C 0.67676(9) 0.08096(8) 0.07176(10)
C64A C 0.65665(10) 0.12947(9) 0.05192(12)
H69A H 0.6629 0.1403 0.0105
C65A C 0.62838(10) 0.16157(9) 0.09021(11)
H70A H 0.6151 0.1930 0.0744
C66A C 0.61953(10) 0.14765(9) 0.15165(12)
C67A C 0.63967(11) 0.10006(10) 0.17276(11)
H71A H 0.6346 0.0898 0.2146
C68A C 0.66713(9) 0.06783(9) 0.13247(11)
C69A C 0.71367(9) -0.01283(9) 0.12299(10)
C70A C 0.72546(9) -0.00218(8) 0.06103(10)
C71A C 0.75264(10) -0.04184(9) 0.03010(12)
H72A H 0.7609 -0.0370 -0.0124
C72A C 0.76777(9) -0.08707(9) 0.05873(11)
H73A H 0.7858 -0.1121 0.0356
C73A C 0.75658(10) -0.09639(9) 0.12215(12)
C74A C 0.72870(10) -0.05818(9) 0.15363(11)
H74A H 0.7200 -0.0631 0.1960
C75A C 0.80506(19) -0.17855(18) 0.1229(2)
H75A H 0.8248 -0.1995 0.1542
H76A H 0.8308 -0.1605 0.0968
C76A C 0.7641(2) -0.2148(2) 0.0787(2)
H77A H 0.7846 -0.2405 0.0569
H78A H 0.7450 -0.1933 0.0480
H79A H 0.7386 -0.2317 0.1053
C77A C 0.79627(16) -0.13475(17) 0.22782(18)
H80A H 0.7725 -0.1120 0.2508
H81A H 0.7968 -0.1682 0.2493
C78A C 0.8453(2) -0.1151(2) 0.2303(3)
H82A H 0.8560 -0.1083 0.2739
H83A H 0.8457 -0.0832 0.2065
H84A H 0.8700 -0.1394 0.2123
C79A C 0.61312(18) 0.1811(2) 0.2590(2)
H85A H 0.6074 0.1475 0.2788
H86A H 0.5914 0.2059 0.2819
C80A C 0.6725(3) 0.1966(3) 0.2707(3)
H87A H 0.6797 0.1953 0.3159
H88A H 0.6792 0.2311 0.2555
H89A H 0.6956 0.1724 0.2498
C81A C 0.5942(3) 0.2643(3) 0.1933(4)
H90A H 0.5782 0.2974 0.1829
H91A H 0.6275 0.2606 0.1716
H92A H 0.6012 0.2622 0.2385
C82A C 0.5576(4) 0.2234(3) 0.1737(5)
H93A H 0.5502 0.2235 0.1280
H94A H 0.5238 0.2248 0.1959
O5 O -0.04129(10) 0.07740(9) 0.16584(10)
O6 O 0.0000 -0.00089(13) 0.2500
O7 O 0.4156(2) -0.0267(2) 0.2974(3)
O8 O 0.5000 0.0207(5) 0.2500
C38? C -0.2002(3) 0.2743(3) 0.1222(3)
H38? H -0.1895 0.2928 0.0844
H39? H -0.2179 0.2990 0.1496
C39? C -0.2399(5) 0.2330(5) 0.1029(7)
H40? H -0.2689 0.2481 0.0777
H41? H -0.2541 0.2172 0.1403
H42? H -0.2221 0.2070 0.0782
C40? C -0.1478(3) 0.2715(3) 0.2308(3)
H43? H -0.1831 0.2640 0.2475
H44? H -0.1223 0.2480 0.2518
C41? C -0.1287(4) 0.3237(4) 0.2464(4)
H45? H -0.1290 0.3287 0.2918
H46? H -0.1521 0.3488 0.2258
H47? H -0.0926 0.3280 0.2320
C42? C 0.2483(3) 0.0673(3) 0.1712(4)
H48? H 0.2639 0.0395 0.1971
H49? H 0.2502 0.0577 0.1266
C43? C 0.2781(5) 0.1190(4) 0.1843(6)
H50? H 0.3159 0.1147 0.1763
H51? H 0.2739 0.1289 0.2279
H52? H 0.2633 0.1455 0.1568
C44? C 0.1824(4) 0.0904(3) 0.2686(3)
H53? H 0.2175 0.0965 0.2894
H54? H 0.1558 0.1159 0.2810
C45? C 0.1629(6) 0.0333(4) 0.2692(5)
H55? H 0.1530 0.0240 0.3115
H56? H 0.1916 0.0109 0.2559
H57? H 0.1322 0.0295 0.2405
C83? C 0.2127(3) -0.1925(3) 0.3946(3)
H95? H 0.2226 -0.1842 0.4386
H96? H 0.1740 -0.1984 0.3917
C84? C 0.2411(5) -0.2391(4) 0.3753(6)
H97? H 0.2317 -0.2675 0.4025
H98? H 0.2794 -0.2332 0.3787
H99? H 0.2309 -0.2474 0.3320
C85? C 0.2264(3) -0.1512(3) 0.2926(3)
H100? H 0.2501 -0.1285 0.2694
H101? H 0.2263 -0.1849 0.2720
C86? C 0.1631(9) -0.1480(7) 0.2912(10)
H102? H 0.1495 -0.1511 0.2480
H103? H 0.1522 -0.1152 0.3084
H104? H 0.1490 -0.1758 0.3163
C87? C 0.4300(3) 0.1544(3) 0.2396(3)
H105? H 0.3986 0.1370 0.2208
H106? H 0.4358 0.1857 0.2149
C88? C 0.4776(3) 0.1227(3) 0.2490(5)
H107? H 0.5087 0.1433 0.2395
H108? H 0.4704 0.0986 0.2148
H109? H 0.4845 0.1039 0.2879
C89? C 0.4340(2) 0.22739(17) 0.3295(3)
H110? H 0.4533 0.2196 0.3693
H111? H 0.4607 0.2379 0.2992
C90? C 0.3994(3) 0.2710(3) 0.3401(4)
H112? H 0.4207 0.2998 0.3555
H113? H 0.3733 0.2619 0.3711
H114? H 0.3810 0.2804 0.3008
loop_
_geom_bond_atom_site_label_1
_geom_bond_atom_site_label_2
_geom_bond_site_symmetry_1
_geom_bond_site_symmetry_2
N1 C2 1_555 1_555
N2 C8 1_555 1_555
N3 C8 1_555 1_555
N4 C28 1_555 1_555
N5 C21 1_555 1_555
O1 C23 1_555 1_555
O2 C10 1_555 1_555
C1 H1 1_555 1_555
H2 C1 1_555 1_555
H3 C1 1_555 1_555
C2 C1 1_555 1_555
C3 C2 1_555 1_555
H4 C3 1_555 1_555
C4 C3 1_555 1_555
H5 C4 1_555 1_555
C5 C4 1_555 1_555
C6 C5 1_555 1_555
H6 C6 1_555 1_555
C7 C6 1_555 1_555
H7 C7 1_555 1_555
C8 C7 1_555 1_555
C9 N1 1_555 1_555
C10 N3 1_555 1_555
C11 C10 1_555 1_555
C12 C11 1_555 1_555
H8 C12 1_555 1_555
C13 C12 1_555 1_555
H9 C13 1_555 1_555
C14 C13 1_555 1_555
H10 C14 1_555 1_555
C15 C14 1_555 1_555
H11 C15 1_555 1_555
C16 C11 1_555 1_555
C17 N3 1_555 1_555
C18 C17 1_555 1_555
C19 C18 1_555 1_555
H12 C19 1_555 1_555
C20 C19 1_555 1_555
H13 C20 1_555 1_555
C21 C20 1_555 1_555
C22 C21 1_555 1_555
H14 C22 1_555 1_555
C23 C18 1_555 1_555
C24 O1 1_555 1_555
C25 C17 1_555 1_555
C26 C25 1_555 1_555
H15 C26 1_555 1_555
C27 C26 1_555 1_555
H16 C27 1_555 1_555
C28 C27 1_555 1_555
C29 C24 1_555 1_555
H17 C29 1_555 1_555
C30 N4 1_555 1_555
H18 C30 1_555 1_555
H19 C30 1_555 1_555
C31 C30 1_555 1_555
H20 C31 1_555 1_555
H21 C31 1_555 1_555
H22 C31 1_555 1_555
C32 N4 1_555 1_555
H23 C32 1_555 1_555
H24 C32 1_555 1_555
C33 C32 1_555 1_555
H25 C33 1_555 1_555
H26 C33 1_555 1_555
H27 C33 1_555 1_555
C34 N5 1_555 1_555
H28 C34 1_555 1_555
H29 C34 1_555 1_555
C35 C34 1_555 1_555
H30 C35 1_555 1_555
H31 C35 1_555 1_555
H32 C35 1_555 1_555
C36 N5 1_555 1_555
H33 C36 1_555 1_555
H34 C36 1_555 1_555
C37 C36 1_555 1_555
H35 C37 1_555 1_555
H36 C37 1_555 1_555
H37 C37 1_555 1_555
N6 C47 1_555 1_555
N7 C53 1_555 1_555
N8 C53 1_555 1_555
N9 C66 1_555 1_555
N10 C73 1_555 1_555
O3 C68 1_555 1_555
O4 C55 1_555 1_555
C46 H58 1_555 1_555
H59 C46 1_555 1_555
H60 C46 1_555 1_555
C47 C46 1_555 1_555
C48 C47 1_555 1_555
H61 C48 1_555 1_555
C49 C48 1_555 1_555
H62 C49 1_555 1_555
C50 C49 1_555 1_555
C51 C50 1_555 1_555
H63 C51 1_555 1_555
C52 C51 1_555 1_555
H64 C52 1_555 1_555
C53 C52 1_555 1_555
C54 N6 1_555 1_555
C55 N8 1_555 1_555
C56 C55 1_555 1_555
C57 C56 1_555 1_555
H65 C57 1_555 1_555
C58 C57 1_555 1_555
H66 C58 1_555 1_555
C59 C58 1_555 1_555
H67 C59 1_555 1_555
C60 C59 1_555 1_555
H68 C60 1_555 1_555
C61 C56 1_555 1_555
C62 N8 1_555 1_555
C63 C62 1_555 1_555
C64 C63 1_555 1_555
H69 C64 1_555 1_555
C65 C64 1_555 1_555
H70 C65 1_555 1_555
C66 C65 1_555 1_555
C67 C66 1_555 1_555
H71 C67 1_555 1_555
C68 C63 1_555 1_555
C69 O3 1_555 1_555
C70 C62 1_555 1_555
C71 C70 1_555 1_555
H72 C71 1_555 1_555
C72 C71 1_555 1_555
H73 C72 1_555 1_555
C73 C72 1_555 1_555
C74 C69 1_555 1_555
H74 C74 1_555 1_555
C75 N10 1_555 1_555
H75 C75 1_555 1_555
H76 C75 1_555 1_555
C76 C75 1_555 1_555
H77 C76 1_555 1_555
H78 C76 1_555 1_555
H79 C76 1_555 1_555
C77 N10 1_555 1_555
H80 C77 1_555 1_555
H81 C77 1_555 1_555
C78 C77 1_555 1_555
H82 C78 1_555 1_555
H83 C78 1_555 1_555
H84 C78 1_555 1_555
C79 N9 1_555 1_555
H85 C79 1_555 1_555
H86 C79 1_555 1_555
C80 C79 1_555 1_555
H87 C80 1_555 1_555
H88 C80 1_555 1_555
H89 C80 1_555 1_555
C81 H90 1_555 1_555
H91 C81 1_555 1_555
H92 C81 1_555 1_555
C82 N9 1_555 1_555
H93 C82 1_555 1_555
H94 C82 1_555 1_555
N6A C47A 1_555 1_555
N7A C53A 1_555 1_555
N8A C53A 1_555 1_555
N9A C66A 1_555 1_555
N10A C73A 1_555 1_555
O3A C68A 1_555 1_555
O4A C55A 1_555 1_555
C46A H58A 1_555 1_555
H59A C46A 1_555 1_555
H60A C46A 1_555 1_555
C47A C46A 1_555 1_555
C48A C47A 1_555 1_555
H61A C48A 1_555 1_555
C49A C48A 1_555 1_555
H62A C49A 1_555 1_555
C50A C49A 1_555 1_555
C51A C50A 1_555 1_555
H63A C51A 1_555 1_555
C52A C51A 1_555 1_555
H64A C52A 1_555 1_555
C53A C52A 1_555 1_555
C54A N6A 1_555 1_555
C55A N8A 1_555 1_555
C56A C55A 1_555 1_555
C57A C56A 1_555 1_555
H65A C57A 1_555 1_555
C58A C57A 1_555 1_555
H66A C58A 1_555 1_555
C59A C58A 1_555 1_555
H67A C59A 1_555 1_555
C60A C59A 1_555 1_555
H68A C60A 1_555 1_555
C61A C56A 1_555 1_555
C62A N8A 1_555 1_555
C63A C62A 1_555 1_555
C64A C63A 1_555 1_555
H69A C64A 1_555 1_555
C65A C64A 1_555 1_555
H70A C65A 1_555 1_555
C66A C65A 1_555 1_555
C67A C66A 1_555 1_555
H71A C67A 1_555 1_555
C68A C63A 1_555 1_555
C69A O3A 1_555 1_555
C70A C62A 1_555 1_555
C71A C70A 1_555 1_555
H72A C71A 1_555 1_555
C72A C71A 1_555 1_555
H73A C72A 1_555 1_555
C73A C72A 1_555 1_555
C74A C69A 1_555 1_555
H74A C74A 1_555 1_555
C75A N10A 1_555 1_555
H75A C75A 1_555 1_555
H76A C75A 1_555 1_555
C76A C75A 1_555 1_555
H77A C76A 1_555 1_555
H78A C76A 1_555 1_555
H79A C76A 1_555 1_555
C77A N10A 1_555 1_555
H80A C77A 1_555 1_555
H81A C77A 1_555 1_555
C78A C77A 1_555 1_555
H82A C78A 1_555 1_555
H83A C78A 1_555 1_555
H84A C78A 1_555 1_555
C79A N9A 1_555 1_555
H85A C79A 1_555 1_555
H86A C79A 1_555 1_555
C80A C79A 1_555 1_555
H87A C80A 1_555 1_555
H88A C80A 1_555 1_555
H89A C80A 1_555 1_555
C81A H90A 1_555 1_555
H91A C81A 1_555 1_555
H92A C81A 1_555 1_555
C82A N9A 1_555 1_555
H93A C82A 1_555 1_555
H94A C82A 1_555 1_555
N2 C9 1_555 1_555
C5 C9 1_555 1_555
C15 C16 1_555 1_555
C16 C17 1_555 1_555
C22 C23 1_555 1_555
C24 C25 1_555 1_555
C28 C29 1_555 1_555
N7 C54 1_555 1_555
C50 C54 1_555 1_555
C60 C61 1_555 1_555
C61 C62 1_555 1_555
C67 C68 1_555 1_555
C69 C70 1_555 1_555
C73 C74 1_555 1_555
C81 C82 1_555 1_555
N7A C54A 1_555 1_555
C50A C54A 1_555 1_555
C60A C61A 1_555 1_555
C61A C62A 1_555 1_555
C67A C68A 1_555 1_555
C69A C70A 1_555 1_555
C73A C74A 1_555 1_555
C81A C82A 1_555 1_555

#END
