
#######################################################################
#
#                 Cambridge Crystallographic Data Centre
#                                CCDC 
#
#######################################################################
#
# If this CIF has been generated from an entry in the Cambridge 
# Structural Database, then it will include bibliographic, chemical, 
# crystal, experimental, refinement or atomic coordinate data resulting 
# from the CCDC's data processing and validation procedures.
#
#######################################################################

data_CINXII
_chemical_formula_moiety         'C20 H23 Br1 N2 O6'
_chemical_name_systematic        
't-Butyl (6-bromo-3-(2-ethoxy-4-oxo-4,5-dihydrofuran-3-yl)-1-methyl-2-oxo-2,3-dihydro-1H-indol-3-yl)carbamate'
_symmetry_cell_setting           orthorhombic
_symmetry_space_group_name_H-M   'P 21 21 21'
_symmetry_Int_Tables_number      19
_space_group_name_Hall           'P 2ac 2ab'
loop_
_symmetry_equiv_pos_site_id
_symmetry_equiv_pos_as_xyz
1 x,y,z
2 1/2-x,-y,1/2+z
3 -x,1/2+y,1/2-z
4 1/2+x,1/2-y,-z
_cell_length_a                   7.1152(5)
_cell_length_b                   9.4563(7)
_cell_length_c                   32.395(3)
_cell_angle_alpha                90
_cell_angle_beta                 90
_cell_angle_gamma                90
_cell_volume                     2179.65
_exptl_crystal_colour            colorless
_exptl_crystal_description       prismatic
_cell_formula_units_Z            4
loop_
_atom_site_label
_atom_site_type_symbol
_atom_site_fract_x
_atom_site_fract_y
_atom_site_fract_z
Br1 Br 0.46862(11) 0.38686(9) -0.041209(17)
N1 N 0.0722(5) 0.5402(3) 0.09069(10)
N2 N 0.2514(6) 0.3279(3) 0.16807(11)
O1 O -0.0274(5) 0.5632(3) 0.15746(10)
O2 O 0.4981(5) 0.4291(3) 0.22657(9)
O3 O 0.5684(4) 0.7551(3) 0.17644(9)
O4 O 0.4040(5) 0.7410(3) 0.11729(10)
O5 O 0.0147(5) 0.2360(3) 0.13051(8)
O6 O 0.1063(5) 0.1423(3) 0.19207(9)
C1 C 0.2234(6) 0.4796(4) 0.07032(12)
C2 C 0.2562(8) 0.4712(5) 0.02873(13)
H1 H 0.1722 0.5093 0.0098
C3 C 0.4166(8) 0.4047(6) 0.01610(14)
C4 C 0.5403(8) 0.3455(5) 0.04289(17)
H2 H 0.6473 0.3003 0.0330
C5 C 0.5070(7) 0.3524(4) 0.08540(14)
H3 H 0.5911 0.3130 0.1041
C6 C 0.3458(6) 0.4192(3) 0.09875(11)
C7 C 0.0859(6) 0.5242(4) 0.13247(13)
C8 C 0.2763(6) 0.4505(4) 0.14177(11)
C9 C 0.4051(6) 0.5510(4) 0.16503(11)
C10 C 0.4977(6) 0.5305(4) 0.20316(11)
C11 C 0.6073(6) 0.6644(4) 0.21133(13)
H4 H 0.5663 0.7084 0.2368
H5 H 0.7407 0.6445 0.2133
C12 C 0.4546(6) 0.6825(4) 0.15198(12)
C13 C 0.4751(9) 0.8806(5) 0.1072(2)
H6 H 0.4210 0.9507 0.1255
H7 H 0.6107 0.8830 0.1102
C14 C 0.4238(12) 0.9104(8) 0.0652(3)
H8 H 0.4718 0.8373 0.0475
H9 H 0.4759 0.9998 0.0571
H10 H 0.2894 0.9139 0.0629
C15 C 0.1137(6) 0.2342(4) 0.16058(12)
C16 C -0.0408(7) 0.0333(4) 0.19358(13)
C17 C -0.0030(10) -0.0381(6) 0.23439(17)
H11 H 0.1221 -0.0761 0.2344
H12 H -0.0918 -0.1133 0.2384
H13 H -0.0153 0.0296 0.2563
C18 C -0.2326(8) 0.1001(6) 0.19327(19)
H14 H -0.2328 0.1813 0.2111
H15 H -0.3238 0.0329 0.2029
H16 H -0.2637 0.1287 0.1657
C19 C -0.0133(8) -0.0682(5) 0.15821(17)
H17 H -0.0500 -0.0235 0.1329
H18 H -0.0890 -0.1509 0.1626
H19 H 0.1167 -0.0951 0.1566
C20 C -0.0846(7) 0.6116(6) 0.07140(19)
H20 H -0.1840 0.6231 0.0912
H21 H -0.1291 0.5563 0.0486
H22 H -0.0448 0.7027 0.0617
H23 H 0.290(7) 0.325(5) 0.1914(15)
loop_
_geom_bond_atom_site_label_1
_geom_bond_atom_site_label_2
_geom_bond_site_symmetry_1
_geom_bond_site_symmetry_2
Br1 C3 1_555 1_555
N1 C1 1_555 1_555
N2 C8 1_555 1_555
O1 C7 1_555 1_555
O2 C10 1_555 1_555
O3 C11 1_555 1_555
O4 C12 1_555 1_555
O5 C15 1_555 1_555
O6 C15 1_555 1_555
C1 C2 1_555 1_555
C2 H1 1_555 1_555
C3 C2 1_555 1_555
C4 C3 1_555 1_555
H2 C4 1_555 1_555
C5 C4 1_555 1_555
H3 C5 1_555 1_555
C6 C1 1_555 1_555
C7 N1 1_555 1_555
C8 C6 1_555 1_555
C9 C8 1_555 1_555
C10 C9 1_555 1_555
C11 C10 1_555 1_555
H4 C11 1_555 1_555
H5 C11 1_555 1_555
C12 O3 1_555 1_555
C13 O4 1_555 1_555
H6 C13 1_555 1_555
H7 C13 1_555 1_555
C14 C13 1_555 1_555
H8 C14 1_555 1_555
H9 C14 1_555 1_555
H10 C14 1_555 1_555
C15 N2 1_555 1_555
C16 O6 1_555 1_555
C17 C16 1_555 1_555
H11 C17 1_555 1_555
H12 C17 1_555 1_555
H13 C17 1_555 1_555
C18 C16 1_555 1_555
H14 C18 1_555 1_555
H15 C18 1_555 1_555
H16 C18 1_555 1_555
C19 C16 1_555 1_555
H17 C19 1_555 1_555
H18 C19 1_555 1_555
H19 C19 1_555 1_555
C20 N1 1_555 1_555
H20 C20 1_555 1_555
H21 C20 1_555 1_555
H22 C20 1_555 1_555
H23 N2 1_555 1_555
C5 C6 1_555 1_555
C7 C8 1_555 1_555
C9 C12 1_555 1_555

#END
