
#######################################################################
#
#                 Cambridge Crystallographic Data Centre
#                                CCDC 
#
#######################################################################
#
# If this CIF has been generated from an entry in the Cambridge 
# Structural Database, then it will include bibliographic, chemical, 
# crystal, experimental, refinement or atomic coordinate data resulting 
# from the CCDC's data processing and validation procedures.
#
#######################################################################

data_CIPPAT01
_chemical_formula_moiety         'C26 H22 B1 N1 O3'
_chemical_name_systematic        
2,6-bis(5-Methyl-2-hydroxyphenyl)pyridyl-(4-methoxyphenyl)borane
_symmetry_cell_setting           monoclinic
_symmetry_space_group_name_H-M   'P 21/c'
_symmetry_Int_Tables_number      14
_space_group_name_Hall           '-P 2ybc'
loop_
_symmetry_equiv_pos_site_id
_symmetry_equiv_pos_as_xyz
1 x,y,z
2 -x,1/2+y,1/2-z
3 -x,-y,-z
4 x,1/2-y,1/2+z
_cell_length_a                   13.100(3)
_cell_length_b                   8.6206(17)
_cell_length_c                   18.923(4)
_cell_angle_alpha                90
_cell_angle_beta                 106.70(3)
_cell_angle_gamma                90
_cell_volume                     2046.84
_exptl_crystal_colour            yellow
_exptl_crystal_description       block
_cell_formula_units_Z            4
_exptl_crystal_recrystallization_method 'diethyl ether/pyridine'
_exptl_crystal_preparation       photoluminescent
loop_
_atom_site_label
_atom_site_type_symbol
_atom_site_fract_x
_atom_site_fract_y
_atom_site_fract_z
B1 B 0.11013(19) 0.7138(3) 0.07785(13)
O1 O 0.14825(11) 0.68389(16) 0.01386(7)
O2 O 0.01965(11) 0.81605(16) 0.05084(8)
O3 O 0.44240(12) 0.9696(2) 0.32334(8)
N1 N 0.06886(13) 0.55239(19) 0.10196(8)
C1 C 0.21576(16) 0.5633(2) 0.01895(10)
C2 C 0.29019(19) 0.5684(3) -0.02048(12)
H1 H 0.2938(17) 0.661(3) -0.0478(12)
C3 C 0.3594(2) 0.4455(3) -0.01729(13)
H2 H 0.4115(18) 0.458(3) -0.0459(13)
C4 C 0.35714(18) 0.3162(3) 0.02530(13)
C5 C 0.28168(19) 0.3117(3) 0.06391(13)
H3 H 0.2808(15) 0.220(2) 0.0929(11)
C6 C 0.20897(16) 0.4322(2) 0.06131(11)
C7 C 0.12404(16) 0.4200(2) 0.09733(11)
C8 C 0.09638(19) 0.2826(3) 0.12525(12)
H4 H 0.1339(17) 0.187(2) 0.1208(12)
C9 C 0.01610(19) 0.2836(3) 0.15936(12)
H5 H -0.0028(16) 0.189(2) 0.1812(11)
C10 C -0.03907(19) 0.4169(3) 0.16261(12)
H6 H -0.0959(17) 0.413(2) 0.1841(11)
C11 C -0.01426(16) 0.5530(2) 0.13227(11)
C12 C -0.07347(16) 0.6989(2) 0.12923(11)
C13 C -0.15549(18) 0.7133(3) 0.16308(13)
H7 H -0.1708(15) 0.625(2) 0.1939(11)
C14 C -0.21794(19) 0.8448(3) 0.15564(14)
C15 C -0.1980(2) 0.9645(3) 0.11206(15)
H8 H -0.2406(17) 1.058(2) 0.1066(11)
C16 C -0.1191(2) 0.9551(3) 0.07776(14)
H9 H -0.1054(17) 1.033(3) 0.0503(12)
C17 C -0.05562(16) 0.8227(3) 0.08672(11)
C18 C 0.20231(16) 0.7814(2) 0.14681(11)
C19 C 0.21319(19) 0.7495(3) 0.22081(12)
H10 H 0.1613(16) 0.679(2) 0.2339(11)
C20 C 0.29249(19) 0.8141(3) 0.27761(13)
H11 H 0.2986(18) 0.790(3) 0.3281(13)
C21 C 0.36619(16) 0.9137(3) 0.26315(12)
C22 C 0.35939(18) 0.9486(3) 0.19115(12)
H12 H 0.4131(17) 1.015(3) 0.1801(12)
C23 C 0.27838(19) 0.8822(3) 0.13494(13)
H13 H 0.2753(15) 0.909(2) 0.0848(11)
C24 C 0.5258(2) 1.0618(4) 0.31113(19)
H14 H 0.496(2) 1.156(3) 0.2784(14)
H15 H 0.568(2) 1.091(3) 0.3596(16)
H16 H 0.564(2) 1.001(3) 0.2817(15)
C25 C 0.4353(3) 0.1854(4) 0.0306(2)
H17 H 0.411(2) 0.084(4) 0.0308(17)
H18 H 0.466(3) 0.184(4) -0.009(2)
C26 C -0.3055(3) 0.8559(5) 0.1927(3)
H19 H -0.369(3) 0.857(4) 0.163(2)
H20 H -0.305(3) 0.782(4) 0.228(2)
H21 H -0.318(4) 0.960(6) 0.207(3)
H22 H 0.495(3) 0.191(4) 0.075(2)
loop_
_geom_bond_atom_site_label_1
_geom_bond_atom_site_label_2
_geom_bond_site_symmetry_1
_geom_bond_site_symmetry_2
B1 O1 1_555 1_555
O1 C1 1_555 1_555
O2 B1 1_555 1_555
O3 C21 1_555 1_555
N1 B1 1_555 1_555
C1 C2 1_555 1_555
C2 H1 1_555 1_555
C3 C2 1_555 1_555
H2 C3 1_555 1_555
C4 C3 1_555 1_555
C5 C4 1_555 1_555
H3 C5 1_555 1_555
C6 C1 1_555 1_555
C7 N1 1_555 1_555
C8 C7 1_555 1_555
H4 C8 1_555 1_555
C9 C8 1_555 1_555
H5 C9 1_555 1_555
C10 C9 1_555 1_555
H6 C10 1_555 1_555
C11 N1 1_555 1_555
C12 C11 1_555 1_555
C13 C12 1_555 1_555
H7 C13 1_555 1_555
C14 C13 1_555 1_555
C15 C14 1_555 1_555
H8 C15 1_555 1_555
C16 C15 1_555 1_555
H9 C16 1_555 1_555
C17 O2 1_555 1_555
C18 B1 1_555 1_555
C19 C18 1_555 1_555
H10 C19 1_555 1_555
C20 C19 1_555 1_555
H11 C20 1_555 1_555
C21 C20 1_555 1_555
C22 C21 1_555 1_555
H12 C22 1_555 1_555
C23 C18 1_555 1_555
H13 C23 1_555 1_555
C24 O3 1_555 1_555
H14 C24 1_555 1_555
H15 C24 1_555 1_555
H16 C24 1_555 1_555
C25 C4 1_555 1_555
H17 C25 1_555 1_555
H18 C25 1_555 1_555
C26 C14 1_555 1_555
H19 C26 1_555 1_555
H20 C26 1_555 1_555
H21 C26 1_555 1_555
H22 C25 1_555 1_555
C5 C6 1_555 1_555
C6 C7 1_555 1_555
C10 C11 1_555 1_555
C12 C17 1_555 1_555
C16 C17 1_555 1_555
C22 C23 1_555 1_555

#END
