
#######################################################################
#
#                 Cambridge Crystallographic Data Centre
#                                CCDC 
#
#######################################################################
#
# If this CIF has been generated from an entry in the Cambridge 
# Structural Database, then it will include bibliographic, chemical, 
# crystal, experimental, refinement or atomic coordinate data resulting 
# from the CCDC's data processing and validation procedures.
#
#######################################################################

data_CIPXUV
_chemical_formula_moiety         'C18 H22 N6 O6,C2 H4 Cl2'
_chemical_name_systematic        
'Diethyl 1,4-dioxo-6-(3-pyridylmethyl)-perhydro-2,3,4a,6,7a-pentaazacyclopenta(cd)indene-2a,7b-dicarboxylate 1,2-dichloroethane solvate'
_symmetry_cell_setting           monoclinic
_symmetry_space_group_name_H-M   'P 21/c'
_symmetry_Int_Tables_number      14
_space_group_name_Hall           '-P 2ybc'
loop_
_symmetry_equiv_pos_site_id
_symmetry_equiv_pos_as_xyz
1 x,y,z
2 -x,1/2+y,1/2-z
3 -x,-y,-z
4 x,1/2-y,1/2+z
_cell_length_a                   12.9023(9)
_cell_length_b                   16.4032(11)
_cell_length_c                   12.1719(8)
_cell_angle_alpha                90
_cell_angle_beta                 114.6570(10)
_cell_angle_gamma                90
_cell_volume                     2341.17
_exptl_crystal_colour            colorless
_exptl_crystal_description       block
_cell_formula_units_Z            4
_exptl_crystal_recrystallization_method 1,2-dichloroethane/methanol
loop_
_atom_site_label
_atom_site_type_symbol
_atom_site_fract_x
_atom_site_fract_y
_atom_site_fract_z
C1 C 0.4234(19) 0.4751(19) 0.346(3)
H1 H 0.4754 0.4958 0.4241
H2 H 0.4679 0.4570 0.3028
C23 C 0.348(2) 0.5359(12) 0.281(2)
H33 H 0.3948 0.5781 0.2682
H34 H 0.3185 0.5588 0.3352
Cl1 Cl 0.3467(12) 0.3958(6) 0.3638(8)
Cl2 Cl 0.2351(10) 0.5258(4) 0.1477(5)
C2 C 0.5988(3) 0.24533(17) 0.1119(3)
H3 H 0.5250 0.2406 0.0438
H4 H 0.6482 0.2039 0.1028
C3 C 0.6934(3) 0.24312(19) 0.3264(3)
H5 H 0.7476 0.2025 0.3252
H6 H 0.6830 0.2356 0.4002
C4 C 0.5798(3) 0.39281(18) 0.0564(3)
C5 C 0.7221(3) 0.3900(2) 0.3877(3)
C6 C 0.7473(3) 0.35055(18) 0.2168(3)
C7 C 0.8552(3) 0.3164(2) 0.2086(3)
C8 C 0.9642(4) 0.3216(4) 0.0915(5)
H7 H 0.9511 0.2693 0.0508
H8 H 1.0312 0.3174 0.1676
C9 C 0.9803(9) 0.3879(6) 0.0128(10)
H11 H 0.9284 0.3790 -0.0699
H12 H 1.0572 0.3863 0.0199
H13 H 0.9656 0.4402 0.0388
C11 C 0.7366(3) 0.44625(18) 0.2187(3)
C12 C 0.8353(3) 0.4977(2) 0.2176(3)
C13 C 1.0337(10) 0.5246(6) 0.3268(11)
H17 H 1.0406 0.5275 0.2506
H18 H 1.1006 0.4970 0.3850
C14 C 1.0264(11) 0.6081(6) 0.3702(13)
H19 H 0.9529 0.6309 0.3216
H21 H 1.0368 0.6056 0.4530
C17 C 0.4906(3) 0.2760(2) 0.2311(3)
H27 H 0.4957 0.3327 0.2112
H28 H 0.4967 0.2738 0.3132
C18 C 0.3768(3) 0.24205(19) 0.1459(3)
C19 C 0.2997(3) 0.2838(2) 0.0490(3)
H29 H 0.3170 0.3358 0.0311
C20 C 0.1963(3) 0.2484(2) -0.0223(4)
H30 H 0.1429 0.2764 -0.0880
C21 C 0.1738(3) 0.1718(2) 0.0053(4)
H31 H 0.1040 0.1484 -0.0432
C22 C 0.3455(3) 0.1646(2) 0.1670(3)
H32 H 0.3966 0.1359 0.2334
N1 N 0.2469(3) 0.12886(18) 0.0982(3)
N2 N 0.5853(2) 0.23011(15) 0.2236(2)
N3 N 0.6469(2) 0.32622(14) 0.1092(2)
N4 N 0.7410(2) 0.32533(14) 0.3273(2)
N5 N 0.6352(2) 0.46129(16) 0.1113(3)
H39 H 0.6118 0.5094 0.0844
N6 N 0.7249(2) 0.45955(16) 0.3290(2)
H40 H 0.7201 0.5073 0.3556
O1 O 0.4855(2) 0.38855(13) -0.0294(2)
O2 O 0.7055(3) 0.38493(16) 0.4792(2)
O3 O 0.9188(2) 0.26940(19) 0.2803(3)
O4 O 0.8647(2) 0.34583(18) 0.1125(2)
O5 O 0.8239(3) 0.54950(18) 0.1454(3)
O6 O 0.9320(2) 0.47937(16) 0.3110(3)
H9? H 0.9487 0.3301 0.0072
H10? H 0.9793 0.2641 0.1092
C10? C 1.0650(19) 0.3728(16) 0.146(3)
H14? H 1.0879 0.3756 0.2317
H15? H 1.0479 0.4266 0.1121
H16? H 1.1258 0.3499 0.1299
H20? H 1.0847 0.6416 0.3641
C15? C 1.019(4) 0.543(2) 0.333(3)
H22? H 1.0947 0.5202 0.3755
H23? H 1.0094 0.5860 0.3833
C16? C 1.006(3) 0.5791(19) 0.211(3)
H24? H 0.9722 0.5391 0.1486
H25? H 1.0799 0.5938 0.2157
H26? H 0.9584 0.6265 0.1927
C24? C 0.353(2) 0.4923(11) 0.3537(19)
H35? H 0.2866 0.5249 0.3050
H36? H 0.3791 0.5102 0.4370
C25? C 0.4474(14) 0.5059(9) 0.3103(15)
H37? H 0.5008 0.4608 0.3308
H38? H 0.4881 0.5567 0.3397
Cl3? Cl 0.3153(13) 0.3950(6) 0.3439(13)
Cl4? Cl 0.3591(9) 0.5093(2) 0.1587(5)
loop_
_geom_bond_atom_site_label_1
_geom_bond_atom_site_label_2
_geom_bond_site_symmetry_1
_geom_bond_site_symmetry_2
C1 H1 1_555 1_555
H2 C1 1_555 1_555
C2 H3 1_555 1_555
H4 C2 1_555 1_555
C3 H5 1_555 1_555
H6 C3 1_555 1_555
C4 N3 1_555 1_555
C5 N4 1_555 1_555
C6 C7 1_555 1_555
C7 O3 1_555 1_555
C8 H7 1_555 1_555
H8 C8 1_555 1_555
C9 C8 1_555 1_555
H11 C9 1_555 1_555
H12 C9 1_555 1_555
H13 C9 1_555 1_555
C11 C6 1_555 1_555
C12 C11 1_555 1_555
C13 H17 1_555 1_555
H18 C13 1_555 1_555
C14 C13 1_555 1_555
H19 C14 1_555 1_555
H21 C14 1_555 1_555
C17 H27 1_555 1_555
H28 C17 1_555 1_555
C18 C17 1_555 1_555
C19 C18 1_555 1_555
H29 C19 1_555 1_555
C20 C19 1_555 1_555
H30 C20 1_555 1_555
C21 C20 1_555 1_555
H31 C21 1_555 1_555
C22 C18 1_555 1_555
H32 C22 1_555 1_555
C23 C1 1_555 1_555
H33 C23 1_555 1_555
H34 C23 1_555 1_555
Cl1 C1 1_555 1_555
Cl2 C23 1_555 1_555
N1 C21 1_555 1_555
N2 C2 1_555 1_555
N3 C2 1_555 1_555
N4 C3 1_555 1_555
N5 C4 1_555 1_555
H39 N5 1_555 1_555
N6 C5 1_555 1_555
H40 N6 1_555 1_555
O1 C4 1_555 1_555
O2 C5 1_555 1_555
O4 C7 1_555 1_555
O5 C12 1_555 1_555
O6 C12 1_555 1_555
C3 N2 1_555 1_555
C6 N3 1_555 1_555
C6 N4 1_555 1_555
C8 O4 1_555 1_555
C11 N5 1_555 1_555
C11 N6 1_555 1_555
C13 O6 1_555 1_555
C17 N2 1_555 1_555
C22 N1 1_555 1_555

#END
