
#######################################################################
#
#                 Cambridge Crystallographic Data Centre
#                                CCDC 
#
#######################################################################
#
# If this CIF has been generated from an entry in the Cambridge 
# Structural Database, then it will include bibliographic, chemical, 
# crystal, experimental, refinement or atomic coordinate data resulting 
# from the CCDC's data processing and validation procedures.
#
#######################################################################

data_CIPZEH
_chemical_formula_moiety         'C15 H10 Br2 Cl1 N3 O1'
_chemical_name_systematic        
3-(Benzotriazol-1-yl)-2,2-dibromo-1-(2-chlorophenyl)propan-1-one
_symmetry_cell_setting           triclinic
_symmetry_space_group_name_H-M   'P -1'
_symmetry_Int_Tables_number      2
_space_group_name_Hall           '-P 1'
loop_
_symmetry_equiv_pos_site_id
_symmetry_equiv_pos_as_xyz
1 x,y,z
2 -x,-y,-z
_cell_length_a                   7.7509(18)
_cell_length_b                   9.182(2)
_cell_length_c                   12.563(3)
_cell_angle_alpha                73.058(3)
_cell_angle_beta                 76.442(3)
_cell_angle_gamma                71.700(3)
_cell_volume                     801.915
_exptl_crystal_colour            colorless
_exptl_crystal_description       plate
_cell_formula_units_Z            2
_exptl_crystal_recrystallization_method 'ethyl acetate'
loop_
_atom_site_label
_atom_site_type_symbol
_atom_site_fract_x
_atom_site_fract_y
_atom_site_fract_z
Br1 Br 0.10429(4) 0.39211(3) 0.34085(2)
Br2 Br 0.44143(4) 0.43973(3) 0.14942(2)
Cl1 Cl 0.34216(14) 0.86655(11) 0.01049(10)
N1 N 0.5040(3) 0.4005(3) 0.39885(19)
N2 N 0.6829(3) 0.3765(3) 0.3484(2)
N3 N 0.7793(3) 0.2462(3) 0.4054(2)
O1 O 0.0957(3) 0.7883(3) 0.2727(2)
C1 C 0.4867(4) 0.2817(3) 0.4925(2)
C2 C 0.3399(4) 0.2528(4) 0.5773(3)
H1 H 0.2212 0.3188 0.5761
C3 C 0.3822(5) 0.1211(4) 0.6622(3)
H2 H 0.2884 0.0968 0.7200
C4 C 0.5594(5) 0.0216(4) 0.6660(3)
H3 H 0.5804 -0.0659 0.7263
C5 C 0.7018(5) 0.0493(4) 0.5840(3)
H4 H 0.8198 -0.0176 0.5864
C6 C 0.6638(4) 0.1829(3) 0.4955(3)
C7 C 0.3712(4) 0.5435(3) 0.3528(2)
H5 H 0.4347 0.6252 0.3163
H6 H 0.2812 0.5782 0.4146
C8 C 0.2698(3) 0.5274(3) 0.2683(2)
C9 C 0.1419(4) 0.6891(3) 0.2196(2)
C10 C 0.0762(4) 0.7164(3) 0.1099(2)
C11 C 0.1573(4) 0.7987(3) 0.0101(3)
C12 C 0.0944(6) 0.8256(4) -0.0910(3)
H7 H 0.1506 0.8800 -0.1578
C13 C -0.0504(7) 0.7714(5) -0.0909(4)
H8 H -0.0920 0.7881 -0.1582
C14 C -0.1343(6) 0.6934(5) 0.0063(4)
H9 H -0.2346 0.6593 0.0050
C15 C -0.0727(4) 0.6640(4) 0.1074(3)
H10 H -0.1306 0.6095 0.1735
loop_
_geom_bond_atom_site_label_1
_geom_bond_atom_site_label_2
_geom_bond_site_symmetry_1
_geom_bond_site_symmetry_2
Br1 C8 1_555 1_555
Br2 C8 1_555 1_555
Cl1 C11 1_555 1_555
N1 N2 1_555 1_555
N2 N3 1_555 1_555
N3 C6 1_555 1_555
O1 C9 1_555 1_555
C1 N1 1_555 1_555
C2 C1 1_555 1_555
H1 C2 1_555 1_555
C3 C2 1_555 1_555
H2 C3 1_555 1_555
C4 C3 1_555 1_555
H3 C4 1_555 1_555
C5 C4 1_555 1_555
H4 C5 1_555 1_555
C6 C1 1_555 1_555
C7 N1 1_555 1_555
H5 C7 1_555 1_555
H6 C7 1_555 1_555
C8 C7 1_555 1_555
C9 C8 1_555 1_555
C10 C9 1_555 1_555
C11 C10 1_555 1_555
C12 C11 1_555 1_555
H7 C12 1_555 1_555
C13 C12 1_555 1_555
H8 C13 1_555 1_555
C14 C13 1_555 1_555
H9 C14 1_555 1_555
C15 C10 1_555 1_555
H10 C15 1_555 1_555
C5 C6 1_555 1_555
C14 C15 1_555 1_555

#END
