
#######################################################################
#
#                 Cambridge Crystallographic Data Centre
#                                CCDC 
#
#######################################################################
#
# If this CIF has been generated from an entry in the Cambridge 
# Structural Database, then it will include bibliographic, chemical, 
# crystal, experimental, refinement or atomic coordinate data resulting 
# from the CCDC's data processing and validation procedures.
#
#######################################################################

data_CIQCOV
_chemical_formula_moiety         'C6 H3 O1 P1'
_chemical_name_systematic        'Triethynylphosphine oxide'
_symmetry_cell_setting           orthorhombic
_symmetry_space_group_name_H-M   'P n m a'
_symmetry_Int_Tables_number      62
_space_group_name_Hall           '-P 2ac 2n'
loop_
_symmetry_equiv_pos_site_id
_symmetry_equiv_pos_as_xyz
1 x,y,z
2 1/2-x,-y,1/2+z
3 -x,1/2+y,-z
4 1/2+x,1/2-y,1/2-z
5 -x,-y,-z
6 1/2+x,y,1/2-z
7 x,1/2-y,z
8 1/2-x,1/2+y,1/2+z
_cell_length_a                   6.8646(9)
_cell_length_b                   9.7823(13)
_cell_length_c                   9.3277(12)
_cell_angle_alpha                90
_cell_angle_beta                 90
_cell_angle_gamma                90
_cell_volume                     626.37
_exptl_crystal_colour            colorless
_exptl_crystal_description       block
_cell_formula_units_Z            4
_exptl_crystal_recrystallization_method 'ethyl acetate'
loop_
_atom_site_label
_atom_site_type_symbol
_atom_site_fract_x
_atom_site_fract_y
_atom_site_fract_z
P1 P 0.42049(6) 0.7500 0.53431(4)
O1 O 0.29767(18) 0.7500 0.40356(13)
C1 C 0.37974(17) 0.60900(12) 0.64477(12)
C2 C 0.8405(3) 0.7500 0.47595(18)
H1 H 0.9760 0.7500 0.4552
C3 C 0.6715(3) 0.7500 0.50180(18)
C4 C 0.33869(17) 0.51443(13) 0.71937(12)
H2 H 0.3060 0.4390 0.7788
C1F C 0.37974(17) 0.89100(12) 0.64477(12)
C4F C 0.33869(17) 0.98557(13) 0.71937(12)
H2F H 0.3060 1.0610 0.7788
loop_
_geom_bond_atom_site_label_1
_geom_bond_atom_site_label_2
_geom_bond_site_symmetry_1
_geom_bond_site_symmetry_2
P1 O1 1_555 1_555
C1 P1 1_555 1_555
C2 H1 1_555 1_555
C3 P1 1_555 1_555
C4 C1 1_555 1_555
H2 C4 1_555 1_555
C1F P1 1_555 1_555
C4F C1F 1_555 1_555
H2F C4F 1_555 1_555
C2 C3 1_555 1_555

#END
