
#######################################################################
#
#                 Cambridge Crystallographic Data Centre
#                                CCDC 
#
#######################################################################
#
# If this CIF has been generated from an entry in the Cambridge 
# Structural Database, then it will include bibliographic, chemical, 
# crystal, experimental, refinement or atomic coordinate data resulting 
# from the CCDC's data processing and validation procedures.
#
#######################################################################

data_CIQHAO
_chemical_formula_moiety         'C14 H9 N1 O3 Se1'
_chemical_name_systematic        
'4-(3-oxo-1,2-benzoselenazol-2(3H)-yl)benzoic acid'
_symmetry_cell_setting           monoclinic
_symmetry_space_group_name_H-M   'P 21/c'
_symmetry_Int_Tables_number      14
_space_group_name_Hall           '-P 2ybc'
loop_
_symmetry_equiv_pos_site_id
_symmetry_equiv_pos_as_xyz
1 x,y,z
2 -x,1/2+y,1/2-z
3 -x,-y,-z
4 x,1/2-y,1/2+z
_cell_length_a                   20.6413(6)
_cell_length_b                   5.00017(15)
_cell_length_c                   12.0461(3)
_cell_angle_alpha                90
_cell_angle_beta                 97.495(3)
_cell_angle_gamma                90
_cell_volume                     1232.66
_exptl_crystal_colour            colorless
_exptl_crystal_description       plate
_cell_formula_units_Z            4
loop_
_atom_site_label
_atom_site_type_symbol
_atom_site_fract_x
_atom_site_fract_y
_atom_site_fract_z
C1 C 0.40154(14) -0.4588(6) 0.5411(2)
H1 H 0.4058 -0.4160 0.4673
C2 C 0.44008(15) -0.6531(6) 0.5963(3)
H2 H 0.4703 -0.7442 0.5596
C3 C 0.43392(15) -0.7139(6) 0.7071(3)
H3 H 0.4605 -0.8454 0.7436
C4 C 0.38958(14) -0.5847(6) 0.7639(2)
H4 H 0.3861 -0.6263 0.8382
C5 C 0.35023(12) -0.3907(5) 0.7074(2)
C6 C 0.35583(13) -0.3260(5) 0.5968(2)
C7 C 0.31040(13) -0.1225(5) 0.5439(2)
C8 C 0.21919(13) 0.1598(5) 0.5929(2)
C9 C 0.21600(15) 0.3263(6) 0.5005(2)
H5 H 0.2474 0.3137 0.4519
C10 C 0.16605(16) 0.5114(6) 0.4807(3)
H6 H 0.1641 0.6229 0.4186
C11 C 0.11880(14) 0.5332(6) 0.5521(2)
C12 C 0.12186(17) 0.3673(7) 0.6441(3)
H7 H 0.0903 0.3796 0.6923
C13 C 0.17201(16) 0.1820(7) 0.6646(3)
H8 H 0.1740 0.0715 0.7271
C14 C 0.06559(16) 0.7346(7) 0.5276(3)
N1 N 0.27020(10) -0.0298(5) 0.61755(16)
O1 O 0.30883(10) -0.0473(4) 0.44681(14)
O2 O 0.06433(13) 0.8743(5) 0.4407(2)
O3 O 0.02480(13) 0.7553(6) 0.5973(3)
H9 H -0.012(2) 0.857(12) 0.583(5)
Se1 Se 0.28329(2) -0.19054(6) 0.76147(2)
loop_
_geom_bond_atom_site_label_1
_geom_bond_atom_site_label_2
_geom_bond_site_symmetry_1
_geom_bond_site_symmetry_2
C1 H1 1_555 1_555
C2 C1 1_555 1_555
H2 C2 1_555 1_555
C3 C2 1_555 1_555
H3 C3 1_555 1_555
C4 C3 1_555 1_555
H4 C4 1_555 1_555
C5 C4 1_555 1_555
C6 C1 1_555 1_555
C7 C6 1_555 1_555
C8 C9 1_555 1_555
C9 H5 1_555 1_555
C10 C9 1_555 1_555
H6 C10 1_555 1_555
C11 C10 1_555 1_555
C12 C11 1_555 1_555
H7 C12 1_555 1_555
C13 C8 1_555 1_555
H8 C13 1_555 1_555
C14 C11 1_555 1_555
N1 C7 1_555 1_555
O1 C7 1_555 1_555
O2 C14 1_555 1_555
O3 C14 1_555 1_555
H9 O3 1_555 1_555
Se1 C5 1_555 1_555
C5 C6 1_555 1_555
C8 N1 1_555 1_555
C12 C13 1_555 1_555
N1 Se1 1_555 1_555

#END
