
#######################################################################
#
#                 Cambridge Crystallographic Data Centre
#                                CCDC 
#
#######################################################################
#
# If this CIF has been generated from an entry in the Cambridge 
# Structural Database, then it will include bibliographic, chemical, 
# crystal, experimental, refinement or atomic coordinate data resulting 
# from the CCDC's data processing and validation procedures.
#
#######################################################################

data_CIQJIW
_chemical_formula_moiety         'C19 H22 Br1 N5 O6,0.5(C1 H4 O1)'
_chemical_name_systematic        
'Diethyl 6-(4-bromophenyl)-1,4-dioxoperhydro-2,3,4a,6,7a-pentaazacyclopenta(cd)indene-2a,7b-dicarboxylate methanol solvate'
_symmetry_cell_setting           monoclinic
_symmetry_space_group_name_H-M   'C 2/c'
_symmetry_Int_Tables_number      15
_space_group_name_Hall           '-C 2yn'
loop_
_symmetry_equiv_pos_site_id
_symmetry_equiv_pos_as_xyz
1 x,y,z
2 1/2+x,1/2+y,z
3 -x,y,1/2-z
4 1/2-x,1/2+y,1/2-z
5 -x,-y,-z
6 1/2-x,1/2-y,-z
7 x,-y,1/2+z
8 1/2+x,1/2-y,1/2+z
_cell_length_a                   24.06370(14)
_cell_length_b                   14.6142(7)
_cell_length_c                   15.1014(7)
_cell_angle_alpha                90
_cell_angle_beta                 123.9180(10)
_cell_angle_gamma                90
_cell_volume                     4407.04
_exptl_crystal_colour            colorless
_exptl_crystal_description       block
_cell_formula_units_Z            8
_exptl_crystal_recrystallization_method 1,2-dichloroethane/methanol
loop_
_atom_site_label
_atom_site_type_symbol
_atom_site_fract_x
_atom_site_fract_y
_atom_site_fract_z
Br1 Br 0.09382(2) 1.15884(3) 0.26032(4)
C1 C 0.03759(14) 0.59152(19) -0.0950(2)
C2 C 0.20106(13) 0.70999(18) 0.0667(2)
C3 C 0.14998(13) 0.57862(18) -0.0369(2)
C4 C 0.18373(16) 0.4953(2) -0.0486(3)
C5 C 0.2896(5) 0.4035(6) 0.0604(12)
H1 H 0.3077 0.3821 0.1324
H2 H 0.2652 0.3543 0.0102
C6 C 0.3427(5) 0.4415(7) 0.0492(10)
H3 H 0.3236 0.4576 -0.0240
H4 H 0.3771 0.3964 0.0713
H5 H 0.3617 0.4950 0.0931
C9 C 0.14412(13) 0.57875(17) 0.0619(2)
C10 C 0.17281(14) 0.49725(19) 0.1388(2)
C11 C 0.1625(2) 0.3379(2) 0.1509(3)
H11 H 0.2080 0.3427 0.2134
H12 H 0.1328 0.3296 0.1745
C12 C 0.1570(3) 0.2609(3) 0.0866(4)
H13 H 0.1120 0.2568 0.0247
H14 H 0.1681 0.2057 0.1277
H15 H 0.1872 0.2689 0.0647
C13 C 0.05125(14) 0.6256(2) 0.0780(2)
H16 H 0.0029 0.6327 0.0346
H17 H 0.0628 0.5857 0.1372
C14 C 0.15451(14) 0.7051(2) 0.1800(2)
H18 H 0.1694 0.6682 0.2429
H19 H 0.1749 0.7651 0.2038
C15 C 0.05662(15) 0.7874(2) 0.0380(2)
H20 H 0.0095 0.7770 -0.0159
H21 H 0.0805 0.7856 0.0034
C16 C 0.06560(14) 0.8802(2) 0.0884(2)
C17 C 0.12066(16) 0.9345(2) 0.1205(3)
H22 H 0.1524 0.9155 0.1076
C18 C 0.12924(17) 1.0173(2) 0.1718(3)
H23 H 0.1673 1.0524 0.1955
C19 C 0.08157(17) 1.0465(2) 0.1871(3)
C20 C 0.02511(18) 0.9961(2) 0.1529(3)
H24 H -0.0078 1.0178 0.1618
C21 C 0.01780(17) 0.9126(2) 0.1050(3)
H25 H -0.0199 0.8773 0.0833
N1 N 0.08160(12) 0.58339(18) -0.12421(18)
H26 H 0.0683(15) 0.591(2) -0.1891(11)
N2 N 0.18829(12) 0.66033(15) -0.0188(2)
H27 H 0.2078(14) 0.673(2) -0.050(2)
N3 N 0.07245(10) 0.58278(14) 0.01361(17)
N4 N 0.17724(11) 0.66263(14) 0.11747(18)
N5 N 0.08203(11) 0.71459(15) 0.11935(17)
O1 O -0.02299(10) 0.60162(15) -0.15411(15)
O2 O 0.22887(10) 0.78421(13) 0.09463(17)
O3 O 0.15792(14) 0.44551(19) -0.1224(2)
O4 O 0.24576(13) 0.4891(2) 0.0336(3)
O5 O 0.21328(12) 0.50418(16) 0.23280(18)
O6 O 0.14464(12) 0.42050(14) 0.08704(17)
C7? C 0.2856(6) 0.4261(9) 0.0065(8)
H6? H 0.2560 0.3833 -0.0495
H7? H 0.3091 0.4618 -0.0171
C8? C 0.3339(7) 0.3768(10) 0.1071(9)
H8? H 0.3760 0.4085 0.1445
H9? H 0.3403 0.3158 0.0907
H10? H 0.3167 0.3741 0.1511
C22? C 0.0414(9) 0.7513(8) 0.2701(12)
O7? O 0.0000 0.6840(8) 0.2500
loop_
_geom_bond_atom_site_label_1
_geom_bond_atom_site_label_2
_geom_bond_site_symmetry_1
_geom_bond_site_symmetry_2
Br1 C19 1_555 1_555
C1 N1 1_555 1_555
C2 N2 1_555 1_555
C3 C4 1_555 1_555
C4 O3 1_555 1_555
C5 H1 1_555 1_555
H2 C5 1_555 1_555
C6 C5 1_555 1_555
H3 C6 1_555 1_555
H4 C6 1_555 1_555
H5 C6 1_555 1_555
C9 C3 1_555 1_555
C10 C9 1_555 1_555
C11 H11 1_555 1_555
H12 C11 1_555 1_555
C12 C11 1_555 1_555
H13 C12 1_555 1_555
H14 C12 1_555 1_555
H15 C12 1_555 1_555
C13 H16 1_555 1_555
H17 C13 1_555 1_555
C14 H18 1_555 1_555
H19 C14 1_555 1_555
C15 H20 1_555 1_555
H21 C15 1_555 1_555
C16 C15 1_555 1_555
C17 C16 1_555 1_555
H22 C17 1_555 1_555
C18 C17 1_555 1_555
H23 C18 1_555 1_555
C19 C18 1_555 1_555
C20 C19 1_555 1_555
H24 C20 1_555 1_555
C21 C16 1_555 1_555
H25 C21 1_555 1_555
N1 C3 1_555 1_555
H26 N1 1_555 1_555
N2 C3 1_555 1_555
H27 N2 1_555 1_555
N3 C1 1_555 1_555
N4 C2 1_555 1_555
N5 C13 1_555 1_555
O1 C1 1_555 1_555
O2 C2 1_555 1_555
O4 C4 1_555 1_555
O5 C10 1_555 1_555
O6 C10 1_555 1_555
C5 O4 1_555 1_555
C9 N3 1_555 1_555
C9 N4 1_555 1_555
C11 O6 1_555 1_555
C13 N3 1_555 1_555
C14 N4 1_555 1_555
C14 N5 1_555 1_555
C15 N5 1_555 1_555
C20 C21 1_555 1_555

#END
