
#######################################################################
#
#                 Cambridge Crystallographic Data Centre
#                                CCDC 
#
#######################################################################
#
# If this CIF has been generated from an entry in the Cambridge 
# Structural Database, then it will include bibliographic, chemical, 
# crystal, experimental, refinement or atomic coordinate data resulting 
# from the CCDC's data processing and validation procedures.
#
#######################################################################

data_CIQKIX
_chemical_formula_moiety         'C14 H10 N4 O2'
_chemical_name_systematic        1,4-bis(Pyrazin-2-yloxy)benzene
_symmetry_cell_setting           triclinic
_symmetry_space_group_name_H-M   'P -1'
_symmetry_Int_Tables_number      2
_space_group_name_Hall           '-P 1'
loop_
_symmetry_equiv_pos_site_id
_symmetry_equiv_pos_as_xyz
1 x,y,z
2 -x,-y,-z
_cell_length_a                   5.8927(18)
_cell_length_b                   6.720(2)
_cell_length_c                   8.212(3)
_cell_angle_alpha                70.136(4)
_cell_angle_beta                 89.296(5)
_cell_angle_gamma                82.674(5)
_cell_volume                     303.174
_exptl_crystal_colour            colorless
_exptl_crystal_description       block
_cell_formula_units_Z            1
_exptl_crystal_recrystallization_method acetonitrile
loop_
_atom_site_label
_atom_site_type_symbol
_atom_site_fract_x
_atom_site_fract_y
_atom_site_fract_z
O1 O 0.10275(16) 0.12708(18) 0.29608(12)
N1 N 0.31332(19) 0.19754(18) 0.04800(15)
N2 N -0.0998(2) 0.30881(19) -0.14276(16)
C1 C 0.3052(3) 0.2596(2) -0.12524(18)
H1 H 0.4416 0.2658 -0.1839
C2 C 0.1027(3) 0.3140(2) -0.21823(19)
H2 H 0.1057 0.3561 -0.3384
C3 C -0.0938(2) 0.2474(2) 0.02777(18)
H3 H -0.2300 0.2410 0.0866
C4 C 0.1147(2) 0.1920(2) 0.12088(17)
C5 C 0.3092(2) 0.0643(2) 0.39486(16)
C6 C 0.4373(3) 0.2142(2) 0.40865(19)
H4 H 0.3941 0.3582 0.3470
C7 C 0.3681(3) -0.1486(2) 0.48455(18)
H5 H 0.2784 -0.2480 0.4738
O1A O 0.89725(16) -0.12708(18) 0.70392(12)
N1A N 0.68668(19) -0.19754(18) 0.95200(15)
N2A N 1.0998(2) -0.30881(19) 1.14276(16)
C1A C 0.6948(3) -0.2596(2) 1.12524(18)
H1A H 0.5584 -0.2658 1.1839
C2A C 0.8973(3) -0.3140(2) 1.21823(19)
H2A H 0.8943 -0.3561 1.3384
C3A C 1.0938(2) -0.2474(2) 0.97223(18)
H3A H 1.2300 -0.2410 0.9134
C4A C 0.8853(2) -0.1920(2) 0.87912(17)
C5A C 0.6908(2) -0.0643(2) 0.60514(16)
C6A C 0.5627(3) -0.2142(2) 0.59135(19)
H4A H 0.6059 -0.3582 0.6530
C7A C 0.6319(3) 0.1486(2) 0.51545(18)
H5A H 0.7216 0.2480 0.5262
loop_
_geom_bond_atom_site_label_1
_geom_bond_atom_site_label_2
_geom_bond_site_symmetry_1
_geom_bond_site_symmetry_2
O1 C4 1_555 1_555
N1 C1 1_555 1_555
N2 C2 1_555 1_555
C1 H1 1_555 1_555
C2 C1 1_555 1_555
H2 C2 1_555 1_555
C3 N2 1_555 1_555
H3 C3 1_555 1_555
C4 N1 1_555 1_555
C5 O1 1_555 1_555
C6 C5 1_555 1_555
H4 C6 1_555 1_555
C7 C5 1_555 1_555
H5 C7 1_555 1_555
O1A C4A 1_555 1_555
N1A C1A 1_555 1_555
N2A C2A 1_555 1_555
C1A H1A 1_555 1_555
C2A C1A 1_555 1_555
H2A C2A 1_555 1_555
C3A N2A 1_555 1_555
H3A C3A 1_555 1_555
C4A N1A 1_555 1_555
C5A O1A 1_555 1_555
C6A C7 1_555 1_555
H4A C6A 1_555 1_555
C7A C6 1_555 1_555
H5A C7A 1_555 1_555
C3 C4 1_555 1_555
C3A C4A 1_555 1_555
C5A C6A 1_555 1_555
C5A C7A 1_555 1_555

#END
