
#######################################################################
#
#                 Cambridge Crystallographic Data Centre
#                                CCDC 
#
#######################################################################
#
# If this CIF has been generated from an entry in the Cambridge 
# Structural Database, then it will include bibliographic, chemical, 
# crystal, experimental, refinement or atomic coordinate data resulting 
# from the CCDC's data processing and validation procedures.
#
#######################################################################

data_CIQSOL
_chemical_formula_moiety         'C16 H22 N2 2+,2(Br1 1-),2(H2 O1)'
_chemical_name_systematic        
"2,2'-Dimethylbutane-1,4-diyldipyridinium dibromide dihydrate"
_symmetry_cell_setting           orthorhombic
_symmetry_space_group_name_H-M   'P 21 21 21'
_symmetry_Int_Tables_number      19
_space_group_name_Hall           'P 2ac 2ab'
loop_
_symmetry_equiv_pos_site_id
_symmetry_equiv_pos_as_xyz
1 x,y,z
2 1/2-x,-y,1/2+z
3 1/2+x,1/2-y,-z
4 -x,1/2+y,1/2-z
_cell_length_a                   7.3604(12)
_cell_length_b                   9.4157(14)
_cell_length_c                   28.6294(19)
_cell_angle_alpha                90
_cell_angle_beta                 90
_cell_angle_gamma                90
_cell_volume                     1984.11
_exptl_crystal_colour            colorless
_exptl_crystal_description       prism
_cell_formula_units_Z            4
loop_
_atom_site_label
_atom_site_type_symbol
_atom_site_fract_x
_atom_site_fract_y
_atom_site_fract_z
C1 C 0.3499(7) 0.3486(5) 0.46614(13)
H1 H 0.3618 0.4496 0.4696
H2 H 0.4662 0.3045 0.4708
H3 H 0.2655 0.3132 0.4889
C2 C 0.2813(5) 0.3147(4) 0.41772(12)
C3 C 0.2511(6) 0.1763(4) 0.40263(15)
H4 H 0.2707 0.1013 0.4231
C4 C 0.1930(6) 0.1487(5) 0.35815(16)
H5 H 0.1759 0.0556 0.3483
C5 C 0.1599(6) 0.2610(5) 0.32796(16)
H6 H 0.1194 0.2440 0.2977
C6 C 0.1871(6) 0.3955(5) 0.34302(13)
H7 H 0.1650 0.4707 0.3228
C7 C 0.2788(6) 0.5759(4) 0.39991(15)
H8 H 0.2652 0.5884 0.4334
H9 H 0.1890 0.6349 0.3845
C8 C 0.4688(5) 0.6224(4) 0.38512(13)
H10 H 0.4897 0.5950 0.3529
H11 H 0.5584 0.5746 0.4044
C9 C 0.4917(5) 0.7830(4) 0.38998(13)
H12 H 0.4731 0.8107 0.4223
H13 H 0.4016 0.8312 0.3710
C10 C 0.6838(6) 0.8269(4) 0.37417(14)
H14 H 0.7717 0.7962 0.3973
H15 H 0.7126 0.7801 0.3449
C11 C 0.7408(6) 1.0636(5) 0.40605(14)
H16 H 0.7641 1.0185 0.4343
C12 C 0.7511(6) 1.2078(5) 0.40395(17)
H17 H 0.7805 1.2606 0.4303
C13 C 0.7174(6) 1.2733(4) 0.36221(19)
H18 H 0.7256 1.3716 0.3600
C14 C 0.6711(6) 1.1947(5) 0.32338(16)
H19 H 0.6470 1.2405 0.2953
C15 C 0.6601(5) 1.0457(4) 0.32589(13)
C16 C 0.6124(7) 0.9537(5) 0.28430(13)
H20 H 0.7151 0.8959 0.2761
H21 H 0.5806 1.0131 0.2583
H22 H 0.5114 0.8938 0.2921
N1 N 0.2468(4) 0.4236(3) 0.38756(10)
N2 N 0.6973(4) 0.9831(3) 0.36796(10)
O1 O -0.2299(5) 0.5469(4) 0.28463(13)
H23 H -0.1382 0.6180 0.2861
H24 H -0.1451 0.4919 0.2701
O2 O 0.4977(7) 0.6342(4) 0.53256(19)
H25 H 0.5903 0.6036 0.5111
H26 H 0.4962 0.7385 0.5297
Br1 Br 0.10716(6) 0.79001(4) 0.292950(14)
Br2 Br 0.87524(7) 0.52517(5) 0.477339(16)
loop_
_geom_bond_atom_site_label_1
_geom_bond_atom_site_label_2
_geom_bond_site_symmetry_1
_geom_bond_site_symmetry_2
C1 H1 1_555 1_555
H2 C1 1_555 1_555
H3 C1 1_555 1_555
C2 C1 1_555 1_555
C3 C2 1_555 1_555
H4 C3 1_555 1_555
C4 C3 1_555 1_555
H5 C4 1_555 1_555
C5 C4 1_555 1_555
H6 C5 1_555 1_555
C6 C5 1_555 1_555
H7 C6 1_555 1_555
C7 H8 1_555 1_555
H9 C7 1_555 1_555
C8 C7 1_555 1_555
H10 C8 1_555 1_555
H11 C8 1_555 1_555
C9 C8 1_555 1_555
H12 C9 1_555 1_555
H13 C9 1_555 1_555
C10 C9 1_555 1_555
H14 C10 1_555 1_555
H15 C10 1_555 1_555
C11 H16 1_555 1_555
C12 C11 1_555 1_555
H17 C12 1_555 1_555
C13 C12 1_555 1_555
H18 C13 1_555 1_555
C14 C13 1_555 1_555
H19 C14 1_555 1_555
C15 C14 1_555 1_555
C16 C15 1_555 1_555
H20 C16 1_555 1_555
H21 C16 1_555 1_555
H22 C16 1_555 1_555
N1 C2 1_555 1_555
N2 C10 1_555 1_555
O1 H23 1_555 1_555
H24 O1 1_555 1_555
O2 H25 1_555 1_555
H26 O2 1_555 1_555
C6 N1 1_555 1_555
C7 N1 1_555 1_555
C11 N2 1_555 1_555
C15 N2 1_555 1_555

#END
