
#######################################################################
#
#                 Cambridge Crystallographic Data Centre
#                                CCDC 
#
#######################################################################
#
# If this CIF has been generated from an entry in the Cambridge 
# Structural Database, then it will include bibliographic, chemical, 
# crystal, experimental, refinement or atomic coordinate data resulting 
# from the CCDC's data processing and validation procedures.
#
#######################################################################

data_CIQSIF
_chemical_formula_moiety         'C9 H20 N1 O1 1+,N1 O3 1-'
_chemical_name_systematic        
'4-Hydroxy-2,2,6,6-tetramethylpiperidinium nitrate'
_symmetry_cell_setting           orthorhombic
_symmetry_space_group_name_H-M   'C m c 21'
_symmetry_Int_Tables_number      36
_space_group_name_Hall           'C 2n -2'
loop_
_symmetry_equiv_pos_site_id
_symmetry_equiv_pos_as_xyz
1 x,y,z
2 -x,y,z
3 x,-y,1/2+z
4 -x,-y,1/2+z
5 1/2+x,1/2+y,z
6 1/2-x,1/2+y,z
7 1/2+x,1/2-y,1/2+z
8 1/2-x,1/2-y,1/2+z
_cell_length_a                   11.6721(15)
_cell_length_b                   10.5156(12)
_cell_length_c                   9.6565(12)
_cell_angle_alpha                90
_cell_angle_beta                 90
_cell_angle_gamma                90
_cell_volume                     1185.23
_exptl_crystal_colour            colorless
_exptl_crystal_description       prism
_cell_formula_units_Z            4
loop_
_atom_site_label
_atom_site_type_symbol
_atom_site_fract_x
_atom_site_fract_y
_atom_site_fract_z
O1 O 0.0000 0.1257(3) 0.3803(3)
O2 O 0.0000 0.3084(2) 0.2792(3)
O3 O 0.0000 0.1368(3) 0.1545(3)
N2 N 0.0000 0.1891(3) 0.2702(3)
N1 N 0.5000 0.1910(3) 0.1021(3)
H1 H 0.5000 0.109(4) 0.067(5)
H2 H 0.5000 0.248(4) 0.024(5)
C1 C 0.6143(2) 0.2061(2) 0.1790(3)
C2 C 0.6069(2) 0.1267(3) 0.3139(3)
H3 H 0.6073 0.0352 0.2897
H4 H 0.6756 0.1438 0.3709
C3 C 0.5000 0.1555(4) 0.3994(4)
H5 H 0.5000 0.2471 0.4271
C4 C 0.6395(3) 0.3482(3) 0.2066(4)
H6 H 0.7192 0.3580 0.2366
H7 H 0.5881 0.3796 0.2793
H8 H 0.6270 0.3970 0.1215
C5 C 0.7050(3) 0.1520(3) 0.0804(4)
H9 H 0.6875 0.0627 0.0604
H10 H 0.7807 0.1579 0.1238
H11 H 0.7048 0.2008 -0.0061
H12 H 0.5000 0.119(5) 0.606(7)
O4 O 0.5000 0.0759(3) 0.5227(3)
C1A C 0.3857(2) 0.2061(2) 0.1790(3)
C2A C 0.3931(2) 0.1267(3) 0.3139(3)
H3A H 0.3927 0.0352 0.2897
H4A H 0.3244 0.1438 0.3709
C4A C 0.3605(3) 0.3482(3) 0.2066(4)
H6A H 0.2808 0.3580 0.2366
H7A H 0.4119 0.3796 0.2793
H8A H 0.3730 0.3970 0.1215
C5A C 0.2950(3) 0.1520(3) 0.0804(4)
H9A H 0.3125 0.0627 0.0604
H10A H 0.2193 0.1579 0.1238
H11A H 0.2952 0.2008 -0.0061
loop_
_geom_bond_atom_site_label_1
_geom_bond_atom_site_label_2
_geom_bond_site_symmetry_1
_geom_bond_site_symmetry_2
O1 N2 1_555 1_555
O2 N2 1_555 1_555
O3 N2 1_555 1_555
N1 H1 1_555 1_555
H2 N1 1_555 1_555
C1 N1 1_555 1_555
C2 C1 1_555 1_555
H3 C2 1_555 1_555
H4 C2 1_555 1_555
C3 C2 1_555 1_555
H5 C3 1_555 1_555
C4 C1 1_555 1_555
H6 C4 1_555 1_555
H7 C4 1_555 1_555
H8 C4 1_555 1_555
C5 C1 1_555 1_555
H9 C5 1_555 1_555
H10 C5 1_555 1_555
H11 C5 1_555 1_555
H12 O4 1_555 1_555
O4 C3 1_555 1_555
C1A N1 1_555 1_555
C2A C3 1_555 1_555
H3A C2A 1_555 1_555
H4A C2A 1_555 1_555
C4A C1A 1_555 1_555
H6A C4A 1_555 1_555
H7A C4A 1_555 1_555
H8A C4A 1_555 1_555
C5A C1A 1_555 1_555
H9A C5A 1_555 1_555
H10A C5A 1_555 1_555
H11A C5A 1_555 1_555
C1A C2A 1_555 1_555

#END
