
#######################################################################
#
#                 Cambridge Crystallographic Data Centre
#                                CCDC 
#
#######################################################################
#
# If this CIF has been generated from an entry in the Cambridge 
# Structural Database, then it will include bibliographic, chemical, 
# crystal, experimental, refinement or atomic coordinate data resulting 
# from the CCDC's data processing and validation procedures.
#
#######################################################################

data_CIQVED
_chemical_compound_source        'roots of Vladimiria soulilei Liarke'
_chemical_name_common            
3,6,10-Trimethyl-2,3,3a,4,5,8,9,11a-octahydrocyclodeca(1,2-b)furan-2,9-dione
_chemical_formula_moiety         'C15 H20 O3'
_chemical_name_systematic        'Costuslactone B'
_chemical_properties_biological  'some antitumour activity'
_symmetry_cell_setting           orthorhombic
_symmetry_space_group_name_H-M   'P 21 21 21'
_symmetry_Int_Tables_number      19
_space_group_name_Hall           'P 2ac 2ab'
loop_
_symmetry_equiv_pos_site_id
_symmetry_equiv_pos_as_xyz
1 x,y,z
2 1/2-x,-y,1/2+z
3 -x,1/2+y,1/2-z
4 1/2+x,1/2-y,-z
_cell_length_a                   5.5530(10)
_cell_length_b                   12.3400(10)
_cell_length_c                   20.875(2)
_cell_angle_alpha                90
_cell_angle_beta                 90
_cell_angle_gamma                90
_cell_volume                     1430.44
_exptl_crystal_colour            colorless
_exptl_crystal_description       block
_cell_formula_units_Z            4
_exptl_crystal_recrystallization_method ethanol/acetone
loop_
_atom_site_label
_atom_site_type_symbol
_atom_site_fract_x
_atom_site_fract_y
_atom_site_fract_z
O1 O 0.1530(3) 0.98913(11) 0.84433(6)
O2 O 0.2772(3) 0.84783(15) 0.90175(10)
O3 O 0.0377(3) 1.24741(12) 0.72391(9)
C1 C -0.4442(4) 1.24714(17) 0.81895(12)
H1 H -0.5488 1.1991 0.8176
C2 C -0.3663(5) 1.28685(17) 0.75380(11)
H2 H -0.2974 1.3577 0.7565
H3 H -0.4707 1.2794 0.7227
C3 C -0.1630(4) 1.21412(16) 0.73249(9)
C4 C -0.2205(4) 1.09607(15) 0.72418(9)
C5 C -0.1687(4) 1.02388(14) 0.76916(8)
H4 H -0.2065 0.9498 0.7638
C6 C -0.0679(3) 1.05086(13) 0.83384(8)
H5 H -0.0089 1.1234 0.8331
C7 C -0.2346(4) 1.02105(15) 0.89024(8)
H6 H -0.3950 1.0170 0.8743
C8 C -0.2263(5) 1.10460(18) 0.94451(9)
H7 H -0.2714 1.0756 0.9837
H8 H -0.0659 1.1253 0.9490
C9 C -0.3965(6) 1.2015(2) 0.93315(12)
H9 H -0.3961 1.2469 0.9667
H10 H -0.5422 1.1728 0.9253
C10 C -0.3330(5) 1.26599(16) 0.87372(11)
C11 C -0.1430(4) 0.90767(18) 0.90837(10)
H11 H -0.2097 0.8596 0.8825
C12 C 0.1170(4) 0.90783(17) 0.88695(10)
C13 C -0.1707(6) 0.8678(3) 0.97712(13)
H12 H -0.0702 0.9217 1.0079
H13 H -0.1405 0.8021 0.9731
H14 H -0.3342 0.8778 0.9918
C14 C -0.3411(7) 1.0670(2) 0.66214(12)
H15 H -0.3599 0.9873 0.6574
H16 H -0.2442 1.0919 0.6331
H17 H -0.4931 1.1067 0.6627
C15 C -0.1267(7) 1.3428(2) 0.87983(15)
H18 H -0.1010 1.3872 0.8482
H19 H -0.2049 1.3997 0.9138
H20 H -0.0217 1.3136 0.9007
loop_
_geom_bond_atom_site_label_1
_geom_bond_atom_site_label_2
_geom_bond_site_symmetry_1
_geom_bond_site_symmetry_2
O1 C6 1_555 1_555
O2 C12 1_555 1_555
O3 C3 1_555 1_555
C1 H1 1_555 1_555
C2 C1 1_555 1_555
H2 C2 1_555 1_555
H3 C2 1_555 1_555
C3 C2 1_555 1_555
C4 C3 1_555 1_555
C5 C4 1_555 1_555
H4 C5 1_555 1_555
C6 C5 1_555 1_555
H5 C6 1_555 1_555
C7 C6 1_555 1_555
H6 C7 1_555 1_555
C8 C7 1_555 1_555
H7 C8 1_555 1_555
H8 C8 1_555 1_555
C9 C8 1_555 1_555
H9 C9 1_555 1_555
H10 C9 1_555 1_555
C10 C1 1_555 1_555
C11 C7 1_555 1_555
H11 C11 1_555 1_555
C12 O1 1_555 1_555
C13 C11 1_555 1_555
H12 C13 1_555 1_555
H13 C13 1_555 1_555
H14 C13 1_555 1_555
C14 C4 1_555 1_555
H15 C14 1_555 1_555
H16 C14 1_555 1_555
H17 C14 1_555 1_555
C15 C10 1_555 1_555
H18 C15 1_555 1_555
H19 C15 1_555 1_555
H20 C15 1_555 1_555
C9 C10 1_555 1_555
C11 C12 1_555 1_555

#END
