
#######################################################################
#
#                 Cambridge Crystallographic Data Centre
#                                CCDC 
#
#######################################################################
#
# If this CIF has been generated from an entry in the Cambridge 
# Structural Database, then it will include bibliographic, chemical, 
# crystal, experimental, refinement or atomic coordinate data resulting 
# from the CCDC's data processing and validation procedures.
#
#######################################################################

data_CIQYOR01
_chemical_formula_moiety         'C14 H10 Br2 N2'
_chemical_name_systematic        bis(2-Bromobenzylidene)hydrazine
_symmetry_cell_setting           monoclinic
_symmetry_space_group_name_H-M   'P 21/c'
_symmetry_Int_Tables_number      14
_space_group_name_Hall           '-P 2ybc'
loop_
_symmetry_equiv_pos_site_id
_symmetry_equiv_pos_as_xyz
1 x,y,z
2 -x,1/2+y,1/2-z
3 -x,-y,-z
4 x,1/2-y,1/2+z
_cell_length_a                   6.8769(14)
_cell_length_b                   4.0470(8)
_cell_length_c                   23.621(5)
_cell_angle_alpha                90
_cell_angle_beta                 90.96(3)
_cell_angle_gamma                90
_cell_volume                     657.299
_exptl_crystal_colour            yellow
_exptl_crystal_description       block
_cell_formula_units_Z            2
loop_
_atom_site_label
_atom_site_type_symbol
_atom_site_fract_x
_atom_site_fract_y
_atom_site_fract_z
Br1 Br 0.13331(5) 1.16646(10) 0.195583(14)
N1 N 0.0893(4) 0.9366(9) 0.01083(13)
C1 C 0.3271(4) 0.9679(8) 0.15014(13)
C2 C 0.2973(5) 0.9119(8) 0.09225(13)
C3 C 0.4449(5) 0.7587(10) 0.06297(15)
H1 H 0.4276 0.7200 0.0244
C4 C 0.6171(5) 0.6612(10) 0.08893(18)
H2 H 0.7137 0.5574 0.0683
C5 C 0.6431(5) 0.7219(10) 0.14694(18)
H3 H 0.7586 0.6594 0.1650
C6 C 0.5000(5) 0.8728(9) 0.17747(16)
H4 H 0.5180 0.9114 0.2160
C7 C 0.1174(5) 1.0156(9) 0.06272(14)
H5 H 0.0245 1.1382 0.0817
Br1B Br -0.13331(5) 0.83354(10) -0.195583(14)
N1B N -0.0893(4) 1.0634(9) -0.01083(13)
C1B C -0.3271(4) 1.0321(8) -0.15014(13)
C2B C -0.2973(5) 1.0881(8) -0.09225(13)
C3B C -0.4449(5) 1.2413(10) -0.06297(15)
H1B H -0.4276 1.2800 -0.0244
C4B C -0.6171(5) 1.3388(10) -0.08893(18)
H2B H -0.7137 1.4426 -0.0683
C5B C -0.6431(5) 1.2781(10) -0.14694(18)
H3B H -0.7586 1.3406 -0.1650
C6B C -0.5000(5) 1.1272(9) -0.17747(16)
H4B H -0.5180 1.0886 -0.2160
C7B C -0.1174(5) 0.9844(9) -0.06272(14)
H5B H -0.0245 0.8618 -0.0817
loop_
_geom_bond_atom_site_label_1
_geom_bond_atom_site_label_2
_geom_bond_site_symmetry_1
_geom_bond_site_symmetry_2
Br1 C1 1_555 1_555
N1 C7 1_555 1_555
C1 C2 1_555 1_555
C2 C3 1_555 1_555
C3 H1 1_555 1_555
C4 C3 1_555 1_555
H2 C4 1_555 1_555
C5 C4 1_555 1_555
H3 C5 1_555 1_555
C6 C1 1_555 1_555
H4 C6 1_555 1_555
C7 C2 1_555 1_555
H5 C7 1_555 1_555
Br1B C1B 1_555 1_555
N1B N1 1_555 1_555
C1B C2B 1_555 1_555
C2B C3B 1_555 1_555
C3B H1B 1_555 1_555
C4B C3B 1_555 1_555
H2B C4B 1_555 1_555
C5B C4B 1_555 1_555
H3B C5B 1_555 1_555
C6B C1B 1_555 1_555
H4B C6B 1_555 1_555
C7B N1B 1_555 1_555
H5B C7B 1_555 1_555
C5 C6 1_555 1_555
C2B C7B 1_555 1_555
C5B C6B 1_555 1_555

#END
