
#######################################################################
#
#                 Cambridge Crystallographic Data Centre
#                                CCDC 
#
#######################################################################
#
# If this CIF has been generated from an entry in the Cambridge 
# Structural Database, then it will include bibliographic, chemical, 
# crystal, experimental, refinement or atomic coordinate data resulting 
# from the CCDC's data processing and validation procedures.
#
#######################################################################

data_CIRFUG
_chemical_formula_moiety         'C17 H13 Br1 O2'
_chemical_name_systematic        
6-(4-Bromophenyl)-4-phenyl-3,4-dihydro-2H-pyran-2-one
_symmetry_cell_setting           orthorhombic
_symmetry_space_group_name_H-M   'P 21 21 21'
_symmetry_Int_Tables_number      19
_space_group_name_Hall           'P 2ac 2ab'
loop_
_symmetry_equiv_pos_site_id
_symmetry_equiv_pos_as_xyz
1 x,y,z
2 1/2-x,-y,1/2+z
3 -x,1/2+y,1/2-z
4 1/2+x,1/2-y,-z
_cell_length_a                   5.2216(3)
_cell_length_b                   11.0397(5)
_cell_length_c                   24.3988(11)
_cell_angle_alpha                90
_cell_angle_beta                 90
_cell_angle_gamma                90
_cell_volume                     1406.47
_exptl_crystal_colour            colorless
_exptl_crystal_description       block
_cell_formula_units_Z            4
loop_
_atom_site_label
_atom_site_type_symbol
_atom_site_fract_x
_atom_site_fract_y
_atom_site_fract_z
Br1 Br -0.05757(5) -0.08624(2) 0.757166(9)
C1 C 0.3457(5) 0.3855(2) 0.51811(9)
C2 C 0.6141(4) 0.4304(2) 0.52159(9)
H1 H 0.6370 0.4974 0.4951
H2 H 0.7320 0.3642 0.5110
C3 C 0.6867(5) 0.4757(2) 0.57931(9)
H3 H 0.8779 0.4784 0.5815
C4 C 0.5955(5) 0.3847(2) 0.62011(9)
H4 H 0.6814 0.3788 0.6543
C5 C 0.3988(5) 0.3119(2) 0.61034(9)
C6 C 0.5862(5) 0.60509(19) 0.58954(8)
C7 C 0.3815(5) 0.6300(2) 0.62305(10)
H5 H 0.2959 0.5655 0.6412
C8 C 0.2983(6) 0.7483(2) 0.63073(11)
H6 H 0.1557 0.7646 0.6538
C9 C 0.4246(7) 0.8423(2) 0.60459(11)
H7 H 0.3696 0.9235 0.6100
C10 C 0.6295(6) 0.8184(2) 0.57084(11)
H8 H 0.7151 0.8830 0.5528
C11 C 0.7111(5) 0.7003(2) 0.56309(10)
H9 H 0.8525 0.6841 0.5397
C12 C 0.2932(5) 0.2162(2) 0.64572(9)
C13 C 0.4058(5) 0.1877(2) 0.69619(9)
H10 H 0.5551 0.2299 0.7076
C14 C 0.3030(5) 0.0990(2) 0.72974(9)
H11 H 0.3803 0.0805 0.7640
C15 C 0.0848(5) 0.0375(2) 0.71260(9)
C16 C -0.0285(5) 0.0624(2) 0.66292(9)
H12 H -0.1751 0.0184 0.6513
C17 C 0.0744(5) 0.15286(19) 0.63001(8)
H13 H -0.0060 0.1719 0.5962
O1 O 0.2538(3) 0.32284(14) 0.56208(6)
O2 O 0.2045(3) 0.39568(15) 0.47953(6)
loop_
_geom_bond_atom_site_label_1
_geom_bond_atom_site_label_2
_geom_bond_site_symmetry_1
_geom_bond_site_symmetry_2
Br1 C15 1_555 1_555
C1 C2 1_555 1_555
C2 H1 1_555 1_555
H2 C2 1_555 1_555
C3 C2 1_555 1_555
H3 C3 1_555 1_555
C4 C3 1_555 1_555
H4 C4 1_555 1_555
C5 C4 1_555 1_555
C6 C3 1_555 1_555
C7 C6 1_555 1_555
H5 C7 1_555 1_555
C8 C7 1_555 1_555
H6 C8 1_555 1_555
C9 C8 1_555 1_555
H7 C9 1_555 1_555
C10 C9 1_555 1_555
H8 C10 1_555 1_555
C11 C6 1_555 1_555
H9 C11 1_555 1_555
C12 C5 1_555 1_555
C13 C12 1_555 1_555
H10 C13 1_555 1_555
C14 C13 1_555 1_555
H11 C14 1_555 1_555
C15 C14 1_555 1_555
C16 C15 1_555 1_555
H12 C16 1_555 1_555
C17 C12 1_555 1_555
H13 C17 1_555 1_555
O1 C1 1_555 1_555
O2 C1 1_555 1_555
C5 O1 1_555 1_555
C10 C11 1_555 1_555
C16 C17 1_555 1_555

#END
