
#######################################################################
#
#                 Cambridge Crystallographic Data Centre
#                                CCDC 
#
#######################################################################
#
# If this CIF has been generated from an entry in the Cambridge 
# Structural Database, then it will include bibliographic, chemical, 
# crystal, experimental, refinement or atomic coordinate data resulting 
# from the CCDC's data processing and validation procedures.
#
#######################################################################

data_CIRFEQ
_chemical_name_common            'dapagliflozin L-proline hemihydrate'
_chemical_formula_moiety         'C21 H25 Cl1 O6,C5 H9 N1 O2,0.5(H2 O1)'
_chemical_name_systematic        
'2-(4-chloro-3-(4-ethoxybenzyl)phenyl)-6-(hydroxymethyl)tetrahydro-2H-pyran-3,4,5-triol L-proline hemihydrate'
_chemical_properties_biological  
'Sglt2 inhibitors in type II diabetes. Sglt2 (a protein with membrane-spanning segments predominantly expressed in the early SI segment of renal proximal tubules) is likely the major transporter for active glucose reuptake in the proximal tubule. Mutations in sglt2 have been associated with familial forms of renal glucosuria in the context of normal renal morphology and function, therefore, inhibition of sglt2 is predicted to reduce plasma glucose levels via increased glucose excretion.'
_symmetry_cell_setting           triclinic
_symmetry_space_group_name_H-M   'P 1'
_symmetry_Int_Tables_number      1
_space_group_name_Hall           'P 1'
loop_
_symmetry_equiv_pos_site_id
_symmetry_equiv_pos_as_xyz
1 x,y,z
_cell_length_a                   11.539
_cell_length_b                   10.199
_cell_length_c                   23.183
_cell_angle_alpha                103.96
_cell_angle_beta                 97.16
_cell_angle_gamma                90.25
_cell_volume                     2625.41
_cell_formula_units_Z            4
loop_
_atom_site_label
_atom_site_type_symbol
_atom_site_fract_x
_atom_site_fract_y
_atom_site_fract_z
Cl1 Cl -0.3207 0.2999 0.1007
O1 O -0.0812 0.4445 0.3860
O2 O 0.1266 0.3986 0.5119
O3 O 0.0226 0.1123 0.3131
O4 O 0.1988 0.2024 0.4116
C1 C -0.0400 0.4518 0.4471
C2 C 0.0829 0.3978 0.4505
C3 C 0.0836 0.2539 0.4134
O5 O 0.0185 0.6897 0.4693
C4 C 0.0320 0.2460 0.3495
C5 C -0.1475 0.3075 0.2867
C6 C -0.0536 0.5937 0.4833
C7 C -0.2858 0.1976 0.1996
O6 O -0.1314 -0.4139 0.0970
C8 C -0.0913 0.3083 0.3494
C9 C -0.2316 0.2099 0.2582
C10 C -0.1691 0.4011 0.2002
C11 C -0.1786 -0.0508 0.1507
C12 C -0.3006 -0.0480 0.1494
C13 C -0.3629 -0.1768 0.1287
C14 C -0.1830 -0.2916 0.1133
C15 C -0.1179 0.4052 0.2576
C16 C -0.1249 -0.1696 0.1325
C17 C -0.2541 0.3000 0.1727
C18 C -0.3658 0.0787 0.1687
C19 C -0.3038 -0.2938 0.1114
C20 C -0.0150 -0.4216 0.0824
C21 C -0.0248 -0.4143 0.0214
H1 H -0.0975 0.3899 0.4641
H2 H 0.1418 0.4590 0.4337
H3 H 0.0313 0.1936 0.4337
H4 H 0.0862 0.3044 0.3298
H5 H -0.1430 0.6195 0.4745
H6 H -0.0310 0.5943 0.5295
H7 H -0.1495 0.2477 0.3663
H8 H -0.2539 0.1367 0.2824
H9 H -0.1435 0.4768 0.1772
H10 H -0.1255 0.0440 0.1660
H11 H -0.4573 -0.1862 0.1271
H12 H -0.0551 0.4859 0.2809
H13 H -0.0294 -0.1642 0.1321
H14 H -0.4249 0.0580 0.1988
H15 H -0.4172 0.0974 0.1293
H16 H -0.3545 -0.3888 0.0944
H17 H 0.0443 -0.3425 0.1127
H18 H 0.0247 -0.5195 0.0867
H19 H 0.0584 -0.4150 0.0027
H20 H -0.0829 -0.4910 -0.0091
H21 H -0.0634 -0.3139 0.0169
H22 H -0.0494 0.0591 0.3246
H23 H 0.2411 0.2106 0.4570
H24 H 0.1948 0.4772 0.5288
H25 H -0.0304 0.7367 0.4370
Cl2 Cl 0.2353 0.2852 0.0943
O7 O 0.4643 0.4578 0.3847
O8 O 0.6924 0.1640 0.4142
C22 C 0.4307 0.3235 0.3510
O9 O 0.6471 0.3804 0.5135
C23 C 0.5401 0.2370 0.3503
O10 O 0.4314 0.6909 0.4760
C24 C 0.5025 0.4655 0.4471
C25 C 0.3782 0.3234 0.2879
O11 O 0.3688 -0.3850 0.0770
C26 C 0.2412 0.2163 0.2011
O12 O 0.5177 0.1054 0.3143
C27 C 0.5871 0.2380 0.4145
C28 C 0.5309 0.6092 0.4771
C29 C 0.6100 0.3805 0.4525
C30 C 0.3806 0.3946 0.1963
C31 C 0.2856 0.2342 0.2611
C32 C 0.3122 -0.2671 0.0968
C33 C 0.1491 0.1041 0.1716
C34 C 0.2436 -0.2032 0.0581
C35 C 0.2886 0.3016 0.1694
C36 C 0.3259 -0.2129 0.1566
C37 C 0.4243 0.4052 0.2556
C38 C 0.1916 -0.0835 0.0830
C39 C 0.3595 -0.4411 0.0145
C40 C 0.2039 -0.0262 0.1455
C41 C 0.2741 -0.0939 0.1807
C42 C 0.4263 -0.5693 0.0039
H26 H 0.3659 0.2811 0.3724
H27 H 0.6059 0.2835 0.3311
H28 H 0.4295 0.4306 0.4673
H29 H 0.5247 0.1893 0.4346
H30 H 0.5953 0.6489 0.4536
H31 H 0.5686 0.6221 0.5232
H32 H 0.6812 0.4246 0.4357
H33 H 0.4161 0.4554 0.1692
H34 H 0.2450 0.1769 0.2870
H35 H 0.0958 0.0890 0.2045
H36 H 0.0943 0.1338 0.1355
H37 H 0.2331 -0.2409 0.0101
H38 H 0.3791 -0.2651 0.1858
H39 H 0.4960 0.4787 0.2767
H40 H 0.1390 -0.0325 0.0529
H41 H 0.2692 -0.4672 -0.0046
H42 H 0.3958 -0.3734 -0.0080
H43 H 0.2899 -0.0523 0.2290
H44 H 0.4221 -0.6177 -0.0443
H45 H 0.5184 -0.5490 0.0216
H46 H 0.3917 -0.6427 0.0251
H47 H 0.4288 0.7378 0.4387
H48 H 0.5701 0.3737 0.5359
H49 H 0.7447 0.1972 0.4579
H50 H 0.4441 0.0598 0.3281
Cl3 Cl 0.6985 0.3144 0.9332
O13 O 0.9914 0.4113 0.6104
O14 O 0.7834 0.1123 0.6447
O15 O 0.8541 0.4766 0.7040
C43 C 0.7408 0.2570 0.7376
O16 O 0.9142 0.1720 0.5162
O17 O 0.7084 -0.1271 0.5485
C44 C 0.7611 0.2500 0.6736
O18 O 0.8359 0.9717 0.9453
C45 C 0.7967 0.0998 0.5824
C46 C 0.8661 0.3408 0.6732
C47 C 0.8113 -0.0517 0.5552
C48 C 0.6608 0.3487 0.7637
C49 C 0.8842 0.3295 0.6081
C50 C 0.7928 0.2013 0.8324
C51 C 0.6478 0.3693 0.8244
C52 C 0.9041 0.1825 0.5787
C53 C 0.7116 0.2945 0.8580
C54 C 0.7693 0.8565 0.9247
C55 C 0.6523 0.6699 0.9393
C56 C 0.6372 0.6130 0.8784
C57 C 0.6886 0.6798 0.8418
C58 C 0.8079 0.1861 0.7731
C59 C 0.7539 0.8018 0.8657
C60 C 0.7171 0.7906 0.9638
C61 C 0.8594 1.0293 1.0095
C62 C 0.5690 0.4784 0.8512
C63 C 0.9344 1.1572 1.0187
H51 H 0.6840 0.2850 0.6494
H52 H 0.7179 0.1342 0.5591
H53 H 0.9431 0.3006 0.6953
H54 H 0.8770 -0.0884 0.5846
H55 H 0.8408 -0.0648 0.5117
H56 H 0.6098 0.4044 0.7359
H57 H 0.8091 0.3693 0.5861
H58 H 0.8427 0.1385 0.8583
H59 H 0.9803 0.1446 0.6000
H60 H 0.6091 0.6187 0.9683
H61 H 0.6794 0.6399 0.7942
H62 H 0.8728 0.1192 0.7530
H63 H 0.7902 0.8541 0.8361
H64 H 0.7271 0.8353 1.0122
H65 H 0.7735 1.0569 1.0277
H66 H 0.8986 0.9597 1.0334
H67 H 0.5005 0.4927 0.8176
H68 H 0.5288 0.4505 0.8873
H69 H 0.9545 1.2094 1.0658
H70 H 1.0166 1.1315 1.0008
H71 H 0.8915 1.2288 0.9952
H72 H 0.7685 0.5088 0.6888
H73 H 1.0223 0.3832 0.5666
H74 H 0.9788 0.0971 0.5019
H75 H 0.7109 -0.1813 0.5836
Cl4 Cl 0.1318 0.2860 0.9213
O19 O 0.2325 0.1474 0.6392
O20 O 0.3774 0.4788 0.7078
O21 O 0.3769 0.1826 0.5107
O22 O 0.5074 0.3673 0.6076
C64 C 0.2155 0.2845 0.7366
C65 C 0.2440 0.2856 0.6735
C66 C 0.2590 0.1866 0.7641
C67 C 0.3642 0.3439 0.6737
C68 C 0.1310 0.6369 0.8752
C69 C 0.3659 0.1865 0.5718
C70 C 0.2203 -0.0149 0.5444
C71 C 0.2495 0.6414 0.8737
C72 C 0.2339 0.1891 0.8206
C73 C 0.2440 0.1366 0.5760
C74 C 0.2691 0.8826 0.9099
C75 C 0.3878 0.3310 0.6097
C76 C 0.0797 0.7646 0.8952
C77 C 0.1225 0.3883 0.8232
O23 O 0.0935 -0.0372 0.5272
C78 C 0.1466 0.3834 0.7646
C79 C 0.1643 0.2886 0.8500
C80 C 0.3160 0.7598 0.8907
O24 O 0.3243 1.0074 0.9263
C81 C 0.0564 0.5089 0.8537
C82 C 0.1501 0.8831 0.9123
C83 C 0.4517 1.0168 0.9429
C84 C 0.4736 1.0085 1.0039
H76 H 0.1797 0.3464 0.6531
H77 H 0.3128 0.1093 0.7423
H78 H 0.4283 0.2823 0.6914
H79 H 0.4309 0.1186 0.5873
H80 H 0.2676 -0.0437 0.5075
H81 H 0.2503 -0.0734 0.5778
H82 H 0.2938 0.5478 0.8573
H83 H 0.2667 0.1115 0.8435
H84 H 0.1813 0.2008 0.5579
H85 H 0.3311 0.3978 0.5902
H86 H -0.0167 0.7728 0.8951
H87 H 0.1131 0.4619 0.7424
H88 H 0.4107 0.7527 0.8914
H89 H 0.0235 0.4869 0.8923
H90 H -0.0164 0.5268 0.8227
H91 H 0.1131 0.9807 0.9295
H92 H 0.5000 0.9375 0.9142
H93 H 0.4930 1.1146 0.9386
H94 H 0.5658 1.0153 1.0225
H95 H 0.4299 1.0899 1.0326
H96 H 0.4370 0.9127 1.0082
H97 H 0.4380 0.1072 0.4941
H98 H 0.5322 0.4602 0.6402
H99 H 0.2991 0.5325 0.6984
H100 H 0.0757 -0.1438 0.5063
O25 O 0.6465 0.6039 0.6797
O26 O 0.7349 0.7473 0.6386
N1 N 0.4575 0.7439 0.6955
C85 C 0.6529 0.7073 0.6592
C86 C 0.5581 0.9376 0.6856
C87 C 0.4708 0.8468 0.7558
C88 C 0.5406 0.7887 0.6584
C89 C 0.5558 0.9548 0.7523
H101 H 0.4793 0.6449 0.7024
H102 H 0.6424 0.9714 0.6756
H103 H 0.4899 0.9910 0.6668
H104 H 0.3871 0.8958 0.7636
H105 H 0.4974 0.8010 0.7924
H106 H 0.4998 0.7712 0.6119
H107 H 0.6437 0.9322 0.7755
H108 H 0.5346 1.0526 0.7757
H109 H 0.3746 0.7405 0.6748
O27 O 0.1830 0.6331 0.6898
O28 O 0.2453 0.7852 0.6450
N2 N -0.0372 0.6985 0.6789
C90 C 0.0468 0.7797 0.6565
C91 C 0.0382 0.9228 0.6945
C92 C 0.1683 0.7269 0.6638
C93 C 0.0337 0.8955 0.7569
C94 C -0.0365 0.7591 0.7436
H110 H -0.1244 0.7021 0.6547
H111 H 0.0245 0.7713 0.6086
H112 H 0.1125 0.9882 0.6931
H113 H -0.0412 0.9702 0.6791
H114 H 0.1221 0.8814 0.7786
H115 H -0.0061 0.9737 0.7872
H116 H -0.1266 0.7806 0.7533
H117 H 0.0003 0.6937 0.7698
H118 H -0.0113 0.6018 0.6728
N3 N -0.3701 -0.1217 0.3442
C95 C -0.1562 -0.1273 0.3652
O29 O -0.1554 -0.0439 0.3345
O30 O -0.0663 -0.1700 0.3912
C96 C -0.2876 -0.3360 0.3362
C97 C -0.2710 -0.1891 0.3727
C98 C -0.3924 -0.1926 0.2793
C99 C -0.3216 -0.3192 0.2720
H119 H -0.4482 -0.1282 0.3648
H120 H -0.2055 -0.3921 0.3406
H121 H -0.3541 -0.3919 0.3515
H122 H -0.2776 -0.1726 0.4197
H123 H -0.4835 -0.2219 0.2664
H124 H -0.3651 -0.1301 0.2520
H125 H -0.2450 -0.3036 0.2505
H126 H -0.3737 -0.4037 0.2429
H127 H -0.3483 -0.0232 0.3484
O31 O 0.4232 -0.1933 0.3831
O32 O 0.3366 -0.0501 0.3332
C100 C 0.2187 -0.2024 0.3678
N4 N 0.1226 -0.1310 0.3394
C101 C 0.3337 -0.1410 0.3604
C102 C 0.1992 -0.3502 0.3341
C103 C 0.1599 -0.3386 0.2693
C104 C 0.0885 -0.2109 0.2771
H128 H 0.2126 -0.1876 0.4150
H129 H 0.0471 -0.1254 0.3631
H130 H 0.2819 -0.4071 0.3370
H131 H 0.1354 -0.4038 0.3515
H132 H 0.2344 -0.3225 0.2459
H133 H 0.1069 -0.4219 0.2420
H134 H -0.0019 -0.2405 0.2681
H135 H 0.1098 -0.1545 0.2449
H136 H 0.1520 -0.0373 0.3393
O33 O 0.2926 0.5997 0.5452
H137 H 0.2742 0.6734 0.5848
H138 H 0.3486 0.6479 0.5212
O34 O 0.5342 -0.0128 0.4878
H139 H 0.4919 -0.0828 0.4471
H140 H 0.6016 -0.0665 0.5089
loop_
_geom_bond_atom_site_label_1
_geom_bond_atom_site_label_2
_geom_bond_site_symmetry_1
_geom_bond_site_symmetry_2
Cl1 C17 1_555 1_555
O1 C1 1_555 1_555
O2 C2 1_555 1_555
O3 C4 1_555 1_555
O4 C3 1_555 1_555
C1 C2 1_555 1_555
C2 C3 1_555 1_555
C3 C4 1_555 1_555
O5 C6 1_555 1_555
C4 C8 1_555 1_555
C5 C8 1_555 1_555
C6 C1 1_555 1_555
C7 C9 1_555 1_555
O6 C14 1_555 1_555
C8 O1 1_555 1_555
C9 C5 1_555 1_555
C10 C15 1_555 1_555
C11 C12 1_555 1_555
C12 C13 1_555 1_555
C13 C19 1_555 1_555
C14 C16 1_555 1_555
C15 C5 1_555 1_555
C16 C11 1_555 1_555
C17 C7 1_555 1_555
C18 C7 1_555 1_555
C19 C14 1_555 1_555
C20 O6 1_555 1_555
C21 C20 1_555 1_555
H1 C1 1_555 1_555
H2 C2 1_555 1_555
H3 C3 1_555 1_555
H4 C4 1_555 1_555
H5 C6 1_555 1_555
H6 C6 1_555 1_555
H7 C8 1_555 1_555
H8 C9 1_555 1_555
H9 C10 1_555 1_555
H10 C11 1_555 1_555
H11 C13 1_555 1_555
H12 C15 1_555 1_555
H13 C16 1_555 1_555
H14 C18 1_555 1_555
H15 C18 1_555 1_555
H16 C19 1_555 1_555
H17 C20 1_555 1_555
H18 C20 1_555 1_555
H19 C21 1_555 1_555
H20 C21 1_555 1_555
H21 C21 1_555 1_555
H22 O3 1_555 1_555
H23 O4 1_555 1_555
H24 O2 1_555 1_555
H25 O5 1_555 1_555
Cl2 C35 1_555 1_555
O7 C22 1_555 1_555
O8 C27 1_555 1_555
C22 C23 1_555 1_555
O9 C29 1_555 1_555
C23 O12 1_555 1_555
O10 C28 1_555 1_555
C24 O7 1_555 1_555
C25 C22 1_555 1_555
O11 C32 1_555 1_555
C26 C31 1_555 1_555
O12 H50 1_555 1_555
C27 C23 1_555 1_555
C28 C24 1_555 1_555
C29 C24 1_555 1_555
C30 C35 1_555 1_555
C31 C25 1_555 1_555
C32 C34 1_555 1_555
C33 C26 1_555 1_555
C34 C38 1_555 1_555
C35 C26 1_555 1_555
C36 C32 1_555 1_555
C37 C25 1_555 1_555
C38 C40 1_555 1_555
C39 O11 1_555 1_555
C40 C33 1_555 1_555
C41 C36 1_555 1_555
C42 C39 1_555 1_555
H26 C22 1_555 1_555
H27 C23 1_555 1_555
H28 C24 1_555 1_555
H29 C27 1_555 1_555
H30 C28 1_555 1_555
H31 C28 1_555 1_555
H32 C29 1_555 1_555
H33 C30 1_555 1_555
H34 C31 1_555 1_555
H35 C33 1_555 1_555
H36 C33 1_555 1_555
H37 C34 1_555 1_555
H38 C36 1_555 1_555
H39 C37 1_555 1_555
H40 C38 1_555 1_555
H41 C39 1_555 1_555
H42 C39 1_555 1_555
H43 C41 1_555 1_555
H44 C42 1_555 1_555
H45 C42 1_555 1_555
H46 C42 1_555 1_555
H47 O10 1_555 1_555
H48 O9 1_555 1_555
H49 O8 1_555 1_555
Cl3 C53 1_555 1_555
O13 C49 1_555 1_555
O14 C44 1_555 1_555
O15 C46 1_555 1_555
C43 C44 1_555 1_555
O16 C52 1_555 1_555
O17 C47 1_555 1_555
C44 C46 1_555 1_555
O18 C54 1_555 1_555
C45 O14 1_555 1_555
C46 C49 1_555 1_555
C47 C45 1_555 1_555
C48 C43 1_555 1_555
C49 C52 1_555 1_555
C50 C53 1_555 1_555
C51 C48 1_555 1_555
C52 C45 1_555 1_555
C53 C51 1_555 1_555
C54 C59 1_555 1_555
C55 C56 1_555 1_555
C56 C57 1_555 1_555
C57 C59 1_555 1_555
C58 C43 1_555 1_555
C59 H63 1_555 1_555
C60 C54 1_555 1_555
C61 O18 1_555 1_555
C62 C51 1_555 1_555
C63 C61 1_555 1_555
H51 C44 1_555 1_555
H52 C45 1_555 1_555
H53 C46 1_555 1_555
H54 C47 1_555 1_555
H55 C47 1_555 1_555
H56 C48 1_555 1_555
H57 C49 1_555 1_555
H58 C50 1_555 1_555
H59 C52 1_555 1_555
H60 C55 1_555 1_555
H61 C57 1_555 1_555
H62 C58 1_555 1_555
H64 C60 1_555 1_555
H65 C61 1_555 1_555
H66 C61 1_555 1_555
H67 C62 1_555 1_555
H68 C62 1_555 1_555
H69 C63 1_555 1_555
H70 C63 1_555 1_555
H71 C63 1_555 1_555
H72 O15 1_555 1_555
H73 O13 1_555 1_555
H74 O16 1_555 1_555
H75 O17 1_555 1_555
Cl4 C79 1_555 1_555
O19 C65 1_555 1_555
O20 C67 1_555 1_555
O21 C69 1_555 1_555
O22 C75 1_555 1_555
C64 C65 1_555 1_555
C65 C67 1_555 1_555
C66 C64 1_555 1_555
C67 C75 1_555 1_555
C68 C71 1_555 1_555
C69 C73 1_555 1_555
C70 C73 1_555 1_555
C71 C80 1_555 1_555
C72 C66 1_555 1_555
C73 O19 1_555 1_555
C74 C80 1_555 1_555
C75 C69 1_555 1_555
C76 C68 1_555 1_555
C77 C78 1_555 1_555
O23 C70 1_555 1_555
C78 C64 1_555 1_555
C79 C72 1_555 1_555
C80 H88 1_555 1_555
O24 C74 1_555 1_555
C81 C68 1_555 1_555
C82 C74 1_555 1_555
C83 O24 1_555 1_555
C84 C83 1_555 1_555
H76 C65 1_555 1_555
H77 C66 1_555 1_555
H78 C67 1_555 1_555
H79 C69 1_555 1_555
H80 C70 1_555 1_555
H81 C70 1_555 1_555
H82 C71 1_555 1_555
H83 C72 1_555 1_555
H84 C73 1_555 1_555
H85 C75 1_555 1_555
H86 C76 1_555 1_555
H87 C78 1_555 1_555
H89 C81 1_555 1_555
H90 C81 1_555 1_555
H91 C82 1_555 1_555
H92 C83 1_555 1_555
H93 C83 1_555 1_555
H94 C84 1_555 1_555
H95 C84 1_555 1_555
H96 C84 1_555 1_555
H97 O21 1_555 1_555
H98 O22 1_555 1_555
H99 O20 1_555 1_555
H100 O23 1_555 1_555
O25 C85 1_555 1_555
O26 C85 1_555 1_555
N1 C87 1_555 1_555
C85 C88 1_555 1_555
C86 C88 1_555 1_555
C87 C89 1_555 1_555
C88 N1 1_555 1_555
C89 C86 1_555 1_555
H101 N1 1_555 1_555
H102 C86 1_555 1_555
H103 C86 1_555 1_555
H104 C87 1_555 1_555
H105 C87 1_555 1_555
H106 C88 1_555 1_555
H107 C89 1_555 1_555
H108 C89 1_555 1_555
H109 N1 1_555 1_555
O27 C92 1_555 1_555
O28 C92 1_555 1_555
N2 C90 1_555 1_555
C90 C91 1_555 1_555
C91 C93 1_555 1_555
C92 C90 1_555 1_555
C93 C94 1_555 1_555
C94 N2 1_555 1_555
H110 N2 1_555 1_555
H111 C90 1_555 1_555
H112 C91 1_555 1_555
H113 C91 1_555 1_555
H114 C93 1_555 1_555
H115 C93 1_555 1_555
H116 C94 1_555 1_555
H117 C94 1_555 1_555
H118 N2 1_555 1_555
N3 C97 1_555 1_555
C95 O29 1_555 1_555
O30 C95 1_555 1_555
C96 C97 1_555 1_555
C97 C95 1_555 1_555
C98 N3 1_555 1_555
C99 C96 1_555 1_555
H119 N3 1_555 1_555
H120 C96 1_555 1_555
H121 C96 1_555 1_555
H122 C97 1_555 1_555
H123 C98 1_555 1_555
H124 C98 1_555 1_555
H125 C99 1_555 1_555
H126 C99 1_555 1_555
H127 N3 1_555 1_555
O31 C101 1_555 1_555
O32 C101 1_555 1_555
C100 N4 1_555 1_555
N4 C104 1_555 1_555
C101 C100 1_555 1_555
C102 C100 1_555 1_555
C103 C102 1_555 1_555
C104 C103 1_555 1_555
H128 C100 1_555 1_555
H129 N4 1_555 1_555
H130 C102 1_555 1_555
H131 C102 1_555 1_555
H132 C103 1_555 1_555
H133 C103 1_555 1_555
H134 C104 1_555 1_555
H135 C104 1_555 1_555
H136 N4 1_555 1_555
O33 H137 1_555 1_555
H138 O33 1_555 1_555
O34 H139 1_555 1_555
H140 O34 1_555 1_555
C10 C17 1_555 1_555
C12 C18 1_555 1_555
C27 C29 1_555 1_555
C30 C37 1_555 1_555
C40 C41 1_555 1_555
C50 C58 1_555 1_555
C55 C60 1_555 1_555
C56 C62 1_555 1_555
C76 C82 1_555 1_555
C77 C79 1_555 1_555
C77 C81 1_555 1_555
C98 C99 1_555 1_555

#END
