
#######################################################################
#
#                 Cambridge Crystallographic Data Centre
#                                CCDC 
#
#######################################################################
#
# If this CIF has been generated from an entry in the Cambridge 
# Structural Database, then it will include bibliographic, chemical, 
# crystal, experimental, refinement or atomic coordinate data resulting 
# from the CCDC's data processing and validation procedures.
#
#######################################################################

data_CIRGOB
_chemical_formula_moiety         'C16 H23 N1 O3'
_chemical_name_systematic        
11-Hydroxy-17-oxa-6-azapentacyclo[13.2.1.0^1,6^.0^2,10^.0^2,13^]octadecan-16-one
_symmetry_cell_setting           orthorhombic
_symmetry_space_group_name_H-M   'P 21 21 21'
_symmetry_Int_Tables_number      19
_space_group_name_Hall           'P 2ac 2ab'
loop_
_symmetry_equiv_pos_site_id
_symmetry_equiv_pos_as_xyz
1 x,y,z
2 1/2-x,-y,1/2+z
3 -x,1/2+y,1/2-z
4 1/2+x,1/2-y,-z
_cell_length_a                   8.6643(6)
_cell_length_b                   16.9926(12)
_cell_length_c                   19.0390(14)
_cell_angle_alpha                90
_cell_angle_beta                 90
_cell_angle_gamma                90
_cell_volume                     2803.09
_exptl_crystal_colour            colorless
_exptl_crystal_description       prismatic
_cell_formula_units_Z            8
loop_
_atom_site_label
_atom_site_type_symbol
_atom_site_fract_x
_atom_site_fract_y
_atom_site_fract_z
N1 N 0.48596(18) 0.20511(8) 0.72070(8)
O1 O 0.0308(2) 0.22498(10) 0.83281(9)
O2 O 0.25772(16) 0.23649(7) 0.77956(6)
O3 O 0.1877(2) 0.48474(8) 0.71136(9)
H1 H 0.2536 0.5165 0.6990
C1 C 0.1108(3) 0.20917(12) 0.78394(12)
C2 C 0.0763(3) 0.16246(13) 0.71915(12)
H2 H 0.0114 0.1166 0.7293
C3 C 0.2373(2) 0.13870(11) 0.69592(11)
H3 H 0.2405 0.1249 0.6465
H4 H 0.2777 0.0955 0.7237
C4 C 0.3221(2) 0.21567(10) 0.71080(8)
C5 C 0.2824(2) 0.27993(11) 0.65770(9)
C6 C 0.3598(3) 0.25729(13) 0.58759(10)
H5 H 0.2970 0.2171 0.5653
H6 H 0.3582 0.3031 0.5572
C7 C 0.5239(3) 0.22730(14) 0.59097(11)
H7 H 0.5938 0.2719 0.5919
H8 H 0.5457 0.1973 0.5488
C8 C 0.5550(3) 0.17557(12) 0.65491(11)
H9 H 0.5152 0.1232 0.6457
H10 H 0.6657 0.1711 0.6613
C9 C 0.5705(2) 0.27149(11) 0.75330(11)
H11 H 0.6640 0.2499 0.7736
H12 H 0.5079 0.2902 0.7921
C10 C 0.6181(2) 0.34397(12) 0.71051(12)
H13 H 0.6916 0.3271 0.6752
H14 H 0.6719 0.3798 0.7418
C11 C 0.4897(2) 0.39068(11) 0.67318(11)
H15 H 0.4970 0.4454 0.6872
H16 H 0.5072 0.3882 0.6229
C12 C 0.3286(2) 0.36171(10) 0.68844(10)
H17 H 0.3231 0.3558 0.7396
C13 C 0.1974(3) 0.41653(12) 0.66892(11)
H18 H 0.2050 0.4313 0.6193
C14 C 0.0581(3) 0.36482(13) 0.68049(13)
H19 H -0.0332 0.3874 0.6589
H20 H 0.0389 0.3569 0.7302
C15 C 0.1038(3) 0.28771(13) 0.64466(12)
H21 H 0.0905 0.2961 0.5941
C16 C 0.0047(3) 0.21546(15) 0.66382(15)
H22 H -0.0948 0.2335 0.6807
H23 H -0.0132 0.1848 0.6216
N2 N 0.3039(2) -0.00034(10) 1.06197(9)
O4 O 0.8067(3) -0.06134(12) 1.03743(11)
O5 O 0.5579(2) -0.03080(8) 1.03020(7)
O6 O 0.5760(2) 0.09366(8) 0.81998(7)
C17 C 0.7011(3) -0.02069(15) 1.05628(13)
C18 C 0.7000(3) 0.04741(17) 1.10625(12)
H24 H 0.7677 0.0382 1.1466
C19 C 0.5320(3) 0.05020(16) 1.12758(10)
H25 H 0.5026 0.1017 1.1450
H26 H 0.5075 0.0105 1.1625
C20 C 0.4575(3) 0.03219(11) 1.05709(10)
C21 C 0.4684(2) 0.10327(10) 1.00798(9)
C22 C 0.3533(2) 0.16552(11) 1.03526(11)
H27 H 0.4001 0.1920 1.0750
H28 H 0.3389 0.2046 0.9987
C23 C 0.1940(3) 0.13605(14) 1.05782(13)
H29 H 0.1480 0.1742 1.0894
H30 H 0.1283 0.1319 1.0167
C24 C 0.2007(3) 0.05612(15) 1.09447(13)
H31 H 0.2330 0.0641 1.1427
H32 H 0.0976 0.0339 1.0954
C25 C 0.2418(3) -0.03801(13) 0.99831(13)
H33 H 0.1619 -0.0742 1.0135
H34 H 0.3242 -0.0697 0.9786
C26 C 0.1743(3) 0.01023(17) 0.93820(13)
H35 H 0.0807 0.0352 0.9552
H36 H 0.1443 -0.0260 0.9013
C27 C 0.2763(3) 0.07448(14) 0.90502(11)
H37 H 0.2774 0.0669 0.8545
H38 H 0.2295 0.1253 0.9142
C28 C 0.4404(2) 0.07629(10) 0.93090(9)
H39 H 0.4781 0.0220 0.9281
C29 C 0.5519(3) 0.12540(11) 0.88830(9)
H40 H 0.5125 0.1793 0.8843
C30 C 0.6955(3) 0.12517(12) 0.93268(10)
H41 H 0.7670 0.1658 0.9178
H42 H 0.7470 0.0745 0.9309
C31 C 0.6326(2) 0.14189(11) 1.00592(10)
H43 H 0.6155 0.1989 1.0079
C32 C 0.7423(3) 0.12245(15) 1.06757(12)
H44 H 0.8466 0.1175 1.0496
H45 H 0.7412 0.1659 1.1006
H46 H 0.540(3) 0.1223(14) 0.7887(12)
loop_
_geom_bond_atom_site_label_1
_geom_bond_atom_site_label_2
_geom_bond_site_symmetry_1
_geom_bond_site_symmetry_2
N1 C4 1_555 1_555
O1 C1 1_555 1_555
O2 C1 1_555 1_555
O3 H1 1_555 1_555
C1 C2 1_555 1_555
C2 H2 1_555 1_555
C3 C2 1_555 1_555
H3 C3 1_555 1_555
H4 C3 1_555 1_555
C4 O2 1_555 1_555
C5 C4 1_555 1_555
C6 C5 1_555 1_555
H5 C6 1_555 1_555
H6 C6 1_555 1_555
C7 C6 1_555 1_555
H7 C7 1_555 1_555
H8 C7 1_555 1_555
C8 N1 1_555 1_555
H9 C8 1_555 1_555
H10 C8 1_555 1_555
C9 N1 1_555 1_555
H11 C9 1_555 1_555
H12 C9 1_555 1_555
C10 C9 1_555 1_555
H13 C10 1_555 1_555
H14 C10 1_555 1_555
C11 C10 1_555 1_555
H15 C11 1_555 1_555
H16 C11 1_555 1_555
C12 C5 1_555 1_555
H17 C12 1_555 1_555
C13 O3 1_555 1_555
H18 C13 1_555 1_555
C14 C13 1_555 1_555
H19 C14 1_555 1_555
H20 C14 1_555 1_555
C15 C5 1_555 1_555
H21 C15 1_555 1_555
C16 C2 1_555 1_555
H22 C16 1_555 1_555
H23 C16 1_555 1_555
N2 C20 1_555 1_555
O4 C17 1_555 1_555
O5 C17 1_555 1_555
O6 C29 1_555 1_555
C17 C18 1_555 1_555
C18 H24 1_555 1_555
C19 C18 1_555 1_555
H25 C19 1_555 1_555
H26 C19 1_555 1_555
C20 O5 1_555 1_555
C21 C20 1_555 1_555
C22 C21 1_555 1_555
H27 C22 1_555 1_555
H28 C22 1_555 1_555
C23 C22 1_555 1_555
H29 C23 1_555 1_555
H30 C23 1_555 1_555
C24 N2 1_555 1_555
H31 C24 1_555 1_555
H32 C24 1_555 1_555
C25 N2 1_555 1_555
H33 C25 1_555 1_555
H34 C25 1_555 1_555
C26 C25 1_555 1_555
H35 C26 1_555 1_555
H36 C26 1_555 1_555
C27 C26 1_555 1_555
H37 C27 1_555 1_555
H38 C27 1_555 1_555
C28 C21 1_555 1_555
H39 C28 1_555 1_555
C29 C28 1_555 1_555
H40 C29 1_555 1_555
C30 C29 1_555 1_555
H41 C30 1_555 1_555
H42 C30 1_555 1_555
C31 C21 1_555 1_555
H43 C31 1_555 1_555
C32 C18 1_555 1_555
H44 C32 1_555 1_555
H45 C32 1_555 1_555
H46 O6 1_555 1_555
C3 C4 1_555 1_555
C7 C8 1_555 1_555
C11 C12 1_555 1_555
C12 C13 1_555 1_555
C14 C15 1_555 1_555
C15 C16 1_555 1_555
C19 C20 1_555 1_555
C23 C24 1_555 1_555
C27 C28 1_555 1_555
C30 C31 1_555 1_555
C31 C32 1_555 1_555

#END
