
#######################################################################
#
#                 Cambridge Crystallographic Data Centre
#                                CCDC 
#
#######################################################################
#
# If this CIF has been generated from an entry in the Cambridge 
# Structural Database, then it will include bibliographic, chemical, 
# crystal, experimental, refinement or atomic coordinate data resulting 
# from the CCDC's data processing and validation procedures.
#
#######################################################################

data_CIRHER
_chemical_formula_moiety         'C20 H15 N1 O3'
_chemical_name_systematic        
'Methyl 9-oxo-5H,9H-5,13b-methanoisoindolo(1,2-a)(2)benzazepine-6-carboxylate'
_symmetry_cell_setting           monoclinic
_symmetry_space_group_name_H-M   'P 21/c'
_symmetry_Int_Tables_number      14
_space_group_name_Hall           '-P 2ybc'
loop_
_symmetry_equiv_pos_site_id
_symmetry_equiv_pos_as_xyz
1 x,y,z
2 -x,1/2+y,1/2-z
3 -x,-y,-z
4 x,1/2-y,1/2+z
_cell_length_a                   13.4999(5)
_cell_length_b                   13.3510(5)
_cell_length_c                   8.4082(3)
_cell_angle_alpha                90
_cell_angle_beta                 91.0160(10)
_cell_angle_gamma                90
_cell_volume                     1515.23
_exptl_crystal_colour            colorless
_exptl_crystal_description       block
_chemical_melting_point          '118-120 deg.C'
_cell_formula_units_Z            4
loop_
_atom_site_label
_atom_site_type_symbol
_atom_site_fract_x
_atom_site_fract_y
_atom_site_fract_z
O1 O 0.01232(8) 0.38612(8) 0.53738(13)
O2 O 0.28800(9) 0.67093(10) 0.97977(14)
O3 O 0.12949(9) 0.61907(10) 0.98447(14)
N1 N 0.16611(9) 0.46182(10) 0.56842(15)
C1 C 0.09244(11) 0.40974(11) 0.48487(18)
C2 C 0.13351(11) 0.39223(11) 0.32529(18)
C3 C 0.08889(12) 0.34582(12) 0.19343(19)
H1 H 0.0243 0.3181 0.1990
C4 C 0.14222(13) 0.34169(12) 0.05409(19)
H2 H 0.1134 0.3111 -0.0377
C5 C 0.23731(13) 0.38160(12) 0.04667(19)
H3 H 0.2724 0.3777 -0.0501
C6 C 0.28192(12) 0.42713(12) 0.17847(19)
H4 H 0.3471 0.4536 0.1735
C7 C 0.22827(11) 0.43267(11) 0.31743(18)
C8 C 0.25764(11) 0.47770(11) 0.47463(17)
C9 C 0.34520(11) 0.43130(12) 0.56626(18)
C10 C 0.38681(12) 0.33704(13) 0.5563(2)
H5 H 0.3644 0.2903 0.4784
C11 C 0.46289(13) 0.31238(14) 0.6641(2)
H6 H 0.4929 0.2481 0.6592
C12 C 0.49503(12) 0.38074(15) 0.7782(2)
H7 H 0.5463 0.3624 0.8514
C13 C 0.45307(12) 0.47590(14) 0.7869(2)
H8 H 0.4751 0.5225 0.8653
C14 C 0.37852(11) 0.50116(12) 0.67855(19)
C15 C 0.31541(11) 0.59495(12) 0.66383(18)
H9 H 0.3519 0.6578 0.6924
C16 C 0.28254(12) 0.58994(12) 0.48717(18)
H10 H 0.2238 0.6325 0.4649
H11 H 0.3367 0.6091 0.4154
C17 C 0.22365(11) 0.57777(12) 0.76224(18)
C18 C 0.15361(11) 0.51353(11) 0.70915(17)
H12 H 0.0953 0.5037 0.7687
C19 C 0.21874(12) 0.62736(12) 0.91788(19)
C20 C 0.11797(15) 0.66721(15) 1.1366(2)
H13 H 0.0504 0.6564 1.1738
H14 H 0.1302 0.7392 1.1257
H15 H 0.1655 0.6387 1.2136
loop_
_geom_bond_atom_site_label_1
_geom_bond_atom_site_label_2
_geom_bond_site_symmetry_1
_geom_bond_site_symmetry_2
O1 C1 1_555 1_555
O2 C19 1_555 1_555
O3 C19 1_555 1_555
N1 C1 1_555 1_555
C1 C2 1_555 1_555
C2 C3 1_555 1_555
C3 H1 1_555 1_555
C4 C3 1_555 1_555
H2 C4 1_555 1_555
C5 C4 1_555 1_555
H3 C5 1_555 1_555
C6 C5 1_555 1_555
H4 C6 1_555 1_555
C7 C2 1_555 1_555
C8 N1 1_555 1_555
C9 C8 1_555 1_555
C10 C9 1_555 1_555
H5 C10 1_555 1_555
C11 C10 1_555 1_555
H6 C11 1_555 1_555
C12 C11 1_555 1_555
H7 C12 1_555 1_555
C13 C12 1_555 1_555
H8 C13 1_555 1_555
C14 C9 1_555 1_555
C15 C14 1_555 1_555
H9 C15 1_555 1_555
C16 C8 1_555 1_555
H10 C16 1_555 1_555
H11 C16 1_555 1_555
C17 C15 1_555 1_555
C18 N1 1_555 1_555
H12 C18 1_555 1_555
C19 C17 1_555 1_555
C20 O3 1_555 1_555
H13 C20 1_555 1_555
H14 C20 1_555 1_555
H15 C20 1_555 1_555
C6 C7 1_555 1_555
C7 C8 1_555 1_555
C13 C14 1_555 1_555
C15 C16 1_555 1_555
C17 C18 1_555 1_555

#END
