
#######################################################################
#
#                 Cambridge Crystallographic Data Centre
#                                CCDC 
#
#######################################################################
#
# If this CIF has been generated from an entry in the Cambridge 
# Structural Database, then it will include bibliographic, chemical, 
# crystal, experimental, refinement or atomic coordinate data resulting 
# from the CCDC's data processing and validation procedures.
#
#######################################################################

data_CIRPOL
_chemical_formula_moiety         'C20 H12 Br2 N2 O1'
_chemical_name_systematic        
(4-bromophenyl)(3-(4-bromophenyl)imidazo[1,2-a]pyridin-2-yl)methanone
_symmetry_cell_setting           orthorhombic
_symmetry_space_group_name_H-M   'P 21 21 21'
_symmetry_Int_Tables_number      19
_space_group_name_Hall           'P 2ac 2ab'
loop_
_symmetry_equiv_pos_site_id
_symmetry_equiv_pos_as_xyz
1 x,y,z
2 1/2+x,1/2-y,-z
3 -x,1/2+y,1/2-z
4 1/2-x,-y,1/2+z
_cell_length_a                   7.3631(3)
_cell_length_b                   11.8392(4)
_cell_length_c                   19.6287(6)
_cell_angle_alpha                90
_cell_angle_beta                 90
_cell_angle_gamma                90
_cell_volume                     1711.1
_exptl_crystal_colour            yellow
_chemical_melting_point          '435-438 K'
_cell_formula_units_Z            4
loop_
_atom_site_label
_atom_site_type_symbol
_atom_site_fract_x
_atom_site_fract_y
_atom_site_fract_z
Br1 Br 0.65377(8) 0.97505(5) 0.26803(3)
N1 N 0.6693(5) 0.5637(3) 0.65782(16)
Br2 Br 0.69476(8) -0.00615(4) 0.57534(2)
O1 O 0.7000(5) 0.4873(3) 0.45048(16)
N2 N 0.6703(6) 0.7019(3) 0.58027(17)
C1 C 0.6627(7) 0.8547(4) 0.3323(2)
C2 C 0.6208(8) 0.7468(5) 0.3119(2)
H1 H 0.5871 0.7323 0.2671
C3 C 0.6295(8) 0.6603(4) 0.3589(2)
H2 H 0.6011 0.5870 0.3456
C4 C 0.6802(6) 0.6815(3) 0.42592(19)
C5 C 0.6908(7) 0.5824(4) 0.4735(2)
C6 C 0.6830(6) 0.5981(3) 0.5482(2)
C7 C 0.6877(6) 0.3865(3) 0.58957(19)
C8 C 0.5412(7) 0.3284(4) 0.5629(2)
H3 H 0.4407 0.3686 0.5476
C9 C 0.5408(8) 0.2115(4) 0.5584(2)
H4 H 0.4412 0.1731 0.5408
C10 C 0.6918(7) 0.1538(3) 0.5808(2)
C11 C 0.6616(7) 0.6798(4) 0.6459(2)
C12 C 0.8406(8) 0.2084(4) 0.6072(2)
H5 H 0.9413 0.1677 0.6220
C13 C 0.8377(8) 0.3257(4) 0.6116(2)
H6 H 0.9374 0.3637 0.6294
C14 C 0.6595(6) 0.5196(4) 0.7232(2)
H7 H 0.6635 0.4419 0.7303
C15 C 0.6441(8) 0.5907(5) 0.7761(2)
H8 H 0.6403 0.5621 0.8202
C16 C 0.6337(8) 0.7086(5) 0.7656(2)
H9 H 0.6200 0.7562 0.8029
C17 C 0.6432(9) 0.7535(4) 0.7023(2)
H10 H 0.6378 0.8312 0.6959
C18 C 0.7259(9) 0.7903(4) 0.4439(2)
H11 H 0.7636 0.8054 0.4882
C19 C 0.7167(8) 0.8778(4) 0.3969(2)
H12 H 0.7470 0.9512 0.4096
C20 C 0.6828(6) 0.5110(3) 0.59542(19)
loop_
_geom_bond_atom_site_label_1
_geom_bond_atom_site_label_2
_geom_bond_site_symmetry_1
_geom_bond_site_symmetry_2
Br1 C1 1_555 1_555
N1 C11 1_555 1_555
Br2 C10 1_555 1_555
O1 C5 1_555 1_555
N2 C6 1_555 1_555
C1 C2 1_555 1_555
C2 H1 1_555 1_555
C3 C2 1_555 1_555
H2 C3 1_555 1_555
C4 C3 1_555 1_555
C5 C4 1_555 1_555
C6 C5 1_555 1_555
C7 C8 1_555 1_555
C8 H3 1_555 1_555
C9 C8 1_555 1_555
H4 C9 1_555 1_555
C10 C9 1_555 1_555
C11 N2 1_555 1_555
C12 C10 1_555 1_555
H5 C12 1_555 1_555
C13 C7 1_555 1_555
H6 C13 1_555 1_555
C14 N1 1_555 1_555
H7 C14 1_555 1_555
C15 C14 1_555 1_555
H8 C15 1_555 1_555
C16 C15 1_555 1_555
H9 C16 1_555 1_555
C17 C11 1_555 1_555
H10 C17 1_555 1_555
C18 C4 1_555 1_555
H11 C18 1_555 1_555
C19 C1 1_555 1_555
H12 C19 1_555 1_555
C20 N1 1_555 1_555
C6 C20 1_555 1_555
C7 C20 1_555 1_555
C12 C13 1_555 1_555
C16 C17 1_555 1_555
C18 C19 1_555 1_555

#END
