
#######################################################################
#
#                 Cambridge Crystallographic Data Centre
#                                CCDC 
#
#######################################################################
#
# If this CIF has been generated from an entry in the Cambridge 
# Structural Database, then it will include bibliographic, chemical, 
# crystal, experimental, refinement or atomic coordinate data resulting 
# from the CCDC's data processing and validation procedures.
#
#######################################################################

data_CISFAL
_chemical_name_common            'Ancaolan I'
_chemical_formula_moiety         'C11 H16 Cl1 N2 O4 P1 S1'
_chemical_name_systematic        
'Ethyl O-(2-nitro-6-chlorophenyl)-N-isopropyl-phosphoramidothioate'
_chemical_properties_biological  'weed killer'
_symmetry_cell_setting           monoclinic
_symmetry_space_group_name_H-M   'P 21/c'
_symmetry_Int_Tables_number      14
_space_group_name_Hall           '-P 2ybc'
loop_
_symmetry_equiv_pos_site_id
_symmetry_equiv_pos_as_xyz
1 x,y,z
2 -x,1/2+y,1/2-z
3 -x,-y,-z
4 x,1/2-y,1/2+z
_cell_length_a                   8.575
_cell_length_b                   26.541
_cell_length_c                   7.063
_cell_angle_alpha                90
_cell_angle_beta                 94.744
_cell_angle_gamma                90
_cell_volume                     1601.95
_exptl_crystal_colour            colorless
_chemical_melting_point          58-60deg.C
_cell_formula_units_Z            4
loop_
_atom_site_label
_atom_site_type_symbol
_atom_site_fract_x
_atom_site_fract_y
_atom_site_fract_z
P1 P 0.5490(3) 0.4050(1) 0.3656(3)
Cl1 Cl 0.1479(3) 0.3799(1) 0.1045(5)
S1 S 0.393 0.4125 0.5413(4)
O1 O 0.4932(7) 0.3800(2) 0.1635(9)
O2 O 0.7614(9) 0.2597(3) 0.2503(12)
O3 O 0.6805(7) 0.3646(2) 0.4294(9)
O4 O 0.7470(8) 0.3236(3) 0.0525(11)
N1 N 0.6328(9) 0.4566(3) 0.3034(11)
N2 N 0.6911(10) 0.2915(3) 0.1491(13)
C1 C 0.4273(10) 0.3316(3) 0.1433(14)
C2 C 0.5170(10) 0.2884(3) 0.1412(14)
C3 C 0.4506(12) 0.2396(4) 0.1218(16)
C4 C 0.2845(13) 0.2358(4) 0.1006(18)
C5 C 0.1953(10) 0.2787(4) 0.0936(18)
C6 C 0.2630(12) 0.3264(4) 0.1157(16)
C7 C 0.777(1) 0.3732 0.6128(17)
C8 C 0.935(2) 0.3484 0.5915(19)
C9 C 0.7639(10) 0.4562(4) 0.1698(11)
C10 C 0.8986(14) 0.4880(5) 0.2616(19)
C11 C 0.6981(15) 0.4775(5) -0.0243(20)
H1 H 0.5300 0.2033 0.1250
H2 H 0.2400 0.1967 0.0625
H3 H 0.0800 0.2753 0.1050
H4 H 0.5750 0.4883 0.3187
H5 H 0.8200 0.4117 0.6187
H6 H 0.7200 0.3633 0.7437
H7 H 1.0100 0.3717 0.4800
H8 H 0.9100 0.3150 0.5625
H9 H 0.9800 0.3567 0.7250
H10 H 0.7850 0.4133 0.1563
H11 H 0.9900 0.4751 0.1935
H12 H 0.9100 0.5100 0.4062
H13 H 0.8600 0.5233 0.2000
H14 H 0.6150 0.4500 -0.1200
H15 H 0.8000 0.4917 -0.0875
H16 H 0.6400 0.5083 0.0249
loop_
_geom_bond_atom_site_label_1
_geom_bond_atom_site_label_2
_geom_bond_site_symmetry_1
_geom_bond_site_symmetry_2
P1 S1 1_555 1_555
Cl1 C6 1_555 1_555
O1 P1 1_555 1_555
O2 N2 1_555 1_555
O3 P1 1_555 1_555
O4 N2 1_555 1_555
N1 P1 1_555 1_555
N2 C2 1_555 1_555
C1 O1 1_555 1_555
C2 C1 1_555 1_555
C3 C2 1_555 1_555
C4 C3 1_555 1_555
C5 C4 1_555 1_555
C6 C1 1_555 1_555
C7 O3 1_555 1_555
C8 C7 1_555 1_555
C9 N1 1_555 1_555
C10 C9 1_555 1_555
C11 C9 1_555 1_555
H1 C3 1_555 1_555
H2 C4 1_555 1_555
H3 C5 1_555 1_555
H4 N1 1_555 1_555
H5 C7 1_555 1_555
H6 C7 1_555 1_555
H7 C8 1_555 1_555
H8 C8 1_555 1_555
H9 C8 1_555 1_555
H10 C9 1_555 1_555
H11 C10 1_555 1_555
H12 C10 1_555 1_555
H13 C10 1_555 1_555
H14 C11 1_555 1_555
H15 C11 1_555 1_555
H16 C11 1_555 1_555
C5 C6 1_555 1_555

#END
