
#######################################################################
#
#                 Cambridge Crystallographic Data Centre
#                                CCDC 
#
#######################################################################
#
# If this CIF has been generated from an entry in the Cambridge 
# Structural Database, then it will include bibliographic, chemical, 
# crystal, experimental, refinement or atomic coordinate data resulting 
# from the CCDC's data processing and validation procedures.
#
#######################################################################

data_CISMUO
_chemical_formula_moiety         'C42 H54 O6 Se4'
_chemical_name_systematic        
3,4,6,7,9,10-Hexabutoxybisselenopheno[2',3',4',5':4,5;2'',3'',4'',5'':8,9]triphenyleno[1,12-cde][1,2]diselenine
_symmetry_cell_setting           monoclinic
_symmetry_space_group_name_H-M   'P 21/c'
_symmetry_Int_Tables_number      14
_space_group_name_Hall           '-P 2ybc'
loop_
_symmetry_equiv_pos_site_id
_symmetry_equiv_pos_as_xyz
1 x,y,z
2 -x,1/2+y,1/2-z
3 -x,-y,-z
4 x,1/2-y,1/2+z
_cell_length_a                   15.3394(2)
_cell_length_b                   32.6386(4)
_cell_length_c                   16.4775(3)
_cell_angle_alpha                90
_cell_angle_beta                 102.2320(10)
_cell_angle_gamma                90
_cell_volume                     8062.28
_exptl_crystal_colour            yellow
_exptl_crystal_description       platelet
_chemical_melting_point          '322.8 K'
_cell_formula_units_Z            8
loop_
_atom_site_label
_atom_site_type_symbol
_atom_site_fract_x
_atom_site_fract_y
_atom_site_fract_z
Se1 Se 0.64648(3) 0.247473(14) 0.54407(3)
Se2 Se 0.89124(3) 0.083721(13) 0.65070(3)
Se3 Se 1.10625(3) 0.247461(13) 0.81983(3)
Se4 Se 1.05661(3) 0.299066(15) 0.72389(4)
O1 O 0.5818(2) 0.14471(10) 0.4880(2)
O2 O 0.6901(2) 0.07982(9) 0.5364(2)
O3 O 1.09249(19) 0.09006(9) 0.76218(18)
O4 O 1.17145(18) 0.16446(9) 0.83093(18)
O5 O 0.9137(2) 0.35389(9) 0.66119(19)
O6 O 0.7433(2) 0.34444(10) 0.5947(2)
C1 C 0.8168(3) 0.23633(12) 0.6355(2)
C2 C 0.7800(3) 0.19683(12) 0.6129(3)
C3 C 0.8329(3) 0.16257(13) 0.6334(2)
C4 C 0.9217(3) 0.16644(13) 0.6794(2)
C5 C 0.9603(3) 0.20455(12) 0.7060(3)
C6 C 0.9058(3) 0.24157(12) 0.6796(3)
C7 C 0.7582(3) 0.26893(13) 0.6058(3)
C8 C 0.6934(3) 0.19299(13) 0.5656(3)
C9 C 0.8016(3) 0.12341(12) 0.6104(3)
C10 C 0.9650(3) 0.12857(12) 0.6977(3)
C11 C 1.0468(3) 0.20216(13) 0.7573(3)
C12 C 0.9345(3) 0.28301(13) 0.6892(3)
C13 C 0.6614(3) 0.15399(14) 0.5396(3)
C14 C 0.7159(3) 0.11846(13) 0.5635(3)
C15 C 1.0498(3) 0.12714(13) 0.7466(3)
C16 C 1.0900(3) 0.16462(13) 0.7772(3)
C17 C 0.8779(3) 0.31485(13) 0.6592(3)
C18 C 0.7881(3) 0.30899(13) 0.6190(3)
C19 C 0.5132(3) 0.17486(14) 0.4681(3)
H1 H 0.5319 0.1970 0.4345
H2 H 0.5009 0.1870 0.5196
C20 C 0.6093(3) 0.06364(15) 0.5561(4)
H3 H 0.5567 0.0722 0.5135
H4 H 0.6020 0.0740 0.6108
C21 C 1.1049(3) 0.07625(14) 0.8478(3)
H5 H 1.0464 0.0731 0.8635
H6 H 1.1408 0.0964 0.8857
C22 C 1.2441(3) 0.15456(13) 0.7896(3)
H7 H 1.2420 0.1728 0.7412
H8 H 1.2387 0.1259 0.7698
C23 C 0.8945(4) 0.37936(15) 0.7269(3)
H9 H 0.9210 0.3671 0.7816
H10 H 0.8292 0.3813 0.7220
C24 C 0.6542(3) 0.34455(13) 0.5469(3)
H11 H 0.6138 0.3299 0.5765
H12 H 0.6514 0.3311 0.4925
C25 C 0.4315(3) 0.15401(14) 0.4200(3)
H13 H 0.4112 0.1335 0.4563
H14 H 0.4473 0.1391 0.3728
C26 C 0.6174(3) 0.01750(15) 0.5580(4)
H15 H 0.5580 0.0057 0.5579
H16 H 0.6349 0.0085 0.5063
C27 C 1.1525(3) 0.03570(14) 0.8539(3)
H17 H 1.1173 0.0167 0.8130
H18 H 1.1548 0.0241 0.9099
C28 C 1.3311(3) 0.16050(13) 0.8523(3)
H19 H 1.3268 0.1465 0.9047
H20 H 1.3799 0.1474 0.8310
C29 C 0.9326(4) 0.42116(16) 0.7208(4)
H21 H 0.9049 0.4328 0.6659
H22 H 0.9151 0.4388 0.7636
C30 C 0.6281(3) 0.38924(13) 0.5353(3)
H23 H 0.6674 0.4028 0.5029
H24 H 0.6380 0.4026 0.5904
C31 C 0.3555(4) 0.18297(17) 0.3869(4)
H25 H 0.3743 0.2024 0.3478
H26 H 0.3416 0.1990 0.4335
C32 C 0.6831(4) 0.00012(16) 0.6307(3)
H27 H 0.6665 0.0090 0.6828
H28 H 0.7432 0.0111 0.6306
C33 C 1.2469(3) 0.03777(15) 0.8391(3)
H29 H 1.2810 0.0588 0.8760
H30 H 1.2447 0.0462 0.7809
C34 C 1.3541(3) 0.20510(15) 0.8706(3)
H31 H 1.3077 0.2178 0.8960
H32 H 1.3544 0.2196 0.8179
C35 C 1.0316(4) 0.42334(18) 0.7311(5)
H33 H 1.0494 0.4072 0.6864
H34 H 1.0599 0.4107 0.7848
C36 C 0.5313(3) 0.39559(14) 0.4910(3)
H35 H 0.5203 0.3815 0.4366
H36 H 0.4915 0.3833 0.5245
C37 C 0.2725(4) 0.1606(2) 0.3428(6)
H37 H 0.2251 0.1806 0.3225
H38 H 0.2529 0.1417 0.3816
H39 H 0.2857 0.1452 0.2959
C38 C 0.6864(4) -0.04674(16) 0.6288(4)
H40 H 0.7299 -0.0567 0.6772
H41 H 0.7041 -0.0557 0.5778
H42 H 0.6274 -0.0578 0.6301
C39 C 1.2952(4) -0.00339(18) 0.8553(4)
H43 H 1.3556 -0.0008 0.8451
H44 H 1.2623 -0.0242 0.8181
H45 H 1.2986 -0.0116 0.9131
C40 C 1.4449(3) 0.21022(16) 0.9291(4)
H46 H 1.4573 0.2394 0.9394
H47 H 1.4912 0.1981 0.9038
H48 H 1.4445 0.1964 0.9818
C41 C 1.0659(5) 0.4666(2) 0.7286(7)
H49 H 1.1309 0.4661 0.7357
H50 H 1.0497 0.4826 0.7735
H51 H 1.0393 0.4791 0.6750
C42 C 0.5093(4) 0.44080(16) 0.4776(4)
H52 H 0.4467 0.4439 0.4491
H53 H 0.5479 0.4529 0.4437
H54 H 0.5191 0.4548 0.5314
Se5 Se 0.23151(3) 0.267921(16) 0.55695(4)
Se6 Se 0.63690(3) 0.270396(14) 0.78694(3)
Se7 Se 0.48010(3) 0.082205(13) 0.74780(3)
Se8 Se 0.38572(3) 0.080277(14) 0.61688(3)
O7 O 0.3557(3) 0.35538(11) 0.6111(3)
O8 O 0.5127(3) 0.35798(10) 0.7075(2)
O9 O 0.7348(2) 0.17977(10) 0.8637(2)
O10 O 0.6531(2) 0.10748(9) 0.8370(2)
O11 O 0.2106(2) 0.10378(9) 0.5300(2)
O12 O 0.1274(2) 0.17918(10) 0.4985(2)
C43 C 0.3471(3) 0.20725(13) 0.6271(3)
C44 C 0.3919(3) 0.24519(13) 0.6482(3)
C45 C 0.4787(3) 0.24576(13) 0.6946(3)
C46 C 0.5222(3) 0.20813(13) 0.7209(3)
C47 C 0.4801(3) 0.16983(12) 0.7028(3)
C48 C 0.2608(3) 0.21139(13) 0.5785(3)
C49 C 0.3476(3) 0.28144(14) 0.6213(3)
C50 C 0.5225(3) 0.28243(13) 0.7177(3)
C51 C 0.6076(3) 0.21334(13) 0.7725(3)
C52 C 0.5286(3) 0.13578(12) 0.7429(3)
C53 C 0.3385(3) 0.13452(13) 0.6152(3)
C54 C 0.3914(3) 0.31831(14) 0.6407(3)
C55 C 0.4783(3) 0.31975(13) 0.6913(3)
C56 C 0.6544(3) 0.17980(13) 0.8094(3)
C57 C 0.6123(3) 0.14089(13) 0.7945(3)
C58 C 0.2523(3) 0.13855(13) 0.5666(3)
C59 C 0.2112(3) 0.17742(14) 0.5490(3)
C60 C 0.5995(3) 0.36374(14) 0.7579(3)
H55 H 0.6449 0.3508 0.7315
H56 H 0.6032 0.3511 0.8131
C61 C 0.7989(3) 0.21094(15) 0.8551(3)
H57 H 0.7898 0.2354 0.8879
H58 H 0.7902 0.2192 0.7962
C62 C 0.7256(4) 0.09074(18) 0.8041(5)
H59 H 0.7006 0.0802 0.7476
H60 H 0.7667 0.1134 0.7984
C63 C 0.1406(3) 0.08866(16) 0.5689(3)
H61 H 0.0994 0.1112 0.5753
H62 H 0.1667 0.0776 0.6247
C64 C 0.0618(3) 0.19776(16) 0.5392(4)
H63 H 0.0792 0.2263 0.5552
H64 H 0.0584 0.1823 0.5900
C65 C 0.2645(7) 0.3617(3) 0.5898(7)
H65 H 0.2344 0.3432 0.6228
H66 H 0.2424 0.3552 0.5303
C66 C 0.6156(3) 0.40953(14) 0.7666(3)
H67 H 0.6793 0.4143 0.7922
H68 H 0.6036 0.4220 0.7106
C67 C 0.8913(3) 0.19517(17) 0.8846(4)
H69 H 0.8983 0.1708 0.8507
H70 H 0.9329 0.2163 0.8723
C68 C 0.7767(6) 0.0587(3) 0.8507(6)
H71 H 0.8053 0.0417 0.8139
H72 H 0.7376 0.0409 0.8762
C69 C 0.0906(4) 0.05540(18) 0.5148(4)
H73 H 0.0724 0.0660 0.4574
H74 H 0.0357 0.0489 0.5347
C70 C -0.0283(3) 0.19711(15) 0.4788(3)
H75 H -0.0713 0.2130 0.5034
H76 H -0.0222 0.2113 0.4272
C71 C 0.2412(8) 0.4087(4) 0.6072(8)
H77 H 0.1777 0.4139 0.5814
H78 H 0.2484 0.4126 0.6679
C72 C 0.5590(4) 0.43052(16) 0.8181(4)
H79 H 0.5759 0.4205 0.8760
H80 H 0.4957 0.4234 0.7963
C73 C 0.9209(4) 0.18361(17) 0.9723(3)
H81 H 0.8777 0.1640 0.9872
H82 H 0.9215 0.2083 1.0073
C74 C 0.8445(8) 0.0778(3) 0.9152(6)
H83 H 0.8126 0.0950 0.9489
H84 H 0.8789 0.0966 0.8868
C75 C 0.1431(4) 0.01620(18) 0.5129(4)
H85 H 0.1124 -0.0007 0.4654
H86 H 0.2028 0.0232 0.5031
C76 C -0.0669(3) 0.15501(16) 0.4562(3)
H87 H -0.0648 0.1389 0.5074
H88 H -0.0304 0.1406 0.4222
C77 C 0.2963(7) 0.4393(3) 0.5757(6)
H89 H 0.2572 0.4620 0.5497
H90 H 0.3221 0.4264 0.5318
C78 C 0.5694(5) 0.47680(17) 0.8175(4)
H91 H 0.5315 0.4893 0.8517
H92 H 0.5516 0.4870 0.7605
H93 H 0.6319 0.4841 0.8401
C79 C 1.0146(3) 0.1641(2) 0.9910(4)
H94 H 1.0313 0.1570 1.0500
H95 H 1.0579 0.1837 0.9775
H96 H 1.0141 0.1393 0.9574
C80 C 0.9157(12) 0.0511(4) 0.9790(8)
H97 H 0.9528 0.0355 0.9483
H98 H 0.8842 0.0321 1.0089
H99 H 0.9536 0.0693 1.0187
C81 C 0.1545(6) -0.0089(3) 0.5907(5)
H100 H 0.1889 -0.0337 0.5848
H101 H 0.0958 -0.0168 0.6002
H102 H 0.1864 0.0072 0.6380
C82 C -0.1638(4) 0.1579(2) 0.4073(4)
H103 H -0.1873 0.1303 0.3933
H104 H -0.1658 0.1735 0.3561
H105 H -0.2002 0.1718 0.4412
C83 C 0.3698(8) 0.4568(3) 0.6393(6)
H106 H 0.3448 0.4726 0.6795
H107 H 0.4063 0.4748 0.6124
H108 H 0.4069 0.4346 0.6680
C84 C 0.3892(3) 0.16900(13) 0.6492(3)
H109? H 0.7547 0.1111 0.7741
H110? H 0.7089 0.0659 0.7697
C85? C 0.2994(9) 0.3737(4) 0.6501(8)
H111? H 0.3303 0.3885 0.7005
H112? H 0.2549 0.3545 0.6643
C86? C 0.7863(10) 0.0800(5) 0.9039(9)
H113? H 0.7936 0.1050 0.9388
H114? H 0.7560 0.0588 0.9308
C87? C 0.2529(12) 0.4069(5) 0.5693(12)
H115? H 0.2535 0.3938 0.5153
H116? H 0.1902 0.4129 0.5715
C88? C 0.8806(11) 0.0640(6) 0.8909(12)
H117? H 0.8750 0.0526 0.8343
H118? H 0.9245 0.0866 0.8984
H119? H 0.2498 0.4608 0.5683
H120? H 0.3199 0.4400 0.5243
C89? C 0.908(2) 0.0330(11) 0.952(2)
H121? H 0.9440 0.0125 0.9300
H122? H 0.8556 0.0198 0.9650
H123? H 0.9441 0.0454 1.0021
loop_
_geom_bond_atom_site_label_1
_geom_bond_atom_site_label_2
_geom_bond_site_symmetry_1
_geom_bond_site_symmetry_2
Se1 C7 1_555 1_555
Se2 C9 1_555 1_555
Se3 Se4 1_555 1_555
Se4 C12 1_555 1_555
O1 C13 1_555 1_555
O2 C14 1_555 1_555
O3 C15 1_555 1_555
O4 C16 1_555 1_555
O5 C17 1_555 1_555
O6 C18 1_555 1_555
C1 C2 1_555 1_555
C2 C3 1_555 1_555
C3 C4 1_555 1_555
C4 C5 1_555 1_555
C5 C6 1_555 1_555
C6 C1 1_555 1_555
C7 C1 1_555 1_555
C8 Se1 1_555 1_555
C9 C3 1_555 1_555
C10 Se2 1_555 1_555
C11 Se3 1_555 1_555
C12 C6 1_555 1_555
C13 C8 1_555 1_555
C14 C9 1_555 1_555
C15 C10 1_555 1_555
C16 C11 1_555 1_555
C17 C12 1_555 1_555
C18 C7 1_555 1_555
C19 O1 1_555 1_555
H1 C19 1_555 1_555
H2 C19 1_555 1_555
C20 O2 1_555 1_555
H3 C20 1_555 1_555
H4 C20 1_555 1_555
C21 O3 1_555 1_555
H5 C21 1_555 1_555
H6 C21 1_555 1_555
C22 O4 1_555 1_555
H7 C22 1_555 1_555
H8 C22 1_555 1_555
C23 O5 1_555 1_555
H9 C23 1_555 1_555
H10 C23 1_555 1_555
C24 O6 1_555 1_555
H11 C24 1_555 1_555
H12 C24 1_555 1_555
C25 C19 1_555 1_555
H13 C25 1_555 1_555
H14 C25 1_555 1_555
C26 C20 1_555 1_555
H15 C26 1_555 1_555
H16 C26 1_555 1_555
C27 C21 1_555 1_555
H17 C27 1_555 1_555
H18 C27 1_555 1_555
C28 C22 1_555 1_555
H19 C28 1_555 1_555
H20 C28 1_555 1_555
C29 C23 1_555 1_555
H21 C29 1_555 1_555
H22 C29 1_555 1_555
C30 C24 1_555 1_555
H23 C30 1_555 1_555
H24 C30 1_555 1_555
C31 C25 1_555 1_555
H25 C31 1_555 1_555
H26 C31 1_555 1_555
C32 C26 1_555 1_555
H27 C32 1_555 1_555
H28 C32 1_555 1_555
C33 C27 1_555 1_555
H29 C33 1_555 1_555
H30 C33 1_555 1_555
C34 C28 1_555 1_555
H31 C34 1_555 1_555
H32 C34 1_555 1_555
C35 C29 1_555 1_555
H33 C35 1_555 1_555
H34 C35 1_555 1_555
C36 C30 1_555 1_555
H35 C36 1_555 1_555
H36 C36 1_555 1_555
C37 C31 1_555 1_555
H37 C37 1_555 1_555
H38 C37 1_555 1_555
H39 C37 1_555 1_555
C38 C32 1_555 1_555
H40 C38 1_555 1_555
H41 C38 1_555 1_555
H42 C38 1_555 1_555
C39 C33 1_555 1_555
H43 C39 1_555 1_555
H44 C39 1_555 1_555
H45 C39 1_555 1_555
C40 C34 1_555 1_555
H46 C40 1_555 1_555
H47 C40 1_555 1_555
H48 C40 1_555 1_555
C41 C35 1_555 1_555
H49 C41 1_555 1_555
H50 C41 1_555 1_555
H51 C41 1_555 1_555
C42 C36 1_555 1_555
H52 C42 1_555 1_555
H53 C42 1_555 1_555
H54 C42 1_555 1_555
Se5 C48 1_555 1_555
Se6 C50 1_555 1_555
Se7 Se8 1_555 1_555
Se8 C53 1_555 1_555
O7 C54 1_555 1_555
O8 C55 1_555 1_555
O9 C56 1_555 1_555
O10 C57 1_555 1_555
O11 C58 1_555 1_555
O12 C59 1_555 1_555
C43 C44 1_555 1_555
C44 C45 1_555 1_555
C45 C46 1_555 1_555
C46 C47 1_555 1_555
C47 C52 1_555 1_555
C48 C43 1_555 1_555
C49 Se5 1_555 1_555
C50 C45 1_555 1_555
C51 Se6 1_555 1_555
C52 Se7 1_555 1_555
C53 C58 1_555 1_555
C54 C49 1_555 1_555
C55 C50 1_555 1_555
C56 C51 1_555 1_555
C57 C52 1_555 1_555
C58 C59 1_555 1_555
C59 C48 1_555 1_555
C60 O8 1_555 1_555
H55 C60 1_555 1_555
H56 C60 1_555 1_555
C61 O9 1_555 1_555
H57 C61 1_555 1_555
H58 C61 1_555 1_555
C62 O10 1_555 1_555
H59 C62 1_555 1_555
H60 C62 1_555 1_555
C63 O11 1_555 1_555
H61 C63 1_555 1_555
H62 C63 1_555 1_555
C64 O12 1_555 1_555
H63 C64 1_555 1_555
H64 C64 1_555 1_555
C65 O7 1_555 1_555
H65 C65 1_555 1_555
H66 C65 1_555 1_555
C66 C60 1_555 1_555
H67 C66 1_555 1_555
H68 C66 1_555 1_555
C67 C61 1_555 1_555
H69 C67 1_555 1_555
H70 C67 1_555 1_555
C68 C62 1_555 1_555
H71 C68 1_555 1_555
H72 C68 1_555 1_555
C69 C63 1_555 1_555
H73 C69 1_555 1_555
H74 C69 1_555 1_555
C70 C64 1_555 1_555
H75 C70 1_555 1_555
H76 C70 1_555 1_555
C71 C65 1_555 1_555
H77 C71 1_555 1_555
H78 C71 1_555 1_555
C72 C66 1_555 1_555
H79 C72 1_555 1_555
H80 C72 1_555 1_555
C73 C67 1_555 1_555
H81 C73 1_555 1_555
H82 C73 1_555 1_555
C74 C68 1_555 1_555
H83 C74 1_555 1_555
H84 C74 1_555 1_555
C75 C69 1_555 1_555
H85 C75 1_555 1_555
H86 C75 1_555 1_555
C76 C70 1_555 1_555
H87 C76 1_555 1_555
H88 C76 1_555 1_555
C77 C71 1_555 1_555
H89 C77 1_555 1_555
H90 C77 1_555 1_555
C78 C72 1_555 1_555
H91 C78 1_555 1_555
H92 C78 1_555 1_555
H93 C78 1_555 1_555
C79 C73 1_555 1_555
H94 C79 1_555 1_555
H95 C79 1_555 1_555
H96 C79 1_555 1_555
C80 C74 1_555 1_555
H97 C80 1_555 1_555
H98 C80 1_555 1_555
H99 C80 1_555 1_555
C81 C75 1_555 1_555
H100 C81 1_555 1_555
H101 C81 1_555 1_555
H102 C81 1_555 1_555
C82 C76 1_555 1_555
H103 C82 1_555 1_555
H104 C82 1_555 1_555
H105 C82 1_555 1_555
C83 C77 1_555 1_555
H106 C83 1_555 1_555
H107 C83 1_555 1_555
H108 C83 1_555 1_555
C84 C43 1_555 1_555
C2 C8 1_555 1_555
C4 C10 1_555 1_555
C5 C11 1_555 1_555
C13 C14 1_555 1_555
C15 C16 1_555 1_555
C17 C18 1_555 1_555
C44 C49 1_555 1_555
C46 C51 1_555 1_555
C47 C84 1_555 1_555
C53 C84 1_555 1_555
C54 C55 1_555 1_555
C56 C57 1_555 1_555

#END
