
#######################################################################
#
#                 Cambridge Crystallographic Data Centre
#                                CCDC 
#
#######################################################################
#
# If this CIF has been generated from an entry in the Cambridge 
# Structural Database, then it will include bibliographic, chemical, 
# crystal, experimental, refinement or atomic coordinate data resulting 
# from the CCDC's data processing and validation procedures.
#
#######################################################################

data_CISNIE
_chemical_formula_moiety         'C24 H18 N2 O2,C2 H6 O1 S1'
_chemical_name_systematic        
'2-(4-methylphenyl)-3-(phenylamino)[1]benzopyrano[4,3-b]pyrrol-4(1H)-one dimethyl sulfoxide solvate'
_symmetry_cell_setting           triclinic
_symmetry_space_group_name_H-M   'P -1'
_symmetry_Int_Tables_number      2
_space_group_name_Hall           '-P 1'
loop_
_symmetry_equiv_pos_site_id
_symmetry_equiv_pos_as_xyz
1 x,y,z
2 -x,-y,-z
_cell_length_a                   10.071(8)
_cell_length_b                   11.177(9)
_cell_length_c                   11.631(10)
_cell_angle_alpha                87.825(11)
_cell_angle_beta                 70.043(11)
_cell_angle_gamma                66.359(9)
_cell_volume                     1119.87
_exptl_crystal_colour            yellow
_exptl_crystal_description       Needle
_cell_formula_units_Z            2
loop_
_atom_site_label
_atom_site_type_symbol
_atom_site_fract_x
_atom_site_fract_y
_atom_site_fract_z
S1 S 0.1281(2) 0.7683(2) 0.12322(19)
O1 O 0.0885(8) 0.8999(5) 0.0963(5)
C1 C 0.1026(9) 0.6828(7) 0.0140(7)
H1 H 0.0055 0.7349 0.0042
H2 H 0.1025 0.6008 0.0417
H3 H 0.1858 0.6662 -0.0636
C2 C -0.0244(9) 0.7690(7) 0.2510(6)
H4 H -0.0456 0.8322 0.3157
H5 H 0.0029 0.6832 0.2784
H6 H -0.1149 0.7919 0.2296
O2 O 0.9316(5) 0.6130(3) -0.3488(3)
O3 O 0.7652(5) 0.5467(4) -0.2211(4)
N1 N 0.5751(5) 0.7161(4) 0.0325(4)
H7 H 0.4967 0.7297 0.0116
N2 N 0.8006(5) 0.9039(4) -0.0822(3)
H8 H 0.8299 0.9657 -0.0787
C3 C 0.6291(7) 0.4774(5) 0.3102(5)
H9 H 0.6402 0.4237 0.3724
C4 C 0.5298(7) 0.4834(5) 0.2545(5)
H10 H 0.4725 0.4331 0.2784
C5 C 0.5118(6) 0.5623(5) 0.1633(5)
H11 H 0.4418 0.5657 0.1265
C6 C 0.5965(5) 0.6368(4) 0.1254(4)
C7 C 0.6742(6) 0.7746(5) -0.0280(4)
C8 C 0.6867(6) 0.8822(4) 0.0121(4)
C9 C 0.6083(6) 0.9660(5) 0.1295(4)
C10 C 0.6638(7) 1.0492(5) 0.1600(5)
H12 H 0.7541 1.0522 0.1046
C11 C 0.5894(7) 1.1286(6) 0.2708(5)
H13 H 0.6294 1.1851 0.2875
C12 C 0.4592(7) 1.1262(5) 0.3557(5)
C13 C 0.3781(9) 1.2132(7) 0.4768(6)
H14 H 0.4383 1.2590 0.4838
H15 H 0.3668 1.1602 0.5434
H16 H 0.2775 1.2757 0.4805
C14 C 1.1922(9) 0.7482(7) -0.5328(6)
H17 H 1.2642 0.7327 -0.6123
C15 C 1.1664(9) 0.8498(6) -0.4530(6)
H18 H 1.2227 0.9008 -0.4779
C16 C 1.0567(7) 0.8755(6) -0.3362(5)
H19 H 1.0380 0.9450 -0.2827
C17 C 0.9740(6) 0.7985(5) -0.2978(4)
C18 C 1.0042(7) 0.6955(5) -0.3803(5)
C19 C 1.1148(8) 0.6704(6) -0.4977(5)
H20 H 1.1357 0.6006 -0.5518
C20 C 0.8198(7) 0.6255(5) -0.2366(5)
C21 C 0.7842(6) 0.7317(5) -0.1503(4)
C22 C 0.8587(6) 0.8136(4) -0.1805(4)
C23 C 0.7135(7) 0.5512(5) 0.2743(5)
H21 H 0.7823 0.5479 0.3124
C24 C 0.6970(6) 0.6301(5) 0.1823(5)
H22 H 0.7551 0.6797 0.1584
C25 C 0.4001(7) 1.0450(6) 0.3256(5)
H23 H 0.3089 1.0440 0.3812
C26 C 0.4729(6) 0.9652(5) 0.2152(5)
H24 H 0.4311 0.9105 0.1979
loop_
_geom_bond_atom_site_label_1
_geom_bond_atom_site_label_2
_geom_bond_site_symmetry_1
_geom_bond_site_symmetry_2
S1 O1 1_555 1_555
C1 S1 1_555 1_555
H1 C1 1_555 1_555
H2 C1 1_555 1_555
H3 C1 1_555 1_555
C2 S1 1_555 1_555
H4 C2 1_555 1_555
H5 C2 1_555 1_555
H6 C2 1_555 1_555
O2 C18 1_555 1_555
O3 C20 1_555 1_555
N1 H7 1_555 1_555
N2 H8 1_555 1_555
C3 H9 1_555 1_555
C4 C3 1_555 1_555
H10 C4 1_555 1_555
C5 C4 1_555 1_555
H11 C5 1_555 1_555
C6 N1 1_555 1_555
C7 N1 1_555 1_555
C8 N2 1_555 1_555
C9 C8 1_555 1_555
C10 C9 1_555 1_555
H12 C10 1_555 1_555
C11 C10 1_555 1_555
H13 C11 1_555 1_555
C12 C11 1_555 1_555
C13 C12 1_555 1_555
H14 C13 1_555 1_555
H15 C13 1_555 1_555
H16 C13 1_555 1_555
C14 H17 1_555 1_555
C15 C14 1_555 1_555
H18 C15 1_555 1_555
C16 C15 1_555 1_555
H19 C16 1_555 1_555
C17 C16 1_555 1_555
C18 C17 1_555 1_555
C19 C14 1_555 1_555
H20 C19 1_555 1_555
C20 O2 1_555 1_555
C21 C7 1_555 1_555
C22 N2 1_555 1_555
C23 C3 1_555 1_555
H21 C23 1_555 1_555
C24 C6 1_555 1_555
H22 C24 1_555 1_555
C25 C12 1_555 1_555
H23 C25 1_555 1_555
C26 C9 1_555 1_555
H24 C26 1_555 1_555
C5 C6 1_555 1_555
C7 C8 1_555 1_555
C17 C22 1_555 1_555
C18 C19 1_555 1_555
C20 C21 1_555 1_555
C21 C22 1_555 1_555
C23 C24 1_555 1_555
C25 C26 1_555 1_555

#END
