
#######################################################################
#
#                 Cambridge Crystallographic Data Centre
#                                CCDC 
#
#######################################################################
#
# If this CIF has been generated from an entry in the Cambridge 
# Structural Database, then it will include bibliographic, chemical, 
# crystal, experimental, refinement or atomic coordinate data resulting 
# from the CCDC's data processing and validation procedures.
#
#######################################################################

data_CISRIG
_chemical_formula_moiety         '2(H4 N1 1+),C4 H5 O6 1-,C4 H5 O5 1-'
_chemical_name_systematic        
'bis(ammonium) (2R,3R)-(+)-bitartrate (S)-(-)-bimalate'
_symmetry_cell_setting           monoclinic
_symmetry_space_group_name_H-M   'P 21'
_symmetry_Int_Tables_number      4
_space_group_name_Hall           'P 2yb'
loop_
_symmetry_equiv_pos_site_id
_symmetry_equiv_pos_as_xyz
1 x,y,z
2 -x,1/2+y,-z
_cell_length_a                   7.5996(3)
_cell_length_b                   7.7826(3)
_cell_length_c                   11.4437(4)
_cell_angle_alpha                90
_cell_angle_beta                 102.708(2)
_cell_angle_gamma                90
_cell_volume                     660.254
_exptl_crystal_colour            colorless
_exptl_crystal_description       lath
_cell_formula_units_Z            2
loop_
_atom_site_label
_atom_site_type_symbol
_atom_site_fract_x
_atom_site_fract_y
_atom_site_fract_z
O1 O 1.0923(2) 0.6798(3) 0.61480(16)
O2 O 1.0024(2) 0.7501(3) 0.42107(17)
O3 O 0.6606(2) 0.6416(3) 0.41204(17)
O4 O 0.7199(2) 0.9266(3) 0.57928(17)
O5 O 0.5106(2) 0.5334(3) 0.64382(17)
O6 O 0.4001(2) 0.7971(3) 0.60362(19)
C1 C 0.9725(3) 0.6956(5) 0.5143(2)
C2 C 0.7850(3) 0.6344(5) 0.5259(2)
H2 H 0.7932 0.5149 0.5562
C3 C 0.7159(3) 0.7509(4) 0.6131(2)
H3 H 0.7970 0.7373 0.6931
C4 C 0.5278(3) 0.6895(5) 0.6215(2)
H15 H 1.178(4) 0.725(7) 0.585(4)
H16 H 0.624(11) 0.542(5) 0.394(10)
H17 H 0.649(3) 0.941(5) 0.5142(18)
O7 O -0.0868(2) -0.0697(4) 0.88584(18)
O8 O -0.0081(3) -0.1242(4) 1.08188(19)
O9 O 0.3335(4) -0.0230(4) 1.0907(2)
H1 H 0.3737 0.0756 1.1054
O10 O 0.4931(3) 0.0809(3) 0.85987(19)
O11 O 0.6057(3) -0.1818(4) 0.8923(2)
C5 C 0.0310(4) -0.0777(5) 0.9882(3)
C6 C 0.2174(4) -0.0259(5) 0.9789(2)
H4 H 0.2107 0.0922 0.9460
C7 C 0.2940(4) -0.1428(5) 0.8941(3)
H5 H 0.3075 -0.2600 0.9262
H6 H 0.2107 -0.1462 0.8155
C8 C 0.4768(4) -0.0744(5) 0.8812(2)
H18 H -0.201(2) -0.100(4) 0.879(2)
N1 N 0.2743(3) 0.3655(4) 0.7734(2)
H7 H 0.213(3) 0.421(4) 0.825(2)
H8 H 0.194(4) 0.326(5) 0.706(2)
H9 H 0.349(3) 0.274(3) 0.802(3)
H10 H 0.362(4) 0.427(6) 0.746(4)
N2 N 0.7284(3) 0.2330(4) 0.7306(2)
H11 H 0.766(4) 0.148(3) 0.685(2)
H12 H 0.831(3) 0.279(5) 0.781(3)
H13 H 0.665(5) 0.316(4) 0.679(3)
H14 H 0.662(3) 0.166(3) 0.773(2)
O12? O 0.2823(13) -0.3110(18) 0.9208(9)
loop_
_geom_bond_atom_site_label_1
_geom_bond_atom_site_label_2
_geom_bond_site_symmetry_1
_geom_bond_site_symmetry_2
O1 C1 1_555 1_555
O2 C1 1_555 1_555
O3 C2 1_555 1_555
O4 C3 1_555 1_555
O5 C4 1_555 1_555
O6 C4 1_555 1_555
O7 C5 1_555 1_555
O8 C5 1_555 1_555
O9 H1 1_555 1_555
O10 C8 1_555 1_555
O11 C8 1_555 1_555
N1 H7 1_555 1_555
N2 H11 1_555 1_555
C1 C2 1_555 1_555
C2 H2 1_555 1_555
C3 C2 1_555 1_555
H3 C3 1_555 1_555
C4 C3 1_555 1_555
C5 C6 1_555 1_555
C6 O9 1_555 1_555
H4 C6 1_555 1_555
C7 C6 1_555 1_555
H5 C7 1_555 1_555
H6 C7 1_555 1_555
C8 C7 1_555 1_555
H8 N1 1_555 1_555
H9 N1 1_555 1_555
H10 N1 1_555 1_555
H12 N2 1_555 1_555
H13 N2 1_555 1_555
H14 N2 1_555 1_555
H15 O1 1_555 1_555
H16 O3 1_555 1_555
H17 O4 1_555 1_555
H18 O7 1_555 1_555

#END
