
#######################################################################
#
#                 Cambridge Crystallographic Data Centre
#                                CCDC 
#
#######################################################################
#
# If this CIF has been generated from an entry in the Cambridge 
# Structural Database, then it will include bibliographic, chemical, 
# crystal, experimental, refinement or atomic coordinate data resulting 
# from the CCDC's data processing and validation procedures.
#
#######################################################################

data_CISTOQ
_chemical_formula_moiety         'C27 H26 N3 O3 1+,Br1 1-'
_chemical_name_systematic        
'3-(2-(3a-hydroxy-2,3,3a,8a-tetrahydro-8H-furo[2,3-b]indol-8-yl)-2-oxoethyl)-1-(4-methylbenzyl)-1H-3,1-benzimidazol-3-ium bromide'
_symmetry_cell_setting           orthorhombic
_symmetry_space_group_name_H-M   'P 21 21 21'
_symmetry_Int_Tables_number      19
_space_group_name_Hall           'P 2ac 2ab'
loop_
_symmetry_equiv_pos_site_id
_symmetry_equiv_pos_as_xyz
1 x,y,z
2 1/2-x,-y,1/2+z
3 -x,1/2+y,1/2-z
4 1/2+x,1/2-y,-z
_cell_length_a                   9.9252(10)
_cell_length_b                   13.2483(14)
_cell_length_c                   18.729(2)
_cell_angle_alpha                90
_cell_angle_beta                 90
_cell_angle_gamma                90
_cell_volume                     2462.71
_exptl_crystal_colour            pink
_exptl_crystal_description       block
_cell_formula_units_Z            4
loop_
_atom_site_label
_atom_site_type_symbol
_atom_site_fract_x
_atom_site_fract_y
_atom_site_fract_z
N1 N 0.0403(3) -0.0768(2) 0.09176(14)
N2 N 0.2482(3) -0.09527(19) 0.05725(14)
N3 N 0.5279(3) -0.02551(19) -0.06124(14)
O1 O 0.3482(3) 0.0589(2) -0.01741(16)
O2 O 0.8561(2) -0.1011(3) -0.07761(15)
H1 H 0.9101 -0.1305 -0.1034
O3 O 0.5417(2) -0.19668(17) -0.09956(15)
C1 C -0.4041(5) 0.2912(3) 0.0859(3)
H2 H -0.3557 0.3402 0.0582
H3 H -0.4166 0.3163 0.1336
H4 H -0.4904 0.2790 0.0644
C2 C -0.3251(4) 0.1943(3) 0.0885(2)
C3 C -0.2238(4) 0.1751(3) 0.0404(2)
H5 H -0.2032 0.2232 0.0059
C4 C -0.1520(4) 0.0861(3) 0.0423(2)
H6 H -0.0831 0.0757 0.0095
C5 C -0.1802(3) 0.0131(2) 0.09141(19)
C6 C -0.2830(3) 0.0307(3) 0.1389(2)
H7 H -0.3050 -0.0181 0.1726
C7 C -0.3540(4) 0.1204(3) 0.1368(3)
H8 H -0.4234 0.1307 0.1694
C8 C -0.1076(3) -0.0874(2) 0.09200(19)
H9 H -0.1345 -0.1249 0.1341
H10 H -0.1348 -0.1261 0.0504
C9 C 0.1200(3) -0.0496(2) 0.14952(16)
C10 C 0.0889(4) -0.0209(3) 0.21867(19)
H11 H 0.0002 -0.0153 0.2342
C11 C 0.1948(4) -0.0013(4) 0.2627(2)
H12 H 0.1779 0.0185 0.3095
C12 C 0.3275(4) -0.0099(4) 0.2399(3)
H13 H 0.3966 0.0063 0.2714
C13 C 0.3597(4) -0.0412(3) 0.1734(2)
H14 H 0.4487 -0.0492 0.1590
C14 C 0.2533(3) -0.0606(2) 0.1278(2)
C15 C 0.1201(4) -0.1030(2) 0.03798(17)
H15 H 0.0904 -0.1239 -0.0067
C16 C 0.3636(3) -0.1155(2) 0.01105(18)
H16 H 0.3380 -0.1633 -0.0258
H17 H 0.4359 -0.1450 0.0389
C17 C 0.4116(3) -0.0185(3) -0.02310(17)
C18 C 0.5878(3) 0.0540(2) -0.10201(17)
C19 C 0.5421(4) 0.1520(3) -0.1115(2)
H18 H 0.4628 0.1746 -0.0904
C20 C 0.6203(5) 0.2148(3) -0.1541(2)
H19 H 0.5921 0.2809 -0.1618
C21 C 0.7365(5) 0.1829(4) -0.1849(2)
H20 H 0.7863 0.2271 -0.2131
C22 C 0.7806(4) 0.0866(4) -0.1748(2)
H21 H 0.8606 0.0652 -0.1958
C23 C 0.7053(3) 0.0198(3) -0.1326(2)
C24 C 0.7318(3) -0.0883(3) -0.11482(19)
C25 C 0.7159(4) -0.1616(3) -0.1776(2)
H22 H 0.7377 -0.1290 -0.2225
H23 H 0.7729 -0.2204 -0.1717
C26 C 0.5694(4) -0.1897(3) -0.1745(2)
H24 H 0.5140 -0.1383 -0.1968
H25 H 0.5534 -0.2538 -0.1980
C27 C 0.6098(4) -0.1177(2) -0.06642(18)
H26 H 0.6413 -0.1384 -0.0190
Br1 Br 0.60884(3) 0.73346(3) 0.12893(2)
loop_
_geom_bond_atom_site_label_1
_geom_bond_atom_site_label_2
_geom_bond_site_symmetry_1
_geom_bond_site_symmetry_2
N1 C8 1_555 1_555
N2 C14 1_555 1_555
N3 C17 1_555 1_555
O1 C17 1_555 1_555
O2 H1 1_555 1_555
O3 C26 1_555 1_555
C1 H2 1_555 1_555
H3 C1 1_555 1_555
H4 C1 1_555 1_555
C2 C1 1_555 1_555
C3 C2 1_555 1_555
H5 C3 1_555 1_555
C4 C3 1_555 1_555
H6 C4 1_555 1_555
C5 C4 1_555 1_555
C6 C5 1_555 1_555
H7 C6 1_555 1_555
C7 C2 1_555 1_555
H8 C7 1_555 1_555
C8 C5 1_555 1_555
H9 C8 1_555 1_555
H10 C8 1_555 1_555
C9 N1 1_555 1_555
C10 C9 1_555 1_555
H11 C10 1_555 1_555
C11 C10 1_555 1_555
H12 C11 1_555 1_555
C12 C11 1_555 1_555
H13 C12 1_555 1_555
C13 C12 1_555 1_555
H14 C13 1_555 1_555
C14 C9 1_555 1_555
C15 N1 1_555 1_555
H15 C15 1_555 1_555
C16 N2 1_555 1_555
H16 C16 1_555 1_555
H17 C16 1_555 1_555
C17 C16 1_555 1_555
C18 N3 1_555 1_555
C19 C18 1_555 1_555
H18 C19 1_555 1_555
C20 C19 1_555 1_555
H19 C20 1_555 1_555
C21 C20 1_555 1_555
H20 C21 1_555 1_555
C22 C21 1_555 1_555
H21 C22 1_555 1_555
C23 C18 1_555 1_555
C24 O2 1_555 1_555
C25 C24 1_555 1_555
H22 C25 1_555 1_555
H23 C25 1_555 1_555
C26 C25 1_555 1_555
H24 C26 1_555 1_555
H25 C26 1_555 1_555
C27 N3 1_555 1_555
H26 C27 1_555 1_555
N2 C15 1_555 1_555
O3 C27 1_555 1_555
C6 C7 1_555 1_555
C13 C14 1_555 1_555
C22 C23 1_555 1_555
C23 C24 1_555 1_555
C24 C27 1_555 1_555

#END
