
#######################################################################
#
#                 Cambridge Crystallographic Data Centre
#                                CCDC 
#
#######################################################################
#
# If this CIF has been generated from an entry in the Cambridge 
# Structural Database, then it will include bibliographic, chemical, 
# crystal, experimental, refinement or atomic coordinate data resulting 
# from the CCDC's data processing and validation procedures.
#
#######################################################################

data_CISTUW
_chemical_formula_moiety         'C27 H25 Br1 N3 O3 1+,Br1 1-'
_chemical_name_systematic        
'1-(2-bromobenzyl)-3-(2-(3a-hydroxy-2,3,3a,8a-tetrahydro-8H-furo[2,3-b]indol-8-yl)-2-oxoethyl)-2-methyl-1H-benzimidazol-3-ium bromide'
_symmetry_cell_setting           orthorhombic
_symmetry_space_group_name_H-M   'P 21 21 21'
_symmetry_Int_Tables_number      19
_space_group_name_Hall           'P 2ac 2ab'
loop_
_symmetry_equiv_pos_site_id
_symmetry_equiv_pos_as_xyz
1 x,y,z
2 1/2-x,-y,1/2+z
3 -x,1/2+y,1/2-z
4 1/2+x,1/2-y,-z
_cell_length_a                   7.5810(10)
_cell_length_b                   14.0764(18)
_cell_length_c                   23.509(3)
_cell_angle_alpha                90
_cell_angle_beta                 90
_cell_angle_gamma                90
_cell_volume                     2508.72
_exptl_crystal_colour            colorless
_exptl_crystal_description       block
_cell_formula_units_Z            4
loop_
_atom_site_label
_atom_site_type_symbol
_atom_site_fract_x
_atom_site_fract_y
_atom_site_fract_z
N1 N 0.7227(5) 0.3132(2) 0.14363(15)
N2 N 0.4703(5) 0.5269(3) 0.18081(15)
N3 N 0.2907(5) 0.6350(3) 0.14694(15)
O1 O 0.8575(5) 0.1273(2) 0.21934(14)
H1 H 0.9242 0.0832 0.2117
O2 O 0.4728(5) 0.2255(3) 0.17361(18)
O3 O 0.7159(5) 0.4634(2) 0.10751(14)
Br1 Br 0.20964(9) 0.54686(4) 0.01253(2)
C1 C 0.8415(7) 0.2706(3) 0.1049(2)
C2 C 0.9299(7) 0.3104(4) 0.05949(19)
H2 H 0.9167 0.3744 0.0506
C3 C 1.0383(7) 0.2524(4) 0.0276(2)
H3 H 1.1002 0.2782 -0.0028
C4 C 1.0572(9) 0.1577(4) 0.0398(2)
H4 H 1.1299 0.1198 0.0174
C5 C 0.9666(8) 0.1183(4) 0.0858(2)
H5 H 0.9782 0.0540 0.0941
C6 C 0.8605(6) 0.1748(3) 0.1190(2)
C7 C 0.7530(7) 0.1497(3) 0.1705(2)
C8 C 0.6080(8) 0.0786(3) 0.1593(2)
H6 H 0.6416 0.0342 0.1297
H7 H 0.5784 0.0435 0.1935
C9 C 0.4566(9) 0.1407(4) 0.1405(3)
H8 H 0.4652 0.1548 0.1002
H9 H 0.3445 0.1097 0.1477
C10 C 0.6503(8) 0.2423(3) 0.1832(2)
H10 H 0.6696 0.2623 0.2227
C11 C 0.6678(7) 0.4058(3) 0.1431(2)
C12 C 0.5474(6) 0.4352(3) 0.19191(18)
H11 H 0.4547 0.3884 0.1965
H12 H 0.6148 0.4377 0.2270
C13 C 0.5568(7) 0.6141(3) 0.18633(18)
C14 C 0.7187(7) 0.6355(3) 0.2083(2)
H13 H 0.7946 0.5886 0.2216
C15 C 0.7636(7) 0.7304(3) 0.2098(2)
H14 H 0.8720 0.7481 0.2251
C16 C 0.6511(7) 0.8001(3) 0.1892(2)
H15 H 0.6872 0.8632 0.1902
C17 C 0.4882(7) 0.7785(3) 0.1672(2)
H16 H 0.4112 0.8254 0.1545
C18 C 0.4452(7) 0.6826(3) 0.16524(19)
C19 C 0.3092(7) 0.5414(3) 0.15809(18)
C20 C 0.1758(7) 0.4662(3) 0.1508(2)
H17 H 0.1367 0.4447 0.1875
H18 H 0.2266 0.4139 0.1303
H19 H 0.0772 0.4909 0.1299
C21 C 0.1361(6) 0.6827(4) 0.1217(2)
H20 H 0.0927 0.7300 0.1483
H21 H 0.0433 0.6362 0.1162
C22 C 0.1747(6) 0.7308(4) 0.0652(2)
C23 C 0.2031(7) 0.6821(3) 0.0152(2)
C24 C 0.2251(7) 0.7278(4) -0.0363(2)
H22 H 0.2451 0.6934 -0.0694
C25 C 0.2168(8) 0.8258(4) -0.0375(3)
H23 H 0.2290 0.8578 -0.0719
C26 C 0.1907(8) 0.8762(4) 0.0116(3)
H24 H 0.1882 0.9423 0.0108
C27 C 0.1683(7) 0.8288(4) 0.0618(2)
H25 H 0.1480 0.8635 0.0948
Br2 Br 0.08206(7) 0.93167(4) 0.20768(2)
loop_
_geom_bond_atom_site_label_1
_geom_bond_atom_site_label_2
_geom_bond_site_symmetry_1
_geom_bond_site_symmetry_2
N1 C1 1_555 1_555
N2 C12 1_555 1_555
N3 C18 1_555 1_555
O1 H1 1_555 1_555
O2 C9 1_555 1_555
O3 C11 1_555 1_555
Br1 C23 1_555 1_555
C1 C2 1_555 1_555
C2 H2 1_555 1_555
C3 C2 1_555 1_555
H3 C3 1_555 1_555
C4 C3 1_555 1_555
H4 C4 1_555 1_555
C5 C4 1_555 1_555
H5 C5 1_555 1_555
C6 C1 1_555 1_555
C7 O1 1_555 1_555
C8 C7 1_555 1_555
H6 C8 1_555 1_555
H7 C8 1_555 1_555
C9 C8 1_555 1_555
H8 C9 1_555 1_555
H9 C9 1_555 1_555
C10 N1 1_555 1_555
H10 C10 1_555 1_555
C11 N1 1_555 1_555
C12 C11 1_555 1_555
H11 C12 1_555 1_555
H12 C12 1_555 1_555
C13 N2 1_555 1_555
C14 C13 1_555 1_555
H13 C14 1_555 1_555
C15 C14 1_555 1_555
H14 C15 1_555 1_555
C16 C15 1_555 1_555
H15 C16 1_555 1_555
C17 C16 1_555 1_555
H16 C17 1_555 1_555
C18 C13 1_555 1_555
C19 N2 1_555 1_555
C20 C19 1_555 1_555
H17 C20 1_555 1_555
H18 C20 1_555 1_555
H19 C20 1_555 1_555
C21 N3 1_555 1_555
H20 C21 1_555 1_555
H21 C21 1_555 1_555
C22 C21 1_555 1_555
C23 C22 1_555 1_555
C24 C23 1_555 1_555
H22 C24 1_555 1_555
C25 C24 1_555 1_555
H23 C25 1_555 1_555
C26 C25 1_555 1_555
H24 C26 1_555 1_555
C27 C22 1_555 1_555
H25 C27 1_555 1_555
N3 C19 1_555 1_555
O2 C10 1_555 1_555
C5 C6 1_555 1_555
C6 C7 1_555 1_555
C7 C10 1_555 1_555
C17 C18 1_555 1_555
C26 C27 1_555 1_555

#END
