
#######################################################################
#
#                 Cambridge Crystallographic Data Centre
#                                CCDC 
#
#######################################################################
#
# If this CIF has been generated from an entry in the Cambridge 
# Structural Database, then it will include bibliographic, chemical, 
# crystal, experimental, refinement or atomic coordinate data resulting 
# from the CCDC's data processing and validation procedures.
#
#######################################################################

data_CISXAD01
_chemical_formula_moiety         
'C36 H36 N24 O12,C4 H14 N2 2+,2(Cl1 1-),9(H2 O1)'
_chemical_name_systematic        
'Cucurbit(6)uril butane-1,4-diammonium clathrate dichloride nonahydrate'
_symmetry_cell_setting           monoclinic
_symmetry_space_group_name_H-M   'P 21/n'
_symmetry_Int_Tables_number      14
_space_group_name_Hall           '-P 2yn'
loop_
_symmetry_equiv_pos_site_id
_symmetry_equiv_pos_as_xyz
1 x,y,z
2 1/2-x,1/2+y,1/2-z
3 -x,-y,-z
4 1/2+x,1/2-y,1/2+z
_cell_length_a                   11.665(2)
_cell_length_b                   15.707(3)
_cell_length_c                   14.472(3)
_cell_angle_alpha                90
_cell_angle_beta                 92.51(3)
_cell_angle_gamma                90
_cell_volume                     2649.05
_exptl_crystal_colour            colorless
_exptl_crystal_description       plate
_cell_formula_units_Z            2
loop_
_atom_site_label
_atom_site_type_symbol
_atom_site_fract_x
_atom_site_fract_y
_atom_site_fract_z
Cl1 Cl -1.21918(6) 0.00744(4) 0.50815(5)
O1 O -0.76500(16) 0.44273(12) 0.75352(14)
O2 O -1.24467(16) 0.58764(12) 0.73111(14)
O3 O -0.84463(15) 0.28113(12) 0.63192(14)
O4 O -1.32791(16) 0.40053(13) 0.59650(14)
O5 O -0.83680(15) 0.25092(12) 0.38318(14)
O6 O -1.32295(19) 0.38887(13) 0.37160(14)
N1 N -0.87882(18) 0.55240(14) 0.80390(16)
N2 N -0.93913(19) 0.41928(14) 0.81937(18)
N3 N -1.07262(19) 0.61061(14) 0.81234(16)
N4 N -1.13106(18) 0.47709(14) 0.78923(16)
N5 N -1.00047(18) 0.29910(15) 0.72344(16)
N6 N -1.02651(18) 0.23241(14) 0.58866(16)
N7 N -1.19675(19) 0.35031(14) 0.70795(16)
N8 N -1.22670(18) 0.27556(14) 0.57977(16)
N9 N -1.02272(18) 0.21931(14) 0.42260(16)
N10 N -0.99532(18) 0.27395(14) 0.28397(16)
N11 N -1.22095(19) 0.26766(14) 0.41332(16)
N12 N -1.19232(19) 0.32621(14) 0.27776(16)
C1 C -0.8520(2) 0.46898(17) 0.78856(19)
C2 C -0.9813(2) 0.56081(16) 0.85660(19)
H1 H -0.9630 0.5801 0.9214
C3 C -1.0319(2) 0.46906(16) 0.85324(19)
H2 H -1.0542 0.4494 0.9157
C4 C -1.1579(2) 0.56103(16) 0.77336(18)
C5 C -0.9392(2) 0.32856(16) 0.8059(2)
H3 H -0.9731 0.3015 0.8601
H4 H -0.8586 0.3090 0.8041
C6 C -1.2177(2) 0.41189(16) 0.77992(19)
H5 H -1.2931 0.4393 0.7663
H6 H -1.2221 0.3816 0.8396
C7 C -0.9462(2) 0.27202(15) 0.64631(19)
C8 C -1.1210(2) 0.27748(16) 0.72148(19)
H7 H -1.1412 0.2425 0.7762
C9 C -1.1378(2) 0.22726(16) 0.62897(19)
H8 H -1.1616 0.1670 0.6395
C10 C -1.2569(2) 0.34797(16) 0.62474(19)
C11 C -0.9952(2) 0.18032(17) 0.51103(19)
H9 H -0.9117 0.1688 0.5162
H10 H -1.0356 0.1250 0.5141
C12 C -1.2836(2) 0.24725(18) 0.49463(18)
H11 H -1.3605 0.2739 0.4888
H12 H -1.2945 0.1848 0.4975
C13 C -0.9409(2) 0.24843(15) 0.36511(19)
C14 C -1.1350(2) 0.21298(16) 0.37554(19)
H13 H -1.1617 0.1526 0.3703
C15 C -1.1167(2) 0.25318(16) 0.27915(19)
H14 H -1.1367 0.2126 0.2277
C16 C -1.2519(2) 0.33379(16) 0.35612(19)
C17 C -0.7912(2) 0.61779(16) 0.80095(19)
H15 H -0.7920 0.6519 0.8584
H16 H -0.7150 0.5903 0.7986
C18 C -1.0674(2) 0.70122(16) 0.7962(2)
H17 H -1.0312 0.7287 0.8516
H18 H -1.1467 0.7233 0.7886
O1B O -1.23500(16) 0.55727(12) 0.24648(14)
O2B O -0.75533(16) 0.41236(12) 0.26889(14)
O3B O -1.15537(15) 0.71887(12) 0.36808(14)
O4B O -0.67209(16) 0.59947(13) 0.40350(14)
O5B O -1.16320(15) 0.74908(12) 0.61682(14)
O6B O -0.67705(19) 0.61113(13) 0.62840(14)
N1B N -1.12118(18) 0.44760(14) 0.19610(16)
N2B N -1.06087(19) 0.58072(14) 0.18063(18)
N3B N -0.92738(19) 0.38939(14) 0.18766(16)
N4B N -0.86894(18) 0.52291(14) 0.21077(16)
N5B N -0.99953(18) 0.70090(15) 0.27656(16)
N6B N -0.97349(18) 0.76759(14) 0.41134(16)
N7B N -0.80325(19) 0.64969(14) 0.29205(16)
N8B N -0.77330(18) 0.72444(14) 0.42023(16)
N9B N -0.97728(18) 0.78069(14) 0.57740(16)
N10B N -1.00468(18) 0.72605(14) 0.71603(16)
N11B N -0.77905(19) 0.73234(14) 0.58668(16)
N12B N -0.80768(19) 0.67379(14) 0.72224(16)
C1B C -1.1480(2) 0.53102(17) 0.21144(19)
C2B C -1.0187(2) 0.43919(16) 0.14340(19)
H1B H -1.0370 0.4199 0.0786
C3B C -0.9681(2) 0.53094(16) 0.14676(19)
H2B H -0.9458 0.5506 0.0843
C4B C -0.8421(2) 0.43897(16) 0.22664(18)
C5B C -1.0608(2) 0.67144(16) 0.1941(2)
H3B H -1.0269 0.6985 0.1399
H4B H -1.1414 0.6910 0.1959
C6B C -0.7823(2) 0.58811(16) 0.22008(19)
H5B H -0.7069 0.5607 0.2337
H6B H -0.7779 0.6184 0.1604
C7B C -1.0538(2) 0.72798(15) 0.35369(19)
C8B C -0.8790(2) 0.72252(16) 0.27852(19)
H7B H -0.8588 0.7575 0.2238
C9B C -0.8622(2) 0.77274(16) 0.37103(19)
H8B H -0.8384 0.8330 0.3605
C10B C -0.7431(2) 0.65203(16) 0.37526(19)
C11B C -1.0048(2) 0.81968(17) 0.48897(19)
H9B H -1.0883 0.8312 0.4838
H10B H -0.9644 0.8750 0.4859
C12B C -0.7164(2) 0.75275(18) 0.50537(18)
H11B H -0.6395 0.7261 0.5112
H12B H -0.7055 0.8152 0.5025
C13B C -1.0591(2) 0.75157(15) 0.63489(19)
C14B C -0.8650(2) 0.78702(16) 0.62446(19)
H13B H -0.8383 0.8474 0.6297
C15B C -0.8833(2) 0.74682(16) 0.72085(19)
H14B H -0.8633 0.7874 0.7723
C16B C -0.7481(2) 0.66621(16) 0.64388(19)
C17B C -1.2088(2) 0.38221(16) 0.19905(19)
H15B H -1.2080 0.3481 0.1416
H16B H -1.2850 0.4097 0.2014
C18B C -0.9326(2) 0.29878(16) 0.2038(2)
H17B H -0.9688 0.2713 0.1484
H18B H -0.8533 0.2767 0.2114
N13 N -0.7441(2) 0.44727(17) 0.55285(19)
H19 H -0.6871 0.4200 0.5237
H20 H -0.7612 0.4178 0.6046
H21 H -0.7204 0.5007 0.5689
C19 C -0.8475(2) 0.45276(18) 0.4899(2)
H22 H -0.8713 0.3945 0.4713
H23 H -0.8278 0.4840 0.4334
C20 C -0.9475(2) 0.49704(18) 0.5332(2)
H24 H -0.9238 0.5551 0.5525
H25 H -0.9682 0.4654 0.5892
N13B N -1.2559(2) 0.55273(17) 0.44715(19)
H19B H -1.3129 0.5800 0.4763
H20B H -1.2388 0.5822 0.3954
H21B H -1.2796 0.4993 0.4311
C19B C -1.1525(2) 0.54724(18) 0.5101(2)
H22B H -1.1287 0.6055 0.5287
H23B H -1.1722 0.5160 0.5666
C20B C -1.0525(2) 0.50296(18) 0.4668(2)
H24B H -1.0762 0.4449 0.4475
H25B H -1.0318 0.5346 0.4108
O7 O -1.6154(2) 0.22062(15) 0.48982(16)
O8 O -1.5440(2) 0.4156(2) 0.6705(2)
O9 O -1.5411(6) 0.3840(4) 0.4659(6)
O10 O -1.0157(2) 0.00609(17) 0.35769(18)
O11 O -1.5350(5) 0.3922(4) 0.2849(4)
O12? O -1.5850(3) 0.3894(3) 0.4112(3)
loop_
_geom_bond_atom_site_label_1
_geom_bond_atom_site_label_2
_geom_bond_site_symmetry_1
_geom_bond_site_symmetry_2
O1 C1 1_555 1_555
O2 C4 1_555 1_555
O3 C7 1_555 1_555
O4 C10 1_555 1_555
O5 C13 1_555 1_555
O6 C16 1_555 1_555
N1 C1 1_555 1_555
N2 C1 1_555 1_555
N3 C2 1_555 1_555
N4 C3 1_555 1_555
N5 C5 1_555 1_555
N6 C7 1_555 1_555
N7 C6 1_555 1_555
N8 C9 1_555 1_555
N9 C11 1_555 1_555
N10 C13 1_555 1_555
N11 C12 1_555 1_555
N12 C15 1_555 1_555
C2 N1 1_555 1_555
H1 C2 1_555 1_555
C3 N2 1_555 1_555
H2 C3 1_555 1_555
C4 N3 1_555 1_555
C5 N2 1_555 1_555
H3 C5 1_555 1_555
H4 C5 1_555 1_555
C6 N4 1_555 1_555
H5 C6 1_555 1_555
H6 C6 1_555 1_555
C7 N5 1_555 1_555
C8 N5 1_555 1_555
H7 C8 1_555 1_555
C9 N6 1_555 1_555
H8 C9 1_555 1_555
C10 N7 1_555 1_555
C11 N6 1_555 1_555
H9 C11 1_555 1_555
H10 C11 1_555 1_555
C12 N8 1_555 1_555
H11 C12 1_555 1_555
H12 C12 1_555 1_555
C13 N9 1_555 1_555
C14 N9 1_555 1_555
H13 C14 1_555 1_555
C15 N10 1_555 1_555
H14 C15 1_555 1_555
C16 N11 1_555 1_555
C17 N1 1_555 1_555
H15 C17 1_555 1_555
H16 C17 1_555 1_555
C18 N3 1_555 1_555
H17 C18 1_555 1_555
H18 C18 1_555 1_555
N13 H19 1_555 1_555
H20 N13 1_555 1_555
H21 N13 1_555 1_555
C19 N13 1_555 1_555
H22 C19 1_555 1_555
H23 C19 1_555 1_555
C20 C19 1_555 1_555
H24 C20 1_555 1_555
H25 C20 1_555 1_555
O1B C1B 1_555 1_555
O2B C4B 1_555 1_555
O3B C7B 1_555 1_555
O4B C10B 1_555 1_555
O5B C13B 1_555 1_555
O6B C16B 1_555 1_555
N1B C1B 1_555 1_555
N2B C1B 1_555 1_555
N3B C2B 1_555 1_555
N4B C3B 1_555 1_555
N5B C5B 1_555 1_555
N6B C7B 1_555 1_555
N7B C6B 1_555 1_555
N8B C9B 1_555 1_555
N9B C11B 1_555 1_555
N10B C18 1_555 1_555
N11B C12B 1_555 1_555
N12B C17 1_555 1_555
C2B N1B 1_555 1_555
H1B C2B 1_555 1_555
C3B N2B 1_555 1_555
H2B C3B 1_555 1_555
C4B N3B 1_555 1_555
C5B N2B 1_555 1_555
H3B C5B 1_555 1_555
H4B C5B 1_555 1_555
C6B N4B 1_555 1_555
H5B C6B 1_555 1_555
H6B C6B 1_555 1_555
C7B N5B 1_555 1_555
C8B N5B 1_555 1_555
H7B C8B 1_555 1_555
C9B N6B 1_555 1_555
H8B C9B 1_555 1_555
C10B N7B 1_555 1_555
C11B N6B 1_555 1_555
H9B C11B 1_555 1_555
H10B C11B 1_555 1_555
C12B N8B 1_555 1_555
H11B C12B 1_555 1_555
H12B C12B 1_555 1_555
C13B N9B 1_555 1_555
C14B N9B 1_555 1_555
H13B C14B 1_555 1_555
C15B N10B 1_555 1_555
H14B C15B 1_555 1_555
C16B N11B 1_555 1_555
C17B N12 1_555 1_555
H15B C17B 1_555 1_555
H16B C17B 1_555 1_555
C18B N10 1_555 1_555
H17B C18B 1_555 1_555
H18B C18B 1_555 1_555
N13B H19B 1_555 1_555
H20B N13B 1_555 1_555
H21B N13B 1_555 1_555
C19B N13B 1_555 1_555
H22B C19B 1_555 1_555
H23B C19B 1_555 1_555
C20B C20 1_555 1_555
H24B C20B 1_555 1_555
H25B C20B 1_555 1_555
N4 C4 1_555 1_555
N7 C8 1_555 1_555
N8 C10 1_555 1_555
N11 C14 1_555 1_555
N12 C16 1_555 1_555
C2 C3 1_555 1_555
C8 C9 1_555 1_555
C14 C15 1_555 1_555
N1B C17B 1_555 1_555
N3B C18B 1_555 1_555
N4B C4B 1_555 1_555
N7B C8B 1_555 1_555
N8B C10B 1_555 1_555
N10B C13B 1_555 1_555
N11B C14B 1_555 1_555
N12B C15B 1_555 1_555
N12B C16B 1_555 1_555
C2B C3B 1_555 1_555
C8B C9B 1_555 1_555
C14B C15B 1_555 1_555
C19B C20B 1_555 1_555

#END
