
#######################################################################
#
#                 Cambridge Crystallographic Data Centre
#                                CCDC 
#
#######################################################################
#
# If this CIF has been generated from an entry in the Cambridge 
# Structural Database, then it will include bibliographic, chemical, 
# crystal, experimental, refinement or atomic coordinate data resulting 
# from the CCDC's data processing and validation procedures.
#
#######################################################################

data_CITJOF
_chemical_formula_moiety         'C32 H24 N7 O6 P3'
_chemical_name_systematic        
1,1-(1,1'-Biphenyl-2,2'-dioxy)-3,3,5,5-tetrakis(2-pyridyloxy)cyclophosphazene
_symmetry_cell_setting           monoclinic
_symmetry_space_group_name_H-M   'C 2/c'
_symmetry_Int_Tables_number      15
_space_group_name_Hall           '-C 2yn'
loop_
_symmetry_equiv_pos_site_id
_symmetry_equiv_pos_as_xyz
1 x,y,z
2 1/2+x,1/2+y,z
3 -x,y,1/2-z
4 1/2-x,1/2+y,1/2-z
5 -x,-y,-z
6 1/2-x,1/2-y,-z
7 x,-y,1/2+z
8 1/2+x,1/2-y,1/2+z
_cell_length_a                   20.2931(17)
_cell_length_b                   10.5916(7)
_cell_length_c                   16.7110(13)
_cell_angle_alpha                90
_cell_angle_beta                 120.105(2)
_cell_angle_gamma                90
_cell_volume                     3107.3
_exptl_crystal_colour            colorless
_exptl_crystal_description       plate
_chemical_melting_point          '209 deg.C'
_cell_formula_units_Z            4
_exptl_crystal_recrystallization_method dichloromethane
loop_
_atom_site_label
_atom_site_type_symbol
_atom_site_fract_x
_atom_site_fract_y
_atom_site_fract_z
P1 P 0.0000 0.65654(4) 0.2500
P2 P 0.023264(17) 0.87928(3) 0.34293(2)
N1 N 0.03617(6) 0.73194(10) 0.34443(7)
N2 N 0.0000 0.95257(14) 0.2500
N3 N 0.21987(7) 0.89574(11) 0.50318(8)
N4 N -0.13277(6) 0.80976(10) 0.26185(8)
O1 O 0.06456(5) 0.56100(8) 0.26009(6)
O2 O 0.09391(5) 0.94593(9) 0.42681(6)
O3 O -0.03265(5) 0.91777(9) 0.38099(6)
C1 C 0.04361(7) 0.45904(11) 0.19836(9)
C2 C 0.06093(7) 0.46440(12) 0.12817(9)
H1 H 0.0829 0.5383 0.1192
C3 C 0.04568(8) 0.35988(13) 0.07097(9)
H2 H 0.0565 0.3626 0.0219
C4 C 0.01461(8) 0.25144(13) 0.08573(10)
H3 H 0.0052 0.1795 0.0475
C5 C -0.00258(8) 0.24835(12) 0.15634(10)
H4 H -0.0234 0.1736 0.1662
C6 C 0.01018(8) 0.35303(12) 0.21327(9)
C7 C 0.16605(7) 0.96418(12) 0.43723(9)
C8 C 0.17700(8) 1.05591(14) 0.38613(11)
H5 H 0.1354 1.1000 0.3376
C9 C 0.25156(9) 1.08040(16) 0.40911(12)
H6 H 0.2625 1.1435 0.3770
C10 C 0.30993(8) 1.01175(15) 0.47943(11)
H7 H 0.3615 1.0283 0.4974
C11 C 0.29167(8) 0.91896(15) 0.52278(10)
H8 H 0.3316 0.8690 0.5687
C12 C -0.10953(7) 0.88819(12) 0.33205(9)
C13 C -0.15540(8) 0.94423(14) 0.36178(10)
H9 H -0.1354 1.0023 0.4119
C14 C -0.23166(8) 0.91118(15) 0.31469(11)
H10 H -0.2657 0.9463 0.3321
C15 C -0.25797(8) 0.82621(14) 0.24169(10)
H11 H -0.3099 0.8010 0.2094
C16 C -0.20724(8) 0.77920(13) 0.21703(9)
H12 H -0.2257 0.7227 0.1661
P2B P -0.023264(17) 0.87928(3) 0.15707(2)
N1B N -0.03617(6) 0.73194(10) 0.15557(7)
N3B N -0.21987(7) 0.89574(11) -0.00318(8)
N4B N 0.13277(6) 0.80976(10) 0.23815(8)
O1B O -0.06456(5) 0.56100(8) 0.23991(6)
O2B O -0.09391(5) 0.94593(9) 0.07319(6)
O3B O 0.03265(5) 0.91777(9) 0.11901(6)
C1B C -0.04361(7) 0.45904(11) 0.30164(9)
C2B C -0.06093(7) 0.46440(12) 0.37183(9)
H1B H -0.0829 0.5383 0.3808
C3B C -0.04568(8) 0.35988(13) 0.42903(9)
H2B H -0.0565 0.3626 0.4781
C4B C -0.01461(8) 0.25144(13) 0.41427(10)
H3B H -0.0052 0.1795 0.4525
C5B C 0.00258(8) 0.24835(12) 0.34366(10)
H4B H 0.0234 0.1736 0.3338
C6B C -0.01018(8) 0.35303(12) 0.28673(9)
C7B C -0.16605(7) 0.96418(12) 0.06277(9)
C8B C -0.17700(8) 1.05591(14) 0.11387(11)
H5B H -0.1354 1.1000 0.1624
C9B C -0.25156(9) 1.08040(16) 0.09089(12)
H6B H -0.2625 1.1435 0.1230
C10B C -0.30993(8) 1.01175(15) 0.02057(11)
H7B H -0.3615 1.0283 0.0026
C11B C -0.29167(8) 0.91896(15) -0.02278(10)
H8B H -0.3316 0.8690 -0.0687
C12B C 0.10953(7) 0.88819(12) 0.16795(9)
C13B C 0.15540(8) 0.94423(14) 0.13822(10)
H9B H 0.1354 1.0023 0.0881
C14B C 0.23166(8) 0.91118(15) 0.18531(11)
H10B H 0.2657 0.9463 0.1679
C15B C 0.25797(8) 0.82621(14) 0.25831(10)
H11B H 0.3099 0.8010 0.2906
C16B C 0.20724(8) 0.77920(13) 0.28297(9)
H12B H 0.2257 0.7227 0.3339
loop_
_geom_bond_atom_site_label_1
_geom_bond_atom_site_label_2
_geom_bond_site_symmetry_1
_geom_bond_site_symmetry_2
P1 N1 1_555 1_555
P2 N1 1_555 1_555
N2 P2 1_555 1_555
N3 C7 1_555 1_555
N4 C12 1_555 1_555
O1 P1 1_555 1_555
O2 P2 1_555 1_555
O3 P2 1_555 1_555
C1 O1 1_555 1_555
C2 C1 1_555 1_555
H1 C2 1_555 1_555
C3 C2 1_555 1_555
H2 C3 1_555 1_555
C4 C3 1_555 1_555
H3 C4 1_555 1_555
C5 C4 1_555 1_555
H4 C5 1_555 1_555
C6 C1 1_555 1_555
C7 O2 1_555 1_555
C8 C7 1_555 1_555
H5 C8 1_555 1_555
C9 C8 1_555 1_555
H6 C9 1_555 1_555
C10 C9 1_555 1_555
H7 C10 1_555 1_555
C11 N3 1_555 1_555
H8 C11 1_555 1_555
C12 O3 1_555 1_555
C13 C12 1_555 1_555
H9 C13 1_555 1_555
C14 C13 1_555 1_555
H10 C14 1_555 1_555
C15 C14 1_555 1_555
H11 C15 1_555 1_555
C16 N4 1_555 1_555
H12 C16 1_555 1_555
P2B N2 1_555 1_555
N1B P1 1_555 1_555
N3B C7B 1_555 1_555
N4B C12B 1_555 1_555
O1B P1 1_555 1_555
O2B P2B 1_555 1_555
O3B P2B 1_555 1_555
C1B O1B 1_555 1_555
C2B C1B 1_555 1_555
H1B C2B 1_555 1_555
C3B C2B 1_555 1_555
H2B C3B 1_555 1_555
C4B C3B 1_555 1_555
H3B C4B 1_555 1_555
C5B C4B 1_555 1_555
H4B C5B 1_555 1_555
C6B C6 1_555 1_555
C7B O2B 1_555 1_555
C8B C7B 1_555 1_555
H5B C8B 1_555 1_555
C9B C8B 1_555 1_555
H6B C9B 1_555 1_555
C10B C9B 1_555 1_555
H7B C10B 1_555 1_555
C11B N3B 1_555 1_555
H8B C11B 1_555 1_555
C12B O3B 1_555 1_555
C13B C12B 1_555 1_555
H9B C13B 1_555 1_555
C14B C13B 1_555 1_555
H10B C14B 1_555 1_555
C15B C14B 1_555 1_555
H11B C15B 1_555 1_555
C16B N4B 1_555 1_555
H12B C16B 1_555 1_555
C5 C6 1_555 1_555
C10 C11 1_555 1_555
C15 C16 1_555 1_555
P2B N1B 1_555 1_555
C1B C6B 1_555 1_555
C5B C6B 1_555 1_555
C10B C11B 1_555 1_555
C15B C16B 1_555 1_555

#END
