
#######################################################################
#
#                 Cambridge Crystallographic Data Centre
#                                CCDC 
#
#######################################################################
#
# If this CIF has been generated from an entry in the Cambridge 
# Structural Database, then it will include bibliographic, chemical, 
# crystal, experimental, refinement or atomic coordinate data resulting 
# from the CCDC's data processing and validation procedures.
#
#######################################################################

data_CITNAV
_chemical_formula_moiety         'C25 H31 N1 O6 Si1'
_chemical_name_systematic        
anti-(5-(1-(5-Isopropyl-2-oxo-1,3-oxazolan-3-yl)-3-phenyl-3-(trimethylsiloxy)-1-oxo-2-propyl)-1,3-benzodioxole)
_symmetry_cell_setting           monoclinic
_symmetry_space_group_name_H-M   'P 21'
_symmetry_Int_Tables_number      4
_space_group_name_Hall           'P 2yb'
loop_
_symmetry_equiv_pos_site_id
_symmetry_equiv_pos_as_xyz
1 x,y,z
2 -x,1/2+y,-z
_cell_length_a                   9.5205(4)
_cell_length_b                   9.8649(4)
_cell_length_c                   13.8453(6)
_cell_angle_alpha                90
_cell_angle_beta                 104.492(2)
_cell_angle_gamma                90
_cell_volume                     1258.96
_exptl_crystal_colour            colorless
_exptl_crystal_description       block
_cell_formula_units_Z            2
loop_
_atom_site_label
_atom_site_type_symbol
_atom_site_fract_x
_atom_site_fract_y
_atom_site_fract_z
Si1 Si 0.30406(6) 0.15029(7) 0.35011(4)
O1 O 0.16046(17) 0.46574(18) 0.19673(12)
O2 O -0.19702(19) 0.2623(2) 0.01449(12)
O3 O -0.0886(2) 0.3288(2) -0.10220(12)
O4 O -0.53382(17) 0.5492(2) 0.17755(15)
O5 O -0.44264(18) 0.74217(19) 0.26580(14)
O6 O 0.13388(15) 0.17866(16) 0.28724(11)
N1 N 0.0269(2) 0.37387(19) 0.05523(13)
C1 C 0.0557(2) 0.3983(2) 0.15773(15)
C2 C -0.0468(2) 0.3409(2) 0.21558(15)
H1 H -0.107(3) 0.267(3) 0.1795(17)
C3 C 0.0441(2) 0.2811(2) 0.31444(16)
H2 H 0.102(3) 0.350(3) 0.3514(17)
C4 C 0.1315(3) 0.4173(3) -0.00137(17)
H3 H 0.164(3) 0.503(3) 0.0177(19)
C5 C 0.0359(3) 0.4099(3) -0.10773(19)
H4 H 0.001(4) 0.502(4) -0.134(3)
H5 H 0.081(4) 0.356(4) -0.151(2)
C6 C -0.0962(3) 0.3165(3) -0.00666(16)
C7 C 0.2661(3) 0.3270(3) 0.01908(18)
H6 H 0.315(3) 0.338(3) 0.089(2)
C8 C 0.2305(4) 0.1778(3) -0.0021(2)
H7 H 0.188(3) 0.169(3) -0.074(2)
H8 H 0.309(4) 0.127(4) 0.010(3)
H9 H 0.168(3) 0.145(4) 0.036(2)
C9 C 0.3716(4) 0.3793(5) -0.0390(3)
H10 H 0.467(4) 0.323(4) -0.025(2)
H11 H 0.390(4) 0.466(5) -0.025(3)
H12 H 0.337(3) 0.378(4) -0.111(3)
C10 C -0.1493(2) 0.4525(2) 0.23133(14)
C11 C -0.2990(2) 0.4358(2) 0.19372(16)
H13 H -0.333(3) 0.360(3) 0.1576(19)
C12 C -0.3862(2) 0.5394(2) 0.20963(16)
C13 C -0.3310(2) 0.6555(3) 0.26153(15)
C14 C -0.1854(3) 0.6749(3) 0.29799(17)
H14 H -0.146(3) 0.757(3) 0.3287(19)
C15 C -0.0942(2) 0.5709(2) 0.28179(17)
H15 H 0.008(3) 0.587(3) 0.303(2)
C16 C -0.5723(3) 0.6701(3) 0.2210(2)
H16 H -0.618(4) 0.649(4) 0.266(3)
H17 H -0.650(4) 0.729(4) 0.175(3)
C17 C -0.0525(2) 0.2215(2) 0.37520(17)
C18 C -0.1244(3) 0.1007(3) 0.3490(2)
H18 H -0.120(4) 0.062(4) 0.290(3)
C19 C -0.2150(4) 0.0483(3) 0.4033(3)
H19 H -0.264(4) -0.021(4) 0.379(2)
C20 C -0.2340(3) 0.1164(4) 0.4866(2)
H20 H -0.297(4) 0.079(4) 0.530(3)
C21 C -0.1637(3) 0.2391(4) 0.5139(2)
H21 H -0.178(4) 0.298(5) 0.575(3)
C22 C -0.0723(3) 0.2911(3) 0.45851(17)
H22 H -0.016(3) 0.380(3) 0.476(2)
C23 C 0.3106(4) 0.1193(5) 0.4833(2)
H23 H 0.2497 0.0410 0.4887
H24 H 0.2747 0.1994 0.5114
H25 H 0.4109 0.1010 0.5201
C24 C 0.4199(4) 0.2990(5) 0.3444(4)
H26 H 0.4199 0.3171 0.2748
H27 H 0.5192 0.2805 0.3831
H28 H 0.3819 0.3782 0.3724
C25 C 0.3550(4) -0.0009(5) 0.2891(4)
H29 H 0.3505 0.0199 0.2192
H30 H 0.2877 -0.0749 0.2923
H31 H 0.4539 -0.0282 0.3233
loop_
_geom_bond_atom_site_label_1
_geom_bond_atom_site_label_2
_geom_bond_site_symmetry_1
_geom_bond_site_symmetry_2
Si1 O6 1_555 1_555
O1 C1 1_555 1_555
O2 C6 1_555 1_555
O3 C5 1_555 1_555
O4 C12 1_555 1_555
O5 C13 1_555 1_555
O6 C3 1_555 1_555
N1 C1 1_555 1_555
C1 C2 1_555 1_555
C2 H1 1_555 1_555
C3 C2 1_555 1_555
H2 C3 1_555 1_555
C4 N1 1_555 1_555
H3 C4 1_555 1_555
C5 C4 1_555 1_555
H4 C5 1_555 1_555
H5 C5 1_555 1_555
C6 O3 1_555 1_555
C7 C4 1_555 1_555
H6 C7 1_555 1_555
C8 C7 1_555 1_555
H7 C8 1_555 1_555
H8 C8 1_555 1_555
H9 C8 1_555 1_555
C9 C7 1_555 1_555
H10 C9 1_555 1_555
H11 C9 1_555 1_555
H12 C9 1_555 1_555
C10 C2 1_555 1_555
C11 C10 1_555 1_555
H13 C11 1_555 1_555
C12 C11 1_555 1_555
C13 C12 1_555 1_555
C14 C13 1_555 1_555
H14 C14 1_555 1_555
C15 C10 1_555 1_555
H15 C15 1_555 1_555
C16 O4 1_555 1_555
H16 C16 1_555 1_555
H17 C16 1_555 1_555
C17 C3 1_555 1_555
C18 C17 1_555 1_555
H18 C18 1_555 1_555
C19 C18 1_555 1_555
H19 C19 1_555 1_555
C20 C19 1_555 1_555
H20 C20 1_555 1_555
C21 C20 1_555 1_555
H21 C21 1_555 1_555
C22 C17 1_555 1_555
H22 C22 1_555 1_555
C23 Si1 1_555 1_555
H23 C23 1_555 1_555
H24 C23 1_555 1_555
H25 C23 1_555 1_555
C24 Si1 1_555 1_555
H26 C24 1_555 1_555
H27 C24 1_555 1_555
H28 C24 1_555 1_555
C25 Si1 1_555 1_555
H29 C25 1_555 1_555
H30 C25 1_555 1_555
H31 C25 1_555 1_555
O5 C16 1_555 1_555
N1 C6 1_555 1_555
C14 C15 1_555 1_555
C21 C22 1_555 1_555

#END
