
#######################################################################
#
#                 Cambridge Crystallographic Data Centre
#                                CCDC 
#
#######################################################################
#
# If this CIF has been generated from an entry in the Cambridge 
# Structural Database, then it will include bibliographic, chemical, 
# crystal, experimental, refinement or atomic coordinate data resulting 
# from the CCDC's data processing and validation procedures.
#
#######################################################################

data_CITQEB
_chemical_name_common            
1,2,2,4,4,4-Hexahydrido-1,1,3,3-tetraphenyl-2,4-dibory-1,3-diphosphy-[4]catena
_chemical_formula_moiety         'C24 H26 B2 P2'
_chemical_name_systematic        
1,1,3,3-Tetraphenyl-2,4-dibora-1,3-diphosphabutane
_symmetry_cell_setting           orthorhombic
_symmetry_space_group_name_H-M   'P 21 21 21'
_symmetry_Int_Tables_number      19
_space_group_name_Hall           'P 2ac 2ab'
loop_
_symmetry_equiv_pos_site_id
_symmetry_equiv_pos_as_xyz
1 x,y,z
2 1/2-x,-y,1/2+z
3 -x,1/2+y,1/2-z
4 1/2+x,1/2-y,-z
_cell_length_a                   10.247(2)
_cell_length_b                   13.616(3)
_cell_length_c                   15.684(3)
_cell_angle_alpha                90
_cell_angle_beta                 90
_cell_angle_gamma                90
_cell_volume                     2188.28
_exptl_crystal_colour            colorless
_exptl_crystal_description       needle
_cell_formula_units_Z            4
_exptl_crystal_recrystallization_method 'diethyl ether'
loop_
_atom_site_label
_atom_site_type_symbol
_atom_site_fract_x
_atom_site_fract_y
_atom_site_fract_z
P1 P 0.95826(5) 0.95688(3) 0.91711(3)
P2 P 0.79259(5) 1.14445(4) 0.87058(3)
B1 B 0.9487(3) 1.00589(17) 1.03251(14)
H1 H 0.8503(13) 0.9843(9) 1.0620(5)
H2 H 0.9584(13) 1.0898(10) 1.03200(16)
H3 H 1.0319(13) 0.9726(9) 1.0721(6)
B2 B 0.8210(2) 1.00825(17) 0.84411(16)
C1 C 0.9457(2) 0.82324(13) 0.91788(12)
C2 C 0.8235(2) 0.78006(14) 0.92590(13)
H4 H 0.7478 0.8203 0.9270
C3 C 0.8104(2) 0.67819(15) 0.93234(14)
H5 H 0.7264 0.6493 0.9374
C4 C 0.9206(2) 0.61997(15) 0.93124(14)
H6 H 0.9123 0.5507 0.9356
C5 C 1.0423(2) 0.66153(15) 0.92392(14)
H7 H 1.1178 0.6210 0.9239
C6 C 1.0553(2) 0.76341(14) 0.91655(13)
H8 H 1.1395 0.7918 0.9106
C7 C 1.11351(19) 0.98322(14) 0.86604(12)
C8 C 1.1339(2) 0.95845(16) 0.78060(13)
H9 H 1.0689 0.9230 0.7503
C9 C 1.2483(2) 0.98521(17) 0.73989(15)
H10 H 1.2615 0.9683 0.6818
C10 C 1.3438(2) 1.03671(18) 0.78382(15)
H11 H 1.4216 1.0563 0.7556
C11 C 1.3255(2) 1.05931(17) 0.86851(15)
H12 H 1.3921 1.0930 0.8988
C12 C 1.2113(2) 1.03352(15) 0.91015(13)
H13 H 1.1995 1.0500 0.9685
C13 C 0.66874(19) 1.20071(14) 0.80490(12)
C14 C 0.6601(2) 1.17709(16) 0.71882(13)
H14 H 0.7133 1.1266 0.6956
C15 C 0.5729(2) 1.22788(17) 0.66684(15)
H15 H 0.5674 1.2128 0.6078
C16 C 0.4945(2) 1.30027(16) 0.70148(15)
H16 H 0.4358 1.3353 0.6658
C17 C 0.5007(2) 1.32213(17) 0.78717(15)
H17 H 0.4452 1.3711 0.8106
C18 C 0.5878(2) 1.27281(15) 0.83904(14)
H18 H 0.5925 1.2881 0.8981
C19 C 0.93206(18) 1.22497(13) 0.86958(13)
C20 C 1.0294(2) 1.21374(14) 0.80771(12)
H19 H 1.0221 1.1638 0.7657
C21 C 1.1366(2) 1.27591(16) 0.80816(14)
H20 H 1.2029 1.2686 0.7663
C22 C 1.1472(2) 1.34905(15) 0.86981(14)
H21 H 1.2213 1.3910 0.8706
C23 C 1.0504(2) 1.36040(15) 0.92939(13)
H22 H 1.0572 1.4111 0.9708
C24 C 0.9432(2) 1.29879(14) 0.92981(13)
H23 H 0.8769 1.3072 0.9715
H24 H 0.754(2) 1.1585(14) 0.9518(12)
H25 H 0.720(2) 0.9746(17) 0.8592(15)
H26 H 0.845(2) 1.0016(19) 0.7752(17)
loop_
_geom_bond_atom_site_label_1
_geom_bond_atom_site_label_2
_geom_bond_site_symmetry_1
_geom_bond_site_symmetry_2
P1 B1 1_555 1_555
P2 B2 1_555 1_555
B1 H1 1_555 1_555
H2 B1 1_555 1_555
H3 B1 1_555 1_555
B2 P1 1_555 1_555
C1 P1 1_555 1_555
C2 C1 1_555 1_555
H4 C2 1_555 1_555
C3 C2 1_555 1_555
H5 C3 1_555 1_555
C4 C3 1_555 1_555
H6 C4 1_555 1_555
C5 C4 1_555 1_555
H7 C5 1_555 1_555
C6 C1 1_555 1_555
H8 C6 1_555 1_555
C7 P1 1_555 1_555
C8 C7 1_555 1_555
H9 C8 1_555 1_555
C9 C8 1_555 1_555
H10 C9 1_555 1_555
C10 C9 1_555 1_555
H11 C10 1_555 1_555
C11 C10 1_555 1_555
H12 C11 1_555 1_555
C12 C7 1_555 1_555
H13 C12 1_555 1_555
C13 P2 1_555 1_555
C14 C13 1_555 1_555
H14 C14 1_555 1_555
C15 C14 1_555 1_555
H15 C15 1_555 1_555
C16 C15 1_555 1_555
H16 C16 1_555 1_555
C17 C16 1_555 1_555
H17 C17 1_555 1_555
C18 C13 1_555 1_555
H18 C18 1_555 1_555
C19 P2 1_555 1_555
C20 C19 1_555 1_555
H19 C20 1_555 1_555
C21 C20 1_555 1_555
H20 C21 1_555 1_555
C22 C21 1_555 1_555
H21 C22 1_555 1_555
C23 C22 1_555 1_555
H22 C23 1_555 1_555
C24 C19 1_555 1_555
H23 C24 1_555 1_555
H24 P2 1_555 1_555
H25 B2 1_555 1_555
H26 B2 1_555 1_555
C5 C6 1_555 1_555
C11 C12 1_555 1_555
C17 C18 1_555 1_555
C23 C24 1_555 1_555

#END
