
#######################################################################
#
#                 Cambridge Crystallographic Data Centre
#                                CCDC 
#
#######################################################################
#
# If this CIF has been generated from an entry in the Cambridge 
# Structural Database, then it will include bibliographic, chemical, 
# crystal, experimental, refinement or atomic coordinate data resulting 
# from the CCDC's data processing and validation procedures.
#
#######################################################################

data_CITROP
_chemical_formula_moiety         'C13 H14 N3 1+,C7 H7 O3 S1 1-'
_chemical_name_systematic        
"N,N'-diphenylguanidinium 4-methylbenzene-1-sulfonate"
_symmetry_cell_setting           orthorhombic
_symmetry_space_group_name_H-M   'F d d 2'
_symmetry_Int_Tables_number      43
_space_group_name_Hall           'F 2 -2d'
loop_
_symmetry_equiv_pos_site_id
_symmetry_equiv_pos_as_xyz
1 x,y,z
2 -x,-y,z
3 1/4-x,1/4+y,1/4+z
4 1/4+x,1/4-y,1/4+z
5 x,1/2+y,1/2+z
6 -x,1/2-y,1/2+z
7 1/4-x,3/4+y,3/4+z
8 1/4+x,3/4-y,3/4+z
9 1/2+x,y,1/2+z
10 1/2-x,-y,1/2+z
11 3/4-x,1/4+y,3/4+z
12 3/4+x,1/4-y,3/4+z
13 1/2+x,1/2+y,z
14 1/2-x,1/2-y,z
15 3/4-x,3/4+y,1/4+z
16 3/4+x,3/4-y,1/4+z
_cell_length_a                   28.6111(17)
_cell_length_b                   46.325(3)
_cell_length_c                   5.9813(3)
_cell_angle_alpha                90
_cell_angle_beta                 90
_cell_angle_gamma                90
_cell_volume                     7927.67
_exptl_crystal_colour            colorless
_exptl_crystal_description       block
_cell_formula_units_Z            16
loop_
_atom_site_label
_atom_site_type_symbol
_atom_site_fract_x
_atom_site_fract_y
_atom_site_fract_z
S1 S 0.77942(2) 0.094238(16) -1.05881(12)
O1 O 0.73889(8) 0.08833(5) -1.1972(3)
O2 O 0.76935(7) 0.11750(4) -0.8998(4)
O3 O 0.82159(8) 0.09894(6) -1.1828(5)
C1 C 0.78937(10) 0.06315(6) -0.8954(5)
C2 C 0.77689(11) 0.03522(6) -0.5643(6)
H1 H 0.7629 0.0332 -0.4249
C3 C 0.80505(11) 0.01324(7) -0.6447(5)
C4 C 0.81801(11) 0.04133(7) -0.9774(6)
H2 H 0.8321 0.0432 -1.1169
C5 C 0.76908(11) 0.06008(7) -0.6865(5)
H3 H 0.7503 0.0747 -0.6288
C6 C 0.82535(13) 0.01703(7) -0.8508(6)
H4 H 0.8448 0.0026 -0.9065
C7 C 0.81349(15) -0.01368(8) -0.5074(8)
H5 H 0.7969 -0.0122 -0.3684
H6 H 0.8463 -0.0156 -0.4781
H7 H 0.8026 -0.0303 -0.5885
N1 N 0.92720(9) 0.11746(6) -0.5649(5)
H8 H 0.9528 0.1269 -0.5822
N2 N 0.89588(9) 0.14851(6) -0.8227(5)
H9 H 0.9232 0.1488 -0.8826
N3 N 0.84709(9) 0.12011(6) -0.6049(5)
H10 H 0.8435 0.1074 -0.5013
H11 H 0.8230 0.1274 -0.6702
C8 C 0.88942(10) 0.12840(7) -0.6635(5)
C9 C 0.92974(10) 0.09208(7) -0.4349(6)
C10 C 0.86430(12) 0.16914(7) -0.9048(6)
C11 C 0.82738(13) 0.17994(8) -0.7850(8)
H12 H 0.8209 0.1726 -0.6437
C12 C 0.91706(16) 0.04190(10) -0.3784(12)
H13 H 0.9047 0.0244 -0.4255
C13 C 0.87327(17) 0.17989(8) -1.1173(7)
H14 H 0.8975 0.1724 -1.2030
C14 C 0.91127(12) 0.06631(8) -0.5062(7)
H15 H 0.8949 0.0654 -0.6404
C15 C 0.79985(16) 0.20160(9) -0.8724(12)
H16 H 0.7748 0.2087 -0.7902
C16 C 0.94139(18) 0.04365(14) -0.1795(13)
H17 H 0.9451 0.0272 -0.0923
C17 C 0.95408(13) 0.09344(9) -0.2373(7)
H18 H 0.9666 0.1109 -0.1897
C18 C 0.8092(2) 0.21267(11) -1.0782(13)
H19 H 0.7907 0.2275 -1.1349
C19 C 0.8451(2) 0.20234(10) -1.2007(9)
H20 H 0.8512 0.2101 -1.3411
C20 C 0.96002(19) 0.06902(15) -0.1094(9)
H21 H 0.9767 0.0699 0.0240
loop_
_geom_bond_atom_site_label_1
_geom_bond_atom_site_label_2
_geom_bond_site_symmetry_1
_geom_bond_site_symmetry_2
S1 O1 1_555 1_555
O2 S1 1_555 1_555
O3 S1 1_555 1_555
C1 S1 1_555 1_555
C2 H1 1_555 1_555
C3 C2 1_555 1_555
C4 C1 1_555 1_555
H2 C4 1_555 1_555
C5 C1 1_555 1_555
H3 C5 1_555 1_555
C6 C3 1_555 1_555
H4 C6 1_555 1_555
C7 C3 1_555 1_555
H5 C7 1_555 1_555
H6 C7 1_555 1_555
H7 C7 1_555 1_555
N1 H8 1_555 1_555
N2 H9 1_555 1_555
N3 H10 1_555 1_555
H11 N3 1_555 1_555
C8 N1 1_555 1_555
C9 N1 1_555 1_555
C10 N2 1_555 1_555
C11 C10 1_555 1_555
H12 C11 1_555 1_555
C12 H13 1_555 1_555
C13 C10 1_555 1_555
H14 C13 1_555 1_555
C14 C9 1_555 1_555
H15 C14 1_555 1_555
C15 C11 1_555 1_555
H16 C15 1_555 1_555
C16 C12 1_555 1_555
H17 C16 1_555 1_555
C17 C9 1_555 1_555
H18 C17 1_555 1_555
C18 C15 1_555 1_555
H19 C18 1_555 1_555
C19 C13 1_555 1_555
H20 C19 1_555 1_555
C20 C16 1_555 1_555
H21 C20 1_555 1_555
C2 C5 1_555 1_555
C4 C6 1_555 1_555
N2 C8 1_555 1_555
N3 C8 1_555 1_555
C12 C14 1_555 1_555
C17 C20 1_555 1_555
C18 C19 1_555 1_555

#END
