
#######################################################################
#
#                 Cambridge Crystallographic Data Centre
#                                CCDC 
#
#######################################################################
#
# If this CIF has been generated from an entry in the Cambridge 
# Structural Database, then it will include bibliographic, chemical, 
# crystal, experimental, refinement or atomic coordinate data resulting 
# from the CCDC's data processing and validation procedures.
#
#######################################################################

data_CIVBUG
_chemical_name_common            
"Hexa-aqua-magnesium(ii) bis(8-bromoirisolidone-3'-sulfonate) dihydrate"
_chemical_formula_moiety         
'H12 Mg1 O6 2+,2(C17 H12 Br1 O9 S1 1-),2(H2 O1)'
_chemical_name_systematic        
'Hexa-aqua-magnesium(ii) bis(5-(8-bromo-5,7-dihydroxy-6-methoxy-4-oxo-4H-chromen-3-yl)-2-methoxybenzenesulfonate) dihydrate'
_symmetry_cell_setting           triclinic
_symmetry_space_group_name_H-M   'P -1'
_symmetry_Int_Tables_number      2
_space_group_name_Hall           '-P 1'
loop_
_symmetry_equiv_pos_site_id
_symmetry_equiv_pos_as_xyz
1 x,y,z
2 -x,-y,-z
_cell_length_a                   8.2735(14)
_cell_length_b                   8.6467(16)
_cell_length_c                   15.725(3)
_cell_angle_alpha                95.879(3)
_cell_angle_beta                 104.021(3)
_cell_angle_gamma                104.274(3)
_cell_volume                     1041.88
_exptl_crystal_colour            yellow
_exptl_crystal_description       needle
_cell_formula_units_Z            1
loop_
_atom_site_label
_atom_site_type_symbol
_atom_site_fract_x
_atom_site_fract_y
_atom_site_fract_z
Mg1 Mg 0.0000 0.0000 1.0000
O1 O 0.0121(9) 0.2304(9) 0.9705(5)
H1 H 0.068(12) 0.284(11) 0.941(6)
H2 H -0.070(9) 0.268(12) 0.971(7)
O2 O 0.1304(8) -0.0451(8) 0.9077(5)
H3 H 0.157(10) -0.125(7) 0.923(7)
H4 H 0.210(8) 0.008(9) 0.891(6)
O3 O -0.2381(9) -0.0816(10) 0.9059(5)
H5 H -0.329(8) -0.148(10) 0.903(7)
H6 H -0.262(14) -0.042(13) 0.861(4)
O1A O -0.0121(9) -0.2304(9) 1.0295(5)
H1A H -0.068(12) -0.284(11) 1.059(6)
H2A H 0.070(9) -0.268(12) 1.029(7)
O2A O -0.1304(8) 0.0451(8) 1.0923(5)
H3A H -0.157(10) 0.125(7) 1.077(7)
H4A H -0.210(8) -0.008(9) 1.109(6)
O3A O 0.2381(9) 0.0816(10) 1.0941(5)
H5A H 0.329(8) 0.148(10) 1.097(7)
H6A H 0.262(14) 0.042(13) 1.139(4)
O4 O 0.4066(9) 0.1782(8) 0.8783(4)
H7 H 0.485(9) 0.183(11) 0.923(4)
H8 H 0.370(12) 0.256(8) 0.887(6)
Br1 Br 0.11971(14) 1.00623(14) 0.28259(7)
S1 S 0.3137(3) 0.6020(3) 0.89845(14)
O5 O 0.2685(7) 0.4349(7) 0.9120(4)
O6 O 0.2860(8) 0.7126(7) 0.9672(4)
O7 O 0.4868(7) 0.6545(8) 0.8878(4)
O8 O -0.0609(7) 0.5058(8) 0.8556(4)
O9 O 0.1181(7) 0.8789(8) 0.4526(4)
O10 O 0.4486(8) 0.6689(8) 0.6023(4)
O11 O 0.6469(7) 0.7230(8) 0.4989(4)
H9 H 0.6166 0.6941 0.5421
O12 O 0.6952(7) 0.8377(7) 0.3443(4)
O13 O 0.4478(8) 0.9565(8) 0.2468(4)
H10 H 0.5307 0.9324 0.2351
C1 C -0.2428(12) 0.4702(13) 0.8473(6)
H11 H -0.3037 0.3747 0.8035
H12 H -0.2837 0.5598 0.8293
H13 H -0.2630 0.4524 0.9036
C2 C -0.0091(12) 0.5526(11) 0.7829(6)
C3 C -0.1210(12) 0.5434(11) 0.7012(6)
H14 H -0.2400 0.5007 0.6910
C4 C -0.0542(12) 0.5982(11) 0.6348(6)
H15 H -0.1306 0.5882 0.5791
C5 C 0.1218(11) 0.6680(11) 0.6461(5)
C6 C 0.2342(12) 0.6685(11) 0.7287(5)
H16 H 0.3535 0.7088 0.7386
C7 C 0.1678(11) 0.6085(11) 0.7966(5)
C8 C 0.0882(11) 0.8168(10) 0.5249(5)
H17 H -0.0100 0.8288 0.5406
C9 C 0.1852(11) 0.7400(11) 0.5760(6)
C10 C 0.3463(11) 0.7291(11) 0.5555(5)
C11 C 0.3793(10) 0.7926(10) 0.4774(5)
C12 C 0.2627(10) 0.8628(10) 0.4276(5)
C13 C 0.2833(11) 0.9180(10) 0.3499(5)
C14 C 0.4266(12) 0.9052(11) 0.3220(6)
C15 C 0.5484(12) 0.8379(11) 0.3728(6)
C16 C 0.5242(11) 0.7830(11) 0.4492(6)
C17 C 0.7180(12) 0.6879(12) 0.3216(6)
H18 H 0.6227 0.6258 0.2722
H19 H 0.7227 0.6320 0.3715
H20 H 0.8246 0.7014 0.3053
loop_
_geom_bond_atom_site_label_1
_geom_bond_atom_site_label_2
_geom_bond_site_symmetry_1
_geom_bond_site_symmetry_2
Mg1 O1 1_555 1_555
O1 H1 1_555 1_555
H2 O1 1_555 1_555
O2 Mg1 1_555 1_555
H3 O2 1_555 1_555
H4 O2 1_555 1_555
O3 Mg1 1_555 1_555
H5 O3 1_555 1_555
H6 O3 1_555 1_555
O4 H7 1_555 1_555
H8 O4 1_555 1_555
Br1 C13 1_555 1_555
S1 O5 1_555 1_555
O6 S1 1_555 1_555
O7 S1 1_555 1_555
O8 C1 1_555 1_555
O9 C8 1_555 1_555
O10 C10 1_555 1_555
O11 H9 1_555 1_555
O12 C15 1_555 1_555
O13 H10 1_555 1_555
C1 H11 1_555 1_555
H12 C1 1_555 1_555
H13 C1 1_555 1_555
C2 O8 1_555 1_555
C3 C2 1_555 1_555
H14 C3 1_555 1_555
C4 C3 1_555 1_555
H15 C4 1_555 1_555
C5 C4 1_555 1_555
C6 C5 1_555 1_555
H16 C6 1_555 1_555
C7 S1 1_555 1_555
C8 H17 1_555 1_555
C9 C5 1_555 1_555
C10 C9 1_555 1_555
C11 C10 1_555 1_555
C12 O9 1_555 1_555
C13 C12 1_555 1_555
C14 O13 1_555 1_555
C15 C14 1_555 1_555
C16 O11 1_555 1_555
C17 O12 1_555 1_555
H18 C17 1_555 1_555
H19 C17 1_555 1_555
H20 C17 1_555 1_555
O1A Mg1 1_555 1_555
H1A O1A 1_555 1_555
H2A O1A 1_555 1_555
O2A Mg1 1_555 1_555
H3A O2A 1_555 1_555
H4A O2A 1_555 1_555
O3A Mg1 1_555 1_555
H5A O3A 1_555 1_555
H6A O3A 1_555 1_555
C2 C7 1_555 1_555
C6 C7 1_555 1_555
C8 C9 1_555 1_555
C11 C12 1_555 1_555
C11 C16 1_555 1_555
C13 C14 1_555 1_555
C15 C16 1_555 1_555

#END
