
#######################################################################
#
#                 Cambridge Crystallographic Data Centre
#                                CCDC 
#
#######################################################################
#
# If this CIF has been generated from an entry in the Cambridge 
# Structural Database, then it will include bibliographic, chemical, 
# crystal, experimental, refinement or atomic coordinate data resulting 
# from the CCDC's data processing and validation procedures.
#
#######################################################################

data_CIVLUQ
_chemical_formula_moiety         'C27 H21 F6 N1 O1 S1'
_chemical_name_systematic        
3-(3,3,4,4,5,5-Hexafluoro-2-(5-(3-methoxyphenyl)-2-methyl-3-thienyl)cyclopent-1-en-1-yl)-1,2-dimethyl-1H-indole
_symmetry_cell_setting           monoclinic
_symmetry_space_group_name_H-M   'P 21/c'
_symmetry_Int_Tables_number      14
_space_group_name_Hall           '-P 2ybc'
loop_
_symmetry_equiv_pos_site_id
_symmetry_equiv_pos_as_xyz
1 x,y,z
2 -x,1/2+y,1/2-z
3 -x,-y,-z
4 x,1/2-y,1/2+z
_cell_length_a                   10.5158(7)
_cell_length_b                   9.6720(6)
_cell_length_c                   23.9488(15)
_cell_angle_alpha                90
_cell_angle_beta                 90.8710(10)
_cell_angle_gamma                90
_cell_volume                     2435.52
_exptl_crystal_colour            yellow
_exptl_crystal_description       block
_cell_formula_units_Z            4
loop_
_atom_site_label
_atom_site_type_symbol
_atom_site_fract_x
_atom_site_fract_y
_atom_site_fract_z
S1 S 0.01688(4) 0.27802(6) 0.42448(2)
C1 C 0.32195(17) 0.09317(17) 0.29536(7)
C2 C 0.40957(17) -0.10429(17) 0.32995(7)
C3 C 0.39215(16) 0.04192(17) 0.34004(6)
C4 C 0.34613(18) -0.13311(18) 0.27920(7)
C5 C 0.4692(2) -0.21359(19) 0.35807(8)
H1 H 0.5105 -0.1991 0.3922
C6 C 0.3428(2) -0.2645(2) 0.25564(9)
H2 H 0.3001 -0.2811 0.2220
C7 C 0.4044(2) -0.3683(2) 0.28363(10)
H3 H 0.4052 -0.4569 0.2685
C8 C 0.4657(2) -0.3436(2) 0.33421(10)
H4 H 0.5057 -0.4166 0.3527
C9 C 0.2882(2) 0.23890(19) 0.28114(8)
H5 H 0.3023 0.2547 0.2421
H6 H 0.3404 0.3008 0.3029
H7 H 0.2003 0.2550 0.2892
C10 C 0.2206(2) -0.0020(2) 0.20710(9)
H8 H 0.1796 0.0866 0.2050
H9 H 0.1575 -0.0737 0.2057
H10 H 0.2769 -0.0122 0.1762
N1 N 0.29329(15) -0.01218(15) 0.25930(6)
C11 C 0.44428(15) 0.12494(16) 0.38541(6)
C12 C 0.39082(15) 0.23150(16) 0.41329(6)
C13 C 0.48464(16) 0.30164(17) 0.45103(7)
C14 C 0.61328(17) 0.2381(2) 0.43649(8)
C15 C 0.57796(16) 0.10359(19) 0.40730(7)
C16 C 0.25671(15) 0.27683(17) 0.41322(7)
C17 C 0.08843(16) 0.43359(19) 0.40857(7)
C18 C 0.15898(16) 0.18940(19) 0.42501(7)
C19 C 0.21612(15) 0.41579(18) 0.40443(7)
H11 H 0.2718 0.4876 0.3966
C20 C 0.1630(2) 0.0389(2) 0.43951(11)
H12 H 0.1680 -0.0148 0.4059
H13 H 0.0873 0.0143 0.4591
H14 H 0.2362 0.0206 0.4628
C21 C 0.01230(16) 0.56071(19) 0.40090(8)
C22 C 0.04907(16) 0.6611(2) 0.36361(9)
H15 H 0.1235 0.6495 0.3436
C23 C -0.1332(2) 0.7988(2) 0.38602(10)
H16 H -0.1818 0.8784 0.3813
C24 C -0.02388(18) 0.7797(2) 0.35550(10)
C25 C -0.09886(18) 0.5797(2) 0.43141(8)
H17 H -0.1252 0.5131 0.4567
C26 C -0.1688(2) 0.6992(3) 0.42322(10)
H18 H -0.2424 0.7123 0.4436
O1 O 0.01905(15) 0.86993(17) 0.31599(8)
C27 C -0.0544(3) 0.9910(3) 0.30491(14)
H19 H -0.1372 0.9649 0.2913
H20 H -0.0127 1.0462 0.2773
H21 H -0.0626 1.0436 0.3387
F1 F 0.48715(11) 0.44067(11) 0.44479(5)
F2 F 0.66170(10) 0.07105(13) 0.36700(5)
F3 F 0.58530(11) -0.00122(12) 0.44492(5)
F4 F 0.45973(11) 0.27967(13) 0.50558(4)
F5 F 0.69159(12) 0.22246(16) 0.48033(6)
F6 F 0.67301(12) 0.32144(14) 0.39969(6)
loop_
_geom_bond_atom_site_label_1
_geom_bond_atom_site_label_2
_geom_bond_site_symmetry_1
_geom_bond_site_symmetry_2
S1 C17 1_555 1_555
C1 C3 1_555 1_555
C2 C3 1_555 1_555
C3 C11 1_555 1_555
C4 C2 1_555 1_555
C5 C2 1_555 1_555
H1 C5 1_555 1_555
C6 C4 1_555 1_555
H2 C6 1_555 1_555
C7 C6 1_555 1_555
H3 C7 1_555 1_555
C8 C5 1_555 1_555
H4 C8 1_555 1_555
C9 C1 1_555 1_555
H5 C9 1_555 1_555
H6 C9 1_555 1_555
H7 C9 1_555 1_555
C10 H8 1_555 1_555
H9 C10 1_555 1_555
H10 C10 1_555 1_555
N1 C1 1_555 1_555
C11 C12 1_555 1_555
C12 C13 1_555 1_555
C13 C14 1_555 1_555
C14 C15 1_555 1_555
C15 C11 1_555 1_555
C16 C12 1_555 1_555
C17 C19 1_555 1_555
C18 S1 1_555 1_555
C19 C16 1_555 1_555
H11 C19 1_555 1_555
C20 C18 1_555 1_555
H12 C20 1_555 1_555
H13 C20 1_555 1_555
H14 C20 1_555 1_555
C21 C17 1_555 1_555
C22 C21 1_555 1_555
H15 C22 1_555 1_555
C23 H16 1_555 1_555
C24 C22 1_555 1_555
C25 C21 1_555 1_555
H17 C25 1_555 1_555
C26 C23 1_555 1_555
H18 C26 1_555 1_555
O1 C24 1_555 1_555
C27 O1 1_555 1_555
H19 C27 1_555 1_555
H20 C27 1_555 1_555
H21 C27 1_555 1_555
F1 C13 1_555 1_555
F2 C15 1_555 1_555
F3 C15 1_555 1_555
F4 C13 1_555 1_555
F5 C14 1_555 1_555
F6 C14 1_555 1_555
C4 N1 1_555 1_555
C7 C8 1_555 1_555
C10 N1 1_555 1_555
C16 C18 1_555 1_555
C23 C24 1_555 1_555
C25 C26 1_555 1_555

#END
