
#######################################################################
#
#                 Cambridge Crystallographic Data Centre
#                                CCDC 
#
#######################################################################
#
# If this CIF has been generated from an entry in the Cambridge 
# Structural Database, then it will include bibliographic, chemical, 
# crystal, experimental, refinement or atomic coordinate data resulting 
# from the CCDC's data processing and validation procedures.
#
#######################################################################

data_CIVNON
_chemical_formula_moiety         'C21 H21 B1 N2 O3'
_chemical_name_systematic        
1',3',7',9'-tetramethyl-10'-phenyl-2H,4H-spiro[1,3,2-dioxaborolane-2,5'-dipyrrolo[1,2-c:2',1'-f][1,3,2]diazaborinin]-4-one
_symmetry_cell_setting           monoclinic
_symmetry_space_group_name_H-M   'P 21/c'
_symmetry_Int_Tables_number      14
_space_group_name_Hall           '-P 2ybc'
loop_
_symmetry_equiv_pos_site_id
_symmetry_equiv_pos_as_xyz
1 x,y,z
2 -x,1/2+y,1/2-z
3 -x,-y,-z
4 x,1/2-y,1/2+z
_cell_length_a                   21.8781(10)
_cell_length_b                   6.9602(4)
_cell_length_c                   23.8239(14)
_cell_angle_alpha                90
_cell_angle_beta                 93.103(4)
_cell_angle_gamma                90
_cell_volume                     3622.49
_exptl_crystal_colour            orange
_exptl_crystal_description       needle
_cell_formula_units_Z            8
_exptl_crystal_recrystallization_method 
'Re-crystallisation from solvent: dichloromethane/hexane'
loop_
_atom_site_label
_atom_site_type_symbol
_atom_site_fract_x
_atom_site_fract_y
_atom_site_fract_z
O1 O 0.11615(16) 0.4704(6) 0.18742(16)
O2 O 0.20876(16) 0.6368(6) 0.19816(15)
O3 O 0.12459(19) 0.3511(6) 0.10076(17)
N1 N 0.11801(19) 0.7724(7) 0.24398(19)
N2 N 0.16848(18) 0.4798(6) 0.28304(18)
C1 C 0.0968(2) 0.9120(8) 0.2081(2)
C2 C 0.0645(2) 1.0477(9) 0.2381(3)
H1 H 0.0452 1.1596 0.2226
C3 C 0.0652(2) 0.9923(8) 0.2936(2)
C4 C 0.0990(2) 0.8154(9) 0.2975(2)
C5 C 0.1141(2) 0.6958(9) 0.3426(2)
C6 C 0.1492(2) 0.5308(8) 0.3357(2)
C7 C 0.1703(2) 0.3876(8) 0.3757(2)
C8 C 0.2013(2) 0.2549(9) 0.3446(2)
H2 H 0.2207 0.1421 0.3593
C9 C 0.1998(2) 0.3116(8) 0.2886(2)
C10 C 0.1078(2) 0.9140(9) 0.1472(2)
H3 H 0.1517 0.8986 0.1421
H4 H 0.0938 1.0364 0.1308
H5 H 0.0853 0.8082 0.1285
C11 C 0.0359(3) 1.1028(9) 0.3388(3)
H6 H 0.0243 1.2306 0.3247
H7 H 0.0649 1.1158 0.3714
H8 H -0.0006 1.0343 0.3500
C12 C 0.0931(2) 0.7410(8) 0.3992(2)
C13 C 0.0339(3) 0.6867(10) 0.4125(3)
H9 H 0.0079 0.6228 0.3853
C14 C 0.0134(3) 0.7259(11) 0.4647(3)
H10 H -0.0266 0.6877 0.4736
C15 C 0.0507(3) 0.8207(10) 0.5045(3)
H11 H 0.0364 0.8470 0.5407
C16 C 0.1089(3) 0.8769(10) 0.4913(3)
H12 H 0.1344 0.9441 0.5183
C17 C 0.1301(3) 0.8356(9) 0.4391(2)
H13 H 0.1703 0.8726 0.4306
C18 C 0.1627(3) 0.3761(10) 0.4379(2)
H14 H 0.1764 0.2498 0.4518
H15 H 0.1195 0.3943 0.4454
H16 H 0.1873 0.4766 0.4570
C19 C 0.2269(2) 0.2089(9) 0.2409(2)
H17 H 0.1959 0.1953 0.2098
H18 H 0.2410 0.0814 0.2533
H19 H 0.2617 0.2827 0.2281
C20 C 0.1453(3) 0.4441(9) 0.1407(3)
C21 C 0.2058(3) 0.5463(9) 0.1450(2)
H20 H 0.2399 0.4537 0.1423
H21 H 0.2083 0.6425 0.1146
B1 B 0.1533(3) 0.5903(10) 0.2276(3)
O4 O 0.37830(15) 0.8529(5) 0.40856(15)
O5 O 0.36330(16) 0.6930(6) 0.32242(16)
O6 O 0.28155(18) 0.9314(6) 0.42459(18)
N3 N 0.46181(19) 0.8683(7) 0.34202(18)
N4 N 0.44245(18) 0.5668(7) 0.39242(18)
C22 C 0.4548(3) 1.0278(9) 0.3093(2)
C23 C 0.5118(2) 1.0981(8) 0.2968(2)
H22 H 0.5189 1.2080 0.2744
C24 C 0.5565(2) 0.9829(8) 0.3219(2)
C25 C 0.5249(2) 0.8384(8) 0.3512(2)
C26 C 0.5460(2) 0.6810(8) 0.3832(2)
C27 C 0.5059(2) 0.5454(8) 0.4031(2)
C28 C 0.5158(2) 0.3718(8) 0.4351(2)
C29 C 0.4588(2) 0.2932(9) 0.4405(2)
H23 H 0.4508 0.1750 0.4587
C30 C 0.4150(2) 0.4127(8) 0.4154(2)
C31 C 0.3937(2) 1.1098(9) 0.2915(2)
H24 H 0.3732 1.0251 0.2635
H25 H 0.3991 1.2372 0.2750
H26 H 0.3686 1.1209 0.3242
C32 C 0.6245(2) 1.0115(8) 0.3165(2)
H27 H 0.6312 1.0948 0.2843
H28 H 0.6441 0.8868 0.3110
H29 H 0.6423 1.0715 0.3509
C33 C 0.6132(2) 0.6551(8) 0.3946(2)
C34 C 0.6440(2) 0.7625(9) 0.4363(2)
H30 H 0.6223 0.8533 0.4574
C35 C 0.7069(2) 0.7367(9) 0.4472(2)
H31 H 0.7278 0.8117 0.4754
C36 C 0.7387(3) 0.6046(9) 0.4176(2)
H32 H 0.7812 0.5856 0.4260
C37 C 0.7079(3) 0.4978(9) 0.3749(2)
H33 H 0.7299 0.4096 0.3532
C38 C 0.6456(3) 0.5209(9) 0.3643(2)
H34 H 0.6246 0.4449 0.3363
C39 C 0.5747(2) 0.2873(9) 0.4588(2)
H35 H 0.5659 0.1875 0.4862
H36 H 0.5996 0.3884 0.4773
H37 H 0.5971 0.2308 0.4283
C40 C 0.3473(2) 0.3839(9) 0.4145(2)
H38 H 0.3287 0.4858 0.4363
H39 H 0.3383 0.2588 0.4309
H40 H 0.3304 0.3884 0.3755
C41 C 0.3185(3) 0.8563(9) 0.3951(3)
C42 C 0.3055(2) 0.7581(10) 0.3393(2)
H41 H 0.2772 0.6486 0.3434
H42 H 0.2870 0.8491 0.3114
B2 B 0.4105(3) 0.7424(10) 0.3641(3)
loop_
_geom_bond_atom_site_label_1
_geom_bond_atom_site_label_2
_geom_bond_site_symmetry_1
_geom_bond_site_symmetry_2
O1 C20 1_555 1_555
O2 C21 1_555 1_555
O3 C20 1_555 1_555
N1 C1 1_555 1_555
N2 C6 1_555 1_555
C1 C2 1_555 1_555
C2 H1 1_555 1_555
C3 C2 1_555 1_555
C4 N1 1_555 1_555
C5 C4 1_555 1_555
C6 C5 1_555 1_555
C7 C6 1_555 1_555
C8 C7 1_555 1_555
H2 C8 1_555 1_555
C9 N2 1_555 1_555
C10 C1 1_555 1_555
H3 C10 1_555 1_555
H4 C10 1_555 1_555
H5 C10 1_555 1_555
C11 C3 1_555 1_555
H6 C11 1_555 1_555
H7 C11 1_555 1_555
H8 C11 1_555 1_555
C12 C5 1_555 1_555
C13 C12 1_555 1_555
H9 C13 1_555 1_555
C14 C13 1_555 1_555
H10 C14 1_555 1_555
C15 C14 1_555 1_555
H11 C15 1_555 1_555
C16 C15 1_555 1_555
H12 C16 1_555 1_555
C17 C12 1_555 1_555
H13 C17 1_555 1_555
C18 C7 1_555 1_555
H14 C18 1_555 1_555
H15 C18 1_555 1_555
H16 C18 1_555 1_555
C19 C9 1_555 1_555
H17 C19 1_555 1_555
H18 C19 1_555 1_555
H19 C19 1_555 1_555
C20 C21 1_555 1_555
C21 H20 1_555 1_555
H21 C21 1_555 1_555
B1 O1 1_555 1_555
O4 C41 1_555 1_555
O5 C42 1_555 1_555
O6 C41 1_555 1_555
N3 C22 1_555 1_555
N4 C27 1_555 1_555
C22 C23 1_555 1_555
C23 H22 1_555 1_555
C24 C23 1_555 1_555
C25 N3 1_555 1_555
C26 C25 1_555 1_555
C27 C26 1_555 1_555
C28 C27 1_555 1_555
C29 C28 1_555 1_555
H23 C29 1_555 1_555
C30 N4 1_555 1_555
C31 C22 1_555 1_555
H24 C31 1_555 1_555
H25 C31 1_555 1_555
H26 C31 1_555 1_555
C32 C24 1_555 1_555
H27 C32 1_555 1_555
H28 C32 1_555 1_555
H29 C32 1_555 1_555
C33 C26 1_555 1_555
C34 C33 1_555 1_555
H30 C34 1_555 1_555
C35 C34 1_555 1_555
H31 C35 1_555 1_555
C36 C35 1_555 1_555
H32 C36 1_555 1_555
C37 C36 1_555 1_555
H33 C37 1_555 1_555
C38 C33 1_555 1_555
H34 C38 1_555 1_555
C39 C28 1_555 1_555
H35 C39 1_555 1_555
H36 C39 1_555 1_555
H37 C39 1_555 1_555
C40 C30 1_555 1_555
H38 C40 1_555 1_555
H39 C40 1_555 1_555
H40 C40 1_555 1_555
C41 C42 1_555 1_555
C42 H41 1_555 1_555
H42 C42 1_555 1_555
B2 O4 1_555 1_555
O2 B1 1_555 1_555
N1 B1 1_555 1_555
N2 B1 1_555 1_555
C3 C4 1_555 1_555
C8 C9 1_555 1_555
C16 C17 1_555 1_555
O5 B2 1_555 1_555
N3 B2 1_555 1_555
N4 B2 1_555 1_555
C24 C25 1_555 1_555
C29 C30 1_555 1_555
C37 C38 1_555 1_555

#END
