
#######################################################################
#
#                 Cambridge Crystallographic Data Centre
#                                CCDC 
#
#######################################################################
#
# If this CIF has been generated from an entry in the Cambridge 
# Structural Database, then it will include bibliographic, chemical, 
# crystal, experimental, refinement or atomic coordinate data resulting 
# from the CCDC's data processing and validation procedures.
#
#######################################################################

data_CIVPIJ
_chemical_formula_moiety         'C23 H21 B1 F6 N4 O2,0.375(H2 O1)'
_chemical_name_systematic        
"N,N'-(1,3,7,9-tetramethyl-10-phenyl-5H-6\l^5^,5\l^5^-dipyrrolo[1,2-c:2',1'-f][1,3,2]diazaborinine-5,5-diyl)bis(2,2,2-trifluoroacetamide) hydrate"
_symmetry_cell_setting           monoclinic
_symmetry_space_group_name_H-M   'P 21'
_symmetry_Int_Tables_number      4
_space_group_name_Hall           'P 2yb'
loop_
_symmetry_equiv_pos_site_id
_symmetry_equiv_pos_as_xyz
1 x,y,z
2 -x,1/2+y,-z
_cell_length_a                   15.4304(10)
_cell_length_b                   28.5665(19)
_cell_length_c                   22.8958(15)
_cell_angle_alpha                90
_cell_angle_beta                 108.608(4)
_cell_angle_gamma                90
_cell_volume                     9564.71
_exptl_crystal_colour            orange
_exptl_crystal_description       lath
_cell_formula_units_Z            16
_exptl_crystal_recrystallization_method 
'Re-crystallisation from solvent: hexane/ethyl acetate'
loop_
_atom_site_label
_atom_site_type_symbol
_atom_site_fract_x
_atom_site_fract_y
_atom_site_fract_z
B1 B 0.6147(12) 0.4221(6) 0.7591(8)
N1 N 0.5173(7) 0.4291(4) 0.7616(5)
N2 N 0.6064(7) 0.3816(4) 0.7133(5)
N3 N 0.6794(7) 0.4107(4) 0.8220(5)
H1 H 0.7300 0.4272 0.8365
N4 N 0.6415(7) 0.4669(4) 0.7323(5)
H2 H 0.6052 0.4750 0.6955
O1 O 0.6033(6) 0.3465(3) 0.8405(4)
O2 O 0.7787(7) 0.4884(4) 0.8024(5)
F1 F 0.6779(7) 0.3737(5) 0.9623(4)
F2 F 0.7828(6) 0.4108(3) 0.9386(4)
F3 F 0.7765(6) 0.3355(3) 0.9335(4)
F4 F 0.6726(7) 0.5381(3) 0.6638(3)
F5 F 0.6592(7) 0.5713(3) 0.7437(4)
F6 F 0.7914(7) 0.5598(4) 0.7344(5)
C1 C 0.4893(9) 0.4637(5) 0.7913(6)
C2 C 0.3971(11) 0.4569(6) 0.7879(7)
H3 H 0.3630 0.4760 0.8066
C3 C 0.3657(9) 0.4181(5) 0.7530(6)
C4 C 0.4399(9) 0.3996(5) 0.7379(6)
C5 C 0.4488(8) 0.3606(4) 0.7053(6)
C6 C 0.5291(8) 0.3512(4) 0.6902(5)
C7 C 0.5531(9) 0.3155(5) 0.6552(6)
C8 C 0.6407(9) 0.3241(4) 0.6561(6)
H4 H 0.6740 0.3068 0.6349
C9 C 0.6730(9) 0.3637(5) 0.6945(6)
C10 C 0.5502(11) 0.5013(6) 0.8276(8)
H5 H 0.6066 0.4872 0.8548
H6 H 0.5188 0.5180 0.8524
H7 H 0.5651 0.5233 0.7994
C11 C 0.2709(9) 0.3979(5) 0.7398(7)
H8 H 0.2743 0.3689 0.7634
H9 H 0.2449 0.3911 0.6957
H10 H 0.2319 0.4205 0.7518
C12 C 0.3736(8) 0.3262(4) 0.6857(5)
C13 C 0.3684(10) 0.2890(5) 0.7256(7)
H11 H 0.4157 0.2854 0.7638
C14 C 0.2980(11) 0.2589(6) 0.7102(8)
H12 H 0.2976 0.2338 0.7373
C15 C 0.2282(11) 0.2633(6) 0.6576(7)
H13 H 0.1792 0.2416 0.6494
C16 C 0.2243(10) 0.2983(6) 0.6144(7)
H14 H 0.1749 0.3001 0.5770
C17 C 0.2980(9) 0.3313(5) 0.6289(6)
H15 H 0.2974 0.3564 0.6016
C18 C 0.4958(9) 0.2754(5) 0.6213(6)
H16 H 0.5345 0.2535 0.6078
H17 H 0.4475 0.2874 0.5852
H18 H 0.4681 0.2592 0.6487
C19 C 0.7658(9) 0.3846(5) 0.7091(7)
H19 H 0.7637 0.4111 0.6815
H20 H 0.8084 0.3609 0.7034
H21 H 0.7865 0.3954 0.7519
C20 C 0.6632(10) 0.3773(5) 0.8559(6)
C21 C 0.7293(12) 0.3755(7) 0.9255(8)
C22 C 0.7125(9) 0.4954(5) 0.7571(6)
C23 C 0.7107(11) 0.5411(6) 0.7247(7)
B2 B 0.1718(11) 0.5851(6) 0.5989(8)
N5 N 0.0872(8) 0.5819(4) 0.6206(5)
N6 N 0.1599(8) 0.6267(4) 0.5558(5)
N7 N 0.2584(8) 0.5889(4) 0.6548(6)
H22 H 0.3005 0.5670 0.6603
N8 N 0.1751(8) 0.5378(4) 0.5674(5)
H23 H 0.1231 0.5298 0.5396
O3 O 0.2187(8) 0.6548(4) 0.6958(5)
O4 O 0.3209(8) 0.5109(4) 0.6095(6)
F7 F 0.3557(10) 0.6365(5) 0.7985(6)
F8 F 0.4003(9) 0.5825(5) 0.7654(6)
F9 F 0.4126(11) 0.6608(7) 0.7423(9)
F10 F 0.1797(7) 0.4299(4) 0.5708(5)
F11 F 0.2893(6) 0.4392(3) 0.5339(5)
F12 F 0.1560(6) 0.4651(3) 0.4844(4)
C24 C 0.0691(10) 0.5503(6) 0.6606(7)
C25 C -0.0172(9) 0.5607(5) 0.6670(6)
H24 H -0.0464 0.5439 0.6913
C26 C -0.0500(9) 0.5986(5) 0.6327(6)
C27 C 0.0143(10) 0.6127(5) 0.6030(6)
C28 C 0.0114(9) 0.6498(5) 0.5606(6)
C29 C 0.0888(10) 0.6558(5) 0.5402(6)
C30 C 0.1026(11) 0.6921(6) 0.4990(7)
C31 C 0.1856(11) 0.6821(6) 0.4963(7)
H25 H 0.2166 0.6996 0.4736
C32 C 0.2188(10) 0.6445(5) 0.5296(6)
C33 C 0.1326(10) 0.5112(5) 0.6900(7)
H26 H 0.1240 0.4852 0.6608
H27 H 0.1194 0.5006 0.7270
H28 H 0.1959 0.5223 0.7014
C34 C -0.1409(9) 0.6193(5) 0.6266(6)
H29 H -0.1756 0.5977 0.6441
H30 H -0.1745 0.6246 0.5830
H31 H -0.1325 0.6491 0.6489
C35 C -0.0662(11) 0.6819(5) 0.5442(7)
C36 C -0.1409(10) 0.6765(5) 0.4929(7)
H32 H -0.1389 0.6524 0.4648
C37 C -0.2213(10) 0.7043(5) 0.4786(7)
H33 H -0.2742 0.6978 0.4446
C38 C -0.2167(12) 0.7421(6) 0.5185(8)
H34 H -0.2656 0.7639 0.5090
C39 C -0.1459(11) 0.7481(6) 0.5690(7)
H35 H -0.1482 0.7725 0.5966
C40 C -0.0663(11) 0.7193(5) 0.5835(7)
H36 H -0.0150 0.7253 0.6189
C41 C 0.0424(13) 0.7298(6) 0.4678(7)
H37 H 0.0786 0.7547 0.4573
H38 H 0.0102 0.7424 0.4950
H39 H -0.0023 0.7177 0.4300
C42 C 0.3123(11) 0.6217(6) 0.5378(8)
H40 H 0.3489 0.6423 0.5207
H41 H 0.3033 0.5916 0.5162
H42 H 0.3444 0.6166 0.5817
C43 C 0.2733(12) 0.6241(6) 0.6960(8)
C44 C 0.3639(13) 0.6228(7) 0.7446(9)
C45 C 0.2393(10) 0.5079(5) 0.5740(7)
C46 C 0.2150(10) 0.4616(5) 0.5394(7)
B3 B 0.0619(11) 0.4124(6) 0.2380(8)
N9 N -0.0244(8) 0.4136(4) 0.2552(5)
N10 N 0.0510(8) 0.3714(4) 0.1915(5)
N11 N 0.1487(9) 0.4042(5) 0.2948(6)
H43 H 0.1944 0.4241 0.3013
N12 N 0.0706(11) 0.4584(6) 0.2073(7)
H44 H 0.0227 0.4659 0.1757
O5 O 0.1001(7) 0.3383(4) 0.3302(4)
O6 O 0.2160(11) 0.4815(5) 0.2524(7)
F13 F 0.3014(9) 0.3997(5) 0.3875(7)
F14 F 0.2838(8) 0.3266(5) 0.3959(6)
F15 F 0.2233(9) 0.3674(5) 0.4417(6)
F16 F 0.0786(8) 0.5643(3) 0.2127(5)
F17 F 0.1936(9) 0.5561(4) 0.1822(6)
F18 F 0.0604(9) 0.5310(4) 0.1252(5)
C47 C -0.0426(10) 0.4449(5) 0.2934(6)
C48 C -0.1279(10) 0.4344(5) 0.2994(6)
H45 H -0.1561 0.4511 0.3244
C49 C -0.1660(10) 0.3949(5) 0.2621(6)
C50 C -0.0993(9) 0.3822(5) 0.2357(6)
C51 C -0.0950(10) 0.3464(5) 0.1963(6)
C52 C -0.0246(12) 0.3397(6) 0.1739(8)
C53 C -0.0042(12) 0.3053(6) 0.1349(8)
C54 C 0.0794(11) 0.3163(5) 0.1304(6)
H46 H 0.1091 0.2990 0.1068
C55 C 0.1173(11) 0.3576(6) 0.1658(7)
C56 C 0.0213(12) 0.4837(6) 0.3263(8)
H47 H 0.0768 0.4700 0.3551
H48 H -0.0092 0.5031 0.3491
H49 H 0.0377 0.5030 0.2961
C57 C -0.2567(11) 0.3737(6) 0.2571(7)
H50 H -0.2983 0.3775 0.2149
H51 H -0.2825 0.3894 0.2859
H52 H -0.2488 0.3403 0.2672
C58 C -0.1748(11) 0.3121(5) 0.1783(7)
C59 C -0.2500(12) 0.3183(7) 0.1260(8)
H53 H -0.2519 0.3440 0.0992
C60 C -0.3222(12) 0.2871(6) 0.1128(8)
H54 H -0.3706 0.2893 0.0749
C61 C -0.3242(13) 0.2533(7) 0.1541(8)
H55 H -0.3788 0.2359 0.1484
C62 C -0.2483(11) 0.2438(6) 0.2041(7)
H56 H -0.2469 0.2168 0.2286
C63 C -0.1725(12) 0.2745(6) 0.2186(7)
H57 H -0.1214 0.2699 0.2546
C64 C -0.0646(12) 0.2644(6) 0.1024(8)
H58 H -0.1200 0.2766 0.0718
H59 H -0.0817 0.2456 0.1328
H60 H -0.0309 0.2449 0.0818
C65 C 0.2058(11) 0.3777(6) 0.1772(7)
H61 H 0.2025 0.4116 0.1827
H62 H 0.2274 0.3714 0.1421
H63 H 0.2484 0.3638 0.2145
C66 C 0.1572(10) 0.3694(5) 0.3330(7)
C67 C 0.2428(12) 0.3664(7) 0.3871(8)
C68 C 0.1418(15) 0.4909(7) 0.2205(9)
C69 C 0.1150(14) 0.5356(7) 0.1821(10)
B4 B 0.9612(10) 0.5892(5) 0.8752(7)
N13 N 0.9473(7) 0.6303(4) 0.8271(5)
N14 N 0.8672(7) 0.5858(3) 0.8903(5)
N15 N 1.0383(8) 0.5964(4) 0.9312(5)
H64 H 1.0839 0.5763 0.9402
N16 N 0.9666(7) 0.5410(4) 0.8435(5)
H65 H 0.9169 0.5319 0.8144
O7 O 0.9840(6) 0.6619(3) 0.9632(4)
O8 O 1.1147(7) 0.5170(3) 0.8935(5)
F19 F 1.1036(7) 0.6325(4) 1.0781(4)
F20 F 1.1699(6) 0.6738(4) 1.0303(5)
F21 F 1.1854(7) 0.6003(4) 1.0311(5)
F22 F 0.9635(6) 0.4689(3) 0.7636(4)
F23 F 0.9688(6) 0.4366(3) 0.8482(4)
F24 F 1.0921(7) 0.4428(3) 0.8220(4)
C70 C 1.0068(9) 0.6452(5) 0.7998(6)
C71 C 0.9748(10) 0.6846(5) 0.7658(7)
H66 H 1.0067 0.7018 0.7436
C72 C 0.8899(10) 0.6954(5) 0.7686(6)
C73 C 0.8717(9) 0.6611(5) 0.8087(6)
C74 C 0.7992(9) 0.6553(5) 0.8324(6)
C75 C 0.7947(9) 0.6180(4) 0.8698(6)
C76 C 0.7264(9) 0.6037(5) 0.8975(6)
C77 C 0.7588(10) 0.5643(5) 0.9312(6)
H67 H 0.7273 0.5468 0.9534
C78 C 0.8456(9) 0.5535(5) 0.9279(6)
C79 C 1.0978(9) 0.6208(5) 0.8098(7)
H68 H 1.1318 0.6198 0.8540
H69 H 1.1334 0.6380 0.7882
H70 H 1.0870 0.5888 0.7937
C80 C 0.8301(12) 0.7350(6) 0.7353(7)
H71 H 0.8627 0.7533 0.7127
H72 H 0.8149 0.7552 0.7652
H73 H 0.7737 0.7223 0.7063
C81 C 0.7208(10) 0.6904(5) 0.8152(7)
C82 C 0.6468(11) 0.6855(6) 0.7609(8)
H74 H 0.6454 0.6620 0.7312
C83 C 0.5756(15) 0.7171(8) 0.7531(10)
H75 H 0.5206 0.7128 0.7198
C84 C 0.5827(13) 0.7552(7) 0.7931(9)
H76 H 0.5360 0.7783 0.7837
C85 C 0.6554(13) 0.7593(7) 0.8451(9)
H77 H 0.6579 0.7841 0.8733
C86 C 0.7270(11) 0.7268(5) 0.8568(7)
H78 H 0.7790 0.7296 0.8927
C87 C 0.6319(10) 0.6235(6) 0.8869(7)
H79 H 0.6018 0.6282 0.8426
H80 H 0.6366 0.6535 0.9084
H81 H 0.5959 0.6015 0.9027
C88 C 0.9041(9) 0.5142(5) 0.9552(6)
H82 H 0.8856 0.4867 0.9285
H83 H 0.8985 0.5073 0.9957
H84 H 0.9678 0.5221 0.9597
C89 C 1.0425(9) 0.6326(5) 0.9695(6)
C90 C 1.1264(10) 0.6334(6) 1.0273(7)
C91 C 1.0388(10) 0.5125(5) 0.8560(7)
C92 C 1.0150(9) 0.4641(5) 0.8221(6)
B5 B 0.8411(13) 0.4082(7) 0.5037(8)
N17 N 0.8332(8) 0.3682(4) 0.4585(5)
N18 N 0.7537(8) 0.4118(4) 0.5173(5)
N19 N 0.9237(7) 0.4015(4) 0.5617(5)
H85 H 0.9699 0.4211 0.5695
N20 N 0.8550(8) 0.4557(4) 0.4721(5)
H86 H 0.8111 0.4620 0.4376
O9 O 0.8668(6) 0.3355(3) 0.5949(4)
O10 O 0.9938(8) 0.4830(4) 0.5267(6)
F25 F 0.9830(7) 0.3682(5) 0.7091(5)
F26 F 1.0505(8) 0.3237(4) 0.6665(5)
F27 F 1.0676(8) 0.3973(5) 0.6651(7)
F28 F 0.8492(7) 0.5274(3) 0.3942(4)
F29 F 0.9764(7) 0.5553(3) 0.4517(4)
F30 F 0.8572(7) 0.5625(3) 0.4795(4)
C93 C 0.8998(10) 0.3525(6) 0.4360(7)
C94 C 0.8634(10) 0.3126(5) 0.3972(6)
H87 H 0.8928 0.2965 0.3725
C95 C 0.7790(10) 0.3018(5) 0.4020(6)
C96 C 0.7594(9) 0.3372(5) 0.4392(6)
C97 C 0.6830(10) 0.3431(5) 0.4585(6)
C98 C 0.6786(9) 0.3827(5) 0.4980(6)
C99 C 0.6079(9) 0.3969(5) 0.5200(6)
C100 C 0.6430(9) 0.4356(5) 0.5569(6)
H88 H 0.6133 0.4529 0.5805
C101 C 0.7317(10) 0.4445(5) 0.5528(6)
C102 C 0.9885(11) 0.3739(6) 0.4445(8)
H89 H 0.9826 0.4080 0.4451
H90 H 1.0108 0.3647 0.4106
H91 H 1.0319 0.3634 0.4837
C103 C 0.7225(10) 0.2613(5) 0.3701(6)
H92 H 0.6644 0.2728 0.3418
H93 H 0.7105 0.2406 0.4008
H94 H 0.7556 0.2440 0.3469
C104 C 0.6086(10) 0.3105(5) 0.4408(6)
C105 C 0.5333(11) 0.3153(6) 0.3888(8)
H95 H 0.5315 0.3419 0.3636
C106 C 0.4607(12) 0.2848(6) 0.3703(9)
H96 H 0.4147 0.2876 0.3313
C107 C 0.4586(12) 0.2528(7) 0.4079(8)
H97 H 0.4046 0.2344 0.3980
C108 C 0.5255(12) 0.2421(7) 0.4609(8)
H98 H 0.5207 0.2158 0.4851
C109 C 0.6056(11) 0.2730(5) 0.4794(7)
H99 H 0.6542 0.2677 0.5166
C110 C 0.5158(9) 0.3769(5) 0.5108(6)
H100 H 0.4781 0.3808 0.4677
H101 H 0.4871 0.3931 0.5376
H102 H 0.5216 0.3435 0.5212
C111 C 0.7953(11) 0.4828(5) 0.5853(7)
H103 H 0.8498 0.4690 0.6150
H104 H 0.7644 0.5030 0.6070
H105 H 0.8134 0.5014 0.5551
C112 C 0.9266(10) 0.3662(6) 0.6006(7)
C113 C 1.0076(10) 0.3639(6) 0.6595(7)
C114 C 0.9191(10) 0.4870(5) 0.4877(6)
C115 C 0.9046(11) 0.5333(5) 0.4541(7)
B6 B 0.3016(10) 0.4215(5) 0.9736(7)
N21 N 0.2141(7) 0.4219(4) 0.9918(5)
N22 N 0.2902(8) 0.3782(4) 0.9293(5)
N23 N 0.3865(8) 0.4177(4) 1.0271(6)
H106 H 0.4308 0.4381 1.0312
N24 N 0.2983(7) 0.4672(4) 0.9352(5)
H107 H 0.2481 0.4728 0.9044
O11 O 0.3461(7) 0.3517(4) 1.0729(5)
O12 O 0.4455(8) 0.4936(5) 0.9792(6)
F31 F 0.5155(8) 0.3488(5) 1.1552(7)
F32 F 0.4624(17) 0.4046(10) 1.1787(11)
F33 F 0.5444(10) 0.4132(6) 1.1165(7)
F34 F 0.2769(6) 0.5400(3) 0.8512(4)
F35 F 0.2985(6) 0.5728(3) 0.9402(4)
F36 F 0.4117(6) 0.5663(4) 0.9045(5)
C116 C 0.1966(9) 0.4536(5) 1.0313(6)
C117 C 0.1127(8) 0.4431(4) 1.0374(5)
H108 H 0.0853 0.4598 1.0628
C118 C 0.0723(9) 0.4033(4) 0.9999(5)
C119 C 0.1404(8) 0.3906(4) 0.9732(5)
C120 C 0.1415(9) 0.3536(5) 0.9324(6)
C121 C 0.2102(10) 0.3472(5) 0.9080(6)
C122 C 0.2305(11) 0.3118(5) 0.8717(7)
C123 C 0.3186(10) 0.3211(6) 0.8696(7)
H109 H 0.3485 0.3030 0.8468
C124 C 0.3585(10) 0.3617(5) 0.9063(7)
C125 C 0.2612(10) 0.4919(6) 1.0613(8)
H110 H 0.3160 0.4785 1.0910
H111 H 0.2315 0.5132 1.0826
H112 H 0.2785 0.5094 1.0298
C126 C -0.0172(9) 0.3832(5) 0.9924(6)
H113 H -0.0544 0.3841 0.9488
H114 H -0.0476 0.4012 1.0167
H115 H -0.0100 0.3506 1.0067
C127 C 0.0635(9) 0.3200(4) 0.9173(6)
C128 C -0.0105(10) 0.3250(5) 0.8630(6)
H116 H -0.0114 0.3489 0.8340
C129 C -0.0791(11) 0.2950(5) 0.8536(6)
H117 H -0.1280 0.2976 0.8160
C130 C -0.0854(12) 0.2603(6) 0.8940(7)
H118 H -0.1390 0.2419 0.8875
C131 C -0.0087(11) 0.2543(6) 0.9443(7)
H119 H -0.0061 0.2284 0.9709
C132 C 0.0637(11) 0.2841(5) 0.9575(7)
H120 H 0.1139 0.2803 0.9941
C133 C 0.1727(12) 0.2707(5) 0.8395(7)
H121 H 0.2047 0.2538 0.8152
H122 H 0.1139 0.2822 0.8121
H123 H 0.1622 0.2496 0.8702
C134 C 0.4470(12) 0.3807(7) 0.9188(8)
H124 H 0.4450 0.4145 0.9262
H125 H 0.4685 0.3754 0.8834
H126 H 0.4887 0.3656 0.9554
C135 C 0.3970(9) 0.3833(5) 1.0696(6)
C136 C 0.4816(17) 0.3889(7) 1.1285(12)
C137 C 0.3675(11) 0.4992(6) 0.9460(8)
C138 C 0.3387(10) 0.5451(5) 0.9084(7)
B7 B 0.7354(11) 0.5861(6) 0.1360(7)
N25 N 0.7261(8) 0.6283(4) 0.0898(5)
N26 N 0.6390(7) 0.5800(4) 0.1454(5)
N27 N 0.8081(8) 0.5960(4) 0.1969(5)
H127 H 0.8569 0.5779 0.2086
N28 N 0.7577(8) 0.5416(5) 0.1087(6)
H128 H 0.7176 0.5335 0.0733
O13 O 0.7422(7) 0.6609(4) 0.2216(4)
O14 O 0.8971(7) 0.5147(4) 0.1731(5)
F37 F 0.9267(9) 0.6712(5) 0.3002(6)
F38 F 0.9290(8) 0.5959(4) 0.3118(5)
F39 F 0.8437(9) 0.6373(5) 0.3400(5)
F40 F 0.7580(9) 0.4699(4) 0.0306(6)
F41 F 0.8913(10) 0.4452(5) 0.0944(6)
F42 F 0.7665(9) 0.4336(4) 0.1147(5)
C139 C 0.7902(11) 0.6453(6) 0.0658(7)
C140 C 0.7599(10) 0.6845(5) 0.0354(7)
H129 H 0.7956 0.7046 0.0191
C141 C 0.6684(11) 0.6926(5) 0.0304(7)
C142 C 0.6504(10) 0.6571(5) 0.0703(7)
C143 C 0.5717(9) 0.6478(5) 0.0841(6)
C144 C 0.5667(9) 0.6107(5) 0.1213(6)
C145 C 0.4942(9) 0.5915(5) 0.1405(6)
C146 C 0.5261(9) 0.5517(5) 0.1750(6)
H130 H 0.4918 0.5318 0.1927
C147 C 0.6172(10) 0.5458(5) 0.1793(6)
C148 C 0.8830(11) 0.6226(6) 0.0819(8)
H131 H 0.9226 0.6413 0.0650
H132 H 0.8766 0.5910 0.0645
H133 H 0.9100 0.6208 0.1269
C149 C 0.6109(12) 0.7335(6) -0.0014(8)
H134 H 0.5836 0.7486 0.0270
H135 H 0.5622 0.7224 -0.0379
H136 H 0.6493 0.7561 -0.0140
C150 C 0.4883(10) 0.6808(5) 0.0636(7)
C151 C 0.4861(10) 0.7173(5) 0.1000(7)
H137 H 0.5350 0.7223 0.1371
C152 C 0.4109(11) 0.7484(6) 0.0829(8)
H138 H 0.4078 0.7748 0.1073
C153 C 0.3390(12) 0.7375(7) 0.0264(8)
H139 H 0.2858 0.7566 0.0128
C154 C 0.3485(12) 0.6998(6) -0.0070(8)
H140 H 0.2996 0.6924 -0.0432
C155 C 0.4224(10) 0.6725(5) 0.0079(7)
H141 H 0.4293 0.6484 -0.0188
C156 C 0.3988(10) 0.6071(6) 0.1272(8)
H142 H 0.3628 0.5972 0.0855
H143 H 0.3970 0.6413 0.1301
H144 H 0.3730 0.5930 0.1571
C157 C 0.6783(11) 0.5070(6) 0.2115(7)
H145 H 0.6721 0.4806 0.1832
H146 H 0.6613 0.4970 0.2473
H147 H 0.7419 0.5179 0.2252
C158 C 0.8009(9) 0.6310(5) 0.2334(6)
C159 C 0.8734(14) 0.6337(8) 0.2959(9)
C160 C 0.8312(12) 0.5114(5) 0.1303(7)
C161 C 0.8166(15) 0.4628(8) 0.0935(9)
B8 B 0.4866(13) 0.5732(7) 0.3786(9)
N29 N 0.3813(9) 0.5656(4) 0.3773(6)
N30 N 0.4695(9) 0.6140(5) 0.3266(6)
N31 N 0.5471(9) 0.5823(5) 0.4371(6)
H148 H 0.5964 0.5649 0.4514
N32 N 0.5123(11) 0.5260(6) 0.3480(8)
H149 H 0.4723 0.5176 0.3127
O15 O 0.4731(7) 0.6442(4) 0.4559(5)
O16 O 0.6585(9) 0.5090(5) 0.4241(6)
F43 F 0.6388(9) 0.6526(5) 0.5531(7)
F44 F 0.6558(7) 0.5795(4) 0.5500(5)
F45 F 0.5456(9) 0.6100(6) 0.5788(6)
F46 F 0.5328(10) 0.4235(4) 0.3605(7)
F47 F 0.5478(10) 0.4493(6) 0.2784(6)
F48 F 0.6792(9) 0.4354(5) 0.3618(6)
C162 C 0.3598(12) 0.5300(6) 0.4134(8)
C163 C 0.2709(10) 0.5392(5) 0.4105(6)
H150 H 0.2369 0.5200 0.4291
C164 C 0.2356(11) 0.5804(6) 0.3769(7)
C165 C 0.3105(10) 0.5949(5) 0.3557(6)
C166 C 0.3150(10) 0.6358(5) 0.3186(6)
C167 C 0.3951(11) 0.6424(5) 0.3035(6)
C168 C 0.4177(11) 0.6812(5) 0.2689(7)
C169 C 0.5050(13) 0.6719(6) 0.2728(8)
H151 H 0.5385 0.6909 0.2536
C170 C 0.5434(13) 0.6313(7) 0.3083(8)
C171 C 0.4192(12) 0.4929(6) 0.4443(8)
H152 H 0.3990 0.4810 0.4779
H153 H 0.4818 0.5048 0.4611
H154 H 0.4174 0.4677 0.4150
C172 C 0.1437(11) 0.5980(6) 0.3651(7)
H155 H 0.1463 0.6302 0.3804
H156 H 0.1111 0.5783 0.3861
H157 H 0.1114 0.5976 0.3206
C173 C 0.2378(10) 0.6689(5) 0.3025(6)
C174 C 0.1718(11) 0.6676(6) 0.2518(8)
H158 H 0.1747 0.6454 0.2216
C175 C 0.1021(15) 0.6946(8) 0.2392(10)
H159 H 0.0535 0.6893 0.2020
C176 C 0.0934(14) 0.7329(7) 0.2789(9)
H160 H 0.0423 0.7534 0.2694
C177 C 0.1681(12) 0.7362(6) 0.3325(7)
H161 H 0.1690 0.7604 0.3612
C178 C 0.2410(11) 0.7055(5) 0.3454(7)
H162 H 0.2917 0.7086 0.3820
C179 C 0.3565(12) 0.7185(6) 0.2345(7)
H163 H 0.3856 0.7348 0.2080
H164 H 0.3448 0.7408 0.2636
H165 H 0.2986 0.7047 0.2091
C180 C 0.6342(12) 0.6124(6) 0.3253(9)
H166 H 0.6634 0.6155 0.3699
H167 H 0.6699 0.6295 0.3038
H168 H 0.6313 0.5792 0.3139
C181 C 0.5326(11) 0.6163(6) 0.4715(8)
C182 C 0.5955(12) 0.6185(7) 0.5405(8)
C183 C 0.5845(11) 0.4984(6) 0.3683(7)
C184 C 0.5854(15) 0.4542(9) 0.3427(10)
O17 O 0.4999(10) 0.4968(6) 0.6239(7)
O18 O 0.3867(14) 0.4822(9) 0.2387(10)
O19 O 0.5973(8) 0.5464(4) 0.0009(5)
loop_
_geom_bond_atom_site_label_1
_geom_bond_atom_site_label_2
_geom_bond_site_symmetry_1
_geom_bond_site_symmetry_2
B1 N1 1_555 1_555
N1 C1 1_555 1_555
N2 B1 1_555 1_555
N3 B1 1_555 1_555
H1 N3 1_555 1_555
N4 B1 1_555 1_555
H2 N4 1_555 1_555
O1 C20 1_555 1_555
O2 C22 1_555 1_555
F1 C21 1_555 1_555
F2 C21 1_555 1_555
F3 C21 1_555 1_555
F4 C23 1_555 1_555
F5 C23 1_555 1_555
F6 C23 1_555 1_555
C1 C2 1_555 1_555
C2 H3 1_555 1_555
C3 C2 1_555 1_555
C4 N1 1_555 1_555
C5 C4 1_555 1_555
C6 N2 1_555 1_555
C7 C6 1_555 1_555
C8 C7 1_555 1_555
H4 C8 1_555 1_555
C9 N2 1_555 1_555
C10 C1 1_555 1_555
H5 C10 1_555 1_555
H6 C10 1_555 1_555
H7 C10 1_555 1_555
C11 C3 1_555 1_555
H8 C11 1_555 1_555
H9 C11 1_555 1_555
H10 C11 1_555 1_555
C12 C5 1_555 1_555
C13 C12 1_555 1_555
H11 C13 1_555 1_555
C14 C13 1_555 1_555
H12 C14 1_555 1_555
C15 C14 1_555 1_555
H13 C15 1_555 1_555
C16 C15 1_555 1_555
H14 C16 1_555 1_555
C17 C12 1_555 1_555
H15 C17 1_555 1_555
C18 C7 1_555 1_555
H16 C18 1_555 1_555
H17 C18 1_555 1_555
H18 C18 1_555 1_555
C19 C9 1_555 1_555
H19 C19 1_555 1_555
H20 C19 1_555 1_555
H21 C19 1_555 1_555
C20 N3 1_555 1_555
C21 C20 1_555 1_555
C22 N4 1_555 1_555
C23 C22 1_555 1_555
B2 N5 1_555 1_555
N5 C24 1_555 1_555
N6 B2 1_555 1_555
N7 B2 1_555 1_555
H22 N7 1_555 1_555
N8 B2 1_555 1_555
H23 N8 1_555 1_555
O3 C43 1_555 1_555
O4 C45 1_555 1_555
F7 C44 1_555 1_555
F8 C44 1_555 1_555
F9 C44 1_555 1_555
F10 C46 1_555 1_555
F11 C46 1_555 1_555
F12 C46 1_555 1_555
C24 C25 1_555 1_555
C25 H24 1_555 1_555
C26 C25 1_555 1_555
C27 N5 1_555 1_555
C28 C27 1_555 1_555
C29 N6 1_555 1_555
C30 C29 1_555 1_555
C31 C30 1_555 1_555
H25 C31 1_555 1_555
C32 N6 1_555 1_555
C33 C24 1_555 1_555
H26 C33 1_555 1_555
H27 C33 1_555 1_555
H28 C33 1_555 1_555
C34 C26 1_555 1_555
H29 C34 1_555 1_555
H30 C34 1_555 1_555
H31 C34 1_555 1_555
C35 C28 1_555 1_555
C36 C35 1_555 1_555
H32 C36 1_555 1_555
C37 C36 1_555 1_555
H33 C37 1_555 1_555
C38 C37 1_555 1_555
H34 C38 1_555 1_555
C39 C38 1_555 1_555
H35 C39 1_555 1_555
C40 C35 1_555 1_555
H36 C40 1_555 1_555
C41 C30 1_555 1_555
H37 C41 1_555 1_555
H38 C41 1_555 1_555
H39 C41 1_555 1_555
C42 C32 1_555 1_555
H40 C42 1_555 1_555
H41 C42 1_555 1_555
H42 C42 1_555 1_555
C43 N7 1_555 1_555
C44 C43 1_555 1_555
C45 N8 1_555 1_555
C46 C45 1_555 1_555
B3 N9 1_555 1_555
N9 C47 1_555 1_555
N10 B3 1_555 1_555
N11 B3 1_555 1_555
H43 N11 1_555 1_555
N12 B3 1_555 1_555
H44 N12 1_555 1_555
O5 C66 1_555 1_555
O6 C68 1_555 1_555
F13 C67 1_555 1_555
F14 C67 1_555 1_555
F15 C67 1_555 1_555
F16 C69 1_555 1_555
F17 C69 1_555 1_555
F18 C69 1_555 1_555
C47 C48 1_555 1_555
C48 H45 1_555 1_555
C49 C48 1_555 1_555
C50 N9 1_555 1_555
C51 C50 1_555 1_555
C52 N10 1_555 1_555
C53 C52 1_555 1_555
C54 C53 1_555 1_555
H46 C54 1_555 1_555
C55 N10 1_555 1_555
C56 C47 1_555 1_555
H47 C56 1_555 1_555
H48 C56 1_555 1_555
H49 C56 1_555 1_555
C57 C49 1_555 1_555
H50 C57 1_555 1_555
H51 C57 1_555 1_555
H52 C57 1_555 1_555
C58 C51 1_555 1_555
C59 C58 1_555 1_555
H53 C59 1_555 1_555
C60 C59 1_555 1_555
H54 C60 1_555 1_555
C61 C60 1_555 1_555
H55 C61 1_555 1_555
C62 C61 1_555 1_555
H56 C62 1_555 1_555
C63 C58 1_555 1_555
H57 C63 1_555 1_555
C64 C53 1_555 1_555
H58 C64 1_555 1_555
H59 C64 1_555 1_555
H60 C64 1_555 1_555
C65 C55 1_555 1_555
H61 C65 1_555 1_555
H62 C65 1_555 1_555
H63 C65 1_555 1_555
C66 N11 1_555 1_555
C67 C66 1_555 1_555
C68 N12 1_555 1_555
C69 C68 1_555 1_555
B4 N13 1_555 1_555
N13 C70 1_555 1_555
N14 B4 1_555 1_555
N15 B4 1_555 1_555
H64 N15 1_555 1_555
N16 B4 1_555 1_555
H65 N16 1_555 1_555
O7 C89 1_555 1_555
O8 C91 1_555 1_555
F19 C90 1_555 1_555
F20 C90 1_555 1_555
F21 C90 1_555 1_555
F22 C92 1_555 1_555
F23 C92 1_555 1_555
F24 C92 1_555 1_555
C70 C71 1_555 1_555
C71 H66 1_555 1_555
C72 C71 1_555 1_555
C73 N13 1_555 1_555
C74 C73 1_555 1_555
C75 N14 1_555 1_555
C76 C75 1_555 1_555
C77 C76 1_555 1_555
H67 C77 1_555 1_555
C78 N14 1_555 1_555
C79 C70 1_555 1_555
H68 C79 1_555 1_555
H69 C79 1_555 1_555
H70 C79 1_555 1_555
C80 C72 1_555 1_555
H71 C80 1_555 1_555
H72 C80 1_555 1_555
H73 C80 1_555 1_555
C81 C74 1_555 1_555
C82 C81 1_555 1_555
H74 C82 1_555 1_555
C83 C82 1_555 1_555
H75 C83 1_555 1_555
C84 C83 1_555 1_555
H76 C84 1_555 1_555
C85 C84 1_555 1_555
H77 C85 1_555 1_555
C86 C81 1_555 1_555
H78 C86 1_555 1_555
C87 C76 1_555 1_555
H79 C87 1_555 1_555
H80 C87 1_555 1_555
H81 C87 1_555 1_555
C88 C78 1_555 1_555
H82 C88 1_555 1_555
H83 C88 1_555 1_555
H84 C88 1_555 1_555
C89 N15 1_555 1_555
C90 C89 1_555 1_555
C91 N16 1_555 1_555
C92 C91 1_555 1_555
B5 N17 1_555 1_555
N17 C93 1_555 1_555
N18 B5 1_555 1_555
N19 B5 1_555 1_555
H85 N19 1_555 1_555
N20 B5 1_555 1_555
H86 N20 1_555 1_555
O9 C112 1_555 1_555
O10 C114 1_555 1_555
F25 C113 1_555 1_555
F26 C113 1_555 1_555
F27 C113 1_555 1_555
F28 C115 1_555 1_555
F29 C115 1_555 1_555
F30 C115 1_555 1_555
C93 C94 1_555 1_555
C94 H87 1_555 1_555
C95 C94 1_555 1_555
C96 N17 1_555 1_555
C97 C96 1_555 1_555
C98 N18 1_555 1_555
C99 C98 1_555 1_555
C100 C99 1_555 1_555
H88 C100 1_555 1_555
C101 N18 1_555 1_555
C102 C93 1_555 1_555
H89 C102 1_555 1_555
H90 C102 1_555 1_555
H91 C102 1_555 1_555
C103 C95 1_555 1_555
H92 C103 1_555 1_555
H93 C103 1_555 1_555
H94 C103 1_555 1_555
C104 C97 1_555 1_555
C105 C104 1_555 1_555
H95 C105 1_555 1_555
C106 C105 1_555 1_555
H96 C106 1_555 1_555
C107 C106 1_555 1_555
H97 C107 1_555 1_555
C108 C107 1_555 1_555
H98 C108 1_555 1_555
C109 C104 1_555 1_555
H99 C109 1_555 1_555
C110 C99 1_555 1_555
H100 C110 1_555 1_555
H101 C110 1_555 1_555
H102 C110 1_555 1_555
C111 C101 1_555 1_555
H103 C111 1_555 1_555
H104 C111 1_555 1_555
H105 C111 1_555 1_555
C112 N19 1_555 1_555
C113 C112 1_555 1_555
C114 N20 1_555 1_555
C115 C114 1_555 1_555
B6 N21 1_555 1_555
N21 C116 1_555 1_555
N22 B6 1_555 1_555
N23 B6 1_555 1_555
H106 N23 1_555 1_555
N24 B6 1_555 1_555
H107 N24 1_555 1_555
O11 C135 1_555 1_555
O12 C137 1_555 1_555
F31 C136 1_555 1_555
F32 C136 1_555 1_555
F33 C136 1_555 1_555
F34 C138 1_555 1_555
F35 C138 1_555 1_555
F36 C138 1_555 1_555
C116 C117 1_555 1_555
C117 H108 1_555 1_555
C118 C117 1_555 1_555
C119 N21 1_555 1_555
C120 C119 1_555 1_555
C121 N22 1_555 1_555
C122 C121 1_555 1_555
C123 C122 1_555 1_555
H109 C123 1_555 1_555
C124 N22 1_555 1_555
C125 C116 1_555 1_555
H110 C125 1_555 1_555
H111 C125 1_555 1_555
H112 C125 1_555 1_555
C126 C118 1_555 1_555
H113 C126 1_555 1_555
H114 C126 1_555 1_555
H115 C126 1_555 1_555
C127 C120 1_555 1_555
C128 C127 1_555 1_555
H116 C128 1_555 1_555
C129 C128 1_555 1_555
H117 C129 1_555 1_555
C130 C129 1_555 1_555
H118 C130 1_555 1_555
C131 C130 1_555 1_555
H119 C131 1_555 1_555
C132 C127 1_555 1_555
H120 C132 1_555 1_555
C133 C122 1_555 1_555
H121 C133 1_555 1_555
H122 C133 1_555 1_555
H123 C133 1_555 1_555
C134 C124 1_555 1_555
H124 C134 1_555 1_555
H125 C134 1_555 1_555
H126 C134 1_555 1_555
C135 N23 1_555 1_555
C136 C135 1_555 1_555
C137 N24 1_555 1_555
C138 C137 1_555 1_555
B7 N25 1_555 1_555
N25 C139 1_555 1_555
N26 B7 1_555 1_555
N27 B7 1_555 1_555
H127 N27 1_555 1_555
N28 B7 1_555 1_555
H128 N28 1_555 1_555
O13 C158 1_555 1_555
O14 C160 1_555 1_555
F37 C159 1_555 1_555
F38 C159 1_555 1_555
F39 C159 1_555 1_555
F40 C161 1_555 1_555
F41 C161 1_555 1_555
F42 C161 1_555 1_555
C139 C140 1_555 1_555
C140 H129 1_555 1_555
C141 C140 1_555 1_555
C142 N25 1_555 1_555
C143 C142 1_555 1_555
C144 N26 1_555 1_555
C145 C144 1_555 1_555
C146 C145 1_555 1_555
H130 C146 1_555 1_555
C147 N26 1_555 1_555
C148 C139 1_555 1_555
H131 C148 1_555 1_555
H132 C148 1_555 1_555
H133 C148 1_555 1_555
C149 C141 1_555 1_555
H134 C149 1_555 1_555
H135 C149 1_555 1_555
H136 C149 1_555 1_555
C150 C143 1_555 1_555
C151 C150 1_555 1_555
H137 C151 1_555 1_555
C152 C151 1_555 1_555
H138 C152 1_555 1_555
C153 C152 1_555 1_555
H139 C153 1_555 1_555
C154 C153 1_555 1_555
H140 C154 1_555 1_555
C155 C150 1_555 1_555
H141 C155 1_555 1_555
C156 C145 1_555 1_555
H142 C156 1_555 1_555
H143 C156 1_555 1_555
H144 C156 1_555 1_555
C157 C147 1_555 1_555
H145 C157 1_555 1_555
H146 C157 1_555 1_555
H147 C157 1_555 1_555
C158 N27 1_555 1_555
C159 C158 1_555 1_555
C160 N28 1_555 1_555
C161 C160 1_555 1_555
B8 N29 1_555 1_555
N29 C162 1_555 1_555
N30 B8 1_555 1_555
N31 B8 1_555 1_555
H148 N31 1_555 1_555
N32 B8 1_555 1_555
H149 N32 1_555 1_555
O15 C181 1_555 1_555
O16 C183 1_555 1_555
F43 C182 1_555 1_555
F44 C182 1_555 1_555
F45 C182 1_555 1_555
F46 C184 1_555 1_555
F47 C184 1_555 1_555
F48 C184 1_555 1_555
C162 C163 1_555 1_555
C163 H150 1_555 1_555
C164 C163 1_555 1_555
C165 N29 1_555 1_555
C166 C165 1_555 1_555
C167 N30 1_555 1_555
C168 C167 1_555 1_555
C169 C168 1_555 1_555
H151 C169 1_555 1_555
C170 N30 1_555 1_555
C171 C162 1_555 1_555
H152 C171 1_555 1_555
H153 C171 1_555 1_555
H154 C171 1_555 1_555
C172 C164 1_555 1_555
H155 C172 1_555 1_555
H156 C172 1_555 1_555
H157 C172 1_555 1_555
C173 C166 1_555 1_555
C174 C173 1_555 1_555
H158 C174 1_555 1_555
C175 C174 1_555 1_555
H159 C175 1_555 1_555
C176 C175 1_555 1_555
H160 C176 1_555 1_555
C177 C176 1_555 1_555
H161 C177 1_555 1_555
C178 C173 1_555 1_555
H162 C178 1_555 1_555
C179 C168 1_555 1_555
H163 C179 1_555 1_555
H164 C179 1_555 1_555
H165 C179 1_555 1_555
C180 C170 1_555 1_555
H166 C180 1_555 1_555
H167 C180 1_555 1_555
H168 C180 1_555 1_555
C181 N31 1_555 1_555
C182 C181 1_555 1_555
C183 N32 1_555 1_555
C184 C183 1_555 1_555
C3 C4 1_555 1_555
C5 C6 1_555 1_555
C8 C9 1_555 1_555
C16 C17 1_555 1_555
C26 C27 1_555 1_555
C28 C29 1_555 1_555
C31 C32 1_555 1_555
C39 C40 1_555 1_555
C49 C50 1_555 1_555
C51 C52 1_555 1_555
C54 C55 1_555 1_555
C62 C63 1_555 1_555
C72 C73 1_555 1_555
C74 C75 1_555 1_555
C77 C78 1_555 1_555
C85 C86 1_555 1_555
C95 C96 1_555 1_555
C97 C98 1_555 1_555
C100 C101 1_555 1_555
C108 C109 1_555 1_555
C118 C119 1_555 1_555
C120 C121 1_555 1_555
C123 C124 1_555 1_555
C131 C132 1_555 1_555
C141 C142 1_555 1_555
C143 C144 1_555 1_555
C146 C147 1_555 1_555
C154 C155 1_555 1_555
C164 C165 1_555 1_555
C166 C167 1_555 1_555
C169 C170 1_555 1_555
C177 C178 1_555 1_555

#END
