
#######################################################################
#
#                 Cambridge Crystallographic Data Centre
#                                CCDC 
#
#######################################################################
#
# If this CIF has been generated from an entry in the Cambridge 
# Structural Database, then it will include bibliographic, chemical, 
# crystal, experimental, refinement or atomic coordinate data resulting 
# from the CCDC's data processing and validation procedures.
#
#######################################################################

data_CIVPEF
_chemical_formula_moiety         'C31 H27 B1 N8'
_chemical_name_systematic        
5,5-bis(1H-benzotriazol-1-yl)-1,3,7,9-tetramethyl-10-phenyl-5H-6\l^5^,5\l^5^-dipyrrolo[1,2-c:2',1'-f][1,3,2]diazaborinine
_symmetry_cell_setting           orthorhombic
_symmetry_space_group_name_H-M   'P n a 21'
_symmetry_Int_Tables_number      33
_space_group_name_Hall           'P 2c -2n'
loop_
_symmetry_equiv_pos_site_id
_symmetry_equiv_pos_as_xyz
1 x,y,z
2 -x,-y,1/2+z
3 1/2+x,1/2-y,z
4 1/2-x,1/2+y,1/2+z
_cell_length_a                   15.5682(5)
_cell_length_b                   9.0683(3)
_cell_length_c                   37.0617(12)
_cell_angle_alpha                90
_cell_angle_beta                 90
_cell_angle_gamma                90
_cell_volume                     5232.26
_exptl_crystal_colour            orange
_exptl_crystal_description       lath
_cell_formula_units_Z            8
_exptl_crystal_recrystallization_method 
'Re-crystallisation from solvent: hexane/ethyl acetate'
loop_
_atom_site_label
_atom_site_type_symbol
_atom_site_fract_x
_atom_site_fract_y
_atom_site_fract_z
N1 N 0.86532(18) 0.9624(3) 0.39693(8)
N2 N 0.9679(2) 0.7622(3) 0.38300(9)
N3 N 0.88039(19) 0.8731(3) 0.33276(8)
N4 N 0.8364(2) 0.9862(3) 0.31719(9)
N5 N 0.78609(19) 0.9377(3) 0.29199(9)
N6 N 1.00228(18) 1.0215(3) 0.36362(8)
N7 N 1.0489(2) 1.0478(3) 0.39413(9)
N8 N 1.1082(2) 1.1466(3) 0.38757(9)
C1 C 0.8263(2) 1.0959(4) 0.39873(10)
C2 C 0.7572(2) 1.0869(4) 0.42305(10)
H1 H 0.7192 1.1653 0.4290
C3 C 0.7533(2) 0.9461(4) 0.43692(10)
C4 C 0.8228(2) 0.8668(4) 0.42071(9)
C5 C 0.8561(2) 0.7282(4) 0.42783(10)
C6 C 0.9307(2) 0.6780(4) 0.41045(9)
C7 C 0.9815(2) 0.5496(4) 0.41552(9)
C8 C 1.0484(2) 0.5592(4) 0.39081(10)
H2 H 1.0929 0.4886 0.3878
C9 C 1.0393(2) 0.6895(4) 0.37109(10)
C10 C 0.8536(3) 1.2303(4) 0.37854(12)
H3 H 0.9118 1.2582 0.3860
H4 H 0.8139 1.3113 0.3838
H5 H 0.8531 1.2095 0.3526
C11 C 0.6873(2) 0.8905(4) 0.46264(10)
H6 H 0.6518 0.9729 0.4710
H7 H 0.7158 0.8445 0.4833
H8 H 0.6510 0.8176 0.4505
C12 C 0.8154(2) 0.6327(3) 0.45544(10)
C13 C 0.8398(2) 0.6446(4) 0.49158(9)
H9 H 0.8832 0.7128 0.4983
C14 C 0.8010(2) 0.5575(4) 0.51775(10)
H10 H 0.8177 0.5664 0.5423
C15 C 0.7377(2) 0.4571(4) 0.50782(11)
H11 H 0.7111 0.3971 0.5256
C16 C 0.7135(2) 0.4445(4) 0.47191(11)
H12 H 0.6707 0.3752 0.4651
C17 C 0.7515(2) 0.5329(4) 0.44591(11)
H13 H 0.7338 0.5252 0.4214
C18 C 0.9718(2) 0.4294(4) 0.44295(10)
H14 H 1.0126 0.3500 0.4376
H15 H 0.9131 0.3905 0.4421
H16 H 0.9834 0.4691 0.4671
C19 C 1.0954(3) 0.7420(4) 0.34103(13)
H17 H 1.0596 0.7763 0.3210
H18 H 1.1320 0.6609 0.3328
H19 H 1.1315 0.8234 0.3496
C20 C 0.8530(3) 0.7434(3) 0.31706(11)
C21 C 0.7937(2) 0.7869(4) 0.29100(10)
C22 C 0.7498(2) 0.6859(4) 0.26900(10)
H20 H 0.7093 0.7169 0.2514
C23 C 0.7689(3) 0.5397(4) 0.27435(12)
H21 H 0.7405 0.4668 0.2603
C24 C 0.8299(3) 0.4961(4) 0.30034(13)
H22 H 0.8420 0.3939 0.3028
C25 C 0.8727(3) 0.5930(4) 0.32218(11)
H23 H 0.9132 0.5611 0.3397
C26 C 1.0337(2) 1.1098(4) 0.33636(10)
C27 C 1.1013(2) 1.1877(4) 0.35197(10)
C28 C 1.1489(2) 1.2919(4) 0.33216(11)
H24 H 1.1949 1.3453 0.3429
C29 C 1.1264(2) 1.3133(4) 0.29683(11)
H25 H 1.1576 1.3820 0.2826
C30 C 1.0577(3) 1.2351(5) 0.28130(12)
H26 H 1.0430 1.2543 0.2569
C31 C 1.0108(3) 1.1317(4) 0.30020(11)
H27 H 0.9652 1.0781 0.2893
B1 B 0.9304(2) 0.9063(4) 0.36843(11)
N9 N 0.2789(2) 0.2367(3) 0.62013(8)
N10 N 0.38121(18) 0.0319(3) 0.60654(8)
N11 N 0.36458(19) 0.1181(3) 0.67052(8)
N12 N 0.3990(2) -0.0006(3) 0.68788(9)
N13 N 0.4527(2) 0.0418(3) 0.71242(9)
N14 N 0.24276(18) -0.0224(3) 0.64002(8)
N15 N 0.20227(19) -0.0657(3) 0.60913(8)
N16 N 0.14508(19) -0.1666(3) 0.61626(8)
C32 C 0.2107(2) 0.3135(4) 0.63234(10)
C33 C 0.2039(2) 0.4432(3) 0.61250(11)
H28 H 0.1609 0.5165 0.6157
C34 C 0.2693(2) 0.4488(4) 0.58738(9)
C35 C 0.3180(2) 0.3174(3) 0.59223(9)
C36 C 0.3921(2) 0.2662(4) 0.57516(10)
C37 C 0.4251(2) 0.1268(4) 0.58264(9)
C38 C 0.4948(2) 0.0465(4) 0.56701(10)
C39 C 0.4896(2) -0.0942(4) 0.58138(10)
H29 H 0.5274 -0.1732 0.5759
C40 C 0.4200(2) -0.1020(4) 0.60530(10)
C41 C 0.1547(3) 0.2642(4) 0.66248(13)
H30 H 0.1193 0.1811 0.6545
H31 H 0.1175 0.3458 0.6700
H32 H 0.1905 0.2333 0.6829
C42 C 0.2804(2) 0.5674(4) 0.55939(10)
H33 H 0.2711 0.5255 0.5353
H34 H 0.3387 0.6077 0.5609
H35 H 0.2386 0.6463 0.5637
C43 C 0.4350(2) 0.3616(3) 0.54754(9)
C44 C 0.4112(2) 0.3524(4) 0.51140(10)
H36 H 0.3682 0.2845 0.5041
C45 C 0.4503(2) 0.4425(4) 0.48621(10)
H37 H 0.4340 0.4363 0.4616
C46 C 0.5133(2) 0.5417(4) 0.49667(11)
H38 H 0.5400 0.6036 0.4793
C47 C 0.5373(2) 0.5501(4) 0.53254(11)
H39 H 0.5806 0.6180 0.5396
C48 C 0.4986(2) 0.4603(4) 0.55846(11)
H40 H 0.5152 0.4663 0.5831
C49 C 0.5611(2) 0.0987(4) 0.54139(10)
H41 H 0.5993 0.0167 0.5351
H42 H 0.5946 0.1778 0.5526
H43 H 0.5333 0.1361 0.5195
C50 C 0.3909(3) -0.2349(4) 0.62558(12)
H44 H 0.3905 -0.2132 0.6515
H45 H 0.4302 -0.3170 0.6208
H46 H 0.3328 -0.2618 0.6178
C51 C 0.4012(3) 0.2442(4) 0.68446(11)
C52 C 0.4572(2) 0.1928(4) 0.71141(10)
C53 C 0.5099(2) 0.2880(5) 0.73063(10)
H47 H 0.5472 0.2529 0.7490
C54 C 0.5059(3) 0.4353(5) 0.72199(12)
H48 H 0.5425 0.5033 0.7340
C55 C 0.4482(3) 0.4864(4) 0.69568(12)
H49 H 0.4461 0.5893 0.6910
C56 C 0.3943(3) 0.3948(4) 0.67627(11)
H50 H 0.3554 0.4312 0.6586
C57 C 0.2084(2) -0.1005(3) 0.66850(10)
C58 C 0.1469(2) -0.1924(4) 0.65304(10)
C59 C 0.0995(2) -0.2926(4) 0.67366(11)
H51 H 0.0580 -0.3555 0.6629
C60 C 0.1153(2) -0.2969(4) 0.71009(10)
H52 H 0.0855 -0.3657 0.7248
C61 C 0.1754(2) -0.1999(4) 0.72579(11)
H53 H 0.1840 -0.2036 0.7511
C62 C 0.2218(2) -0.1005(4) 0.70597(9)
H54 H 0.2613 -0.0347 0.7170
B2 B 0.3154(2) 0.0901(4) 0.63464(11)
loop_
_geom_bond_atom_site_label_1
_geom_bond_atom_site_label_2
_geom_bond_site_symmetry_1
_geom_bond_site_symmetry_2
N1 C1 1_555 1_555
N2 C6 1_555 1_555
N3 N4 1_555 1_555
N4 N5 1_555 1_555
N5 C21 1_555 1_555
N6 N7 1_555 1_555
N7 N8 1_555 1_555
N8 C27 1_555 1_555
C1 C2 1_555 1_555
C2 H1 1_555 1_555
C3 C2 1_555 1_555
C4 N1 1_555 1_555
C5 C4 1_555 1_555
C6 C5 1_555 1_555
C7 C6 1_555 1_555
C8 C7 1_555 1_555
H2 C8 1_555 1_555
C9 N2 1_555 1_555
C10 C1 1_555 1_555
H3 C10 1_555 1_555
H4 C10 1_555 1_555
H5 C10 1_555 1_555
C11 C3 1_555 1_555
H6 C11 1_555 1_555
H7 C11 1_555 1_555
H8 C11 1_555 1_555
C12 C5 1_555 1_555
C13 C12 1_555 1_555
H9 C13 1_555 1_555
C14 C13 1_555 1_555
H10 C14 1_555 1_555
C15 C14 1_555 1_555
H11 C15 1_555 1_555
C16 C15 1_555 1_555
H12 C16 1_555 1_555
C17 C12 1_555 1_555
H13 C17 1_555 1_555
C18 C7 1_555 1_555
H14 C18 1_555 1_555
H15 C18 1_555 1_555
H16 C18 1_555 1_555
C19 C9 1_555 1_555
H17 C19 1_555 1_555
H18 C19 1_555 1_555
H19 C19 1_555 1_555
C20 N3 1_555 1_555
C21 C20 1_555 1_555
C22 C21 1_555 1_555
H20 C22 1_555 1_555
C23 C22 1_555 1_555
H21 C23 1_555 1_555
C24 C23 1_555 1_555
H22 C24 1_555 1_555
C25 C20 1_555 1_555
H23 C25 1_555 1_555
C26 N6 1_555 1_555
C27 C26 1_555 1_555
C28 C27 1_555 1_555
H24 C28 1_555 1_555
C29 C28 1_555 1_555
H25 C29 1_555 1_555
C30 C29 1_555 1_555
H26 C30 1_555 1_555
C31 C26 1_555 1_555
H27 C31 1_555 1_555
B1 N1 1_555 1_555
N9 C32 1_555 1_555
N10 C37 1_555 1_555
N11 N12 1_555 1_555
N12 N13 1_555 1_555
N13 C52 1_555 1_555
N14 N15 1_555 1_555
N15 N16 1_555 1_555
N16 C58 1_555 1_555
C32 C33 1_555 1_555
C33 H28 1_555 1_555
C34 C33 1_555 1_555
C35 N9 1_555 1_555
C36 C35 1_555 1_555
C37 C36 1_555 1_555
C38 C37 1_555 1_555
C39 C38 1_555 1_555
H29 C39 1_555 1_555
C40 N10 1_555 1_555
C41 C32 1_555 1_555
H30 C41 1_555 1_555
H31 C41 1_555 1_555
H32 C41 1_555 1_555
C42 C34 1_555 1_555
H33 C42 1_555 1_555
H34 C42 1_555 1_555
H35 C42 1_555 1_555
C43 C36 1_555 1_555
C44 C43 1_555 1_555
H36 C44 1_555 1_555
C45 C44 1_555 1_555
H37 C45 1_555 1_555
C46 C45 1_555 1_555
H38 C46 1_555 1_555
C47 C46 1_555 1_555
H39 C47 1_555 1_555
C48 C43 1_555 1_555
H40 C48 1_555 1_555
C49 C38 1_555 1_555
H41 C49 1_555 1_555
H42 C49 1_555 1_555
H43 C49 1_555 1_555
C50 C40 1_555 1_555
H44 C50 1_555 1_555
H45 C50 1_555 1_555
H46 C50 1_555 1_555
C51 N11 1_555 1_555
C52 C51 1_555 1_555
C53 C52 1_555 1_555
H47 C53 1_555 1_555
C54 C53 1_555 1_555
H48 C54 1_555 1_555
C55 C54 1_555 1_555
H49 C55 1_555 1_555
C56 C51 1_555 1_555
H50 C56 1_555 1_555
C57 N14 1_555 1_555
C58 C57 1_555 1_555
C59 C58 1_555 1_555
H51 C59 1_555 1_555
C60 C59 1_555 1_555
H52 C60 1_555 1_555
C61 C60 1_555 1_555
H53 C61 1_555 1_555
C62 C57 1_555 1_555
H54 C62 1_555 1_555
B2 N9 1_555 1_555
N2 B1 1_555 1_555
N3 B1 1_555 1_555
N6 B1 1_555 1_555
C3 C4 1_555 1_555
C8 C9 1_555 1_555
C16 C17 1_555 1_555
C24 C25 1_555 1_555
C30 C31 1_555 1_555
N10 B2 1_555 1_555
N11 B2 1_555 1_555
N14 B2 1_555 1_555
C34 C35 1_555 1_555
C39 C40 1_555 1_555
C47 C48 1_555 1_555
C55 C56 1_555 1_555
C61 C62 1_555 1_555

#END
