
#######################################################################
#
#                 Cambridge Crystallographic Data Centre
#                                CCDC 
#
#######################################################################
#
# If this CIF has been generated from an entry in the Cambridge 
# Structural Database, then it will include bibliographic, chemical, 
# crystal, experimental, refinement or atomic coordinate data resulting 
# from the CCDC's data processing and validation procedures.
#
#######################################################################

data_CIVSIM
_chemical_formula_moiety         'C38 H43 N1 O1'
_chemical_name_systematic        
'[4-(9,9-dihexylacridin-10(9H)-yl)phenyl](phenyl)methanone'
_symmetry_cell_setting           monoclinic
_symmetry_space_group_name_H-M   'P 21/c'
_symmetry_Int_Tables_number      14
_space_group_name_Hall           '-P 2ybc'
loop_
_symmetry_equiv_pos_site_id
_symmetry_equiv_pos_as_xyz
1 x,y,z
2 -x,1/2+y,1/2-z
3 -x,-y,-z
4 x,1/2-y,1/2+z
_cell_length_a                   11.7751(10)
_cell_length_b                   20.0563(16)
_cell_length_c                   12.8459(11)
_cell_angle_alpha                90
_cell_angle_beta                 91.645(2)
_cell_angle_gamma                90
_cell_volume                     3032.5
_exptl_crystal_colour            yellow
_exptl_crystal_description       prism
_cell_formula_units_Z            4
_exptl_crystal_recrystallization_method 
'Re-crystallisation from solvent: ethanol'
_exptl_crystal_preparation       ', Luminescent'
loop_
_atom_site_label
_atom_site_type_symbol
_atom_site_fract_x
_atom_site_fract_y
_atom_site_fract_z
C1 C 0.80549(16) -0.01498(10) 0.31483(15)
C2 C 0.87206(17) -0.07100(10) 0.33874(16)
H1 H 0.8794 -0.0858 0.4088
C3 C 0.92694(19) -0.10477(11) 0.26203(18)
H2 H 0.9712 -0.1430 0.2792
C4 C 0.9181(2) -0.08353(12) 0.16061(19)
H3 H 0.9580 -0.1061 0.1078
C5 C 0.85084(18) -0.02919(11) 0.13597(17)
H4 H 0.8443 -0.0152 0.0654
C6 C 0.79236(16) 0.00579(10) 0.21086(15)
C7 C 0.70591(16) 0.05935(10) 0.17866(14)
C8 C 0.67205(16) 0.10117(10) 0.27214(15)
C9 C 0.61225(17) 0.16072(10) 0.25846(16)
H5 H 0.5949 0.1755 0.1896
C10 C 0.57724(18) 0.19901(11) 0.34075(18)
H6 H 0.5375 0.2396 0.3285
C11 C 0.60066(17) 0.17766(11) 0.44092(17)
H7 H 0.5779 0.2038 0.4984
C12 C 0.65736(17) 0.11820(11) 0.45756(16)
H8 H 0.6725 0.1034 0.5268
C13 C 0.69270(15) 0.07957(10) 0.37439(15)
C14 C 0.75431(17) -0.00722(10) 0.49788(15)
C15 C 0.84609(18) 0.00624(10) 0.56450(16)
H9 H 0.9066 0.0334 0.5415
C16 C 0.85004(18) -0.01961(10) 0.66430(15)
H10 H 0.9123 -0.0093 0.7102
C17 C 0.76311(17) -0.06061(10) 0.69752(15)
C18 C 0.67086(17) -0.07432(10) 0.63030(15)
H11 H 0.6113 -0.1025 0.6524
C19 C 0.66617(17) -0.04682(10) 0.53132(15)
H12 H 0.6023 -0.0552 0.4863
C20 C 0.76777(19) -0.08544(12) 0.80748(17)
C21 C 0.72234(17) -0.15267(11) 0.83237(16)
C22 C 0.72829(19) -0.20521(12) 0.76277(19)
H13 H 0.7554 -0.1979 0.6948
C23 C 0.6946(2) -0.26868(13) 0.7924(2)
H14 H 0.7005 -0.3051 0.7456
C24 C 0.6526(2) -0.27845(16) 0.8904(3)
H15 H 0.6283 -0.3217 0.9103
C25 C 0.6455(2) -0.22654(17) 0.9591(2)
H16 H 0.6158 -0.2337 1.0262
C26 C 0.68126(19) -0.16410(14) 0.93104(18)
H17 H 0.6779 -0.1284 0.9795
C27 C 0.59833(17) 0.02264(11) 0.13433(15)
H18 H 0.5411 0.0564 0.1128
H19 H 0.6193 -0.0023 0.0712
C28 C 0.54425(17) -0.02548(11) 0.20939(16)
H20 H 0.5212 -0.0005 0.2718
H21 H 0.6017 -0.0588 0.2322
C29 C 0.44102(17) -0.06191(11) 0.16345(15)
H22 H 0.3865 -0.0288 0.1342
H23 H 0.4653 -0.0908 0.1057
C30 C 0.38159(17) -0.10442(11) 0.24333(16)
H24 H 0.4355 -0.1385 0.2706
H25 H 0.3603 -0.0758 0.3024
C31 C 0.27591(18) -0.13914(11) 0.20024(16)
H26 H 0.2969 -0.1672 0.1404
H27 H 0.2213 -0.1050 0.1742
C32 C 0.21801(19) -0.18258(11) 0.27983(18)
H28 H 0.2723 -0.2154 0.3081
H29 H 0.1535 -0.2058 0.2463
H30 H 0.1908 -0.1546 0.3365
C33 C 0.75219(16) 0.10395(10) 0.09125(15)
H31 H 0.7653 0.0756 0.0297
H32 H 0.6928 0.1368 0.0711
C34 C 0.86151(17) 0.14173(10) 0.11755(15)
H33 H 0.9244 0.1094 0.1279
H34 H 0.8526 0.1663 0.1837
C35 C 0.89201(16) 0.19079(10) 0.03220(15)
H35 H 0.8937 0.1666 -0.0349
H36 H 0.8315 0.2250 0.0261
C36 C 1.00521(17) 0.22558(11) 0.05043(17)
H37 H 1.0645 0.1914 0.0638
H38 H 1.0008 0.2535 0.1138
C37 C 1.0418(2) 0.26959(12) -0.0397(2)
H39 H 1.1163 0.2897 -0.0208
H40 H 1.0526 0.2409 -0.1014
C38 C 0.9613(2) 0.32412(13) -0.0696(2)
H41 H 0.8894 0.3048 -0.0954
H42 H 0.9942 0.3514 -0.1245
H43 H 0.9474 0.3521 -0.0087
N1 N 0.74992(14) 0.01903(8) 0.39385(12)
O1 O 0.80965(17) -0.05064(9) 0.87605(12)
loop_
_geom_bond_atom_site_label_1
_geom_bond_atom_site_label_2
_geom_bond_site_symmetry_1
_geom_bond_site_symmetry_2
C1 C2 1_555 1_555
C2 H1 1_555 1_555
C3 C2 1_555 1_555
H2 C3 1_555 1_555
C4 C3 1_555 1_555
H3 C4 1_555 1_555
C5 C4 1_555 1_555
H4 C5 1_555 1_555
C6 C1 1_555 1_555
C7 C6 1_555 1_555
C8 C7 1_555 1_555
C9 C8 1_555 1_555
H5 C9 1_555 1_555
C10 C9 1_555 1_555
H6 C10 1_555 1_555
C11 C10 1_555 1_555
H7 C11 1_555 1_555
C12 C11 1_555 1_555
H8 C12 1_555 1_555
C13 C8 1_555 1_555
C14 C15 1_555 1_555
C15 H9 1_555 1_555
C16 C15 1_555 1_555
H10 C16 1_555 1_555
C17 C16 1_555 1_555
C18 C17 1_555 1_555
H11 C18 1_555 1_555
C19 C14 1_555 1_555
H12 C19 1_555 1_555
C20 C17 1_555 1_555
C21 C20 1_555 1_555
C22 C21 1_555 1_555
H13 C22 1_555 1_555
C23 C22 1_555 1_555
H14 C23 1_555 1_555
C24 C23 1_555 1_555
H15 C24 1_555 1_555
C25 C24 1_555 1_555
H16 C25 1_555 1_555
C26 C21 1_555 1_555
H17 C26 1_555 1_555
C27 C7 1_555 1_555
H18 C27 1_555 1_555
H19 C27 1_555 1_555
C28 C27 1_555 1_555
H20 C28 1_555 1_555
H21 C28 1_555 1_555
C29 C28 1_555 1_555
H22 C29 1_555 1_555
H23 C29 1_555 1_555
C30 C29 1_555 1_555
H24 C30 1_555 1_555
H25 C30 1_555 1_555
C31 C30 1_555 1_555
H26 C31 1_555 1_555
H27 C31 1_555 1_555
C32 C31 1_555 1_555
H28 C32 1_555 1_555
H29 C32 1_555 1_555
H30 C32 1_555 1_555
C33 C7 1_555 1_555
H31 C33 1_555 1_555
H32 C33 1_555 1_555
C34 C33 1_555 1_555
H33 C34 1_555 1_555
H34 C34 1_555 1_555
C35 C34 1_555 1_555
H35 C35 1_555 1_555
H36 C35 1_555 1_555
C36 C35 1_555 1_555
H37 C36 1_555 1_555
H38 C36 1_555 1_555
C37 C36 1_555 1_555
H39 C37 1_555 1_555
H40 C37 1_555 1_555
C38 C37 1_555 1_555
H41 C38 1_555 1_555
H42 C38 1_555 1_555
H43 C38 1_555 1_555
N1 C1 1_555 1_555
O1 C20 1_555 1_555
C5 C6 1_555 1_555
C12 C13 1_555 1_555
C13 N1 1_555 1_555
C14 N1 1_555 1_555
C18 C19 1_555 1_555
C25 C26 1_555 1_555

#END
