
#######################################################################
#
#                 Cambridge Crystallographic Data Centre
#                                CCDC 
#
#######################################################################
#
# If this CIF has been generated from an entry in the Cambridge 
# Structural Database, then it will include bibliographic, chemical, 
# crystal, experimental, refinement or atomic coordinate data resulting 
# from the CCDC's data processing and validation procedures.
#
#######################################################################

data_CIVZEP
_chemical_formula_moiety         'C34 H32 B2 F4 N6'
_chemical_name_systematic        
"7,7'-(quinoxaline-2,3-diyl)bis(2-ethyl-5,5-difluoro-1,3-dimethyl-5H-dipyrrolo[1,2-c:2',1'-f][1,3,2]diazaborinin-4-ium-5-ide) unknown solvate"
_symmetry_cell_setting           monoclinic
_symmetry_space_group_name_H-M   'C 2/c'
_symmetry_Int_Tables_number      15
_space_group_name_Hall           '-C 2yn'
loop_
_symmetry_equiv_pos_site_id
_symmetry_equiv_pos_as_xyz
1 x,y,z
2 -x,y,1/2-z
3 1/2+x,1/2+y,z
4 1/2-x,1/2+y,1/2-z
5 -x,-y,-z
6 x,-y,1/2+z
7 1/2-x,1/2-y,-z
8 1/2+x,1/2-y,1/2+z
_cell_length_a                   38.655(8)
_cell_length_b                   8.3046(17)
_cell_length_c                   25.898(5)
_cell_angle_alpha                90
_cell_angle_beta                 123.676(2)
_cell_angle_gamma                90
_cell_volume                     6918.49
_exptl_crystal_colour            colorless
_exptl_crystal_description       block
_cell_formula_units_Z            8
loop_
_atom_site_label
_atom_site_type_symbol
_atom_site_fract_x
_atom_site_fract_y
_atom_site_fract_z
F1 F 0.15542(9) 0.6579(3) 0.01077(14)
F2 F 0.22414(10) 0.6272(3) 0.07511(14)
F3 F 0.09682(8) 0.2660(4) 0.15882(12)
F4 F 0.05673(8) 0.4766(4) 0.14950(12)
N1 N 0.19097(12) 0.4965(5) -0.02250(19)
N2 N 0.18055(11) 0.4010(4) 0.05830(17)
N3 N 0.19263(12) 0.6210(6) 0.16717(19)
N4 N 0.11083(11) 0.6877(5) 0.12895(19)
N5 N 0.05666(11) 0.3933(4) 0.05997(17)
N6 N 0.02264(13) 0.2292(5) 0.1001(2)
C1 C 0.18368(15) 0.7459(7) 0.1914(2)
C2 C 0.21666(17) 0.8436(8) 0.2370(2)
H1 H 0.2439 0.8205 0.2500
C3 C 0.2087(2) 0.9698(7) 0.2615(2)
H2 H 0.2303 1.0344 0.2912
C4 C 0.1682(2) 1.0028(6) 0.2425(2)
H3 H 0.1631 1.0907 0.2596
C5 C 0.13536(15) 0.9099(6) 0.1992(2)
H4 H 0.1084 0.9336 0.1873
C6 C 0.16101(16) 0.5329(6) 0.1251(2)
C7 C 0.14341(16) 0.7782(6) 0.1733(2)
C8 C 0.11925(15) 0.5677(6) 0.1057(2)
C9 C 0.08389(15) 0.4780(6) 0.0531(2)
C10 C 0.07164(16) 0.4779(6) -0.0085(3)
H5 H 0.0856 0.5257 -0.0244
C11 C 0.03480(15) 0.3929(6) -0.0413(2)
H6 H 0.0190 0.3749 -0.0839
C12 C 0.02558(16) 0.3395(6) 0.0002(2)
C13 C -0.00611(15) 0.2426(6) -0.0080(3)
H7 H -0.0270 0.2127 -0.0482
C14 C -0.00851(16) 0.1893(6) 0.0387(3)
C15 C -0.03842(17) 0.0915(7) 0.0399(3)
C16 C -0.02478(19) 0.0731(7) 0.1006(3)
C17 C 0.0123(2) 0.1622(8) 0.1366(3)
C18 C 0.0390(2) 0.1789(10) 0.2049(3)
H8 H 0.0677 0.1812 0.2183
H9 H 0.0344 0.0892 0.2238
H10 H 0.0322 0.2771 0.2170
C19 C -0.0450(3) -0.036(2) 0.1236(7)
H11 H -0.0548 -0.1342 0.0992
H12 H -0.0250 -0.0653 0.1666
C20 C -0.0813(4) 0.054(3) 0.1175(8)
H13 H -0.1027 0.0684 0.0744
H14 H -0.0720 0.1575 0.1371
H15 H -0.0921 -0.0064 0.1372
C21 C 0.16987(13) 0.3906(7) 0.1000(2)
C22 C 0.16772(15) 0.2302(8) 0.1131(2)
H16 H 0.1608 0.1918 0.1400
C23 C 0.17772(14) 0.1389(6) 0.0789(3)
H17 H 0.1793 0.0271 0.0791
C24 C 0.18510(15) 0.2422(6) 0.0440(3)
C25 C 0.19208(15) 0.2164(6) -0.0021(3)
H18 H 0.1957 0.1109 -0.0103
C26 C 0.19391(16) 0.3342(6) -0.0360(3)
C27 C 0.20000(19) 0.3308(7) -0.0843(3)
C28 C 0.20071(19) 0.4889(8) -0.1014(2)
C29 C 0.19478(16) 0.5846(6) -0.0618(3)
C30 C 0.19227(19) 0.7663(6) -0.0630(3)
H19 H 0.1672 0.8005 -0.1006
H20 H 0.2158 0.8106 -0.0612
H21 H 0.1922 0.8032 -0.0279
C31 C 0.2032(2) 0.1820(7) -0.1146(3)
H22 H 0.2134 0.0943 -0.0856
H23 H 0.2219 0.2015 -0.1272
H24 H 0.1762 0.1552 -0.1502
C32 C 0.20863(18) 0.5451(9) -0.1498(2)
H25 H 0.2208 0.6519 -0.1397
H26 H 0.2275 0.4720 -0.1517
C33 C 0.16662(19) 0.5472(10) -0.2114(3)
H27 H 0.1701 0.5810 -0.2437
H28 H 0.1484 0.6208 -0.2089
H29 H 0.1548 0.4411 -0.2204
C34 C -0.07743(15) 0.0256(6) -0.0167(3)
H30 H -0.1002 0.0968 -0.0285
H31 H -0.0833 -0.0789 -0.0075
H32 H -0.0736 0.0169 -0.0502
B1 B 0.1871(2) 0.5498(8) 0.0312(3)
B2 B 0.05979(19) 0.3450(8) 0.1197(3)
C35? C -0.0465(5) 0.013(3) 0.1311(8)
H33? H -0.0628 -0.0810 0.1088
H34? H -0.0255 -0.0201 0.1731
C36? C -0.0750(7) 0.134(4) 0.1339(14)
H35? H -0.0947 0.1750 0.0930
H36? H -0.0587 0.2217 0.1607
H37? H -0.0895 0.0825 0.1496
C37? C 0.1807(7) 0.537(6) -0.1688(7)
H38? H 0.1603 0.4568 -0.1953
H39? H 0.1662 0.6389 -0.1762
C38? C 0.2123(7) 0.555(6) -0.1858(13)
H40? H 0.2138 0.4564 -0.2039
H41? H 0.2391 0.5785 -0.1492
H42? H 0.2041 0.6411 -0.2151
loop_
_geom_bond_atom_site_label_1
_geom_bond_atom_site_label_2
_geom_bond_site_symmetry_1
_geom_bond_site_symmetry_2
F1 B1 1_555 1_555
F2 B1 1_555 1_555
F3 B2 1_555 1_555
F4 B2 1_555 1_555
N1 C26 1_555 1_555
N2 C21 1_555 1_555
N3 C1 1_555 1_555
N4 C7 1_555 1_555
N5 C9 1_555 1_555
N6 C14 1_555 1_555
C1 C2 1_555 1_555
C2 H1 1_555 1_555
C3 C2 1_555 1_555
H2 C3 1_555 1_555
C4 C3 1_555 1_555
H3 C4 1_555 1_555
C5 C4 1_555 1_555
H4 C5 1_555 1_555
C6 N3 1_555 1_555
C7 C1 1_555 1_555
C8 N4 1_555 1_555
C9 C8 1_555 1_555
C10 C9 1_555 1_555
H5 C10 1_555 1_555
C11 C10 1_555 1_555
H6 C11 1_555 1_555
C12 N5 1_555 1_555
C13 C12 1_555 1_555
H7 C13 1_555 1_555
C14 C13 1_555 1_555
C15 C14 1_555 1_555
C16 C15 1_555 1_555
C17 N6 1_555 1_555
C18 C17 1_555 1_555
H8 C18 1_555 1_555
H9 C18 1_555 1_555
H10 C18 1_555 1_555
C19 C16 1_555 1_555
H11 C19 1_555 1_555
H12 C19 1_555 1_555
C20 C19 1_555 1_555
H13 C20 1_555 1_555
H14 C20 1_555 1_555
H15 C20 1_555 1_555
C21 C6 1_555 1_555
C22 C21 1_555 1_555
H16 C22 1_555 1_555
C23 C22 1_555 1_555
H17 C23 1_555 1_555
C24 N2 1_555 1_555
C25 C24 1_555 1_555
H18 C25 1_555 1_555
C26 C25 1_555 1_555
C27 C26 1_555 1_555
C28 C27 1_555 1_555
C29 N1 1_555 1_555
C30 C29 1_555 1_555
H19 C30 1_555 1_555
H20 C30 1_555 1_555
H21 C30 1_555 1_555
C31 C27 1_555 1_555
H22 C31 1_555 1_555
H23 C31 1_555 1_555
H24 C31 1_555 1_555
C32 C28 1_555 1_555
H25 C32 1_555 1_555
H26 C32 1_555 1_555
C33 C32 1_555 1_555
H27 C33 1_555 1_555
H28 C33 1_555 1_555
H29 C33 1_555 1_555
C34 C15 1_555 1_555
H30 C34 1_555 1_555
H31 C34 1_555 1_555
H32 C34 1_555 1_555
B1 N1 1_555 1_555
B2 N5 1_555 1_555
N2 B1 1_555 1_555
N6 B2 1_555 1_555
C5 C7 1_555 1_555
C6 C8 1_555 1_555
C11 C12 1_555 1_555
C16 C17 1_555 1_555
C23 C24 1_555 1_555
C28 C29 1_555 1_555

#END
