
#######################################################################
#
#                 Cambridge Crystallographic Data Centre
#                                CCDC 
#
#######################################################################
#
# If this CIF has been generated from an entry in the Cambridge 
# Structural Database, then it will include bibliographic, chemical, 
# crystal, experimental, refinement or atomic coordinate data resulting 
# from the CCDC's data processing and validation procedures.
#
#######################################################################

data_CIWCET
_chemical_formula_moiety         'C30 H24 S6'
_chemical_name_systematic        
2,5,8,11,14,17-hexamethylpentakisthieno[2',3':5,6;2'',3'':9,10;3''',2''':11,12;3'''',2'''':3,4;3''''',2''''':7,8]cyclododeca[1,2-b]thiophene
_symmetry_cell_setting           monoclinic
_symmetry_space_group_name_H-M   'C 2/c'
_symmetry_Int_Tables_number      15
_space_group_name_Hall           '-C 2yn'
loop_
_symmetry_equiv_pos_site_id
_symmetry_equiv_pos_as_xyz
1 x,y,z
2 -x,y,1/2-z
3 1/2+x,1/2+y,z
4 1/2-x,1/2+y,1/2-z
5 -x,-y,-z
6 x,-y,1/2+z
7 1/2-x,1/2-y,-z
8 1/2+x,1/2-y,1/2+z
_cell_length_a                   39.974(8)
_cell_length_b                   9.0297(16)
_cell_length_c                   16.077(3)
_cell_angle_alpha                90
_cell_angle_beta                 109.501(3)
_cell_angle_gamma                90
_cell_volume                     5470.16
_exptl_crystal_colour            colorless
_exptl_crystal_description       Prism
_cell_formula_units_Z            8
loop_
_atom_site_label
_atom_site_type_symbol
_atom_site_fract_x
_atom_site_fract_y
_atom_site_fract_z
C1 C 0.24993(9) 0.4602(4) 0.5676(2)
H1 H 0.2421 0.4368 0.6177
H2 H 0.2549 0.5664 0.5675
H3 H 0.2715 0.4039 0.5728
C2 C 0.22130(8) 0.4194(4) 0.4831(2)
C3 C 0.18842(8) 0.3677(4) 0.47132(19)
H4 H 0.1797 0.3538 0.5190
C4 C 0.16741(8) 0.3349(3) 0.38128(19)
C5 C 0.18601(7) 0.3633(3) 0.32480(19)
C6 C 0.17648(8) 0.3483(3) 0.22919(19)
C7 C 0.14562(8) 0.3841(3) 0.1632(2)
C8 C 0.14630(8) 0.3422(4) 0.0776(2)
H5 H 0.1270 0.3581 0.0246
C9 C 0.17722(9) 0.2776(4) 0.0795(2)
C10 C 0.18660(10) 0.2148(5) 0.0037(2)
H6 H 0.1861 0.1064 0.0059
H7 H 0.2104 0.2478 0.0077
H8 H 0.1694 0.2493 -0.0520
C11 C 0.08005(10) 0.7443(4) 0.3009(3)
H9 H 0.1025 0.7937 0.3327
H10 H 0.0700 0.7016 0.3435
H11 H 0.0634 0.8166 0.2638
C12 C 0.08654(9) 0.6234(4) 0.2439(2)
C13 C 0.11810(8) 0.5801(3) 0.2368(2)
H12 H 0.1400 0.6281 0.2666
C14 C 0.11516(8) 0.4544(3) 0.1796(2)
C15 C 0.08081(8) 0.4045(3) 0.1433(2)
C16 C 0.06712(8) 0.2777(4) 0.08595(19)
C17 C 0.07981(8) 0.1354(4) 0.08599(19)
C18 C 0.05795(8) 0.0503(4) 0.01113(19)
H13 H 0.0631 -0.0489 -0.0002
C19 C 0.02934(8) 0.1269(4) -0.0414(2)
C20 C 0.00090(9) 0.0749(5) -0.1235(2)
H14 H 0.0055 0.1145 -0.1754
H15 H -0.0223 0.1100 -0.1231
H16 H 0.0009 -0.0335 -0.1255
C21 C 0.18853(9) -0.2050(4) 0.1855(2)
H17 H 0.1776 -0.3023 0.1678
H18 H 0.2067 -0.2124 0.2440
H19 H 0.1995 -0.1712 0.1427
C22 C 0.16050(8) -0.0960(4) 0.1889(2)
C23 C 0.13254(8) -0.0426(4) 0.1215(2)
H20 H 0.1273 -0.0721 0.0617
C24 C 0.11157(8) 0.0644(3) 0.15024(19)
C25 C 0.12491(7) 0.0875(3) 0.23999(19)
C26 C 0.11228(7) 0.1798(3) 0.29807(19)
C27 C 0.13047(8) 0.2806(3) 0.36087(19)
C28 C 0.10843(8) 0.3406(3) 0.4081(2)
H21 H 0.1166 0.4117 0.4540
C29 C 0.07494(8) 0.2854(4) 0.3805(2)
C30 C 0.04440(9) 0.3341(4) 0.4091(3)
H22 H 0.0536 0.3728 0.4694
H23 H 0.0288 0.2493 0.4072
H24 H 0.0309 0.4117 0.3693
S1 S 0.22821(2) 0.43104(9) 0.38282(5)
S2 S 0.20627(2) 0.26459(10) 0.18622(5)
S3 S 0.05239(2) 0.51309(10) 0.17950(6)
S4 S 0.02840(2) 0.30376(10) -0.00297(5)
S5 S 0.16198(2) -0.02057(9) 0.28795(5)
S6 S 0.06922(2) 0.15739(9) 0.29787(5)
loop_
_geom_bond_atom_site_label_1
_geom_bond_atom_site_label_2
_geom_bond_site_symmetry_1
_geom_bond_site_symmetry_2
C1 H1 1_555 1_555
H2 C1 1_555 1_555
H3 C1 1_555 1_555
C2 C1 1_555 1_555
C3 C2 1_555 1_555
H4 C3 1_555 1_555
C4 C3 1_555 1_555
C5 C4 1_555 1_555
C6 C5 1_555 1_555
C7 C6 1_555 1_555
C8 C7 1_555 1_555
H5 C8 1_555 1_555
C9 C8 1_555 1_555
C10 C9 1_555 1_555
H6 C10 1_555 1_555
H7 C10 1_555 1_555
H8 C10 1_555 1_555
C11 H9 1_555 1_555
H10 C11 1_555 1_555
H11 C11 1_555 1_555
C12 C11 1_555 1_555
C13 C12 1_555 1_555
H12 C13 1_555 1_555
C14 C7 1_555 1_555
C15 C14 1_555 1_555
C16 C15 1_555 1_555
C17 C16 1_555 1_555
C18 C17 1_555 1_555
H13 C18 1_555 1_555
C19 C18 1_555 1_555
C20 C19 1_555 1_555
H14 C20 1_555 1_555
H15 C20 1_555 1_555
H16 C20 1_555 1_555
C21 H17 1_555 1_555
H18 C21 1_555 1_555
H19 C21 1_555 1_555
C22 C21 1_555 1_555
C23 C22 1_555 1_555
H20 C23 1_555 1_555
C24 C17 1_555 1_555
C25 C24 1_555 1_555
C26 C25 1_555 1_555
C27 C4 1_555 1_555
C28 C27 1_555 1_555
H21 C28 1_555 1_555
C29 C28 1_555 1_555
C30 C29 1_555 1_555
H22 C30 1_555 1_555
H23 C30 1_555 1_555
H24 C30 1_555 1_555
S1 C2 1_555 1_555
S2 C6 1_555 1_555
S3 C12 1_555 1_555
S4 C16 1_555 1_555
S5 C22 1_555 1_555
S6 C26 1_555 1_555
C5 S1 1_555 1_555
C9 S2 1_555 1_555
C13 C14 1_555 1_555
C15 S3 1_555 1_555
C19 S4 1_555 1_555
C23 C24 1_555 1_555
C25 S5 1_555 1_555
C26 C27 1_555 1_555
C29 S6 1_555 1_555

#END
