
#######################################################################
#
#                 Cambridge Crystallographic Data Centre
#                                CCDC 
#
#######################################################################
#
# If this CIF has been generated from an entry in the Cambridge 
# Structural Database, then it will include bibliographic, chemical, 
# crystal, experimental, refinement or atomic coordinate data resulting 
# from the CCDC's data processing and validation procedures.
#
#######################################################################

data_CIWHIA
_chemical_name_common            
4,5-bis(1-Hydroxypropyl)-2,2-dimethyl-1,3-dioxolane
_chemical_formula_moiety         'C11 H22 O4'
_chemical_name_systematic        3,6-Dihydroxy-4,5-di-O-isopropylideneoctane
_symmetry_cell_setting           monoclinic
_symmetry_space_group_name_H-M   'P 21'
_symmetry_Int_Tables_number      4
_space_group_name_Hall           'P 2yb'
loop_
_symmetry_equiv_pos_site_id
_symmetry_equiv_pos_as_xyz
1 x,y,z
2 -x,1/2+y,-z
_cell_length_a                   6.3222(18)
_cell_length_b                   8.101(2)
_cell_length_c                   13.001(4)
_cell_angle_alpha                90
_cell_angle_beta                 102.102(6)
_cell_angle_gamma                90
_cell_volume                     651.063
_cell_formula_units_Z            2
loop_
_atom_site_label
_atom_site_type_symbol
_atom_site_fract_x
_atom_site_fract_y
_atom_site_fract_z
C1 C 0.7668(8) 0.6800(7) 0.9082(4)
C2 C 0.7987(8) 0.7014(8) 0.7298(4)
H1 H 0.9296 0.7595 0.7208
C3 C 0.6216(7) 0.8262(7) 0.7509(4)
H2 H 0.4746 0.7831 0.7272
C4 C 0.7164(9) 0.5858(8) 0.6383(4)
H3 H 0.5811 0.5357 0.6485
C5 C 0.8720(8) 0.4480(7) 0.6249(4)
H4 H 0.8046 0.3783 0.5665
H5 H 0.9010 0.3806 0.6879
C6 C 1.0870(8) 0.5149(7) 0.6043(4)
H6 H 1.1580 0.5792 0.6636
H7 H 1.0590 0.5829 0.5425
H8 H 1.1782 0.4243 0.5941
C7 C 0.6459(7) 0.9969(7) 0.7106(3)
H9 H 0.7988 1.0289 0.7262
C8 C 0.5084(8) 1.1294(7) 0.7552(4)
H10 H 0.5693 1.1456 0.8295
H11 H 0.5177 1.2336 0.7197
C9 C 0.2713(8) 1.0808(7) 0.7417(4)
H12 H 0.2592 0.9879 0.7859
H13 H 0.2146 1.0519 0.6696
H14 H 0.1909 1.1720 0.7610
C10 C 0.5763(8) 0.5722(7) 0.9366(4)
H15 H 0.6317 0.4663 0.9625
H16 H 0.4646 0.5576 0.8748
H17 H 0.5179 0.6277 0.9897
C11 C 0.9475(8) 0.7114(7) 0.9985(4)
H18 H 1.0456 0.7896 0.9784
H19 H 1.0226 0.6100 1.0196
H20 H 0.8917 0.7552 1.0561
O1 O 0.8399(5) 0.6026(4) 0.8215(3)
O2 O 0.6822(5) 0.8405(5) 0.8650(3)
O3 O 0.6679(5) 0.6911(5) 0.5465(3)
H21 H 0.6127 0.6247 0.4856
O4 O 0.5651(5) 0.9943(5) 0.5991(3)
H22 H 0.4877 1.0946 0.5773
loop_
_geom_bond_atom_site_label_1
_geom_bond_atom_site_label_2
_geom_bond_site_symmetry_1
_geom_bond_site_symmetry_2
C1 C10 1_555 1_555
C2 H1 1_555 1_555
C3 C2 1_555 1_555
H2 C3 1_555 1_555
C4 C2 1_555 1_555
H3 C4 1_555 1_555
C5 C4 1_555 1_555
H4 C5 1_555 1_555
H5 C5 1_555 1_555
C6 C5 1_555 1_555
H6 C6 1_555 1_555
H7 C6 1_555 1_555
H8 C6 1_555 1_555
C7 C3 1_555 1_555
H9 C7 1_555 1_555
C8 C7 1_555 1_555
H10 C8 1_555 1_555
H11 C8 1_555 1_555
C9 C8 1_555 1_555
H12 C9 1_555 1_555
H13 C9 1_555 1_555
H14 C9 1_555 1_555
C10 H15 1_555 1_555
H16 C10 1_555 1_555
H17 C10 1_555 1_555
C11 C1 1_555 1_555
H18 C11 1_555 1_555
H19 C11 1_555 1_555
H20 C11 1_555 1_555
O1 C1 1_555 1_555
O2 C1 1_555 1_555
O3 C4 1_555 1_555
H21 O3 1_555 1_555
O4 C7 1_555 1_555
H22 O4 1_555 1_555
C2 O1 1_555 1_555
C3 O2 1_555 1_555

#END
