
#######################################################################
#
#                 Cambridge Crystallographic Data Centre
#                                CCDC 
#
#######################################################################
#
# If this CIF has been generated from an entry in the Cambridge 
# Structural Database, then it will include bibliographic, chemical, 
# crystal, experimental, refinement or atomic coordinate data resulting 
# from the CCDC's data processing and validation procedures.
#
#######################################################################

data_CIWSOQ
_chemical_compound_source        'Angelica glauca Edgew'
_chemical_formula_moiety         'C24 H28 O4'
_chemical_name_systematic        Angelicolide
_symmetry_cell_setting           monoclinic
_symmetry_space_group_name_H-M   'C 2/c'
_symmetry_Int_Tables_number      15
_space_group_name_Hall           '-C 2yn'
loop_
_symmetry_equiv_pos_site_id
_symmetry_equiv_pos_as_xyz
1 x,y,z
2 1/2+x,1/2+y,z
3 -x,y,1/2-z
4 1/2-x,1/2+y,1/2-z
5 -x,-y,-z
6 1/2-x,1/2-y,-z
7 x,-y,1/2+z
8 1/2+x,1/2-y,1/2+z
_cell_length_a                   25.275(4)
_cell_length_b                   11.288(2)
_cell_length_c                   16.846(3)
_cell_angle_alpha                90
_cell_angle_beta                 115.18(1)
_cell_angle_gamma                90
_cell_volume                     4349.53
_chemical_melting_point          157deg.C
_cell_formula_units_Z            8
loop_
_atom_site_label
_atom_site_type_symbol
_atom_site_fract_x
_atom_site_fract_y
_atom_site_fract_z
O1 O 0.0751(2) 0.1041(3) 0.2802(3)
C1 C 0.0863(3) 0.1313(7) 0.3654(5)
O2 O 0.0617(2) 0.0822(4) 0.4029(3)
C2 C 0.1302(3) 0.2257(7) 0.3938(5)
C3 C 0.1543(4) 0.2820(10) 0.4784(6)
C4 C 0.1868(4) 0.3747(11) 0.4882(6)
C5 C 0.1964(4) 0.4261(8) 0.4133(6)
C6 C 0.1909(3) 0.3424(6) 0.3418(5)
C7 C 0.1452(3) 0.2532(6) 0.3287(4)
C8 C 0.1116(3) 0.1758(5) 0.2520(4)
C9 C 0.0786(3) 0.2327(6) 0.1609(4)
C10 C 0.0599(4) 0.3667(6) 0.1552(6)
C11 C -0.0012(9) 0.3810(19) 0.0838(13)
C12 C -0.0262(15) 0.5068(21) 0.0863(17)
O3 O 0.2085(2) 0.0961(4) 0.2684(3)
C13 C 0.2255(4) -0.0220(8) 0.2769(5)
O4 O 0.2757(2) -0.0473(5) 0.3215(3)
C14 C 0.1739(4) -0.0918(7) 0.2267(5)
C15 C 0.1723(4) -0.2205(7) 0.2194(5)
C16 C 0.1198(4) -0.2673(7) 0.1793(5)
C17 C 0.0656(4) -0.1945(8) 0.1482(6)
C18 C 0.0690(3) -0.0673(6) 0.1309(5)
C19 C 0.1275(3) -0.0214(6) 0.1877(4)
C20 C 0.1478(3) 0.1047(6) 0.2127(4)
C21 C 0.1311(3) 0.2009(5) 0.1414(4)
C22 C 0.1193(3) 0.1696(7) 0.0447(4)
C23 C 0.1757(5) 0.1591(13) 0.0385(6)
C24 C 0.1701(7) 0.1598(15) -0.0554(8)
H1 H 0.1456(4) 0.2487(10) 0.5318(6)
H2 H 0.2074(4) 0.4163(11) 0.5518(6)
H3 H 0.2399(4) 0.4630(8) 0.4397(6)
H4 H 0.1648(4) 0.4960(8) 0.3846(6)
H5 H 0.2322(3) 0.2980(6) 0.3590(5)
H6 H 0.1795(3) 0.3918(6) 0.2818(5)
H7 H 0.0345(3) 0.2061(6) 0.1179(4)
H8 H 0.2115(4) -0.2737(7) 0.2452(5)
H9 H 0.1158(4) -0.3618(7) 0.1683(5)
H10 H 0.0492(4) -0.2008(8) 0.1978(6)
H11 H 0.0345(4) -0.2340(8) 0.0880(6)
H12 H 0.0608(3) -0.0554(6) 0.0630(5)
H13 H 0.0366(3) -0.0194(6) 0.1441(5)
H14 H 0.1632(3) 0.2659(5) 0.1442(4)
loop_
_geom_bond_atom_site_label_1
_geom_bond_atom_site_label_2
_geom_bond_site_symmetry_1
_geom_bond_site_symmetry_2
O1 C1 1_555 1_555
C1 O2 1_555 1_555
C2 C1 1_555 1_555
C3 C2 1_555 1_555
C4 C3 1_555 1_555
C5 C4 1_555 1_555
C6 C5 1_555 1_555
C7 C2 1_555 1_555
C8 O1 1_555 1_555
C9 C8 1_555 1_555
C10 C9 1_555 1_555
C11 C10 1_555 1_555
C12 C11 1_555 1_555
O3 C13 1_555 1_555
C13 O4 1_555 1_555
C14 C13 1_555 1_555
C15 C14 1_555 1_555
C16 C15 1_555 1_555
C17 C16 1_555 1_555
C18 C17 1_555 1_555
C19 C14 1_555 1_555
C20 C8 1_555 1_555
C21 C9 1_555 1_555
C22 C21 1_555 1_555
C23 C22 1_555 1_555
C24 C23 1_555 1_555
H1 C3 1_555 1_555
H2 C4 1_555 1_555
H3 C5 1_555 1_555
H4 C5 1_555 1_555
H5 C6 1_555 1_555
H6 C6 1_555 1_555
H7 C9 1_555 1_555
H8 C15 1_555 1_555
H9 C16 1_555 1_555
H10 C17 1_555 1_555
H11 C17 1_555 1_555
H12 C18 1_555 1_555
H13 C18 1_555 1_555
H14 C21 1_555 1_555
C6 C7 1_555 1_555
C7 C8 1_555 1_555
O3 C20 1_555 1_555
C18 C19 1_555 1_555
C19 C20 1_555 1_555
C20 C21 1_555 1_555

#END
