
#######################################################################
#
#                 Cambridge Crystallographic Data Centre
#                                CCDC 
#
#######################################################################
#
# If this CIF has been generated from an entry in the Cambridge 
# Structural Database, then it will include bibliographic, chemical, 
# crystal, experimental, refinement or atomic coordinate data resulting 
# from the CCDC's data processing and validation procedures.
#
#######################################################################

data_CIWSUY
_chemical_formula_moiety         'C18 H19 N3 O5,C3 H6 O1'
_chemical_name_systematic        
'(R)-3-t-Butyl-1-(4-nitrophenyl)-4-oxo-2,3-diazaspiro[4.4]nona-1,7-diene-7-carboxylic acid acetone solvate'
_symmetry_cell_setting           monoclinic
_symmetry_space_group_name_H-M   'C 2'
_symmetry_Int_Tables_number      5
_space_group_name_Hall           'C 2y'
loop_
_symmetry_equiv_pos_site_id
_symmetry_equiv_pos_as_xyz
1 x,y,z
2 -x,y,-z
3 1/2+x,1/2+y,z
4 1/2-x,1/2+y,-z
_cell_length_a                   18.721(3)
_cell_length_b                   6.4999(11)
_cell_length_c                   17.776(3)
_cell_angle_alpha                90
_cell_angle_beta                 108.679(5)
_cell_angle_gamma                90
_cell_volume                     2049.13
_exptl_crystal_colour            yellow
_exptl_crystal_description       'Thin Plate'
_cell_formula_units_Z            4
loop_
_atom_site_label
_atom_site_type_symbol
_atom_site_fract_x
_atom_site_fract_y
_atom_site_fract_z
O1 O 0.19295(9) 0.4989(4) 0.33433(9)
O2 O 0.50763(10) 0.6379(3) 0.41368(10)
H1 H 0.542(2) 0.721(6) 0.441(2)
O3 O 0.44255(10) 0.9269(3) 0.36570(10)
O4 O 0.43016(8) 0.4842(4) -0.07496(9)
O5 O 0.31924(8) 0.4967(4) -0.16311(8)
N1 N 0.13218(9) 0.4975(4) 0.19859(10)
N2 N 0.15231(9) 0.4963(4) 0.13015(9)
N3 N 0.36111(9) 0.4923(4) -0.09407(10)
C1 C 0.19338(11) 0.4988(5) 0.26614(12)
C2 C 0.26287(11) 0.5008(5) 0.23859(12)
C3 C 0.22526(11) 0.4996(5) 0.15032(11)
C4 C 0.31391(14) 0.3093(4) 0.27185(14)
H2 H 0.2910 0.2198 0.3030
H3 H 0.3219 0.2277 0.2282
C5 C 0.38646(14) 0.3996(4) 0.32362(14)
H4 H 0.4286 0.3192 0.3527
C6 C 0.38577(15) 0.6038(4) 0.32467(14)
C7 C 0.31257(13) 0.6934(4) 0.27316(14)
H5 H 0.3202 0.7783 0.2301
H6 H 0.2890 0.7793 0.3048
C8 C 0.44766(13) 0.7397(4) 0.36994(13)
C9 C 0.05141(11) 0.4853(5) 0.19449(12)
C10 C 0.03324(15) 0.6732(5) 0.23649(17)
H7 H 0.0669 0.6764 0.2916
H8 H -0.0192 0.6655 0.2359
H9 H 0.0404 0.7984 0.2090
C11 C 0.04073(16) 0.2857(5) 0.23514(18)
H10 H 0.0546 0.1684 0.2081
H11 H -0.0121 0.2729 0.2326
H12 H 0.0729 0.2879 0.2908
C12 C 0.00184(12) 0.4832(6) 0.10794(13)
H13 H 0.0098 0.6102 0.0820
H14 H -0.0512 0.4736 0.1051
H15 H 0.0150 0.3645 0.0810
C13 C 0.26168(11) 0.4996(5) 0.08859(11)
C14 C 0.34028(11) 0.4985(5) 0.10748(12)
H16 H 0.3712 0.4993 0.1615
C15 C 0.37344(11) 0.4962(5) 0.04758(12)
H17 H 0.4267 0.4945 0.0601
C16 C 0.32702(11) 0.4964(5) -0.03038(11)
C17 C 0.24881(11) 0.4986(4) -0.05095(11)
H18 H 0.2182 0.4994 -0.1051
C18 C 0.21666(10) 0.4998(4) 0.00863(11)
H19 H 0.1633 0.5008 -0.0046
O6 O 0.63171(10) -0.1748(3) 0.50057(11)
C19 C 0.65518(12) 0.0021(6) 0.50752(13)
C20 C 0.73737(15) 0.0437(5) 0.54817(16)
H20 H 0.7598 -0.0718 0.5832
H21 H 0.7431 0.1701 0.5796
H22 H 0.7629 0.0598 0.5082
C21 C 0.60475(16) 0.1806(5) 0.47511(17)
H23 H 0.5543 0.1306 0.4452
H24 H 0.6251 0.2607 0.4399
H25 H 0.6018 0.2678 0.5190
loop_
_geom_bond_atom_site_label_1
_geom_bond_atom_site_label_2
_geom_bond_site_symmetry_1
_geom_bond_site_symmetry_2
O1 C1 1_555 1_555
O2 H1 1_555 1_555
O3 C8 1_555 1_555
O4 N3 1_555 1_555
O5 N3 1_555 1_555
N1 N2 1_555 1_555
N2 C3 1_555 1_555
N3 C16 1_555 1_555
C1 N1 1_555 1_555
C2 C1 1_555 1_555
C3 C2 1_555 1_555
C4 C2 1_555 1_555
H2 C4 1_555 1_555
H3 C4 1_555 1_555
C5 C4 1_555 1_555
H4 C5 1_555 1_555
C6 C5 1_555 1_555
C7 C2 1_555 1_555
H5 C7 1_555 1_555
H6 C7 1_555 1_555
C8 O2 1_555 1_555
C9 N1 1_555 1_555
C10 C9 1_555 1_555
H7 C10 1_555 1_555
H8 C10 1_555 1_555
H9 C10 1_555 1_555
C11 C9 1_555 1_555
H10 C11 1_555 1_555
H11 C11 1_555 1_555
H12 C11 1_555 1_555
C12 C9 1_555 1_555
H13 C12 1_555 1_555
H14 C12 1_555 1_555
H15 C12 1_555 1_555
C13 C3 1_555 1_555
C14 C13 1_555 1_555
H16 C14 1_555 1_555
C15 C14 1_555 1_555
H17 C15 1_555 1_555
C16 C15 1_555 1_555
C17 C16 1_555 1_555
H18 C17 1_555 1_555
C18 C13 1_555 1_555
H19 C18 1_555 1_555
O6 C19 1_555 1_555
C19 C20 1_555 1_555
C20 H20 1_555 1_555
H21 C20 1_555 1_555
H22 C20 1_555 1_555
C21 C19 1_555 1_555
H23 C21 1_555 1_555
H24 C21 1_555 1_555
H25 C21 1_555 1_555
C6 C7 1_555 1_555
C6 C8 1_555 1_555
C17 C18 1_555 1_555

#END
