
#######################################################################
#
#                 Cambridge Crystallographic Data Centre
#                                CCDC 
#
#######################################################################
#
# If this CIF has been generated from an entry in the Cambridge 
# Structural Database, then it will include bibliographic, chemical, 
# crystal, experimental, refinement or atomic coordinate data resulting 
# from the CCDC's data processing and validation procedures.
#
#######################################################################

data_CIXBOC
_chemical_formula_moiety         'C6 H2 N3 O7 1-,C7 H6 Br1 N2 S1 1+'
_chemical_name_systematic        
'6-bromo-1,3-benzothiazol-2(3H)-iminium 2,4,6-trinitrophenolate'
_symmetry_cell_setting           monoclinic
_symmetry_space_group_name_H-M   'C 2/c'
_symmetry_Int_Tables_number      15
_space_group_name_Hall           '-C 2yn'
loop_
_symmetry_equiv_pos_site_id
_symmetry_equiv_pos_as_xyz
1 x,y,z
2 -x,y,1/2-z
3 1/2+x,1/2+y,z
4 1/2-x,1/2+y,1/2-z
5 -x,-y,-z
6 x,-y,1/2+z
7 1/2-x,1/2-y,-z
8 1/2+x,1/2-y,1/2+z
_cell_length_a                   18.2516(17)
_cell_length_b                   16.0985(15)
_cell_length_c                   13.9855(12)
_cell_angle_alpha                90
_cell_angle_beta                 127.222(2)
_cell_angle_gamma                90
_cell_volume                     3272.2
_exptl_crystal_colour            colorless
_exptl_crystal_description       BLOCK
_cell_formula_units_Z            8
loop_
_atom_site_label
_atom_site_type_symbol
_atom_site_fract_x
_atom_site_fract_y
_atom_site_fract_z
Br1 Br 0.16822(3) 0.61323(2) 0.22142(3)
N1 N 0.53195(19) 0.46827(15) 0.3891(2)
H1 H 0.5811 0.4940 0.4106
N2 N 0.5968(2) 0.33722(17) 0.4285(3)
H2 H 0.6485 0.3581 0.4514
H3 H 0.5909 0.2843 0.4293
S1 S 0.42043(7) 0.35185(6) 0.34576(9)
C1 C 0.5274(3) 0.38592(19) 0.3926(3)
C2 C 0.4506(2) 0.50921(19) 0.3478(3)
C3 C 0.3810(2) 0.45474(19) 0.3199(3)
C4 C 0.2953(2) 0.4833(2) 0.2799(3)
H4 H 0.2486 0.4471 0.2612
C5 C 0.2824(2) 0.5684(2) 0.2692(3)
C6 C 0.3501(2) 0.6233(2) 0.2943(3)
H5 H 0.3384 0.6801 0.2845
C7 C 0.4352(2) 0.5937(2) 0.3340(3)
H6 H 0.4813 0.6301 0.3512
N3 N 0.8669(2) 0.37829(17) 0.5404(3)
N4 N 1.0282(2) 0.63877(18) 0.6271(3)
N5 N 0.7246(2) 0.64638(18) 0.5304(3)
O1 O 0.71114(16) 0.47181(13) 0.4864(2)
O2 O 0.7949(2) 0.34006(15) 0.4765(3)
O3 O 0.94198(19) 0.34415(15) 0.5973(3)
O4 O 1.09090(18) 0.59954(15) 0.6410(3)
O5 O 1.02877(19) 0.71424(15) 0.6352(3)
O6 O 0.74674(18) 0.70628(15) 0.5964(2)
O7 O 0.6443(2) 0.62727(16) 0.4529(3)
C8 C 0.7835(2) 0.50884(19) 0.5214(3)
C9 C 0.8647(2) 0.46876(19) 0.5487(3)
C10 C 0.9437(2) 0.50977(19) 0.5848(3)
H7 H 0.9938 0.4804 0.6003
C11 C 0.9478(2) 0.59482(18) 0.5976(3)
C12 C 0.8757(2) 0.6390(2) 0.5803(3)
H8 H 0.8802 0.6961 0.5930
C13 C 0.7972(2) 0.59701(19) 0.5441(3)
loop_
_geom_bond_atom_site_label_1
_geom_bond_atom_site_label_2
_geom_bond_site_symmetry_1
_geom_bond_site_symmetry_2
Br1 C5 1_555 1_555
N1 H1 1_555 1_555
N2 H2 1_555 1_555
H3 N2 1_555 1_555
S1 C1 1_555 1_555
C1 N1 1_555 1_555
C2 N1 1_555 1_555
C3 S1 1_555 1_555
C4 C3 1_555 1_555
H4 C4 1_555 1_555
C5 C4 1_555 1_555
C6 C5 1_555 1_555
H5 C6 1_555 1_555
C7 C2 1_555 1_555
H6 C7 1_555 1_555
N3 O2 1_555 1_555
N4 O4 1_555 1_555
N5 O6 1_555 1_555
O1 C8 1_555 1_555
O3 N3 1_555 1_555
O5 N4 1_555 1_555
O7 N5 1_555 1_555
C8 C9 1_555 1_555
C9 N3 1_555 1_555
C10 C9 1_555 1_555
H7 C10 1_555 1_555
C11 N4 1_555 1_555
C12 C11 1_555 1_555
H8 C12 1_555 1_555
C13 N5 1_555 1_555
N2 C1 1_555 1_555
C2 C3 1_555 1_555
C6 C7 1_555 1_555
C8 C13 1_555 1_555
C10 C11 1_555 1_555
C12 C13 1_555 1_555

#END
