
#######################################################################
#
#                 Cambridge Crystallographic Data Centre
#                                CCDC 
#
#######################################################################
#
# If this CIF has been generated from an entry in the Cambridge 
# Structural Database, then it will include bibliographic, chemical, 
# crystal, experimental, refinement or atomic coordinate data resulting 
# from the CCDC's data processing and validation procedures.
#
#######################################################################

data_CIXJUP
_chemical_formula_moiety         'C18 H10 N2'
_chemical_name_systematic        trans-10b,10c-Dicyano-10b,10c-dihydropyrene
_symmetry_cell_setting           orthorhombic
_symmetry_space_group_name_H-M   'P b c a'
_symmetry_Int_Tables_number      61
_space_group_name_Hall           '-P 2ac 2ab'
loop_
_symmetry_equiv_pos_site_id
_symmetry_equiv_pos_as_xyz
1 x,y,z
2 1/2-x,-y,1/2+z
3 1/2+x,1/2-y,-z
4 -x,1/2+y,1/2-z
5 -x,-y,-z
6 1/2+x,y,1/2-z
7 1/2-x,1/2+y,z
8 x,1/2-y,1/2+z
_cell_length_a                   7.8663(12)
_cell_length_b                   11.7838(18)
_cell_length_c                   13.402(2)
_cell_angle_alpha                90
_cell_angle_beta                 90
_cell_angle_gamma                90
_cell_volume                     1242.3
_exptl_crystal_colour            green
_exptl_crystal_description       plate
_cell_formula_units_Z            4
_chemical_properties_physical    'light- and temperature-sensitive'
loop_
_atom_site_label
_atom_site_type_symbol
_atom_site_fract_x
_atom_site_fract_y
_atom_site_fract_z
C1 C -0.2339(2) 0.8555(2) 0.0356(1)
C2 C -0.0957(2) 0.8213(2) 0.0927(1)
C3 C 0.0552(2) 0.8839(2) 0.0976(1)
C4 C 0.1974(2) 0.8545(2) 0.1521(1)
C5 C 0.3439(3) 0.9215(2) 0.1510(1)
C6 C 0.3589(2) 1.0166(2) 0.0909(1)
C7 C -0.2266(2) 0.9459(2) -0.0314(1)
C8 C 0.0522(2) 1.0008(2) 0.0481(1)
C9 C -0.0381(2) 1.0795(2) 0.1199(1)
N1 N -0.0993(2) 1.1388(1) 0.1771(1)
H1 H -0.3381 0.8156 0.0426
H2 H -0.1040 0.7528 0.1297
H3 H 0.1956 0.7872 0.1911
H4 H 0.4365 0.9011 0.1928
H5 H 0.4632 1.0573 0.0905
C1D C 0.2339(2) 1.1445(2) -0.0356(1)
C2D C 0.0957(2) 1.1787(2) -0.0927(1)
C3D C -0.0552(2) 1.1161(2) -0.0976(1)
C4D C -0.1974(2) 1.1455(2) -0.1521(1)
C5D C -0.3439(3) 1.0785(2) -0.1510(1)
C6D C -0.3589(2) 0.9834(2) -0.0909(1)
C7D C 0.2266(2) 1.0541(2) 0.0314(1)
C8D C -0.0522(2) 0.9992(2) -0.0481(1)
C9D C 0.0381(2) 0.9205(2) -0.1199(1)
N1D N 0.0993(2) 0.8612(1) -0.1771(1)
H1D H 0.3381 1.1844 -0.0426
H2D H 0.1040 1.2472 -0.1297
H3D H -0.1956 1.2128 -0.1911
H4D H -0.4365 1.0989 -0.1928
H5D H -0.4632 0.9427 -0.0905
loop_
_geom_bond_atom_site_label_1
_geom_bond_atom_site_label_2
_geom_bond_site_symmetry_1
_geom_bond_site_symmetry_2
C1 C2 1_555 1_555
C2 C3 1_555 1_555
C3 C4 1_555 1_555
C4 C5 1_555 1_555
C5 C6 1_555 1_555
C6 H5 1_555 1_555
C7 C1 1_555 1_555
C8 C3 1_555 1_555
C9 C8 1_555 1_555
N1 C9 1_555 1_555
H1 C1 1_555 1_555
H2 C2 1_555 1_555
H3 C4 1_555 1_555
H4 C5 1_555 1_555
C1D C2D 1_555 1_555
C2D C3D 1_555 1_555
C3D C4D 1_555 1_555
C4D C5D 1_555 1_555
C5D C6D 1_555 1_555
C6D C7 1_555 1_555
C7D C6 1_555 1_555
C8D C7 1_555 1_555
C9D C8D 1_555 1_555
N1D C9D 1_555 1_555
H1D C1D 1_555 1_555
H2D C2D 1_555 1_555
H3D C4D 1_555 1_555
H4D C5D 1_555 1_555
H5D C6D 1_555 1_555
C8 C7D 1_555 1_555
C8 C8D 1_555 1_555
C1D C7D 1_555 1_555
C3D C8D 1_555 1_555

#END
