
#######################################################################
#
#                 Cambridge Crystallographic Data Centre
#                                CCDC 
#
#######################################################################
#
# If this CIF has been generated from an entry in the Cambridge 
# Structural Database, then it will include bibliographic, chemical, 
# crystal, experimental, refinement or atomic coordinate data resulting 
# from the CCDC's data processing and validation procedures.
#
#######################################################################

data_CIXKEA01
_chemical_formula_moiety         'C14 H10 O2'
_chemical_name_systematic        5-Methyl-9-hydroxyphenalen-1-one
_symmetry_cell_setting           monoclinic
_symmetry_space_group_name_H-M   'C 2/c'
_symmetry_Int_Tables_number      15
_space_group_name_Hall           '-C 2yn'
loop_
_symmetry_equiv_pos_site_id
_symmetry_equiv_pos_as_xyz
1 x,y,z
2 -x,y,1/2-z
3 1/2+x,1/2+y,z
4 1/2-x,1/2+y,1/2-z
5 -x,-y,-z
6 x,-y,1/2+z
7 1/2-x,1/2-y,-z
8 1/2+x,1/2-y,1/2+z
_cell_length_a                   12.205(3)
_cell_length_b                   11.165(3)
_cell_length_c                   7.315(3)
_cell_angle_alpha                90
_cell_angle_beta                 95.07(3)
_cell_angle_gamma                90
_cell_volume                     992.906
_cell_formula_units_Z            4
loop_
_atom_site_label
_atom_site_type_symbol
_atom_site_fract_x
_atom_site_fract_y
_atom_site_fract_z
O1 O 0.4014(4) 0.2183(4) 0.6885(7)
C1 C 0.4029(3) 0.3338(3) 0.6873(5)
C2 C 0.3066(3) 0.4003(4) 0.6215(6)
C3 C 0.3079(2) 0.5223(3) 0.6225(5)
C4 C 0.4039(2) 0.5885(3) 0.6861(4)
C5 C 0.4059(3) 0.7145(3) 0.6872(5)
C6 C 0.5000 0.7777(4) 0.7500
C7 C 0.5000 0.3977(3) 0.7500
C8 C 0.5000 0.5247(3) 0.7500
C9 C 0.5000 0.9117(5) 0.7500
H2 H 0.234(1) 0.350(1) 0.566(1)
H3 H 0.234(1) 0.572(1) 0.576(2)
H4 H 0.332(1) 0.762(1) 0.638(1)
O1A O 0.5986(4) 0.2183(4) 0.8115(7)
C1A C 0.5971(3) 0.3338(3) 0.8127(5)
C2A C 0.6934(3) 0.4003(4) 0.8785(6)
C3A C 0.6921(2) 0.5223(3) 0.8775(5)
C4A C 0.5961(2) 0.5885(3) 0.8139(4)
C5A C 0.5941(3) 0.7145(3) 0.8128(5)
H2A H 0.766(1) 0.350(1) 0.934(1)
H3A H 0.766(1) 0.572(1) 0.924(2)
H4A H 0.668(1) 0.762(1) 0.862(1)
H1? H 0.486(3) 0.193(1) 0.735(8)
H5? H 0.447(3) 0.948(2) 0.792(8)
H6? H 0.458(12) 0.963(6) 0.751(14)
H7? H 0.522(8) 0.949(3) 0.700(8)
loop_
_geom_bond_atom_site_label_1
_geom_bond_atom_site_label_2
_geom_bond_site_symmetry_1
_geom_bond_site_symmetry_2
O1 C1 1_555 1_555
C1 C2 1_555 1_555
C2 C3 1_555 1_555
C3 C4 1_555 1_555
C4 C5 1_555 1_555
C5 C6 1_555 1_555
C6 C9 1_555 1_555
C7 C1 1_555 1_555
C8 C4 1_555 1_555
H2 C2 1_555 1_555
H3 C3 1_555 1_555
H4 C5 1_555 1_555
O1A C1A 1_555 1_555
C1A C7 1_555 1_555
C2A C1A 1_555 1_555
C3A C2A 1_555 1_555
C4A C8 1_555 1_555
C5A C6 1_555 1_555
H2A C2A 1_555 1_555
H3A C3A 1_555 1_555
H4A C5A 1_555 1_555
C7 C8 1_555 1_555
C3A C4A 1_555 1_555
C4A C5A 1_555 1_555

#END
