
#######################################################################
#
#                 Cambridge Crystallographic Data Centre
#                                CCDC 
#
#######################################################################
#
# If this CIF has been generated from an entry in the Cambridge 
# Structural Database, then it will include bibliographic, chemical, 
# crystal, experimental, refinement or atomic coordinate data resulting 
# from the CCDC's data processing and validation procedures.
#
#######################################################################

data_CIXKEA03
_chemical_formula_moiety         'C14 H10 O2'
_chemical_name_systematic        5-Methyl-9-hydroxyphenalen-1-one
_symmetry_cell_setting           monoclinic
_symmetry_space_group_name_H-M   'P 21/c'
_symmetry_Int_Tables_number      14
_space_group_name_Hall           '-P 2ybc'
loop_
_symmetry_equiv_pos_site_id
_symmetry_equiv_pos_as_xyz
1 x,y,z
2 -x,1/2+y,1/2-z
3 -x,-y,-z
4 x,1/2-y,1/2+z
_cell_length_a                   11.868(3)
_cell_length_b                   22.184(6)
_cell_length_c                   7.254(3)
_cell_angle_alpha                90
_cell_angle_beta                 93.78(2)
_cell_angle_gamma                90
_cell_volume                     1905.68
_cell_formula_units_Z            8
loop_
_atom_site_label
_atom_site_type_symbol
_atom_site_fract_x
_atom_site_fract_y
_atom_site_fract_z
O1 O 0.4011(9) 0.3912(6) 0.1930(16)
O2 O 0.5977(9) 0.3910(6) 0.3169(16)
C1 C 0.4022(7) 0.3328(5) 0.1909(13)
C2 C 0.5959(7) 0.3323(5) 0.3204(13)
C3 C 0.3020(7) 0.3001(4) 0.1254(13)
C4 C 0.6959(7) 0.2989(4) 0.3881(15)
C5 C 0.3036(5) 0.2369(3) 0.1224(8)
C6 C 0.6929(5) 0.2369(3) 0.3858(8)
C7 C 0.4011(7) 0.2035(5) 0.1892(13)
C8 C 0.5946(7) 0.2035(5) 0.3210(13)
C9 C 0.4002(6) 0.1403(4) 0.1872(11)
C10 C 0.5945(7) 0.1402(4) 0.3189(11)
C11 C 0.4978(7) 0.1083(5) 0.2535(9)
C12 C 0.4989(7) 0.3001(5) 0.2577(13)
C13 C 0.4984(5) 0.2377(6) 0.2528(8)
C14 C 0.4967(10) 0.0408(6) 0.2497(21)
H2 H 0.508(4) 0.394(1) 0.265(5)
H3 H 0.230(2) 0.324(1) 0.075(3)
H4 H 0.767(2) 0.323(1) 0.434(3)
H5 H 0.228(1) 0.212(1) 0.071(2)
H6 H 0.768(1) 0.211(1) 0.435(1)
H7 H 0.323(1) 0.120(1) 0.139(3)
H8 H 0.672(1) 0.118(1) 0.367(3)
H9 H 0.420(3) 0.020(2) 0.230(10)
H12 H 0.556(7) 0.019(2) 0.198(24)
H13 H 0.463(6) 0.027(2) 0.384(9)
O3 O 0.9026(8) 0.6410(5) 0.1760(15)
O4 O 1.1038(7) 0.6413(9) 0.3057(14)
C15 C 0.9028(6) 0.5815(4) 0.1778(9)
C16 C 1.1016(6) 0.5823(4) 0.3101(10)
C17 C 0.8067(7) 0.5492(4) 0.1099(11)
C18 C 1.1972(7) 0.5490(4) 0.3821(11)
C19 C 0.8050(7) 0.4878(5) 0.1190(15)
C20 C 1.1967(7) 0.4881(5) 0.3837(15)
C21 C 0.9016(6) 0.4544(4) 0.1877(10)
C22 C 1.0984(7) 0.4542(5) 0.3189(11)
C23 C 0.9049(8) 0.3904(4) 0.1977(14)
C24 C 1.0931(8) 0.3911(4) 0.3236(14)
C25 C 0.9959(5) 0.3589(5) 0.2627(10)
C26 C 1.0019(5) 0.5500(4) 0.2471(7)
C27 C 1.0004(6) 0.4844(6) 0.2503(10)
C28 C 0.9956(6) 0.2905(5) 0.2765(13)
H16 H 1.019(4) 0.645(6) 0.252(9)
H17 H 0.733(1) 0.575(1) 0.049(3)
H18 H 1.273(1) 0.574(1) 0.445(3)
H19 H 0.730(2) 0.466(1) 0.079(4)
H20 H 1.270(2) 0.464(1) 0.428(4)
H21 H 0.829(2) 0.366(1) 0.144(3)
H22 H 1.167(2) 0.364(1) 0.379(3)
H23 H 0.928(2) 0.271(1) 0.192(4)
H24 H 0.988(2) 0.277(1) 0.420(2)
H25 H 1.070(1) 0.273(1) 0.219(3)
H1? H 0.495(4) 0.412(1) 0.257(5)
H10? H 0.583(3) 0.023(2) 0.297(5)
H11? H 0.443(7) 0.028(2) 0.114(14)
H14? H 0.480(6) 0.031(2) 0.155(9)
H15? H 0.986(3) 0.654(1) 0.227(3)
loop_
_geom_bond_atom_site_label_1
_geom_bond_atom_site_label_2
_geom_bond_site_symmetry_1
_geom_bond_site_symmetry_2
O1 C1 1_555 1_555
O2 C2 1_555 1_555
C1 C3 1_555 1_555
C2 C4 1_555 1_555
C3 C5 1_555 1_555
C4 C6 1_555 1_555
C5 C7 1_555 1_555
C6 C8 1_555 1_555
C7 C9 1_555 1_555
C8 C10 1_555 1_555
C9 C11 1_555 1_555
C10 C11 1_555 1_555
C11 C14 1_555 1_555
C12 C1 1_555 1_555
C13 C7 1_555 1_555
C14 H9 1_555 1_555
H2 O2 1_555 1_555
H3 C3 1_555 1_555
H4 C4 1_555 1_555
H5 C5 1_555 1_555
H6 C6 1_555 1_555
H7 C9 1_555 1_555
H8 C10 1_555 1_555
H12 C14 1_555 1_555
H13 C14 1_555 1_555
O3 C15 1_555 1_555
O4 C16 1_555 1_555
C15 C17 1_555 1_555
C16 C18 1_555 1_555
C17 C19 1_555 1_555
C18 C20 1_555 1_555
C19 C21 1_555 1_555
C20 C22 1_555 1_555
C21 C23 1_555 1_555
C22 C24 1_555 1_555
C23 C25 1_555 1_555
C24 C25 1_555 1_555
C25 C28 1_555 1_555
C26 C15 1_555 1_555
C27 C21 1_555 1_555
C28 H23 1_555 1_555
H16 O4 1_555 1_555
H17 C17 1_555 1_555
H18 C18 1_555 1_555
H19 C19 1_555 1_555
H20 C20 1_555 1_555
H21 C23 1_555 1_555
H22 C24 1_555 1_555
H24 C28 1_555 1_555
H25 C28 1_555 1_555
C2 C12 1_555 1_555
C8 C13 1_555 1_555
C12 C13 1_555 1_555
C16 C26 1_555 1_555
C22 C27 1_555 1_555
C26 C27 1_555 1_555

#END
