
#######################################################################
#
#                 Cambridge Crystallographic Data Centre
#                                CCDC 
#
#######################################################################
#
# If this CIF has been generated from an entry in the Cambridge 
# Structural Database, then it will include bibliographic, chemical, 
# crystal, experimental, refinement or atomic coordinate data resulting 
# from the CCDC's data processing and validation procedures.
#
#######################################################################

data_CIXLIG
_chemical_formula_moiety         'C18 H19 N4 O1 1+,C6 H2 N3 O7 1-'
_chemical_name_systematic        
'1-(2-(2-(1H-benzimidazol-1-yl)ethoxy)ethyl)-1H-benzimidazol-3-ium 2,4,6-trinitrophenolate'
_symmetry_cell_setting           monoclinic
_symmetry_space_group_name_H-M   'P 21/n'
_symmetry_Int_Tables_number      14
_space_group_name_Hall           '-P 2yn'
loop_
_symmetry_equiv_pos_site_id
_symmetry_equiv_pos_as_xyz
1 x,y,z
2 1/2-x,1/2+y,1/2-z
3 -x,-y,-z
4 1/2+x,1/2-y,1/2+z
_cell_length_a                   12.4949(11)
_cell_length_b                   8.2440(5)
_cell_length_c                   23.137(2)
_cell_angle_alpha                90
_cell_angle_beta                 96.8900(10)
_cell_angle_gamma                90
_cell_volume                     2366.08
_exptl_crystal_colour            colorless
_exptl_crystal_description       block
_cell_formula_units_Z            4
loop_
_atom_site_label
_atom_site_type_symbol
_atom_site_fract_x
_atom_site_fract_y
_atom_site_fract_z
N1 N 0.60439(14) 0.1081(2) 0.44569(8)
N2 N 0.75393(16) -0.0176(2) 0.47511(9)
H1 H 0.8109 -0.0758 0.4745
N3 N 0.59854(16) 0.6250(3) 0.27127(8)
N4 N 0.59950(19) 0.8849(3) 0.30039(10)
O1 O 0.60889(15) 0.3757(2) 0.35871(7)
C1 C 0.5235(2) 0.3448(3) 0.39164(11)
H2 H 0.4568 0.3820 0.3699
H3 H 0.5349 0.4072 0.4274
C2 C 0.51140(19) 0.1690(3) 0.40673(11)
H4 H 0.4465 0.1554 0.4254
H5 H 0.5033 0.1053 0.3712
C3 C 0.5868(2) 0.3380(3) 0.29829(11)
H6 H 0.5095 0.3380 0.2867
H7 H 0.6143 0.2309 0.2909
C4 C 0.6399(2) 0.4629(3) 0.26369(11)
H8 H 0.7170 0.4620 0.2757
H9 H 0.6282 0.4343 0.2228
C5 C 0.68276(19) 0.0154(3) 0.42984(11)
H10 H 0.6869 -0.0212 0.3921
C6 C 0.72177(18) 0.0566(3) 0.52362(10)
C7 C 0.62591(18) 0.1378(3) 0.50496(10)
C8 C 0.57161(19) 0.2259(3) 0.54334(11)
H11 H 0.5073 0.2793 0.5312
C9 C 0.6177(2) 0.2305(3) 0.60019(11)
H12 H 0.5838 0.2890 0.6272
C10 C 0.7143(2) 0.1496(4) 0.61868(12)
H13 H 0.7430 0.1560 0.6576
C11 C 0.7679(2) 0.0611(3) 0.58093(11)
H14 H 0.8319 0.0070 0.5933
C12 C 0.6528(2) 0.7479(4) 0.30061(11)
H15 H 0.7224 0.7360 0.3194
C13 C 0.5014(2) 0.8505(3) 0.26785(10)
C14 C 0.49934(19) 0.6884(3) 0.24967(9)
C15 C 0.4110(2) 0.6209(3) 0.21647(11)
H16 H 0.4101 0.5127 0.2050
C16 C 0.3244(2) 0.7219(4) 0.20131(12)
H17 H 0.2636 0.6812 0.1789
C17 C 0.3259(2) 0.8838(4) 0.21885(12)
H18 H 0.2659 0.9485 0.2080
C18 C 0.4137(2) 0.9496(4) 0.25171(11)
H19 H 0.4143 1.0580 0.2629
N5 N 0.09432(17) 0.7519(3) 0.60614(9)
N6 N 0.26873(16) 0.4247(3) 0.47142(11)
N7 N -0.04714(18) 0.7281(3) 0.39529(9)
O2 O -0.06600(13) 0.8318(2) 0.51371(7)
O3 O 0.0763(2) 0.8943(3) 0.61415(9)
O4 O 0.1141(2) 0.6540(4) 0.64530(9)
O5 O 0.33459(15) 0.3870(3) 0.51279(9)
O6 O 0.27273(16) 0.3726(3) 0.42213(10)
O7 O -0.01384(17) 0.7313(3) 0.34772(8)
O8 O -0.14144(15) 0.7585(3) 0.40182(8)
C19 C 0.01089(18) 0.7461(3) 0.50254(10)
C20 C 0.09587(18) 0.6941(3) 0.54661(10)
C21 C 0.17726(18) 0.5910(3) 0.53760(10)
H20 H 0.2274 0.5584 0.5684
C22 C 0.18392(17) 0.5353(3) 0.48131(10)
C23 C 0.11014(18) 0.5830(3) 0.43570(10)
H21 H 0.1163 0.5469 0.3982
C24 C 0.02728(17) 0.6841(3) 0.44576(10)
loop_
_geom_bond_atom_site_label_1
_geom_bond_atom_site_label_2
_geom_bond_site_symmetry_1
_geom_bond_site_symmetry_2
N1 C2 1_555 1_555
N2 H1 1_555 1_555
N3 C4 1_555 1_555
N4 C12 1_555 1_555
O1 C1 1_555 1_555
C1 H2 1_555 1_555
H3 C1 1_555 1_555
C2 C1 1_555 1_555
H4 C2 1_555 1_555
H5 C2 1_555 1_555
C3 O1 1_555 1_555
H6 C3 1_555 1_555
H7 C3 1_555 1_555
C4 C3 1_555 1_555
H8 C4 1_555 1_555
H9 C4 1_555 1_555
C5 N1 1_555 1_555
H10 C5 1_555 1_555
C6 N2 1_555 1_555
C7 N1 1_555 1_555
C8 C7 1_555 1_555
H11 C8 1_555 1_555
C9 C8 1_555 1_555
H12 C9 1_555 1_555
C10 C9 1_555 1_555
H13 C10 1_555 1_555
C11 C6 1_555 1_555
H14 C11 1_555 1_555
C12 N3 1_555 1_555
H15 C12 1_555 1_555
C13 N4 1_555 1_555
C14 N3 1_555 1_555
C15 C14 1_555 1_555
H16 C15 1_555 1_555
C16 C15 1_555 1_555
H17 C16 1_555 1_555
C17 C16 1_555 1_555
H18 C17 1_555 1_555
C18 C13 1_555 1_555
H19 C18 1_555 1_555
N5 O3 1_555 1_555
N6 O5 1_555 1_555
N7 O7 1_555 1_555
O2 C19 1_555 1_555
O4 N5 1_555 1_555
O6 N6 1_555 1_555
O8 N7 1_555 1_555
C19 C20 1_555 1_555
C20 N5 1_555 1_555
C21 C20 1_555 1_555
H20 C21 1_555 1_555
C22 N6 1_555 1_555
C23 C22 1_555 1_555
H21 C23 1_555 1_555
C24 N7 1_555 1_555
N2 C5 1_555 1_555
C6 C7 1_555 1_555
C10 C11 1_555 1_555
C13 C14 1_555 1_555
C17 C18 1_555 1_555
C19 C24 1_555 1_555
C21 C22 1_555 1_555
C23 C24 1_555 1_555

#END
