
#######################################################################
#
#                 Cambridge Crystallographic Data Centre
#                                CCDC 
#
#######################################################################
#
# If this CIF has been generated from an entry in the Cambridge 
# Structural Database, then it will include bibliographic, chemical, 
# crystal, experimental, refinement or atomic coordinate data resulting 
# from the CCDC's data processing and validation procedures.
#
#######################################################################

data_CIXMON
_chemical_formula_moiety         'C7 H3 N2 O6 1-,C7 H6 Br1 N2 S1 1+'
_chemical_name_systematic        
'2-amino-6-bromo-1,3-benzothiazol-3-ium 3,5-dinitrobenzoate'
_symmetry_cell_setting           monoclinic
_symmetry_space_group_name_H-M   'P 21/n'
_symmetry_Int_Tables_number      14
_space_group_name_Hall           '-P 2yn'
loop_
_symmetry_equiv_pos_site_id
_symmetry_equiv_pos_as_xyz
1 x,y,z
2 1/2-x,1/2+y,1/2-z
3 -x,-y,-z
4 1/2+x,1/2-y,1/2+z
_cell_length_a                   7.2172(5)
_cell_length_b                   7.5495(7)
_cell_length_c                   29.874(3)
_cell_angle_alpha                90
_cell_angle_beta                 93.7400(10)
_cell_angle_gamma                90
_cell_volume                     1624.26
_exptl_crystal_colour            colorless
_exptl_crystal_description       block
_cell_formula_units_Z            4
loop_
_atom_site_label
_atom_site_type_symbol
_atom_site_fract_x
_atom_site_fract_y
_atom_site_fract_z
Br1 Br 1.11954(9) 0.59316(10) 0.06007(2)
N1 N 0.4496(6) 0.3824(5) 0.15837(14)
H1 H 0.3518 0.3262 0.1484
N2 N 0.3590(8) 0.4104(6) 0.23139(17)
H2 H 0.2563 0.3552 0.2252
H3 H 0.3855 0.4492 0.2581
S1 S 0.6923(2) 0.54051(19) 0.21147(5)
C1 C 0.4764(8) 0.4357(6) 0.19977(19)
C2 C 0.5967(7) 0.4260(6) 0.13151(17)
C3 C 0.7434(7) 0.5111(6) 0.15558(18)
C4 C 0.9019(7) 0.5619(6) 0.13506(19)
H4 H 1.0007 0.6170 0.1511
C5 C 0.9064(7) 0.5267(7) 0.08961(19)
C6 C 0.7598(8) 0.4440(6) 0.06503(18)
H5 H 0.7673 0.4231 0.0345
C7 C 0.6028(8) 0.3928(6) 0.08614(18)
H6 H 0.5042 0.3376 0.0702
N3 N 1.0648(7) 0.4017(6) 0.32819(18)
N4 N 0.8160(8) 0.3836(7) 0.4771(2)
O1 O 0.3211(5) 0.6908(5) 0.37391(12)
O2 O 0.4279(5) 0.6724(5) 0.30543(13)
O3 O 1.0533(6) 0.4684(6) 0.29105(15)
O4 O 1.1917(6) 0.3055(6) 0.34199(16)
O5 O 0.9515(7) 0.2945(6) 0.48961(15)
O6 O 0.7016(8) 0.4352(10) 0.50156(17)
C8 C 0.4406(7) 0.6463(6) 0.34688(18)
C9 C 0.6127(7) 0.5538(6) 0.36718(18)
C10 C 0.7554(7) 0.5195(6) 0.33981(18)
H7 H 0.7439 0.5490 0.3095
C11 C 0.9159(7) 0.4404(6) 0.35822(19)
C12 C 0.9408(8) 0.3934(6) 0.4023(2)
H8 H 1.0493 0.3392 0.4139
C13 C 0.7948(8) 0.4310(6) 0.42901(18)
C14 C 0.6321(7) 0.5105(6) 0.41246(18)
H9 H 0.5374 0.5346 0.4312
loop_
_geom_bond_atom_site_label_1
_geom_bond_atom_site_label_2
_geom_bond_site_symmetry_1
_geom_bond_site_symmetry_2
Br1 C5 1_555 1_555
N1 H1 1_555 1_555
N2 H2 1_555 1_555
H3 N2 1_555 1_555
S1 C1 1_555 1_555
C1 N1 1_555 1_555
C2 N1 1_555 1_555
C3 S1 1_555 1_555
C4 C3 1_555 1_555
H4 C4 1_555 1_555
C5 C4 1_555 1_555
C6 C5 1_555 1_555
H5 C6 1_555 1_555
C7 C2 1_555 1_555
H6 C7 1_555 1_555
N3 O3 1_555 1_555
N4 O5 1_555 1_555
O1 C8 1_555 1_555
O2 C8 1_555 1_555
O4 N3 1_555 1_555
O6 N4 1_555 1_555
C8 C9 1_555 1_555
C9 C10 1_555 1_555
C10 H7 1_555 1_555
C11 N3 1_555 1_555
C12 C11 1_555 1_555
H8 C12 1_555 1_555
C13 N4 1_555 1_555
C14 C9 1_555 1_555
H9 C14 1_555 1_555
N2 C1 1_555 1_555
C2 C3 1_555 1_555
C6 C7 1_555 1_555
C10 C11 1_555 1_555
C12 C13 1_555 1_555
C13 C14 1_555 1_555

#END
