
#######################################################################
#
#                 Cambridge Crystallographic Data Centre
#                                CCDC 
#
#######################################################################
#
# If this CIF has been generated from an entry in the Cambridge 
# Structural Database, then it will include bibliographic, chemical, 
# crystal, experimental, refinement or atomic coordinate data resulting 
# from the CCDC's data processing and validation procedures.
#
#######################################################################

data_CIXMAZ
_chemical_formula_moiety         'C7 H3 N2 O7 1-,C7 H6 Br1 N2 S1 1+'
_chemical_name_systematic        
'6-bromo-1,3-benzothiazol-2(3H)-iminium 2-hydroxy-3,5-dinitrobenzoate'
_symmetry_cell_setting           monoclinic
_symmetry_space_group_name_H-M   'C 2/c'
_symmetry_Int_Tables_number      15
_space_group_name_Hall           '-C 2yn'
loop_
_symmetry_equiv_pos_site_id
_symmetry_equiv_pos_as_xyz
1 x,y,z
2 -x,y,1/2-z
3 1/2+x,1/2+y,z
4 1/2-x,1/2+y,1/2-z
5 -x,-y,-z
6 x,-y,1/2+z
7 1/2-x,1/2-y,-z
8 1/2+x,1/2-y,1/2+z
_cell_length_a                   24.151(2)
_cell_length_b                   14.1491(15)
_cell_length_c                   9.7260(10)
_cell_angle_alpha                90
_cell_angle_beta                 101.5800(10)
_cell_angle_gamma                90
_cell_volume                     3255.87
_exptl_crystal_colour            yellow
_exptl_crystal_description       block
_cell_formula_units_Z            8
loop_
_atom_site_label
_atom_site_type_symbol
_atom_site_fract_x
_atom_site_fract_y
_atom_site_fract_z
Br1 Br 0.27466(3) 0.16088(4) 0.35616(6)
N1 N 0.13039(18) 0.3898(3) -0.0990(5)
H1 H 0.1259 0.4501 -0.1036
N2 N 0.0677(2) 0.3584(4) -0.3054(5)
H2 H 0.0596 0.4173 -0.3191
H3 H 0.0517 0.3169 -0.3649
S1 S 0.12219(6) 0.21415(10) -0.16046(15)
C1 C 0.1039(2) 0.3323(4) -0.1954(6)
C2 C 0.1667(2) 0.3452(4) 0.0123(6)
C3 C 0.1675(2) 0.2479(4) -0.0032(6)
C4 C 0.1993(2) 0.1903(4) 0.0974(6)
H4 H 0.1997 0.1249 0.0881
C5 C 0.2305(2) 0.2364(4) 0.2127(6)
C6 C 0.2314(2) 0.3328(4) 0.2297(6)
H5 H 0.2532 0.3603 0.3093
C7 C 0.1994(2) 0.3880(4) 0.1272(6)
H6 H 0.1999 0.4535 0.1356
N3 N 0.0161(2) 0.1176(4) -0.0287(5)
N4 N 0.14147(19) 0.0622(4) 0.4206(5)
O1 O 0.11368(18) 0.4196(3) 0.3961(4)
O2 O 0.05992(18) 0.4429(3) 0.1845(5)
O3 O 0.02205(16) 0.3131(3) 0.0350(4)
H7 H 0.0264 0.3670 0.0665
O4 O -0.02744(18) 0.1560(3) -0.0848(5)
O5 O 0.03510(16) 0.0470(3) -0.0759(4)
O6 O 0.15454(18) -0.0140(3) 0.3761(5)
O7 O 0.15575(18) 0.0865(3) 0.5436(5)
C8 C 0.0854(2) 0.3901(4) 0.2860(7)
C9 C 0.0804(2) 0.2855(4) 0.2577(6)
C10 C 0.0482(2) 0.2533(4) 0.1286(6)
C11 C 0.0474(2) 0.1553(4) 0.1029(5)
C12 C 0.0783(2) 0.0928(4) 0.1970(6)
H8 H 0.0789 0.0287 0.1764
C13 C 0.1081(2) 0.1276(4) 0.3216(6)
C14 C 0.1093(2) 0.2225(4) 0.3543(6)
H9 H 0.1295 0.2438 0.4404
loop_
_geom_bond_atom_site_label_1
_geom_bond_atom_site_label_2
_geom_bond_site_symmetry_1
_geom_bond_site_symmetry_2
Br1 C5 1_555 1_555
N1 H1 1_555 1_555
N2 H2 1_555 1_555
H3 N2 1_555 1_555
S1 C1 1_555 1_555
C1 N1 1_555 1_555
C2 N1 1_555 1_555
C3 S1 1_555 1_555
C4 C3 1_555 1_555
H4 C4 1_555 1_555
C5 C4 1_555 1_555
C6 C5 1_555 1_555
H5 C6 1_555 1_555
C7 C2 1_555 1_555
H6 C7 1_555 1_555
N3 O4 1_555 1_555
N4 O6 1_555 1_555
O1 C8 1_555 1_555
O2 C8 1_555 1_555
O3 H7 1_555 1_555
O5 N3 1_555 1_555
O7 N4 1_555 1_555
C8 C9 1_555 1_555
C9 C10 1_555 1_555
C10 O3 1_555 1_555
C11 N3 1_555 1_555
C12 C11 1_555 1_555
H8 C12 1_555 1_555
C13 N4 1_555 1_555
C14 C9 1_555 1_555
H9 C14 1_555 1_555
N2 C1 1_555 1_555
C2 C3 1_555 1_555
C6 C7 1_555 1_555
C10 C11 1_555 1_555
C12 C13 1_555 1_555
C13 C14 1_555 1_555

#END
