
#######################################################################
#
#                 Cambridge Crystallographic Data Centre
#                                CCDC 
#
#######################################################################
#
# If this CIF has been generated from an entry in the Cambridge 
# Structural Database, then it will include bibliographic, chemical, 
# crystal, experimental, refinement or atomic coordinate data resulting 
# from the CCDC's data processing and validation procedures.
#
#######################################################################

data_CIXMED
_chemical_formula_moiety         'C7 H5 Br1 N2 S1,C7 H6 O3'
_chemical_name_systematic        
'2-hydroxybenzoic acid 6-bromo-1,3-benzothiazol-2-amine'
_symmetry_cell_setting           monoclinic
_symmetry_space_group_name_H-M   'C 2/c'
_symmetry_Int_Tables_number      15
_space_group_name_Hall           '-C 2yn'
loop_
_symmetry_equiv_pos_site_id
_symmetry_equiv_pos_as_xyz
1 x,y,z
2 -x,y,1/2-z
3 1/2+x,1/2+y,z
4 1/2-x,1/2+y,1/2-z
5 -x,-y,-z
6 x,-y,1/2+z
7 1/2-x,1/2-y,-z
8 1/2+x,1/2-y,1/2+z
_cell_length_a                   30.773(3)
_cell_length_b                   4.0102(3)
_cell_length_c                   25.039(2)
_cell_angle_alpha                90
_cell_angle_beta                 103.3620(10)
_cell_angle_gamma                90
_cell_volume                     3006.31
_exptl_crystal_colour            colorless
_exptl_crystal_description       block
_cell_formula_units_Z            8
loop_
_atom_site_label
_atom_site_type_symbol
_atom_site_fract_x
_atom_site_fract_y
_atom_site_fract_z
Br1 Br 0.207797(15) 0.01428(13) 0.40185(3)
S1 S 0.32741(3) -0.0915(3) 0.26077(4)
N1 N 0.38453(8) 0.2236(7) 0.33825(10)
N2 N 0.41247(11) 0.0800(8) 0.26204(12)
H1 H 0.4380 0.1678 0.2762
H2 H 0.4078 -0.0124 0.2302
C1 C 0.38016(12) 0.0874(9) 0.28942(15)
C2 C 0.34456(10) 0.1950(8) 0.35588(13)
C3 C 0.30982(11) 0.0292(8) 0.31951(14)
C4 C 0.26883(12) -0.0254(9) 0.33232(19)
H3 H 0.2459 -0.1366 0.3082
C5 C 0.26342(12) 0.0923(10) 0.3824(2)
C6 C 0.29714(12) 0.2588(9) 0.41900(16)
H4 H 0.2924 0.3352 0.4522
C7 C 0.33809(11) 0.3115(9) 0.40590(14)
H5 H 0.3609 0.4230 0.4302
O1 O -0.04222(7) 0.0075(6) 0.39587(9)
H6 H -0.0629 -0.0917 0.3755
O2 O -0.01130(8) -0.0569(7) 0.32371(10)
O3 O 0.06665(8) 0.1956(7) 0.32671(9)
H7 H 0.0434 0.0964 0.3133
C8 C -0.00942(11) 0.0430(9) 0.37135(15)
C9 C 0.03073(10) 0.2188(8) 0.40304(12)
C10 C 0.06675(12) 0.2870(9) 0.37932(13)
C11 C 0.10418(12) 0.4575(9) 0.40926(17)
H8 H 0.1276 0.5089 0.3929
C12 C 0.10654(11) 0.5488(9) 0.46247(16)
H9 H 0.1317 0.6596 0.4822
C13 C 0.07155(12) 0.4773(8) 0.48724(15)
H10 H 0.0734 0.5387 0.5235
C14 C 0.03417(10) 0.3150(9) 0.45781(13)
H11 H 0.0108 0.2683 0.4745
loop_
_geom_bond_atom_site_label_1
_geom_bond_atom_site_label_2
_geom_bond_site_symmetry_1
_geom_bond_site_symmetry_2
Br1 C5 1_555 1_555
S1 C1 1_555 1_555
N1 C1 1_555 1_555
N2 H1 1_555 1_555
H2 N2 1_555 1_555
C1 N2 1_555 1_555
C2 N1 1_555 1_555
C3 S1 1_555 1_555
C4 C3 1_555 1_555
H3 C4 1_555 1_555
C5 C4 1_555 1_555
C6 C5 1_555 1_555
H4 C6 1_555 1_555
C7 C2 1_555 1_555
H5 C7 1_555 1_555
O1 H6 1_555 1_555
O2 C8 1_555 1_555
O3 H7 1_555 1_555
C8 O1 1_555 1_555
C9 C8 1_555 1_555
C10 O3 1_555 1_555
C11 C10 1_555 1_555
H8 C11 1_555 1_555
C12 C11 1_555 1_555
H9 C12 1_555 1_555
C13 C12 1_555 1_555
H10 C13 1_555 1_555
C14 C9 1_555 1_555
H11 C14 1_555 1_555
C2 C3 1_555 1_555
C6 C7 1_555 1_555
C9 C10 1_555 1_555
C13 C14 1_555 1_555

#END
