
#######################################################################
#
#                 Cambridge Crystallographic Data Centre
#                                CCDC 
#
#######################################################################
#
# If this CIF has been generated from an entry in the Cambridge 
# Structural Database, then it will include bibliographic, chemical, 
# crystal, experimental, refinement or atomic coordinate data resulting 
# from the CCDC's data processing and validation procedures.
#
#######################################################################

data_CIXNUU
_chemical_formula_moiety         'C17 H18 N4 2+,2(C7 H4 N1 O4 1-)'
_chemical_name_systematic        
'3-(3-(1H-benzimidazol-3-ium-1-yl)propyl)-1H-3,1-benzimidazol-3-ium bis(4-nitrobenzoate)'
_symmetry_cell_setting           triclinic
_symmetry_space_group_name_H-M   'P -1'
_symmetry_Int_Tables_number      2
_space_group_name_Hall           '-P 1'
loop_
_symmetry_equiv_pos_site_id
_symmetry_equiv_pos_as_xyz
1 x,y,z
2 -x,-y,-z
_cell_length_a                   7.9904(6)
_cell_length_b                   13.8693(14)
_cell_length_c                   14.4985(16)
_cell_angle_alpha                65.8430(10)
_cell_angle_beta                 89.949(2)
_cell_angle_gamma                78.0180(10)
_cell_volume                     1427.72
_exptl_crystal_colour            colorless
_exptl_crystal_description       block
_cell_formula_units_Z            2
loop_
_atom_site_label
_atom_site_type_symbol
_atom_site_fract_x
_atom_site_fract_y
_atom_site_fract_z
N1 N 0.2931(8) 0.0819(5) 0.0466(4)
N2 N 0.1280(9) 0.1723(5) -0.0982(5)
H1 H 0.0662 0.2254 -0.1494
N3 N 0.3737(9) -0.0377(5) 0.4191(5)
N4 N 0.3315(10) -0.1400(7) 0.5774(6)
H2 H 0.3381 -0.1952 0.6346
C1 C 0.2139(10) 0.1774(6) -0.0228(6)
H3 H 0.2179 0.2424 -0.0193
C2 C 0.1596(10) 0.0639(6) -0.0765(5)
C3 C 0.2646(9) 0.0059(6) 0.0139(5)
C4 C 0.3185(11) -0.1068(6) 0.0575(6)
H4 H 0.3861 -0.1447 0.1191
C5 C 0.2650(11) -0.1585(6) 0.0037(6)
H5 H 0.2988 -0.2337 0.0291
C6 C 0.1606(11) -0.1007(7) -0.0890(6)
H6 H 0.1269 -0.1384 -0.1232
C7 C 0.1082(11) 0.0092(6) -0.1291(6)
H7 H 0.0395 0.0468 -0.1904
C8 C 0.4104(12) -0.1392(7) 0.4974(7)
H8 H 0.4820 -0.1998 0.4945
C9 C 0.2375(12) -0.0378(7) 0.5531(6)
C10 C 0.2621(11) 0.0280(7) 0.4545(6)
C11 C 0.1844(11) 0.1381(7) 0.4103(6)
H9 H 0.2001 0.1827 0.3441
C12 C 0.0846(13) 0.1772(8) 0.4686(7)
H10 H 0.0319 0.2506 0.4411
C13 C 0.0581(13) 0.1140(9) 0.5651(7)
H11 H -0.0116 0.1456 0.6014
C14 C 0.1286(12) 0.0090(9) 0.6089(7)
H12 H 0.1075 -0.0334 0.6747
C15 C 0.4015(10) 0.0601(6) 0.1370(5)
H13 H 0.4326 0.1266 0.1299
H14 H 0.5066 0.0078 0.1418
C16 C 0.3149(10) 0.0165(6) 0.2344(5)
H15 H 0.2825 -0.0501 0.2427
H16 H 0.2122 0.0691 0.2323
C17 C 0.4445(10) -0.0053(6) 0.3226(5)
H17 H 0.5426 -0.0618 0.3264
H18 H 0.4854 0.0600 0.3089
N5 N 0.6250(10) 0.6754(6) 0.2985(6)
O1 O 0.9584(8) 0.3412(4) 0.7443(4)
O2 O 0.8295(9) 0.2351(5) 0.7045(4)
O3 O 0.6156(10) 0.7677(5) 0.2900(5)
O4 O 0.5832(10) 0.6546(5) 0.2289(5)
C18 C 0.8659(12) 0.3224(7) 0.6844(6)
C19 C 0.8001(11) 0.4174(6) 0.5845(6)
C20 C 0.8186(11) 0.5205(6) 0.5670(6)
H19 H 0.8709 0.5327 0.6172
C21 C 0.7573(11) 0.6055(6) 0.4726(6)
H20 H 0.7640 0.6759 0.4601
C22 C 0.6868(11) 0.5845(6) 0.3983(6)
C23 C 0.6701(11) 0.4831(6) 0.4142(6)
H21 H 0.6202 0.4707 0.3634
C24 C 0.7300(11) 0.3986(6) 0.5090(6)
H22 H 0.7224 0.3285 0.5211
N6 N 0.9305(12) 0.3683(7) 1.1531(7)
O5 O 0.5608(14) 0.6355(7) 0.7020(7)
O6 O 0.4256(11) 0.7339(7) 0.7792(7)
O7 O 0.9154(13) 0.3920(7) 1.2255(6)
O8 O 1.0291(11) 0.2884(6) 1.1534(6)
C25 C 0.5291(16) 0.6539(9) 0.7775(10)
C26 C 0.6329(12) 0.5809(7) 0.8786(7)
C27 C 0.7470(12) 0.4870(7) 0.8864(7)
H23 H 0.7603 0.4716 0.8298
C28 C 0.8403(12) 0.4168(7) 0.9768(7)
H24 H 0.9142 0.3531 0.9820
C29 C 0.8242(12) 0.4410(7) 1.0587(7)
C30 C 0.7149(12) 0.5342(7) 1.0550(7)
H25 H 0.7073 0.5506 1.1112
C31 C 0.6161(12) 0.6031(7) 0.9628(7)
H26 H 0.5377 0.6649 0.9585
loop_
_geom_bond_atom_site_label_1
_geom_bond_atom_site_label_2
_geom_bond_site_symmetry_1
_geom_bond_site_symmetry_2
N1 C1 1_555 1_555
N2 H1 1_555 1_555
N3 C8 1_555 1_555
N4 H2 1_555 1_555
C1 N2 1_555 1_555
H3 C1 1_555 1_555
C2 N2 1_555 1_555
C3 N1 1_555 1_555
C4 C3 1_555 1_555
H4 C4 1_555 1_555
C5 C4 1_555 1_555
H5 C5 1_555 1_555
C6 C5 1_555 1_555
H6 C6 1_555 1_555
C7 C2 1_555 1_555
H7 C7 1_555 1_555
C8 N4 1_555 1_555
H8 C8 1_555 1_555
C9 N4 1_555 1_555
C10 N3 1_555 1_555
C11 C10 1_555 1_555
H9 C11 1_555 1_555
C12 C11 1_555 1_555
H10 C12 1_555 1_555
C13 C12 1_555 1_555
H11 C13 1_555 1_555
C14 C9 1_555 1_555
H12 C14 1_555 1_555
C15 N1 1_555 1_555
H13 C15 1_555 1_555
H14 C15 1_555 1_555
C16 C15 1_555 1_555
H15 C16 1_555 1_555
H16 C16 1_555 1_555
C17 N3 1_555 1_555
H17 C17 1_555 1_555
H18 C17 1_555 1_555
N5 O3 1_555 1_555
O1 C18 1_555 1_555
O2 C18 1_555 1_555
O4 N5 1_555 1_555
C18 C19 1_555 1_555
C19 C20 1_555 1_555
C20 H19 1_555 1_555
C21 C20 1_555 1_555
H20 C21 1_555 1_555
C22 N5 1_555 1_555
C23 C22 1_555 1_555
H21 C23 1_555 1_555
C24 C19 1_555 1_555
H22 C24 1_555 1_555
N6 O7 1_555 1_555
O5 C25 1_555 1_555
O6 C25 1_555 1_555
O8 N6 1_555 1_555
C25 C26 1_555 1_555
C26 C27 1_555 1_555
C27 H23 1_555 1_555
C28 C27 1_555 1_555
H24 C28 1_555 1_555
C29 N6 1_555 1_555
C30 C29 1_555 1_555
H25 C30 1_555 1_555
C31 C26 1_555 1_555
H26 C31 1_555 1_555
C2 C3 1_555 1_555
C6 C7 1_555 1_555
C9 C10 1_555 1_555
C13 C14 1_555 1_555
C16 C17 1_555 1_555
C21 C22 1_555 1_555
C23 C24 1_555 1_555
C28 C29 1_555 1_555
C30 C31 1_555 1_555

#END
