
#######################################################################
#
#                 Cambridge Crystallographic Data Centre
#                                CCDC 
#
#######################################################################
#
# If this CIF has been generated from an entry in the Cambridge 
# Structural Database, then it will include bibliographic, chemical, 
# crystal, experimental, refinement or atomic coordinate data resulting 
# from the CCDC's data processing and validation procedures.
#
#######################################################################

data_CIXPAC
_chemical_formula_moiety         
'C18 H20 N4 2+,2(C7 H5 O6 S1 1-),C1 H4 O1,2(H2 O1)'
_chemical_name_systematic        
"1,1'-butane-1,4-diylbis-1H-benzimidazol-3-ium bis(3-carboxy-4-hydroxybenzenesulfonate) methanol solvate dihydrate"
_symmetry_cell_setting           monoclinic
_symmetry_space_group_name_H-M   'C 2/c'
_symmetry_Int_Tables_number      15
_space_group_name_Hall           '-C 2yn'
loop_
_symmetry_equiv_pos_site_id
_symmetry_equiv_pos_as_xyz
1 x,y,z
2 -x,y,1/2-z
3 1/2+x,1/2+y,z
4 1/2-x,1/2+y,1/2-z
5 -x,-y,-z
6 x,-y,1/2+z
7 1/2-x,1/2-y,-z
8 1/2+x,1/2-y,1/2+z
_cell_length_a                   16.8978(17)
_cell_length_b                   15.7730(15)
_cell_length_c                   13.8372(11)
_cell_angle_alpha                90
_cell_angle_beta                 105.1880(10)
_cell_angle_gamma                90
_cell_volume                     3559.2
_exptl_crystal_colour            colorless
_exptl_crystal_description       block
_cell_formula_units_Z            4
loop_
_atom_site_label
_atom_site_type_symbol
_atom_site_fract_x
_atom_site_fract_y
_atom_site_fract_z
O1 O 0.93157(16) 0.42351(17) 0.9082(3)
H11 H 0.9425 0.3728 0.9089
O2 O 0.80487(16) 0.37381(17) 0.8837(2)
O3 O 0.68296(14) 0.48485(17) 0.8541(2)
H12 H 0.7028 0.4373 0.8549
O4 O 0.9026(4) 0.8197(3) 0.8527(6)
O5 O 0.9169(5) 0.7959(6) 1.0235(6)
O6 O 1.0083(3) 0.7242(3) 0.9425(7)
S1 S 0.93211(7) 0.75428(8) 0.93623(11)
C10 C 0.8518(2) 0.4333(3) 0.8929(3)
C11 C 0.8263(2) 0.5229(2) 0.8900(3)
C12 C 0.7433(2) 0.5429(2) 0.8720(3)
C13 C 0.7202(2) 0.6268(3) 0.8730(3)
H13 H 0.6650 0.6406 0.8612
C14 C 0.7776(2) 0.6895(3) 0.8913(3)
H14 H 0.7611 0.7458 0.8918
C15 C 0.8604(2) 0.6705(2) 0.9090(3)
C16 C 0.8837(2) 0.5876(2) 0.9078(3)
H15 H 0.9390 0.5744 0.9192
O7 O 0.62418(16) 0.69397(17) 0.3520(3)
H16 H 0.6105 0.6929 0.2884
H17 H 0.5867 0.7190 0.3718
N1 N 0.66165(17) 0.59136(19) 0.6107(2)
N2 N 0.76046(19) 0.6814(2) 0.6201(2)
H1 H 0.7859 0.7287 0.6212
C1 C 0.6805(2) 0.6728(3) 0.6083(3)
H2 H 0.6432 0.7173 0.5997
C2 C 0.7962(2) 0.6029(2) 0.6300(3)
C3 C 0.7334(2) 0.5444(2) 0.6238(3)
C4 C 0.7481(2) 0.4585(2) 0.6313(3)
H3 H 0.7061 0.4195 0.6272
C5 C 0.8276(2) 0.4337(3) 0.6451(3)
H4 H 0.8401 0.3762 0.6503
C6 C 0.8905(2) 0.4922(3) 0.6518(3)
H5 H 0.9439 0.4724 0.6616
C7 C 0.8768(2) 0.5770(3) 0.6445(3)
H6 H 0.9192 0.6157 0.6490
C8 C 0.5798(2) 0.5566(3) 0.6029(3)
H7 H 0.5445 0.6015 0.6155
H8 H 0.5836 0.5136 0.6540
C9 C 0.54194(19) 0.5184(2) 0.5022(3)
H9 H 0.5774 0.4741 0.4888
H10 H 0.5366 0.5616 0.4509
N1D N 0.33835(17) 0.40864(19) 0.3893(2)
N2D N 0.23954(19) 0.3186(2) 0.3799(2)
H1D H 0.2141 0.2713 0.3788
C1D C 0.3195(2) 0.3272(3) 0.3917(3)
H2D H 0.3568 0.2827 0.4003
C2D C 0.2038(2) 0.3971(2) 0.3700(3)
C3D C 0.2666(2) 0.4556(2) 0.3762(3)
C4D C 0.2519(2) 0.5415(2) 0.3687(3)
H3D H 0.2939 0.5805 0.3728
C5D C 0.1724(2) 0.5663(3) 0.3549(3)
H4D H 0.1599 0.6238 0.3497
C6D C 0.1095(2) 0.5078(3) 0.3482(3)
H5D H 0.0561 0.5276 0.3384
C7D C 0.1232(2) 0.4230(3) 0.3555(3)
H6D H 0.0808 0.3843 0.3510
C8D C 0.4202(2) 0.4434(3) 0.3971(3)
H7D H 0.4555 0.3985 0.3845
H8D H 0.4164 0.4864 0.3460
C9D C 0.45806(19) 0.4816(2) 0.4978(3)
H9D H 0.4226 0.5259 0.5112
H10D H 0.4634 0.4384 0.5491
O8? O 1.0051(8) 0.7203(6) 1.0186(11)
O9? O 0.9682(8) 0.7534(9) 0.8498(10)
O10? O 0.9042(9) 0.8201(8) 0.9622(14)
O11? O 0.0307(5) 0.7302(4) 0.1683(7)
H18? H -0.0020 0.7497 0.1187
C17? C 0.0000 0.7392(6) 0.2500
H19? H 0.0199 0.6940 0.2964
H20? H -0.0588 0.7374 0.2290
H21? H 0.0174 0.7926 0.2818
loop_
_geom_bond_atom_site_label_1
_geom_bond_atom_site_label_2
_geom_bond_site_symmetry_1
_geom_bond_site_symmetry_2
N1 C1 1_555 1_555
N2 H1 1_555 1_555
C1 N2 1_555 1_555
H2 C1 1_555 1_555
C2 N2 1_555 1_555
C3 N1 1_555 1_555
C4 C3 1_555 1_555
H3 C4 1_555 1_555
C5 C4 1_555 1_555
H4 C5 1_555 1_555
C6 C5 1_555 1_555
H5 C6 1_555 1_555
C7 C2 1_555 1_555
H6 C7 1_555 1_555
C8 N1 1_555 1_555
H7 C8 1_555 1_555
H8 C8 1_555 1_555
C9 C8 1_555 1_555
H9 C9 1_555 1_555
H10 C9 1_555 1_555
O1 H11 1_555 1_555
O2 C10 1_555 1_555
O3 H12 1_555 1_555
O4 S1 1_555 1_555
O5 S1 1_555 1_555
O6 S1 1_555 1_555
S1 C15 1_555 1_555
C10 O1 1_555 1_555
C11 C10 1_555 1_555
C12 O3 1_555 1_555
C13 C12 1_555 1_555
H13 C13 1_555 1_555
C14 C13 1_555 1_555
H14 C14 1_555 1_555
C15 C14 1_555 1_555
C16 C11 1_555 1_555
H15 C16 1_555 1_555
O7 H16 1_555 1_555
H17 O7 1_555 1_555
N1D C1D 1_555 1_555
N2D H1D 1_555 1_555
C1D N2D 1_555 1_555
H2D C1D 1_555 1_555
C2D N2D 1_555 1_555
C3D N1D 1_555 1_555
C4D C3D 1_555 1_555
H3D C4D 1_555 1_555
C5D C4D 1_555 1_555
H4D C5D 1_555 1_555
C6D C5D 1_555 1_555
H5D C6D 1_555 1_555
C7D C2D 1_555 1_555
H6D C7D 1_555 1_555
C8D N1D 1_555 1_555
H7D C8D 1_555 1_555
H8D C8D 1_555 1_555
C9D C9 1_555 1_555
H9D C9D 1_555 1_555
H10D C9D 1_555 1_555
C2 C3 1_555 1_555
C6 C7 1_555 1_555
C11 C12 1_555 1_555
C15 C16 1_555 1_555
C2D C3D 1_555 1_555
C6D C7D 1_555 1_555
C8D C9D 1_555 1_555

#END
