
#######################################################################
#
#                 Cambridge Crystallographic Data Centre
#                                CCDC 
#
#######################################################################
#
# If this CIF has been generated from an entry in the Cambridge 
# Structural Database, then it will include bibliographic, chemical, 
# crystal, experimental, refinement or atomic coordinate data resulting 
# from the CCDC's data processing and validation procedures.
#
#######################################################################

data_CIYBET
_chemical_formula_moiety         'C24 H23 N3 O4 S2'
_chemical_name_systematic        
4-Methyl-N-(2-methyl-6-(1-((4-methylphenyl)sulfonyl)-1H-pyrazol-3-yl)phenyl)benzenesulfonamide
_symmetry_cell_setting           monoclinic
_symmetry_space_group_name_H-M   'P 21/n'
_symmetry_Int_Tables_number      14
_space_group_name_Hall           '-P 2yn'
loop_
_symmetry_equiv_pos_site_id
_symmetry_equiv_pos_as_xyz
1 x,y,z
2 1/2-x,1/2+y,1/2-z
3 -x,-y,-z
4 1/2+x,1/2-y,1/2+z
_cell_length_a                   8.4100(3)
_cell_length_b                   28.0406(13)
_cell_length_c                   29.4632(14)
_cell_angle_alpha                90
_cell_angle_beta                 90.0100(15)
_cell_angle_gamma                90
_cell_volume                     6948.05
_exptl_crystal_colour            colorless
_exptl_crystal_description       lath
_cell_formula_units_Z            12
loop_
_atom_site_label
_atom_site_type_symbol
_atom_site_fract_x
_atom_site_fract_y
_atom_site_fract_z
S1 S 0.05601(9) 0.88083(3) 0.33670(3)
S2 S 0.52602(10) 0.99040(3) 0.23946(3)
O1 O -0.0282(2) 0.85930(8) 0.37351(7)
O2 O 0.6725(2) 0.97617(9) 0.21890(7)
O3 O -0.0174(2) 0.88583(8) 0.29295(7)
O4 O 0.4889(3) 1.03921(8) 0.24666(8)
N1 N 0.5294(3) 0.96352(10) 0.29058(8)
N2 N 0.4055(3) 0.97117(10) 0.32006(8)
N3 N 0.1002(3) 0.93601(10) 0.35219(8)
H1 H 0.143(3) 0.9498(9) 0.3289(6)
C1 C 0.4475(3) 0.94693(11) 0.35709(10)
C2 C 0.5958(4) 0.92401(12) 0.35152(11)
H2 H 0.6500 0.9049 0.3732
C3 C 0.6449(4) 0.93493(12) 0.30889(11)
H3 H 0.7404 0.9248 0.2946
C4 C 0.3648(4) 0.96229(13) 0.21315(10)
C5 C 0.2147(4) 0.98312(14) 0.21637(11)
H4 H 0.2020 1.0133 0.2306
C6 C 0.0849(4) 0.95949(15) 0.19874(12)
H5 H -0.0175 0.9736 0.2009
C7 C 0.1015(4) 0.91548(15) 0.17797(11)
C8 C 0.3854(4) 0.91874(13) 0.19165(10)
H6 H 0.4883 0.9050 0.1890
C9 C 0.2531(4) 0.89545(13) 0.17399(11)
H7 H 0.2659 0.8657 0.1591
C10 C -0.0418(5) 0.88902(16) 0.16005(14)
H8 H -0.1361 0.8982 0.1775
H9 H -0.0244 0.8546 0.1630
H10 H -0.0580 0.8971 0.1280
C11 C 0.2369(4) 0.85041(11) 0.32882(11)
C12 C 0.3073(4) 0.85139(12) 0.28641(11)
H11 H 0.2556 0.8668 0.2618
C13 C 0.4538(4) 0.82977(12) 0.28007(11)
H12 H 0.5010 0.8300 0.2508
C14 C 0.5334(4) 0.80763(12) 0.31607(12)
C15 C 0.4603(4) 0.80706(12) 0.35841(12)
H13 H 0.5124 0.7920 0.3832
C16 C 0.3122(4) 0.82812(12) 0.36516(11)
H14 H 0.2632 0.8273 0.3942
C17 C 0.6937(4) 0.78516(14) 0.30863(14)
H15 H 0.7770 0.8071 0.3188
H16 H 0.7079 0.7783 0.2763
H17 H 0.7005 0.7554 0.3260
C18 C 0.3443(4) 0.94793(11) 0.39801(10)
C19 C 0.4162(4) 0.95454(12) 0.43995(11)
H18 H 0.5288 0.9564 0.4420
C20 C 0.3237(4) 0.95853(12) 0.47901(11)
H19 H 0.3730 0.9628 0.5077
C21 C 0.1609(4) 0.95619(12) 0.47575(11)
H20 H 0.0990 0.9596 0.5025
C22 C 0.0834(4) 0.94897(11) 0.43432(10)
C23 C 0.1765(4) 0.94406(11) 0.39535(10)
C24 C -0.0958(4) 0.94768(12) 0.43247(11)
H21 H -0.1325 0.9640 0.4050
H22 H -0.1393 0.9637 0.4593
H23 H -0.1319 0.9145 0.4319
S3 S 0.06082(9) 0.06688(3) 0.00848(3)
S4 S 0.50140(10) 0.18514(3) 0.10470(3)
O5 O 0.0900(2) 0.07244(8) -0.03893(7)
O6 O -0.0796(2) 0.04354(8) 0.02446(7)
O7 O 0.6025(3) 0.14404(9) 0.10170(9)
O8 O 0.5568(3) 0.22822(9) 0.12506(8)
N4 N 0.0465(3) 0.12239(9) 0.03008(8)
N5 N 0.1618(3) 0.15517(10) 0.01937(8)
N6 N 0.4542(3) 0.19777(10) 0.05182(9)
H24 H 0.423(4) 0.1706(12) 0.0401(11)
C25 C 0.1099(4) 0.19552(11) 0.03832(10)
C26 C -0.0370(4) 0.18838(12) 0.06103(11)
H25 H -0.0971 0.2116 0.0771
C27 C -0.0742(4) 0.14177(12) 0.05513(11)
H26 H -0.1659 0.1257 0.0662
C28 C 0.3284(4) 0.16665(12) 0.13366(11)
C29 C 0.2428(4) 0.19882(13) 0.15996(11)
H27 H 0.2749 0.2312 0.1620
C30 C 0.1101(4) 0.18269(14) 0.18309(12)
H28 H 0.0518 0.2045 0.2014
C31 C 0.0598(4) 0.13601(14) 0.18042(12)
C32 C 0.1471(4) 0.10448(13) 0.15379(11)
H29 H 0.1140 0.0722 0.1514
C33 C 0.2817(4) 0.11945(12) 0.13065(11)
H30 H 0.3413 0.0975 0.1129
C34 C -0.0876(5) 0.11886(17) 0.20505(15)
H31 H -0.0940 0.1343 0.2348
H32 H -0.0820 0.0842 0.2091
H33 H -0.1821 0.1270 0.1872
C35 C 0.2156(4) 0.01098(12) 0.06998(10)
H34 H 0.1138 0.0000 0.0792
C36 C 0.2305(3) 0.04384(11) 0.03499(10)
C37 C 0.5023(4) 0.01098(12) 0.07840(11)
C38 C 0.3512(4) -0.00527(12) 0.09098(11)
H35 H 0.3422 -0.0281 0.1146
C39 C 0.6492(4) -0.00531(14) 0.10271(12)
H36 H 0.7354 -0.0098 0.0808
H37 H 0.6276 -0.0356 0.1182
H38 H 0.6805 0.0188 0.1251
C40 C 0.5146(4) 0.04327(12) 0.04266(11)
H39 H 0.6163 0.0541 0.0332
C41 C 0.3790(4) 0.05977(12) 0.02078(10)
H40 H 0.3876 0.0817 -0.0036
C42 C 0.2035(4) 0.23992(12) 0.03325(10)
C43 C 0.1249(4) 0.28126(12) 0.02042(11)
H41 H 0.0133 0.2806 0.0156
C44 C 0.2087(4) 0.32375(13) 0.01455(11)
H42 H 0.1544 0.3522 0.0062
C45 C 0.3716(4) 0.32404(13) 0.02096(11)
H43 H 0.4279 0.3531 0.0167
C46 C 0.4565(4) 0.28316(12) 0.03342(10)
C47 C 0.3694(4) 0.24101(12) 0.03993(10)
C48 C 0.6348(4) 0.28527(13) 0.03852(12)
H44 H 0.6761 0.3127 0.0217
H45 H 0.6819 0.2559 0.0265
H46 H 0.6621 0.2886 0.0707
S5 S 1.04198(9) 0.76635(3) 0.65773(3)
S6 S 0.62347(9) 0.89653(3) 0.56536(3)
N7 N 0.5987(3) 0.83934(10) 0.58179(9)
N8 N 0.7150(3) 0.80675(10) 0.57118(9)
N9 N 1.0013(3) 0.75939(10) 0.60329(9)
H47 H 0.965(4) 0.7871(12) 0.5923(11)
O9 O 1.1449(2) 0.80708(9) 0.65975(8)
O10 O 0.4848(2) 0.92000(8) 0.58260(8)
O11 O 0.6577(3) 0.89584(8) 0.51808(7)
O12 O 1.0932(3) 0.72119(9) 0.67471(7)
C49 C 0.6567(3) 0.76540(12) 0.58673(10)
C50 C 0.5063(4) 0.77173(13) 0.60707(11)
H48 H 0.4418 0.7478 0.6205
C51 C 0.4725(4) 0.81882(13) 0.60371(11)
H49 H 0.3796 0.8345 0.6144
C52 C 0.8630(4) 0.78154(12) 0.68537(10)
C53 C 0.8219(4) 0.82922(12) 0.68966(11)
H50 H 0.8894 0.8533 0.6778
C54 C 0.6823(4) 0.84137(12) 0.71136(11)
H51 H 0.6542 0.8741 0.7142
C55 C 0.5819(4) 0.80662(13) 0.72922(11)
C56 C 0.6259(4) 0.75908(13) 0.72467(11)
H52 H 0.5588 0.7350 0.7368
C57 C 0.7649(4) 0.74605(13) 0.70299(11)
H53 H 0.7932 0.7134 0.7001
C58 C 0.4301(4) 0.82095(15) 0.75301(12)
H54 H 0.4367 0.8545 0.7620
H55 H 0.4153 0.8011 0.7800
H56 H 0.3398 0.8165 0.7324
C59 C 0.7930(4) 0.91396(12) 0.59523(11)
C60 C 0.7787(4) 0.93658(11) 0.63678(11)
H57 H 0.6768 0.9443 0.6486
C61 C 0.9147(4) 0.94782(12) 0.66086(11)
H58 H 0.9055 0.9637 0.6892
C62 C 1.0653(4) 0.93624(12) 0.64437(12)
C63 C 1.0766(4) 0.91447(12) 0.60226(12)
H59 H 1.1785 0.9072 0.5902
C64 C 0.9424(4) 0.90307(12) 0.57743(11)
H60 H 0.9518 0.8880 0.5487
C65 C 1.2117(4) 0.94649(15) 0.67193(13)
H61 H 1.2526 0.9167 0.6848
H62 H 1.1851 0.9686 0.6965
H63 H 1.2930 0.9609 0.6524
C66 C 0.7473(4) 0.72084(12) 0.58075(10)
C67 C 0.6682(4) 0.67974(13) 0.56690(11)
H64 H 0.5570 0.6810 0.5614
C68 C 0.7481(4) 0.63716(13) 0.56105(11)
H65 H 0.6915 0.6093 0.5524
C69 C 0.9107(4) 0.63519(13) 0.56773(11)
H66 H 0.9648 0.6058 0.5633
C70 C 0.9972(4) 0.67551(13) 0.58093(10)
C71 C 0.9132(4) 0.71798(12) 0.58840(10)
C72 C 1.1746(4) 0.67281(13) 0.58557(12)
H67 H 1.2028 0.6698 0.6177
H68 H 1.2225 0.7019 0.5731
H69 H 1.2143 0.6450 0.5689
loop_
_geom_bond_atom_site_label_1
_geom_bond_atom_site_label_2
_geom_bond_site_symmetry_1
_geom_bond_site_symmetry_2
S1 O1 1_555 1_555
S2 O2 1_555 1_555
O3 S1 1_555 1_555
O4 S2 1_555 1_555
N1 S2 1_555 1_555
N2 N1 1_555 1_555
N3 S1 1_555 1_555
H1 N3 1_555 1_555
C1 N2 1_555 1_555
C2 C1 1_555 1_555
H2 C2 1_555 1_555
C3 N1 1_555 1_555
H3 C3 1_555 1_555
C4 S2 1_555 1_555
C5 C4 1_555 1_555
H4 C5 1_555 1_555
C6 C5 1_555 1_555
H5 C6 1_555 1_555
C7 C6 1_555 1_555
C8 C4 1_555 1_555
H6 C8 1_555 1_555
C9 C7 1_555 1_555
H7 C9 1_555 1_555
C10 C7 1_555 1_555
H8 C10 1_555 1_555
H9 C10 1_555 1_555
H10 C10 1_555 1_555
C11 S1 1_555 1_555
C12 C11 1_555 1_555
H11 C12 1_555 1_555
C13 C12 1_555 1_555
H12 C13 1_555 1_555
C14 C13 1_555 1_555
C15 C14 1_555 1_555
H13 C15 1_555 1_555
C16 C11 1_555 1_555
H14 C16 1_555 1_555
C17 C14 1_555 1_555
H15 C17 1_555 1_555
H16 C17 1_555 1_555
H17 C17 1_555 1_555
C18 C1 1_555 1_555
C19 C18 1_555 1_555
H18 C19 1_555 1_555
C20 C19 1_555 1_555
H19 C20 1_555 1_555
C21 C20 1_555 1_555
H20 C21 1_555 1_555
C22 C21 1_555 1_555
C23 N3 1_555 1_555
C24 C22 1_555 1_555
H21 C24 1_555 1_555
H22 C24 1_555 1_555
H23 C24 1_555 1_555
S3 O5 1_555 1_555
S4 O7 1_555 1_555
O6 S3 1_555 1_555
O8 S4 1_555 1_555
N4 S3 1_555 1_555
N5 N4 1_555 1_555
N6 S4 1_555 1_555
H24 N6 1_555 1_555
C25 N5 1_555 1_555
C26 C25 1_555 1_555
H25 C26 1_555 1_555
C27 N4 1_555 1_555
H26 C27 1_555 1_555
C28 S4 1_555 1_555
C29 C28 1_555 1_555
H27 C29 1_555 1_555
C30 C29 1_555 1_555
H28 C30 1_555 1_555
C31 C30 1_555 1_555
C32 C31 1_555 1_555
H29 C32 1_555 1_555
C33 C28 1_555 1_555
H30 C33 1_555 1_555
C34 C31 1_555 1_555
H31 C34 1_555 1_555
H32 C34 1_555 1_555
H33 C34 1_555 1_555
C35 H34 1_555 1_555
C36 S3 1_555 1_555
C37 C38 1_555 1_555
C38 C35 1_555 1_555
H35 C38 1_555 1_555
C39 C37 1_555 1_555
H36 C39 1_555 1_555
H37 C39 1_555 1_555
H38 C39 1_555 1_555
C40 C37 1_555 1_555
H39 C40 1_555 1_555
C41 C36 1_555 1_555
H40 C41 1_555 1_555
C42 C25 1_555 1_555
C43 C42 1_555 1_555
H41 C43 1_555 1_555
C44 C43 1_555 1_555
H42 C44 1_555 1_555
C45 C44 1_555 1_555
H43 C45 1_555 1_555
C46 C45 1_555 1_555
C47 N6 1_555 1_555
C48 C46 1_555 1_555
H44 C48 1_555 1_555
H45 C48 1_555 1_555
H46 C48 1_555 1_555
S5 N9 1_555 1_555
S6 N7 1_555 1_555
N7 N8 1_555 1_555
N8 C49 1_555 1_555
N9 H47 1_555 1_555
O9 S5 1_555 1_555
O10 S6 1_555 1_555
O11 S6 1_555 1_555
O12 S5 1_555 1_555
C49 C50 1_555 1_555
C50 H48 1_555 1_555
C51 N7 1_555 1_555
H49 C51 1_555 1_555
C52 S5 1_555 1_555
C53 C52 1_555 1_555
H50 C53 1_555 1_555
C54 C53 1_555 1_555
H51 C54 1_555 1_555
C55 C54 1_555 1_555
C56 C55 1_555 1_555
H52 C56 1_555 1_555
C57 C52 1_555 1_555
H53 C57 1_555 1_555
C58 C55 1_555 1_555
H54 C58 1_555 1_555
H55 C58 1_555 1_555
H56 C58 1_555 1_555
C59 S6 1_555 1_555
C60 C59 1_555 1_555
H57 C60 1_555 1_555
C61 C60 1_555 1_555
H58 C61 1_555 1_555
C62 C61 1_555 1_555
C63 C62 1_555 1_555
H59 C63 1_555 1_555
C64 C59 1_555 1_555
H60 C64 1_555 1_555
C65 C62 1_555 1_555
H61 C65 1_555 1_555
H62 C65 1_555 1_555
H63 C65 1_555 1_555
C66 C49 1_555 1_555
C67 C66 1_555 1_555
H64 C67 1_555 1_555
C68 C67 1_555 1_555
H65 C68 1_555 1_555
C69 C68 1_555 1_555
H66 C69 1_555 1_555
C70 C69 1_555 1_555
C71 N9 1_555 1_555
C72 C70 1_555 1_555
H67 C72 1_555 1_555
H68 C72 1_555 1_555
H69 C72 1_555 1_555
C2 C3 1_555 1_555
C8 C9 1_555 1_555
C15 C16 1_555 1_555
C18 C23 1_555 1_555
C22 C23 1_555 1_555
C26 C27 1_555 1_555
C32 C33 1_555 1_555
C35 C36 1_555 1_555
C40 C41 1_555 1_555
C42 C47 1_555 1_555
C46 C47 1_555 1_555
C50 C51 1_555 1_555
C56 C57 1_555 1_555
C63 C64 1_555 1_555
C66 C71 1_555 1_555
C70 C71 1_555 1_555

#END
