
#######################################################################
#
#                 Cambridge Crystallographic Data Centre
#                                CCDC 
#
#######################################################################
#
# If this CIF has been generated from an entry in the Cambridge 
# Structural Database, then it will include bibliographic, chemical, 
# crystal, experimental, refinement or atomic coordinate data resulting 
# from the CCDC's data processing and validation procedures.
#
#######################################################################

data_CIYFOG
_chemical_formula_moiety         '4(C18 H36 N2 O6 Rb1 1+),2(I5 1-),I8 2-'
_chemical_name_systematic        
'tetrakis((Cryptand-2,2,2)-rubidium) bis(pentaiodide) octaiodide'
_symmetry_cell_setting           monoclinic
_symmetry_space_group_name_H-M   'P 21/c'
_symmetry_Int_Tables_number      14
_space_group_name_Hall           '-P 2ybc'
loop_
_symmetry_equiv_pos_site_id
_symmetry_equiv_pos_as_xyz
1 x,y,z
2 -x,1/2+y,1/2-z
3 -x,-y,-z
4 x,1/2-y,1/2+z
_cell_length_a                   12.5011(11)
_cell_length_b                   25.552(2)
_cell_length_c                   23.134(3)
_cell_angle_alpha                90
_cell_angle_beta                 121.452(9)
_cell_angle_gamma                90
_cell_volume                     6303.94
_exptl_crystal_colour            black
_cell_formula_units_Z            2
_exptl_crystal_recrystallization_method dichloromethane/ethanol
loop_
_atom_site_label
_atom_site_type_symbol
_atom_site_fract_x
_atom_site_fract_y
_atom_site_fract_z
Rb1 Rb 0.66056(8) 0.11503(3) 0.17405(4)
N1 N 0.6955(7) -0.0007(3) 0.1657(3)
N2 N 0.6272(7) 0.2306(3) 0.1836(3)
C1 C 0.5900(10) -0.0198(3) 0.1003(5)
H1 H 0.5872 -0.0577 0.1022
H2 H 0.6065 -0.0109 0.0649
C2 C 0.4638(9) 0.0015(3) 0.0810(5)
H3 H 0.3981 -0.0184 0.0436
H4 H 0.4517 -0.0010 0.1191
O1 O 0.4586(5) 0.0546(2) 0.0619(3)
C3 C 0.3375(8) 0.0761(4) 0.0381(5)
H5 H 0.3141 0.0707 0.0716
H6 H 0.2761 0.0588 -0.0034
C4 C 0.3396(9) 0.1336(4) 0.0255(4)
H7 H 0.3726 0.1391 -0.0038
H8 H 0.2549 0.1474 0.0028
O2 O 0.4157(5) 0.1605(2) 0.0879(3)
C5 C 0.4144(8) 0.2152(3) 0.0785(4)
H9 H 0.3289 0.2281 0.0554
H10 H 0.4496 0.2233 0.0508
C6 C 0.4914(9) 0.2413(3) 0.1472(5)
H11 H 0.4789 0.2788 0.1411
H12 H 0.4595 0.2300 0.1754
C7 C 0.6937(10) -0.0277(4) 0.2220(5)
H13 H 0.7297 -0.0623 0.2275
H14 H 0.6073 -0.0321 0.2097
C8 C 0.7634(9) 0.0004(4) 0.2880(5)
H15 H 0.7701 -0.0217 0.3239
H16 H 0.8474 0.0087 0.2985
O3 O 0.6971(6) 0.0476(2) 0.2833(3)
C9 C 0.7492(10) 0.0710(4) 0.3472(4)
H17 H 0.8386 0.0760 0.3670
H18 H 0.7370 0.0485 0.3771
C10 C 0.6862(10) 0.1236(4) 0.3398(5)
H19 H 0.5965 0.1186 0.3186
H20 H 0.7175 0.1387 0.3843
O4 O 0.7098(6) 0.1583(2) 0.3003(3)
C11 C 0.6594(11) 0.2089(4) 0.2967(5)
H21 H 0.6954 0.2230 0.3421
H22 H 0.5694 0.2063 0.2766
C12 C 0.6868(10) 0.2450(4) 0.2554(4)
H23 H 0.6595 0.2799 0.2582
H24 H 0.7769 0.2462 0.2750
C13 C 0.8151(10) -0.0083(4) 0.1695(6)
H25 H 0.8184 -0.0441 0.1565
H26 H 0.8823 -0.0040 0.2163
C14 C 0.8395(11) 0.0268(4) 0.1275(6)
H27 H 0.9142 0.0154 0.1282
H28 H 0.7696 0.0256 0.0810
O5 O 0.8566(6) 0.0797(3) 0.1524(3)
C15 C 0.8784(12) 0.1156(5) 0.1123(6)
H29 H 0.8058 0.1165 0.0666
H30 H 0.9500 0.1041 0.1099
C16 C 0.9027(11) 0.1688(5) 0.1430(6)
H31 H 0.9695 0.1671 0.1902
H32 H 0.9286 0.1921 0.1195
O6 O 0.7927(6) 0.1878(3) 0.1380(3)
C17 C 0.8086(10) 0.2387(4) 0.1678(5)
H33 H 0.8465 0.2622 0.1507
H34 H 0.8639 0.2362 0.2166
C18 C 0.6855(9) 0.2596(4) 0.1515(5)
H35 H 0.6288 0.2589 0.1027
H36 H 0.6960 0.2959 0.1658
I1 I 0.32948(8) 0.39032(4) 0.05329(4)
I2 I 0.48351(6) 0.39569(2) 0.19600(3)
I3 I 0.65421(7) 0.39230(3) 0.34798(4)
I4 I 0.90260(9) 0.46777(3) 0.45347(4)
I1B I 1.67052(8) 0.60968(4) 0.94671(4)
I2B I 1.51649(6) 0.60431(2) 0.80400(3)
I3B I 1.34579(7) 0.60770(3) 0.65202(4)
I4B I 1.09740(9) 0.53223(3) 0.54653(4)
Rb2 Rb 0.32548(7) 0.16420(3) 0.34209(4)
N3 N 0.3389(9) 0.0478(3) 0.3539(4)
N4 N 0.3144(8) 0.2809(3) 0.3279(4)
C19 C 0.4709(13) 0.0325(4) 0.3949(7)
H37 H 0.5077 0.0351 0.3671
H38 H 0.4749 -0.0040 0.4076
C20 C 0.5478(11) 0.0634(5) 0.4570(6)
H39 H 0.5122 0.0611 0.4854
H40 H 0.6319 0.0490 0.4821
O7 O 0.5532(6) 0.1163(2) 0.4411(3)
C21 C 0.6232(9) 0.1478(5) 0.4993(5)
H41 H 0.7044 0.1318 0.5290
H42 H 0.5797 0.1503 0.5237
C22 C 0.6407(9) 0.2007(5) 0.4796(5)
H43 H 0.7010 0.2200 0.5197
H44 H 0.6734 0.1979 0.4499
O8 O 0.5261(6) 0.2276(3) 0.4465(3)
C23 C 0.5383(11) 0.2765(4) 0.4223(6)
H45 H 0.5624 0.2716 0.3891
H46 H 0.6027 0.2971 0.4595
C24 C 0.4158(14) 0.3041(4) 0.3910(8)
H47 H 0.3893 0.3050 0.4237
H48 H 0.4278 0.3399 0.3819
C25 C 0.2730(13) 0.0305(4) 0.3878(7)
H49 H 0.3251 0.0381 0.4358
H50 H 0.2618 -0.0072 0.3829
C26 C 0.1478(13) 0.0556(5) 0.3610(7)
H51 H 0.0963 0.0497 0.3125
H52 H 0.1061 0.0398 0.3821
O9 O 0.1618(6) 0.1106(3) 0.3744(4)
C27 C 0.0511(11) 0.1355(6) 0.3579(6)
H53 H 0.0140 0.1187 0.3809
H54 H -0.0080 0.1333 0.3095
C28 C 0.0799(10) 0.1929(5) 0.3796(6)
H55 H 0.0054 0.2101 0.3734
H56 H 0.1450 0.1951 0.4272
O10 O 0.1206(6) 0.2181(3) 0.3394(3)
C29 C 0.1530(12) 0.2710(4) 0.3603(6)
H57 H 0.2214 0.2720 0.4072
H58 H 0.0817 0.2889 0.3572
C30 C 0.1914(12) 0.2985(4) 0.3170(7)
H59 H 0.1273 0.2930 0.2698
H60 H 0.1958 0.3358 0.3259
C31 C 0.2776(15) 0.0236(5) 0.2859(7)
H61 H 0.1874 0.0252 0.2654
H62 H 0.3014 -0.0130 0.2905
C32 C 0.3126(17) 0.0504(6) 0.2389(7)
H63 H 0.4031 0.0515 0.2603
H64 H 0.2785 0.0308 0.1970
O11 O 0.2631(8) 0.1021(3) 0.2250(4)
C33 C 0.2812(13) 0.1269(6) 0.1765(6)
H65 H 0.2387 0.1072 0.1344
H66 H 0.3699 0.1278 0.1924
C34 C 0.2299(11) 0.1826(6) 0.1638(5)
H67 H 0.2329 0.1977 0.1262
H68 H 0.1431 0.1820 0.1519
O12 O 0.3008(6) 0.2130(3) 0.2217(3)
C35 C 0.2541(11) 0.2649(5) 0.2086(6)
H69 H 0.1665 0.2649 0.1953
H70 H 0.2604 0.2796 0.1719
C36 C 0.3282(13) 0.2967(4) 0.2706(7)
H71 H 0.4161 0.2943 0.2848
H72 H 0.3031 0.3330 0.2598
I5 I 0.95649(10) 0.30225(4) 0.47168(5)
I6 I 0.97979(6) 0.19839(3) 0.51576(3)
I7 I 0.98233(10) 0.08375(4) 0.55613(5)
I8 I 0.94231(6) 0.10333(3) 0.67750(3)
I9 I 0.89854(8) 0.11338(3) 0.78325(5)
loop_
_geom_bond_atom_site_label_1
_geom_bond_atom_site_label_2
_geom_bond_site_symmetry_1
_geom_bond_site_symmetry_2
Rb1 N1 1_555 1_555
I1 I2 1_555 1_555
I2 I3 1_555 1_555
I3 I4 1_555 1_555
I4 I4B 1_555 1_555
N1 C1 1_555 1_555
N2 Rb1 1_555 1_555
C1 H1 1_555 1_555
H2 C1 1_555 1_555
C2 C1 1_555 1_555
H3 C2 1_555 1_555
H4 C2 1_555 1_555
O1 Rb1 1_555 1_555
C3 O1 1_555 1_555
H5 C3 1_555 1_555
H6 C3 1_555 1_555
C4 C3 1_555 1_555
H7 C4 1_555 1_555
H8 C4 1_555 1_555
O2 Rb1 1_555 1_555
C5 O2 1_555 1_555
H9 C5 1_555 1_555
H10 C5 1_555 1_555
C6 N2 1_555 1_555
H11 C6 1_555 1_555
H12 C6 1_555 1_555
C7 N1 1_555 1_555
H13 C7 1_555 1_555
H14 C7 1_555 1_555
C8 C7 1_555 1_555
H15 C8 1_555 1_555
H16 C8 1_555 1_555
O3 Rb1 1_555 1_555
C9 O3 1_555 1_555
H17 C9 1_555 1_555
H18 C9 1_555 1_555
C10 C9 1_555 1_555
H19 C10 1_555 1_555
H20 C10 1_555 1_555
O4 Rb1 1_555 1_555
C11 O4 1_555 1_555
H21 C11 1_555 1_555
H22 C11 1_555 1_555
C12 N2 1_555 1_555
H23 C12 1_555 1_555
H24 C12 1_555 1_555
C13 N1 1_555 1_555
H25 C13 1_555 1_555
H26 C13 1_555 1_555
C14 C13 1_555 1_555
H27 C14 1_555 1_555
H28 C14 1_555 1_555
O5 Rb1 1_555 1_555
C15 O5 1_555 1_555
H29 C15 1_555 1_555
H30 C15 1_555 1_555
C16 C15 1_555 1_555
H31 C16 1_555 1_555
H32 C16 1_555 1_555
O6 Rb1 1_555 1_555
C17 O6 1_555 1_555
H33 C17 1_555 1_555
H34 C17 1_555 1_555
C18 N2 1_555 1_555
H35 C18 1_555 1_555
H36 C18 1_555 1_555
Rb2 N3 1_555 1_555
I5 I6 1_555 1_555
I6 I7 1_555 1_555
I7 I8 1_555 1_555
I8 I9 1_555 1_555
N3 C19 1_555 1_555
N4 Rb2 1_555 1_555
C19 H37 1_555 1_555
H38 C19 1_555 1_555
C20 C19 1_555 1_555
H39 C20 1_555 1_555
H40 C20 1_555 1_555
O7 Rb2 1_555 1_555
C21 O7 1_555 1_555
H41 C21 1_555 1_555
H42 C21 1_555 1_555
C22 C21 1_555 1_555
H43 C22 1_555 1_555
H44 C22 1_555 1_555
O8 Rb2 1_555 1_555
C23 O8 1_555 1_555
H45 C23 1_555 1_555
H46 C23 1_555 1_555
C24 N4 1_555 1_555
H47 C24 1_555 1_555
H48 C24 1_555 1_555
C25 N3 1_555 1_555
H49 C25 1_555 1_555
H50 C25 1_555 1_555
C26 C25 1_555 1_555
H51 C26 1_555 1_555
H52 C26 1_555 1_555
O9 Rb2 1_555 1_555
C27 O9 1_555 1_555
H53 C27 1_555 1_555
H54 C27 1_555 1_555
C28 C27 1_555 1_555
H55 C28 1_555 1_555
H56 C28 1_555 1_555
O10 Rb2 1_555 1_555
C29 O10 1_555 1_555
H57 C29 1_555 1_555
H58 C29 1_555 1_555
C30 N4 1_555 1_555
H59 C30 1_555 1_555
H60 C30 1_555 1_555
C31 N3 1_555 1_555
H61 C31 1_555 1_555
H62 C31 1_555 1_555
C32 C31 1_555 1_555
H63 C32 1_555 1_555
H64 C32 1_555 1_555
O11 Rb2 1_555 1_555
C33 O11 1_555 1_555
H65 C33 1_555 1_555
H66 C33 1_555 1_555
C34 C33 1_555 1_555
H67 C34 1_555 1_555
H68 C34 1_555 1_555
O12 Rb2 1_555 1_555
C35 O12 1_555 1_555
H69 C35 1_555 1_555
H70 C35 1_555 1_555
C36 N4 1_555 1_555
H71 C36 1_555 1_555
H72 C36 1_555 1_555
I1B I2B 1_555 1_555
I2B I3B 1_555 1_555
I3B I4B 1_555 1_555
C2 O1 1_555 1_555
C4 O2 1_555 1_555
C5 C6 1_555 1_555
C8 O3 1_555 1_555
C10 O4 1_555 1_555
C11 C12 1_555 1_555
C14 O5 1_555 1_555
C16 O6 1_555 1_555
C17 C18 1_555 1_555
C20 O7 1_555 1_555
C22 O8 1_555 1_555
C23 C24 1_555 1_555
C26 O9 1_555 1_555
C28 O10 1_555 1_555
C29 C30 1_555 1_555
C32 O11 1_555 1_555
C34 O12 1_555 1_555
C35 C36 1_555 1_555

#END
