
#######################################################################
#
#                 Cambridge Crystallographic Data Centre
#                                CCDC 
#
#######################################################################
#
# If this CIF has been generated from an entry in the Cambridge 
# Structural Database, then it will include bibliographic, chemical, 
# crystal, experimental, refinement or atomic coordinate data resulting 
# from the CCDC's data processing and validation procedures.
#
#######################################################################

data_CIYFOF
_chemical_formula_moiety         'C10 H8 S8 1+,C10 H8 S8,Br1 O4 1-'
_chemical_name_systematic        
'bis(bis(Ethylenedithio)-tetrathiafulvalene) perbromate'
_symmetry_cell_setting           triclinic
_symmetry_space_group_name_H-M   'P -1'
_symmetry_Int_Tables_number      2
_space_group_name_Hall           '-P 1'
loop_
_symmetry_equiv_pos_site_id
_symmetry_equiv_pos_as_xyz
1 x,y,z
2 -x,-y,-z
_cell_length_a                   7.795(2)
_cell_length_b                   12.613(4)
_cell_length_c                   17.148(5)
_cell_angle_alpha                72.97(2)
_cell_angle_beta                 80.44(2)
_cell_angle_gamma                88.74(2)
_cell_volume                     1589.01
_exptl_crystal_colour            black
_cell_formula_units_Z            2
loop_
_atom_site_label
_atom_site_type_symbol
_atom_site_fract_x
_atom_site_fract_y
_atom_site_fract_z
S1 S 0.0032(19) 0.7371(10) 0.1810(8)
S2 S 0.0414(19) 0.5278(11) 0.1388(8)
S3 S 0.1308(21) 0.8738(11) -0.0090(8)
S4 S 0.1709(20) 0.6669(11) -0.0543(8)
S5 S -0.0827(22) 0.6335(12) 0.3615(8)
S6 S -0.0179(26) 0.3844(12) 0.3099(9)
S7 S 0.2498(23) 1.0211(12) -0.1751(9)
S8 S 0.3029(23) 0.7747(12) -0.2312(9)
C1 C 0.0612(62) 0.6718(37) 0.1050(30)
C2 C 0.1149(64) 0.7298(38) 0.0233(30)
C3 C 0.2130(64) 0.8857(41) -0.1127(29)
C4 C 0.2323(66) 0.7893(40) -0.1337(29)
C5 C -0.0242(61) 0.6161(40) 0.2638(29)
C6 C -0.0019(64) 0.5196(40) 0.2436(29)
C7 C -0.1690(84) 0.4967(47) 0.4200(36)
C8 C -0.0456(92) 0.4054(52) 0.4095(36)
C9 C 0.3499(99) 1.0038(64) -0.2710(45)
C10 C 0.285(10) 0.9127(55) -0.2959(38)
S9 S 0.2329(19) 0.2340(10) 0.1909(8)
S10 S 0.2441(19) 0.0269(10) 0.1451(8)
S11 S 0.3578(20) 0.3726(11) -0.0001(8)
S12 S 0.3707(21) 0.1657(11) -0.0462(8)
S13 S 0.1629(22) 0.1249(11) 0.3712(8)
S14 S 0.1547(24) -0.1200(11) 0.3133(8)
S15 S 0.4914(21) 0.5162(11) -0.1666(8)
S16 S 0.5003(23) 0.2691(12) -0.2224(9)
C11 C 0.2742(62) 0.1701(36) 0.1134(28)
C12 C 0.3297(65) 0.2297(38) 0.0313(29)
C13 C 0.4348(63) 0.3828(40) -0.1034(28)
C14 C 0.4398(64) 0.2877(41) -0.1257(28)
C15 C 0.1905(60) 0.1101(39) 0.2718(27)
C16 C 0.1931(60) 0.0148(38) 0.2501(28)
C17 C 0.2157(84) -0.0148(44) 0.4269(32)
C18 C 0.1068(92) -0.1020(47) 0.4148(37)
C19 C 0.477(12) 0.4991(54) -0.2642(40)
C20 C 0.5661(98) 0.4045(55) -0.2864(39)
Br1 Br 0.4562(7) 0.2528(5) 0.4977(3)
O1 O 0.6020(59) 0.2332(39) 0.4276(27)
O2 O 0.3468(67) 0.3558(41) 0.4603(28)
O3 O 0.3353(65) 0.1452(40) 0.5365(26)
O4 O 0.5493(60) 0.2752(39) 0.5673(27)
loop_
_geom_bond_atom_site_label_1
_geom_bond_atom_site_label_2
_geom_bond_site_symmetry_1
_geom_bond_site_symmetry_2
S1 C1 1_555 1_555
S2 C1 1_555 1_555
S3 C2 1_555 1_555
S4 C2 1_555 1_555
S5 C5 1_555 1_555
S6 C6 1_555 1_555
S7 C3 1_555 1_555
S8 C4 1_555 1_555
C1 C2 1_555 1_555
C3 S3 1_555 1_555
C4 S4 1_555 1_555
C5 S1 1_555 1_555
C6 S2 1_555 1_555
C7 S5 1_555 1_555
C8 S6 1_555 1_555
C9 S7 1_555 1_555
C10 S8 1_555 1_555
S9 C11 1_555 1_555
S10 C11 1_555 1_555
S11 C12 1_555 1_555
S12 C12 1_555 1_555
S13 C15 1_555 1_555
S14 C16 1_555 1_555
S15 C13 1_555 1_555
S16 C14 1_555 1_555
C11 C12 1_555 1_555
C13 S11 1_555 1_555
C14 S12 1_555 1_555
C15 S9 1_555 1_555
C16 S10 1_555 1_555
C17 S13 1_555 1_555
C18 S14 1_555 1_555
C19 S15 1_555 1_555
C20 S16 1_555 1_555
Br1 O1 1_555 1_555
O2 Br1 1_555 1_555
O3 Br1 1_555 1_555
O4 Br1 1_555 1_555
C3 C4 1_555 1_555
C5 C6 1_555 1_555
C7 C8 1_555 1_555
C9 C10 1_555 1_555
C13 C14 1_555 1_555
C15 C16 1_555 1_555
C17 C18 1_555 1_555
C19 C20 1_555 1_555

#END
