
#######################################################################
#
#                 Cambridge Crystallographic Data Centre
#                                CCDC 
#
#######################################################################
#
# If this CIF has been generated from an entry in the Cambridge 
# Structural Database, then it will include bibliographic, chemical, 
# crystal, experimental, refinement or atomic coordinate data resulting 
# from the CCDC's data processing and validation procedures.
#
#######################################################################

data_CIYNUV
_chemical_formula_moiety         'C25 H20 N4 O2 S1'
_chemical_name_systematic        
N-(4-amino-5-cyano-3-phenylpyridin-2-yl)-4-methyl-N-phenylbenzenesulfonamide
_symmetry_cell_setting           monoclinic
_symmetry_space_group_name_H-M   'P 21/n'
_symmetry_Int_Tables_number      14
_space_group_name_Hall           '-P 2yn'
loop_
_symmetry_equiv_pos_site_id
_symmetry_equiv_pos_as_xyz
1 x,y,z
2 1/2-x,1/2+y,1/2-z
3 -x,-y,-z
4 1/2+x,1/2-y,1/2+z
_cell_length_a                   9.031(3)
_cell_length_b                   16.026(5)
_cell_length_c                   15.958(5)
_cell_angle_alpha                90
_cell_angle_beta                 98.402(6)
_cell_angle_gamma                90
_cell_volume                     2284.83
_cell_formula_units_Z            4
loop_
_atom_site_label
_atom_site_type_symbol
_atom_site_fract_x
_atom_site_fract_y
_atom_site_fract_z
S1 S 1.03200(9) 0.70820(5) 0.69858(5)
C1 C 0.6008(3) 0.63453(17) 0.67870(17)
N1 N 0.8826(3) 0.70930(16) 0.86221(15)
O1 O 1.0419(2) 0.73233(14) 0.61324(11)
C2 C 0.7839(3) 0.80652(18) 0.68035(17)
C3 C 0.7021(4) 0.62299(17) 0.91753(17)
N2 N 0.8620(2) 0.73377(14) 0.71565(13)
C4 C 0.8047(3) 0.69374(17) 0.78524(17)
C5 C 1.1617(3) 0.76863(19) 0.76554(16)
N3 N 0.5007(3) 0.55808(15) 0.82471(14)
H1 H 0.4704 0.5344 0.8674
H2 H 0.4537 0.5499 0.7745
C6 C 0.6769(3) 0.64590(16) 0.76719(16)
C7 C 0.6218(3) 0.60795(17) 0.83635(17)
C8 C 0.6737(4) 0.59654(17) 0.61818(18)
H3 H 0.7694 0.5749 0.6335
C9 C 0.7377(4) 0.8655(2) 0.7334(2)
H4 H 0.7645 0.8605 0.7917
O2 O 1.0517(2) 0.62253(13) 0.72406(14)
C10 C 1.2434(4) 0.7348(2) 0.83753(19)
H5 H 1.2266 0.6801 0.8532
C11 C 0.6601(4) 0.5843(2) 0.9917(2)
C12 C 0.4575(4) 0.6645(2) 0.65448(19)
H6 H 0.4071 0.6900 0.6944
C13 C 1.1870(4) 0.8498(2) 0.74328(19)
H7 H 1.1335 0.8729 0.6946
C14 C 1.3501(4) 0.7831(3) 0.88603(19)
H8 H 1.4059 0.7597 0.9339
C15 C 0.6044(5) 0.5907(2) 0.5351(2)
H9 H 0.6544 0.5659 0.4946
C16 C 0.8279(4) 0.67331(19) 0.92615(19)
H10 H 0.8777 0.6826 0.9806
C17 C 0.7474(4) 0.8160(2) 0.59383(19)
H11 H 0.7777 0.7762 0.5575
C18 C 0.4621(5) 0.6215(2) 0.5122(2)
H12 H 0.4165 0.6180 0.4561
C19 C 1.3763(4) 0.8643(3) 0.8657(2)
N4 N 0.6312(4) 0.55194(19) 1.05044(17)
C20 C 1.2933(4) 0.8967(2) 0.7944(2)
H13 H 1.3086 0.9519 0.7799
C21 C 0.6164(4) 0.9411(3) 0.6135(3)
H14 H 0.5587 0.9860 0.5907
C22 C 0.6667(5) 0.8838(3) 0.5614(3)
H15 H 0.6459 0.8908 0.5031
C23 C 0.3878(4) 0.6571(2) 0.5717(2)
H16 H 0.2904 0.6764 0.5566
C24 C 1.4931(5) 0.9154(3) 0.9205(2)
H17 H 1.5905 0.9017 0.9072
H18 H 1.4893 0.9033 0.9791
H19 H 1.4738 0.9736 0.9101
C25 C 0.6511(4) 0.9324(2) 0.6999(3)
H20 H 0.6166 0.9713 0.7357
loop_
_geom_bond_atom_site_label_1
_geom_bond_atom_site_label_2
_geom_bond_site_symmetry_1
_geom_bond_site_symmetry_2
S1 O1 1_555 1_555
C1 C6 1_555 1_555
N1 C4 1_555 1_555
C2 N2 1_555 1_555
C3 C7 1_555 1_555
N2 S1 1_555 1_555
C4 N2 1_555 1_555
C5 S1 1_555 1_555
N3 H1 1_555 1_555
H2 N3 1_555 1_555
C6 C4 1_555 1_555
C7 N3 1_555 1_555
C8 C1 1_555 1_555
H3 C8 1_555 1_555
C9 C2 1_555 1_555
H4 C9 1_555 1_555
O2 S1 1_555 1_555
C10 C5 1_555 1_555
H5 C10 1_555 1_555
C11 C3 1_555 1_555
C12 C1 1_555 1_555
H6 C12 1_555 1_555
C13 C5 1_555 1_555
H7 C13 1_555 1_555
C14 C10 1_555 1_555
H8 C14 1_555 1_555
C15 C8 1_555 1_555
H9 C15 1_555 1_555
C16 N1 1_555 1_555
H10 C16 1_555 1_555
C17 C2 1_555 1_555
H11 C17 1_555 1_555
C18 C15 1_555 1_555
H12 C18 1_555 1_555
C19 C14 1_555 1_555
N4 C11 1_555 1_555
C20 C13 1_555 1_555
H13 C20 1_555 1_555
C21 H14 1_555 1_555
C22 C17 1_555 1_555
H15 C22 1_555 1_555
C23 C12 1_555 1_555
H16 C23 1_555 1_555
C24 C19 1_555 1_555
H17 C24 1_555 1_555
H18 C24 1_555 1_555
H19 C24 1_555 1_555
C25 C9 1_555 1_555
H20 C25 1_555 1_555
C3 C16 1_555 1_555
C6 C7 1_555 1_555
C18 C23 1_555 1_555
C19 C20 1_555 1_555
C21 C22 1_555 1_555
C21 C25 1_555 1_555

#END
