
#######################################################################
#
#                 Cambridge Crystallographic Data Centre
#                                CCDC 
#
#######################################################################
#
# If this CIF has been generated from an entry in the Cambridge 
# Structural Database, then it will include bibliographic, chemical, 
# crystal, experimental, refinement or atomic coordinate data resulting 
# from the CCDC's data processing and validation procedures.
#
#######################################################################

data_CIYNOP
_chemical_name_common            
'4-amino-1,5-diphenyl-6-(tosylimino)-1,6-dihydropyridine-3-carboxamide ethanol solvate'
_chemical_formula_moiety         'C25 H22 N4 O3 S1,0.25(C2 H6 O1)'
_chemical_name_systematic        
'4-amino-6-(((4-methylphenyl)sulfonyl)imino)-1,5-diphenyl-1,6-dihydropyridine-3-carboxamide ethanol solvate'
_symmetry_cell_setting           triclinic
_symmetry_space_group_name_H-M   'P -1'
_symmetry_Int_Tables_number      2
_space_group_name_Hall           '-P 1'
loop_
_symmetry_equiv_pos_site_id
_symmetry_equiv_pos_as_xyz
1 x,y,z
2 -x,-y,-z
_cell_length_a                   11.546(3)
_cell_length_b                   13.445(3)
_cell_length_c                   17.259(4)
_cell_angle_alpha                96.731(4)
_cell_angle_beta                 99.473(4)
_cell_angle_gamma                113.714(4)
_cell_volume                     2369.13
_cell_formula_units_Z            4
loop_
_atom_site_label
_atom_site_type_symbol
_atom_site_fract_x
_atom_site_fract_y
_atom_site_fract_z
S1 S 0.33291(7) 0.92660(5) 0.14052(4)
O1 O 0.43817(19) 0.90032(17) 0.12684(12)
O2 O 0.3324(2) 1.02437(18) 0.11460(14)
O3 O 0.6801(2) 0.93307(19) 0.55183(14)
N1 N 0.3329(2) 0.82840(18) 0.32588(13)
N2 N 0.5558(3) 0.7506(2) 0.50280(15)
H1 H 0.5922 0.7321 0.5427
H2 H 0.4950 0.7001 0.4651
N3 N 0.7071(3) 1.0539(2) 0.43501(17)
H3 H 0.7451 1.1122 0.4163
H4 H 0.7465 1.0436 0.4780
N4 N 0.3144(2) 0.9275(2) 0.22715(13)
C1 C 0.5934(3) 0.8568(3) 0.49952(17)
C2 C 0.5241(3) 0.8814(2) 0.42819(16)
C3 C 0.4000(3) 0.8116(2) 0.39171(16)
H5 H 0.3582 0.7493 0.4124
C4 C 0.3920(3) 0.9182(2) 0.29032(15)
C5 C 0.5198(3) 0.9937(2) 0.32714(15)
C6 C 0.5862(3) 0.9791(2) 0.39715(17)
C7 C 0.7159(4) 1.2002(4) 0.2133(2)
H6 H 0.7724 1.2055 0.1797
C8 C 0.5811(3) 1.0964(2) 0.29442(17)
C9 C 0.6022(5) 1.2781(3) 0.2821(3)
H7 H 0.5813 1.3369 0.2952
C10 C 0.6652(3) 1.1051(3) 0.2449(2)
H8 H 0.6882 1.0473 0.2324
C11 C 0.5513(4) 1.1845(3) 0.3136(2)
H9 H 0.4963 1.1806 0.3481
C12 C 0.6837(5) 1.2849(4) 0.2313(3)
H10 H 0.7167 1.3477 0.2092
C13 C 0.1855(4) 0.7340(3) 0.0287(2)
H11 H 0.2636 0.7350 0.0205
C14 C -0.0470(4) 0.7266(4) 0.0507(2)
H12 H -0.1251 0.7255 0.0588
C15 C 0.1858(3) 0.8162(2) 0.08330(16)
C16 C -0.0489(4) 0.6438(3) -0.0039(3)
C17 C 0.0687(3) 0.8121(3) 0.0941(2)
H13 H 0.0676 0.8676 0.1312
C18 C -0.1765(4) 0.5489(4) -0.0523(3)
H14 H -0.1945 0.4851 -0.0280
H15 H -0.1692 0.5306 -0.1062
H16 H -0.2458 0.5711 -0.0531
C19 C 0.0676(4) 0.6485(3) -0.0147(3)
H17 H 0.0682 0.5930 -0.0520
C20 C 0.1980(3) 0.7504(2) 0.29250(16)
C21 C -0.0253(4) 0.7120(4) 0.2693(3)
H18 H -0.0905 0.7353 0.2720
C22 C 0.1026(3) 0.7862(3) 0.2976(2)
H19 H 0.1247 0.8596 0.3200
C23 C 0.0381(5) 0.5685(3) 0.2334(3)
H20 H 0.0152 0.4944 0.2122
C24 C 0.1686(3) 0.6426(3) 0.2610(2)
H21 H 0.2339 0.6195 0.2581
C25 C -0.0575(4) 0.6044(5) 0.2372(3)
H22 H -0.1445 0.5548 0.2177
S2 S 0.33282(7) 0.44732(6) 0.35769(4)
O4 O 0.4266(2) 0.4112(2) 0.39402(13)
O5 O 0.3782(2) 0.56613(16) 0.37132(13)
O6 O 0.5338(3) 0.32812(19) -0.02066(15)
N5 N 0.2654(2) 0.26251(18) 0.16481(13)
N6 N 0.2684(2) 0.3871(2) 0.26847(13)
N7 N 0.4390(3) 0.1544(2) -0.00158(15)
H23 H 0.4663 0.1294 -0.0394
H24 H 0.3929 0.1099 0.0249
N8 N 0.5892(3) 0.4859(2) 0.10694(16)
H25 H 0.6291 0.5528 0.1342
H26 H 0.6156 0.4662 0.0666
C26 C 0.3302(3) 0.3686(2) 0.21301(15)
C27 C 0.4419(3) 0.4439(2) 0.19361(15)
C28 C 0.4853(3) 0.4118(2) 0.12751(16)
C29 C 0.4197(3) 0.3007(2) 0.08298(15)
C30 C 0.3106(3) 0.2313(2) 0.10302(16)
H27 H 0.2649 0.1593 0.0730
C31 C 0.1492(3) 0.1786(2) 0.18023(18)
C32 C -0.0685(6) 0.0093(4) 0.2008(5)
H28 H -0.1422 -0.0479 0.2081
C33 C 0.0485(7) 0.0415(4) 0.2529(4)
H29 H 0.0536 0.0056 0.2953
C34 C 0.1602(4) 0.1271(3) 0.2437(2)
H30 H 0.2399 0.1490 0.2793
C35 C -0.0776(5) 0.0602(4) 0.1386(4)
H31 H -0.1573 0.0376 0.1028
C36 C 0.0317(4) 0.1458(3) 0.1285(3)
H32 H 0.0253 0.1814 0.0860
C37 C 0.1984(3) 0.4016(2) 0.40314(15)
C38 C 0.0713(3) 0.3505(2) 0.36037(17)
H33 H 0.0518 0.3285 0.3049
C39 C -0.0279(3) 0.3317(3) 0.40054(18)
H34 H -0.1138 0.2983 0.3712
C40 C 0.2274(3) 0.4314(3) 0.48617(17)
H35 H 0.3134 0.4653 0.5155
C41 C -0.0021(3) 0.3615(2) 0.48296(17)
C42 C 0.1267(3) 0.4099(3) 0.52456(17)
H36 H 0.1460 0.4286 0.5803
C43 C -0.1104(3) 0.3418(3) 0.5258(2)
H37 H -0.1256 0.2776 0.5490
H38 H -0.1882 0.3301 0.4882
H39 H -0.0866 0.4053 0.5673
C44 C 0.5156(3) 0.5621(2) 0.23626(15)
C45 C 0.6174(3) 0.5934(2) 0.30273(17)
H40 H 0.6348 0.5393 0.3244
C46 C 0.4913(3) 0.6442(2) 0.20507(17)
H41 H 0.4227 0.6246 0.1608
C47 C 0.5685(3) 0.7552(2) 0.23942(19)
H42 H 0.5518 0.8097 0.2180
C48 C 0.6933(3) 0.7042(3) 0.33707(19)
H43 H 0.7608 0.7241 0.3820
C49 C 0.6698(3) 0.7850(3) 0.3052(2)
H44 H 0.7221 0.8595 0.3280
C50 C 0.4681(3) 0.2617(2) 0.01586(17)
O7 O 1.0087(8) 1.0852(6) 0.5789(5)
C51 C 1.0079(8) 1.0382(12) 0.5168(6)
C52A C 1.0356(8) 1.0875(7) 0.4604(6)
H45A H 0.9622 1.0978 0.4345
H46A H 1.1085 1.1585 0.4812
H47A H 1.0575 1.0441 0.4223
C52 C 0.9644(8) 0.9125(7) 0.5396(6)
H45 H 1.0378 0.9022 0.5655
H46 H 0.8915 0.8415 0.5188
H47 H 0.9425 0.9559 0.5777
O7A O 0.9913(8) 0.9148(6) 0.4211(5)
C51A C 0.9921(8) 0.9618(12) 0.4832(6)
loop_
_geom_bond_atom_site_label_1
_geom_bond_atom_site_label_2
_geom_bond_site_symmetry_1
_geom_bond_site_symmetry_2
S1 O1 1_555 1_555
O2 S1 1_555 1_555
O3 C1 1_555 1_555
N1 C3 1_555 1_555
N2 H1 1_555 1_555
H2 N2 1_555 1_555
N3 H3 1_555 1_555
H4 N3 1_555 1_555
N4 S1 1_555 1_555
C1 N2 1_555 1_555
C2 C1 1_555 1_555
C3 C2 1_555 1_555
H5 C3 1_555 1_555
C4 N1 1_555 1_555
C5 C4 1_555 1_555
C6 N3 1_555 1_555
C7 H6 1_555 1_555
C8 C5 1_555 1_555
C9 H7 1_555 1_555
C10 C7 1_555 1_555
H8 C10 1_555 1_555
C11 C8 1_555 1_555
H9 C11 1_555 1_555
C12 C7 1_555 1_555
H10 C12 1_555 1_555
C13 H11 1_555 1_555
C14 H12 1_555 1_555
C15 S1 1_555 1_555
C16 C14 1_555 1_555
C17 C14 1_555 1_555
H13 C17 1_555 1_555
C18 C16 1_555 1_555
H14 C18 1_555 1_555
H15 C18 1_555 1_555
H16 C18 1_555 1_555
C19 C13 1_555 1_555
H17 C19 1_555 1_555
C20 N1 1_555 1_555
C21 H18 1_555 1_555
C22 C20 1_555 1_555
H19 C22 1_555 1_555
C23 H20 1_555 1_555
C24 C20 1_555 1_555
H21 C24 1_555 1_555
C25 C21 1_555 1_555
H22 C25 1_555 1_555
S2 O4 1_555 1_555
O5 S2 1_555 1_555
O6 C50 1_555 1_555
N5 C26 1_555 1_555
N6 S2 1_555 1_555
N7 H23 1_555 1_555
H24 N7 1_555 1_555
N8 H25 1_555 1_555
H26 N8 1_555 1_555
C26 N6 1_555 1_555
C27 C26 1_555 1_555
C28 N8 1_555 1_555
C29 C28 1_555 1_555
C30 N5 1_555 1_555
H27 C30 1_555 1_555
C31 N5 1_555 1_555
C32 H28 1_555 1_555
C33 C32 1_555 1_555
H29 C33 1_555 1_555
C34 C31 1_555 1_555
H30 C34 1_555 1_555
C35 C32 1_555 1_555
H31 C35 1_555 1_555
C36 C31 1_555 1_555
H32 C36 1_555 1_555
C37 S2 1_555 1_555
C38 C37 1_555 1_555
H33 C38 1_555 1_555
C39 C38 1_555 1_555
H34 C39 1_555 1_555
C40 C37 1_555 1_555
H35 C40 1_555 1_555
C41 C39 1_555 1_555
C42 C40 1_555 1_555
H36 C42 1_555 1_555
C43 C41 1_555 1_555
H37 C43 1_555 1_555
H38 C43 1_555 1_555
H39 C43 1_555 1_555
C44 C27 1_555 1_555
C45 C44 1_555 1_555
H40 C45 1_555 1_555
C46 C44 1_555 1_555
H41 C46 1_555 1_555
C47 C46 1_555 1_555
H42 C47 1_555 1_555
C48 C45 1_555 1_555
H43 C48 1_555 1_555
C49 C47 1_555 1_555
H44 C49 1_555 1_555
C50 N7 1_555 1_555
O7 C51 1_555 1_555
C51 C52A 1_555 1_555
C52 H45 1_555 1_555
H46 C52 1_555 1_555
H47 C52 1_555 1_555
C52A H45A 1_555 1_555
H46A C52A 1_555 1_555
H47A C52A 1_555 1_555
O7A C51A 1_555 1_555
C51A C52 1_555 1_555
N4 C4 1_555 1_555
C2 C6 1_555 1_555
C5 C6 1_555 1_555
C8 C10 1_555 1_555
C9 C11 1_555 1_555
C9 C12 1_555 1_555
C13 C15 1_555 1_555
C15 C17 1_555 1_555
C16 C19 1_555 1_555
C21 C22 1_555 1_555
C23 C24 1_555 1_555
C23 C25 1_555 1_555
C27 C28 1_555 1_555
C29 C30 1_555 1_555
C29 C50 1_555 1_555
C33 C34 1_555 1_555
C35 C36 1_555 1_555
C41 C42 1_555 1_555
C48 C49 1_555 1_555

#END
