
#######################################################################
#
#                 Cambridge Crystallographic Data Centre
#                                CCDC 
#
#######################################################################
#
# If this CIF has been generated from an entry in the Cambridge 
# Structural Database, then it will include bibliographic, chemical, 
# crystal, experimental, refinement or atomic coordinate data resulting 
# from the CCDC's data processing and validation procedures.
#
#######################################################################

data_CIYTUA
_chemical_formula_moiety         'C20 H19 F3 N2 O3'
_chemical_name_systematic        
'Methyl 4-m-tolyl-1-(2,2,2-trifluoroacetyl)-2,3,4,5-tetrahydro-1H-benzo[e][1,4]diazepine-2-carboxylate'
_symmetry_cell_setting           monoclinic
_symmetry_space_group_name_H-M   'P 21/c'
_symmetry_Int_Tables_number      14
_space_group_name_Hall           '-P 2ybc'
loop_
_symmetry_equiv_pos_site_id
_symmetry_equiv_pos_as_xyz
1 x,y,z
2 -x,1/2+y,1/2-z
3 -x,-y,-z
4 x,1/2-y,1/2+z
_cell_length_a                   14.100(3)
_cell_length_b                   7.9174(16)
_cell_length_c                   17.453(4)
_cell_angle_alpha                90
_cell_angle_beta                 94.06(3)
_cell_angle_gamma                90
_cell_volume                     1943.48
_exptl_crystal_colour            colorless
_exptl_crystal_description       'thin plate'
_chemical_melting_point          123-124deg.C
_cell_formula_units_Z            4
loop_
_atom_site_label
_atom_site_type_symbol
_atom_site_fract_x
_atom_site_fract_y
_atom_site_fract_z
N1 N 0.2094(3) 0.7928(5) 0.4029(2)
N2 N 0.3928(3) 0.6269(6) 0.4195(3)
O1 O 0.0701(3) 0.6064(6) 0.3244(2)
O2 O 0.1748(3) 0.4859(5) 0.2516(2)
O3 O 0.1792(3) 0.9892(5) 0.3110(2)
C1 C 0.2012(5) 0.7288(7) 0.4803(3)
C2 C 0.1111(5) 0.7019(7) 0.5055(3)
H1 H 0.0565 0.7270 0.4746
C3 C 0.1059(7) 0.6353(10) 0.5796(4)
H2 H 0.0473 0.6156 0.5992
C4 C 0.1897(9) 0.5992(10) 0.6232(4)
H3 H 0.1863 0.5570 0.6727
C5 C 0.2780(7) 0.6238(10) 0.5954(4)
H4 H 0.3326 0.5968 0.6259
C6 C 0.2857(5) 0.6877(8) 0.5231(3)
C7 C 0.3817(5) 0.7101(10) 0.4928(3)
H5 H 0.3936 0.8300 0.4869
H6 H 0.4295 0.6666 0.5304
C8 C 0.3097(4) 0.5456(7) 0.3821(3)
H7 H 0.2787 0.4788 0.4196
H8 H 0.3300 0.4692 0.3430
C9 C 0.2378(3) 0.6712(6) 0.3447(3)
H9 H 0.2689 0.7338 0.3051
C10 C 0.4716(4) 0.6663(7) 0.3776(4)
C11 C 0.5522(5) 0.7433(10) 0.4156(4)
H10 H 0.5533 0.7699 0.4676
C12 C 0.6294(5) 0.7780(11) 0.3736(6)
H11 H 0.6823 0.8291 0.3987
C13 C 0.6321(5) 0.7413(10) 0.2970(5)
H12 H 0.6856 0.7683 0.2713
C14 C 0.5566(4) 0.6654(7) 0.2590(4)
C15 C 0.4757(4) 0.6307(7) 0.3004(4)
H13 H 0.4230 0.5816 0.2743
C16 C 0.5559(5) 0.6242(10) 0.1751(4)
H14 H 0.6161 0.6541 0.1565
H15 H 0.5062 0.6867 0.1474
H16 H 0.5450 0.5054 0.1678
C17 C 0.1497(4) 0.5866(6) 0.3072(3)
C18 C 0.0988(4) 0.3925(10) 0.2103(4)
H17 H 0.1247 0.3236 0.1717
H18 H 0.0536 0.4702 0.1864
H19 H 0.0677 0.3218 0.2456
C19 C 0.1822(3) 0.9463(6) 0.3772(3)
C20 C 0.1607(6) 1.0810(8) 0.4355(4)
F1 F 0.1570(4) 1.2303(5) 0.4055(3)
F2 F 0.0750(5) 1.0628(6) 0.4594(4)
F3 F 0.2137(6) 1.0837(8) 0.4949(3)
loop_
_geom_bond_atom_site_label_1
_geom_bond_atom_site_label_2
_geom_bond_site_symmetry_1
_geom_bond_site_symmetry_2
N1 C1 1_555 1_555
N2 C7 1_555 1_555
O1 C17 1_555 1_555
O2 C17 1_555 1_555
O3 C19 1_555 1_555
C1 C2 1_555 1_555
C2 H1 1_555 1_555
C3 C2 1_555 1_555
H2 C3 1_555 1_555
C4 C3 1_555 1_555
H3 C4 1_555 1_555
C5 C4 1_555 1_555
H4 C5 1_555 1_555
C6 C1 1_555 1_555
C7 C6 1_555 1_555
H5 C7 1_555 1_555
H6 C7 1_555 1_555
C8 N2 1_555 1_555
H7 C8 1_555 1_555
H8 C8 1_555 1_555
C9 N1 1_555 1_555
H9 C9 1_555 1_555
C10 N2 1_555 1_555
C11 C10 1_555 1_555
H10 C11 1_555 1_555
C12 C11 1_555 1_555
H11 C12 1_555 1_555
C13 C12 1_555 1_555
H12 C13 1_555 1_555
C14 C13 1_555 1_555
C15 C10 1_555 1_555
H13 C15 1_555 1_555
C16 C14 1_555 1_555
H14 C16 1_555 1_555
H15 C16 1_555 1_555
H16 C16 1_555 1_555
C17 C9 1_555 1_555
C18 O2 1_555 1_555
H17 C18 1_555 1_555
H18 C18 1_555 1_555
H19 C18 1_555 1_555
C19 N1 1_555 1_555
C20 C19 1_555 1_555
F1 C20 1_555 1_555
F2 C20 1_555 1_555
F3 C20 1_555 1_555
C5 C6 1_555 1_555
C8 C9 1_555 1_555
C14 C15 1_555 1_555

#END
