
#######################################################################
#
#                 Cambridge Crystallographic Data Centre
#                                CCDC 
#
#######################################################################
#
# If this CIF has been generated from an entry in the Cambridge 
# Structural Database, then it will include bibliographic, chemical, 
# crystal, experimental, refinement or atomic coordinate data resulting 
# from the CCDC's data processing and validation procedures.
#
#######################################################################

data_CIYTEK
_chemical_formula_moiety         'C31 H20 Cl1 F1 N2 O3 S1'
_chemical_name_systematic        
N-(8-chloro-4-(2-fluorophenyl)-2,5-dioxo-1-phenyl-2,3,4,5-tetrahydro-1H-thiochromeno[2,3-b]pyridin-3-yl)benzamide
_symmetry_cell_setting           monoclinic
_symmetry_space_group_name_H-M   'C 2/c'
_symmetry_Int_Tables_number      15
_space_group_name_Hall           '-C 2yn'
loop_
_symmetry_equiv_pos_site_id
_symmetry_equiv_pos_as_xyz
1 x,y,z
2 1/2+x,1/2+y,z
3 -x,y,1/2-z
4 1/2-x,1/2+y,1/2-z
5 -x,-y,-z
6 1/2-x,1/2-y,-z
7 x,-y,1/2+z
8 1/2+x,1/2-y,1/2+z
_cell_length_a                   14.4309(14)
_cell_length_b                   18.8615(17)
_cell_length_c                   20.7102(19)
_cell_angle_alpha                90
_cell_angle_beta                 110.223(3)
_cell_angle_gamma                90
_cell_volume                     5289.58
_exptl_crystal_colour            colorless
_exptl_crystal_description       block
_chemical_melting_point          283-285deg.C
_cell_formula_units_Z            8
loop_
_atom_site_label
_atom_site_type_symbol
_atom_site_fract_x
_atom_site_fract_y
_atom_site_fract_z
Cl1 Cl 0.17278(4) -0.29264(3) 0.40476(3)
S1 S 0.14837(4) -0.10893(2) 0.20524(2)
F1 F 0.32400(9) 0.07746(6) 0.22183(6)
O1 O 0.14911(12) 0.09284(7) 0.06007(7)
O2 O -0.01236(14) 0.23694(9) 0.17019(11)
O3 O 0.11090(11) 0.05415(7) 0.34785(6)
N1 N 0.10573(15) 0.19522(9) 0.13462(9)
N2 N 0.14913(12) 0.00429(8) 0.13335(7)
C1 C 0.13448(15) 0.07407(10) 0.11161(9)
C2 C 0.09355(15) 0.12269(10) 0.15276(9)
H1 H 0.0222 0.1139 0.1369
C3 C 0.13232(14) 0.10846(9) 0.23072(9)
H2 H 0.0825 0.1281 0.2480
C4 C 0.13366(14) 0.02969(9) 0.24392(9)
C5 C 0.14238(14) -0.01736(10) 0.19694(8)
C6 C 0.05089(17) 0.24806(11) 0.14495(11)
C7 C 0.07264(16) 0.32129(11) 0.12587(11)
C8 C 0.0896(2) 0.33593(13) 0.06650(13)
H3 H 0.0908 0.2992 0.0368
C9 C 0.1049(3) 0.40493(16) 0.04994(19)
H4 H 0.1147 0.4145 0.0087
C10 C 0.1057(2) 0.45879(16) 0.0937(2)
H5 H 0.1165 0.5052 0.0828
C11 C 0.0905(3) 0.44447(16) 0.1534(2)
H6 H 0.0918 0.4812 0.1837
C12 C 0.0733(2) 0.37577(14) 0.16984(14)
H7 H 0.0622 0.3666 0.2107
C13 C 0.22914(15) 0.14412(9) 0.27234(9)
C14 C 0.32004(16) 0.12679(10) 0.26916(10)
C15 C 0.40760(16) 0.15532(11) 0.31069(10)
H8 H 0.4673 0.1409 0.3072
C16 C 0.40474(19) 0.20616(12) 0.35799(11)
H9 H 0.4631 0.2262 0.3872
C17 C 0.3162(2) 0.22699(12) 0.36191(11)
H10 H 0.3145 0.2622 0.3929
C18 C 0.22916(17) 0.19618(10) 0.32011(11)
H11 H 0.1696 0.2105 0.3240
C19 C 0.12343(14) 0.00873(9) 0.30898(9)
C20 C 0.13001(14) -0.06675(9) 0.32892(9)
C21 C 0.14279(14) -0.12119(9) 0.28710(9)
C22 C 0.15431(15) -0.19149(9) 0.31012(9)
H12 H 0.1635 -0.2276 0.2824
C23 C 0.15178(15) -0.20600(9) 0.37444(9)
C24 C 0.13815(15) -0.15322(10) 0.41704(9)
H13 H 0.1361 -0.1642 0.4603
C25 C 0.12784(15) -0.08459(10) 0.39387(9)
H14 H 0.1192 -0.0489 0.4222
C26 C 0.18049(16) -0.04500(10) 0.09112(9)
C27 C 0.2782(2) -0.05270(15) 0.10125(13)
H15 H 0.3251 -0.0276 0.1360
C28 C 0.3075(3) -0.09799(18) 0.05963(17)
H16 H 0.3742 -0.1031 0.0661
C29 C 0.2388(3) -0.13517(15) 0.00913(14)
H17 H 0.2589 -0.1655 -0.0189
C30 C 0.1413(3) -0.12822(13) -0.00058(11)
H18 H 0.0949 -0.1544 -0.0347
C31 C 0.11050(19) -0.08221(11) 0.04012(10)
H19 H 0.0437 -0.0766 0.0331
H20 H 0.1476(17) 0.2026(11) 0.1178(11)
loop_
_geom_bond_atom_site_label_1
_geom_bond_atom_site_label_2
_geom_bond_site_symmetry_1
_geom_bond_site_symmetry_2
Cl1 C23 1_555 1_555
S1 C5 1_555 1_555
F1 C14 1_555 1_555
O1 C1 1_555 1_555
O2 C6 1_555 1_555
O3 C19 1_555 1_555
N1 C2 1_555 1_555
N2 C1 1_555 1_555
C1 C2 1_555 1_555
C2 H1 1_555 1_555
C3 C2 1_555 1_555
H2 C3 1_555 1_555
C4 C3 1_555 1_555
C5 N2 1_555 1_555
C6 N1 1_555 1_555
C7 C6 1_555 1_555
C8 C7 1_555 1_555
H3 C8 1_555 1_555
C9 C8 1_555 1_555
H4 C9 1_555 1_555
C10 C9 1_555 1_555
H5 C10 1_555 1_555
C11 C10 1_555 1_555
H6 C11 1_555 1_555
C12 C7 1_555 1_555
H7 C12 1_555 1_555
C13 C3 1_555 1_555
C14 C13 1_555 1_555
C15 C14 1_555 1_555
H8 C15 1_555 1_555
C16 C15 1_555 1_555
H9 C16 1_555 1_555
C17 C16 1_555 1_555
H10 C17 1_555 1_555
C18 C13 1_555 1_555
H11 C18 1_555 1_555
C19 C4 1_555 1_555
C20 C19 1_555 1_555
C21 S1 1_555 1_555
C22 C21 1_555 1_555
H12 C22 1_555 1_555
C23 C22 1_555 1_555
C24 C23 1_555 1_555
H13 C24 1_555 1_555
C25 C20 1_555 1_555
H14 C25 1_555 1_555
C26 N2 1_555 1_555
C27 C26 1_555 1_555
H15 C27 1_555 1_555
C28 C27 1_555 1_555
H16 C28 1_555 1_555
C29 C28 1_555 1_555
H17 C29 1_555 1_555
C30 C29 1_555 1_555
H18 C30 1_555 1_555
C31 C26 1_555 1_555
H19 C31 1_555 1_555
H20 N1 1_555 1_555
C4 C5 1_555 1_555
C11 C12 1_555 1_555
C17 C18 1_555 1_555
C20 C21 1_555 1_555
C24 C25 1_555 1_555
C30 C31 1_555 1_555

#END
