
#######################################################################
#
#                 Cambridge Crystallographic Data Centre
#                                CCDC 
#
#######################################################################
#
# If this CIF has been generated from an entry in the Cambridge 
# Structural Database, then it will include bibliographic, chemical, 
# crystal, experimental, refinement or atomic coordinate data resulting 
# from the CCDC's data processing and validation procedures.
#
#######################################################################

data_CIYVIQ
_chemical_formula_moiety         'C12 H12 N2 O1'
_chemical_name_systematic        
1-Methoxy-2,6-dimethyl-1H-indole-3-carbonitrile
_symmetry_cell_setting           monoclinic
_symmetry_space_group_name_H-M   'P 21/c'
_symmetry_Int_Tables_number      14
_space_group_name_Hall           '-P 2ybc'
loop_
_symmetry_equiv_pos_site_id
_symmetry_equiv_pos_as_xyz
1 x,y,z
2 -x,1/2+y,1/2-z
3 -x,-y,-z
4 x,1/2-y,1/2+z
_cell_length_a                   8.944(3)
_cell_length_b                   11.148(4)
_cell_length_c                   11.494(4)
_cell_angle_alpha                90
_cell_angle_beta                 111.122(6)
_cell_angle_gamma                90
_cell_volume                     1069.04
_chemical_melting_point          104-105deg.C
_cell_formula_units_Z            4
loop_
_atom_site_label
_atom_site_type_symbol
_atom_site_fract_x
_atom_site_fract_y
_atom_site_fract_z
O1 O 0.11192(15) 0.36803(10) 0.20215(10)
N1 N 0.17141(16) 0.42303(12) 0.31755(11)
N2 N 0.1231(2) 0.71423(15) 0.59762(16)
C1 C 0.29515(19) 0.37738(14) 0.41872(14)
C2 C 0.3968(2) 0.28029(14) 0.42852(16)
H1 H 0.3862 0.2324 0.3597
C3 C 0.5137(2) 0.25714(16) 0.54295(17)
C4 C 0.6280(2) 0.15301(18) 0.5608(2)
H2 H 0.5943 0.0878 0.6000
H3 H 0.7340 0.1776 0.6124
H4 H 0.6283 0.1274 0.4811
C5 C 0.5265(2) 0.33153(17) 0.64521(16)
H5 H 0.6059 0.3153 0.7220
C6 C 0.4260(2) 0.42701(16) 0.63548(15)
H6 H 0.4372 0.4746 0.7046
C7 C 0.30633(19) 0.45181(14) 0.51993(15)
C8 C 0.18211(19) 0.54107(14) 0.47374(15)
C9 C 0.1485(2) 0.63659(16) 0.54210(16)
C10 C 0.09992(19) 0.51973(14) 0.34868(15)
C11 C -0.0405(2) 0.58114(16) 0.25775(17)
H7 H -0.0051 0.6354 0.2082
H8 H -0.0960 0.6251 0.3016
H9 H -0.1114 0.5227 0.2045
C12 C 0.1937(3) 0.4103(2) 0.12270(17)
H10 H 0.1749 0.4948 0.1082
H11 H 0.1542 0.3684 0.0446
H12 H 0.3067 0.3961 0.1623
loop_
_geom_bond_atom_site_label_1
_geom_bond_atom_site_label_2
_geom_bond_site_symmetry_1
_geom_bond_site_symmetry_2
O1 N1 1_555 1_555
N1 C1 1_555 1_555
N2 C9 1_555 1_555
C1 C2 1_555 1_555
C2 H1 1_555 1_555
C3 C2 1_555 1_555
C4 C3 1_555 1_555
H2 C4 1_555 1_555
H3 C4 1_555 1_555
H4 C4 1_555 1_555
C5 C3 1_555 1_555
H5 C5 1_555 1_555
C6 C5 1_555 1_555
H6 C6 1_555 1_555
C7 C1 1_555 1_555
C8 C7 1_555 1_555
C9 C8 1_555 1_555
C10 N1 1_555 1_555
C11 C10 1_555 1_555
H7 C11 1_555 1_555
H8 C11 1_555 1_555
H9 C11 1_555 1_555
C12 O1 1_555 1_555
H10 C12 1_555 1_555
H11 C12 1_555 1_555
H12 C12 1_555 1_555
C6 C7 1_555 1_555
C8 C10 1_555 1_555

#END
