
#######################################################################
#
#                 Cambridge Crystallographic Data Centre
#                                CCDC 
#
#######################################################################
#
# If this CIF has been generated from an entry in the Cambridge 
# Structural Database, then it will include bibliographic, chemical, 
# crystal, experimental, refinement or atomic coordinate data resulting 
# from the CCDC's data processing and validation procedures.
#
#######################################################################

data_CIYWUD
_chemical_formula_moiety         '2(C5 H6 N1 O1 1+),C10 H4 O8 2-,H2 O1'
_chemical_name_systematic        
'bis(3-Hydroxypyridinium) 1,5-dicarboxybenzene-2,4-dicarboxylate monohydrate'
_symmetry_cell_setting           monoclinic
_symmetry_space_group_name_H-M   'P 21/c'
_symmetry_Int_Tables_number      14
_space_group_name_Hall           '-P 2ybc'
loop_
_symmetry_equiv_pos_site_id
_symmetry_equiv_pos_as_xyz
1 x,y,z
2 -x,1/2+y,1/2-z
3 -x,-y,-z
4 x,1/2-y,1/2+z
_cell_length_a                   14.341(4)
_cell_length_b                   12.286(3)
_cell_length_c                   10.964(3)
_cell_angle_alpha                90
_cell_angle_beta                 93.13(3)
_cell_angle_gamma                90
_cell_volume                     1928.9
_exptl_crystal_colour            colorless
_exptl_crystal_description       prism
_chemical_melting_point          'sublimes above 230deg.C'
_cell_formula_units_Z            4
loop_
_atom_site_label
_atom_site_type_symbol
_atom_site_fract_x
_atom_site_fract_y
_atom_site_fract_z
O1 O 0.94609(12) 0.15958(16) 0.07730(16)
O2 O 0.93087(11) 0.22293(13) 0.26459(16)
O3 O 0.99517(10) -0.02661(14) 0.24085(18)
O4 O 0.91692(10) -0.18242(12) 0.23376(19)
H1 H 0.9697 -0.2083 0.2381
O5 O 0.51368(11) -0.09299(14) 0.16812(17)
O6 O 0.57834(10) -0.15705(13) 0.34417(15)
H2 H 0.5337 -0.1989 0.3397
O7 O 0.51552(11) 0.12449(14) 0.30304(17)
O8 O 0.55116(10) 0.21594(13) 0.13638(15)
C1 C 0.82426(13) 0.09005(16) 0.19578(19)
C2 C 0.82972(13) -0.02100(16) 0.22159(19)
C3 C 0.74847(13) -0.07907(16) 0.24228(19)
H7 H 0.7524 -0.1531 0.2597
C4 C 0.66199(13) -0.02826(16) 0.23733(19)
C5 C 0.65653(13) 0.08319(16) 0.21250(19)
C6 C 0.73741(13) 0.14070(16) 0.19217(19)
H8 H 0.7335 0.2149 0.1757
C7 C 0.90826(14) 0.16066(17) 0.1747(2)
C8 C 0.92214(14) -0.07736(17) 0.2317(2)
C9 C 0.57627(13) -0.09632(16) 0.2492(2)
C10 C 0.56608(14) 0.14452(17) 0.2185(2)
O9 O 0.66301(12) 0.34890(15) 0.3655(2)
H3 H 0.6069 0.3614 0.3555
N1 N 0.85344(14) 0.5333(2) 0.38850(19)
H5 H 0.9126 0.5312 0.3796
C11 C 0.80446(16) 0.4417(2) 0.3698(2)
H9 H 0.8339 0.3781 0.3467
C12 C 0.70919(16) 0.4426(2) 0.3853(2)
C13 C 0.66835(16) 0.5390(2) 0.4200(2)
H10 H 0.6047 0.5413 0.4319
C14 C 0.72187(17) 0.6315(2) 0.4369(2)
H11 H 0.6943 0.6965 0.4595
C15 C 0.81589(18) 0.6276(2) 0.4202(2)
H12 H 0.8527 0.6896 0.4307
O10 O 0.65410(11) 0.67589(13) 0.14401(17)
H4 H 0.6001 0.6638 0.1610
N2 N 0.82863(14) 0.4969(2) 0.0440(2)
H6 H 0.8879 0.4986 0.0355
C16 C 0.78717(16) 0.5859(2) 0.0860(2)
H13 H 0.8221 0.6481 0.1048
C17 C 0.69185(15) 0.58502(19) 0.1014(2)
C18 C 0.64224(16) 0.49101(19) 0.0717(2)
H14 H 0.5782 0.4885 0.0812
C19 C 0.68728(18) 0.4019(2) 0.0283(2)
H15 H 0.6539 0.3389 0.0082
C20 C 0.78186(19) 0.4056(2) 0.0147(2)
H16 H 0.8130 0.3454 -0.0146
O11 O 1.00279(13) 0.12961(16) 0.48454(17)
H17 H 0.9978 0.1864 0.5279
H18 H 0.9889 0.1536 0.4131
loop_
_geom_bond_atom_site_label_1
_geom_bond_atom_site_label_2
_geom_bond_site_symmetry_1
_geom_bond_site_symmetry_2
O1 C7 1_555 1_555
O2 C7 1_555 1_555
O3 C8 1_555 1_555
O4 H1 1_555 1_555
O5 C9 1_555 1_555
O6 H2 1_555 1_555
O7 C10 1_555 1_555
O8 C10 1_555 1_555
O9 H3 1_555 1_555
O10 H4 1_555 1_555
N1 H5 1_555 1_555
N2 H6 1_555 1_555
C1 C2 1_555 1_555
C2 C3 1_555 1_555
C3 H7 1_555 1_555
C4 C3 1_555 1_555
C5 C4 1_555 1_555
C6 C1 1_555 1_555
H8 C6 1_555 1_555
C7 C1 1_555 1_555
C8 O4 1_555 1_555
C9 O6 1_555 1_555
C10 C5 1_555 1_555
C11 N1 1_555 1_555
H9 C11 1_555 1_555
C12 O9 1_555 1_555
C13 C12 1_555 1_555
H10 C13 1_555 1_555
C14 C13 1_555 1_555
H11 C14 1_555 1_555
C15 N1 1_555 1_555
H12 C15 1_555 1_555
C16 N2 1_555 1_555
H13 C16 1_555 1_555
C17 O10 1_555 1_555
C18 C17 1_555 1_555
H14 C18 1_555 1_555
C19 C18 1_555 1_555
H15 C19 1_555 1_555
C20 N2 1_555 1_555
H16 C20 1_555 1_555
O11 H17 1_555 1_555
H18 O11 1_555 1_555
C2 C8 1_555 1_555
C4 C9 1_555 1_555
C5 C6 1_555 1_555
C11 C12 1_555 1_555
C14 C15 1_555 1_555
C16 C17 1_555 1_555
C19 C20 1_555 1_555

#END
