
#######################################################################
#
#                 Cambridge Crystallographic Data Centre
#                                CCDC 
#
#######################################################################
#
# If this CIF has been generated from an entry in the Cambridge 
# Structural Database, then it will include bibliographic, chemical, 
# crystal, experimental, refinement or atomic coordinate data resulting 
# from the CCDC's data processing and validation procedures.
#
#######################################################################

data_CIZKUT
_chemical_formula_moiety         'C15 H27 N1 O6 S1'
_chemical_name_systematic        
"(R~S~,2R,2'S)-Ethyl 2-(t-butoxycarbonyloxy)-2-(1-t-butanesulfinylaziridin-2-yl)acetate"
_symmetry_cell_setting           orthorhombic
_symmetry_space_group_name_H-M   'P 21 21 21'
_symmetry_Int_Tables_number      19
_space_group_name_Hall           'P 2ac 2ab'
loop_
_symmetry_equiv_pos_site_id
_symmetry_equiv_pos_as_xyz
1 x,y,z
2 1/2-x,-y,1/2+z
3 1/2+x,1/2-y,-z
4 -x,1/2+y,1/2-z
_cell_length_a                   9.2379(2)
_cell_length_b                   10.1214(2)
_cell_length_c                   19.9426(5)
_cell_angle_alpha                90
_cell_angle_beta                 90
_cell_angle_gamma                90
_cell_volume                     1864.64
_exptl_crystal_colour            colorless
_exptl_crystal_description       prism
_cell_formula_units_Z            4
loop_
_atom_site_label
_atom_site_type_symbol
_atom_site_fract_x
_atom_site_fract_y
_atom_site_fract_z
S1 S 0.63838(4) 0.18426(4) 0.057119(18)
O1 O 0.79235(13) 0.14885(12) 0.04477(6)
O2 O 0.41913(11) -0.12263(10) 0.12793(5)
O3 O 0.22548(10) -0.21425(10) 0.09208(5)
O4 O 0.23948(11) -0.15930(10) 0.20277(5)
O5 O 0.69020(10) -0.19292(10) 0.25028(5)
O6 O 0.53311(12) -0.32616(11) 0.19642(6)
N1 N 0.58949(13) 0.13245(12) 0.13586(6)
C1 C 0.70833(16) 0.10125(14) 0.18362(7)
H1 H 0.8087 0.1216 0.1696
H2 H 0.6889 0.1127 0.2321
C2 C 0.63181(15) -0.00626(13) 0.14821(7)
H3 H 0.6873 -0.0498 0.1113
C3 C 0.63406(16) 0.36403(14) 0.07201(7)
C4 C 0.48231(17) 0.40220(16) 0.09451(8)
H4 H 0.4638 0.3657 0.1392
H5 H 0.4113 0.3668 0.0627
H6 H 0.4742 0.4987 0.0961
C5 C 0.6678(2) 0.42125(17) 0.00249(8)
H7 H 0.592 0.3947 -0.0292
H8 H 0.7615 0.3878 -0.013
H9 H 0.6713 0.5179 0.0052
C6 C 0.74944(18) 0.40322(15) 0.12272(9)
H10 H 0.7553 0.4998 0.1253
H11 H 0.8433 0.3675 0.1087
H12 H 0.724 0.3676 0.1669
C7 C 0.51800(15) -0.08981(14) 0.18079(7)
H13 H 0.4673 -0.0387 0.2167
C8 C 0.28743(15) -0.16655(13) 0.14712(7)
C9 C 0.08570(15) -0.28584(16) 0.09705(8)
C10 C 0.09996(18) -0.39795(17) 0.14713(10)
H14 H 0.1896 -0.4468 0.1384
H15 H 0.017 -0.4577 0.1426
H16 H 0.1024 -0.3618 0.1927
C11 C -0.03437(17) -0.19026(18) 0.11486(9)
H17 H -0.0176 -0.1548 0.1599
H18 H -0.1276 -0.2365 0.1138
H19 H -0.0357 -0.1176 0.0824
C12 C 0.0682(2) -0.3381(2) 0.02622(9)
H20 H 0.0661 -0.2639 -0.0054
H21 H -0.0225 -0.3879 0.0229
H22 H 0.1497 -0.3962 0.0153
C13 C 0.57912(15) -0.21832(14) 0.20925(7)
C14 C 0.75432(16) -0.30926(15) 0.28245(8)
H23 H 0.7841 -0.3745 0.2481
H24 H 0.6831 -0.3516 0.3127
C15 C 0.88351(17) -0.26334(17) 0.32163(9)
H25 H 0.953 -0.2213 0.2912
H26 H 0.9293 -0.3392 0.3436
H27 H 0.8526 -0.1995 0.3557
loop_
_geom_bond_atom_site_label_1
_geom_bond_atom_site_label_2
_geom_bond_site_symmetry_1
_geom_bond_site_symmetry_2
S1 O1 1_555 1_555
O2 C7 1_555 1_555
O3 C8 1_555 1_555
O4 C8 1_555 1_555
O5 C13 1_555 1_555
O6 C13 1_555 1_555
N1 S1 1_555 1_555
C1 N1 1_555 1_555
H1 C1 1_555 1_555
H2 C1 1_555 1_555
C2 N1 1_555 1_555
H3 C2 1_555 1_555
C3 S1 1_555 1_555
C4 C3 1_555 1_555
H4 C4 1_555 1_555
H5 C4 1_555 1_555
H6 C4 1_555 1_555
C5 C3 1_555 1_555
H7 C5 1_555 1_555
H8 C5 1_555 1_555
H9 C5 1_555 1_555
C6 C3 1_555 1_555
H10 C6 1_555 1_555
H11 C6 1_555 1_555
H12 C6 1_555 1_555
C7 C2 1_555 1_555
H13 C7 1_555 1_555
C8 O2 1_555 1_555
C9 O3 1_555 1_555
C10 C9 1_555 1_555
H14 C10 1_555 1_555
H15 C10 1_555 1_555
H16 C10 1_555 1_555
C11 C9 1_555 1_555
H17 C11 1_555 1_555
H18 C11 1_555 1_555
H19 C11 1_555 1_555
C12 C9 1_555 1_555
H20 C12 1_555 1_555
H21 C12 1_555 1_555
H22 C12 1_555 1_555
C13 C7 1_555 1_555
C14 O5 1_555 1_555
H23 C14 1_555 1_555
H24 C14 1_555 1_555
C15 C14 1_555 1_555
H25 C15 1_555 1_555
H26 C15 1_555 1_555
H27 C15 1_555 1_555
C1 C2 1_555 1_555

#END
