
#######################################################################
#
#                 Cambridge Crystallographic Data Centre
#                                CCDC 
#
#######################################################################
#
# If this CIF has been generated from an entry in the Cambridge 
# Structural Database, then it will include bibliographic, chemical, 
# crystal, experimental, refinement or atomic coordinate data resulting 
# from the CCDC's data processing and validation procedures.
#
#######################################################################

data_CIZLAA
_chemical_formula_moiety         'C12 H24 Cl1 N1 O4 S1'
_chemical_name_systematic        
'(R~S~,2R,3R)-Ethyl 4-chloro-2-hydroxy-4-methyl-3-(t-butanesulfinylamino)pentanoate'
_symmetry_cell_setting           trigonal
_symmetry_space_group_name_H-M   'P 31'
_symmetry_Int_Tables_number      144
_space_group_name_Hall           'P 31'
loop_
_symmetry_equiv_pos_site_id
_symmetry_equiv_pos_as_xyz
1 x,y,z
2 -y,x-y,1/3+z
3 -x+y,-x,2/3+z
_cell_length_a                   9.4099(9)
_cell_length_b                   9.4099(9)
_cell_length_c                   31.116(3)
_cell_angle_alpha                90
_cell_angle_beta                 90
_cell_angle_gamma                120
_cell_volume                     2386.08
_exptl_crystal_colour            colorless
_exptl_crystal_description       'irregular prism'
_chemical_melting_point          '96.3-100.3 deg.C'
_cell_formula_units_Z            6
loop_
_atom_site_label
_atom_site_type_symbol
_atom_site_fract_x
_atom_site_fract_y
_atom_site_fract_z
Cl1 Cl -0.33604(5) 0.63845(6) 0.115250(15)
S1 S -0.06353(5) 0.53296(5) 0.139018(13)
O1 O -0.19710(16) 0.37672(16) 0.15757(5)
N1 N -0.01697(18) 0.68711(18) 0.17282(5)
H1 H -0.027(3) 0.664(3) 0.1982(9)
C1 C -0.2469(2) 0.7562(2) 0.16475(6)
O2 O 0.00124(17) 0.90412(19) 0.23642(4)
H2 H 0.0857 0.9523 0.2518
C2 C -0.06159(19) 0.8122(2) 0.16277(5)
H3 H -0.0233 0.8514 0.1328
O3 O 0.26050(16) 1.07710(18) 0.14424(4)
C3 C 0.1235(2) 0.5179(2) 0.14434(6)
O4 O 0.32175(18) 1.0457(2) 0.21206(5)
C4 C 0.2629(3) 0.6739(3) 0.12527(9)
H4 H 0.3576 0.6592 0.1203
H5 H 0.2938 0.7652 0.1453
H6 H 0.2275 0.6981 0.0980
C5 C 0.1532(3) 0.4899(3) 0.19088(7)
H7 H 0.2467 0.4713 0.1923
H8 H 0.0552 0.3937 0.2022
H9 H 0.1769 0.5867 0.2080
C6 C 0.0893(3) 0.3691(3) 0.11679(8)
H10 H 0.1868 0.3568 0.1164
H11 H 0.0628 0.3853 0.0874
H12 H -0.0035 0.2701 0.1289
C7 C 0.0415(2) 0.9571(2) 0.19353(5)
H13 H 0.0129 1.0446 0.1882
C8 C 0.2231(2) 1.0284(2) 0.18482(6)
C9 C 0.4360(2) 1.1652(3) 0.13387(6)
H14 H 0.4837 1.0933 0.1383
H15 H 0.4953 1.2634 0.1523
C10 C 0.4490(3) 1.2143(3) 0.08745(6)
H16 H 0.5649 1.2781 0.0792
H17 H 0.3970 1.2811 0.0833
H18 H 0.3937 1.1157 0.0695
C11 C -0.2763(2) 0.9017(2) 0.16245(7)
H19 H -0.2431 0.9623 0.1896
H20 H -0.3930 0.8616 0.1573
H21 H -0.2115 0.9744 0.1389
C12 C -0.3385(2) 0.6421(2) 0.20188(7)
H22 H -0.2915 0.6983 0.2291
H23 H -0.3285 0.5435 0.1999
H24 H -0.4546 0.6108 0.2005
N2 N 0.50386(19) 0.16426(18) 0.29487(5)
Cl2 Cl 0.44913(6) -0.15397(5) 0.353595(14)
S2 S 0.35042(5) 0.11963(5) 0.328865(13)
H25 H 0.482(3) 0.144(3) 0.2698(9)
O5 O 0.19405(17) -0.01405(16) 0.31027(5)
O6 O 0.7351(2) 0.18375(17) 0.23401(4)
H26 H 0.7662 0.2694 0.2194
O7 O 0.88658(19) 0.45269(16) 0.32475(4)
O8 O 0.8661(2) 0.50138(18) 0.25533(5)
C13 C 0.5745(2) -0.0633(2) 0.30519(6)
C14 C 0.6293(2) 0.12261(19) 0.30660(5)
H27 H 0.6641 0.1612 0.3367
C15 C 0.3339(2) 0.3052(2) 0.32355(6)
C16 C 0.2950(3) 0.3295(3) 0.27755(7)
H28 H 0.2838 0.4274 0.2760
H29 H 0.1921 0.2333 0.2685
H30 H 0.3841 0.3433 0.2585
C17 C 0.4946(3) 0.4487(2) 0.33959(8)
H31 H 0.4829 0.5460 0.3426
H32 H 0.5823 0.4714 0.3190
H33 H 0.5223 0.4211 0.3676
C18 C 0.1923(3) 0.2745(3) 0.35361(8)
H34 H 0.1788 0.3712 0.3538
H35 H 0.2168 0.2536 0.3828
H36 H 0.0908 0.1791 0.3435
C19 C 0.7779(2) 0.2260(2) 0.27718(6)
H37 H 0.8659 0.2002 0.2846
C20 C 0.8462(2) 0.4090(2) 0.28414(6)
C21 C 0.9707(3) 0.6310(2) 0.33253(7)
H38 H 0.9033 0.6770 0.3216
H39 H 1.0778 0.6860 0.3175
C22 C 0.9960(4) 0.6583(3) 0.38017(8)
H40 H 1.0577 0.7763 0.3861
H41 H 1.0576 0.6069 0.3909
H42 H 0.8892 0.6094 0.3946
C23 C 0.4663(3) -0.1550(2) 0.26728(7)
H43 H 0.5249 -0.1052 0.2405
H44 H 0.3654 -0.1490 0.2684
H45 H 0.4387 -0.2701 0.2684
C24 C 0.7209(3) -0.0902(3) 0.30947(8)
H46 H 0.7867 -0.0538 0.2831
H47 H 0.6816 -0.2071 0.3141
H48 H 0.7886 -0.0270 0.3340
loop_
_geom_bond_atom_site_label_1
_geom_bond_atom_site_label_2
_geom_bond_site_symmetry_1
_geom_bond_site_symmetry_2
Cl1 C1 1_555 1_555
S1 O1 1_555 1_555
N1 S1 1_555 1_555
H1 N1 1_555 1_555
C1 C2 1_555 1_555
O2 H2 1_555 1_555
C2 N1 1_555 1_555
H3 C2 1_555 1_555
O3 C8 1_555 1_555
C3 S1 1_555 1_555
O4 C8 1_555 1_555
C4 C3 1_555 1_555
H4 C4 1_555 1_555
H5 C4 1_555 1_555
H6 C4 1_555 1_555
C5 C3 1_555 1_555
H7 C5 1_555 1_555
H8 C5 1_555 1_555
H9 C5 1_555 1_555
C6 C3 1_555 1_555
H10 C6 1_555 1_555
H11 C6 1_555 1_555
H12 C6 1_555 1_555
C7 O2 1_555 1_555
H13 C7 1_555 1_555
C8 C7 1_555 1_555
C9 O3 1_555 1_555
H14 C9 1_555 1_555
H15 C9 1_555 1_555
C10 C9 1_555 1_555
H16 C10 1_555 1_555
H17 C10 1_555 1_555
H18 C10 1_555 1_555
C11 C1 1_555 1_555
H19 C11 1_555 1_555
H20 C11 1_555 1_555
H21 C11 1_555 1_555
C12 C1 1_555 1_555
H22 C12 1_555 1_555
H23 C12 1_555 1_555
H24 C12 1_555 1_555
N2 S2 1_555 1_555
Cl2 C13 1_555 1_555
S2 O5 1_555 1_555
H25 N2 1_555 1_555
O6 H26 1_555 1_555
O7 C20 1_555 1_555
O8 C20 1_555 1_555
C13 C14 1_555 1_555
C14 N2 1_555 1_555
H27 C14 1_555 1_555
C15 S2 1_555 1_555
C16 C15 1_555 1_555
H28 C16 1_555 1_555
H29 C16 1_555 1_555
H30 C16 1_555 1_555
C17 C15 1_555 1_555
H31 C17 1_555 1_555
H32 C17 1_555 1_555
H33 C17 1_555 1_555
C18 C15 1_555 1_555
H34 C18 1_555 1_555
H35 C18 1_555 1_555
H36 C18 1_555 1_555
C19 O6 1_555 1_555
H37 C19 1_555 1_555
C20 C19 1_555 1_555
C21 O7 1_555 1_555
H38 C21 1_555 1_555
H39 C21 1_555 1_555
C22 C21 1_555 1_555
H40 C22 1_555 1_555
H41 C22 1_555 1_555
H42 C22 1_555 1_555
C23 C13 1_555 1_555
H43 C23 1_555 1_555
H44 C23 1_555 1_555
H45 C23 1_555 1_555
C24 C13 1_555 1_555
H46 C24 1_555 1_555
H47 C24 1_555 1_555
H48 C24 1_555 1_555
C2 C7 1_555 1_555
C14 C19 1_555 1_555

#END
