
#######################################################################
#
#                 Cambridge Crystallographic Data Centre
#                                CCDC 
#
#######################################################################
#
# If this CIF has been generated from an entry in the Cambridge 
# Structural Database, then it will include bibliographic, chemical, 
# crystal, experimental, refinement or atomic coordinate data resulting 
# from the CCDC's data processing and validation procedures.
#
#######################################################################

data_CIZVOX
_chemical_formula_moiety         'C40 H60 Ca1 Li2 N4,C7 H8'
_chemical_name_systematic        
'tetrakis(\m~2~-\h^2^,\h^1^-benzyl-H)-bis(1,2-bis(dimethylamino)ethane)-calcium-di-lithium toluene solvate'
_symmetry_cell_setting           tetragonal
_symmetry_space_group_name_H-M   'I -4 2 d'
_symmetry_Int_Tables_number      122
_space_group_name_Hall           'I -4 2bw'
loop_
_symmetry_equiv_pos_site_id
_symmetry_equiv_pos_as_xyz
1 x,y,z
2 y,-x,-z
3 -x,-y,z
4 -y,x,-z
5 x,1/2-y,1/4-z
6 1/2-y,-x,3/4+z
7 -x,1/2+y,1/4-z
8 1/2+y,x,3/4+z
9 1/2+x,1/2+y,1/2+z
10 1/2+y,1/2-x,1/2-z
11 1/2-x,1/2-y,1/2+z
12 1/2-y,1/2+x,1/2-z
13 1/2+x,-y,3/4-z
14 -y,1/2-x,1/4+z
15 1/2-x,y,3/4-z
16 y,1/2+x,1/4+z
_cell_length_a                   13.6240(7)
_cell_length_b                   13.6240(7)
_cell_length_c                   28.4840(14)
_cell_angle_alpha                90
_cell_angle_beta                 90
_cell_angle_gamma                90
_cell_volume                     5287.01
_exptl_crystal_colour            yellow
_exptl_crystal_description       cube
_chemical_melting_point          '100-103 deg.C'
_cell_formula_units_Z            4
_chemical_properties_physical    'extremely air-sensitive'
loop_
_atom_site_label
_atom_site_type_symbol
_atom_site_fract_x
_atom_site_fract_y
_atom_site_fract_z
Ca1 Ca 0.0000 0.0000 0.0000
C1 C 0.2343(3) 0.0342(3) 0.01126(15)
H1 H 0.2257 -0.0332 0.0187
C2 C 0.2849(4) 0.0949(6) 0.04178(18)
H2 H 0.3081 0.0689 0.0707
C3 C 0.3023(4) 0.1908(6) 0.0315(3)
H3 H 0.3390 0.2307 0.0524
C4 C 0.2678(4) 0.2279(4) -0.0079(2)
H4 H 0.2787 0.2952 -0.0148
C5 C 0.2166(3) 0.1713(4) -0.03886(19)
H5 H 0.1941 0.2001 -0.0673
C6 C 0.1958(3) 0.0718(3) -0.03025(17)
C7 C 0.1393(2) 0.0123(4) -0.06240(13)
H6 H 0.1353 -0.0496 -0.0443
H7 H 0.1895 -0.0010 -0.0867
Li1 Li 0.0000 0.0000 -0.1064(3)
N1 N 0.0188(3) -0.1052(3) -0.15997(12)
C8 C -0.0161(5) -0.0528(4) -0.20110(17)
H8 H -0.0886 -0.0557 -0.2020
H9 H 0.0092 -0.0855 -0.2297
C9 C 0.1230(4) -0.1329(4) -0.1646(2)
H10 H 0.1341 -0.1619 -0.1957
H11 H 0.1399 -0.1809 -0.1403
H12 H 0.1642 -0.0745 -0.1610
C10 C -0.0428(4) -0.1977(4) -0.15439(18)
H13 H -0.0383 -0.2372 -0.1831
H14 H -0.1114 -0.1795 -0.1488
H15 H -0.0183 -0.2359 -0.1277
C1A C 0.0342(3) -0.2343(3) -0.01126(15)
C1B C -0.2343(3) -0.0342(3) 0.01126(15)
C1C C -0.0342(3) 0.2343(3) -0.01126(15)
H1A H -0.0332 -0.2257 -0.0187
H1B H -0.2257 0.0332 0.0187
H1C H 0.0332 0.2257 -0.0187
C2A C 0.0949(6) -0.2849(4) -0.04178(18)
C2B C -0.2849(4) -0.0949(6) 0.04178(18)
C2C C -0.0949(6) 0.2849(4) -0.04178(18)
H2A H 0.0689 -0.3081 -0.0707
H2B H -0.3081 -0.0689 0.0707
H2C H -0.0689 0.3081 -0.0707
C3A C 0.1908(6) -0.3023(4) -0.0315(3)
C3B C -0.3023(4) -0.1908(6) 0.0315(3)
C3C C -0.1908(6) 0.3023(4) -0.0315(3)
H3A H 0.2307 -0.3390 -0.0524
H3B H -0.3390 -0.2307 0.0524
H3C H -0.2307 0.3390 -0.0524
C4A C 0.2279(4) -0.2678(4) 0.0079(2)
C4B C -0.2678(4) -0.2279(4) -0.0079(2)
C4C C -0.2279(4) 0.2678(4) 0.0079(2)
H4A H 0.2952 -0.2787 0.0148
H4B H -0.2787 -0.2952 -0.0148
H4C H -0.2952 0.2787 0.0148
C5A C 0.1713(4) -0.2166(3) 0.03886(19)
C5B C -0.2166(3) -0.1713(4) -0.03886(19)
C5C C -0.1713(4) 0.2166(3) 0.03886(19)
H5A H 0.2001 -0.1941 0.0673
H5B H -0.1941 -0.2001 -0.0673
H5C H -0.2001 0.1941 0.0673
C6A C 0.0718(3) -0.1958(3) 0.03025(17)
C6B C -0.1958(3) -0.0718(3) -0.03025(17)
C6C C -0.0718(3) 0.1958(3) 0.03025(17)
C7A C 0.0123(4) -0.1393(2) 0.06240(13)
C7B C -0.1393(2) -0.0123(4) -0.06240(13)
C7C C -0.0123(4) 0.1393(2) 0.06240(13)
H6A H -0.0496 -0.1353 0.0443
H6B H -0.1353 0.0496 -0.0443
H6C H 0.0496 0.1353 0.0443
H7A H -0.0010 -0.1895 0.0867
H7B H -0.1895 0.0010 -0.0867
H7C H 0.0010 0.1895 0.0867
Li1A Li 0.0000 0.0000 0.1064(3)
N1B N -0.0188(3) 0.1052(3) -0.15997(12)
N1A N -0.1052(3) -0.0188(3) 0.15997(12)
N1C N 0.1052(3) 0.0188(3) 0.15997(12)
C8B C 0.0161(5) 0.0528(4) -0.20110(17)
C8A C -0.0528(4) 0.0161(5) 0.20110(17)
C8C C 0.0528(4) -0.0161(5) 0.20110(17)
H8B H 0.0886 0.0557 -0.2020
H8C H 0.0557 -0.0886 0.2020
H8A H -0.0557 0.0886 0.2020
H9B H -0.0092 0.0855 -0.2297
H9C H 0.0855 0.0092 0.2297
H9A H -0.0855 -0.0092 0.2297
C9B C -0.1230(4) 0.1329(4) -0.1646(2)
C9C C 0.1329(4) 0.1230(4) 0.1646(2)
C9A C -0.1329(4) -0.1230(4) 0.1646(2)
H10B H -0.1341 0.1619 -0.1957
H10C H 0.1619 0.1341 0.1957
H10A H -0.1619 -0.1341 0.1957
H11B H -0.1399 0.1809 -0.1403
H11C H 0.1809 0.1399 0.1403
H11A H -0.1809 -0.1399 0.1403
H12B H -0.1642 0.0745 -0.1610
H12C H 0.0745 0.1642 0.1610
H12A H -0.0745 -0.1642 0.1610
C10B C 0.0428(4) 0.1977(4) -0.15439(18)
C10C C 0.1977(4) -0.0428(4) 0.15439(18)
C10A C -0.1977(4) 0.0428(4) 0.15439(18)
H13B H 0.0383 0.2372 -0.1831
H13C H 0.2372 -0.0383 0.1831
H13A H -0.2372 0.0383 0.1831
H14B H 0.1114 0.1795 -0.1488
H14C H 0.1795 -0.1114 0.1488
H14A H -0.1795 0.1114 0.1488
H15B H 0.0183 0.2359 -0.1277
H15C H 0.2359 -0.0183 0.1277
H15A H -0.2359 0.0183 0.1277
loop_
_geom_bond_atom_site_label_1
_geom_bond_atom_site_label_2
_geom_bond_site_symmetry_1
_geom_bond_site_symmetry_2
Ca1 C6 1_555 1_555
C1 H1 1_555 1_555
C2 C1 1_555 1_555
H2 C2 1_555 1_555
C3 C2 1_555 1_555
H3 C3 1_555 1_555
C4 C3 1_555 1_555
H4 C4 1_555 1_555
C5 C4 1_555 1_555
H5 C5 1_555 1_555
C6 C1 1_555 1_555
C7 Ca1 1_555 1_555
H6 Ca1 1_555 1_555
H7 C7 1_555 1_555
Li1 C7 1_555 1_555
N1 Li1 1_555 1_555
C8 N1 1_555 1_555
H8 C8 1_555 1_555
H9 C8 1_555 1_555
C9 N1 1_555 1_555
H10 C9 1_555 1_555
H11 C9 1_555 1_555
H12 C9 1_555 1_555
C10 N1 1_555 1_555
H13 C10 1_555 1_555
H14 C10 1_555 1_555
H15 C10 1_555 1_555
C1A H1A 1_555 1_555
C1B H1B 1_555 1_555
C1C H1C 1_555 1_555
C2A C1A 1_555 1_555
C2B C1B 1_555 1_555
C2C C1C 1_555 1_555
H2A C2A 1_555 1_555
H2B C2B 1_555 1_555
H2C C2C 1_555 1_555
C3A C2A 1_555 1_555
C3B C2B 1_555 1_555
C3C C2C 1_555 1_555
H3A C3A 1_555 1_555
H3B C3B 1_555 1_555
H3C C3C 1_555 1_555
C4A C3A 1_555 1_555
C4B C3B 1_555 1_555
C4C C3C 1_555 1_555
H4A C4A 1_555 1_555
H4B C4B 1_555 1_555
H4C C4C 1_555 1_555
C5A C4A 1_555 1_555
C5B C4B 1_555 1_555
C5C C4C 1_555 1_555
H5A C5A 1_555 1_555
H5B C5B 1_555 1_555
H5C C5C 1_555 1_555
C6A Ca1 1_555 1_555
C6B Ca1 1_555 1_555
C6C Ca1 1_555 1_555
C7A Ca1 1_555 1_555
C7B Ca1 1_555 1_555
C7C Ca1 1_555 1_555
H6A Ca1 1_555 1_555
H6B Ca1 1_555 1_555
H6C Ca1 1_555 1_555
H7A C7A 1_555 1_555
H7B C7B 1_555 1_555
H7C C7C 1_555 1_555
Li1A C7A 1_555 1_555
N1B Li1 1_555 1_555
N1A Li1A 1_555 1_555
N1C Li1A 1_555 1_555
C8B C8 1_555 1_555
C8A N1A 1_555 1_555
C8C N1C 1_555 1_555
H8B C8B 1_555 1_555
H8C C8C 1_555 1_555
H8A C8A 1_555 1_555
H9B C8B 1_555 1_555
H9C C8C 1_555 1_555
H9A C8A 1_555 1_555
C9B N1B 1_555 1_555
C9C N1C 1_555 1_555
C9A N1A 1_555 1_555
H10B C9B 1_555 1_555
H10C C9C 1_555 1_555
H10A C9A 1_555 1_555
H11B C9B 1_555 1_555
H11C C9C 1_555 1_555
H11A C9A 1_555 1_555
H12B C9B 1_555 1_555
H12C C9C 1_555 1_555
H12A C9A 1_555 1_555
C10B N1B 1_555 1_555
C10C N1C 1_555 1_555
C10A N1A 1_555 1_555
H13B C10B 1_555 1_555
H13C C10C 1_555 1_555
H13A C10A 1_555 1_555
H14B C10B 1_555 1_555
H14C C10C 1_555 1_555
H14A C10A 1_555 1_555
H15B C10B 1_555 1_555
H15C C10C 1_555 1_555
H15A C10A 1_555 1_555
C5 C6 1_555 1_555
C6 C7 1_555 1_555
C7 H6 1_555 1_555
Li1 C7B 1_555 1_555
C1A C6A 1_555 1_555
C1B C6B 1_555 1_555
C1C C6C 1_555 1_555
C5A C6A 1_555 1_555
C5B C6B 1_555 1_555
C5C C6C 1_555 1_555
C6A C7A 1_555 1_555
C6B C7B 1_555 1_555
C6C C7C 1_555 1_555
C7A H6A 1_555 1_555
C7B H6B 1_555 1_555
C7C H6C 1_555 1_555
C7C Li1A 1_555 1_555
N1B C8B 1_555 1_555
C8A C8C 1_555 1_555

#END
