
#######################################################################
#
#                 Cambridge Crystallographic Data Centre
#                                CCDC 
#
#######################################################################
#
# If this CIF has been generated from an entry in the Cambridge 
# Structural Database, then it will include bibliographic, chemical, 
# crystal, experimental, refinement or atomic coordinate data resulting 
# from the CCDC's data processing and validation procedures.
#
#######################################################################

data_CIZXIU
_chemical_formula_moiety         'C12 H15 F1 N2 O2 S1'
_chemical_name_systematic        
N-(ethyl(2-hydroxyethyl)carbamothioyl)-3-fluorobenzamide
_symmetry_cell_setting           orthorhombic
_symmetry_space_group_name_H-M   'P 21 21 21'
_symmetry_Int_Tables_number      19
_space_group_name_Hall           'P 2ac 2ab'
loop_
_symmetry_equiv_pos_site_id
_symmetry_equiv_pos_as_xyz
1 x,y,z
2 1/2+x,1/2-y,-z
3 -x,1/2+y,1/2-z
4 1/2-x,-y,1/2+z
_cell_length_a                   6.0205(3)
_cell_length_b                   12.9441(6)
_cell_length_c                   17.1071(9)
_cell_angle_alpha                90
_cell_angle_beta                 90
_cell_angle_gamma                90
_cell_volume                     1333.16
_exptl_crystal_colour            colorless
_exptl_crystal_description       block
_cell_formula_units_Z            4
_exptl_crystal_recrystallization_method ethanol
loop_
_atom_site_label
_atom_site_type_symbol
_atom_site_fract_x
_atom_site_fract_y
_atom_site_fract_z
F1 F -0.5492(2) 0.22048(12) 0.06124(8)
S1 S 0.25957(10) 0.08756(4) 0.35274(3)
O1 O 0.2778(3) 0.02641(9) 0.17285(8)
O2 O 0.0320(2) 0.39036(10) 0.21034(9)
H1 H -0.053(3) 0.4382(14) 0.2024(14)
N1 N 0.1564(2) 0.18174(10) 0.21762(8)
H2 H 0.0836 0.2359 0.2039
N2 N 0.3727(2) 0.27479(10) 0.30261(8)
C1 C -0.2089(3) 0.16654(13) 0.11163(9)
H3 H -0.2228 0.2134 0.1526
C2 C -0.3693(3) 0.15905(16) 0.05543(10)
C3 C -0.3574(4) 0.09202(19) -0.00610(11)
H4 H -0.4698 0.0890 -0.0433
C4 C -0.1751(4) 0.02952(18) -0.01123(13)
H5 H -0.1633 -0.0167 -0.0526
C5 C -0.0084(4) 0.03385(15) 0.04385(11)
H6 H 0.1148 -0.0091 0.0394
C6 C -0.0245(3) 0.10242(12) 0.10612(10)
C7 C 0.1516(3) 0.09866(12) 0.16784(10)
C8 C 0.2701(3) 0.18551(11) 0.28899(10)
C9 C 0.4712(4) 0.29815(16) 0.37932(11)
H7 H 0.3884 0.2621 0.4196
H8 H 0.4587 0.3717 0.3893
C10 C 0.7126(4) 0.26688(19) 0.38404(16)
H9 H 0.7259 0.1941 0.3743
H10 H 0.7690 0.2823 0.4352
H11 H 0.7964 0.3044 0.3456
C11 C 0.4091(3) 0.35433(13) 0.24232(10)
H12 H 0.4176 0.3211 0.1916
H13 H 0.5505 0.3879 0.2520
C12 C 0.2301(4) 0.43491(12) 0.24008(11)
H14 H 0.2041 0.4615 0.2923
H15 H 0.2760 0.4919 0.2070
loop_
_geom_bond_atom_site_label_1
_geom_bond_atom_site_label_2
_geom_bond_site_symmetry_1
_geom_bond_site_symmetry_2
F1 C2 1_555 1_555
S1 C8 1_555 1_555
O1 C7 1_555 1_555
O2 H1 1_555 1_555
N1 H2 1_555 1_555
N2 C8 1_555 1_555
C1 H3 1_555 1_555
C2 C1 1_555 1_555
C3 C2 1_555 1_555
H4 C3 1_555 1_555
C4 C3 1_555 1_555
H5 C4 1_555 1_555
C5 C4 1_555 1_555
H6 C5 1_555 1_555
C6 C1 1_555 1_555
C7 N1 1_555 1_555
C8 N1 1_555 1_555
C9 N2 1_555 1_555
H7 C9 1_555 1_555
H8 C9 1_555 1_555
C10 C9 1_555 1_555
H9 C10 1_555 1_555
H10 C10 1_555 1_555
H11 C10 1_555 1_555
C11 N2 1_555 1_555
H12 C11 1_555 1_555
H13 C11 1_555 1_555
C12 O2 1_555 1_555
H14 C12 1_555 1_555
H15 C12 1_555 1_555
C5 C6 1_555 1_555
C6 C7 1_555 1_555
C11 C12 1_555 1_555

#END
