
#######################################################################
#
#                 Cambridge Crystallographic Data Centre
#                                CCDC 
#
#######################################################################
#
# If this CIF has been generated from an entry in the Cambridge 
# Structural Database, then it will include bibliographic, chemical, 
# crystal, experimental, refinement or atomic coordinate data resulting 
# from the CCDC's data processing and validation procedures.
#
#######################################################################

data_CIZYOB
_chemical_formula_moiety         'C11 H11 Cl1 N4 O1 S1'
_chemical_name_systematic        
4-((5-chloro-2-hydroxybenzylidene)amino)-5-ethyl-2,4-dihydro-3H-1,2,4-triazole-3-thione
_symmetry_cell_setting           monoclinic
_symmetry_space_group_name_H-M   'P 21'
_symmetry_Int_Tables_number      4
_space_group_name_Hall           'P 2yb'
loop_
_symmetry_equiv_pos_site_id
_symmetry_equiv_pos_as_xyz
1 x,y,z
2 -x,1/2+y,-z
_cell_length_a                   6.297(3)
_cell_length_b                   16.418(8)
_cell_length_c                   12.290(6)
_cell_angle_alpha                90
_cell_angle_beta                 90.997(7)
_cell_angle_gamma                90
_cell_volume                     1270.4
_exptl_crystal_colour            colorless
_exptl_crystal_description       block
_cell_formula_units_Z            4
loop_
_atom_site_label
_atom_site_type_symbol
_atom_site_fract_x
_atom_site_fract_y
_atom_site_fract_z
Cl1 Cl 0.3625(2) 0.60813(11) 1.00331(11)
N1 N 0.2557(6) 0.7267(3) 0.2890(3)
H1 H 0.3494 0.7463 0.2461
N2 N 0.0832(7) 0.6828(3) 0.2520(3)
N3 N 0.0891(6) 0.6948(3) 0.4301(3)
N4 N 0.0053(6) 0.6921(3) 0.5349(3)
O1 O -0.2784(6) 0.7242(3) 0.6907(3)
H2 H -0.2346 0.7258 0.6283
S1 S 0.44562(18) 0.78763(8) 0.47087(9)
C1 C 0.2662(7) 0.7364(3) 0.3962(3)
C2 C -0.0177(8) 0.6646(3) 0.3409(4)
C3 C -0.2158(8) 0.6175(3) 0.3463(4)
H3 H -0.3226 0.6503 0.3816
H4 H -0.1909 0.5695 0.3908
C4 C -0.3003(8) 0.5911(3) 0.2359(4)
H5 H -0.1964 0.5578 0.2009
H6 H -0.3294 0.6383 0.1921
H7 H -0.4287 0.5605 0.2447
C5 C 0.1366(8) 0.6718(3) 0.6103(4)
H8 H 0.2741 0.6570 0.5923
C6 C 0.0756(8) 0.6715(3) 0.7232(4)
C7 C -0.1230(8) 0.6988(3) 0.7578(4)
C8 C -0.1660(8) 0.7003(3) 0.8684(4)
H9 H -0.2956 0.7203 0.8918
C9 C -0.0194(9) 0.6725(4) 0.9431(4)
H10 H -0.0502 0.6730 1.0168
C10 C 0.1759(9) 0.6436(3) 0.9084(4)
C11 C 0.2243(8) 0.6449(3) 0.8005(4)
H11 H 0.3576 0.6278 0.7785
Cl2 Cl -0.3045(2) 0.97311(11) -0.41889(11)
N5 N -0.2140(6) 0.8673(3) 0.2996(3)
H12 H -0.3078 0.8485 0.3430
N6 N -0.0421(7) 0.9120(3) 0.3347(3)
N7 N -0.0462(6) 0.8961(2) 0.1579(3)
N8 N 0.0415(6) 0.8959(3) 0.0537(3)
O2 O 0.3237(5) 0.8558(3) -0.1000(3)
H13 H 0.2853 0.8632 -0.0374
S2 S -0.40057(19) 0.80215(8) 0.11776(9)
C12 C -0.2233(7) 0.8553(3) 0.1915(4)
C13 C 0.0582(8) 0.9277(3) 0.2478(4)
C14 C 0.2574(8) 0.9764(4) 0.2401(4)
H14 H 0.2321 1.0232 0.1935
H15 H 0.3670 0.9434 0.2075
C15 C 0.3339(9) 1.0054(3) 0.3517(4)
H16 H 0.3540 0.9593 0.3988
H17 H 0.2298 1.0412 0.3820
H18 H 0.4659 1.0340 0.3448
C16 C -0.0890(8) 0.9128(3) -0.0232(4)
H19 H -0.2273 0.9275 -0.0064
C17 C -0.0282(8) 0.9097(3) -0.1362(4)
C18 C 0.1690(8) 0.8807(3) -0.1703(4)
C19 C 0.2111(8) 0.8760(3) -0.2799(4)
H20 H 0.3395 0.8542 -0.3024
C20 C 0.0655(8) 0.9030(3) -0.3562(4)
H21 H 0.0955 0.8999 -0.4299
C21 C -0.1263(9) 0.9350(3) -0.3228(4)
C22 C -0.1739(8) 0.9368(3) -0.2148(4)
H22 H -0.3053 0.9563 -0.1935
loop_
_geom_bond_atom_site_label_1
_geom_bond_atom_site_label_2
_geom_bond_site_symmetry_1
_geom_bond_site_symmetry_2
Cl1 C10 1_555 1_555
N1 H1 1_555 1_555
N2 N1 1_555 1_555
N3 N4 1_555 1_555
N4 C5 1_555 1_555
O1 H2 1_555 1_555
S1 C1 1_555 1_555
C1 N1 1_555 1_555
C2 N2 1_555 1_555
C3 C2 1_555 1_555
H3 C3 1_555 1_555
H4 C3 1_555 1_555
C4 C3 1_555 1_555
H5 C4 1_555 1_555
H6 C4 1_555 1_555
H7 C4 1_555 1_555
C5 H8 1_555 1_555
C6 C5 1_555 1_555
C7 O1 1_555 1_555
C8 C7 1_555 1_555
H9 C8 1_555 1_555
C9 C8 1_555 1_555
H10 C9 1_555 1_555
C10 C9 1_555 1_555
C11 C6 1_555 1_555
H11 C11 1_555 1_555
Cl2 C21 1_555 1_555
N5 H12 1_555 1_555
N6 N5 1_555 1_555
N7 N8 1_555 1_555
N8 C16 1_555 1_555
O2 H13 1_555 1_555
S2 C12 1_555 1_555
C12 N5 1_555 1_555
C13 N6 1_555 1_555
C14 C13 1_555 1_555
H14 C14 1_555 1_555
H15 C14 1_555 1_555
C15 C14 1_555 1_555
H16 C15 1_555 1_555
H17 C15 1_555 1_555
H18 C15 1_555 1_555
C16 H19 1_555 1_555
C17 C16 1_555 1_555
C18 O2 1_555 1_555
C19 C18 1_555 1_555
H20 C19 1_555 1_555
C20 C19 1_555 1_555
H21 C20 1_555 1_555
C21 C20 1_555 1_555
C22 C17 1_555 1_555
H22 C22 1_555 1_555
N3 C1 1_555 1_555
N3 C2 1_555 1_555
C6 C7 1_555 1_555
C10 C11 1_555 1_555
N7 C12 1_555 1_555
N7 C13 1_555 1_555
C17 C18 1_555 1_555
C21 C22 1_555 1_555

#END
