
#######################################################################
#
#                 Cambridge Crystallographic Data Centre
#                                CCDC 
#
#######################################################################
#
# If this CIF has been generated from an entry in the Cambridge 
# Structural Database, then it will include bibliographic, chemical, 
# crystal, experimental, refinement or atomic coordinate data resulting 
# from the CCDC's data processing and validation procedures.
#
#######################################################################

data_CIZZIW
_chemical_name_common            
4-o-Carboxyphenyl-2,6-bis(2-pyrazinyl)pyridine
_chemical_formula_moiety         'C20 H13 N5 O2'
_chemical_name_systematic        
'2-(2,6-bis(pyrazin-2-yl)pyridin-4-yl)benzoic acid'
_symmetry_cell_setting           triclinic
_symmetry_space_group_name_H-M   'P -1'
_symmetry_Int_Tables_number      2
_space_group_name_Hall           '-P 1'
loop_
_symmetry_equiv_pos_site_id
_symmetry_equiv_pos_as_xyz
1 x,y,z
2 -x,-y,-z
_cell_length_a                   7.0253(9)
_cell_length_b                   10.9070(14)
_cell_length_c                   11.3218(14)
_cell_angle_alpha                99.345(2)
_cell_angle_beta                 99.266(2)
_cell_angle_gamma                102.513(2)
_cell_volume                     818.168
_exptl_crystal_colour            yellow
_exptl_crystal_description       block
_cell_formula_units_Z            2
loop_
_atom_site_label
_atom_site_type_symbol
_atom_site_fract_x
_atom_site_fract_y
_atom_site_fract_z
C1 C 0.1728(4) -0.3687(3) 0.4584(3)
H1 H 0.1637 -0.4541 0.4627
C2 C 0.1161(4) -0.3393(3) 0.3473(3)
H2 H 0.0671 -0.4056 0.2790
C3 C 0.1994(3) -0.1281(2) 0.4341(2)
C4 C 0.2524(4) -0.1594(3) 0.5464(2)
H3 H 0.2986 -0.0936 0.6153
C5 C 0.2180(3) 0.0075(2) 0.4215(2)
C6 C 0.1703(4) 0.0386(2) 0.3081(2)
H4 H 0.1276 -0.0256 0.2378
C7 C 0.1866(4) 0.1655(2) 0.29993(19)
C8 C 0.2548(3) 0.2569(2) 0.4075(2)
H5 H 0.2702 0.3434 0.4059
C9 C 0.3002(3) 0.2190(2) 0.5181(2)
C10 C 0.3715(3) 0.3160(2) 0.63435(19)
C11 C 0.4319(4) 0.2822(3) 0.7455(2)
H6 H 0.4242 0.1963 0.7470
C12 C 0.5066(4) 0.4901(3) 0.8416(2)
H7 H 0.5546 0.5539 0.9120
C13 C 0.4448(4) 0.5244(3) 0.7330(2)
H8 H 0.4507 0.6102 0.7324
C14 C 0.1170(4) 0.2064(2) 0.1841(2)
C15 C -0.0200(4) 0.2817(3) 0.1901(2)
H9 H -0.0553 0.3058 0.2646
C16 C -0.1048(4) 0.3215(3) 0.0891(2)
H10 H -0.1973 0.3704 0.0960
C17 C -0.0530(4) 0.2893(3) -0.0211(2)
H11 H -0.1086 0.3168 -0.0891
C18 C 0.0815(4) 0.2162(2) -0.0302(2)
H12 H 0.1162 0.1944 -0.1053
C19 C 0.1680(4) 0.1736(2) 0.0699(2)
C20 C 0.3147(4) 0.0977(2) 0.0456(2)
N1 N 0.2823(3) 0.09612(19) 0.52578(16)
N2 N 0.2399(4) -0.2799(2) 0.5597(2)
N3 N 0.1286(3) -0.2189(2) 0.33310(18)
N4 N 0.5000(4) 0.3688(2) 0.84957(18)
N5 N 0.3768(3) 0.4380(2) 0.62871(17)
O1 O 0.4479(3) 0.0935(2) 0.13504(16)
H13 H 0.5194 0.0491 0.1102
O2 O 0.3067(3) 0.0435(2) -0.06218(15)
loop_
_geom_bond_atom_site_label_1
_geom_bond_atom_site_label_2
_geom_bond_site_symmetry_1
_geom_bond_site_symmetry_2
C1 H1 1_555 1_555
C2 C1 1_555 1_555
H2 C2 1_555 1_555
C3 C4 1_555 1_555
C4 H3 1_555 1_555
C5 C3 1_555 1_555
C6 C5 1_555 1_555
H4 C6 1_555 1_555
C7 C6 1_555 1_555
C8 C7 1_555 1_555
H5 C8 1_555 1_555
C9 C8 1_555 1_555
C10 C9 1_555 1_555
C11 C10 1_555 1_555
H6 C11 1_555 1_555
C12 H7 1_555 1_555
C13 C12 1_555 1_555
H8 C13 1_555 1_555
C14 C7 1_555 1_555
C15 C14 1_555 1_555
H9 C15 1_555 1_555
C16 C15 1_555 1_555
H10 C16 1_555 1_555
C17 C16 1_555 1_555
H11 C17 1_555 1_555
C18 C17 1_555 1_555
H12 C18 1_555 1_555
C19 C14 1_555 1_555
C20 C19 1_555 1_555
N1 C5 1_555 1_555
N2 C1 1_555 1_555
N3 C2 1_555 1_555
N4 C11 1_555 1_555
N5 C10 1_555 1_555
O1 C20 1_555 1_555
H13 O1 1_555 1_555
O2 C20 1_555 1_555
C3 N3 1_555 1_555
C4 N2 1_555 1_555
C9 N1 1_555 1_555
C12 N4 1_555 1_555
C13 N5 1_555 1_555
C18 C19 1_555 1_555

#END
