
#######################################################################
#
#                 Cambridge Crystallographic Data Centre
#                                CCDC 
#
#######################################################################
#
# If this CIF has been generated from an entry in the Cambridge 
# Structural Database, then it will include bibliographic, chemical, 
# crystal, experimental, refinement or atomic coordinate data resulting 
# from the CCDC's data processing and validation procedures.
#
#######################################################################

data_CLBZAP11
_chemical_formula_moiety         'C7 H5 Cl1 O2'
_chemical_name_systematic        '4-Chlorobenzoic acid'
_symmetry_cell_setting           triclinic
_symmetry_space_group_name_H-M   'P -1'
_symmetry_Int_Tables_number      2
_space_group_name_Hall           '-P 1'
loop_
_symmetry_equiv_pos_site_id
_symmetry_equiv_pos_as_xyz
1 x,y,z
2 -x,-y,-z
_cell_length_a                   3.8686(13)
_cell_length_b                   6.227(2)
_cell_length_c                   14.243(5)
_cell_angle_alpha                92.794(7)
_cell_angle_beta                 95.149(7)
_cell_angle_gamma                91.493(6)
_cell_volume                     341.16
_cell_formula_units_Z            2
loop_
_atom_site_label
_atom_site_type_symbol
_atom_site_fract_x
_atom_site_fract_y
_atom_site_fract_z
H1 H 0.142(10) 1.359(6) 1.025(3)
Cl1 Cl 0.40339(17) 0.71372(10) 0.57365(4)
O1 O 0.2099(5) 1.2587(3) 0.97904(10)
O2 O -0.0590(4) 1.4806(2) 0.88054(10)
C1 C 0.1040(5) 1.3128(3) 0.89603(14)
C2 C 0.1828(5) 1.1663(3) 0.81597(13)
C3 C 0.1693(5) 1.0846(3) 0.64872(14)
H2 H 0.1161 1.1225 0.5868
C4 C 0.4036(5) 0.8302(3) 0.75853(15)
H3 H 0.5046 0.6989 0.7697
C5 C 0.3192(5) 0.8891(3) 0.66750(15)
C6 C 0.1007(5) 1.2219(3) 0.72353(14)
H4 H -0.0013 1.3527 0.7119
C7 C 0.3359(5) 0.9690(3) 0.83303(14)
H5 H 0.3925 0.9311 0.8948
loop_
_geom_bond_atom_site_label_1
_geom_bond_atom_site_label_2
_geom_bond_site_symmetry_1
_geom_bond_site_symmetry_2
H1 O1 1_555 1_555
Cl1 C5 1_555 1_555
O1 C1 1_555 1_555
O2 C1 1_555 1_555
C1 C2 1_555 1_555
C2 C6 1_555 1_555
C3 H2 1_555 1_555
C4 H3 1_555 1_555
C5 C3 1_555 1_555
C6 C3 1_555 1_555
H4 C6 1_555 1_555
C7 C2 1_555 1_555
H5 C7 1_555 1_555
C4 C5 1_555 1_555
C4 C7 1_555 1_555

#END
