
#######################################################################
#
#                 Cambridge Crystallographic Data Centre
#                                CCDC 
#
#######################################################################
#
# If this CIF has been generated from an entry in the Cambridge 
# Structural Database, then it will include bibliographic, chemical, 
# crystal, experimental, refinement or atomic coordinate data resulting 
# from the CCDC's data processing and validation procedures.
#
#######################################################################

data_CLNOBE03
_chemical_formula_moiety         'C6 H2 Cl1 N3 O6'
_chemical_name_systematic        2,4,6-Trinitrochlorobenzene
_symmetry_cell_setting           monoclinic
_symmetry_space_group_name_H-M   'P 21/c'
_symmetry_Int_Tables_number      14
_space_group_name_Hall           '-P 2ybc'
loop_
_symmetry_equiv_pos_site_id
_symmetry_equiv_pos_as_xyz
1 x,y,z
2 -x,1/2+y,1/2-z
3 -x,-y,-z
4 x,1/2-y,1/2+z
_cell_length_a                   12.501(1)
_cell_length_b                   6.803(1)
_cell_length_c                   11.038(1)
_cell_angle_alpha                90
_cell_angle_beta                 102.842(9)
_cell_angle_gamma                90
_cell_volume                     915.239
_exptl_crystal_colour            yellow
_cell_formula_units_Z            4
_exptl_crystal_recrystallization_method acetone
loop_
_atom_site_label
_atom_site_type_symbol
_atom_site_fract_x
_atom_site_fract_y
_atom_site_fract_z
Cl1 Cl 0.31922(7) 0.05242(10) 0.41450(7)
O1 O 0.13955(19) 0.1897(3) 0.21951(19)
O2 O 0.00582(17) 0.3101(3) 0.2859(2)
O3 O 0.10614(18) 0.9034(3) 0.5319(2)
O4 O 0.23629(18) 0.8710(3) 0.6942(2)
N1 N 0.1027(2) 0.2794(3) 0.2951(2)
N2 N 0.18319(18) 0.8155(3) 0.5941(2)
N3 N 0.44847(18) 0.2844(4) 0.6222(3)
C1 C 0.27718(19) 0.2756(3) 0.4588(2)
C2 C 0.17855(18) 0.3653(3) 0.40379(19)
C3 C 0.14671(18) 0.5415(3) 0.44757(19)
H1 H 0.0800 0.5991 0.4106
C4 C 0.21550(17) 0.6287(3) 0.54624(19)
C5 C 0.31464(18) 0.5476(3) 0.6033(2)
H2 H 0.3607 0.6095 0.6702
C6 C 0.34314(17) 0.3723(4) 0.5581(2)
O5 O 0.5168(7) 0.283(2) 0.5605(11)
O6 O 0.4526(12) 0.2334(14) 0.7275(6)
O7? O 0.5354(8) 0.328(3) 0.5999(12)
O8? O 0.4476(13) 0.1533(12) 0.6957(8)
loop_
_geom_bond_atom_site_label_1
_geom_bond_atom_site_label_2
_geom_bond_site_symmetry_1
_geom_bond_site_symmetry_2
Cl1 C1 1_555 1_555
O1 N1 1_555 1_555
O2 N1 1_555 1_555
O3 N2 1_555 1_555
O4 N2 1_555 1_555
N1 C2 1_555 1_555
N2 C4 1_555 1_555
N3 C6 1_555 1_555
C1 C2 1_555 1_555
C2 C3 1_555 1_555
C3 H1 1_555 1_555
C4 C3 1_555 1_555
C5 C4 1_555 1_555
H2 C5 1_555 1_555
C6 C1 1_555 1_555
O5 N3 1_555 1_555
O6 N3 1_555 1_555
C5 C6 1_555 1_555

#END
