
#######################################################################
#
#                 Cambridge Crystallographic Data Centre
#                                CCDC 
#
#######################################################################
#
# If this CIF has been generated from an entry in the Cambridge 
# Structural Database, then it will include bibliographic, chemical, 
# crystal, experimental, refinement or atomic coordinate data resulting 
# from the CCDC's data processing and validation procedures.
#
#######################################################################

data_CLPXCN
_chemical_formula_moiety         'C23 H14 Cl4 O1'
_chemical_name_systematic        
1,1,1a,7a-Tetrachloro-1a,2,7,7a-tetrahydro-2,7-diphenyl-2,7-epoxy-1H-cyclopropa(b)naphthalene
_symmetry_cell_setting           monoclinic
_symmetry_space_group_name_H-M   'P 21/c'
_symmetry_Int_Tables_number      14
_space_group_name_Hall           '-P 2ybc'
loop_
_symmetry_equiv_pos_site_id
_symmetry_equiv_pos_as_xyz
1 x,y,z
2 -x,1/2+y,1/2-z
3 -x,-y,-z
4 x,1/2-y,1/2+z
_cell_length_a                   12.305(3)
_cell_length_b                   12.275(3)
_cell_length_c                   13.998(4)
_cell_angle_alpha                90
_cell_angle_beta                 107.35(2)
_cell_angle_gamma                90
_cell_volume                     2018.11
_cell_formula_units_Z            4
loop_
_atom_site_label
_atom_site_type_symbol
_atom_site_fract_x
_atom_site_fract_y
_atom_site_fract_z
Cl1 Cl 0.13050 0.29190 -0.40610
Cl2 Cl 0.33530 0.39880 -0.29300
Cl3 Cl 0.46990 0.17470 -0.25570
Cl4 Cl 0.33010 0.28130 -0.09360
C10 C 0.25120 0.03740 -0.14690
C11 C 0.30450 -0.00630 -0.21240
C12 C 0.26260 0.06100 -0.30840
C13 C 0.27170 0.00170 -0.05080
C14 C 0.35140 -0.08520 -0.02110
C15 C 0.40400 -0.12960 -0.08640
C16 C 0.38210 -0.09030 -0.18340
C17 C 0.26240 0.01210 -0.40710
C18 C 0.36050 -0.03010 -0.42090
C19 C 0.35700 -0.08060 -0.51120
C20 C 0.25540 -0.08870 -0.58600
C21 C 0.15860 -0.04660 -0.57340
C22 C 0.16020 0.00540 -0.48430
C23 C 0.07060 0.16230 -0.17840
C24 C 0.03580 0.27040 -0.18570
C25 C -0.06240 0.29870 -0.16180
C26 C -0.12550 0.22290 -0.13160
C27 C -0.09180 0.11420 -0.12490
C28 C 0.00610 0.08390 -0.14900
C6 C 0.25610 0.27780 -0.30480
C7 C 0.32300 0.17430 -0.27890
C8 C 0.26310 0.22020 -0.20760
C9 C 0.17530 0.12940 -0.20420
O5 O 0.14910 0.08810 -0.30640
loop_
_geom_bond_atom_site_label_1
_geom_bond_atom_site_label_2
_geom_bond_site_symmetry_1
_geom_bond_site_symmetry_2
Cl1 C6 1_555 1_555
Cl2 C6 1_555 1_555
Cl3 C7 1_555 1_555
Cl4 C8 1_555 1_555
C10 C11 1_555 1_555
C11 C12 1_555 1_555
C12 C17 1_555 1_555
C13 C10 1_555 1_555
C14 C13 1_555 1_555
C15 C14 1_555 1_555
C16 C11 1_555 1_555
C17 C18 1_555 1_555
C18 C19 1_555 1_555
C19 C20 1_555 1_555
C20 C21 1_555 1_555
C21 C22 1_555 1_555
C22 C17 1_555 1_555
C23 C24 1_555 1_555
C24 C25 1_555 1_555
C25 C26 1_555 1_555
C26 C27 1_555 1_555
C27 C28 1_555 1_555
C28 C23 1_555 1_555
C6 C7 1_555 1_555
C7 C12 1_555 1_555
C8 C6 1_555 1_555
C9 C10 1_555 1_555
O5 C12 1_555 1_555
C15 C16 1_555 1_555
C23 C9 1_555 1_555
C7 C8 1_555 1_555
C8 C9 1_555 1_555
C9 O5 1_555 1_555

#END
