
#######################################################################
#
#                 Cambridge Crystallographic Data Centre
#                                CCDC 
#
#######################################################################
#
# If this CIF has been generated from an entry in the Cambridge 
# Structural Database, then it will include bibliographic, chemical, 
# crystal, experimental, refinement or atomic coordinate data resulting 
# from the CCDC's data processing and validation procedures.
#
#######################################################################

data_COBCUS01
_chemical_formula_moiety         'C28 H30 N2 O2 S1'
_chemical_name_systematic        
3',6'-bis(diethylamino)-3H-spiro[2-benzothiophene-1,9'-xanthen]-3-one
_symmetry_cell_setting           monoclinic
_symmetry_space_group_name_H-M   'P 21/n'
_symmetry_Int_Tables_number      14
_space_group_name_Hall           '-P 2yn'
loop_
_symmetry_equiv_pos_site_id
_symmetry_equiv_pos_as_xyz
1 x,y,z
2 1/2-x,1/2+y,1/2-z
3 -x,-y,-z
4 1/2+x,1/2-y,1/2+z
_cell_length_a                   10.9203(5)
_cell_length_b                   15.6081(7)
_cell_length_c                   14.5574(7)
_cell_angle_alpha                90
_cell_angle_beta                 97.6870(10)
_cell_angle_gamma                90
_cell_volume                     2458.94
_exptl_crystal_colour            colorless
_exptl_crystal_description       block
_cell_formula_units_Z            4
_exptl_crystal_recrystallization_method dichloromethane/acetonitrile
loop_
_atom_site_label
_atom_site_type_symbol
_atom_site_fract_x
_atom_site_fract_y
_atom_site_fract_z
S1 S 0.51502(4) 0.20778(3) 0.61282(3)
O1 O 0.16432(13) 0.27218(7) 0.65798(9)
O2 O 0.68511(13) 0.14755(12) 0.51808(12)
N1 N 0.20835(14) 0.56945(8) 0.61718(10)
N2 N 0.0195(2) -0.01254(11) 0.66827(15)
C1 C 0.22519(14) 0.33505(9) 0.61686(10)
C2 C 0.18786(15) 0.41703(10) 0.63439(11)
H1 H 0.1258 0.4253 0.6715
C3 C 0.24152(14) 0.48760(9) 0.59750(10)
C4 C 0.33237(16) 0.47036(10) 0.54005(12)
H2 H 0.3690 0.5155 0.5122
C5 C 0.36747(15) 0.38856(11) 0.52469(12)
H3 H 0.4284 0.3797 0.4868
C6 C 0.31663(13) 0.31770(9) 0.56297(10)
C7 C 0.35731(12) 0.22786(9) 0.54723(10)
C8 C 0.26844(13) 0.16455(9) 0.57870(10)
C9 C 0.17857(15) 0.18865(9) 0.63135(11)
C10 C 0.09682(17) 0.13169(10) 0.66187(13)
H4 H 0.0381 0.1513 0.6976
C11 C 0.10083(17) 0.04542(11) 0.64009(13)
C12 C 0.19312(18) 0.01966(11) 0.58802(13)
H5 H 0.2001 -0.0379 0.5732
C13 C 0.27293(16) 0.07736(10) 0.55866(12)
H6 H 0.3328 0.0579 0.5239
C14 C 0.37712(13) 0.21265(9) 0.44770(10)
C15 C 0.28665(15) 0.22741(11) 0.37376(11)
H7 H 0.2096 0.2484 0.3833
C16 C 0.31269(19) 0.21042(14) 0.28536(13)
H8 H 0.2525 0.2199 0.2349
C17 C 0.4267(2) 0.17956(16) 0.27091(13)
H9 H 0.4424 0.1684 0.2108
C18 C 0.51590(18) 0.16527(15) 0.34288(14)
H10 H 0.5929 0.1446 0.3329
C19 C 0.49047(14) 0.18213(11) 0.43238(11)
C20 C 0.58055(15) 0.17244(12) 0.51497(13)
C21 C 0.11612(17) 0.58556(11) 0.67765(12)
H11 H 0.1289 0.6427 0.7033
H12 H 0.1285 0.5453 0.7288
C22 C -0.0150(2) 0.57848(16) 0.63212(19)
H13 H -0.0700 0.5906 0.6767
H14 H -0.0299 0.5215 0.6085
H15 H -0.0290 0.6188 0.5820
C23 C 0.25299(19) 0.64208(11) 0.56907(13)
H16 H 0.3409 0.6350 0.5673
H17 H 0.2417 0.6937 0.6040
C24 C 0.1896(3) 0.65348(17) 0.47187(17)
H18 H 0.2239 0.7022 0.4442
H19 H 0.1029 0.6624 0.4730
H20 H 0.2015 0.6031 0.4363
C25 C -0.0071(3) -0.0928(2) 0.6195(3)
H21 H 0.0141 -0.0889 0.5570
H22 H -0.0942 -0.1065 0.6159
C26 C 0.0689(4) -0.1599(3) 0.6730(3)
H23 H 0.0537 -0.2143 0.6429
H24 H 0.0472 -0.1629 0.7347
H25 H 0.1548 -0.1457 0.6758
C27 C -0.0499(4) 0.0103(2) 0.7456(3)
H26 H -0.0043 0.0533 0.7844
H27 H -0.0583 -0.0400 0.7835
C28 C -0.1762(5) 0.0445(4) 0.7098(6)
H28 H -0.2188 0.0596 0.7610
H29 H -0.2223 0.0014 0.6729
H30 H -0.1680 0.0944 0.6724
C29? C 0.0571(6) -0.1045(3) 0.6740(5)
H31? H 0.0189 -0.1322 0.7226
H32? H 0.1460 -0.1080 0.6906
C30? C 0.0206(6) -0.1517(5) 0.5837(6)
H33? H 0.0471 -0.2102 0.5904
H34? H 0.0592 -0.1250 0.5355
H35? H -0.0675 -0.1497 0.5677
C31? C -0.1085(5) 0.0145(4) 0.6809(4)
H36? H -0.1305 0.0684 0.6498
H37? H -0.1688 -0.0287 0.6582
C32? C -0.0987(8) 0.0237(5) 0.7825(5)
H38? H -0.1768 0.0417 0.7991
H39? H -0.0368 0.0658 0.8030
H40? H -0.0759 -0.0303 0.8113
loop_
_geom_bond_atom_site_label_1
_geom_bond_atom_site_label_2
_geom_bond_site_symmetry_1
_geom_bond_site_symmetry_2
S1 C7 1_555 1_555
O1 C1 1_555 1_555
O2 C20 1_555 1_555
N1 C3 1_555 1_555
N2 C11 1_555 1_555
C1 C2 1_555 1_555
C2 H1 1_555 1_555
C3 C2 1_555 1_555
C4 C3 1_555 1_555
H2 C4 1_555 1_555
C5 C4 1_555 1_555
H3 C5 1_555 1_555
C6 C1 1_555 1_555
C7 C6 1_555 1_555
C8 C7 1_555 1_555
C9 O1 1_555 1_555
C10 C9 1_555 1_555
H4 C10 1_555 1_555
C11 C10 1_555 1_555
C12 C11 1_555 1_555
H5 C12 1_555 1_555
C13 C8 1_555 1_555
H6 C13 1_555 1_555
C14 C7 1_555 1_555
C15 C14 1_555 1_555
H7 C15 1_555 1_555
C16 C15 1_555 1_555
H8 C16 1_555 1_555
C17 C16 1_555 1_555
H9 C17 1_555 1_555
C18 C17 1_555 1_555
H10 C18 1_555 1_555
C19 C14 1_555 1_555
C20 S1 1_555 1_555
C21 N1 1_555 1_555
H11 C21 1_555 1_555
H12 C21 1_555 1_555
C22 C21 1_555 1_555
H13 C22 1_555 1_555
H14 C22 1_555 1_555
H15 C22 1_555 1_555
C23 N1 1_555 1_555
H16 C23 1_555 1_555
H17 C23 1_555 1_555
C24 C23 1_555 1_555
H18 C24 1_555 1_555
H19 C24 1_555 1_555
H20 C24 1_555 1_555
C25 N2 1_555 1_555
H21 C25 1_555 1_555
H22 C25 1_555 1_555
C26 C25 1_555 1_555
H23 C26 1_555 1_555
H24 C26 1_555 1_555
H25 C26 1_555 1_555
C27 N2 1_555 1_555
H26 C27 1_555 1_555
H27 C27 1_555 1_555
C28 C27 1_555 1_555
H28 C28 1_555 1_555
H29 C28 1_555 1_555
H30 C28 1_555 1_555
C5 C6 1_555 1_555
C8 C9 1_555 1_555
C12 C13 1_555 1_555
C18 C19 1_555 1_555
C19 C20 1_555 1_555

#END
