
#######################################################################
#
#                 Cambridge Crystallographic Data Centre
#                                CCDC 
#
#######################################################################
#
# If this CIF has been generated from an entry in the Cambridge 
# Structural Database, then it will include bibliographic, chemical, 
# crystal, experimental, refinement or atomic coordinate data resulting 
# from the CCDC's data processing and validation procedures.
#
#######################################################################

data_COBDAZ
_chemical_formula_moiety         'C28 H34'
_chemical_name_systematic        1,3,6,8-tetraisopropylpyrene
_symmetry_cell_setting           triclinic
_symmetry_space_group_name_H-M   'P -1'
_symmetry_Int_Tables_number      2
_space_group_name_Hall           '-P 1'
loop_
_symmetry_equiv_pos_site_id
_symmetry_equiv_pos_as_xyz
1 x,y,z
2 -x,-y,-z
_cell_length_a                   11.3272(7)
_cell_length_b                   12.6764(7)
_cell_length_c                   16.9660(12)
_cell_angle_alpha                94.595(4)
_cell_angle_beta                 92.311(4)
_cell_angle_gamma                115.064(3)
_cell_volume                     2192.17
_exptl_crystal_colour            colorless
_exptl_crystal_description       block
_chemical_melting_point          '278-280 deg.C'
_cell_formula_units_Z            4
_exptl_crystal_recrystallization_method dichloromethane/acetonitrile
loop_
_atom_site_label
_atom_site_type_symbol
_atom_site_fract_x
_atom_site_fract_y
_atom_site_fract_z
C1 C 0.38483(19) 0.37211(18) 0.74743(11)
C2 C 0.2939(2) 0.34418(19) 0.80640(12)
C3 C 0.1956(2) 0.22894(19) 0.80561(12)
C4 C 0.1911(2) 0.14568(19) 0.74548(13)
H1 H 0.1247 0.0682 0.7448
C5 C 0.2770(2) 0.16845(19) 0.68666(13)
C6 C 0.3764(2) 0.28334(18) 0.68682(12)
C7 C 0.4700(2) 0.31551(19) 0.62853(12)
H2 H 0.4645 0.2580 0.5872
C8 C 0.5654(2) 0.42470(19) 0.63054(13)
H3 H 0.6254 0.4418 0.5907
C9 C 0.48637(19) 0.48939(18) 0.74834(11)
C10 C 0.5796(2) 0.51625(19) 0.69066(12)
C11 C 0.6813(2) 0.6304(2) 0.69415(13)
C12 C 0.6836(2) 0.7152(2) 0.75269(13)
H4 H 0.7511 0.7923 0.7541
C13 C 0.5929(2) 0.69346(19) 0.80885(13)
C14 C 0.4940(2) 0.57889(19) 0.80809(12)
C15 C 0.4002(2) 0.5466(2) 0.86630(13)
H5 H 0.4042 0.6048 0.9066
C16 C 0.3063(2) 0.4365(2) 0.86585(13)
H6 H 0.2468 0.4195 0.9060
C17 C 0.0948(2) 0.1961(2) 0.86655(13)
H7 H 0.1379 0.2476 0.9168
C18 C 0.0465(2) 0.0703(2) 0.88560(14)
H8 H -0.0174 0.0555 0.9255
H9 H 0.1205 0.0571 0.9064
H10 H 0.0051 0.0170 0.8373
C19 C -0.0192(2) 0.2231(3) 0.84001(16)
H11 H 0.0146 0.3048 0.8285
H12 H -0.0786 0.2105 0.8824
H13 H -0.0666 0.1713 0.7921
C20 C 0.2610(2) 0.0691(2) 0.62458(13)
H14 H 0.3352 0.0993 0.5900
C21 C 0.2663(3) -0.0337(2) 0.66159(15)
H15 H 0.2549 -0.0959 0.6197
H16 H 0.1962 -0.0633 0.6973
H17 H 0.3511 -0.0084 0.6917
C22 C 0.1335(3) 0.0289(2) 0.57190(16)
H18 H 0.1253 -0.0351 0.5324
H19 H 0.1342 0.0946 0.5448
H20 H 0.0592 0.0016 0.6047
C23 C 0.7834(2) 0.6639(2) 0.63396(14)
H21 H 0.7812 0.5892 0.6084
C24 C 0.7476(4) 0.7221(3) 0.5692(2)
H22 H 0.8140 0.7423 0.5308
H23 H 0.7430 0.7936 0.5923
H24 H 0.6623 0.6685 0.5424
C25 C 0.9213(3) 0.7356(3) 0.6723(2)
H25 H 0.9834 0.7543 0.6312
H26 H 0.9427 0.6904 0.7100
H27 H 0.9268 0.8084 0.7003
C26 C 0.6051(2) 0.7905(2) 0.87214(14)
H28 H 0.5156 0.7720 0.8892
C27 C 0.6898(3) 0.7911(3) 0.94450(16)
H29 H 0.6968 0.8535 0.9851
H30 H 0.7772 0.8049 0.9290
H31 H 0.6498 0.7153 0.9659
C28 C 0.6577(3) 0.9121(2) 0.84285(18)
H32 H 0.6626 0.9701 0.8862
H33 H 0.5990 0.9117 0.7987
H34 H 0.7451 0.9324 0.8249
C29 C 0.45222(19) 0.93974(18) 0.49805(12)
C30 C 0.4627(2) 0.86722(18) 0.55569(12)
C31 C 0.3660(2) 0.75036(19) 0.55356(12)
C32 C 0.2646(2) 0.71007(19) 0.49404(13)
H35 H 0.1994 0.6320 0.4932
C33 C 0.2524(2) 0.77647(19) 0.43558(12)
C34 C 0.3467(2) 0.89332(18) 0.43758(12)
C35 C 0.3410(2) 0.9702(2) 0.38120(13)
H36 H 0.2718 0.9408 0.3402
C36 C 0.5696(2) 0.9173(2) 0.61548(13)
H37 H 0.5779 0.8700 0.6540
C37 C 0.3662(2) 0.6722(2) 0.61767(13)
H38 H 0.4595 0.6935 0.6353
C38 C 0.3019(3) 0.6975(3) 0.68959(15)
H39 H 0.3027 0.6472 0.7303
H40 H 0.2113 0.6817 0.6736
H41 H 0.3503 0.7799 0.7110
C39 C 0.3022(3) 0.5420(2) 0.58909(16)
H42 H 0.3446 0.5271 0.5430
H43 H 0.2092 0.5172 0.5741
H44 H 0.3118 0.4978 0.6318
C40 C 0.1373(2) 0.72390(19) 0.37273(13)
H45 H 0.1689 0.7599 0.3229
C41 C 0.0839(2) 0.5918(2) 0.35335(15)
H46 H 0.0110 0.5648 0.3123
H47 H 0.0531 0.5535 0.4012
H48 H 0.1532 0.5721 0.3341
C42 C 0.0277(2) 0.7573(2) 0.39649(16)
H49 H -0.0455 0.7229 0.3554
H50 H 0.0605 0.8427 0.4022
H51 H -0.0021 0.7275 0.4471
C29A C 0.54778(19) 1.06026(18) 0.50195(12)
C30A C 0.5373(2) 1.13278(18) 0.44431(12)
C31A C 0.6340(2) 1.24964(19) 0.44644(12)
C32A C 0.7354(2) 1.28993(19) 0.50596(13)
H35A H 0.8006 1.3680 0.5068
C33A C 0.7476(2) 1.22353(19) 0.56442(12)
C34A C 0.6533(2) 1.10668(18) 0.56242(12)
C35A C 0.6590(2) 1.0298(2) 0.61880(13)
H36A H 0.7282 1.0592 0.6598
C36A C 0.4304(2) 1.0827(2) 0.38452(13)
H37A H 0.4221 1.1300 0.3460
C37A C 0.6338(2) 1.3278(2) 0.38233(13)
H38A H 0.5405 1.3065 0.3647
C38A C 0.6981(3) 1.3025(3) 0.31041(15)
H39A H 0.6973 1.3528 0.2697
H40A H 0.7887 1.3183 0.3264
H41A H 0.6497 1.2201 0.2890
C39A C 0.6978(3) 1.4580(2) 0.41091(16)
H42A H 0.6554 1.4729 0.4570
H43A H 0.7908 1.4828 0.4259
H44A H 0.6882 1.5022 0.3682
C40A C 0.8627(2) 1.27610(19) 0.62727(13)
H45A H 0.8311 1.2401 0.6771
C41A C 0.9161(2) 1.4082(2) 0.64665(15)
H46A H 0.9890 1.4352 0.6877
H47A H 0.9469 1.4465 0.5988
H48A H 0.8468 1.4279 0.6659
C42A C 0.9723(2) 1.2427(2) 0.60351(16)
H49A H 1.0455 1.2771 0.6446
H50A H 0.9395 1.1573 0.5978
H51A H 1.0021 1.2725 0.5529
C43 C 0.54837(19) 0.05983(18) -0.00008(12)
C44 C 0.6569(2) 0.10797(19) 0.05823(12)
C45 C 0.7515(2) 0.22422(19) 0.05728(12)
C46 C 0.7348(2) 0.28890(19) -0.00089(12)
H52 H 0.7990 0.3671 -0.0015
C47 C 0.6300(2) 0.24622(19) -0.05825(12)
C48 C 0.5350(2) 0.12984(19) -0.05841(12)
C49 C 0.4246(2) 0.0773(2) -0.11614(13)
H53 H 0.4145 0.1224 -0.1558
C50 C 0.6650(2) 0.0338(2) 0.11574(13)
H54 H 0.7366 0.0645 0.1551
C51 C 0.8724(2) 0.2774(2) 0.11588(13)
H55 H 0.8470 0.2414 0.1665
C52 C 0.9790(2) 0.2449(2) 0.08564(16)
H56 H 1.0563 0.2796 0.1237
H57 H 1.0023 0.2747 0.0342
H58 H 0.9468 0.1595 0.0796
C53 C 0.9268(2) 0.4098(2) 0.13544(15)
H59 H 1.0037 0.4370 0.1735
H60 H 0.8599 0.4295 0.1586
H61 H 0.9517 0.4478 0.0868
C54 C 0.6215(2) 0.3220(2) -0.12153(13)
H62 H 0.5268 0.3005 -0.1351
C55 C 0.6772(3) 0.2941(3) -0.19636(15)
H63 H 0.6717 0.3431 -0.2369
H64 H 0.6269 0.2114 -0.2162
H65 H 0.7688 0.3100 -0.1842
C56 C 0.6885(3) 0.4534(2) -0.09447(17)
H66 H 0.6790 0.4968 -0.1377
H67 H 0.7816 0.4770 -0.0802
H68 H 0.6479 0.4706 -0.0482
C43A C 0.45163(19) -0.05983(18) 0.00008(12)
C44A C 0.3431(2) -0.10797(19) -0.05823(12)
C45A C 0.2485(2) -0.22422(19) -0.05728(12)
C46A C 0.2652(2) -0.28890(19) 0.00089(12)
H52A H 0.2010 -0.3671 0.0015
C47A C 0.3700(2) -0.24622(19) 0.05825(12)
C48A C 0.4650(2) -0.12984(19) 0.05841(12)
C49A C 0.5754(2) -0.0773(2) 0.11614(13)
H53A H 0.5855 -0.1224 0.1558
C50A C 0.3350(2) -0.0338(2) -0.11574(13)
H54A H 0.2634 -0.0645 -0.1551
C51A C 0.1276(2) -0.2774(2) -0.11588(13)
H55A H 0.1530 -0.2414 -0.1665
C52A C 0.0210(2) -0.2449(2) -0.08564(16)
H56A H -0.0563 -0.2796 -0.1237
H57A H -0.0023 -0.2747 -0.0342
H58A H 0.0532 -0.1595 -0.0796
C53A C 0.0732(2) -0.4098(2) -0.13544(15)
H59A H -0.0037 -0.4370 -0.1735
H60A H 0.1401 -0.4295 -0.1586
H61A H 0.0483 -0.4478 -0.0868
C54A C 0.3785(2) -0.3220(2) 0.12153(13)
H62A H 0.4732 -0.3005 0.1351
C55A C 0.3228(3) -0.2941(3) 0.19636(15)
H63A H 0.3283 -0.3431 0.2369
H64A H 0.3731 -0.2114 0.2162
H65A H 0.2312 -0.3100 0.1842
C56A C 0.3115(3) -0.4534(2) 0.09447(17)
H66A H 0.3210 -0.4968 0.1377
H67A H 0.2184 -0.4770 0.0802
H68A H 0.3521 -0.4706 0.0482
loop_
_geom_bond_atom_site_label_1
_geom_bond_atom_site_label_2
_geom_bond_site_symmetry_1
_geom_bond_site_symmetry_2
C1 C2 1_555 1_555
C2 C3 1_555 1_555
C3 C4 1_555 1_555
C4 H1 1_555 1_555
C5 C4 1_555 1_555
C6 C1 1_555 1_555
C7 C6 1_555 1_555
H2 C7 1_555 1_555
C8 C7 1_555 1_555
H3 C8 1_555 1_555
C9 C1 1_555 1_555
C10 C8 1_555 1_555
C11 C10 1_555 1_555
C12 C11 1_555 1_555
H4 C12 1_555 1_555
C13 C12 1_555 1_555
C14 C9 1_555 1_555
C15 C14 1_555 1_555
H5 C15 1_555 1_555
C16 C2 1_555 1_555
H6 C16 1_555 1_555
C17 C3 1_555 1_555
H7 C17 1_555 1_555
C18 C17 1_555 1_555
H8 C18 1_555 1_555
H9 C18 1_555 1_555
H10 C18 1_555 1_555
C19 C17 1_555 1_555
H11 C19 1_555 1_555
H12 C19 1_555 1_555
H13 C19 1_555 1_555
C20 C5 1_555 1_555
H14 C20 1_555 1_555
C21 C20 1_555 1_555
H15 C21 1_555 1_555
H16 C21 1_555 1_555
H17 C21 1_555 1_555
C22 C20 1_555 1_555
H18 C22 1_555 1_555
H19 C22 1_555 1_555
H20 C22 1_555 1_555
C23 C11 1_555 1_555
H21 C23 1_555 1_555
C24 C23 1_555 1_555
H22 C24 1_555 1_555
H23 C24 1_555 1_555
H24 C24 1_555 1_555
C25 C23 1_555 1_555
H25 C25 1_555 1_555
H26 C25 1_555 1_555
H27 C25 1_555 1_555
C26 C13 1_555 1_555
H28 C26 1_555 1_555
C27 C26 1_555 1_555
H29 C27 1_555 1_555
H30 C27 1_555 1_555
H31 C27 1_555 1_555
C28 C26 1_555 1_555
H32 C28 1_555 1_555
H33 C28 1_555 1_555
H34 C28 1_555 1_555
C29 C30 1_555 1_555
C30 C31 1_555 1_555
C31 C32 1_555 1_555
C32 H35 1_555 1_555
C33 C32 1_555 1_555
C34 C29 1_555 1_555
C35 C34 1_555 1_555
H36 C35 1_555 1_555
C36 C30 1_555 1_555
H37 C36 1_555 1_555
C37 C31 1_555 1_555
H38 C37 1_555 1_555
C38 C37 1_555 1_555
H39 C38 1_555 1_555
H40 C38 1_555 1_555
H41 C38 1_555 1_555
C39 C37 1_555 1_555
H42 C39 1_555 1_555
H43 C39 1_555 1_555
H44 C39 1_555 1_555
C40 C33 1_555 1_555
H45 C40 1_555 1_555
C41 C40 1_555 1_555
H46 C41 1_555 1_555
H47 C41 1_555 1_555
H48 C41 1_555 1_555
C42 C40 1_555 1_555
H49 C42 1_555 1_555
H50 C42 1_555 1_555
H51 C42 1_555 1_555
C43 C44 1_555 1_555
C44 C45 1_555 1_555
C45 C46 1_555 1_555
C46 H52 1_555 1_555
C47 C46 1_555 1_555
C48 C43 1_555 1_555
C49 C48 1_555 1_555
H53 C49 1_555 1_555
C50 C44 1_555 1_555
H54 C50 1_555 1_555
C51 C45 1_555 1_555
H55 C51 1_555 1_555
C52 C51 1_555 1_555
H56 C52 1_555 1_555
H57 C52 1_555 1_555
H58 C52 1_555 1_555
C53 C51 1_555 1_555
H59 C53 1_555 1_555
H60 C53 1_555 1_555
H61 C53 1_555 1_555
C54 C47 1_555 1_555
H62 C54 1_555 1_555
C55 C54 1_555 1_555
H63 C55 1_555 1_555
H64 C55 1_555 1_555
H65 C55 1_555 1_555
C56 C54 1_555 1_555
H66 C56 1_555 1_555
H67 C56 1_555 1_555
H68 C56 1_555 1_555
C29A C29 1_555 1_555
C30A C29A 1_555 1_555
C31A C30A 1_555 1_555
C32A C31A 1_555 1_555
H35A C32A 1_555 1_555
C33A C32A 1_555 1_555
C34A C29A 1_555 1_555
C35A C36 1_555 1_555
H36A C35A 1_555 1_555
C36A C35 1_555 1_555
H37A C36A 1_555 1_555
C37A C31A 1_555 1_555
H38A C37A 1_555 1_555
C38A C37A 1_555 1_555
H39A C38A 1_555 1_555
H40A C38A 1_555 1_555
H41A C38A 1_555 1_555
C39A C37A 1_555 1_555
H42A C39A 1_555 1_555
H43A C39A 1_555 1_555
H44A C39A 1_555 1_555
C40A C33A 1_555 1_555
H45A C40A 1_555 1_555
C41A C40A 1_555 1_555
H46A C41A 1_555 1_555
H47A C41A 1_555 1_555
H48A C41A 1_555 1_555
C42A C40A 1_555 1_555
H49A C42A 1_555 1_555
H50A C42A 1_555 1_555
H51A C42A 1_555 1_555
C43A C43 1_555 1_555
C44A C43A 1_555 1_555
C45A C44A 1_555 1_555
C46A C45A 1_555 1_555
H52A C46A 1_555 1_555
C47A C46A 1_555 1_555
C48A C43A 1_555 1_555
C49A C50 1_555 1_555
H53A C49A 1_555 1_555
C50A C49 1_555 1_555
H54A C50A 1_555 1_555
C51A C45A 1_555 1_555
H55A C51A 1_555 1_555
C52A C51A 1_555 1_555
H56A C52A 1_555 1_555
H57A C52A 1_555 1_555
H58A C52A 1_555 1_555
C53A C51A 1_555 1_555
H59A C53A 1_555 1_555
H60A C53A 1_555 1_555
H61A C53A 1_555 1_555
C54A C47A 1_555 1_555
H62A C54A 1_555 1_555
C55A C54A 1_555 1_555
H63A C55A 1_555 1_555
H64A C55A 1_555 1_555
H65A C55A 1_555 1_555
C56A C54A 1_555 1_555
H66A C56A 1_555 1_555
H67A C56A 1_555 1_555
H68A C56A 1_555 1_555
C5 C6 1_555 1_555
C9 C10 1_555 1_555
C13 C14 1_555 1_555
C15 C16 1_555 1_555
C33 C34 1_555 1_555
C47 C48 1_555 1_555
C30A C36A 1_555 1_555
C33A C34A 1_555 1_555
C34A C35A 1_555 1_555
C44A C50A 1_555 1_555
C47A C48A 1_555 1_555
C48A C49A 1_555 1_555

#END
