
#######################################################################
#
#                 Cambridge Crystallographic Data Centre
#                                CCDC 
#
#######################################################################
#
# If this CIF has been generated from an entry in the Cambridge 
# Structural Database, then it will include bibliographic, chemical, 
# crystal, experimental, refinement or atomic coordinate data resulting 
# from the CCDC's data processing and validation procedures.
#
#######################################################################

data_COBFOQ
_chemical_compound_source        
'Isolated from the fruiting bodies of toxic mushroom Tricholoma terreum'
_chemical_name_common            'terreolide D'
_chemical_formula_moiety         'C30 H44 O7'
_chemical_name_systematic        
5'-(2-(2,2-dimethyl-4-methylene-3-(2-(2-oxodihydrofuran-3(2H)-ylidene)ethyl)cyclohexyl)ethyl)-5-hydroxy-1,6,6-trimethyltetrahydro-4H-spiro[3,7-dioxabicyclo[3.2.1]octane-2,2'-pyran]-4-one
_chemical_properties_biological  bioactivity
_symmetry_cell_setting           orthorhombic
_symmetry_space_group_name_H-M   'P 21 21 21'
_symmetry_Int_Tables_number      19
_space_group_name_Hall           'P 2ac 2ab'
loop_
_symmetry_equiv_pos_site_id
_symmetry_equiv_pos_as_xyz
1 x,y,z
2 1/2+x,1/2-y,-z
3 -x,1/2+y,1/2-z
4 1/2-x,-y,1/2+z
_cell_length_a                   6.30190(10)
_cell_length_b                   7.91690(10)
_cell_length_c                   54.6887(10)
_cell_angle_alpha                90
_cell_angle_beta                 90
_cell_angle_gamma                90
_cell_volume                     2728.5
_exptl_crystal_colour            colorless
_exptl_crystal_description       prism
_chemical_melting_point          '468-469 K'
_cell_formula_units_Z            4
_exptl_crystal_recrystallization_method acetone
loop_
_atom_site_label
_atom_site_type_symbol
_atom_site_fract_x
_atom_site_fract_y
_atom_site_fract_z
O1 O 1.3175(4) 0.8154(4) 0.20235(5)
O2 O 0.9041(5) 0.5360(4) 0.18125(5)
O3 O 0.2989(5) -0.3961(4) -0.00874(5)
O4 O -0.0187(5) -0.5098(4) -0.00208(5)
O5 O 0.9627(4) 0.8118(3) 0.16842(5)
O6 O 0.8174(5) 1.0647(4) 0.17223(5)
O7 O 0.8935(5) 1.0923(4) 0.21987(5)
H1 H 0.8611 1.1690 0.2099
C1 C 1.3144(7) 1.0995(6) 0.18632(8)
H2 H 1.4672 1.1195 0.1879
H3 H 1.2385 1.2073 0.1874
H4 H 1.2846 1.0464 0.1705
C2 C 1.2410(7) 0.9835(6) 0.20681(7)
C3 C 1.1469(7) 0.6951(6) 0.20474(7)
C4 C 1.0614(7) 0.6584(5) 0.17878(7)
C5 C 0.8015(7) 0.4864(5) 0.15861(7)
H5 H 0.7205 0.5838 0.1521
H6 H 0.6993 0.3945 0.1621
C6 C 0.9572(6) 0.4269(5) 0.13932(7)
H7 H 1.0264 0.3213 0.1454
C7 C 0.8416(6) 0.3856(5) 0.11558(7)
H8 H 0.9479 0.3543 0.1030
H9 H 0.7677 0.4884 0.1098
C8 C 0.6785(7) 0.2413(5) 0.11780(7)
H10 H 0.7415 0.1495 0.1277
H11 H 0.5527 0.2840 0.1267
C9 C 0.6059(7) 0.1680(5) 0.09350(7)
H12 H 0.7377 0.1376 0.0843
C10 C 0.4739(6) 0.0018(5) 0.09587(6)
C11 C 0.4088(6) -0.0557(5) 0.06952(6)
H13 H 0.5448 -0.0716 0.0604
C12 C 0.2927(7) -0.2257(5) 0.06808(7)
H14 H 0.3666 -0.3095 0.0785
H15 H 0.1463 -0.2124 0.0743
C13 C 0.2857(7) -0.2883(5) 0.04213(7)
H16 H 0.4073 -0.2643 0.0325
C14 C 0.1314(6) -0.3729(5) 0.03098(7)
C15 C 0.1532(7) -0.4234(5) 0.00520(7)
C16 C 1.3267(7) 1.0442(6) 0.23147(7)
H17 H 1.2599 0.9795 0.2447
H18 H 1.2944 1.1644 0.2335
H19 H 1.4807 1.0275 0.2320
C17 C 0.4926(7) 0.3031(5) 0.07823(7)
H20 H 0.3657 0.3426 0.0872
H21 H 0.5886 0.4010 0.0761
C18 C 0.4245(7) 0.2395(5) 0.05316(7)
H22 H 0.3420 0.3280 0.0446
H23 H 0.5514 0.2132 0.0432
C19 C 0.2904(6) 0.0826(5) 0.05617(6)
C20 C 0.6119(8) -0.1342(5) 0.10776(8)
H24 H 0.6559 -0.0965 0.1241
H25 H 0.7378 -0.1541 0.0976
H26 H 0.5304 -0.2392 0.1092
C21 C 0.2744(7) 0.0287(5) 0.11163(7)
H27 H 0.1997 -0.0790 0.1136
H28 H 0.1805 0.1104 0.1036
H29 H 0.3159 0.0719 0.1277
C22 C -0.0802(7) -0.4293(6) 0.03980(7)
H30 H -0.1672 -0.3323 0.0453
H31 H -0.0665 -0.5110 0.0534
C23 C -0.1771(7) -0.5137(6) 0.01691(7)
H32 H -0.2176 -0.6318 0.0206
H33 H -0.3055 -0.4516 0.0116
C24 C 0.0926(7) 0.0740(6) 0.04825(7)
H34 H 0.0300 0.1685 0.0403
H35 H 0.0130 -0.0268 0.0505
C25 C 1.1277(6) 0.5588(5) 0.13568(7)
H36 H 1.0652 0.6598 0.1278
H37 H 1.2386 0.5135 0.1247
C26 C 1.2285(7) 0.6094(5) 0.15998(7)
H38 H 1.3134 0.5139 0.1664
H39 H 1.3255 0.7060 0.1573
C27 C 0.9146(7) 0.9496(6) 0.18148(7)
C28 C 0.9982(7) 0.9614(5) 0.20742(7)
C29 C 0.9742(7) 0.7866(5) 0.21889(7)
H40 H 1.0030 0.7880 0.2367
H41 H 0.8321 0.7376 0.2158
C30 C 1.2306(8) 0.5382(6) 0.21714(8)
H42 H 1.3545 0.4962 0.2082
H43 H 1.1199 0.4513 0.2173
H44 H 1.2716 0.5654 0.2340
loop_
_geom_bond_atom_site_label_1
_geom_bond_atom_site_label_2
_geom_bond_site_symmetry_1
_geom_bond_site_symmetry_2
O1 C2 1_555 1_555
O2 C4 1_555 1_555
O3 C15 1_555 1_555
O4 C15 1_555 1_555
O5 C4 1_555 1_555
O6 C27 1_555 1_555
O7 H1 1_555 1_555
C1 H2 1_555 1_555
H3 C1 1_555 1_555
H4 C1 1_555 1_555
C2 C1 1_555 1_555
C3 O1 1_555 1_555
C4 C3 1_555 1_555
C5 O2 1_555 1_555
H5 C5 1_555 1_555
H6 C5 1_555 1_555
C6 C5 1_555 1_555
H7 C6 1_555 1_555
C7 C6 1_555 1_555
H8 C7 1_555 1_555
H9 C7 1_555 1_555
C8 C7 1_555 1_555
H10 C8 1_555 1_555
H11 C8 1_555 1_555
C9 C8 1_555 1_555
H12 C9 1_555 1_555
C10 C9 1_555 1_555
C11 C10 1_555 1_555
H13 C11 1_555 1_555
C12 C11 1_555 1_555
H14 C12 1_555 1_555
H15 C12 1_555 1_555
C13 C12 1_555 1_555
H16 C13 1_555 1_555
C14 C13 1_555 1_555
C15 C14 1_555 1_555
C16 C2 1_555 1_555
H17 C16 1_555 1_555
H18 C16 1_555 1_555
H19 C16 1_555 1_555
C17 C9 1_555 1_555
H20 C17 1_555 1_555
H21 C17 1_555 1_555
C18 C17 1_555 1_555
H22 C18 1_555 1_555
H23 C18 1_555 1_555
C19 C11 1_555 1_555
C20 C10 1_555 1_555
H24 C20 1_555 1_555
H25 C20 1_555 1_555
H26 C20 1_555 1_555
C21 C10 1_555 1_555
H27 C21 1_555 1_555
H28 C21 1_555 1_555
H29 C21 1_555 1_555
C22 C14 1_555 1_555
H30 C22 1_555 1_555
H31 C22 1_555 1_555
C23 O4 1_555 1_555
H32 C23 1_555 1_555
H33 C23 1_555 1_555
C24 C19 1_555 1_555
H34 C24 1_555 1_555
H35 C24 1_555 1_555
C25 C6 1_555 1_555
H36 C25 1_555 1_555
H37 C25 1_555 1_555
C26 C4 1_555 1_555
H38 C26 1_555 1_555
H39 C26 1_555 1_555
C27 O5 1_555 1_555
C28 O7 1_555 1_555
C29 C3 1_555 1_555
H40 C29 1_555 1_555
H41 C29 1_555 1_555
C30 C3 1_555 1_555
H42 C30 1_555 1_555
H43 C30 1_555 1_555
H44 C30 1_555 1_555
C2 C28 1_555 1_555
C18 C19 1_555 1_555
C22 C23 1_555 1_555
C25 C26 1_555 1_555
C27 C28 1_555 1_555
C28 C29 1_555 1_555

#END
