
#######################################################################
#
#                 Cambridge Crystallographic Data Centre
#                                CCDC 
#
#######################################################################
#
# If this CIF has been generated from an entry in the Cambridge 
# Structural Database, then it will include bibliographic, chemical, 
# crystal, experimental, refinement or atomic coordinate data resulting 
# from the CCDC's data processing and validation procedures.
#
#######################################################################

data_COBFUW
_chemical_compound_source        
'Isolated from the fruiting bodies of toxic mushroom Tricholoma terreum'
_chemical_name_common            'saponaceolide B methanol solvate'
_chemical_formula_moiety         'C30 H46 O6,C1 H4 O1'
_chemical_name_systematic        
"3-(2-(3-(2-(4-hydroxy-1,5,5-trimethyltetrahydrospiro[3,6-dioxabicyclo[2.2.2]octane-2,2'-pyran]-5'-yl)ethyl)-2,2-dimethyl-6-methylenecyclohexyl)ethylidene)dihydrofuran-2(3H)-one methanol solvate"
_chemical_properties_biological  bioactivity
_symmetry_cell_setting           monoclinic
_symmetry_space_group_name_H-M   'P 21'
_symmetry_Int_Tables_number      4
_space_group_name_Hall           'P 2yb'
loop_
_symmetry_equiv_pos_site_id
_symmetry_equiv_pos_as_xyz
1 x,y,z
2 -x,1/2+y,-z
_cell_length_a                   7.22180(10)
_cell_length_b                   11.7698(2)
_cell_length_c                   17.4760(3)
_cell_angle_alpha                90
_cell_angle_beta                 101.5110(10)
_cell_angle_gamma                90
_cell_volume                     1455.57
_exptl_crystal_colour            colorless
_exptl_crystal_description       block
_cell_formula_units_Z            2
loop_
_atom_site_label
_atom_site_type_symbol
_atom_site_fract_x
_atom_site_fract_y
_atom_site_fract_z
O1 O 0.82777(15) 0.28911(11) 0.26213(6)
O2 O -0.17947(13) 0.46249(8) 0.85119(5)
O3 O -0.39045(13) 0.19863(8) 0.89684(5)
O4 O -0.06077(12) 0.27830(8) 0.87039(5)
O5 O 0.11904(13) 0.17248(9) 0.96721(6)
H1 H 0.1443 0.1334 0.9304
C1 C 0.0363(2) 0.49118(14) 0.59521(8)
H2 H -0.0283 0.5629 0.5761
H3 H -0.0529 0.4281 0.5780
O6 O 0.61593(15) 0.21744(11) 0.16356(6)
C2 C 0.6648(2) 0.27295(14) 0.23228(8)
C3 C 0.4904(2) 0.30402(14) 0.26057(8)
C4 C 0.4913(2) 0.36785(15) 0.32333(8)
H4 H 0.6093 0.3933 0.3525
C5 C 0.3138(2) 0.40167(17) 0.35035(9)
H5 H 0.2244 0.3370 0.3419
H6 H 0.2540 0.4656 0.3177
C6 C 0.34549(19) 0.43724(13) 0.43657(8)
H7 H 0.4215 0.3753 0.4671
C7 C 0.15747(19) 0.44682(14) 0.46867(8)
C8 C 0.20950(19) 0.47639(13) 0.55755(8)
H8 H 0.2814 0.4099 0.5839
C9 C 0.08340(19) 0.49358(14) 0.68452(8)
H9 H 0.1339 0.5695 0.7019
H10 H 0.1838 0.4371 0.7032
C10 C -0.08683(19) 0.46799(13) 0.72195(8)
H11 H -0.1935 0.5190 0.6980
C11 C -0.03375(19) 0.49322(12) 0.80925(8)
H12 H 0.0832 0.4512 0.8317
H13 H -0.0066 0.5754 0.8166
C12 C -0.22674(18) 0.34571(13) 0.84366(8)
C13 C -0.36720(19) 0.32100(12) 0.89765(8)
C14 C -0.21942(19) 0.13399(13) 0.92905(8)
C15 C -0.2480(2) 0.07511(14) 1.00314(8)
H14 H -0.2849 0.1313 1.0387
H15 H -0.1299 0.0384 1.0285
H16 H -0.3476 0.0177 0.9900
C16 C -0.1940(2) 0.04665(13) 0.86765(8)
H17 H -0.3081 -0.0002 0.8543
H18 H -0.0853 -0.0019 0.8884
H19 H -0.1722 0.0859 0.8208
C17 C -0.56342(19) 0.36850(13) 0.86817(8)
H20 H -0.6190 0.3327 0.8182
H21 H -0.5554 0.4508 0.8608
H22 H -0.6428 0.3528 0.9063
C18 C -0.05682(18) 0.22182(13) 0.94404(7)
C19 C -0.0845(2) 0.30876(13) 1.00479(8)
H23 H 0.0120 0.3693 1.0085
H24 H -0.0710 0.2720 1.0566
C20 C -0.2829(2) 0.36005(13) 0.98048(8)
H25 H -0.3638 0.3346 1.0167
H26 H -0.2755 0.4440 0.9824
C21 C 0.3399(2) 0.57948(14) 0.57571(8)
H27 H 0.3784 0.5881 0.6330
H28 H 0.2698 0.6487 0.5549
C22 C 0.5167(2) 0.56852(14) 0.54041(8)
H29 H 0.5909 0.6398 0.5489
H30 H 0.5970 0.5059 0.5663
C23 C 0.4600(2) 0.54491(13) 0.45419(9)
C24 C 0.5022(2) 0.61621(15) 0.40140(10)
H31 H 0.5699 0.6841 0.4176
H32 H 0.4648 0.5994 0.3474
C25 C 0.4115(2) 0.21951(16) 0.13586(9)
H33 H 0.3654 0.1442 0.1150
H34 H 0.3762 0.2768 0.0940
C26 C 0.3272(2) 0.25017(14) 0.20648(8)
H35 H 0.2208 0.3041 0.1921
H36 H 0.2826 0.1816 0.2302
C27 C 0.0558(2) 0.33161(15) 0.45903(9)
H37 H -0.0590 0.3361 0.4808
H38 H 0.1396 0.2730 0.4867
H39 H 0.0220 0.3123 0.4034
C28 C 0.0276(2) 0.53765(16) 0.42305(8)
H40 H -0.0006 0.5178 0.3675
H41 H 0.0910 0.6117 0.4299
H42 H -0.0903 0.5414 0.4426
C29 C -0.1522(2) 0.34457(13) 0.70960(7)
H43 H -0.2057 0.3316 0.6536
H44 H -0.0427 0.2931 0.7252
C30 C -0.3014(2) 0.31784(13) 0.75778(8)
H45 H -0.4168 0.3629 0.7381
H46 H -0.3354 0.2363 0.7523
O7 O 0.29554(14) 0.06371(10) 0.86537(6)
H47 H 0.3885 0.1075 0.8778
C31 C 0.2265(2) 0.06960(16) 0.78381(9)
H48 H 0.1595 0.1416 0.7709
H49 H 0.1396 0.0062 0.7674
H50 H 0.3325 0.0650 0.7566
loop_
_geom_bond_atom_site_label_1
_geom_bond_atom_site_label_2
_geom_bond_site_symmetry_1
_geom_bond_site_symmetry_2
O1 C2 1_555 1_555
O2 C11 1_555 1_555
O3 C13 1_555 1_555
O4 C12 1_555 1_555
O5 H1 1_555 1_555
C1 H2 1_555 1_555
H3 C1 1_555 1_555
O6 C2 1_555 1_555
C2 C3 1_555 1_555
C3 C4 1_555 1_555
C4 H4 1_555 1_555
C5 C4 1_555 1_555
H5 C5 1_555 1_555
H6 C5 1_555 1_555
C6 C5 1_555 1_555
H7 C6 1_555 1_555
C7 C6 1_555 1_555
C8 C1 1_555 1_555
H8 C8 1_555 1_555
C9 C1 1_555 1_555
H9 C9 1_555 1_555
H10 C9 1_555 1_555
C10 C9 1_555 1_555
H11 C10 1_555 1_555
C11 C10 1_555 1_555
H12 C11 1_555 1_555
H13 C11 1_555 1_555
C12 O2 1_555 1_555
C13 C12 1_555 1_555
C14 O3 1_555 1_555
C15 C14 1_555 1_555
H14 C15 1_555 1_555
H15 C15 1_555 1_555
H16 C15 1_555 1_555
C16 C14 1_555 1_555
H17 C16 1_555 1_555
H18 C16 1_555 1_555
H19 C16 1_555 1_555
C17 C13 1_555 1_555
H20 C17 1_555 1_555
H21 C17 1_555 1_555
H22 C17 1_555 1_555
C18 O4 1_555 1_555
C19 C18 1_555 1_555
H23 C19 1_555 1_555
H24 C19 1_555 1_555
C20 C13 1_555 1_555
H25 C20 1_555 1_555
H26 C20 1_555 1_555
C21 C8 1_555 1_555
H27 C21 1_555 1_555
H28 C21 1_555 1_555
C22 C21 1_555 1_555
H29 C22 1_555 1_555
H30 C22 1_555 1_555
C23 C6 1_555 1_555
C24 C23 1_555 1_555
H31 C24 1_555 1_555
H32 C24 1_555 1_555
C25 O6 1_555 1_555
H33 C25 1_555 1_555
H34 C25 1_555 1_555
C26 C3 1_555 1_555
H35 C26 1_555 1_555
H36 C26 1_555 1_555
C27 C7 1_555 1_555
H37 C27 1_555 1_555
H38 C27 1_555 1_555
H39 C27 1_555 1_555
C28 C7 1_555 1_555
H40 C28 1_555 1_555
H41 C28 1_555 1_555
H42 C28 1_555 1_555
C29 C10 1_555 1_555
H43 C29 1_555 1_555
H44 C29 1_555 1_555
C30 C12 1_555 1_555
H45 C30 1_555 1_555
H46 C30 1_555 1_555
O7 H47 1_555 1_555
C31 O7 1_555 1_555
H48 C31 1_555 1_555
H49 C31 1_555 1_555
H50 C31 1_555 1_555
O5 C18 1_555 1_555
C7 C8 1_555 1_555
C14 C18 1_555 1_555
C19 C20 1_555 1_555
C22 C23 1_555 1_555
C25 C26 1_555 1_555
C29 C30 1_555 1_555

#END
