
#######################################################################
#
#                 Cambridge Crystallographic Data Centre
#                                CCDC 
#
#######################################################################
#
# If this CIF has been generated from an entry in the Cambridge 
# Structural Database, then it will include bibliographic, chemical, 
# crystal, experimental, refinement or atomic coordinate data resulting 
# from the CCDC's data processing and validation procedures.
#
#######################################################################

data_COBGEG
_chemical_compound_source        'roots of Suregada glomerulata'
_chemical_formula_moiety         'C20 H30 O5'
_chemical_name_systematic        
7\b,8\a-dihydroxy-12-oxo-ent-abietan-16,14-olide
_symmetry_cell_setting           monoclinic
_symmetry_space_group_name_H-M   'P 21'
_symmetry_Int_Tables_number      4
_space_group_name_Hall           'P 2yb'
loop_
_symmetry_equiv_pos_site_id
_symmetry_equiv_pos_as_xyz
1 x,y,z
2 -x,1/2+y,-z
_cell_length_a                   7.544(1)
_cell_length_b                   6.066(1)
_cell_length_c                   20.579(1)
_cell_angle_alpha                90
_cell_angle_beta                 99.92(4)
_cell_angle_gamma                90
_cell_volume                     927.655
_exptl_crystal_colour            colorless
_exptl_crystal_description       prism
_chemical_melting_point          '240-242 deg.C'
_cell_formula_units_Z            2
loop_
_atom_site_label
_atom_site_type_symbol
_atom_site_fract_x
_atom_site_fract_y
_atom_site_fract_z
O1 O 0.2226(19) 1.051(2) 0.2592(5)
H1 H 0.1518 1.0974 0.2820
O2 O 0.5194(14) 0.6151(18) 0.3419(5)
H2 H 0.5215 0.6241 0.3818
O3 O 0.4255(13) 1.0266(18) 0.4132(4)
O4 O 0.4768(14) 1.105(2) 0.5192(4)
O5 O 0.9648(14) 1.166(2) 0.3536(5)
C1 C 0.667(2) 0.781(3) 0.1455(7)
H3 H 0.6646 0.9400 0.1411
H4 H 0.7901 0.7361 0.1608
C2 C 0.6001(19) 0.677(3) 0.0777(5)
H5 H 0.6660 0.7430 0.0461
H6 H 0.6289 0.5212 0.0802
C3 C 0.415(2) 0.701(3) 0.0538(7)
H7 H 0.3848 0.6155 0.0135
H8 H 0.3905 0.8542 0.0426
C4 C 0.293(2) 0.628(3) 0.1015(5)
C5 C 0.3507(19) 0.734(3) 0.1695(6)
H9 H 0.3305 0.8921 0.1625
C6 C 0.235(2) 0.668(3) 0.2221(7)
H10 H 0.1084 0.6778 0.2037
H11 H 0.2618 0.5169 0.2365
C7 C 0.283(2) 0.828(3) 0.2816(7)
H12 H 0.2128 0.7833 0.3153
C8 C 0.4744(17) 0.825(2) 0.3120(6)
C9 C 0.599(2) 0.864(3) 0.2591(7)
H13 H 0.5722 1.0140 0.2426
C10 C 0.5479(15) 0.712(2) 0.1987(6)
C11 C 0.8101(19) 0.862(4) 0.2883(7)
H14 H 0.8486 0.7139 0.3023
H15 H 0.8784 0.9095 0.2550
C12 C 0.8405(17) 1.025(3) 0.3491(6)
C13 C 0.7135(18) 0.989(3) 0.3961(6)
H16 H 0.7286 0.8359 0.4114
C14 C 0.529(3) 1.012(3) 0.3610(7)
H17 H 0.5180 1.1515 0.3368
C15 C 0.707(2) 1.135(3) 0.4577(6)
H18 H 0.7143 1.2899 0.4453
C16 C 0.5128(17) 1.084(2) 0.4703(4)
C17 C 0.867(3) 1.083(4) 0.5189(9)
H19 H 0.9807 1.1152 0.5065
H20 H 0.8626 0.9299 0.5307
H21 H 0.8510 1.1723 0.5560
C18 C 0.279(3) 0.377(4) 0.1011(7)
H22 H 0.2322 0.3270 0.0572
H23 H 0.2004 0.3312 0.1305
H24 H 0.3965 0.3149 0.1152
C19 C 0.093(3) 0.705(5) 0.0759(8)
H25 H 0.0492 0.6382 0.0340
H26 H 0.0900 0.8629 0.0712
H27 H 0.0182 0.6623 0.1070
C20 C 0.610(2) 0.468(2) 0.2157(7)
H28 H 0.5458 0.4108 0.2485
H29 H 0.7366 0.4661 0.2324
H30 H 0.5845 0.3795 0.1766
loop_
_geom_bond_atom_site_label_1
_geom_bond_atom_site_label_2
_geom_bond_site_symmetry_1
_geom_bond_site_symmetry_2
O1 H1 1_555 1_555
O2 H2 1_555 1_555
O3 C14 1_555 1_555
O4 C16 1_555 1_555
O5 C12 1_555 1_555
C1 H3 1_555 1_555
H4 C1 1_555 1_555
C2 C1 1_555 1_555
H5 C2 1_555 1_555
H6 C2 1_555 1_555
C3 C2 1_555 1_555
H7 C3 1_555 1_555
H8 C3 1_555 1_555
C4 C3 1_555 1_555
C5 C4 1_555 1_555
H9 C5 1_555 1_555
C6 C5 1_555 1_555
H10 C6 1_555 1_555
H11 C6 1_555 1_555
C7 O1 1_555 1_555
H12 C7 1_555 1_555
C8 O2 1_555 1_555
C9 C8 1_555 1_555
H13 C9 1_555 1_555
C10 C1 1_555 1_555
C11 C9 1_555 1_555
H14 C11 1_555 1_555
H15 C11 1_555 1_555
C12 C11 1_555 1_555
C13 C12 1_555 1_555
H16 C13 1_555 1_555
C14 C8 1_555 1_555
H17 C14 1_555 1_555
C15 C13 1_555 1_555
H18 C15 1_555 1_555
C16 O3 1_555 1_555
C17 C15 1_555 1_555
H19 C17 1_555 1_555
H20 C17 1_555 1_555
H21 C17 1_555 1_555
C18 C4 1_555 1_555
H22 C18 1_555 1_555
H23 C18 1_555 1_555
H24 C18 1_555 1_555
C19 C4 1_555 1_555
H25 C19 1_555 1_555
H26 C19 1_555 1_555
H27 C19 1_555 1_555
C20 C10 1_555 1_555
H28 C20 1_555 1_555
H29 C20 1_555 1_555
H30 C20 1_555 1_555
C5 C10 1_555 1_555
C6 C7 1_555 1_555
C7 C8 1_555 1_555
C9 C10 1_555 1_555
C13 C14 1_555 1_555
C15 C16 1_555 1_555

#END
