
#######################################################################
#
#                 Cambridge Crystallographic Data Centre
#                                CCDC 
#
#######################################################################
#
# If this CIF has been generated from an entry in the Cambridge 
# Structural Database, then it will include bibliographic, chemical, 
# crystal, experimental, refinement or atomic coordinate data resulting 
# from the CCDC's data processing and validation procedures.
#
#######################################################################

data_COBVAR
_chemical_formula_moiety         'C23 H31 N1 O10'
_chemical_name_systematic        
(2R,3R,3aS,6R,6aR,3'R,3a'S,6'R,6'aR,5''R)-spiro[6,3',6'-trihydroxyoctahydro[2,3']bi(furo[3,2-b]furan)]-3,2''-[5''-(4'''-(2''''-hydroxyethyl)phenoxy)methyl-1'',3''-oxazolidine]
_symmetry_cell_setting           monoclinic
_symmetry_space_group_name_H-M   'P 21'
_symmetry_Int_Tables_number      4
_space_group_name_Hall           'P 2yb'
loop_
_symmetry_equiv_pos_site_id
_symmetry_equiv_pos_as_xyz
1 x,y,z
2 -x,1/2+y,-z
_cell_length_a                   5.6711(11)
_cell_length_b                   15.762(3)
_cell_length_c                   12.423(3)
_cell_angle_alpha                90
_cell_angle_beta                 99.62(3)
_cell_angle_gamma                90
_cell_volume                     1094.85
_exptl_crystal_colour            colorless
_exptl_crystal_description       prismatic
_chemical_melting_point          '156-157 deg.C'
_cell_formula_units_Z            2
_exptl_crystal_recrystallization_method methanol
loop_
_atom_site_label
_atom_site_type_symbol
_atom_site_fract_x
_atom_site_fract_y
_atom_site_fract_z
N1 N 0.9231(13) 1.0072(5) 0.2069(6)
H1 H 0.8995 1.0145 0.2729
O1 O 0.3980(11) 0.7606(4) -0.1124(5)
O2 O 0.9187(10) 0.7784(4) 0.0092(5)
H2 H 1.0410 0.7738 -0.0217
O3 O 0.8292(10) 0.8740(4) -0.1638(5)
O4 O 0.3362(13) 0.7674(5) -0.3369(5)
H3 H 0.3947 0.7210 -0.3183
O5 O 1.3033(11) 1.0546(4) -0.0971(5)
O6 O 1.5256(13) 1.0899(5) -0.6987(5)
H4 H 1.5605 1.1393 -0.7092
O7 O 0.6906(9) 0.8285(4) 0.2060(5)
O8 O 1.0891(10) 0.9476(3) 0.0641(4)
O9 O 1.2330(11) 0.8987(4) 0.3285(5)
O10 O 0.7640(13) 0.8827(7) 0.4106(6)
C1 C 0.4893(16) 0.7688(6) 0.0002(6)
H5 H 0.5339 0.7136 0.0317
H6 H 0.3692 0.7932 0.0381
C2 C 0.7078(13) 0.8265(6) 0.0112(6)
C3 C 0.6479(14) 0.8823(6) -0.0958(6)
H7 H 0.6239 0.9419 -0.0779
C4 C 0.4165(17) 0.8433(6) -0.1593(7)
H8 H 0.2754 0.8787 -0.1567
C5 C 0.4686(16) 0.8323(6) -0.2734(7)
H9 H 0.4354 0.8862 -0.3122
C6 C 0.7395(16) 0.8179(7) -0.2542(7)
H10 H 0.7778 0.7592 -0.2353
H11 H 0.8065 0.8326 -0.3187
C7 C 0.7257(14) 0.8811(6) 0.1151(6)
H12 H 0.5975 0.9235 0.1033
C8 C 0.9665(15) 0.9280(5) 0.1539(6)
C9 C 1.1073(15) 0.8630(6) 0.2317(7)
H13 H 1.2173 0.8313 0.1936
C10 C 0.9224(14) 0.8032(6) 0.2659(7)
H14 H 0.9586 0.7436 0.2534
C11 C 0.9315(15) 0.8234(7) 0.3908(7)
H15 H 0.9105 0.7708 0.4304
C12 C 1.1847(17) 0.8542(6) 0.4214(7)
H16 H 1.2004 0.8914 0.4844
H17 H 1.2938 0.8068 0.4382
C13 C 0.9284(17) 1.0713(6) 0.1236(8)
H18 H 0.9732 1.1262 0.1562
H19 H 0.7738 1.0763 0.0769
C14 C 1.1141(15) 1.0396(5) 0.0603(7)
H20 H 1.2736 1.0562 0.0975
C15 C 1.0819(17) 1.0662(6) -0.0588(8)
H21 H 0.9582 1.0321 -0.1018
H22 H 1.0339 1.1253 -0.0660
C16 C 1.2968(15) 1.0703(5) -0.2078(7)
C17 C 1.1206(18) 1.0387(7) -0.2880(8)
H23 H 0.9943 1.0081 -0.2683
C18 C 1.1289(16) 1.0517(8) -0.3959(8)
H24 H 1.0108 1.0283 -0.4484
C19 C 1.3134(16) 1.1000(6) -0.4291(7)
C20 C 1.4946(18) 1.1298(7) -0.3477(8)
H25 H 1.6216 1.1603 -0.3669
C21 C 1.4866(15) 1.1142(6) -0.2375(7)
H26 H 1.6097 1.1335 -0.1841
C22 C 1.3205(19) 1.1168(8) -0.5476(8)
H27 H 1.3255 1.1776 -0.5592
H28 H 1.1749 1.0952 -0.5912
C23 C 1.5323(18) 1.0764(7) -0.5855(7)
H29 H 1.6785 1.1003 -0.5453
H30 H 1.5326 1.0160 -0.5709
H31 H 0.683(15) 0.907(5) 0.337(7)
loop_
_geom_bond_atom_site_label_1
_geom_bond_atom_site_label_2
_geom_bond_site_symmetry_1
_geom_bond_site_symmetry_2
N1 H1 1_555 1_555
O1 C1 1_555 1_555
O2 H2 1_555 1_555
O3 C3 1_555 1_555
O4 H3 1_555 1_555
O5 C15 1_555 1_555
O6 H4 1_555 1_555
O7 C7 1_555 1_555
O8 C8 1_555 1_555
O9 C9 1_555 1_555
O10 C11 1_555 1_555
C1 H5 1_555 1_555
H6 C1 1_555 1_555
C2 O2 1_555 1_555
C3 C2 1_555 1_555
H7 C3 1_555 1_555
C4 O1 1_555 1_555
H8 C4 1_555 1_555
C5 O4 1_555 1_555
H9 C5 1_555 1_555
C6 O3 1_555 1_555
H10 C6 1_555 1_555
H11 C6 1_555 1_555
C7 C2 1_555 1_555
H12 C7 1_555 1_555
C8 N1 1_555 1_555
C9 C8 1_555 1_555
H13 C9 1_555 1_555
C10 O7 1_555 1_555
H14 C10 1_555 1_555
C11 C10 1_555 1_555
H15 C11 1_555 1_555
C12 O9 1_555 1_555
H16 C12 1_555 1_555
H17 C12 1_555 1_555
C13 N1 1_555 1_555
H18 C13 1_555 1_555
H19 C13 1_555 1_555
C14 O8 1_555 1_555
H20 C14 1_555 1_555
C15 C14 1_555 1_555
H21 C15 1_555 1_555
H22 C15 1_555 1_555
C16 O5 1_555 1_555
C17 C16 1_555 1_555
H23 C17 1_555 1_555
C18 C17 1_555 1_555
H24 C18 1_555 1_555
C19 C18 1_555 1_555
C20 C19 1_555 1_555
H25 C20 1_555 1_555
C21 C16 1_555 1_555
H26 C21 1_555 1_555
C22 C19 1_555 1_555
H27 C22 1_555 1_555
H28 C22 1_555 1_555
C23 O6 1_555 1_555
H29 C23 1_555 1_555
H30 C23 1_555 1_555
H31 O10 1_555 1_555
C1 C2 1_555 1_555
C3 C4 1_555 1_555
C4 C5 1_555 1_555
C5 C6 1_555 1_555
C7 C8 1_555 1_555
C9 C10 1_555 1_555
C11 C12 1_555 1_555
C13 C14 1_555 1_555
C20 C21 1_555 1_555
C22 C23 1_555 1_555

#END
