
#######################################################################
#
#                 Cambridge Crystallographic Data Centre
#                                CCDC 
#
#######################################################################
#
# If this CIF has been generated from an entry in the Cambridge 
# Structural Database, then it will include bibliographic, chemical, 
# crystal, experimental, refinement or atomic coordinate data resulting 
# from the CCDC's data processing and validation procedures.
#
#######################################################################

data_COBXUN
_chemical_formula_moiety         'C27 H32 O3'
_chemical_name_systematic        
'(S)-trans-1-(Hydroxy(diphenyl)methyl)-7,7-dimethylbicyclo[2.2.1]hept-2-yl pent-2-enoate'
_symmetry_cell_setting           orthorhombic
_symmetry_space_group_name_H-M   'P 21 21 21'
_symmetry_Int_Tables_number      19
_space_group_name_Hall           'P 2ac 2ab'
loop_
_symmetry_equiv_pos_site_id
_symmetry_equiv_pos_as_xyz
1 x,y,z
2 1/2+x,1/2-y,-z
3 -x,1/2+y,1/2-z
4 1/2-x,-y,1/2+z
_cell_length_a                   6.931(4)
_cell_length_b                   13.806(5)
_cell_length_c                   23.533(5)
_cell_angle_alpha                90
_cell_angle_beta                 90
_cell_angle_gamma                90
_cell_volume                     2251.86
_exptl_crystal_colour            colorless
_exptl_crystal_description       prism
_cell_formula_units_Z            4
loop_
_atom_site_label
_atom_site_type_symbol
_atom_site_fract_x
_atom_site_fract_y
_atom_site_fract_z
O1 O 0.0068(5) 0.4324(2) 0.34971(15)
H1 H -0.0099 0.4395 0.3840
O2 O -0.2382(6) 0.3894(3) 0.44135(14)
O3 O -0.5066(8) 0.4419(4) 0.4849(2)
C1 C -0.1758(7) 0.4146(4) 0.3225(2)
C2 C -0.3045(8) 0.5047(4) 0.3342(2)
C3 C -0.5046(9) 0.5041(4) 0.3311(3)
H2 H -0.5678 0.4458 0.3244
C4 C -0.6128(10) 0.5877(5) 0.3379(3)
H3 H -0.7466 0.5846 0.3356
C5 C -0.5249(12) 0.6745(5) 0.3478(3)
H4 H -0.5971 0.7307 0.3527
C6 C -0.3274(12) 0.6768(5) 0.3504(4)
H5 H -0.2649 0.7353 0.3570
C7 C -0.2182(10) 0.5923(4) 0.3434(3)
H6 H -0.0843 0.5959 0.3450
C8 C -0.1271(8) 0.4154(4) 0.2585(2)
C9 C 0.0621(8) 0.4090(4) 0.2398(2)
H7 H 0.1616 0.4011 0.2659
C10 C 0.1032(10) 0.4144(4) 0.1825(3)
H8 H 0.2310 0.4117 0.1706
C11 C -0.0383(10) 0.4235(5) 0.1431(3)
H9 H -0.0082 0.4245 0.1046
C12 C -0.2282(10) 0.4315(4) 0.1608(2)
H10 H -0.3262 0.4393 0.1342
C13 C -0.2715(9) 0.4278(4) 0.2179(2)
H11 H -0.3991 0.4337 0.2295
C14 C -0.2581(8) 0.3166(4) 0.3456(2)
C15 C -0.3505(9) 0.3240(4) 0.4058(2)
H12 H -0.4836 0.3474 0.4027
C16 C -0.3489(9) 0.2199(4) 0.4280(2)
H13 H -0.4781 0.1986 0.4378
H14 H -0.2667 0.2139 0.4612
C17 C -0.2683(10) 0.1612(4) 0.3779(3)
H15 H -0.2209 0.0968 0.3884
C18 C -0.4242(10) 0.1604(4) 0.3311(3)
H16 H -0.5499 0.1440 0.3465
H17 H -0.3919 0.1153 0.3010
C19 C -0.4184(8) 0.2662(3) 0.3100(2)
H18 H -0.5419 0.2975 0.3160
H19 H -0.3875 0.2685 0.2698
C20 C -0.1122(9) 0.2288(4) 0.3540(3)
C21 C 0.0549(8) 0.2397(4) 0.3965(2)
H20 H 0.1501 0.2828 0.3811
H21 H 0.1123 0.1774 0.4033
H22 H 0.0067 0.2655 0.4316
C22 C -0.0261(9) 0.1893(4) 0.2978(2)
H23 H -0.1274 0.1810 0.2704
H24 H 0.0350 0.1280 0.3048
H25 H 0.0674 0.2343 0.2834
C23 C -0.3356(13) 0.4489(5) 0.4767(3)
C24 C -0.2125(13) 0.5206(5) 0.5032(3)
H26 H -0.2754 0.5695 0.5231
C25 C -0.0210(13) 0.5254(5) 0.5027(3)
H27 H 0.0448 0.4764 0.4837
C26 C 0.0968(12) 0.6026(5) 0.5298(3)
H28 H 0.0123 0.6444 0.5516
H29 H 0.1868 0.5727 0.5560
C27 C 0.2065(12) 0.6626(6) 0.4888(3)
H30 H 0.2790 0.7107 0.5091
H31 H 0.1184 0.6939 0.4633
H32 H 0.2931 0.6222 0.4676
loop_
_geom_bond_atom_site_label_1
_geom_bond_atom_site_label_2
_geom_bond_site_symmetry_1
_geom_bond_site_symmetry_2
O1 H1 1_555 1_555
O2 C15 1_555 1_555
O3 C23 1_555 1_555
C1 O1 1_555 1_555
C2 C1 1_555 1_555
C3 C2 1_555 1_555
H2 C3 1_555 1_555
C4 C3 1_555 1_555
H3 C4 1_555 1_555
C5 C4 1_555 1_555
H4 C5 1_555 1_555
C6 C5 1_555 1_555
H5 C6 1_555 1_555
C7 C2 1_555 1_555
H6 C7 1_555 1_555
C8 C1 1_555 1_555
C9 C8 1_555 1_555
H7 C9 1_555 1_555
C10 C9 1_555 1_555
H8 C10 1_555 1_555
C11 C10 1_555 1_555
H9 C11 1_555 1_555
C12 C11 1_555 1_555
H10 C12 1_555 1_555
C13 C8 1_555 1_555
H11 C13 1_555 1_555
C14 C1 1_555 1_555
C15 C14 1_555 1_555
H12 C15 1_555 1_555
C16 C15 1_555 1_555
H13 C16 1_555 1_555
H14 C16 1_555 1_555
C17 C16 1_555 1_555
H15 C17 1_555 1_555
C18 C17 1_555 1_555
H16 C18 1_555 1_555
H17 C18 1_555 1_555
C19 C14 1_555 1_555
H18 C19 1_555 1_555
H19 C19 1_555 1_555
C20 C14 1_555 1_555
C21 C20 1_555 1_555
H20 C21 1_555 1_555
H21 C21 1_555 1_555
H22 C21 1_555 1_555
C22 C20 1_555 1_555
H23 C22 1_555 1_555
H24 C22 1_555 1_555
H25 C22 1_555 1_555
C23 O2 1_555 1_555
C24 C23 1_555 1_555
H26 C24 1_555 1_555
C25 C24 1_555 1_555
H27 C25 1_555 1_555
C26 C25 1_555 1_555
H28 C26 1_555 1_555
H29 C26 1_555 1_555
C27 C26 1_555 1_555
H30 C27 1_555 1_555
H31 C27 1_555 1_555
H32 C27 1_555 1_555
C6 C7 1_555 1_555
C12 C13 1_555 1_555
C17 C20 1_555 1_555
C18 C19 1_555 1_555

#END
