
#######################################################################
#
#                 Cambridge Crystallographic Data Centre
#                                CCDC 
#
#######################################################################
#
# If this CIF has been generated from an entry in the Cambridge 
# Structural Database, then it will include bibliographic, chemical, 
# crystal, experimental, refinement or atomic coordinate data resulting 
# from the CCDC's data processing and validation procedures.
#
#######################################################################

data_COBYAU
_chemical_formula_moiety         'C36 H38 N2 O5'
_chemical_name_systematic        
'1-(Hydroxy(diphenyl)methyl)-7,7-dimethylbicyclo[2.2.1]hept-2-yl 1-(1,3-dioxo-1,3-dihydroisoindol-2-yl)-(3S)-isopropylaziridine-(2R)-carboxylate'
_symmetry_cell_setting           monoclinic
_symmetry_space_group_name_H-M   'P 21'
_symmetry_Int_Tables_number      4
_space_group_name_Hall           'P 2yb'
loop_
_symmetry_equiv_pos_site_id
_symmetry_equiv_pos_as_xyz
1 x,y,z
2 -x,1/2+y,-z
_cell_length_a                   8.745(4)
_cell_length_b                   24.056(7)
_cell_length_c                   14.938(4)
_cell_angle_alpha                90
_cell_angle_beta                 100.15(3)
_cell_angle_gamma                90
_cell_volume                     3093.32
_exptl_crystal_colour            colorless
_exptl_crystal_description       prism
_cell_formula_units_Z            4
loop_
_atom_site_label
_atom_site_type_symbol
_atom_site_fract_x
_atom_site_fract_y
_atom_site_fract_z
O1 O 0.9342(3) 0.3080 0.1775(2)
H1 H 0.9721 0.3092 0.1311
O2 O 0.9556(3) 0.36190(18) 0.01508(18)
O3 O 0.8023(4) 0.3692(2) -0.1228(2)
O4 O 0.8449(7) 0.3026(2) -0.3595(3)
O5 O 1.1520(5) 0.4050(2) -0.1433(3)
N1 N 1.0508(5) 0.2962(2) -0.1848(3)
N2 N 1.0054(5) 0.3424(2) -0.2392(3)
C1 C 0.8049(5) 0.3448(2) 0.1687(3)
C2 C 0.6009(6) 0.3589(3) 0.2709(3)
H2 H 0.5411 0.3787 0.2238
C3 C 0.5441(6) 0.3505(3) 0.3499(3)
H3 H 0.4484 0.3653 0.3564
C4 C 0.6291(7) 0.3204(3) 0.4191(3)
H4 H 0.5902 0.3140 0.4722
C5 C 0.7697(7) 0.3000(3) 0.4100(3)
H5 H 0.8274 0.2796 0.4571
C6 C 0.8287(6) 0.3093(2) 0.3304(3)
H6 H 0.9261 0.2955 0.3254
C7 C 0.7449(5) 0.3387(2) 0.2590(3)
C8 C 0.6769(5) 0.3238(2) 0.0910(3)
C9 C 0.6866(6) 0.2710(3) 0.0572(3)
H7 H 0.7686 0.2480 0.0822
C10 C 0.5736(8) 0.2514(3) -0.0148(4)
H8 H 0.5825 0.2157 -0.0375
C11 C 0.4516(8) 0.2840(4) -0.0515(4)
H9 H 0.3779 0.2710 -0.0995
C12 C 0.4383(6) 0.3349(4) -0.0181(4)
H10 H 0.3541 0.3569 -0.0429
C13 C 0.5477(5) 0.3558(3) 0.0532(3)
H11 H 0.5347 0.3912 0.0759
C14 C 0.8657(5) 0.4043(2) 0.1485(3)
C15 C 0.7634(6) 0.4552(2) 0.1635(4)
H12 H 0.6750 0.4584 0.1145
H13 H 0.7259 0.4519 0.2207
C16 C 0.8722(6) 0.5063(3) 0.1650(5)
H14 H 0.8327 0.5325 0.1171
H15 H 0.8866 0.5252 0.2233
C17 C 1.0216(6) 0.4793(2) 0.1488(4)
H16 H 1.1135 0.5028 0.1663
C18 C 0.9941(6) 0.4617(3) 0.0491(4)
H17 H 1.0908 0.4515 0.0300
H18 H 0.9446 0.4912 0.0100
C19 C 0.8861(5) 0.4112(2) 0.0475(3)
H19 H 0.7856 0.4189 0.0090
C20 C 1.0288(5) 0.4248(2) 0.2017(4)
C21 C 1.0376(8) 0.4324(3) 0.3036(4)
H20 H 1.0403 0.3966 0.3324
H21 H 0.9481 0.4526 0.3146
H22 H 1.1300 0.4527 0.3281
C22 C 1.1758(5) 0.3916(3) 0.1896(4)
H23 H 1.1762 0.3861 0.1260
H24 H 1.1755 0.3562 0.2192
H25 H 1.2669 0.4120 0.2162
C23 C 0.9039(5) 0.3463(2) -0.0714(3)
C24 C 0.9936(5) 0.2971(2) -0.0940(3)
H26 H 1.0612 0.2792 -0.0428
C25 C 0.9208(6) 0.2598(2) -0.1687(3)
H27 H 0.8164 0.2697 -0.2002
C26 C 0.9628(8) 0.1986(3) -0.1653(4)
H28 H 1.0739 0.1950 -0.1409
C27 C 0.8724(9) 0.1673(3) -0.1034(5)
H29 H 0.9016 0.1287 -0.1015
H30 H 0.7632 0.1706 -0.1264
H31 H 0.8954 0.1826 -0.0432
C28 C 0.9314(11) 0.1747(3) -0.2620(5)
H32 H 0.9593 0.1360 -0.2602
H33 H 0.9921 0.1945 -0.2992
H34 H 0.8231 0.1785 -0.2872
C29 C 0.9106(7) 0.3427(3) -0.3244(3)
C30 C 0.9144(7) 0.4005(3) -0.3579(3)
C31 C 0.8450(10) 0.4241(3) -0.4386(4)
H35 H 0.7809 0.4034 -0.4826
C32 C 0.8735(11) 0.4791(3) -0.4520(5)
H36 H 0.8262 0.4962 -0.5056
C33 C 0.9698(9) 0.5092(3) -0.3886(5)
H37 H 0.9885 0.5463 -0.4003
C34 C 1.0409(8) 0.4858(3) -0.3064(5)
H38 H 1.1054 0.5066 -0.2627
C35 C 1.0115(6) 0.4311(3) -0.2929(4)
C36 C 1.0693(6) 0.3947(3) -0.2160(4)
O6 O 0.3810(3) 0.05695(18) 0.3075(2)
H39 H 0.3481 0.0707 0.3506
O7 O 0.3279(3) 0.15139(18) 0.4044(2)
O8 O 0.4923(4) 0.20184(19) 0.5076(2)
O9 O 0.5208(5) 0.2299(2) 0.7577(3)
O10 O 0.1288(4) 0.2377(2) 0.5120(3)
N3 N 0.2894(4) 0.1628(2) 0.6383(3)
N4 N 0.3160(4) 0.2202(2) 0.6373(3)
C37 C 0.4864(5) 0.0947(2) 0.2766(3)
C38 C 0.5384(5) 0.0648(2) 0.1964(3)
C39 C 0.6602(5) 0.0834(3) 0.1564(3)
H40 H 0.7154 0.1148 0.1796
C40 C 0.7012(7) 0.0564(3) 0.0829(4)
H41 H 0.7797 0.0707 0.0550
C41 C 0.6264(8) 0.0081(3) 0.0507(4)
H42 H 0.6549 -0.0105 0.0016
C42 C 0.5088(7) -0.0124(3) 0.0918(4)
H43 H 0.4598 -0.0456 0.0718
C43 C 0.4644(6) 0.0160(2) 0.1619(3)
H44 H 0.3823 0.0025 0.1875
C44 C 0.6264(5) 0.1036(2) 0.3552(3)
C45 C 0.6436(6) 0.0693(3) 0.4299(3)
H45 H 0.5742 0.0402 0.4315
C46 C 0.7642(7) 0.0777(4) 0.5035(4)
H46 H 0.7733 0.0550 0.5546
C47 C 0.8690(6) 0.1197(4) 0.4995(5)
H47 H 0.9500 0.1253 0.5481
C48 C 0.8558(6) 0.1526(3) 0.4269(5)
H48 H 0.9273 0.1810 0.4251
C49 C 0.7372(5) 0.1447(3) 0.3548(4)
H49 H 0.7309 0.1677 0.3042
C50 C 0.3950(5) 0.1498(2) 0.2479(3)
C51 C 0.4707(5) 0.1932(2) 0.1919(3)
H50 H 0.5531 0.2133 0.2306
H51 H 0.5134 0.1752 0.1437
C52 C 0.3365(7) 0.2330(3) 0.1519(4)
H52 H 0.3588 0.2709 0.1721
H53 H 0.3166 0.2320 0.0859
C53 C 0.2013(6) 0.2092(3) 0.1906(4)
H54 H 0.0994 0.2210 0.1580
C54 C 0.2291(7) 0.2228(3) 0.2923(4)
H55 H 0.1388 0.2139 0.3190
H56 H 0.2549 0.2618 0.3030
C55 C 0.3671(6) 0.1854(2) 0.3304(3)
H57 H 0.4589 0.2081 0.3527
C56 C 0.2274(5) 0.1462(3) 0.1882(4)
C57 C 0.2220(7) 0.1237(3) 0.0913(4)
H58 H 0.2983 0.1425 0.0635
H59 H 0.1207 0.1300 0.0561
H60 H 0.2437 0.0846 0.0939
C58 C 0.1008(5) 0.1151(3) 0.2295(5)
H61 H 0.1187 0.0758 0.2279
H62 H 0.0003 0.1236 0.1949
H63 H 0.1050 0.1268 0.2914
C59 C 0.3965(6) 0.1658(2) 0.4888(3)
C60 C 0.3340(5) 0.1329(2) 0.5585(3)
H64 H 0.2695 0.1008 0.5358
C61 C 0.4276(6) 0.1270(3) 0.6498(4)
H65 H 0.5273 0.1467 0.6595
C62 C 0.4218(7) 0.0766(3) 0.7075(5)
H66 H 0.3147 0.0629 0.6951
C63 C 0.5231(10) 0.0312(4) 0.6802(7)
H67 H 0.5180 -0.0008 0.7178
H68 H 0.6286 0.0441 0.6878
H69 H 0.4875 0.0216 0.6177
C64 C 0.4576(10) 0.0922(4) 0.8076(5)
H70 H 0.4528 0.0596 0.8440
H71 H 0.3827 0.1189 0.8205
H72 H 0.5598 0.1080 0.8215
C65 C 0.4294(6) 0.2503(3) 0.6975(3)
C66 C 0.4059(6) 0.3087(3) 0.6686(4)
C67 C 0.4817(8) 0.3567(3) 0.7014(5)
H73 H 0.5605 0.3558 0.7521
C68 C 0.4389(9) 0.4051(4) 0.6582(6)
H74 H 0.4914 0.4375 0.6789
C69 C 0.3197(8) 0.4078(3) 0.5843(5)
H75 H 0.2910 0.4419 0.5571
C70 C 0.2436(7) 0.3605(3) 0.5509(4)
H76 H 0.1651 0.3619 0.5001
C71 C 0.2857(6) 0.3111(3) 0.5939(3)
C72 C 0.2282(6) 0.2548(3) 0.5732(4)
loop_
_geom_bond_atom_site_label_1
_geom_bond_atom_site_label_2
_geom_bond_site_symmetry_1
_geom_bond_site_symmetry_2
O1 H1 1_555 1_555
O2 C19 1_555 1_555
O3 C23 1_555 1_555
O4 C29 1_555 1_555
O5 C36 1_555 1_555
N1 N2 1_555 1_555
N2 C29 1_555 1_555
C1 O1 1_555 1_555
C2 H2 1_555 1_555
C3 C2 1_555 1_555
H3 C3 1_555 1_555
C4 C3 1_555 1_555
H4 C4 1_555 1_555
C5 C4 1_555 1_555
H5 C5 1_555 1_555
C6 C5 1_555 1_555
H6 C6 1_555 1_555
C7 C1 1_555 1_555
C8 C1 1_555 1_555
C9 C8 1_555 1_555
H7 C9 1_555 1_555
C10 C9 1_555 1_555
H8 C10 1_555 1_555
C11 C10 1_555 1_555
H9 C11 1_555 1_555
C12 C11 1_555 1_555
H10 C12 1_555 1_555
C13 C8 1_555 1_555
H11 C13 1_555 1_555
C14 C1 1_555 1_555
C15 C14 1_555 1_555
H12 C15 1_555 1_555
H13 C15 1_555 1_555
C16 C15 1_555 1_555
H14 C16 1_555 1_555
H15 C16 1_555 1_555
C17 C16 1_555 1_555
H16 C17 1_555 1_555
C18 C17 1_555 1_555
H17 C18 1_555 1_555
H18 C18 1_555 1_555
C19 C14 1_555 1_555
H19 C19 1_555 1_555
C20 C14 1_555 1_555
C21 C20 1_555 1_555
H20 C21 1_555 1_555
H21 C21 1_555 1_555
H22 C21 1_555 1_555
C22 C20 1_555 1_555
H23 C22 1_555 1_555
H24 C22 1_555 1_555
H25 C22 1_555 1_555
C23 O2 1_555 1_555
C24 N1 1_555 1_555
H26 C24 1_555 1_555
C25 N1 1_555 1_555
H27 C25 1_555 1_555
C26 C25 1_555 1_555
H28 C26 1_555 1_555
C27 C26 1_555 1_555
H29 C27 1_555 1_555
H30 C27 1_555 1_555
H31 C27 1_555 1_555
C28 C26 1_555 1_555
H32 C28 1_555 1_555
H33 C28 1_555 1_555
H34 C28 1_555 1_555
C29 C30 1_555 1_555
C30 C31 1_555 1_555
C31 H35 1_555 1_555
C32 C31 1_555 1_555
H36 C32 1_555 1_555
C33 C32 1_555 1_555
H37 C33 1_555 1_555
C34 C33 1_555 1_555
H38 C34 1_555 1_555
C35 C30 1_555 1_555
C36 N2 1_555 1_555
O6 H39 1_555 1_555
O7 C55 1_555 1_555
O8 C59 1_555 1_555
O9 C65 1_555 1_555
O10 C72 1_555 1_555
N3 N4 1_555 1_555
N4 C65 1_555 1_555
C37 O6 1_555 1_555
C38 C37 1_555 1_555
C39 C38 1_555 1_555
H40 C39 1_555 1_555
C40 C39 1_555 1_555
H41 C40 1_555 1_555
C41 C40 1_555 1_555
H42 C41 1_555 1_555
C42 C41 1_555 1_555
H43 C42 1_555 1_555
C43 C38 1_555 1_555
H44 C43 1_555 1_555
C44 C37 1_555 1_555
C45 C44 1_555 1_555
H45 C45 1_555 1_555
C46 C45 1_555 1_555
H46 C46 1_555 1_555
C47 C46 1_555 1_555
H47 C47 1_555 1_555
C48 C47 1_555 1_555
H48 C48 1_555 1_555
C49 C44 1_555 1_555
H49 C49 1_555 1_555
C50 C37 1_555 1_555
C51 C50 1_555 1_555
H50 C51 1_555 1_555
H51 C51 1_555 1_555
C52 C51 1_555 1_555
H52 C52 1_555 1_555
H53 C52 1_555 1_555
C53 C52 1_555 1_555
H54 C53 1_555 1_555
C54 C53 1_555 1_555
H55 C54 1_555 1_555
H56 C54 1_555 1_555
C55 C50 1_555 1_555
H57 C55 1_555 1_555
C56 C50 1_555 1_555
C57 C56 1_555 1_555
H58 C57 1_555 1_555
H59 C57 1_555 1_555
H60 C57 1_555 1_555
C58 C56 1_555 1_555
H61 C58 1_555 1_555
H62 C58 1_555 1_555
H63 C58 1_555 1_555
C59 O7 1_555 1_555
C60 N3 1_555 1_555
H64 C60 1_555 1_555
C61 N3 1_555 1_555
H65 C61 1_555 1_555
C62 C61 1_555 1_555
H66 C62 1_555 1_555
C63 C62 1_555 1_555
H67 C63 1_555 1_555
H68 C63 1_555 1_555
H69 C63 1_555 1_555
C64 C62 1_555 1_555
H70 C64 1_555 1_555
H71 C64 1_555 1_555
H72 C64 1_555 1_555
C65 C66 1_555 1_555
C66 C67 1_555 1_555
C67 H73 1_555 1_555
C68 C67 1_555 1_555
H74 C68 1_555 1_555
C69 C68 1_555 1_555
H75 C69 1_555 1_555
C70 C69 1_555 1_555
H76 C70 1_555 1_555
C71 C66 1_555 1_555
C72 N4 1_555 1_555
C2 C7 1_555 1_555
C6 C7 1_555 1_555
C12 C13 1_555 1_555
C17 C20 1_555 1_555
C18 C19 1_555 1_555
C23 C24 1_555 1_555
C24 C25 1_555 1_555
C34 C35 1_555 1_555
C35 C36 1_555 1_555
C42 C43 1_555 1_555
C48 C49 1_555 1_555
C53 C56 1_555 1_555
C54 C55 1_555 1_555
C59 C60 1_555 1_555
C60 C61 1_555 1_555
C70 C71 1_555 1_555
C71 C72 1_555 1_555

#END
