
#######################################################################
#
#                 Cambridge Crystallographic Data Centre
#                                CCDC 
#
#######################################################################
#
# If this CIF has been generated from an entry in the Cambridge 
# Structural Database, then it will include bibliographic, chemical, 
# crystal, experimental, refinement or atomic coordinate data resulting 
# from the CCDC's data processing and validation procedures.
#
#######################################################################

data_COBYEY
_chemical_formula_moiety         'C36 H38 N2 O5'
_chemical_name_systematic        
'1-(Hydroxy(diphenyl)methyl)-7,7-dimethylbicyclo[2.2.1]hept-2-yl 1-(1,3-dioxo-1,3-dihydroisoindol-2-yl)-(3S)-n-propylaziridine-(2R)-carboxylate'
_symmetry_cell_setting           orthorhombic
_symmetry_space_group_name_H-M   'P 21 21 21'
_symmetry_Int_Tables_number      19
_space_group_name_Hall           'P 2ac 2ab'
loop_
_symmetry_equiv_pos_site_id
_symmetry_equiv_pos_as_xyz
1 x,y,z
2 1/2+x,1/2-y,-z
3 -x,1/2+y,1/2-z
4 1/2-x,-y,1/2+z
_cell_length_a                   10.876(2)
_cell_length_b                   14.442(4)
_cell_length_c                   19.914(6)
_cell_angle_alpha                90
_cell_angle_beta                 90
_cell_angle_gamma                90
_cell_volume                     3127.92
_exptl_crystal_colour            colorless
_exptl_crystal_description       prism
_cell_formula_units_Z            4
loop_
_atom_site_label
_atom_site_type_symbol
_atom_site_fract_x
_atom_site_fract_y
_atom_site_fract_z
O1 O 0.3103(2) 0.8119(2) 0.13759(16)
H1 H 0.3298 0.8657 0.1452
O2 O 0.2439(3) 0.98086(19) 0.18183(15)
O3 O 0.1756(3) 1.1274(2) 0.1810(2)
O4 O 0.4047(4) 1.3643(2) 0.1507(2)
O5 O 0.4179(5) 1.1132(3) 0.2887(2)
N1 N 0.4528(4) 1.1696(3) 0.1544(2)
N2 N 0.4044(4) 1.2243(3) 0.2066(2)
C1 C 0.1790(4) 0.8060(3) 0.1299(2)
C2 C 0.1402(4) 0.8643(3) 0.0680(2)
C3 C 0.2261(6) 0.8952(5) 0.0243(3)
H2 H 0.3082 0.8806 0.0317
C4 C 0.1948(8) 0.9486(6) -0.0318(3)
H3 H 0.2562 0.9708 -0.0600
C5 C 0.0776(8) 0.9677(5) -0.0448(3)
H4 H 0.0568 1.0010 -0.0831
C6 C -0.0107(8) 0.9387(5) -0.0025(3)
H5 H -0.0926 0.9528 -0.0110
C7 C 0.0213(6) 0.8875(5) 0.0540(3)
H6 H -0.0405 0.8685 0.0832
C8 C 0.1569(4) 0.7019(3) 0.1154(2)
C9 C 0.2487(5) 0.6387(3) 0.1276(3)
H7 H 0.3229 0.6586 0.1458
C10 C 0.2321(7) 0.5443(4) 0.1132(3)
H8 H 0.2946 0.5025 0.1230
C11 C 0.1269(7) 0.5135(4) 0.0854(3)
H9 H 0.1171 0.4511 0.0752
C12 C 0.0356(7) 0.5749(4) 0.0723(3)
H10 H -0.0375 0.5540 0.0534
C13 C 0.0495(5) 0.6685(3) 0.0868(2)
H11 H -0.0142 0.7094 0.0771
C14 C 0.1183(4) 0.8406(3) 0.1972(2)
C15 C -0.0213(4) 0.8211(3) 0.2077(2)
H12 H -0.0707 0.8623 0.1802
H13 H -0.0410 0.7576 0.1961
C16 C -0.0445(5) 0.8391(4) 0.2829(3)
H14 H -0.1041 0.8882 0.2894
H15 H -0.0735 0.7835 0.3053
C17 C 0.0808(5) 0.8672(3) 0.3085(2)
H16 H 0.0904 0.8614 0.3572
C18 C 0.1076(5) 0.9646(4) 0.2814(2)
H17 H 0.1817 0.9900 0.3012
H18 H 0.0395 1.0063 0.2900
C19 C 0.1242(4) 0.9476(3) 0.2055(2)
H19 H 0.0576 0.9772 0.1801
C20 C 0.1698(4) 0.8052(3) 0.2674(2)
C21 C 0.1484(7) 0.7014(4) 0.2816(3)
H20 H 0.0645 0.6859 0.2717
H21 H 0.1652 0.6887 0.3280
H22 H 0.2022 0.6651 0.2539
C22 C 0.3042(8) 0.8258(6) 0.2839(4)
H23 H 0.3211 0.8901 0.2755
H24 H 0.3565 0.7883 0.2562
H25 H 0.3196 0.8121 0.3303
C23 C 0.2537(5) 1.0715(3) 0.1684(2)
C24 C 0.3732(5) 1.0900(3) 0.1346(3)
H26 H 0.4168 1.0351 0.1181
C25 C 0.3802(5) 1.1728(3) 0.0910(2)
H27 H 0.3079 1.2133 0.0915
C26 C 0.4518(7) 1.1722(5) 0.0275(3)
H28 H 0.4042 1.1400 -0.0064
H29 H 0.5266 1.1370 0.0347
C27 C 0.4868(11) 1.2674(5) 0.0001(5)
H30 H 0.5417 1.2602 -0.0379
H31 H 0.5298 1.3023 0.0345
C28 C 0.3700(8) 1.3216(6) -0.0222(4)
H32 H 0.3935 1.3815 -0.0388
H33 H 0.3158 1.3289 0.0155
H34 H 0.3287 1.2878 -0.0571
C29 C 0.3940(4) 1.3201(3) 0.2022(3)
C30 C 0.3687(5) 1.3520(4) 0.2714(3)
C31 C 0.3473(6) 1.4405(4) 0.2952(4)
H35 H 0.3447 1.4914 0.2667
C32 C 0.3300(7) 1.4493(6) 0.3632(5)
H36 H 0.3158 1.5077 0.3813
C33 C 0.3334(6) 1.3738(7) 0.4050(4)
H37 H 0.3195 1.3824 0.4507
C34 C 0.3570(7) 1.2842(6) 0.3813(3)
H38 H 0.3606 1.2335 0.4100
C35 C 0.3745(5) 1.2754(4) 0.3134(3)
C36 C 0.3995(5) 1.1928(4) 0.2728(3)
loop_
_geom_bond_atom_site_label_1
_geom_bond_atom_site_label_2
_geom_bond_site_symmetry_1
_geom_bond_site_symmetry_2
O1 H1 1_555 1_555
O2 C19 1_555 1_555
O3 C23 1_555 1_555
O4 C29 1_555 1_555
O5 C36 1_555 1_555
N1 N2 1_555 1_555
N2 C29 1_555 1_555
C1 O1 1_555 1_555
C2 C1 1_555 1_555
C3 C2 1_555 1_555
H2 C3 1_555 1_555
C4 C3 1_555 1_555
H3 C4 1_555 1_555
C5 C4 1_555 1_555
H4 C5 1_555 1_555
C6 C5 1_555 1_555
H5 C6 1_555 1_555
C7 C2 1_555 1_555
H6 C7 1_555 1_555
C8 C1 1_555 1_555
C9 C8 1_555 1_555
H7 C9 1_555 1_555
C10 C9 1_555 1_555
H8 C10 1_555 1_555
C11 C10 1_555 1_555
H9 C11 1_555 1_555
C12 C11 1_555 1_555
H10 C12 1_555 1_555
C13 C8 1_555 1_555
H11 C13 1_555 1_555
C14 C1 1_555 1_555
C15 C14 1_555 1_555
H12 C15 1_555 1_555
H13 C15 1_555 1_555
C16 C15 1_555 1_555
H14 C16 1_555 1_555
H15 C16 1_555 1_555
C17 C16 1_555 1_555
H16 C17 1_555 1_555
C18 C17 1_555 1_555
H17 C18 1_555 1_555
H18 C18 1_555 1_555
C19 C14 1_555 1_555
H19 C19 1_555 1_555
C20 C14 1_555 1_555
C21 C20 1_555 1_555
H20 C21 1_555 1_555
H21 C21 1_555 1_555
H22 C21 1_555 1_555
C22 C20 1_555 1_555
H23 C22 1_555 1_555
H24 C22 1_555 1_555
H25 C22 1_555 1_555
C23 O2 1_555 1_555
C24 N1 1_555 1_555
H26 C24 1_555 1_555
C25 N1 1_555 1_555
H27 C25 1_555 1_555
C26 C25 1_555 1_555
H28 C26 1_555 1_555
H29 C26 1_555 1_555
C27 C26 1_555 1_555
H30 C27 1_555 1_555
H31 C27 1_555 1_555
C28 C27 1_555 1_555
H32 C28 1_555 1_555
H33 C28 1_555 1_555
H34 C28 1_555 1_555
C29 C30 1_555 1_555
C30 C31 1_555 1_555
C31 H35 1_555 1_555
C32 C31 1_555 1_555
H36 C32 1_555 1_555
C33 C32 1_555 1_555
H37 C33 1_555 1_555
C34 C33 1_555 1_555
H38 C34 1_555 1_555
C35 C30 1_555 1_555
C36 N2 1_555 1_555
C6 C7 1_555 1_555
C12 C13 1_555 1_555
C17 C20 1_555 1_555
C18 C19 1_555 1_555
C23 C24 1_555 1_555
C24 C25 1_555 1_555
C34 C35 1_555 1_555
C35 C36 1_555 1_555

#END
