
#######################################################################
#
#                 Cambridge Crystallographic Data Centre
#                                CCDC 
#
#######################################################################
#
# If this CIF has been generated from an entry in the Cambridge 
# Structural Database, then it will include bibliographic, chemical, 
# crystal, experimental, refinement or atomic coordinate data resulting 
# from the CCDC's data processing and validation procedures.
#
#######################################################################

data_COBZAV
_chemical_formula_moiety         'C20 H24 N2 O4 S1'
_chemical_name_systematic        
(S)-cis-4-Acryloyl-10,10-dimethyl-3-(toluene-4-sulfonyl)-3,4-diazatricyclo[5.2.1.0^1,5^]decan-2-one
_symmetry_cell_setting           orthorhombic
_symmetry_space_group_name_H-M   'P 21 21 21'
_symmetry_Int_Tables_number      19
_space_group_name_Hall           'P 2ac 2ab'
loop_
_symmetry_equiv_pos_site_id
_symmetry_equiv_pos_as_xyz
1 x,y,z
2 1/2-x,-y,1/2+z
3 1/2+x,1/2-y,-z
4 -x,1/2+y,1/2-z
_cell_length_a                   12.4010(7)
_cell_length_b                   6.6250(4)
_cell_length_c                   23.8760(17)
_cell_angle_alpha                90
_cell_angle_beta                 90
_cell_angle_gamma                90
_cell_volume                     1961.57
_exptl_crystal_colour            colorless
_exptl_crystal_description       prism
_cell_formula_units_Z            4
loop_
_atom_site_label
_atom_site_type_symbol
_atom_site_fract_x
_atom_site_fract_y
_atom_site_fract_z
S1 S -0.81301(18) 0.2415(3) -0.07027(9)
O1 O -0.7384(5) 0.1611(9) -0.0310(2)
O2 O -0.8321(5) 0.4525(7) -0.0752(2)
O3 O -0.9113(4) 0.2448(9) -0.1857(2)
O4 O -0.5171(6) -0.0989(15) -0.1150(3)
N1 N -0.7597(5) 0.1715(8) -0.1334(3)
N2 N -0.6834(6) 0.0127(10) -0.1339(3)
C1 C -0.9342(7) 0.1161(11) -0.0653(3)
C2 C -0.9389(8) -0.0869(12) -0.0484(4)
H1 H -0.8764 -0.1584 -0.0402
C3 C -1.0393(10) -0.1777(14) -0.0441(4)
H2 H -1.0423 -0.3107 -0.0318
C4 C -1.1305(9) -0.0872(14) -0.0566(4)
C5 C -1.2409(9) -0.1892(14) -0.0520(5)
H3 H -1.2961 -0.0958 -0.0631
H4 H -1.2530 -0.2306 -0.0140
H5 H -1.2428 -0.3053 -0.0761
C6 C -1.1283(8) 0.1129(13) -0.0722(4)
H6 H -1.1927 0.1797 -0.0796
C7 C -1.0306(7) 0.2175(12) -0.0770(4)
H7 H -1.0297 0.3523 -0.0879
C8 C -0.8353(6) 0.1368(12) -0.1777(3)
C9 C -0.8025(6) -0.0548(10) -0.2066(3)
C10 C -0.7266(6) -0.1605(11) -0.1662(4)
H8 H -0.7670 -0.2515 -0.1416
C11 C -0.6539(8) -0.2806(13) -0.2051(4)
H9 H -0.6499 -0.4211 -0.1939
H10 H -0.5817 -0.2244 -0.2062
C12 C -0.7113(7) -0.2572(12) -0.2621(4)
H11 H -0.6677 -0.3000 -0.2942
C13 C -0.8219(8) -0.3567(11) -0.2593(4)
H12 H -0.8175 -0.4893 -0.2422
H13 H -0.8533 -0.3695 -0.2963
C14 C -0.8891(7) -0.2083(11) -0.2220(4)
H14 H -0.9475 -0.1466 -0.2429
H15 H -0.9180 -0.2753 -0.1892
C15 C -0.7397(7) -0.0323(11) -0.2623(4)
C16 C -0.6396(7) 0.1118(12) -0.2612(4)
H16 H -0.5934 0.0755 -0.2306
H17 H -0.6635 0.2487 -0.2566
H18 H -0.6006 0.0997 -0.2958
C17 C -0.8073(7) 0.0390(12) -0.3120(3)
H19 H -0.8211 0.1811 -0.3085
H20 H -0.8745 -0.0328 -0.3125
H21 H -0.7689 0.0137 -0.3462
C18 C -0.5792(8) 0.0480(18) -0.1182(4)
C19 C -0.5451(8) 0.2543(18) -0.1052(4)
H22 H -0.5935 0.3596 -0.1107
C20 C -0.4481(8) 0.296(2) -0.0859(4)
H23 H -0.3987 0.1923 -0.0802
H24 H -0.4291 0.4286 -0.0781
loop_
_geom_bond_atom_site_label_1
_geom_bond_atom_site_label_2
_geom_bond_site_symmetry_1
_geom_bond_site_symmetry_2
S1 O1 1_555 1_555
O2 S1 1_555 1_555
O3 C8 1_555 1_555
O4 C18 1_555 1_555
N1 S1 1_555 1_555
N2 N1 1_555 1_555
C1 S1 1_555 1_555
C2 C1 1_555 1_555
H1 C2 1_555 1_555
C3 C2 1_555 1_555
H2 C3 1_555 1_555
C4 C3 1_555 1_555
C5 C4 1_555 1_555
H3 C5 1_555 1_555
H4 C5 1_555 1_555
H5 C5 1_555 1_555
C6 C4 1_555 1_555
H6 C6 1_555 1_555
C7 C1 1_555 1_555
H7 C7 1_555 1_555
C8 N1 1_555 1_555
C9 C8 1_555 1_555
C10 N2 1_555 1_555
H8 C10 1_555 1_555
C11 C10 1_555 1_555
H9 C11 1_555 1_555
H10 C11 1_555 1_555
C12 C11 1_555 1_555
H11 C12 1_555 1_555
C13 C12 1_555 1_555
H12 C13 1_555 1_555
H13 C13 1_555 1_555
C14 C9 1_555 1_555
H14 C14 1_555 1_555
H15 C14 1_555 1_555
C15 C9 1_555 1_555
C16 C15 1_555 1_555
H16 C16 1_555 1_555
H17 C16 1_555 1_555
H18 C16 1_555 1_555
C17 C15 1_555 1_555
H19 C17 1_555 1_555
H20 C17 1_555 1_555
H21 C17 1_555 1_555
C18 N2 1_555 1_555
C19 C18 1_555 1_555
H22 C19 1_555 1_555
C20 C19 1_555 1_555
H23 C20 1_555 1_555
H24 C20 1_555 1_555
C6 C7 1_555 1_555
C9 C10 1_555 1_555
C12 C15 1_555 1_555
C13 C14 1_555 1_555

#END
