
#######################################################################
#
#                 Cambridge Crystallographic Data Centre
#                                CCDC 
#
#######################################################################
#
# If this CIF has been generated from an entry in the Cambridge 
# Structural Database, then it will include bibliographic, chemical, 
# crystal, experimental, refinement or atomic coordinate data resulting 
# from the CCDC's data processing and validation procedures.
#
#######################################################################

data_COBZEZ
_chemical_formula_moiety         'C28 H28 N4 O6 S1'
_chemical_name_systematic        
2-(2-(10,10-Dimethyl-2-oxo-3-(toluene-4-sulfonyl)-3,4-diazatricyclo[5.2.1.0^1,5^]decane-4-carbonyl)-(2R)-aziridin-1-yl)isoindole-1,3-dione
_symmetry_cell_setting           orthorhombic
_symmetry_space_group_name_H-M   'P 21 21 21'
_symmetry_Int_Tables_number      19
_space_group_name_Hall           'P 2ac 2ab'
loop_
_symmetry_equiv_pos_site_id
_symmetry_equiv_pos_as_xyz
1 x,y,z
2 1/2-x,-y,1/2+z
3 1/2+x,1/2-y,-z
4 -x,1/2+y,1/2-z
_cell_length_a                   6.7301(2)
_cell_length_b                   14.1264(4)
_cell_length_c                   27.8317(9)
_cell_angle_alpha                90
_cell_angle_beta                 90
_cell_angle_gamma                90
_cell_volume                     2646.02
_exptl_crystal_colour            colorless
_exptl_crystal_description       prism
_cell_formula_units_Z            4
loop_
_atom_site_label
_atom_site_type_symbol
_atom_site_fract_x
_atom_site_fract_y
_atom_site_fract_z
S1 S 0.93922(16) 0.52444(8) 0.61057(4)
O1 O 0.9282(5) 0.3546(2) 0.54629(11)
O2 O 1.1384(4) 0.5150(2) 0.59491(11)
O3 O 0.8912(5) 0.5763(2) 0.65277(10)
O4 O 0.5686(5) 0.4130(2) 0.72827(11)
O5 O 1.2418(7) 0.4464(3) 0.84281(13)
O6 O 1.0791(5) 0.2117(2) 0.73679(11)
N1 N 0.8614(5) 0.4104(2) 0.62281(12)
N2 N 0.6954(5) 0.4022(3) 0.65469(12)
N3 N 0.9403(6) 0.3876(3) 0.77419(12)
N4 N 1.1286(6) 0.3462(3) 0.78241(12)
C1 C 0.8194(6) 0.3543(3) 0.58037(15)
C2 C 0.6286(6) 0.3040(3) 0.58816(14)
C3 C 0.5277(6) 0.3593(3) 0.62873(15)
H1 H 0.4441 0.4073 0.6150
C4 C 0.4008(7) 0.2821(4) 0.65402(18)
H2 H 0.4524 0.2709 0.6857
H3 H 0.2655 0.3032 0.6563
C5 C 0.4257(6) 0.1971(4) 0.62022(17)
H4 H 0.3736 0.1388 0.6326
C6 C 0.3307(7) 0.2209(4) 0.57169(19)
H5 H 0.3209 0.1634 0.5534
H6 H 0.2003 0.2466 0.5766
C7 C 0.4771(7) 0.2927(4) 0.54796(16)
H7 H 0.4171 0.3530 0.5416
H8 H 0.5408 0.2697 0.5194
C8 C 0.6492(6) 0.2003(3) 0.60869(16)
C9 C 0.7153(7) 0.1283(3) 0.57105(17)
H9 H 0.7245 0.0665 0.5853
H10 H 0.8429 0.1464 0.5586
H11 H 0.6202 0.1269 0.5454
C10 C 0.7862(7) 0.1877(3) 0.65179(16)
H12 H 0.7861 0.1226 0.6617
H13 H 0.7414 0.2267 0.6778
H14 H 0.9184 0.2060 0.6428
C11 C 0.7899(6) 0.5658(3) 0.56361(16)
C12 C 0.8571(8) 0.5594(4) 0.51625(18)
H15 H 0.9865 0.5336 0.5099
C13 C 0.7343(10) 0.5906(4) 0.47997(19)
H16 H 0.7777 0.5853 0.4472
C14 C 0.5510(10) 0.6287(4) 0.4894(2)
C15 C 0.4171(10) 0.6621(5) 0.4485(2)
H17 H 0.2957 0.6867 0.4617
H18 H 0.3877 0.6100 0.4275
H19 H 0.4835 0.7110 0.4307
C16 C 0.4882(8) 0.6351(4) 0.5367(2)
H20 H 0.3621 0.6637 0.5437
C17 C 0.6061(7) 0.6034(3) 0.57351(19)
H21 H 0.5596 0.6062 0.6061
C18 C 0.7163(7) 0.4119(3) 0.70346(16)
C19 C 0.9220(7) 0.4226(3) 0.72358(15)
H22 H 1.0165 0.4144 0.6981
C20 C 0.9572(9) 0.4898(3) 0.76266(17)
H23 H 0.8576 0.5243 0.7800
H24 H 1.0867 0.5103 0.7727
C21 C 1.2573(8) 0.3757(3) 0.81864(17)
C22 C 1.4184(8) 0.3026(3) 0.82012(16)
C23 C 1.5892(10) 0.3007(4) 0.84592(18)
H25 H 1.6213 0.3519 0.8672
C24 C 1.7157(8) 0.2235(4) 0.8393(2)
H26 H 1.8394 0.2197 0.8564
C25 C 1.6676(7) 0.1521(4) 0.80834(18)
H27 H 1.7517 0.0976 0.8051
C26 C 1.4937(6) 0.1549(4) 0.78178(17)
H28 H 1.4645 0.1050 0.7595
C27 C 1.3671(7) 0.2311(3) 0.78833(15)
C28 C 1.1760(7) 0.2558(3) 0.76477(16)
loop_
_geom_bond_atom_site_label_1
_geom_bond_atom_site_label_2
_geom_bond_site_symmetry_1
_geom_bond_site_symmetry_2
S1 O2 1_555 1_555
O1 C1 1_555 1_555
O3 S1 1_555 1_555
O4 C18 1_555 1_555
O5 C21 1_555 1_555
O6 C28 1_555 1_555
N1 S1 1_555 1_555
N2 N1 1_555 1_555
N3 N4 1_555 1_555
N4 C21 1_555 1_555
C1 N1 1_555 1_555
C2 C1 1_555 1_555
C3 N2 1_555 1_555
H1 C3 1_555 1_555
C4 C3 1_555 1_555
H2 C4 1_555 1_555
H3 C4 1_555 1_555
C5 C4 1_555 1_555
H4 C5 1_555 1_555
C6 C5 1_555 1_555
H5 C6 1_555 1_555
H6 C6 1_555 1_555
C7 C2 1_555 1_555
H7 C7 1_555 1_555
H8 C7 1_555 1_555
C8 C2 1_555 1_555
C9 C8 1_555 1_555
H9 C9 1_555 1_555
H10 C9 1_555 1_555
H11 C9 1_555 1_555
C10 C8 1_555 1_555
H12 C10 1_555 1_555
H13 C10 1_555 1_555
H14 C10 1_555 1_555
C11 S1 1_555 1_555
C12 C11 1_555 1_555
H15 C12 1_555 1_555
C13 C12 1_555 1_555
H16 C13 1_555 1_555
C14 C13 1_555 1_555
C15 C14 1_555 1_555
H17 C15 1_555 1_555
H18 C15 1_555 1_555
H19 C15 1_555 1_555
C16 C14 1_555 1_555
H20 C16 1_555 1_555
C17 C11 1_555 1_555
H21 C17 1_555 1_555
C18 N2 1_555 1_555
C19 N3 1_555 1_555
H22 C19 1_555 1_555
C20 N3 1_555 1_555
H23 C20 1_555 1_555
H24 C20 1_555 1_555
C21 C22 1_555 1_555
C22 C23 1_555 1_555
C23 H25 1_555 1_555
C24 C23 1_555 1_555
H26 C24 1_555 1_555
C25 C24 1_555 1_555
H27 C25 1_555 1_555
C26 C25 1_555 1_555
H28 C26 1_555 1_555
C27 C22 1_555 1_555
C28 N4 1_555 1_555
C2 C3 1_555 1_555
C5 C8 1_555 1_555
C6 C7 1_555 1_555
C16 C17 1_555 1_555
C18 C19 1_555 1_555
C19 C20 1_555 1_555
C26 C27 1_555 1_555
C27 C28 1_555 1_555

#END
