
#######################################################################
#
#                 Cambridge Crystallographic Data Centre
#                                CCDC 
#
#######################################################################
#
# If this CIF has been generated from an entry in the Cambridge 
# Structural Database, then it will include bibliographic, chemical, 
# crystal, experimental, refinement or atomic coordinate data resulting 
# from the CCDC's data processing and validation procedures.
#
#######################################################################

data_COBZUQ
_chemical_formula_moiety         'C66 H88 Li4 N10,3(C7 H8)'
_chemical_name_systematic        
'(\m~2~-1,2-bis(Dimethylamino)ethane)-tetrakis(\m~2~-diphenylamido)-bis(1,2-bis(dimethylamino)ethane)-tetra-lithium toluene solvate'
_symmetry_cell_setting           triclinic
_symmetry_space_group_name_H-M   'P -1'
_symmetry_Int_Tables_number      2
_space_group_name_Hall           '-P 1'
loop_
_symmetry_equiv_pos_site_id
_symmetry_equiv_pos_as_xyz
1 x,y,z
2 -x,-y,-z
_cell_length_a                   10.0937(13)
_cell_length_b                   14.4192(17)
_cell_length_c                   15.4236(19)
_cell_angle_alpha                67.199(3)
_cell_angle_beta                 74.611(3)
_cell_angle_gamma                75.979(3)
_cell_volume                     1970.48
_exptl_crystal_colour            colorless
_exptl_crystal_description       block
_cell_formula_units_Z            1
_exptl_crystal_recrystallization_method toluene
loop_
_atom_site_label
_atom_site_type_symbol
_atom_site_fract_x
_atom_site_fract_y
_atom_site_fract_z
Li1 Li 0.3989(4) 0.7198(3) 0.1528(3)
Li2 Li 0.3710(5) 0.5860(3) 0.3227(3)
N1 N 0.4004(2) 0.73387(15) 0.28422(14)
N2 N 0.3638(2) 0.56639(15) 0.20023(14)
N3 N 0.2591(2) 0.83802(16) 0.07168(15)
N4 N 0.5587(2) 0.76542(16) 0.02588(14)
N5 N 0.3546(2) 0.47467(16) 0.45808(15)
C1 C 0.2758(3) 0.75330(18) 0.34529(17)
C2 C 0.2640(3) 0.7814(2) 0.42545(18)
H1 H 0.3439 0.7952 0.4370
C3 C 0.1378(3) 0.7889(2) 0.4875(2)
H2 H 0.1329 0.8083 0.5407
C4 C 0.0186(3) 0.7691(2) 0.4742(2)
H3 H -0.0671 0.7741 0.5177
C5 C 0.0273(3) 0.7420(2) 0.3965(2)
H4 H -0.0534 0.7282 0.3860
C6 C 0.1528(3) 0.73464(19) 0.33294(18)
H5 H 0.1556 0.7164 0.2795
C7 C 0.5103(3) 0.78444(18) 0.27420(16)
C8 C 0.4905(3) 0.88636(19) 0.26752(18)
H6 H 0.3989 0.9236 0.2724
C9 C 0.6020(3) 0.9339(2) 0.25389(19)
H7 H 0.5852 1.0027 0.2511
C10 C 0.7377(3) 0.8833(2) 0.24424(19)
H8 H 0.8138 0.9164 0.2346
C11 C 0.7589(3) 0.7836(2) 0.24899(19)
H9 H 0.8510 0.7477 0.2416
C12 C 0.6481(3) 0.73487(19) 0.26431(17)
H10 H 0.6660 0.6657 0.2682
C13 C 0.2514(3) 0.56103(18) 0.16432(18)
C14 C 0.1162(3) 0.56334(19) 0.2184(2)
H11 H 0.1009 0.5635 0.2819
C15 C 0.0036(3) 0.5654(2) 0.1814(2)
H12 H -0.0874 0.5680 0.2193
C16 C 0.0229(3) 0.5638(2) 0.0902(2)
H13 H -0.0542 0.5656 0.0650
C17 C 0.1562(3) 0.5596(2) 0.0358(2)
H14 H 0.1708 0.5580 -0.0271
C18 C 0.2679(3) 0.55765(19) 0.07257(19)
H15 H 0.3586 0.5539 0.0345
C19 C 0.4721(2) 0.48557(18) 0.20816(17)
C20 C 0.5956(3) 0.4925(2) 0.22993(19)
H16 H 0.6075 0.5564 0.2287
C21 C 0.6997(3) 0.4109(2) 0.2529(2)
H17 H 0.7796 0.4189 0.2692
C22 C 0.6893(3) 0.3173(2) 0.2523(2)
H18 H 0.7599 0.2602 0.2694
C23 C 0.5720(3) 0.3095(2) 0.22610(19)
H19 H 0.5647 0.2465 0.2231
C24 C 0.4665(3) 0.39011(19) 0.20439(18)
H20 H 0.3883 0.3816 0.1865
C25 C 0.2554(3) 0.9256(2) 0.0982(2)
H21 H 0.1925 0.9192 0.1600
H22 H 0.2219 0.9883 0.0491
H23 H 0.3491 0.9282 0.1031
C26 C 0.1152(3) 0.8284(2) 0.0765(2)
H24 H 0.0620 0.8196 0.1416
H25 H 0.1157 0.7692 0.0600
H26 H 0.0722 0.8901 0.0312
C27 C 0.3358(3) 0.8521(3) -0.02732(19)
H27 H 0.2925 0.9159 -0.0715
H28 H 0.3282 0.7949 -0.0453
C28 C 0.4878(3) 0.8568(2) -0.0391(2)
H29 H 0.5346 0.8645 -0.1061
H30 H 0.4957 0.9174 -0.0266
C29 C 0.5936(3) 0.6817(2) -0.0119(2)
H31 H 0.6383 0.6207 0.0331
H32 H 0.6573 0.7010 -0.0739
H33 H 0.5084 0.6675 -0.0201
C30 C 0.6899(3) 0.7890(2) 0.0309(2)
H34 H 0.6694 0.8413 0.0605
H35 H 0.7448 0.8142 -0.0339
H36 H 0.7429 0.7273 0.0694
C31 C 0.3466(4) 0.3786(2) 0.4485(2)
H37 H 0.3371 0.3252 0.5118
H38 H 0.4316 0.3588 0.4069
H39 H 0.2659 0.3880 0.4203
C32 C 0.2275(3) 0.5015(2) 0.5204(2)
H40 H 0.2228 0.4499 0.5848
H41 H 0.1469 0.5047 0.4947
H42 H 0.2271 0.5681 0.5238
C33 C 0.4817(3) 0.4547(2) 0.4981(2)
H43 H 0.4677 0.4040 0.5637
H44 H 0.5609 0.4243 0.4587
N5A N 0.6454(2) 0.52533(16) 0.54192(15)
C31A C 0.6534(4) 0.6214(2) 0.5515(2)
H37A H 0.6629 0.6748 0.4882
H38A H 0.5684 0.6412 0.5931
H39A H 0.7341 0.6120 0.5797
C32A C 0.7725(3) 0.4985(2) 0.4796(2)
H40A H 0.7772 0.5501 0.4152
H41A H 0.8531 0.4953 0.5053
H42A H 0.7729 0.4319 0.4762
C33A C 0.5183(3) 0.5453(2) 0.5019(2)
H43A H 0.5323 0.5960 0.4363
H44A H 0.4391 0.5757 0.5413
Li1A Li 0.6011(4) 0.2802(3) 0.8472(3)
Li2A Li 0.6290(5) 0.4140(3) 0.6773(3)
N1A N 0.5996(2) 0.26613(15) 0.71578(14)
N2A N 0.6362(2) 0.43361(15) 0.79977(14)
N3A N 0.7409(2) 0.16198(16) 0.92832(15)
N4A N 0.4413(2) 0.23458(16) 0.97412(14)
C1A C 0.7242(3) 0.24670(18) 0.65471(17)
C2A C 0.7360(3) 0.2186(2) 0.57455(18)
H1A H 0.6561 0.2048 0.5630
C3A C 0.8622(3) 0.2111(2) 0.5125(2)
H2A H 0.8671 0.1917 0.4593
C4A C 0.9814(3) 0.2309(2) 0.5258(2)
H3A H 1.0671 0.2259 0.4823
C5A C 0.9727(3) 0.2580(2) 0.6035(2)
H4A H 1.0534 0.2718 0.6140
C6A C 0.8472(3) 0.26536(19) 0.66706(18)
H5A H 0.8444 0.2836 0.7205
C7A C 0.4897(3) 0.21556(18) 0.72580(16)
C8A C 0.5095(3) 0.11364(19) 0.73248(18)
H6A H 0.6011 0.0764 0.7276
C9A C 0.3980(3) 0.0661(2) 0.74611(19)
H7A H 0.4148 -0.0027 0.7489
C10A C 0.2623(3) 0.1167(2) 0.75576(19)
H8A H 0.1862 0.0836 0.7654
C11A C 0.2411(3) 0.2164(2) 0.75101(19)
H9A H 0.1490 0.2523 0.7584
C12A C 0.3519(3) 0.26513(19) 0.73569(17)
H10A H 0.3340 0.3343 0.7318
C13A C 0.7486(3) 0.43897(18) 0.83568(18)
C14A C 0.8838(3) 0.43666(19) 0.7816(2)
H11A H 0.8991 0.4365 0.7181
C15A C 0.9964(3) 0.4346(2) 0.8186(2)
H12A H 1.0874 0.4320 0.7807
C16A C 0.9771(3) 0.4362(2) 0.9098(2)
H13A H 1.0542 0.4344 0.9350
C17A C 0.8438(3) 0.4404(2) 0.9642(2)
H14A H 0.8292 0.4420 1.0271
C18A C 0.7321(3) 0.44235(19) 0.92743(19)
H15A H 0.6414 0.4461 0.9655
C19A C 0.5279(2) 0.51443(18) 0.79184(17)
C20A C 0.4044(3) 0.5075(2) 0.77007(19)
H16A H 0.3925 0.4436 0.7713
C21A C 0.3003(3) 0.5891(2) 0.7471(2)
H17A H 0.2204 0.5811 0.7308
C22A C 0.3107(3) 0.6827(2) 0.7477(2)
H18A H 0.2401 0.7398 0.7306
C23A C 0.4280(3) 0.6905(2) 0.77390(19)
H19A H 0.4353 0.7535 0.7769
C24A C 0.5335(3) 0.60989(19) 0.79561(18)
H20A H 0.6117 0.6184 0.8135
C25A C 0.7446(3) 0.0744(2) 0.9018(2)
H21A H 0.8075 0.0808 0.8400
H22A H 0.7781 0.0117 0.9509
H23A H 0.6509 0.0718 0.8969
C26A C 0.8848(3) 0.1716(2) 0.9235(2)
H24A H 0.9380 0.1804 0.8584
H25A H 0.8843 0.2308 0.9400
H26A H 0.9278 0.1099 0.9688
C27A C 0.6642(3) 0.1479(3) 1.02732(19)
H27A H 0.7075 0.0841 1.0715
H28A H 0.6718 0.2051 1.0453
C28A C 0.5122(3) 0.1432(2) 1.0391(2)
H29A H 0.4654 0.1355 1.1061
H30A H 0.5043 0.0826 1.0266
C29A C 0.4064(3) 0.3183(2) 1.0119(2)
H31A H 0.3617 0.3793 0.9669
H32A H 0.3427 0.2990 1.0739
H33A H 0.4916 0.3325 1.0201
C30A C 0.3101(3) 0.2110(2) 0.9691(2)
H34A H 0.3306 0.1587 0.9395
H35A H 0.2552 0.1858 1.0339
H36A H 0.2571 0.2727 0.9306
C34 C -0.0461(4) 1.1260(3) 0.1683(3)
H45 H 0.0097 1.0800 0.1345
H46 H -0.0835 1.1896 0.1220
H47 H -0.1231 1.0937 0.2152
C35 C 0.0441(3) 1.1489(2) 0.2192(2)
C36 C 0.0550(3) 1.2488(2) 0.2014(2)
H48 H 0.0041 1.3027 0.1580
C37 C 0.1390(3) 1.2711(3) 0.2461(2)
H49 H 0.1442 1.3400 0.2340
C38 C 0.2147(3) 1.1943(3) 0.3077(2)
H50 H 0.2737 1.2097 0.3374
C39 C 0.2049(3) 1.0950(3) 0.3261(2)
H51 H 0.2572 1.0414 0.3688
C40 C 0.1191(3) 1.0727(3) 0.2826(2)
H52 H 0.1118 1.0037 0.2968
C41? C 0.2467(9) -0.0211(7) 0.5874(7)
H53? H 0.2462 -0.0786 0.6480
H54? H 0.1981 -0.0336 0.5467
H55? H 0.1995 0.0415 0.6002
C42? C 0.3953(9) -0.0095(6) 0.5365(9)
C43? C 0.4425(11) 0.0837(7) 0.5024(7)
H56? H 0.3809 0.1418 0.5117
C44? C 0.5794(10) 0.0921(10) 0.4547(8)
H57? H 0.6098 0.1564 0.4309
C45? C 0.6701(12) 0.0098(9) 0.4416(8)
H58? H 0.7633 0.0162 0.4089
C46? C 0.6251(10) -0.0822(9) 0.4764(8)
H59? H 0.6884 -0.1401 0.4680
C47? C 0.4900(9) -0.0931(7) 0.5233(7)
H60? H 0.4613 -0.1580 0.5468
loop_
_geom_bond_atom_site_label_1
_geom_bond_atom_site_label_2
_geom_bond_site_symmetry_1
_geom_bond_site_symmetry_2
Li1 N1 1_555 1_555
Li2 N1 1_555 1_555
N1 C1 1_555 1_555
N2 Li1 1_555 1_555
N3 Li1 1_555 1_555
N4 Li1 1_555 1_555
N5 Li2 1_555 1_555
C1 C2 1_555 1_555
C2 H1 1_555 1_555
C3 C2 1_555 1_555
H2 C3 1_555 1_555
C4 C3 1_555 1_555
H3 C4 1_555 1_555
C5 C4 1_555 1_555
H4 C5 1_555 1_555
C6 C1 1_555 1_555
H5 C6 1_555 1_555
C7 N1 1_555 1_555
C8 C7 1_555 1_555
H6 C8 1_555 1_555
C9 C8 1_555 1_555
H7 C9 1_555 1_555
C10 C9 1_555 1_555
H8 C10 1_555 1_555
C11 C10 1_555 1_555
H9 C11 1_555 1_555
C12 C7 1_555 1_555
H10 C12 1_555 1_555
C13 N2 1_555 1_555
C14 C13 1_555 1_555
H11 C14 1_555 1_555
C15 C14 1_555 1_555
H12 C15 1_555 1_555
C16 C15 1_555 1_555
H13 C16 1_555 1_555
C17 C16 1_555 1_555
H14 C17 1_555 1_555
C18 C13 1_555 1_555
H15 C18 1_555 1_555
C19 N2 1_555 1_555
C20 C19 1_555 1_555
H16 C20 1_555 1_555
C21 C20 1_555 1_555
H17 C21 1_555 1_555
C22 C21 1_555 1_555
H18 C22 1_555 1_555
C23 C22 1_555 1_555
H19 C23 1_555 1_555
C24 C19 1_555 1_555
H20 C24 1_555 1_555
C25 N3 1_555 1_555
H21 C25 1_555 1_555
H22 C25 1_555 1_555
H23 C25 1_555 1_555
C26 N3 1_555 1_555
H24 C26 1_555 1_555
H25 C26 1_555 1_555
H26 C26 1_555 1_555
C27 N3 1_555 1_555
H27 C27 1_555 1_555
H28 C27 1_555 1_555
C28 N4 1_555 1_555
H29 C28 1_555 1_555
H30 C28 1_555 1_555
C29 N4 1_555 1_555
H31 C29 1_555 1_555
H32 C29 1_555 1_555
H33 C29 1_555 1_555
C30 N4 1_555 1_555
H34 C30 1_555 1_555
H35 C30 1_555 1_555
H36 C30 1_555 1_555
C31 N5 1_555 1_555
H37 C31 1_555 1_555
H38 C31 1_555 1_555
H39 C31 1_555 1_555
C32 N5 1_555 1_555
H40 C32 1_555 1_555
H41 C32 1_555 1_555
H42 C32 1_555 1_555
C33 N5 1_555 1_555
H43 C33 1_555 1_555
H44 C33 1_555 1_555
C34 H45 1_555 1_555
H46 C34 1_555 1_555
H47 C34 1_555 1_555
C35 C34 1_555 1_555
C36 C35 1_555 1_555
H48 C36 1_555 1_555
C37 C36 1_555 1_555
H49 C37 1_555 1_555
C38 C37 1_555 1_555
H50 C38 1_555 1_555
C39 C38 1_555 1_555
H51 C39 1_555 1_555
C40 C35 1_555 1_555
H52 C40 1_555 1_555
N5A C31A 1_555 1_555
C31A H37A 1_555 1_555
H38A C31A 1_555 1_555
H39A C31A 1_555 1_555
C32A N5A 1_555 1_555
H40A C32A 1_555 1_555
H41A C32A 1_555 1_555
H42A C32A 1_555 1_555
C33A C33 1_555 1_555
H43A C33A 1_555 1_555
H44A C33A 1_555 1_555
Li1A N1A 1_555 1_555
Li2A N5A 1_555 1_555
N1A Li2A 1_555 1_555
N2A Li1A 1_555 1_555
N3A Li1A 1_555 1_555
N4A Li1A 1_555 1_555
C1A N1A 1_555 1_555
C2A C1A 1_555 1_555
H1A C2A 1_555 1_555
C3A C2A 1_555 1_555
H2A C3A 1_555 1_555
C4A C3A 1_555 1_555
H3A C4A 1_555 1_555
C5A C4A 1_555 1_555
H4A C5A 1_555 1_555
C6A C1A 1_555 1_555
H5A C6A 1_555 1_555
C7A N1A 1_555 1_555
C8A C7A 1_555 1_555
H6A C8A 1_555 1_555
C9A C8A 1_555 1_555
H7A C9A 1_555 1_555
C10A C9A 1_555 1_555
H8A C10A 1_555 1_555
C11A C10A 1_555 1_555
H9A C11A 1_555 1_555
C12A C7A 1_555 1_555
H10A C12A 1_555 1_555
C13A N2A 1_555 1_555
C14A C13A 1_555 1_555
H11A C14A 1_555 1_555
C15A C14A 1_555 1_555
H12A C15A 1_555 1_555
C16A C15A 1_555 1_555
H13A C16A 1_555 1_555
C17A C16A 1_555 1_555
H14A C17A 1_555 1_555
C18A C13A 1_555 1_555
H15A C18A 1_555 1_555
C19A N2A 1_555 1_555
C20A C19A 1_555 1_555
H16A C20A 1_555 1_555
C21A C20A 1_555 1_555
H17A C21A 1_555 1_555
C22A C21A 1_555 1_555
H18A C22A 1_555 1_555
C23A C22A 1_555 1_555
H19A C23A 1_555 1_555
C24A C19A 1_555 1_555
H20A C24A 1_555 1_555
C25A N3A 1_555 1_555
H21A C25A 1_555 1_555
H22A C25A 1_555 1_555
H23A C25A 1_555 1_555
C26A N3A 1_555 1_555
H24A C26A 1_555 1_555
H25A C26A 1_555 1_555
H26A C26A 1_555 1_555
C27A N3A 1_555 1_555
H27A C27A 1_555 1_555
H28A C27A 1_555 1_555
C28A N4A 1_555 1_555
H29A C28A 1_555 1_555
H30A C28A 1_555 1_555
C29A N4A 1_555 1_555
H31A C29A 1_555 1_555
H32A C29A 1_555 1_555
H33A C29A 1_555 1_555
C30A N4A 1_555 1_555
H34A C30A 1_555 1_555
H35A C30A 1_555 1_555
H36A C30A 1_555 1_555
Li2 N2 1_555 1_555
C5 C6 1_555 1_555
C11 C12 1_555 1_555
C17 C18 1_555 1_555
C23 C24 1_555 1_555
C27 C28 1_555 1_555
C39 C40 1_555 1_555
N5A C33A 1_555 1_555
Li2A N2A 1_555 1_555
C5A C6A 1_555 1_555
C11A C12A 1_555 1_555
C17A C18A 1_555 1_555
C23A C24A 1_555 1_555
C27A C28A 1_555 1_555

#END
