
#######################################################################
#
#                 Cambridge Crystallographic Data Centre
#                                CCDC 
#
#######################################################################
#
# If this CIF has been generated from an entry in the Cambridge 
# Structural Database, then it will include bibliographic, chemical, 
# crystal, experimental, refinement or atomic coordinate data resulting 
# from the CCDC's data processing and validation procedures.
#
#######################################################################

data_COCFOQ
_chemical_formula_moiety         'C42 H37 Br1 N3 O4 P1 S2'
_chemical_name_systematic        
N-(4-bromophenyl)-N'-(methylsulfonyl)-N-[N-(methylsulfonyl)-2-phenylethanimidoyl]-2-phenyl-2-(triphenylphosphanylidene)ethanimidamide
_symmetry_cell_setting           triclinic
_symmetry_space_group_name_H-M   'P -1'
_symmetry_Int_Tables_number      2
_space_group_name_Hall           '-P 1'
loop_
_symmetry_equiv_pos_site_id
_symmetry_equiv_pos_as_xyz
1 x,y,z
2 -x,-y,-z
_cell_length_a                   9.9073(5)
_cell_length_b                   11.6315(4)
_cell_length_c                   17.0006(7)
_cell_angle_alpha                85.2609(10)
_cell_angle_beta                 85.6942(13)
_cell_angle_gamma                87.5166(13)
_cell_volume                     1945.53
_exptl_crystal_colour            colorless
_exptl_crystal_description       chunk
_chemical_melting_point          '212-214 deg.C'
_cell_formula_units_Z            2
loop_
_atom_site_label
_atom_site_type_symbol
_atom_site_fract_x
_atom_site_fract_y
_atom_site_fract_z
Br1 Br -0.21988(4) 0.19977(3) 0.31147(3)
S1 S 0.32479(9) 0.58206(6) 0.43093(4)
S2 S 0.63845(9) 0.55817(8) 0.21275(5)
P1 P 0.13313(8) 0.83575(6) 0.27295(5)
O1 O 0.2266(2) 0.5625(2) 0.49624(12)
O2 O 0.4021(2) 0.48076(18) 0.40932(12)
O3 O 0.6753(2) 0.6724(2) 0.18189(16)
O4 O 0.6839(2) 0.4650(2) 0.16644(13)
N1 N 0.2660(2) 0.50670(19) 0.26491(12)
N2 N 0.2551(2) 0.6533(2) 0.36011(13)
N3 N 0.4755(2) 0.5674(2) 0.23130(13)
C1 C 0.0586(3) 0.9316(2) 0.19810(18)
C2 C 0.1341(4) 1.0109(2) 0.1508(2)
C3 C 0.0741(6) 1.0801(3) 0.0922(2)
C4 C -0.0589(6) 1.0715(3) 0.0809(2)
C5 C -0.1362(4) 0.9934(3) 0.1275(2)
C6 C -0.0768(4) 0.9240(3) 0.1864(2)
C7 C 0.0082(3) 0.8298(2) 0.35619(17)
C8 C -0.0435(3) 0.9300(2) 0.3883(2)
C9 C -0.1439(4) 0.9253(3) 0.4489(2)
C10 C -0.1947(4) 0.8208(4) 0.4770(2)
C11 C -0.1477(3) 0.7216(3) 0.4456(2)
C12 C -0.0459(3) 0.7260(2) 0.38522(18)
C13 C 0.2896(3) 0.8981(2) 0.29578(18)
C14 C 0.2949(4) 0.9813(3) 0.3471(2)
C15 C 0.4183(5) 1.0211(4) 0.3649(3)
C16 C 0.5349(5) 0.9767(4) 0.3315(2)
C17 C 0.5314(4) 0.8971(3) 0.2790(2)
C18 C 0.4090(3) 0.8566(2) 0.2611(2)
C19 C 0.1688(2) 0.6993(2) 0.23663(16)
C20 C 0.1435(3) 0.6784(2) 0.15362(17)
C21 C 0.2491(3) 0.6776(2) 0.09505(17)
C22 C 0.2256(4) 0.6528(2) 0.01933(19)
C23 C 0.0980(4) 0.6318(2) 0.0005(2)
C24 C -0.0078(4) 0.6358(2) 0.0567(2)
C25 C 0.0150(3) 0.6589(2) 0.13303(19)
C26 C 0.2323(2) 0.6226(2) 0.28867(17)
C27 C 0.1565(2) 0.4272(2) 0.27582(17)
C28 C 0.1062(3) 0.3831(2) 0.21217(19)
C29 C -0.0039(3) 0.3135(2) 0.2228(2)
C30 C -0.0631(3) 0.2892(2) 0.2978(2)
C31 C -0.0153(3) 0.3328(2) 0.3618(2)
C32 C 0.0958(3) 0.4024(2) 0.35073(19)
C33 C 0.3977(3) 0.4789(2) 0.24267(16)
C34 C 0.4352(3) 0.3535(2) 0.23522(18)
C35 C 0.4330(3) 0.3106(2) 0.15360(19)
C36 C 0.4600(4) 0.1944(3) 0.1445(2)
C37 C 0.4560(5) 0.1521(3) 0.0717(2)
C38 C 0.4230(4) 0.2235(4) 0.0065(2)
C39 C 0.3973(3) 0.3376(3) 0.0146(2)
C40 C 0.4035(3) 0.3814(3) 0.08745(19)
C41 C 0.4347(4) 0.6828(2) 0.4586(2)
C42 C 0.7023(3) 0.5336(3) 0.3060(2)
H1 H 0.2253 1.0177 0.1584
H2 H 0.1255 1.1331 0.0603
H3 H -0.0980 1.1186 0.0412
H4 H -0.2274 0.9874 0.1196
H5 H -0.1289 0.8715 0.2184
H6 H -0.0099 1.0010 0.3686
H7 H -0.1771 0.9926 0.4706
H8 H -0.2622 0.8177 0.5182
H9 H -0.1838 0.6513 0.4647
H10 H -0.0135 0.6581 0.3639
H11 H 0.2150 1.0119 0.3706
H12 H 0.4206 1.0784 0.3997
H13 H 0.6177 1.0013 0.3448
H14 H 0.6117 0.8689 0.2544
H15 H 0.4079 0.8007 0.2251
H16 H 0.3361 0.6938 0.1069
H17 H 0.2974 0.6504 -0.0191
H18 H 0.0831 0.6149 -0.0506
H19 H -0.0951 0.6229 0.0436
H20 H -0.0574 0.6614 0.1710
H21 H 0.1465 0.4001 0.1616
H22 H -0.0378 0.2833 0.1797
H23 H -0.0565 0.3162 0.4122
H24 H 0.1295 0.4326 0.3940
H25 H 0.4810 0.1447 0.1880
H26 H 0.4757 0.0741 0.0662
H27 H 0.4186 0.1939 -0.0424
H28 H 0.3753 0.3866 -0.0289
H29 H 0.3875 0.4600 0.0919
H30 H 0.5262 0.3396 0.2522
H31 H 0.3723 0.3086 0.2705
H32 H 0.3847 0.7531 0.4689
H33 H 0.5034 0.6980 0.4166
H34 H 0.4764 0.6525 0.5055
H35 H 0.6789 0.5987 0.3362
H36 H 0.7991 0.5232 0.3000
H37 H 0.6640 0.4655 0.3330
loop_
_geom_bond_atom_site_label_1
_geom_bond_atom_site_label_2
_geom_bond_site_symmetry_1
_geom_bond_site_symmetry_2
Br1 C30 1_555 1_555
S1 O1 1_555 1_555
S2 O3 1_555 1_555
P1 C1 1_555 1_555
O2 S1 1_555 1_555
O4 S2 1_555 1_555
N1 C26 1_555 1_555
N2 S1 1_555 1_555
N3 S2 1_555 1_555
C1 C2 1_555 1_555
C2 C3 1_555 1_555
C3 C4 1_555 1_555
C4 C5 1_555 1_555
C5 C6 1_555 1_555
C6 C1 1_555 1_555
C7 P1 1_555 1_555
C8 C7 1_555 1_555
C9 C8 1_555 1_555
C10 C9 1_555 1_555
C11 C10 1_555 1_555
C12 C7 1_555 1_555
C13 P1 1_555 1_555
C14 C13 1_555 1_555
C15 C14 1_555 1_555
C16 C15 1_555 1_555
C17 C16 1_555 1_555
C18 C13 1_555 1_555
C19 P1 1_555 1_555
C20 C19 1_555 1_555
C21 C20 1_555 1_555
C22 C21 1_555 1_555
C23 C22 1_555 1_555
C24 C23 1_555 1_555
C25 C20 1_555 1_555
C26 N2 1_555 1_555
C27 N1 1_555 1_555
C28 C27 1_555 1_555
C29 C28 1_555 1_555
C30 C29 1_555 1_555
C31 C30 1_555 1_555
C32 C27 1_555 1_555
C33 N1 1_555 1_555
C34 C33 1_555 1_555
C35 C34 1_555 1_555
C36 C35 1_555 1_555
C37 C36 1_555 1_555
C38 C37 1_555 1_555
C39 C38 1_555 1_555
C40 C35 1_555 1_555
C41 S1 1_555 1_555
C42 S2 1_555 1_555
H1 C2 1_555 1_555
H2 C3 1_555 1_555
H3 C4 1_555 1_555
H4 C5 1_555 1_555
H5 C6 1_555 1_555
H6 C8 1_555 1_555
H7 C9 1_555 1_555
H8 C10 1_555 1_555
H9 C11 1_555 1_555
H10 C12 1_555 1_555
H11 C14 1_555 1_555
H12 C15 1_555 1_555
H13 C16 1_555 1_555
H14 C17 1_555 1_555
H15 C18 1_555 1_555
H16 C21 1_555 1_555
H17 C22 1_555 1_555
H18 C23 1_555 1_555
H19 C24 1_555 1_555
H20 C25 1_555 1_555
H21 C28 1_555 1_555
H22 C29 1_555 1_555
H23 C31 1_555 1_555
H24 C32 1_555 1_555
H25 C36 1_555 1_555
H26 C37 1_555 1_555
H27 C38 1_555 1_555
H28 C39 1_555 1_555
H29 C40 1_555 1_555
H30 C34 1_555 1_555
H31 C34 1_555 1_555
H32 C41 1_555 1_555
H33 C41 1_555 1_555
H34 C41 1_555 1_555
H35 C42 1_555 1_555
H36 C42 1_555 1_555
H37 C42 1_555 1_555
N3 C33 1_555 1_555
C11 C12 1_555 1_555
C17 C18 1_555 1_555
C19 C26 1_555 1_555
C24 C25 1_555 1_555
C31 C32 1_555 1_555
C39 C40 1_555 1_555

#END
