
#######################################################################
#
#                 Cambridge Crystallographic Data Centre
#                                CCDC 
#
#######################################################################
#
# If this CIF has been generated from an entry in the Cambridge 
# Structural Database, then it will include bibliographic, chemical, 
# crystal, experimental, refinement or atomic coordinate data resulting 
# from the CCDC's data processing and validation procedures.
#
#######################################################################

data_COCGIM
_chemical_formula_moiety         'C17 H22 B1 Cl1 F2 N2'
_chemical_name_systematic        
(2-(Chloro(4-ethyl-3,5-dimethyl-2H-pyrrol-2-ylidene)methyl)-4-ethyl-3,5-dimethyl-1H-pyrrolato)-difluoro-boron
_symmetry_cell_setting           triclinic
_symmetry_space_group_name_H-M   'P 1'
_symmetry_Int_Tables_number      1
_space_group_name_Hall           'P 1'
loop_
_symmetry_equiv_pos_site_id
_symmetry_equiv_pos_as_xyz
1 x,y,z
_cell_length_a                   8.6228(5)
_cell_length_b                   12.4360(7)
_cell_length_c                   12.4491(6)
_cell_angle_alpha                93.806(3)
_cell_angle_beta                 107.076(3)
_cell_angle_gamma                100.514(3)
_cell_volume                     1244.42
_exptl_crystal_colour            orange
_exptl_crystal_description       lath
_cell_formula_units_Z            3
loop_
_atom_site_label
_atom_site_type_symbol
_atom_site_fract_x
_atom_site_fract_y
_atom_site_fract_z
Cl1 Cl 0.19131(8) 0.83462(6) 0.27939(5)
F1 F 0.8030(2) 0.76008(15) 0.23514(14)
F2 F 0.8386(2) 0.94509(14) 0.26612(13)
N1 N 0.6740(3) 0.8353(2) 0.36267(19)
N2 N 0.5669(3) 0.8405(2) 0.15413(19)
C1 C 0.7757(4) 0.8336(2) 0.4675(2)
C2 C 0.6866(4) 0.8363(2) 0.5467(2)
C3 C 0.5236(4) 0.8361(2) 0.4867(2)
C4 C 0.5151(4) 0.8363(2) 0.3693(2)
C5 C 0.3875(4) 0.8387(2) 0.2717(2)
C6 C 0.4108(4) 0.8409(2) 0.1637(2)
C7 C 0.2987(4) 0.8405(2) 0.0529(2)
C8 C 0.3915(4) 0.8382(2) -0.0220(2)
C9 C 0.5562(4) 0.8384(2) 0.0443(2)
C10 C 0.9533(4) 0.8277(3) 0.4904(3)
H1 H 0.9609 0.7517 0.4702
H2 H 1.0132 0.8510 0.5710
H3 H 1.0027 0.8765 0.4450
C11 C 0.7619(4) 0.8373(3) 0.6718(2)
H4 H 0.7040 0.8791 0.7122
H5 H 0.8798 0.8761 0.6948
C12 C 0.7517(5) 0.7205(3) 0.7078(3)
H6 H 0.6356 0.6807 0.6829
H7 H 0.7965 0.7261 0.7905
H8 H 0.8165 0.6807 0.6730
C13 C 0.3861(4) 0.8361(3) 0.5367(3)
H9 H 0.2993 0.7695 0.5042
H10 H 0.3394 0.9015 0.5196
H11 H 0.4292 0.8373 0.6190
C14 C 0.1179(4) 0.8418(3) 0.0195(3)
H12 H 0.0755 0.8426 -0.0625
H13 H 0.1020 0.9079 0.0589
H14 H 0.0577 0.7759 0.0404
C15 C 0.3317(4) 0.8326(3) -0.1478(2)
H15 H 0.4238 0.8686 -0.1740
H16 H 0.2416 0.8738 -0.1697
C16 C 0.2674(5) 0.7139(3) -0.2064(3)
H17 H 0.3589 0.6747 -0.1907
H18 H 0.2221 0.7143 -0.2883
H19 H 0.1801 0.6767 -0.1777
C17 C 0.7021(4) 0.8351(3) 0.0030(3)
H20 H 0.8036 0.8766 0.0604
H21 H 0.6867 0.8682 -0.0676
H22 H 0.7115 0.7584 -0.0106
B1 B 0.7262(4) 0.8447(3) 0.2543(3)
Cl2 Cl 0.83682(8) 0.12802(6) 0.67643(6)
F3 F 0.2285(2) 0.20557(15) 0.72176(14)
F4 F 0.1892(2) 0.02013(14) 0.68987(14)
N3 N 0.4613(3) 0.1217(2) 0.8001(2)
N4 N 0.3552(3) 0.1285(2) 0.59319(19)
C18 C 0.4716(4) 0.1209(2) 0.9115(2)
C19 C 0.6338(4) 0.1165(2) 0.9747(2)
C20 C 0.7267(4) 0.1147(2) 0.9006(2)
C21 C 0.6177(4) 0.1182(2) 0.7917(2)
C22 C 0.6396(4) 0.1231(2) 0.6839(2)
C23 C 0.5124(3) 0.1262(2) 0.5856(2)
C24 C 0.5043(4) 0.1263(2) 0.4690(2)
C25 C 0.3429(4) 0.1281(2) 0.4097(2)
C26 C 0.2532(4) 0.1309(2) 0.4880(2)
C27 C 0.3267(4) 0.1243(3) 0.9525(3)
H23 H 0.3085 0.1998 0.9565
H24 H 0.3485 0.1003 1.0279
H25 H 0.2276 0.0750 0.9000
C28 C 0.6962(4) 0.1202(3) 1.1026(2)
H26 H 0.7854 0.0781 1.1231
H27 H 0.6043 0.0845 1.1293
C29 C 0.7627(5) 0.2379(3) 1.1618(3)
H28 H 0.8542 0.2733 1.1360
H29 H 0.8030 0.2369 1.2439
H30 H 0.6738 0.2792 1.1436
C30 C 0.9069(4) 0.1082(3) 0.9349(3)
H31 H 0.9443 0.0981 1.0152
H32 H 0.9729 0.1766 0.9229
H33 H 0.9208 0.0457 0.8890
C31 C 0.6428(4) 0.1249(3) 0.4187(3)
H34 H 0.5979 0.1163 0.3358
H35 H 0.6954 0.0631 0.4421
H36 H 0.7253 0.1943 0.4453
C32 C 0.2692(4) 0.1289(3) 0.2834(2)
H37 H 0.1511 0.0903 0.2591
H38 H 0.3279 0.0878 0.2431
C33 C 0.2807(6) 0.2449(3) 0.2499(3)
H39 H 0.2269 0.2871 0.2920
H40 H 0.2249 0.2409 0.1684
H41 H 0.3976 0.2814 0.2677
C34 C 0.0762(4) 0.1395(3) 0.4652(3)
H42 H 0.0349 0.1096 0.5249
H43 H 0.0093 0.0975 0.3917
H44 H 0.0683 0.2171 0.4642
B2 B 0.3015(4) 0.1187(3) 0.7015(3)
Cl3 Cl 0.33092(9) 0.48524(7) 0.51804(6)
F5 F 0.8971(2) 0.37845(14) 0.43648(14)
F6 F 0.9868(2) 0.55924(14) 0.50578(14)
N5 N 0.7964(3) 0.44823(19) 0.58268(19)
N6 N 0.7017(3) 0.4978(2) 0.3887(2)
C35 C 0.8940(3) 0.4265(2) 0.6824(2)
C36 C 0.8048(4) 0.4175(2) 0.7606(2)
C37 C 0.6465(4) 0.4326(2) 0.7068(2)
C38 C 0.6414(3) 0.4516(2) 0.5943(2)
C39 C 0.5210(4) 0.4800(2) 0.5035(2)
C40 C 0.5486(3) 0.5048(2) 0.4020(2)
C41 C 0.4461(4) 0.5323(2) 0.2994(2)
C42 C 0.5380(4) 0.5403(2) 0.2249(2)
C43 C 0.6960(4) 0.5200(2) 0.2822(2)
C44 C 1.0687(4) 0.4160(3) 0.6993(2)
H45 H 1.0722 0.3638 0.6379
H46 H 1.1120 0.3890 0.7721
H47 H 1.1368 0.4882 0.6991
C45 C 0.8765(4) 0.4024(3) 0.8830(2)
H48 H 0.9673 0.3620 0.8905
H49 H 0.7894 0.3571 0.9077
C46 C 0.9435(5) 0.5117(3) 0.9597(3)
H50 H 1.0294 0.5570 0.9353
H51 H 0.9914 0.4981 1.0380
H52 H 0.8530 0.5505 0.9552
C47 C 0.5110(4) 0.4317(3) 0.7598(3)
H53 H 0.5462 0.4090 0.8356
H54 H 0.4104 0.3798 0.7128
H55 H 0.4880 0.5058 0.7657
C48 C 0.2728(4) 0.5494(3) 0.2739(3)
H56 H 0.2403 0.5783 0.2011
H57 H 0.2668 0.6022 0.3338
H58 H 0.1974 0.4790 0.2701
C49 C 0.4803(4) 0.5607(3) 0.1032(2)
H59 H 0.5777 0.5936 0.0806
H60 H 0.4070 0.6143 0.0956
C50 C 0.3864(4) 0.4547(3) 0.0237(2)
H61 H 0.4609 0.4032 0.0271
H62 H 0.3467 0.4721 -0.0540
H63 H 0.2916 0.4208 0.0470
C51 C 0.8410(4) 0.5231(3) 0.2397(2)
H64 H 0.9163 0.5955 0.2650
H65 H 0.8024 0.5101 0.1568
H66 H 0.8998 0.4657 0.2695
B3 B 0.8519(4) 0.4704(3) 0.4778(3)
loop_
_geom_bond_atom_site_label_1
_geom_bond_atom_site_label_2
_geom_bond_site_symmetry_1
_geom_bond_site_symmetry_2
Cl1 C5 1_555 1_555
F1 B1 1_555 1_555
F2 B1 1_555 1_555
N1 C1 1_555 1_555
N2 C6 1_555 1_555
C1 C2 1_555 1_555
C2 C3 1_555 1_555
C3 C4 1_555 1_555
C4 N1 1_555 1_555
C5 C4 1_555 1_555
C6 C5 1_555 1_555
C7 C6 1_555 1_555
C8 C7 1_555 1_555
C9 N2 1_555 1_555
C10 C1 1_555 1_555
H1 C10 1_555 1_555
H2 C10 1_555 1_555
H3 C10 1_555 1_555
C11 C2 1_555 1_555
H4 C11 1_555 1_555
H5 C11 1_555 1_555
C12 C11 1_555 1_555
H6 C12 1_555 1_555
H7 C12 1_555 1_555
H8 C12 1_555 1_555
C13 C3 1_555 1_555
H9 C13 1_555 1_555
H10 C13 1_555 1_555
H11 C13 1_555 1_555
C14 C7 1_555 1_555
H12 C14 1_555 1_555
H13 C14 1_555 1_555
H14 C14 1_555 1_555
C15 C8 1_555 1_555
H15 C15 1_555 1_555
H16 C15 1_555 1_555
C16 C15 1_555 1_555
H17 C16 1_555 1_555
H18 C16 1_555 1_555
H19 C16 1_555 1_555
C17 C9 1_555 1_555
H20 C17 1_555 1_555
H21 C17 1_555 1_555
H22 C17 1_555 1_555
B1 N1 1_555 1_555
Cl2 C22 1_555 1_555
F3 B2 1_555 1_555
F4 B2 1_555 1_555
N3 C18 1_555 1_555
N4 C23 1_555 1_555
C18 C19 1_555 1_555
C19 C20 1_555 1_555
C20 C21 1_555 1_555
C21 N3 1_555 1_555
C22 C21 1_555 1_555
C23 C22 1_555 1_555
C24 C23 1_555 1_555
C25 C24 1_555 1_555
C26 N4 1_555 1_555
C27 C18 1_555 1_555
H23 C27 1_555 1_555
H24 C27 1_555 1_555
H25 C27 1_555 1_555
C28 C19 1_555 1_555
H26 C28 1_555 1_555
H27 C28 1_555 1_555
C29 C28 1_555 1_555
H28 C29 1_555 1_555
H29 C29 1_555 1_555
H30 C29 1_555 1_555
C30 C20 1_555 1_555
H31 C30 1_555 1_555
H32 C30 1_555 1_555
H33 C30 1_555 1_555
C31 C24 1_555 1_555
H34 C31 1_555 1_555
H35 C31 1_555 1_555
H36 C31 1_555 1_555
C32 C25 1_555 1_555
H37 C32 1_555 1_555
H38 C32 1_555 1_555
C33 C32 1_555 1_555
H39 C33 1_555 1_555
H40 C33 1_555 1_555
H41 C33 1_555 1_555
C34 C26 1_555 1_555
H42 C34 1_555 1_555
H43 C34 1_555 1_555
H44 C34 1_555 1_555
B2 N3 1_555 1_555
Cl3 C39 1_555 1_555
F5 B3 1_555 1_555
F6 B3 1_555 1_555
N5 C35 1_555 1_555
N6 C40 1_555 1_555
C35 C36 1_555 1_555
C36 C37 1_555 1_555
C37 C38 1_555 1_555
C38 N5 1_555 1_555
C39 C38 1_555 1_555
C40 C39 1_555 1_555
C41 C40 1_555 1_555
C42 C41 1_555 1_555
C43 N6 1_555 1_555
C44 C35 1_555 1_555
H45 C44 1_555 1_555
H46 C44 1_555 1_555
H47 C44 1_555 1_555
C45 C36 1_555 1_555
H48 C45 1_555 1_555
H49 C45 1_555 1_555
C46 C45 1_555 1_555
H50 C46 1_555 1_555
H51 C46 1_555 1_555
H52 C46 1_555 1_555
C47 C37 1_555 1_555
H53 C47 1_555 1_555
H54 C47 1_555 1_555
H55 C47 1_555 1_555
C48 C41 1_555 1_555
H56 C48 1_555 1_555
H57 C48 1_555 1_555
H58 C48 1_555 1_555
C49 C42 1_555 1_555
H59 C49 1_555 1_555
H60 C49 1_555 1_555
C50 C49 1_555 1_555
H61 C50 1_555 1_555
H62 C50 1_555 1_555
H63 C50 1_555 1_555
C51 C43 1_555 1_555
H64 C51 1_555 1_555
H65 C51 1_555 1_555
H66 C51 1_555 1_555
B3 N5 1_555 1_555
N2 B1 1_555 1_555
C8 C9 1_555 1_555
N4 B2 1_555 1_555
C25 C26 1_555 1_555
N6 B3 1_555 1_555
C42 C43 1_555 1_555

#END
