
#######################################################################
#
#                 Cambridge Crystallographic Data Centre
#                                CCDC 
#
#######################################################################
#
# If this CIF has been generated from an entry in the Cambridge 
# Structural Database, then it will include bibliographic, chemical, 
# crystal, experimental, refinement or atomic coordinate data resulting 
# from the CCDC's data processing and validation procedures.
#
#######################################################################

data_COCHEJ04
_chemical_formula_moiety         'C19 H19 B1 F2 N2'
_chemical_name_systematic        
5,5-difluoro-1,3,7,9-tetramethyl-10-phenyl-5H-dipyrrolo[1,2-c:2',1'-f][1,3,2]diazaborinine
_symmetry_cell_setting           orthorhombic
_symmetry_space_group_name_H-M   'P b c a'
_symmetry_Int_Tables_number      61
_space_group_name_Hall           '-P 2ac 2ab'
loop_
_symmetry_equiv_pos_site_id
_symmetry_equiv_pos_as_xyz
1 x,y,z
2 1/2-x,-y,1/2+z
3 -x,1/2+y,1/2-z
4 1/2+x,1/2-y,-z
5 -x,-y,-z
6 1/2+x,y,1/2-z
7 x,1/2-y,1/2+z
8 1/2-x,1/2+y,z
_cell_length_a                   13.0734(4)
_cell_length_b                   12.6281(3)
_cell_length_c                   20.3826(5)
_cell_angle_alpha                90
_cell_angle_beta                 90
_cell_angle_gamma                90
_cell_volume                     3365.01
_exptl_crystal_colour            colorless
_exptl_crystal_description       prismatic
_cell_formula_units_Z            8
loop_
_atom_site_label
_atom_site_type_symbol
_atom_site_fract_x
_atom_site_fract_y
_atom_site_fract_z
F1 F 0.67824(9) 0.46124(10) 0.08826(5)
F2 F 0.56869(9) 0.32313(9) 0.09352(5)
N1 N 0.69711(10) 0.33924(10) 0.17747(7)
N2 N 0.54965(10) 0.46255(10) 0.17269(6)
C1 C 0.77574(14) 0.27583(13) 0.16048(9)
C2 C 0.82789(14) 0.24599(15) 0.21689(10)
H1 H 0.8850 0.2022 0.2180
C3 C 0.78200(13) 0.29123(13) 0.27088(9)
C4 C 0.69741(12) 0.34974(12) 0.24598(8)
C5 C 0.62171(12) 0.40877(11) 0.27737(7)
C6 C 0.54729(12) 0.46345(12) 0.24131(7)
C7 C 0.46388(13) 0.52794(12) 0.26111(7)
C8 C 0.42011(13) 0.56530(13) 0.20422(8)
H2 H 0.3642 0.6107 0.2020
C9 C 0.47285(14) 0.52433(13) 0.15066(8)
C10 C 0.79820(17) 0.24664(18) 0.09124(10)
H3 H 0.7354 0.2427 0.0669
H4 H 0.8318 0.1791 0.0901
H5 H 0.8418 0.2993 0.0720
C11 C 0.81920(16) 0.28254(15) 0.33999(10)
H6 H 0.8300 0.3521 0.3576
H7 H 0.8824 0.2439 0.3408
H8 H 0.7691 0.2460 0.3660
C12 C 0.42476(15) 0.55216(15) 0.32863(8)
H9 H 0.4136 0.4872 0.3520
H10 H 0.3615 0.5904 0.3254
H11 H 0.4741 0.5944 0.3517
C13 C 0.45172(17) 0.54072(17) 0.07981(8)
H12 H 0.5128 0.5648 0.0583
H13 H 0.3988 0.5928 0.0748
H14 H 0.4299 0.4751 0.0605
C14 C 0.62071(12) 0.41480(12) 0.35008(8)
C15 C 0.66849(16) 0.49824(16) 0.38157(9)
H15 H 0.7004 0.5508 0.3570
C16 C 0.66920(19) 0.5041(2) 0.44885(10)
H16 H 0.7018 0.5603 0.4696
C17 C 0.62195(18) 0.4273(2) 0.48549(10)
H17 H 0.6221 0.4317 0.5310
C18 C 0.57467(18) 0.34421(19) 0.45497(9)
H18 H 0.5432 0.2918 0.4798
C19 C 0.57353(15) 0.33793(15) 0.38719(8)
H19 H 0.5408 0.2816 0.3667
B1 B 0.62345(15) 0.39596(15) 0.13013(9)
loop_
_geom_bond_atom_site_label_1
_geom_bond_atom_site_label_2
_geom_bond_site_symmetry_1
_geom_bond_site_symmetry_2
F1 B1 1_555 1_555
F2 B1 1_555 1_555
N1 C1 1_555 1_555
N2 C6 1_555 1_555
C1 C2 1_555 1_555
C2 H1 1_555 1_555
C3 C2 1_555 1_555
C4 N1 1_555 1_555
C5 C4 1_555 1_555
C6 C5 1_555 1_555
C7 C6 1_555 1_555
C8 C7 1_555 1_555
H2 C8 1_555 1_555
C9 N2 1_555 1_555
C10 C1 1_555 1_555
H3 C10 1_555 1_555
H4 C10 1_555 1_555
H5 C10 1_555 1_555
C11 C3 1_555 1_555
H6 C11 1_555 1_555
H7 C11 1_555 1_555
H8 C11 1_555 1_555
C12 C7 1_555 1_555
H9 C12 1_555 1_555
H10 C12 1_555 1_555
H11 C12 1_555 1_555
C13 C9 1_555 1_555
H12 C13 1_555 1_555
H13 C13 1_555 1_555
H14 C13 1_555 1_555
C14 C5 1_555 1_555
C15 C14 1_555 1_555
H15 C15 1_555 1_555
C16 C15 1_555 1_555
H16 C16 1_555 1_555
C17 C16 1_555 1_555
H17 C17 1_555 1_555
C18 C17 1_555 1_555
H18 C18 1_555 1_555
C19 C14 1_555 1_555
H19 C19 1_555 1_555
B1 N1 1_555 1_555
N2 B1 1_555 1_555
C3 C4 1_555 1_555
C8 C9 1_555 1_555
C18 C19 1_555 1_555

#END
