
#######################################################################
#
#                 Cambridge Crystallographic Data Centre
#                                CCDC 
#
#######################################################################
#
# If this CIF has been generated from an entry in the Cambridge 
# Structural Database, then it will include bibliographic, chemical, 
# crystal, experimental, refinement or atomic coordinate data resulting 
# from the CCDC's data processing and validation procedures.
#
#######################################################################

data_COCHEJ
_chemical_formula_moiety         'C19 H19 B1 F2 N2'
_chemical_name_systematic        
5,5-Difluoro-1,3,7,9-tetramethyl-10-phenyl-5H-4\l^5^,5\l^5^-dipyrrolo[1,2-c:2',1'-f][1,3,2]diazaborinine
_symmetry_cell_setting           monoclinic
_symmetry_space_group_name_H-M   'P 21/n'
_symmetry_Int_Tables_number      14
_space_group_name_Hall           '-P 2yn'
loop_
_symmetry_equiv_pos_site_id
_symmetry_equiv_pos_as_xyz
1 x,y,z
2 1/2-x,1/2+y,1/2-z
3 -x,-y,-z
4 1/2+x,1/2-y,1/2+z
_cell_length_a                   11.812(3)
_cell_length_b                   7.0804(17)
_cell_length_c                   19.362(5)
_cell_angle_alpha                90
_cell_angle_beta                 99.545(14)
_cell_angle_gamma                90
_cell_volume                     1596.9
_exptl_crystal_colour            orange
_exptl_crystal_description       plate
_cell_formula_units_Z            4
loop_
_atom_site_label
_atom_site_type_symbol
_atom_site_fract_x
_atom_site_fract_y
_atom_site_fract_z
F1 F 0.79394(9) 0.11760(13) 0.52417(4)
F2 F 0.90544(7) 0.27563(14) 0.45736(5)
N1 N 0.71560(10) 0.39638(16) 0.46269(6)
N2 N 0.74436(9) 0.09836(16) 0.39890(5)
C1 C 0.72570(12) 0.5336(2) 0.51177(7)
C2 C 0.63783(12) 0.6680(2) 0.49355(7)
H1 H 0.6262 0.7780 0.5196
C3 C 0.57165(12) 0.6122(2) 0.43134(7)
C4 C 0.62118(11) 0.4405(2) 0.41126(7)
C5 C 0.59254(11) 0.3201(2) 0.35366(6)
C6 C 0.65353(11) 0.15297(19) 0.34676(6)
C7 C 0.64265(11) 0.01072(19) 0.29323(7)
C8 C 0.72626(12) -0.1242(2) 0.31575(7)
H2 H 0.7399 -0.2359 0.2912
C9 C 0.78707(11) -0.0677(2) 0.38088(7)
C10 C 0.81922(13) 0.5355(2) 0.57334(7)
H3 H 0.8212 0.4139 0.5977
H4 H 0.8053 0.6370 0.6053
H5 H 0.8929 0.5569 0.5576
C11 C 0.46861(12) 0.7173(2) 0.39512(7)
H6 H 0.4461 0.8128 0.4269
H7 H 0.4051 0.6287 0.3816
H8 H 0.4873 0.7793 0.3532
C12 C 0.56047(12) -0.0008(2) 0.22603(7)
H9 H 0.5896 -0.0902 0.1945
H10 H 0.5522 0.1242 0.2040
H11 H 0.4856 -0.0440 0.2353
C13 C 0.88422(12) -0.1681(2) 0.42470(7)
H12 H 0.9571 -0.1195 0.4141
H13 H 0.8787 -0.3037 0.4145
H14 H 0.8808 -0.1472 0.4743
C14 C 0.49523(11) 0.36867(19) 0.29738(7)
C15 C 0.38834(12) 0.2832(2) 0.29542(7)
H15 H 0.3753 0.2026 0.3325
C16 C 0.30121(12) 0.3156(2) 0.23943(7)
H16 H 0.2281 0.2588 0.2384
C17 C 0.32089(12) 0.4311(2) 0.18489(7)
H17 H 0.2621 0.4493 0.1456
C18 C 0.42649(12) 0.5206(2) 0.18732(7)
H18 H 0.4389 0.6023 0.1504
C19 C 0.51302(12) 0.49029(19) 0.24355(7)
H19 H 0.5848 0.5524 0.2456
B1 B 0.79375(14) 0.2203(2) 0.46291(8)
loop_
_geom_bond_atom_site_label_1
_geom_bond_atom_site_label_2
_geom_bond_site_symmetry_1
_geom_bond_site_symmetry_2
F1 B1 1_555 1_555
F2 B1 1_555 1_555
N1 C1 1_555 1_555
N2 C6 1_555 1_555
C1 C2 1_555 1_555
C2 H1 1_555 1_555
C3 C2 1_555 1_555
C4 N1 1_555 1_555
C5 C4 1_555 1_555
C6 C5 1_555 1_555
C7 C6 1_555 1_555
C8 C7 1_555 1_555
H2 C8 1_555 1_555
C9 N2 1_555 1_555
C10 C1 1_555 1_555
H3 C10 1_555 1_555
H4 C10 1_555 1_555
H5 C10 1_555 1_555
C11 C3 1_555 1_555
H6 C11 1_555 1_555
H7 C11 1_555 1_555
H8 C11 1_555 1_555
C12 C7 1_555 1_555
H9 C12 1_555 1_555
H10 C12 1_555 1_555
H11 C12 1_555 1_555
C13 C9 1_555 1_555
H12 C13 1_555 1_555
H13 C13 1_555 1_555
H14 C13 1_555 1_555
C14 C5 1_555 1_555
C15 C14 1_555 1_555
H15 C15 1_555 1_555
C16 C15 1_555 1_555
H16 C16 1_555 1_555
C17 C16 1_555 1_555
H17 C17 1_555 1_555
C18 C17 1_555 1_555
H18 C18 1_555 1_555
C19 C14 1_555 1_555
H19 C19 1_555 1_555
B1 N1 1_555 1_555
N2 B1 1_555 1_555
C3 C4 1_555 1_555
C8 C9 1_555 1_555
C18 C19 1_555 1_555

#END
