
#######################################################################
#
#                 Cambridge Crystallographic Data Centre
#                                CCDC 
#
#######################################################################
#
# If this CIF has been generated from an entry in the Cambridge 
# Structural Database, then it will include bibliographic, chemical, 
# crystal, experimental, refinement or atomic coordinate data resulting 
# from the CCDC's data processing and validation procedures.
#
#######################################################################

data_COCKEK
_chemical_formula_moiety         'C17 H11 Cl1 N2 O1'
_chemical_name_systematic        4-Benzoyl-2-chloro-6-phenyl-pyrimidine
_chemical_properties_biological  'potential biological activity'
_symmetry_cell_setting           triclinic
_symmetry_space_group_name_H-M   'P -1'
_symmetry_Int_Tables_number      2
_space_group_name_Hall           '-P 1'
loop_
_symmetry_equiv_pos_site_id
_symmetry_equiv_pos_as_xyz
1 x,y,z
2 -x,-y,-z
_cell_length_a                   10.336(4)
_cell_length_b                   11.650(4)
_cell_length_c                   5.846(3)
_cell_angle_alpha                97.45(4)
_cell_angle_beta                 96.11(4)
_cell_angle_gamma                83.50(3)
_cell_volume                     690.499
_exptl_crystal_colour            yellow
_exptl_crystal_description       prism
_chemical_melting_point          402K
_cell_formula_units_Z            2
_exptl_crystal_recrystallization_method 'carbon tetrachloride'
loop_
_atom_site_label
_atom_site_type_symbol
_atom_site_fract_x
_atom_site_fract_y
_atom_site_fract_z
N1 N 0.3802(2) 0.3206(2) 0.5983(4)
N2 N 0.2616(2) 0.1856(2) 0.3382(4)
O1 O 0.4137(2) 0.0888(2) -0.1677(4)
Cl1 Cl 0.14464(8) 0.29532(8) 0.6864(2)
C1 C 0.2464(3) -0.0728(3) 0.1544(5)
H1 H 0.3014 -0.0615 0.2902
C2 C 0.1575(3) -0.1544(3) 0.1314(6)
H2 H 0.1542 -0.1998 0.2498
C3 C 0.0737(3) -0.1683(3) -0.0675(6)
H3 H 0.0118 -0.2215 -0.0808
C4 C 0.0808(3) -0.1041(3) -0.2463(6)
H4 H 0.0239 -0.1138 -0.3801
C5 C 0.1718(3) -0.0259(3) -0.2272(5)
H5 H 0.1789 0.0153(3) -0.3506(5)
C6 C 0.2535(3) -0.0078(2) -0.0248(5)
C7 C 0.3497(3) 0.0802(3) -0.0097(5)
C8 C 0.3649(3) 0.1639(3) 0.2117(5)
C9 C 0.4776(3) 0.2175(3) 0.2709(5)
H6 H 0.5476 0.2015 0.1801
C10 C 0.4838(3) 0.2968(2) 0.4719(5)
C11 C 0.2786(3) 0.2642(3) 0.5212(5)
C12 C 0.5997(3) 0.3606(3) 0.5571(5)
C13 C 0.7025(3) 0.3609(3) 0.4235(5)
H7 H 0.6993 0.3213 0.2746
C14 C 0.8088(3) 0.4189(3) 0.5086(6)
H8 H 0.8774 0.4178 0.4173
C15 C 0.8152(3) 0.4791(3) 0.7285(6)
H9 H 0.8871 0.5192 0.7848
C16 C 0.7137(3) 0.4788(3) 0.8638(6)
H10 H 0.7173 0.5186 1.0126
C17 C 0.6071(3) 0.4199(3) 0.7795(6)
H11 H 0.5394 0.4199 0.8723
loop_
_geom_bond_atom_site_label_1
_geom_bond_atom_site_label_2
_geom_bond_site_symmetry_1
_geom_bond_site_symmetry_2
N1 C10 1_555 1_555
N2 C8 1_555 1_555
O1 C7 1_555 1_555
Cl1 C11 1_555 1_555
C1 H1 1_555 1_555
C2 C1 1_555 1_555
H2 C2 1_555 1_555
C3 C2 1_555 1_555
H3 C3 1_555 1_555
C4 C3 1_555 1_555
H4 C4 1_555 1_555
C5 C4 1_555 1_555
H5 C5 1_555 1_555
C6 C1 1_555 1_555
C7 C6 1_555 1_555
C8 C7 1_555 1_555
C9 C8 1_555 1_555
H6 C9 1_555 1_555
C10 C9 1_555 1_555
C11 N1 1_555 1_555
C12 C10 1_555 1_555
C13 C12 1_555 1_555
H7 C13 1_555 1_555
C14 C13 1_555 1_555
H8 C14 1_555 1_555
C15 C14 1_555 1_555
H9 C15 1_555 1_555
C16 C15 1_555 1_555
H10 C16 1_555 1_555
C17 C12 1_555 1_555
H11 C17 1_555 1_555
N2 C11 1_555 1_555
C5 C6 1_555 1_555
C16 C17 1_555 1_555

#END
