
#######################################################################
#
#                 Cambridge Crystallographic Data Centre
#                                CCDC 
#
#######################################################################
#
# If this CIF has been generated from an entry in the Cambridge 
# Structural Database, then it will include bibliographic, chemical, 
# crystal, experimental, refinement or atomic coordinate data resulting 
# from the CCDC's data processing and validation procedures.
#
#######################################################################

data_COCMIR
_chemical_formula_moiety         'C10 H7 F3 O2'
_chemical_name_systematic        'trans-4-(Trifluoromethyl)cinnamic acid'
_symmetry_cell_setting           triclinic
_symmetry_space_group_name_H-M   'P -1'
_symmetry_Int_Tables_number      2
_space_group_name_Hall           '-P 1'
loop_
_symmetry_equiv_pos_site_id
_symmetry_equiv_pos_as_xyz
1 x,y,z
2 -x,-y,-z
_cell_length_a                   7.8176(15)
_cell_length_b                   7.8319(17)
_cell_length_c                   14.980(3)
_cell_angle_alpha                93.936(10)
_cell_angle_beta                 90.901(8)
_cell_angle_gamma                94.753(9)
_cell_volume                     911.654
_exptl_crystal_colour            colorless
_exptl_crystal_description       plate
_cell_formula_units_Z            4
loop_
_atom_site_label
_atom_site_type_symbol
_atom_site_fract_x
_atom_site_fract_y
_atom_site_fract_z
F1 F 0.6695(8) 0.0284(11) 0.2341(6)
F2 F 0.6471(7) 0.1890(10) 0.3587(5)
O1 O 0.08034(18) 0.77200(17) -0.10654(9)
O2 O 0.24495(19) 0.94694(17) -0.01123(9)
H1 H 0.2063 1.0215 -0.0419
C1 C 0.1826(2) 0.7959(2) -0.04199(12)
C2 C 0.2375(2) 0.6497(2) 0.00391(12)
H3 H 0.1930 0.5373 -0.0170
C3 C 0.3467(2) 0.6674(2) 0.07334(12)
H4 H 0.3928 0.7807 0.0915
C4 C 0.4027(2) 0.5287(2) 0.12463(11)
C5 C 0.5176(2) 0.5681(2) 0.19570(13)
H5 H 0.5598 0.6842 0.2099
C6 C 0.5721(2) 0.4400(2) 0.24658(14)
H6 H 0.6519 0.4684 0.2949
C7 C 0.5100(2) 0.2722(2) 0.22667(12)
C8 C 0.3947(2) 0.2312(2) 0.15618(13)
H7 H 0.3518 0.1151 0.1426
C9 C 0.3416(2) 0.3579(2) 0.10547(13)
H8 H 0.2626 0.3285 0.0570
C10 C 0.5652(2) 0.1325(2) 0.28069(14)
F18 F 0.4260(18) 0.0195(13) 0.3027(6)
F4 F 0.8556(8) 0.8382(7) 0.4135(3)
F5 F 0.5881(7) 0.7961(6) 0.4460(4)
F6 F 0.7569(7) 0.9856(7) 0.5225(4)
O3 O 1.13541(18) 0.20354(17) 0.90607(9)
O4 O 0.97051(17) 0.03116(16) 0.80954(9)
H2 H 1.0013 -0.0436 0.8426
C11 C 1.0392(2) 0.1807(2) 0.83913(12)
C12 C 0.9984(2) 0.3272(2) 0.78917(12)
H9 H 1.0389 0.4397 0.8121
C13 C 0.9074(2) 0.3088(2) 0.71349(12)
H10 H 0.8624 0.1954 0.6946
C14 C 0.8686(2) 0.4446(2) 0.65577(12)
C15 C 0.7769(3) 0.4005(3) 0.57671(14)
H11 H 0.7397 0.2835 0.5614
C16 C 0.7385(3) 0.5239(3) 0.51957(14)
H12 H 0.6750 0.4916 0.4656
C17 C 0.7923(2) 0.6933(2) 0.54102(12)
C18 C 0.8848(3) 0.7400(2) 0.61935(13)
H13 H 0.9228 0.8571 0.6340
C19 C 0.9219(2) 0.6165(2) 0.67628(12)
H14 H 0.9849 0.6495 0.7303
C20 C 0.7501(3) 0.8265(3) 0.47890(14)
F3? F 0.448(2) 0.0583(14) 0.3211(9)
F7? F 0.6822(8) 0.9556(10) 0.5151(5)
F8? F 0.8986(8) 0.8963(8) 0.4403(5)
F9? F 0.6547(9) 0.7622(7) 0.4059(4)
F10? F 0.5835(10) 0.8552(10) 0.4854(5)
F11? F 0.7728(12) 0.7777(9) 0.3936(4)
F12? F 0.8283(10) 0.9802(11) 0.4974(6)
F13? F 0.7009(11) 0.1784(14) 0.3307(6)
F14? F 0.7134(11) 0.0775(10) 0.2582(6)
F15? F 0.5846(10) 0.1893(17) 0.3699(8)
F16? F 0.6209(14) 0.0047(18) 0.2208(10)
F17? F 0.4554(17) 0.001(2) 0.2829(8)
loop_
_geom_bond_atom_site_label_1
_geom_bond_atom_site_label_2
_geom_bond_site_symmetry_1
_geom_bond_site_symmetry_2
F1 C10 1_555 1_555
F2 C10 1_555 1_555
F4 C20 1_555 1_555
F5 C20 1_555 1_555
F6 C20 1_555 1_555
O1 C1 1_555 1_555
O2 H1 1_555 1_555
O3 C11 1_555 1_555
O4 H2 1_555 1_555
C1 O2 1_555 1_555
C2 C1 1_555 1_555
H3 C2 1_555 1_555
C3 C2 1_555 1_555
H4 C3 1_555 1_555
C4 C3 1_555 1_555
C5 C4 1_555 1_555
H5 C5 1_555 1_555
C6 C5 1_555 1_555
H6 C6 1_555 1_555
C7 C6 1_555 1_555
C8 C7 1_555 1_555
H7 C8 1_555 1_555
C9 C4 1_555 1_555
H8 C9 1_555 1_555
C10 C7 1_555 1_555
C11 O4 1_555 1_555
C12 C11 1_555 1_555
H9 C12 1_555 1_555
C13 C12 1_555 1_555
H10 C13 1_555 1_555
C14 C13 1_555 1_555
C15 C14 1_555 1_555
H11 C15 1_555 1_555
C16 C15 1_555 1_555
H12 C16 1_555 1_555
C17 C16 1_555 1_555
C18 C17 1_555 1_555
H13 C18 1_555 1_555
C19 C14 1_555 1_555
H14 C19 1_555 1_555
C20 C17 1_555 1_555
F18 C10 1_555 1_555
C8 C9 1_555 1_555
C18 C19 1_555 1_555

#END
