
#######################################################################
#
#                 Cambridge Crystallographic Data Centre
#                                CCDC 
#
#######################################################################
#
# If this CIF has been generated from an entry in the Cambridge 
# Structural Database, then it will include bibliographic, chemical, 
# crystal, experimental, refinement or atomic coordinate data resulting 
# from the CCDC's data processing and validation procedures.
#
#######################################################################

data_COCMAK
_chemical_formula_moiety         'C12 H6 N2 S4'
_chemical_name_systematic        
5-(2-(1,3-dithiol-2-ylidene)-1,3-dithiol-4-yl)pyridine-2-carbonitrile
_symmetry_cell_setting           monoclinic
_symmetry_space_group_name_H-M   'P 21/c'
_symmetry_Int_Tables_number      14
_space_group_name_Hall           '-P 2ybc'
loop_
_symmetry_equiv_pos_site_id
_symmetry_equiv_pos_as_xyz
1 x,y,z
2 -x,1/2+y,1/2-z
3 -x,-y,-z
4 x,1/2-y,1/2+z
_cell_length_a                   3.9337(4)
_cell_length_b                   11.3951(9)
_cell_length_c                   27.644(2)
_cell_angle_alpha                90
_cell_angle_beta                 91.393(5)
_cell_angle_gamma                90
_cell_volume                     1238.77
_exptl_crystal_colour            red
_exptl_crystal_description       needle
_cell_formula_units_Z            4
loop_
_atom_site_label
_atom_site_type_symbol
_atom_site_fract_x
_atom_site_fract_y
_atom_site_fract_z
S1 S 0.8726(6) 0.51388(19) 0.36460(8)
S2 S 0.5482(6) 0.73625(19) 0.39351(8)
S3 S 0.5265(6) 0.82194(18) 0.28220(8)
S4 S 0.8455(6) 0.59905(18) 0.25221(7)
N1 N 0.8784(19) 0.7402(6) 0.0736(3)
N2 N 1.276(2) 0.6209(8) -0.0226(3)
C1 C 0.673(3) 0.6382(9) 0.4393(3)
H1 H 0.6429 0.6563 0.4717
C2 C 0.810(3) 0.5377(9) 0.4264(3)
H2 H 0.8714 0.4814 0.4493
C3 C 0.706(2) 0.6501(7) 0.3463(3)
C4 C 0.692(2) 0.6852(7) 0.2997(3)
C5 C 0.764(2) 0.7055(7) 0.2067(3)
C6 C 0.623(2) 0.8052(8) 0.2220(3)
H3 H 0.5769 0.8656 0.2001
C7 C 0.861(2) 0.6779(7) 0.1573(3)
C8 C 1.032(2) 0.5755(8) 0.1454(3)
H4 H 1.0800 0.5196 0.1691
C9 C 1.131(2) 0.5567(8) 0.0980(3)
H5 H 1.2467 0.4891 0.0893
C10 C 1.051(2) 0.6422(8) 0.0647(3)
C11 C 0.783(2) 0.7551(8) 0.1191(3)
H6 H 0.6561 0.8216 0.1260
C12 C 1.176(2) 0.6304(8) 0.0158(3)
loop_
_geom_bond_atom_site_label_1
_geom_bond_atom_site_label_2
_geom_bond_site_symmetry_1
_geom_bond_site_symmetry_2
S1 C2 1_555 1_555
S2 C1 1_555 1_555
S3 C4 1_555 1_555
S4 C4 1_555 1_555
N1 C10 1_555 1_555
N2 C12 1_555 1_555
C1 H1 1_555 1_555
C2 C1 1_555 1_555
H2 C2 1_555 1_555
C3 S1 1_555 1_555
C4 C3 1_555 1_555
C5 S4 1_555 1_555
C6 S3 1_555 1_555
H3 C6 1_555 1_555
C7 C5 1_555 1_555
C8 C7 1_555 1_555
H4 C8 1_555 1_555
C9 C8 1_555 1_555
H5 C9 1_555 1_555
C10 C9 1_555 1_555
C11 N1 1_555 1_555
H6 C11 1_555 1_555
C12 C10 1_555 1_555
S2 C3 1_555 1_555
C5 C6 1_555 1_555
C7 C11 1_555 1_555

#END
