
#######################################################################
#
#                 Cambridge Crystallographic Data Centre
#                                CCDC 
#
#######################################################################
#
# If this CIF has been generated from an entry in the Cambridge 
# Structural Database, then it will include bibliographic, chemical, 
# crystal, experimental, refinement or atomic coordinate data resulting 
# from the CCDC's data processing and validation procedures.
#
#######################################################################

data_COCMIR02
_chemical_formula_moiety         'C10 H7 F3 O2'
_chemical_name_systematic        'trans-4-(Trifluoromethyl)cinnamic acid'
_symmetry_cell_setting           triclinic
_symmetry_space_group_name_H-M   'P -1'
_symmetry_Int_Tables_number      2
_space_group_name_Hall           '-P 1'
loop_
_symmetry_equiv_pos_site_id
_symmetry_equiv_pos_as_xyz
1 x,y,z
2 -x,-y,-z
_cell_length_a                   27.558(11)
_cell_length_b                   7.783(4)
_cell_length_c                   16.868(6)
_cell_angle_alpha                95.689(14)
_cell_angle_beta                 94.632(19)
_cell_angle_gamma                94.56(2)
_cell_volume                     3574.34
_exptl_crystal_colour            colorless
_exptl_crystal_description       plate
_cell_formula_units_Z            16
loop_
_atom_site_label
_atom_site_type_symbol
_atom_site_fract_x
_atom_site_fract_y
_atom_site_fract_z
F1 F 0.8910(2) 0.6687(6) 0.9919(3)
F4 F 0.9285(3) 0.4916(13) 0.9144(6)
F7 F 0.9695(2) 0.6778(6) 1.0096(3)
O1 O 0.93997(8) 1.2871(3) 0.53491(12)
O2 O 0.95949(8) 1.4602(3) 0.64889(12)
H1 H 0.9604 1.5368 0.6172
C1 C 0.94825(11) 1.3081(4) 0.60840(19)
C2 C 0.94522(11) 1.1596(4) 0.65603(18)
H9 H 0.9406 1.0456 0.6291
C3 C 0.94871(11) 1.1799(4) 0.73567(19)
H10 H 0.9547 1.2953 0.7607
C4 C 0.94421(11) 1.0420(4) 0.78888(18)
C5 C 0.94952(12) 1.0884(4) 0.87083(19)
H11 H 0.9562 1.2071 0.8910
C6 C 0.94519(13) 0.9639(4) 0.9237(2)
H12 H 0.9488 0.9969 0.9797
C7 C 0.93557(11) 0.7915(4) 0.89437(19)
C8 C 0.92976(11) 0.7419(4) 0.81287(18)
H13 H 0.9226 0.6232 0.7932
C9 C 0.93447(11) 0.8671(4) 0.76007(19)
H14 H 0.9311 0.8335 0.7041
C10 C 0.93144(12) 0.6592(4) 0.95356(19)
F10 F 0.9753(4) 0.4648(16) 0.1649(11)
F13 F 0.89466(13) 0.4524(6) 0.1518(2)
F16 F 0.93405(12) 0.3005(6) 0.06822(15)
O3 O 0.95106(8) -0.2802(3) 0.55835(13)
O4 O 0.93533(9) -0.4572(3) 0.44519(13)
H2 H 0.9366 -0.5331 0.4772
C11 C 0.94265(11) -0.3039(4) 0.48497(19)
C12 C 0.94140(11) -0.1571(4) 0.43637(19)
H15 H 0.9468 -0.0428 0.4629
C13 C 0.93301(11) -0.1766(4) 0.35701(18)
H16 H 0.9264 -0.2920 0.3321
C14 C 0.93297(11) -0.0374(4) 0.30399(19)
C15 C 0.94148(11) 0.1381(4) 0.33366(19)
H17 H 0.9469 0.1699 0.3897
C16 C 0.94207(12) 0.2640(4) 0.28252(19)
H18 H 0.9481 0.3825 0.3032
C17 C 0.93384(11) 0.2190(4) 0.20021(18)
C18 C 0.92501(12) 0.0468(4) 0.1701(2)
H19 H 0.9192 0.0154 0.1140
C19 C 0.92472(11) -0.0804(4) 0.22252(18)
H20 H 0.9187 -0.1989 0.2018
C20 C 0.93385(8) 0.3605(3) 0.14590(15)
F19 F 0.7830(8) 0.493(4) 0.6070(13)
F21 F 0.8605(13) 0.537(7) 0.636(4)
F23 F 0.8132(12) 0.683(4) 0.7098(3)
O5 O 0.80370(8) 1.2587(3) 0.22382(12)
O6 O 0.81830(9) 1.4375(3) 0.33700(13)
H3 H 0.8170 1.5131 0.3048
C21 C 0.81179(11) 1.2834(4) 0.29732(19)
C22 C 0.81303(11) 1.1370(4) 0.34591(19)
H21 H 0.8086 1.0226 0.3194
C23 C 0.82001(11) 1.1574(4) 0.42518(18)
H22 H 0.8256 1.2730 0.4501
C24 C 0.82000(11) 1.0179(4) 0.47833(18)
C25 C 0.82578(11) 1.0597(4) 0.56053(18)
H23 H 0.8302 1.1781 0.5818
C26 C 0.82526(11) 0.9315(4) 0.61238(18)
H24 H 0.8290 0.9618 0.6686
C27 C 0.81923(11) 0.7594(4) 0.58110(18)
C28 C 0.81347(11) 0.7155(4) 0.49918(19)
H25 H 0.8090 0.5971 0.4780
C29 C 0.81420(12) 0.8432(4) 0.44844(19)
H26 H 0.8107 0.8121 0.3922
C30 C 0.81885(9) 0.6167(4) 0.63472(16)
F25 F 0.8227(4) 0.4829(18) -0.1385(10)
F27 F 0.7712(5) 0.305(2) -0.2256(10)
F29 F 0.8531(13) 0.285(4) -0.2226(14)
O7 O 0.81295(8) -0.3086(3) 0.24598(12)
O8 O 0.79397(8) -0.4848(3) 0.13231(12)
H4 H 0.7942 -0.5606 0.1644
C31 C 0.80424(11) -0.3306(4) 0.17215(19)
C32 C 0.80494(11) -0.1850(4) 0.12358(18)
H27 H 0.8100 -0.0707 0.1501
C33 C 0.79884(11) -0.2047(4) 0.04453(18)
H28 H 0.7914 -0.3199 0.0199
C34 C 0.80222(11) -0.0684(4) -0.00914(19)
C35 C 0.81412(11) 0.1060(4) 0.01857(18)
H29 H 0.8197 0.1402 0.0744
C36 C 0.81786(11) 0.2299(4) -0.03504(18)
H30 H 0.8262 0.3484 -0.0158
C37 C 0.80952(11) 0.1812(4) -0.11610(18)
C38 C 0.79718(12) 0.0082(4) -0.14452(19)
H31 H 0.7912 -0.0252 -0.2004
C39 C 0.79371(12) -0.1149(4) -0.09125(19)
H32 H 0.7854 -0.2331 -0.1109
C40 C 0.81394(12) 0.3107(4) -0.1754(2)
F31 F 0.6400(3) 0.5453(7) 0.7170(4)
F34 F 0.7190(2) 0.5768(6) 0.7466(3)
F37 F 0.6714(2) 0.7344(13) 0.8166(6)
O9 O 0.70018(8) 1.2934(3) 0.32201(13)
O10 O 0.70672(8) 1.4676(3) 0.43684(12)
H5 H 0.7084 1.5449 0.4055
C41 C 0.70216(11) 1.3143(4) 0.39548(18)
C42 C 0.69895(11) 1.1659(4) 0.44343(19)
H33 H 0.6984 1.0520 0.4171
C43 C 0.69686(11) 1.1862(4) 0.52187(18)
H34 H 0.6987 1.3023 0.5462
C44 C 0.69204(11) 1.0497(4) 0.57573(18)
C45 C 0.68973(12) 1.0971(4) 0.65636(18)
H35 H 0.6911 1.2165 0.6755
C46 C 0.68540(12) 0.9739(4) 0.71000(19)
H36 H 0.6838 1.0083 0.7653
C47 C 0.68351(11) 0.7996(4) 0.68176(18)
C48 C 0.68551(11) 0.7494(4) 0.60137(19)
H37 H 0.6838 0.6298 0.5823
C49 C 0.68999(11) 0.8738(4) 0.54866(19)
H38 H 0.6917 0.8391 0.4934
C50 C 0.67946(12) 0.6647(4) 0.73903(19)
F40 F 0.6486(8) 0.4933(16) -0.0429(10)
F42 F 0.6573(7) 0.294(4) -0.1449(19)
F44 F 0.7233(9) 0.440(4) -0.0771(13)
O11 O 0.70616(8) -0.2728(3) 0.34648(12)
O12 O 0.69436(8) -0.4495(3) 0.23156(12)
H6 H 0.6963 -0.5265 0.2629
C51 C 0.69937(11) -0.2957(4) 0.2731(2)
C52 C 0.69658(11) -0.1485(4) 0.22467(18)
H39 H 0.7028 -0.0341 0.2508
C53 C 0.68566(11) -0.1696(4) 0.14583(19)
H40 H 0.6790 -0.2856 0.1218
C54 C 0.68281(11) -0.0334(4) 0.09224(18)
C55 C 0.69453(11) 0.1425(4) 0.11971(18)
H41 H 0.7038 0.1761 0.1749
C56 C 0.69258(11) 0.2666(4) 0.06680(18)
H42 H 0.7008 0.3852 0.0857
C57 C 0.67870(11) 0.2192(4) -0.01374(18)
C58 C 0.66667(12) 0.0475(4) -0.04186(19)
H43 H 0.6570 0.0151 -0.0970
C59 C 0.66882(12) -0.0776(4) 0.01119(19)
H44 H 0.6606 -0.1960 -0.0082
C60 C 0.67760(12) 0.3581(4) -0.06944(19)
F46 F 0.5189(3) 0.3553(7) 0.5223(4)
F49 F 0.5780(2) 0.2284(14) 0.4685(7)
F52 F 0.5942(2) 0.4293(6) 0.5685(3)
O13 O 0.55469(8) -0.3231(3) 0.96345(12)
O14 O 0.54616(8) -0.5001(3) 0.84939(12)
H7 H 0.5463 -0.5763 0.8813
C61 C 0.55088(11) -0.3456(4) 0.89000(18)
C62 C 0.55110(11) -0.1998(4) 0.84133(18)
H45 H 0.5530 -0.0852 0.8674
C63 C 0.54867(11) -0.2228(4) 0.76152(18)
H46 H 0.5448 -0.3393 0.7374
C64 C 0.55141(11) -0.0874(4) 0.70728(18)
C65 C 0.55445(11) 0.0894(4) 0.73359(18)
H47 H 0.5537 0.1258 0.7889
C66 C 0.55849(11) 0.2116(4) 0.68004(18)
H48 H 0.5607 0.3316 0.6984
C67 C 0.55931(11) 0.1584(4) 0.59888(19)
C68 C 0.55583(12) -0.0157(4) 0.5716(2)
H49 H 0.5562 -0.0516 0.5162
C69 C 0.55181(12) -0.1379(4) 0.62606(19)
H50 H 0.5493 -0.2578 0.6074
C70 C 0.56358(12) 0.2927(4) 0.5408(2)
F55 F 0.58783(8) 0.6602(2) 0.42859(10)
F56 F 0.53333(6) 0.5068(2) 0.34741(11)
F57 F 0.60877(7) 0.4889(2) 0.33238(11)
O15 O 0.54825(8) 1.2425(3) -0.05910(12)
O16 O 0.56204(8) 1.4202(3) 0.05462(12)
H8 H 0.5602 1.4959 0.0226
C71 C 0.55576(11) 1.2660(4) 0.01470(19)
C72 C 0.55791(11) 1.1190(4) 0.06280(18)
H51 H 0.5513 1.0049 0.0365
C73 C 0.56879(11) 1.1390(4) 0.14168(18)
H52 H 0.5758 1.2545 0.1662
C74 C 0.57098(11) 1.0008(4) 0.19441(18)
C75 C 0.58380(11) 1.0430(4) 0.27550(18)
H53 H 0.5913 1.1612 0.2958
C76 C 0.58584(11) 0.9158(4) 0.32770(18)
H54 H 0.5945 0.9470 0.3832
C77 C 0.57521(11) 0.7432(4) 0.29822(18)
C78 C 0.56282(11) 0.6992(4) 0.21709(18)
H55 H 0.5556 0.5809 0.1968
C79 C 0.56088(11) 0.8255(4) 0.16556(18)
H56 H 0.5526 0.7935 0.1100
C80 C 0.57624(7) 0.6018(3) 0.35164(14)
F2? F 0.9008(6) 0.7017(17) 1.0110(8)
F3? F 0.8838(6) 0.6303(19) 0.9681(9)
F5? F 0.9189(7) 0.502(3) 0.9258(14)
F6? F 0.9452(5) 0.513(2) 0.9324(10)
F8? F 0.9753(6) 0.6442(18) 0.9917(9)
F9? F 0.9540(5) 0.7189(17) 1.0266(8)
F11? F 0.9664(8) 0.498(2) 0.169(2)
F12? F 0.9712(10) 0.485(4) 0.152(2)
F14? F 0.8900(3) 0.4206(19) 0.1298(8)
F15? F 0.9033(4) 0.4737(17) 0.1746(7)
F17? F 0.9499(4) 0.299(2) 0.0762(4)
F18? F 0.9181(4) 0.311(2) 0.0687(3)
F20? F 0.7789(10) 0.503(5) 0.6238(16)
F22? F 0.8572(15) 0.523(9) 0.624(4)
F24? F 0.8222(15) 0.661(5) 0.7142(4)
F26? F 0.8096(7) 0.459(3) -0.1476(14)
F28? F 0.7832(7) 0.277(3) -0.2361(16)
F30? F 0.853(2) 0.313(5) -0.206(2)
F32? F 0.6584(3) 0.5162(12) 0.7076(6)
F33? F 0.6341(5) 0.5870(15) 0.7314(8)
F35? F 0.7258(4) 0.6327(11) 0.7668(5)
F36? F 0.7058(4) 0.5298(11) 0.7178(5)
F38? F 0.6607(5) 0.715(2) 0.8043(9)
F39? F 0.6890(4) 0.7218(17) 0.8125(8)
F41? F 0.6459(12) 0.456(2) -0.0573(15)
F43? F 0.6710(11) 0.305(6) -0.144(3)
F45? F 0.7177(13) 0.456(5) -0.0595(18)
F47? F 0.5300(5) 0.3952(13) 0.5400(6)
F48? F 0.5167(10) 0.313(2) 0.5116(15)
F50? F 0.5659(5) 0.221(3) 0.4654(12)
F51? F 0.5905(7) 0.260(2) 0.4855(11)
F53? F 0.6074(4) 0.3929(13) 0.5584(7)
F54? F 0.5751(5) 0.4577(18) 0.5786(9)
loop_
_geom_bond_atom_site_label_1
_geom_bond_atom_site_label_2
_geom_bond_site_symmetry_1
_geom_bond_site_symmetry_2
F1 C10 1_555 1_555
F4 C10 1_555 1_555
F7 C10 1_555 1_555
F10 C20 1_555 1_555
F13 C20 1_555 1_555
F16 C20 1_555 1_555
F19 C30 1_555 1_555
F21 C30 1_555 1_555
F23 C30 1_555 1_555
F25 C40 1_555 1_555
F27 C40 1_555 1_555
F29 C40 1_555 1_555
F31 C50 1_555 1_555
F34 C50 1_555 1_555
F37 C50 1_555 1_555
F40 C60 1_555 1_555
F42 C60 1_555 1_555
F44 C60 1_555 1_555
F46 C70 1_555 1_555
F49 C70 1_555 1_555
F52 C70 1_555 1_555
F55 C80 1_555 1_555
F56 C80 1_555 1_555
F57 C80 1_555 1_555
O1 C1 1_555 1_555
O2 H1 1_555 1_555
O3 C11 1_555 1_555
O4 H2 1_555 1_555
O5 C21 1_555 1_555
O6 H3 1_555 1_555
O7 C31 1_555 1_555
O8 H4 1_555 1_555
O9 C41 1_555 1_555
O10 H5 1_555 1_555
O11 C51 1_555 1_555
O12 H6 1_555 1_555
O13 C61 1_555 1_555
O14 H7 1_555 1_555
O15 C71 1_555 1_555
O16 H8 1_555 1_555
C1 O2 1_555 1_555
C2 C1 1_555 1_555
H9 C2 1_555 1_555
C3 C2 1_555 1_555
H10 C3 1_555 1_555
C4 C3 1_555 1_555
C5 C4 1_555 1_555
H11 C5 1_555 1_555
C6 C5 1_555 1_555
H12 C6 1_555 1_555
C7 C6 1_555 1_555
C8 C7 1_555 1_555
H13 C8 1_555 1_555
C9 C4 1_555 1_555
H14 C9 1_555 1_555
C10 C7 1_555 1_555
C11 O4 1_555 1_555
C12 C11 1_555 1_555
H15 C12 1_555 1_555
C13 C12 1_555 1_555
H16 C13 1_555 1_555
C14 C13 1_555 1_555
C15 C14 1_555 1_555
H17 C15 1_555 1_555
C16 C15 1_555 1_555
H18 C16 1_555 1_555
C17 C16 1_555 1_555
C18 C17 1_555 1_555
H19 C18 1_555 1_555
C19 C14 1_555 1_555
H20 C19 1_555 1_555
C20 C17 1_555 1_555
C21 O6 1_555 1_555
C22 C21 1_555 1_555
H21 C22 1_555 1_555
C23 C22 1_555 1_555
H22 C23 1_555 1_555
C24 C23 1_555 1_555
C25 C24 1_555 1_555
H23 C25 1_555 1_555
C26 C25 1_555 1_555
H24 C26 1_555 1_555
C27 C26 1_555 1_555
C28 C27 1_555 1_555
H25 C28 1_555 1_555
C29 C24 1_555 1_555
H26 C29 1_555 1_555
C30 C27 1_555 1_555
C31 O8 1_555 1_555
C32 C31 1_555 1_555
H27 C32 1_555 1_555
C33 C32 1_555 1_555
H28 C33 1_555 1_555
C34 C33 1_555 1_555
C35 C34 1_555 1_555
H29 C35 1_555 1_555
C36 C35 1_555 1_555
H30 C36 1_555 1_555
C37 C36 1_555 1_555
C38 C37 1_555 1_555
H31 C38 1_555 1_555
C39 C34 1_555 1_555
H32 C39 1_555 1_555
C40 C37 1_555 1_555
C41 O10 1_555 1_555
C42 C41 1_555 1_555
H33 C42 1_555 1_555
C43 C42 1_555 1_555
H34 C43 1_555 1_555
C44 C43 1_555 1_555
C45 C44 1_555 1_555
H35 C45 1_555 1_555
C46 C45 1_555 1_555
H36 C46 1_555 1_555
C47 C46 1_555 1_555
C48 C47 1_555 1_555
H37 C48 1_555 1_555
C49 C44 1_555 1_555
H38 C49 1_555 1_555
C50 C47 1_555 1_555
C51 O12 1_555 1_555
C52 C51 1_555 1_555
H39 C52 1_555 1_555
C53 C52 1_555 1_555
H40 C53 1_555 1_555
C54 C53 1_555 1_555
C55 C54 1_555 1_555
H41 C55 1_555 1_555
C56 C55 1_555 1_555
H42 C56 1_555 1_555
C57 C56 1_555 1_555
C58 C57 1_555 1_555
H43 C58 1_555 1_555
C59 C54 1_555 1_555
H44 C59 1_555 1_555
C60 C57 1_555 1_555
C61 O14 1_555 1_555
C62 C61 1_555 1_555
H45 C62 1_555 1_555
C63 C62 1_555 1_555
H46 C63 1_555 1_555
C64 C63 1_555 1_555
C65 C64 1_555 1_555
H47 C65 1_555 1_555
C66 C65 1_555 1_555
H48 C66 1_555 1_555
C67 C66 1_555 1_555
C68 C67 1_555 1_555
H49 C68 1_555 1_555
C69 C64 1_555 1_555
H50 C69 1_555 1_555
C70 C67 1_555 1_555
C71 O16 1_555 1_555
C72 C71 1_555 1_555
H51 C72 1_555 1_555
C73 C72 1_555 1_555
H52 C73 1_555 1_555
C74 C73 1_555 1_555
C75 C74 1_555 1_555
H53 C75 1_555 1_555
C76 C75 1_555 1_555
H54 C76 1_555 1_555
C77 C76 1_555 1_555
C78 C77 1_555 1_555
H55 C78 1_555 1_555
C79 C74 1_555 1_555
H56 C79 1_555 1_555
C80 C77 1_555 1_555
C8 C9 1_555 1_555
C18 C19 1_555 1_555
C28 C29 1_555 1_555
C38 C39 1_555 1_555
C48 C49 1_555 1_555
C58 C59 1_555 1_555
C68 C69 1_555 1_555
C78 C79 1_555 1_555

#END
