
#######################################################################
#
#                 Cambridge Crystallographic Data Centre
#                                CCDC 
#
#######################################################################
#
# If this CIF has been generated from an entry in the Cambridge 
# Structural Database, then it will include bibliographic, chemical, 
# crystal, experimental, refinement or atomic coordinate data resulting 
# from the CCDC's data processing and validation procedures.
#
#######################################################################

data_COCMIR01
_chemical_formula_moiety         'C10 H7 F3 O2'
_chemical_name_systematic        'trans-4-(Trifluoromethyl)cinnamic acid'
_symmetry_cell_setting           triclinic
_symmetry_space_group_name_H-M   'P -1'
_symmetry_Int_Tables_number      2
_space_group_name_Hall           '-P 1'
loop_
_symmetry_equiv_pos_site_id
_symmetry_equiv_pos_as_xyz
1 x,y,z
2 -x,-y,-z
_cell_length_a                   7.693(3)
_cell_length_b                   7.816(4)
_cell_length_c                   15.076(7)
_cell_angle_alpha                94.028(12)
_cell_angle_beta                 90.878(11)
_cell_angle_gamma                94.675(14)
_cell_volume                     901.047
_exptl_crystal_colour            colorless
_exptl_crystal_description       plate
_cell_formula_units_Z            4
loop_
_atom_site_label
_atom_site_type_symbol
_atom_site_fract_x
_atom_site_fract_y
_atom_site_fract_z
F1 F 0.6800(9) 0.0360(11) 0.2451(5)
F2 F 0.6389(11) 0.191(2) 0.3715(14)
O1 O 0.08541(15) 0.77401(13) -0.10493(7)
O2 O 0.25131(16) 0.94833(13) -0.00833(8)
H1 H 0.2134 1.0240 -0.0386
C1 C 0.1870(2) 0.79632(18) -0.04037(10)
C2 C 0.2421(2) 0.64946(18) 0.00601(10)
H3 H 0.1984 0.5365 -0.0152
C3 C 0.35007(19) 0.66801(18) 0.07611(10)
H4 H 0.3960 0.7818 0.0943
C4 C 0.40545(19) 0.52929(17) 0.12837(10)
C5 C 0.5181(2) 0.56947(18) 0.20062(12)
H5 H 0.5597 0.6861 0.2150
C6 C 0.5716(2) 0.44238(19) 0.25256(12)
H6 H 0.6496 0.4716 0.3017
C7 C 0.50964(19) 0.27280(18) 0.23176(11)
C8 C 0.3969(2) 0.23034(18) 0.15981(11)
H7 H 0.3552 0.1136 0.1458
C9 C 0.3446(2) 0.35707(18) 0.10823(10)
H8 H 0.2670 0.3271 0.0589
C10 C 0.5646(2) 0.13260(19) 0.28599(12)
F18 F 0.422(4) 0.013(3) 0.3054(12)
F4 F 0.8609(7) 0.8385(6) 0.4161(3)
F5 F 0.5904(7) 0.7974(6) 0.4489(3)
F6 F 0.7627(7) 0.9884(7) 0.5242(4)
O3 O 1.14066(16) 0.20445(13) 0.90837(7)
O4 O 0.97115(14) 0.03305(13) 0.81162(7)
H2 H 1.0010 -0.0428 0.8442
C11 C 1.04367(19) 0.18379(17) 0.84203(10)
C12 C 1.0032(2) 0.33065(18) 0.79184(10)
H9 H 1.0439 0.4434 0.8147
C13 C 0.91211(19) 0.31178(17) 0.71595(10)
H10 H 0.8674 0.1980 0.6969
C14 C 0.87303(19) 0.44773(17) 0.65828(10)
C15 C 0.7794(2) 0.40315(19) 0.58005(12)
H11 H 0.7412 0.2858 0.5653
C16 C 0.7401(2) 0.5259(2) 0.52257(12)
H12 H 0.6753 0.4932 0.4691
C17 C 0.79631(19) 0.69698(18) 0.54396(10)
C18 C 0.8904(2) 0.74423(18) 0.62154(10)
H13 H 0.9289 0.8617 0.6358
C19 C 0.9291(2) 0.62108(18) 0.67886(10)
H14 H 0.9939 0.6543 0.7323
C20 C 0.7529(2) 0.82933(19) 0.48177(11)
F3? F 0.442(3) 0.0469(19) 0.3136(19)
F7? F 0.6897(7) 0.9627(9) 0.5169(5)
F8? F 0.9012(9) 0.8906(8) 0.4379(5)
F9? F 0.6477(7) 0.7665(6) 0.4102(3)
F10? F 0.5833(10) 0.8485(9) 0.4821(4)
F11? F 0.7940(10) 0.7917(9) 0.4012(5)
F12? F 0.8233(11) 0.9896(12) 0.5077(6)
F13? F 0.6782(13) 0.1796(11) 0.3412(4)
F14? F 0.7141(17) 0.0725(14) 0.2635(8)
F15? F 0.5949(17) 0.195(3) 0.3707(18)
F16? F 0.6380(15) 0.0098(17) 0.2234(8)
F17? F 0.447(3) 0.007(4) 0.2916(16)
loop_
_geom_bond_atom_site_label_1
_geom_bond_atom_site_label_2
_geom_bond_site_symmetry_1
_geom_bond_site_symmetry_2
F1 C10 1_555 1_555
F2 C10 1_555 1_555
F4 C20 1_555 1_555
F5 C20 1_555 1_555
F6 C20 1_555 1_555
O1 C1 1_555 1_555
O2 H1 1_555 1_555
O3 C11 1_555 1_555
O4 H2 1_555 1_555
C1 O2 1_555 1_555
C2 C1 1_555 1_555
H3 C2 1_555 1_555
C3 C2 1_555 1_555
H4 C3 1_555 1_555
C4 C3 1_555 1_555
C5 C4 1_555 1_555
H5 C5 1_555 1_555
C6 C5 1_555 1_555
H6 C6 1_555 1_555
C7 C6 1_555 1_555
C8 C7 1_555 1_555
H7 C8 1_555 1_555
C9 C4 1_555 1_555
H8 C9 1_555 1_555
C10 C7 1_555 1_555
C11 O4 1_555 1_555
C12 C11 1_555 1_555
H9 C12 1_555 1_555
C13 C12 1_555 1_555
H10 C13 1_555 1_555
C14 C13 1_555 1_555
C15 C14 1_555 1_555
H11 C15 1_555 1_555
C16 C15 1_555 1_555
H12 C16 1_555 1_555
C17 C16 1_555 1_555
C18 C17 1_555 1_555
H13 C18 1_555 1_555
C19 C14 1_555 1_555
H14 C19 1_555 1_555
C20 C17 1_555 1_555
F18 C10 1_555 1_555
C8 C9 1_555 1_555
C18 C19 1_555 1_555

#END
