
#######################################################################
#
#                 Cambridge Crystallographic Data Centre
#                                CCDC 
#
#######################################################################
#
# If this CIF has been generated from an entry in the Cambridge 
# Structural Database, then it will include bibliographic, chemical, 
# crystal, experimental, refinement or atomic coordinate data resulting 
# from the CCDC's data processing and validation procedures.
#
#######################################################################

data_COCVAR04
_chemical_formula_moiety         'C21 H14 O1'
_chemical_name_systematic        2,3-diphenyl-1H-inden-1-one
_symmetry_cell_setting           monoclinic
_symmetry_space_group_name_H-M   'P 21/n'
_symmetry_Int_Tables_number      14
_space_group_name_Hall           '-P 2yn'
loop_
_symmetry_equiv_pos_site_id
_symmetry_equiv_pos_as_xyz
1 x,y,z
2 1/2-x,1/2+y,1/2-z
3 -x,-y,-z
4 1/2+x,1/2-y,1/2+z
_cell_length_a                   9.567(5)
_cell_length_b                   17.241(9)
_cell_length_c                   9.945(5)
_cell_angle_alpha                90
_cell_angle_beta                 110.813(8)
_cell_angle_gamma                90
_cell_volume                     1533.33
_exptl_crystal_colour            red
_exptl_crystal_description       block
_cell_formula_units_Z            4
loop_
_atom_site_label
_atom_site_type_symbol
_atom_site_fract_x
_atom_site_fract_y
_atom_site_fract_z
O1 O 0.18959(12) 0.08088(7) 0.07593(10)
C1 C 0.34163(14) 0.13322(7) -0.18372(13)
C2 C 0.21736(15) 0.11869(7) -0.15027(13)
C3 C 0.05773(15) 0.12395(7) -0.24102(13)
C4 C 0.47960(15) 0.11879(7) -0.05540(13)
C5 C 0.26932(16) 0.09508(8) 0.00602(13)
C6 C 0.43573(16) 0.09509(8) 0.05917(13)
C7 C -0.04402(16) 0.06902(8) -0.22671(15)
H1 H -0.0106 0.0301 -0.1579
C8 C 0.34825(14) 0.15741(8) -0.32471(13)
C9 C 0.00263(16) 0.18277(8) -0.34391(14)
H2 H 0.0673 0.2207 -0.3540
C10 C 0.62938(16) 0.12133(8) -0.03797(16)
H3 H 0.6596 0.1367 -0.1130
C11 C 0.43532(16) 0.22070(9) -0.33316(17)
H4 H 0.4923 0.2467 -0.2498
C12 C 0.26679(17) 0.11802(9) -0.45032(14)
H5 H 0.2096 0.0751 -0.4460
C13 C -0.19310(17) 0.07181(10) -0.31324(17)
H6 H -0.2591 0.0349 -0.3023
C14 C -0.24492(18) 0.12906(10) -0.41589(17)
H7 H -0.3451 0.1303 -0.4751
C15 C 0.53988(18) 0.07476(9) 0.19096(15)
H8 H 0.5101 0.0594 0.2664
C16 C -0.14621(18) 0.18482(10) -0.43004(16)
H9 H -0.1810 0.2239 -0.4983
C17 C 0.69083(19) 0.07784(9) 0.20797(17)
H10 H 0.7629 0.0647 0.2961
C18 C 0.3547(2) 0.20592(13) -0.5893(2)
H11 H 0.3559 0.2224 -0.6779
C19 C 0.43721(19) 0.24508(11) -0.4660(2)
H12 H 0.4942 0.2878 -0.4715
C20 C 0.2704(2) 0.14247(11) -0.58198(16)
H13 H 0.2158 0.1159 -0.6655
C21 C 0.73458(18) 0.10015(9) 0.09592(18)
H14 H 0.8358 0.1012 0.1093
loop_
_geom_bond_atom_site_label_1
_geom_bond_atom_site_label_2
_geom_bond_site_symmetry_1
_geom_bond_site_symmetry_2
O1 C5 1_555 1_555
C1 C2 1_555 1_555
C2 C3 1_555 1_555
C3 C7 1_555 1_555
C4 C1 1_555 1_555
C5 C2 1_555 1_555
C6 C4 1_555 1_555
C7 H1 1_555 1_555
C8 C1 1_555 1_555
C9 C3 1_555 1_555
H2 C9 1_555 1_555
C10 C4 1_555 1_555
H3 C10 1_555 1_555
C11 C8 1_555 1_555
H4 C11 1_555 1_555
C12 C8 1_555 1_555
H5 C12 1_555 1_555
C13 C7 1_555 1_555
H6 C13 1_555 1_555
C14 C13 1_555 1_555
H7 C14 1_555 1_555
C15 C6 1_555 1_555
H8 C15 1_555 1_555
C16 C9 1_555 1_555
H9 C16 1_555 1_555
C17 C15 1_555 1_555
H10 C17 1_555 1_555
C18 H11 1_555 1_555
C19 C11 1_555 1_555
H12 C19 1_555 1_555
C20 C12 1_555 1_555
H13 C20 1_555 1_555
C21 C10 1_555 1_555
H14 C21 1_555 1_555
C5 C6 1_555 1_555
C14 C16 1_555 1_555
C17 C21 1_555 1_555
C18 C19 1_555 1_555
C18 C20 1_555 1_555

#END
