
#######################################################################
#
#                 Cambridge Crystallographic Data Centre
#                                CCDC 
#
#######################################################################
#
# If this CIF has been generated from an entry in the Cambridge 
# Structural Database, then it will include bibliographic, chemical, 
# crystal, experimental, refinement or atomic coordinate data resulting 
# from the CCDC's data processing and validation procedures.
#
#######################################################################

data_COCWOI
_chemical_formula_moiety         'C16 H16 O4 Si1'
_chemical_name_systematic        
6,6'-dimethyl-4H,4'H-2,2'-spirobi[[1,3,2]benzodioxasiline]
_symmetry_cell_setting           monoclinic
_symmetry_space_group_name_H-M   'P 21/n'
_symmetry_Int_Tables_number      14
_space_group_name_Hall           '-P 2yn'
loop_
_symmetry_equiv_pos_site_id
_symmetry_equiv_pos_as_xyz
1 x,y,z
2 1/2-x,1/2+y,1/2-z
3 -x,-y,-z
4 1/2+x,1/2-y,1/2+z
_cell_length_a                   7.1520(2)
_cell_length_b                   14.2672(4)
_cell_length_c                   13.5762(4)
_cell_angle_alpha                90
_cell_angle_beta                 96.039(3)
_cell_angle_gamma                90
_cell_volume                     1377.61
_exptl_crystal_colour            colorless
_exptl_crystal_description       block
_cell_formula_units_Z            4
loop_
_atom_site_label
_atom_site_type_symbol
_atom_site_fract_x
_atom_site_fract_y
_atom_site_fract_z
C1 C 0.6755(3) 0.29041(14) 0.03259(15)
H1 H 0.7378 0.3318 -0.0103
H2 H 0.5573 0.3192 0.0448
C2 C 0.6370(3) 0.19817(13) -0.01840(14)
C3 C 0.7825(2) 0.13357(14) -0.02029(14)
C4 C 0.7535(3) 0.04792(14) -0.06660(13)
H3 H 0.8513 0.0049 -0.0664
C5 C 0.5771(3) 0.02681(14) -0.11340(14)
H4 H 0.5577 -0.0308 -0.1449
C6 C 0.4289(3) 0.08948(13) -0.11436(14)
C7 C 0.4614(3) 0.17454(14) -0.06532(14)
H5 H 0.3627 0.2168 -0.0639
C8 C 0.2375(3) 0.06663(15) -0.16723(15)
H6 H 0.1534 0.1181 -0.1602
H7 H 0.1891 0.0112 -0.1388
H8 H 0.2486 0.0561 -0.2362
C9 C 1.2954(3) 0.29150(14) 0.21521(15)
H9 H 1.2337 0.3332 0.2580
H10 H 1.4133 0.3202 0.2022
C10 C 1.3346(3) 0.19950(13) 0.26678(14)
C11 C 1.1885(2) 0.13551(13) 0.27100(13)
C12 C 1.2187(3) 0.05007(14) 0.31732(14)
H11 H 1.1205 0.0076 0.3189
C13 C 1.3976(3) 0.02804(13) 0.36169(14)
H12 H 1.4178 -0.0295 0.3932
C14 C 1.5461(3) 0.09020(13) 0.35980(14)
C15 C 1.5117(3) 0.17552(14) 0.31078(14)
H13 H 1.6104 0.2174 0.3076
C16 C 1.7400(3) 0.06726(15) 0.40866(16)
H14 H 1.8236 0.1184 0.3992
H15 H 1.7852 0.0114 0.3796
H16 H 1.7344 0.0574 0.4782
O1 O 0.96163(15) 0.15593(9) 0.02458(9)
O2 O 0.79289(17) 0.27938(9) 0.12600(10)
O3 O 1.00933(16) 0.15802(9) 0.22677(9)
O4 O 1.17714(17) 0.27940(9) 0.12260(9)
Si1 Si 0.98480(7) 0.22000(4) 0.12489(4)
H17? H 0.2407 0.0055 -0.1966
H18? H 0.2049 0.1124 -0.2180
H19? H 0.1455 0.0675 -0.1206
H20? H 1.7386 0.0064 0.4388
H21? H 1.7769 0.1133 0.4585
H22? H 1.8278 0.0674 0.3598
loop_
_geom_bond_atom_site_label_1
_geom_bond_atom_site_label_2
_geom_bond_site_symmetry_1
_geom_bond_site_symmetry_2
C1 H1 1_555 1_555
H2 C1 1_555 1_555
C2 C1 1_555 1_555
C3 C2 1_555 1_555
C4 C3 1_555 1_555
H3 C4 1_555 1_555
C5 C4 1_555 1_555
H4 C5 1_555 1_555
C6 C5 1_555 1_555
C7 C2 1_555 1_555
H5 C7 1_555 1_555
C8 C6 1_555 1_555
H6 C8 1_555 1_555
H7 C8 1_555 1_555
H8 C8 1_555 1_555
C9 H9 1_555 1_555
H10 C9 1_555 1_555
C10 C9 1_555 1_555
C11 C10 1_555 1_555
C12 C11 1_555 1_555
H11 C12 1_555 1_555
C13 C12 1_555 1_555
H12 C13 1_555 1_555
C14 C13 1_555 1_555
C15 C10 1_555 1_555
H13 C15 1_555 1_555
C16 C14 1_555 1_555
H14 C16 1_555 1_555
H15 C16 1_555 1_555
H16 C16 1_555 1_555
O1 C3 1_555 1_555
O2 C1 1_555 1_555
O3 C11 1_555 1_555
O4 C9 1_555 1_555
Si1 O1 1_555 1_555
C6 C7 1_555 1_555
C14 C15 1_555 1_555
O2 Si1 1_555 1_555
O3 Si1 1_555 1_555
O4 Si1 1_555 1_555

#END
