
#######################################################################
#
#                 Cambridge Crystallographic Data Centre
#                                CCDC 
#
#######################################################################
#
# If this CIF has been generated from an entry in the Cambridge 
# Structural Database, then it will include bibliographic, chemical, 
# crystal, experimental, refinement or atomic coordinate data resulting 
# from the CCDC's data processing and validation procedures.
#
#######################################################################

data_COCXAV
_chemical_formula_moiety         'C24 H32 O4 Si1'
_chemical_name_systematic        
8,8'-di-t-butyl-6,6'-dimethyl-4H,4'H-2,2'-spirobi[[1,3,2]benzodioxasiline]
_symmetry_cell_setting           orthorhombic
_symmetry_space_group_name_H-M   'P b c n'
_symmetry_Int_Tables_number      60
_space_group_name_Hall           '-P 2n 2ab'
loop_
_symmetry_equiv_pos_site_id
_symmetry_equiv_pos_as_xyz
1 x,y,z
2 1/2-x,1/2-y,1/2+z
3 -x,y,1/2-z
4 1/2+x,1/2-y,-z
5 -x,-y,-z
6 1/2+x,1/2+y,1/2-z
7 x,-y,1/2+z
8 1/2-x,1/2+y,z
_cell_length_a                   11.7947(2)
_cell_length_b                   11.37860(10)
_cell_length_c                   16.3911(2)
_cell_angle_alpha                90
_cell_angle_beta                 90
_cell_angle_gamma                90
_cell_volume                     2199.8
_exptl_crystal_colour            colorless
_exptl_crystal_description       block
_cell_formula_units_Z            4
loop_
_atom_site_label
_atom_site_type_symbol
_atom_site_fract_x
_atom_site_fract_y
_atom_site_fract_z
C1 C -0.09339(12) 0.17781(12) 0.60864(8)
H1 H -0.1323 0.2362 0.5759
H2 H -0.1422 0.1095 0.6130
C2 C 0.01535(11) 0.14340(11) 0.56700(8)
C3 C 0.09815(11) 0.08299(11) 0.61108(8)
C4 C 0.20199(11) 0.05049(11) 0.57691(8)
C5 C 0.21653(12) 0.07888(11) 0.49454(8)
H3 H 0.2843 0.0578 0.4695
C6 C 0.13508(12) 0.13700(11) 0.44791(8)
C7 C 0.03456(12) 0.17015(11) 0.48583(8)
H4 H -0.0203 0.2107 0.4563
C8 C 0.15355(14) 0.16327(14) 0.35858(8)
H5 H 0.2268 0.1349 0.3423
H6 H 0.1497 0.2466 0.3498
H7 H 0.0959 0.1250 0.3268
C9 C 0.29274(11) -0.01612(12) 0.62592(8)
C10 C 0.32655(12) 0.05203(12) 0.70347(9)
H8 H 0.2605 0.0652 0.7365
H9 H 0.3592 0.1262 0.6884
H10 H 0.3810 0.0071 0.7339
C11 C 0.24676(12) -0.13848(12) 0.64810(8)
H11 H 0.1782 -0.1302 0.6791
H12 H 0.3021 -0.1799 0.6800
H13 H 0.2313 -0.1817 0.5991
C12 C 0.40182(12) -0.03364(14) 0.57651(9)
H14 H 0.4325 0.0416 0.5618
H15 H 0.3851 -0.0776 0.5280
H16 H 0.4561 -0.0759 0.6088
O1 O -0.07261(8) 0.22512(8) 0.68927(5)
O2 O 0.07354(8) 0.05383(8) 0.69191(5)
Si1 Si 0.0000 0.14208(4) 0.7500
C1B C 0.09339(12) 0.17781(12) 0.89136(8)
H1B H 0.1323 0.2362 0.9241
H2B H 0.1422 0.1095 0.8870
C2B C -0.01535(11) 0.14340(11) 0.93300(8)
C3B C -0.09815(11) 0.08299(11) 0.88892(8)
C4B C -0.20199(11) 0.05049(11) 0.92309(8)
C5B C -0.21653(12) 0.07888(11) 1.00546(8)
H3B H -0.2843 0.0578 1.0305
C6B C -0.13508(12) 0.13700(11) 1.05209(8)
C7B C -0.03456(12) 0.17015(11) 1.01417(8)
H4B H 0.0203 0.2107 1.0437
C8B C -0.15355(14) 0.16327(14) 1.14142(8)
H5B H -0.2268 0.1349 1.1577
H6B H -0.1497 0.2466 1.1502
H7B H -0.0959 0.1250 1.1732
C9B C -0.29274(11) -0.01612(12) 0.87408(8)
C10B C -0.32655(12) 0.05203(12) 0.79653(9)
H8B H -0.2605 0.0652 0.7635
H9B H -0.3592 0.1262 0.8116
H10B H -0.3810 0.0071 0.7661
C11B C -0.24676(12) -0.13848(12) 0.85190(8)
H11B H -0.1782 -0.1302 0.8209
H12B H -0.3021 -0.1799 0.8200
H13B H -0.2313 -0.1817 0.9009
C12B C -0.40182(12) -0.03364(14) 0.92349(9)
H14B H -0.4325 0.0416 0.9382
H15B H -0.3851 -0.0776 0.9720
H16B H -0.4561 -0.0759 0.8912
O1B O 0.07261(8) 0.22512(8) 0.81073(5)
O2B O -0.07354(8) 0.05383(8) 0.80809(5)
loop_
_geom_bond_atom_site_label_1
_geom_bond_atom_site_label_2
_geom_bond_site_symmetry_1
_geom_bond_site_symmetry_2
C1 H1 1_555 1_555
H2 C1 1_555 1_555
C2 C1 1_555 1_555
C3 C2 1_555 1_555
C4 C3 1_555 1_555
C5 C4 1_555 1_555
H3 C5 1_555 1_555
C6 C5 1_555 1_555
C7 C2 1_555 1_555
H4 C7 1_555 1_555
C8 C6 1_555 1_555
H5 C8 1_555 1_555
H6 C8 1_555 1_555
H7 C8 1_555 1_555
C9 C4 1_555 1_555
C10 C9 1_555 1_555
H8 C10 1_555 1_555
H9 C10 1_555 1_555
H10 C10 1_555 1_555
C11 C9 1_555 1_555
H11 C11 1_555 1_555
H12 C11 1_555 1_555
H13 C11 1_555 1_555
C12 C9 1_555 1_555
H14 C12 1_555 1_555
H15 C12 1_555 1_555
H16 C12 1_555 1_555
O1 C1 1_555 1_555
O2 C3 1_555 1_555
Si1 O1 1_555 1_555
C1B H1B 1_555 1_555
H2B C1B 1_555 1_555
C2B C1B 1_555 1_555
C3B C2B 1_555 1_555
C4B C3B 1_555 1_555
C5B C4B 1_555 1_555
H3B C5B 1_555 1_555
C6B C5B 1_555 1_555
C7B C2B 1_555 1_555
H4B C7B 1_555 1_555
C8B C6B 1_555 1_555
H5B C8B 1_555 1_555
H6B C8B 1_555 1_555
H7B C8B 1_555 1_555
C9B C4B 1_555 1_555
C10B C9B 1_555 1_555
H8B C10B 1_555 1_555
H9B C10B 1_555 1_555
H10B C10B 1_555 1_555
C11B C9B 1_555 1_555
H11B C11B 1_555 1_555
H12B C11B 1_555 1_555
H13B C11B 1_555 1_555
C12B C9B 1_555 1_555
H14B C12B 1_555 1_555
H15B C12B 1_555 1_555
H16B C12B 1_555 1_555
O1B Si1 1_555 1_555
O2B Si1 1_555 1_555
C6 C7 1_555 1_555
O2 Si1 1_555 1_555
C1B O1B 1_555 1_555
C3B O2B 1_555 1_555
C6B C7B 1_555 1_555

#END
