
#######################################################################
#
#                 Cambridge Crystallographic Data Centre
#                                CCDC 
#
#######################################################################
#
# If this CIF has been generated from an entry in the Cambridge 
# Structural Database, then it will include bibliographic, chemical, 
# crystal, experimental, refinement or atomic coordinate data resulting 
# from the CCDC's data processing and validation procedures.
#
#######################################################################

data_COCZOL
_chemical_formula_moiety         'C23 H21 N3 O6'
_chemical_name_systematic        
'Methyl 5-(4-benzyl-1-(2-hydroxyphenyl)-4-(methoxycarbonyl)-4,5-dihydro-1H-imidazol-5-yl)-1,3-oxazole-4-carboxylate'
_symmetry_cell_setting           monoclinic
_symmetry_space_group_name_H-M   'P 21/c'
_symmetry_Int_Tables_number      14
_space_group_name_Hall           '-P 2ybc'
loop_
_symmetry_equiv_pos_site_id
_symmetry_equiv_pos_as_xyz
1 x,y,z
2 -x,1/2+y,1/2-z
3 -x,-y,-z
4 x,1/2-y,1/2+z
_cell_length_a                   9.3056(3)
_cell_length_b                   10.5189(3)
_cell_length_c                   21.2002(8)
_cell_angle_alpha                90
_cell_angle_beta                 95.9360(11)
_cell_angle_gamma                90
_cell_volume                     2064.05
_exptl_crystal_colour            colorless
_exptl_crystal_description       Block
_cell_formula_units_Z            4
loop_
_atom_site_label
_atom_site_type_symbol
_atom_site_fract_x
_atom_site_fract_y
_atom_site_fract_z
O1 O 0.17584(9) 0.71701(8) 0.08807(4)
O2 O 0.57026(10) 0.71020(9) 0.23741(4)
O3 O 0.23237(10) 0.74938(9) -0.11871(4)
O4 O 0.37646(10) 0.88987(9) -0.06255(4)
O5 O 0.02197(9) 0.95584(9) 0.09936(4)
O6 O 0.12657(10) 0.91741(10) 0.19785(4)
N1 N 0.44799(10) 0.84255(10) 0.13539(5)
N2 N 0.37680(11) 1.02816(9) 0.17535(5)
N3 N 0.12120(11) 0.65663(10) -0.01259(5)
C1 C 0.34684(12) 0.89354(11) 0.08344(5)
H1 H 0.4043 0.9329 0.0512
C2 C 0.46453(13) 0.93422(11) 0.18113(5)
H2 H 0.5379 0.9285 0.2157
C3 C 0.27288(13) 1.00357(11) 0.11933(5)
C4 C 0.25171(12) 0.79406(11) 0.05155(6)
C5 C 0.21971(12) 0.75771(11) -0.00992(6)
C6 C 0.10044(13) 0.63753(12) 0.04567(6)
H3 H 0.0376 0.5732 0.0583
C7 C 0.28475(13) 0.80754(12) -0.06558(6)
C8 C 0.29735(15) 0.78300(14) -0.17581(6)
H4 H 0.2866 0.8745 -0.1835
H5 H 0.2491 0.7362 -0.2120
H6 H 0.4002 0.7610 -0.1705
C9 C 0.13343(13) 0.95475(11) 0.14472(6)
C10 C -0.10994(14) 0.89990(14) 0.11862(8)
H7 H -0.0937 0.8096 0.1283
H8 H -0.1879 0.9086 0.0841
H9 H -0.1369 0.9438 0.1564
C11 C 0.24886(13) 1.12291(12) 0.07751(6)
H10 H 0.3323 1.1334 0.0525
H11 H 0.1616 1.1102 0.0473
C12 C 0.23067(13) 1.24350(11) 0.11491(6)
C13 C 0.11430(14) 1.26107(13) 0.15043(6)
H12 H 0.0432 1.1964 0.1511
C14 C 0.10111(16) 1.37240(14) 0.18499(7)
H13 H 0.0217 1.3830 0.2093
C15 C 0.20269(17) 1.46676(13) 0.18393(7)
H14 H 0.1930 1.5429 0.2072
C16 C 0.31943(16) 1.45123(13) 0.14899(7)
H15 H 0.3899 1.5164 0.1484
C17 C 0.33285(14) 1.34008(12) 0.11489(6)
H16 H 0.4132 1.3297 0.0911
C18 C 0.55148(12) 0.74647(11) 0.12667(5)
C19 C 0.61406(12) 0.67991(11) 0.18028(5)
C20 C 0.71580(13) 0.58569(12) 0.17248(6)
H17 H 0.7611 0.5423 0.2085
C21 C 0.75155(13) 0.55472(12) 0.11229(6)
H18 H 0.8205 0.4898 0.1074
C22 C 0.68722(14) 0.61787(12) 0.05934(6)
H19 H 0.7107 0.5954 0.0182
C23 C 0.58786(13) 0.71466(12) 0.06670(6)
H20 H 0.5448 0.7591 0.0305
H21 H 0.602(2) 0.6532(19) 0.2662(9)
loop_
_geom_bond_atom_site_label_1
_geom_bond_atom_site_label_2
_geom_bond_site_symmetry_1
_geom_bond_site_symmetry_2
O1 C4 1_555 1_555
O2 C19 1_555 1_555
O3 C7 1_555 1_555
O4 C7 1_555 1_555
O5 C9 1_555 1_555
O6 C9 1_555 1_555
N1 C1 1_555 1_555
N2 C2 1_555 1_555
N3 C5 1_555 1_555
C1 H1 1_555 1_555
C2 N1 1_555 1_555
H2 C2 1_555 1_555
C3 N2 1_555 1_555
C4 C1 1_555 1_555
C5 C4 1_555 1_555
C6 O1 1_555 1_555
H3 C6 1_555 1_555
C7 C5 1_555 1_555
C8 O3 1_555 1_555
H4 C8 1_555 1_555
H5 C8 1_555 1_555
H6 C8 1_555 1_555
C9 C3 1_555 1_555
C10 O5 1_555 1_555
H7 C10 1_555 1_555
H8 C10 1_555 1_555
H9 C10 1_555 1_555
C11 C3 1_555 1_555
H10 C11 1_555 1_555
H11 C11 1_555 1_555
C12 C11 1_555 1_555
C13 C12 1_555 1_555
H12 C13 1_555 1_555
C14 C13 1_555 1_555
H13 C14 1_555 1_555
C15 C14 1_555 1_555
H14 C15 1_555 1_555
C16 C15 1_555 1_555
H15 C16 1_555 1_555
C17 C12 1_555 1_555
H16 C17 1_555 1_555
C18 N1 1_555 1_555
C19 C18 1_555 1_555
C20 C19 1_555 1_555
H17 C20 1_555 1_555
C21 C20 1_555 1_555
H18 C21 1_555 1_555
C22 C21 1_555 1_555
H19 C22 1_555 1_555
C23 C18 1_555 1_555
H20 C23 1_555 1_555
H21 O2 1_555 1_555
N3 C6 1_555 1_555
C1 C3 1_555 1_555
C16 C17 1_555 1_555
C22 C23 1_555 1_555

#END
