
#######################################################################
#
#                 Cambridge Crystallographic Data Centre
#                                CCDC 
#
#######################################################################
#
# If this CIF has been generated from an entry in the Cambridge 
# Structural Database, then it will include bibliographic, chemical, 
# crystal, experimental, refinement or atomic coordinate data resulting 
# from the CCDC's data processing and validation procedures.
#
#######################################################################

data_CODMEO
_chemical_formula_moiety         'C23 H36 N1 O5 P1 S1'
_chemical_name_systematic        
'Ethyl (diethoxymethyl)((S~S~,R^C^,S^P^)-(+)-(1-(t-butylsulfinyl)amino)-1-(2-naphthylethyl))phosphinate'
_symmetry_cell_setting           orthorhombic
_symmetry_space_group_name_H-M   'P 21 21 21'
_symmetry_Int_Tables_number      19
_space_group_name_Hall           'P 2ac 2ab'
loop_
_symmetry_equiv_pos_site_id
_symmetry_equiv_pos_as_xyz
1 x,y,z
2 1/2-x,-y,1/2+z
3 -x,1/2+y,1/2-z
4 1/2+x,1/2-y,-z
_cell_length_a                   9.9397(8)
_cell_length_b                   13.8189(12)
_cell_length_c                   18.8592(16)
_cell_angle_alpha                90
_cell_angle_beta                 90
_cell_angle_gamma                90
_cell_volume                     2590.42
_exptl_crystal_colour            colorless
_exptl_crystal_description       prismatic
_cell_formula_units_Z            4
loop_
_atom_site_label
_atom_site_type_symbol
_atom_site_fract_x
_atom_site_fract_y
_atom_site_fract_z
H1 H 0.038(4) 0.162(3) 0.8732(19)
P1 P 0.29647(9) 0.13919(6) 0.82388(5)
S1 S -0.05584(10) 0.05961(8) 0.94248(5)
O1 O 0.4367(3) 0.1078(2) 0.82304(17)
O2 O 0.2112(2) 0.11573(17) 0.75641(12)
O3 O 0.1533(3) 0.29815(17) 0.84227(14)
O4 O 0.3407(3) 0.3155(2) 0.77432(19)
O5 O -0.0727(3) 0.1234(3) 1.00443(15)
N1 N 0.0540(3) 0.1033(2) 0.88370(14)
C1 C 0.3430(4) -0.1721(2) 0.92774(19)
C2 C 0.4425(5) -0.2177(3) 0.9691(2)
H2 H 0.4957 -0.1814 0.9997
C3 C 0.4606(7) -0.3154(4) 0.9640(3)
H3 H 0.5255 -0.3451 0.9921
C4 C 0.3865(7) -0.3699(4) 0.9191(3)
H4 H 0.4001 -0.4364 0.9173
C5 C 0.2934(6) -0.3288(3) 0.8770(3)
H5 H 0.2456 -0.3670 0.8451
C6 C 0.2672(5) -0.2278(3) 0.8808(2)
C7 C 0.1708(5) -0.1804(3) 0.8381(2)
H6 H 0.1207 -0.2166 0.8059
C8 C 0.1490(4) -0.0822(3) 0.84269(19)
H7 H 0.0856 -0.0528 0.8135
C9 C 0.2223(3) -0.0265(2) 0.89149(17)
C10 C 0.3177(4) -0.0706(2) 0.93247(17)
H8 H 0.3673 -0.0336 0.9643
C11 C 0.1970(4) 0.0826(2) 0.89591(16)
C12 C 0.2488(4) 0.1272(3) 0.96650(18)
H9 H 0.2173 0.1927 0.9705
H10 H 0.3454 0.1266 0.9668
H11 H 0.2157 0.0899 1.0057
C13 C 0.2677(5) 0.1274(4) 0.6847(2)
H12 H 0.3580 0.1536 0.6877
H13 H 0.2725 0.0650 0.6613
C14 C 0.1842(7) 0.1912(6) 0.6450(3)
H14 H 0.0915 0.1785 0.6559
H15 H 0.1993 0.1811 0.5952
H16 H 0.2054 0.2569 0.6570
C15 C 0.2896(4) 0.2714(2) 0.8345(2)
H17 H 0.3412 0.2912 0.8763
C16 C 0.1381(6) 0.3990(3) 0.8606(3)
H18 H 0.1710 0.4394 0.8223
H19 H 0.1900 0.4136 0.9029
C17 C -0.0038(7) 0.4186(4) 0.8733(4)
H20 H -0.0543 0.4051 0.8310
H21 H -0.0152 0.4854 0.8860
H22 H -0.0357 0.3783 0.9112
C18 C 0.4831(10) 0.3266(6) 0.7565(6)
H23 H 0.5332 0.2681 0.7669
H24 H 0.4948 0.3429 0.7068
C19 C 0.5244(11) 0.4046(7) 0.8013(6)
H25 H 0.4657 0.4590 0.7942
H26 H 0.6150 0.4228 0.7898
H27 H 0.5201 0.3844 0.8500
C20 C -0.2105(4) 0.0737(3) 0.89069(19)
C21 C -0.3222(5) 0.0388(6) 0.9381(4)
H28 H -0.3214 0.0751 0.9815
H29 H -0.3093 -0.0286 0.9484
H30 H -0.4070 0.0476 0.9146
C22 C -0.1975(6) 0.0185(4) 0.8215(3)
H31 H -0.1795 -0.0484 0.8314
H32 H -0.1249 0.0451 0.7942
H33 H -0.2798 0.0238 0.7952
C23 C -0.2330(6) 0.1807(4) 0.8735(3)
H34 H -0.3171 0.1882 0.8491
H35 H -0.1612 0.2037 0.8440
H36 H -0.2349 0.2174 0.9168
loop_
_geom_bond_atom_site_label_1
_geom_bond_atom_site_label_2
_geom_bond_site_symmetry_1
_geom_bond_site_symmetry_2
H1 N1 1_555 1_555
P1 O1 1_555 1_555
S1 O5 1_555 1_555
O2 P1 1_555 1_555
O3 C15 1_555 1_555
O4 C15 1_555 1_555
N1 S1 1_555 1_555
C1 C2 1_555 1_555
C2 H2 1_555 1_555
C3 C2 1_555 1_555
H3 C3 1_555 1_555
C4 C3 1_555 1_555
H4 C4 1_555 1_555
C5 C4 1_555 1_555
H5 C5 1_555 1_555
C6 C1 1_555 1_555
C7 C6 1_555 1_555
H6 C7 1_555 1_555
C8 C7 1_555 1_555
H7 C8 1_555 1_555
C9 C8 1_555 1_555
C10 C1 1_555 1_555
H8 C10 1_555 1_555
C11 P1 1_555 1_555
C12 C11 1_555 1_555
H9 C12 1_555 1_555
H10 C12 1_555 1_555
H11 C12 1_555 1_555
C13 O2 1_555 1_555
H12 C13 1_555 1_555
H13 C13 1_555 1_555
C14 C13 1_555 1_555
H14 C14 1_555 1_555
H15 C14 1_555 1_555
H16 C14 1_555 1_555
C15 P1 1_555 1_555
H17 C15 1_555 1_555
C16 O3 1_555 1_555
H18 C16 1_555 1_555
H19 C16 1_555 1_555
C17 C16 1_555 1_555
H20 C17 1_555 1_555
H21 C17 1_555 1_555
H22 C17 1_555 1_555
C18 O4 1_555 1_555
H23 C18 1_555 1_555
H24 C18 1_555 1_555
C19 C18 1_555 1_555
H25 C19 1_555 1_555
H26 C19 1_555 1_555
H27 C19 1_555 1_555
C20 S1 1_555 1_555
C21 C20 1_555 1_555
H28 C21 1_555 1_555
H29 C21 1_555 1_555
H30 C21 1_555 1_555
C22 C20 1_555 1_555
H31 C22 1_555 1_555
H32 C22 1_555 1_555
H33 C22 1_555 1_555
C23 C20 1_555 1_555
H34 C23 1_555 1_555
H35 C23 1_555 1_555
H36 C23 1_555 1_555
N1 C11 1_555 1_555
C5 C6 1_555 1_555
C9 C10 1_555 1_555
C9 C11 1_555 1_555

#END
