
#######################################################################
#
#                 Cambridge Crystallographic Data Centre
#                                CCDC 
#
#######################################################################
#
# If this CIF has been generated from an entry in the Cambridge 
# Structural Database, then it will include bibliographic, chemical, 
# crystal, experimental, refinement or atomic coordinate data resulting 
# from the CCDC's data processing and validation procedures.
#
#######################################################################

data_CODXAW
_chemical_formula_moiety         'C20 H18 F1 N3 O1 S3'
_chemical_name_systematic        
N-(1,2-bis(1,3-benzothiazol-2-yl)-2-fluorovinyl)-2-methylpropane-2-sulfinamide
_symmetry_cell_setting           monoclinic
_symmetry_space_group_name_H-M   'P 21'
_symmetry_Int_Tables_number      4
_space_group_name_Hall           'P 2yb'
loop_
_symmetry_equiv_pos_site_id
_symmetry_equiv_pos_as_xyz
1 x,y,z
2 -x,1/2+y,-z
_cell_length_a                   9.1815(7)
_cell_length_b                   22.3557(18)
_cell_length_c                   10.3096(8)
_cell_angle_alpha                90
_cell_angle_beta                 106.4760(10)
_cell_angle_gamma                90
_cell_volume                     2029.25
_chemical_melting_point          '433-435 K'
_cell_formula_units_Z            4
loop_
_atom_site_label
_atom_site_type_symbol
_atom_site_fract_x
_atom_site_fract_y
_atom_site_fract_z
C1 C 1.2530(6) 0.2479(3) 1.2209(5)
C2 C 1.3547(6) 0.2670(3) 1.3466(6)
H1 H 1.3561 0.2493 1.4285
C3 C 1.4499(6) 0.3132(3) 1.3386(6)
H2 H 1.5145 0.3281 1.4186
C4 C 1.4551(6) 0.3396(3) 1.2147(6)
H3 H 1.5239 0.3699 1.2133
C5 C 1.3535(6) 0.3185(2) 1.0940(5)
H4 H 1.3542 0.3351 1.0115
C6 C 1.2536(6) 0.2736(3) 1.0982(5)
C7 C 1.0761(6) 0.2055(3) 1.0216(5)
C8 C 0.9599(6) 0.1702(2) 0.9341(5)
C9 C 0.8842(6) 0.1801(2) 0.7990(5)
C10 C 0.7634(6) 0.1418(2) 0.7202(5)
C11 C 0.5841(6) 0.1111(2) 0.5446(5)
C12 C 0.4948(6) 0.1098(3) 0.4165(5)
H5 H 0.5109 0.1370 0.3537
C13 C 0.3754(7) 0.0670(3) 0.3764(6)
H6 H 0.3134 0.0665 0.2877
C14 C 0.3523(7) 0.0271(2) 0.4671(6)
H7 H 0.2744 -0.0008 0.4409
C15 C 0.4448(7) 0.0277(2) 0.5991(7)
H8 H 0.4292 -0.0002 0.6608
C16 C 0.5629(6) 0.0704(2) 0.6414(6)
C17 C 0.9387(6) 0.3276(2) 0.5945(5)
C18 C 1.0758(7) 0.3468(3) 0.7094(6)
H9 H 1.1607 0.3215 0.7110
H10 H 1.0519 0.3436 0.7940
H11 H 1.1011 0.3876 0.6956
C19 C 0.9926(7) 0.2953(3) 0.4862(6)
H12 H 0.9073 0.2773 0.4218
H13 H 1.0643 0.2648 0.5277
H14 H 1.0403 0.3234 0.4409
C20 C 0.8520(7) 0.3816(2) 0.5382(6)
H15 H 0.9203 0.4148 0.5466
H16 H 0.7794 0.3900 0.5868
H17 H 0.7999 0.3752 0.4444
F1 F 0.9203(3) 0.12248(12) 0.9944(3)
N1 N 1.1528(5) 0.24718(19) 0.9861(4)
N2 N 0.6995(5) 0.15140(19) 0.5884(5)
N3 N 0.9393(5) 0.22728(18) 0.7339(4)
H18 H 1.0103 0.2475 0.7968
O1 O 0.7472(4) 0.31192(18) 0.7400(4)
S1 S 1.12455(17) 0.19051(7) 1.19542(14)
S2 S 0.68505(16) 0.08322(6) 0.79381(14)
S3 S 0.80549(15) 0.27794(6) 0.64657(14)
C21 C 0.4259(6) 0.1536(2) 0.9448(6)
C22 C 0.5053(6) 0.1416(3) 1.0778(6)
H19 H 0.4770 0.1097 1.1233
C23 C 0.6269(6) 0.1774(2) 1.1426(6)
H20 H 0.6814 0.1692 1.2315
C24 C 0.6679(6) 0.2251(2) 1.0763(6)
H21 H 0.7470 0.2499 1.1223
C25 C 0.5935(6) 0.2367(2) 0.9429(6)
H22 H 0.6244 0.2674 0.8961
C26 C 0.4689(6) 0.2001(2) 0.8803(5)
C27 C 0.2593(6) 0.1401(2) 0.7447(5)
C28 C 0.1351(6) 0.1125(2) 0.6396(5)
C29 C 0.0617(6) 0.0634(2) 0.6481(5)
C30 C -0.0546(6) 0.0397(2) 0.5289(5)
C31 C -0.2470(6) -0.0196(2) 0.4190(6)
C32 C -0.3591(6) -0.0640(2) 0.3987(6)
H23 H -0.3737 -0.0848 0.4720
C33 C -0.4453(7) -0.0762(3) 0.2726(6)
H24 H -0.5222 -0.1045 0.2601
C34 C -0.4213(7) -0.0462(3) 0.1560(6)
H25 H -0.4802 -0.0557 0.0692
C35 C -0.3071(6) -0.0024(3) 0.1768(6)
H26 H -0.2893 0.0180 0.1042
C36 C -0.2227(6) 0.0094(2) 0.3070(5)
C37 C 0.0689(6) -0.0636(3) 0.9145(6)
C38 C 0.1436(7) -0.0248(3) 1.0378(6)
H27 H 0.0812 0.0096 1.0387
H28 H 0.2418 -0.0120 1.0331
H29 H 0.1547 -0.0476 1.1188
C39 C 0.1268(7) -0.1282(2) 0.9395(6)
H30 H 0.0908 -0.1457 1.0096
H31 H 0.2358 -0.1283 0.9666
H32 H 0.0899 -0.1510 0.8578
C40 C -0.0978(6) -0.0613(3) 0.8764(7)
H33 H -0.1384 -0.0991 0.8388
H34 H -0.1334 -0.0303 0.8105
H35 H -0.1306 -0.0530 0.9551
F2 F 0.1100(3) 0.14429(13) 0.5232(3)
N4 N 0.3015(5) 0.12072(19) 0.8704(4)
N5 N -0.1486(5) -0.0021(2) 0.5412(4)
N6 N 0.0799(5) 0.03282(17) 0.7679(4)
H36 H 0.1514 0.0520 0.8324
O2 O 0.2984(4) -0.04676(18) 0.8147(4)
S4 S 0.35876(16) 0.20208(6) 0.71133(14)
S5 S -0.07730(16) 0.06184(6) 0.36220(14)
S6 S 0.13021(15) -0.04167(6) 0.77039(13)
loop_
_geom_bond_atom_site_label_1
_geom_bond_atom_site_label_2
_geom_bond_site_symmetry_1
_geom_bond_site_symmetry_2
C1 C2 1_555 1_555
C2 H1 1_555 1_555
C3 C2 1_555 1_555
H2 C3 1_555 1_555
C4 C3 1_555 1_555
H3 C4 1_555 1_555
C5 C4 1_555 1_555
H4 C5 1_555 1_555
C6 C1 1_555 1_555
C7 C8 1_555 1_555
C8 C9 1_555 1_555
C9 C10 1_555 1_555
C10 N2 1_555 1_555
C11 C12 1_555 1_555
C12 H5 1_555 1_555
C13 C12 1_555 1_555
H6 C13 1_555 1_555
C14 C13 1_555 1_555
H7 C14 1_555 1_555
C15 C14 1_555 1_555
H8 C15 1_555 1_555
C16 C11 1_555 1_555
C17 C18 1_555 1_555
C18 H9 1_555 1_555
H10 C18 1_555 1_555
H11 C18 1_555 1_555
C19 C17 1_555 1_555
H12 C19 1_555 1_555
H13 C19 1_555 1_555
H14 C19 1_555 1_555
C20 C17 1_555 1_555
H15 C20 1_555 1_555
H16 C20 1_555 1_555
H17 C20 1_555 1_555
F1 C8 1_555 1_555
N1 C6 1_555 1_555
N2 C11 1_555 1_555
N3 C9 1_555 1_555
H18 N3 1_555 1_555
O1 S3 1_555 1_555
S1 C1 1_555 1_555
S2 C10 1_555 1_555
S3 C17 1_555 1_555
C21 C22 1_555 1_555
C22 H19 1_555 1_555
C23 C22 1_555 1_555
H20 C23 1_555 1_555
C24 C23 1_555 1_555
H21 C24 1_555 1_555
C25 C24 1_555 1_555
H22 C25 1_555 1_555
C26 C21 1_555 1_555
C27 C28 1_555 1_555
C28 C29 1_555 1_555
C29 C30 1_555 1_555
C30 N5 1_555 1_555
C31 C32 1_555 1_555
C32 H23 1_555 1_555
C33 C32 1_555 1_555
H24 C33 1_555 1_555
C34 C33 1_555 1_555
H25 C34 1_555 1_555
C35 C34 1_555 1_555
H26 C35 1_555 1_555
C36 C31 1_555 1_555
C37 C38 1_555 1_555
C38 H27 1_555 1_555
H28 C38 1_555 1_555
H29 C38 1_555 1_555
C39 C37 1_555 1_555
H30 C39 1_555 1_555
H31 C39 1_555 1_555
H32 C39 1_555 1_555
C40 C37 1_555 1_555
H33 C40 1_555 1_555
H34 C40 1_555 1_555
H35 C40 1_555 1_555
F2 C28 1_555 1_555
N4 C21 1_555 1_555
N5 C31 1_555 1_555
N6 C29 1_555 1_555
H36 N6 1_555 1_555
O2 S6 1_555 1_555
S4 C26 1_555 1_555
S5 C30 1_555 1_555
S6 C37 1_555 1_555
C5 C6 1_555 1_555
C7 N1 1_555 1_555
C7 S1 1_555 1_555
C15 C16 1_555 1_555
C16 S2 1_555 1_555
N3 S3 1_555 1_555
C25 C26 1_555 1_555
C27 N4 1_555 1_555
C27 S4 1_555 1_555
C35 C36 1_555 1_555
C36 S5 1_555 1_555
N6 S6 1_555 1_555

#END
