
#######################################################################
#
#                 Cambridge Crystallographic Data Centre
#                                CCDC 
#
#######################################################################
#
# If this CIF has been generated from an entry in the Cambridge 
# Structural Database, then it will include bibliographic, chemical, 
# crystal, experimental, refinement or atomic coordinate data resulting 
# from the CCDC's data processing and validation procedures.
#
#######################################################################

data_COFFAG
_chemical_formula_moiety         
'C48 H48 N32 O16,2(C13 H14 N1 O1 1+),3(H2 O1),2(I1 1-)'
_chemical_name_systematic        
'Cucurbit(8)uril bis(4-(4-methoxyphenyl)-1-methylpyridinium iodide) trihydrate'
_symmetry_cell_setting           orthorhombic
_symmetry_space_group_name_H-M   'P c c n'
_symmetry_Int_Tables_number      56
_space_group_name_Hall           '-P 2ab 2ac'
loop_
_symmetry_equiv_pos_site_id
_symmetry_equiv_pos_as_xyz
1 x,y,z
2 1/2-x,1/2-y,z
3 -x,1/2+y,1/2-z
4 1/2+x,-y,1/2-z
5 -x,-y,-z
6 1/2+x,1/2+y,-z
7 x,1/2-y,1/2+z
8 1/2-x,y,1/2+z
_cell_length_a                   26.1015(12)
_cell_length_b                   26.7905(12)
_cell_length_c                   13.1299(6)
_cell_angle_alpha                90
_cell_angle_beta                 90
_cell_angle_gamma                90
_cell_volume                     9181.37
_exptl_crystal_colour            colorless
_exptl_crystal_description       block
_cell_formula_units_Z            4
loop_
_atom_site_label
_atom_site_type_symbol
_atom_site_fract_x
_atom_site_fract_y
_atom_site_fract_z
C1 C 0.5856(3) 0.7383(3) 0.5709(5)
H1 H 0.6003 0.7703 0.5520
H2 H 0.5751 0.7406 0.6416
C2 C 0.5368(2) 0.7442(2) 0.4015(4)
H3 H 0.5485 0.7784 0.3897
C3 C 0.4948(3) 0.7204(2) 0.5519(5)
C4 C 0.5255(3) 0.6873(2) 0.2679(4)
C5 C 0.4787(3) 0.7379(3) 0.3818(5)
H4 H 0.4633 0.7696 0.3602
C6 C 0.4028(3) 0.7215(3) 0.4988(6)
H5 H 0.3981 0.7218 0.5721
H6 H 0.3872 0.7515 0.4715
C7 C 0.4328(3) 0.6949(3) 0.2363(5)
H7 H 0.4435 0.6813 0.1711
H8 H 0.4173 0.7272 0.2238
C8 C 0.3585(3) 0.6785(3) 0.3542(5)
H9 H 0.3437 0.7108 0.3349
C9 C 0.3503(2) 0.6465(3) 0.5189(5)
C10 C 0.3793(3) 0.6187(3) 0.2321(4)
C11 C 0.3178(3) 0.6370(3) 0.3536(5)
H10 H 0.2840 0.6496 0.3334
C12 C 0.2758(3) 0.5915(3) 0.5002(5)
H11 H 0.2757 0.5956 0.5736
H12 H 0.2441 0.6054 0.4743
C13 C 0.3056(3) 0.5640(3) 0.2394(5)
H13 H 0.3199 0.5537 0.1745
H14 H 0.2722 0.5784 0.2264
C14 C 0.2612(2) 0.5181(2) 0.3835(5)
H15 H 0.2286 0.5325 0.3609
C15 C 0.2803(2) 0.5021(3) 0.5530(5)
C16 C 0.3140(3) 0.4726(3) 0.2714(4)
C17 C 0.2558(2) 0.4611(3) 0.4043(5)
H16 H 0.2206 0.4494 0.3935
C18 C 0.2612(3) 0.4145(3) 0.5722(5)
H17 H 0.2591 0.4248 0.6429
H18 H 0.2281 0.4008 0.5534
C19 C 0.2934(3) 0.3862(3) 0.3140(5)
H19 H 0.2587 0.3731 0.3120
H20 H 0.3086 0.3808 0.2475
C20 C 0.2995(2) 0.3396(3) 0.4821(4)
H21 H 0.2657 0.3247 0.4704
C21 C 0.3304(3) 0.3636(2) 0.6421(5)
C22 C 0.3637(2) 0.3304(2) 0.3595(4)
C23 C 0.3382(2) 0.3014(2) 0.5201(4)
H22 H 0.3221 0.2689 0.5313
C24 C 0.3856(2) 0.2920(2) 0.6877(4)
H23 H 0.3797 0.3057 0.7551
H24 H 0.3724 0.2581 0.6871
N1 N 0.5408(2) 0.7296(2) 0.5087(3)
N2 N 0.55974(19) 0.70929(19) 0.3321(4)
N3 N 0.4578(2) 0.7217(2) 0.4756(4)
N4 N 0.4769(2) 0.7013(2) 0.2999(4)
N5 N 0.3778(2) 0.6793(2) 0.4576(4)
N6 N 0.3949(2) 0.6619(2) 0.2814(4)
N7 N 0.3181(2) 0.6195(2) 0.4585(4)
N8 N 0.3375(2) 0.6010(2) 0.2818(4)
N9 N 0.2771(2) 0.5391(2) 0.4771(4)
N10 N 0.2993(2) 0.5201(2) 0.3030(4)
N11 N 0.2709(3) 0.4581(2) 0.5105(4)
N12 N 0.2910(2) 0.43916(19) 0.3332(4)
N13 N 0.2987(2) 0.3759(2) 0.5641(4)
N14 N 0.3222(2) 0.3587(2) 0.3884(3)
N15 N 0.3574(2) 0.32179(19) 0.6130(3)
N16 N 0.3757(2) 0.29922(19) 0.4378(4)
O1 O 0.48719(19) 0.71113(18) 0.6415(3)
O2 O 0.5351(2) 0.6619(2) 0.1965(3)
O3 O 0.3552(2) 0.6424(2) 0.6088(4)
O4 O 0.4022(2) 0.5987(2) 0.1627(4)
O5 O 0.2894(2) 0.5109(2) 0.6432(3)
O6 O 0.3417(2) 0.4633(2) 0.2008(4)
O7 O 0.3338(2) 0.38551(19) 0.7234(3)
O8 O 0.3864(2) 0.33350(19) 0.2802(3)
C1D C 0.4144(3) 0.2617(3) 0.4291(5)
H1D H 0.3997 0.2297 0.4480
H2D H 0.4249 0.2594 0.3584
C2D C 0.4632(2) 0.2558(2) 0.5985(4)
H3D H 0.4515 0.2216 0.6103
C3D C 0.5052(3) 0.2796(2) 0.4481(5)
C4D C 0.4745(3) 0.3127(2) 0.7321(4)
C5D C 0.5213(3) 0.2621(3) 0.6182(5)
H4D H 0.5367 0.2304 0.6398
C6D C 0.5972(3) 0.2785(3) 0.5012(6)
H5D H 0.6019 0.2782 0.4279
H6D H 0.6128 0.2485 0.5285
C7D C 0.5672(3) 0.3051(3) 0.7637(5)
H7D H 0.5565 0.3187 0.8289
H8D H 0.5827 0.2728 0.7762
C8D C 0.6415(3) 0.3215(3) 0.6458(5)
H9D H 0.6563 0.2892 0.6651
C9D C 0.6497(2) 0.3535(3) 0.4811(5)
C10D C 0.6207(3) 0.3813(3) 0.7679(4)
C11D C 0.6822(3) 0.3630(3) 0.6464(5)
H10D H 0.7160 0.3504 0.6666
C12D C 0.7242(3) 0.4085(3) 0.4998(5)
H11D H 0.7243 0.4044 0.4264
H12D H 0.7559 0.3946 0.5257
C13D C 0.6944(3) 0.4360(3) 0.7606(5)
H13D H 0.6801 0.4463 0.8255
H14D H 0.7278 0.4216 0.7736
C14D C 0.7388(2) 0.4819(2) 0.6165(5)
H15D H 0.7714 0.4675 0.6391
C15D C 0.7197(2) 0.4979(3) 0.4470(5)
C16D C 0.6860(3) 0.5274(3) 0.7286(4)
C17D C 0.7442(2) 0.5389(3) 0.5957(5)
H16D H 0.7794 0.5506 0.6065
C18D C 0.7388(3) 0.5855(3) 0.4278(5)
H17D H 0.7409 0.5752 0.3571
H18D H 0.7719 0.5992 0.4466
C19D C 0.7066(3) 0.6138(3) 0.6860(5)
H19D H 0.7413 0.6269 0.6880
H20D H 0.6914 0.6192 0.7525
C20D C 0.7005(2) 0.6604(3) 0.5179(4)
H21D H 0.7343 0.6753 0.5296
C21D C 0.6696(3) 0.6364(2) 0.3579(5)
C22D C 0.6363(2) 0.6696(2) 0.6405(4)
C23D C 0.6618(2) 0.6986(2) 0.4799(4)
H22D H 0.6779 0.7311 0.4687
C24D C 0.6144(2) 0.7080(2) 0.3123(4)
H23D H 0.6203 0.6943 0.2449
H24D H 0.6276 0.7419 0.3129
N1D N 0.4592(2) 0.2704(2) 0.4913(3)
N2D N 0.44026(19) 0.29071(19) 0.6679(4)
N3D N 0.5422(2) 0.2783(2) 0.5244(4)
N4D N 0.5231(2) 0.2987(2) 0.7001(4)
N5D N 0.6222(2) 0.3207(2) 0.5424(4)
N6D N 0.6051(2) 0.3381(2) 0.7186(4)
N7D N 0.6819(2) 0.3805(2) 0.5415(4)
N8D N 0.6625(2) 0.3990(2) 0.7182(4)
N9D N 0.7229(2) 0.4609(2) 0.5229(4)
N10D N 0.7007(2) 0.4799(2) 0.6970(4)
N11D N 0.7291(3) 0.5419(2) 0.4895(4)
N12D N 0.7090(2) 0.56084(19) 0.6668(4)
N13D N 0.7013(2) 0.6241(2) 0.4359(4)
N14D N 0.6778(2) 0.6413(2) 0.6116(3)
N15D N 0.6426(2) 0.67821(19) 0.3870(3)
N16D N 0.6243(2) 0.70078(19) 0.5622(4)
O1D O 0.51281(19) 0.28887(18) 0.3585(3)
O2D O 0.4649(2) 0.3381(2) 0.8035(3)
O3D O 0.6448(2) 0.3576(2) 0.3912(4)
O4D O 0.5978(2) 0.4013(2) 0.8373(4)
O5D O 0.7106(2) 0.4891(2) 0.3568(3)
O6D O 0.6583(2) 0.5367(2) 0.7992(4)
O7D O 0.6662(2) 0.61449(19) 0.2766(3)
O8D O 0.6136(2) 0.66650(19) 0.7198(3)
C25 C 0.6180(9) 0.4840(9) 0.0222(16)
H25 H 0.6426 0.5103 0.0318
H26 H 0.6114 0.4799 -0.0492
H27 H 0.6315 0.4535 0.0497
C26 C 0.5588(4) 0.5135(3) 0.1707(10)
C27 C 0.5951(5) 0.5083(4) 0.2430(8)
H28 H 0.6265 0.4938 0.2272
C28 C 0.5855(4) 0.5245(4) 0.3387(8)
H29 H 0.6105 0.5211 0.3887
C29 C 0.5399(4) 0.5455(4) 0.3626(8)
C30 C 0.5038(5) 0.5507(5) 0.2898(9)
H30 H 0.4724 0.5652 0.3056
C31 C 0.5132(5) 0.5345(4) 0.1934(9)
H31 H 0.4883 0.5379 0.1432
C32 C 0.5310(4) 0.5630(4) 0.4720(11)
C33 C 0.5665(5) 0.5518(5) 0.5417(10)
H32 H 0.5969 0.5359 0.5242
C34 C 0.5562(5) 0.5647(5) 0.6382(12)
H33 H 0.5802 0.5575 0.6882
C35 C 0.4761(5) 0.5989(4) 0.5865(10)
H34 H 0.4455 0.6152 0.6008
C36 C 0.4861(5) 0.5857(4) 0.4900(8)
H35 H 0.4629 0.5920 0.4378
C37 C 0.4976(6) 0.6033(7) 0.7703(12)
H36 H 0.5218 0.5887 0.8167
H37 H 0.4638 0.5917 0.7865
H38 H 0.4988 0.6390 0.7761
N17 N 0.5104(4) 0.5888(4) 0.6673(9)
O9 O 0.5692(5) 0.4972(5) 0.0759(10)
I1 I 0.2500 0.2500 0.25893(10)
O10 O 0.21566(13) 0.71010(13) 0.6019(3)
O11 O 0.2500 0.7500 0.4635(7)
loop_
_geom_bond_atom_site_label_1
_geom_bond_atom_site_label_2
_geom_bond_site_symmetry_1
_geom_bond_site_symmetry_2
C1 H1 1_555 1_555
H2 C1 1_555 1_555
C2 H3 1_555 1_555
C3 N1 1_555 1_555
C4 N2 1_555 1_555
C5 C2 1_555 1_555
H4 C5 1_555 1_555
C6 H5 1_555 1_555
H6 C6 1_555 1_555
C7 H7 1_555 1_555
H8 C7 1_555 1_555
C8 H9 1_555 1_555
C9 N5 1_555 1_555
C10 N6 1_555 1_555
C11 C8 1_555 1_555
H10 C11 1_555 1_555
C12 H11 1_555 1_555
H12 C12 1_555 1_555
C13 H13 1_555 1_555
H14 C13 1_555 1_555
C14 H15 1_555 1_555
C15 N9 1_555 1_555
C16 N10 1_555 1_555
C17 C14 1_555 1_555
H16 C17 1_555 1_555
C18 H17 1_555 1_555
H18 C18 1_555 1_555
C19 H19 1_555 1_555
H20 C19 1_555 1_555
C20 H21 1_555 1_555
C21 N13 1_555 1_555
C22 N14 1_555 1_555
C23 C20 1_555 1_555
H22 C23 1_555 1_555
C24 H23 1_555 1_555
H24 C24 1_555 1_555
N1 C1 1_555 1_555
N2 C2 1_555 1_555
N3 C3 1_555 1_555
N4 C4 1_555 1_555
N5 C6 1_555 1_555
N6 C7 1_555 1_555
N7 C9 1_555 1_555
N8 C10 1_555 1_555
N9 C12 1_555 1_555
N10 C13 1_555 1_555
N11 C15 1_555 1_555
N12 C16 1_555 1_555
N13 C18 1_555 1_555
N14 C19 1_555 1_555
N15 C21 1_555 1_555
N16 C22 1_555 1_555
O1 C3 1_555 1_555
O2 C4 1_555 1_555
O3 C9 1_555 1_555
O4 C10 1_555 1_555
O5 C15 1_555 1_555
O6 C16 1_555 1_555
O7 C21 1_555 1_555
O8 C22 1_555 1_555
C25 H25 1_555 1_555
H26 C25 1_555 1_555
H27 C25 1_555 1_555
C26 C27 1_555 1_555
C27 H28 1_555 1_555
C28 C27 1_555 1_555
H29 C28 1_555 1_555
C29 C28 1_555 1_555
C30 C29 1_555 1_555
H30 C30 1_555 1_555
C31 C26 1_555 1_555
H31 C31 1_555 1_555
C32 C29 1_555 1_555
C33 C32 1_555 1_555
H32 C33 1_555 1_555
C34 C33 1_555 1_555
H33 C34 1_555 1_555
C35 H34 1_555 1_555
C36 C32 1_555 1_555
H35 C36 1_555 1_555
C37 H36 1_555 1_555
H37 C37 1_555 1_555
H38 C37 1_555 1_555
N17 C34 1_555 1_555
O9 C25 1_555 1_555
C1D N16 1_555 1_555
H1D C1D 1_555 1_555
H2D C1D 1_555 1_555
C2D H3D 1_555 1_555
C3D N1D 1_555 1_555
C4D N2D 1_555 1_555
C5D C2D 1_555 1_555
H4D C5D 1_555 1_555
C6D H5D 1_555 1_555
H6D C6D 1_555 1_555
C7D H7D 1_555 1_555
H8D C7D 1_555 1_555
C8D H9D 1_555 1_555
C9D N5D 1_555 1_555
C10D N6D 1_555 1_555
C11D C8D 1_555 1_555
H10D C11D 1_555 1_555
C12D H11D 1_555 1_555
H12D C12D 1_555 1_555
C13D H13D 1_555 1_555
H14D C13D 1_555 1_555
C14D H15D 1_555 1_555
C15D N9D 1_555 1_555
C16D N10D 1_555 1_555
C17D C14D 1_555 1_555
H16D C17D 1_555 1_555
C18D H17D 1_555 1_555
H18D C18D 1_555 1_555
C19D H19D 1_555 1_555
H20D C19D 1_555 1_555
C20D H21D 1_555 1_555
C21D N13D 1_555 1_555
C22D N14D 1_555 1_555
C23D C20D 1_555 1_555
H22D C23D 1_555 1_555
C24D N2 1_555 1_555
H23D C24D 1_555 1_555
H24D C24D 1_555 1_555
N1D C1D 1_555 1_555
N2D C24 1_555 1_555
N3D C3D 1_555 1_555
N4D C4D 1_555 1_555
N5D C6D 1_555 1_555
N6D C7D 1_555 1_555
N7D C9D 1_555 1_555
N8D C10D 1_555 1_555
N9D C12D 1_555 1_555
N10D C13D 1_555 1_555
N11D C15D 1_555 1_555
N12D C16D 1_555 1_555
N13D C18D 1_555 1_555
N14D C19D 1_555 1_555
N15D C21D 1_555 1_555
N16D C1 1_555 1_555
O1D C3D 1_555 1_555
O2D C4D 1_555 1_555
O3D C9D 1_555 1_555
O4D C10D 1_555 1_555
O5D C15D 1_555 1_555
O6D C16D 1_555 1_555
O7D C21D 1_555 1_555
O8D C22D 1_555 1_555
C2 N1 1_555 1_555
C5 N3 1_555 1_555
C5 N4 1_555 1_555
C6 N3 1_555 1_555
C7 N4 1_555 1_555
C8 N5 1_555 1_555
C8 N6 1_555 1_555
C11 N7 1_555 1_555
C11 N8 1_555 1_555
C12 N7 1_555 1_555
C13 N8 1_555 1_555
C14 N9 1_555 1_555
C14 N10 1_555 1_555
C17 N11 1_555 1_555
C17 N12 1_555 1_555
C18 N11 1_555 1_555
C19 N12 1_555 1_555
C20 N13 1_555 1_555
C20 N14 1_555 1_555
C23 N15 1_555 1_555
C23 N16 1_555 1_555
C24 N15 1_555 1_555
C26 O9 1_555 1_555
C30 C31 1_555 1_555
C35 C36 1_555 1_555
C35 N17 1_555 1_555
C37 N17 1_555 1_555
C2D N1D 1_555 1_555
C2D N2D 1_555 1_555
C5D N3D 1_555 1_555
C5D N4D 1_555 1_555
C6D N3D 1_555 1_555
C7D N4D 1_555 1_555
C8D N5D 1_555 1_555
C8D N6D 1_555 1_555
C11D N7D 1_555 1_555
C11D N8D 1_555 1_555
C12D N7D 1_555 1_555
C13D N8D 1_555 1_555
C14D N9D 1_555 1_555
C14D N10D 1_555 1_555
C17D N11D 1_555 1_555
C17D N12D 1_555 1_555
C18D N11D 1_555 1_555
C19D N12D 1_555 1_555
C20D N13D 1_555 1_555
C20D N14D 1_555 1_555
C22D N16D 1_555 1_555
C23D N15D 1_555 1_555
C23D N16D 1_555 1_555
C24D N15D 1_555 1_555

#END
