
#######################################################################
#
#                 Cambridge Crystallographic Data Centre
#                                CCDC 
#
#######################################################################
#
# If this CIF has been generated from an entry in the Cambridge 
# Structural Database, then it will include bibliographic, chemical, 
# crystal, experimental, refinement or atomic coordinate data resulting 
# from the CCDC's data processing and validation procedures.
#
#######################################################################

data_COFGAG
_chemical_formula_moiety         'C19 H15 F1 O4 S2'
_chemical_name_systematic        Fluoro(phenyl)bis(phenylsulfonyl)methane
_symmetry_cell_setting           monoclinic
_symmetry_space_group_name_H-M   'P 21/c'
_symmetry_Int_Tables_number      14
_space_group_name_Hall           '-P 2ybc'
loop_
_symmetry_equiv_pos_site_id
_symmetry_equiv_pos_as_xyz
1 x,y,z
2 -x,1/2+y,1/2-z
3 -x,-y,-z
4 x,1/2-y,1/2+z
_cell_length_a                   8.9189(9)
_cell_length_b                   15.2396(15)
_cell_length_c                   13.4112(13)
_cell_angle_alpha                90
_cell_angle_beta                 103.511(2)
_cell_angle_gamma                90
_cell_volume                     1772.41
_exptl_crystal_colour            colorless
_chemical_melting_point          '150-152 deg.C'
_cell_formula_units_Z            4
loop_
_atom_site_label
_atom_site_type_symbol
_atom_site_fract_x
_atom_site_fract_y
_atom_site_fract_z
S1 S 0.33788(5) 0.31565(3) 0.73824(4)
S2 S 0.12063(6) 0.22249(3) 0.55926(4)
F1 F 0.11933(12) 0.20802(7) 0.75136(8)
O1 O 0.32720(16) 0.37372(9) 0.81951(12)
O2 O 0.39170(17) 0.34792(11) 0.65320(13)
O3 O 0.25422(17) 0.16859(10) 0.56723(12)
O4 O 0.0862(2) 0.28975(10) 0.48358(11)
C1 C 0.1377(2) 0.27498(11) 0.68647(14)
C2 C 0.0214(2) 0.34548(12) 0.68507(14)
C3 C 0.0313(3) 0.42478(14) 0.63548(16)
H1 H 0.1115 0.4344 0.6032
C4 C -0.0775(3) 0.48863(17) 0.6343(2)
H2 H -0.0700 0.5419 0.6020
C5 C -0.1967(3) 0.47450(19) 0.6802(2)
H3 H -0.2711 0.5176 0.6779
C6 C -0.2068(3) 0.39740(19) 0.7294(2)
H4 H -0.2880 0.3885 0.7609
C7 C -0.0982(2) 0.33227(15) 0.73295(17)
H5 H -0.1054 0.2800 0.7673
C8 C 0.4453(2) 0.22378(12) 0.79368(16)
C9 C 0.5436(3) 0.18285(17) 0.7428(2)
H6 H 0.5500 0.2012 0.6778
C10 C 0.6320(3) 0.1141(2) 0.7908(2)
H7 H 0.6983 0.0852 0.7577
C11 C 0.6231(3) 0.08812(18) 0.8867(2)
H8 H 0.6833 0.0415 0.9181
C12 C 0.5273(3) 0.12943(16) 0.93672(19)
H9 H 0.5231 0.1114 1.0023
C13 C 0.4368(2) 0.19769(14) 0.89074(17)
H10 H 0.3706 0.2260 0.9245
C14 C -0.0401(2) 0.15465(12) 0.55151(13)
C15 C -0.1861(3) 0.18421(15) 0.50704(18)
H11 H -0.2019 0.2405 0.4798
C16 C -0.3086(3) 0.12795(19) 0.5039(2)
H12 H -0.4084 0.1462 0.4738
C17 C -0.2839(3) 0.04522(16) 0.54489(19)
H13 H -0.3671 0.0078 0.5420
C18 C -0.1401(3) 0.01761(14) 0.58937(17)
H14 H -0.1250 -0.0383 0.6176
C19 C -0.0164(2) 0.07166(12) 0.59305(15)
H15 H 0.0828 0.0526 0.6233
loop_
_geom_bond_atom_site_label_1
_geom_bond_atom_site_label_2
_geom_bond_site_symmetry_1
_geom_bond_site_symmetry_2
S1 O1 1_555 1_555
S2 O3 1_555 1_555
F1 C1 1_555 1_555
O2 S1 1_555 1_555
O4 S2 1_555 1_555
C1 S1 1_555 1_555
C2 C1 1_555 1_555
C3 C2 1_555 1_555
H1 C3 1_555 1_555
C4 C3 1_555 1_555
H2 C4 1_555 1_555
C5 C4 1_555 1_555
H3 C5 1_555 1_555
C6 C5 1_555 1_555
H4 C6 1_555 1_555
C7 C2 1_555 1_555
H5 C7 1_555 1_555
C8 S1 1_555 1_555
C9 C8 1_555 1_555
H6 C9 1_555 1_555
C10 C9 1_555 1_555
H7 C10 1_555 1_555
C11 C10 1_555 1_555
H8 C11 1_555 1_555
C12 C11 1_555 1_555
H9 C12 1_555 1_555
C13 C8 1_555 1_555
H10 C13 1_555 1_555
C14 S2 1_555 1_555
C15 C14 1_555 1_555
H11 C15 1_555 1_555
C16 C15 1_555 1_555
H12 C16 1_555 1_555
C17 C16 1_555 1_555
H13 C17 1_555 1_555
C18 C17 1_555 1_555
H14 C18 1_555 1_555
C19 C14 1_555 1_555
H15 C19 1_555 1_555
S2 C1 1_555 1_555
C6 C7 1_555 1_555
C12 C13 1_555 1_555
C18 C19 1_555 1_555

#END
