
#######################################################################
#
#                 Cambridge Crystallographic Data Centre
#                                CCDC 
#
#######################################################################
#
# If this CIF has been generated from an entry in the Cambridge 
# Structural Database, then it will include bibliographic, chemical, 
# crystal, experimental, refinement or atomic coordinate data resulting 
# from the CCDC's data processing and validation procedures.
#
#######################################################################

data_COFMAL
_chemical_formula_moiety         'C30 H52 O4,C1 H1 Cl3'
_chemical_name_systematic        'Taiwaniasterol A chloroform solvate'
_symmetry_cell_setting           orthorhombic
_symmetry_space_group_name_H-M   'P 21 21 21'
_symmetry_Int_Tables_number      19
_space_group_name_Hall           'P 2ac 2ab'
loop_
_symmetry_equiv_pos_site_id
_symmetry_equiv_pos_as_xyz
1 x,y,z
2 1/2-x,-y,1/2+z
3 1/2+x,1/2-y,-z
4 -x,1/2+y,1/2-z
_cell_length_a                   13.8021(15)
_cell_length_b                   13.9976(24)
_cell_length_c                   17.1180(17)
_cell_angle_alpha                90
_cell_angle_beta                 90
_cell_angle_gamma                90
_cell_volume                     3307.13
_chemical_melting_point          89-91deg.C
_cell_formula_units_Z            4
_exptl_crystal_recrystallization_method chloroform/hexane
loop_
_atom_site_label
_atom_site_type_symbol
_atom_site_fract_x
_atom_site_fract_y
_atom_site_fract_z
C1 C -0.3657(9) -0.0215(8) -0.0425(8)
C2 C -0.2847(10) 0.0112(9) -0.0952(8)
C3 C -0.1951(10) 0.0473(9) -0.0484(8)
C4 C -0.1603(9) -0.0360(9) 0.0036(7)
C5 C -0.2367(8) -0.0756(8) 0.0600(6)
C6 C -0.1990(8) -0.1789(8) 0.0893(7)
C7 C -0.2674(8) -0.2515(8) 0.0477(6)
C8 C -0.3138(9) -0.1953(8) -0.0184(6)
C9 C -0.3377(9) -0.0991(8) 0.0176(6)
C10 C -0.3892(9) -0.2536(8) -0.0590(7)
C11 C -0.3468(9) -0.3459(10) -0.0894(8)
C12 C -0.2922(8) -0.4059(8) -0.0255(6)
C13 C -0.2179(9) -0.3378(8) 0.0162(6)
C14 C -0.1600(8) -0.4071(8) 0.0676(7)
C15 C -0.1573(9) -0.4993(8) 0.0152(7)
C16 C -0.2216(9) -0.4842(8) -0.0583(6)
C17 C -0.3672(10) -0.4489(8) 0.0283(8)
C18 C -0.4181(8) -0.1057(8) 0.0793(7)
C19 C -0.2636(9) -0.5785(8) -0.0912(7)
C20 C -0.3291(11) -0.5617(9) -0.1617(8)
C21 C -0.1836(8) -0.6520(8) -0.1070(6)
C22 C -0.1164(10) -0.6242(9) -0.1722(7)
C23 C -0.0334(9) -0.6959(10) -0.1889(7)
C24 C 0.0084(11) -0.6755(12) -0.2701(8)
C25 C 0.0857(14) -0.7468(14) -0.2947(10)
C26 C 0.0478(11) -0.5736(14) -0.2793(9)
C27 C 0.0434(10) -0.6936(11) -0.1234(9)
C28 C 0.0729(14) -0.7897(13) -0.0930(11)
C29 C -0.1955(9) -0.1828(8) 0.1758(7)
C30 C -0.1089(11) -0.1417(10) 0.2140(8)
O1 O -0.2215(7) 0.1268(6) -0.0013(5)
O2 O -0.2482(6) -0.0117(6) 0.1224(4)
O3 O -0.2257(6) -0.7438(5) -0.1206(5)
O4 O -0.2595(7) -0.2221(6) 0.2152(5)
H1 H -0.164 0.149 0.026
H2 H -0.304 -0.025 0.155
H3 H -0.262 -0.753 -0.167
H4 H -0.416 -0.047 -0.074
H5 H -0.389 0.032 -0.014
H6 H -0.308 0.061 -0.127
H7 H -0.265 -0.041 -0.127
H8 H -0.145 0.064 -0.084
H9 H -0.141 -0.087 -0.030
H10 H -0.107 -0.015 0.034
H11 H -0.135 -0.188 0.069
H12 H -0.317 -0.270 0.084
H13 H -0.264 -0.184 -0.056
H14 H -0.415 -0.218 -0.102
H15 H -0.440 -0.268 -0.024
H16 H -0.303 -0.331 -0.130
H17 H -0.398 -0.384 -0.110
H18 H -0.175 -0.317 -0.023
H19 H -0.192 -0.419 0.116
H20 H -0.097 -0.383 0.077
H21 H -0.092 -0.511 -0.001
H22 H -0.181 -0.552 0.044
H23 H -0.183 -0.455 -0.098
H24 H -0.409 -0.489 -0.001
H25 H -0.403 -0.399 0.052
H26 H -0.335 -0.486 0.067
H27 H -0.401 -0.153 0.116
H28 H -0.477 -0.122 0.055
H29 H -0.425 -0.046 0.105
H30 H -0.303 -0.604 -0.051
H31 H -0.353 -0.622 -0.179
H32 H -0.293 -0.532 -0.202
H33 H -0.382 -0.522 -0.147
H34 H -0.146 -0.656 -0.061
H35 H -0.088 -0.564 -0.159
H36 H -0.154 -0.618 -0.218
H37 H -0.061 -0.758 -0.190
H38 H -0.043 -0.682 -0.306
H39 H 0.108 -0.728 -0.346
H40 H 0.060 -0.807 -0.296
H41 H 0.138 -0.742 -0.259
H42 H 0.073 -0.567 -0.330
H43 H 0.098 -0.565 -0.242
H44 H -0.003 -0.530 -0.270
H45 H 0.099 -0.663 -0.143
H46 H 0.017 -0.658 -0.081
H47 H 0.120 -0.781 -0.053
H48 H 0.099 -0.826 -0.134
H49 H 0.018 -0.821 -0.072
H50 H -0.115 -0.148 0.269
H51 H -0.104 -0.076 0.201
H52 H -0.053 -0.174 0.197
C31 C -0.1091(12) -0.7684(15) -0.8508(8)
Cl1 Cl -0.0973(6) -0.8498(4) -0.7764(4)
Cl2 Cl -0.1554(5) -0.6661(5) -0.8113(3)
Cl3 Cl -0.0095(4) -0.7453(5) -0.9003(3)
H53 H -0.156 -0.793 -0.886
loop_
_geom_bond_atom_site_label_1
_geom_bond_atom_site_label_2
_geom_bond_site_symmetry_1
_geom_bond_site_symmetry_2
C1 C2 1_555 1_555
C2 C3 1_555 1_555
C3 C4 1_555 1_555
C4 C5 1_555 1_555
C5 C6 1_555 1_555
C6 C7 1_555 1_555
C7 C8 1_555 1_555
C8 C9 1_555 1_555
C9 C1 1_555 1_555
C10 C8 1_555 1_555
C11 C10 1_555 1_555
C12 C11 1_555 1_555
C13 C7 1_555 1_555
C14 C13 1_555 1_555
C15 C14 1_555 1_555
C16 C12 1_555 1_555
C17 C12 1_555 1_555
C18 C9 1_555 1_555
C19 C16 1_555 1_555
C20 C19 1_555 1_555
C21 C19 1_555 1_555
C22 C21 1_555 1_555
C23 C22 1_555 1_555
C24 C23 1_555 1_555
C25 C24 1_555 1_555
C26 C24 1_555 1_555
C27 C23 1_555 1_555
C28 C27 1_555 1_555
C29 C6 1_555 1_555
C30 C29 1_555 1_555
O1 C3 1_555 1_555
O2 C5 1_555 1_555
O3 C21 1_555 1_555
O4 C29 1_555 1_555
C31 Cl1 1_555 1_555
Cl2 C31 1_555 1_555
Cl3 C31 1_555 1_555
H1 O1 1_555 1_555
H2 O2 1_555 1_555
H3 O3 1_555 1_555
H4 C1 1_555 1_555
H5 C1 1_555 1_555
H6 C2 1_555 1_555
H7 C2 1_555 1_555
H8 C3 1_555 1_555
H9 C4 1_555 1_555
H10 C4 1_555 1_555
H11 C6 1_555 1_555
H12 C7 1_555 1_555
H13 C8 1_555 1_555
H14 C10 1_555 1_555
H15 C10 1_555 1_555
H16 C11 1_555 1_555
H17 C11 1_555 1_555
H18 C13 1_555 1_555
H19 C14 1_555 1_555
H20 C14 1_555 1_555
H21 C15 1_555 1_555
H22 C15 1_555 1_555
H23 C16 1_555 1_555
H24 C17 1_555 1_555
H25 C17 1_555 1_555
H26 C17 1_555 1_555
H27 C18 1_555 1_555
H28 C18 1_555 1_555
H29 C18 1_555 1_555
H30 C19 1_555 1_555
H31 C20 1_555 1_555
H32 C20 1_555 1_555
H33 C20 1_555 1_555
H34 C21 1_555 1_555
H35 C22 1_555 1_555
H36 C22 1_555 1_555
H37 C23 1_555 1_555
H38 C24 1_555 1_555
H39 C25 1_555 1_555
H40 C25 1_555 1_555
H41 C25 1_555 1_555
H42 C26 1_555 1_555
H43 C26 1_555 1_555
H44 C26 1_555 1_555
H45 C27 1_555 1_555
H46 C27 1_555 1_555
H47 C28 1_555 1_555
H48 C28 1_555 1_555
H49 C28 1_555 1_555
H50 C30 1_555 1_555
H51 C30 1_555 1_555
H52 C30 1_555 1_555
H53 C31 1_555 1_555
C5 C9 1_555 1_555
C12 C13 1_555 1_555
C15 C16 1_555 1_555

#END
