
#######################################################################
#
#                 Cambridge Crystallographic Data Centre
#                                CCDC 
#
#######################################################################
#
# If this CIF has been generated from an entry in the Cambridge 
# Structural Database, then it will include bibliographic, chemical, 
# crystal, experimental, refinement or atomic coordinate data resulting 
# from the CCDC's data processing and validation procedures.
#
#######################################################################

data_COFQEU
_chemical_formula_moiety         'C18 H14 N4 O4'
_chemical_name_systematic        
2,2'-bis(4-methoxyphenyl)-5,5'-bi-1,3,4-oxadiazole
_symmetry_cell_setting           monoclinic
_symmetry_space_group_name_H-M   'P 21/n'
_symmetry_Int_Tables_number      14
_space_group_name_Hall           '-P 2yn'
loop_
_symmetry_equiv_pos_site_id
_symmetry_equiv_pos_as_xyz
1 x,y,z
2 1/2-x,1/2+y,1/2-z
3 -x,-y,-z
4 1/2+x,1/2-y,1/2+z
_cell_length_a                   6.4194(13)
_cell_length_b                   8.2680(17)
_cell_length_c                   15.213(3)
_cell_angle_alpha                90
_cell_angle_beta                 92.69(3)
_cell_angle_gamma                90
_cell_volume                     806.549
_exptl_crystal_colour            colorless
_exptl_crystal_description       block
_cell_formula_units_Z            2
_exptl_crystal_recrystallization_method chloroform
_exptl_crystal_preparation       luminescent
loop_
_atom_site_label
_atom_site_type_symbol
_atom_site_fract_x
_atom_site_fract_y
_atom_site_fract_z
H1 H 1.082(3) 0.816(2) 0.3496(14)
H2 H 1.202(3) 0.923(3) 0.2799(13)
H3 H 1.314(3) 0.767(2) 0.3226(12)
H4 H 0.640(2) 0.5942(19) 0.0268(11)
H5 H 0.956(2) 0.5534(19) 0.1079(10)
H6 H 0.531(3) 0.992(2) 0.1758(11)
H7 H 0.849(2) 0.9480(18) 0.2538(11)
O1 O 0.24157(13) 0.95407(10) 0.06126(6)
O2 O 1.11740(16) 0.71385(11) 0.23066(7)
N1 N 0.28330(19) 0.73996(15) -0.02232(9)
N2 N 0.09735(19) 0.81756(14) -0.05026(9)
C1 C 0.0818(2) 0.93985(15) 0.00028(9)
C2 C 0.3620(2) 0.82347(14) 0.04278(9)
C3 C 0.5554(2) 0.79659(15) 0.09428(9)
C4 C 0.6182(2) 0.89987(17) 0.16194(10)
C5 C 0.8042(2) 0.87537(18) 0.20932(11)
C6 C 0.9306(2) 0.74693(16) 0.18902(9)
C7 C 0.8675(2) 0.64182(16) 0.12174(10)
C8 C 0.6830(2) 0.66681(16) 0.07475(10)
C9 C 1.1842(3) 0.8156(2) 0.30241(14)
H1B H -1.082(3) 1.184(2) -0.3496(14)
H2B H -1.202(3) 1.077(3) -0.2799(13)
H3B H -1.314(3) 1.233(2) -0.3226(12)
H4B H -0.640(2) 1.4058(19) -0.0268(11)
H5B H -0.956(2) 1.4466(19) -0.1079(10)
H6B H -0.531(3) 1.008(2) -0.1758(11)
H7B H -0.849(2) 1.0520(18) -0.2538(11)
O1B O -0.24157(13) 1.04593(10) -0.06126(6)
O2B O -1.11740(16) 1.28615(11) -0.23066(7)
N1B N -0.28330(19) 1.26004(15) 0.02232(9)
N2B N -0.09735(19) 1.18244(14) 0.05026(9)
C1B C -0.0818(2) 1.06015(15) -0.00028(9)
C2B C -0.3620(2) 1.17653(14) -0.04278(9)
C3B C -0.5554(2) 1.20341(15) -0.09428(9)
C4B C -0.6182(2) 1.10013(17) -0.16194(10)
C5B C -0.8042(2) 1.12463(18) -0.20932(11)
C6B C -0.9306(2) 1.25307(16) -0.18902(9)
C7B C -0.8675(2) 1.35818(16) -0.12174(10)
C8B C -0.6830(2) 1.33319(16) -0.07475(10)
C9B C -1.1842(3) 1.1844(2) -0.30241(14)
loop_
_geom_bond_atom_site_label_1
_geom_bond_atom_site_label_2
_geom_bond_site_symmetry_1
_geom_bond_site_symmetry_2
H1 C9 1_555 1_555
H2 C9 1_555 1_555
H3 C9 1_555 1_555
H4 C8 1_555 1_555
H5 C7 1_555 1_555
H6 C4 1_555 1_555
H7 C5 1_555 1_555
O1 C1 1_555 1_555
O2 C6 1_555 1_555
N1 N2 1_555 1_555
N2 C1 1_555 1_555
C1 C1B 1_555 1_555
C2 O1 1_555 1_555
C3 C2 1_555 1_555
C4 C3 1_555 1_555
C5 C4 1_555 1_555
C6 C5 1_555 1_555
C7 C6 1_555 1_555
C8 C3 1_555 1_555
C9 O2 1_555 1_555
H1B C9B 1_555 1_555
H2B C9B 1_555 1_555
H3B C9B 1_555 1_555
H4B C8B 1_555 1_555
H5B C7B 1_555 1_555
H6B C4B 1_555 1_555
H7B C5B 1_555 1_555
O1B C1B 1_555 1_555
O2B C6B 1_555 1_555
N1B N2B 1_555 1_555
N2B C1B 1_555 1_555
C2B O1B 1_555 1_555
C3B C2B 1_555 1_555
C4B C3B 1_555 1_555
C5B C4B 1_555 1_555
C6B C5B 1_555 1_555
C7B C6B 1_555 1_555
C8B C3B 1_555 1_555
C9B O2B 1_555 1_555
N1 C2 1_555 1_555
C7 C8 1_555 1_555
N1B C2B 1_555 1_555
C7B C8B 1_555 1_555

#END
