
#######################################################################
#
#                 Cambridge Crystallographic Data Centre
#                                CCDC 
#
#######################################################################
#
# If this CIF has been generated from an entry in the Cambridge 
# Structural Database, then it will include bibliographic, chemical, 
# crystal, experimental, refinement or atomic coordinate data resulting 
# from the CCDC's data processing and validation procedures.
#
#######################################################################

data_COFYUT
_chemical_formula_moiety         'C32 H28'
_chemical_name_systematic        
1,1',1'',1'''-Butatriene-1,1,4,4-tetrayltetrakis(4-methylbenzene)
_symmetry_cell_setting           monoclinic
_symmetry_space_group_name_H-M   'P 21/c'
_symmetry_Int_Tables_number      14
_space_group_name_Hall           '-P 2ybc'
loop_
_symmetry_equiv_pos_site_id
_symmetry_equiv_pos_as_xyz
1 x,y,z
2 -x,1/2+y,1/2-z
3 -x,-y,-z
4 x,1/2-y,1/2+z
_cell_length_a                   17.5129(15)
_cell_length_b                   7.3711(5)
_cell_length_c                   24.7793(17)
_cell_angle_alpha                90
_cell_angle_beta                 132.271(4)
_cell_angle_gamma                90
_cell_volume                     2366.98
_exptl_crystal_colour            yellow
_exptl_crystal_description       cube
_chemical_melting_point          '527 K'
_cell_formula_units_Z            4
_chemical_properties_physical    Photo-sensitive
_exptl_crystal_recrystallization_method dichloromethane/hexane
loop_
_atom_site_label
_atom_site_type_symbol
_atom_site_fract_x
_atom_site_fract_y
_atom_site_fract_z
C1 C 0.43308(14) 0.6895(3) 0.22883(9)
H1 H 0.4723 0.5830 0.2356
H2 H 0.4605 0.7983 0.2243
H3 H 0.3603 0.6743 0.1845
C2 C 0.44253(12) 0.7091(2) 0.29378(8)
C3 C 0.52692(12) 0.7971(2) 0.35726(8)
H4 H 0.5792 0.8462 0.3596
C4 C 0.53553(11) 0.81376(19) 0.41674(8)
H5 H 0.5938 0.8736 0.4594
C5 C 0.45945(11) 0.74366(17) 0.41492(7)
C6 C 0.47378(10) 0.74895(17) 0.48085(7)
C7 C 0.57058(11) 0.74960(18) 0.54632(8)
C8 C 0.66048(11) 0.74931(18) 0.60676(8)
C9 C 0.75799(10) 0.74712(17) 0.67178(7)
C10 C 0.84325(10) 0.72899(17) 0.67308(7)
C11 C 0.94147(11) 0.80111(18) 0.72904(7)
H6 H 0.9562 0.8574 0.7696
C12 C 1.01775(11) 0.79151(18) 0.72609(8)
H7 H 1.0838 0.8416 0.7648
C13 C 0.99941(11) 0.70987(18) 0.66753(8)
C14 C 1.08195(12) 0.6966(2) 0.66425(9)
H8 H 1.1488 0.7289 0.7118
H9 H 1.0659 0.7800 0.6270
H10 H 1.0849 0.5721 0.6518
C15 C 0.81172(15) 0.8042(3) 0.92941(10)
H11 H 0.7700 0.7118 0.9278
H12 H 0.7897 0.9250 0.9308
H13 H 0.8846 0.7864 0.9732
C16 C 0.79769(12) 0.7877(2) 0.86272(8)
C17 C 0.86802(11) 0.69160(19) 0.86472(8)
H14 H 0.9242 0.6319 0.9085
C18 C 0.85783(11) 0.68109(18) 0.80426(7)
H15 H 0.9078 0.6169 0.8075
C19 C 0.77437(10) 0.76430(18) 0.73836(7)
C20 C 0.70279(11) 0.8587(2) 0.73612(8)
H16 H 0.6452 0.9156 0.6921
C21 C 0.71493(12) 0.8700(2) 0.79719(9)
H17 H 0.6657 0.9355 0.7944
C22 C 0.90152(11) 0.63657(19) 0.61210(8)
H18 H 0.8872 0.5795 0.5717
C23 C 0.82494(11) 0.64495(19) 0.61446(7)
H19 H 0.7592 0.5933 0.5760
C24 C 0.38681(10) 0.75450(18) 0.47805(7)
C25 C 0.29248(11) 0.83637(19) 0.42023(8)
H20 H 0.2808 0.8787 0.3790
C26 C 0.21597(11) 0.85632(19) 0.42255(8)
H21 H 0.1527 0.9130 0.3829
C27 C 0.23020(11) 0.7947(2) 0.48196(8)
C28 C 0.32282(12) 0.7082(2) 0.53832(8)
H22 H 0.3332 0.6616 0.5786
C29 C 0.40002(11) 0.68846(19) 0.53690(8)
H23 H 0.4626 0.6296 0.5762
C30 C 0.14654(13) 0.8192(2) 0.48378(10)
H24 H 0.0957 0.7215 0.4560
H25 H 0.1126 0.9365 0.4621
H26 H 0.1769 0.8154 0.5344
C31 C 0.36676(11) 0.64112(19) 0.29177(8)
H27 H 0.3086 0.5814 0.2490
C32 C 0.37409(11) 0.65836(18) 0.35076(8)
H28 H 0.3207 0.6118 0.3477
loop_
_geom_bond_atom_site_label_1
_geom_bond_atom_site_label_2
_geom_bond_site_symmetry_1
_geom_bond_site_symmetry_2
C1 H1 1_555 1_555
H2 C1 1_555 1_555
H3 C1 1_555 1_555
C2 C1 1_555 1_555
C3 C2 1_555 1_555
H4 C3 1_555 1_555
C4 C3 1_555 1_555
H5 C4 1_555 1_555
C5 C4 1_555 1_555
C6 C5 1_555 1_555
C7 C6 1_555 1_555
C8 C7 1_555 1_555
C9 C8 1_555 1_555
C10 C9 1_555 1_555
C11 C10 1_555 1_555
H6 C11 1_555 1_555
C12 C11 1_555 1_555
H7 C12 1_555 1_555
C13 C12 1_555 1_555
C14 C13 1_555 1_555
H8 C14 1_555 1_555
H9 C14 1_555 1_555
H10 C14 1_555 1_555
C15 H11 1_555 1_555
H12 C15 1_555 1_555
H13 C15 1_555 1_555
C16 C15 1_555 1_555
C17 C16 1_555 1_555
H14 C17 1_555 1_555
C18 C17 1_555 1_555
H15 C18 1_555 1_555
C19 C9 1_555 1_555
C20 C19 1_555 1_555
H16 C20 1_555 1_555
C21 C16 1_555 1_555
H17 C21 1_555 1_555
C22 C13 1_555 1_555
H18 C22 1_555 1_555
C23 C10 1_555 1_555
H19 C23 1_555 1_555
C24 C6 1_555 1_555
C25 C24 1_555 1_555
H20 C25 1_555 1_555
C26 C25 1_555 1_555
H21 C26 1_555 1_555
C27 C26 1_555 1_555
C28 C27 1_555 1_555
H22 C28 1_555 1_555
C29 C24 1_555 1_555
H23 C29 1_555 1_555
C30 C27 1_555 1_555
H24 C30 1_555 1_555
H25 C30 1_555 1_555
H26 C30 1_555 1_555
C31 C2 1_555 1_555
H27 C31 1_555 1_555
C32 C5 1_555 1_555
H28 C32 1_555 1_555
C18 C19 1_555 1_555
C20 C21 1_555 1_555
C22 C23 1_555 1_555
C28 C29 1_555 1_555
C31 C32 1_555 1_555

#END
