
#######################################################################
#
#                 Cambridge Crystallographic Data Centre
#                                CCDC 
#
#######################################################################
#
# If this CIF has been generated from an entry in the Cambridge 
# Structural Database, then it will include bibliographic, chemical, 
# crystal, experimental, refinement or atomic coordinate data resulting 
# from the CCDC's data processing and validation procedures.
#
#######################################################################

data_COFZAA
_chemical_formula_moiety         'C28 H16 Cl4'
_chemical_name_systematic        
1,1',1'',1'''-Butatriene-1,1,4,4-tetrayltetrakis(4-chlorobenzene)
_symmetry_cell_setting           triclinic
_symmetry_space_group_name_H-M   'P -1'
_symmetry_Int_Tables_number      2
_space_group_name_Hall           '-P 1'
loop_
_symmetry_equiv_pos_site_id
_symmetry_equiv_pos_as_xyz
1 x,y,z
2 -x,-y,-z
_cell_length_a                   9.611(2)
_cell_length_b                   10.974(2)
_cell_length_c                   11.638(2)
_cell_angle_alpha                77.750(7)
_cell_angle_beta                 82.926(8)
_cell_angle_gamma                75.137(7)
_cell_volume                     1156.32
_exptl_crystal_colour            yellow
_exptl_crystal_description       irregular
_chemical_melting_point          '570 K'
_cell_formula_units_Z            2
_chemical_properties_physical    'Heat-sensitive, Photo-sensitive'
loop_
_atom_site_label
_atom_site_type_symbol
_atom_site_fract_x
_atom_site_fract_y
_atom_site_fract_z
Cl1 Cl 0.64564(9) 0.66950(8) -0.04107(7)
Cl2 Cl -0.09465(9) 0.29959(8) 1.05777(7)
Cl3 Cl 0.14381(9) 0.00905(7) 0.22497(7)
Cl4 Cl 0.36395(9) 0.96261(7) 0.79637(8)
C1 C 0.5540(3) 0.6674(3) 0.0980(3)
C2 C 0.6065(3) 0.7129(3) 0.1814(3)
H1 H 0.6897 0.7470 0.1625
C3 C 0.5367(3) 0.7083(3) 0.2930(3)
H2 H 0.5717 0.7405 0.3504
C4 C 0.4154(3) 0.6570(2) 0.3222(3)
C5 C 0.3498(3) 0.6376(3) 0.4443(3)
C6 C 0.2789(3) 0.5444(3) 0.4799(3)
C7 C 0.2111(3) 0.4585(3) 0.5149(3)
C8 C 0.1420(3) 0.3637(3) 0.5532(3)
C9 C 0.0750(3) 0.3494(3) 0.6747(3)
C10 C 0.0335(3) 0.4536(3) 0.7334(3)
H3 H 0.0417 0.5361 0.6917
C11 C -0.0190(3) 0.4396(3) 0.8498(3)
H4 H -0.0477 0.5117 0.8876
C12 C -0.0294(3) 0.3185(3) 0.9112(3)
C13 C 0.1406(3) 0.2760(2) 0.4737(3)
C14 C 0.0259(3) 0.2176(3) 0.4777(3)
H5 H -0.0524 0.2322 0.5355
C15 C 0.0240(3) 0.1394(3) 0.3997(3)
H6 H -0.0560 0.1028 0.4019
C16 C 0.1401(3) 0.1151(3) 0.3185(3)
C17 C 0.2547(3) 0.1709(3) 0.3115(3)
H7 H 0.3332 0.1546 0.2542
C18 C 0.2545(3) 0.2507(3) 0.3884(3)
H8 H 0.3334 0.2893 0.3833
C19 C 0.3597(3) 0.7180(3) 0.5286(3)
C20 C 0.3632(3) 0.6655(3) 0.6493(3)
H9 H 0.3642 0.5772 0.6753
C21 C 0.3653(3) 0.7399(3) 0.7313(3)
H10 H 0.3688 0.7028 0.8127
C22 C 0.3623(3) 0.8695(3) 0.6928(3)
C23 C 0.3583(3) 0.9234(3) 0.5748(3)
H11 H 0.3552 1.0122 0.5493
C24 C 0.3587(3) 0.8483(3) 0.4936(3)
H12 H 0.3583 0.8859 0.4122
C25 C 0.4319(3) 0.6192(3) 0.1226(3)
H13 H 0.3955 0.5901 0.0638
C26 C 0.3639(3) 0.6144(3) 0.2342(3)
H14 H 0.2800 0.5814 0.2519
C27 C 0.0613(3) 0.2287(3) 0.7389(3)
H15 H 0.0873 0.1564 0.7012
C28 C 0.0103(3) 0.2137(3) 0.8564(3)
H16 H 0.0028 0.1314 0.8991
loop_
_geom_bond_atom_site_label_1
_geom_bond_atom_site_label_2
_geom_bond_site_symmetry_1
_geom_bond_site_symmetry_2
Cl1 C1 1_555 1_555
Cl2 C12 1_555 1_555
Cl3 C16 1_555 1_555
Cl4 C22 1_555 1_555
C1 C2 1_555 1_555
C2 H1 1_555 1_555
C3 C2 1_555 1_555
H2 C3 1_555 1_555
C4 C3 1_555 1_555
C5 C4 1_555 1_555
C6 C5 1_555 1_555
C7 C6 1_555 1_555
C8 C7 1_555 1_555
C9 C8 1_555 1_555
C10 C9 1_555 1_555
H3 C10 1_555 1_555
C11 C10 1_555 1_555
H4 C11 1_555 1_555
C12 C11 1_555 1_555
C13 C8 1_555 1_555
C14 C13 1_555 1_555
H5 C14 1_555 1_555
C15 C14 1_555 1_555
H6 C15 1_555 1_555
C16 C15 1_555 1_555
C17 C16 1_555 1_555
H7 C17 1_555 1_555
C18 C13 1_555 1_555
H8 C18 1_555 1_555
C19 C5 1_555 1_555
C20 C19 1_555 1_555
H9 C20 1_555 1_555
C21 C20 1_555 1_555
H10 C21 1_555 1_555
C22 C21 1_555 1_555
C23 C22 1_555 1_555
H11 C23 1_555 1_555
C24 C19 1_555 1_555
H12 C24 1_555 1_555
C25 C1 1_555 1_555
H13 C25 1_555 1_555
C26 C4 1_555 1_555
H14 C26 1_555 1_555
C27 C9 1_555 1_555
H15 C27 1_555 1_555
C28 C12 1_555 1_555
H16 C28 1_555 1_555
C17 C18 1_555 1_555
C23 C24 1_555 1_555
C25 C26 1_555 1_555
C27 C28 1_555 1_555

#END
