
#######################################################################
#
#                 Cambridge Crystallographic Data Centre
#                                CCDC 
#
#######################################################################
#
# If this CIF has been generated from an entry in the Cambridge 
# Structural Database, then it will include bibliographic, chemical, 
# crystal, experimental, refinement or atomic coordinate data resulting 
# from the CCDC's data processing and validation procedures.
#
#######################################################################

data_COGBIL
_chemical_formula_moiety         'C32 H14 Cl4 N2'
_chemical_name_systematic        
3,9-dichloro-6,12-bis(4-chlorophenyl)tetracene-5,11-dicarbonitrile
_symmetry_cell_setting           triclinic
_symmetry_space_group_name_H-M   'P -1'
_symmetry_Int_Tables_number      2
_space_group_name_Hall           '-P 1'
loop_
_symmetry_equiv_pos_site_id
_symmetry_equiv_pos_as_xyz
1 x,y,z
2 -x,-y,-z
_cell_length_a                   5.4847(5)
_cell_length_b                   9.7560(11)
_cell_length_c                   12.2857(15)
_cell_angle_alpha                103.706(4)
_cell_angle_beta                 92.184(4)
_cell_angle_gamma                104.332(4)
_cell_volume                     615.517
_exptl_crystal_colour            red
_exptl_crystal_description       rod
_chemical_melting_point          '597 K'
_cell_formula_units_Z            1
_exptl_crystal_recrystallization_method dichloromethane/hexane
_exptl_crystal_preparation       Luminescent
loop_
_atom_site_label
_atom_site_type_symbol
_atom_site_fract_x
_atom_site_fract_y
_atom_site_fract_z
Cl1 Cl 1.28679(8) 1.32291(5) 0.55369(4)
Cl2 Cl -0.29260(8) 0.48103(5) 0.16247(4)
N1 N -0.2258(3) 0.75406(18) -0.16703(13)
C1 C 1.0723(3) 1.2169(2) 0.43877(15)
C2 C 1.0928(3) 1.0793(2) 0.38535(15)
H1 H 1.2184 1.0406 0.4129
C3 C 0.9281(3) 0.9987(2) 0.29133(15)
H2 H 0.9396 0.9036 0.2545
C4 C 0.7448(3) 1.05560(19) 0.24986(14)
C5 C 0.5740(3) 0.97578(19) 0.14496(14)
C6 C 0.5971(3) 1.03039(18) 0.04686(14)
C7 C 0.7214(3) 1.1917(2) 0.30807(15)
H3 H 0.5919 1.2293 0.2826
C8 C 0.8847(3) 1.2732(2) 0.40256(15)
H4 H 0.8684 1.3662 0.4420
C9 C 0.3774(3) 0.85392(19) 0.14653(14)
C10 C 0.3606(3) 0.7874(2) 0.23934(15)
H5 H 0.4903 0.8245 0.3004
C11 C 0.1633(3) 0.6725(2) 0.24198(15)
H6 H 0.1589 0.6273 0.3026
C12 C -0.0350(3) 0.62102(19) 0.15370(15)
C13 C -0.0311(3) 0.67890(19) 0.06379(15)
H7 H -0.1676 0.6418 0.0058
C14 C 0.1787(3) 0.79587(19) 0.05614(14)
C15 C 0.1902(3) 0.85785(19) -0.03621(14)
C16 C -0.0334(3) 0.8043(2) -0.11521(15)
Cl1A Cl -0.28679(8) 0.67709(5) -0.55369(4)
Cl2A Cl 1.29260(8) 1.51897(5) -0.16247(4)
N1A N 1.2258(3) 1.24594(18) 0.16703(13)
C1A C -0.0723(3) 0.7831(2) -0.43877(15)
C2A C -0.0928(3) 0.9207(2) -0.38535(15)
H1A H -0.2184 0.9594 -0.4129
C3A C 0.0719(3) 1.0013(2) -0.29133(15)
H2A H 0.0604 1.0964 -0.2545
C4A C 0.2552(3) 0.94440(19) -0.24986(14)
C5A C 0.4260(3) 1.02422(19) -0.14496(14)
C6A C 0.4029(3) 0.96961(18) -0.04686(14)
C7A C 0.2786(3) 0.8083(2) -0.30807(15)
H3A H 0.4081 0.7707 -0.2826
C8A C 0.1153(3) 0.7268(2) -0.40256(15)
H4A H 0.1316 0.6338 -0.4420
C9A C 0.6226(3) 1.14608(19) -0.14653(14)
C10A C 0.6394(3) 1.2126(2) -0.23934(15)
H5A H 0.5097 1.1755 -0.3004
C11A C 0.8367(3) 1.3275(2) -0.24198(15)
H6A H 0.8411 1.3727 -0.3026
C12A C 1.0350(3) 1.37898(19) -0.15370(15)
C13A C 1.0311(3) 1.32110(19) -0.06379(15)
H7A H 1.1676 1.3582 -0.0058
C14A C 0.8213(3) 1.20413(19) -0.05614(14)
C15A C 0.8098(3) 1.14215(19) 0.03621(14)
C16A C 1.0334(3) 1.1957(2) 0.11521(15)
loop_
_geom_bond_atom_site_label_1
_geom_bond_atom_site_label_2
_geom_bond_site_symmetry_1
_geom_bond_site_symmetry_2
Cl1 C1 1_555 1_555
Cl2 C12 1_555 1_555
N1 C16 1_555 1_555
C1 C2 1_555 1_555
C2 H1 1_555 1_555
C3 C2 1_555 1_555
H2 C3 1_555 1_555
C4 C3 1_555 1_555
C5 C4 1_555 1_555
C6 C5 1_555 1_555
C7 C4 1_555 1_555
H3 C7 1_555 1_555
C8 C1 1_555 1_555
H4 C8 1_555 1_555
C9 C5 1_555 1_555
C10 C9 1_555 1_555
H5 C10 1_555 1_555
C11 C10 1_555 1_555
H6 C11 1_555 1_555
C12 C11 1_555 1_555
C13 C12 1_555 1_555
H7 C13 1_555 1_555
C14 C9 1_555 1_555
C15 C14 1_555 1_555
C16 C15 1_555 1_555
Cl1A C1A 1_555 1_555
Cl2A C12A 1_555 1_555
N1A C16A 1_555 1_555
C1A C2A 1_555 1_555
C2A H1A 1_555 1_555
C3A C2A 1_555 1_555
H2A C3A 1_555 1_555
C4A C3A 1_555 1_555
C5A C4A 1_555 1_555
C6A C6 1_555 1_555
C7A C4A 1_555 1_555
H3A C7A 1_555 1_555
C8A C1A 1_555 1_555
H4A C8A 1_555 1_555
C9A C5A 1_555 1_555
C10A C9A 1_555 1_555
H5A C10A 1_555 1_555
C11A C10A 1_555 1_555
H6A C11A 1_555 1_555
C12A C11A 1_555 1_555
C13A C12A 1_555 1_555
H7A C13A 1_555 1_555
C14A C9A 1_555 1_555
C15A C6 1_555 1_555
C16A C15A 1_555 1_555
C7 C8 1_555 1_555
C13 C14 1_555 1_555
C15 C6A 1_555 1_555
C5A C6A 1_555 1_555
C7A C8A 1_555 1_555
C13A C14A 1_555 1_555
C14A C15A 1_555 1_555

#END
