
#######################################################################
#
#                 Cambridge Crystallographic Data Centre
#                                CCDC 
#
#######################################################################
#
# If this CIF has been generated from an entry in the Cambridge 
# Structural Database, then it will include bibliographic, chemical, 
# crystal, experimental, refinement or atomic coordinate data resulting 
# from the CCDC's data processing and validation procedures.
#
#######################################################################

data_COGBAD
_chemical_formula_moiety         'C36 H26 N2'
_chemical_name_systematic        
3,9-dimethyl-6,12-bis(4-methylphenyl)tetracene-5,11-dicarbonitrile
_symmetry_cell_setting           monoclinic
_symmetry_space_group_name_H-M   'P 21/c'
_symmetry_Int_Tables_number      14
_space_group_name_Hall           '-P 2ybc'
loop_
_symmetry_equiv_pos_site_id
_symmetry_equiv_pos_as_xyz
1 x,y,z
2 -x,1/2+y,1/2-z
3 -x,-y,-z
4 x,1/2-y,1/2+z
_cell_length_a                   12.6608(8)
_cell_length_b                   5.4939(3)
_cell_length_c                   21.2073(10)
_cell_angle_alpha                90
_cell_angle_beta                 119.652(3)
_cell_angle_gamma                90
_cell_volume                     1281.95
_exptl_crystal_colour            orange
_exptl_crystal_description       needle
_cell_formula_units_Z            2
_exptl_crystal_recrystallization_method dichloromethane/hexane
_exptl_crystal_preparation       Luminescent
loop_
_atom_site_label
_atom_site_type_symbol
_atom_site_fract_x
_atom_site_fract_y
_atom_site_fract_z
N1 N 0.06444(11) 1.1157(2) 0.40182(6)
C1 C 0.22015(14) -0.0910(3) 0.85471(8)
H1 H 0.3080 -0.0971 0.8881
H2 H 0.1876 -0.2569 0.8437
H3 H 0.1808 -0.0004 0.8773
C2 C 0.19561(12) 0.0341(2) 0.78567(7)
C3 C 0.24270(12) -0.0592(3) 0.74317(7)
H4 H 0.2887 -0.2055 0.7577
C4 C 0.22357(12) 0.0575(2) 0.68033(7)
H5 H 0.2581 -0.0071 0.6530
C5 C 0.15383(11) 0.2692(2) 0.65708(7)
C6 C 0.13172(12) 0.4012(2) 0.59020(7)
C7 C -0.01292(11) 0.5837(2) 0.47076(6)
C8 C 0.10549(12) 0.3629(2) 0.69854(7)
H6 H 0.0576 0.5068 0.6832
C9 C 0.12688(12) 0.2473(2) 0.76214(7)
H7 H 0.0941 0.3147 0.7901
C10 C 0.22780(12) 0.5296(2) 0.59077(7)
C11 C 0.35043(13) 0.5127(3) 0.65005(7)
H8 H 0.3683 0.4038 0.6889
C12 C 0.44130(13) 0.6490(3) 0.65172(8)
H9 H 0.5216 0.6318 0.6913
C13 C 0.41845(13) 0.8178(3) 0.59507(8)
C14 C 0.52179(14) 0.9710(3) 0.60072(9)
H10 H 0.5859 0.8646 0.6032
H11 H 0.5547 1.0714 0.6446
H12 H 0.4919 1.0766 0.5580
C15 C 0.30344(13) 0.8414(3) 0.53864(7)
H13 H 0.2879 0.9548 0.5012
C16 C 0.20482(12) 0.6994(2) 0.53413(7)
C17 C 0.08474(12) 0.7322(2) 0.47730(7)
C18 C 0.06583(12) 0.9388(2) 0.43138(7)
N1B N -0.06444(11) -0.1157(2) 0.59818(6)
C1B C -0.22015(14) 1.0910(3) 0.14529(8)
H1B H -0.3080 1.0971 0.1119
H2B H -0.1876 1.2569 0.1563
H3B H -0.1808 1.0004 0.1227
C2B C -0.19561(12) 0.9659(2) 0.21433(7)
C3B C -0.24270(12) 1.0592(3) 0.25683(7)
H4B H -0.2887 1.2055 0.2423
C4B C -0.22357(12) 0.9425(2) 0.31967(7)
H5B H -0.2581 1.0071 0.3470
C5B C -0.15383(11) 0.7308(2) 0.34292(7)
C6B C -0.13172(12) 0.5988(2) 0.40980(7)
C7B C 0.01292(11) 0.4163(2) 0.52924(6)
C8B C -0.10549(12) 0.6371(2) 0.30146(7)
H6B H -0.0576 0.4932 0.3168
C9B C -0.12688(12) 0.7527(2) 0.23786(7)
H7B H -0.0941 0.6853 0.2099
C10B C -0.22780(12) 0.4704(2) 0.40923(7)
C11B C -0.35043(13) 0.4873(3) 0.34995(7)
H8B H -0.3683 0.5962 0.3111
C12B C -0.44130(13) 0.3510(3) 0.34828(8)
H9B H -0.5216 0.3682 0.3087
C13B C -0.41845(13) 0.1822(3) 0.40493(8)
C14B C -0.52179(14) 0.0290(3) 0.39928(9)
H10B H -0.5859 0.1354 0.3968
H11B H -0.5547 -0.0714 0.3554
H12B H -0.4919 -0.0766 0.4420
C15B C -0.30344(13) 0.1586(3) 0.46136(7)
H13B H -0.2879 0.0452 0.4988
C16B C -0.20482(12) 0.3006(2) 0.46587(7)
C17B C -0.08474(12) 0.2678(2) 0.52270(7)
C18B C -0.06583(12) 0.0612(2) 0.56862(7)
loop_
_geom_bond_atom_site_label_1
_geom_bond_atom_site_label_2
_geom_bond_site_symmetry_1
_geom_bond_site_symmetry_2
N1 C18 1_555 1_555
C1 H1 1_555 1_555
H2 C1 1_555 1_555
H3 C1 1_555 1_555
C2 C1 1_555 1_555
C3 C2 1_555 1_555
H4 C3 1_555 1_555
C4 C3 1_555 1_555
H5 C4 1_555 1_555
C5 C4 1_555 1_555
C6 C5 1_555 1_555
C7 C17 1_555 1_555
C8 C5 1_555 1_555
H6 C8 1_555 1_555
C9 C2 1_555 1_555
H7 C9 1_555 1_555
C10 C6 1_555 1_555
C11 C10 1_555 1_555
H8 C11 1_555 1_555
C12 C11 1_555 1_555
H9 C12 1_555 1_555
C13 C12 1_555 1_555
C14 C13 1_555 1_555
H10 C14 1_555 1_555
H11 C14 1_555 1_555
H12 C14 1_555 1_555
C15 C13 1_555 1_555
H13 C15 1_555 1_555
C16 C10 1_555 1_555
C17 C16 1_555 1_555
C18 C17 1_555 1_555
N1B C18B 1_555 1_555
C1B H1B 1_555 1_555
H2B C1B 1_555 1_555
H3B C1B 1_555 1_555
C2B C1B 1_555 1_555
C3B C2B 1_555 1_555
H4B C3B 1_555 1_555
C4B C3B 1_555 1_555
H5B C4B 1_555 1_555
C5B C4B 1_555 1_555
C6B C7 1_555 1_555
C7B C6 1_555 1_555
C8B C5B 1_555 1_555
H6B C8B 1_555 1_555
C9B C2B 1_555 1_555
H7B C9B 1_555 1_555
C10B C6B 1_555 1_555
C11B C10B 1_555 1_555
H8B C11B 1_555 1_555
C12B C11B 1_555 1_555
H9B C12B 1_555 1_555
C13B C12B 1_555 1_555
C14B C13B 1_555 1_555
H10B C14B 1_555 1_555
H11B C14B 1_555 1_555
H12B C14B 1_555 1_555
C15B C13B 1_555 1_555
H13B C15B 1_555 1_555
C16B C10B 1_555 1_555
C17B C7B 1_555 1_555
C18B C17B 1_555 1_555
C7 C7B 1_555 1_555
C8 C9 1_555 1_555
C15 C16 1_555 1_555
C5B C6B 1_555 1_555
C8B C9B 1_555 1_555
C15B C16B 1_555 1_555
C16B C17B 1_555 1_555

#END
