
#######################################################################
#
#                 Cambridge Crystallographic Data Centre
#                                CCDC 
#
#######################################################################
#
# If this CIF has been generated from an entry in the Cambridge 
# Structural Database, then it will include bibliographic, chemical, 
# crystal, experimental, refinement or atomic coordinate data resulting 
# from the CCDC's data processing and validation procedures.
#
#######################################################################

data_COGBEH
_chemical_formula_moiety         'C36 H26 N2 O4'
_chemical_name_systematic        
3,9-dimethoxy-6,12-bis(4-methoxyphenyl)tetracene-5,11-dicarbonitrile
_symmetry_cell_setting           triclinic
_symmetry_space_group_name_H-M   'P -1'
_symmetry_Int_Tables_number      2
_space_group_name_Hall           '-P 1'
loop_
_symmetry_equiv_pos_site_id
_symmetry_equiv_pos_as_xyz
1 x,y,z
2 -x,-y,-z
_cell_length_a                   7.909(2)
_cell_length_b                   8.581(4)
_cell_length_c                   10.995(4)
_cell_angle_alpha                77.545(16)
_cell_angle_beta                 71.591(11)
_cell_angle_gamma                79.151(10)
_cell_volume                     685.516
_exptl_crystal_colour            red
_exptl_crystal_description       plate
_chemical_melting_point          '641 K'
_cell_formula_units_Z            1
_exptl_crystal_recrystallization_method dichloromethane/hexane
_exptl_crystal_preparation       Luminescent
loop_
_atom_site_label
_atom_site_type_symbol
_atom_site_fract_x
_atom_site_fract_y
_atom_site_fract_z
O1 O 0.7077(3) 0.4885(3) 0.5158(2)
O2 O 1.2746(2) 1.1915(2) 0.74472(17)
N1 N 0.2957(3) 0.6390(3) 0.8920(2)
C1 C 0.7842(4) 0.3254(4) 0.5333(4)
H1 H 0.9062 0.3195 0.5344
H2 H 0.7821 0.2764 0.4632
H3 H 0.7163 0.2696 0.6143
C2 C 0.6974(3) 0.5791(3) 0.6055(3)
C3 C 0.7562(4) 0.5260(3) 0.7122(3)
H4 H 0.8072 0.4197 0.7289
C4 C 0.7404(4) 0.6303(3) 0.7963(3)
H5 H 0.7815 0.5930 0.8691
C5 C 0.6645(3) 0.7890(3) 0.7742(2)
C6 C 0.6566(3) 0.9037(3) 0.8600(2)
C7 C 0.5001(3) 0.9404(3) 0.9622(2)
C8 C 0.6074(3) 0.8406(3) 0.6644(3)
H6 H 0.5580 0.9473 0.6465
C9 C 0.6220(3) 0.7379(4) 0.5811(3)
H7 H 0.5812 0.7747 0.5080
C10 C 0.3435(3) 0.8640(3) 0.9937(2)
C11 C 0.8121(3) 1.0959(3) 0.9071(2)
C12 C 0.9702(3) 1.1707(3) 0.8778(2)
H8 H 0.9722 1.2475 0.9252
C13 C 1.1177(3) 1.1297(3) 0.7807(3)
C14 C 1.1157(3) 1.0132(3) 0.7082(3)
H9 H 1.2177 0.9858 0.6421
C15 C 0.9686(3) 0.9412(3) 0.7334(3)
H10 H 0.9703 0.8655 0.6838
C16 C 0.8095(3) 0.9785(3) 0.8348(2)
C17 C 1.2795(4) 1.3258(3) 0.8009(3)
H11 H 1.1878 1.4111 0.7841
H12 H 1.3951 1.3628 0.7632
H13 H 1.2588 1.2935 0.8931
C18 C 0.3302(3) 0.7394(3) 0.9299(3)
O1A O 0.2923(3) 1.5115(3) 1.4842(2)
O2A O -0.2746(2) 0.8085(2) 1.25528(17)
N1A N 0.7043(3) 1.3610(3) 1.1080(2)
C1A C 0.2158(4) 1.6746(4) 1.4667(4)
H1A H 0.0938 1.6805 1.4656
H2A H 0.2179 1.7236 1.5368
H3A H 0.2837 1.7304 1.3857
C2A C 0.3026(3) 1.4209(3) 1.3945(3)
C3A C 0.2438(4) 1.4740(3) 1.2878(3)
H4A H 0.1928 1.5803 1.2711
C4A C 0.2596(4) 1.3697(3) 1.2037(3)
H5A H 0.2185 1.4070 1.1309
C5A C 0.3355(3) 1.2110(3) 1.2258(2)
C6A C 0.3434(3) 1.0963(3) 1.1400(2)
C7A C 0.4999(3) 1.0596(3) 1.0378(2)
C8A C 0.3926(3) 1.1594(3) 1.3356(3)
H6A H 0.4420 1.0527 1.3535
C9A C 0.3780(3) 1.2621(4) 1.4189(3)
H7A H 0.4188 1.2253 1.4920
C10A C 0.6565(3) 1.1360(3) 1.0063(2)
C11A C 0.1879(3) 0.9041(3) 1.0929(2)
C12A C 0.0298(3) 0.8293(3) 1.1222(2)
H8A H 0.0278 0.7525 1.0748
C13A C -0.1177(3) 0.8703(3) 1.2193(3)
C14A C -0.1157(3) 0.9868(3) 1.2918(3)
H9A H -0.2177 1.0142 1.3579
C15A C 0.0314(3) 1.0588(3) 1.2666(3)
H10A H 0.0297 1.1345 1.3162
C16A C 0.1905(3) 1.0215(3) 1.1652(2)
C17A C -0.2795(4) 0.6742(3) 1.1991(3)
H11A H -0.1878 0.5889 1.2159
H12A H -0.3951 0.6372 1.2368
H13A H -0.2588 0.7065 1.1069
C18A C 0.6698(3) 1.2606(3) 1.0701(3)
loop_
_geom_bond_atom_site_label_1
_geom_bond_atom_site_label_2
_geom_bond_site_symmetry_1
_geom_bond_site_symmetry_2
O1 C1 1_555 1_555
O2 C13 1_555 1_555
N1 C18 1_555 1_555
C1 H1 1_555 1_555
H2 C1 1_555 1_555
H3 C1 1_555 1_555
C2 O1 1_555 1_555
C3 C2 1_555 1_555
H4 C3 1_555 1_555
C4 C3 1_555 1_555
H5 C4 1_555 1_555
C5 C4 1_555 1_555
C6 C5 1_555 1_555
C7 C6 1_555 1_555
C8 C5 1_555 1_555
H6 C8 1_555 1_555
C9 C2 1_555 1_555
H7 C9 1_555 1_555
C10 C7 1_555 1_555
C11 C12 1_555 1_555
C12 H8 1_555 1_555
C13 C12 1_555 1_555
C14 C13 1_555 1_555
H9 C14 1_555 1_555
C15 C14 1_555 1_555
H10 C15 1_555 1_555
C16 C6 1_555 1_555
C17 O2 1_555 1_555
H11 C17 1_555 1_555
H12 C17 1_555 1_555
H13 C17 1_555 1_555
C18 C10 1_555 1_555
O1A C1A 1_555 1_555
O2A C13A 1_555 1_555
N1A C18A 1_555 1_555
C1A H1A 1_555 1_555
H2A C1A 1_555 1_555
H3A C1A 1_555 1_555
C2A O1A 1_555 1_555
C3A C2A 1_555 1_555
H4A C3A 1_555 1_555
C4A C3A 1_555 1_555
H5A C4A 1_555 1_555
C5A C4A 1_555 1_555
C6A C5A 1_555 1_555
C7A C7 1_555 1_555
C8A C5A 1_555 1_555
H6A C8A 1_555 1_555
C9A C2A 1_555 1_555
H7A C9A 1_555 1_555
C10A C11 1_555 1_555
C11A C10 1_555 1_555
C12A C11A 1_555 1_555
H8A C12A 1_555 1_555
C13A C12A 1_555 1_555
C14A C13A 1_555 1_555
H9A C14A 1_555 1_555
C15A C14A 1_555 1_555
H10A C15A 1_555 1_555
C16A C6A 1_555 1_555
C17A O2A 1_555 1_555
H11A C17A 1_555 1_555
H12A C17A 1_555 1_555
H13A C17A 1_555 1_555
C18A C10A 1_555 1_555
C8 C9 1_555 1_555
C11 C16 1_555 1_555
C15 C16 1_555 1_555
C6A C7A 1_555 1_555
C7A C10A 1_555 1_555
C8A C9A 1_555 1_555
C11A C16A 1_555 1_555
C15A C16A 1_555 1_555

#END
