
#######################################################################
#
#                 Cambridge Crystallographic Data Centre
#                                CCDC 
#
#######################################################################
#
# If this CIF has been generated from an entry in the Cambridge 
# Structural Database, then it will include bibliographic, chemical, 
# crystal, experimental, refinement or atomic coordinate data resulting 
# from the CCDC's data processing and validation procedures.
#
#######################################################################

data_COGDUX
_chemical_compound_source        'Acanthella sp'
_chemical_formula_moiety         'C22 H33 Cl1 N2 O2'
_chemical_name_systematic        Kalihinol-A
_symmetry_cell_setting           orthorhombic
_symmetry_space_group_name_H-M   'P 21 21 21'
_symmetry_Int_Tables_number      19
_space_group_name_Hall           'P 2ac 2ab'
loop_
_symmetry_equiv_pos_site_id
_symmetry_equiv_pos_as_xyz
1 x,y,z
2 1/2+x,1/2-y,-z
3 -x,1/2+y,1/2-z
4 1/2-x,-y,1/2+z
_cell_length_a                   6.899(7)
_cell_length_b                   16.3897(18)
_cell_length_c                   19.3295(15)
_cell_angle_alpha                90
_cell_angle_beta                 90
_cell_angle_gamma                90
_cell_volume                     2185.64
_chemical_melting_point          233deg.C
_cell_formula_units_Z            4
loop_
_atom_site_label
_atom_site_type_symbol
_atom_site_fract_x
_atom_site_fract_y
_atom_site_fract_z
C1 C 0.1148(11) 0.0741(4) 0.4184(3)
C2 C 0.2962(11) 0.1238(4) 0.4265(4)
C3 C 0.2740(11) 0.2133(4) 0.4041(4)
C4 C 0.2063(11) 0.2148(4) 0.3289(4)
C5 C 0.0228(10) 0.1627(4) 0.3170(3)
C6 C 0.0007(11) 0.1427(4) 0.2381(3)
C7 C 0.0370(12) 0.2179(4) 0.1917(3)
C8 C 0.0210(12) 0.1979(4) 0.1158(4)
C9 C -0.1800(11) 0.1680(4) 0.0977(3)
C10 C -0.2249(10) 0.0897(4) 0.1399(3)
C11 C -0.4298(11) 0.0560(4) 0.1250(3)
C12 C -0.4577(11) -0.0270(4) 0.1624(3)
C13 C -0.4261(10) -0.0191(4) 0.2400(3)
C14 C -0.2318(9) 0.0209(4) 0.2574(3)
C15 C -0.1968(10) 0.1031(4) 0.2181(3)
C16 C 0.1539(12) -0.0160(4) 0.4242(4)
C17 C -0.0499(13) 0.0976(5) 0.4696(4)
C18 C -0.1602(12) 0.2057(5) 0.3437(4)
C19 C -0.3339(14) 0.2342(4) 0.1048(5)
C20 C -0.4547(11) -0.0992(4) 0.2768(3)
Cl1 Cl 0.3873(4) 0.1207(1) 0.5151(1)
O1 O 0.0521(6) 0.0838(2) 0.3480(2)
O2 O -0.5626(6) 0.0402(3) 0.2688(2)
N1 N -0.1791(10) 0.1433(4) 0.0242(3)
C21 C -0.1734(17) 0.1228(6) -0.0326(4)
N2 N -0.0760(8) -0.0364(3) 0.2375(3)
C22 C 0.0420(11) -0.0814(5) 0.2216(5)
H1 H 0.424(10) 0.098(4) 0.406(3)
H2 H 0.408(10) 0.246(3) 0.407(3)
H3 H 0.162(11) 0.238(3) 0.437(4)
H4 H 0.166(11) 0.274(4) 0.316(4)
H5 H 0.326(10) 0.195(4) 0.300(3)
H6 H 0.109(9) 0.099(4) 0.228(3)
H7 H 0.175(11) 0.243(3) 0.203(4)
H8 H -0.067(11) 0.264(4) 0.205(3)
H9 H 0.125(11) 0.155(4) 0.103(4)
H10 H 0.051(12) 0.252(4) 0.086(3)
H11 H -0.122(9) 0.046(3) 0.129(3)
H12 H -0.427(10) 0.048(4) 0.073(3)
H13 H -0.539(9) 0.098(4) 0.146(3)
H14 H -0.375(10) -0.067(4) 0.137(3)
H15 H -0.592(10) -0.055(4) 0.154(3)
H16 H -0.295(9) 0.140(4) 0.232(3)
H17 H 0.166(11) -0.024(4) 0.466(4)
H18 H 0.034(10) -0.050(4) 0.415(3)
H19 H 0.252(11) -0.038(4) 0.406(4)
H20 H -0.014(11) 0.074(4) 0.515(3)
H21 H -0.080(11) 0.162(4) 0.470(3)
H22 H -0.201(11) 0.252(3) 0.314(4)
H23 H -0.291(10) 0.180(4) 0.344(4)
H24 H -0.304(12) 0.284(4) 0.072(4)
H25 H -0.474(12) 0.212(4) 0.093(3)
H26 H -0.338(11) 0.257(4) 0.156(4)
H27 H -0.578(9) -0.129(4) 0.264(3)
H28 H -0.426(10) -0.098(4) 0.327(3)
H29 H -0.344(11) -0.138(4) 0.262(3)
loop_
_geom_bond_atom_site_label_1
_geom_bond_atom_site_label_2
_geom_bond_site_symmetry_1
_geom_bond_site_symmetry_2
C1 C2 1_555 1_555
C2 C3 1_555 1_555
C3 C4 1_555 1_555
C4 C5 1_555 1_555
C5 C6 1_555 1_555
C6 C7 1_555 1_555
C7 C8 1_555 1_555
C8 C9 1_555 1_555
C9 C10 1_555 1_555
C10 C11 1_555 1_555
C11 C12 1_555 1_555
C12 C13 1_555 1_555
C13 C14 1_555 1_555
C14 C15 1_555 1_555
C15 C6 1_555 1_555
C16 C1 1_555 1_555
C17 C1 1_555 1_555
C18 C5 1_555 1_555
C19 C9 1_555 1_555
C20 C13 1_555 1_555
Cl1 C2 1_555 1_555
O1 C1 1_555 1_555
O2 C13 1_555 1_555
N1 C9 1_555 1_555
C21 N1 1_555 1_555
N2 C14 1_555 1_555
C22 N2 1_555 1_555
H1 C2 1_555 1_555
H2 C3 1_555 1_555
H3 C3 1_555 1_555
H4 C4 1_555 1_555
H5 C4 1_555 1_555
H6 C6 1_555 1_555
H7 C7 1_555 1_555
H8 C7 1_555 1_555
H9 C8 1_555 1_555
H10 C8 1_555 1_555
H11 C10 1_555 1_555
H12 C11 1_555 1_555
H13 C11 1_555 1_555
H14 C12 1_555 1_555
H15 C12 1_555 1_555
H16 C15 1_555 1_555
H17 C16 1_555 1_555
H18 C16 1_555 1_555
H19 C16 1_555 1_555
H20 C17 1_555 1_555
H21 C17 1_555 1_555
H22 C18 1_555 1_555
H23 C18 1_555 1_555
H24 C19 1_555 1_555
H25 C19 1_555 1_555
H26 C19 1_555 1_555
H27 C20 1_555 1_555
H28 C20 1_555 1_555
H29 C20 1_555 1_555
C5 O1 1_555 1_555
C10 C15 1_555 1_555

#END
