
#######################################################################
#
#                 Cambridge Crystallographic Data Centre
#                                CCDC 
#
#######################################################################
#
# If this CIF has been generated from an entry in the Cambridge 
# Structural Database, then it will include bibliographic, chemical, 
# crystal, experimental, refinement or atomic coordinate data resulting 
# from the CCDC's data processing and validation procedures.
#
#######################################################################

data_COGSAU
_chemical_formula_moiety         'C27 H36 O4'
_chemical_name_systematic        
9-(3-furyl)-8-methoxy-4,4,6a,10,11b-pentamethyl-2,3,4,4a,5,6,6a,11,11a,11b-decahydro-1H-benzo[a]fluorene-3,6-diol
_symmetry_cell_setting           monoclinic
_symmetry_space_group_name_H-M   'P 21'
_symmetry_Int_Tables_number      4
_space_group_name_Hall           'P 2yb'
loop_
_symmetry_equiv_pos_site_id
_symmetry_equiv_pos_as_xyz
1 x,y,z
2 -x,1/2+y,-z
_cell_length_a                   8.2016(5)
_cell_length_b                   10.1084(6)
_cell_length_c                   13.3847(8)
_cell_angle_alpha                90
_cell_angle_beta                 91.338(3)
_cell_angle_gamma                90
_cell_volume                     1109.36
_exptl_crystal_colour            colorless
_exptl_crystal_description       block
_cell_formula_units_Z            2
loop_
_atom_site_label
_atom_site_type_symbol
_atom_site_fract_x
_atom_site_fract_y
_atom_site_fract_z
O1 O 0.0689(5) 0.6604(4) 0.2417(3)
H1 H 0.0343 0.6885 0.1861
O2 O 0.3525(4) 0.7153(3) 0.5628(2)
H2 H 0.3089 0.7391 0.6160
O3 O 0.2272(3) 0.7090(3) 0.9611(2)
O4 O -0.2597(4) 0.6431(4) 1.0994(2)
C1 C -0.0301(5) 0.4555(5) 0.3867(3)
H3 H -0.1129 0.3931 0.4115
H4 H -0.0696 0.5464 0.3993
C2 C -0.0143(6) 0.4361(5) 0.2745(3)
H5 H -0.1199 0.4567 0.2407
H6 H 0.0120 0.3424 0.2608
C3 C 0.1184(6) 0.5244(5) 0.2320(3)
H7 H 0.1296 0.5036 0.1594
C4 C 0.2844(6) 0.5060(5) 0.2848(3)
C5 C 0.2627(5) 0.5248(4) 0.3993(3)
H8 H 0.2170 0.6161 0.4053
C6 C 0.4215(5) 0.5291(4) 0.4625(3)
H9 H 0.4694 0.4392 0.4651
H10 H 0.5003 0.5879 0.4294
C7 C 0.3973(5) 0.5782(4) 0.5698(3)
H11 H 0.5024 0.5699 0.6087
C8 C 0.2651(5) 0.4944(4) 0.6203(3)
C9 C 0.1113(5) 0.4906(4) 0.5517(3)
H12 H 0.0856 0.5861 0.5398
C10 C 0.1302(5) 0.4340(4) 0.4456(3)
C11 C -0.0261(5) 0.4436(5) 0.6193(3)
H13 H -0.1344 0.4740 0.5945
H14 H -0.0269 0.3461 0.6265
C12 C 0.0250(5) 0.5123(4) 0.7171(3)
C13 C -0.0702(5) 0.5395(4) 0.7996(3)
C14 C 0.1885(5) 0.5481(4) 0.7147(3)
C15 C 0.2623(5) 0.6133(4) 0.7961(3)
H15 H 0.3747 0.6360 0.7955
C16 C 0.1683(5) 0.6442(4) 0.8777(3)
C17 C 0.0016(5) 0.6077(4) 0.8808(3)
C18 C -0.2454(5) 0.4963(5) 0.7988(3)
H16 H -0.2873 0.4922 0.7297
H17 H -0.3098 0.5598 0.8366
H18 H -0.2534 0.4086 0.8296
C19 C 0.1737(6) 0.2853(4) 0.4479(3)
H19 H 0.1253 0.2439 0.5064
H20 H 0.2925 0.2750 0.4518
H21 H 0.1309 0.2427 0.3870
C20 C -0.0953(5) 0.6472(4) 0.9688(3)
C21 C -0.1855(5) 0.5707(5) 1.0277(3)
H22 H -0.1963 0.4776 1.0204
C22 C -0.1143(6) 0.7795(5) 1.0075(3)
H23 H -0.0655 0.8579 0.9829
C23 C -0.2134(6) 0.7704(5) 1.0842(3)
H24 H -0.2476 0.8433 1.1233
C24 C 0.3958(6) 0.7353(5) 0.9673(3)
H25 H 0.4565 0.6520 0.9627
H26 H 0.4225 0.7784 1.0311
H27 H 0.4258 0.7936 0.9122
C25 C 0.3556(6) 0.3717(5) 0.2546(3)
H28 H 0.2784 0.3012 0.2705
H29 H 0.4588 0.3567 0.2913
H30 H 0.3752 0.3714 0.1826
C26 C 0.3999(6) 0.6135(6) 0.2460(3)
H31 H 0.3866 0.6208 0.1732
H32 H 0.5130 0.5896 0.2631
H33 H 0.3737 0.6985 0.2769
C27 C 0.3418(5) 0.3598(4) 0.6504(3)
H34 H 0.4186 0.3727 0.7067
H35 H 0.3998 0.3230 0.5935
H36 H 0.2556 0.2986 0.6699
loop_
_geom_bond_atom_site_label_1
_geom_bond_atom_site_label_2
_geom_bond_site_symmetry_1
_geom_bond_site_symmetry_2
O1 H1 1_555 1_555
O2 H2 1_555 1_555
O3 C16 1_555 1_555
O4 C21 1_555 1_555
C1 H3 1_555 1_555
H4 C1 1_555 1_555
C2 C1 1_555 1_555
H5 C2 1_555 1_555
H6 C2 1_555 1_555
C3 O1 1_555 1_555
H7 C3 1_555 1_555
C4 C3 1_555 1_555
C5 C4 1_555 1_555
H8 C5 1_555 1_555
C6 C5 1_555 1_555
H9 C6 1_555 1_555
H10 C6 1_555 1_555
C7 O2 1_555 1_555
H11 C7 1_555 1_555
C8 C7 1_555 1_555
C9 C8 1_555 1_555
H12 C9 1_555 1_555
C10 C1 1_555 1_555
C11 C9 1_555 1_555
H13 C11 1_555 1_555
H14 C11 1_555 1_555
C12 C11 1_555 1_555
C13 C12 1_555 1_555
C14 C8 1_555 1_555
C15 C14 1_555 1_555
H15 C15 1_555 1_555
C16 C15 1_555 1_555
C17 C13 1_555 1_555
C18 C13 1_555 1_555
H16 C18 1_555 1_555
H17 C18 1_555 1_555
H18 C18 1_555 1_555
C19 C10 1_555 1_555
H19 C19 1_555 1_555
H20 C19 1_555 1_555
H21 C19 1_555 1_555
C20 C17 1_555 1_555
C21 C20 1_555 1_555
H22 C21 1_555 1_555
C22 C20 1_555 1_555
H23 C22 1_555 1_555
C23 O4 1_555 1_555
H24 C23 1_555 1_555
C24 O3 1_555 1_555
H25 C24 1_555 1_555
H26 C24 1_555 1_555
H27 C24 1_555 1_555
C25 C4 1_555 1_555
H28 C25 1_555 1_555
H29 C25 1_555 1_555
H30 C25 1_555 1_555
C26 C4 1_555 1_555
H31 C26 1_555 1_555
H32 C26 1_555 1_555
H33 C26 1_555 1_555
C27 C8 1_555 1_555
H34 C27 1_555 1_555
H35 C27 1_555 1_555
H36 C27 1_555 1_555
C2 C3 1_555 1_555
C5 C10 1_555 1_555
C6 C7 1_555 1_555
C9 C10 1_555 1_555
C12 C14 1_555 1_555
C16 C17 1_555 1_555
C22 C23 1_555 1_555

#END
