
#######################################################################
#
#                 Cambridge Crystallographic Data Centre
#                                CCDC 
#
#######################################################################
#
# If this CIF has been generated from an entry in the Cambridge 
# Structural Database, then it will include bibliographic, chemical, 
# crystal, experimental, refinement or atomic coordinate data resulting 
# from the CCDC's data processing and validation procedures.
#
#######################################################################

data_COJTUQ
_chemical_formula_moiety         'C10 H18 N2 O4 S2 2-,2(K1 1+),3(H2 O1)'
_chemical_name_systematic        
"Dipotassium 3,3,3',3'-tetramethylcystinate trihydrate"
_symmetry_cell_setting           monoclinic
_symmetry_space_group_name_H-M   'P 21'
_symmetry_Int_Tables_number      4
_space_group_name_Hall           'P 2yb'
loop_
_symmetry_equiv_pos_site_id
_symmetry_equiv_pos_as_xyz
1 x,y,z
2 -x,1/2+y,-z
_cell_length_a                   6.160(1)
_cell_length_b                   26.473(8)
_cell_length_c                   6.193(1)
_cell_angle_alpha                90
_cell_angle_beta                 113.94(1)
_cell_angle_gamma                90
_cell_volume                     923.033
_exptl_crystal_colour            colorless
_chemical_melting_point          196deg.C
_cell_formula_units_Z            2
loop_
_atom_site_label
_atom_site_type_symbol
_atom_site_fract_x
_atom_site_fract_y
_atom_site_fract_z
C1 C 0.2975(11) 0.4455(2) 0.2896(11)
C2 C 0.2357(10) 0.3973(2) 0.3907(10)
C3 C 0.4010(11) 0.3534(3) 0.4075(11)
C4 C 0.4096(12) 0.3435(3) 0.1693(13)
C5 C 0.6498(13) 0.3568(3) 0.6073(13)
S1 S 0.2856(3) 0.2960(1) 0.5091(3)
N1 N 0.2160(9) 0.4134(2) 0.6099(9)
O1 O 0.5068(7) 0.4623(2) 0.3869(8)
O2 O 0.1366(7) 0.4663(2) 0.1161(8)
C6 C 0.2271(11) 0.1259(3) 0.2517(11)
C7 C 0.1316(10) 0.1738(3) 0.3233(11)
C8 C 0.0484(11) 0.2130(2) 0.1195(11)
C9 C 0.2386(12) 0.2213(3) 0.0280(12)
C10 C -0.1897(13) 0.2011(3) -0.0825(13)
S2 S -0.0209(3) 0.2732(1) 0.2391(3)
N2 N -0.0463(10) 0.1583(2) 0.4099(10)
O3 O 0.0824(8) 0.0961(2) 0.1110(8)
O4 O 0.4499(8) 0.1201(2) 0.3449(10)
H1 H 0.058 0.394 0.307
H2 H 0.333 0.421 0.691
H3 H 0.227 0.394 0.688
H4 H 0.444 0.381 0.114
H5 H 0.521 0.324 0.211
H6 H 0.277 0.339 0.087
H7 H 0.647 0.367 0.742
H8 H 0.752 0.388 0.590
H9 H 0.742 0.340 0.579
H10 H 0.258 0.193 0.471
H11 H -0.077 0.194 0.433
H12 H -0.155 0.135 0.311
H13 H 0.267 0.185 -0.055
H14 H 0.175 0.249 -0.101
H15 H 0.388 0.230 0.154
H16 H -0.335 0.206 -0.053
H17 H -0.171 0.170 -0.175
H18 H -0.235 0.226 -0.224
K1 K 0.0648(2) 0.0000 0.3388(2)
K2 K 0.6637(3) 0.0635(1) 0.7626(3)
O5 O 0.6320(8) 0.0410(2) 0.2100(10)
H19 H 0.547 0.073 0.219
H20 H 0.534 0.007 0.153
O6 O 0.1765(9) 0.0736(2) 0.6985(8)
H21 H 0.107 0.112 0.648
H22 H 0.185 0.066 0.830
O7 O 0.6649(8) 0.4598(2) 1.0121(8)
H23 H 0.666 0.466 1.126
H24 H 0.821 0.466 1.126
loop_
_geom_bond_atom_site_label_1
_geom_bond_atom_site_label_2
_geom_bond_site_symmetry_1
_geom_bond_site_symmetry_2
C1 C2 1_555 1_555
C2 C3 1_555 1_555
C3 C4 1_555 1_555
C4 H4 1_555 1_555
C5 C3 1_555 1_555
S1 C3 1_555 1_555
N1 C2 1_555 1_555
O1 C1 1_555 1_555
O2 C1 1_555 1_555
C6 C7 1_555 1_555
C7 C8 1_555 1_555
C8 C9 1_555 1_555
C9 H13 1_555 1_555
C10 C8 1_555 1_555
S2 S1 1_555 1_555
N2 C7 1_555 1_555
O3 C6 1_555 1_555
O4 C6 1_555 1_555
H1 C2 1_555 1_555
H2 N1 1_555 1_555
H3 N1 1_555 1_555
H5 C4 1_555 1_555
H6 C4 1_555 1_555
H7 C5 1_555 1_555
H8 C5 1_555 1_555
H9 C5 1_555 1_555
H10 C7 1_555 1_555
H11 N2 1_555 1_555
H12 N2 1_555 1_555
H14 C9 1_555 1_555
H15 C9 1_555 1_555
H16 C10 1_555 1_555
H17 C10 1_555 1_555
H18 C10 1_555 1_555
O5 H19 1_555 1_555
H20 O5 1_555 1_555
O6 H21 1_555 1_555
H22 O6 1_555 1_555
O7 H23 1_555 1_555
H24 O7 1_555 1_555
C8 S2 1_555 1_555

#END
