
#######################################################################
#
#                 Cambridge Crystallographic Data Centre
#                                CCDC 
#
#######################################################################
#
# If this CIF has been generated from an entry in the Cambridge 
# Structural Database, then it will include bibliographic, chemical, 
# crystal, experimental, refinement or atomic coordinate data resulting 
# from the CCDC's data processing and validation procedures.
#
#######################################################################

data_COKLIZ
_chemical_formula_moiety         'C22 H24 Br1 N1 O1'
_chemical_name_systematic        
(4-bromophenyl)(4-ethyl-2,3,4,4a,9,9a-hexahydroacridin-10(1H)-yl)methanone
_symmetry_cell_setting           monoclinic
_symmetry_space_group_name_H-M   'P 21'
_symmetry_Int_Tables_number      4
_space_group_name_Hall           'P 2yb'
loop_
_symmetry_equiv_pos_site_id
_symmetry_equiv_pos_as_xyz
1 x,y,z
2 -x,1/2+y,-z
_cell_length_a                   8.705(2)
_cell_length_b                   9.823(3)
_cell_length_c                   11.361(3)
_cell_angle_alpha                90
_cell_angle_beta                 97.490(6)
_cell_angle_gamma                90
_cell_volume                     963.181
_exptl_crystal_colour            colorless
_exptl_crystal_description       prismatic
_cell_formula_units_Z            2
loop_
_atom_site_label
_atom_site_type_symbol
_atom_site_fract_x
_atom_site_fract_y
_atom_site_fract_z
Br1 Br 0.99449(7) 0.45368(13) 1.01296(4)
N1 N 0.6947(3) 0.5836(3) 0.4218(2)
O1 O 0.5093(3) 0.6519(3) 0.5298(2)
C1 C 0.5802(4) 0.5886(4) 0.3119(3)
H1 H 0.4848 0.5465 0.3318
C2 C 0.5375(4) 0.7334(4) 0.2695(4)
H2 H 0.4950 0.7800 0.3343
C3 C 0.4043(5) 0.7181(6) 0.1661(4)
H3 H 0.3126 0.6859 0.1977
H4 H 0.3806 0.8070 0.1312
C4 C 0.4403(5) 0.6212(6) 0.0694(4)
H5 H 0.3475 0.6081 0.0133
H6 H 0.5185 0.6618 0.0270
C5 C 0.4970(5) 0.4853(5) 0.1173(4)
H7 H 0.5274 0.4302 0.0534
H8 H 0.4140 0.4385 0.1499
C6 C 0.6343(4) 0.5024(4) 0.2132(3)
H9 H 0.7106 0.5575 0.1782
C7 C 0.7189(5) 0.3770(4) 0.2638(4)
H10 H 0.6567 0.3268 0.3139
H11 H 0.7439 0.3175 0.2008
C8 C 0.8645(4) 0.4310(4) 0.3354(3)
C9 C 1.0126(5) 0.3880(4) 0.3219(3)
H12 H 1.0260 0.3154 0.2717
C10 C 1.1401(4) 0.4518(6) 0.3821(3)
H13 H 1.2388 0.4189 0.3755
C11 C 1.1231(4) 0.5633(5) 0.4517(4)
H14 H 1.2100 0.6073 0.4903
C12 C 0.9761(4) 0.6104(4) 0.4643(3)
H15 H 0.9637 0.6873 0.5099
C13 C 0.8487(4) 0.5423(4) 0.4089(3)
C14 C 0.6737(5) 0.8167(5) 0.2400(4)
H16 H 0.7626 0.7956 0.2978
H17 H 0.6982 0.7879 0.1629
C15 C 0.6524(5) 0.9668(5) 0.2373(4)
H18 H 0.5670 0.9900 0.1784
H19 H 0.7450 1.0097 0.2179
H20 H 0.6313 0.9977 0.3137
C16 C 0.6400(4) 0.6038(4) 0.5270(3)
C17 C 0.7342(4) 0.5639(4) 0.6417(3)
C18 C 0.7171(4) 0.6418(4) 0.7410(3)
H21 H 0.6514 0.7168 0.7334
C19 C 0.7952(5) 0.6101(6) 0.8504(4)
H22 H 0.7850 0.6640 0.9162
C20 C 0.8890(5) 0.4965(6) 0.8603(3)
C21 C 0.9028(5) 0.4148(6) 0.7663(4)
H23 H 0.9637 0.3368 0.7759
C22 C 0.8258(4) 0.4483(5) 0.6562(3)
H24 H 0.8355 0.3928 0.5912
loop_
_geom_bond_atom_site_label_1
_geom_bond_atom_site_label_2
_geom_bond_site_symmetry_1
_geom_bond_site_symmetry_2
Br1 C20 1_555 1_555
N1 C1 1_555 1_555
O1 C16 1_555 1_555
C1 H1 1_555 1_555
C2 C1 1_555 1_555
H2 C2 1_555 1_555
C3 C2 1_555 1_555
H3 C3 1_555 1_555
H4 C3 1_555 1_555
C4 C3 1_555 1_555
H5 C4 1_555 1_555
H6 C4 1_555 1_555
C5 C4 1_555 1_555
H7 C5 1_555 1_555
H8 C5 1_555 1_555
C6 C1 1_555 1_555
H9 C6 1_555 1_555
C7 C6 1_555 1_555
H10 C7 1_555 1_555
H11 C7 1_555 1_555
C8 C7 1_555 1_555
C9 C8 1_555 1_555
H12 C9 1_555 1_555
C10 C9 1_555 1_555
H13 C10 1_555 1_555
C11 C10 1_555 1_555
H14 C11 1_555 1_555
C12 C11 1_555 1_555
H15 C12 1_555 1_555
C13 N1 1_555 1_555
C14 C2 1_555 1_555
H16 C14 1_555 1_555
H17 C14 1_555 1_555
C15 C14 1_555 1_555
H18 C15 1_555 1_555
H19 C15 1_555 1_555
H20 C15 1_555 1_555
C16 N1 1_555 1_555
C17 C16 1_555 1_555
C18 C17 1_555 1_555
H21 C18 1_555 1_555
C19 C18 1_555 1_555
H22 C19 1_555 1_555
C20 C19 1_555 1_555
C21 C20 1_555 1_555
H23 C21 1_555 1_555
C22 C17 1_555 1_555
H24 C22 1_555 1_555
C5 C6 1_555 1_555
C8 C13 1_555 1_555
C12 C13 1_555 1_555
C21 C22 1_555 1_555

#END
