
#######################################################################
#
#                 Cambridge Crystallographic Data Centre
#                                CCDC 
#
#######################################################################
#
# If this CIF has been generated from an entry in the Cambridge 
# Structural Database, then it will include bibliographic, chemical, 
# crystal, experimental, refinement or atomic coordinate data resulting 
# from the CCDC's data processing and validation procedures.
#
#######################################################################

data_COKQEZ
_chemical_formula_moiety         'C21 H19 N1 O4'
_chemical_name_systematic        
'Methyl 1-((Z)-4-hydroxy-2-oxo-4-phenylbut-3-enyl)-isoquinoline-2(1H)-carboxylate'
_symmetry_cell_setting           triclinic
_symmetry_space_group_name_H-M   'P -1'
_symmetry_Int_Tables_number      2
_space_group_name_Hall           '-P 1'
loop_
_symmetry_equiv_pos_site_id
_symmetry_equiv_pos_as_xyz
1 x,y,z
2 -x,-y,-z
_cell_length_a                   8.6290(2)
_cell_length_b                   9.6963(2)
_cell_length_c                   10.8213(2)
_cell_angle_alpha                87.2360(10)
_cell_angle_beta                 77.5040(10)
_cell_angle_gamma                85.1180(10)
_cell_volume                     880.343
_exptl_crystal_colour            yellow
_exptl_crystal_description       prism
_chemical_melting_point          '360 K'
_cell_formula_units_Z            2
loop_
_atom_site_label
_atom_site_type_symbol
_atom_site_fract_x
_atom_site_fract_y
_atom_site_fract_z
O1 O 0.32732(11) 0.15821(8) 0.10976(7)
O2 O 0.19669(10) 0.19966(9) 0.31087(8)
O3 O 0.66722(10) 0.19190(8) 0.22310(7)
O4 O 0.81844(10) 0.34580(8) 0.05633(7)
H1 H 0.7624 0.3211 0.1261
N1 N 0.37475(9) 0.01666(8) 0.27431(7)
C1 C 0.49020(11) -0.07674(9) 0.19106(8)
H2 H 0.4756 -0.0610 0.1021
C2 C 0.34550(12) -0.01363(10) 0.40553(9)
H3 H 0.3099 0.0587 0.4635
C3 C 0.36757(13) -0.14364(11) 0.44900(9)
H4 H 0.3560 -0.1621 0.5374
C4 C 0.40926(11) -0.25718(10) 0.36148(9)
C5 C 0.39216(13) -0.39578(11) 0.40126(10)
H5 H 0.3583 -0.4186 0.4888
C6 C 0.42431(14) -0.49981(11) 0.31383(11)
H6 H 0.4138 -0.5936 0.3418
C7 C 0.47189(14) -0.46738(11) 0.18553(11)
H7 H 0.4916 -0.5387 0.1256
C8 C 0.49062(12) -0.33014(10) 0.14473(9)
H8 H 0.5239 -0.3080 0.0570
C9 C 0.46068(11) -0.22562(10) 0.23213(9)
C10 C 0.66327(11) -0.05088(10) 0.19557(10)
H9 H 0.6763 -0.0637 0.2842
H10 H 0.7365 -0.1212 0.1446
C11 C 0.71079(11) 0.09079(10) 0.14727(10)
C12 C 0.80198(12) 0.11031(10) 0.02432(9)
H11 H 0.8283 0.0347 -0.0310
C13 C 0.85419(11) 0.24082(10) -0.01686(9)
C14 C 0.95478(11) 0.26621(10) -0.14400(9)
C15 C 1.06059(12) 0.37043(10) -0.16142(10)
H12 H 1.0675 0.4243 -0.0921
C16 C 1.15550(13) 0.39504(11) -0.28017(11)
H13 H 1.2296 0.4640 -0.2914
C17 C 1.14254(13) 0.31929(13) -0.38249(10)
H14 H 1.2062 0.3379 -0.4639
C18 C 1.03691(13) 0.21654(13) -0.36631(10)
H15 H 1.0276 0.1652 -0.4366
C19 C 0.94473(12) 0.18890(11) -0.24692(10)
H16 H 0.8744 0.1169 -0.2354
C20 C 0.30239(12) 0.12881(10) 0.22177(9)
C21 C 0.10301(17) 0.31278(14) 0.26341(14)
H17 H 0.1742 0.3762 0.2107
H18 H 0.0359 0.3626 0.3348
H19 H 0.0355 0.2760 0.2126
loop_
_geom_bond_atom_site_label_1
_geom_bond_atom_site_label_2
_geom_bond_site_symmetry_1
_geom_bond_site_symmetry_2
O1 C20 1_555 1_555
O2 C20 1_555 1_555
O3 C11 1_555 1_555
O4 H1 1_555 1_555
N1 C1 1_555 1_555
C1 H2 1_555 1_555
C2 N1 1_555 1_555
H3 C2 1_555 1_555
C3 C2 1_555 1_555
H4 C3 1_555 1_555
C4 C3 1_555 1_555
C5 C4 1_555 1_555
H5 C5 1_555 1_555
C6 C5 1_555 1_555
H6 C6 1_555 1_555
C7 C6 1_555 1_555
H7 C7 1_555 1_555
C8 C7 1_555 1_555
H8 C8 1_555 1_555
C9 C1 1_555 1_555
C10 C1 1_555 1_555
H9 C10 1_555 1_555
H10 C10 1_555 1_555
C11 C10 1_555 1_555
C12 C11 1_555 1_555
H11 C12 1_555 1_555
C13 O4 1_555 1_555
C14 C13 1_555 1_555
C15 C14 1_555 1_555
H12 C15 1_555 1_555
C16 C15 1_555 1_555
H13 C16 1_555 1_555
C17 C16 1_555 1_555
H14 C17 1_555 1_555
C18 C17 1_555 1_555
H15 C18 1_555 1_555
C19 C14 1_555 1_555
H16 C19 1_555 1_555
C20 N1 1_555 1_555
C21 O2 1_555 1_555
H17 C21 1_555 1_555
H18 C21 1_555 1_555
H19 C21 1_555 1_555
C4 C9 1_555 1_555
C8 C9 1_555 1_555
C12 C13 1_555 1_555
C18 C19 1_555 1_555

#END
