
#######################################################################
#
#                 Cambridge Crystallographic Data Centre
#                                CCDC 
#
#######################################################################
#
# If this CIF has been generated from an entry in the Cambridge 
# Structural Database, then it will include bibliographic, chemical, 
# crystal, experimental, refinement or atomic coordinate data resulting 
# from the CCDC's data processing and validation procedures.
#
#######################################################################

data_COKQUP
_chemical_formula_moiety         'C22 H21 N1 O3'
_chemical_name_systematic        
'10-Acetyl-11-phenyl-13-aza-tricyclo(7.3.1.0^2,7^)trideca-2(7),3,5,10-tetraene-13-carboxylic acid methyl ester'
_symmetry_cell_setting           monoclinic
_symmetry_space_group_name_H-M   'P 21/c'
_symmetry_Int_Tables_number      14
_space_group_name_Hall           '-P 2ybc'
loop_
_symmetry_equiv_pos_site_id
_symmetry_equiv_pos_as_xyz
1 x,y,z
2 -x,1/2+y,1/2-z
3 -x,-y,-z
4 x,1/2-y,1/2+z
_cell_length_a                   9.8406(13)
_cell_length_b                   18.613(2)
_cell_length_c                   10.5968(13)
_cell_angle_alpha                90
_cell_angle_beta                 111.384(3)
_cell_angle_gamma                90
_cell_volume                     1807.32
_exptl_crystal_colour            colorless
_exptl_crystal_description       prism
_chemical_melting_point          '370-371 K'
_cell_formula_units_Z            4
loop_
_atom_site_label
_atom_site_type_symbol
_atom_site_fract_x
_atom_site_fract_y
_atom_site_fract_z
O1 O 0.45325(10) 0.12339(5) 1.13316(8)
O2 O 0.27256(9) 0.04074(5) 1.05764(8)
O3 O -0.09592(10) 0.05488(5) 0.65814(10)
N1 N 0.32933(10) 0.10578(5) 0.90771(10)
C1 C 0.39704(12) 0.16606(6) 0.86442(11)
H1 H 0.4884 0.1804 0.9404
C2 C 0.43414(12) 0.14472(6) 0.74300(11)
C3 C 0.53084(12) 0.18695(6) 0.70632(12)
H2 H 0.5759 0.2273 0.7604
C4 C 0.56219(13) 0.17108(7) 0.59251(13)
H3 H 0.6300 0.1997 0.5700
C5 C 0.49446(13) 0.11325(7) 0.51094(13)
H4 H 0.5143 0.1028 0.4316
C6 C 0.39812(13) 0.07111(6) 0.54587(13)
H5 H 0.3517 0.0317 0.4897
C7 C 0.36774(12) 0.08532(6) 0.66211(12)
C8 C 0.26582(13) 0.03716(6) 0.70122(12)
H6 H 0.3191 -0.0064 0.7467
H7 H 0.1842 0.0219 0.6185
C9 C 0.20506(12) 0.07598(6) 0.79601(11)
H8 H 0.1522 0.0408 0.8329
C10 C 0.10114(12) 0.13553(6) 0.72200(11)
C11 C 0.13737(12) 0.20544(6) 0.73934(11)
C12 C 0.28893(12) 0.22895(6) 0.83000(12)
H9 H 0.2849 0.2493 0.9149
H10 H 0.3236 0.2671 0.7839
C13 C 0.35929(12) 0.09280(6) 1.04075(12)
C14 C 0.29146(16) 0.02456(8) 1.19595(13)
H11 H 0.3924 0.0095 1.2454
H12 H 0.2248 -0.0143 1.1976
H13 H 0.2700 0.0675 1.2390
C15 C 0.03178(12) 0.26435(6) 0.67816(12)
C16 C -0.09616(12) 0.26971(6) 0.70483(12)
H14 H -0.1153 0.2359 0.7634
C17 C -0.19628(13) 0.32411(7) 0.64649(13)
H15 H -0.2828 0.3276 0.6662
C18 C -0.17030(15) 0.37285(7) 0.56032(16)
H16 H -0.2396 0.4095 0.5194
C19 C -0.04300(16) 0.36848(7) 0.53313(17)
H17 H -0.0252 0.4021 0.4735
C20 C 0.05831(14) 0.31505(7) 0.59302(15)
H18 H 0.1465 0.3130 0.5759
C21 C -0.04180(12) 0.10665(6) 0.62563(12)
C22 C -0.10713(15) 0.13643(7) 0.48473(12)
H19 H -0.0483 0.1214 0.4321
H20 H -0.1088 0.1890 0.4888
H21 H -0.2070 0.1184 0.4413
loop_
_geom_bond_atom_site_label_1
_geom_bond_atom_site_label_2
_geom_bond_site_symmetry_1
_geom_bond_site_symmetry_2
O1 C13 1_555 1_555
O2 C13 1_555 1_555
O3 C21 1_555 1_555
N1 C1 1_555 1_555
C1 H1 1_555 1_555
C2 C1 1_555 1_555
C3 C2 1_555 1_555
H2 C3 1_555 1_555
C4 C3 1_555 1_555
H3 C4 1_555 1_555
C5 C4 1_555 1_555
H4 C5 1_555 1_555
C6 C5 1_555 1_555
H5 C6 1_555 1_555
C7 C2 1_555 1_555
C8 C7 1_555 1_555
H6 C8 1_555 1_555
H7 C8 1_555 1_555
C9 N1 1_555 1_555
H8 C9 1_555 1_555
C10 C9 1_555 1_555
C11 C10 1_555 1_555
C12 C1 1_555 1_555
H9 C12 1_555 1_555
H10 C12 1_555 1_555
C13 N1 1_555 1_555
C14 O2 1_555 1_555
H11 C14 1_555 1_555
H12 C14 1_555 1_555
H13 C14 1_555 1_555
C15 C11 1_555 1_555
C16 C15 1_555 1_555
H14 C16 1_555 1_555
C17 C16 1_555 1_555
H15 C17 1_555 1_555
C18 C17 1_555 1_555
H16 C18 1_555 1_555
C19 C18 1_555 1_555
H17 C19 1_555 1_555
C20 C15 1_555 1_555
H18 C20 1_555 1_555
C21 C10 1_555 1_555
C22 C21 1_555 1_555
H19 C22 1_555 1_555
H20 C22 1_555 1_555
H21 C22 1_555 1_555
C6 C7 1_555 1_555
C8 C9 1_555 1_555
C11 C12 1_555 1_555
C19 C20 1_555 1_555

#END
