
#######################################################################
#
#                 Cambridge Crystallographic Data Centre
#                                CCDC 
#
#######################################################################
#
# If this CIF has been generated from an entry in the Cambridge 
# Structural Database, then it will include bibliographic, chemical, 
# crystal, experimental, refinement or atomic coordinate data resulting 
# from the CCDC's data processing and validation procedures.
#
#######################################################################

data_COKZAE
_chemical_formula_moiety         'C23 H11 F16 O1 P1'
_chemical_name_systematic        
'(Z)-4,5,5,6,6,7,7,8,8,9,9,10,10,11,11,11-hexadecafluoroundec-3-en-1-ynyl(diphenyl)phosphine oxide'
_symmetry_cell_setting           triclinic
_symmetry_space_group_name_H-M   'P -1'
_symmetry_Int_Tables_number      2
_space_group_name_Hall           '-P 1'
loop_
_symmetry_equiv_pos_site_id
_symmetry_equiv_pos_as_xyz
1 x,y,z
2 -x,-y,-z
_cell_length_a                   6.1761(13)
_cell_length_b                   12.230(3)
_cell_length_c                   18.335(4)
_cell_angle_alpha                71.427(4)
_cell_angle_beta                 88.283(4)
_cell_angle_gamma                77.365(4)
_cell_volume                     1279.81
_exptl_crystal_colour            colorless
_exptl_crystal_description       prismatic
_chemical_melting_point          '67-68 deg.C'
_cell_formula_units_Z            2
loop_
_atom_site_label
_atom_site_type_symbol
_atom_site_fract_x
_atom_site_fract_y
_atom_site_fract_z
P1 P 0.7006(2) 0.71954(11) 0.61509(7)
O1 O 0.9169(6) 0.7392(3) 0.63326(19)
F1 F 0.3384(5) 0.8511(4) 0.8425(3)
F2 F -0.0157(6) 0.8288(3) 0.93059(18)
F3 F -0.2244(5) 0.8603(3) 0.8313(2)
F14 F -0.9474(13) 1.4059(6) 0.9299(7)
F15 F -0.878(2) 1.5174(10) 0.8241(8)
F16 F -0.8238(15) 1.5481(5) 0.9115(5)
F17 F 0.081(3) 1.050(3) 0.8574(14)
F18 F -0.139(4) 1.061(2) 0.7658(8)
F19 F -0.233(3) 1.0400(14) 0.9524(6)
F20 F -0.458(3) 1.0199(19) 0.8831(17)
F21 F -0.2284(13) 1.1800(7) 0.9411(4)
F22 F -0.256(3) 1.2639(13) 0.8130(7)
F23 F -0.412(4) 1.258(2) 0.9499(11)
F24 F -0.706(2) 1.2048(15) 0.9145(10)
F25 F -0.775(4) 1.391(3) 0.8372(16)
F26 F -0.430(2) 1.4351(16) 0.8774(14)
C1 C 0.4907(9) 0.7478(4) 0.6785(3)
C2 C 0.3387(9) 0.7719(4) 0.7153(3)
C3 C 0.1473(8) 0.8048(4) 0.7554(3)
H1 H 0.0112 0.7985 0.7387
C4 C 0.1502(8) 0.8435(5) 0.8144(3)
C5 C -0.0444(8) 0.8859(5) 0.8546(3)
C6 C -0.0941(9) 1.0181(5) 0.8422(3)
C7 C -0.3082(11) 1.0743(6) 0.8709(4)
C8 C -0.3449(13) 1.2006(6) 0.8701(4)
C9 C -0.5677(14) 1.2670(6) 0.8823(5)
C10 C -0.598(2) 1.3864(8) 0.8940(6)
C11 C -0.810(2) 1.4601(9) 0.8943(9)
C12 C 0.5818(8) 0.8129(4) 0.5221(3)
C13 C 0.7281(10) 0.8321(5) 0.4624(3)
H2 H 0.8779 0.7957 0.4719
C14 C 0.6535(13) 0.9038(5) 0.3898(3)
H3 H 0.7526 0.9158 0.3503
C15 C 0.4342(13) 0.9578(5) 0.3751(3)
H4 H 0.3843 1.0070 0.3257
C16 C 0.2881(10) 0.9398(5) 0.4327(4)
H5 H 0.1387 0.9766 0.4226
C17 C 0.3622(9) 0.8665(4) 0.5064(3)
H6 H 0.2617 0.8537 0.5453
C18 C 0.7109(9) 0.5712(4) 0.6181(3)
C19 C 0.9069(12) 0.4905(6) 0.6359(5)
H7 H 1.0337 0.5125 0.6471
C20 C 0.9184(17) 0.3739(7) 0.6374(6)
H8 H 1.0520 0.3183 0.6512
C21 C 0.7396(18) 0.3423(7) 0.6193(4)
H9 H 0.7498 0.2665 0.6170
C22 C 0.5480(16) 0.4197(7) 0.6047(5)
H10 H 0.4214 0.3967 0.5942
C23 C 0.5317(12) 0.5330(6) 0.6046(4)
H11 H 0.3936 0.5852 0.5949
F4? F 0.055(3) 1.031(2) 0.8899(11)
F5? F -0.057(3) 1.0788(18) 0.7718(9)
F6? F -0.3859(19) 1.0050(8) 0.9243(6)
F7? F -0.4610(12) 1.0904(6) 0.8059(4)
F8? F -0.479(2) 1.2215(12) 0.7954(8)
F9? F -0.193(3) 1.255(2) 0.8370(13)
F10? F -0.656(3) 1.1984(14) 0.9388(11)
F11? F -0.6742(14) 1.3066(7) 0.8054(4)
F12? F -0.551(4) 1.4542(12) 0.8192(9)
F13? F -0.530(3) 1.3440(11) 0.9752(7)
F27? F -0.720(5) 1.412(2) 0.9803(14)
C24? C -0.597(8) 1.497(3) 0.914(2)
loop_
_geom_bond_atom_site_label_1
_geom_bond_atom_site_label_2
_geom_bond_site_symmetry_1
_geom_bond_site_symmetry_2
P1 O1 1_555 1_555
F1 C4 1_555 1_555
F2 C5 1_555 1_555
F3 C5 1_555 1_555
F14 C11 1_555 1_555
F15 C11 1_555 1_555
F16 C11 1_555 1_555
F17 C6 1_555 1_555
F18 C6 1_555 1_555
F19 C7 1_555 1_555
F20 C7 1_555 1_555
F21 C8 1_555 1_555
F22 C8 1_555 1_555
F23 C9 1_555 1_555
F24 C9 1_555 1_555
F25 C10 1_555 1_555
F26 C10 1_555 1_555
C1 P1 1_555 1_555
C2 C1 1_555 1_555
C3 C2 1_555 1_555
H1 C3 1_555 1_555
C4 C3 1_555 1_555
C5 C4 1_555 1_555
C6 C5 1_555 1_555
C7 C6 1_555 1_555
C8 C7 1_555 1_555
C9 C8 1_555 1_555
C10 C9 1_555 1_555
C11 C10 1_555 1_555
C12 P1 1_555 1_555
C13 C12 1_555 1_555
H2 C13 1_555 1_555
C14 C13 1_555 1_555
H3 C14 1_555 1_555
C15 C14 1_555 1_555
H4 C15 1_555 1_555
C16 C15 1_555 1_555
H5 C16 1_555 1_555
C17 C12 1_555 1_555
H6 C17 1_555 1_555
C18 P1 1_555 1_555
C19 C18 1_555 1_555
H7 C19 1_555 1_555
C20 C19 1_555 1_555
H8 C20 1_555 1_555
C21 C20 1_555 1_555
H9 C21 1_555 1_555
C22 C21 1_555 1_555
H10 C22 1_555 1_555
C23 C18 1_555 1_555
H11 C23 1_555 1_555
C16 C17 1_555 1_555
C22 C23 1_555 1_555

#END
