
#######################################################################
#
#                 Cambridge Crystallographic Data Centre
#                                CCDC 
#
#######################################################################
#
# If this CIF has been generated from an entry in the Cambridge 
# Structural Database, then it will include bibliographic, chemical, 
# crystal, experimental, refinement or atomic coordinate data resulting 
# from the CCDC's data processing and validation procedures.
#
#######################################################################

data_COLFEQ
_chemical_formula_moiety         'C55 H34 N6 S6,C2 H3 N1'
_chemical_name_systematic        
"4'''''-methyl-2,2',2'',2''',2'''',2'''''-hexaphenyl-4,5':4',5'':4'',5''':4''',5'''':4'''',5'''''-se\x-1,3-thiazole acetonitrile solvate"
_symmetry_cell_setting           triclinic
_symmetry_space_group_name_H-M   'P -1'
_symmetry_Int_Tables_number      2
_space_group_name_Hall           '-P 1'
loop_
_symmetry_equiv_pos_site_id
_symmetry_equiv_pos_as_xyz
1 x,y,z
2 -x,-y,-z
_cell_length_a                   11.4712(3)
_cell_length_b                   12.8543(4)
_cell_length_c                   19.3669(5)
_cell_angle_alpha                71.5787(7)
_cell_angle_beta                 88.7871(7)
_cell_angle_gamma                63.5724(8)
_cell_volume                     2402.15
_exptl_crystal_colour            yellow
_exptl_crystal_description       platelet
_cell_formula_units_Z            2
_exptl_crystal_recrystallization_method acetonitrile
loop_
_atom_site_label
_atom_site_type_symbol
_atom_site_fract_x
_atom_site_fract_y
_atom_site_fract_z
S1 S 0.22661(8) 0.53426(7) 0.05472(4)
S2 S 0.09191(8) 0.70727(7) 0.27153(4)
S3 S 0.28267(8) 0.22713(7) 0.36978(4)
S4 S 0.56218(8) 0.37915(7) 0.18557(4)
S5 S 0.42245(8) 0.58479(7) 0.38917(4)
S6 S 0.57124(9) 0.11361(8) 0.50140(4)
N1 N 0.1190(3) 0.3903(3) 0.08654(13)
N2 N 0.0889(3) 0.7380(3) 0.13360(13)
N3 N 0.0938(3) 0.4426(3) 0.35303(13)
N4 N 0.4167(3) 0.2697(3) 0.21105(13)
N5 N 0.4229(3) 0.6072(3) 0.25206(13)
N6 N 0.4052(3) 0.3404(3) 0.47930(13)
C1 C -0.0001(4) 0.4275(4) 0.19012(17)
C2 C 0.0875(3) 0.4522(3) 0.13606(16)
C3 C 0.1917(3) 0.4237(3) 0.04038(16)
C4 C 0.2383(3) 0.3743(3) -0.01883(16)
C5 C 0.1882(4) 0.3012(3) -0.03461(18)
C6 C 0.2290(4) 0.2534(3) -0.09098(19)
C7 C 0.3217(4) 0.2771(4) -0.13191(18)
C8 C 0.3723(4) 0.3479(3) -0.11652(18)
C9 C 0.3306(4) 0.3963(3) -0.06036(17)
C10 C 0.1386(3) 0.5340(3) 0.12785(15)
C11 C 0.1229(3) 0.6153(3) 0.17015(16)
C12 C 0.0691(3) 0.7977(3) 0.18001(16)
C13 C 0.0293(3) 0.9312(3) 0.15849(16)
C14 C 0.0407(3) 0.9934(3) 0.08753(17)
C15 C 0.0042(4) 1.1191(3) 0.06560(18)
C16 C -0.0405(4) 1.1818(3) 0.11446(19)
C17 C -0.0532(4) 1.1206(4) 0.1853(2)
C18 C -0.0179(4) 0.9952(3) 0.20715(18)
C19 C 0.1328(3) 0.5805(3) 0.24565(16)
C20 C 0.1731(3) 0.4573(3) 0.30014(15)
C21 C 0.1401(3) 0.3263(3) 0.39395(15)
C22 C 0.0743(4) 0.2818(3) 0.45463(16)
C23 C -0.0198(4) 0.3682(4) 0.48132(17)
C24 C -0.0850(4) 0.3302(4) 0.53672(19)
C25 C -0.0572(4) 0.2075(4) 0.56586(19)
C26 C 0.0352(4) 0.1211(4) 0.53962(19)
C27 C 0.1009(4) 0.1588(4) 0.48367(19)
C28 C 0.2811(3) 0.3520(3) 0.30031(15)
C29 C 0.3875(3) 0.3416(3) 0.25492(15)
C30 C 0.5060(3) 0.2818(3) 0.17077(15)
C31 C 0.5563(3) 0.2204(3) 0.11608(15)
C32 C 0.5239(4) 0.1282(3) 0.11423(17)
C33 C 0.5703(4) 0.0694(4) 0.06321(18)
C34 C 0.6472(4) 0.1007(4) 0.01419(17)
C35 C 0.6794(4) 0.1924(4) 0.01457(17)
C36 C 0.6338(3) 0.2516(3) 0.06560(16)
C37 C 0.4580(3) 0.4052(3) 0.25016(15)
C38 C 0.4485(3) 0.4877(3) 0.29099(16)
C39 C 0.4046(3) 0.6700(3) 0.29651(16)
C40 C 0.3618(3) 0.8038(3) 0.27159(17)
C41 C 0.3551(4) 0.8685(3) 0.19713(17)
C42 C 0.3106(4) 0.9946(4) 0.17340(19)
C43 C 0.2705(4) 1.0588(4) 0.2224(2)
C44 C 0.2749(4) 0.9958(4) 0.2957(2)
C45 C 0.3217(4) 0.8689(3) 0.32032(18)
C46 C 0.4552(3) 0.4563(3) 0.36655(16)
C47 C 0.4831(4) 0.3389(3) 0.42333(16)
C48 C 0.4414(3) 0.2278(3) 0.52428(16)
C49 C 0.3771(4) 0.1976(3) 0.58942(17)
C50 C 0.2847(4) 0.2929(4) 0.6105(2)
C51 C 0.2271(4) 0.2651(4) 0.6726(2)
C52 C 0.2580(4) 0.1448(4) 0.71342(19)
C53 C 0.3469(4) 0.0508(4) 0.6920(2)
C54 C 0.4064(4) 0.0763(4) 0.62958(19)
C55 C 0.5769(4) 0.2253(3) 0.42632(17)
H1 H 0.0511 0.3484 0.2296
H2 H -0.0711 0.4239 0.1652
H3 H -0.0379 0.4939 0.2109
H4 H 0.1258 0.2843 -0.0065
H5 H 0.1940 0.2048 -0.1016
H6 H 0.3500 0.2444 -0.1704
H7 H 0.4356 0.3636 -0.1442
H8 H 0.3658 0.4452 -0.0502
H9 H 0.0734 0.9501 0.0541
H10 H 0.0100 1.1619 0.0168
H11 H -0.0626 1.2669 0.0997
H12 H -0.0858 1.1642 0.2187
H13 H -0.0261 0.9532 0.2556
H14 H -0.0390 0.4527 0.4616
H15 H -0.1494 0.3890 0.5549
H16 H -0.1021 0.1824 0.6043
H17 H 0.0539 0.0368 0.5595
H18 H 0.1644 0.0999 0.4652
H19 H 0.4704 0.1061 0.1478
H20 H 0.5485 0.0067 0.0622
H21 H 0.6787 0.0592 -0.0202
H22 H 0.7320 0.2145 -0.0197
H23 H 0.6559 0.3145 0.0661
H24 H 0.3811 0.8255 0.1631
H25 H 0.3074 1.0380 0.1231
H26 H 0.2402 1.1457 0.2056
H27 H 0.2458 1.0397 0.3291
H28 H 0.3265 0.8258 0.3709
H29 H 0.2613 0.3765 0.5825
H30 H 0.1649 0.3303 0.6873
H31 H 0.2181 0.1272 0.7561
H32 H 0.3683 -0.0323 0.7199
H33 H 0.4668 0.0106 0.6146
H34 H 0.6369 0.2100 0.3918
N7 N 0.8540(5) 0.2146(5) 0.3436(3)
C56 C 0.8209(5) 0.3153(5) 0.3351(3)
C57 C 0.7734(5) 0.4464(5) 0.3229(3)
H35 H 0.8484 0.4621 0.3281
H36 H 0.7154 0.4698 0.3591
H37 H 0.7247 0.4954 0.2732
loop_
_geom_bond_atom_site_label_1
_geom_bond_atom_site_label_2
_geom_bond_site_symmetry_1
_geom_bond_site_symmetry_2
S1 C3 1_555 1_555
S2 C12 1_555 1_555
S3 C21 1_555 1_555
S4 C30 1_555 1_555
S5 C39 1_555 1_555
S6 C48 1_555 1_555
N1 C2 1_555 1_555
N2 C11 1_555 1_555
N3 C20 1_555 1_555
N4 C29 1_555 1_555
N5 C38 1_555 1_555
N6 C47 1_555 1_555
C1 C2 1_555 1_555
C2 C10 1_555 1_555
C3 N1 1_555 1_555
C4 C3 1_555 1_555
C5 C4 1_555 1_555
C6 C5 1_555 1_555
C7 C6 1_555 1_555
C8 C7 1_555 1_555
C9 C4 1_555 1_555
C10 S1 1_555 1_555
C11 C10 1_555 1_555
C12 N2 1_555 1_555
C13 C12 1_555 1_555
C14 C13 1_555 1_555
C15 C14 1_555 1_555
C16 C15 1_555 1_555
C17 C16 1_555 1_555
C18 C13 1_555 1_555
C19 S2 1_555 1_555
C20 C19 1_555 1_555
C21 N3 1_555 1_555
C22 C21 1_555 1_555
C23 C22 1_555 1_555
C24 C23 1_555 1_555
C25 C24 1_555 1_555
C26 C25 1_555 1_555
C27 C22 1_555 1_555
C28 S3 1_555 1_555
C29 C28 1_555 1_555
C30 N4 1_555 1_555
C31 C30 1_555 1_555
C32 C31 1_555 1_555
C33 C32 1_555 1_555
C34 C33 1_555 1_555
C35 C34 1_555 1_555
C36 C31 1_555 1_555
C37 S4 1_555 1_555
C38 C37 1_555 1_555
C39 N5 1_555 1_555
C40 C39 1_555 1_555
C41 C40 1_555 1_555
C42 C41 1_555 1_555
C43 C42 1_555 1_555
C44 C43 1_555 1_555
C45 C40 1_555 1_555
C46 S5 1_555 1_555
C47 C46 1_555 1_555
C48 N6 1_555 1_555
C49 C48 1_555 1_555
C50 C49 1_555 1_555
C51 C50 1_555 1_555
C52 C51 1_555 1_555
C53 C52 1_555 1_555
C54 C49 1_555 1_555
C55 S6 1_555 1_555
H1 C1 1_555 1_555
H2 C1 1_555 1_555
H3 C1 1_555 1_555
H4 C5 1_555 1_555
H5 C6 1_555 1_555
H6 C7 1_555 1_555
H7 C8 1_555 1_555
H8 C9 1_555 1_555
H9 C14 1_555 1_555
H10 C15 1_555 1_555
H11 C16 1_555 1_555
H12 C17 1_555 1_555
H13 C18 1_555 1_555
H14 C23 1_555 1_555
H15 C24 1_555 1_555
H16 C25 1_555 1_555
H17 C26 1_555 1_555
H18 C27 1_555 1_555
H19 C32 1_555 1_555
H20 C33 1_555 1_555
H21 C34 1_555 1_555
H22 C35 1_555 1_555
H23 C36 1_555 1_555
H24 C41 1_555 1_555
H25 C42 1_555 1_555
H26 C43 1_555 1_555
H27 C44 1_555 1_555
H28 C45 1_555 1_555
H29 C50 1_555 1_555
H30 C51 1_555 1_555
H31 C52 1_555 1_555
H32 C53 1_555 1_555
H33 C54 1_555 1_555
H34 C55 1_555 1_555
N7 C56 1_555 1_555
C56 C57 1_555 1_555
C57 H35 1_555 1_555
H36 C57 1_555 1_555
H37 C57 1_555 1_555
C8 C9 1_555 1_555
C11 C19 1_555 1_555
C17 C18 1_555 1_555
C20 C28 1_555 1_555
C26 C27 1_555 1_555
C29 C37 1_555 1_555
C35 C36 1_555 1_555
C38 C46 1_555 1_555
C44 C45 1_555 1_555
C47 C55 1_555 1_555
C53 C54 1_555 1_555

#END
