
#######################################################################
#
#                 Cambridge Crystallographic Data Centre
#                                CCDC 
#
#######################################################################
#
# If this CIF has been generated from an entry in the Cambridge 
# Structural Database, then it will include bibliographic, chemical, 
# crystal, experimental, refinement or atomic coordinate data resulting 
# from the CCDC's data processing and validation procedures.
#
#######################################################################

data_COLGUH
_chemical_formula_moiety         'C39 H43 B1 N4 O4,C4 H8 O2'
_chemical_name_systematic        
'dimethyl 4-(4-(4-(dimesitylboryl)-2,3,5,6-tetramethylphenyl)-1H-1,2,3-triazol-1-yl)pyridine-2,6-dicarboxylate ethyl acetate solvate'
_symmetry_cell_setting           triclinic
_symmetry_space_group_name_H-M   'P -1'
_symmetry_Int_Tables_number      2
_space_group_name_Hall           '-P 1'
loop_
_symmetry_equiv_pos_site_id
_symmetry_equiv_pos_as_xyz
1 x,y,z
2 -x,-y,-z
_cell_length_a                   11.3191(13)
_cell_length_b                   11.8525(14)
_cell_length_c                   17.621(2)
_cell_angle_alpha                105.8960(15)
_cell_angle_beta                 90.3380(16)
_cell_angle_gamma                116.0320(14)
_cell_volume                     2021.1
_exptl_crystal_colour            colorless
_exptl_crystal_description       block
_cell_formula_units_Z            2
loop_
_atom_site_label
_atom_site_type_symbol
_atom_site_fract_x
_atom_site_fract_y
_atom_site_fract_z
B1 B 0.6900(3) 0.4090(3) 0.15441(19)
O1 O -0.1416(2) -0.3597(2) 0.52316(13)
O2 O 0.0503(3) -0.2977(3) 0.47483(18)
O3 O -0.4314(2) -0.1970(2) 0.50367(14)
O4 O -0.4194(2) -0.0828(3) 0.41950(15)
N1 N -0.2073(2) -0.2062(2) 0.46942(13)
N2 N 0.0442(2) 0.0357(2) 0.34341(13)
N3 N 0.0071(2) 0.1145(2) 0.31695(15)
N4 N 0.1058(2) 0.1835(2) 0.28359(15)
C1 C -0.0526(3) -0.2920(3) 0.48424(19)
C2 C -0.1096(4) -0.4422(4) 0.5581(2)
H1 H -0.1723 -0.4719 0.5950
H2 H -0.0190 -0.3914 0.5872
H3 H -0.1159 -0.5190 0.5158
C3 C -0.3730(3) -0.1338(3) 0.45266(19)
C4 C -0.5579(3) -0.1998(4) 0.5212(3)
H4 H -0.5922 -0.2485 0.5595
H5 H -0.6215 -0.2434 0.4719
H6 H -0.5452 -0.1093 0.5439
C5 C -0.2419(3) -0.1320(3) 0.43902(16)
C6 C -0.1641(3) -0.0524(3) 0.39568(16)
H7 H -0.1930 -0.0008 0.3754
C7 C -0.0424(3) -0.0506(2) 0.38296(15)
C8 C -0.0060(3) -0.1304(2) 0.41044(16)
H8 H 0.0750 -0.1337 0.4004
C9 C -0.0915(3) -0.2062(2) 0.45342(16)
C10 C 0.1674(3) 0.0558(3) 0.32673(16)
H9 H 0.2162 0.0136 0.3389
C11 C 0.2061(3) 0.1490(3) 0.28904(16)
C12 C 0.3314(3) 0.2109(3) 0.25638(17)
C13 C 0.3446(3) 0.1466(3) 0.17972(17)
C14 C 0.4635(3) 0.2054(3) 0.14937(16)
C15 C 0.5657(3) 0.3304(3) 0.19305(16)
C16 C 0.5496(3) 0.3915(3) 0.27068(16)
C17 C 0.4342(3) 0.3309(3) 0.30331(16)
C18 C 0.4217(3) 0.3966(3) 0.38728(17)
H10 H 0.3379 0.3391 0.4017
H11 H 0.4230 0.4809 0.3903
H12 H 0.4962 0.4123 0.4243
C19 C 0.6589(3) 0.5236(3) 0.32109(17)
H13 H 0.6829 0.5168 0.3726
H14 H 0.6275 0.5906 0.3298
H15 H 0.7370 0.5489 0.2934
C20 C 0.4768(3) 0.1341(3) 0.06664(18)
H16 H 0.5676 0.1807 0.0559
H17 H 0.4141 0.1318 0.0270
H18 H 0.4572 0.0437 0.0637
C21 C 0.2325(3) 0.0164(3) 0.13018(19)
H19 H 0.1490 0.0054 0.1505
H20 H 0.2507 -0.0559 0.1334
H21 H 0.2252 0.0152 0.0745
C22 C 0.7111(3) 0.5470(3) 0.14876(16)
C23 C 0.6036(3) 0.5658(3) 0.12364(16)
C24 C 0.6240(3) 0.6903(3) 0.12281(18)
H22 H 0.5502 0.7004 0.1062
C25 C 0.7473(3) 0.7994(3) 0.14520(18)
C26 C 0.8527(3) 0.7814(3) 0.16965(17)
H23 H 0.9383 0.8553 0.1859
C27 C 0.8379(3) 0.6587(3) 0.17126(16)
C28 C 0.9614(3) 0.6535(3) 0.20058(19)
H24 H 1.0353 0.7431 0.2195
H25 H 0.9848 0.5992 0.1568
H26 H 0.9439 0.6150 0.2444
C29 C 0.7681(4) 0.9325(3) 0.1423(2)
H27 H 0.6856 0.9245 0.1180
H28 H 0.8388 0.9656 0.1104
H29 H 0.7936 0.9941 0.1966
C30 C 0.4644(3) 0.4531(3) 0.09337(19)
H30 H 0.4092 0.4840 0.0709
H31 H 0.4256 0.4216 0.1377
H32 H 0.4686 0.3808 0.0521
C31 C 0.7897(3) 0.3534(3) 0.12395(17)
C32 C 0.8498(3) 0.3097(3) 0.17272(18)
C33 C 0.9456(3) 0.2708(3) 0.1461(2)
H33 H 0.9867 0.2450 0.1806
C34 C 0.9831(3) 0.2683(3) 0.0718(2)
C35 C 0.9215(3) 0.3054(3) 0.02245(18)
H34 H 0.9437 0.3012 -0.0298
C36 C 0.8276(3) 0.3490(3) 0.04702(17)
C37 C 0.7655(3) 0.3854(3) -0.01192(18)
H35 H 0.7871 0.3549 -0.0650
H36 H 0.8001 0.4815 0.0042
H37 H 0.6688 0.3436 -0.0134
C38 C 1.0863(3) 0.2236(3) 0.0441(2)
H38 H 1.1378 0.2271 0.0904
H39 H 1.1460 0.2818 0.0160
H40 H 1.0419 0.1329 0.0080
C39 C 0.8174(3) 0.3093(4) 0.25614(19)
H41 H 0.8595 0.2651 0.2771
H42 H 0.7209 0.2621 0.2542
H43 H 0.8510 0.4003 0.2910
O5 O 0.2922(3) 0.8640(3) 0.3287(2)
O6 O 0.3603(3) 0.7417(3) 0.2393(2)
C40 C 0.3659(5) 0.8550(5) 0.2810(3)
C41 C 0.4732(4) 0.9659(4) 0.2608(3)
H44 H 0.4601 1.0448 0.2799
H45 H 0.4711 0.9427 0.2028
H46 H 0.5593 0.9836 0.2862
C42 C 0.2539(6) 0.6245(6) 0.2522(6)
H47 H 0.2117 0.6515 0.2980
H48 H 0.1852 0.5751 0.2044
C43 C 0.3044(6) 0.5444(6) 0.2671(4)
H49 H 0.2320 0.4653 0.2744
H50 H 0.3700 0.5925 0.3156
H51 H 0.3470 0.5185 0.2219
loop_
_geom_bond_atom_site_label_1
_geom_bond_atom_site_label_2
_geom_bond_site_symmetry_1
_geom_bond_site_symmetry_2
B1 C15 1_555 1_555
O1 C1 1_555 1_555
O2 C1 1_555 1_555
O3 C3 1_555 1_555
O4 C3 1_555 1_555
N1 C5 1_555 1_555
N2 N3 1_555 1_555
N3 N4 1_555 1_555
N4 C11 1_555 1_555
C1 C9 1_555 1_555
C2 O1 1_555 1_555
H1 C2 1_555 1_555
H2 C2 1_555 1_555
H3 C2 1_555 1_555
C3 C5 1_555 1_555
C4 O3 1_555 1_555
H4 C4 1_555 1_555
H5 C4 1_555 1_555
H6 C4 1_555 1_555
C5 C6 1_555 1_555
C6 H7 1_555 1_555
C7 N2 1_555 1_555
C8 C7 1_555 1_555
H8 C8 1_555 1_555
C9 N1 1_555 1_555
C10 N2 1_555 1_555
H9 C10 1_555 1_555
C11 C10 1_555 1_555
C12 C11 1_555 1_555
C13 C12 1_555 1_555
C14 C13 1_555 1_555
C15 C14 1_555 1_555
C16 C15 1_555 1_555
C17 C12 1_555 1_555
C18 C17 1_555 1_555
H10 C18 1_555 1_555
H11 C18 1_555 1_555
H12 C18 1_555 1_555
C19 C16 1_555 1_555
H13 C19 1_555 1_555
H14 C19 1_555 1_555
H15 C19 1_555 1_555
C20 C14 1_555 1_555
H16 C20 1_555 1_555
H17 C20 1_555 1_555
H18 C20 1_555 1_555
C21 C13 1_555 1_555
H19 C21 1_555 1_555
H20 C21 1_555 1_555
H21 C21 1_555 1_555
C22 B1 1_555 1_555
C23 C22 1_555 1_555
C24 C23 1_555 1_555
H22 C24 1_555 1_555
C25 C24 1_555 1_555
C26 C25 1_555 1_555
H23 C26 1_555 1_555
C27 C22 1_555 1_555
C28 C27 1_555 1_555
H24 C28 1_555 1_555
H25 C28 1_555 1_555
H26 C28 1_555 1_555
C29 C25 1_555 1_555
H27 C29 1_555 1_555
H28 C29 1_555 1_555
H29 C29 1_555 1_555
C30 C23 1_555 1_555
H30 C30 1_555 1_555
H31 C30 1_555 1_555
H32 C30 1_555 1_555
C31 B1 1_555 1_555
C32 C31 1_555 1_555
C33 C32 1_555 1_555
H33 C33 1_555 1_555
C34 C33 1_555 1_555
C35 C34 1_555 1_555
H34 C35 1_555 1_555
C36 C31 1_555 1_555
C37 C36 1_555 1_555
H35 C37 1_555 1_555
H36 C37 1_555 1_555
H37 C37 1_555 1_555
C38 C34 1_555 1_555
H38 C38 1_555 1_555
H39 C38 1_555 1_555
H40 C38 1_555 1_555
C39 C32 1_555 1_555
H41 C39 1_555 1_555
H42 C39 1_555 1_555
H43 C39 1_555 1_555
O5 C40 1_555 1_555
O6 C40 1_555 1_555
C40 C41 1_555 1_555
C41 H44 1_555 1_555
H45 C41 1_555 1_555
H46 C41 1_555 1_555
C42 O6 1_555 1_555
H47 C42 1_555 1_555
H48 C42 1_555 1_555
C43 C42 1_555 1_555
H49 C43 1_555 1_555
H50 C43 1_555 1_555
H51 C43 1_555 1_555
C6 C7 1_555 1_555
C8 C9 1_555 1_555
C16 C17 1_555 1_555
C26 C27 1_555 1_555
C35 C36 1_555 1_555

#END
