
#######################################################################
#
#                 Cambridge Crystallographic Data Centre
#                                CCDC 
#
#######################################################################
#
# If this CIF has been generated from an entry in the Cambridge 
# Structural Database, then it will include bibliographic, chemical, 
# crystal, experimental, refinement or atomic coordinate data resulting 
# from the CCDC's data processing and validation procedures.
#
#######################################################################

data_COLHUG
_chemical_compound_source        'rhizomes of Baesenbergia sp'
_chemical_name_common            Crotepoxide
_chemical_formula_moiety         'C18 H18 O8'
_chemical_name_systematic        
'(1R-(1\a,2\a,4\a,5\b,6\a,7\a))-4-((Benzoyloxy) methyl)-3,8-dioxatricyclo(5.1.0.0^2,4^)octane-5,6-diyl diacetate'
_chemical_properties_biological  'agent used in treatment of colic disorder'
_symmetry_cell_setting           orthorhombic
_symmetry_space_group_name_H-M   'P 21 21 21'
_symmetry_Int_Tables_number      19
_space_group_name_Hall           'P 2ac 2ab'
loop_
_symmetry_equiv_pos_site_id
_symmetry_equiv_pos_as_xyz
1 x,y,z
2 1/2+x,1/2-y,-z
3 -x,1/2+y,1/2-z
4 1/2-x,-y,1/2+z
_cell_length_a                   23.53(2)
_cell_length_b                   10.59(1)
_cell_length_c                   6.99(1)
_cell_angle_alpha                90
_cell_angle_beta                 90
_cell_angle_gamma                90
_cell_volume                     1741.79
_exptl_crystal_colour            colorless
_chemical_melting_point          152-153deg.C
_cell_formula_units_Z            4
loop_
_atom_site_label
_atom_site_type_symbol
_atom_site_fract_x
_atom_site_fract_y
_atom_site_fract_z
C1 C 0.6137(4) 0.4090(9) -0.1796(14)
O1 O 0.5605(3) 0.3678(7) -0.0981(9)
C2 C 0.6335(4) 0.3312(10) -0.3507(14)
O2 O 0.6640(3) 0.2269(7) -0.2736(10)
C3 C 0.7148(5) 0.1958(13) -0.3542(20)
O3 O 0.7356(4) 0.2503(12) -0.4822(16)
C4 C 0.7408(5) 0.0868(11) -0.2492(20)
C5 C 0.5839(4) 0.2827(10) -0.4679(15)
O4 O 0.6096(3) 0.2222(7) -0.6295(10)
C6 C 0.5757(5) 0.1415(10) -0.7238(16)
O5 O 0.5283(3) 0.1160(8) -0.6758(12)
C7 C 0.6065(5) 0.0778(11) -0.8856(15)
C8 C 0.5446(4) 0.3882(11) -0.5291(16)
O6 O 0.4915(3) 0.3947(8) -0.4325(12)
C9 C 0.5327(4) 0.4883(12) -0.3903(15)
C10 C 0.5623(4) 0.4868(11) -0.2045(15)
C11 C 0.6598(4) 0.4392(10) -0.0384(14)
O7 O 0.6382(2) 0.5348(6) 0.0926(9)
C12 C 0.6726(4) 0.5600(10) 0.2401(15)
O8 O 0.7172(3) 0.5108(8) 0.2607(12)
C13 C 0.6490(3) 0.6571(9) 0.3716(13)
C14 C 0.6014(4) 0.7273(9) 0.3286(14)
C15 C 0.5817(4) 0.8161(9) 0.4564(18)
C16 C 0.6087(5) 0.8358(11) 0.6311(16)
C17 C 0.6567(4) 0.7631(11) 0.6739(17)
C18 C 0.6773(4) 0.6748(10) 0.5426(15)
H1 H 0.655 0.389 -0.436
H2 H 0.787 0.094 -0.211
H3 H 0.733 0.002 -0.301
H4 H 0.725 0.078 -0.112
H5 H 0.561 0.230 -0.381
H6 H 0.608 0.130 -1.019
H7 H 0.590 -0.008 -0.901
H8 H 0.646 0.061 -0.843
H9 H 0.553 0.422 -0.656
H10 H 0.520 0.568 -0.472
H11 H 0.548 0.548 -0.114
H12 H 0.673 0.361 0.036
H13 H 0.697 0.466 -0.096
H14 H 0.582 0.714 0.202
H15 H 0.549 0.875 0.417
H16 H 0.593 0.888 0.729
H17 H 0.679 0.774 0.791
H18 H 0.713 0.627 0.572
loop_
_geom_bond_atom_site_label_1
_geom_bond_atom_site_label_2
_geom_bond_site_symmetry_1
_geom_bond_site_symmetry_2
C1 O1 1_555 1_555
O1 C10 1_555 1_555
C2 C1 1_555 1_555
O2 C2 1_555 1_555
C3 O2 1_555 1_555
O3 C3 1_555 1_555
C4 C3 1_555 1_555
C5 C2 1_555 1_555
O4 C5 1_555 1_555
C6 O4 1_555 1_555
O5 C6 1_555 1_555
C7 C6 1_555 1_555
C8 C5 1_555 1_555
O6 C8 1_555 1_555
C9 C8 1_555 1_555
C10 C1 1_555 1_555
C11 C1 1_555 1_555
O7 C11 1_555 1_555
C12 O7 1_555 1_555
O8 C12 1_555 1_555
C13 C12 1_555 1_555
C14 C13 1_555 1_555
C15 C14 1_555 1_555
C16 C15 1_555 1_555
C17 C16 1_555 1_555
C18 C13 1_555 1_555
H1 C2 1_555 1_555
H2 C4 1_555 1_555
H3 C4 1_555 1_555
H4 C4 1_555 1_555
H5 C5 1_555 1_555
H6 C7 1_555 1_555
H7 C7 1_555 1_555
H8 C7 1_555 1_555
H9 C8 1_555 1_555
H10 C9 1_555 1_555
H11 C10 1_555 1_555
H12 C11 1_555 1_555
H13 C11 1_555 1_555
H14 C14 1_555 1_555
H15 C15 1_555 1_555
H16 C16 1_555 1_555
H17 C17 1_555 1_555
H18 C18 1_555 1_555
O6 C9 1_555 1_555
C9 C10 1_555 1_555
C17 C18 1_555 1_555

#END
