
#######################################################################
#
#                 Cambridge Crystallographic Data Centre
#                                CCDC 
#
#######################################################################
#
# If this CIF has been generated from an entry in the Cambridge 
# Structural Database, then it will include bibliographic, chemical, 
# crystal, experimental, refinement or atomic coordinate data resulting 
# from the CCDC's data processing and validation procedures.
#
#######################################################################

data_COLQEB
_chemical_formula_moiety         'C29 H21 N3 S3'
_chemical_name_systematic        
4'',5-dimethyl-2,2',2''-triphenyl-4,5':4',5''-ter-1,3-thiazole
_symmetry_cell_setting           monoclinic
_symmetry_space_group_name_H-M   'P 21/n'
_symmetry_Int_Tables_number      14
_space_group_name_Hall           '-P 2yn'
loop_
_symmetry_equiv_pos_site_id
_symmetry_equiv_pos_as_xyz
1 x,y,z
2 1/2-x,1/2+y,1/2-z
3 -x,-y,-z
4 1/2+x,1/2-y,1/2+z
_cell_length_a                   9.9316(3)
_cell_length_b                   14.3157(3)
_cell_length_c                   17.5123(4)
_cell_angle_alpha                90
_cell_angle_beta                 101.8471(8)
_cell_angle_gamma                90
_cell_volume                     2436.82
_exptl_crystal_colour            colorless
_exptl_crystal_description       block
_cell_formula_units_Z            4
loop_
_atom_site_label
_atom_site_type_symbol
_atom_site_fract_x
_atom_site_fract_y
_atom_site_fract_z
S1 S 0.91413(3) 0.47261(2) 0.388294(18)
S2 S 0.92530(3) 0.10778(2) 0.390273(17)
S3 S 1.21367(3) 0.38062(2) 0.191243(19)
N1 N 0.83000(11) 0.31114(7) 0.42195(6)
N2 N 0.89617(11) 0.08036(8) 0.24296(6)
N3 N 1.01021(11) 0.46588(7) 0.22946(6)
C1 C 0.82701(13) 0.39970(8) 0.44049(7)
C2 C 0.90130(13) 0.29812(8) 0.36264(7)
C3 C 0.90285(13) 0.20431(8) 0.32949(7)
C4 C 0.91615(13) 0.03582(9) 0.30946(7)
C5 C 0.88744(13) 0.17553(9) 0.25321(7)
C6 C 1.15184(13) 0.33730(9) 0.26941(7)
C7 C 1.09052(13) 0.46872(8) 0.17913(7)
C8 C 1.04296(13) 0.39122(9) 0.27968(7)
C9 C 0.95854(13) 0.37744(8) 0.33815(7)
C10 C 0.75535(13) 0.43622(9) 0.49983(7)
C11 C 0.71391(15) 0.52936(10) 0.49898(9)
C12 C 0.64737(16) 0.56270(11) 0.55576(9)
C13 C 0.62169(16) 0.50390(12) 0.61393(9)
C14 C 0.66165(15) 0.41099(11) 0.61498(8)
C15 C 0.72762(14) 0.37696(9) 0.55810(8)
C16 C 0.93295(13) -0.06604(9) 0.31635(7)
C17 C 0.97336(14) -0.10994(9) 0.38868(8)
C18 C 0.99633(15) -0.20557(10) 0.39322(8)
C19 C 0.97983(15) -0.25861(9) 0.32545(9)
C20 C 0.93687(14) -0.21582(9) 0.25335(8)
C21 C 0.91280(13) -0.12051(9) 0.24850(8)
C22 C 0.86237(14) 0.23584(9) 0.18200(7)
C23 C 1.21649(14) 0.25428(10) 0.31470(8)
C24 C 1.07693(13) 0.53932(9) 0.11698(7)
C25 C 1.17052(14) 0.54686(10) 0.06781(8)
C26 C 1.15238(16) 0.61480(10) 0.00996(8)
C27 C 1.04222(16) 0.67548(10) 0.00105(8)
C28 C 0.94781(16) 0.66813(10) 0.04933(8)
C29 C 0.96485(14) 0.60010(9) 0.10671(8)
H1 H 0.7313 0.5701 0.4593
H2 H 0.6193 0.6262 0.5547
H3 H 0.5768 0.5271 0.6530
H4 H 0.6438 0.3705 0.6548
H5 H 0.7540 0.3131 0.5588
H6 H 0.9852 -0.0740 0.4352
H7 H 1.0234 -0.2348 0.4427
H8 H 0.9978 -0.3238 0.3284
H9 H 0.9239 -0.2522 0.2071
H10 H 0.8825 -0.0920 0.1990
H11 H 0.9491 0.2456 0.1647
H12 H 0.7961 0.2052 0.1404
H13 H 0.8255 0.2963 0.1942
H14 H 1.3165 0.2566 0.3194
H15 H 1.1803 0.1969 0.2875
H16 H 1.1950 0.2550 0.3669
H17 H 1.2468 0.5055 0.0739
H18 H 1.2160 0.6195 -0.0236
H19 H 1.0310 0.7224 -0.0382
H20 H 0.8717 0.7097 0.0430
H21 H 0.8997 0.5948 0.1393
loop_
_geom_bond_atom_site_label_1
_geom_bond_atom_site_label_2
_geom_bond_site_symmetry_1
_geom_bond_site_symmetry_2
S1 C1 1_555 1_555
S2 C3 1_555 1_555
S3 C6 1_555 1_555
N1 C1 1_555 1_555
N2 C4 1_555 1_555
N3 C7 1_555 1_555
C1 C10 1_555 1_555
C2 N1 1_555 1_555
C3 C2 1_555 1_555
C4 S2 1_555 1_555
C5 N2 1_555 1_555
C6 C8 1_555 1_555
C7 S3 1_555 1_555
C8 N3 1_555 1_555
C9 S1 1_555 1_555
C10 C11 1_555 1_555
C11 C12 1_555 1_555
C12 C13 1_555 1_555
C13 C14 1_555 1_555
C14 C15 1_555 1_555
C15 C10 1_555 1_555
C16 C4 1_555 1_555
C17 C16 1_555 1_555
C18 C17 1_555 1_555
C19 C18 1_555 1_555
C20 C19 1_555 1_555
C21 C16 1_555 1_555
C22 C5 1_555 1_555
C23 C6 1_555 1_555
C24 C7 1_555 1_555
C25 C24 1_555 1_555
C26 C25 1_555 1_555
C27 C26 1_555 1_555
C28 C27 1_555 1_555
C29 C24 1_555 1_555
H1 C11 1_555 1_555
H2 C12 1_555 1_555
H3 C13 1_555 1_555
H4 C14 1_555 1_555
H5 C15 1_555 1_555
H6 C17 1_555 1_555
H7 C18 1_555 1_555
H8 C19 1_555 1_555
H9 C20 1_555 1_555
H10 C21 1_555 1_555
H11 C22 1_555 1_555
H12 C22 1_555 1_555
H13 C22 1_555 1_555
H14 C23 1_555 1_555
H15 C23 1_555 1_555
H16 C23 1_555 1_555
H17 C25 1_555 1_555
H18 C26 1_555 1_555
H19 C27 1_555 1_555
H20 C28 1_555 1_555
H21 C29 1_555 1_555
C2 C9 1_555 1_555
C3 C5 1_555 1_555
C8 C9 1_555 1_555
C20 C21 1_555 1_555
C28 C29 1_555 1_555

#END
