
#######################################################################
#
#                 Cambridge Crystallographic Data Centre
#                                CCDC 
#
#######################################################################
#
# If this CIF has been generated from an entry in the Cambridge 
# Structural Database, then it will include bibliographic, chemical, 
# crystal, experimental, refinement or atomic coordinate data resulting 
# from the CCDC's data processing and validation procedures.
#
#######################################################################

data_COLSUR
_chemical_formula_moiety         'C46 H52 K2 N2 O16 S2'
_chemical_name_systematic        
bis(Isothiocyanato-(\m~2~-1,18-dioxo-2,5,8,11,14,17-hexaoxa(18)(1,3)azulenophane)-potassium)
_symmetry_cell_setting           monoclinic
_symmetry_space_group_name_H-M   'C 2/c'
_symmetry_Int_Tables_number      15
_space_group_name_Hall           '-C 2yn'
loop_
_symmetry_equiv_pos_site_id
_symmetry_equiv_pos_as_xyz
1 x,y,z
2 1/2+x,1/2+y,z
3 -x,y,1/2-z
4 1/2-x,1/2+y,1/2-z
5 -x,-y,-z
6 1/2-x,1/2-y,-z
7 x,-y,1/2+z
8 1/2+x,1/2-y,1/2+z
_cell_length_a                   29.245(20)
_cell_length_b                   12.156(11)
_cell_length_c                   15.011(11)
_cell_angle_alpha                90
_cell_angle_beta                 109.5(7)
_cell_angle_gamma                90
_cell_volume                     5030.35
_exptl_crystal_colour            'bright red'
_chemical_melting_point          177deg.C.(dec.)
_cell_formula_units_Z            4
loop_
_atom_site_label
_atom_site_type_symbol
_atom_site_fract_x
_atom_site_fract_y
_atom_site_fract_z
K1 K 0.1266(2) 0.1661(6) 0.4027(4)
S1 S 0.1939(3) 0.3054(10) 0.1397(7)
C1 C 0.1833(11) 0.2254(34) 0.2142(23)
N1 N 0.1740(10) 0.1754(27) 0.2703(20)
C2 C 0.0727(9) -0.1067(31) 0.2141(17)
C3 C 0.0689(7) 0.0120(27) 0.2064(14)
C4 C 0.0233(5) 0.0222(20) 0.1479(10)
C5 C -0.0525(10) -0.0852(29) 0.0487(18)
C6 C -0.0815(7) -0.1635(27) 0.0175(14)
C7 C -0.0705(10) -0.2613(34) 0.0443(19)
C8 C -0.0300(20) -0.3165(48) 0.0962(35)
C9 C 0.0158(12) -0.2653(42) 0.1509(23)
C10 C 0.0267(9) -0.1496(32) 0.1612(17)
C11 C -0.0051(7) -0.0737(24) 0.1115(14)
C12 C 0.1133(10) -0.1550(37) 0.2714(19)
C13 C 0.1892(9) -0.1492(29) 0.4005(18)
C14 C 0.2205(9) -0.0603(28) 0.4530(17)
C15 C 0.2265(10) 0.0324(30) 0.5925(20)
C16 C 0.1890(11) 0.0743(36) 0.6407(22)
C17 C 0.1960(16) 0.2741(44) 0.6239(29)
C18 C 0.1634(13) 0.3696(38) 0.5840(25)
C19 C 0.1381(12) 0.4393(39) 0.4306(25)
C20 C 0.1244(15) 0.4567(41) 0.3363(29)
C21 C 0.0691(13) 0.3996(37) 0.2000(26)
C22 C 0.0224(17) 0.3251(46) 0.1384(33)
C23 C 0.0059(8) 0.1266(26) 0.1291(14)
O1 O 0.1214(7) -0.2610(26) 0.2778(13)
O2 O 0.1460(7) -0.1036(17) 0.3313(11)
O3 O 0.1923(6) -0.0003(17) 0.5076(12)
O4 O 0.1642(8) 0.1721(22) 0.5958(15)
O5 O 0.1563(7) 0.3571(22) 0.4825(14)
O6 O 0.0853(7) 0.3844(21) 0.2927(13)
O7 O 0.0392(7) 0.2098(22) 0.1704(13)
O8 O 0.0381(7) 0.1588(20) 0.4242(13)
O8B O -0.0381(7) 0.1588(20) 0.0758(13)
C23B C -0.0059(8) 0.1266(26) 0.3709(14)
K1B K -0.1266(2) 0.1661(6) 0.0973(4)
C4B C -0.0233(5) 0.0222(20) 0.3521(10)
O7B O -0.0392(7) 0.2098(22) 0.3296(13)
N1B N -0.1740(10) 0.1754(27) 0.2297(20)
O3B O -0.1923(6) -0.0003(17) -0.0076(12)
O4B O -0.1642(8) 0.1721(22) -0.0958(15)
O5B O -0.1563(7) 0.3571(22) 0.0175(14)
O6B O -0.0853(7) 0.3844(21) 0.2073(13)
C3B C -0.0689(7) 0.0120(27) 0.2936(14)
C11B C 0.0051(7) -0.0737(24) 0.3885(14)
C22B C -0.0224(17) 0.3251(46) 0.3616(33)
C1B C -0.1833(11) 0.2254(34) 0.2858(23)
C14B C -0.2205(9) -0.0603(28) 0.0470(17)
C15B C -0.2265(10) 0.0324(30) -0.0925(20)
C16B C -0.1890(11) 0.0743(36) -0.1407(22)
C17B C -0.1960(16) 0.2741(44) -0.1239(29)
C18B C -0.1634(13) 0.3696(38) -0.0840(25)
C19B C -0.1381(12) 0.4393(39) 0.0694(25)
C20B C -0.1244(15) 0.4567(41) 0.1637(29)
C21B C -0.0691(13) 0.3996(37) 0.3000(26)
C2B C -0.0727(9) -0.1067(31) 0.2859(17)
C5B C 0.0525(10) -0.0852(29) 0.4513(18)
C10B C -0.0267(9) -0.1496(32) 0.3388(17)
S1B S -0.1939(3) 0.3054(10) 0.3603(7)
C13B C -0.1892(9) -0.1492(29) 0.0995(18)
C12B C -0.1133(10) -0.1550(37) 0.2286(19)
C6B C 0.0815(7) -0.1635(27) 0.4825(14)
C9B C -0.0158(12) -0.2653(42) 0.3491(23)
O2B O -0.1460(7) -0.1036(17) 0.1687(11)
O1B O -0.1214(7) -0.2610(26) 0.2222(13)
C7B C 0.0705(10) -0.2613(34) 0.4557(19)
C8B C 0.0300(20) -0.3165(48) 0.4038(35)
loop_
_geom_bond_atom_site_label_1
_geom_bond_atom_site_label_2
_geom_bond_site_symmetry_1
_geom_bond_site_symmetry_2
K1 N1 1_555 1_555
S1 C1 1_555 1_555
C1 N1 1_555 1_555
C2 C3 1_555 1_555
C3 C4 1_555 1_555
C4 C11 1_555 1_555
C5 C6 1_555 1_555
C6 C7 1_555 1_555
C7 C8 1_555 1_555
C8 C9 1_555 1_555
C9 C10 1_555 1_555
C10 C2 1_555 1_555
C11 C5 1_555 1_555
C12 C2 1_555 1_555
C13 C14 1_555 1_555
C14 O3 1_555 1_555
C15 C16 1_555 1_555
C16 O4 1_555 1_555
C17 C18 1_555 1_555
C18 O5 1_555 1_555
C19 C20 1_555 1_555
C20 O6 1_555 1_555
C21 C22 1_555 1_555
C22 O7 1_555 1_555
C23 C4 1_555 1_555
O1 C12 1_555 1_555
O2 C12 1_555 1_555
O3 K1 1_555 1_555
O4 K1 1_555 1_555
O5 K1 1_555 1_555
O6 K1 1_555 1_555
O7 C23 1_555 1_555
O8 K1 1_555 1_555
O8B C23 1_555 1_555
C23B O8 1_555 1_555
K1B O8B 1_555 1_555
C4B C23B 1_555 1_555
O7B C23B 1_555 1_555
N1B K1B 1_555 1_555
O3B K1B 1_555 1_555
O4B K1B 1_555 1_555
O5B K1B 1_555 1_555
O6B K1B 1_555 1_555
C3B C4B 1_555 1_555
C11B C4B 1_555 1_555
C22B O7B 1_555 1_555
C1B N1B 1_555 1_555
C14B O3B 1_555 1_555
C15B O3B 1_555 1_555
C16B O4B 1_555 1_555
C17B O4B 1_555 1_555
C18B O5B 1_555 1_555
C19B O5B 1_555 1_555
C20B O6B 1_555 1_555
C21B O6B 1_555 1_555
C2B C3B 1_555 1_555
C5B C11B 1_555 1_555
C10B C11B 1_555 1_555
S1B C1B 1_555 1_555
C13B C14B 1_555 1_555
C12B C2B 1_555 1_555
C6B C5B 1_555 1_555
C9B C10B 1_555 1_555
O2B C13B 1_555 1_555
O1B C12B 1_555 1_555
C7B C6B 1_555 1_555
C8B C9B 1_555 1_555
C10 C11 1_555 1_555
C13 O2 1_555 1_555
C15 O3 1_555 1_555
C17 O4 1_555 1_555
C19 O5 1_555 1_555
C21 O6 1_555 1_555
C22B C21B 1_555 1_555
C15B C16B 1_555 1_555
C17B C18B 1_555 1_555
C19B C20B 1_555 1_555
C2B C10B 1_555 1_555
C12B O2B 1_555 1_555
C7B C8B 1_555 1_555

#END
