
#######################################################################
#
#                 Cambridge Crystallographic Data Centre
#                                CCDC 
#
#######################################################################
#
# If this CIF has been generated from an entry in the Cambridge 
# Structural Database, then it will include bibliographic, chemical, 
# crystal, experimental, refinement or atomic coordinate data resulting 
# from the CCDC's data processing and validation procedures.
#
#######################################################################

data_COLTAA
_chemical_formula_moiety         'C29 H22 F2 N2 O4,C1 H1 Cl3'
_chemical_name_systematic        
"7,8-difluoro-5',6'-dihydroxy-3,3,3',3'-tetramethyl-2,2',3,3'-tetrahydrospiro[cyclopenta[b]oxanthrene-1,1'-indene]-6,9-dicarbonitrile chloroform solvate"
_symmetry_cell_setting           triclinic
_symmetry_space_group_name_H-M   'P -1'
_symmetry_Int_Tables_number      2
_space_group_name_Hall           '-P 1'
loop_
_symmetry_equiv_pos_site_id
_symmetry_equiv_pos_as_xyz
1 x,y,z
2 -x,-y,-z
_cell_length_a                   10.4235(4)
_cell_length_b                   12.3593(5)
_cell_length_c                   12.4905(5)
_cell_angle_alpha                85.026(2)
_cell_angle_beta                 72.180(2)
_cell_angle_gamma                68.692(2)
_cell_volume                     1426.65
_cell_formula_units_Z            2
loop_
_atom_site_label
_atom_site_type_symbol
_atom_site_fract_x
_atom_site_fract_y
_atom_site_fract_z
C1 C 0.4260(2) 0.4623(2) -0.26984(19)
C2 C 0.2807(2) 0.52245(19) -0.2255(2)
C3 C 0.2166(2) 0.53298(19) -0.1093(2)
C4 C 0.0651(2) 0.59897(19) -0.0617(2)
C5 C 0.2989(2) 0.47932(19) -0.03784(19)
C6 C 0.4462(2) 0.41628(19) -0.08242(19)
C7 C 0.5103(2) 0.4084(2) -0.1991(2)
C8 C 0.6632(2) 0.3482(2) -0.2434(2)
C9 C 0.4579(2) 0.35316(19) 0.09702(19)
C10 C 0.3122(2) 0.41623(18) 0.14104(19)
C11 C 0.2390(2) 0.40568(19) 0.25133(19)
H1 H 0.1413 0.4486 0.2807
C12 C 0.3154(2) 0.32873(18) 0.31787(19)
C13 C 0.4621(2) 0.26487(19) 0.27345(19)
C14 C 0.5344(2) 0.27700(19) 0.16178(19)
H2 H 0.6322 0.2346 0.1317
C15 C 0.2577(2) 0.30175(19) 0.43968(19)
C16 C 0.1157(2) 0.2812(2) 0.4627(2)
H3 H 0.0456 0.3487 0.4431
H4 H 0.0813 0.2664 0.5410
H5 H 0.1311 0.2154 0.4183
C17 C 0.2339(2) 0.40186(19) 0.5172(2)
H6 H 0.3226 0.4154 0.5032
H7 H 0.2027 0.3816 0.5943
H8 H 0.1616 0.4710 0.5024
C18 C 0.3813(2) 0.19004(19) 0.45390(19)
H9 H 0.3600 0.1218 0.4450
H10 H 0.3925 0.1899 0.5282
C19 C 0.5228(2) 0.18906(19) 0.36125(19)
C20 C 0.6204(2) 0.2362(2) 0.4018(2)
H11 H 0.6617 0.2814 0.3434
H12 H 0.5640 0.2859 0.4683
C21 C 0.7417(2) 0.1310(2) 0.4289(2)
C22 C 0.6992(3) 0.0987(2) 0.5528(2)
H13 H 0.6099 0.0853 0.5710
H14 H 0.6879 0.1611 0.5997
H15 H 0.7732 0.0294 0.5653
C23 C 0.8827(2) 0.1561(2) 0.4014(2)
H16 H 0.8669 0.2219 0.4459
H17 H 0.9124 0.1726 0.3230
H18 H 0.9565 0.0896 0.4182
C24 C 0.7509(2) 0.03730(19) 0.35297(19)
C25 C 0.6273(2) 0.06775(19) 0.31878(19)
C26 C 0.6106(2) -0.00877(19) 0.25348(19)
H19 H 0.5276 0.0116 0.2313
C27 C 0.7199(2) -0.1164(2) 0.22169(19)
C28 C 0.8451(2) -0.1460(2) 0.25483(19)
C29 C 0.8604(2) -0.0702(2) 0.3202(2)
H20 H 0.9434 -0.0906 0.3425
N1 N 0.7853(2) 0.30228(18) -0.27621(18)
N2 N -0.0540(2) 0.65119(17) -0.02034(17)
O1 O 0.53250(15) 0.36611(13) -0.01546(13)
O2 O 0.23448(15) 0.49388(13) 0.07470(12)
O3 O 0.70385(16) -0.19247(14) 0.15667(14)
H21 H 0.7833 -0.2388 0.1235
O4 O 0.94709(17) -0.25400(14) 0.21718(14)
H22 H 1.0136 -0.2674 0.2443
F1 F 0.48793(13) 0.45572(12) -0.38108(11)
F2 F 0.19980(13) 0.57402(11) -0.29417(11)
C30 C 0.7297(3) -0.0356(2) -0.0699(2)
H23 H 0.6965 -0.0667 0.0041
Cl1 Cl 0.59287(8) 0.09602(6) -0.08416(7)
Cl2 Cl 0.88848(9) -0.01170(10) -0.07827(8)
Cl3 Cl 0.76070(7) -0.13661(6) -0.17373(6)
loop_
_geom_bond_atom_site_label_1
_geom_bond_atom_site_label_2
_geom_bond_site_symmetry_1
_geom_bond_site_symmetry_2
C1 C2 1_555 1_555
C2 C3 1_555 1_555
C3 C4 1_555 1_555
C4 N2 1_555 1_555
C5 C3 1_555 1_555
C6 C5 1_555 1_555
C7 C1 1_555 1_555
C8 C7 1_555 1_555
C9 C10 1_555 1_555
C10 C11 1_555 1_555
C11 H1 1_555 1_555
C12 C11 1_555 1_555
C13 C12 1_555 1_555
C14 C9 1_555 1_555
H2 C14 1_555 1_555
C15 C12 1_555 1_555
C16 C15 1_555 1_555
H3 C16 1_555 1_555
H4 C16 1_555 1_555
H5 C16 1_555 1_555
C17 C15 1_555 1_555
H6 C17 1_555 1_555
H7 C17 1_555 1_555
H8 C17 1_555 1_555
C18 C15 1_555 1_555
H9 C18 1_555 1_555
H10 C18 1_555 1_555
C19 C13 1_555 1_555
C20 C19 1_555 1_555
H11 C20 1_555 1_555
H12 C20 1_555 1_555
C21 C20 1_555 1_555
C22 C21 1_555 1_555
H13 C22 1_555 1_555
H14 C22 1_555 1_555
H15 C22 1_555 1_555
C23 C21 1_555 1_555
H16 C23 1_555 1_555
H17 C23 1_555 1_555
H18 C23 1_555 1_555
C24 C21 1_555 1_555
C25 C19 1_555 1_555
C26 C25 1_555 1_555
H19 C26 1_555 1_555
C27 C26 1_555 1_555
C28 C27 1_555 1_555
C29 C24 1_555 1_555
H20 C29 1_555 1_555
N1 C8 1_555 1_555
O1 C6 1_555 1_555
O2 C5 1_555 1_555
O3 C27 1_555 1_555
H21 O3 1_555 1_555
O4 C28 1_555 1_555
H22 O4 1_555 1_555
F1 C1 1_555 1_555
F2 C2 1_555 1_555
C30 H23 1_555 1_555
Cl1 C30 1_555 1_555
Cl2 C30 1_555 1_555
Cl3 C30 1_555 1_555
C6 C7 1_555 1_555
C9 O1 1_555 1_555
C10 O2 1_555 1_555
C13 C14 1_555 1_555
C18 C19 1_555 1_555
C24 C25 1_555 1_555
C28 C29 1_555 1_555

#END
