
#######################################################################
#
#                 Cambridge Crystallographic Data Centre
#                                CCDC 
#
#######################################################################
#
# If this CIF has been generated from an entry in the Cambridge 
# Structural Database, then it will include bibliographic, chemical, 
# crystal, experimental, refinement or atomic coordinate data resulting 
# from the CCDC's data processing and validation procedures.
#
#######################################################################

data_COMBUD
_chemical_formula_moiety         'C24 H22 N2 O1'
_chemical_name_systematic        
2-(((1-naphthylmethyl)(pyridin-2-ylmethyl)amino)methyl)phenol
_symmetry_cell_setting           monoclinic
_symmetry_space_group_name_H-M   'P 21/n'
_symmetry_Int_Tables_number      14
_space_group_name_Hall           '-P 2yn'
loop_
_symmetry_equiv_pos_site_id
_symmetry_equiv_pos_as_xyz
1 x,y,z
2 1/2-x,1/2+y,1/2-z
3 -x,-y,-z
4 1/2+x,1/2-y,1/2+z
_cell_length_a                   13.197(11)
_cell_length_b                   11.102(9)
_cell_length_c                   14.265(12)
_cell_angle_alpha                90
_cell_angle_beta                 111.786(14)
_cell_angle_gamma                90
_cell_volume                     1940.73
_exptl_crystal_colour            colorless
_exptl_crystal_description       prism
_cell_formula_units_Z            4
loop_
_atom_site_label
_atom_site_type_symbol
_atom_site_fract_x
_atom_site_fract_y
_atom_site_fract_z
C1 C 0.0999(2) -0.15129(19) 0.84662(15)
H1 H 0.1691 -0.1728 0.8494
C2 C 0.0198(3) -0.2392(2) 0.82472(18)
H2 H 0.0354 -0.3179 0.8123
C3 C -0.0806(3) -0.2105(2) 0.82146(16)
H3 H -0.1338 -0.2699 0.8073
C4 C -0.10602(19) -0.0907(2) 0.83936(13)
C5 C -0.2099(2) -0.0587(3) 0.83756(17)
H4 H -0.2645 -0.1167 0.8222
C6 C -0.2312(2) 0.0549(3) 0.8578(2)
H5 H -0.3002 0.0746 0.8567
C7 C -0.1505(2) 0.1432(2) 0.88054(17)
H6 H -0.1661 0.2210 0.8952
C8 C -0.05009(18) 0.11743(18) 0.88154(13)
H7 H 0.0021 0.1780 0.8954
C9 C -0.02373(16) -0.00083(17) 0.86163(12)
C10 C 0.08068(16) -0.03369(16) 0.86428(12)
C11 C 0.17098(15) 0.05723(16) 0.88970(13)
H8 H 0.1755 0.0994 0.9507
H9 H 0.2394 0.0150 0.9040
C12 C 0.16041(16) 0.08926(17) 0.71964(13)
H10 H 0.1151 0.0177 0.7063
H11 H 0.2346 0.0636 0.7321
C13 C 0.12202(14) 0.16762(17) 0.62705(13)
C14 C 0.12800(18) 0.12615(19) 0.53873(15)
H12 H 0.1567 0.0502 0.5365
C15 C 0.09210(19) 0.1957(2) 0.45475(16)
H13 H 0.0947 0.1673 0.3944
C16 C 0.05222(16) 0.3074(2) 0.45956(15)
H14 H 0.0283 0.3576 0.4033
C17 C 0.04846(17) 0.34347(17) 0.54946(15)
H15 H 0.0204 0.4195 0.5528
C18 C 0.24306(14) 0.23891(17) 0.84834(13)
H16 H 0.2464 0.2856 0.7921
H17 H 0.3132 0.1998 0.8808
C19 C 0.22287(15) 0.32220(16) 0.92224(13)
C20 C 0.29191(17) 0.32460(19) 1.02337(15)
H18 H 0.3520 0.2735 1.0453
C21 C 0.2737(2) 0.4007(2) 1.09196(16)
H19 H 0.3213 0.4015 1.1591
C22 C 0.1847(2) 0.4747(2) 1.05984(19)
H20 H 0.1712 0.5256 1.1057
C23 C 0.1156(2) 0.47468(18) 0.96130(19)
H21 H 0.0555 0.5258 0.9402
C24 C 0.13443(17) 0.39890(17) 0.89255(15)
N1 N 0.08267(12) 0.27617(14) 0.63315(11)
N2 N 0.15799(11) 0.14652(12) 0.80982(10)
O1 O 0.06203(11) 0.40573(13) 0.79447(11)
H22 H 0.0845 0.3649 0.7583
loop_
_geom_bond_atom_site_label_1
_geom_bond_atom_site_label_2
_geom_bond_site_symmetry_1
_geom_bond_site_symmetry_2
C1 H1 1_555 1_555
C2 C1 1_555 1_555
H2 C2 1_555 1_555
C3 C2 1_555 1_555
H3 C3 1_555 1_555
C4 C3 1_555 1_555
C5 C4 1_555 1_555
H4 C5 1_555 1_555
C6 C5 1_555 1_555
H5 C6 1_555 1_555
C7 C6 1_555 1_555
H6 C7 1_555 1_555
C8 C7 1_555 1_555
H7 C8 1_555 1_555
C9 C4 1_555 1_555
C10 C1 1_555 1_555
C11 C10 1_555 1_555
H8 C11 1_555 1_555
H9 C11 1_555 1_555
C12 H10 1_555 1_555
H11 C12 1_555 1_555
C13 C12 1_555 1_555
C14 C13 1_555 1_555
H12 C14 1_555 1_555
C15 C14 1_555 1_555
H13 C15 1_555 1_555
C16 C15 1_555 1_555
H14 C16 1_555 1_555
C17 C16 1_555 1_555
H15 C17 1_555 1_555
C18 H16 1_555 1_555
H17 C18 1_555 1_555
C19 C18 1_555 1_555
C20 C19 1_555 1_555
H18 C20 1_555 1_555
C21 C20 1_555 1_555
H19 C21 1_555 1_555
C22 C21 1_555 1_555
H20 C22 1_555 1_555
C23 C22 1_555 1_555
H21 C23 1_555 1_555
C24 C19 1_555 1_555
N1 C13 1_555 1_555
N2 C11 1_555 1_555
O1 C24 1_555 1_555
H22 O1 1_555 1_555
C8 C9 1_555 1_555
C9 C10 1_555 1_555
C12 N2 1_555 1_555
C17 N1 1_555 1_555
C18 N2 1_555 1_555
C23 C24 1_555 1_555

#END
