
#######################################################################
#
#                 Cambridge Crystallographic Data Centre
#                                CCDC 
#
#######################################################################
#
# If this CIF has been generated from an entry in the Cambridge 
# Structural Database, then it will include bibliographic, chemical, 
# crystal, experimental, refinement or atomic coordinate data resulting 
# from the CCDC's data processing and validation procedures.
#
#######################################################################

data_COMDOX
_chemical_formula_moiety         'C12 H25 O1 P1'
_chemical_name_systematic        
'1-t-Butyl-2,2,3,4,4-pentamethylphosphetane 1-oxide'
_symmetry_cell_setting           monoclinic
_symmetry_space_group_name_H-M   'P 21/m'
_symmetry_Int_Tables_number      11
_space_group_name_Hall           '-P 2yb'
loop_
_symmetry_equiv_pos_site_id
_symmetry_equiv_pos_as_xyz
1 x,y,z
2 -x,1/2+y,-z
3 -x,-y,-z
4 x,1/2-y,z
_cell_length_a                   6.137(2)
_cell_length_b                   12.181(4)
_cell_length_c                   9.005(3)
_cell_angle_alpha                90
_cell_angle_beta                 96.24(3)
_cell_angle_gamma                90
_cell_volume                     669.179
_exptl_crystal_colour            colorless
_cell_formula_units_Z            2
loop_
_atom_site_label
_atom_site_type_symbol
_atom_site_fract_x
_atom_site_fract_y
_atom_site_fract_z
P1 P 0.14872(16) 0.25000 1.15899(11)
C1 C 0.2071(6) 0.2500 0.9623(4)
O1 O -0.0920(4) 0.2500 1.1621(3)
C2 C 0.4480(8) 0.2500 0.9371(6)
C3 C 0.4541(6) 0.2500 1.3442(4)
C4 C 0.3087(4) 0.1518(2) 1.2834(3)
C5 C 0.4391(6) 0.0581(3) 1.2235(4)
C6 C 0.0942(6) 0.1487(3) 0.8908(4)
C7 C 0.1589(6) 0.1051(4) 1.3931(4)
C8 C 0.5367(11) 0.2500 1.5090(6)
H1 H 0.476 0.250 0.839
H2 H 0.525 0.202 0.978
H3 H 0.598 0.250 1.311
H4 H 0.076 0.164 1.431
H5 H 0.246 0.070 1.474
H6 H 0.060 0.053 1.343
H7 H 0.162 0.084 0.935
H8 H 0.107 0.149 0.786
H9 H 0.535 0.087 1.155
H10 H 0.340 0.006 1.172
H11 H 0.525 0.022 1.305
H12 H 0.626 0.190 1.531
H13 H 0.433 0.250 1.562
C4C C 0.3087(4) 0.3482(2) 1.2834(3)
C6C C 0.0942(6) 0.3513(3) 0.8908(4)
H2C H 0.525 0.298 0.978
H12C H 0.626 0.310 1.531
C5C C 0.4391(6) 0.4419(3) 1.2235(4)
C7C C 0.1589(6) 0.3949(4) 1.3931(4)
H7C H 0.162 0.416 0.935
H8C H 0.107 0.351 0.786
H9C H 0.535 0.413 1.155
H10C H 0.340 0.494 1.172
H11C H 0.525 0.478 1.305
H4C H 0.076 0.336 1.431
H5C H 0.246 0.430 1.474
H6C H 0.060 0.447 1.343
loop_
_geom_bond_atom_site_label_1
_geom_bond_atom_site_label_2
_geom_bond_site_symmetry_1
_geom_bond_site_symmetry_2
P1 C1 1_555 1_555
C1 C2 1_555 1_555
O1 P1 1_555 1_555
C2 H1 1_555 1_555
C3 C4 1_555 1_555
C4 P1 1_555 1_555
C5 C4 1_555 1_555
C6 C1 1_555 1_555
C7 C4 1_555 1_555
C8 C3 1_555 1_555
H2 C2 1_555 1_555
H3 C3 1_555 1_555
H4 C7 1_555 1_555
H5 C7 1_555 1_555
H6 C7 1_555 1_555
H7 C6 1_555 1_555
H8 C6 1_555 1_555
H9 C5 1_555 1_555
H10 C5 1_555 1_555
H11 C5 1_555 1_555
H12 C8 1_555 1_555
H13 C8 1_555 1_555
C4C P1 1_555 1_555
C6C C1 1_555 1_555
H2C C2 1_555 1_555
H12C C8 1_555 1_555
C5C C4C 1_555 1_555
C7C C4C 1_555 1_555
H7C C6C 1_555 1_555
H8C C6C 1_555 1_555
H9C C5C 1_555 1_555
H10C C5C 1_555 1_555
H11C C5C 1_555 1_555
H4C C7C 1_555 1_555
H5C C7C 1_555 1_555
H6C C7C 1_555 1_555
C3 C4C 1_555 1_555

#END
