
#######################################################################
#
#                 Cambridge Crystallographic Data Centre
#                                CCDC 
#
#######################################################################
#
# If this CIF has been generated from an entry in the Cambridge 
# Structural Database, then it will include bibliographic, chemical, 
# crystal, experimental, refinement or atomic coordinate data resulting 
# from the CCDC's data processing and validation procedures.
#
#######################################################################

data_COMDUE
_chemical_compound_source        
'80% ethanol extract of whole plant Incarvillea mairei var. grandiflora'
_chemical_name_common            
rel-(4R,4aR,6S,7R,7aS)-2,4,7-Trimethyloctahydro-1H-cyclopenta[c]pyridin-6-ol
_chemical_formula_moiety         'C11 H21 N1 O1'
_chemical_name_systematic        Isoincarvilline
_symmetry_cell_setting           monoclinic
_symmetry_space_group_name_H-M   'P 21'
_symmetry_Int_Tables_number      4
_space_group_name_Hall           'P 2yb'
loop_
_symmetry_equiv_pos_site_id
_symmetry_equiv_pos_as_xyz
1 x,y,z
2 -x,1/2+y,-z
_cell_length_a                   7.225(5)
_cell_length_b                   11.198(8)
_cell_length_c                   7.609(5)
_cell_angle_alpha                90
_cell_angle_beta                 114.429(9)
_cell_angle_gamma                90
_cell_volume                     560.497
_exptl_crystal_colour            colorless
_exptl_crystal_description       needle
_cell_formula_units_Z            2
loop_
_atom_site_label
_atom_site_type_symbol
_atom_site_fract_x
_atom_site_fract_y
_atom_site_fract_z
O1 O 1.1516(4) 0.4528(2) 0.6109(3)
H1 H 1.2582 0.4155 0.6629
N1 N 0.7761(4) 0.8459(2) 0.6990(4)
C1 C 0.7314(5) 0.7186(3) 0.6610(5)
H2 H 0.6297 0.7090 0.5298
H3 H 0.6736 0.6889 0.7472
C2 C 0.9344(6) 0.8603(3) 0.8954(5)
H4 H 0.8886 0.8247 0.9866
H5 H 0.9571 0.9447 0.9252
C3 C 1.1315(5) 0.8026(3) 0.9176(4)
H6 H 1.1748 0.8393 0.8238
C4 C 1.1027(5) 0.6693(3) 0.8746(4)
H7 H 1.0882 0.6284 0.9821
C5 C 1.2803(5) 0.6119(4) 0.8395(5)
H8 H 1.3907 0.6686 0.8686
H9 H 1.3317 0.5421 0.9206
C6 C 1.1935(5) 0.5770(3) 0.6272(5)
H10 H 1.2898 0.5968 0.5711
C7 C 0.9980(5) 0.6517(3) 0.5316(4)
H11 H 1.0363 0.7348 0.5232
C8 C 0.9151(4) 0.6436(3) 0.6867(4)
H12 H 0.8777 0.5600 0.6922
C9 C 1.2944(6) 0.8284(5) 1.1201(6)
H13 H 1.4201 0.7917 1.1348
H14 H 1.2520 0.7965 1.2147
H15 H 1.3134 0.9131 1.1379
C10 C 0.8542(6) 0.6107(4) 0.3316(5)
H16 H 0.7365 0.6614 0.2838
H17 H 0.8132 0.5299 0.3379
H18 H 0.9218 0.6149 0.2465
C11 C 0.5918(6) 0.9105(4) 0.6771(5)
H19 H 0.4896 0.8997 0.5483
H20 H 0.6221 0.9939 0.7008
H21 H 0.5426 0.8801 0.7679
loop_
_geom_bond_atom_site_label_1
_geom_bond_atom_site_label_2
_geom_bond_site_symmetry_1
_geom_bond_site_symmetry_2
O1 H1 1_555 1_555
N1 C1 1_555 1_555
C1 H2 1_555 1_555
H3 C1 1_555 1_555
C2 N1 1_555 1_555
H4 C2 1_555 1_555
H5 C2 1_555 1_555
C3 C2 1_555 1_555
H6 C3 1_555 1_555
C4 C3 1_555 1_555
H7 C4 1_555 1_555
C5 C4 1_555 1_555
H8 C5 1_555 1_555
H9 C5 1_555 1_555
C6 O1 1_555 1_555
H10 C6 1_555 1_555
C7 C6 1_555 1_555
H11 C7 1_555 1_555
C8 C1 1_555 1_555
H12 C8 1_555 1_555
C9 C3 1_555 1_555
H13 C9 1_555 1_555
H14 C9 1_555 1_555
H15 C9 1_555 1_555
C10 C7 1_555 1_555
H16 C10 1_555 1_555
H17 C10 1_555 1_555
H18 C10 1_555 1_555
C11 N1 1_555 1_555
H19 C11 1_555 1_555
H20 C11 1_555 1_555
H21 C11 1_555 1_555
C4 C8 1_555 1_555
C5 C6 1_555 1_555
C7 C8 1_555 1_555

#END
