
#######################################################################
#
#                 Cambridge Crystallographic Data Centre
#                                CCDC 
#
#######################################################################
#
# If this CIF has been generated from an entry in the Cambridge 
# Structural Database, then it will include bibliographic, chemical, 
# crystal, experimental, refinement or atomic coordinate data resulting 
# from the CCDC's data processing and validation procedures.
#
#######################################################################

data_COMNEZ
_chemical_formula_moiety         'C14 H10 Br1 N1 S1'
_chemical_name_systematic        3-(4-bromophenyl)-2-(2-thienyl)-1H-pyrrole
_symmetry_cell_setting           monoclinic
_symmetry_space_group_name_H-M   'P 21/n'
_symmetry_Int_Tables_number      14
_space_group_name_Hall           '-P 2yn'
loop_
_symmetry_equiv_pos_site_id
_symmetry_equiv_pos_as_xyz
1 x,y,z
2 1/2-x,1/2+y,1/2-z
3 -x,-y,-z
4 1/2+x,1/2-y,1/2+z
_cell_length_a                   13.3403(18)
_cell_length_b                   6.2380(9)
_cell_length_c                   15.962(2)
_cell_angle_alpha                90
_cell_angle_beta                 105.058(3)
_cell_angle_gamma                90
_cell_volume                     1282.7
_exptl_crystal_colour            colorless
_exptl_crystal_description       prismatic
_cell_formula_units_Z            4
loop_
_atom_site_label
_atom_site_type_symbol
_atom_site_fract_x
_atom_site_fract_y
_atom_site_fract_z
Br1 Br 0.36885(4) -0.48902(8) 1.20822(3)
S1 S 0.0500(2) 0.5215(5) 0.8534(3)
C1 C 0.0720(14) 0.112(3) 0.9021(12)
H1 H 0.0970 -0.0280 0.9110
C2 C -0.0332(9) 0.2007(15) 0.9097(8)
H2 H -0.0795 0.1181 0.9306
C3 C -0.0539(8) 0.405(2) 0.8842(7)
H3 H -0.1157 0.4756 0.8832
N1 N 0.2536(2) 0.3899(5) 0.80347(19)
H4 H 0.2156 0.4854 0.7713
C4 C 0.3514(3) 0.3366(7) 0.8010(2)
H5 H 0.3888 0.3977 0.7653
C5 C 0.3851(3) 0.1778(7) 0.8599(2)
H6 H 0.4491 0.1090 0.8710
C6 C 0.3051(3) 0.1357(6) 0.9014(2)
C7 C 0.2241(2) 0.2696(6) 0.8646(2)
C8 C 0.1211(3) 0.2938(7) 0.8785(2)
C9 C 0.3154(3) -0.0170(6) 0.9734(2)
C10 C 0.3516(3) -0.2240(7) 0.9683(2)
H7 H 0.3657 -0.2686 0.9170
C11 C 0.3674(3) -0.3653(7) 1.0366(2)
H8 H 0.3929 -0.5023 1.0319
C12 C 0.3449(3) -0.3007(7) 1.1121(2)
C13 C 0.3081(3) -0.0984(8) 1.1200(2)
H9 H 0.2927 -0.0564 1.1712
C14 C 0.2941(3) 0.0424(7) 1.0511(3)
H10 H 0.2699 0.1801 1.0567
S2? S 0.0545(5) 0.1386(11) 0.9183(5)
C15? C 0.0746(13) 0.501(3) 0.8728(16)
H11? H 0.1073 0.6297 0.8674
C16? C -0.0462(13) 0.279(3) 0.9094(13)
H12? H -0.1049 0.2308 0.9250
C17? C -0.0382(13) 0.476(2) 0.8770(12)
H13? H -0.0909 0.5770 0.8604
loop_
_geom_bond_atom_site_label_1
_geom_bond_atom_site_label_2
_geom_bond_site_symmetry_1
_geom_bond_site_symmetry_2
Br1 C12 1_555 1_555
S1 C3 1_555 1_555
C1 H1 1_555 1_555
C2 C1 1_555 1_555
H2 C2 1_555 1_555
C3 C2 1_555 1_555
H3 C3 1_555 1_555
N1 H4 1_555 1_555
C4 N1 1_555 1_555
H5 C4 1_555 1_555
C5 C4 1_555 1_555
H6 C5 1_555 1_555
C6 C5 1_555 1_555
C7 N1 1_555 1_555
C8 S1 1_555 1_555
C9 C6 1_555 1_555
C10 C9 1_555 1_555
H7 C10 1_555 1_555
C11 C10 1_555 1_555
H8 C11 1_555 1_555
C12 C11 1_555 1_555
C13 C12 1_555 1_555
H9 C13 1_555 1_555
C14 C9 1_555 1_555
H10 C14 1_555 1_555
C1 C8 1_555 1_555
C6 C7 1_555 1_555
C7 C8 1_555 1_555
C13 C14 1_555 1_555

#END
