
#######################################################################
#
#                 Cambridge Crystallographic Data Centre
#                                CCDC 
#
#######################################################################
#
# If this CIF has been generated from an entry in the Cambridge 
# Structural Database, then it will include bibliographic, chemical, 
# crystal, experimental, refinement or atomic coordinate data resulting 
# from the CCDC's data processing and validation procedures.
#
#######################################################################

data_COMQUS
_chemical_formula_moiety         'C17 H12 Cl1 N1 O4 S1'
_chemical_name_systematic        
'10-(4-chlorophenyl)-9,10-dihydro-8H-pyrido[1,2-c][1,2,3]benzoxathiazin-8-one 6,6-dioxide'
_symmetry_cell_setting           monoclinic
_symmetry_space_group_name_H-M   'C 2'
_symmetry_Int_Tables_number      5
_space_group_name_Hall           'C 2y'
loop_
_symmetry_equiv_pos_site_id
_symmetry_equiv_pos_as_xyz
1 x,y,z
2 -x,y,-z
3 1/2+x,1/2+y,z
4 1/2-x,1/2+y,-z
_cell_length_a                   18.569(8)
_cell_length_b                   9.814(4)
_cell_length_c                   9.479(4)
_cell_angle_alpha                90
_cell_angle_beta                 113.236(4)
_cell_angle_gamma                90
_cell_volume                     1587.3
_exptl_crystal_colour            colorless
_exptl_crystal_description       block
_cell_formula_units_Z            4
loop_
_atom_site_label
_atom_site_type_symbol
_atom_site_fract_x
_atom_site_fract_y
_atom_site_fract_z
Cl1 Cl 0.39903(3) 0.52244(4) 0.88801(5)
S1 S 0.07192(2) 0.78411(4) -0.25200(4)
O1 O 0.22273(8) 0.88076(15) -0.07549(15)
O2 O 0.05449(8) 0.92326(13) -0.24339(15)
O3 O 0.09993(7) 0.73886(14) -0.36311(14)
O4 O -0.00486(6) 0.70413(12) -0.27020(13)
N1 N 0.13102(8) 0.72661(14) -0.07797(15)
C1 C 0.20409(9) 0.68753(17) 0.23471(18)
H1 H 0.1706 0.7645 0.2428
C2 C 0.25362(10) 0.7417(2) 0.1504(2)
H2 H 0.2870 0.8173 0.2105
H3 H 0.2885 0.6683 0.1430
C3 C 0.20382(9) 0.7919(2) -0.00828(18)
C4 C 0.11419(9) 0.60074(16) -0.01598(19)
C5 C 0.15001(9) 0.58035(17) 0.13481(19)
H4 H 0.1414 0.4983 0.1791
C6 C 0.06040(9) 0.50684(17) -0.12968(18)
C7 C 0.00232(9) 0.55957(17) -0.26081(19)
C8 C -0.05040(10) 0.4819(2) -0.3764(2)
H5 H -0.0889 0.5227 -0.4650
C9 C -0.04494(12) 0.3412(2) -0.3578(2)
H6 H -0.0804 0.2840 -0.4348
C10 C 0.01222(11) 0.2834(2) -0.2271(2)
H7 H 0.0150 0.1871 -0.2155
C11 C 0.06484(11) 0.36478(18) -0.1142(2)
H8 H 0.1040 0.3244 -0.0262
C12 C 0.25355(9) 0.64112(16) 0.39670(18)
C13 C 0.23618(11) 0.6907(2) 0.5168(2)
H9 H 0.1933 0.7515 0.4952
C14 C 0.28016(12) 0.6533(2) 0.6677(2)
H10 H 0.2673 0.6872 0.7488
C15 C 0.34244(10) 0.56671(17) 0.69797(19)
C16 C 0.36143(10) 0.51510(18) 0.5815(2)
H11 H 0.4048 0.4553 0.6043
C17 C 0.31613(10) 0.55189(18) 0.4299(2)
H12 H 0.3282 0.5156 0.3489
loop_
_geom_bond_atom_site_label_1
_geom_bond_atom_site_label_2
_geom_bond_site_symmetry_1
_geom_bond_site_symmetry_2
Cl1 C15 1_555 1_555
S1 O2 1_555 1_555
O1 C3 1_555 1_555
O3 S1 1_555 1_555
O4 S1 1_555 1_555
N1 S1 1_555 1_555
C1 H1 1_555 1_555
C2 C1 1_555 1_555
H2 C2 1_555 1_555
H3 C2 1_555 1_555
C3 N1 1_555 1_555
C4 N1 1_555 1_555
C5 C1 1_555 1_555
H4 C5 1_555 1_555
C6 C4 1_555 1_555
C7 O4 1_555 1_555
C8 C7 1_555 1_555
H5 C8 1_555 1_555
C9 C8 1_555 1_555
H6 C9 1_555 1_555
C10 C9 1_555 1_555
H7 C10 1_555 1_555
C11 C6 1_555 1_555
H8 C11 1_555 1_555
C12 C1 1_555 1_555
C13 C12 1_555 1_555
H9 C13 1_555 1_555
C14 C13 1_555 1_555
H10 C14 1_555 1_555
C15 C14 1_555 1_555
C16 C15 1_555 1_555
H11 C16 1_555 1_555
C17 C12 1_555 1_555
H12 C17 1_555 1_555
C2 C3 1_555 1_555
C4 C5 1_555 1_555
C6 C7 1_555 1_555
C10 C11 1_555 1_555
C16 C17 1_555 1_555

#END
