
#######################################################################
#
#                 Cambridge Crystallographic Data Centre
#                                CCDC 
#
#######################################################################
#
# If this CIF has been generated from an entry in the Cambridge 
# Structural Database, then it will include bibliographic, chemical, 
# crystal, experimental, refinement or atomic coordinate data resulting 
# from the CCDC's data processing and validation procedures.
#
#######################################################################

data_COMVIL
_chemical_formula_moiety         'C21 H48 P1 Si1 1+,C24 B1 F20 1-'
_chemical_name_systematic        
'Tri-t-butyl(tri-isopropylsilyl)phosphonium tetrakis(pentafluorophenyl)borate'
_symmetry_cell_setting           triclinic
_symmetry_space_group_name_H-M   'P -1'
_symmetry_Int_Tables_number      2
_space_group_name_Hall           '-P 1'
loop_
_symmetry_equiv_pos_site_id
_symmetry_equiv_pos_as_xyz
1 x,y,z
2 -x,-y,-z
_cell_length_a                   11.6772(5)
_cell_length_b                   12.5736(4)
_cell_length_c                   17.0286(6)
_cell_angle_alpha                79.442(3)
_cell_angle_beta                 75.102(3)
_cell_angle_gamma                77.292(3)
_cell_volume                     2335.61
_exptl_crystal_colour            colorless
_exptl_crystal_description       blocks
_cell_formula_units_Z            2
loop_
_atom_site_label
_atom_site_type_symbol
_atom_site_fract_x
_atom_site_fract_y
_atom_site_fract_z
P1 P 0.63835(3) 0.18276(3) 0.29135(2)
Si1 Si 0.66410(4) 0.18843(3) 0.14131(2)
C1 C 0.47438(14) 0.17627(14) 0.34808(10)
C2 C 0.44805(15) 0.06027(15) 0.35211(11)
H1 H 0.3643 0.0580 0.3811
H2 H 0.5023 0.0062 0.3814
H3 H 0.4609 0.0429 0.2964
C3 C 0.38524(15) 0.25627(17) 0.30293(12)
H4 H 0.3026 0.2511 0.3332
H5 H 0.3977 0.2372 0.2477
H6 H 0.3985 0.3316 0.2990
C4 C 0.44416(17) 0.20410(17) 0.43668(11)
H7 H 0.3597 0.1995 0.4623
H8 H 0.4571 0.2788 0.4356
H9 H 0.4965 0.1516 0.4683
C5 C 0.67998(17) 0.31192(13) 0.31342(11)
C6 C 0.5776(2) 0.41128(14) 0.30390(13)
H10 H 0.5991 0.4771 0.3152
H11 H 0.5029 0.3966 0.3426
H12 H 0.5659 0.4231 0.2478
C7 C 0.6988(2) 0.30100(17) 0.40110(13)
H13 H 0.7197 0.3690 0.4090
H14 H 0.7642 0.2392 0.4092
H15 H 0.6243 0.2879 0.4409
C8 C 0.79618(19) 0.33931(16) 0.25361(13)
H16 H 0.8149 0.4055 0.2665
H17 H 0.7849 0.3523 0.1973
H18 H 0.8628 0.2776 0.2589
C9 C 0.74068(13) 0.05598(12) 0.33314(10)
C10 C 0.70806(17) 0.02771(15) 0.42701(11)
H19 H 0.7640 -0.0378 0.4439
H20 H 0.6256 0.0132 0.4446
H21 H 0.7138 0.0897 0.4524
C11 C 0.87184(14) 0.07341(14) 0.30782(12)
H22 H 0.9238 0.0082 0.3294
H23 H 0.8785 0.1378 0.3300
H24 H 0.8970 0.0853 0.2479
C12 C 0.73660(15) -0.04583(13) 0.29615(11)
H25 H 0.7894 -0.1100 0.3181
H26 H 0.7640 -0.0327 0.2364
H27 H 0.6538 -0.0595 0.3105
C13 C 0.82643(15) 0.12349(15) 0.09511(11)
H28 H 0.8451 0.0523 0.1307
C14 C 0.92843(17) 0.1868(2) 0.08758(13)
H29 H 1.0057 0.1434 0.0630
H30 H 0.9305 0.1999 0.1422
H31 H 0.9140 0.2574 0.0528
C15 C 0.83364(19) 0.09398(19) 0.00936(12)
H32 H 0.9167 0.0607 -0.0144
H33 H 0.8086 0.1609 -0.0264
H34 H 0.7802 0.0417 0.0146
C16 C 0.55294(16) 0.10766(17) 0.12467(11)
H35 H 0.4750 0.1300 0.1640
C17 C 0.5824(2) -0.01823(18) 0.14032(13)
H36 H 0.5185 -0.0488 0.1296
H37 H 0.5882 -0.0418 0.1975
H38 H 0.6594 -0.0446 0.1039
C18 C 0.5275(2) 0.1428(2) 0.03779(13)
H39 H 0.4705 0.1005 0.0308
H40 H 0.6029 0.1287 -0.0035
H41 H 0.4929 0.2214 0.0311
C19 C 0.62841(18) 0.34147(16) 0.09959(12)
H42 H 0.6616 0.3808 0.1323
C20 C 0.6935(2) 0.3693(2) 0.01027(14)
H43 H 0.6717 0.4483 -0.0073
H44 H 0.6697 0.3279 -0.0245
H45 H 0.7808 0.3495 0.0054
C21 C 0.4946(2) 0.3951(2) 0.10938(14)
H46 H 0.4881 0.4729 0.0860
H47 H 0.4546 0.3892 0.1677
H48 H 0.4559 0.3575 0.0807
B1 B 0.22697(15) 0.75264(13) 0.30517(10)
C22 C 0.19863(13) 0.88787(12) 0.30103(10)
C23 C 0.22506(15) 0.95295(14) 0.22575(11)
F1 F 0.27369(10) 0.90392(9) 0.15727(6)
C24 C 0.20292(16) 1.06676(15) 0.21430(13)
F2 F 0.22728(12) 1.12291(11) 0.13865(9)
C25 C 0.15346(16) 1.12158(14) 0.28133(15)
F3 F 0.12607(12) 1.23196(9) 0.27237(12)
C26 C 0.13195(15) 1.06213(14) 0.35786(14)
F4 F 0.08559(12) 1.11443(10) 0.42456(10)
C27 C 0.15516(13) 0.94814(13) 0.36672(10)
F5 F 0.13138(9) 0.89818(8) 0.44456(6)
C28 C 0.16688(13) 0.68827(12) 0.39543(9)
C29 C 0.04331(14) 0.71647(12) 0.42800(9)
F6 F -0.02336(8) 0.79920(8) 0.38735(6)
C30 C -0.01854(14) 0.66592(13) 0.50047(10)
F7 F -0.13782(9) 0.69826(9) 0.52722(7)
C31 C 0.04302(16) 0.58014(14) 0.54509(10)
F8 F -0.01450(12) 0.53027(10) 0.61611(6)
C32 C 0.16441(16) 0.54551(13) 0.51470(10)
F9 F 0.22557(11) 0.46082(9) 0.55666(7)
C33 C 0.22261(14) 0.59927(12) 0.44185(10)
F10 F 0.34165(9) 0.55849(8) 0.41834(6)
C34 C 0.37597(14) 0.72553(12) 0.28206(9)
C35 C 0.43817(14) 0.74385(13) 0.33637(10)
F11 F 0.37583(9) 0.77980(8) 0.40821(6)
C36 C 0.56195(15) 0.72677(13) 0.32410(12)
F12 F 0.61414(10) 0.74186(10) 0.38203(8)
C37 C 0.63227(16) 0.69275(15) 0.25155(13)
F13 F 0.75256(10) 0.67353(12) 0.23899(10)
C38 C 0.57673(17) 0.67735(15) 0.19396(12)
F14 F 0.64301(12) 0.64374(13) 0.12272(9)
C39 C 0.45156(16) 0.69367(13) 0.20958(10)
F15 F 0.40582(11) 0.67633(10) 0.14894(6)
C40 C 0.16409(14) 0.70884(13) 0.24334(9)
C41 C 0.19166(16) 0.59723(14) 0.23427(10)
F16 F 0.27692(10) 0.53050(8) 0.27017(7)
C42 C 0.13701(19) 0.54844(15) 0.19145(12)
F17 F 0.17122(14) 0.44022(10) 0.18503(9)
C43 C 0.04807(19) 0.61055(18) 0.15462(12)
F18 F -0.00602(14) 0.56520(13) 0.11172(9)
C44 C 0.01568(16) 0.72137(16) 0.16137(10)
F19 F -0.07043(10) 0.78481(11) 0.12541(7)
C45 C 0.07307(15) 0.76711(14) 0.20520(10)
F20 F 0.03302(9) 0.87605(8) 0.20851(6)
loop_
_geom_bond_atom_site_label_1
_geom_bond_atom_site_label_2
_geom_bond_site_symmetry_1
_geom_bond_site_symmetry_2
P1 Si1 1_555 1_555
Si1 C13 1_555 1_555
C1 P1 1_555 1_555
C2 C1 1_555 1_555
H1 C2 1_555 1_555
H2 C2 1_555 1_555
H3 C2 1_555 1_555
C3 C1 1_555 1_555
H4 C3 1_555 1_555
H5 C3 1_555 1_555
H6 C3 1_555 1_555
C4 C1 1_555 1_555
H7 C4 1_555 1_555
H8 C4 1_555 1_555
H9 C4 1_555 1_555
C5 P1 1_555 1_555
C6 C5 1_555 1_555
H10 C6 1_555 1_555
H11 C6 1_555 1_555
H12 C6 1_555 1_555
C7 C5 1_555 1_555
H13 C7 1_555 1_555
H14 C7 1_555 1_555
H15 C7 1_555 1_555
C8 C5 1_555 1_555
H16 C8 1_555 1_555
H17 C8 1_555 1_555
H18 C8 1_555 1_555
C9 P1 1_555 1_555
C10 C9 1_555 1_555
H19 C10 1_555 1_555
H20 C10 1_555 1_555
H21 C10 1_555 1_555
C11 C9 1_555 1_555
H22 C11 1_555 1_555
H23 C11 1_555 1_555
H24 C11 1_555 1_555
C12 C9 1_555 1_555
H25 C12 1_555 1_555
H26 C12 1_555 1_555
H27 C12 1_555 1_555
C13 H28 1_555 1_555
C14 C13 1_555 1_555
H29 C14 1_555 1_555
H30 C14 1_555 1_555
H31 C14 1_555 1_555
C15 C13 1_555 1_555
H32 C15 1_555 1_555
H33 C15 1_555 1_555
H34 C15 1_555 1_555
C16 Si1 1_555 1_555
H35 C16 1_555 1_555
C17 C16 1_555 1_555
H36 C17 1_555 1_555
H37 C17 1_555 1_555
H38 C17 1_555 1_555
C18 C16 1_555 1_555
H39 C18 1_555 1_555
H40 C18 1_555 1_555
H41 C18 1_555 1_555
C19 Si1 1_555 1_555
H42 C19 1_555 1_555
C20 C19 1_555 1_555
H43 C20 1_555 1_555
H44 C20 1_555 1_555
H45 C20 1_555 1_555
C21 C19 1_555 1_555
H46 C21 1_555 1_555
H47 C21 1_555 1_555
H48 C21 1_555 1_555
B1 C22 1_555 1_555
C22 C23 1_555 1_555
C23 F1 1_555 1_555
C24 C23 1_555 1_555
F2 C24 1_555 1_555
C25 C24 1_555 1_555
F3 C25 1_555 1_555
C26 C25 1_555 1_555
F4 C26 1_555 1_555
C27 C22 1_555 1_555
F5 C27 1_555 1_555
C28 B1 1_555 1_555
C29 C28 1_555 1_555
F6 C29 1_555 1_555
C30 C29 1_555 1_555
F7 C30 1_555 1_555
C31 C30 1_555 1_555
F8 C31 1_555 1_555
C32 C31 1_555 1_555
F9 C32 1_555 1_555
C33 C28 1_555 1_555
F10 C33 1_555 1_555
C34 B1 1_555 1_555
C35 C34 1_555 1_555
F11 C35 1_555 1_555
C36 C35 1_555 1_555
F12 C36 1_555 1_555
C37 C36 1_555 1_555
F13 C37 1_555 1_555
C38 C37 1_555 1_555
F14 C38 1_555 1_555
C39 C34 1_555 1_555
F15 C39 1_555 1_555
C40 B1 1_555 1_555
C41 C40 1_555 1_555
F16 C41 1_555 1_555
C42 C41 1_555 1_555
F17 C42 1_555 1_555
C43 C42 1_555 1_555
F18 C43 1_555 1_555
C44 C43 1_555 1_555
F19 C44 1_555 1_555
C45 C40 1_555 1_555
F20 C45 1_555 1_555
C26 C27 1_555 1_555
C32 C33 1_555 1_555
C38 C39 1_555 1_555
C44 C45 1_555 1_555

#END
