
#######################################################################
#
#                 Cambridge Crystallographic Data Centre
#                                CCDC 
#
#######################################################################
#
# If this CIF has been generated from an entry in the Cambridge 
# Structural Database, then it will include bibliographic, chemical, 
# crystal, experimental, refinement or atomic coordinate data resulting 
# from the CCDC's data processing and validation procedures.
#
#######################################################################

data_CONCUF
_chemical_formula_moiety         'C36 H36 N24 O12,C18 H18 N4,16(H2 O1)'
_chemical_name_systematic        
"cucurbit(6)uril 2,2'-butane-1,4-diylbis(1H-benzimidazole) hexadecahydrate"
_symmetry_cell_setting           monoclinic
_symmetry_space_group_name_H-M   'P 21/c'
_symmetry_Int_Tables_number      14
_space_group_name_Hall           '-P 2ybc'
loop_
_symmetry_equiv_pos_site_id
_symmetry_equiv_pos_as_xyz
1 x,y,z
2 -x,1/2+y,1/2-z
3 -x,-y,-z
4 x,1/2-y,1/2+z
_cell_length_a                   12.355(16)
_cell_length_b                   19.33(3)
_cell_length_c                   15.76(2)
_cell_angle_alpha                90
_cell_angle_beta                 106.246(18)
_cell_angle_gamma                90
_cell_volume                     3613.54
_cell_formula_units_Z            2
loop_
_atom_site_label
_atom_site_type_symbol
_atom_site_fract_x
_atom_site_fract_y
_atom_site_fract_z
O1 O 0.3203(5) -0.3463(3) 0.4906(4)
O2 O 0.4331(4) -0.1757(2) 0.8823(3)
O3 O 0.3886(4) 0.0071(2) 0.2311(3)
O4 O 0.5416(4) 0.1807(2) 0.6446(3)
O5 O 0.6119(4) 0.1342(2) 0.8152(4)
O6 O -0.0959(9) -0.3548(4) 0.5017(4)
O7 O 0.5542(7) -0.0642(4) 1.0154(4)
O8 O 0.3328(13) 0.0980(6) 0.0736(6)
O9 O 0.1113(10) -0.4308(5) 0.5319(6)
C1 C -0.1678(5) -0.1738(3) 0.3138(4)
C2 C -0.0627(4) -0.1565(2) 0.2122(3)
H1 H -0.0574 -0.1894 0.1663
C3 C -0.0181(5) -0.0399(3) 0.2021(3)
C4 C 0.0058(4) -0.2438(2) 0.3410(4)
H2 H 0.0335 -0.2715 0.3001
H3 H -0.0352 -0.2743 0.3699
C5 C 0.1461(5) -0.1189(3) 0.2478(4)
H4 H 0.1829 -0.0812 0.2262
H5 H 0.1570 -0.1606 0.2171
C6 C 0.1111(5) -0.2156(2) 0.4965(4)
C7 C 0.2060(4) -0.1930(3) 0.3891(4)
H6 H 0.2364 -0.2298 0.3596
C8 C 0.2867(5) -0.1768(3) 0.4822(3)
H7 H 0.3533 -0.2067 0.4964
C9 C 0.2697(5) -0.0775(3) 0.3923(4)
C10 C 0.2606(5) -0.1947(2) 0.6378(4)
H8 H 0.2113 -0.2242 0.6601
H9 H 0.3341 -0.2167 0.6517
C11 C 0.4056(4) -0.0700(3) 0.5414(4)
H10 H 0.4342 -0.0324 0.5132
H11 H 0.4669 -0.1024 0.5638
C12 C 0.2076(5) -0.1109(3) 0.7383(4)
C13 C 0.3690(4) -0.0827(2) 0.6935(3)
H12 H 0.4399 -0.1078 0.7173
C14 C 0.3506(4) -0.0277(2) 0.7600(4)
H13 H 0.4130 -0.0273 0.8144
C15 C 0.3654(4) 0.0276(3) 0.6304(4)
C16 C 0.2039(5) -0.0186(3) 0.8465(4)
H14 H 0.2680 -0.0058 0.8954
H15 H 0.1615 -0.0536 0.8677
C17 C 0.3402(4) 0.1047(2) 0.7492(4)
H16 H 0.3721 0.1386 0.7177
H17 H 0.3865 0.1039 0.8100
C18 C 0.1734(4) 0.1128(2) 0.8174(3)
H18 H 0.2213 0.1273 0.8754
N1 N -0.0714(4) -0.1919(2) 0.2913(3)
N2 N 0.1017(3) -0.2146(2) 0.4075(3)
N3 N 0.0259(4) -0.1043(2) 0.2268(3)
N4 N 0.1997(4) -0.1278(2) 0.3424(3)
N5 N 0.2157(4) -0.1890(2) 0.5416(3)
N6 N 0.2714(4) -0.12816(19) 0.6826(3)
N7 N 0.3162(4) -0.10466(19) 0.4758(3)
N8 N 0.3705(3) -0.04240(19) 0.6157(3)
N9 N 0.2448(3) -0.0483(2) 0.7767(3)
N10 N 0.1322(4) 0.0423(2) 0.8191(3)
N11 N 0.3448(3) 0.03735(19) 0.7103(3)
N12 N 0.2262(4) 0.1264(2) 0.7473(3)
O10 O -0.1975(3) -0.19720(17) 0.3764(2)
O11 O 0.0390(3) -0.23544(19) 0.5316(3)
O12 O 0.1280(3) -0.14488(18) 0.7489(2)
O13 O 0.0396(3) 0.01302(18) 0.2012(2)
O14 O 0.2880(3) -0.01983(18) 0.3674(3)
O15 O 0.3772(3) 0.07329(18) 0.5793(2)
C1B C 0.1678(5) 0.1738(3) 0.6862(4)
C2B C 0.0627(4) 0.1565(2) 0.7878(3)
H1B H 0.0574 0.1894 0.8337
C3B C 0.0181(5) 0.0399(3) 0.7979(3)
C4B C -0.0058(4) 0.2438(2) 0.6590(4)
H2B H -0.0335 0.2715 0.6999
H3B H 0.0352 0.2743 0.6301
C5B C -0.1461(5) 0.1189(3) 0.7522(4)
H4B H -0.1829 0.0812 0.7738
H5B H -0.1570 0.1606 0.7829
C6B C -0.1111(5) 0.2156(2) 0.5035(4)
C7B C -0.2060(4) 0.1930(3) 0.6109(4)
H6B H -0.2364 0.2298 0.6404
C8B C -0.2867(5) 0.1768(3) 0.5178(3)
H7B H -0.3533 0.2067 0.5036
C9B C -0.2697(5) 0.0775(3) 0.6077(4)
C10B C -0.2606(5) 0.1947(2) 0.3622(4)
H8B H -0.2113 0.2242 0.3399
H9B H -0.3341 0.2167 0.3483
C11B C -0.4056(4) 0.0700(3) 0.4586(4)
H10B H -0.4342 0.0324 0.4868
H11B H -0.4669 0.1024 0.4362
C12B C -0.2076(5) 0.1109(3) 0.2617(4)
C13B C -0.3690(4) 0.0827(2) 0.3065(3)
H12B H -0.4399 0.1078 0.2827
C14B C -0.3506(4) 0.0277(2) 0.2400(4)
H13B H -0.4130 0.0273 0.1856
C15B C -0.3654(4) -0.0276(3) 0.3696(4)
C16B C -0.2039(5) 0.0186(3) 0.1535(4)
H14B H -0.2680 0.0058 0.1046
H15B H -0.1615 0.0536 0.1323
C17B C -0.3402(4) -0.1047(2) 0.2508(4)
H16B H -0.3721 -0.1386 0.2823
H17B H -0.3865 -0.1039 0.1900
C18B C -0.1734(4) -0.1128(2) 0.1826(3)
H18B H -0.2213 -0.1273 0.1246
N1B N 0.0714(4) 0.1919(2) 0.7087(3)
N2B N -0.1017(3) 0.2146(2) 0.5925(3)
N3B N -0.0259(4) 0.1043(2) 0.7732(3)
N4B N -0.1997(4) 0.1278(2) 0.6576(3)
N5B N -0.2157(4) 0.1890(2) 0.4584(3)
N6B N -0.2714(4) 0.12816(19) 0.3174(3)
N7B N -0.3162(4) 0.10466(19) 0.5242(3)
N8B N -0.3705(3) 0.04240(19) 0.3843(3)
N9B N -0.2448(3) 0.0483(2) 0.2233(3)
N10B N -0.1322(4) -0.0423(2) 0.1809(3)
N11B N -0.3448(3) -0.03735(19) 0.2897(3)
N12B N -0.2262(4) -0.1264(2) 0.2527(3)
O10B O 0.1975(3) 0.19720(17) 0.6236(2)
O11B O -0.0390(3) 0.23544(19) 0.4684(3)
O12B O -0.1280(3) 0.14488(18) 0.2511(2)
O13B O -0.0396(3) -0.01302(18) 0.7988(2)
O14B O -0.2880(3) 0.01983(18) 0.6326(3)
O15B O -0.3772(3) -0.07329(18) 0.4207(2)
C19 C 0.2322(5) 0.1539(2) 0.3313(4)
C20 C 0.2941(5) 0.1714(3) 0.2718(4)
H19 H 0.2780 0.1520 0.2157
C21 C 0.3805(5) 0.2193(3) 0.3013(4)
H20 H 0.4233 0.2323 0.2638
C22 C 0.4050(5) 0.2487(3) 0.3868(5)
H21 H 0.4639 0.2802 0.4045
C23 C 0.3427(5) 0.2315(3) 0.4447(4)
H22 H 0.3573 0.2514 0.5005
C24 C 0.2573(5) 0.1829(3) 0.4148(4)
C25 C 0.1146(5) 0.1094(3) 0.3999(4)
C26 C 0.0218(5) 0.0671(3) 0.4173(4)
H23 H -0.0367 0.0984 0.4237
H24 H -0.0105 0.0388 0.3655
C27 C 0.0517(5) 0.0213(3) 0.4950(5)
H25 H 0.0815 0.0490 0.5477
H26 H 0.1104 -0.0104 0.4897
N13 N 0.1427(4) 0.1095(2) 0.3252(3)
N14 N 0.1821(4) 0.1544(2) 0.4567(3)
H27 H 0.1792 0.1638 0.5093
C19B C -0.2322(5) -0.1539(2) 0.6687(4)
C20B C -0.2941(5) -0.1714(3) 0.7282(4)
H19B H -0.2780 -0.1520 0.7843
C21B C -0.3805(5) -0.2193(3) 0.6987(4)
H20B H -0.4233 -0.2323 0.7362
C22B C -0.4050(5) -0.2487(3) 0.6132(5)
H21B H -0.4639 -0.2802 0.5955
C23B C -0.3427(5) -0.2315(3) 0.5553(4)
H22B H -0.3573 -0.2514 0.4995
C24B C -0.2573(5) -0.1829(3) 0.5852(4)
C25B C -0.1146(5) -0.1094(3) 0.6001(4)
C26B C -0.0218(5) -0.0671(3) 0.5827(4)
H23B H 0.0367 -0.0984 0.5763
H24B H 0.0105 -0.0388 0.6345
C27B C -0.0517(5) -0.0213(3) 0.5050(5)
H25B H -0.0815 -0.0490 0.4523
H26B H -0.1104 0.0104 0.5103
N13B N -0.1427(4) -0.1095(2) 0.6748(3)
N14B N -0.1821(4) -0.1544(2) 0.5433(3)
H27B H -0.1792 -0.1638 0.4907
O16? O 0.2641(14) -0.3451(7) 0.5092(11)
O17? O 0.2460(13) 0.0613(7) 0.0762(7)
H28? H 0.1100 0.0854 0.2793
loop_
_geom_bond_atom_site_label_1
_geom_bond_atom_site_label_2
_geom_bond_site_symmetry_1
_geom_bond_site_symmetry_2
C1 N1 1_555 1_555
C2 H1 1_555 1_555
C3 N3 1_555 1_555
C4 H2 1_555 1_555
H3 C4 1_555 1_555
C5 H4 1_555 1_555
H5 C5 1_555 1_555
C6 N2 1_555 1_555
C7 H6 1_555 1_555
C8 C7 1_555 1_555
H7 C8 1_555 1_555
C9 N4 1_555 1_555
C10 H8 1_555 1_555
H9 C10 1_555 1_555
C11 H10 1_555 1_555
H11 C11 1_555 1_555
C12 N6 1_555 1_555
C13 H12 1_555 1_555
C14 C13 1_555 1_555
H13 C14 1_555 1_555
C15 N8 1_555 1_555
C16 H14 1_555 1_555
H15 C16 1_555 1_555
C17 H16 1_555 1_555
H17 C17 1_555 1_555
C18 H18 1_555 1_555
N1 C2 1_555 1_555
N2 C4 1_555 1_555
N3 C2 1_555 1_555
N4 C5 1_555 1_555
N5 C6 1_555 1_555
N6 C10 1_555 1_555
N7 C8 1_555 1_555
N8 C11 1_555 1_555
N9 C12 1_555 1_555
N10 C16 1_555 1_555
N11 C14 1_555 1_555
N12 C17 1_555 1_555
O10 C1 1_555 1_555
O11 C6 1_555 1_555
O12 C12 1_555 1_555
O13 C3 1_555 1_555
O14 C9 1_555 1_555
O15 C15 1_555 1_555
C19 C20 1_555 1_555
C20 H19 1_555 1_555
C21 C20 1_555 1_555
H20 C21 1_555 1_555
C22 C21 1_555 1_555
H21 C22 1_555 1_555
C23 C22 1_555 1_555
H22 C23 1_555 1_555
C24 C19 1_555 1_555
C25 C26 1_555 1_555
C26 H23 1_555 1_555
H24 C26 1_555 1_555
C27 C26 1_555 1_555
H25 C27 1_555 1_555
H26 C27 1_555 1_555
N13 C19 1_555 1_555
N14 C24 1_555 1_555
H27 N14 1_555 1_555
C1B N12 1_555 1_555
C2B C18 1_555 1_555
H1B C2B 1_555 1_555
C3B N10 1_555 1_555
C4B H2B 1_555 1_555
H3B C4B 1_555 1_555
C5B H4B 1_555 1_555
H5B C5B 1_555 1_555
C6B N2B 1_555 1_555
C7B H6B 1_555 1_555
C8B C7B 1_555 1_555
H7B C8B 1_555 1_555
C9B N4B 1_555 1_555
C10B H8B 1_555 1_555
H9B C10B 1_555 1_555
C11B H10B 1_555 1_555
H11B C11B 1_555 1_555
C12B N6B 1_555 1_555
C13B H12B 1_555 1_555
C14B C13B 1_555 1_555
H13B C14B 1_555 1_555
C15B N8B 1_555 1_555
C16B H14B 1_555 1_555
H15B C16B 1_555 1_555
C17B H16B 1_555 1_555
H17B C17B 1_555 1_555
C18B C2 1_555 1_555
H18B C18B 1_555 1_555
N1B C1B 1_555 1_555
N2B C4B 1_555 1_555
N3B C2B 1_555 1_555
N4B C5B 1_555 1_555
N5B C6B 1_555 1_555
N6B C10B 1_555 1_555
N7B C8B 1_555 1_555
N8B C11B 1_555 1_555
N9B C12B 1_555 1_555
N10B C3 1_555 1_555
N11B C14B 1_555 1_555
N12B C1 1_555 1_555
O10B C1B 1_555 1_555
O11B C6B 1_555 1_555
O12B C12B 1_555 1_555
O13B C3B 1_555 1_555
O14B C9B 1_555 1_555
O15B C15B 1_555 1_555
C19B C20B 1_555 1_555
C20B H19B 1_555 1_555
C21B C20B 1_555 1_555
H20B C21B 1_555 1_555
C22B C21B 1_555 1_555
H21B C22B 1_555 1_555
C23B C22B 1_555 1_555
H22B C23B 1_555 1_555
C24B C19B 1_555 1_555
C25B C26B 1_555 1_555
C26B H23B 1_555 1_555
H24B C26B 1_555 1_555
C27B C27 1_555 1_555
H25B C27B 1_555 1_555
H26B C27B 1_555 1_555
N13B C19B 1_555 1_555
N14B C24B 1_555 1_555
H27B N14B 1_555 1_555
C4 N1 1_555 1_555
C5 N3 1_555 1_555
C7 N2 1_555 1_555
C7 N4 1_555 1_555
C8 N5 1_555 1_555
C9 N7 1_555 1_555
C10 N5 1_555 1_555
C11 N7 1_555 1_555
C13 N6 1_555 1_555
C13 N8 1_555 1_555
C14 N9 1_555 1_555
C15 N11 1_555 1_555
C16 N9 1_555 1_555
C17 N11 1_555 1_555
C18 N10 1_555 1_555
C18 N12 1_555 1_555
C23 C24 1_555 1_555
C25 N13 1_555 1_555
C25 N14 1_555 1_555
C2B N1B 1_555 1_555
C3B N3B 1_555 1_555
C4B N1B 1_555 1_555
C5B N3B 1_555 1_555
C7B N2B 1_555 1_555
C7B N4B 1_555 1_555
C8B N5B 1_555 1_555
C9B N7B 1_555 1_555
C10B N5B 1_555 1_555
C11B N7B 1_555 1_555
C13B N6B 1_555 1_555
C13B N8B 1_555 1_555
C14B N9B 1_555 1_555
C15B N11B 1_555 1_555
C16B N9B 1_555 1_555
C16B N10B 1_555 1_555
C17B N11B 1_555 1_555
C17B N12B 1_555 1_555
C18B N10B 1_555 1_555
C18B N12B 1_555 1_555
C23B C24B 1_555 1_555
C25B N13B 1_555 1_555
C25B N14B 1_555 1_555
C26B C27B 1_555 1_555

#END
