
#######################################################################
#
#                 Cambridge Crystallographic Data Centre
#                                CCDC 
#
#######################################################################
#
# If this CIF has been generated from an entry in the Cambridge 
# Structural Database, then it will include bibliographic, chemical, 
# crystal, experimental, refinement or atomic coordinate data resulting 
# from the CCDC's data processing and validation procedures.
#
#######################################################################

data_CONJAS
_chemical_formula_moiety         'C17 H13 N2 O2 1+,0.5(C10 H4 O8 2-)'
_chemical_name_systematic        
'1-(3-carboxyphenyl)-4-(pyridin-4-yl)pyridinium hemikis(2,5-dicarboxyterephthalate)'
_symmetry_cell_setting           monoclinic
_symmetry_space_group_name_H-M   'P 21/c'
_symmetry_Int_Tables_number      14
_space_group_name_Hall           '-P 2ybc'
loop_
_symmetry_equiv_pos_site_id
_symmetry_equiv_pos_as_xyz
1 x,y,z
2 -x,1/2+y,1/2-z
3 -x,-y,-z
4 x,1/2-y,1/2+z
_cell_length_a                   8.9819(18)
_cell_length_b                   12.923(3)
_cell_length_c                   15.042(3)
_cell_angle_alpha                90
_cell_angle_beta                 97.40(3)
_cell_angle_gamma                90
_cell_volume                     1731.43
_exptl_crystal_colour            yellow
_exptl_crystal_description       block
_cell_formula_units_Z            4
loop_
_atom_site_label
_atom_site_type_symbol
_atom_site_fract_x
_atom_site_fract_y
_atom_site_fract_z
O1 O 0.2063(3) -0.30780(14) 0.21856(13)
H1 H 0.246(4) -0.3732(16) 0.219(2)
O2 O 0.3699(3) -0.27575(14) 0.33945(12)
N1 N 0.3274(3) 0.12655(14) 0.33330(12)
N2 N 0.7697(3) 0.55363(15) 0.48425(15)
C1 C 0.2701(3) -0.24881(18) 0.28299(16)
C2 C 0.2062(3) -0.14236(17) 0.27669(15)
C3 C 0.0629(3) -0.12410(18) 0.23375(17)
H2 H 0.0053 -0.1791 0.2086
C4 C 0.0053(3) -0.02602(19) 0.22789(17)
H3 H -0.0927 -0.0150 0.2012
C5 C 0.0923(3) 0.05651(19) 0.26153(17)
H4 H 0.0545 0.1236 0.2566
C6 C 0.2944(3) -0.06038(17) 0.31256(15)
H5 H 0.3902 -0.0715 0.3426
C7 C 0.2349(3) 0.03826(17) 0.30219(15)
C8 C 0.3288(3) 0.21128(18) 0.28006(16)
H6 H 0.2713 0.2119 0.2240
C9 C 0.4084(3) 0.12568(18) 0.41456(16)
H7 H 0.4056 0.0678 0.4510
C10 C 0.4134(3) 0.29512(18) 0.30789(16)
H8 H 0.4128 0.3528 0.2709
C11 C 0.4948(3) 0.20829(18) 0.44465(16)
H9 H 0.5502 0.2065 0.5013
C12 C 0.5004(3) 0.29558(17) 0.39068(15)
C13 C 0.5953(3) 0.38512(17) 0.42139(15)
C14 C 0.5567(3) 0.48486(17) 0.39317(16)
H10 H 0.4719 0.4967 0.3520
C15 C 0.7258(3) 0.37275(18) 0.47977(17)
H11 H 0.7567 0.3070 0.4994
C16 C 0.6453(4) 0.56569(19) 0.42685(17)
H12 H 0.6170 0.6324 0.4087
C17 C 0.8095(4) 0.45751(19) 0.50871(18)
H13 H 0.8981 0.4476 0.5471
O3 O 0.1206(2) 0.23881(12) -0.03261(11)
H14 H 0.144(3) 0.1749(15) -0.0182(17)
O4 O 0.0782(3) 0.24789(14) 0.10863(12)
O5 O 0.3156(2) 0.52224(13) 0.18598(12)
O6 O 0.3474(3) 0.38493(16) 0.10482(12)
C18 C 0.0871(3) 0.28843(18) 0.03784(16)
C19 C 0.0473(3) 0.39950(16) 0.01832(14)
C20 C 0.1298(3) 0.48075(17) 0.06092(14)
C21 C -0.0798(3) 0.41925(17) -0.04137(15)
H15 H -0.1333 0.3639 -0.0692
C22 C 0.2747(3) 0.46172(18) 0.12155(16)
O3B O -0.1206(2) 0.76119(12) 0.03261(11)
H14B H -0.144(3) 0.8251(15) 0.0182(17)
O4B O -0.0782(3) 0.75211(14) -0.10863(12)
O5B O -0.3156(2) 0.47776(13) -0.18598(12)
O6B O -0.3474(3) 0.61507(16) -0.10482(12)
C18B C -0.0871(3) 0.71157(18) -0.03784(16)
C19B C -0.0473(3) 0.60050(16) -0.01832(14)
C20B C -0.1298(3) 0.51925(17) -0.06092(14)
C21B C 0.0798(3) 0.58075(17) 0.04137(15)
H15B H 0.1333 0.6361 0.0692
C22B C -0.2747(3) 0.53828(18) -0.12155(16)
loop_
_geom_bond_atom_site_label_1
_geom_bond_atom_site_label_2
_geom_bond_site_symmetry_1
_geom_bond_site_symmetry_2
O1 H1 1_555 1_555
O2 C1 1_555 1_555
N1 C7 1_555 1_555
N2 C16 1_555 1_555
C1 O1 1_555 1_555
C2 C1 1_555 1_555
C3 C2 1_555 1_555
H2 C3 1_555 1_555
C4 C3 1_555 1_555
H3 C4 1_555 1_555
C5 C4 1_555 1_555
H4 C5 1_555 1_555
C6 C2 1_555 1_555
H5 C6 1_555 1_555
C7 C5 1_555 1_555
C8 N1 1_555 1_555
H6 C8 1_555 1_555
C9 N1 1_555 1_555
H7 C9 1_555 1_555
C10 C8 1_555 1_555
H8 C10 1_555 1_555
C11 C9 1_555 1_555
H9 C11 1_555 1_555
C12 C10 1_555 1_555
C13 C12 1_555 1_555
C14 C13 1_555 1_555
H10 C14 1_555 1_555
C15 C13 1_555 1_555
H11 C15 1_555 1_555
C16 C14 1_555 1_555
H12 C16 1_555 1_555
C17 N2 1_555 1_555
H13 C17 1_555 1_555
O3 H14 1_555 1_555
O4 C18 1_555 1_555
O5 C22 1_555 1_555
O6 C22 1_555 1_555
C18 O3 1_555 1_555
C19 C18 1_555 1_555
C20 C19 1_555 1_555
C21 C19 1_555 1_555
H15 C21 1_555 1_555
C22 C20 1_555 1_555
O3B H14B 1_555 1_555
O4B C18B 1_555 1_555
O5B C22B 1_555 1_555
O6B C22B 1_555 1_555
C18B O3B 1_555 1_555
C19B C18B 1_555 1_555
C20B C21 1_555 1_555
C21B C20 1_555 1_555
H15B C21B 1_555 1_555
C22B C20B 1_555 1_555
C6 C7 1_555 1_555
C11 C12 1_555 1_555
C15 C17 1_555 1_555
C19B C20B 1_555 1_555
C19B C21B 1_555 1_555

#END
