
#######################################################################
#
#                 Cambridge Crystallographic Data Centre
#                                CCDC 
#
#######################################################################
#
# If this CIF has been generated from an entry in the Cambridge 
# Structural Database, then it will include bibliographic, chemical, 
# crystal, experimental, refinement or atomic coordinate data resulting 
# from the CCDC's data processing and validation procedures.
#
#######################################################################

data_COPKUN
_chemical_formula_moiety         'C25 H50 Si5'
_chemical_name_systematic        
Pentaspiro(cyclopentamethylene)-cyclopentasilane
_symmetry_cell_setting           monoclinic
_symmetry_space_group_name_H-M   'P 21/c'
_symmetry_Int_Tables_number      14
_space_group_name_Hall           '-P 2ybc'
loop_
_symmetry_equiv_pos_site_id
_symmetry_equiv_pos_as_xyz
1 x,y,z
2 -x,1/2+y,1/2-z
3 -x,-y,-z
4 x,1/2-y,1/2+z
_cell_length_a                   13.310(2)
_cell_length_b                   14.762(2)
_cell_length_c                   14.968(2)
_cell_angle_alpha                90
_cell_angle_beta                 103.39(1)
_cell_angle_gamma                90
_cell_volume                     2861
_exptl_crystal_colour            colorless
_chemical_melting_point          110-110.5deg.C
_cell_formula_units_Z            4
loop_
_atom_site_label
_atom_site_type_symbol
_atom_site_fract_x
_atom_site_fract_y
_atom_site_fract_z
Si1 Si 0.642194(23) 0.364286(22) 0.321446(22)
Si2 Si 0.725199(23) 0.240693(21) 0.268502(21)
Si3 Si 0.855708(23) 0.304834(21) 0.204616(22)
Si4 Si 0.795205(23) 0.453808(21) 0.171993(22)
Si5 Si 0.747344(23) 0.489665(21) 0.310100(21)
C1 C 0.61107(10) 0.33591(9) 0.43548(8)
C2 C 0.52110(11) 0.26780(9) 0.42167(9)
C3 C 0.42261(10) 0.30315(9) 0.35795(10)
C4 C 0.42978(9) 0.31578(9) 0.25837(9)
C5 C 0.50910(9) 0.38735(9) 0.24623(9)
C6 C 0.79152(10) 0.16378(9) 0.36524(9)
C7 C 0.82394(10) 0.07431(10) 0.32764(11)
C8 C 0.73424(10) 0.02347(9) 0.26662(11)
C9 C 0.68705(11) 0.07190(9) 0.17663(10)
C10 C 0.63382(9) 0.16121(9) 0.18990(9)
C11 C 0.98255(9) 0.30411(8) 0.29374(8)
C12 C 1.07144(9) 0.33622(9) 0.25198(9)
C13 C 1.08435(10) 0.27954(10) 0.17016(10)
C14 C 0.99263(10) 0.28314(10) 0.08683(9)
C15 C 0.89258(9) 0.24343(9) 0.10579(8)
C16 C 0.87992(9) 0.54177(9) 0.13359(9)
C17 C 0.81660(11) 0.62599(9) 0.09426(10)
C18 C 0.72478(11) 0.60557(10) 0.01461(10)
C19 C 0.64095(10) 0.54774(9) 0.04067(9)
C20 C 0.67771(9) 0.45167(8) 0.07219(8)
C21 C 0.86124(9) 0.50034(9) 0.41246(9)
C22 C 0.82553(10) 0.53480(10) 0.49726(8)
C23 C 0.76613(10) 0.62438(9) 0.48184(9)
C24 C 0.66249(10) 0.61884(9) 0.41141(9)
C25 C 0.67410(9) 0.59907(8) 0.31367(8)
H1 H 0.5900(11) 0.3915(11) 0.4633(10)
H2 H 0.6701(12) 0.3117(11) 0.4744(10)
H3 H 0.5097(12) 0.2535(11) 0.4811(11)
H4 H 0.5394(11) 0.2097(10) 0.3962(10)
H5 H 0.4049(11) 0.3610(10) 0.3842(10)
H6 H 0.3691(12) 0.2625(11) 0.3600(11)
H7 H 0.3661(12) 0.3312(11) 0.2241(11)
H8 H 0.4429(12) 0.2569(11) 0.2329(10)
H9 H 0.4886(11) 0.4473(11) 0.2671(10)
H10 H 0.5078(12) 0.3891(11) 0.1830(11)
H11 H 0.8467(12) 0.1929(11) 0.4037(11)
H12 H 0.7427(12) 0.1522(11) 0.4021(11)
H13 H 0.8574(13) 0.0393(12) 0.3793(12)
H14 H 0.8768(12) 0.0831(11) 0.2938(11)
H15 H 0.7559(12) -0.0366(12) 0.2560(11)
H16 H 0.6787(12) 0.0154(12) 0.3021(11)
H17 H 0.7423(12) 0.0812(11) 0.1447(11)
H18 H 0.6364(13) 0.0310(12) 0.1339(12)
H19 H 0.5751(11) 0.1502(10) 0.2183(10)
H20 H 0.6087(12) 0.1909(11) 0.1317(11)
H21 H 0.9948(12) 0.2426(10) 0.3141(10)
H22 H 0.9795(12) 0.3424(11) 0.3449(10)
H23 H 1.1344(10) 0.3331(10) 0.2965(10)
H24 H 1.0609(10) 0.3982(10) 0.2333(10)
H25 H 1.0971(1) 0.2167(10) 0.1904(10)
H26 H 1.1474(12) 0.3022(11) 0.1515(11)
H27 H 0.9802(11) 0.3489(10) 0.0659(10)
H28 H 1.0117(11) 0.2522(10) 0.0353(9)
H29 H 0.8368(11) 0.2465(11) 0.0510(10)
H30 H 0.9030(12) 0.1780(11) 0.1218(11)
H31 H 0.9116(11) 0.5154(10) 0.0863(10)
H32 H 0.9378(12) 0.5572(11) 0.1852(11)
H33 H 0.7913(12) 0.6571(11) 0.1461(11)
H34 H 0.8633(12) 0.6706(11) 0.0717(11)
H35 H 0.6975(13) 0.6611(12) -0.0137(12)
H36 H 0.7486(11) 0.5708(11) -0.0328(10)
H37 H 0.5847(12) 0.5417(12) -0.0122(12)
H38 H 0.6135(11) 0.5771(11) 0.0906(11)
H39 H 0.6228(11) 0.4160(11) 0.0864(10)
H40 H 0.6965(11) 0.4198(11) 0.0214(10)
H41 H 0.8970(11) 0.4438(11) 0.4253(10)
H42 H 0.9101(12) 0.5421(11) 0.3982(11)
H43 H 0.7819(11) 0.4923(10) 0.5154(10)
H44 H 0.8849(11) 0.5418(11) 0.5493(10)
H45 H 0.8076(12) 0.6715(11) 0.4610(11)
H46 H 0.7534(12) 0.6428(10) 0.5407(10)
H47 H 0.6245(12) 0.6781(11) 0.4115(11)
H48 H 0.6209(10) 0.5725(10) 0.4314(9)
H49 H 0.6041(11) 0.5969(10) 0.2709(10)
H50 H 0.7101(11) 0.6461(9) 0.2955(10)
loop_
_geom_bond_atom_site_label_1
_geom_bond_atom_site_label_2
_geom_bond_site_symmetry_1
_geom_bond_site_symmetry_2
Si1 Si2 1_555 1_555
Si2 Si3 1_555 1_555
Si3 Si4 1_555 1_555
Si4 Si5 1_555 1_555
Si5 Si1 1_555 1_555
C1 Si1 1_555 1_555
C2 C1 1_555 1_555
C3 C2 1_555 1_555
C4 C3 1_555 1_555
C5 Si1 1_555 1_555
C6 Si2 1_555 1_555
C7 C6 1_555 1_555
C8 C7 1_555 1_555
C9 C8 1_555 1_555
C10 Si2 1_555 1_555
C11 Si3 1_555 1_555
C12 C11 1_555 1_555
C13 C12 1_555 1_555
C14 C13 1_555 1_555
C15 Si3 1_555 1_555
C16 Si4 1_555 1_555
C17 C16 1_555 1_555
C18 C17 1_555 1_555
C19 C18 1_555 1_555
C20 Si4 1_555 1_555
C21 Si5 1_555 1_555
C22 C21 1_555 1_555
C23 C22 1_555 1_555
C24 C23 1_555 1_555
C25 Si5 1_555 1_555
H1 C1 1_555 1_555
H2 C1 1_555 1_555
H3 C2 1_555 1_555
H4 C2 1_555 1_555
H5 C3 1_555 1_555
H6 C3 1_555 1_555
H7 C4 1_555 1_555
H8 C4 1_555 1_555
H9 C5 1_555 1_555
H10 C5 1_555 1_555
H11 C6 1_555 1_555
H12 C6 1_555 1_555
H13 C7 1_555 1_555
H14 C7 1_555 1_555
H15 C8 1_555 1_555
H16 C8 1_555 1_555
H17 C9 1_555 1_555
H18 C9 1_555 1_555
H19 C10 1_555 1_555
H20 C10 1_555 1_555
H21 C11 1_555 1_555
H22 C11 1_555 1_555
H23 C12 1_555 1_555
H24 C12 1_555 1_555
H25 C13 1_555 1_555
H26 C13 1_555 1_555
H27 C14 1_555 1_555
H28 C14 1_555 1_555
H29 C15 1_555 1_555
H30 C15 1_555 1_555
H31 C16 1_555 1_555
H32 C16 1_555 1_555
H33 C17 1_555 1_555
H34 C17 1_555 1_555
H35 C18 1_555 1_555
H36 C18 1_555 1_555
H37 C19 1_555 1_555
H38 C19 1_555 1_555
H39 C20 1_555 1_555
H40 C20 1_555 1_555
H41 C21 1_555 1_555
H42 C21 1_555 1_555
H43 C22 1_555 1_555
H44 C22 1_555 1_555
H45 C23 1_555 1_555
H46 C23 1_555 1_555
H47 C24 1_555 1_555
H48 C24 1_555 1_555
H49 C25 1_555 1_555
H50 C25 1_555 1_555
C4 C5 1_555 1_555
C9 C10 1_555 1_555
C14 C15 1_555 1_555
C19 C20 1_555 1_555
C24 C25 1_555 1_555

#END
