
#######################################################################
#
#                 Cambridge Crystallographic Data Centre
#                                CCDC 
#
#######################################################################
#
# If this CIF has been generated from an entry in the Cambridge 
# Structural Database, then it will include bibliographic, chemical, 
# crystal, experimental, refinement or atomic coordinate data resulting 
# from the CCDC's data processing and validation procedures.
#
#######################################################################

data_COPNOK01
_chemical_formula_moiety         'C24 H21 N7,H2 O1'
_chemical_name_systematic        
'tris(1H-Benzimidazol-2-ylmethyl)amine monohydrate'
_symmetry_cell_setting           monoclinic
_symmetry_space_group_name_H-M   'P 21/n'
_symmetry_Int_Tables_number      14
_space_group_name_Hall           '-P 2yn'
loop_
_symmetry_equiv_pos_site_id
_symmetry_equiv_pos_as_xyz
1 x,y,z
2 1/2-x,1/2+y,1/2-z
3 -x,-y,-z
4 1/2+x,1/2-y,1/2+z
_cell_length_a                   9.9731(6)
_cell_length_b                   12.3273(7)
_cell_length_c                   18.2323(11)
_cell_angle_alpha                90
_cell_angle_beta                 91.5080(10)
_cell_angle_gamma                90
_cell_volume                     2240.73
_exptl_crystal_colour            colorless
_exptl_crystal_description       block
_cell_formula_units_Z            4
_exptl_crystal_recrystallization_method methanol/water
loop_
_atom_site_label
_atom_site_type_symbol
_atom_site_fract_x
_atom_site_fract_y
_atom_site_fract_z
N1 N 0.63260(8) 0.41576(6) 0.13152(4)
N2 N 0.80183(9) 0.33068(7) 0.24444(5)
N3 N 0.73681(9) 0.45544(7) 0.32475(5)
N4 N 0.83170(9) 0.34272(7) 0.03248(5)
N5 N 0.81665(8) 0.50075(7) -0.02644(5)
N6 N 0.47316(8) 0.21656(7) 0.13303(5)
N7 N 0.29342(9) 0.30999(8) 0.09342(5)
C1 C 0.60385(10) 0.44366(9) 0.20748(5)
H1 H 0.5226 0.4068 0.2217
H2 H 0.5883 0.5211 0.2110
C2 C 0.71609(10) 0.41264(8) 0.25909(5)
C3 C 0.84133(12) 0.39439(9) 0.35607(6)
C4 C 0.90344(15) 0.40110(12) 0.42565(7)
H3 H 0.8744 0.4504 0.4604
C5 C 1.00875(16) 0.33226(13) 0.44067(8)
H4 H 1.0511 0.3350 0.4867
C6 C 1.05402(16) 0.25861(12) 0.38920(9)
H5 H 1.1269 0.2145 0.4013
C7 C 0.99338(13) 0.24921(10) 0.32035(8)
H6 H 1.0234 0.2000 0.2858
C8 C 0.88477(11) 0.31771(8) 0.30587(6)
C9 C 0.72401(10) 0.49399(8) 0.09909(6)
H7 H 0.7923 0.5147 0.1353
H8 H 0.6745 0.5587 0.0847
C10 C 0.78937(9) 0.44718(8) 0.03367(5)
C11 C 0.88181(10) 0.42593(9) -0.07038(5)
C12 C 0.93140(12) 0.43728(11) -0.14071(6)
H9 H 0.9244 0.5026 -0.1661
C13 C 0.99128(14) 0.34770(13) -0.17113(7)
H10 H 1.0254 0.3529 -0.2180
C14 C 1.00189(14) 0.25018(12) -0.13365(7)
H11 H 1.0444 0.1921 -0.1559
C15 C 0.95170(13) 0.23636(10) -0.06465(7)
H12 H 0.9577 0.1704 -0.0400
C16 C 0.89165(10) 0.32649(8) -0.03408(6)
C17 C 0.51076(10) 0.40531(8) 0.08606(6)
H13 H 0.5351 0.3995 0.0351
H14 H 0.4572 0.4704 0.0911
C18 C 0.42790(10) 0.30895(8) 0.10574(5)
C19 C 0.35888(10) 0.15160(8) 0.13862(5)
C20 C 0.34504(12) 0.04587(9) 0.16376(6)
H15 H 0.4190 0.0064 0.1807
C21 C 0.21837(13) 0.00148(10) 0.16283(7)
H16 H 0.2073 -0.0696 0.1786
C22 C 0.10616(13) 0.06042(11) 0.13880(7)
H17 H 0.0219 0.0283 0.1397
C23 C 0.11787(12) 0.16505(10) 0.11382(7)
H18 H 0.0433 0.2044 0.0975
C24 C 0.24604(10) 0.20945(9) 0.11398(6)
H21 H 0.8074(14) 0.2859(12) 0.0667(8)
H22 H 0.2491(13) 0.3664(10) 0.0721(7)
H23 H 0.7963(13) 0.2848(11) 0.2051(7)
O1 O 0.75169(8) 0.17648(6) 0.13143(4)
H19 H 0.6596(17) 0.1839(12) 0.1325(8)
H20 H 0.7672(14) 0.1097(13) 0.1413(7)
loop_
_geom_bond_atom_site_label_1
_geom_bond_atom_site_label_2
_geom_bond_site_symmetry_1
_geom_bond_site_symmetry_2
N1 C1 1_555 1_555
N2 C2 1_555 1_555
N3 C2 1_555 1_555
N4 C10 1_555 1_555
N5 C10 1_555 1_555
N6 C18 1_555 1_555
N7 C18 1_555 1_555
C1 H1 1_555 1_555
H2 C1 1_555 1_555
C2 C1 1_555 1_555
C3 N3 1_555 1_555
C4 C3 1_555 1_555
H3 C4 1_555 1_555
C5 C4 1_555 1_555
H4 C5 1_555 1_555
C6 C5 1_555 1_555
H5 C6 1_555 1_555
C7 C6 1_555 1_555
H6 C7 1_555 1_555
C8 N2 1_555 1_555
C9 N1 1_555 1_555
H7 C9 1_555 1_555
H8 C9 1_555 1_555
C10 C9 1_555 1_555
C11 N5 1_555 1_555
C12 C11 1_555 1_555
H9 C12 1_555 1_555
C13 C12 1_555 1_555
H10 C13 1_555 1_555
C14 C13 1_555 1_555
H11 C14 1_555 1_555
C15 C14 1_555 1_555
H12 C15 1_555 1_555
C16 N4 1_555 1_555
C17 N1 1_555 1_555
H13 C17 1_555 1_555
H14 C17 1_555 1_555
C18 C17 1_555 1_555
C19 N6 1_555 1_555
C20 C19 1_555 1_555
H15 C20 1_555 1_555
C21 C20 1_555 1_555
H16 C21 1_555 1_555
C22 C21 1_555 1_555
H17 C22 1_555 1_555
C23 C22 1_555 1_555
H18 C23 1_555 1_555
C24 N7 1_555 1_555
O1 H19 1_555 1_555
H20 O1 1_555 1_555
H21 N4 1_555 1_555
H22 N7 1_555 1_555
H23 N2 1_555 1_555
C3 C8 1_555 1_555
C7 C8 1_555 1_555
C11 C16 1_555 1_555
C15 C16 1_555 1_555
C19 C24 1_555 1_555
C23 C24 1_555 1_555

#END
