
#######################################################################
#
#                 Cambridge Crystallographic Data Centre
#                                CCDC 
#
#######################################################################
#
# If this CIF has been generated from an entry in the Cambridge 
# Structural Database, then it will include bibliographic, chemical, 
# crystal, experimental, refinement or atomic coordinate data resulting 
# from the CCDC's data processing and validation procedures.
#
#######################################################################

data_COPPOO
_chemical_formula_moiety         'C15 H13 Br1 O4'
_chemical_name_systematic        
'methyl 2-(2-(4-bromophenyl)vinyl)-4-oxo-3,4-dihydro-2H-pyran-2-carboxylate'
_symmetry_cell_setting           orthorhombic
_symmetry_space_group_name_H-M   'P 21 21 21'
_symmetry_Int_Tables_number      19
_space_group_name_Hall           'P 2ac 2ab'
loop_
_symmetry_equiv_pos_site_id
_symmetry_equiv_pos_as_xyz
1 x,y,z
2 1/2-x,-y,1/2+z
3 1/2+x,1/2-y,-z
4 -x,1/2+y,1/2-z
_cell_length_a                   7.1307(7)
_cell_length_b                   8.4166(8)
_cell_length_c                   24.0367(19)
_cell_angle_alpha                90
_cell_angle_beta                 90
_cell_angle_gamma                90
_cell_volume                     1442.59
_cell_formula_units_Z            4
loop_
_atom_site_label
_atom_site_type_symbol
_atom_site_fract_x
_atom_site_fract_y
_atom_site_fract_z
Br1 Br 1.20213(12) 0.63236(11) 0.50832(4)
O1 O -0.0565(8) 0.1649(7) 0.7775(2)
C1 C 0.0042(10) 0.1678(8) 0.7301(3)
O2 O 0.1560(6) 0.1652(5) 0.62032(16)
C2 C -0.0855(9) 0.0919(8) 0.6834(3)
H1 H -0.1965 0.0360 0.6888
O3 O 0.3653(7) -0.0795(5) 0.64134(17)
C3 C -0.0109(10) 0.1011(8) 0.6326(3)
H2 H -0.0805 0.0596 0.6033
O4 O 0.4076(7) -0.0103(5) 0.7297(2)
C4 C 0.2791(9) 0.1822(7) 0.6672(2)
C5 C 0.1772(9) 0.2583(7) 0.7151(3)
H3 H 0.2600 0.2631 0.7470
H4 H 0.1433 0.3662 0.7051
C6 C 0.3549(8) 0.0191(7) 0.6839(3)
C7 C 0.4510(10) -0.2327(7) 0.6517(3)
H5 H 0.4462 -0.2957 0.6184
H6 H 0.3843 -0.2862 0.6809
H7 H 0.5793 -0.2179 0.6626
C8 C 0.4512(10) 0.2802(8) 0.6500(3)
H8 H 0.5347 0.3106 0.6778
C9 C 0.4867(9) 0.3220(7) 0.6007(3)
H9 H 0.3966 0.2990 0.5739
C10 C 0.6607(9) 0.4053(7) 0.5814(3)
C11 C 0.7897(10) 0.4783(7) 0.6164(2)
H10 H 0.7674 0.4810 0.6545
C12 C 0.9527(9) 0.5477(7) 0.5950(3)
H11 H 1.0380 0.5982 0.6184
C13 C 0.9832(9) 0.5394(7) 0.5389(3)
C14 C 0.8560(9) 0.4710(7) 0.5043(3)
H12 H 0.8777 0.4698 0.4661
C15 C 0.6966(10) 0.4039(7) 0.5252(3)
H13 H 0.6111 0.3567 0.5011
loop_
_geom_bond_atom_site_label_1
_geom_bond_atom_site_label_2
_geom_bond_site_symmetry_1
_geom_bond_site_symmetry_2
Br1 C13 1_555 1_555
O1 C1 1_555 1_555
C1 C2 1_555 1_555
O2 C3 1_555 1_555
C2 H1 1_555 1_555
O3 C6 1_555 1_555
C3 C2 1_555 1_555
H2 C3 1_555 1_555
O4 C6 1_555 1_555
C4 O2 1_555 1_555
C5 C1 1_555 1_555
H3 C5 1_555 1_555
H4 C5 1_555 1_555
C6 C4 1_555 1_555
C7 O3 1_555 1_555
H5 C7 1_555 1_555
H6 C7 1_555 1_555
H7 C7 1_555 1_555
C8 C4 1_555 1_555
H8 C8 1_555 1_555
C9 C8 1_555 1_555
H9 C9 1_555 1_555
C10 C9 1_555 1_555
C11 C10 1_555 1_555
H10 C11 1_555 1_555
C12 C11 1_555 1_555
H11 C12 1_555 1_555
C13 C12 1_555 1_555
C14 C13 1_555 1_555
H12 C14 1_555 1_555
C15 C10 1_555 1_555
H13 C15 1_555 1_555
C4 C5 1_555 1_555
C14 C15 1_555 1_555

#END
