
#######################################################################
#
#                 Cambridge Crystallographic Data Centre
#                                CCDC 
#
#######################################################################
#
# If this CIF has been generated from an entry in the Cambridge 
# Structural Database, then it will include bibliographic, chemical, 
# crystal, experimental, refinement or atomic coordinate data resulting 
# from the CCDC's data processing and validation procedures.
#
#######################################################################

data_COPREE10
_chemical_formula_moiety         'C15 H23 N3 O5'
_chemical_name_systematic        
't-Butyl 4-t-butoxycarbonyl-8-oxo-1,3,4-triazabicyclo(4.2.0)oct-2-ene-2-carboxylate'
_symmetry_cell_setting           monoclinic
_symmetry_space_group_name_H-M   'C c'
_symmetry_Int_Tables_number      9
_space_group_name_Hall           'C -2yc'
loop_
_symmetry_equiv_pos_site_id
_symmetry_equiv_pos_as_xyz
1 x,y,z
2 1/2+x,1/2+y,z
3 x,-y,1/2+z
4 1/2+x,1/2-y,1/2+z
_cell_length_a                   17.823(3)
_cell_length_b                   9.329(2)
_cell_length_c                   11.580(3)
_cell_angle_alpha                90
_cell_angle_beta                 118.80(2)
_cell_angle_gamma                90
_cell_volume                     1687.25
_exptl_crystal_colour            white
_chemical_melting_point          152-153deg.C
_cell_formula_units_Z            4
loop_
_atom_site_label
_atom_site_type_symbol
_atom_site_fract_x
_atom_site_fract_y
_atom_site_fract_z
N1 N 0.2559 0.4593(2) 0.4732
C1 C 0.2691(1) 0.3136(2) 0.4652(2)
N2 N 0.2353(1) 0.2437(2) 0.3562(2)
N3 N 0.1903(1) 0.3234(2) 0.2421(2)
C2 C 0.2086(2) 0.4762(2) 0.2413(2)
C3 C 0.2033(2) 0.5444(2) 0.3541(2)
C4 C 0.2610(2) 0.6741(2) 0.4243(2)
C5 C 0.3116(2) 0.5741(2) 0.5383(2)
O1 O 0.3743(1) 0.5803(2) 0.6431(2)
C6 C 0.3187(1) 0.2354(2) 0.5918(2)
O2 O 0.3179(1) 0.2734(2) 0.6905(1)
O3 O 0.3606(1) 0.1255(2) 0.5799(1)
C7 C 0.4149(2) 0.0315(2) 0.6949(2)
C8 C 0.4840(2) 0.1196(3) 0.8018(3)
C9 C 0.4526(2) -0.0708(3) 0.6351(3)
C10 C 0.3591(2) -0.0447(3) 0.7402(3)
C11 C 0.1390(2) 0.2532(2) 0.1252(2)
O4 O 0.1045(1) 0.3163(2) 0.0216(1)
O5 O 0.1331(1) 0.1151(2) 0.1448(2)
C12 C 0.0752(2) 0.0199(3) 0.0350(2)
C13 C 0.1000(2) 0.0193(4) -0.0730(3)
C14 C -0.0156(2) 0.0674(4) -0.0141(3)
C15 C 0.0932(3) -0.1242(3) 0.1028(3)
H1 H 0.2650 0.4888 0.2517
H2 H 0.1673 0.5187 0.1598
H3 H 0.1484(14) 0.5532(23) 0.3391(21)
H4 H 0.2329 0.7512 0.4433
H5 H 0.2920 0.7115 0.3824
H6 H 0.5247 0.0560 0.8671
H7 H 0.4600 0.1813 0.8419
H8 H 0.5122 0.1766 0.7650
H9 H 0.4877 -0.1387 0.7017
H10 H 0.4866 -0.0224 0.6032
H11 H 0.4063 -0.1202 0.5635
H12 H 0.3982 -0.1079 0.8079
H13 H 0.3144 -0.0999 0.6715
H14 H 0.3345 0.0203 0.7770
H15 H 0.0650 -0.0537 -0.1334
H16 H 0.1592 -0.0007 -0.0445
H17 H 0.0852 0.1109 -0.1161
H18 H -0.0538 -0.0001 -0.0781
H19 H -0.0267 0.1615 -0.0523
H20 H -0.0246 0.0671 0.0612
H21 H 0.0599 -0.1963 0.0396
H22 H 0.0758 -0.1179 0.1692
H23 H 0.1528 -0.1494 0.1432
loop_
_geom_bond_atom_site_label_1
_geom_bond_atom_site_label_2
_geom_bond_site_symmetry_1
_geom_bond_site_symmetry_2
N1 C1 1_555 1_555
C1 N2 1_555 1_555
N2 N3 1_555 1_555
N3 C2 1_555 1_555
C2 C3 1_555 1_555
C3 N1 1_555 1_555
C4 C3 1_555 1_555
C5 N1 1_555 1_555
O1 C5 1_555 1_555
C6 C1 1_555 1_555
O2 C6 1_555 1_555
O3 C6 1_555 1_555
C7 O3 1_555 1_555
C8 C7 1_555 1_555
C9 C7 1_555 1_555
C10 C7 1_555 1_555
C11 N3 1_555 1_555
O4 C11 1_555 1_555
O5 C11 1_555 1_555
C12 O5 1_555 1_555
C13 C12 1_555 1_555
C14 C12 1_555 1_555
C15 C12 1_555 1_555
H1 C2 1_555 1_555
H2 C2 1_555 1_555
H3 C3 1_555 1_555
H4 C4 1_555 1_555
H5 C4 1_555 1_555
H6 C8 1_555 1_555
H7 C8 1_555 1_555
H8 C8 1_555 1_555
H9 C9 1_555 1_555
H10 C9 1_555 1_555
H11 C9 1_555 1_555
H12 C10 1_555 1_555
H13 C10 1_555 1_555
H14 C10 1_555 1_555
H15 C13 1_555 1_555
H16 C13 1_555 1_555
H17 C13 1_555 1_555
H18 C14 1_555 1_555
H19 C14 1_555 1_555
H20 C14 1_555 1_555
H21 C15 1_555 1_555
H22 C15 1_555 1_555
H23 C15 1_555 1_555
C4 C5 1_555 1_555

#END
