
#######################################################################
#
#                 Cambridge Crystallographic Data Centre
#                                CCDC 
#
#######################################################################
#
# If this CIF has been generated from an entry in the Cambridge 
# Structural Database, then it will include bibliographic, chemical, 
# crystal, experimental, refinement or atomic coordinate data resulting 
# from the CCDC's data processing and validation procedures.
#
#######################################################################

data_COPREE
_chemical_formula_moiety         'C15 H23 N3 O5'
_chemical_name_systematic        
2,4-bis(t-Butoxycarbonyl)-8-oxo-1,3,4-triazabicyclo(4.2.0)oct-2-ene
_symmetry_cell_setting           monoclinic
_symmetry_space_group_name_H-M   'C c'
_symmetry_Int_Tables_number      9
_space_group_name_Hall           'C -2yc'
loop_
_symmetry_equiv_pos_site_id
_symmetry_equiv_pos_as_xyz
1 x,y,z
2 1/2+x,1/2+y,z
3 x,-y,1/2+z
4 1/2+x,1/2-y,1/2+z
_cell_length_a                   17.823(3)
_cell_length_b                   9.329(2)
_cell_length_c                   11.580(3)
_cell_angle_alpha                90
_cell_angle_beta                 118.80(2)
_cell_angle_gamma                90
_cell_volume                     1687.25
_chemical_melting_point          152-153deg.C
_cell_formula_units_Z            4
loop_
_atom_site_label
_atom_site_type_symbol
_atom_site_fract_x
_atom_site_fract_y
_atom_site_fract_z
N1 N 0.2559 0.4593(2) 0.4732
C1 C 0.2691(1) 0.3136(2) 0.4652(2)
N2 N 0.2353(1) 0.2437(2) 0.3562(2)
N3 N 0.1903(1) 0.3234(2) 0.2421(2)
C2 C 0.2086(2) 0.4762(2) 0.2413(2)
C3 C 0.2033(2) 0.5444(2) 0.3541(2)
C4 C 0.2610(2) 0.6741(2) 0.4243(2)
C5 C 0.3116(2) 0.5741(2) 0.5383(2)
O1 O 0.3743(1) 0.5803(2) 0.6431(2)
C6 C 0.3187(1) 0.2354(2) 0.5918(2)
O2 O 0.3179(1) 0.2734(2) 0.6905(1)
O3 O 0.3606(1) 0.1255(2) 0.5799(1)
C7 C 0.4149(2) 0.0315(2) 0.6949(2)
C8 C 0.4840(2) 0.1196(3) 0.8018(3)
C9 C 0.4526(2) -0.0708(3) 0.6351(3)
C10 C 0.3591(2) -0.0447(3) 0.7402(3)
C11 C 0.1390(2) 0.2532(2) 0.1252(2)
O4 O 0.1045(1) 0.3163(2) 0.0216(1)
O5 O 0.1331(1) 0.1151(2) 0.1448(2)
C12 C 0.0752(2) 0.0199(3) 0.0350(2)
C13 C 0.1000(2) 0.0193(4) -0.0730(3)
C14 C -0.0156(2) 0.0674(4) -0.0141(3)
C15 C 0.0932(3) -0.1242(3) 0.1028(3)
loop_
_geom_bond_atom_site_label_1
_geom_bond_atom_site_label_2
_geom_bond_site_symmetry_1
_geom_bond_site_symmetry_2
N1 C1 1_555 1_555
C1 N2 1_555 1_555
N2 N3 1_555 1_555
N3 C2 1_555 1_555
C2 C3 1_555 1_555
C3 N1 1_555 1_555
C4 C3 1_555 1_555
C5 N1 1_555 1_555
O1 C5 1_555 1_555
C6 C1 1_555 1_555
O2 C6 1_555 1_555
O3 C6 1_555 1_555
C7 O3 1_555 1_555
C8 C7 1_555 1_555
C9 C7 1_555 1_555
C10 C7 1_555 1_555
C11 N3 1_555 1_555
O4 C11 1_555 1_555
O5 C11 1_555 1_555
C12 O5 1_555 1_555
C13 C12 1_555 1_555
C14 C12 1_555 1_555
C15 C12 1_555 1_555
C4 C5 1_555 1_555

#END
