
#######################################################################
#
#                 Cambridge Crystallographic Data Centre
#                                CCDC 
#
#######################################################################
#
# If this CIF has been generated from an entry in the Cambridge 
# Structural Database, then it will include bibliographic, chemical, 
# crystal, experimental, refinement or atomic coordinate data resulting 
# from the CCDC's data processing and validation procedures.
#
#######################################################################

data_COQCOC
_chemical_formula_moiety         'C18 H16 F1 N1 O3'
_chemical_name_systematic        
'Ethyl fluoro(8-methoxyphenanthridin-6(5H)-ylidene)acetate'
_symmetry_cell_setting           monoclinic
_symmetry_space_group_name_H-M   'P 21/c'
_symmetry_Int_Tables_number      14
_space_group_name_Hall           '-P 2ybc'
loop_
_symmetry_equiv_pos_site_id
_symmetry_equiv_pos_as_xyz
1 x,y,z
2 -x,1/2+y,1/2-z
3 -x,-y,-z
4 x,1/2-y,1/2+z
_cell_length_a                   11.2895(6)
_cell_length_b                   10.3789(5)
_cell_length_c                   13.6515(8)
_cell_angle_alpha                90
_cell_angle_beta                 112.765(6)
_cell_angle_gamma                90
_cell_volume                     1474.97
_exptl_crystal_colour            'dark yellow'
_exptl_crystal_description       block
_cell_formula_units_Z            4
loop_
_atom_site_label
_atom_site_type_symbol
_atom_site_fract_x
_atom_site_fract_y
_atom_site_fract_z
F1 F 0.10928(18) 0.91186(17) 0.15122(19)
O1 O -0.36385(15) 0.87905(18) 0.02019(16)
O2 O 0.34900(16) 0.76334(17) 0.16500(15)
O3 O 0.34277(17) 0.7834(2) 0.32713(16)
N1 N 0.14100(17) 0.58129(17) 0.17378(14)
H1 H 0.2231 0.5901 0.2020
C1 C 0.0879(2) 0.4609(2) 0.15468(17)
C2 C 0.1715(2) 0.3537(2) 0.17947(19)
H2 H 0.2599 0.3668 0.2086
C3 C 0.1245(2) 0.2322(2) 0.1614(2)
H3 H 0.1804 0.1623 0.1776
C4 C -0.0086(3) 0.2119(2) 0.1180(2)
H4 H -0.0405 0.1283 0.1062
C5 C -0.0922(2) 0.3139(2) 0.0929(2)
H5 H -0.1802 0.2984 0.0636
C6 C -0.0468(2) 0.4420(2) 0.11070(17)
C7 C -0.12791(19) 0.5549(2) 0.08683(16)
C8 C -0.2637(2) 0.5472(2) 0.0453(2)
H6 H -0.3034 0.4670 0.0325
C9 C -0.3370(2) 0.6561(3) 0.0239(2)
H7 H -0.4260 0.6493 -0.0034
C10 C -0.2794(2) 0.7780(2) 0.04271(18)
C11 C -0.1477(2) 0.7898(2) 0.08207(17)
H8 H -0.1098 0.8710 0.0936
C12 C -0.07108(19) 0.6788(2) 0.10471(16)
C13 C 0.0675(2) 0.6826(2) 0.14931(17)
C14 C 0.1460(2) 0.8025(2) 0.1724(2)
C15 C 0.2911(2) 0.7791(2) 0.2323(2)
C16 C 0.4865(2) 0.7343(3) 0.2125(3)
H9 H 0.5259 0.7813 0.2787
H10 H 0.5269 0.7617 0.1649
C17 C 0.5070(3) 0.5939(3) 0.2331(3)
H11 H 0.4642 0.5474 0.1682
H12 H 0.4727 0.5682 0.2844
H13 H 0.5973 0.5754 0.2600
C18 C -0.3126(3) 1.0059(3) 0.0355(3)
H14 H -0.2661 1.0194 -0.0095
H15 H -0.2558 1.0169 0.1084
H16 H -0.3815 1.0672 0.0178
loop_
_geom_bond_atom_site_label_1
_geom_bond_atom_site_label_2
_geom_bond_site_symmetry_1
_geom_bond_site_symmetry_2
F1 C14 1_555 1_555
O1 C10 1_555 1_555
O2 C15 1_555 1_555
O3 C15 1_555 1_555
N1 H1 1_555 1_555
C1 N1 1_555 1_555
C2 C1 1_555 1_555
H2 C2 1_555 1_555
C3 C2 1_555 1_555
H3 C3 1_555 1_555
C4 C3 1_555 1_555
H4 C4 1_555 1_555
C5 C4 1_555 1_555
H5 C5 1_555 1_555
C6 C1 1_555 1_555
C7 C6 1_555 1_555
C8 C7 1_555 1_555
H6 C8 1_555 1_555
C9 C8 1_555 1_555
H7 C9 1_555 1_555
C10 C9 1_555 1_555
C11 C10 1_555 1_555
H8 C11 1_555 1_555
C12 C7 1_555 1_555
C13 N1 1_555 1_555
C14 C13 1_555 1_555
C15 C14 1_555 1_555
C16 O2 1_555 1_555
H9 C16 1_555 1_555
H10 C16 1_555 1_555
C17 C16 1_555 1_555
H11 C17 1_555 1_555
H12 C17 1_555 1_555
H13 C17 1_555 1_555
C18 O1 1_555 1_555
H14 C18 1_555 1_555
H15 C18 1_555 1_555
H16 C18 1_555 1_555
C5 C6 1_555 1_555
C11 C12 1_555 1_555
C12 C13 1_555 1_555

#END
