
#######################################################################
#
#                 Cambridge Crystallographic Data Centre
#                                CCDC 
#
#######################################################################
#
# If this CIF has been generated from an entry in the Cambridge 
# Structural Database, then it will include bibliographic, chemical, 
# crystal, experimental, refinement or atomic coordinate data resulting 
# from the CCDC's data processing and validation procedures.
#
#######################################################################

data_COQDUJ
_chemical_formula_moiety         
'2(C39 H47 N7 O2),C4 H12 N1 1+,3(C1 H4 O1),Na1 1+,2(H2 O1),2(Cl1 1-)'
_chemical_name_systematic        
'tetramethylammonium sodium bis(1,17,22,22,31,31-hexamethyl-5,13,36,37,38,39,40-heptaazaheptacyclo[15.9.9.1^7,11^.1^18,21^.1^23,26^.1^27,30^.1^32,35^]tetraconta-7(40),8,10,18,20,23,25,27,29,32,34-undecaene-6,12-dione) bis(chloride) methanol solvate dihydrate'
_symmetry_cell_setting           triclinic
_symmetry_space_group_name_H-M   'P -1'
_symmetry_Int_Tables_number      2
_space_group_name_Hall           '-P 1'
loop_
_symmetry_equiv_pos_site_id
_symmetry_equiv_pos_as_xyz
1 x,y,z
2 -x,-y,-z
_cell_length_a                   10.6334(12)
_cell_length_b                   20.290(2)
_cell_length_c                   21.869(3)
_cell_angle_alpha                66.724(3)
_cell_angle_beta                 81.164(3)
_cell_angle_gamma                88.956(3)
_cell_volume                     4278.13
_exptl_crystal_colour            colorless
_exptl_crystal_description       prisms
_cell_formula_units_Z            2
loop_
_atom_site_label
_atom_site_type_symbol
_atom_site_fract_x
_atom_site_fract_y
_atom_site_fract_z
C1 C -0.1167(10) 0.7071(6) 0.9173(6)
C2 C -0.1873(11) 0.7409(6) 0.9510(6)
H1 H -0.2323 0.7204 0.9958
C3 C -0.1809(12) 0.8116(7) 0.9070(6)
H2 H -0.2231 0.8482 0.9177
C4 C -0.1067(11) 0.8242(6) 0.8453(6)
C5 C -0.0653(11) 0.8843(6) 0.7814(6)
C6 C 0.0729(11) 0.9079(6) 0.7780(6)
C7 C 0.1210(11) 0.9566(6) 0.7963(6)
H3 H 0.0725 0.9863 0.8145
C8 C 0.2561(11) 0.9569(6) 0.7841(6)
H4 H 0.3137 0.9853 0.7938
C9 C 0.2876(11) 0.9088(6) 0.7559(6)
C10 C 0.4184(11) 0.8858(6) 0.7306(6)
C11 C 0.4568(11) 0.8158(6) 0.7789(6)
C12 C 0.5615(11) 0.8001(6) 0.8106(6)
H5 H 0.6266 0.8334 0.8071
C13 C 0.5552(11) 0.7247(6) 0.8499(6)
H6 H 0.6160 0.6996 0.8774
C14 C 0.4487(11) 0.6938(6) 0.8422(6)
C15 C 0.3921(11) 0.6199(6) 0.8696(6)
C16 C 0.2669(11) 0.6156(6) 0.9179(6)
C17 C 0.2475(11) 0.5955(6) 0.9874(6)
H7 H 0.3093 0.5816 1.0167
C18 C 0.1106(12) 0.6006(6) 1.0051(6)
H8 H 0.0682 0.5943 1.0487
C19 C 0.0545(11) 0.6154(6) 0.9519(6)
C20 C -0.0849(11) 0.6243(6) 0.9415(6)
C21 C -0.1505(11) 0.9486(6) 0.7803(6)
H9 H -0.2396 0.9355 0.7820
H10 H -0.1223 0.9909 0.7388
H11 H -0.1428 0.9595 0.8194
C22 C 0.5173(11) 0.9453(6) 0.7184(6)
H12 H 0.5140 0.9541 0.7596
H13 H 0.4987 0.9894 0.6816
H14 H 0.6024 0.9305 0.7063
C23 C 0.4113(11) 0.8799(7) 0.6631(6)
H15 H 0.4950 0.8685 0.6449
H16 H 0.3861 0.9257 0.6310
H17 H 0.3483 0.8418 0.6704
C24 C 0.4877(11) 0.5672(6) 0.9094(6)
H18 H 0.5680 0.5711 0.8791
H19 H 0.4515 0.5179 0.9274
H20 H 0.5038 0.5794 0.9467
C25 C -0.1705(11) 0.5816(6) 1.0089(6)
H21 H -0.1490 0.5310 1.0252
H22 H -0.2599 0.5855 1.0025
H23 H -0.1571 0.6010 1.0421
C26 C -0.1127(11) 0.5971(6) 0.8878(6)
H24 H -0.0616 0.6261 0.8442
H25 H -0.2034 0.6012 0.8840
H26 H -0.0908 0.5467 0.9014
C27 C -0.0807(12) 0.8648(6) 0.7214(6)
H27 H -0.0247 0.8248 0.7230
H28 H -0.1696 0.8463 0.7284
C28 C -0.0524(12) 0.9233(6) 0.6509(6)
H29 H 0.0261 0.9511 0.6470
H30 H -0.1232 0.9565 0.6438
C29 C -0.0349(13) 0.8941(7) 0.5956(7)
H31 H -0.0980 0.8539 0.6079
H32 H -0.0514 0.9324 0.5529
C30 C 0.1810(17) 0.9106(9) 0.5363(9)
C31 C 0.3182(15) 0.8815(8) 0.5288(8)
C32 C 0.4057(15) 0.9324(8) 0.4782(8)
H33 H 0.3846 0.9795 0.4509
C33 C 0.5306(15) 0.9055(7) 0.4725(7)
H34 H 0.5998 0.9377 0.4447
C34 C 0.5522(15) 0.8346(7) 0.5062(7)
H35 H 0.6333 0.8162 0.4989
C35 C 0.4517(13) 0.7901(6) 0.5516(6)
C36 C 0.4757(13) 0.7171(6) 0.5873(7)
C37 C 0.4335(13) 0.6060(6) 0.6927(6)
H36 H 0.5011 0.5875 0.6680
H37 H 0.3557 0.5746 0.7045
C38 C 0.4758(11) 0.6034(6) 0.7569(6)
H38 H 0.5287 0.6474 0.7463
H39 H 0.5293 0.5616 0.7741
C39 C 0.3621(11) 0.5976(7) 0.8126(6)
H40 H 0.3275 0.5472 0.8337
H41 H 0.2943 0.6279 0.7910
N1 N -0.0659(9) 0.7539(5) 0.8566(5)
H42 H -0.0137 0.7428 0.8271
N2 N 0.1745(9) 0.8777(5) 0.7530(5)
H43 H 0.1686 0.8440 0.7376
N3 N 0.3900(9) 0.7515(5) 0.7990(5)
H44 H 0.3174 0.7473 0.7859
N4 N 0.1490(9) 0.6259(5) 0.8964(5)
H45 H 0.1360 0.6371 0.8547
N5 N 0.0965(11) 0.8683(6) 0.5852(6)
H46 H 0.1162 0.8252 0.6117
N6 N 0.3309(11) 0.8147(6) 0.5613(6)
N7 N 0.4076(10) 0.6782(5) 0.6498(5)
H47 H 0.3436 0.6987 0.6649
O1 O 0.1798(12) 0.9788(7) 0.5137(7)
O2 O 0.5719(9) 0.6868(5) 0.5694(5)
C40 C -0.0738(11) 0.7880(6) 0.1543(6)
C41 C -0.1113(12) 0.7672(7) 0.1076(7)
H48 H -0.1487 0.7969 0.0698
C42 C -0.0857(12) 0.6946(7) 0.1246(6)
H49 H -0.1000 0.6673 0.0995
C43 C -0.0378(11) 0.6706(6) 0.1819(6)
C44 C 0.0077(12) 0.5972(6) 0.2223(7)
C45 C 0.1506(11) 0.5893(6) 0.1995(6)
C46 C 0.2072(11) 0.5511(6) 0.1668(6)
H50 H 0.1665 0.5170 0.1556
C47 C 0.3390(11) 0.5703(6) 0.1515(6)
H51 H 0.4018 0.5512 0.1279
C48 C 0.3612(10) 0.6195(6) 0.1753(5)
C49 C 0.4841(11) 0.6576(6) 0.1748(6)
C50 C 0.4859(11) 0.7399(6) 0.1407(6)
C51 C 0.5503(11) 0.7861(6) 0.0812(6)
H52 H 0.6031 0.7731 0.0490
C52 C 0.5261(11) 0.8570(6) 0.0751(6)
H53 H 0.5598 0.9001 0.0386
C53 C 0.4435(11) 0.8513(6) 0.1326(6)
C54 C 0.3848(11) 0.9103(6) 0.1528(6)
C55 C 0.2529(11) 0.9236(6) 0.1328(6)
C56 C 0.2093(11) 0.9816(6) 0.0838(6)
H54 H 0.2584 1.0238 0.0537
C57 C 0.0757(11) 0.9673(6) 0.0859(6)
H55 H 0.0209 0.9973 0.0572
C58 C 0.0430(11) 0.8998(6) 0.1393(6)
C59 C -0.0810(11) 0.8568(6) 0.1664(6)
C60 C -0.0728(11) 0.5377(6) 0.2160(6)
H56 H -0.0642 0.5449 0.1685
H57 H -0.1625 0.5402 0.2334
H58 H -0.0424 0.4905 0.2420
C61 C 0.5906(11) 0.6305(6) 0.1356(6)
H59 H 0.5766 0.6461 0.0887
H60 H 0.5896 0.5780 0.1564
H61 H 0.6732 0.6503 0.1365
C62 C 0.5059(12) 0.6328(7) 0.2486(6)
H62 H 0.5958 0.6414 0.2496
H63 H 0.4828 0.5814 0.2727
H64 H 0.4529 0.6598 0.2705
C63 C 0.4714(11) 0.9777(6) 0.1176(6)
H65 H 0.4743 0.9949 0.0687
H66 H 0.5575 0.9668 0.1284
H67 H 0.4384 1.0150 0.1328
C64 C -0.1850(11) 0.9018(6) 0.1273(6)
H68 H -0.1546 0.9195 0.0787
H69 H -0.2029 0.9427 0.1400
H70 H -0.2631 0.8717 0.1386
C65 C -0.1229(11) 0.8405(6) 0.2414(6)
H71 H -0.1937 0.8043 0.2597
H72 H -0.1506 0.8845 0.2467
H73 H -0.0513 0.8221 0.2658
C66 C -0.0116(12) 0.5823(6) 0.2999(6)
H74 H 0.0376 0.6205 0.3047
H75 H -0.1027 0.5881 0.3140
C67 C 0.0239(12) 0.5122(6) 0.3484(6)
H76 H 0.1023 0.4972 0.3276
H77 H -0.0449 0.4756 0.3579
C68 C 0.0467(12) 0.5146(7) 0.4153(6)
H78 H -0.0161 0.5454 0.4280
H79 H 0.0337 0.4656 0.4513
C69 C 0.2778(13) 0.5009(7) 0.4260(6)
C70 C 0.4056(13) 0.5330(7) 0.4190(6)
C71 C 0.5083(14) 0.4895(7) 0.4246(7)
H80 H 0.4965 0.4402 0.4327
C72 C 0.6292(13) 0.5189(7) 0.4181(6)
H81 H 0.7024 0.4909 0.4212
C73 C 0.6380(13) 0.5911(7) 0.4068(6)
H82 H 0.7193 0.6134 0.4010
C74 C 0.5329(13) 0.6307(7) 0.4039(6)
C75 C 0.5502(13) 0.7086(7) 0.3880(6)
C76 C 0.4714(13) 0.8289(6) 0.3384(6)
H83 H 0.5433 0.8401 0.3571
H84 H 0.3934 0.8464 0.3570
C77 C 0.4959(11) 0.8704(7) 0.2608(6)
H85 H 0.5460 0.9155 0.2493
H86 H 0.5473 0.8410 0.2402
C78 C 0.3732(11) 0.8883(6) 0.2310(6)
H87 H 0.3350 0.9280 0.2417
H88 H 0.3130 0.8459 0.2540
N8 N -0.0269(8) 0.7256(5) 0.2007(5)
H89 H 0.0045 0.7232 0.2365
N9 N 0.2431(9) 0.6330(5) 0.2040(5)
H90 H 0.2295 0.6647 0.2223
N10 N 0.4187(8) 0.7799(5) 0.1710(5)
H91 H 0.3669 0.7620 0.2097
N11 N 0.1531(9) 0.8764(5) 0.1651(5)
H92 H 0.1579 0.8350 0.1989
N12 N 0.1774(10) 0.5428(6) 0.4099(5)
H93 H 0.1904 0.5896 0.3955
N13 N 0.4133(10) 0.6017(5) 0.4074(5)
N14 N 0.4561(10) 0.7497(5) 0.3617(5)
H94 H 0.3859 0.7300 0.3584
O3 O 0.2574(8) 0.4354(4) 0.4444(4)
O4 O 0.6460(9) 0.7305(4) 0.4009(4)
Na1 Na 0.7532(5) 0.6863(3) 0.4948(3)
O5 O 0.9475(9) 0.6738(5) 0.4328(5)
O6 O 0.8577(11) 0.7638(5) 0.5278(5)
C79 C 0.1392(12) 0.7898(7) 0.9472(6)
H95 H 0.0544 0.7951 0.9691
H96 H 0.1472 0.7401 0.9513
H97 H 0.1511 0.8222 0.8994
C80 C 0.3673(12) 0.8119(8) 0.9406(7)
H98 H 0.3701 0.8481 0.8946
H99 H 0.3860 0.7651 0.9390
H100 H 0.4309 0.8253 0.9622
C81 C 0.2303(11) 0.7535(6) 1.0513(6)
H101 H 0.2947 0.7664 1.0727
H102 H 0.2461 0.7058 1.0510
H103 H 0.1454 0.7527 1.0765
C82 C 0.2134(13) 0.8773(7) 0.9843(7)
H104 H 0.2757 0.8874 1.0085
H105 H 0.1272 0.8759 1.0085
H106 H 0.2214 0.9150 0.9387
N15 N 0.2373(9) 0.8077(5) 0.9802(5)
Cl1 Cl 0.1356(3) 0.72264(17) 0.72996(17)
Cl2 Cl 0.1845(3) 0.72423(16) 0.30564(16)
O7 O -0.0515(12) 0.6855(7) 0.6471(6)
H107 H 0.0017 0.6885 0.6706
C83 C -0.1689(18) 0.6562(10) 0.6890(10)
H108 H -0.1556 0.6098 0.7245
H109 H -0.2290 0.6493 0.6620
H110 H -0.2035 0.6891 0.7095
O8 O 0.0920(17) 0.6493(8) 0.5324(8)
C84 C 0.212(2) 0.6830(12) 0.5156(12)
H111 H 0.2571 0.6791 0.4746
H112 H 0.2608 0.6599 0.5526
H113 H 0.2041 0.7338 0.5077
O9 O 0.1338(18) 1.0959(7) 0.5543(7)
H114 H 0.0981 1.1342 0.5349
C85 C 0.145(2) 1.0880(10) 0.6241(10)
H115 H 0.1925 1.1301 0.6219
H116 H 0.1912 1.0447 0.6459
H117 H 0.0602 1.0839 0.6502
loop_
_geom_bond_atom_site_label_1
_geom_bond_atom_site_label_2
_geom_bond_site_symmetry_1
_geom_bond_site_symmetry_2
C1 C2 1_555 1_555
C2 H1 1_555 1_555
C3 C2 1_555 1_555
H2 C3 1_555 1_555
C4 C3 1_555 1_555
C5 C4 1_555 1_555
C6 C5 1_555 1_555
C7 C6 1_555 1_555
H3 C7 1_555 1_555
C8 C7 1_555 1_555
H4 C8 1_555 1_555
C9 C8 1_555 1_555
C10 C9 1_555 1_555
C11 C10 1_555 1_555
C12 C11 1_555 1_555
H5 C12 1_555 1_555
C13 C12 1_555 1_555
H6 C13 1_555 1_555
C14 C13 1_555 1_555
C15 C14 1_555 1_555
C16 C15 1_555 1_555
C17 C16 1_555 1_555
H7 C17 1_555 1_555
C18 C17 1_555 1_555
H8 C18 1_555 1_555
C19 C18 1_555 1_555
C20 C1 1_555 1_555
C21 C5 1_555 1_555
H9 C21 1_555 1_555
H10 C21 1_555 1_555
H11 C21 1_555 1_555
C22 C10 1_555 1_555
H12 C22 1_555 1_555
H13 C22 1_555 1_555
H14 C22 1_555 1_555
C23 C10 1_555 1_555
H15 C23 1_555 1_555
H16 C23 1_555 1_555
H17 C23 1_555 1_555
C24 C15 1_555 1_555
H18 C24 1_555 1_555
H19 C24 1_555 1_555
H20 C24 1_555 1_555
C25 C20 1_555 1_555
H21 C25 1_555 1_555
H22 C25 1_555 1_555
H23 C25 1_555 1_555
C26 C20 1_555 1_555
H24 C26 1_555 1_555
H25 C26 1_555 1_555
H26 C26 1_555 1_555
C27 C5 1_555 1_555
H27 C27 1_555 1_555
H28 C27 1_555 1_555
C28 C27 1_555 1_555
H29 C28 1_555 1_555
H30 C28 1_555 1_555
C29 C28 1_555 1_555
H31 C29 1_555 1_555
H32 C29 1_555 1_555
C30 C31 1_555 1_555
C31 C32 1_555 1_555
C32 H33 1_555 1_555
C33 C32 1_555 1_555
H34 C33 1_555 1_555
C34 C33 1_555 1_555
H35 C34 1_555 1_555
C35 C34 1_555 1_555
C36 C35 1_555 1_555
C37 H36 1_555 1_555
H37 C37 1_555 1_555
C38 C37 1_555 1_555
H38 C38 1_555 1_555
H39 C38 1_555 1_555
C39 C15 1_555 1_555
H40 C39 1_555 1_555
H41 C39 1_555 1_555
N1 C1 1_555 1_555
H42 N1 1_555 1_555
N2 C6 1_555 1_555
H43 N2 1_555 1_555
N3 C11 1_555 1_555
H44 N3 1_555 1_555
N4 C16 1_555 1_555
H45 N4 1_555 1_555
N5 C29 1_555 1_555
H46 N5 1_555 1_555
N6 C31 1_555 1_555
N7 C36 1_555 1_555
H47 N7 1_555 1_555
O1 C30 1_555 1_555
O2 C36 1_555 1_555
C40 C41 1_555 1_555
C41 H48 1_555 1_555
C42 C41 1_555 1_555
H49 C42 1_555 1_555
C43 C42 1_555 1_555
C44 C43 1_555 1_555
C45 C44 1_555 1_555
C46 C45 1_555 1_555
H50 C46 1_555 1_555
C47 C46 1_555 1_555
H51 C47 1_555 1_555
C48 C47 1_555 1_555
C49 C48 1_555 1_555
C50 C49 1_555 1_555
C51 C50 1_555 1_555
H52 C51 1_555 1_555
C52 C51 1_555 1_555
H53 C52 1_555 1_555
C53 C52 1_555 1_555
C54 C53 1_555 1_555
C55 C54 1_555 1_555
C56 C55 1_555 1_555
H54 C56 1_555 1_555
C57 C56 1_555 1_555
H55 C57 1_555 1_555
C58 C57 1_555 1_555
C59 C40 1_555 1_555
C60 C44 1_555 1_555
H56 C60 1_555 1_555
H57 C60 1_555 1_555
H58 C60 1_555 1_555
C61 C49 1_555 1_555
H59 C61 1_555 1_555
H60 C61 1_555 1_555
H61 C61 1_555 1_555
C62 C49 1_555 1_555
H62 C62 1_555 1_555
H63 C62 1_555 1_555
H64 C62 1_555 1_555
C63 C54 1_555 1_555
H65 C63 1_555 1_555
H66 C63 1_555 1_555
H67 C63 1_555 1_555
C64 C59 1_555 1_555
H68 C64 1_555 1_555
H69 C64 1_555 1_555
H70 C64 1_555 1_555
C65 C59 1_555 1_555
H71 C65 1_555 1_555
H72 C65 1_555 1_555
H73 C65 1_555 1_555
C66 C44 1_555 1_555
H74 C66 1_555 1_555
H75 C66 1_555 1_555
C67 C66 1_555 1_555
H76 C67 1_555 1_555
H77 C67 1_555 1_555
C68 C67 1_555 1_555
H78 C68 1_555 1_555
H79 C68 1_555 1_555
C69 C70 1_555 1_555
C70 C71 1_555 1_555
C71 H80 1_555 1_555
C72 C71 1_555 1_555
H81 C72 1_555 1_555
C73 C72 1_555 1_555
H82 C73 1_555 1_555
C74 C73 1_555 1_555
C75 C74 1_555 1_555
C76 H83 1_555 1_555
H84 C76 1_555 1_555
C77 C76 1_555 1_555
H85 C77 1_555 1_555
H86 C77 1_555 1_555
C78 C54 1_555 1_555
H87 C78 1_555 1_555
H88 C78 1_555 1_555
N8 C40 1_555 1_555
H89 N8 1_555 1_555
N9 C45 1_555 1_555
H90 N9 1_555 1_555
N10 C50 1_555 1_555
H91 N10 1_555 1_555
N11 C55 1_555 1_555
H92 N11 1_555 1_555
N12 C68 1_555 1_555
H93 N12 1_555 1_555
N13 C70 1_555 1_555
N14 C75 1_555 1_555
H94 N14 1_555 1_555
O3 C69 1_555 1_555
O4 C75 1_555 1_555
C79 H95 1_555 1_555
H96 C79 1_555 1_555
H97 C79 1_555 1_555
C80 H98 1_555 1_555
H99 C80 1_555 1_555
H100 C80 1_555 1_555
C81 H101 1_555 1_555
H102 C81 1_555 1_555
H103 C81 1_555 1_555
C82 H104 1_555 1_555
H105 C82 1_555 1_555
H106 C82 1_555 1_555
N15 C79 1_555 1_555
O7 H107 1_555 1_555
C83 O7 1_555 1_555
H108 C83 1_555 1_555
H109 C83 1_555 1_555
H110 C83 1_555 1_555
O8 C84 1_555 1_555
C84 H111 1_555 1_555
H112 C84 1_555 1_555
H113 C84 1_555 1_555
O9 H114 1_555 1_555
C85 O9 1_555 1_555
H115 C85 1_555 1_555
H116 C85 1_555 1_555
H117 C85 1_555 1_555
C4 N1 1_555 1_555
C9 N2 1_555 1_555
C14 N3 1_555 1_555
C19 C20 1_555 1_555
C19 N4 1_555 1_555
C30 N5 1_555 1_555
C35 N6 1_555 1_555
C37 N7 1_555 1_555
C38 C39 1_555 1_555
C43 N8 1_555 1_555
C48 N9 1_555 1_555
C53 N10 1_555 1_555
C58 C59 1_555 1_555
C58 N11 1_555 1_555
C69 N12 1_555 1_555
C74 N13 1_555 1_555
C76 N14 1_555 1_555
C77 C78 1_555 1_555
C80 N15 1_555 1_555
C81 N15 1_555 1_555
C82 N15 1_555 1_555

#END
