
#######################################################################
#
#                 Cambridge Crystallographic Data Centre
#                                CCDC 
#
#######################################################################
#
# If this CIF has been generated from an entry in the Cambridge 
# Structural Database, then it will include bibliographic, chemical, 
# crystal, experimental, refinement or atomic coordinate data resulting 
# from the CCDC's data processing and validation procedures.
#
#######################################################################

data_COQDAP
_chemical_formula_moiety         'C18 H15 F3 O1'
_chemical_name_systematic        
4-(4-Methoxyphenyl)-3-(trifluoromethyl)-1,2-dihydronaphthalene
_symmetry_cell_setting           orthorhombic
_symmetry_space_group_name_H-M   'F d d 2'
_symmetry_Int_Tables_number      43
_space_group_name_Hall           'F 2 -2d'
loop_
_symmetry_equiv_pos_site_id
_symmetry_equiv_pos_as_xyz
1 x,y,z
2 -x,-y,z
3 1/4-x,1/4+y,1/4+z
4 1/4+x,1/4-y,1/4+z
5 x,1/2+y,1/2+z
6 -x,1/2-y,1/2+z
7 1/4-x,3/4+y,3/4+z
8 1/4+x,3/4-y,3/4+z
9 1/2+x,y,1/2+z
10 1/2-x,-y,1/2+z
11 3/4-x,1/4+y,3/4+z
12 3/4+x,1/4-y,3/4+z
13 1/2+x,1/2+y,z
14 1/2-x,1/2-y,z
15 3/4-x,3/4+y,1/4+z
16 3/4+x,3/4-y,1/4+z
_cell_length_a                   38.6451(16)
_cell_length_b                   18.5006(7)
_cell_length_c                   8.3788(3)
_cell_angle_alpha                90
_cell_angle_beta                 90
_cell_angle_gamma                90
_cell_volume                     5990.49
_cell_formula_units_Z            16
loop_
_atom_site_label
_atom_site_type_symbol
_atom_site_fract_x
_atom_site_fract_y
_atom_site_fract_z
C1 C 0.91741(9) 0.09209(18) 0.3007(6)
H1 H 0.9093 0.0503 0.3496
C2 C 0.83585(8) 0.15933(17) 0.3570(5)
C3 C 0.91357(8) 0.21900(18) 0.2531(5)
H2 H 0.9027 0.2632 0.2698
O1 O 0.98650(7) 0.14085(15) 0.0303(4)
C4 C 0.94583(9) 0.08810(18) 0.1994(5)
H3 H 0.9566 0.0439 0.1810
C5 C 0.77350(10) 0.1699(2) 0.3722(7)
H4 H 0.7535 0.1794 0.4305
C6 C 0.95810(8) 0.1502(2) 0.1260(5)
C7 C 0.87179(10) 0.16785(19) 0.5956(5)
C8 C 0.90104(8) 0.15742(17) 0.3297(4)
C9 C 0.87008(8) 0.16198(18) 0.4350(4)
C10 C 0.80010(11) 0.1347(2) 0.1274(6)
H5 H 0.7980 0.1216 0.0207
C11 C 0.80591(9) 0.17584(19) 0.4450(6)
C12 C 0.94190(8) 0.21526(18) 0.1526(5)
H6 H 0.9500 0.2569 0.1028
C13 C 0.77108(11) 0.1500(3) 0.2152(7)
H7 H 0.7494 0.1469 0.1674
C14 C 0.90484(13) 0.1706(3) 0.6851(6)
C15 C 1.00014(12) 0.2043(2) -0.0463(7)
H8 H 0.9838 0.2216 -0.1237
H9 H 1.0215 0.1925 -0.0986
H10 H 1.0042 0.2411 0.0322
C16 C 0.83256(10) 0.1388(2) 0.1974(5)
H11 H 0.8522 0.1278 0.1378
C17 C 0.83971(11) 0.1695(3) 0.6979(5)
H12 H 0.8444 0.1967 0.7945
H13 H 0.8336 0.1206 0.7285
C18 C 0.80964(11) 0.2037(3) 0.6105(6)
H14 H 0.7885 0.1942 0.6691
H15 H 0.8130 0.2556 0.6070
F1 F 0.90339(14) 0.1305(4) 0.8185(7)
F2 F 0.93337(13) 0.1534(5) 0.6154(8)
F3 F 0.90944(18) 0.2362(4) 0.7480(11)
F4? F 0.9273(2) 0.2192(8) 0.6244(14)
F5? F 0.9247(3) 0.1093(7) 0.6546(14)
F6? F 0.9019(3) 0.1815(8) 0.832(2)
loop_
_geom_bond_atom_site_label_1
_geom_bond_atom_site_label_2
_geom_bond_site_symmetry_1
_geom_bond_site_symmetry_2
C1 H1 1_555 1_555
C2 C9 1_555 1_555
C3 H2 1_555 1_555
O1 C6 1_555 1_555
C4 C1 1_555 1_555
H3 C4 1_555 1_555
C5 H4 1_555 1_555
C6 C4 1_555 1_555
C7 C9 1_555 1_555
C8 C1 1_555 1_555
C9 C8 1_555 1_555
C10 H5 1_555 1_555
C11 C2 1_555 1_555
C12 C3 1_555 1_555
H6 C12 1_555 1_555
C13 C5 1_555 1_555
H7 C13 1_555 1_555
C14 C7 1_555 1_555
C15 O1 1_555 1_555
H8 C15 1_555 1_555
H9 C15 1_555 1_555
H10 C15 1_555 1_555
C16 C2 1_555 1_555
H11 C16 1_555 1_555
C17 C7 1_555 1_555
H12 C17 1_555 1_555
H13 C17 1_555 1_555
C18 C11 1_555 1_555
H14 C18 1_555 1_555
H15 C18 1_555 1_555
F1 C14 1_555 1_555
F2 C14 1_555 1_555
F3 C14 1_555 1_555
C3 C8 1_555 1_555
C5 C11 1_555 1_555
C6 C12 1_555 1_555
C10 C13 1_555 1_555
C10 C16 1_555 1_555
C17 C18 1_555 1_555

#END
