
#######################################################################
#
#                 Cambridge Crystallographic Data Centre
#                                CCDC 
#
#######################################################################
#
# If this CIF has been generated from an entry in the Cambridge 
# Structural Database, then it will include bibliographic, chemical, 
# crystal, experimental, refinement or atomic coordinate data resulting 
# from the CCDC's data processing and validation procedures.
#
#######################################################################

data_COQFIZ
_chemical_formula_moiety         'C41 H51 N7 O2,C8 H20 N1 1+,Cl1 1-'
_chemical_name_systematic        
'Tetraethylammonium chloride 1,19,24,24,33,33-hexamethyl-6,14,38,39,40,41,42-hepta-azaheptacyclo[17.9.9.1^8,12^.1^20,23^.1^25,28^.1^29,32^.1^34,37^]dotetraconta-8(42),9,11,20,22,25,27,29,31,34,36-undecaene-7,13-dione'
_symmetry_cell_setting           monoclinic
_symmetry_space_group_name_H-M   'P 21'
_symmetry_Int_Tables_number      4
_space_group_name_Hall           'P 2yb'
loop_
_symmetry_equiv_pos_site_id
_symmetry_equiv_pos_as_xyz
1 x,y,z
2 -x,1/2+y,-z
_cell_length_a                   10.4660(3)
_cell_length_b                   11.2980(4)
_cell_length_c                   20.0760(5)
_cell_angle_alpha                90
_cell_angle_beta                 104.461(2)
_cell_angle_gamma                90
_cell_volume                     2298.67
_exptl_crystal_colour            colorless
_exptl_crystal_description       prisms
_cell_formula_units_Z            2
loop_
_atom_site_label
_atom_site_type_symbol
_atom_site_fract_x
_atom_site_fract_y
_atom_site_fract_z
Cl1 Cl 0.13537(17) 0.3911(2) 0.74316(9)
O1 O -0.0908(6) -0.0653(5) 0.6743(3)
N1 N 0.3165(6) 0.6382(6) 0.7700(3)
H1 H 0.2758 0.5696 0.7614
N2 N 0.2587(5) 0.5123(5) 0.6172(3)
H2 H 0.2233 0.4814 0.6486
N3 N 0.3832(5) 0.2587(5) 0.6913(3)
H3 H 0.3235 0.2995 0.7056
N4 N 0.4461(6) 0.3874(6) 0.8415(3)
H4 H 0.3677 0.3908 0.8126
N5 N -0.0220(6) 0.1247(6) 0.6827(3)
H5 H 0.0232 0.1793 0.7099
C1 C 0.4006(8) 0.6688(8) 0.8323(4)
C2 C 0.4480(8) 0.7805(8) 0.8242(4)
H6 H 0.5097 0.8241 0.8581
C3 C 0.3880(8) 0.8188(7) 0.7559(4)
H7 H 0.4026 0.8926 0.7363
C4 C 0.3047(7) 0.7298(7) 0.7230(4)
C5 C 0.2229(7) 0.7220(7) 0.6497(4)
C6 C 0.2752(7) 0.6323(7) 0.6086(3)
C7 C 0.3330(7) 0.6417(7) 0.5543(4)
H8 H 0.3565 0.7137 0.5359
C8 C 0.3516(7) 0.5277(8) 0.5304(4)
H9 H 0.3897 0.5096 0.4934
C9 C 0.3052(7) 0.4470(7) 0.5698(3)
C10 C 0.2947(7) 0.3118(7) 0.5653(3)
C11 C 0.3925(7) 0.2548(6) 0.6239(3)
C12 C 0.5020(7) 0.1828(7) 0.6236(4)
H10 H 0.5343 0.1636 0.5847
C13 C 0.5555(7) 0.1443(7) 0.6921(4)
H11 H 0.6308 0.0952 0.7073
C14 C 0.4793(7) 0.1904(7) 0.7330(3)
C15 C 0.4927(7) 0.1756(7) 0.8099(3)
C16 C 0.5306(7) 0.2906(7) 0.8493(4)
C17 C 0.6428(8) 0.3233(9) 0.8978(4)
H12 H 0.7199 0.2764 0.9133
C18 C 0.6237(8) 0.4383(9) 0.9206(4)
H13 H 0.6853 0.4813 0.9548
C19 C 0.5033(8) 0.4777(8) 0.8858(4)
C20 C 0.4297(7) 0.5911(8) 0.8947(4)
C21 C 0.0785(7) 0.6892(8) 0.6502(4)
H14 H 0.0270 0.6747 0.6030
H15 H 0.0388 0.7545 0.6701
H16 H 0.0789 0.6176 0.6778
C22 C 0.2193(8) 0.8432(7) 0.6151(4)
H17 H 0.3094 0.8681 0.6159
H18 H 0.1790 0.9013 0.6398
H19 H 0.1671 0.8378 0.5673
C23 C 0.3224(7) 0.2750(7) 0.4974(3)
H20 H 0.2586 0.3131 0.4593
H21 H 0.3146 0.1889 0.4924
H22 H 0.4119 0.2994 0.4967
C24 C 0.3614(8) 0.1328(7) 0.8220(4)
H23 H 0.3671 0.1319 0.8714
H24 H 0.3426 0.0527 0.8033
H25 H 0.2905 0.1864 0.7989
C25 C 0.6016(8) 0.0862(8) 0.8384(4)
H26 H 0.6854 0.1157 0.8314
H27 H 0.5798 0.0105 0.8144
H28 H 0.6098 0.0750 0.8877
C26 C 0.5156(8) 0.6597(8) 0.9560(4)
H29 H 0.5980 0.6839 0.9452
H30 H 0.5356 0.6089 0.9969
H31 H 0.4678 0.7301 0.9650
C27 C 0.1528(7) 0.2736(7) 0.5664(3)
H32 H 0.1299 0.3116 0.6064
H33 H 0.0908 0.3041 0.5244
C28 C 0.1317(7) 0.1399(6) 0.5706(4)
H34 H 0.1669 0.1001 0.5349
H35 H 0.1826 0.1109 0.6160
C29 C -0.0130(7) 0.1053(7) 0.5606(4)
H36 H -0.0620 0.1308 0.5140
H37 H -0.0184 0.0179 0.5620
C30 C -0.0807(7) 0.1543(7) 0.6111(3)
H38 H -0.0831 0.2416 0.6065
H39 H -0.1731 0.1259 0.5989
C31 C -0.0341(8) 0.0195(8) 0.7082(4)
O2 O 0.0298(12) 0.2120(11) 0.9908(6)
N6 N 0.0234(18) 0.1145(11) 0.8247(6)
N7 N 0.0683(17) 0.3177(10) 0.9026(7)
H40 H 0.0875 0.3140 0.8624
C32 C 0.020(2) 0.0135(13) 0.7888(6)
C33 C 0.0497(19) -0.0960(14) 0.8204(7)
H41 H 0.0458 -0.1658 0.7936
C34 C 0.0851(16) -0.1020(14) 0.8910(8)
H42 H 0.1071 -0.1755 0.9140
C35 C 0.0878(14) 0.0020(12) 0.9276(7)
H43 H 0.1108 0.0002 0.9765
C36 C 0.0573(15) 0.1076(11) 0.8938(6)
C37 C 0.0498(16) 0.2162(12) 0.9335(7)
C38 C 0.0581(18) 0.4349(12) 0.9327(9)
H44 H -0.0208 0.4365 0.9515
H45 H 0.0458 0.4955 0.8960
C39 C 0.179(2) 0.4664(15) 0.9894(9)
H46 H 0.1669 0.5471 1.0062
H47 H 0.1846 0.4110 1.0282
C40 C 0.3096(8) 0.4622(8) 0.9672(4)
H48 H 0.3229 0.3831 0.9488
H49 H 0.3852 0.4798 1.0067
C41 C 0.2964(8) 0.5568(8) 0.9115(4)
H50 H 0.2573 0.6288 0.9265
H51 H 0.2346 0.5279 0.8689
N10 N 0.7328(6) 0.5586(6) 0.7165(3)
C50 C 0.7927(8) 0.5364(9) 0.6553(4)
H60 H 0.8770 0.4932 0.6717
H61 H 0.8128 0.6136 0.6369
C51 C 0.7024(8) 0.4654(8) 0.5971(4)
H62 H 0.6847 0.3876 0.6144
H63 H 0.7458 0.4553 0.5595
H64 H 0.6191 0.5080 0.5801
C52 C 0.6904(8) 0.4427(8) 0.7434(4)
H65 H 0.6559 0.4603 0.7840
H66 H 0.6171 0.4085 0.7075
C53 C 0.7988(8) 0.3508(8) 0.7636(5)
H67 H 0.8325 0.3313 0.7236
H68 H 0.7633 0.2793 0.7800
H69 H 0.8707 0.3825 0.8003
C54 C 0.8410(8) 0.6192(8) 0.7696(4)
H70 H 0.8664 0.6926 0.7492
H71 H 0.9192 0.5668 0.7807
C55 C 0.8041(9) 0.6506(9) 0.8356(4)
H72 H 0.7242 0.6994 0.8251
H73 H 0.8765 0.6948 0.8658
H74 H 0.7878 0.5779 0.8588
C56 C 0.6110(8) 0.6370(8) 0.6971(4)
H75 H 0.5704 0.6409 0.7366
H76 H 0.5461 0.5998 0.6583
C57 C 0.6376(9) 0.7628(8) 0.6765(4)
H77 H 0.6875 0.8059 0.7171
H78 H 0.5536 0.8033 0.6575
H79 H 0.6889 0.7602 0.6419
O3? O 0.0821(15) 0.1624(13) 0.9963(6)
N8? N 0.033(2) 0.0881(13) 0.8215(7)
N9? N 0.085(2) 0.2799(11) 0.9060(8)
H52? H 0.0997 0.2823 0.8647
C42? C 0.023(2) -0.0058(15) 0.7796(7)
C43? C 0.057(2) -0.1197(16) 0.8044(8)
H53? H 0.0489 -0.1847 0.7736
C44? C 0.1011(18) -0.1365(14) 0.8741(8)
H54? H 0.1254 -0.2131 0.8925
C45? C 0.1096(17) -0.0395(14) 0.9171(8)
H55? H 0.1391 -0.0493 0.9655
C46? C 0.0756(17) 0.0709(12) 0.8898(7)
C47? C 0.081(2) 0.1737(13) 0.9356(7)
C48? C 0.067(2) 0.3922(14) 0.9394(10)
H56? H -0.0108 0.3848 0.9592
H57? H 0.0472 0.4555 0.9042
C49? C 0.186(2) 0.4275(17) 0.9958(11)
H58? H 0.2107 0.3609 1.0285
H59? H 0.1624 0.4956 1.0213
loop_
_geom_bond_atom_site_label_1
_geom_bond_atom_site_label_2
_geom_bond_site_symmetry_1
_geom_bond_site_symmetry_2
O1 C31 1_555 1_555
N1 H1 1_555 1_555
N2 H2 1_555 1_555
N3 H3 1_555 1_555
N4 H4 1_555 1_555
N5 H5 1_555 1_555
C1 N1 1_555 1_555
C2 C1 1_555 1_555
H6 C2 1_555 1_555
C3 C2 1_555 1_555
H7 C3 1_555 1_555
C4 N1 1_555 1_555
C5 C4 1_555 1_555
C6 N2 1_555 1_555
C7 C6 1_555 1_555
H8 C7 1_555 1_555
C8 C7 1_555 1_555
H9 C8 1_555 1_555
C9 N2 1_555 1_555
C10 C9 1_555 1_555
C11 N3 1_555 1_555
C12 C11 1_555 1_555
H10 C12 1_555 1_555
C13 C12 1_555 1_555
H11 C13 1_555 1_555
C14 N3 1_555 1_555
C15 C14 1_555 1_555
C16 N4 1_555 1_555
C17 C16 1_555 1_555
H12 C17 1_555 1_555
C18 C17 1_555 1_555
H13 C18 1_555 1_555
C19 N4 1_555 1_555
C20 C1 1_555 1_555
C21 C5 1_555 1_555
H14 C21 1_555 1_555
H15 C21 1_555 1_555
H16 C21 1_555 1_555
C22 C5 1_555 1_555
H17 C22 1_555 1_555
H18 C22 1_555 1_555
H19 C22 1_555 1_555
C23 C10 1_555 1_555
H20 C23 1_555 1_555
H21 C23 1_555 1_555
H22 C23 1_555 1_555
C24 C15 1_555 1_555
H23 C24 1_555 1_555
H24 C24 1_555 1_555
H25 C24 1_555 1_555
C25 C15 1_555 1_555
H26 C25 1_555 1_555
H27 C25 1_555 1_555
H28 C25 1_555 1_555
C26 C20 1_555 1_555
H29 C26 1_555 1_555
H30 C26 1_555 1_555
H31 C26 1_555 1_555
C27 C10 1_555 1_555
H32 C27 1_555 1_555
H33 C27 1_555 1_555
C28 C27 1_555 1_555
H34 C28 1_555 1_555
H35 C28 1_555 1_555
C29 C28 1_555 1_555
H36 C29 1_555 1_555
H37 C29 1_555 1_555
C30 N5 1_555 1_555
H38 C30 1_555 1_555
H39 C30 1_555 1_555
C31 N5 1_555 1_555
O2 C37 1_555 1_555
N6 C32 1_555 1_555
N7 H40 1_555 1_555
C32 C31 1_555 1_555
C33 C32 1_555 1_555
H41 C33 1_555 1_555
C34 C33 1_555 1_555
H42 C34 1_555 1_555
C35 C34 1_555 1_555
H43 C35 1_555 1_555
C36 N6 1_555 1_555
C37 N7 1_555 1_555
C38 N7 1_555 1_555
H44 C38 1_555 1_555
H45 C38 1_555 1_555
C39 C38 1_555 1_555
H46 C39 1_555 1_555
H47 C39 1_555 1_555
C40 C39 1_555 1_555
H48 C40 1_555 1_555
H49 C40 1_555 1_555
C41 C20 1_555 1_555
H50 C41 1_555 1_555
H51 C41 1_555 1_555
N10 C50 1_555 1_555
C50 H60 1_555 1_555
H61 C50 1_555 1_555
C51 C50 1_555 1_555
H62 C51 1_555 1_555
H63 C51 1_555 1_555
H64 C51 1_555 1_555
C52 N10 1_555 1_555
H65 C52 1_555 1_555
H66 C52 1_555 1_555
C53 C52 1_555 1_555
H67 C53 1_555 1_555
H68 C53 1_555 1_555
H69 C53 1_555 1_555
C54 N10 1_555 1_555
H70 C54 1_555 1_555
H71 C54 1_555 1_555
C55 C54 1_555 1_555
H72 C55 1_555 1_555
H73 C55 1_555 1_555
H74 C55 1_555 1_555
C56 N10 1_555 1_555
H75 C56 1_555 1_555
H76 C56 1_555 1_555
C57 C56 1_555 1_555
H77 C57 1_555 1_555
H78 C57 1_555 1_555
H79 C57 1_555 1_555
C3 C4 1_555 1_555
C5 C6 1_555 1_555
C8 C9 1_555 1_555
C10 C11 1_555 1_555
C13 C14 1_555 1_555
C15 C16 1_555 1_555
C18 C19 1_555 1_555
C19 C20 1_555 1_555
C29 C30 1_555 1_555
C35 C36 1_555 1_555
C36 C37 1_555 1_555
C40 C41 1_555 1_555

#END
