
#######################################################################
#
#                 Cambridge Crystallographic Data Centre
#                                CCDC 
#
#######################################################################
#
# If this CIF has been generated from an entry in the Cambridge 
# Structural Database, then it will include bibliographic, chemical, 
# crystal, experimental, refinement or atomic coordinate data resulting 
# from the CCDC's data processing and validation procedures.
#
#######################################################################

data_COQFEV
_chemical_formula_moiety         
'2(C41 H51 N7 O2),C4 H12 N1 1+,5(H2 O1),Na1 1+,2(Cl1 1-),C6 H14'
_chemical_name_systematic        
'tetramethylammonium sodium bis(1,19,24,24,33,33-hexamethyl-6,14,38,39,40,41,42-heptaazaheptacyclo[17.9.9.1^8,12^.1^20,23^.1^25,28^.1^29,32^.1^34,37^]dotetraconta-8(42),9,11,20,22,25,27,29,31,34,36-undecaene-7,13-dione) bis(chloride) hexane solvate pentahydrate'
_symmetry_cell_setting           monoclinic
_symmetry_space_group_name_H-M   'C 2/c'
_symmetry_Int_Tables_number      15
_space_group_name_Hall           '-C 2yn'
loop_
_symmetry_equiv_pos_site_id
_symmetry_equiv_pos_as_xyz
1 x,y,z
2 -x,y,1/2-z
3 1/2+x,1/2+y,z
4 1/2-x,1/2+y,1/2-z
5 -x,-y,-z
6 x,-y,1/2+z
7 1/2-x,1/2-y,-z
8 1/2+x,1/2-y,1/2+z
_cell_length_a                   33.279(5)
_cell_length_b                   18.277(4)
_cell_length_c                   31.785(5)
_cell_angle_alpha                90
_cell_angle_beta                 108.793(9)
_cell_angle_gamma                90
_cell_volume                     18302.3
_exptl_crystal_colour            colorless
_exptl_crystal_description       prisms
_cell_formula_units_Z            8
loop_
_atom_site_label
_atom_site_type_symbol
_atom_site_fract_x
_atom_site_fract_y
_atom_site_fract_z
C42 C 0.2250(4) 0.6322(7) 0.2563(4)
C43 C 0.2048(4) 0.5667(8) 0.2489(4)
H52 H 0.1758 0.5591 0.2321
C44 C 0.2344(5) 0.5110(7) 0.2704(4)
H53 H 0.2282 0.4603 0.2710
C45 C 0.2727(4) 0.5426(8) 0.2898(4)
C46 C 0.3146(4) 0.5117(7) 0.3159(5)
C47 C 0.3426(4) 0.5010(8) 0.2871(5)
C48 C 0.3526(4) 0.4382(8) 0.2692(5)
H54 H 0.3435 0.3902 0.2731
C49 C 0.3789(4) 0.4580(8) 0.2441(5)
H55 H 0.3906 0.4251 0.2280
C50 C 0.3849(4) 0.5329(8) 0.2465(5)
C51 C 0.4083(4) 0.5841(7) 0.2259(4)
C52 C 0.3803(4) 0.6279(7) 0.1881(5)
C53 C 0.3707(4) 0.6209(8) 0.1434(5)
H56 H 0.3818 0.5845 0.1288
C54 C 0.3416(4) 0.6758(8) 0.1218(5)
H57 H 0.3303 0.6838 0.0907
C55 C 0.3327(4) 0.7160(7) 0.1545(5)
C56 C 0.3036(4) 0.7799(7) 0.1506(4)
C57 C 0.2633(4) 0.7585(6) 0.1593(5)
C58 C 0.2225(4) 0.7508(7) 0.1312(5)
H58 H 0.2135 0.7569 0.0998
C59 C 0.1962(4) 0.7321(7) 0.1565(5)
H59 H 0.1665 0.7234 0.1450
C60 C 0.2201(4) 0.7286(6) 0.2000(5)
C61 C 0.2094(4) 0.7088(7) 0.2412(4)
C62 C 0.3074(4) 0.4371(7) 0.3342(5)
H60 H 0.2900 0.4432 0.3537
H61 H 0.3349 0.4157 0.3512
H62 H 0.2928 0.4046 0.3095
C63 C 0.4395(4) 0.5370(8) 0.2088(5)
H63 H 0.4230 0.5041 0.1852
H64 H 0.4580 0.5082 0.2334
H65 H 0.4568 0.5695 0.1971
C64 C 0.4373(4) 0.6351(7) 0.2619(4)
H66 H 0.4525 0.6683 0.2482
H67 H 0.4577 0.6055 0.2847
H68 H 0.4199 0.6636 0.2756
C65 C 0.2911(4) 0.8095(7) 0.1032(4)
H69 H 0.3166 0.8248 0.0966
H70 H 0.2721 0.8515 0.1003
H71 H 0.2765 0.7711 0.0823
C66 C 0.1603(4) 0.7102(7) 0.2293(4)
H72 H 0.1479 0.6714 0.2078
H73 H 0.1495 0.7578 0.2164
H74 H 0.1527 0.7024 0.2563
C67 C 0.2291(4) 0.7643(7) 0.2781(4)
H75 H 0.2205 0.7527 0.3041
H76 H 0.2193 0.8136 0.2675
H77 H 0.2601 0.7621 0.2863
C68 C 0.3245(4) 0.8410(6) 0.1836(4)
H78 H 0.3052 0.8839 0.1771
H79 H 0.3270 0.8240 0.2139
C69 C 0.3679(4) 0.8663(7) 0.1837(4)
H80 H 0.3669 0.8768 0.1528
H81 H 0.3887 0.8264 0.1952
C70 C 0.3828(4) 0.9349(7) 0.2121(4)
H82 H 0.4106 0.9500 0.2100
H83 H 0.3624 0.9749 0.1996
C71 C 0.3871(4) 0.9261(7) 0.2613(4)
H84 H 0.3970 0.9731 0.2767
H85 H 0.3588 0.9155 0.2637
C72 C 0.4576(5) 0.8793(9) 0.2978(4)
C73 C 0.4824(4) 0.8162(8) 0.3229(4)
C74 C 0.5237(4) 0.8049(8) 0.3222(4)
H86 H 0.5358 0.8367 0.3059
C75 C 0.5466(4) 0.7461(8) 0.3458(5)
H87 H 0.5738 0.7346 0.3441
C76 C 0.5293(5) 0.7047(8) 0.3717(5)
H88 H 0.5450 0.6664 0.3899
C77 C 0.4884(4) 0.7206(8) 0.3706(4)
C78 C 0.4691(6) 0.6800(8) 0.4009(5)
C79 C 0.4053(4) 0.6643(7) 0.4223(5)
H89 H 0.3767 0.6867 0.4125
H90 H 0.4207 0.6836 0.4523
C80 C 0.4002(4) 0.5813(8) 0.4259(5)
H91 H 0.4284 0.5601 0.4419
H92 H 0.3816 0.5722 0.4442
C81 C 0.3820(4) 0.5413(7) 0.3823(4)
H93 H 0.3823 0.4881 0.3884
H94 H 0.4008 0.5498 0.3641
C82 C 0.3375(4) 0.5630(8) 0.3553(4)
H95 H 0.3384 0.6129 0.3434
H96 H 0.3202 0.5656 0.3755
N8 N 0.2669(3) 0.6164(6) 0.2810(3)
H97 H 0.2871 0.6494 0.2899
N9 N 0.3613(3) 0.5584(6) 0.2727(3)
H98 H 0.3588 0.6047 0.2791
N10 N 0.3561(3) 0.6855(6) 0.1943(4)
H99 H 0.3557 0.7008 0.2204
N11 N 0.2617(3) 0.7440(5) 0.2017(3)
H100 H 0.2838 0.7443 0.2260
N12 N 0.4277(4) 0.6881(5) 0.3921(4)
H101 H 0.4130 0.7089 0.3668
N13 N 0.4647(3) 0.7745(6) 0.3456(4)
N14 N 0.4158(3) 0.8696(5) 0.2837(3)
H102 H 0.4054 0.8271 0.2882
O3 O 0.4921(3) 0.6418(5) 0.4317(4)
O4 O 0.4751(3) 0.9360(5) 0.2924(3)
O5 O 0.4955(6) 0.4864(11) 0.4386(8)
O6 O 0.5826(8) 0.6087(13) 0.5357(9)
Na1 Na 0.5093(3) 0.5791(6) 0.5055(4)
O7 O 0.5462(5) 0.9230(7) 0.7485(6)
O8 O 0.5209(3) 0.8300(6) 0.8324(4)
O9 O 0.4399(3) 0.7346(6) 0.7443(4)
Na2 Na 0.5000 0.8260(5) 0.7500
C83 C 0.2400(5) 0.9405(8) 0.3422(5)
H103 H 0.2543 0.9037 0.3644
H104 H 0.2494 0.9355 0.3161
H105 H 0.2092 0.9333 0.3333
C84 C 0.2970(5) 1.0230(9) 0.3739(6)
H106 H 0.3110 0.9881 0.3975
H107 H 0.3047 1.0730 0.3847
H108 H 0.3062 1.0139 0.3481
C85 C 0.2367(5) 1.0217(9) 0.4002(5)
H109 H 0.2060 1.0135 0.3915
H110 H 0.2432 1.0712 0.4123
H111 H 0.2514 0.9858 0.4228
C86 C 0.2294(4) 1.0685(8) 0.3265(5)
H112 H 0.2397 1.0630 0.3011
H113 H 0.2359 1.1180 0.3388
H114 H 0.1986 1.0607 0.3168
N15 N 0.2506(3) 1.0138(6) 0.3612(4)
O10 O 0.4578(3) 0.9771(6) 0.6546(3)
Cl1 Cl 0.39671(10) 0.93506(18) 0.55582(11)
Cl2 Cl 0.34885(9) 0.73353(17) 0.29092(10)
C1 C 0.3294(4) 1.1405(7) 0.5084(4)
C2 C 0.2906(5) 1.1738(8) 0.4919(4)
H1 H 0.2852 1.2202 0.4776
C3 C 0.2596(4) 1.1262(8) 0.5000(4)
H2 H 0.2303 1.1370 0.4928
C4 C 0.2784(4) 1.0644(8) 0.5192(4)
C5 C 0.2627(4) 0.9976(7) 0.5361(4)
C6 C 0.2575(4) 0.9349(7) 0.5046(4)
C7 C 0.2224(4) 0.8991(7) 0.4769(4)
H3 H 0.1938 0.9102 0.4742
C8 C 0.2353(4) 0.8438(7) 0.4535(4)
H4 H 0.2175 0.8119 0.4319
C9 C 0.2796(4) 0.8452(7) 0.4685(4)
C10 C 0.3108(4) 0.7953(7) 0.4564(4)
C11 C 0.3342(4) 0.8325(7) 0.4284(5)
C12 C 0.3324(4) 0.8234(7) 0.3856(5)
H5 H 0.3138 0.7910 0.3649
C13 C 0.3627(4) 0.8702(7) 0.3767(5)
H6 H 0.3679 0.8748 0.3491
C14 C 0.3827(4) 0.9069(7) 0.4145(5)
C15 C 0.4191(4) 0.9623(7) 0.4264(4)
C16 C 0.4063(4) 1.0376(8) 0.4347(5)
C17 C 0.4000(4) 1.0995(8) 0.4106(5)
H7 H 0.4035 1.1043 0.3822
C18 C 0.3876(4) 1.1561(8) 0.4338(5)
H8 H 0.3821 1.2055 0.4243
C19 C 0.3848(4) 1.1264(8) 0.4730(5)
C20 C 0.3733(4) 1.1632(7) 0.5097(5)
C21 C 0.2185(4) 1.0146(7) 0.5403(4)
H9 H 0.2217 1.0498 0.5644
H10 H 0.2059 0.9693 0.5470
H11 H 0.2000 1.0352 0.5124
C22 C 0.3426(4) 0.7637(7) 0.4983(4)
H12 H 0.3605 0.7274 0.4901
H13 H 0.3273 0.7401 0.5164
H14 H 0.3605 0.8031 0.5154
C23 C 0.2867(4) 0.7304(7) 0.4290(4)
H15 H 0.2682 0.7481 0.4001
H16 H 0.2693 0.7069 0.4449
H17 H 0.3070 0.6950 0.4245
C24 C 0.4355(4) 0.9655(7) 0.3859(4)
H18 H 0.4608 0.9966 0.3930
H19 H 0.4133 0.9860 0.3602
H20 H 0.4426 0.9161 0.3787
C25 C 0.3738(4) 1.2463(7) 0.5048(4)
H21 H 0.4019 1.2620 0.5048
H22 H 0.3674 1.2693 0.5298
H23 H 0.3524 1.2609 0.4769
C26 C 0.4058(4) 1.1439(7) 0.5559(4)
H24 H 0.4075 1.0906 0.5596
H25 H 0.3965 1.1657 0.5794
H26 H 0.4338 1.1632 0.5578
C27 C 0.2935(4) 0.9771(7) 0.5834(4)
H27 H 0.3228 0.9757 0.5821
H28 H 0.2923 1.0166 0.6043
C28 C 0.2847(4) 0.9047(7) 0.6024(4)
H29 H 0.2546 0.9038 0.6010
H30 H 0.2890 0.8645 0.5834
C29 C 0.3119(4) 0.8905(7) 0.6492(4)
H31 H 0.3026 0.8442 0.6593
H32 H 0.3072 0.9303 0.6683
C30 C 0.3602(4) 0.8853(7) 0.6558(4)
H33 H 0.3698 0.9320 0.6464
H34 H 0.3759 0.8783 0.6877
C31 C 0.3716(4) 0.7556(10) 0.6415(5)
C32 C 0.3883(4) 0.7048(8) 0.6155(4)
C33 C 0.3769(4) 0.6335(9) 0.6126(5)
H35 H 0.3578 0.6162 0.6270
C34 C 0.3932(5) 0.5861(8) 0.5886(5)
H36 H 0.3851 0.5360 0.5857
C35 C 0.4224(4) 0.6135(9) 0.5679(5)
H37 H 0.4346 0.5831 0.5510
C36 C 0.4317(4) 0.6870(9) 0.5741(5)
C37 C 0.4650(5) 0.7182(10) 0.5549(5)
C38 C 0.5021(4) 0.8307(8) 0.5455(5)
H38 H 0.4995 0.8828 0.5527
H39 H 0.5291 0.8122 0.5665
C39 C 0.5045(4) 0.8263(8) 0.5002(5)
H40 H 0.5100 0.7748 0.4941
H41 H 0.5292 0.8556 0.4990
C40 C 0.4660(4) 0.8521(7) 0.4642(4)
H42 H 0.4415 0.8221 0.4651
H43 H 0.4702 0.8429 0.4352
C41 C 0.4547(4) 0.9327(7) 0.4664(4)
H44 H 0.4465 0.9403 0.4934
H45 H 0.4806 0.9622 0.4699
N1 N 0.3216(3) 1.0724(6) 0.5243(3)
H46 H 0.3411 1.0391 0.5359
N2 N 0.2923(3) 0.9013(6) 0.4977(3)
H47 H 0.3189 0.9145 0.5105
N3 N 0.3641(3) 0.8858(6) 0.4460(3)
H48 H 0.3705 0.9038 0.4730
N4 N 0.3963(3) 1.0550(6) 0.4731(3)
H49 H 0.3972 1.0238 0.4945
N5 N 0.3705(3) 0.8257(7) 0.6307(3)
H50 H 0.3763 0.8371 0.6065
N6 N 0.4150(4) 0.7312(6) 0.5963(4)
N7 N 0.4665(3) 0.7896(7) 0.5535(3)
H51 H 0.4455 0.8147 0.5575
O1 O 0.3616(3) 0.7336(5) 0.6738(3)
O2 O 0.4902(3) 0.6765(6) 0.5457(3)
loop_
_geom_bond_atom_site_label_1
_geom_bond_atom_site_label_2
_geom_bond_site_symmetry_1
_geom_bond_site_symmetry_2
C1 C2 1_555 1_555
C2 H1 1_555 1_555
C3 C2 1_555 1_555
H2 C3 1_555 1_555
C4 C3 1_555 1_555
C5 C4 1_555 1_555
C6 C5 1_555 1_555
C7 C6 1_555 1_555
H3 C7 1_555 1_555
C8 C7 1_555 1_555
H4 C8 1_555 1_555
C9 C8 1_555 1_555
C10 C9 1_555 1_555
C11 C10 1_555 1_555
C12 C11 1_555 1_555
H5 C12 1_555 1_555
C13 C12 1_555 1_555
H6 C13 1_555 1_555
C14 C13 1_555 1_555
C15 C14 1_555 1_555
C16 C15 1_555 1_555
C17 C16 1_555 1_555
H7 C17 1_555 1_555
C18 C17 1_555 1_555
H8 C18 1_555 1_555
C19 C18 1_555 1_555
C20 C1 1_555 1_555
C21 C5 1_555 1_555
H9 C21 1_555 1_555
H10 C21 1_555 1_555
H11 C21 1_555 1_555
C22 C10 1_555 1_555
H12 C22 1_555 1_555
H13 C22 1_555 1_555
H14 C22 1_555 1_555
C23 C10 1_555 1_555
H15 C23 1_555 1_555
H16 C23 1_555 1_555
H17 C23 1_555 1_555
C24 C15 1_555 1_555
H18 C24 1_555 1_555
H19 C24 1_555 1_555
H20 C24 1_555 1_555
C25 C20 1_555 1_555
H21 C25 1_555 1_555
H22 C25 1_555 1_555
H23 C25 1_555 1_555
C26 C20 1_555 1_555
H24 C26 1_555 1_555
H25 C26 1_555 1_555
H26 C26 1_555 1_555
C27 C5 1_555 1_555
H27 C27 1_555 1_555
H28 C27 1_555 1_555
C28 C27 1_555 1_555
H29 C28 1_555 1_555
H30 C28 1_555 1_555
C29 C28 1_555 1_555
H31 C29 1_555 1_555
H32 C29 1_555 1_555
C30 C29 1_555 1_555
H33 C30 1_555 1_555
H34 C30 1_555 1_555
C31 C32 1_555 1_555
C32 C33 1_555 1_555
C33 H35 1_555 1_555
C34 C33 1_555 1_555
H36 C34 1_555 1_555
C35 C34 1_555 1_555
H37 C35 1_555 1_555
C36 C35 1_555 1_555
C37 C36 1_555 1_555
C38 H38 1_555 1_555
H39 C38 1_555 1_555
C39 C38 1_555 1_555
H40 C39 1_555 1_555
H41 C39 1_555 1_555
C40 C39 1_555 1_555
H42 C40 1_555 1_555
H43 C40 1_555 1_555
C41 C15 1_555 1_555
H44 C41 1_555 1_555
H45 C41 1_555 1_555
N1 C1 1_555 1_555
H46 N1 1_555 1_555
N2 C6 1_555 1_555
H47 N2 1_555 1_555
N3 C11 1_555 1_555
H48 N3 1_555 1_555
N4 C16 1_555 1_555
H49 N4 1_555 1_555
N5 C30 1_555 1_555
H50 N5 1_555 1_555
N6 C32 1_555 1_555
N7 C37 1_555 1_555
H51 N7 1_555 1_555
O1 C31 1_555 1_555
O2 C37 1_555 1_555
C42 C43 1_555 1_555
C43 H52 1_555 1_555
C44 C43 1_555 1_555
H53 C44 1_555 1_555
C45 C44 1_555 1_555
C46 C45 1_555 1_555
C47 C46 1_555 1_555
C48 C47 1_555 1_555
H54 C48 1_555 1_555
C49 C48 1_555 1_555
H55 C49 1_555 1_555
C50 C49 1_555 1_555
C51 C50 1_555 1_555
C52 C51 1_555 1_555
C53 C52 1_555 1_555
H56 C53 1_555 1_555
C54 C53 1_555 1_555
H57 C54 1_555 1_555
C55 C54 1_555 1_555
C56 C55 1_555 1_555
C57 C56 1_555 1_555
C58 C57 1_555 1_555
H58 C58 1_555 1_555
C59 C58 1_555 1_555
H59 C59 1_555 1_555
C60 C59 1_555 1_555
C61 C42 1_555 1_555
C62 C46 1_555 1_555
H60 C62 1_555 1_555
H61 C62 1_555 1_555
H62 C62 1_555 1_555
C63 C51 1_555 1_555
H63 C63 1_555 1_555
H64 C63 1_555 1_555
H65 C63 1_555 1_555
C64 C51 1_555 1_555
H66 C64 1_555 1_555
H67 C64 1_555 1_555
H68 C64 1_555 1_555
C65 C56 1_555 1_555
H69 C65 1_555 1_555
H70 C65 1_555 1_555
H71 C65 1_555 1_555
C66 C61 1_555 1_555
H72 C66 1_555 1_555
H73 C66 1_555 1_555
H74 C66 1_555 1_555
C67 C61 1_555 1_555
H75 C67 1_555 1_555
H76 C67 1_555 1_555
H77 C67 1_555 1_555
C68 C56 1_555 1_555
H78 C68 1_555 1_555
H79 C68 1_555 1_555
C69 C68 1_555 1_555
H80 C69 1_555 1_555
H81 C69 1_555 1_555
C70 C69 1_555 1_555
H82 C70 1_555 1_555
H83 C70 1_555 1_555
C71 C70 1_555 1_555
H84 C71 1_555 1_555
H85 C71 1_555 1_555
C72 C73 1_555 1_555
C73 C74 1_555 1_555
C74 H86 1_555 1_555
C75 C74 1_555 1_555
H87 C75 1_555 1_555
C76 C75 1_555 1_555
H88 C76 1_555 1_555
C77 C76 1_555 1_555
C78 C77 1_555 1_555
C79 H89 1_555 1_555
H90 C79 1_555 1_555
C80 C79 1_555 1_555
H91 C80 1_555 1_555
H92 C80 1_555 1_555
C81 C80 1_555 1_555
H93 C81 1_555 1_555
H94 C81 1_555 1_555
C82 C46 1_555 1_555
H95 C82 1_555 1_555
H96 C82 1_555 1_555
N8 C42 1_555 1_555
H97 N8 1_555 1_555
N9 C47 1_555 1_555
H98 N9 1_555 1_555
N10 C52 1_555 1_555
H99 N10 1_555 1_555
N11 C57 1_555 1_555
H100 N11 1_555 1_555
N12 C78 1_555 1_555
H101 N12 1_555 1_555
N13 C73 1_555 1_555
N14 C71 1_555 1_555
H102 N14 1_555 1_555
O3 C78 1_555 1_555
O4 C72 1_555 1_555
C83 H103 1_555 1_555
H104 C83 1_555 1_555
H105 C83 1_555 1_555
C84 H106 1_555 1_555
H107 C84 1_555 1_555
H108 C84 1_555 1_555
C85 H109 1_555 1_555
H110 C85 1_555 1_555
H111 C85 1_555 1_555
C86 H112 1_555 1_555
H113 C86 1_555 1_555
H114 C86 1_555 1_555
N15 C83 1_555 1_555
C4 N1 1_555 1_555
C9 N2 1_555 1_555
C14 N3 1_555 1_555
C19 C20 1_555 1_555
C19 N4 1_555 1_555
C31 N5 1_555 1_555
C36 N6 1_555 1_555
C38 N7 1_555 1_555
C40 C41 1_555 1_555
C45 N8 1_555 1_555
C50 N9 1_555 1_555
C55 N10 1_555 1_555
C60 C61 1_555 1_555
C60 N11 1_555 1_555
C72 N14 1_555 1_555
C77 N13 1_555 1_555
C79 N12 1_555 1_555
C81 C82 1_555 1_555
C84 N15 1_555 1_555
C85 N15 1_555 1_555
C86 N15 1_555 1_555

#END
