
#######################################################################
#
#                 Cambridge Crystallographic Data Centre
#                                CCDC 
#
#######################################################################
#
# If this CIF has been generated from an entry in the Cambridge 
# Structural Database, then it will include bibliographic, chemical, 
# crystal, experimental, refinement or atomic coordinate data resulting 
# from the CCDC's data processing and validation procedures.
#
#######################################################################

data_COQMEC
_chemical_formula_moiety         'C26 H24 N2 O3 S1'
_chemical_name_systematic        
3-((4-methylphenyl)sulfonyl)-14-phenyl-16-oxa-3,13-diazatetracyclo[11.2.1.0^1,5^.0^7,12^]hexadeca-5,7,9,11-tetraene
_symmetry_cell_setting           monoclinic
_symmetry_space_group_name_H-M   'P 21/n'
_symmetry_Int_Tables_number      14
_space_group_name_Hall           '-P 2yn'
loop_
_symmetry_equiv_pos_site_id
_symmetry_equiv_pos_as_xyz
1 x,y,z
2 1/2-x,1/2+y,1/2-z
3 -x,-y,-z
4 1/2+x,1/2-y,1/2+z
_cell_length_a                   14.253(3)
_cell_length_b                   6.4755(12)
_cell_length_c                   24.086(4)
_cell_angle_alpha                90
_cell_angle_beta                 97.097(4)
_cell_angle_gamma                90
_cell_volume                     2205.99
_exptl_crystal_colour            colorless
_exptl_crystal_description       prismatic
_cell_formula_units_Z            4
loop_
_atom_site_label
_atom_site_type_symbol
_atom_site_fract_x
_atom_site_fract_y
_atom_site_fract_z
S1 S 0.59506(6) 0.00685(13) 1.07582(3)
N1 N 0.77115(17) 0.5638(3) 0.91006(9)
N2 N 0.62769(18) 0.0920(4) 1.01848(10)
O1 O 0.73610(14) 0.5288(3) 0.96393(7)
O2 O 0.51573(16) 0.1264(4) 1.08684(10)
O3 O 0.58974(17) -0.2125(3) 1.07106(9)
C1 C 0.7097(2) 0.4355(4) 0.86827(11)
H1 H 0.7476 0.3219 0.8559
C2 C 0.6349(2) 0.3461(4) 0.90141(12)
H2 H 0.5802 0.4361 0.9000
H3 H 0.6147 0.2102 0.8878
C3 C 0.6877(2) 0.3355(4) 0.95965(11)
C4 C 0.6293(2) 0.3166(4) 1.00809(13)
H4 H 0.6588 0.3900 1.0408
H5 H 0.5659 0.3699 0.9979
C5 C 0.7033(3) -0.0144(4) 0.99326(13)
H6 H 0.6771 -0.1119 0.9649
H7 H 0.7451 -0.0875 1.0215
C6 C 0.7547(2) 0.1557(4) 0.96784(11)
C7 C 0.8446(2) 0.1531(5) 0.95889(11)
H8 H 0.8755 0.0282 0.9670
C8 C 0.9031(2) 0.3158(5) 0.93818(11)
C9 C 0.8685(2) 0.5061(5) 0.91599(11)
C10 C 0.9304(3) 0.6500(5) 0.89936(12)
H9 H 0.9067 0.7755 0.8850
C11 C 1.0268(3) 0.6139(7) 0.90329(14)
H10 H 1.0674 0.7137 0.8919
C12 C 1.0613(3) 0.4283(7) 0.92425(15)
H11 H 1.1258 0.4009 0.9274
C13 C 0.9996(3) 0.2822(6) 0.94063(13)
H12 H 1.0239 0.1558 0.9539
C14 C 0.6713(2) 0.5613(4) 0.81792(12)
C15 C 0.6332(3) 0.7541(5) 0.82495(14)
H13 H 0.6347 0.8089 0.8607
C16 C 0.5932(3) 0.8656(6) 0.77987(17)
H14 H 0.5688 0.9962 0.7853
C17 C 0.5889(3) 0.7871(7) 0.72711(17)
H15 H 0.5600 0.8614 0.6966
C18 C 0.6276(3) 0.5985(6) 0.71967(14)
H16 H 0.6262 0.5455 0.6837
C19 C 0.6688(2) 0.4846(5) 0.76456(12)
H17 H 0.6949 0.3559 0.7587
C20 C 0.6874(2) 0.0637(5) 1.12885(12)
C21 C 0.7577(3) -0.0768(5) 1.14373(14)
H18 H 0.7554 -0.2051 1.1263
C22 C 0.8320(3) -0.0314(6) 1.18417(15)
H19 H 0.8787 -0.1297 1.1939
C23 C 0.8377(3) 0.1582(7) 1.21023(15)
C24 C 0.7675(3) 0.2988(6) 1.19443(16)
H20 H 0.7707 0.4282 1.2113
C25 C 0.6924(3) 0.2550(5) 1.15432(14)
H21 H 0.6456 0.3532 1.1446
C26 C 0.9179(3) 0.2067(8) 1.25499(18)
H22 H 0.9731 0.2421 1.2379
H23 H 0.9311 0.0882 1.2786
H24 H 0.9006 0.3209 1.2770
loop_
_geom_bond_atom_site_label_1
_geom_bond_atom_site_label_2
_geom_bond_site_symmetry_1
_geom_bond_site_symmetry_2
S1 N2 1_555 1_555
N1 O1 1_555 1_555
N2 C4 1_555 1_555
O1 C3 1_555 1_555
O2 S1 1_555 1_555
O3 S1 1_555 1_555
C1 N1 1_555 1_555
H1 C1 1_555 1_555
C2 C1 1_555 1_555
H2 C2 1_555 1_555
H3 C2 1_555 1_555
C3 C2 1_555 1_555
C4 C3 1_555 1_555
H4 C4 1_555 1_555
H5 C4 1_555 1_555
C5 N2 1_555 1_555
H6 C5 1_555 1_555
H7 C5 1_555 1_555
C6 C3 1_555 1_555
C7 C6 1_555 1_555
H8 C7 1_555 1_555
C8 C7 1_555 1_555
C9 N1 1_555 1_555
C10 C9 1_555 1_555
H9 C10 1_555 1_555
C11 C10 1_555 1_555
H10 C11 1_555 1_555
C12 C11 1_555 1_555
H11 C12 1_555 1_555
C13 C8 1_555 1_555
H12 C13 1_555 1_555
C14 C1 1_555 1_555
C15 C14 1_555 1_555
H13 C15 1_555 1_555
C16 C15 1_555 1_555
H14 C16 1_555 1_555
C17 C16 1_555 1_555
H15 C17 1_555 1_555
C18 C17 1_555 1_555
H16 C18 1_555 1_555
C19 C14 1_555 1_555
H17 C19 1_555 1_555
C20 S1 1_555 1_555
C21 C20 1_555 1_555
H18 C21 1_555 1_555
C22 C21 1_555 1_555
H19 C22 1_555 1_555
C23 C22 1_555 1_555
C24 C23 1_555 1_555
H20 C24 1_555 1_555
C25 C20 1_555 1_555
H21 C25 1_555 1_555
C26 C23 1_555 1_555
H22 C26 1_555 1_555
H23 C26 1_555 1_555
H24 C26 1_555 1_555
C5 C6 1_555 1_555
C8 C9 1_555 1_555
C12 C13 1_555 1_555
C18 C19 1_555 1_555
C24 C25 1_555 1_555

#END
