
#######################################################################
#
#                 Cambridge Crystallographic Data Centre
#                                CCDC 
#
#######################################################################
#
# If this CIF has been generated from an entry in the Cambridge 
# Structural Database, then it will include bibliographic, chemical, 
# crystal, experimental, refinement or atomic coordinate data resulting 
# from the CCDC's data processing and validation procedures.
#
#######################################################################

data_COQNON
_chemical_formula_moiety         'C27 H26 N2 O3 S1'
_chemical_name_systematic        
10-methyl-3-((4-methylphenyl)sulfonyl)-14-phenyl-16-oxa-3,13-diazatetracyclo[11.2.1.0^1,5^.0^7,12^]hexadeca-5,7,9,11-tetraene
_symmetry_cell_setting           monoclinic
_symmetry_space_group_name_H-M   'P 21/n'
_symmetry_Int_Tables_number      14
_space_group_name_Hall           '-P 2yn'
loop_
_symmetry_equiv_pos_site_id
_symmetry_equiv_pos_as_xyz
1 x,y,z
2 1/2-x,1/2+y,1/2-z
3 -x,-y,-z
4 1/2+x,1/2-y,1/2+z
_cell_length_a                   15.1215(13)
_cell_length_b                   6.3513(5)
_cell_length_c                   24.198(2)
_cell_angle_alpha                90
_cell_angle_beta                 102.516(2)
_cell_angle_gamma                90
_cell_volume                     2268.78
_exptl_crystal_colour            colorless
_exptl_crystal_description       prismatic
_cell_formula_units_Z            4
_exptl_crystal_recrystallization_method Petroether/ethylacetate
loop_
_atom_site_label
_atom_site_type_symbol
_atom_site_fract_x
_atom_site_fract_y
_atom_site_fract_z
S1 S 0.59691(3) 1.01023(9) 1.08084(2)
N1 N 0.76801(11) 0.4779(2) 0.91955(6)
N2 N 0.62224(11) 0.9265(3) 1.02329(7)
O1 O 0.74218(9) 0.51166(19) 0.97396(5)
O2 O 0.58384(10) 1.2319(2) 1.07457(6)
O3 O 0.52709(10) 0.8778(3) 1.09218(7)
C1 C 0.63459(15) 0.6993(3) 1.01531(9)
H1 H 0.5767 0.6276 1.0054
H2 H 0.6706 0.6360 1.0493
C2 C 0.68305(14) 1.0539(3) 0.99639(9)
H3 H 0.7227 1.1409 1.0241
H4 H 0.6486 1.1437 0.9670
C3 C 0.73618(13) 0.8938(3) 0.97176(7)
C4 C 0.68413(13) 0.6906(3) 0.96665(8)
C5 C 0.62620(13) 0.6552(3) 0.90764(8)
H5 H 0.5955 0.7832 0.8922
H6 H 0.5819 0.5447 0.9074
C6 C 0.69823(13) 0.5896(3) 0.87565(8)
H7 H 0.7257 0.7168 0.8638
C7 C 0.81797(13) 0.9248(3) 0.96140(8)
H8 H 0.8401 1.0614 0.9675
C8 C 0.87868(13) 0.7753(3) 0.94175(8)
C9 C 0.85686(12) 0.5673(3) 0.92425(8)
C10 C 0.92044(14) 0.4374(3) 0.90925(8)
H9 H 0.9042 0.3001 0.8980
C11 C 1.00858(14) 0.5049(4) 0.91033(8)
C12 C 1.02957(15) 0.7102(4) 0.92619(9)
H10 H 1.0875 0.7607 0.9269
C13 C 0.96641(14) 0.8416(4) 0.94100(9)
H11 H 0.9827 0.9799 0.9509
C14 C 1.07752(17) 0.3595(5) 0.89431(12)
H12 H 1.1061 0.4283 0.8675
H13 H 1.0480 0.2336 0.8777
H14 H 1.1224 0.3237 0.9275
C15 C 0.66618(13) 0.4522(3) 0.82466(8)
C16 C 0.66772(16) 0.5244(4) 0.77123(10)
H15 H 0.6913 0.6570 0.7667
C17 C 0.6345(2) 0.4011(7) 0.72430(11)
H16 H 0.6350 0.4520 0.6883
C18 C 0.6010(2) 0.2062(7) 0.73031(14)
H17 H 0.5787 0.1237 0.6986
C19 C 0.6001(2) 0.1314(5) 0.78317(14)
H18 H 0.5775 -0.0024 0.7874
C20 C 0.63257(18) 0.2535(4) 0.82995(11)
H19 H 0.6319 0.2012 0.8658
C21 C 0.69342(14) 0.9689(3) 1.13564(8)
C22 C 0.70323(15) 0.7798(4) 1.16497(9)
H20 H 0.6586 0.6767 1.1565
C23 C 0.78008(16) 0.7459(4) 1.20693(10)
H21 H 0.7867 0.6189 1.2265
C24 C 0.84702(15) 0.8963(4) 1.22035(10)
C25 C 0.83603(16) 1.0834(4) 1.19025(10)
H22 H 0.8810 1.1857 1.1984
C26 C 0.76002(15) 1.1211(4) 1.14861(9)
H23 H 0.7535 1.2486 1.1292
C27 C 0.92945(18) 0.8585(6) 1.26702(12)
H24 H 0.9138 0.7666 1.2949
H25 H 0.9508 0.9903 1.2844
H26 H 0.9762 0.7947 1.2515
loop_
_geom_bond_atom_site_label_1
_geom_bond_atom_site_label_2
_geom_bond_site_symmetry_1
_geom_bond_site_symmetry_2
S1 N2 1_555 1_555
N1 O1 1_555 1_555
N2 C1 1_555 1_555
O1 C4 1_555 1_555
O2 S1 1_555 1_555
O3 S1 1_555 1_555
C1 H1 1_555 1_555
H2 C1 1_555 1_555
C2 N2 1_555 1_555
H3 C2 1_555 1_555
H4 C2 1_555 1_555
C3 C2 1_555 1_555
C4 C1 1_555 1_555
C5 C4 1_555 1_555
H5 C5 1_555 1_555
H6 C5 1_555 1_555
C6 N1 1_555 1_555
H7 C6 1_555 1_555
C7 C3 1_555 1_555
H8 C7 1_555 1_555
C8 C7 1_555 1_555
C9 N1 1_555 1_555
C10 C9 1_555 1_555
H9 C10 1_555 1_555
C11 C10 1_555 1_555
C12 C11 1_555 1_555
H10 C12 1_555 1_555
C13 C8 1_555 1_555
H11 C13 1_555 1_555
C14 C11 1_555 1_555
H12 C14 1_555 1_555
H13 C14 1_555 1_555
H14 C14 1_555 1_555
C15 C6 1_555 1_555
C16 C15 1_555 1_555
H15 C16 1_555 1_555
C17 C16 1_555 1_555
H16 C17 1_555 1_555
C18 C17 1_555 1_555
H17 C18 1_555 1_555
C19 C18 1_555 1_555
H18 C19 1_555 1_555
C20 C15 1_555 1_555
H19 C20 1_555 1_555
C21 S1 1_555 1_555
C22 C21 1_555 1_555
H20 C22 1_555 1_555
C23 C22 1_555 1_555
H21 C23 1_555 1_555
C24 C23 1_555 1_555
C25 C24 1_555 1_555
H22 C25 1_555 1_555
C26 C21 1_555 1_555
H23 C26 1_555 1_555
C27 C24 1_555 1_555
H24 C27 1_555 1_555
H25 C27 1_555 1_555
H26 C27 1_555 1_555
C3 C4 1_555 1_555
C5 C6 1_555 1_555
C8 C9 1_555 1_555
C12 C13 1_555 1_555
C19 C20 1_555 1_555
C25 C26 1_555 1_555

#END
