
#######################################################################
#
#                 Cambridge Crystallographic Data Centre
#                                CCDC 
#
#######################################################################
#
# If this CIF has been generated from an entry in the Cambridge 
# Structural Database, then it will include bibliographic, chemical, 
# crystal, experimental, refinement or atomic coordinate data resulting 
# from the CCDC's data processing and validation procedures.
#
#######################################################################

data_COQRAB
_chemical_name_common            
Tetrahydro-2-naphthyl-4H-1,3,6,2-dioxazaboracine
_chemical_formula_moiety         'C14 H16 B1 N1 O2'
_chemical_name_systematic        
1-(2-Naphthyl)-2,8-dioxa-5-aza-1-bora-bicyclo(3.3.0)octane
_symmetry_cell_setting           orthorhombic
_symmetry_space_group_name_H-M   'P 21 21 21'
_symmetry_Int_Tables_number      19
_space_group_name_Hall           'P 2ac 2ab'
loop_
_symmetry_equiv_pos_site_id
_symmetry_equiv_pos_as_xyz
1 x,y,z
2 1/2-x,-y,1/2+z
3 1/2+x,1/2-y,-z
4 -x,1/2+y,1/2-z
_cell_length_a                   9.266(6)
_cell_length_b                   11.034(8)
_cell_length_c                   12.0635(10)
_cell_angle_alpha                90
_cell_angle_beta                 90
_cell_angle_gamma                90
_cell_volume                     1233.38
_exptl_crystal_colour            colorless
_chemical_melting_point          249-253deg.C
_cell_formula_units_Z            4
_exptl_crystal_recrystallization_method acetone
loop_
_atom_site_label
_atom_site_type_symbol
_atom_site_fract_x
_atom_site_fract_y
_atom_site_fract_z
B1 B 0.2332(3) 0.7266(3) 0.5344(3)
C1 C 0.2999(3) 0.5940(2) 0.5491(2)
C2 C 0.3067(3) 0.5384(3) 0.6558(3)
C3 C 0.3677(3) 0.4275(3) 0.6712(3)
C4 C 0.4289(3) 0.3640(3) 0.5817(3)
C5 C 0.4232(3) 0.4161(3) 0.4743(3)
C6 C 0.3566(3) 0.5314(3) 0.4623(3)
C7 C 0.4801(3) 0.3530(3) 0.3841(3)
C8 C 0.5450(3) 0.2430(4) 0.3991(4)
C9 C 0.5531(3) 0.1905(3) 0.5042(4)
C10 C 0.4959(3) 0.2481(3) 0.5927(3)
C11 C 0.2135(4) 0.8580(3) 0.6866(3)
C12 C 0.3204(3) 0.9231(3) 0.6171(3)
C13 C 0.1937(3) 0.8583(3) 0.3819(3)
C14 C 0.3495(3) 0.8839(3) 0.4153(3)
N1 N 0.3587(3) 0.8353(2) 0.5293(2)
O1 O 0.1459(2) 0.7693(2) 0.6260(2)
O2 O 0.1624(2) 0.7418(2) 0.4273(2)
H1 H 0.2683(3) 0.5791(3) 0.7165(3)
H2 H 0.3688(3) 0.3933(3) 0.7416(3)
H3 H 0.3515(3) 0.5655(3) 0.3919(3)
H4 H 0.4739(3) 0.3861(3) 0.3134(3)
H5 H 0.5843(3) 0.2027(4) 0.3385(4)
H6 H 0.5979(3) 0.1157(3) 0.5133(4)
H7 H 0.5002(3) 0.2116(3) 0.6621(3)
H8 H 0.2619(4) 0.8217(3) 0.7497(3)
H9 H 0.1423(4) 0.9149(3) 0.7143(3)
H10 H 0.2786(3) 0.9959(3) 0.5855(3)
H11 H 0.4047(3) 0.9452(3) 0.6603(3)
H12 H 0.1293(3) 0.9192(3) 0.4121(3)
H13 H 0.1838(3) 0.8574(3) 0.3018(3)
H14 H 0.4166(3) 0.8428(3) 0.3664(3)
H15 H 0.3695(3) 0.9702(3) 0.4140(3)
H16 H 0.4409(26) 0.8058(24) 0.5417(26)
loop_
_geom_bond_atom_site_label_1
_geom_bond_atom_site_label_2
_geom_bond_site_symmetry_1
_geom_bond_site_symmetry_2
B1 C1 1_555 1_555
C1 C2 1_555 1_555
C2 C3 1_555 1_555
C3 C4 1_555 1_555
C4 C5 1_555 1_555
C5 C6 1_555 1_555
C6 C1 1_555 1_555
C7 C5 1_555 1_555
C8 C7 1_555 1_555
C9 C8 1_555 1_555
C10 C4 1_555 1_555
C11 C12 1_555 1_555
C12 N1 1_555 1_555
C13 C14 1_555 1_555
C14 N1 1_555 1_555
N1 B1 1_555 1_555
O1 B1 1_555 1_555
O2 B1 1_555 1_555
H1 C2 1_555 1_555
H2 C3 1_555 1_555
H3 C6 1_555 1_555
H4 C7 1_555 1_555
H5 C8 1_555 1_555
H6 C9 1_555 1_555
H7 C10 1_555 1_555
H8 C11 1_555 1_555
H9 C11 1_555 1_555
H10 C12 1_555 1_555
H11 C12 1_555 1_555
H12 C13 1_555 1_555
H13 C13 1_555 1_555
H14 C14 1_555 1_555
H15 C14 1_555 1_555
H16 N1 1_555 1_555
C9 C10 1_555 1_555
C11 O1 1_555 1_555
C13 O2 1_555 1_555

#END
