
#######################################################################
#
#                 Cambridge Crystallographic Data Centre
#                                CCDC 
#
#######################################################################
#
# If this CIF has been generated from an entry in the Cambridge 
# Structural Database, then it will include bibliographic, chemical, 
# crystal, experimental, refinement or atomic coordinate data resulting 
# from the CCDC's data processing and validation procedures.
#
#######################################################################

data_COQSAE
_chemical_formula_moiety         'C22 H28 N2 O4'
_chemical_name_systematic        
1-(4-(2-hydroxy-3-(4-(2-methoxyphenyl)piperazin-1-yl)propoxy)phenyl)ethanone
_symmetry_cell_setting           orthorhombic
_symmetry_space_group_name_H-M   'P 21 21 21'
_symmetry_Int_Tables_number      19
_space_group_name_Hall           'P 2ac 2ab'
loop_
_symmetry_equiv_pos_site_id
_symmetry_equiv_pos_as_xyz
1 x,y,z
2 1/2-x,-y,1/2+z
3 1/2+x,1/2-y,-z
4 -x,1/2+y,1/2-z
_cell_length_a                   8.5552(3)
_cell_length_b                   11.8854(4)
_cell_length_c                   19.5527(6)
_cell_angle_alpha                90
_cell_angle_beta                 90
_cell_angle_gamma                90
_cell_volume                     1988.16
_exptl_crystal_colour            colorless
_cell_formula_units_Z            4
_exptl_crystal_recrystallization_method dichloromethane/n-hexane
loop_
_atom_site_label
_atom_site_type_symbol
_atom_site_fract_x
_atom_site_fract_y
_atom_site_fract_z
O1 O -1.38786(16) -1.96754(10) -1.08545(6)
O2 O -1.35452(18) -2.49133(11) -1.01988(6)
O3 O -1.36239(17) -1.73889(11) -1.03161(6)
H1 H -1.3699 -1.6702 -1.0333
O4 O -1.87659(16) -1.39217(11) -1.30666(6)
N1 N -1.56129(18) -1.63752(13) -1.13877(7)
C1 C -1.4527(2) -2.14665(16) -1.03162(8)
H2 H -1.5262 -2.1135 -1.0030
N2 N -1.74325(18) -1.44655(13) -1.18433(7)
C2 C -1.3177(2) -2.31328(16) -1.07075(8)
C3 C -1.3706(2) -2.08096(14) -1.07816(8)
C4 C -1.5378(2) -1.75836(15) -1.12904(8)
H3 H -1.4513 -1.7830 -1.1574
H4 H -1.6307 -1.7982 -1.1439
C5 C -1.4253(2) -2.26116(16) -1.02780(8)
H5 H -1.4798 -2.3041 -0.9960
C6 C -1.9195(3) -1.19886(17) -1.27090(9)
H6 H -1.9700 -1.1820 -1.3118
C7 C -1.2953(2) -2.43653(15) -1.06638(9)
C8 C -1.2611(2) -2.13160(16) -1.12096(8)
H7 H -1.2044 -2.0881 -1.1518
C9 C -1.4999(2) -1.91293(15) -1.04209(9)
H8 H -1.4731 -1.9266 -0.9946
H9 H -1.6027 -1.9445 -1.0504
C10 C -1.6990(2) -1.59686(16) -1.10179(9)
H10 H -1.6872 -1.6127 -1.0534
H11 H -1.7912 -1.6361 -1.1180
C11 C -1.5802(2) -1.61085(16) -1.21139(8)
H12 H -1.6686 -1.6524 -1.2295
H13 H -1.4875 -1.6346 -1.2361
C12 C -1.2364(2) -2.24627(16) -1.11773(8)
H14 H -1.1647 -2.2795 -1.1472
C13 C -1.7880(2) -1.33332(15) -1.19761(9)
C14 C -1.7198(2) -1.47232(17) -1.11209(8)
H15 H -1.8093 -1.4465 -1.0860
H16 H -1.6280 -1.4330 -1.0955
C15 C -1.6061(2) -1.48546(15) -1.22311(8)
H17 H -1.5143 -1.4439 -1.2086
H18 H -1.6221 -1.4714 -1.2715
C16 C -1.5039(2) -1.78844(15) -1.05505(8)
H19 H -1.5889 -1.7572 -1.0273
C17 C -1.8630(2) -1.30643(16) -1.26028(8)
C18 C -1.9494(3) -1.36598(18) -1.37079(9)
H20 H -2.0539 -1.3396 -1.3628
H21 H -1.9526 -1.4323 -1.3988
H22 H -1.8903 -1.3085 -1.3937
C19 C -1.8282(3) -1.13983(18) -1.16136(10)
H23 H -1.8151 -1.0842 -1.1284
C20 C -1.9024(3) -1.11581(17) -1.22188(10)
H24 H -1.9411 -1.0439 -1.2299
C21 C -1.2000(3) -2.49520(17) -1.12004(10)
H25 H -1.2476 -2.4844 -1.1640
H26 H -1.1953 -2.5742 -1.1099
H27 H -1.0961 -2.4646 -1.1205
C22 C -1.7728(3) -1.24846(17) -1.14988(9)
H28 H -1.7238 -1.2644 -1.1085
loop_
_geom_bond_atom_site_label_1
_geom_bond_atom_site_label_2
_geom_bond_site_symmetry_1
_geom_bond_site_symmetry_2
O1 C3 1_555 1_555
O2 C7 1_555 1_555
O3 H1 1_555 1_555
O4 C17 1_555 1_555
N1 C4 1_555 1_555
C1 H2 1_555 1_555
N2 C13 1_555 1_555
C2 C5 1_555 1_555
C3 C1 1_555 1_555
C4 H3 1_555 1_555
H4 C4 1_555 1_555
C5 C1 1_555 1_555
H5 C5 1_555 1_555
C6 H6 1_555 1_555
C7 C2 1_555 1_555
C8 C3 1_555 1_555
H7 C8 1_555 1_555
C9 O1 1_555 1_555
H8 C9 1_555 1_555
H9 C9 1_555 1_555
C10 N1 1_555 1_555
H10 C10 1_555 1_555
H11 C10 1_555 1_555
C11 N1 1_555 1_555
H12 C11 1_555 1_555
H13 C11 1_555 1_555
C12 C2 1_555 1_555
H14 C12 1_555 1_555
C13 C17 1_555 1_555
C14 N2 1_555 1_555
H15 C14 1_555 1_555
H16 C14 1_555 1_555
C15 N2 1_555 1_555
H17 C15 1_555 1_555
H18 C15 1_555 1_555
C16 O3 1_555 1_555
H19 C16 1_555 1_555
C17 C6 1_555 1_555
C18 O4 1_555 1_555
H20 C18 1_555 1_555
H21 C18 1_555 1_555
H22 C18 1_555 1_555
C19 H23 1_555 1_555
C20 C6 1_555 1_555
H24 C20 1_555 1_555
C21 C7 1_555 1_555
H25 C21 1_555 1_555
H26 C21 1_555 1_555
H27 C21 1_555 1_555
C22 C13 1_555 1_555
H28 C22 1_555 1_555
C4 C16 1_555 1_555
C8 C12 1_555 1_555
C9 C16 1_555 1_555
C10 C14 1_555 1_555
C11 C15 1_555 1_555
C19 C20 1_555 1_555
C19 C22 1_555 1_555

#END
