
#######################################################################
#
#                 Cambridge Crystallographic Data Centre
#                                CCDC 
#
#######################################################################
#
# If this CIF has been generated from an entry in the Cambridge 
# Structural Database, then it will include bibliographic, chemical, 
# crystal, experimental, refinement or atomic coordinate data resulting 
# from the CCDC's data processing and validation procedures.
#
#######################################################################

data_COQWUB
_chemical_formula_moiety         'C23 H30 O6'
_chemical_name_systematic        
'Ethyl 4-(methoxymethoxy)-13-oxo-19-oxapentacyclo(14.2.1.0^1,14^.0^4,12^.0^5,9^)nonadeca-14,17-diene-15-carboxylate'
_symmetry_cell_setting           triclinic
_symmetry_space_group_name_H-M   'P -1'
_symmetry_Int_Tables_number      2
_space_group_name_Hall           '-P 1'
loop_
_symmetry_equiv_pos_site_id
_symmetry_equiv_pos_as_xyz
1 x,y,z
2 -x,-y,-z
_cell_length_a                   10.306(2)
_cell_length_b                   11.417(2)
_cell_length_c                   11.436(2)
_cell_angle_alpha                105.05(3)
_cell_angle_beta                 111.60(3)
_cell_angle_gamma                110.32(3)
_cell_volume                     1051.02
_exptl_crystal_colour            colorless
_exptl_crystal_description       block
_cell_formula_units_Z            2
loop_
_atom_site_label
_atom_site_type_symbol
_atom_site_fract_x
_atom_site_fract_y
_atom_site_fract_z
C1 C 0.86653(19) 0.64247(18) 0.59854(16)
C2 C 1.03158(18) 0.76563(17) 0.67683(17)
C3 C 1.13678(19) 0.85269(18) 0.81151(17)
C4 C 1.2824(2) 0.9562(2) 0.8127(2)
C5 C 1.3603(2) 0.8760(2) 0.7678(2)
H1 H 1.4605 0.8871 0.8225
C6 C 1.2555(2) 0.7874(2) 0.6349(2)
H2 H 1.2651 0.7212 0.5766
C7 C 1.11434(19) 0.81610(18) 0.59611(17)
C8 C 1.0073(2) 0.7744(2) 0.44519(18)
H3 H 0.9697 0.6766 0.3915
H4 H 1.0706 0.8272 0.4131
C9 C 0.86111(19) 0.7954(2) 0.41190(19)
H5 H 0.8308 0.8067 0.3263
H6 H 0.8944 0.8824 0.4866
C10 C 0.70960(19) 0.68105(17) 0.39343(16)
C11 C 0.56972(19) 0.71060(19) 0.33342(18)
C12 C 0.3990(2) 0.5892(2) 0.2647(2)
H7 H 0.3935 0.5382 0.3202
H8 H 0.3645 0.5255 0.1709
C13 C 0.2950(2) 0.6591(2) 0.2597(2)
H9 H 0.2306 0.6427 0.1643
H10 H 0.2237 0.6215 0.2930
C14 C 0.4088(2) 0.8146(2) 0.3541(2)
H11 H 0.3742 0.8505 0.4165
H12 H 0.4133 0.8656 0.2985
C15 C 0.5735(2) 0.8282(2) 0.4383(2)
C16 C 0.5951(2) 0.8094(2) 0.57010(19)
H13 H 0.6076 0.8899 0.6383
H14 H 0.5002 0.7278 0.5467
C17 C 0.7415(2) 0.7921(2) 0.63409(17)
H15 H 0.7514 0.7786 0.7166
H16 H 0.8372 0.8764 0.6634
C18 C 0.72928(19) 0.66809(18) 0.52979(16)
C19 C 1.1335(2) 0.8555(2) 0.93914(18)
C20 C 0.9787(3) 0.7537(2) 1.0337(2)
H17 H 1.0836 0.8018 1.1176
H18 H 0.9245 0.6577 1.0176
C21 C 0.8843(3) 0.8214(3) 1.0533(3)
H19 H 0.9429 0.9184 1.0775
H20 H 0.8652 0.8122 1.1274
H21 H 0.7836 0.7775 0.9678
C22 C 0.6249(3) 0.5115(3) 0.16085(19)
H22 H 0.5396 0.4153 0.1030
H23 H 0.5818 0.5698 0.1344
C23 C 0.7946(3) 0.4262(3) 0.1373(2)
H24 H 0.8313 0.4305 0.2294
H25 H 0.8798 0.4433 0.1166
H26 H 0.7047 0.3353 0.0694
O1 O 0.84807(14) 0.52923(13) 0.58909(13)
O2 O 1.24408(17) 0.93832(18) 1.05468(14)
O3 O 0.99643(14) 0.75795(14) 0.91388(12)
O4 O 0.67081(13) 0.54412(12) 0.30240(11)
O5 O 0.74730(17) 0.52915(15) 0.13219(13)
O6 O 1.19884(14) 0.96510(13) 0.68561(13)
H27 H 1.346(2) 1.051(2) 0.8934(19)
H28 H 0.6285(19) 0.5832(18) 0.4985(16)
H29 H 0.665(2) 0.919(2) 0.4639(18)
H30 H 0.5775(18) 0.7392(17) 0.2599(17)
loop_
_geom_bond_atom_site_label_1
_geom_bond_atom_site_label_2
_geom_bond_site_symmetry_1
_geom_bond_site_symmetry_2
C1 C2 1_555 1_555
C2 C3 1_555 1_555
C3 C4 1_555 1_555
C4 C5 1_555 1_555
C5 H1 1_555 1_555
C6 C5 1_555 1_555
H2 C6 1_555 1_555
C7 C2 1_555 1_555
C8 C7 1_555 1_555
H3 C8 1_555 1_555
H4 C8 1_555 1_555
C9 C8 1_555 1_555
H5 C9 1_555 1_555
H6 C9 1_555 1_555
C10 C9 1_555 1_555
C11 C10 1_555 1_555
C12 C11 1_555 1_555
H7 C12 1_555 1_555
H8 C12 1_555 1_555
C13 C12 1_555 1_555
H9 C13 1_555 1_555
H10 C13 1_555 1_555
C14 C13 1_555 1_555
H11 C14 1_555 1_555
H12 C14 1_555 1_555
C15 C11 1_555 1_555
C16 C15 1_555 1_555
H13 C16 1_555 1_555
H14 C16 1_555 1_555
C17 C16 1_555 1_555
H15 C17 1_555 1_555
H16 C17 1_555 1_555
C18 C1 1_555 1_555
C19 C3 1_555 1_555
C20 H17 1_555 1_555
H18 C20 1_555 1_555
C21 C20 1_555 1_555
H19 C21 1_555 1_555
H20 C21 1_555 1_555
H21 C21 1_555 1_555
C22 H22 1_555 1_555
H23 C22 1_555 1_555
C23 H24 1_555 1_555
H25 C23 1_555 1_555
H26 C23 1_555 1_555
O1 C1 1_555 1_555
O2 C19 1_555 1_555
O3 C19 1_555 1_555
O4 C10 1_555 1_555
O5 C22 1_555 1_555
O6 C4 1_555 1_555
H27 C4 1_555 1_555
H28 C18 1_555 1_555
H29 C15 1_555 1_555
H30 C11 1_555 1_555
C6 C7 1_555 1_555
C7 O6 1_555 1_555
C10 C18 1_555 1_555
C14 C15 1_555 1_555
C17 C18 1_555 1_555
C20 O3 1_555 1_555
C22 O4 1_555 1_555
C23 O5 1_555 1_555

#END
