
#######################################################################
#
#                 Cambridge Crystallographic Data Centre
#                                CCDC 
#
#######################################################################
#
# If this CIF has been generated from an entry in the Cambridge 
# Structural Database, then it will include bibliographic, chemical, 
# crystal, experimental, refinement or atomic coordinate data resulting 
# from the CCDC's data processing and validation procedures.
#
#######################################################################

data_CORDAQ
_chemical_name_common            
difluoro(6-(10H-phenothiazin-10-yl)-N-(6-(10H-phenothiazin-10-yl)quinolin-2-yl)quinolin-2(1H)-iminato)boron
_chemical_formula_moiety         'C42 H26 B1 F2 N5 S2'
_chemical_name_systematic        
15,15-difluoro-3,11-bis(10H-phenothiazin-10-yl)-15H-14,15-quinolino[1',2':3,4][1,3,5,2]triazaborinino[1,6-a]quinoline
_symmetry_cell_setting           triclinic
_symmetry_space_group_name_H-M   'P -1'
_symmetry_Int_Tables_number      2
_space_group_name_Hall           '-P 1'
loop_
_symmetry_equiv_pos_site_id
_symmetry_equiv_pos_as_xyz
1 x,y,z
2 -x,-y,-z
_cell_length_a                   8.2448(13)
_cell_length_b                   13.187(2)
_cell_length_c                   19.061(3)
_cell_angle_alpha                100.053(14)
_cell_angle_beta                 95.703(13)
_cell_angle_gamma                95.546(12)
_cell_volume                     2016.68
_cell_formula_units_Z            2
loop_
_atom_site_label
_atom_site_type_symbol
_atom_site_fract_x
_atom_site_fract_y
_atom_site_fract_z
S1 S 1.2218(3) 0.1286(2) 0.1157(1)
S2 S 0.1920(3) 0.5920(2) 0.9131(1)
F1 F 0.8396(4) 0.2560(2) 0.5724(2)
F2 F 0.5883(4) 0.2330(3) 0.5081(2)
N1 N 0.7486(5) 0.0884(4) 0.4987(3)
N2 N 0.6636(6) -0.0226(4) 0.5772(3)
N3 N 0.6201(5) 0.1557(4) 0.6120(3)
C1 C 0.7282(7) -0.0039(5) 0.5168(3)
C2 C 0.8211(7) 0.1004(5) 0.4363(3)
N4 N 0.3537(7) 0.4524(4) 0.8036(3)
C3 C 0.9718(7) 0.1197(5) 0.3142(3)
C4 C 0.6102(7) 0.0550(5) 0.6220(3)
N5 N 1.0492(6) 0.1300(4) 0.2502(3)
C5 C 0.5356(7) 0.0274(5) 0.6810(4)
H1 H 0.5302 -0.0408 0.6880
C6 C 0.8821(7) 0.0138(4) 0.3963(3)
C7 C 0.8423(7) 0.1969(5) 0.4143(3)
H2 H 0.8064 0.2551 0.4405
C8 C 1.2086(7) 0.1851(4) 0.2600(4)
C9 C 0.5059(8) 0.4030(5) 0.6992(4)
H3 H 0.5151 0.4718 0.6935
C10 C 0.4160(7) 0.2763(5) 0.7640(4)
H4 H 0.3634 0.2572 0.8015
C11 C 0.9541(7) 0.0266(5) 0.3337(3)
H5 H 0.9896 -0.0302 0.3057
C12 C 0.8580(7) -0.0816(5) 0.4179(3)
H6 H 0.8962 -0.1390 0.3918
C13 C 0.5697(7) 0.3329(5) 0.6530(3)
H7 H 0.6236 0.3539 0.6164
C14 C 0.4258(8) 0.3751(5) 0.7559(4)
C15 C 0.5555(7) 0.2294(5) 0.6597(3)
C16 C 0.2099(8) 0.4875(5) 0.7776(4)
C17 C 0.7824(7) -0.0926(5) 0.4744(4)
H8 H 0.7643 -0.1576 0.4868
C18 C 0.4742(8) 0.0964(5) 0.7259(4)
H9 H 0.4244 0.0758 0.7636
C19 C 0.4819(7) 0.2004(5) 0.7182(3)
C20 C 1.0065(8) 0.1195(5) 0.1187(4)
C21 C 0.4598(9) 0.5098(6) 0.8631(4)
C22 C 1.2902(8) 0.2243(5) 0.3297(4)
H10 H 1.2404 0.2125 0.3697
C23 C 0.9465(8) 0.1155(5) 0.1849(3)
C24 C 0.9156(8) 0.2037(5) 0.3547(4)
H11 H 0.9287 0.2676 0.3403
C25 C 1.2910(8) 0.1983(5) 0.1998(4)
B1 B 0.7009(8) 0.1884(6) 0.5479(4)
C26 C 1.5189(9) 0.2982(5) 0.2803(5)
H12 H 1.6195 0.3392 0.2869
C27 C 0.7765(8) 0.0955(5) 0.1839(4)
H13 H 0.7299 0.0944 0.2262
C28 C 0.1340(9) 0.4504(5) 0.7074(4)
H14 H 0.1810 0.4020 0.6765
C29 C 0.1314(9) 0.5587(5) 0.8212(4)
C30 C 0.3989(10) 0.5816(6) 0.9154(4)
C31 C 0.9056(12) 0.1020(6) 0.0569(4)
H15 H 0.9502 0.1054 0.0143
C32 C 1.4449(9) 0.2558(5) 0.2119(5)
H16 H 1.4995 0.2660 0.1728
C33 C 0.6306(9) 0.4936(6) 0.8737(4)
H17 H 0.6740 0.4459 0.8409
C34 C 1.4429(9) 0.2796(5) 0.3384(4)
H18 H 1.4958 0.3050 0.3844
C35 C -0.0084(10) 0.5952(6) 0.7949(6)
H19 H -0.0550 0.6455 0.8244
C36 C 0.7285(11) 0.5503(8) 0.9337(5)
H20 H 0.8384 0.5403 0.9418
C37 C -0.0075(10) 0.4849(7) 0.6845(5)
H21 H -0.0570 0.4564 0.6384
C38 C 0.7400(12) 0.0795(8) 0.0545(5)
H22 H 0.6723 0.0663 0.0111
C39 C 0.5012(14) 0.6355(8) 0.9708(5)
H23 H 0.4608 0.6846 1.0036
C40 C 0.6771(11) 0.0772(6) 0.1173(5)
H24 H 0.5642 0.0629 0.1165
C41 C -0.0823(10) 0.5583(6) 0.7244(6)
H25 H -0.1767 0.5826 0.7060
C42 C 0.6629(15) 0.6214(9) 0.9812(5)
H26 H 0.7296 0.6603 1.0209
loop_
_geom_bond_atom_site_label_1
_geom_bond_atom_site_label_2
_geom_bond_site_symmetry_1
_geom_bond_site_symmetry_2
S1 C20 1_555 1_555
S2 C29 1_555 1_555
F1 B1 1_555 1_555
F2 B1 1_555 1_555
N1 C1 1_555 1_555
N2 C1 1_555 1_555
N3 C4 1_555 1_555
C1 C17 1_555 1_555
C2 N1 1_555 1_555
N4 C14 1_555 1_555
C3 N5 1_555 1_555
C4 N2 1_555 1_555
N5 C8 1_555 1_555
C5 C4 1_555 1_555
H1 C5 1_555 1_555
C6 C2 1_555 1_555
C7 C2 1_555 1_555
H2 C7 1_555 1_555
C8 C22 1_555 1_555
C9 H3 1_555 1_555
C10 H4 1_555 1_555
C11 C3 1_555 1_555
H5 C11 1_555 1_555
C12 C6 1_555 1_555
H6 C12 1_555 1_555
C13 C9 1_555 1_555
H7 C13 1_555 1_555
C14 C9 1_555 1_555
C15 N3 1_555 1_555
C16 N4 1_555 1_555
C17 C12 1_555 1_555
H8 C17 1_555 1_555
C18 C5 1_555 1_555
H9 C18 1_555 1_555
C19 C10 1_555 1_555
C20 C23 1_555 1_555
C21 N4 1_555 1_555
C22 H10 1_555 1_555
C23 N5 1_555 1_555
C24 C3 1_555 1_555
H11 C24 1_555 1_555
C25 S1 1_555 1_555
B1 N1 1_555 1_555
C26 H12 1_555 1_555
C27 C23 1_555 1_555
H13 C27 1_555 1_555
C28 C16 1_555 1_555
H14 C28 1_555 1_555
C29 C16 1_555 1_555
C30 S2 1_555 1_555
C31 C20 1_555 1_555
H15 C31 1_555 1_555
C32 C25 1_555 1_555
H16 C32 1_555 1_555
C33 C21 1_555 1_555
H17 C33 1_555 1_555
C34 C22 1_555 1_555
H18 C34 1_555 1_555
C35 C29 1_555 1_555
H19 C35 1_555 1_555
C36 C33 1_555 1_555
H20 C36 1_555 1_555
C37 C28 1_555 1_555
H21 C37 1_555 1_555
C38 C31 1_555 1_555
H22 C38 1_555 1_555
C39 C30 1_555 1_555
H23 C39 1_555 1_555
C40 C27 1_555 1_555
H24 C40 1_555 1_555
C41 C35 1_555 1_555
H25 C41 1_555 1_555
C42 C36 1_555 1_555
H26 C42 1_555 1_555
N3 B1 1_555 1_555
C6 C11 1_555 1_555
C7 C24 1_555 1_555
C8 C25 1_555 1_555
C10 C14 1_555 1_555
C13 C15 1_555 1_555
C15 C19 1_555 1_555
C18 C19 1_555 1_555
C21 C30 1_555 1_555
C26 C32 1_555 1_555
C26 C34 1_555 1_555
C37 C41 1_555 1_555
C38 C40 1_555 1_555
C39 C42 1_555 1_555

#END
