
#######################################################################
#
#                 Cambridge Crystallographic Data Centre
#                                CCDC 
#
#######################################################################
#
# If this CIF has been generated from an entry in the Cambridge 
# Structural Database, then it will include bibliographic, chemical, 
# crystal, experimental, refinement or atomic coordinate data resulting 
# from the CCDC's data processing and validation procedures.
#
#######################################################################

data_CORONE04
_chemical_formula_moiety         'C24 H12'
_chemical_name_systematic        coronene
_symmetry_cell_setting           monoclinic
_symmetry_space_group_name_H-M   'P 21/n'
_symmetry_Int_Tables_number      14
_space_group_name_Hall           '-P 2yn'
loop_
_symmetry_equiv_pos_site_id
_symmetry_equiv_pos_as_xyz
1 x,y,z
2 1/2-x,1/2+y,1/2-z
3 -x,-y,-z
4 1/2+x,1/2-y,1/2+z
_cell_length_a                   10.3855(12)
_cell_length_b                   3.8212(3)
_cell_length_c                   17.2111(18)
_cell_angle_alpha                90
_cell_angle_beta                 96.235(10)
_cell_angle_gamma                90
_cell_volume                     678.984
_exptl_crystal_colour            orange
_exptl_crystal_description       'Needle / Ribbon'
_cell_formula_units_Z            2
loop_
_atom_site_label
_atom_site_type_symbol
_atom_site_fract_x
_atom_site_fract_y
_atom_site_fract_z
C1 C 0.3433(3) 0.7904(7) 0.54325(15)
H1 H 0.4316 0.8361 0.5373
C2 C 0.2634(2) 0.6372(7) 0.48068(15)
C3 C 0.3099(3) 0.5453(7) 0.40856(15)
H2 H 0.3977 0.5907 0.4014
C4 C 0.2310(3) 0.3939(7) 0.34968(14)
H3 H 0.2651 0.3343 0.3024
C5 C 0.0984(3) 0.3230(7) 0.35748(14)
C6 C 0.0142(3) 0.1665(7) 0.29748(14)
H4 H 0.0467 0.1036 0.2499
C7 C -0.1129(3) 0.1033(7) 0.30609(14)
H5 H -0.1674 0.0012 0.2643
C8 C -0.1648(3) 0.1886(7) 0.37709(14)
C9 C -0.2965(3) 0.1257(7) 0.38782(15)
H6 H -0.3527 0.0243 0.3467
C10 C -0.0827(3) 0.3453(7) 0.43791(14)
C11 C 0.0492(2) 0.4107(7) 0.42855(14)
C12 C 0.1321(2) 0.5683(7) 0.48993(14)
C1B C -0.3433(3) 0.2096(7) 0.45675(15)
H1B H -0.4316 0.1639 0.4627
C2B C -0.2634(2) 0.3628(7) 0.51932(15)
C3B C -0.3099(3) 0.4547(7) 0.59144(15)
H2B H -0.3977 0.4093 0.5986
C4B C -0.2310(3) 0.6061(7) 0.65032(14)
H3B H -0.2651 0.6657 0.6976
C5B C -0.0984(3) 0.6770(7) 0.64252(14)
C6B C -0.0142(3) 0.8335(7) 0.70252(14)
H4B H -0.0467 0.8964 0.7501
C7B C 0.1129(3) 0.8967(7) 0.69391(14)
H5B H 0.1674 0.9988 0.7357
C8B C 0.1648(3) 0.8114(7) 0.62291(14)
C9B C 0.2965(3) 0.8743(7) 0.61218(15)
H6B H 0.3527 0.9757 0.6533
C10B C 0.0827(3) 0.6547(7) 0.56209(14)
C11B C -0.0492(2) 0.5893(7) 0.57145(14)
C12B C -0.1321(2) 0.4317(7) 0.51007(14)
loop_
_geom_bond_atom_site_label_1
_geom_bond_atom_site_label_2
_geom_bond_site_symmetry_1
_geom_bond_site_symmetry_2
C1 H1 1_555 1_555
C2 C1 1_555 1_555
C3 C2 1_555 1_555
H2 C3 1_555 1_555
C4 C3 1_555 1_555
H3 C4 1_555 1_555
C5 C4 1_555 1_555
C6 C5 1_555 1_555
H4 C6 1_555 1_555
C7 C6 1_555 1_555
H5 C7 1_555 1_555
C8 C7 1_555 1_555
C9 C8 1_555 1_555
H6 C9 1_555 1_555
C10 C8 1_555 1_555
C11 C5 1_555 1_555
C12 C2 1_555 1_555
C1B C9 1_555 1_555
H1B C1B 1_555 1_555
C2B C1B 1_555 1_555
C3B C2B 1_555 1_555
H2B C3B 1_555 1_555
C4B C3B 1_555 1_555
H3B C4B 1_555 1_555
C5B C4B 1_555 1_555
C6B C5B 1_555 1_555
H4B C6B 1_555 1_555
C7B C6B 1_555 1_555
H5B C7B 1_555 1_555
C8B C7B 1_555 1_555
C9B C1 1_555 1_555
H6B C9B 1_555 1_555
C10B C12 1_555 1_555
C11B C5B 1_555 1_555
C12B C10 1_555 1_555
C10 C11 1_555 1_555
C11 C12 1_555 1_555
C2B C12B 1_555 1_555
C8B C9B 1_555 1_555
C8B C10B 1_555 1_555
C10B C11B 1_555 1_555
C11B C12B 1_555 1_555

#END
