
#######################################################################
#
#                 Cambridge Crystallographic Data Centre
#                                CCDC 
#
#######################################################################
#
# If this CIF has been generated from an entry in the Cambridge 
# Structural Database, then it will include bibliographic, chemical, 
# crystal, experimental, refinement or atomic coordinate data resulting 
# from the CCDC's data processing and validation procedures.
#
#######################################################################

data_CORTMS02
_chemical_name_common            
'11beta,17,21-Trihydroxypregn-4-ene-3,20-dione methanol solvate'
_chemical_formula_moiety         'C21 H30 O5,C1 H4 O1'
_chemical_name_systematic        'Hydrocortisone methanol solvate'
_chemical_properties_biological  
'Hydrocortisone has antiphlogistic and immunesuppresive properties; also used for treatment of, and has an antiproliferative effect on, the pannus tissue formed in rheumatoid arthritis'
_symmetry_cell_setting           orthorhombic
_symmetry_space_group_name_H-M   'P 21 21 21'
_symmetry_Int_Tables_number      19
_space_group_name_Hall           'P 2ac 2ab'
loop_
_symmetry_equiv_pos_site_id
_symmetry_equiv_pos_as_xyz
1 x,y,z
2 1/2-x,-y,1/2+z
3 -x,1/2+y,1/2-z
4 1/2+x,1/2-y,-z
_cell_length_a                   7.7048(15)
_cell_length_b                   14.356(3)
_cell_length_c                   18.400(4)
_cell_angle_alpha                90
_cell_angle_beta                 90
_cell_angle_gamma                90
_cell_volume                     2035.23
_exptl_crystal_description       parallelepiped
_cell_formula_units_Z            4
loop_
_atom_site_label
_atom_site_type_symbol
_atom_site_fract_x
_atom_site_fract_y
_atom_site_fract_z
O1 O -0.1453(3) 0.95622(13) -0.24653(8)
O2 O -0.1522(2) 1.00391(12) 0.12386(8)
H1 H -0.2109 1.0071 0.1610
O3 O 0.0879(2) 0.69289(9) 0.22775(8)
H2 H 0.1623 0.6526 0.2331
O4 O 0.1619(3) 0.84736(14) 0.37209(8)
O5 O -0.1303(2) 0.78123(13) 0.42006(8)
H3 H -0.2100 0.7490 0.4355
C1 C -0.21236(18) 0.95172(11) -0.05163(7)
H4 H -0.2379 0.8856 -0.0532
H5 H -0.2923 0.9803 -0.0176
C2 C -0.2423(3) 0.99310(19) -0.12660(11)
H6 H -0.3583 0.9773 -0.1429
H7 H -0.2344 1.0604 -0.1236
C3 C -0.1134(3) 0.95839(15) -0.18071(11)
C4 C 0.0558(3) 0.93017(14) -0.15357(11)
H8 H 0.1358 0.9058 -0.1862
C5 C 0.1016(3) 0.93778(13) -0.08333(10)
C6 C 0.2883(3) 0.92697(17) -0.06155(11)
H9 H 0.3378 0.9882 -0.0531
H10 H 0.3518 0.8984 -0.1013
C7 C 0.3115(3) 0.86793(17) 0.00660(11)
H11 H 0.4317 0.8710 0.0220
H12 H 0.2851 0.8035 -0.0048
C8 C 0.1948(2) 0.90007(14) 0.06911(10)
H13 H 0.2275 0.9633 0.0839
C9 C 0.0045(2) 0.89950(13) 0.04278(10)
H14 H -0.0130 0.8366 0.0234
C10 C -0.0261(2) 0.96539(13) -0.02388(10)
C11 C -0.1327(2) 0.90892(15) 0.10328(10)
H15 H -0.2438 0.8885 0.0829
C12 C -0.0946(2) 0.84663(14) 0.16969(10)
H16 H -0.1739 0.8629 0.2086
H17 H -0.1157 0.7821 0.1567
C13 C 0.0914(3) 0.85633(13) 0.19705(10)
C14 C 0.2144(2) 0.83400(14) 0.13343(10)
H18 H 0.1825 0.7719 0.1159
C15 C 0.3934(3) 0.82449(18) 0.16921(12)
H19 H 0.4513 0.8844 0.1719
H20 H 0.4662 0.7815 0.1423
C16 C 0.3533(3) 0.78635(17) 0.24624(12)
H21 H 0.4046 0.7252 0.2526
H22 H 0.4000 0.8277 0.2831
C17 C 0.1539(3) 0.78073(14) 0.25249(10)
C18 C 0.1270(3) 0.95354(14) 0.22870(12)
H23 H 0.0887 1.0002 0.1949
H24 H 0.2493 0.9606 0.2372
H25 H 0.0654 0.9605 0.2737
C19 C 0.0074(3) 1.06978(13) -0.00735(11)
H26 H -0.0144 1.1060 -0.0502
H27 H 0.1258 1.0780 0.0075
H28 H -0.0686 1.0899 0.0309
C20 C 0.0877(3) 0.79689(15) 0.33013(10)
C21 C -0.0752(3) 0.74644(17) 0.35219(12)
H29 H -0.1651 0.7561 0.3161
H30 H -0.0527 0.6801 0.3558
O6 O 0.39431(18) 0.17000(11) 0.03424(7)
H31 H 0.4380 0.1879 -0.0039
C22 C 0.5217(5) 0.1523(3) 0.08352(18)
H32 H 0.4704 0.1367 0.1295
H33 H 0.5932 0.2067 0.0890
H34 H 0.5915 0.1012 0.0668
loop_
_geom_bond_atom_site_label_1
_geom_bond_atom_site_label_2
_geom_bond_site_symmetry_1
_geom_bond_site_symmetry_2
O1 C3 1_555 1_555
O2 H1 1_555 1_555
O3 H2 1_555 1_555
O4 C20 1_555 1_555
O5 H3 1_555 1_555
C1 H4 1_555 1_555
H5 C1 1_555 1_555
C2 C1 1_555 1_555
H6 C2 1_555 1_555
H7 C2 1_555 1_555
C3 C2 1_555 1_555
C4 C3 1_555 1_555
H8 C4 1_555 1_555
C5 C4 1_555 1_555
C6 C5 1_555 1_555
H9 C6 1_555 1_555
H10 C6 1_555 1_555
C7 C6 1_555 1_555
H11 C7 1_555 1_555
H12 C7 1_555 1_555
C8 C7 1_555 1_555
H13 C8 1_555 1_555
C9 C8 1_555 1_555
H14 C9 1_555 1_555
C10 C1 1_555 1_555
C11 O2 1_555 1_555
H15 C11 1_555 1_555
C12 C11 1_555 1_555
H16 C12 1_555 1_555
H17 C12 1_555 1_555
C13 C12 1_555 1_555
C14 C8 1_555 1_555
H18 C14 1_555 1_555
C15 C14 1_555 1_555
H19 C15 1_555 1_555
H20 C15 1_555 1_555
C16 C15 1_555 1_555
H21 C16 1_555 1_555
H22 C16 1_555 1_555
C17 O3 1_555 1_555
C18 C13 1_555 1_555
H23 C18 1_555 1_555
H24 C18 1_555 1_555
H25 C18 1_555 1_555
C19 C10 1_555 1_555
H26 C19 1_555 1_555
H27 C19 1_555 1_555
H28 C19 1_555 1_555
C20 C17 1_555 1_555
C21 O5 1_555 1_555
H29 C21 1_555 1_555
H30 C21 1_555 1_555
O6 H31 1_555 1_555
C22 O6 1_555 1_555
H32 C22 1_555 1_555
H33 C22 1_555 1_555
H34 C22 1_555 1_555
C5 C10 1_555 1_555
C9 C10 1_555 1_555
C9 C11 1_555 1_555
C13 C14 1_555 1_555
C13 C17 1_555 1_555
C16 C17 1_555 1_555
C20 C21 1_555 1_555

#END
