
#######################################################################
#
#                 Cambridge Crystallographic Data Centre
#                                CCDC 
#
#######################################################################
#
# If this CIF has been generated from an entry in the Cambridge 
# Structural Database, then it will include bibliographic, chemical, 
# crystal, experimental, refinement or atomic coordinate data resulting 
# from the CCDC's data processing and validation procedures.
#
#######################################################################

data_CORTOT
_chemical_compound_source        
'roots of Aconitum hemsleyanum var. atropurpureum'
_chemical_name_common            
11-Hydroxy-2-methyl-10-methylene-15-oxopentacyclo[7.5.3.0$1,6!.0$7,12!.0$12,16!]heptadec-5-ene-2-carbaldehyde
_chemical_formula_moiety         'C20 H24 O3'
_chemical_name_systematic        Atropurpuran
_symmetry_cell_setting           orthorhombic
_symmetry_space_group_name_H-M   'P 21 21 21'
_symmetry_Int_Tables_number      19
_space_group_name_Hall           'P 2ac 2ab'
loop_
_symmetry_equiv_pos_site_id
_symmetry_equiv_pos_as_xyz
1 x,y,z
2 1/2-x,-y,1/2+z
3 -x,1/2+y,1/2-z
4 1/2+x,1/2-y,-z
_cell_length_a                   7.4580(15)
_cell_length_b                   11.194(2)
_cell_length_c                   19.995(4)
_cell_angle_alpha                90
_cell_angle_beta                 90
_cell_angle_gamma                90
_cell_volume                     1669.28
_exptl_crystal_colour            colorless
_exptl_crystal_description       needle
_cell_formula_units_Z            4
_exptl_crystal_recrystallization_method methanol
loop_
_atom_site_label
_atom_site_type_symbol
_atom_site_fract_x
_atom_site_fract_y
_atom_site_fract_z
O1 O -0.0082(3) 0.5311(3) 0.06248(12)
O2 O 0.7478(3) 0.3584(2) 0.00800(13)
H1 H 0.8046 0.4154 0.0226
O3 O -0.1179(4) 0.6980(3) 0.19697(17)
C1 C 0.4485(5) 0.6403(5) 0.1866(2)
H2 H 0.5552 0.6823 0.1814
C2 C 0.3480(6) 0.6557(5) 0.2514(2)
H3 H 0.2933 0.7343 0.2522
H4 H 0.4320 0.6511 0.2883
C3 C 0.2029(6) 0.5616(5) 0.26100(19)
H5 H 0.1204 0.5883 0.2954
H6 H 0.2579 0.4880 0.2763
C4 C 0.0967(4) 0.5364(4) 0.19589(17)
C5 C 0.2287(4) 0.4931(3) 0.14131(16)
C6 C 0.1427(4) 0.4930(3) 0.07273(16)
C7 C 0.2571(4) 0.4396(3) 0.01792(15)
H7 H 0.2124 0.3592 0.0079
C8 C 0.4520(4) 0.4291(3) 0.04465(15)
C9 C 0.4983(4) 0.5542(3) 0.07225(16)
H8 H 0.6271 0.5578 0.0818
C10 C 0.3956(4) 0.5712(3) 0.13644(17)
C11 C 0.4518(5) 0.6485(3) 0.01723(19)
H9 H 0.3428 0.6905 0.0294
H10 H 0.5479 0.7066 0.0139
C12 C 0.4258(5) 0.5864(4) -0.05065(18)
H11 H 0.4198 0.6453 -0.0868
C13 C 0.2535(5) 0.5143(4) -0.04715(17)
H12 H 0.2445 0.4619 -0.0857
H13 H 0.1507 0.5673 -0.0471
C14 C 0.4549(5) 0.3388(3) 0.10202(17)
H14 H 0.5670 0.3457 0.1264
H15 H 0.4469 0.2584 0.0842
C15 C 0.5746(4) 0.3974(3) -0.01284(17)
H16 H 0.5188 0.3310 -0.0370
C16 C 0.5825(5) 0.5030(4) -0.06078(17)
C17 C 0.7142(6) 0.5202(5) -0.1031(2)
H17 H 0.7156 0.5882 -0.1299
H18 H 0.8062 0.4644 -0.1065
C18 C -0.0533(6) 0.4477(5) 0.2109(2)
H19 H -0.1199 0.4320 0.1708
H20 H -0.1318 0.4806 0.2442
H21 H -0.0025 0.3745 0.2273
C19 C 0.0189(5) 0.6555(4) 0.17505(19)
H22 H 0.0810 0.6992 0.1430
C20 C 0.2957(5) 0.3619(3) 0.15007(18)
H23 H 0.3335 0.3491 0.1959
H24 H 0.1989 0.3068 0.1403
loop_
_geom_bond_atom_site_label_1
_geom_bond_atom_site_label_2
_geom_bond_site_symmetry_1
_geom_bond_site_symmetry_2
O1 C6 1_555 1_555
O2 H1 1_555 1_555
O3 C19 1_555 1_555
C1 H2 1_555 1_555
C2 C1 1_555 1_555
H3 C2 1_555 1_555
H4 C2 1_555 1_555
C3 C2 1_555 1_555
H5 C3 1_555 1_555
H6 C3 1_555 1_555
C4 C3 1_555 1_555
C5 C4 1_555 1_555
C6 C5 1_555 1_555
C7 C6 1_555 1_555
H7 C7 1_555 1_555
C8 C7 1_555 1_555
C9 C8 1_555 1_555
H8 C9 1_555 1_555
C10 C1 1_555 1_555
C11 C9 1_555 1_555
H9 C11 1_555 1_555
H10 C11 1_555 1_555
C12 C11 1_555 1_555
H11 C12 1_555 1_555
C13 C7 1_555 1_555
H12 C13 1_555 1_555
H13 C13 1_555 1_555
C14 C8 1_555 1_555
H14 C14 1_555 1_555
H15 C14 1_555 1_555
C15 O2 1_555 1_555
H16 C15 1_555 1_555
C16 C12 1_555 1_555
C17 C16 1_555 1_555
H17 C17 1_555 1_555
H18 C17 1_555 1_555
C18 C4 1_555 1_555
H19 C18 1_555 1_555
H20 C18 1_555 1_555
H21 C18 1_555 1_555
C19 C4 1_555 1_555
H22 C19 1_555 1_555
C20 C5 1_555 1_555
H23 C20 1_555 1_555
H24 C20 1_555 1_555
C5 C10 1_555 1_555
C8 C15 1_555 1_555
C9 C10 1_555 1_555
C12 C13 1_555 1_555
C14 C20 1_555 1_555
C15 C16 1_555 1_555

#END
