
#######################################################################
#
#                 Cambridge Crystallographic Data Centre
#                                CCDC 
#
#######################################################################
#
# If this CIF has been generated from an entry in the Cambridge 
# Structural Database, then it will include bibliographic, chemical, 
# crystal, experimental, refinement or atomic coordinate data resulting 
# from the CCDC's data processing and validation procedures.
#
#######################################################################

data_CORZUG
_chemical_formula_moiety         'C28 H37 Cl1 O7'
_chemical_name_systematic        
21-(2-chloroethoxy)-14-hydroxy-11,11,16,16-tetramethyl-6-methylene-10,12,22,25-tetraoxaheptacyclo[11.10.2.0^1,15^.0^2,8^.0^5,9^.0^8,13^.0^18,23^]pentacos-18(23)-en-7-one
_symmetry_cell_setting           orthorhombic
_symmetry_space_group_name_H-M   'P 21 21 21'
_symmetry_Int_Tables_number      19
_space_group_name_Hall           'P 2ac 2ab'
loop_
_symmetry_equiv_pos_site_id
_symmetry_equiv_pos_as_xyz
1 x,y,z
2 1/2+x,1/2-y,-z
3 -x,1/2+y,1/2-z
4 1/2-x,-y,1/2+z
_cell_length_a                   9.4979(8)
_cell_length_b                   13.0601(10)
_cell_length_c                   21.0823(16)
_cell_angle_alpha                90
_cell_angle_beta                 90
_cell_angle_gamma                90
_cell_volume                     2615.12
_exptl_crystal_colour            colorless
_exptl_crystal_description       'rectangular plate'
_cell_formula_units_Z            4
loop_
_atom_site_label
_atom_site_type_symbol
_atom_site_fract_x
_atom_site_fract_y
_atom_site_fract_z
Cl1 Cl 1.14365(15) 0.19328(10) 0.55636(6)
O1 O 0.33528(15) 0.34226(9) 0.69555(6)
O2 O 0.16119(14) 0.40140(11) 0.76091(7)
O3 O 0.73410(15) 0.42798(12) 0.63013(7)
O4 O 0.28975(15) 0.37598(12) 0.85532(7)
O5 O 0.14525(17) 0.58509(13) 0.69481(8)
C1 C 0.39667(19) 0.47035(14) 0.77124(8)
O6 O 0.3040(2) 0.64122(13) 0.79811(8)
O7 O 0.95346(18) 0.36925(13) 0.60526(10)
C2 C 0.4521(2) 0.36323(14) 0.65428(9)
C3 C 0.28015(18) 0.43134(14) 0.72691(9)
C4 C 0.4210(2) 0.39042(15) 0.82345(9)
C5 C 0.49988(19) 0.47531(14) 0.66077(8)
C6 C 0.53513(19) 0.49390(14) 0.73258(9)
C7 C 0.2371(2) 0.50721(16) 0.67459(9)
C8 C 0.3753(2) 0.54920(13) 0.64539(9)
C9 C 0.6245(2) 0.49494(15) 0.61794(9)
C10 C 0.4521(2) 0.55064(17) 0.87192(10)
C11 C 0.3706(2) 0.56540(16) 0.81193(9)
C12 C 0.6672(2) 0.4518(2) 0.83488(10)
C13 C 0.1793(2) 0.33824(17) 0.81656(10)
C14 C 0.6607(2) 0.43649(19) 0.76219(9)
C15 C 0.3633(2) 0.58332(17) 0.57499(10)
C16 C 0.6299(2) 0.56667(17) 0.57301(9)
C17 C 0.5212(2) 0.44672(18) 0.86758(10)
C18 C 0.8408(2) 0.42292(18) 0.58151(11)
C19 C 0.2477(3) 0.6651(2) 0.56842(14)
C20 C 0.3319(3) 0.4956(2) 0.52902(11)
C21 C 0.2016(3) 0.22549(18) 0.79872(13)
C22 C 0.8869(2) 0.52790(18) 0.56324(11)
C23 C 0.7636(3) 0.5859(2) 0.53592(11)
C24 C 0.5054(2) 0.63221(19) 0.55792(12)
C25 C 0.4539(3) 0.6208(2) 0.91718(11)
C26 C 0.0455(3) 0.3527(3) 0.85427(13)
C27 C 1.0548(4) 0.2100(2) 0.62927(17)
C28 C 0.9252(3) 0.2671(2) 0.6227(2)
H1 H 0.5245 0.3161 0.6640
H2 H 0.4250 0.3458 0.6121
H3 H 0.4614 0.3243 0.8078
H4 H 0.5529 0.5665 0.7364
H5 H 0.1864 0.4661 0.6451
H6 H 0.3993 0.6109 0.6677
H7 H 0.7103 0.5175 0.8424
H8 H 0.7258 0.3996 0.8524
H9 H 0.7522 0.4592 0.7441
H10 H 0.6560 0.3620 0.7517
H11 H 0.5219 0.4154 0.9098
H12 H 0.8042 0.3859 0.5441
H13 H 0.2440 0.6909 0.5255
H14 H 0.2624 0.7229 0.5961
H15 H 0.1564 0.6404 0.5802
H16 H 0.3142 0.5214 0.4888
H17 H 0.4112 0.4522 0.5255
H18 H 0.2543 0.4533 0.5414
H19 H 0.2103 0.1830 0.8360
H20 H 0.2784 0.2146 0.7696
H21 H 0.1222 0.2013 0.7753
H22 H 0.9132 0.5631 0.6028
H23 H 0.9680 0.5249 0.5345
H24 H 0.7885 0.6592 0.5346
H25 H 0.7501 0.5589 0.4928
H26 H 0.5113 0.7003 0.5789
H27 H 0.5061 0.6476 0.5125
H28 H 0.4995 0.6073 0.9543
H29 H 0.4065 0.6819 0.9095
H30 H 0.0513 0.3109 0.8927
H31 H 0.0448 0.4232 0.8666
H32 H -0.0337 0.3344 0.8282
H33 H 1.1177 0.2481 0.6582
H34 H 1.0380 0.1404 0.6452
H35 H 0.8711 0.2679 0.6624
H36 H 0.8690 0.2342 0.5893
H37 H 0.1811 0.6147 0.7272
loop_
_geom_bond_atom_site_label_1
_geom_bond_atom_site_label_2
_geom_bond_site_symmetry_1
_geom_bond_site_symmetry_2
Cl1 C27 1_555 1_555
O1 C2 1_555 1_555
O2 C3 1_555 1_555
O3 C9 1_555 1_555
O4 C4 1_555 1_555
O5 C7 1_555 1_555
C1 C3 1_555 1_555
O6 C11 1_555 1_555
O7 C18 1_555 1_555
C2 C5 1_555 1_555
C3 O1 1_555 1_555
C4 C1 1_555 1_555
C5 C6 1_555 1_555
C6 C1 1_555 1_555
C7 C3 1_555 1_555
C8 C5 1_555 1_555
C9 C5 1_555 1_555
C10 C11 1_555 1_555
C11 C1 1_555 1_555
C12 C14 1_555 1_555
C13 O2 1_555 1_555
C14 C6 1_555 1_555
C15 C8 1_555 1_555
C16 C9 1_555 1_555
C17 C4 1_555 1_555
C18 O3 1_555 1_555
C19 C15 1_555 1_555
C20 C15 1_555 1_555
C21 C13 1_555 1_555
C22 C18 1_555 1_555
C23 C16 1_555 1_555
C24 C15 1_555 1_555
C25 C10 1_555 1_555
C26 C13 1_555 1_555
C27 C28 1_555 1_555
C28 O7 1_555 1_555
H1 C2 1_555 1_555
H2 C2 1_555 1_555
H3 C4 1_555 1_555
H4 C6 1_555 1_555
H5 C7 1_555 1_555
H6 C8 1_555 1_555
H7 C12 1_555 1_555
H8 C12 1_555 1_555
H9 C14 1_555 1_555
H10 C14 1_555 1_555
H11 C17 1_555 1_555
H12 C18 1_555 1_555
H13 C19 1_555 1_555
H14 C19 1_555 1_555
H15 C19 1_555 1_555
H16 C20 1_555 1_555
H17 C20 1_555 1_555
H18 C20 1_555 1_555
H19 C21 1_555 1_555
H20 C21 1_555 1_555
H21 C21 1_555 1_555
H22 C22 1_555 1_555
H23 C22 1_555 1_555
H24 C23 1_555 1_555
H25 C23 1_555 1_555
H26 C24 1_555 1_555
H27 C24 1_555 1_555
H28 C25 1_555 1_555
H29 C25 1_555 1_555
H30 C26 1_555 1_555
H31 C26 1_555 1_555
H32 C26 1_555 1_555
H33 C27 1_555 1_555
H34 C27 1_555 1_555
H35 C28 1_555 1_555
H36 C28 1_555 1_555
H37 O5 1_555 1_555
O4 C13 1_555 1_555
C7 C8 1_555 1_555
C10 C17 1_555 1_555
C12 C17 1_555 1_555
C16 C24 1_555 1_555
C22 C23 1_555 1_555

#END
