
#######################################################################
#
#                 Cambridge Crystallographic Data Centre
#                                CCDC 
#
#######################################################################
#
# If this CIF has been generated from an entry in the Cambridge 
# Structural Database, then it will include bibliographic, chemical, 
# crystal, experimental, refinement or atomic coordinate data resulting 
# from the CCDC's data processing and validation procedures.
#
#######################################################################

data_COSBUJ
_chemical_formula_moiety         'C42 H48 N2'
_chemical_name_systematic        
2,6,10,14-tetra-t-butyl-7,9-dihydrobenzo[g]benzo[4,5]indolo[2,3-b]carbazole
_symmetry_cell_setting           monoclinic
_symmetry_space_group_name_H-M   'C 2/c'
_symmetry_Int_Tables_number      15
_space_group_name_Hall           '-C 2yn'
loop_
_symmetry_equiv_pos_site_id
_symmetry_equiv_pos_as_xyz
1 x,y,z
2 -x,y,1/2-z
3 1/2+x,1/2+y,z
4 1/2-x,1/2+y,1/2-z
5 -x,-y,-z
6 x,-y,1/2+z
7 1/2-x,1/2-y,-z
8 1/2+x,1/2-y,1/2+z
_cell_length_a                   18.183(5)
_cell_length_b                   17.083(5)
_cell_length_c                   10.329(3)
_cell_angle_alpha                90
_cell_angle_beta                 97.513(5)
_cell_angle_gamma                90
_cell_volume                     3180.85
_exptl_crystal_colour            red
_cell_formula_units_Z            4
loop_
_atom_site_label
_atom_site_type_symbol
_atom_site_fract_x
_atom_site_fract_y
_atom_site_fract_z
N1 N 0.40269(7) -0.07531(7) 0.89568(12)
C1 C 0.5000 -0.09169(11) 0.7500
H1 H 0.5000 -0.1473 0.7500
C2 C 0.45479(8) -0.04822(8) 0.82047(14)
C3 C 0.45633(8) 0.03485(8) 0.82810(13)
C4 C 0.5000 0.07636(11) 0.7500
H2 H 0.5000 0.1320 0.7500
C5 C 0.37124(8) -0.01300(8) 0.95496(13)
C6 C 0.40492(7) 0.05634(8) 0.91865(13)
C7 C 0.38664(8) 0.12887(8) 0.97502(13)
C8 C 0.33163(8) 0.12749(8) 1.06084(13)
C9 C 0.29660(8) 0.05577(8) 1.08740(14)
H3 H 0.2587 0.0572 1.1425
C10 C 0.31443(8) -0.01504(8) 1.03807(13)
C11 C 0.31307(8) 0.19802(9) 1.11916(14)
H4 H 0.2753 0.1978 1.1746
C12 C 0.34807(8) 0.26685(8) 1.09788(14)
H5 H 0.3343 0.3134 1.1389
C13 C 0.40436(8) 0.26970(8) 1.01588(13)
C14 C 0.42183(8) 0.20124(8) 0.95525(13)
H6 H 0.4588 0.2027 0.8982
C15 C 0.27110(8) -0.08994(8) 1.06204(14)
C16 C 0.21731(9) -0.07629(9) 1.16260(15)
H7 H 0.1826 -0.0343 1.1320
H8 H 0.2454 -0.0613 1.2464
H9 H 0.1896 -0.1245 1.1736
C17 C 0.32213(9) -0.15779(9) 1.11461(16)
H10 H 0.2919 -0.2018 1.1380
H11 H 0.3549 -0.1403 1.1921
H12 H 0.3521 -0.1744 1.0472
C18 C 0.22512(8) -0.11351(9) 0.93254(14)
H13 H 0.1913 -0.0708 0.9019
H14 H 0.1963 -0.1606 0.9459
H15 H 0.2584 -0.1242 0.8673
C19 C 0.44397(8) 0.34659(8) 0.99041(14)
C20 C 0.42314(9) 0.41344(9) 1.07824(16)
H16 H 0.3698 0.4238 1.0598
H17 H 0.4507 0.4607 1.0609
H18 H 0.4356 0.3984 1.1701
C21 C 0.42040(9) 0.37069(9) 0.84752(15)
H19 H 0.4344 0.3295 0.7894
H20 H 0.4452 0.4197 0.8295
H21 H 0.3665 0.3783 0.8326
C22 C 0.52823(9) 0.33495(9) 1.01504(17)
H22 H 0.5426 0.3173 1.1051
H23 H 0.5531 0.3846 1.0013
H24 H 0.5429 0.2955 0.9545
H25 H 0.3929(11) -0.1256(13) 0.900(2)
N1A N 0.59731(7) -0.07531(7) 0.60432(12)
C2A C 0.54521(8) -0.04822(8) 0.67953(14)
C3A C 0.54367(8) 0.03485(8) 0.67190(13)
C5A C 0.62876(8) -0.01300(8) 0.54504(13)
C6A C 0.59508(7) 0.05634(8) 0.58135(13)
C7A C 0.61336(8) 0.12887(8) 0.52498(13)
C8A C 0.66837(8) 0.12749(8) 0.43916(13)
C9A C 0.70340(8) 0.05577(8) 0.41260(14)
H3A H 0.7413 0.0572 0.3575
C10A C 0.68557(8) -0.01504(8) 0.46193(13)
C11A C 0.68693(8) 0.19802(9) 0.38084(14)
H4A H 0.7247 0.1978 0.3254
C12A C 0.65193(8) 0.26685(8) 0.40212(14)
H5A H 0.6657 0.3134 0.3611
C13A C 0.59564(8) 0.26970(8) 0.48412(13)
C14A C 0.57817(8) 0.20124(8) 0.54475(13)
H6A H 0.5412 0.2027 0.6018
C15A C 0.72890(8) -0.08994(8) 0.43796(14)
C16A C 0.78269(9) -0.07629(9) 0.33740(15)
H7A H 0.8174 -0.0343 0.3680
H8A H 0.7546 -0.0613 0.2536
H9A H 0.8104 -0.1245 0.3264
C17A C 0.67787(9) -0.15779(9) 0.38539(16)
H10A H 0.7081 -0.2018 0.3620
H11A H 0.6451 -0.1403 0.3079
H12A H 0.6479 -0.1744 0.4528
C18A C 0.77488(8) -0.11351(9) 0.56746(14)
H13A H 0.8087 -0.0708 0.5981
H14A H 0.8037 -0.1606 0.5541
H15A H 0.7416 -0.1242 0.6327
C19A C 0.55603(8) 0.34659(8) 0.50959(14)
C20A C 0.57686(9) 0.41344(9) 0.42176(16)
H16A H 0.6302 0.4238 0.4402
H17A H 0.5493 0.4607 0.4391
H18A H 0.5644 0.3984 0.3299
C21A C 0.57960(9) 0.37069(9) 0.65248(15)
H19A H 0.5656 0.3295 0.7106
H20A H 0.5548 0.4197 0.6705
H21A H 0.6335 0.3783 0.6674
C22A C 0.47177(9) 0.33495(9) 0.48496(17)
H22A H 0.4574 0.3173 0.3949
H23A H 0.4469 0.3846 0.4987
H24A H 0.4571 0.2955 0.5455
H25A H 0.6071(11) -0.1256(13) 0.600(2)
loop_
_geom_bond_atom_site_label_1
_geom_bond_atom_site_label_2
_geom_bond_site_symmetry_1
_geom_bond_site_symmetry_2
N1 C2 1_555 1_555
C1 H1 1_555 1_555
C2 C1 1_555 1_555
C3 C2 1_555 1_555
C4 C3 1_555 1_555
H2 C4 1_555 1_555
C5 N1 1_555 1_555
C6 C3 1_555 1_555
C7 C6 1_555 1_555
C8 C7 1_555 1_555
C9 C8 1_555 1_555
H3 C9 1_555 1_555
C10 C5 1_555 1_555
C11 C8 1_555 1_555
H4 C11 1_555 1_555
C12 C11 1_555 1_555
H5 C12 1_555 1_555
C13 C12 1_555 1_555
C14 C7 1_555 1_555
H6 C14 1_555 1_555
C15 C10 1_555 1_555
C16 C15 1_555 1_555
H7 C16 1_555 1_555
H8 C16 1_555 1_555
H9 C16 1_555 1_555
C17 C15 1_555 1_555
H10 C17 1_555 1_555
H11 C17 1_555 1_555
H12 C17 1_555 1_555
C18 C15 1_555 1_555
H13 C18 1_555 1_555
H14 C18 1_555 1_555
H15 C18 1_555 1_555
C19 C13 1_555 1_555
C20 C19 1_555 1_555
H16 C20 1_555 1_555
H17 C20 1_555 1_555
H18 C20 1_555 1_555
C21 C19 1_555 1_555
H19 C21 1_555 1_555
H20 C21 1_555 1_555
H21 C21 1_555 1_555
C22 C19 1_555 1_555
H22 C22 1_555 1_555
H23 C22 1_555 1_555
H24 C22 1_555 1_555
H25 N1 1_555 1_555
N1A C2A 1_555 1_555
C2A C1 1_555 1_555
C3A C4 1_555 1_555
C5A N1A 1_555 1_555
C6A C3A 1_555 1_555
C7A C6A 1_555 1_555
C8A C7A 1_555 1_555
C9A C8A 1_555 1_555
H3A C9A 1_555 1_555
C10A C5A 1_555 1_555
C11A C8A 1_555 1_555
H4A C11A 1_555 1_555
C12A C11A 1_555 1_555
H5A C12A 1_555 1_555
C13A C12A 1_555 1_555
C14A C7A 1_555 1_555
H6A C14A 1_555 1_555
C15A C10A 1_555 1_555
C16A C15A 1_555 1_555
H7A C16A 1_555 1_555
H8A C16A 1_555 1_555
H9A C16A 1_555 1_555
C17A C15A 1_555 1_555
H10A C17A 1_555 1_555
H11A C17A 1_555 1_555
H12A C17A 1_555 1_555
C18A C15A 1_555 1_555
H13A C18A 1_555 1_555
H14A C18A 1_555 1_555
H15A C18A 1_555 1_555
C19A C13A 1_555 1_555
C20A C19A 1_555 1_555
H16A C20A 1_555 1_555
H17A C20A 1_555 1_555
H18A C20A 1_555 1_555
C21A C19A 1_555 1_555
H19A C21A 1_555 1_555
H20A C21A 1_555 1_555
H21A C21A 1_555 1_555
C22A C19A 1_555 1_555
H22A C22A 1_555 1_555
H23A C22A 1_555 1_555
H24A C22A 1_555 1_555
H25A N1A 1_555 1_555
C5 C6 1_555 1_555
C9 C10 1_555 1_555
C13 C14 1_555 1_555
C2A C3A 1_555 1_555
C5A C6A 1_555 1_555
C9A C10A 1_555 1_555
C13A C14A 1_555 1_555

#END
