
#######################################################################
#
#                 Cambridge Crystallographic Data Centre
#                                CCDC 
#
#######################################################################
#
# If this CIF has been generated from an entry in the Cambridge 
# Structural Database, then it will include bibliographic, chemical, 
# crystal, experimental, refinement or atomic coordinate data resulting 
# from the CCDC's data processing and validation procedures.
#
#######################################################################

data_COSBOD
_chemical_formula_moiety         'C44 H56 N2,2(C1 H1 Cl3)'
_chemical_name_systematic        
'2,4,8,10-tetra-t-butyl-6-(4-t-butylphenyl)-5,7-dihydroindolo[2,3-b]carbazole chloroform solvate'
_symmetry_cell_setting           monoclinic
_symmetry_space_group_name_H-M   'P 21/c'
_symmetry_Int_Tables_number      14
_space_group_name_Hall           '-P 2ybc'
loop_
_symmetry_equiv_pos_site_id
_symmetry_equiv_pos_as_xyz
1 x,y,z
2 -x,1/2+y,1/2-z
3 -x,-y,-z
4 x,1/2-y,1/2+z
_cell_length_a                   13.6043(18)
_cell_length_b                   29.340(4)
_cell_length_c                   11.7173(15)
_cell_angle_alpha                90
_cell_angle_beta                 101.006(3)
_cell_angle_gamma                90
_cell_volume                     4590.94
_exptl_crystal_colour            colorless
_exptl_crystal_description       Block
_cell_formula_units_Z            4
loop_
_atom_site_label
_atom_site_type_symbol
_atom_site_fract_x
_atom_site_fract_y
_atom_site_fract_z
N1 N 0.58442(10) 0.07798(5) 1.09427(12)
H1 H 0.5642(16) 0.0626(7) 1.1473(19)
N2 N 0.27749(10) 0.11288(5) 0.80119(11)
H2 H 0.2304(17) 0.0960(8) 0.8176(19)
C1 C 0.52066(12) 0.09637(5) 0.99855(13)
C2 C 0.57758(12) 0.12645(5) 0.94178(14)
C3 C 0.53306(12) 0.14963(5) 0.84205(13)
H3 H 0.5704 0.1698 0.8032
C4 C 0.43164(12) 0.14221(5) 0.80134(13)
C5 C 0.37603(12) 0.11278(5) 0.86103(13)
C6 C 0.41783(12) 0.08891(5) 0.96247(13)
C7 C 0.67797(12) 0.12721(5) 1.01051(14)
C8 C 0.76264(12) 0.15277(6) 1.00050(14)
H4 H 0.7607 0.1734 0.9376
C9 C 0.84949(12) 0.14767(6) 1.08353(14)
C10 C 0.84972(12) 0.11525(6) 1.17249(14)
H5 H 0.9100 0.1114 1.2277
C11 C 0.76802(12) 0.08848(5) 1.18530(13)
C12 C 0.67996(12) 0.09668(5) 1.10323(14)
C13 C 0.36248(12) 0.16062(5) 0.70328(13)
C14 C 0.37618(12) 0.19154(5) 0.61713(13)
H6 H 0.4401 0.2048 0.6182
C15 C 0.29597(13) 0.20276(5) 0.53023(14)
C16 C 0.20149(12) 0.18377(6) 0.53537(14)
H7 H 0.1465 0.1921 0.4762
C17 C 0.18318(12) 0.15371(5) 0.62098(13)
C18 C 0.26786(12) 0.14162(5) 0.70462(13)
C19 C 0.35767(12) 0.06007(5) 1.02779(13)
C20 C 0.39203(12) 0.01798(5) 1.07520(13)
H8 H 0.4563 0.0075 1.0665
C21 C 0.33447(13) -0.00896(5) 1.13488(14)
H9 H 0.3601 -0.0374 1.1659
C22 C 0.24012(13) 0.00497(6) 1.15003(14)
C23 C 0.20588(13) 0.04720(6) 1.10300(14)
H10 H 0.1416 0.0576 1.1118
C24 C 0.26320(12) 0.07426(6) 1.04387(14)
H11 H 0.2378 0.1029 1.0138
C25 C 0.94347(12) 0.17669(6) 1.08297(15)
C26 C 0.93459(14) 0.20517(6) 0.97207(16)
H12 H 0.9220 0.1850 0.9041
H13 H 0.9970 0.2220 0.9734
H14 H 0.8790 0.2268 0.9676
C27 C 1.03643(13) 0.14617(6) 1.09221(19)
H15 H 1.0270 0.1249 1.0266
H16 H 1.0462 0.1290 1.1652
H17 H 1.0954 0.1652 1.0907
C28 C 0.95810(15) 0.20944(7) 1.18748(17)
H18 H 1.0186 0.2277 1.1887
H19 H 0.9650 0.1918 1.2596
H20 H 0.8999 0.2297 1.1807
C29 C 0.77296(12) 0.05260(5) 1.28154(14)
C30 C 0.87976(14) 0.04574(6) 1.34928(15)
H21 H 0.9234 0.0368 1.2955
H22 H 0.8801 0.0218 1.4076
H23 H 0.9042 0.0743 1.3881
C31 C 0.73752(14) 0.00626(6) 1.22692(15)
H24 H 0.6680 0.0088 1.1856
H25 H 0.7419 -0.0168 1.2883
H26 H 0.7801 -0.0028 1.1721
C32 C 0.70717(14) 0.06750(6) 1.36791(15)
H27 H 0.7319 0.0965 1.4038
H28 H 0.7097 0.0442 1.4284
H29 H 0.6379 0.0713 1.3266
C33 C 0.30618(13) 0.23563(6) 0.43145(15)
C34 C 0.41508(14) 0.24713(7) 0.43052(16)
H30 H 0.4435 0.2641 0.5012
H31 H 0.4189 0.2658 0.3622
H32 H 0.4530 0.2189 0.4275
C35 C 0.2630(2) 0.21386(10) 0.31333(18)
H33 H 0.2696 0.2352 0.2509
H34 H 0.1920 0.2067 0.3096
H35 H 0.2996 0.1858 0.3042
C36 C 0.25002(19) 0.27968(8) 0.4470(2)
H36 H 0.2796 0.2938 0.5214
H37 H 0.1794 0.2727 0.4459
H38 H 0.2551 0.3008 0.3834
C37 C 0.07800(12) 0.13546(6) 0.62400(14)
C38 C 0.07600(13) 0.08341(6) 0.61036(15)
H39 H 0.1213 0.0696 0.6764
H40 H 0.0976 0.0752 0.5379
H41 H 0.0078 0.0722 0.6081
C39 C 0.04761(13) 0.14927(6) 0.73882(15)
H42 H -0.0195 0.1375 0.7406
H43 H 0.0473 0.1826 0.7450
H44 H 0.0956 0.1366 0.8041
C40 C -0.00121(13) 0.15523(6) 0.52533(16)
H45 H -0.0673 0.1432 0.5311
H46 H 0.0149 0.1466 0.4502
H47 H -0.0017 0.1885 0.5317
C41 C 0.17480(13) -0.02296(6) 1.21734(15)
C42 C 0.22542(16) -0.06755(7) 1.26410(18)
H48 H 0.2381 -0.0862 1.1991
H49 H 0.1816 -0.0842 1.3069
H50 H 0.2890 -0.0608 1.3163
C43 C 0.15513(15) 0.00521(7) 1.32078(17)
H51 H 0.1120 -0.0121 1.3632
H52 H 0.1220 0.0338 1.2925
H53 H 0.2189 0.0119 1.3728
C44 C 0.07510(16) -0.03417(8) 1.13639(18)
H54 H 0.0880 -0.0518 1.0698
H55 H 0.0406 -0.0058 1.1088
H56 H 0.0330 -0.0521 1.1789
C45 C 0.66803(16) 0.20301(7) 0.24118(17)
H57 H 0.7101 0.1812 0.2058
Cl1 Cl 0.71694(6) 0.20677(3) 0.39099(5)
Cl2 Cl 0.54509(4) 0.182184(19) 0.21783(5)
Cl3 Cl 0.67310(5) 0.25654(2) 0.17507(6)
Cl4 Cl 0.40431(5) 0.07914(3) 0.34622(6)
Cl5 Cl 0.54903(4) 0.121277(19) 0.52689(4)
Cl6 Cl 0.43051(11) 0.04609(3) 0.58147(9)
C46 C 0.43264(18) 0.09399(7) 0.49411(19)
H58 H 0.3803 0.1158 0.5101
loop_
_geom_bond_atom_site_label_1
_geom_bond_atom_site_label_2
_geom_bond_site_symmetry_1
_geom_bond_site_symmetry_2
N1 H1 1_555 1_555
N2 H2 1_555 1_555
C1 N1 1_555 1_555
C2 C1 1_555 1_555
C3 C2 1_555 1_555
H3 C3 1_555 1_555
C4 C3 1_555 1_555
C5 N2 1_555 1_555
C6 C1 1_555 1_555
C7 C2 1_555 1_555
C8 C7 1_555 1_555
H4 C8 1_555 1_555
C9 C8 1_555 1_555
C10 C9 1_555 1_555
H5 C10 1_555 1_555
C11 C10 1_555 1_555
C12 N1 1_555 1_555
C13 C4 1_555 1_555
C14 C13 1_555 1_555
H6 C14 1_555 1_555
C15 C14 1_555 1_555
C16 C15 1_555 1_555
H7 C16 1_555 1_555
C17 C16 1_555 1_555
C18 N2 1_555 1_555
C19 C6 1_555 1_555
C20 C19 1_555 1_555
H8 C20 1_555 1_555
C21 C20 1_555 1_555
H9 C21 1_555 1_555
C22 C21 1_555 1_555
C23 C22 1_555 1_555
H10 C23 1_555 1_555
C24 C19 1_555 1_555
H11 C24 1_555 1_555
C25 C9 1_555 1_555
C26 C25 1_555 1_555
H12 C26 1_555 1_555
H13 C26 1_555 1_555
H14 C26 1_555 1_555
C27 C25 1_555 1_555
H15 C27 1_555 1_555
H16 C27 1_555 1_555
H17 C27 1_555 1_555
C28 C25 1_555 1_555
H18 C28 1_555 1_555
H19 C28 1_555 1_555
H20 C28 1_555 1_555
C29 C11 1_555 1_555
C30 C29 1_555 1_555
H21 C30 1_555 1_555
H22 C30 1_555 1_555
H23 C30 1_555 1_555
C31 C29 1_555 1_555
H24 C31 1_555 1_555
H25 C31 1_555 1_555
H26 C31 1_555 1_555
C32 C29 1_555 1_555
H27 C32 1_555 1_555
H28 C32 1_555 1_555
H29 C32 1_555 1_555
C33 C15 1_555 1_555
C34 C33 1_555 1_555
H30 C34 1_555 1_555
H31 C34 1_555 1_555
H32 C34 1_555 1_555
C35 C33 1_555 1_555
H33 C35 1_555 1_555
H34 C35 1_555 1_555
H35 C35 1_555 1_555
C36 C33 1_555 1_555
H36 C36 1_555 1_555
H37 C36 1_555 1_555
H38 C36 1_555 1_555
C37 C17 1_555 1_555
C38 C37 1_555 1_555
H39 C38 1_555 1_555
H40 C38 1_555 1_555
H41 C38 1_555 1_555
C39 C37 1_555 1_555
H42 C39 1_555 1_555
H43 C39 1_555 1_555
H44 C39 1_555 1_555
C40 C37 1_555 1_555
H45 C40 1_555 1_555
H46 C40 1_555 1_555
H47 C40 1_555 1_555
C41 C22 1_555 1_555
C42 C41 1_555 1_555
H48 C42 1_555 1_555
H49 C42 1_555 1_555
H50 C42 1_555 1_555
C43 C41 1_555 1_555
H51 C43 1_555 1_555
H52 C43 1_555 1_555
H53 C43 1_555 1_555
C44 C41 1_555 1_555
H54 C44 1_555 1_555
H55 C44 1_555 1_555
H56 C44 1_555 1_555
C45 H57 1_555 1_555
Cl1 C45 1_555 1_555
Cl2 C45 1_555 1_555
Cl3 C45 1_555 1_555
Cl4 C46 1_555 1_555
Cl5 C46 1_555 1_555
Cl6 C46 1_555 1_555
C46 H58 1_555 1_555
C4 C5 1_555 1_555
C5 C6 1_555 1_555
C7 C12 1_555 1_555
C11 C12 1_555 1_555
C13 C18 1_555 1_555
C17 C18 1_555 1_555
C23 C24 1_555 1_555

#END
