
#######################################################################
#
#                 Cambridge Crystallographic Data Centre
#                                CCDC 
#
#######################################################################
#
# If this CIF has been generated from an entry in the Cambridge 
# Structural Database, then it will include bibliographic, chemical, 
# crystal, experimental, refinement or atomic coordinate data resulting 
# from the CCDC's data processing and validation procedures.
#
#######################################################################

data_COSCAQ
_chemical_formula_moiety         'C52 H60 N2,2(C7 H8)'
_chemical_name_systematic        
'2,6,10,14-tetra-t-butyl-8-(4-t-butylphenyl)-7,9-dihydrobenzo[g]benzo[4,5]indolo[2,3-b]carbazole toluene solvate'
_symmetry_cell_setting           monoclinic
_symmetry_space_group_name_H-M   'C 2/c'
_symmetry_Int_Tables_number      15
_space_group_name_Hall           '-C 2yn'
loop_
_symmetry_equiv_pos_site_id
_symmetry_equiv_pos_as_xyz
1 x,y,z
2 -x,y,1/2-z
3 1/2+x,1/2+y,z
4 1/2-x,1/2+y,1/2-z
5 -x,-y,-z
6 x,-y,1/2+z
7 1/2-x,1/2-y,-z
8 1/2+x,1/2-y,1/2+z
_cell_length_a                   25.799(6)
_cell_length_b                   18.171(4)
_cell_length_c                   11.441(3)
_cell_angle_alpha                90
_cell_angle_beta                 103.053(4)
_cell_angle_gamma                90
_cell_volume                     5224.88
_exptl_crystal_colour            yellow
_exptl_crystal_description       Block
_cell_formula_units_Z            4
loop_
_atom_site_label
_atom_site_type_symbol
_atom_site_fract_x
_atom_site_fract_y
_atom_site_fract_z
C29 C 0.5076(4) -0.2949(4) 0.2214(7)
C30 C 0.5340(4) -0.3178(4) 0.1245(8)
H29 H 0.5719 -0.3053 0.1473
H30 H 0.5175 -0.2921 0.0500
H31 H 0.5300 -0.3710 0.1120
C31 C 0.5339(5) -0.3296(7) 0.3414(8)
H32 H 0.5376 -0.3828 0.3309
H33 H 0.5118 -0.3207 0.3993
H34 H 0.5691 -0.3078 0.3711
C32 C 0.4486(4) -0.3246(8) 0.1897(12)
H35 H 0.4295 -0.3032 0.1135
H36 H 0.4307 -0.3106 0.2534
H37 H 0.4489 -0.3783 0.1826
C29A C 0.4924(4) -0.2949(4) 0.2786(7)
C30A C 0.4660(4) -0.3178(4) 0.3755(8)
H29A H 0.4281 -0.3053 0.3527
H30A H 0.4825 -0.2921 0.4500
H31A H 0.4700 -0.3710 0.3880
C31A C 0.4661(5) -0.3296(7) 0.1586(8)
H32A H 0.4624 -0.3828 0.1691
H33A H 0.4882 -0.3207 0.1007
H34A H 0.4309 -0.3078 0.1289
C32A C 0.5514(4) -0.3246(8) 0.3103(12)
H35A H 0.5705 -0.3032 0.3865
H36A H 0.5693 -0.3106 0.2466
H37A H 0.5511 -0.3783 0.3174
C33 C 0.8088(3) 0.7863(3) 0.8996(7)
C34 C 0.8097(2) 0.7639(3) 0.7864(6)
H38 H 0.7846 0.7846 0.7209
C35 C 0.8451(3) 0.7130(4) 0.7628(7)
H39 H 0.8431 0.6986 0.6821
C36 C 0.8821(3) 0.6832(4) 0.8495(10)
H40 H 0.9070 0.6488 0.8320
C37 C 0.8832(4) 0.7037(5) 0.9641(10)
H41 H 0.9100 0.6843 1.0276
C38 C 0.8452(4) 0.7533(4) 0.9911(6)
H42 H 0.8449 0.7638 1.0723
C39 C 0.7698(4) 0.8375(5) 0.9194(11)
H43 H 0.7684 0.8794 0.8650
H44 H 0.7793 0.8548 1.0027
H45 H 0.7349 0.8134 0.9043
C1 C 0.5018(5) -0.05607(13) 0.2426(11)
C2 C 0.5180(4) -0.0966(4) 0.3475(8)
H1 H 0.5274 -0.0721 0.4227
C3 C 0.5205(3) -0.1729(4) 0.3424(6)
H2 H 0.5317 -0.2006 0.4142
C4 C 0.5068(4) -0.20868(13) 0.2324(8)
C5 C 0.4906(4) -0.1682(4) 0.1275(6)
H3 H 0.4812 -0.1926 0.0523
C6 C 0.4880(4) -0.0919(4) 0.1325(8)
H4 H 0.4769 -0.0642 0.0608
N1 N 0.42044(10) 0.04346(14) 0.3360(2)
H5 H 0.4128(13) -0.0003(18) 0.340(3)
C7 C 0.5000 0.1863(2) 0.2500
H6 H 0.5000 0.2385 0.2500
C8 C 0.46004(10) 0.14709(15) 0.2885(3)
C9 C 0.46214(11) 0.06886(15) 0.2903(3)
C10 C 0.5000 0.0270(2) 0.2500
C11 C 0.41296(11) 0.16699(15) 0.3320(3)
C12 C 0.38855(11) 0.23641(17) 0.3469(3)
C13 C 0.40518(12) 0.30571(16) 0.3145(3)
H7 H 0.4358 0.3080 0.2817
C14 C 0.37933(12) 0.37053(17) 0.3280(3)
C15 C 0.33482(14) 0.36615(19) 0.3792(3)
H8 H 0.3164 0.4100 0.3903
C16 C 0.31748(13) 0.30059(19) 0.4132(3)
H9 H 0.2876 0.2998 0.4489
C17 C 0.34273(12) 0.23335(17) 0.3967(3)
C18 C 0.32259(12) 0.16546(18) 0.4265(3)
H10 H 0.2924 0.1664 0.4611
C19 C 0.34357(11) 0.09839(17) 0.4090(3)
C20 C 0.39018(11) 0.10136(16) 0.3604(3)
C21 C 0.39888(13) 0.44392(17) 0.2884(3)
C22 C 0.39938(17) 0.4401(2) 0.1555(4)
H11 H 0.4241 0.4016 0.1428
H12 H 0.4108 0.4876 0.1295
H13 H 0.3635 0.4286 0.1089
C23 C 0.45473(15) 0.4586(2) 0.3625(4)
H14 H 0.4536 0.4644 0.4470
H15 H 0.4686 0.5038 0.3340
H16 H 0.4779 0.4172 0.3541
C24 C 0.36351(16) 0.5090(2) 0.3052(4)
H17 H 0.3276 0.5017 0.2554
H18 H 0.3785 0.5546 0.2811
H19 H 0.3617 0.5124 0.3897
C25 C 0.31946(12) 0.02591(18) 0.4399(3)
C26 C 0.26948(13) 0.0404(2) 0.4890(3)
H20 H 0.2791 0.0705 0.5618
H21 H 0.2546 -0.0066 0.5080
H22 H 0.2429 0.0666 0.4284
C27 C 0.35978(14) -0.01502(19) 0.5367(3)
H23 H 0.3908 -0.0285 0.5052
H24 H 0.3433 -0.0596 0.5600
H25 H 0.3711 0.0169 0.6069
C28 C 0.30181(14) -0.0212(2) 0.3265(3)
H26 H 0.2755 0.0061 0.2669
H27 H 0.2859 -0.0670 0.3468
H28 H 0.3327 -0.0326 0.2933
C1A C 0.4982(5) -0.05607(13) 0.2574(11)
C2A C 0.4820(4) -0.0966(4) 0.1525(8)
H1A H 0.4726 -0.0721 0.0773
C3A C 0.4795(3) -0.1729(4) 0.1576(6)
H2A H 0.4683 -0.2006 0.0858
C4A C 0.4932(4) -0.20868(13) 0.2676(8)
C5A C 0.5094(4) -0.1682(4) 0.3725(6)
H3A H 0.5188 -0.1926 0.4477
C6A C 0.5120(4) -0.0919(4) 0.3675(8)
H4A H 0.5231 -0.0642 0.4392
N1A N 0.57956(10) 0.04346(14) 0.1640(2)
H5A H 0.5872(13) -0.0003(18) 0.160(3)
C8A C 0.53996(10) 0.14709(15) 0.2115(3)
C9A C 0.53786(11) 0.06886(15) 0.2097(3)
C11A C 0.58704(11) 0.16699(15) 0.1680(3)
C12A C 0.61145(11) 0.23641(17) 0.1531(3)
C13A C 0.59482(12) 0.30571(16) 0.1855(3)
H7A H 0.5642 0.3080 0.2183
C14A C 0.62067(12) 0.37053(17) 0.1720(3)
C15A C 0.66518(14) 0.36615(19) 0.1208(3)
H8A H 0.6836 0.4100 0.1097
C16A C 0.68252(13) 0.30059(19) 0.0868(3)
H9A H 0.7124 0.2998 0.0511
C17A C 0.65727(12) 0.23335(17) 0.1033(3)
C18A C 0.67741(12) 0.16546(18) 0.0735(3)
H10A H 0.7076 0.1664 0.0389
C19A C 0.65643(11) 0.09839(17) 0.0910(3)
C20A C 0.60982(11) 0.10136(16) 0.1396(3)
C21A C 0.60112(13) 0.44392(17) 0.2116(3)
C22A C 0.60062(17) 0.4401(2) 0.3445(4)
H11A H 0.5759 0.4016 0.3572
H12A H 0.5892 0.4876 0.3705
H13A H 0.6365 0.4286 0.3911
C23A C 0.54527(15) 0.4586(2) 0.1375(4)
H14A H 0.5464 0.4644 0.0530
H15A H 0.5314 0.5038 0.1660
H16A H 0.5221 0.4172 0.1459
C24A C 0.63649(16) 0.5090(2) 0.1948(4)
H17A H 0.6724 0.5017 0.2446
H18A H 0.6215 0.5546 0.2189
H19A H 0.6383 0.5124 0.1103
C25A C 0.68054(12) 0.02591(18) 0.0601(3)
C26A C 0.73052(13) 0.0404(2) 0.0110(3)
H20A H 0.7209 0.0705 -0.0618
H21A H 0.7454 -0.0066 -0.0080
H22A H 0.7571 0.0666 0.0716
C27A C 0.64022(14) -0.01502(19) -0.0367(3)
H23A H 0.6092 -0.0285 -0.0052
H24A H 0.6567 -0.0596 -0.0600
H25A H 0.6289 0.0169 -0.1069
C28A C 0.69819(14) -0.0212(2) 0.1735(3)
H26A H 0.7245 0.0061 0.2331
H27A H 0.7141 -0.0670 0.1532
H28A H 0.6673 -0.0326 0.2067
loop_
_geom_bond_atom_site_label_1
_geom_bond_atom_site_label_2
_geom_bond_site_symmetry_1
_geom_bond_site_symmetry_2
C1 C2 1_555 1_555
C2 H1 1_555 1_555
H1 C6A 1_555 1_555
C3 C2 1_555 1_555
H2 C3 1_555 1_555
C4 C3 1_555 1_555
C5 C4 1_555 1_555
H3 C5 1_555 1_555
C6 C1 1_555 1_555
H4 C6 1_555 1_555
N1 H5 1_555 1_555
C7 H6 1_555 1_555
C8 C7 1_555 1_555
C9 N1 1_555 1_555
C10 C1 1_555 1_555
C11 C8 1_555 1_555
C12 C11 1_555 1_555
C13 C12 1_555 1_555
H7 C13 1_555 1_555
C14 C13 1_555 1_555
C15 C14 1_555 1_555
H8 C15 1_555 1_555
C16 C15 1_555 1_555
H9 C16 1_555 1_555
C17 C12 1_555 1_555
C18 C17 1_555 1_555
H10 C18 1_555 1_555
C19 C18 1_555 1_555
C20 N1 1_555 1_555
C21 C14 1_555 1_555
C22 C21 1_555 1_555
H11 C22 1_555 1_555
H12 C22 1_555 1_555
H13 C22 1_555 1_555
C23 C21 1_555 1_555
H14 C23 1_555 1_555
H15 C23 1_555 1_555
H16 C23 1_555 1_555
C24 C21 1_555 1_555
H17 C24 1_555 1_555
H18 C24 1_555 1_555
H19 C24 1_555 1_555
C25 C19 1_555 1_555
C26 C25 1_555 1_555
H20 C26 1_555 1_555
H21 C26 1_555 1_555
H22 C26 1_555 1_555
C27 C25 1_555 1_555
H23 C27 1_555 1_555
H24 C27 1_555 1_555
H25 C27 1_555 1_555
C28 C25 1_555 1_555
H26 C28 1_555 1_555
H27 C28 1_555 1_555
H28 C28 1_555 1_555
C29 C30 1_555 1_555
C30 H29 1_555 1_555
H30 C30 1_555 1_555
H31 C30 1_555 1_555
C31 H32 1_555 1_555
H32 C32A 1_555 1_555
H33 C31 1_555 1_555
H34 C31 1_555 1_555
C32 H35 1_555 1_555
H35 C31A 1_555 1_555
H36 C32 1_555 1_555
H37 C32 1_555 1_555
C33 C34 1_555 1_555
C34 H38 1_555 1_555
C35 C34 1_555 1_555
H39 C35 1_555 1_555
C36 C35 1_555 1_555
H40 C36 1_555 1_555
C37 C36 1_555 1_555
H41 C37 1_555 1_555
C38 C33 1_555 1_555
H42 C38 1_555 1_555
C39 C33 1_555 1_555
H43 C39 1_555 1_555
H44 C39 1_555 1_555
H45 C39 1_555 1_555
C1A C2 1_555 1_555
C2A C1 1_555 1_555
H1A C6 1_555 1_555
C3A C4 1_555 1_555
H2A C5 1_555 1_555
C4A C3 1_555 1_555
C5A C2 1_555 1_555
H3A C3 1_555 1_555
C6A C1 1_555 1_555
H4A C2 1_555 1_555
N1A H5A 1_555 1_555
C8A C7 1_555 1_555
C9A C10 1_555 1_555
C11A C8A 1_555 1_555
C12A C11A 1_555 1_555
C13A C12A 1_555 1_555
H7A C13A 1_555 1_555
C14A C13A 1_555 1_555
C15A C14A 1_555 1_555
H8A C15A 1_555 1_555
C16A C15A 1_555 1_555
H9A C16A 1_555 1_555
C17A C12A 1_555 1_555
C18A C17A 1_555 1_555
H10A C18A 1_555 1_555
C19A C18A 1_555 1_555
C20A N1A 1_555 1_555
C21A C14A 1_555 1_555
C22A C21A 1_555 1_555
H11A C22A 1_555 1_555
H12A C22A 1_555 1_555
H13A C22A 1_555 1_555
C23A C21A 1_555 1_555
H14A C23A 1_555 1_555
H15A C23A 1_555 1_555
H16A C23A 1_555 1_555
C24A C21A 1_555 1_555
H17A C24A 1_555 1_555
H18A C24A 1_555 1_555
H19A C24A 1_555 1_555
C25A C19A 1_555 1_555
C26A C25A 1_555 1_555
H20A C26A 1_555 1_555
H21A C26A 1_555 1_555
H22A C26A 1_555 1_555
C27A C25A 1_555 1_555
H23A C27A 1_555 1_555
H24A C27A 1_555 1_555
H25A C27A 1_555 1_555
C28A C25A 1_555 1_555
H26A C28A 1_555 1_555
H27A C28A 1_555 1_555
H28A C28A 1_555 1_555
C29A C29 1_555 1_555
C30A H33 1_555 1_555
H29A C30A 1_555 1_555
H30A C30A 1_555 1_555
H31A C30A 1_555 1_555
C31A C32 1_555 1_555
H32A C32 1_555 1_555
H33A C30 1_555 1_555
H34A C32 1_555 1_555
C32A C31 1_555 1_555
H35A C31 1_555 1_555
H36A C32A 1_555 1_555
H37A C31 1_555 1_555
C3 C6A 1_555 1_555
H2 C5A 1_555 1_555
C4 C4A 1_555 1_555
C4 C5A 1_555 1_555
C5 C6 1_555 1_555
C5 C2A 1_555 1_555
C5 C4A 1_555 1_555
H3 C3A 1_555 1_555
C6 C1A 1_555 1_555
C6 C3A 1_555 1_555
H4 C2A 1_555 1_555
C8 C9 1_555 1_555
C9 C10 1_555 1_555
C10 C1A 1_555 1_555
C11 C20 1_555 1_555
C16 C17 1_555 1_555
C19 C20 1_555 1_555
H34 C32A 1_555 1_555
H37 C31A 1_555 1_555
C37 C38 1_555 1_555
C1A C2A 1_555 1_555
C1A C6A 1_555 1_555
C2A H1A 1_555 1_555
C2A C3A 1_555 1_555
C3A H2A 1_555 1_555
C3A C4A 1_555 1_555
C4A C5A 1_555 1_555
C5A H3A 1_555 1_555
C5A C6A 1_555 1_555
C6A H4A 1_555 1_555
N1A C9A 1_555 1_555
C8A C9A 1_555 1_555
C11A C20A 1_555 1_555
C16A C17A 1_555 1_555
C19A C20A 1_555 1_555
C29A C30A 1_555 1_555
C31A H32A 1_555 1_555
C31A H33A 1_555 1_555
C31A H34A 1_555 1_555
C32A H35A 1_555 1_555
C32A H37A 1_555 1_555

#END
