
#######################################################################
#
#                 Cambridge Crystallographic Data Centre
#                                CCDC 
#
#######################################################################
#
# If this CIF has been generated from an entry in the Cambridge 
# Structural Database, then it will include bibliographic, chemical, 
# crystal, experimental, refinement or atomic coordinate data resulting 
# from the CCDC's data processing and validation procedures.
#
#######################################################################

data_COSDAR01
_chemical_formula_moiety         'C60 H52 O4 Si4'
_chemical_name_systematic        
7,7,15,15-Tetramethyl-1,2,3,4,10,11,12,13-octaphenyl-6,8,14,16-tetraoxa-5,7,9,15-tetrasiladispiro[4.3.4.3]hexadeca-1,3,10,12-tetraene
_symmetry_cell_setting           monoclinic
_symmetry_space_group_name_H-M   'C 2/c'
_symmetry_Int_Tables_number      15
_space_group_name_Hall           '-C 2yn'
loop_
_symmetry_equiv_pos_site_id
_symmetry_equiv_pos_as_xyz
1 x,y,z
2 -x,y,1/2-z
3 1/2+x,1/2+y,z
4 1/2-x,1/2+y,1/2-z
5 -x,-y,-z
6 x,-y,1/2+z
7 1/2-x,1/2-y,-z
8 1/2+x,1/2-y,1/2+z
_cell_length_a                   19.956(8)
_cell_length_b                   28.804(9)
_cell_length_c                   10.023(3)
_cell_angle_alpha                90
_cell_angle_beta                 102.117(6)
_cell_angle_gamma                90
_cell_volume                     5632.99
_cell_formula_units_Z            4
loop_
_atom_site_label
_atom_site_type_symbol
_atom_site_fract_x
_atom_site_fract_y
_atom_site_fract_z
Si1 Si 0.5000 0.21466(2) 0.7500
Si2 Si 0.50593(2) 0.29274(2) 0.53244(3)
Si3 Si 0.5000 0.37093(2) 0.7500
O1 O 0.49022(5) 0.24685(3) 0.61563(10)
O2 O 0.49107(5) 0.33870(3) 0.61575(9)
C1 C 0.43187(6) 0.17065(4) 0.74597(13)
C2 C 0.46195(6) 0.12843(4) 0.75110(13)
C3 C 0.36219(6) 0.18236(4) 0.76402(13)
C4 C 0.32649(7) 0.21827(5) 0.68622(14)
H1 H 0.3454 0.2324 0.6168
C5 C 0.26392(7) 0.23364(5) 0.70869(15)
H2 H 0.2398 0.2575 0.6533
C6 C 0.23661(7) 0.21413(5) 0.81190(16)
H3 H 0.1943 0.2252 0.8290
C7 C 0.27121(7) 0.17842(5) 0.89022(16)
H4 H 0.2524 0.1649 0.9606
C8 C 0.33311(7) 0.16245(5) 0.86611(15)
H5 H 0.3561 0.1377 0.9195
C9 C 0.42583(6) 0.08412(4) 0.76422(14)
C10 C 0.36689(7) 0.07211(5) 0.66934(16)
H6 H 0.3516 0.0910 0.5911
C11 C 0.33033(8) 0.03234(6) 0.6893(2)
H7 H 0.2905 0.0240 0.6237
C12 C 0.35146(8) 0.00512(5) 0.8031(2)
H8 H 0.3257 -0.0215 0.8169
C13 C 0.41011(9) 0.01654(6) 0.8974(2)
H9 H 0.4247 -0.0022 0.9760
C14 C 0.44778(7) 0.05562(5) 0.87703(17)
H10 H 0.4888 0.0629 0.9407
C15 C 0.44279(8) 0.29320(5) 0.36967(14)
H11 H 0.4488 0.2654 0.3169
H12 H 0.4495 0.3210 0.3176
H13 H 0.3964 0.2934 0.3878
C16 C 0.59617(7) 0.29288(6) 0.51650(16)
H14 H 0.6260 0.2956 0.6073
H15 H 0.6042 0.3192 0.4601
H16 H 0.6064 0.2639 0.4737
C17 C 0.43126(6) 0.41476(4) 0.73862(12)
C18 C 0.46138(6) 0.45713(4) 0.74707(12)
C19 C 0.35869(7) 0.40315(4) 0.73444(13)
C20 C 0.32358(7) 0.41875(5) 0.83259(14)
H17 H 0.3460 0.4384 0.9043
C21 C 0.25601(8) 0.40566(6) 0.82585(16)
H18 H 0.2326 0.4164 0.8933
C22 C 0.22240(8) 0.37722(6) 0.72197(18)
H19 H 0.1760 0.3686 0.7177
C23 C 0.25663(8) 0.36139(5) 0.62434(16)
H20 H 0.2336 0.3421 0.5523
C24 C 0.32448(7) 0.37369(5) 0.63141(14)
H21 H 0.3480 0.3620 0.5654
C25 C 0.42389(7) 0.50124(4) 0.75525(12)
C26 C 0.44926(7) 0.53457(4) 0.85441(13)
H22 H 0.4926 0.5299 0.9137
C27 C 0.41180(8) 0.57435(5) 0.86705(14)
H23 H 0.4295 0.5967 0.9350
C28 C 0.34858(8) 0.58156(5) 0.78080(15)
H24 H 0.3227 0.6086 0.7902
C29 C 0.32341(7) 0.54907(5) 0.68093(15)
H25 H 0.2803 0.5541 0.6213
C30 C 0.36072(7) 0.50926(5) 0.66731(14)
H26 H 0.3432 0.4874 0.5978
Si2A Si 0.49407(2) 0.29274(2) 0.96756(3)
O1A O 0.50978(5) 0.24685(3) 0.88437(10)
O2A O 0.50893(5) 0.33870(3) 0.88425(9)
C1A C 0.56813(6) 0.17065(4) 0.75403(13)
C2A C 0.53805(6) 0.12843(4) 0.74890(13)
C3A C 0.63781(6) 0.18236(4) 0.73598(13)
C4A C 0.67351(7) 0.21827(5) 0.81378(14)
H1A H 0.6546 0.2324 0.8832
C5A C 0.73608(7) 0.23364(5) 0.79131(15)
H2A H 0.7602 0.2575 0.8467
C6A C 0.76339(7) 0.21413(5) 0.68810(16)
H3A H 0.8057 0.2252 0.6710
C7A C 0.72879(7) 0.17842(5) 0.60978(16)
H4A H 0.7476 0.1649 0.5394
C8A C 0.66689(7) 0.16245(5) 0.63389(15)
H5A H 0.6439 0.1377 0.5805
C9A C 0.57417(6) 0.08412(4) 0.73578(14)
C10A C 0.63311(7) 0.07211(5) 0.83066(16)
H6A H 0.6484 0.0910 0.9089
C11A C 0.66967(8) 0.03234(6) 0.8107(2)
H7A H 0.7095 0.0240 0.8763
C12A C 0.64854(8) 0.00512(5) 0.6969(2)
H8A H 0.6743 -0.0215 0.6831
C13A C 0.58989(9) 0.01654(6) 0.6026(2)
H9A H 0.5753 -0.0022 0.5240
C14A C 0.55222(7) 0.05562(5) 0.62297(17)
H10A H 0.5112 0.0629 0.5593
C15A C 0.55721(8) 0.29320(5) 1.13033(14)
H11A H 0.5512 0.2654 1.1831
H12A H 0.5505 0.3210 1.1824
H13A H 0.6036 0.2934 1.1122
C16A C 0.40383(7) 0.29288(6) 0.98350(16)
H14A H 0.3740 0.2956 0.8927
H15A H 0.3958 0.3192 1.0399
H16A H 0.3936 0.2639 1.0263
C17A C 0.56874(6) 0.41476(4) 0.76138(12)
C18A C 0.53862(6) 0.45713(4) 0.75293(12)
C19A C 0.64131(7) 0.40315(4) 0.76556(13)
C20A C 0.67642(7) 0.41875(5) 0.66741(14)
H17A H 0.6540 0.4384 0.5957
C21A C 0.74399(8) 0.40566(6) 0.67415(16)
H18A H 0.7674 0.4164 0.6067
C22A C 0.77760(8) 0.37722(6) 0.77803(18)
H19A H 0.8240 0.3686 0.7823
C23A C 0.74337(8) 0.36139(5) 0.87566(16)
H20A H 0.7664 0.3421 0.9477
C24A C 0.67552(7) 0.37369(5) 0.86859(14)
H21A H 0.6520 0.3620 0.9346
C25A C 0.57611(7) 0.50124(4) 0.74475(12)
C26A C 0.55074(7) 0.53457(4) 0.64559(13)
H22A H 0.5074 0.5299 0.5863
C27A C 0.58820(8) 0.57435(5) 0.63295(14)
H23A H 0.5705 0.5967 0.5650
C28A C 0.65142(8) 0.58156(5) 0.71920(15)
H24A H 0.6773 0.6086 0.7098
C29A C 0.67659(7) 0.54907(5) 0.81907(15)
H25A H 0.7197 0.5541 0.8787
C30A C 0.63928(7) 0.50926(5) 0.83269(14)
H26A H 0.6568 0.4874 0.9022
loop_
_geom_bond_atom_site_label_1
_geom_bond_atom_site_label_2
_geom_bond_site_symmetry_1
_geom_bond_site_symmetry_2
Si1 O1 1_555 1_555
Si2 O1 1_555 1_555
Si3 O2 1_555 1_555
O2 Si2 1_555 1_555
C1 Si1 1_555 1_555
C2 C1 1_555 1_555
C3 C1 1_555 1_555
C4 C3 1_555 1_555
H1 C4 1_555 1_555
C5 C4 1_555 1_555
H2 C5 1_555 1_555
C6 C5 1_555 1_555
H3 C6 1_555 1_555
C7 C6 1_555 1_555
H4 C7 1_555 1_555
C8 C3 1_555 1_555
H5 C8 1_555 1_555
C9 C2 1_555 1_555
C10 C9 1_555 1_555
H6 C10 1_555 1_555
C11 C10 1_555 1_555
H7 C11 1_555 1_555
C12 C11 1_555 1_555
H8 C12 1_555 1_555
C13 C12 1_555 1_555
H9 C13 1_555 1_555
C14 C9 1_555 1_555
H10 C14 1_555 1_555
C15 Si2 1_555 1_555
H11 C15 1_555 1_555
H12 C15 1_555 1_555
H13 C15 1_555 1_555
C16 Si2 1_555 1_555
H14 C16 1_555 1_555
H15 C16 1_555 1_555
H16 C16 1_555 1_555
C17 Si3 1_555 1_555
C18 C17 1_555 1_555
C19 C17 1_555 1_555
C20 C19 1_555 1_555
H17 C20 1_555 1_555
C21 C20 1_555 1_555
H18 C21 1_555 1_555
C22 C21 1_555 1_555
H19 C22 1_555 1_555
C23 C22 1_555 1_555
H20 C23 1_555 1_555
C24 C19 1_555 1_555
H21 C24 1_555 1_555
C25 C18 1_555 1_555
C26 C25 1_555 1_555
H22 C26 1_555 1_555
C27 C26 1_555 1_555
H23 C27 1_555 1_555
C28 C27 1_555 1_555
H24 C28 1_555 1_555
C29 C28 1_555 1_555
H25 C29 1_555 1_555
C30 C25 1_555 1_555
H26 C30 1_555 1_555
Si2A O1A 1_555 1_555
O1A Si1 1_555 1_555
O2A Si3 1_555 1_555
C1A Si1 1_555 1_555
C2A C2 1_555 1_555
C3A C1A 1_555 1_555
C4A C3A 1_555 1_555
H1A C4A 1_555 1_555
C5A C4A 1_555 1_555
H2A C5A 1_555 1_555
C6A C5A 1_555 1_555
H3A C6A 1_555 1_555
C7A C6A 1_555 1_555
H4A C7A 1_555 1_555
C8A C3A 1_555 1_555
H5A C8A 1_555 1_555
C9A C2A 1_555 1_555
C10A C9A 1_555 1_555
H6A C10A 1_555 1_555
C11A C10A 1_555 1_555
H7A C11A 1_555 1_555
C12A C11A 1_555 1_555
H8A C12A 1_555 1_555
C13A C12A 1_555 1_555
H9A C13A 1_555 1_555
C14A C9A 1_555 1_555
H10A C14A 1_555 1_555
C15A Si2A 1_555 1_555
H11A C15A 1_555 1_555
H12A C15A 1_555 1_555
H13A C15A 1_555 1_555
C16A Si2A 1_555 1_555
H14A C16A 1_555 1_555
H15A C16A 1_555 1_555
H16A C16A 1_555 1_555
C17A Si3 1_555 1_555
C18A C18 1_555 1_555
C19A C17A 1_555 1_555
C20A C19A 1_555 1_555
H17A C20A 1_555 1_555
C21A C20A 1_555 1_555
H18A C21A 1_555 1_555
C22A C21A 1_555 1_555
H19A C22A 1_555 1_555
C23A C22A 1_555 1_555
H20A C23A 1_555 1_555
C24A C19A 1_555 1_555
H21A C24A 1_555 1_555
C25A C18A 1_555 1_555
C26A C25A 1_555 1_555
H22A C26A 1_555 1_555
C27A C26A 1_555 1_555
H23A C27A 1_555 1_555
C28A C27A 1_555 1_555
H24A C28A 1_555 1_555
C29A C28A 1_555 1_555
H25A C29A 1_555 1_555
C30A C25A 1_555 1_555
H26A C30A 1_555 1_555
C7 C8 1_555 1_555
C13 C14 1_555 1_555
C23 C24 1_555 1_555
C29 C30 1_555 1_555
Si2A O2A 1_555 1_555
C1A C2A 1_555 1_555
C7A C8A 1_555 1_555
C13A C14A 1_555 1_555
C17A C18A 1_555 1_555
C23A C24A 1_555 1_555
C29A C30A 1_555 1_555

#END
