
#######################################################################
#
#                 Cambridge Crystallographic Data Centre
#                                CCDC 
#
#######################################################################
#
# If this CIF has been generated from an entry in the Cambridge 
# Structural Database, then it will include bibliographic, chemical, 
# crystal, experimental, refinement or atomic coordinate data resulting 
# from the CCDC's data processing and validation procedures.
#
#######################################################################

data_COSJEA
_chemical_formula_moiety         'C20 H18 N5 1+,I1 1-'
_chemical_name_systematic        
'1,3-bis((1-Methylpyridinium-2-yl)imino)isoindolin-2-ide iodide'
_symmetry_cell_setting           triclinic
_symmetry_space_group_name_H-M   'P -1'
_symmetry_Int_Tables_number      2
_space_group_name_Hall           '-P 1'
loop_
_symmetry_equiv_pos_site_id
_symmetry_equiv_pos_as_xyz
1 x,y,z
2 -x,-y,-z
_cell_length_a                   7.4680(2)
_cell_length_b                   11.6190(6)
_cell_length_c                   11.6500(6)
_cell_angle_alpha                107.773(2)
_cell_angle_beta                 90.482(3)
_cell_angle_gamma                96.079(3)
_cell_volume                     956.333
_exptl_crystal_colour            orange-red
_exptl_crystal_description       prism
_chemical_melting_point          '253 deg.C'
_cell_formula_units_Z            2
_exptl_crystal_recrystallization_method chloroform
loop_
_atom_site_label
_atom_site_type_symbol
_atom_site_fract_x
_atom_site_fract_y
_atom_site_fract_z
I1 I 0.27797(3) 0.343432(19) 0.634333(19)
N1 N 0.7640(3) 0.0609(2) 0.15435(19)
N2 N 0.8615(4) 0.2304(2) 0.3307(2)
N3 N 0.7710(4) 0.2548(2) 0.5232(2)
N4 N 0.7249(3) -0.0465(2) -0.06005(19)
N5 N 0.5816(3) -0.2356(2) -0.1621(2)
C1 C 0.8479(4) 0.1742(2) 0.2146(2)
C2 C 0.9235(4) 0.2370(2) 0.1302(3)
C3 C 1.0127(5) 0.3522(3) 0.1481(3)
H1 H 1.0251 0.4104 0.2379
C4 C 1.0657(5) 0.3823(3) 0.0462(4)
H2 H 1.1232 0.4609 0.0606
C5 C 1.0303(5) 0.3005(3) -0.0683(3)
H3 H 1.0689 0.3290 -0.1329
C6 C 0.9399(4) 0.1851(3) -0.0854(3)
H4 H 0.9093 0.1200 -0.1635
C7 C 0.8860(4) 0.1552(2) 0.0159(2)
C8 C 0.7837(4) 0.0460(2) 0.0347(2)
C9 C 0.8077(4) 0.1758(2) 0.4144(2)
C10 C 0.7953(5) 0.0518(3) 0.4051(3)
H5 H 0.8161 -0.0087 0.3289
C11 C 0.7492(6) 0.0127(3) 0.5011(3)
H6 H 0.7331 -0.0793 0.4862
C12 C 0.7095(6) 0.0963(4) 0.6090(3)
H7 H 0.6684 0.0611 0.6665
C13 C 0.7239(5) 0.2156(4) 0.6176(3)
H8 H 0.7111 0.2850 0.6920
C14 C 0.7852(6) 0.3863(3) 0.5398(3)
H9 H 0.7560 0.4295 0.6205
H10 H 0.7023 0.4004 0.4834
H11 H 0.9058 0.4146 0.5252
C15 C 0.6320(4) -0.1508(2) -0.0513(2)
C16 C 0.5843(4) -0.1848(3) 0.0510(3)
H12 H 0.6212 -0.1349 0.1135
C17 C 0.4937(5) -0.2964(3) 0.0417(3)
H13 H 0.4716 -0.3251 0.1228
C18 C 0.4453(5) -0.3784(3) -0.0717(3)
H14 H 0.3830 -0.4579 -0.0808
C19 C 0.4911(4) -0.3450(3) -0.1708(3)
H15 H 0.4624 -0.3972 -0.2464
C20 C 0.6281(5) -0.2060(3) -0.2735(3)
H16 H 0.7411 -0.1911 -0.2819
H17 H 0.5932 -0.2651 -0.3401
H18 H 0.5647 -0.1340 -0.2778
loop_
_geom_bond_atom_site_label_1
_geom_bond_atom_site_label_2
_geom_bond_site_symmetry_1
_geom_bond_site_symmetry_2
N1 C1 1_555 1_555
N2 C1 1_555 1_555
N3 C9 1_555 1_555
N4 C8 1_555 1_555
N5 C15 1_555 1_555
C1 C2 1_555 1_555
C2 C3 1_555 1_555
C3 H1 1_555 1_555
C4 C3 1_555 1_555
H2 C4 1_555 1_555
C5 C4 1_555 1_555
H3 C5 1_555 1_555
C6 C5 1_555 1_555
H4 C6 1_555 1_555
C7 C2 1_555 1_555
C8 N1 1_555 1_555
C9 N2 1_555 1_555
C10 C9 1_555 1_555
H5 C10 1_555 1_555
C11 C10 1_555 1_555
H6 C11 1_555 1_555
C12 C11 1_555 1_555
H7 C12 1_555 1_555
C13 N3 1_555 1_555
H8 C13 1_555 1_555
C14 N3 1_555 1_555
H9 C14 1_555 1_555
H10 C14 1_555 1_555
H11 C14 1_555 1_555
C15 N4 1_555 1_555
C16 C15 1_555 1_555
H12 C16 1_555 1_555
C17 C16 1_555 1_555
H13 C17 1_555 1_555
C18 C17 1_555 1_555
H14 C18 1_555 1_555
C19 N5 1_555 1_555
H15 C19 1_555 1_555
C20 N5 1_555 1_555
H16 C20 1_555 1_555
H17 C20 1_555 1_555
H18 C20 1_555 1_555
C6 C7 1_555 1_555
C7 C8 1_555 1_555
C12 C13 1_555 1_555
C18 C19 1_555 1_555

#END
