
#######################################################################
#
#                 Cambridge Crystallographic Data Centre
#                                CCDC 
#
#######################################################################
#
# If this CIF has been generated from an entry in the Cambridge 
# Structural Database, then it will include bibliographic, chemical, 
# crystal, experimental, refinement or atomic coordinate data resulting 
# from the CCDC's data processing and validation procedures.
#
#######################################################################

data_COSROS
_chemical_name_common            
2,3,22,23-Tetra-O-methyl-17-hydroxy-24-epibrassinolide
_chemical_formula_moiety         'C34 H56 O7'
_chemical_name_systematic        
1-(1-(2,2-Dimethyl-5-(3-methyl-2-butanyl)-1,3-dioxolan-4-yl)ethyl)-1-hydroxy-9,9,11a,13a-tetramethylhexadecahydro-6H-[1,3]dioxolo[4,5-h]indeno[4,5-d][2]benzoxepin-6-one
_symmetry_cell_setting           orthorhombic
_symmetry_space_group_name_H-M   'P 21 21 21'
_symmetry_Int_Tables_number      19
_space_group_name_Hall           'P 2ac 2ab'
loop_
_symmetry_equiv_pos_site_id
_symmetry_equiv_pos_as_xyz
1 x,y,z
2 1/2-x,-y,1/2+z
3 -x,1/2+y,1/2-z
4 1/2+x,1/2-y,-z
_cell_length_a                   6.4264(4)
_cell_length_b                   12.8648(8)
_cell_length_c                   38.727(3)
_cell_angle_alpha                90
_cell_angle_beta                 90
_cell_angle_gamma                90
_cell_volume                     3201.73
_exptl_crystal_colour            colorless
_exptl_crystal_description       prismatic
_cell_formula_units_Z            4
_exptl_crystal_recrystallization_method acetonitrile
loop_
_atom_site_label
_atom_site_type_symbol
_atom_site_fract_x
_atom_site_fract_y
_atom_site_fract_z
O1 O 0.4690(4) 1.2349(2) 1.10344(7)
O2 O 0.5141(4) 1.1887(2) 1.04970(6)
O3 O 1.1848(4) 1.04444(17) 0.93546(5)
H1 H 1.2317 1.0487 0.9158
O4 O 1.1941(5) 1.0959(2) 1.16482(6)
O5 O 0.9650(6) 1.2198(2) 1.18149(7)
O6 O 1.2429(4) 0.97110(17) 0.86902(5)
O7 O 1.2723(5) 0.8531(2) 0.82672(7)
C1 C 1.0690(6) 1.0575(3) 1.10795(8)
H2 H 1.1180 0.9867 1.1052
H3 H 1.1821 1.1039 1.1018
C2 C 1.0098(6) 1.0755(3) 1.14561(8)
H4 H 0.9389 1.0141 1.1549
C3 C 0.8781(7) 1.1720(3) 1.15155(9)
H5 H 0.7330 1.1525 1.1558
C4 C 0.8918(6) 1.2449(3) 1.12113(9)
H6 H 1.0345 1.2683 1.1187
H7 H 0.8060 1.3054 1.1256
C5 C 0.8217(5) 1.1949(2) 1.08727(8)
H8 H 0.8927 1.2325 1.0687
C6 C 0.5899(6) 1.2097(3) 1.08146(9)
C7 C 0.6535(6) 1.1751(3) 1.02057(9)
H9 H 0.7553 1.2307 1.0210
H10 H 0.5733 1.1828 0.9995
C8 C 0.7698(5) 1.0717(2) 1.01890(8)
H11 H 0.6699 1.0153 1.0227
C9 C 0.9504(5) 1.0593(2) 1.04492(7)
H12 H 1.0494 1.1150 1.0396
C10 C 0.8829(5) 1.0764(2) 1.08321(8)
C11 C 1.0667(6) 0.9567(3) 1.03825(8)
H13 H 1.1860 0.9532 1.0535
H14 H 0.9754 0.8992 1.0440
C12 C 1.1419(5) 0.9435(3) 1.00089(8)
H15 H 1.2472 0.9954 0.9959
H16 H 1.2048 0.8755 0.9982
C13 C 0.9622(5) 0.9548(2) 0.97513(7)
C14 C 0.8580(5) 1.0616(2) 0.98240(8)
H17 H 0.9676 1.1141 0.9803
C15 C 0.7112(6) 1.0775(3) 0.95167(8)
H18 H 0.6944 1.1508 0.9466
H19 H 0.5755 1.0476 0.9564
C16 C 0.8184(5) 1.0207(3) 0.92137(8)
H20 H 0.8534 1.0695 0.9032
H21 H 0.7268 0.9680 0.9119
C17 C 1.0180(5) 0.9700(2) 0.93607(8)
C18 C 0.8114(6) 0.8625(3) 0.97890(9)
H22 H 0.7491 0.8640 1.0014
H23 H 0.8865 0.7986 0.9760
H24 H 0.7047 0.8674 0.9616
C19 C 0.7048(6) 1.0025(3) 1.09344(9)
H25 H 0.7546 0.9322 1.0934
H26 H 0.5927 1.0093 1.0772
H27 H 0.6560 1.0201 1.1161
C20 C 1.0832(5) 0.8720(2) 0.91481(8)
H28 H 0.9765 0.8189 0.9188
C21 C 1.2904(6) 0.8257(3) 0.92659(9)
H29 H 1.3959 0.8786 0.9261
H30 H 1.3290 0.7700 0.9114
H31 H 1.2765 0.7996 0.9497
C22 C 1.0818(6) 0.8964(2) 0.87606(8)
H32 H 0.9473 0.9277 0.8702
C23 C 1.1273(6) 0.8079(3) 0.85009(8)
H33 H 1.1940 0.7500 0.8622
C24 C 0.9314(6) 0.7684(3) 0.83177(9)
H34 H 0.8516 0.8300 0.8250
C25 C 0.7965(8) 0.7082(4) 0.85714(12)
H35 H 0.7533 0.7535 0.8755
H36 H 0.8749 0.6514 0.8665
H37 H 0.6760 0.6818 0.8454
C26 C 0.9799(8) 0.7085(3) 0.79826(9)
H38 H 1.0690 0.7532 0.7841
C27 C 1.0967(11) 0.6079(4) 0.80428(16)
H39 H 1.1268 0.5758 0.7825
H40 H 1.0128 0.5620 0.8180
H41 H 1.2244 0.6223 0.8162
C28 C 0.7829(11) 0.6884(5) 0.77800(14)
H42 H 0.6883 0.6483 0.7918
H43 H 0.8161 0.6508 0.7573
H44 H 0.7192 0.7535 0.7720
C29 C 1.1407(8) 1.1620(3) 1.19288(10)
C30 C 1.3203(10) 1.2346(5) 1.19880(16)
H45 H 1.3585 1.2668 1.1774
H46 H 1.4366 1.1961 1.2077
H47 H 1.2805 1.2871 1.2151
C31 C 1.0825(12) 1.1006(4) 1.22435(11)
H48 H 1.1894 1.0505 1.2292
H49 H 0.9531 1.0653 1.2203
H50 H 1.0679 1.1467 1.2437
C32 C 1.2916(6) 0.9609(3) 0.83335(9)
C33 C 1.5147(7) 0.9930(3) 0.82796(11)
H51 H 1.5549 0.9784 0.8046
H52 H 1.6026 0.9550 0.8435
H53 H 1.5286 1.0661 0.8323
C34 C 1.1445(8) 1.0240(4) 0.81144(11)
H54 H 1.0035 1.0064 0.8172
H55 H 1.1691 1.0093 0.7875
H56 H 1.1670 1.0967 0.8157
loop_
_geom_bond_atom_site_label_1
_geom_bond_atom_site_label_2
_geom_bond_site_symmetry_1
_geom_bond_site_symmetry_2
O1 C6 1_555 1_555
O2 C6 1_555 1_555
O3 H1 1_555 1_555
O4 C2 1_555 1_555
O5 C3 1_555 1_555
O6 C22 1_555 1_555
O7 C23 1_555 1_555
C1 H2 1_555 1_555
H3 C1 1_555 1_555
C2 C1 1_555 1_555
H4 C2 1_555 1_555
C3 C2 1_555 1_555
H5 C3 1_555 1_555
C4 C3 1_555 1_555
H6 C4 1_555 1_555
H7 C4 1_555 1_555
C5 C4 1_555 1_555
H8 C5 1_555 1_555
C6 C5 1_555 1_555
C7 O2 1_555 1_555
H9 C7 1_555 1_555
H10 C7 1_555 1_555
C8 C7 1_555 1_555
H11 C8 1_555 1_555
C9 C8 1_555 1_555
H12 C9 1_555 1_555
C10 C1 1_555 1_555
C11 C9 1_555 1_555
H13 C11 1_555 1_555
H14 C11 1_555 1_555
C12 C11 1_555 1_555
H15 C12 1_555 1_555
H16 C12 1_555 1_555
C13 C12 1_555 1_555
C14 C8 1_555 1_555
H17 C14 1_555 1_555
C15 C14 1_555 1_555
H18 C15 1_555 1_555
H19 C15 1_555 1_555
C16 C15 1_555 1_555
H20 C16 1_555 1_555
H21 C16 1_555 1_555
C17 O3 1_555 1_555
C18 C13 1_555 1_555
H22 C18 1_555 1_555
H23 C18 1_555 1_555
H24 C18 1_555 1_555
C19 C10 1_555 1_555
H25 C19 1_555 1_555
H26 C19 1_555 1_555
H27 C19 1_555 1_555
C20 C17 1_555 1_555
H28 C20 1_555 1_555
C21 C20 1_555 1_555
H29 C21 1_555 1_555
H30 C21 1_555 1_555
H31 C21 1_555 1_555
C22 C20 1_555 1_555
H32 C22 1_555 1_555
C23 C22 1_555 1_555
H33 C23 1_555 1_555
C24 C23 1_555 1_555
H34 C24 1_555 1_555
C25 C24 1_555 1_555
H35 C25 1_555 1_555
H36 C25 1_555 1_555
H37 C25 1_555 1_555
C26 C24 1_555 1_555
H38 C26 1_555 1_555
C27 C26 1_555 1_555
H39 C27 1_555 1_555
H40 C27 1_555 1_555
H41 C27 1_555 1_555
C28 C26 1_555 1_555
H42 C28 1_555 1_555
H43 C28 1_555 1_555
H44 C28 1_555 1_555
C29 O4 1_555 1_555
C30 C29 1_555 1_555
H45 C30 1_555 1_555
H46 C30 1_555 1_555
H47 C30 1_555 1_555
C31 C29 1_555 1_555
H48 C31 1_555 1_555
H49 C31 1_555 1_555
H50 C31 1_555 1_555
C32 O6 1_555 1_555
C33 C32 1_555 1_555
H51 C33 1_555 1_555
H52 C33 1_555 1_555
H53 C33 1_555 1_555
C34 C32 1_555 1_555
H54 C34 1_555 1_555
H55 C34 1_555 1_555
H56 C34 1_555 1_555
O5 C29 1_555 1_555
O7 C32 1_555 1_555
C5 C10 1_555 1_555
C9 C10 1_555 1_555
C13 C14 1_555 1_555
C13 C17 1_555 1_555
C16 C17 1_555 1_555

#END
