
#######################################################################
#
#                 Cambridge Crystallographic Data Centre
#                                CCDC 
#
#######################################################################
#
# If this CIF has been generated from an entry in the Cambridge 
# Structural Database, then it will include bibliographic, chemical, 
# crystal, experimental, refinement or atomic coordinate data resulting 
# from the CCDC's data processing and validation procedures.
#
#######################################################################

data_COSVEN
_chemical_formula_moiety         'C16 H15 N3 O4 S1'
_chemical_name_systematic        
N-(1,3-Dimethyl-1,3-dihydro-2H-indol-2-ylidene)-4-nitrobenzenesulfonamide
_symmetry_cell_setting           monoclinic
_symmetry_space_group_name_H-M   'P 21/c'
_symmetry_Int_Tables_number      14
_space_group_name_Hall           '-P 2ybc'
loop_
_symmetry_equiv_pos_site_id
_symmetry_equiv_pos_as_xyz
1 x,y,z
2 -x,1/2+y,1/2-z
3 -x,-y,-z
4 x,1/2-y,1/2+z
_cell_length_a                   10.501(2)
_cell_length_b                   10.7195(15)
_cell_length_c                   15.234(3)
_cell_angle_alpha                90
_cell_angle_beta                 110.08(2)
_cell_angle_gamma                90
_cell_volume                     1610.59
_exptl_crystal_colour            yellow
_exptl_crystal_description       block
_chemical_melting_point          '454.3-454.51 K'
_cell_formula_units_Z            4
loop_
_atom_site_label
_atom_site_type_symbol
_atom_site_fract_x
_atom_site_fract_y
_atom_site_fract_z
S1 S 0.19153(16) 0.28196(14) 0.26978(11)
O1 O 0.1899(6) 0.4128(4) 0.2531(4)
O2 O 0.1485(5) 0.2414(5) 0.3451(3)
O3 O -0.1931(8) 0.1339(9) -0.1600(5)
O4 O -0.3032(8) 0.0402(8) -0.0866(5)
N1 N -0.2066(8) 0.1003(7) -0.0883(5)
N2 N 0.3350(6) 0.2274(5) 0.2727(4)
N3 N 0.5414(5) 0.1351(5) 0.3437(3)
C1 C 0.0821(6) 0.2136(5) 0.1646(5)
C2 C 0.1046(7) 0.2370(6) 0.0808(5)
H1 H 0.1818 0.2795 0.0809
C3 C 0.0110(8) 0.1963(6) -0.0014(5)
H2 H 0.0244 0.2098 -0.0579
C4 C -0.1013(7) 0.1361(6) 0.0008(4)
C5 C -0.1250(7) 0.1097(7) 0.0821(5)
H3 H -0.2026 0.0671 0.0813
C6 C -0.0304(7) 0.1484(6) 0.1644(5)
H4 H -0.0425 0.1303 0.2207
C7 C 0.4308(6) 0.1902(5) 0.3494(4)
C8 C 0.4457(7) 0.2025(6) 0.4524(5)
H5 H 0.3747 0.1534 0.4644
C9 C 0.5802(7) 0.1426(5) 0.5005(4)
C10 C 0.6353(6) 0.1062(6) 0.4322(4)
C11 C 0.7613(7) 0.0515(6) 0.4554(5)
H6 H 0.7967 0.0274 0.4098
C12 C 0.8334(7) 0.0337(6) 0.5504(5)
H7 H 0.9189 -0.0026 0.5682
C13 C 0.7831(8) 0.0673(7) 0.6166(5)
H8 H 0.8339 0.0535 0.6791
C14 C 0.6558(8) 0.1227(6) 0.5931(5)
H9 H 0.6220 0.1461 0.6397
C15 C 0.4378(9) 0.3365(7) 0.4823(6)
H10 H 0.4422 0.3381 0.5463
H11 H 0.3539 0.3730 0.4434
H12 H 0.5122 0.3833 0.4761
C16 C 0.5633(8) 0.1072(8) 0.2567(5)
H13 H 0.6421 0.1511 0.2549
H14 H 0.4856 0.1331 0.2050
H15 H 0.5767 0.0191 0.2527
loop_
_geom_bond_atom_site_label_1
_geom_bond_atom_site_label_2
_geom_bond_site_symmetry_1
_geom_bond_site_symmetry_2
S1 O1 1_555 1_555
O2 S1 1_555 1_555
O3 N1 1_555 1_555
O4 N1 1_555 1_555
N1 C4 1_555 1_555
N2 S1 1_555 1_555
N3 C7 1_555 1_555
C1 S1 1_555 1_555
C2 C1 1_555 1_555
H1 C2 1_555 1_555
C3 C2 1_555 1_555
H2 C3 1_555 1_555
C4 C3 1_555 1_555
C5 C4 1_555 1_555
H3 C5 1_555 1_555
C6 C1 1_555 1_555
H4 C6 1_555 1_555
C7 N2 1_555 1_555
C8 C7 1_555 1_555
H5 C8 1_555 1_555
C9 C8 1_555 1_555
C10 N3 1_555 1_555
C11 C10 1_555 1_555
H6 C11 1_555 1_555
C12 C11 1_555 1_555
H7 C12 1_555 1_555
C13 C12 1_555 1_555
H8 C13 1_555 1_555
C14 C9 1_555 1_555
H9 C14 1_555 1_555
C15 C8 1_555 1_555
H10 C15 1_555 1_555
H11 C15 1_555 1_555
H12 C15 1_555 1_555
C16 N3 1_555 1_555
H13 C16 1_555 1_555
H14 C16 1_555 1_555
H15 C16 1_555 1_555
C5 C6 1_555 1_555
C9 C10 1_555 1_555
C13 C14 1_555 1_555

#END
