
#######################################################################
#
#                 Cambridge Crystallographic Data Centre
#                                CCDC 
#
#######################################################################
#
# If this CIF has been generated from an entry in the Cambridge 
# Structural Database, then it will include bibliographic, chemical, 
# crystal, experimental, refinement or atomic coordinate data resulting 
# from the CCDC's data processing and validation procedures.
#
#######################################################################

data_COSXAL
_chemical_name_common            
'Benzyl 2,4-di-O-(4-methoxybenzyl)-3,6-anhydro-alpha-D-mannopyranoside'
_chemical_formula_moiety         'C29 H32 O7'
_chemical_name_systematic        
3-(benzyloxy)-4,8-bis((4-methoxybenzyl)oxy)-2,6-dioxabicyclo[3.2.1]octane
_symmetry_cell_setting           monoclinic
_symmetry_space_group_name_H-M   'P 21'
_symmetry_Int_Tables_number      4
_space_group_name_Hall           'P 2yb'
loop_
_symmetry_equiv_pos_site_id
_symmetry_equiv_pos_as_xyz
1 x,y,z
2 -x,1/2+y,-z
_cell_length_a                   10.3830(11)
_cell_length_b                   10.0793(11)
_cell_length_c                   12.2195(13)
_cell_angle_alpha                90
_cell_angle_beta                 93.307(8)
_cell_angle_gamma                90
_cell_volume                     1276.68
_exptl_crystal_colour            colorless
_exptl_crystal_description       needle
_chemical_melting_point          '347.15-349.15 K'
_cell_formula_units_Z            2
_exptl_crystal_recrystallization_method 'Hexane/Ethyl acetate'
loop_
_atom_site_label
_atom_site_type_symbol
_atom_site_fract_x
_atom_site_fract_y
_atom_site_fract_z
C1 C 1.0943(3) 0.9137(3) 1.2872(2)
H1 H 1.1256 0.8591 1.2335
C2 C 1.1691(2) 1.0185(3) 1.3259(2)
H2 H 1.2496 1.0333 1.2985
C3 C 1.1249(2) 1.1011(3) 1.40505(18)
C4 C 1.0050(3) 1.0751(3) 1.4455(2)
H3 H 0.9740 1.1295 1.4997
C5 C 0.9324(3) 0.9708(3) 1.4068(2)
H4 H 0.8526 0.9551 1.4352
C6 C 0.9748(2) 0.8871(3) 1.32554(17)
C7 C 0.8937(3) 0.7767(3) 1.27859(19)
H5 H 0.9459 0.6979 1.2703
H6 H 0.8256 0.7557 1.3269
C8 C 1.3157(3) 1.2327(4) 1.4127(3)
H7 H 1.3703 1.1575 1.4288
H8 H 1.3514 1.3095 1.4497
H9 H 1.3101 1.2484 1.3351
C9 C 0.7651(2) 0.7218(3) 1.11749(18)
H10 H 0.6959 0.6912 1.1625
C10 C 0.7081(2) 0.7766(3) 1.00907(19)
H11 H 0.6403 0.8418 1.0211
C11 C 0.81643(19) 0.8380(2) 0.94727(17)
H12 H 0.8586 0.9084 0.9915
C12 C 0.8255(2) 0.9966(3) 0.7993(2)
H13 H 0.8735 0.9606 0.7402
H14 H 0.8864 1.0368 0.8525
C13 C 0.7321(2) 1.0991(3) 0.75486(18)
C14 C 0.6638(2) 1.1757(3) 0.8250(2)
H15 H 0.6735 1.1598 0.9000
C15 C 0.5810(2) 1.2758(3) 0.7872(2)
H16 H 0.5362 1.3256 0.8366
C16 C 0.5653(2) 1.3011(2) 0.6763(2)
C17 C 0.6307(2) 1.2240(3) 0.60516(19)
H17 H 0.6195 1.2386 0.5301
C18 C 0.7129(2) 1.1249(3) 0.64450(18)
H18 H 0.7566 1.0743 0.5949
C19 C 0.4310(3) 1.4909(4) 0.7020(4)
H19 H 0.3695 1.4446 0.7437
H20 H 0.3879 1.5595 0.6595
H21 H 0.4961 1.5297 0.7510
C20 C 0.8351(2) 0.6032(2) 1.07132(18)
H22 H 0.8601 0.5390 1.1289
C21 C 0.7304(3) 0.5485(3) 0.9933(2)
H23 H 0.7676 0.5026 0.9329
H24 H 0.6763 0.4868 1.0308
C22 C 0.91366(19) 0.7309(2) 0.92354(16)
H25 H 0.8786 0.6748 0.8635
C23 C 1.1155(2) 0.6977(3) 0.8488(2)
H26 H 1.0696 0.6383 0.7977
H27 H 1.1567 0.6450 0.9073
C24 C 1.21497(19) 0.7748(2) 0.79111(18)
C25 C 1.1799(2) 0.8498(3) 0.7005(2)
H28 H 1.0945 0.8503 0.6729
C26 C 1.2712(3) 0.9247(4) 0.6498(2)
H29 H 1.2466 0.9770 0.5894
C27 C 1.3975(3) 0.9217(3) 0.6884(3)
H30 H 1.4587 0.9715 0.6538
C28 C 1.4339(2) 0.8465(3) 0.7772(2)
H31 H 1.5199 0.8442 0.8031
C29 C 1.3430(2) 0.7741(3) 0.82819(19)
H32 H 1.3683 0.7233 0.8892
O1 O 0.4896(2) 1.4000(2) 0.63047(18)
O2 O 0.75689(14) 0.89278(18) 0.84990(13)
O3 O 1.19016(18) 1.2072(2) 1.44912(16)
O4 O 0.83938(16) 0.81881(17) 1.17423(12)
O5 O 0.94522(13) 0.65033(16) 1.01741(12)
O6 O 0.65618(15) 0.6617(2) 0.95384(15)
O7 O 1.02709(13) 0.79019(16) 0.89304(12)
loop_
_geom_bond_atom_site_label_1
_geom_bond_atom_site_label_2
_geom_bond_site_symmetry_1
_geom_bond_site_symmetry_2
C1 H1 1_555 1_555
C2 C1 1_555 1_555
H2 C2 1_555 1_555
C3 C2 1_555 1_555
C4 C3 1_555 1_555
H3 C4 1_555 1_555
C5 C4 1_555 1_555
H4 C5 1_555 1_555
C6 C1 1_555 1_555
C7 C6 1_555 1_555
H5 C7 1_555 1_555
H6 C7 1_555 1_555
C8 H7 1_555 1_555
H8 C8 1_555 1_555
H9 C8 1_555 1_555
C9 H10 1_555 1_555
C10 C9 1_555 1_555
H11 C10 1_555 1_555
C11 C10 1_555 1_555
H12 C11 1_555 1_555
C12 H13 1_555 1_555
H14 C12 1_555 1_555
C13 C12 1_555 1_555
C14 C13 1_555 1_555
H15 C14 1_555 1_555
C15 C14 1_555 1_555
H16 C15 1_555 1_555
C16 C15 1_555 1_555
C17 C16 1_555 1_555
H17 C17 1_555 1_555
C18 C13 1_555 1_555
H18 C18 1_555 1_555
C19 H19 1_555 1_555
H20 C19 1_555 1_555
H21 C19 1_555 1_555
C20 C9 1_555 1_555
H22 C20 1_555 1_555
C21 C20 1_555 1_555
H23 C21 1_555 1_555
H24 C21 1_555 1_555
C22 C11 1_555 1_555
H25 C22 1_555 1_555
C23 H26 1_555 1_555
H27 C23 1_555 1_555
C24 C23 1_555 1_555
C25 C24 1_555 1_555
H28 C25 1_555 1_555
C26 C25 1_555 1_555
H29 C26 1_555 1_555
C27 C26 1_555 1_555
H30 C27 1_555 1_555
C28 C27 1_555 1_555
H31 C28 1_555 1_555
C29 C24 1_555 1_555
H32 C29 1_555 1_555
O1 C16 1_555 1_555
O2 C11 1_555 1_555
O3 C3 1_555 1_555
O4 C7 1_555 1_555
O5 C20 1_555 1_555
O6 C10 1_555 1_555
O7 C22 1_555 1_555
C5 C6 1_555 1_555
C8 O3 1_555 1_555
C9 O4 1_555 1_555
C12 O2 1_555 1_555
C17 C18 1_555 1_555
C19 O1 1_555 1_555
C21 O6 1_555 1_555
C22 O5 1_555 1_555
C23 O7 1_555 1_555
C28 C29 1_555 1_555

#END
