
#######################################################################
#
#                 Cambridge Crystallographic Data Centre
#                                CCDC 
#
#######################################################################
#
# If this CIF has been generated from an entry in the Cambridge 
# Structural Database, then it will include bibliographic, chemical, 
# crystal, experimental, refinement or atomic coordinate data resulting 
# from the CCDC's data processing and validation procedures.
#
#######################################################################

data_COSXUF
_chemical_compound_source        'Culture of Stereum hirsutum'
_chemical_name_common            
'2,6a,10,10,13,16b-hexamethyl-5-oxo-2,3,3a,4,4a,5,6a,7,10,11,14,15,15a,16,16b,16c-hexadecahydro-1H-cyclopenta[5,6]pentaleno[2,1-b]cycloundeca[e]pyran-2-carboxylic acid'
_chemical_formula_moiety         'C30 H42 O4'
_chemical_name_systematic        'sterhirsutin A'
_symmetry_cell_setting           monoclinic
_symmetry_space_group_name_H-M   'P 21'
_symmetry_Int_Tables_number      4
_space_group_name_Hall           'P 2yb'
loop_
_symmetry_equiv_pos_site_id
_symmetry_equiv_pos_as_xyz
1 x,y,z
2 -x,1/2+y,-z
_cell_length_a                   7.6582(4)
_cell_length_b                   6.5979(3)
_cell_length_c                   26.7169(14)
_cell_angle_alpha                90
_cell_angle_beta                 96.346(2)
_cell_angle_gamma                90
_cell_volume                     1341.68
_exptl_crystal_colour            white
_cell_formula_units_Z            2
_exptl_crystal_recrystallization_method methanol
loop_
_atom_site_label
_atom_site_type_symbol
_atom_site_fract_x
_atom_site_fract_y
_atom_site_fract_z
H1 H 1.0583 0.1149 0.6037
H2 H 0.3676 0.5908 0.8074
H3 H -0.0648 0.3989 0.7658
H4 H 0.0534 0.2782 0.8090
H5 H 0.6477 0.4092 0.6573
H6 H 0.0190 0.4314 0.8864
H7 H 0.3958 0.4411 0.6004
H8 H 0.9109 0.5472 0.6374
H9 H 0.8128 0.7292 0.6055
H10 H 0.0283 0.7125 0.8100
H11 H 0.5609 0.5253 0.5187
H12 H 0.5512 0.3015 0.5421
H13 H 0.6306 0.5536 0.7746
H14 H 0.5653 0.3549 0.7434
H15 H 0.5047 0.1916 0.8154
H16 H 0.3340 0.2401 0.8429
H17 H 0.4720 0.9852 0.6397
H18 H 0.8880 0.4468 0.4971
H19 H 1.0208 0.5487 0.5403
H20 H 0.8520 0.6714 0.5161
H21 H 0.8109 0.7468 0.7200
H22 H 0.6790 0.9330 0.7238
H23 H 0.7857 0.9115 0.6759
H24 H 0.6463 0.2982 0.8891
H25 H 0.6190 0.5171 0.8633
H26 H -0.1089 0.5814 0.9587
H27 H -0.2142 0.7558 0.9265
H28 H -0.0783 0.8141 0.9742
H29 H 0.5214 0.8262 0.5665
H30 H 0.3195 0.7595 0.5671
H31 H 0.2557 0.8382 0.9629
H32 H 0.2102 0.6052 0.9718
H33 H 0.2944 0.2467 0.7012
H34 H 0.0903 0.2092 0.7058
H35 H 0.2361 0.1098 0.7459
H36 H 0.4205 0.7458 0.8962
H37 H -0.0718 0.9558 0.8648
H38 H 0.1377 0.9559 0.8664
H39 H 0.0467 1.0473 0.9126
H40 H 0.3733 0.1690 0.9303
H41 H 0.3063 0.3300 0.9688
H42 H 0.5086 0.2639 0.9740
C1 C 0.8561(2) 0.2391(3) 0.58182(7)
C2 C 0.2639(2) 0.8044(3) 0.65885(7)
C3 C 0.2025(2) 0.4163(3) 0.75791(7)
C4 C 0.3805(2) 0.4591(3) 0.78968(7)
C5 C 0.2928(2) 0.6621(3) 0.70091(7)
C6 C 0.4637(2) 0.6175(3) 0.71130(7)
C7 C 0.0450(2) 0.4051(3) 0.78908(7)
C8 C 0.6378(2) 0.5418(3) 0.63910(7)
C9 C 0.0316(2) 0.5643(3) 0.87358(7)
C10 C 0.4962(2) 0.5291(3) 0.59311(7)
C11 C 0.7897(2) 0.4499(3) 0.56659(7)
C12 C 0.8053(2) 0.5841(3) 0.61447(7)
C13 C 0.0340(2) 0.5803(3) 0.82411(7)
C14 C 0.5893(3) 0.4428(3) 0.54945(7)
C15 C 0.5278(2) 0.4885(4) 0.75534(7)
C16 C 0.4390(3) 0.3011(4) 0.83035(8)
C17 C 0.4399(2) 0.8383(3) 0.63888(7)
C18 C 0.8974(3) 0.5371(3) 0.52639(8)
C19 C 0.5764(2) 0.7109(3) 0.67397(7)
C20 C 0.7265(3) 0.8369(3) 0.70085(8)
C21 C 0.5571(3) 0.3975(4) 0.87511(7)
C22 C -0.1023(3) 0.7200(5) 0.94588(9)
C23 C 0.0465(3) 0.7337(4) 0.91161(8)
C24 C 0.4386(3) 0.7512(4) 0.58561(7)
C25 C 0.2246(3) 0.7082(4) 0.94565(8)
C26 C 0.2062(3) 0.2288(4) 0.72476(8)
C27 C 0.4438(3) 0.4611(4) 0.91552(8)
C28 C 0.3733(3) 0.6447(4) 0.91615(8)
C29 C 0.0391(3) 0.9418(4) 0.88664(10)
C30 C 0.4046(3) 0.2912(4) 0.95019(9)
O1 O 0.7657(2) 0.0953(3) 0.58580(10)
O2 O 1.02903(18) 0.2318(2) 0.59356(6)
O3 O 0.12392(17) 0.8811(2) 0.64262(5)
O4 O 0.15747(16) 0.5922(2) 0.72515(5)
loop_
_geom_bond_atom_site_label_1
_geom_bond_atom_site_label_2
_geom_bond_site_symmetry_1
_geom_bond_site_symmetry_2
H1 O2 1_555 1_555
H2 C4 1_555 1_555
H3 C7 1_555 1_555
H4 C7 1_555 1_555
H5 C8 1_555 1_555
H6 C9 1_555 1_555
H7 C10 1_555 1_555
H8 C12 1_555 1_555
H9 C12 1_555 1_555
H10 C13 1_555 1_555
H11 C14 1_555 1_555
H12 C14 1_555 1_555
H13 C15 1_555 1_555
H14 C15 1_555 1_555
H15 C16 1_555 1_555
H16 C16 1_555 1_555
H17 C17 1_555 1_555
H18 C18 1_555 1_555
H19 C18 1_555 1_555
H20 C18 1_555 1_555
H21 C20 1_555 1_555
H22 C20 1_555 1_555
H23 C20 1_555 1_555
H24 C21 1_555 1_555
H25 C21 1_555 1_555
H26 C22 1_555 1_555
H27 C22 1_555 1_555
H28 C22 1_555 1_555
H29 C24 1_555 1_555
H30 C24 1_555 1_555
H31 C25 1_555 1_555
H32 C25 1_555 1_555
H33 C26 1_555 1_555
H34 C26 1_555 1_555
H35 C26 1_555 1_555
H36 C28 1_555 1_555
H37 C29 1_555 1_555
H38 C29 1_555 1_555
H39 C29 1_555 1_555
H40 C30 1_555 1_555
H41 C30 1_555 1_555
H42 C30 1_555 1_555
C1 C11 1_555 1_555
C2 C5 1_555 1_555
C3 C4 1_555 1_555
C4 C15 1_555 1_555
C5 C6 1_555 1_555
C6 C15 1_555 1_555
C7 C3 1_555 1_555
C8 C10 1_555 1_555
C9 C13 1_555 1_555
C10 C14 1_555 1_555
C11 C12 1_555 1_555
C12 C8 1_555 1_555
C13 C7 1_555 1_555
C14 C11 1_555 1_555
C16 C4 1_555 1_555
C17 C2 1_555 1_555
C18 C11 1_555 1_555
C19 C6 1_555 1_555
C20 C19 1_555 1_555
C21 C16 1_555 1_555
C22 C23 1_555 1_555
C23 C9 1_555 1_555
C24 C10 1_555 1_555
C25 C23 1_555 1_555
C26 C3 1_555 1_555
C27 C21 1_555 1_555
C28 C25 1_555 1_555
C29 C23 1_555 1_555
C30 C27 1_555 1_555
O1 C1 1_555 1_555
O2 C1 1_555 1_555
O3 C2 1_555 1_555
O4 C3 1_555 1_555
C5 O4 1_555 1_555
C8 C19 1_555 1_555
C17 C19 1_555 1_555
C17 C24 1_555 1_555
C27 C28 1_555 1_555

#END
