
#######################################################################
#
#                 Cambridge Crystallographic Data Centre
#                                CCDC 
#
#######################################################################
#
# If this CIF has been generated from an entry in the Cambridge 
# Structural Database, then it will include bibliographic, chemical, 
# crystal, experimental, refinement or atomic coordinate data resulting 
# from the CCDC's data processing and validation procedures.
#
#######################################################################

data_COTBIY
_chemical_formula_moiety         'C34 H34 Br1 N5 O5'
_chemical_name_systematic        
'2-(3-hydroxy-4-(3-methoxy-4-((7-(2-methoxyphenyl)pyrrolo[2,1-f][1,2,4]triazin-2-yl)amino)phenyl)piperidin-1-yl)ethyl 4-bromobenzoate'
_symmetry_cell_setting           triclinic
_symmetry_space_group_name_H-M   'P 1'
_symmetry_Int_Tables_number      1
_space_group_name_Hall           'P 1'
loop_
_symmetry_equiv_pos_site_id
_symmetry_equiv_pos_as_xyz
1 x,y,z
_cell_length_a                   7.32713(12)
_cell_length_b                   11.12781(17)
_cell_length_c                   19.6664(3)
_cell_angle_alpha                106.2111(14)
_cell_angle_beta                 91.7015(13)
_cell_angle_gamma                93.2437(12)
_cell_volume                     1535.54
_exptl_crystal_colour            yellow
_exptl_crystal_description       rod
_cell_formula_units_Z            2
loop_
_atom_site_label
_atom_site_type_symbol
_atom_site_fract_x
_atom_site_fract_y
_atom_site_fract_z
Br1 Br 1.01527(4) 1.27561(3) 0.636741(19)
C1 C 0.8951(6) 1.1445(4) 0.5630(2)
C2 C 0.8194(6) 1.1737(4) 0.5048(2)
H1 H 0.8194 1.2582 0.5032
C3 C 0.7433(6) 1.0760(4) 0.4487(2)
H2 H 0.6925 1.0936 0.4078
C4 C 0.7413(6) 0.9523(4) 0.4521(2)
C5 C 0.8140(6) 0.9265(4) 0.5120(2)
H3 H 0.8096 0.8424 0.5145
C6 C 0.8925(6) 1.0212(4) 0.5678(2)
H4 H 0.9435 1.0034 0.6086
C7 C 0.6631(6) 0.8529(4) 0.3889(2)
C8 C 0.6083(6) 0.6348(4) 0.3372(2)
H5 H 0.6715 0.6385 0.2940
H6 H 0.4751 0.6378 0.3284
C9 C 0.6487(6) 0.5168(4) 0.3569(2)
H7 H 0.7804 0.5204 0.3708
H8 H 0.5779 0.5123 0.3984
C10 C 0.4027(5) 0.3753(3) 0.2875(2)
H9 H 0.3436 0.4501 0.2821
H10 H 0.3538 0.3543 0.3294
C11 C 0.3585(5) 0.2648(3) 0.2211(2)
H11 H 0.4092 0.2873 0.1793
C12 C 0.4464(5) 0.1474(3) 0.2288(2)
H12 H 0.3868 0.1209 0.2679
C13 C 0.6525(5) 0.1794(3) 0.24976(19)
H13 H 0.7042 0.1074 0.2620
H14 H 0.7167 0.1923 0.2085
C14 C 0.6879(6) 0.2956(3) 0.3119(2)
H15 H 0.6382 0.2793 0.3550
H16 H 0.8215 0.3154 0.3206
C15 C 0.4240(5) 0.0381(3) 0.16191(19)
C16 C 0.3986(5) 0.0527(3) 0.0946(2)
H17 H 0.3922 0.1346 0.0892
C17 C 0.3824(5) -0.0508(4) 0.0343(2)
H18 H 0.3655 -0.0385 -0.0113
C18 C 0.3908(5) -0.1715(3) 0.0410(2)
C19 C 0.4218(5) -0.1863(3) 0.10936(18)
C20 C 0.4365(4) -0.0834(3) 0.16875(18)
H19 H 0.4552 -0.0952 0.2144
C21 C 0.4723(5) -0.3280(3) 0.17814(18)
H20 H 0.5843 -0.2781 0.2001
H21 H 0.4892 -0.4171 0.1717
H22 H 0.3701 -0.3026 0.2088
C22 C 0.3078(5) -0.3064(4) -0.0829(2)
C23 C 0.2161(6) -0.4615(4) -0.1824(2)
H23 H 0.1908 -0.5475 -0.2073
C24 C 0.1869(6) -0.3716(4) -0.2184(2)
C25 C 0.1274(6) -0.3700(4) -0.2862(2)
H24 H 0.0927 -0.4410 -0.3251
C26 C 0.1286(5) -0.2447(4) -0.2859(2)
H25 H 0.0924 -0.2154 -0.3249
C27 C 0.1917(5) -0.1688(4) -0.2189(2)
C28 C 0.2275(5) -0.0319(4) -0.1937(2)
C29 C 0.1043(5) 0.0485(4) -0.2114(2)
C30 C 0.1403(6) 0.1788(4) -0.1881(2)
H26 H 0.0565 0.2323 -0.2004
C31 C 0.2976(6) 0.2298(4) -0.1472(2)
H27 H 0.3221 0.3182 -0.1320
C32 C 0.4201(6) 0.1526(4) -0.1283(2)
H28 H 0.5270 0.1879 -0.0995
C33 C 0.3850(5) 0.0230(4) -0.1517(2)
H29 H 0.4698 -0.0295 -0.1391
C34 C -0.2039(6) 0.0636(5) -0.2473(3)
H30 H -0.2343 0.0971 -0.1977
H31 H -0.3080 0.0103 -0.2740
H32 H -0.1766 0.1331 -0.2677
N1 N 0.6022(4) 0.4032(3) 0.29807(17)
N2 N 0.3709(5) -0.2839(3) -0.01379(19)
H33 H 0.375(6) -0.346(3) 0.002(2)
N3 N 0.2862(5) -0.2109(3) -0.10871(18)
N4 N 0.2254(4) -0.2467(3) -0.17878(18)
N5 N 0.2768(5) -0.4327(3) -0.11603(19)
O1 O 0.5969(4) 0.8726(3) 0.33655(16)
O2 O 0.6757(4) 0.7376(3) 0.39727(16)
O3 O 0.1632(4) 0.2456(3) 0.2107(2)
H34 H 0.151(10) 0.228(6) 0.252(2)
O4 O 0.4331(4) -0.3074(2) 0.11027(12)
O5 O -0.0492(4) -0.0081(3) -0.25097(17)
Br2 Br -0.47812(4) -0.64934(3) -0.309653(19)
C35 C -0.3631(6) -0.5191(4) -0.2336(2)
C36 C -0.2937(6) -0.5493(4) -0.1752(2)
H35 H -0.2949 -0.6343 -0.1743
C37 C -0.2219(6) -0.4534(4) -0.1176(2)
H36 H -0.1749 -0.4726 -0.0766
C38 C -0.2185(6) -0.3298(4) -0.1196(2)
C39 C -0.2839(6) -0.3011(4) -0.1802(2)
H37 H -0.2769 -0.2166 -0.1822
C40 C -0.3598(6) -0.3971(4) -0.2380(2)
H38 H -0.4079 -0.3789 -0.2792
C41 C -0.1498(6) -0.2298(4) -0.0543(2)
C42 C -0.0937(6) -0.0131(4) -0.0008(2)
H39 H 0.0154 -0.0342 0.0234
H40 H -0.1938 0.0014 0.0327
C43 C -0.0503(6) 0.1021(4) -0.0248(2)
H41 H 0.0602 0.0908 -0.0531
H42 H -0.1534 0.1147 -0.0552
C44 C -0.1935(5) 0.2589(3) 0.06435(18)
H43 H -0.2686 0.1899 0.0748
H44 H -0.2612 0.2864 0.0276
C45 C -0.1640(5) 0.3677(3) 0.13116(18)
H45 H -0.0976 0.3394 0.1685
C46 C -0.0519(5) 0.4765(3) 0.11596(19)
H46 H -0.1236 0.5054 0.0801
C47 C 0.1269(5) 0.4277(4) 0.0826(2)
H47 H 0.1946 0.4951 0.0679
H48 H 0.2048 0.4046 0.1183
C48 C 0.0883(5) 0.3134(3) 0.01813(19)
H49 H 0.0198 0.3382 -0.0194
H50 H 0.2056 0.2821 -0.0010
C49 C -0.0139(5) 0.5877(3) 0.18108(17)
C50 C 0.0414(5) 0.5748(3) 0.24670(19)
H51 H 0.0481 0.4932 0.2525
C51 C 0.0870(5) 0.6790(3) 0.30403(18)
H52 H 0.1241 0.6678 0.3484
C52 C 0.0787(5) 0.7990(3) 0.29694(19)
C53 C 0.0165(5) 0.8123(3) 0.23072(18)
C54 C -0.0259(5) 0.7083(3) 0.17392(17)
H53 H -0.0638 0.7188 0.1294
C55 C -0.0433(5) 0.9507(3) 0.16134(18)
H54 H 0.0421 0.9092 0.1263
H55 H -0.0383 1.0404 0.1649
H56 H -0.1678 0.9138 0.1466
C56 C 0.2060(5) 0.9327(4) 0.4157(2)
C57 C 0.3175(6) 1.0875(4) 0.5129(2)
H57 H 0.3494 1.1730 0.5371
C58 C 0.3492(5) 0.9974(4) 0.5481(2)
C59 C 0.4194(6) 0.9960(4) 0.6147(2)
H58 H 0.4583 1.0671 0.6529
C60 C 0.4217(6) 0.8719(4) 0.6147(2)
H59 H 0.4649 0.8433 0.6531
C61 C 0.3498(5) 0.7941(4) 0.5486(2)
C62 C 0.3162(5) 0.6574(4) 0.5236(2)
C63 C 0.4420(5) 0.5787(4) 0.5410(2)
C64 C 0.4092(6) 0.4490(4) 0.5189(2)
H60 H 0.4950 0.3969 0.5314
C65 C 0.2505(6) 0.3955(4) 0.4786(2)
H61 H 0.2277 0.3069 0.4635
C66 C 0.1271(6) 0.4715(4) 0.4607(2)
H62 H 0.0192 0.4350 0.4329
C67 C 0.1587(5) 0.6011(4) 0.4831(2)
H63 H 0.0716 0.6523 0.4706
C68 C 0.7520(6) 0.5639(5) 0.5774(3)
H64 H 0.7313 0.5049 0.6057
H65 H 0.8611 0.6195 0.5966
H66 H 0.7701 0.5171 0.5281
N6 N -0.0184(4) 0.2129(3) 0.03730(18)
N7 N 0.1267(5) 0.9115(3) 0.34914(18)
H67 H 0.116(6) 0.977(3) 0.336(2)
N8 N 0.2325(4) 0.8377(3) 0.44117(17)
N9 N 0.3059(4) 0.8740(3) 0.50969(17)
N10 N 0.2458(5) 1.0602(3) 0.44810(18)
O6 O -0.1037(5) -0.2504(3) -0.00023(17)
O7 O -0.1492(4) -0.1144(3) -0.06365(16)
O8 O -0.3393(3) 0.4053(2) 0.15483(13)
H68 H -0.352(6) 0.411(4) 0.1971(15)
O9 O 0.0064(4) 0.9340(2) 0.22894(13)
O10 O 0.5965(4) 0.6371(3) 0.57988(17)
loop_
_geom_bond_atom_site_label_1
_geom_bond_atom_site_label_2
_geom_bond_site_symmetry_1
_geom_bond_site_symmetry_2
Br1 C1 1_555 1_555
C1 C2 1_555 1_555
C2 H1 1_555 1_555
C3 C2 1_555 1_555
H2 C3 1_555 1_555
C4 C3 1_555 1_555
C5 C4 1_555 1_555
H3 C5 1_555 1_555
C6 C1 1_555 1_555
H4 C6 1_555 1_555
C7 C4 1_555 1_555
C8 H5 1_555 1_555
H6 C8 1_555 1_555
C9 C8 1_555 1_555
H7 C9 1_555 1_555
H8 C9 1_555 1_555
C10 H9 1_555 1_555
H10 C10 1_555 1_555
C11 C10 1_555 1_555
H11 C11 1_555 1_555
C12 C11 1_555 1_555
H12 C12 1_555 1_555
C13 C12 1_555 1_555
H13 C13 1_555 1_555
H14 C13 1_555 1_555
C14 C13 1_555 1_555
H15 C14 1_555 1_555
H16 C14 1_555 1_555
C15 C12 1_555 1_555
C16 C15 1_555 1_555
H17 C16 1_555 1_555
C17 C16 1_555 1_555
H18 C17 1_555 1_555
C18 C17 1_555 1_555
C19 C18 1_555 1_555
C20 C15 1_555 1_555
H19 C20 1_555 1_555
C21 H20 1_555 1_555
H21 C21 1_555 1_555
H22 C21 1_555 1_555
C22 N2 1_555 1_555
C23 H23 1_555 1_555
C24 C23 1_555 1_555
C25 C24 1_555 1_555
H24 C25 1_555 1_555
C26 C25 1_555 1_555
H25 C26 1_555 1_555
C27 C26 1_555 1_555
C28 C27 1_555 1_555
C29 C28 1_555 1_555
C30 C29 1_555 1_555
H26 C30 1_555 1_555
C31 C30 1_555 1_555
H27 C31 1_555 1_555
C32 C31 1_555 1_555
H28 C32 1_555 1_555
C33 C28 1_555 1_555
H29 C33 1_555 1_555
C34 H30 1_555 1_555
H31 C34 1_555 1_555
H32 C34 1_555 1_555
N1 C9 1_555 1_555
N2 C18 1_555 1_555
H33 N2 1_555 1_555
N3 C22 1_555 1_555
N4 C24 1_555 1_555
N5 C22 1_555 1_555
O1 C7 1_555 1_555
O2 C7 1_555 1_555
O3 C11 1_555 1_555
H34 O3 1_555 1_555
O4 C19 1_555 1_555
O5 C29 1_555 1_555
Br2 C35 1_555 1_555
C35 C36 1_555 1_555
C36 H35 1_555 1_555
C37 C36 1_555 1_555
H36 C37 1_555 1_555
C38 C37 1_555 1_555
C39 C38 1_555 1_555
H37 C39 1_555 1_555
C40 C35 1_555 1_555
H38 C40 1_555 1_555
C41 C38 1_555 1_555
C42 H39 1_555 1_555
H40 C42 1_555 1_555
C43 C42 1_555 1_555
H41 C43 1_555 1_555
H42 C43 1_555 1_555
C44 H43 1_555 1_555
H44 C44 1_555 1_555
C45 C44 1_555 1_555
H45 C45 1_555 1_555
C46 C45 1_555 1_555
H46 C46 1_555 1_555
C47 C46 1_555 1_555
H47 C47 1_555 1_555
H48 C47 1_555 1_555
C48 C47 1_555 1_555
H49 C48 1_555 1_555
H50 C48 1_555 1_555
C49 C46 1_555 1_555
C50 C49 1_555 1_555
H51 C50 1_555 1_555
C51 C50 1_555 1_555
H52 C51 1_555 1_555
C52 C51 1_555 1_555
C53 C52 1_555 1_555
C54 C49 1_555 1_555
H53 C54 1_555 1_555
C55 H54 1_555 1_555
H55 C55 1_555 1_555
H56 C55 1_555 1_555
C56 N7 1_555 1_555
C57 H57 1_555 1_555
C58 C57 1_555 1_555
C59 C58 1_555 1_555
H58 C59 1_555 1_555
C60 C59 1_555 1_555
H59 C60 1_555 1_555
C61 C60 1_555 1_555
C62 C61 1_555 1_555
C63 C62 1_555 1_555
C64 C63 1_555 1_555
H60 C64 1_555 1_555
C65 C64 1_555 1_555
H61 C65 1_555 1_555
C66 C65 1_555 1_555
H62 C66 1_555 1_555
C67 C62 1_555 1_555
H63 C67 1_555 1_555
C68 H64 1_555 1_555
H65 C68 1_555 1_555
H66 C68 1_555 1_555
N6 C43 1_555 1_555
N7 C52 1_555 1_555
H67 N7 1_555 1_555
N8 C56 1_555 1_555
N9 C58 1_555 1_555
N10 C56 1_555 1_555
O6 C41 1_555 1_555
O7 C41 1_555 1_555
O8 C45 1_555 1_555
H68 O8 1_555 1_555
O9 C53 1_555 1_555
O10 C63 1_555 1_555
C5 C6 1_555 1_555
C8 O2 1_555 1_555
C10 N1 1_555 1_555
C14 N1 1_555 1_555
C19 C20 1_555 1_555
C21 O4 1_555 1_555
C23 N5 1_555 1_555
C27 N4 1_555 1_555
C32 C33 1_555 1_555
C34 O5 1_555 1_555
N3 N4 1_555 1_555
C39 C40 1_555 1_555
C42 O7 1_555 1_555
C44 N6 1_555 1_555
C48 N6 1_555 1_555
C53 C54 1_555 1_555
C55 O9 1_555 1_555
C57 N10 1_555 1_555
C61 N9 1_555 1_555
C66 C67 1_555 1_555
C68 O10 1_555 1_555
N8 N9 1_555 1_555

#END
