
#######################################################################
#
#                 Cambridge Crystallographic Data Centre
#                                CCDC 
#
#######################################################################
#
# If this CIF has been generated from an entry in the Cambridge 
# Structural Database, then it will include bibliographic, chemical, 
# crystal, experimental, refinement or atomic coordinate data resulting 
# from the CCDC's data processing and validation procedures.
#
#######################################################################

data_COTDEW
_chemical_formula_moiety         'C48 H42 N4 O8,C1 H1 Cl3'
_chemical_name_systematic        
'diethyl 1,4-dimethoxy-8,11-bis(2-naphthyl)-6,13-dioxo-5,7,12,14-tetrahydro-5a,6a,12a,13a-tetraazabenzo[5,6]azuleno[2,1,8-ija]benzo[f]azulene-13b,13c-dicarboxylate chloroform solvate'
_symmetry_cell_setting           triclinic
_symmetry_space_group_name_H-M   'P -1'
_symmetry_Int_Tables_number      2
_space_group_name_Hall           '-P 1'
loop_
_symmetry_equiv_pos_site_id
_symmetry_equiv_pos_as_xyz
1 x,y,z
2 -x,-y,-z
_cell_length_a                   10.9368(13)
_cell_length_b                   14.8456(18)
_cell_length_c                   15.7583(19)
_cell_angle_alpha                71.070(2)
_cell_angle_beta                 89.029(2)
_cell_angle_gamma                69.365(2)
_cell_volume                     2251.18
_exptl_crystal_colour            colorless
_exptl_crystal_description       block
_cell_formula_units_Z            2
loop_
_atom_site_label
_atom_site_type_symbol
_atom_site_fract_x
_atom_site_fract_y
_atom_site_fract_z
C1 C 0.4671(3) 0.0223(2) 0.3067(2)
C2 C 0.5156(4) 0.0495(3) 0.3718(2)
H1 H 0.5864 0.0014 0.4135
C3 C 0.4595(4) 0.1471(3) 0.3750(2)
H2 H 0.4941 0.1638 0.4188
C4 C 0.3538(3) 0.2207(2) 0.3153(2)
C5 C 0.2984(3) 0.1930(2) 0.2522(2)
C6 C 0.3556(3) 0.0938(2) 0.2475(2)
C7 C 0.5414(3) -0.0811(3) 0.3003(2)
C8 C 0.5607(4) -0.1674(3) 0.3718(3)
H3 H 0.5267 -0.1617 0.4251
C9 C 0.6313(4) -0.2665(3) 0.3677(3)
C10 C 0.6825(4) -0.2743(3) 0.2875(3)
C11 C 0.6667(4) -0.1851(4) 0.2157(3)
H4 H 0.7029 -0.1897 0.1627
C12 C 0.5996(4) -0.0916(3) 0.2216(3)
H5 H 0.5917 -0.0332 0.1730
C13 C 0.6509(6) -0.3562(3) 0.4421(3)
H6 H 0.6198 -0.3509 0.4963
C14 C 0.7148(6) -0.4503(4) 0.4356(4)
H7 H 0.7268 -0.5087 0.4854
C15 C 0.7614(6) -0.4597(4) 0.3564(5)
H8 H 0.8026 -0.5245 0.3524
C16 C 0.7480(5) -0.3748(4) 0.2832(4)
H9 H 0.7818 -0.3824 0.2304
C17 C 0.3023(11) 0.3304(6) 0.3165(14)
C18 C 0.3926(8) 0.3788(6) 0.3017(10)
H10 H 0.4778 0.3446 0.2917
C19 C 0.3555(7) 0.4785(5) 0.3017(7)
C20 C 0.2281(7) 0.5297(3) 0.3166(6)
C21 C 0.1378(6) 0.4813(6) 0.3314(8)
H11 H 0.0526 0.5156 0.3414
C22 C 0.1749(10) 0.3816(7) 0.3314(13)
H12 H 0.1144 0.3492 0.3413
C23 C 0.4459(7) 0.5291(5) 0.2852(5)
H13 H 0.5317 0.4946 0.2764
C24 C 0.4083(9) 0.6283(5) 0.2822(5)
H14 H 0.4692 0.6603 0.2722
C25 C 0.2810(10) 0.6814(6) 0.2939(6)
H15 H 0.2557 0.7499 0.2888
C26 C 0.1925(10) 0.6343(6) 0.3127(7)
H16 H 0.1082 0.6698 0.3232
C27 C 0.3056(3) 0.0644(2) 0.1755(2)
H17 H 0.3243 0.1030 0.1176
H18 H 0.3558 -0.0075 0.1861
C28 C 0.1836(3) 0.2732(2) 0.1832(2)
H19 H 0.1577 0.3364 0.1963
H20 H 0.2144 0.2862 0.1239
C29 C 0.1179(4) 0.0093(3) 0.2227(2)
C30 C -0.0355(3) 0.2690(2) 0.2281(2)
C31 C 0.0646(3) 0.1794(2) 0.1323(2)
C32 C 0.0683(4) 0.2297(3) 0.0304(2)
C33 C -0.0438(5) 0.3787(3) -0.0951(2)
H21 H -0.1359 0.4159 -0.1179
H22 H -0.0051 0.3341 -0.1296
C34 C 0.0232(6) 0.4509(3) -0.1059(3)
H23 H -0.0129 0.4931 -0.0697
H24 H 0.0110 0.4933 -0.1681
H25 H 0.1154 0.4137 -0.0868
C35 C -0.0641(3) 0.1599(2) 0.1586(2)
C36 C -0.1611(4) 0.1820(3) 0.0782(3)
C37 C -0.1813(11) 0.1349(11) -0.0497(7)
H26 H -0.2339 0.2067 -0.0796
H27 H -0.1236 0.1113 -0.0917
C38 C -0.2675(9) 0.0772(6) -0.0255(6)
H28 H -0.2156 0.0057 0.0023
H29 H -0.3190 0.0872 -0.0788
H30 H -0.3248 0.1005 0.0161
O1 O -0.2697(6) 0.2444(6) 0.0607(6)
O2 O -0.1024(7) 0.1236(5) 0.0294(5)
C39 C -0.1002(4) 0.0023(3) 0.2609(3)
H31 H -0.0568 -0.0709 0.2748
H32 H -0.1808 0.0243 0.2222
C40 C -0.2252(4) 0.2155(3) 0.2657(2)
H33 H -0.2945 0.2145 0.2288
H34 H -0.2613 0.2760 0.2830
C41 C -0.1354(4) 0.0231(3) 0.3482(2)
C42 C -0.1887(4) 0.1225(3) 0.3503(2)
C43 C -0.2176(4) 0.1365(4) 0.4335(3)
C44 C -0.1943(5) 0.0534(5) 0.5112(3)
H35 H -0.2126 0.0634 0.5660
C45 C -0.1439(5) -0.0443(5) 0.5079(3)
H36 H -0.1293 -0.1001 0.5606
C46 C -0.1151(4) -0.0600(4) 0.4272(3)
C47 C -0.0710(7) -0.2396(4) 0.4901(4)
H37 H -0.0171 -0.2495 0.5422
H38 H -0.0394 -0.3001 0.4736
H39 H -0.1602 -0.2267 0.5037
C48 C -0.2810(6) 0.2574(5) 0.5111(3)
H40 H -0.3243 0.2181 0.5521
H41 H -0.3295 0.3290 0.4987
H42 H -0.1937 0.2397 0.5378
N1 N 0.1670(3) 0.07962(19) 0.16844(17)
N2 N -0.0157(3) 0.0529(2) 0.21159(18)
N3 N 0.0686(3) 0.24761(18) 0.17928(17)
N4 N -0.1200(3) 0.2262(2) 0.21004(18)
O3 O 0.1850(3) -0.07746(18) 0.26941(16)
O4 O -0.0515(2) 0.31965(18) 0.27755(16)
O5 O 0.1501(3) 0.1946(2) -0.01285(17)
O6 O -0.0318(3) 0.31734(19) 0.00021(15)
O7 O -0.0656(4) -0.1552(3) 0.4175(2)
O8 O -0.2741(3) 0.2361(3) 0.4304(2)
C61 C 0.4339(12) 0.3955(7) 0.9801(6)
H55 H 0.5248 0.3889 0.9699
Cl1 Cl 0.4073(2) 0.29242(15) 0.96667(19)
Cl2 Cl 0.4107(2) 0.3939(2) 1.09034(15)
Cl3 Cl 0.3296(2) 0.51138(16) 0.9068(2)
C49? C -0.201(9) 0.117(14) -0.022(4)
H43? H -0.2858 0.1703 -0.0271
H44? H -0.2153 0.0555 -0.0200
C50? C -0.134(7) 0.149(5) -0.101(3)
H45? H -0.1349 0.2162 -0.1104
H46? H -0.1786 0.1495 -0.1537
H47? H -0.0447 0.1016 -0.0921
O9? O -0.266(5) 0.250(6) 0.069(7)
O10? O -0.125(5) 0.098(2) 0.059(2)
C51? C 0.334(2) 0.3253(14) 0.319(3)
C52? C 0.2100(18) 0.3892(14) 0.328(3)
H48? H 0.1402 0.3664 0.3352
C53? C 0.1908(11) 0.4870(11) 0.3277(16)
C54? C 0.2952(13) 0.5211(7) 0.3174(14)
C55? C 0.4188(12) 0.4573(12) 0.3077(17)
H49? H 0.4886 0.4800 0.3008
C56? C 0.4379(16) 0.3594(15) 0.308(3)
H50? H 0.5206 0.3167 0.3018
C57? C 0.0664(12) 0.5504(9) 0.3361(9)
H51? H -0.0024 0.5264 0.3451
C58? C 0.0457(14) 0.6499(8) 0.3311(9)
H52? H -0.0368 0.6926 0.3380
C59? C 0.1483(17) 0.6854(11) 0.3157(13)
H53? H 0.1325 0.7531 0.3097
C60? C 0.2732(19) 0.6230(12) 0.309(2)
H54? H 0.3413 0.6477 0.2990
C62? C 0.462(3) 0.3775(17) 0.9927(14)
H56? H 0.5419 0.3899 1.0032
Cl4? Cl 0.4647(16) 0.3568(14) 0.8917(9)
Cl5? Cl 0.4556(12) 0.2783(11) 1.0846(9)
Cl6? Cl 0.3283(10) 0.4811(9) 0.9958(11)
loop_
_geom_bond_atom_site_label_1
_geom_bond_atom_site_label_2
_geom_bond_site_symmetry_1
_geom_bond_site_symmetry_2
C1 C2 1_555 1_555
C2 H1 1_555 1_555
C3 C2 1_555 1_555
H2 C3 1_555 1_555
C4 C3 1_555 1_555
C5 C4 1_555 1_555
C6 C1 1_555 1_555
C7 C1 1_555 1_555
C8 C7 1_555 1_555
H3 C8 1_555 1_555
C9 C8 1_555 1_555
C10 C9 1_555 1_555
C11 C10 1_555 1_555
H4 C11 1_555 1_555
C12 C7 1_555 1_555
H5 C12 1_555 1_555
C13 C9 1_555 1_555
H6 C13 1_555 1_555
C14 C13 1_555 1_555
H7 C14 1_555 1_555
C15 C14 1_555 1_555
H8 C15 1_555 1_555
C16 C10 1_555 1_555
H9 C16 1_555 1_555
C17 C4 1_555 1_555
C18 C17 1_555 1_555
H10 C18 1_555 1_555
C19 C18 1_555 1_555
C20 C19 1_555 1_555
C21 C20 1_555 1_555
H11 C21 1_555 1_555
C22 C17 1_555 1_555
H12 C22 1_555 1_555
C23 C19 1_555 1_555
H13 C23 1_555 1_555
C24 C23 1_555 1_555
H14 C24 1_555 1_555
C25 C24 1_555 1_555
H15 C25 1_555 1_555
C26 C20 1_555 1_555
H16 C26 1_555 1_555
C27 C6 1_555 1_555
H17 C27 1_555 1_555
H18 C27 1_555 1_555
C28 C5 1_555 1_555
H19 C28 1_555 1_555
H20 C28 1_555 1_555
C29 N1 1_555 1_555
C30 N3 1_555 1_555
C31 C32 1_555 1_555
C32 O5 1_555 1_555
C33 H21 1_555 1_555
H22 C33 1_555 1_555
C34 C33 1_555 1_555
H23 C34 1_555 1_555
H24 C34 1_555 1_555
H25 C34 1_555 1_555
C35 C31 1_555 1_555
C36 C35 1_555 1_555
C37 H26 1_555 1_555
H27 C37 1_555 1_555
C38 C37 1_555 1_555
H28 C38 1_555 1_555
H29 C38 1_555 1_555
H30 C38 1_555 1_555
O1 C36 1_555 1_555
O2 C36 1_555 1_555
C39 H31 1_555 1_555
H32 C39 1_555 1_555
C40 H33 1_555 1_555
H34 C40 1_555 1_555
C41 C39 1_555 1_555
C42 C40 1_555 1_555
C43 C42 1_555 1_555
C44 C43 1_555 1_555
H35 C44 1_555 1_555
C45 C44 1_555 1_555
H36 C45 1_555 1_555
C46 C41 1_555 1_555
C47 H37 1_555 1_555
H38 C47 1_555 1_555
H39 C47 1_555 1_555
C48 H40 1_555 1_555
H41 C48 1_555 1_555
H42 C48 1_555 1_555
N1 C27 1_555 1_555
N2 C29 1_555 1_555
N3 C28 1_555 1_555
N4 C30 1_555 1_555
O3 C29 1_555 1_555
O4 C30 1_555 1_555
O6 C32 1_555 1_555
O7 C46 1_555 1_555
O8 C43 1_555 1_555
C61 H55 1_555 1_555
Cl1 C61 1_555 1_555
Cl2 C61 1_555 1_555
Cl3 C61 1_555 1_555
C5 C6 1_555 1_555
C11 C12 1_555 1_555
C15 C16 1_555 1_555
C21 C22 1_555 1_555
C25 C26 1_555 1_555
C31 N1 1_555 1_555
C31 N3 1_555 1_555
C33 O6 1_555 1_555
C35 N2 1_555 1_555
C35 N4 1_555 1_555
C37 O2 1_555 1_555
C39 N2 1_555 1_555
C40 N4 1_555 1_555
C41 C42 1_555 1_555
C45 C46 1_555 1_555
C47 O7 1_555 1_555
C48 O8 1_555 1_555

#END
