
#######################################################################
#
#                 Cambridge Crystallographic Data Centre
#                                CCDC 
#
#######################################################################
#
# If this CIF has been generated from an entry in the Cambridge 
# Structural Database, then it will include bibliographic, chemical, 
# crystal, experimental, refinement or atomic coordinate data resulting 
# from the CCDC's data processing and validation procedures.
#
#######################################################################

data_COTGOJ
_chemical_formula_moiety         'C18 H16 N4 O2 S1'
_chemical_name_systematic        
(Z)-N-(1-allyl-3-diazoindolin-2-ylidene)-4-methylbenzenesulfonamide
_symmetry_cell_setting           triclinic
_symmetry_space_group_name_H-M   'P -1'
_symmetry_Int_Tables_number      2
_space_group_name_Hall           '-P 1'
loop_
_symmetry_equiv_pos_site_id
_symmetry_equiv_pos_as_xyz
1 x,y,z
2 -x,-y,-z
_cell_length_a                   7.9850(15)
_cell_length_b                   9.3841(19)
_cell_length_c                   13.287(3)
_cell_angle_alpha                87.148(17)
_cell_angle_beta                 73.581(18)
_cell_angle_gamma                68.814(18)
_cell_volume                     888.944
_exptl_crystal_colour            yellow
_exptl_crystal_description       platelet
_cell_formula_units_Z            2
loop_
_atom_site_label
_atom_site_type_symbol
_atom_site_fract_x
_atom_site_fract_y
_atom_site_fract_z
S1 S 0.20613(10) 0.48438(9) 0.26980(6)
O1 O 0.1786(3) 0.5635(2) 0.36623(17)
O2 O 0.0953(3) 0.5668(3) 0.20249(19)
N1 N 0.2073(3) 0.0917(3) 0.36272(18)
N2 N 0.1780(3) 0.3236(3) 0.28651(19)
N3 N 0.2454(3) 0.3724(3) 0.51078(19)
N4 N 0.2618(5) 0.4608(3) 0.5571(2)
C1 C 0.2339(3) 0.0169(3) 0.4539(2)
C2 C 0.2470(4) -0.1317(3) 0.4796(3)
H1 H 0.2378 -0.1988 0.4340
C3 C 0.2744(4) -0.1743(4) 0.5765(3)
H2 H 0.2838 -0.2728 0.5961
C4 C 0.2882(5) -0.0767(4) 0.6453(3)
H3 H 0.3073 -0.1105 0.7096
C5 C 0.2738(4) 0.0718(4) 0.6195(2)
H4 H 0.2809 0.1390 0.6660
C6 C 0.2486(3) 0.1163(3) 0.5223(2)
C7 C 0.2311(3) 0.2561(3) 0.4677(2)
C8 C 0.2052(3) 0.2380(3) 0.3665(2)
C9 C 0.1937(4) 0.0223(4) 0.2710(3)
H5 H 0.1134 0.1001 0.2370
H6 H 0.1377 -0.0544 0.2930
C10 C 0.3851(8) -0.0513(6) 0.1939(4)
H7 H 0.4499 0.0154 0.1770
C11 C 0.4651(12) -0.1637(11) 0.1535(6)
H8 H 0.5289 -0.1719 0.0823
H9 H 0.4698 -0.2515 0.1900
C12 C 0.4441(4) 0.4312(3) 0.1983(2)
C13 C 0.5069(5) 0.3565(5) 0.1013(3)
H10 H 0.4236 0.3368 0.0724
C14 C 0.6937(5) 0.3109(5) 0.0469(3)
H11 H 0.7361 0.2594 -0.0187
C15 C 0.8199(4) 0.3401(4) 0.0881(3)
C16 C 0.7537(5) 0.4156(4) 0.1844(3)
H12 H 0.8362 0.4369 0.2132
C17 C 0.5673(4) 0.4611(4) 0.2400(3)
H13 H 0.5250 0.5122 0.3058
C18 C 1.0247(5) 0.2879(6) 0.0270(3)
H14 H 1.0811 0.1788 0.0285
H15 H 1.0870 0.3362 0.0581
H16 H 1.0362 0.3156 -0.0445
H17? H 0.4677 -0.1194 0.2267
C19? C 0.461(4) -0.047(4) 0.1029(14)
H18? H 0.5324 -0.1375 0.0618
H19? H 0.4478 0.0468 0.0732
loop_
_geom_bond_atom_site_label_1
_geom_bond_atom_site_label_2
_geom_bond_site_symmetry_1
_geom_bond_site_symmetry_2
S1 O1 1_555 1_555
O2 S1 1_555 1_555
N1 C1 1_555 1_555
N2 S1 1_555 1_555
N3 N4 1_555 1_555
C1 C2 1_555 1_555
C2 H1 1_555 1_555
C3 C2 1_555 1_555
H2 C3 1_555 1_555
C4 C3 1_555 1_555
H3 C4 1_555 1_555
C5 C4 1_555 1_555
H4 C5 1_555 1_555
C6 C1 1_555 1_555
C7 N3 1_555 1_555
C8 N1 1_555 1_555
C9 N1 1_555 1_555
H5 C9 1_555 1_555
H6 C9 1_555 1_555
C10 C9 1_555 1_555
H7 C10 1_555 1_555
C11 C10 1_555 1_555
H8 C11 1_555 1_555
H9 C11 1_555 1_555
C12 S1 1_555 1_555
C13 C12 1_555 1_555
H10 C13 1_555 1_555
C14 C13 1_555 1_555
H11 C14 1_555 1_555
C15 C14 1_555 1_555
C16 C15 1_555 1_555
H12 C16 1_555 1_555
C17 C12 1_555 1_555
H13 C17 1_555 1_555
C18 C15 1_555 1_555
H14 C18 1_555 1_555
H15 C18 1_555 1_555
H16 C18 1_555 1_555
N2 C8 1_555 1_555
C5 C6 1_555 1_555
C6 C7 1_555 1_555
C7 C8 1_555 1_555
C16 C17 1_555 1_555

#END
