
#######################################################################
#
#                 Cambridge Crystallographic Data Centre
#                                CCDC 
#
#######################################################################
#
# If this CIF has been generated from an entry in the Cambridge 
# Structural Database, then it will include bibliographic, chemical, 
# crystal, experimental, refinement or atomic coordinate data resulting 
# from the CCDC's data processing and validation procedures.
#
#######################################################################

data_COTNEG
_chemical_formula_moiety         'C52 H42 N4 O8,1.5(C1 H1 Cl3)'
_chemical_name_systematic        
'diethyl 1,4-dimethoxy-8,11-bis(1-naphthylethynyl)-6,13-dioxo-5,7,12,14-tetrahydro-5a,6a,12a,13a-tetraazabenzo[5,6]azuleno[2,1,8-ija]benzo[f]azulene-13b,13c-dicarboxylate chloroform solvate'
_symmetry_cell_setting           triclinic
_symmetry_space_group_name_H-M   'P -1'
_symmetry_Int_Tables_number      2
_space_group_name_Hall           '-P 1'
loop_
_symmetry_equiv_pos_site_id
_symmetry_equiv_pos_as_xyz
1 x,y,z
2 -x,-y,-z
_cell_length_a                   13.1674(15)
_cell_length_b                   13.8587(16)
_cell_length_c                   15.6640(18)
_cell_angle_alpha                64.005(2)
_cell_angle_beta                 85.984(2)
_cell_angle_gamma                67.813(2)
_cell_volume                     2363.29
_exptl_crystal_colour            colorless
_exptl_crystal_description       block
_cell_formula_units_Z            2
loop_
_atom_site_label
_atom_site_type_symbol
_atom_site_fract_x
_atom_site_fract_y
_atom_site_fract_z
C1 C 0.5221(5) -0.1617(5) 0.3308(5)
H1 H 0.6014 -0.1968 0.3275
H2 H 0.4813 -0.1795 0.2935
H3 H 0.5070 -0.1935 0.3976
C2 C 0.5301(4) 0.0016(4) 0.3423(4)
C3 C 0.6045(4) -0.0726(4) 0.4252(4)
H4 H 0.6260 -0.1545 0.4510
C4 C 0.6463(4) -0.0270(5) 0.4693(4)
H5 H 0.6979 -0.0777 0.5251
C5 C 0.6139(4) 0.0928(4) 0.4331(3)
C6 C 0.5379(4) 0.1682(4) 0.3504(3)
C7 C 0.4975(4) 0.1212(4) 0.3046(3)
C8 C 0.7377(5) 0.0712(5) 0.5511(4)
H6 H 0.7082 0.0230 0.6047
H7 H 0.7610 0.1190 0.5702
H8 H 0.8011 0.0210 0.5332
C9 C 0.4236(4) 0.1982(4) 0.2099(3)
H9 H 0.4671 0.2338 0.1609
H10 H 0.4035 0.1480 0.1906
C10 C 0.5064(4) 0.2977(4) 0.3125(3)
H11 H 0.5399 0.3113 0.3587
H12 H 0.5386 0.3259 0.2518
C11 C 0.3213(4) 0.3924(4) 0.2130(3)
C12 C 0.3540(4) 0.4718(4) 0.1203(4)
C13 C 0.3852(16) 0.6452(13) 0.0388(9)
H13 H 0.4461 0.6020 0.0123
H14 H 0.3199 0.6924 -0.0100
C14 C 0.4191(8) 0.7230(8) 0.0632(7)
H15 H 0.3581 0.7664 0.0883
H16 H 0.4378 0.7778 0.0055
H17 H 0.4837 0.6756 0.1115
C15 C 0.2012(4) 0.4478(4) 0.2356(3)
C16 C 0.1342(4) 0.5748(4) 0.1599(3)
C17 C 0.0633(5) 0.6853(4) -0.0051(4)
H18 H 0.1097 0.7309 -0.0338
H19 H -0.0017 0.7318 0.0156
C18 C 0.0275(5) 0.6555(4) -0.0756(4)
H20 H 0.0927 0.6126 -0.0975
H21 H -0.0183 0.7272 -0.1303
H22 H -0.0152 0.6072 -0.0451
C19 C 0.2266(4) 0.2730(4) 0.2322(3)
C20 C 0.3272(4) 0.3856(4) 0.3650(3)
C21 C 0.0457(4) 0.3765(4) 0.2736(3)
H23 H 0.0126 0.3404 0.2474
H24 H -0.0047 0.4591 0.2510
C22 C 0.1280(4) 0.4582(4) 0.3873(3)
H25 H 0.0626 0.5274 0.3471
H26 H 0.1510 0.4740 0.4371
C23 C 0.0946(4) 0.3551(4) 0.4358(3)
C24 C 0.0546(4) 0.3156(4) 0.3818(3)
C25 C 0.0213(4) 0.2218(4) 0.4270(3)
C26 C 0.0275(4) 0.1673(5) 0.5271(3)
H27 H 0.0043 0.1042 0.5581
C27 C 0.0673(4) 0.2054(4) 0.5807(3)
H28 H 0.0715 0.1677 0.6485
C28 C 0.1012(4) 0.2981(4) 0.5367(3)
C29 C 0.1391(4) 0.3368(4) 0.5947(3)
C30 C 0.1709(4) 0.3671(5) 0.6458(3)
C31 C 0.2067(4) 0.4050(4) 0.7052(3)
C32 C 0.2277(4) 0.5045(5) 0.6650(4)
H29 H 0.2196 0.5474 0.5974
C33 C 0.2613(5) 0.5441(5) 0.7232(4)
H30 H 0.2761 0.6130 0.6945
C34 C 0.2724(4) 0.4836(5) 0.8204(4)
H31 H 0.2951 0.5108 0.8587
C35 C 0.2510(4) 0.3818(5) 0.8646(4)
C36 C 0.2606(5) 0.3175(6) 0.9662(4)
H32 H 0.2825 0.3441 1.0055
C37 C 0.2391(5) 0.2198(6) 1.0076(4)
H33 H 0.2450 0.1792 1.0753
C38 C 0.2079(5) 0.1782(6) 0.9500(4)
H34 H 0.1944 0.1086 0.9793
C39 C 0.1971(4) 0.2374(5) 0.8524(4)
H35 H 0.1753 0.2091 0.8145
C40 C 0.2181(4) 0.3397(5) 0.8078(4)
C41 C -0.0205(4) 0.1813(4) 0.3722(3)
C42 C -0.0537(4) 0.1479(4) 0.3257(3)
C43 C -0.0939(4) 0.1091(4) 0.2686(3)
C44 C -0.2048(4) 0.1302(5) 0.2590(4)
H36 H -0.2546 0.1711 0.2900
C45 C -0.2446(5) 0.0921(6) 0.2043(4)
H37 H -0.3214 0.1090 0.1973
C46 C -0.1750(5) 0.0313(5) 0.1613(4)
H38 H -0.2038 0.0059 0.1247
C47 C -0.0596(4) 0.0048(4) 0.1697(3)
C48 C 0.0156(5) -0.0606(4) 0.1285(4)
H39 H -0.0103 -0.0897 0.0936
C49 C 0.1241(5) -0.0829(5) 0.1376(4)
H40 H 0.1736 -0.1280 0.1095
C50 C 0.1649(5) -0.0408(5) 0.1875(4)
H41 H 0.2415 -0.0565 0.1923
C51 C 0.0952(4) 0.0235(4) 0.2301(3)
H42 H 0.1235 0.0522 0.2638
C52 C -0.0184(4) 0.0463(4) 0.2232(3)
N1 N 0.3222(3) 0.2912(3) 0.2083(3)
N2 N 0.1510(3) 0.3716(3) 0.2364(3)
N3 N 0.2175(3) 0.4431(3) 0.3275(3)
N4 N 0.3885(3) 0.3664(3) 0.2955(3)
O1 O 0.2097(3) 0.1875(3) 0.2445(2)
O2 O 0.3633(3) 0.3598(3) 0.4449(2)
O3 O 0.3758(3) 0.4520(3) 0.0527(3)
O4 O 0.3580(3) 0.5611(3) 0.1283(3)
O5 O 0.0948(3) 0.6564(3) 0.1767(2)
O6 O 0.1269(3) 0.5738(3) 0.0767(2)
O7 O 0.4878(3) -0.0380(3) 0.2926(3)
O8 O 0.6543(3) 0.1450(3) 0.4716(2)
C53 C 0.3455(6) 0.6003(6) 0.4149(5)
H43 H 0.3597 0.5156 0.4516
Cl1 Cl 0.4050(2) 0.62268(17) 0.30730(13)
Cl2 Cl 0.20141(15) 0.68011(15) 0.39032(14)
Cl3 Cl 0.40346(13) 0.64019(14) 0.48435(11)
C54? C 0.333(3) 0.718(3) -0.0262(17)
H44? H 0.3353 0.6751 -0.0628
H45? H 0.3543 0.7834 -0.0647
H46? H 0.2578 0.7470 -0.0099
C55? C 0.412(3) 0.637(3) 0.0645(19)
H47? H 0.4834 0.5909 0.0509
H48? H 0.4253 0.6824 0.0939
C56? C 0.5182(16) 0.9222(18) 0.0374(12)
H49? H 0.5864 0.8556 0.0546
Cl4? Cl 0.4126(7) 0.8819(8) 0.0964(6)
Cl5? Cl 0.4746(7) 0.9863(4) -0.0844(4)
C57? C 0.521(5) 0.997(5) 0.0244(18)
H50? H 0.5681 0.9159 0.0542
Cl6? Cl 0.590(3) 1.067(3) 0.049(2)
Cl7? Cl 0.5075(11) 1.0361(15) -0.0961(9)
loop_
_geom_bond_atom_site_label_1
_geom_bond_atom_site_label_2
_geom_bond_site_symmetry_1
_geom_bond_site_symmetry_2
C1 H1 1_555 1_555
H2 C1 1_555 1_555
H3 C1 1_555 1_555
C2 C3 1_555 1_555
C3 H4 1_555 1_555
C4 C3 1_555 1_555
H5 C4 1_555 1_555
C5 C4 1_555 1_555
C6 C5 1_555 1_555
C7 C2 1_555 1_555
C8 H6 1_555 1_555
H7 C8 1_555 1_555
H8 C8 1_555 1_555
C9 C7 1_555 1_555
H9 C9 1_555 1_555
H10 C9 1_555 1_555
C10 C6 1_555 1_555
H11 C10 1_555 1_555
H12 C10 1_555 1_555
C11 C12 1_555 1_555
C12 O3 1_555 1_555
C13 H13 1_555 1_555
H14 C13 1_555 1_555
C14 C13 1_555 1_555
H15 C14 1_555 1_555
H16 C14 1_555 1_555
H17 C14 1_555 1_555
C15 C11 1_555 1_555
C16 C15 1_555 1_555
C17 H18 1_555 1_555
H19 C17 1_555 1_555
C18 C17 1_555 1_555
H20 C18 1_555 1_555
H21 C18 1_555 1_555
H22 C18 1_555 1_555
C19 N1 1_555 1_555
C20 N3 1_555 1_555
C21 H23 1_555 1_555
H24 C21 1_555 1_555
C22 H25 1_555 1_555
H26 C22 1_555 1_555
C23 C22 1_555 1_555
C24 C21 1_555 1_555
C25 C24 1_555 1_555
C26 C25 1_555 1_555
H27 C26 1_555 1_555
C27 C26 1_555 1_555
H28 C27 1_555 1_555
C28 C23 1_555 1_555
C29 C28 1_555 1_555
C30 C29 1_555 1_555
C31 C30 1_555 1_555
C32 C31 1_555 1_555
H29 C32 1_555 1_555
C33 C32 1_555 1_555
H30 C33 1_555 1_555
C34 C33 1_555 1_555
H31 C34 1_555 1_555
C35 C34 1_555 1_555
C36 C35 1_555 1_555
H32 C36 1_555 1_555
C37 C36 1_555 1_555
H33 C37 1_555 1_555
C38 C37 1_555 1_555
H34 C38 1_555 1_555
C39 C38 1_555 1_555
H35 C39 1_555 1_555
C40 C31 1_555 1_555
C41 C25 1_555 1_555
C42 C41 1_555 1_555
C43 C42 1_555 1_555
C44 C43 1_555 1_555
H36 C44 1_555 1_555
C45 C44 1_555 1_555
H37 C45 1_555 1_555
C46 C45 1_555 1_555
H38 C46 1_555 1_555
C47 C46 1_555 1_555
C48 C47 1_555 1_555
H39 C48 1_555 1_555
C49 C48 1_555 1_555
H40 C49 1_555 1_555
C50 C49 1_555 1_555
H41 C50 1_555 1_555
C51 C50 1_555 1_555
H42 C51 1_555 1_555
C52 C43 1_555 1_555
N1 C9 1_555 1_555
N2 C15 1_555 1_555
N3 C15 1_555 1_555
N4 C10 1_555 1_555
O1 C19 1_555 1_555
O2 C20 1_555 1_555
O4 C12 1_555 1_555
O5 C16 1_555 1_555
O6 C16 1_555 1_555
O7 C1 1_555 1_555
O8 C5 1_555 1_555
C53 H43 1_555 1_555
Cl1 C53 1_555 1_555
Cl2 C53 1_555 1_555
Cl3 C53 1_555 1_555
C2 O7 1_555 1_555
C6 C7 1_555 1_555
C8 O8 1_555 1_555
C11 N1 1_555 1_555
C11 N4 1_555 1_555
C13 O4 1_555 1_555
C17 O6 1_555 1_555
C19 N2 1_555 1_555
C20 N4 1_555 1_555
C21 N2 1_555 1_555
C22 N3 1_555 1_555
C23 C24 1_555 1_555
C27 C28 1_555 1_555
C35 C40 1_555 1_555
C39 C40 1_555 1_555
C47 C52 1_555 1_555
C51 C52 1_555 1_555

#END
