
#######################################################################
#
#                 Cambridge Crystallographic Data Centre
#                                CCDC 
#
#######################################################################
#
# If this CIF has been generated from an entry in the Cambridge 
# Structural Database, then it will include bibliographic, chemical, 
# crystal, experimental, refinement or atomic coordinate data resulting 
# from the CCDC's data processing and validation procedures.
#
#######################################################################

data_COTRIO
_chemical_formula_moiety         'C19 H19 N1 O2'
_chemical_name_systematic        2,3-bis(4-methoxyphenyl)pent-4-enenitrile
_symmetry_cell_setting           monoclinic
_symmetry_space_group_name_H-M   'P 21'
_symmetry_Int_Tables_number      4
_space_group_name_Hall           'P 2yb'
loop_
_symmetry_equiv_pos_site_id
_symmetry_equiv_pos_as_xyz
1 x,y,z
2 -x,1/2+y,-z
_cell_length_a                   5.7333(4)
_cell_length_b                   11.7399(9)
_cell_length_c                   11.8211(9)
_cell_angle_alpha                90
_cell_angle_beta                 101.702(4)
_cell_angle_gamma                90
_cell_volume                     779.122
_exptl_crystal_colour            colorless
_exptl_crystal_description       'Irregular chunk'
_cell_formula_units_Z            2
loop_
_atom_site_label
_atom_site_type_symbol
_atom_site_fract_x
_atom_site_fract_y
_atom_site_fract_z
O1 O 0.4488(2) 0.10487(13) 0.96639(12)
O2 O 0.0214(2) 0.31412(13) -0.04535(13)
N1 N -0.0829(3) 0.34022(18) 0.53972(17)
C1 C 0.5053(4) 0.0072(2) 0.3551(2)
H1 H 0.358(5) -0.036(3) 0.327(3)
H2 H 0.651(5) -0.025(3) 0.330(3)
C2 C 0.5151(4) 0.09183(19) 0.42903(18)
H3 H 0.674(5) 0.133(3) 0.457(3)
C3 C 0.3057(3) 0.13465(17) 0.47619(18)
H4 H 0.165(4) 0.092(2) 0.443(2)
C4 C 0.2588(3) 0.26290(18) 0.44223(18)
H5 H 0.403(4) 0.314(2) 0.475(2)
C5 C 0.0683(3) 0.30672(18) 0.49799(17)
C6 C 0.3439(3) 0.12163(17) 0.60712(18)
C7 C 0.1750(3) 0.06863(16) 0.65791(18)
H6 H 0.032(4) 0.040(2) 0.607(2)
C8 C 0.2013(3) 0.05988(17) 0.77738(18)
H7 H 0.087(5) 0.021(3) 0.801(2)
C9 C 0.4026(3) 0.10626(17) 0.84802(17)
C10 C 0.5753(3) 0.15983(19) 0.79895(18)
H8 H 0.709(4) 0.191(2) 0.848(2)
C11 C 0.5457(4) 0.16763(18) 0.67992(18)
H9 H 0.667(5) 0.209(3) 0.648(3)
C12 C 0.1955(3) 0.28155(16) 0.31256(18)
C13 C -0.0191(3) 0.24017(18) 0.24660(18)
H10 H -0.131(5) 0.201(3) 0.283(2)
C14 C -0.0729(3) 0.25304(19) 0.12837(18)
H11 H -0.223(5) 0.224(3) 0.081(3)
C15 C 0.0893(3) 0.30792(17) 0.07224(18)
C16 C 0.3007(3) 0.35049(17) 0.13644(18)
H12 H 0.416(5) 0.388(3) 0.103(3)
C17 C 0.3524(3) 0.33753(18) 0.25612(18)
H13 H 0.494(4) 0.371(2) 0.295(2)
C18 C 0.2812(4) 0.0474(2) 1.02162(19)
H14 H 0.119(5) 0.078(3) 0.997(2)
H15 H 0.279(4) -0.034(3) 1.005(2)
H16 H 0.338(4) 0.061(2) 1.102(3)
C19 C 0.1745(4) 0.3743(2) -0.1065(2)
H17 H 0.189(5) 0.461(3) -0.083(2)
H18 H 0.326(5) 0.345(3) -0.094(3)
H19 H 0.098(5) 0.369(3) -0.186(3)
loop_
_geom_bond_atom_site_label_1
_geom_bond_atom_site_label_2
_geom_bond_site_symmetry_1
_geom_bond_site_symmetry_2
O1 C9 1_555 1_555
O2 C15 1_555 1_555
N1 C5 1_555 1_555
C1 H1 1_555 1_555
H2 C1 1_555 1_555
C2 C1 1_555 1_555
H3 C2 1_555 1_555
C3 C2 1_555 1_555
H4 C3 1_555 1_555
C4 C3 1_555 1_555
H5 C4 1_555 1_555
C5 C4 1_555 1_555
C6 C3 1_555 1_555
C7 C6 1_555 1_555
H6 C7 1_555 1_555
C8 C7 1_555 1_555
H7 C8 1_555 1_555
C9 C8 1_555 1_555
C10 C9 1_555 1_555
H8 C10 1_555 1_555
C11 C6 1_555 1_555
H9 C11 1_555 1_555
C12 C4 1_555 1_555
C13 C12 1_555 1_555
H10 C13 1_555 1_555
C14 C13 1_555 1_555
H11 C14 1_555 1_555
C15 C14 1_555 1_555
C16 C15 1_555 1_555
H12 C16 1_555 1_555
C17 C12 1_555 1_555
H13 C17 1_555 1_555
C18 O1 1_555 1_555
H14 C18 1_555 1_555
H15 C18 1_555 1_555
H16 C18 1_555 1_555
C19 O2 1_555 1_555
H17 C19 1_555 1_555
H18 C19 1_555 1_555
H19 C19 1_555 1_555
C10 C11 1_555 1_555
C16 C17 1_555 1_555

#END
