
#######################################################################
#
#                 Cambridge Crystallographic Data Centre
#                                CCDC 
#
#######################################################################
#
# If this CIF has been generated from an entry in the Cambridge 
# Structural Database, then it will include bibliographic, chemical, 
# crystal, experimental, refinement or atomic coordinate data resulting 
# from the CCDC's data processing and validation procedures.
#
#######################################################################

data_COTZES
_chemical_formula_moiety         'C15 H13 N1 O5 S1'
_chemical_name_systematic        
'Methyl 4-phenyl-3,4-dihydro-1,2,3-benzoxathiazine-4-carboxylate 2,2-dioxide'
_symmetry_cell_setting           trigonal
_symmetry_space_group_name_H-M   'P 32'
_symmetry_Int_Tables_number      145
_space_group_name_Hall           'P 32'
loop_
_symmetry_equiv_pos_site_id
_symmetry_equiv_pos_as_xyz
1 x,y,z
2 -y,x-y,2/3+z
3 -x+y,-x,1/3+z
_cell_length_a                   10.3879(15)
_cell_length_b                   10.3879(15)
_cell_length_c                   24.218(5)
_cell_angle_alpha                90
_cell_angle_beta                 90
_cell_angle_gamma                120
_cell_volume                     2263.21
_exptl_crystal_colour            colorless
_exptl_crystal_description       block
_cell_formula_units_Z            6
loop_
_atom_site_label
_atom_site_type_symbol
_atom_site_fract_x
_atom_site_fract_y
_atom_site_fract_z
S1 S 0.48403(6) 0.94951(6) 0.20751(2)
O1 O 0.4941(2) 1.0759(2) 0.23334(9)
O2 O 0.5690(2) 0.9650(2) 0.16007(9)
O3 O 0.5275(2) 0.8687(2) 0.25317(8)
O4 O 0.2767(2) 0.7784(2) 0.08543(8)
O5 O 0.3708(3) 0.6294(2) 0.09441(7)
N1 N 0.3112(2) 0.8271(2) 0.19968(8)
H1 H 0.2415 0.8447 0.2088
C1 C 0.2792(2) 0.6842(2) 0.17611(9)
C2 C 0.3716(2) 0.6297(3) 0.20677(8)
C3 C 0.3414(3) 0.4839(3) 0.20125(10)
H2 H 0.2653 0.4203 0.1777
C4 C 0.4199(4) 0.4303(3) 0.22922(11)
H3 H 0.3971 0.3323 0.2245
C5 C 0.5330(4) 0.5235(4) 0.26431(12)
H4 H 0.5864 0.4879 0.2834
C6 C 0.5671(3) 0.6677(4) 0.27118(12)
H5 H 0.6429 0.7300 0.2951
C7 C 0.4876(3) 0.7202(3) 0.24224(9)
C8 C 0.1131(2) 0.5757(2) 0.18562(10)
C9 C 0.0472(3) 0.5858(3) 0.23389(10)
H6 H 0.1028 0.6610 0.2591
C10 C -0.0999(4) 0.4854(4) 0.24496(14)
H7 H -0.1431 0.4940 0.2773
C11 C -0.1821(4) 0.3738(4) 0.20881(18)
H8 H -0.2812 0.3063 0.2165
C12 C -0.1197(4) 0.3611(3) 0.16157(17)
H9 H -0.1762 0.2841 0.1371
C13 C 0.0278(3) 0.4616(3) 0.14912(13)
H10 H 0.0693 0.4524 0.1164
C14 C 0.3098(3) 0.7045(2) 0.11304(10)
C15 C 0.4022(5) 0.6401(5) 0.03557(12)
H11 H 0.4467 0.5810 0.0266
H12 H 0.4693 0.7419 0.0260
H13 H 0.3112 0.6044 0.0153
S2 S 0.28290(6) 0.15071(6) 0.06339(2)
O6 O 0.2981(2) 0.2361(2) 0.11074(9)
O7 O 0.4092(2) 0.1607(2) 0.03746(9)
O8 O 0.2018(2) 0.19407(19) 0.01770(8)
O9 O 0.1118(2) -0.0566(2) 0.18547(8)
O10 O -0.0372(2) 0.0378(3) 0.17645(7)
N2 N 0.16062(19) -0.0222(2) 0.07128(8)
H14 H 0.1783 -0.0920 0.0623
C16 C 0.0173(2) -0.0540(2) 0.09465(9)
C17 C -0.0370(3) 0.0384(2) 0.06393(9)
C18 C -0.1827(3) 0.0080(3) 0.06965(10)
H15 H -0.2461 -0.0681 0.0932
C19 C -0.2364(3) 0.0866(4) 0.04166(11)
H16 H -0.3344 0.0637 0.0464
C20 C -0.1436(4) 0.1994(4) 0.00667(12)
H17 H -0.1794 0.2528 -0.0124
C21 C 0.0010(4) 0.2339(3) -0.00027(12)
H18 H 0.0632 0.3099 -0.0241
C22 C 0.0539(3) 0.1543(3) 0.02867(10)
C23 C -0.0911(2) -0.2203(2) 0.08523(10)
C24 C -0.0811(3) -0.2861(3) 0.03692(11)
H19 H -0.0062 -0.2305 0.0116
C25 C -0.1812(4) -0.4334(4) 0.02605(14)
H20 H -0.1725 -0.4769 -0.0062
C26 C -0.2925(4) -0.5153(4) 0.06228(18)
H21 H -0.3599 -0.6144 0.0546
C27 C -0.3056(3) -0.4532(4) 0.10946(17)
H22 H -0.3828 -0.5096 0.1338
C28 C -0.2049(3) -0.3059(3) 0.12174(13)
H23 H -0.2138 -0.2645 0.1546
C29 C 0.0376(2) -0.0236(3) 0.15783(10)
C30 C -0.0264(5) 0.0692(5) 0.23529(12)
H24 H -0.0856 0.1136 0.2443
H25 H 0.0754 0.1364 0.2449
H26 H -0.0619 -0.0217 0.2556
loop_
_geom_bond_atom_site_label_1
_geom_bond_atom_site_label_2
_geom_bond_site_symmetry_1
_geom_bond_site_symmetry_2
S1 O1 1_555 1_555
O2 S1 1_555 1_555
O3 S1 1_555 1_555
O4 C14 1_555 1_555
O5 C14 1_555 1_555
N1 S1 1_555 1_555
H1 N1 1_555 1_555
C1 N1 1_555 1_555
C2 C1 1_555 1_555
C3 C2 1_555 1_555
H2 C3 1_555 1_555
C4 C3 1_555 1_555
H3 C4 1_555 1_555
C5 C4 1_555 1_555
H4 C5 1_555 1_555
C6 C5 1_555 1_555
H5 C6 1_555 1_555
C7 O3 1_555 1_555
C8 C1 1_555 1_555
C9 C8 1_555 1_555
H6 C9 1_555 1_555
C10 C9 1_555 1_555
H7 C10 1_555 1_555
C11 C10 1_555 1_555
H8 C11 1_555 1_555
C12 C11 1_555 1_555
H9 C12 1_555 1_555
C13 C8 1_555 1_555
H10 C13 1_555 1_555
C14 C1 1_555 1_555
C15 O5 1_555 1_555
H11 C15 1_555 1_555
H12 C15 1_555 1_555
H13 C15 1_555 1_555
S2 O6 1_555 1_555
O7 S2 1_555 1_555
O8 S2 1_555 1_555
O9 C29 1_555 1_555
O10 C29 1_555 1_555
N2 S2 1_555 1_555
H14 N2 1_555 1_555
C16 N2 1_555 1_555
C17 C16 1_555 1_555
C18 C17 1_555 1_555
H15 C18 1_555 1_555
C19 C18 1_555 1_555
H16 C19 1_555 1_555
C20 C19 1_555 1_555
H17 C20 1_555 1_555
C21 C20 1_555 1_555
H18 C21 1_555 1_555
C22 O8 1_555 1_555
C23 C16 1_555 1_555
C24 C23 1_555 1_555
H19 C24 1_555 1_555
C25 C24 1_555 1_555
H20 C25 1_555 1_555
C26 C25 1_555 1_555
H21 C26 1_555 1_555
C27 C26 1_555 1_555
H22 C27 1_555 1_555
C28 C23 1_555 1_555
H23 C28 1_555 1_555
C29 C16 1_555 1_555
C30 O10 1_555 1_555
H24 C30 1_555 1_555
H25 C30 1_555 1_555
H26 C30 1_555 1_555
C2 C7 1_555 1_555
C6 C7 1_555 1_555
C12 C13 1_555 1_555
C17 C22 1_555 1_555
C21 C22 1_555 1_555
C27 C28 1_555 1_555

#END
