
#######################################################################
#
#                 Cambridge Crystallographic Data Centre
#                                CCDC 
#
#######################################################################
#
# If this CIF has been generated from an entry in the Cambridge 
# Structural Database, then it will include bibliographic, chemical, 
# crystal, experimental, refinement or atomic coordinate data resulting 
# from the CCDC's data processing and validation procedures.
#
#######################################################################

data_COVCOG
_chemical_name_common            
"5,5'-bis(5'-bromo-2,2'-bithien-5-yl)-4,4'-di-n-nonyl-2,2'-bithiazole methanol solvate"
_chemical_formula_moiety         'C40 H46 Br2 N2 S6,C1 H4 O1'
_chemical_name_systematic        
"5,5'-bis(5'-bromo-2,2'-bithiophen-5-yl)-4,4'-dinonyl-2,2'-bi-1,3-thiazole methanol solvate"
_symmetry_cell_setting           monoclinic
_symmetry_space_group_name_H-M   'P 2/c'
_symmetry_Int_Tables_number      13
_space_group_name_Hall           '-P 2yc'
loop_
_symmetry_equiv_pos_site_id
_symmetry_equiv_pos_as_xyz
1 x,y,z
2 -x,y,1/2-z
3 -x,-y,-z
4 x,-y,1/2+z
_cell_length_a                   14.6527(14)
_cell_length_b                   4.1102(4)
_cell_length_c                   37.163(4)
_cell_angle_alpha                90
_cell_angle_beta                 92.642(2)
_cell_angle_gamma                90
_cell_volume                     2235.78
_exptl_crystal_colour            red
_exptl_crystal_description       plate
_cell_formula_units_Z            2
loop_
_atom_site_label
_atom_site_type_symbol
_atom_site_fract_x
_atom_site_fract_y
_atom_site_fract_z
Br1 Br 0.25430(3) 0.35290(15) 0.603618(17)
C2 C 0.9670(2) 1.4221(8) 0.51106(8)
C3 C 0.9066(2) 1.2152(8) 0.55930(8)
C4 C 0.8335(2) 1.1688(8) 0.53515(8)
C5 C 0.9094(2) 1.1184(9) 0.59823(8)
H1 H 0.8734 0.9223 0.6007
H2 H 0.8810 1.2888 0.6119
C6 C 1.0050(2) 1.0573(9) 0.61453(8)
H3 H 1.0413 1.2533 0.6125
H4 H 1.0339 0.8865 0.6011
C7 C 1.0032(2) 0.9582(9) 0.65400(8)
H5 H 0.9747 1.1317 0.6672
H6 H 0.9650 0.7666 0.6557
C8 C 1.0957(2) 0.8856(9) 0.67211(8)
H7 H 1.1338 1.0776 0.6707
H8 H 1.1244 0.7127 0.6590
C9 C 1.0917(2) 0.7850(9) 0.71142(9)
H9 H 1.0640 0.9597 0.7247
H10 H 1.0526 0.5956 0.7129
C10 C 1.1838(2) 0.7062(10) 0.72934(9)
H11 H 1.2234 0.8944 0.7277
H12 H 1.2113 0.5290 0.7164
C11 C 1.1780(3) 0.6100(10) 0.76898(9)
H13 H 1.1508 0.7885 0.7818
H14 H 1.1375 0.4242 0.7704
C12 C 1.2689(3) 0.5250(11) 0.78787(10)
H15 H 1.2963 0.3468 0.7751
H16 H 1.3094 0.7109 0.7865
C13 C 1.2623(4) 0.4293(13) 0.82697(11)
H17 H 1.3222 0.3788 0.8371
H18 H 1.2236 0.2418 0.8286
H19 H 1.2370 0.6064 0.8401
C14 C 0.7439(2) 1.0302(8) 0.53940(8)
C15 C 0.6837(2) 0.9247(10) 0.51337(10)
H20 H 0.6966 0.9247 0.4891
C16 C 0.5998(3) 0.8149(11) 0.52582(10)
H21 H 0.5525 0.7366 0.5107
C17 C 0.5949(2) 0.8344(9) 0.56194(9)
C18 C 0.5200(2) 0.7397(9) 0.58422(10)
C19 C 0.5102(3) 0.7670(13) 0.61983(11)
H22 H 0.5550 0.8515 0.6357
C20 C 0.4237(3) 0.6522(15) 0.63068(12)
H23 H 0.4054 0.6593 0.6543
C21 C 0.3720(3) 0.5338(11) 0.60327(12)
N1 N 0.98096(18) 1.3585(7) 0.54513(7)
S1 S 0.86081(6) 1.3121(2) 0.49311(2)
S2 S 0.69481(6) 0.9940(3) 0.58088(2)
S3 S 0.42376(7) 0.5664(3) 0.56347(3)
Br1B Br 1.74570(3) 2.64710(15) 0.396382(17)
C2B C 1.0330(2) 1.5779(8) 0.48894(8)
C3B C 1.0934(2) 1.7848(8) 0.44070(8)
C4B C 1.1665(2) 1.8312(8) 0.46485(8)
C5B C 1.0906(2) 1.8816(9) 0.40177(8)
H1B H 1.1266 2.0777 0.3993
H2B H 1.1190 1.7112 0.3881
C6B C 0.9950(2) 1.9427(9) 0.38547(8)
H3B H 0.9587 1.7467 0.3875
H4B H 0.9661 2.1135 0.3989
C7B C 0.9968(2) 2.0418(9) 0.34600(8)
H5B H 1.0253 1.8683 0.3328
H6B H 1.0350 2.2334 0.3443
C8B C 0.9043(2) 2.1144(9) 0.32789(8)
H7B H 0.8662 1.9224 0.3293
H8B H 0.8756 2.2873 0.3410
C9B C 0.9083(2) 2.2150(9) 0.28858(9)
H9B H 0.9360 2.0403 0.2753
H10B H 0.9474 2.4044 0.2871
C10B C 0.8162(2) 2.2938(10) 0.27066(9)
H11B H 0.7766 2.1056 0.2723
H12B H 0.7887 2.4710 0.2836
C11B C 0.8220(3) 2.3900(10) 0.23102(9)
H13B H 0.8492 2.2115 0.2182
H14B H 0.8625 2.5758 0.2296
C12B C 0.7311(3) 2.4750(11) 0.21213(10)
H15B H 0.7037 2.6532 0.2249
H16B H 0.6906 2.2891 0.2135
C13B C 0.7377(4) 2.5707(13) 0.17303(11)
H17B H 0.6778 2.6212 0.1629
H18B H 0.7764 2.7582 0.1714
H19B H 0.7630 2.3936 0.1599
C14B C 1.2561(2) 1.9698(8) 0.46060(8)
C15B C 1.3163(2) 2.0753(10) 0.48663(10)
H20B H 1.3034 2.0753 0.5109
C16B C 1.4002(3) 2.1851(11) 0.47418(10)
H21B H 1.4475 2.2634 0.4893
C17B C 1.4051(2) 2.1656(9) 0.43806(9)
C18B C 1.4800(2) 2.2603(9) 0.41578(10)
C19B C 1.4898(3) 2.2330(13) 0.38017(11)
H22B H 1.4450 2.1485 0.3643
C20B C 1.5763(3) 2.3478(15) 0.36932(12)
H23B H 1.5946 2.3407 0.3457
C21B C 1.6280(3) 2.4662(11) 0.39673(12)
N1B N 1.01904(18) 1.6415(7) 0.45487(7)
S1B S 1.13919(6) 1.6879(2) 0.50689(2)
S2B S 1.30519(6) 2.0060(3) 0.41912(2)
S3B S 1.57624(7) 2.4336(3) 0.43653(3)
C1 C 0.5000 0.796(5) 0.7500
O1 O 0.4766(10) 0.482(6) 0.7282(4)
O1A O 0.5234(10) 0.482(6) 0.7718(4)
loop_
_geom_bond_atom_site_label_1
_geom_bond_atom_site_label_2
_geom_bond_site_symmetry_1
_geom_bond_site_symmetry_2
C1 O1 1_555 1_555
O1 O1A 1_555 1_555
Br1 C21 1_555 1_555
C2 N1 1_555 1_555
C3 C4 1_555 1_555
C4 C14 1_555 1_555
C5 C3 1_555 1_555
H1 C5 1_555 1_555
H2 C5 1_555 1_555
C6 C5 1_555 1_555
H3 C6 1_555 1_555
H4 C6 1_555 1_555
C7 C6 1_555 1_555
H5 C7 1_555 1_555
H6 C7 1_555 1_555
C8 C7 1_555 1_555
H7 C8 1_555 1_555
H8 C8 1_555 1_555
C9 C8 1_555 1_555
H9 C9 1_555 1_555
H10 C9 1_555 1_555
C10 C9 1_555 1_555
H11 C10 1_555 1_555
H12 C10 1_555 1_555
C11 C10 1_555 1_555
H13 C11 1_555 1_555
H14 C11 1_555 1_555
C12 C11 1_555 1_555
H15 C12 1_555 1_555
H16 C12 1_555 1_555
C13 C12 1_555 1_555
H17 C13 1_555 1_555
H18 C13 1_555 1_555
H19 C13 1_555 1_555
C14 C15 1_555 1_555
C15 H20 1_555 1_555
C16 C15 1_555 1_555
H21 C16 1_555 1_555
C17 C16 1_555 1_555
C18 C17 1_555 1_555
C19 C18 1_555 1_555
H22 C19 1_555 1_555
C20 C19 1_555 1_555
H23 C20 1_555 1_555
C21 C20 1_555 1_555
N1 C3 1_555 1_555
S1 C2 1_555 1_555
S2 C14 1_555 1_555
S3 C18 1_555 1_555
O1A C1 1_555 1_555
Br1B C21B 1_555 1_555
C2B C2 1_555 1_555
C3B C4B 1_555 1_555
C4B C14B 1_555 1_555
C5B C3B 1_555 1_555
H1B C5B 1_555 1_555
H2B C5B 1_555 1_555
C6B C5B 1_555 1_555
H3B C6B 1_555 1_555
H4B C6B 1_555 1_555
C7B C6B 1_555 1_555
H5B C7B 1_555 1_555
H6B C7B 1_555 1_555
C8B C7B 1_555 1_555
H7B C8B 1_555 1_555
H8B C8B 1_555 1_555
C9B C8B 1_555 1_555
H9B C9B 1_555 1_555
H10B C9B 1_555 1_555
C10B C9B 1_555 1_555
H11B C10B 1_555 1_555
H12B C10B 1_555 1_555
C11B C10B 1_555 1_555
H13B C11B 1_555 1_555
H14B C11B 1_555 1_555
C12B C11B 1_555 1_555
H15B C12B 1_555 1_555
H16B C12B 1_555 1_555
C13B C12B 1_555 1_555
H17B C13B 1_555 1_555
H18B C13B 1_555 1_555
H19B C13B 1_555 1_555
C14B C15B 1_555 1_555
C15B H20B 1_555 1_555
C16B C15B 1_555 1_555
H21B C16B 1_555 1_555
C17B C16B 1_555 1_555
C18B C17B 1_555 1_555
C19B C18B 1_555 1_555
H22B C19B 1_555 1_555
C20B C19B 1_555 1_555
H23B C20B 1_555 1_555
C21B C20B 1_555 1_555
N1B C2B 1_555 1_555
S1B C2B 1_555 1_555
S2B C14B 1_555 1_555
S3B C18B 1_555 1_555
C4 S1 1_555 1_555
C17 S2 1_555 1_555
C21 S3 1_555 1_555
C3B N1B 1_555 1_555
C4B S1B 1_555 1_555
C17B S2B 1_555 1_555
C21B S3B 1_555 1_555

#END
