
#######################################################################
#
#                 Cambridge Crystallographic Data Centre
#                                CCDC 
#
#######################################################################
#
# If this CIF has been generated from an entry in the Cambridge 
# Structural Database, then it will include bibliographic, chemical, 
# crystal, experimental, refinement or atomic coordinate data resulting 
# from the CCDC's data processing and validation procedures.
#
#######################################################################

data_COVDOH
_chemical_formula_moiety         'C26 H42 Li2 N4'
_chemical_name_systematic        
(\m~2~-2,2'-ethene-1,2-diyldiphenyl-C,C,C',C')-bis(1,2-bis(dimethylamino)ethane-N,N')-di-lithium
_symmetry_cell_setting           monoclinic
_symmetry_space_group_name_H-M   'P 21/m'
_symmetry_Int_Tables_number      11
_space_group_name_Hall           '-P 2yb'
loop_
_symmetry_equiv_pos_site_id
_symmetry_equiv_pos_as_xyz
1 x,y,z
2 -x,1/2+y,-z
3 -x,-y,-z
4 x,1/2-y,z
_cell_length_a                   9.628(3)
_cell_length_b                   12.277(3)
_cell_length_c                   12.009(3)
_cell_angle_alpha                90
_cell_angle_beta                 92.147(4)
_cell_angle_gamma                90
_cell_volume                     1418.5
_exptl_crystal_colour            yellow
_chemical_melting_point          '45-46 deg.C'
_cell_formula_units_Z            2
loop_
_atom_site_label
_atom_site_type_symbol
_atom_site_fract_x
_atom_site_fract_y
_atom_site_fract_z
Li1 Li 0.6454(5) 0.2500 0.6586(5)
Li2 Li 0.7734(6) 0.2500 0.8463(4)
N1 N 0.6183(3) 0.2500 0.4765(3)
N2 N 0.4214(3) 0.2500 0.6546(4)
N3 N 0.9664(4) 0.2500 0.9483(3)
N4 N 0.6718(5) 0.2500 1.0117(3)
C1 C 0.7587(3) 0.11455(18) 0.7320(2)
C2 C 0.7075(3) 0.0145(2) 0.7696(2)
H1 H 0.6264 0.0154 0.8093
C3 C 0.7691(5) -0.0851(3) 0.7517(3)
H2 H 0.7304 -0.1484 0.7796
C4 C 0.8870(5) -0.0896(3) 0.6929(3)
H3 H 0.9301 -0.1562 0.6806
C5 C 0.9409(3) 0.0028(3) 0.6526(2)
H4 H 1.0201 -0.0013 0.6108
C6 C 0.8817(2) 0.10452(18) 0.67126(19)
C7 C 0.9557(2) 0.19542(19) 0.6215(2)
H5 H 1.0240 0.1693 0.5757
C8 C 0.373(2) 0.2500 0.5338(14)
C9 C 0.4622(18) 0.2500 0.453(2)
H6 H 0.4288 0.3244 0.4473
C10 C 0.6760(5) 0.1534(3) 0.4260(3)
H7 H 0.6618 0.1571 0.3465
H8 H 0.6307 0.0898 0.4537
H9 H 0.7738 0.1494 0.4443
C11 C 0.3685(4) 0.1535(3) 0.7088(4)
H10 H 0.2688 0.1553 0.7060
H11 H 0.4020 0.1519 0.7851
H12 H 0.3998 0.0896 0.6711
C12 C 0.9254(18) 0.2500 1.0652(12)
H13 H 0.9237 0.3243 1.0925
C13 C 0.794(3) 0.2500 1.096(2)
H14 H 0.8202 0.3244 1.1145
C14 C 0.5911(7) 0.1544(5) 1.0298(4)
H15 H 0.5496 0.1592 1.1011
H16 H 0.6500 0.0914 1.0281
H17 H 0.5194 0.1485 0.9724
C15 C 1.0489(5) 0.1531(3) 0.9282(4)
H18 H 1.1328 0.1554 0.9740
H19 H 1.0720 0.1506 0.8511
H20 H 0.9965 0.0894 0.9461
C1C C 0.7587(3) 0.38545(18) 0.7320(2)
C2C C 0.7075(3) 0.4855(2) 0.7696(2)
H1C H 0.6264 0.4846 0.8093
C3C C 0.7691(5) 0.5851(3) 0.7517(3)
H2C H 0.7304 0.6484 0.7796
C4C C 0.8870(5) 0.5896(3) 0.6929(3)
H3C H 0.9301 0.6562 0.6806
C5C C 0.9409(3) 0.4972(3) 0.6526(2)
H4C H 1.0201 0.5013 0.6108
C6C C 0.8817(2) 0.39548(18) 0.67126(19)
C7C C 0.9557(2) 0.30458(19) 0.6215(2)
H5C H 1.0240 0.3307 0.5757
H6C H 0.4288 0.1756 0.4473
C10C C 0.6760(5) 0.3466(3) 0.4260(3)
H7C H 0.6618 0.3429 0.3465
H8C H 0.6307 0.4102 0.4537
H9C H 0.7738 0.3506 0.4443
C11C C 0.3685(4) 0.3465(3) 0.7088(4)
H10C H 0.2688 0.3447 0.7060
H11C H 0.4020 0.3481 0.7851
H12C H 0.3998 0.4104 0.6711
H13C H 0.9237 0.1757 1.0925
H14C H 0.8202 0.1756 1.1145
C14C C 0.5911(7) 0.3456(5) 1.0298(4)
H15C H 0.5496 0.3408 1.1011
H16C H 0.6500 0.4086 1.0281
H17C H 0.5194 0.3515 0.9724
C15C C 1.0489(5) 0.3469(3) 0.9282(4)
H18C H 1.1328 0.3446 0.9740
H19C H 1.0720 0.3494 0.8511
H20C H 0.9965 0.4106 0.9461
C16? C 0.4762(18) 0.196(3) 0.469(2)
H21? H 0.4437 0.1940 0.3917
H22? H 0.4855 0.1211 0.4947
H23? H 0.2850 0.2125 0.5251
H24? H 0.3609 0.3243 0.5078
H25? H 0.4407 0.2135 0.3831
C17? C 0.393(3) 0.194(3) 0.5436(16)
H26? H 0.4248 0.1191 0.5482
H27? H 0.2931 0.1927 0.5272
H28? H 0.9939 0.2100 1.1102
C18? C 0.7869(18) 0.200(3) 1.077(2)
H29? H 0.7646 0.2027 1.1555
H30? H 0.7927 0.1238 1.0567
C19? C 0.914(3) 0.193(4) 1.049(3)
H31? H 0.9887 0.1884 1.1059
H32? H 0.8869 0.1191 1.0294
H33? H 0.7677 0.2140 1.1640
loop_
_geom_bond_atom_site_label_1
_geom_bond_atom_site_label_2
_geom_bond_site_symmetry_1
_geom_bond_site_symmetry_2
Li1 N1 1_555 1_555
Li2 N3 1_555 1_555
N1 C9 1_555 1_555
N2 Li1 1_555 1_555
N3 C12 1_555 1_555
N4 Li2 1_555 1_555
C1 Li1 1_555 1_555
C2 C1 1_555 1_555
H1 C2 1_555 1_555
C3 C2 1_555 1_555
H2 C3 1_555 1_555
C4 C3 1_555 1_555
H3 C4 1_555 1_555
C5 C4 1_555 1_555
H4 C5 1_555 1_555
C6 C1 1_555 1_555
C7 C6 1_555 1_555
H5 C7 1_555 1_555
C8 N2 1_555 1_555
C9 C8 1_555 1_555
H6 C9 1_555 1_555
C10 N1 1_555 1_555
H7 C10 1_555 1_555
H8 C10 1_555 1_555
H9 C10 1_555 1_555
C11 N2 1_555 1_555
H10 C11 1_555 1_555
H11 C11 1_555 1_555
H12 C11 1_555 1_555
C12 H13 1_555 1_555
C13 N4 1_555 1_555
H14 C13 1_555 1_555
C14 N4 1_555 1_555
H15 C14 1_555 1_555
H16 C14 1_555 1_555
H17 C14 1_555 1_555
C15 N3 1_555 1_555
H18 C15 1_555 1_555
H19 C15 1_555 1_555
H20 C15 1_555 1_555
C1C Li1 1_555 1_555
C2C C1C 1_555 1_555
H1C C2C 1_555 1_555
C3C C2C 1_555 1_555
H2C C3C 1_555 1_555
C4C C3C 1_555 1_555
H3C C4C 1_555 1_555
C5C C4C 1_555 1_555
H4C C5C 1_555 1_555
C6C C1C 1_555 1_555
C7C C7 1_555 1_555
H5C C7C 1_555 1_555
H6C C9 1_555 1_555
C10C N1 1_555 1_555
H7C C10C 1_555 1_555
H8C C10C 1_555 1_555
H9C C10C 1_555 1_555
C11C N2 1_555 1_555
H10C C11C 1_555 1_555
H11C C11C 1_555 1_555
H12C C11C 1_555 1_555
H13C C12 1_555 1_555
H14C C13 1_555 1_555
C14C N4 1_555 1_555
H15C C14C 1_555 1_555
H16C C14C 1_555 1_555
H17C C14C 1_555 1_555
C15C N3 1_555 1_555
H18C C15C 1_555 1_555
H19C C15C 1_555 1_555
H20C C15C 1_555 1_555
Li2 C1 1_555 1_555
Li2 C1C 1_555 1_555
C5 C6 1_555 1_555
C12 C13 1_555 1_555
C5C C6C 1_555 1_555
C6C C7C 1_555 1_555

#END
