
#######################################################################
#
#                 Cambridge Crystallographic Data Centre
#                                CCDC 
#
#######################################################################
#
# If this CIF has been generated from an entry in the Cambridge 
# Structural Database, then it will include bibliographic, chemical, 
# crystal, experimental, refinement or atomic coordinate data resulting 
# from the CCDC's data processing and validation procedures.
#
#######################################################################

data_COVDAT
_chemical_formula_moiety         'C23 H21 N1 O1 S1'
_chemical_name_systematic        
(3S)-1-methyl-3-(3-methylthiophen-2-yl)-3-((1R)-1-phenylallyl)indolin-2-one
_symmetry_cell_setting           orthorhombic
_symmetry_space_group_name_H-M   'P 21 21 21'
_symmetry_Int_Tables_number      19
_space_group_name_Hall           'P 2ac 2ab'
loop_
_symmetry_equiv_pos_site_id
_symmetry_equiv_pos_as_xyz
1 x,y,z
2 1/2-x,-y,1/2+z
3 -x,1/2+y,1/2-z
4 1/2+x,1/2-y,-z
_cell_length_a                   8.4847(4)
_cell_length_b                   13.9643(7)
_cell_length_c                   16.1353(8)
_cell_angle_alpha                90
_cell_angle_beta                 90
_cell_angle_gamma                90
_cell_volume                     1911.76
_exptl_crystal_colour            colorless
_exptl_crystal_description       block
_cell_formula_units_Z            4
loop_
_atom_site_label
_atom_site_type_symbol
_atom_site_fract_x
_atom_site_fract_y
_atom_site_fract_z
S1 S 0.40565(4) 0.42885(2) 0.41412(2)
O1 O 0.35808(12) 0.56377(7) 0.67258(6)
N1 N 0.62559(14) 0.58646(7) 0.67531(7)
C1 C 0.6337(3) 0.63797(12) 0.75304(10)
H1 H 0.5268 0.6496 0.7737
H2 H 0.6874 0.6993 0.7444
H3 H 0.6925 0.5999 0.7936
C2 C 0.48822(15) 0.55187(8) 0.64282(7)
C3 C 0.53069(13) 0.48956(8) 0.56668(7)
C4 C 0.70583(14) 0.50861(9) 0.55850(8)
C5 C 0.81236(17) 0.47937(12) 0.49924(10)
H4 H 0.7788 0.4446 0.4518
C6 C 0.97213(17) 0.50238(14) 0.51095(13)
H5 H 1.0478 0.4830 0.4709
C7 C 1.01963(17) 0.55247(14) 0.57961(14)
H6 H 1.1286 0.5657 0.5868
C8 C 0.91358(18) 0.58440(12) 0.63885(12)
H7 H 0.9473 0.6198 0.6859
C9 C 0.75543(15) 0.56222(10) 0.62630(8)
C10 C 0.2646(3) 0.27978(13) 0.57862(12)
H8 H 0.3250 0.2341 0.5486
H9 H 0.1557 0.2687 0.5885
C11 C 0.33176(18) 0.35836(11) 0.60649(10)
H10 H 0.2687 0.4028 0.6363
C12 C 0.50450(14) 0.38161(8) 0.59351(8)
H11 H 0.5423 0.3407 0.5467
C13 C 0.60321(15) 0.35559(8) 0.66896(7)
C14 C 0.74674(19) 0.30986(13) 0.65859(9)
H12 H 0.7809 0.2932 0.6044
C15 C 0.8415(2) 0.28795(16) 0.72618(11)
H13 H 0.9401 0.2571 0.7179
C16 C 0.7931(2) 0.31084(13) 0.80514(11)
H14 H 0.8579 0.2960 0.8514
C17 C 0.6493(2) 0.35564(11) 0.81657(9)
H15 H 0.6154 0.3718 0.8709
C18 C 0.55472(18) 0.37696(9) 0.74904(8)
H16 H 0.4553 0.4066 0.7577
C19 C 0.44074(13) 0.51514(8) 0.48887(7)
C20 C 0.39339(15) 0.60388(9) 0.46155(8)
C21 C 0.32548(18) 0.59906(11) 0.38041(9)
H17 H 0.2837 0.6533 0.3525
C22 C 0.32618(18) 0.51000(12) 0.34708(8)
H18 H 0.2875 0.4948 0.2934
C23 C 0.4113(2) 0.69617(10) 0.50755(10)
H19 H 0.5218 0.7047 0.5236
H20 H 0.3451 0.6949 0.5573
H21 H 0.3786 0.7494 0.4719
loop_
_geom_bond_atom_site_label_1
_geom_bond_atom_site_label_2
_geom_bond_site_symmetry_1
_geom_bond_site_symmetry_2
S1 C19 1_555 1_555
O1 C2 1_555 1_555
N1 C1 1_555 1_555
C1 H1 1_555 1_555
H2 C1 1_555 1_555
H3 C1 1_555 1_555
C2 N1 1_555 1_555
C3 C2 1_555 1_555
C4 C3 1_555 1_555
C5 C4 1_555 1_555
H4 C5 1_555 1_555
C6 C5 1_555 1_555
H5 C6 1_555 1_555
C7 C6 1_555 1_555
H6 C7 1_555 1_555
C8 C7 1_555 1_555
H7 C8 1_555 1_555
C9 N1 1_555 1_555
C10 H8 1_555 1_555
H9 C10 1_555 1_555
C11 C10 1_555 1_555
H10 C11 1_555 1_555
C12 C3 1_555 1_555
H11 C12 1_555 1_555
C13 C12 1_555 1_555
C14 C13 1_555 1_555
H12 C14 1_555 1_555
C15 C14 1_555 1_555
H13 C15 1_555 1_555
C16 C15 1_555 1_555
H14 C16 1_555 1_555
C17 C16 1_555 1_555
H15 C17 1_555 1_555
C18 C13 1_555 1_555
H16 C18 1_555 1_555
C19 C3 1_555 1_555
C20 C19 1_555 1_555
C21 C20 1_555 1_555
H17 C21 1_555 1_555
C22 S1 1_555 1_555
H18 C22 1_555 1_555
C23 C20 1_555 1_555
H19 C23 1_555 1_555
H20 C23 1_555 1_555
H21 C23 1_555 1_555
C4 C9 1_555 1_555
C8 C9 1_555 1_555
C11 C12 1_555 1_555
C17 C18 1_555 1_555
C21 C22 1_555 1_555

#END
