
#######################################################################
#
#                 Cambridge Crystallographic Data Centre
#                                CCDC 
#
#######################################################################
#
# If this CIF has been generated from an entry in the Cambridge 
# Structural Database, then it will include bibliographic, chemical, 
# crystal, experimental, refinement or atomic coordinate data resulting 
# from the CCDC's data processing and validation procedures.
#
#######################################################################

data_COVFAW
_chemical_formula_moiety         'C38 H41 N3 O10,C1 H2 Cl2'
_chemical_name_systematic        
'5-t-Butyl-11,17,23-trinitro-25,26-dihydroxy-27,28-di-n-propoxycalix(4)arene dichloromethane solvate'
_symmetry_cell_setting           monoclinic
_symmetry_space_group_name_H-M   'C 2/c'
_symmetry_Int_Tables_number      15
_space_group_name_Hall           '-C 2yn'
loop_
_symmetry_equiv_pos_site_id
_symmetry_equiv_pos_as_xyz
1 x,y,z
2 -x,y,1/2-z
3 1/2+x,1/2+y,z
4 1/2-x,1/2+y,1/2-z
5 -x,-y,-z
6 x,-y,1/2+z
7 1/2-x,1/2-y,-z
8 1/2+x,1/2-y,1/2+z
_cell_length_a                   20.358(2)
_cell_length_b                   16.5073(18)
_cell_length_c                   24.212(4)
_cell_angle_alpha                90
_cell_angle_beta                 111.939(2)
_cell_angle_gamma                90
_cell_volume                     7547.35
_exptl_crystal_colour            colorless
_exptl_crystal_description       block
_chemical_melting_point          '541.15-543.15 K'
_cell_formula_units_Z            8
loop_
_atom_site_label
_atom_site_type_symbol
_atom_site_fract_x
_atom_site_fract_y
_atom_site_fract_z
O1 O 0.39294(7) 0.24352(8) 0.87688(6)
O2 O 0.52688(7) 0.13867(9) 0.90993(6)
O3 O 0.46868(8) 0.09819(9) 1.00228(6)
H1 H 0.4287 0.1205 0.9908
O4 O 0.35525(7) 0.19107(8) 0.95981(6)
H2 H 0.3650 0.2134 0.9326
O5 O 0.73430(10) 0.42483(10) 1.02571(9)
O6 O 0.77635(9) 0.33358(10) 1.09322(8)
O7 O 0.69547(9) 0.14452(12) 1.25646(8)
O8 O 0.60336(9) 0.18620(11) 1.27228(7)
O9 O 0.29555(10) 0.38339(11) 1.15584(8)
O10 O 0.26964(10) 0.47677(11) 1.08881(8)
N1 N 0.73306(10) 0.35673(11) 1.04525(9)
N2 N 0.63191(10) 0.16024(11) 1.23933(8)
N3 N 0.29110(10) 0.40874(12) 1.10697(8)
C1 C 0.40659(11) 0.32697(12) 0.88096(9)
C2 C 0.57542(10) 0.19329(12) 0.94489(9)
C3 C 0.50572(11) 0.11796(11) 1.05984(9)
C4 C 0.34371(10) 0.24928(12) 0.99548(9)
C5 C 0.29757(10) 0.34720(12) 0.90774(9)
H3 H 0.2601 0.3891 0.8960
H4 H 0.2784 0.2988 0.8827
C6 C 0.36087(10) 0.37882(12) 0.89496(8)
C7 C 0.37521(10) 0.46148(12) 0.89822(9)
H5 H 0.3443 0.4974 0.9074
C8 C 0.43356(10) 0.49350(12) 0.88849(9)
C9 C 0.47888(10) 0.43889(12) 0.87671(9)
H6 H 0.5195 0.4592 0.8709
C10 C 0.46691(10) 0.35529(12) 0.87310(9)
C11 C 0.52043(11) 0.29847(12) 0.86340(9)
H7 H 0.5436 0.3263 0.8393
H8 H 0.4955 0.2503 0.8409
C12 C 0.57658(10) 0.27151(12) 0.92231(9)
C13 C 0.62912(11) 0.32509(12) 0.95524(9)
H9 H 0.6322 0.3776 0.9403
C14 C 0.67721(11) 0.30051(12) 1.01046(9)
C15 C 0.67293(10) 0.22631(13) 1.03497(9)
H10 H 0.7054 0.2128 1.0737
C16 C 0.62084(10) 0.17119(12) 1.00290(9)
C17 C 0.61296(11) 0.09309(12) 1.03308(9)
H11 H 0.5828 0.0546 1.0028
H12 H 0.6600 0.0679 1.0532
C18 C 0.57967(10) 0.11066(11) 1.07840(9)
C19 C 0.62069(10) 0.12373(12) 1.13798(9)
H13 H 0.6706 0.1173 1.1521
C20 C 0.58803(11) 0.14629(12) 1.17662(9)
C21 C 0.51517(11) 0.15660(12) 1.15786(9)
H14 H 0.4945 0.1740 1.1852
C22 C 0.47280(10) 0.14124(11) 1.09882(9)
C23 C 0.39212(10) 0.14541(12) 1.07890(9)
H15 H 0.3711 0.1042 1.0475
H16 H 0.3791 0.1308 1.1131
C24 C 0.35936(10) 0.22738(12) 1.05506(9)
C25 C 0.34221(10) 0.28039(12) 1.09152(9)
H17 H 0.3509 0.2665 1.1317
C26 C 0.31192(10) 0.35459(12) 1.06851(9)
C27 C 0.29952(10) 0.37800(12) 1.01055(9)
H18 H 0.2806 0.4301 0.9968
C28 C 0.31485(10) 0.32485(12) 0.97264(9)
C29 C 0.44776(11) 0.58484(12) 0.89249(10)
C30 C 0.37996(13) 0.63144(15) 0.85757(14)
H19 H 0.3896 0.6898 0.8616
H20 H 0.3433 0.6182 0.8733
H21 H 0.3635 0.6162 0.8154
C31 C 0.50336(16) 0.60883(16) 0.86789(16)
H22 H 0.5473 0.5792 0.8891
H23 H 0.5123 0.6672 0.8733
H24 H 0.4864 0.5956 0.8254
C32 C 0.47263(18) 0.60999(17) 0.95844(13)
H25 H 0.5188 0.5853 0.9807
H26 H 0.4381 0.5916 0.9750
H27 H 0.4769 0.6691 0.9615
C33 C 0.35113(12) 0.21546(14) 0.81715(9)
H28 H 0.3724 0.2348 0.7888
H29 H 0.3023 0.2371 0.8044
C34 C 0.34956(12) 0.12380(14) 0.81746(11)
H30 H 0.3363 0.1046 0.8507
H31 H 0.3972 0.1024 0.8236
C35 C 0.29612(14) 0.09279(17) 0.75855(12)
H32 H 0.2483 0.1094 0.7546
H33 H 0.2985 0.0335 0.7576
H34 H 0.3071 0.1155 0.7256
C36 C 0.55692(12) 0.07189(12) 0.88869(9)
H35 H 0.5274 0.0230 0.8849
H36 H 0.6049 0.0600 0.9181
C37 C 0.56144(12) 0.09054(13) 0.82922(9)
H37 H 0.5941 0.1366 0.8334
H38 H 0.5141 0.1062 0.8004
C38 C 0.58807(14) 0.01632(14) 0.80611(11)
H39 H 0.6369 0.0044 0.8325
H40 H 0.5866 0.0272 0.7659
H41 H 0.5578 -0.0303 0.8051
C39 C 0.33340(13) 0.42592(16) 0.71974(11)
H42 H 0.2927 0.4627 0.7011
H43 H 0.3378 0.4158 0.7613
Cl1 Cl 0.31770(3) 0.33315(4) 0.68018(3)
Cl2 Cl 0.41130(3) 0.47239(5) 0.71983(3)
loop_
_geom_bond_atom_site_label_1
_geom_bond_atom_site_label_2
_geom_bond_site_symmetry_1
_geom_bond_site_symmetry_2
O1 C1 1_555 1_555
O2 C2 1_555 1_555
O3 H1 1_555 1_555
O4 H2 1_555 1_555
O5 N1 1_555 1_555
O6 N1 1_555 1_555
O7 N2 1_555 1_555
O8 N2 1_555 1_555
O9 N3 1_555 1_555
O10 N3 1_555 1_555
N1 C14 1_555 1_555
N2 C20 1_555 1_555
N3 C26 1_555 1_555
C1 C6 1_555 1_555
C2 C12 1_555 1_555
C3 O3 1_555 1_555
C4 O4 1_555 1_555
C5 H3 1_555 1_555
H4 C5 1_555 1_555
C6 C5 1_555 1_555
C7 C6 1_555 1_555
H5 C7 1_555 1_555
C8 C7 1_555 1_555
C9 C8 1_555 1_555
H6 C9 1_555 1_555
C10 C1 1_555 1_555
C11 C10 1_555 1_555
H7 C11 1_555 1_555
H8 C11 1_555 1_555
C12 C11 1_555 1_555
C13 C12 1_555 1_555
H9 C13 1_555 1_555
C14 C13 1_555 1_555
C15 C14 1_555 1_555
H10 C15 1_555 1_555
C16 C2 1_555 1_555
C17 C16 1_555 1_555
H11 C17 1_555 1_555
H12 C17 1_555 1_555
C18 C3 1_555 1_555
C19 C18 1_555 1_555
H13 C19 1_555 1_555
C20 C19 1_555 1_555
C21 C20 1_555 1_555
H14 C21 1_555 1_555
C22 C3 1_555 1_555
C23 C22 1_555 1_555
H15 C23 1_555 1_555
H16 C23 1_555 1_555
C24 C4 1_555 1_555
C25 C24 1_555 1_555
H17 C25 1_555 1_555
C26 C25 1_555 1_555
C27 C26 1_555 1_555
H18 C27 1_555 1_555
C28 C4 1_555 1_555
C29 C8 1_555 1_555
C30 C29 1_555 1_555
H19 C30 1_555 1_555
H20 C30 1_555 1_555
H21 C30 1_555 1_555
C31 C29 1_555 1_555
H22 C31 1_555 1_555
H23 C31 1_555 1_555
H24 C31 1_555 1_555
C32 C29 1_555 1_555
H25 C32 1_555 1_555
H26 C32 1_555 1_555
H27 C32 1_555 1_555
C33 O1 1_555 1_555
H28 C33 1_555 1_555
H29 C33 1_555 1_555
C34 C33 1_555 1_555
H30 C34 1_555 1_555
H31 C34 1_555 1_555
C35 C34 1_555 1_555
H32 C35 1_555 1_555
H33 C35 1_555 1_555
H34 C35 1_555 1_555
C36 O2 1_555 1_555
H35 C36 1_555 1_555
H36 C36 1_555 1_555
C37 C36 1_555 1_555
H37 C37 1_555 1_555
H38 C37 1_555 1_555
C38 C37 1_555 1_555
H39 C38 1_555 1_555
H40 C38 1_555 1_555
H41 C38 1_555 1_555
C39 H42 1_555 1_555
H43 C39 1_555 1_555
Cl1 C39 1_555 1_555
Cl2 C39 1_555 1_555
C5 C28 1_555 1_555
C9 C10 1_555 1_555
C15 C16 1_555 1_555
C17 C18 1_555 1_555
C21 C22 1_555 1_555
C23 C24 1_555 1_555
C27 C28 1_555 1_555

#END
