
#######################################################################
#
#                 Cambridge Crystallographic Data Centre
#                                CCDC 
#
#######################################################################
#
# If this CIF has been generated from an entry in the Cambridge 
# Structural Database, then it will include bibliographic, chemical, 
# crystal, experimental, refinement or atomic coordinate data resulting 
# from the CCDC's data processing and validation procedures.
#
#######################################################################

data_COVGIF
_chemical_formula_moiety         'C16 H17 N1 O3 S1'
_chemical_name_systematic        
6-methylene-3-((4-methylphenyl)sulfonyl)-10-oxa-3-azatricyclo[5.2.1.0^1,5^]dec-8-ene
_symmetry_cell_setting           triclinic
_symmetry_space_group_name_H-M   'P -1'
_symmetry_Int_Tables_number      2
_space_group_name_Hall           '-P 1'
loop_
_symmetry_equiv_pos_site_id
_symmetry_equiv_pos_as_xyz
1 x,y,z
2 -x,-y,-z
_cell_length_a                   6.2097(13)
_cell_length_b                   11.272(2)
_cell_length_c                   11.547(3)
_cell_angle_alpha                104.782(4)
_cell_angle_beta                 101.238(4)
_cell_angle_gamma                100.235(4)
_cell_volume                     744.144
_exptl_crystal_colour            colorless
_exptl_crystal_description       prismatic
_cell_formula_units_Z            2
loop_
_atom_site_label
_atom_site_type_symbol
_atom_site_fract_x
_atom_site_fract_y
_atom_site_fract_z
S1 S 1.05750(9) 0.47066(5) 0.72153(5)
N1 N 0.9254(3) 0.38942(17) 0.58047(16)
O1 O 0.4787(2) 0.18017(15) 0.48756(15)
O2 O 1.2901(3) 0.47123(19) 0.73317(17)
O3 O 0.9890(3) 0.58671(15) 0.74464(16)
C1 C 0.6900(4) 0.3972(2) 0.5320(2)
H1 H 0.6882 0.4658 0.4956
H2 H 0.6107 0.4096 0.5971
C2 C 0.9593(4) 0.2619(2) 0.5278(2)
H3 H 0.9318 0.2088 0.5801
H4 H 1.1112 0.2664 0.5168
C3 C 0.7840(3) 0.2129(2) 0.40384(19)
H5 H 0.8396 0.2401 0.3387
C4 C 0.5868(3) 0.2721(2) 0.43633(19)
C5 C 0.4114(4) 0.2501(2) 0.3180(2)
H6 H 0.3771 0.3099 0.2795
C6 C 0.3168(4) 0.1282(3) 0.2808(3)
H7 H 0.2033 0.0838 0.2094
C7 C 0.4299(4) 0.0746(2) 0.3775(2)
H8 H 0.3426 -0.0052 0.3812
C8 C 0.6670(4) 0.0744(2) 0.3616(2)
C9 C 0.7478(5) -0.0251(3) 0.3270(3)
H9 H 0.8994 -0.0151 0.3263
H10 H 0.6534 -0.1057 0.3031
C10 C 0.9603(4) 0.3870(2) 0.81780(19)
C11 C 1.0632(5) 0.2942(2) 0.8433(2)
H11 H 1.1877 0.2794 0.8134
C12 C 0.9798(6) 0.2237(3) 0.9134(3)
H12 H 1.0498 0.1616 0.9307
C13 C 0.7962(6) 0.2432(3) 0.9581(2)
C14 C 0.6980(5) 0.3379(3) 0.9337(2)
H13 H 0.5754 0.3534 0.9652
C15 C 0.7770(4) 0.4104(3) 0.8634(2)
H14 H 0.7084 0.4734 0.8473
C16 C 0.7054(9) 0.1633(4) 1.0336(3)
H15 H 0.6343 0.0790 0.9807
H16 H 0.5966 0.1994 1.0703
H17 H 0.8277 0.1611 1.0976
loop_
_geom_bond_atom_site_label_1
_geom_bond_atom_site_label_2
_geom_bond_site_symmetry_1
_geom_bond_site_symmetry_2
S1 N1 1_555 1_555
N1 C1 1_555 1_555
O1 C4 1_555 1_555
O2 S1 1_555 1_555
O3 S1 1_555 1_555
C1 H1 1_555 1_555
H2 C1 1_555 1_555
C2 N1 1_555 1_555
H3 C2 1_555 1_555
H4 C2 1_555 1_555
C3 C2 1_555 1_555
H5 C3 1_555 1_555
C4 C1 1_555 1_555
C5 C4 1_555 1_555
H6 C5 1_555 1_555
C6 C5 1_555 1_555
H7 C6 1_555 1_555
C7 O1 1_555 1_555
H8 C7 1_555 1_555
C8 C3 1_555 1_555
C9 C8 1_555 1_555
H9 C9 1_555 1_555
H10 C9 1_555 1_555
C10 S1 1_555 1_555
C11 C10 1_555 1_555
H11 C11 1_555 1_555
C12 C11 1_555 1_555
H12 C12 1_555 1_555
C13 C12 1_555 1_555
C14 C13 1_555 1_555
H13 C14 1_555 1_555
C15 C10 1_555 1_555
H14 C15 1_555 1_555
C16 C13 1_555 1_555
H15 C16 1_555 1_555
H16 C16 1_555 1_555
H17 C16 1_555 1_555
C3 C4 1_555 1_555
C6 C7 1_555 1_555
C7 C8 1_555 1_555
C14 C15 1_555 1_555

#END
