
#######################################################################
#
#                 Cambridge Crystallographic Data Centre
#                                CCDC 
#
#######################################################################
#
# If this CIF has been generated from an entry in the Cambridge 
# Structural Database, then it will include bibliographic, chemical, 
# crystal, experimental, refinement or atomic coordinate data resulting 
# from the CCDC's data processing and validation procedures.
#
#######################################################################

data_COVGOL
_chemical_formula_moiety         'C16 H17 N1 O3 S1'
_chemical_name_systematic        
3-((4-methylphenyl)sulfonyl)-11-oxa-3-azatricyclo[6.2.1.0^1,6^]undeca-5,9-diene
_symmetry_cell_setting           triclinic
_symmetry_space_group_name_H-M   'P -1'
_symmetry_Int_Tables_number      2
_space_group_name_Hall           '-P 1'
loop_
_symmetry_equiv_pos_site_id
_symmetry_equiv_pos_as_xyz
1 x,y,z
2 -x,-y,-z
_cell_length_a                   8.3878(16)
_cell_length_b                   9.8582(18)
_cell_length_c                   19.139(3)
_cell_angle_alpha                76.354(4)
_cell_angle_beta                 84.421(4)
_cell_angle_gamma                73.985(4)
_cell_volume                     1477.34
_exptl_crystal_colour            colorless
_exptl_crystal_description       prismatic
_cell_formula_units_Z            4
loop_
_atom_site_label
_atom_site_type_symbol
_atom_site_fract_x
_atom_site_fract_y
_atom_site_fract_z
S1 S 0.91174(7) 0.41179(6) 0.32954(3)
N1 N 0.7608(2) 0.3725(2) 0.38380(10)
O1 O 0.6428(2) 0.2712(2) 0.57391(9)
O2 O 0.8835(3) 0.3899(2) 0.26155(10)
O3 O 1.0627(2) 0.33312(19) 0.36506(11)
C1 C 0.6902(3) 0.2592(2) 0.50090(12)
C2 C 0.7843(3) 0.1021(3) 0.51116(13)
H1 H 0.8743 0.0618 0.4834
C3 C 0.7125(4) 0.0336(3) 0.56759(15)
H2 H 0.7419 -0.0648 0.5883
C4 C 0.5741(4) 0.1471(3) 0.59135(15)
H3 H 0.5359 0.1218 0.6416
C5 C 0.4367(3) 0.1926(3) 0.53565(15)
H4 H 0.4102 0.1096 0.5255
H5 H 0.3365 0.2570 0.5510
C6 C 0.5244(3) 0.2698(2) 0.47195(13)
C7 C 0.4799(3) 0.3437(3) 0.40740(14)
H6 H 0.3754 0.3496 0.3926
C8 C 0.5920(3) 0.4192(3) 0.35648(13)
H7 H 0.5945 0.3971 0.3096
H8 H 0.5494 0.5230 0.3512
C9 C 0.7687(3) 0.3748(3) 0.45959(13)
H9 H 0.7083 0.4684 0.4688
H10 H 0.8829 0.3543 0.4730
C10 C 0.8932(3) 0.5969(2) 0.32132(11)
C11 C 0.9917(3) 0.6429(3) 0.35957(13)
H11 H 1.0727 0.5757 0.3889
C12 C 0.9694(3) 0.7887(3) 0.35410(14)
H12 H 1.0362 0.8193 0.3799
C13 C 0.8497(3) 0.8905(3) 0.31104(13)
C14 C 0.7551(3) 0.8428(3) 0.27187(13)
H13 H 0.6760 0.9103 0.2417
C15 C 0.7746(3) 0.6976(3) 0.27632(12)
H14 H 0.7095 0.6674 0.2496
C16 C 0.8227(4) 1.0500(3) 0.30619(19)
H15 H 0.8003 1.1017 0.2575
H16 H 0.9205 1.0669 0.3209
H17 H 0.7301 1.0830 0.3371
S2 S 0.39239(7) 0.74650(6) 0.15816(4)
N2 N 0.2428(2) 0.7590(2) 0.10719(10)
O4 O 0.1246(3) 0.84657(19) -0.08008(9)
O5 O 0.5435(2) 0.7030(2) 0.11886(13)
O6 O 0.3611(3) 0.6606(2) 0.22638(11)
C17 C 0.1754(3) 0.7622(2) -0.00971(12)
C18 C 0.2736(3) 0.6206(3) -0.02737(15)
H18 H 0.3654 0.5558 -0.0038
C19 C 0.2031(4) 0.6075(3) -0.08278(15)
H19 H 0.2354 0.5320 -0.1068
C20 C 0.0606(4) 0.7382(3) -0.09930(15)
H20 H 0.0218 0.7626 -0.1485
C21 C -0.0737(3) 0.7203(3) -0.03977(15)
H21 H -0.1764 0.7952 -0.0504
H22 H -0.0956 0.6260 -0.0315
C22 C 0.0113(3) 0.7364(2) 0.02284(13)
C23 C -0.0340(3) 0.7432(3) 0.08948(14)
H23 H -0.1375 0.7300 0.1066
C24 C 0.0743(3) 0.7712(3) 0.13920(13)
H24 H 0.0283 0.8674 0.1482
H25 H 0.0785 0.7019 0.1848
C25 C 0.2491(3) 0.8382(3) 0.03240(12)
H26 H 0.3627 0.8361 0.0161
H27 H 0.1854 0.9382 0.0274
C26 C 0.3793(3) 0.9215(2) 0.16970(12)
C27 C 0.2771(3) 0.9734(3) 0.22368(13)
H28 H 0.2153 0.9165 0.2538
C28 C 0.2672(3) 1.1101(3) 0.23258(14)
H29 H 0.1981 1.1449 0.2690
C29 C 0.3577(3) 1.1967(3) 0.18855(13)
C30 C 0.4608(3) 1.1411(3) 0.13563(13)
H30 H 0.5243 1.1970 0.1060
C31 C 0.4718(3) 1.0053(3) 0.12554(13)
H31 H 0.5412 0.9703 0.0892
C32 C 0.3431(5) 1.3474(3) 0.19752(19)
H32 H 0.4454 1.3728 0.1819
H33 H 0.3200 1.3511 0.2473
H34 H 0.2545 1.4143 0.1691
loop_
_geom_bond_atom_site_label_1
_geom_bond_atom_site_label_2
_geom_bond_site_symmetry_1
_geom_bond_site_symmetry_2
S1 N1 1_555 1_555
N1 C8 1_555 1_555
O1 C1 1_555 1_555
O2 S1 1_555 1_555
O3 S1 1_555 1_555
C1 C2 1_555 1_555
C2 H1 1_555 1_555
C3 C2 1_555 1_555
H2 C3 1_555 1_555
C4 O1 1_555 1_555
H3 C4 1_555 1_555
C5 C4 1_555 1_555
H4 C5 1_555 1_555
H5 C5 1_555 1_555
C6 C1 1_555 1_555
C7 C6 1_555 1_555
H6 C7 1_555 1_555
C8 C7 1_555 1_555
H7 C8 1_555 1_555
H8 C8 1_555 1_555
C9 N1 1_555 1_555
H9 C9 1_555 1_555
H10 C9 1_555 1_555
C10 S1 1_555 1_555
C11 C10 1_555 1_555
H11 C11 1_555 1_555
C12 C11 1_555 1_555
H12 C12 1_555 1_555
C13 C12 1_555 1_555
C14 C13 1_555 1_555
H13 C14 1_555 1_555
C15 C10 1_555 1_555
H14 C15 1_555 1_555
C16 C13 1_555 1_555
H15 C16 1_555 1_555
H16 C16 1_555 1_555
H17 C16 1_555 1_555
S2 N2 1_555 1_555
N2 C24 1_555 1_555
O4 C17 1_555 1_555
O5 S2 1_555 1_555
O6 S2 1_555 1_555
C17 C18 1_555 1_555
C18 H18 1_555 1_555
C19 C18 1_555 1_555
H19 C19 1_555 1_555
C20 O4 1_555 1_555
H20 C20 1_555 1_555
C21 C20 1_555 1_555
H21 C21 1_555 1_555
H22 C21 1_555 1_555
C22 C17 1_555 1_555
C23 C22 1_555 1_555
H23 C23 1_555 1_555
C24 C23 1_555 1_555
H24 C24 1_555 1_555
H25 C24 1_555 1_555
C25 N2 1_555 1_555
H26 C25 1_555 1_555
H27 C25 1_555 1_555
C26 S2 1_555 1_555
C27 C26 1_555 1_555
H28 C27 1_555 1_555
C28 C27 1_555 1_555
H29 C28 1_555 1_555
C29 C28 1_555 1_555
C30 C29 1_555 1_555
H30 C30 1_555 1_555
C31 C26 1_555 1_555
H31 C31 1_555 1_555
C32 C29 1_555 1_555
H32 C32 1_555 1_555
H33 C32 1_555 1_555
H34 C32 1_555 1_555
C1 C9 1_555 1_555
C3 C4 1_555 1_555
C5 C6 1_555 1_555
C14 C15 1_555 1_555
C17 C25 1_555 1_555
C19 C20 1_555 1_555
C21 C22 1_555 1_555
C30 C31 1_555 1_555

#END
