
#######################################################################
#
#                 Cambridge Crystallographic Data Centre
#                                CCDC 
#
#######################################################################
#
# If this CIF has been generated from an entry in the Cambridge 
# Structural Database, then it will include bibliographic, chemical, 
# crystal, experimental, refinement or atomic coordinate data resulting 
# from the CCDC's data processing and validation procedures.
#
#######################################################################

data_COVKEF
_chemical_formula_moiety         'C19 H13 Cl1 N4 O1'
_chemical_name_systematic        
2-chloro-4-methyl-6-phenyl-5-(3-phenyl-1,2,4-oxadiazol-5-yl)pyrimidine
_symmetry_cell_setting           orthorhombic
_symmetry_space_group_name_H-M   'P b c a'
_symmetry_Int_Tables_number      61
_space_group_name_Hall           '-P 2ac 2ab'
loop_
_symmetry_equiv_pos_site_id
_symmetry_equiv_pos_as_xyz
1 x,y,z
2 1/2-x,-y,1/2+z
3 -x,1/2+y,1/2-z
4 1/2+x,1/2-y,-z
5 -x,-y,-z
6 1/2+x,y,1/2-z
7 x,1/2-y,1/2+z
8 1/2-x,1/2+y,z
_cell_length_a                   19.1575(11)
_cell_length_b                   8.2115(5)
_cell_length_c                   21.2035(12)
_cell_angle_alpha                90
_cell_angle_beta                 90
_cell_angle_gamma                90
_cell_volume                     3335.56
_exptl_crystal_colour            colorless
_exptl_crystal_description       block
_cell_formula_units_Z            8
loop_
_atom_site_label
_atom_site_type_symbol
_atom_site_fract_x
_atom_site_fract_y
_atom_site_fract_z
C1 C 1.03113(10) 0.7893(2) 0.99963(9)
C2 C 1.05253(10) 0.9187(2) 0.90820(10)
C3 C 0.99099(9) 0.8518(2) 0.88394(9)
C4 C 0.94998(10) 0.7560(2) 0.92398(9)
C5 C 1.09779(12) 1.0330(3) 0.87140(12)
H1 H 1.1265 1.0943 0.8999
H2 H 1.0689 1.1062 0.8476
H3 H 1.1269 0.9718 0.8432
C6 C 0.88186(10) 0.6852(2) 0.90529(9)
C7 C 0.87313(13) 0.6033(3) 0.84890(11)
H4 H 0.9103 0.5926 0.8210
C8 C 0.80841(15) 0.5370(3) 0.83406(14)
H5 H 0.8024 0.4813 0.7963
C9 C 0.75323(14) 0.5536(4) 0.87513(15)
H6 H 0.7100 0.5091 0.8649
C10 C 0.76155(13) 0.6346(4) 0.93059(13)
H7 H 0.7240 0.6465 0.9580
C11 C 0.82571(11) 0.6992(3) 0.94624(11)
H8 H 0.8314 0.7527 0.9846
C12 C 0.96927(9) 0.8889(2) 0.81881(9)
C13 C 0.92426(9) 0.9613(2) 0.73403(8)
C14 C 0.87495(10) 1.0370(2) 0.68957(9)
C15 C 0.88109(12) 1.0096(3) 0.62488(10)
H9 H 0.9166 0.9438 0.6092
C16 C 0.83350(14) 1.0816(3) 0.58422(11)
H10 H 0.8371 1.0638 0.5410
C17 C 0.78112(14) 1.1790(3) 0.60723(13)
H11 H 0.7495 1.2267 0.5795
C18 C 0.77501(13) 1.2065(3) 0.67099(13)
H12 H 0.7395 1.2728 0.6863
C19 C 0.82206(11) 1.1348(3) 0.71232(10)
H13 H 0.8179 1.1527 0.7555
Cl1 Cl 1.05993(3) 0.74015(8) 1.07456(3)
N1 N 0.97073(9) 0.7251(2) 0.98328(7)
N2 N 1.07289(8) 0.8861(2) 0.96718(8)
N3 N 0.91689(8) 0.97126(19) 0.79858(7)
N4 N 0.97829(10) 0.8793(3) 0.71563(8)
O1 O 1.00963(8) 0.8287(2) 0.77261(7)
loop_
_geom_bond_atom_site_label_1
_geom_bond_atom_site_label_2
_geom_bond_site_symmetry_1
_geom_bond_site_symmetry_2
C1 Cl1 1_555 1_555
C2 C3 1_555 1_555
C3 C4 1_555 1_555
C4 C6 1_555 1_555
C5 C2 1_555 1_555
H1 C5 1_555 1_555
H2 C5 1_555 1_555
H3 C5 1_555 1_555
C6 C7 1_555 1_555
C7 H4 1_555 1_555
C8 C7 1_555 1_555
H5 C8 1_555 1_555
C9 C8 1_555 1_555
H6 C9 1_555 1_555
C10 C9 1_555 1_555
H7 C10 1_555 1_555
C11 C6 1_555 1_555
H8 C11 1_555 1_555
C12 C3 1_555 1_555
C13 C14 1_555 1_555
C14 C15 1_555 1_555
C15 H9 1_555 1_555
C16 C15 1_555 1_555
H10 C16 1_555 1_555
C17 C16 1_555 1_555
H11 C17 1_555 1_555
C18 C17 1_555 1_555
H12 C18 1_555 1_555
C19 C14 1_555 1_555
H13 C19 1_555 1_555
N1 C1 1_555 1_555
N2 C1 1_555 1_555
N3 C12 1_555 1_555
N4 C13 1_555 1_555
O1 C12 1_555 1_555
C2 N2 1_555 1_555
C4 N1 1_555 1_555
C10 C11 1_555 1_555
C13 N3 1_555 1_555
C18 C19 1_555 1_555
N4 O1 1_555 1_555

#END
