
#######################################################################
#
#                 Cambridge Crystallographic Data Centre
#                                CCDC 
#
#######################################################################
#
# If this CIF has been generated from an entry in the Cambridge 
# Structural Database, then it will include bibliographic, chemical, 
# crystal, experimental, refinement or atomic coordinate data resulting 
# from the CCDC's data processing and validation procedures.
#
#######################################################################

data_COVNIK
_chemical_compound_source        'Bauhinia racemosa Lamk'
_chemical_name_common            Pacharin
_chemical_formula_moiety         'C16 H14 O4'
_chemical_name_systematic        
1,7-Dihydroxy-3-methoxy-2-methyl-dibenz(2,3-6,7)oxepin
_symmetry_cell_setting           monoclinic
_symmetry_space_group_name_H-M   'P 2/n'
_symmetry_Int_Tables_number      13
_space_group_name_Hall           '-P 2yac'
loop_
_symmetry_equiv_pos_site_id
_symmetry_equiv_pos_as_xyz
1 x,y,z
2 1/2-x,y,1/2-z
3 -x,-y,-z
4 1/2+x,-y,1/2+z
_cell_length_a                   17.170(1)
_cell_length_b                   4.9154(7)
_cell_length_c                   15.514(1)
_cell_angle_alpha                90
_cell_angle_beta                 98.085(3)
_cell_angle_gamma                90
_cell_volume                     1296.33
_exptl_crystal_colour            colorless
_chemical_melting_point          210deg.C
_cell_formula_units_Z            4
loop_
_atom_site_label
_atom_site_type_symbol
_atom_site_fract_x
_atom_site_fract_y
_atom_site_fract_z
C1 C 0.86320(12) -0.2105(4) 0.52823(13)
C2 C 0.78382(12) -0.2791(4) 0.51270(13)
C3 C 0.73370(12) -0.1390(5) 0.56087(13)
C4 C 0.76034(12) 0.0592(5) 0.62039(13)
C5 C 0.84031(12) 0.1302(4) 0.63449(13)
C6 C 0.86794(13) 0.3501(5) 0.69534(13)
C7 C 0.93983(13) 0.3726(5) 0.74068(14)
C8 C 1.00494(12) 0.1827(4) 0.74193(13)
C9 C 1.06038(12) 0.1552(5) 0.81714(13)
C10 C 1.12240(14) -0.0253(6) 0.82020(15)
C11 C 1.13086(14) -0.1819(6) 0.74858(18)
C12 C 1.07800(14) -0.1593(5) 0.67290(16)
C13 C 1.01732(12) 0.0222(5) 0.67095(13)
O1 O 0.96949(8) 0.0627(3) 0.59066(8)
C14 C 0.89078(11) -0.0086(4) 0.58726(12)
O2 O 0.91330(9) -0.3480(3) 0.48250(10)
C15 C 0.75575(13) -0.4899(5) 0.44572(14)
O3 O 0.65501(8) -0.2150(4) 0.54307(10)
C16 C 0.60076(14) -0.0811(7) 0.59107(18)
O4 O 1.04936(10) 0.3131(4) 0.88711(10)
H1 H 0.722(1) 0.153(4) 0.650(1)
H2 H 0.824(1) 0.485(5) 0.707(1)
H3 H 0.949(1) 0.533(5) 0.787(1)
H4 H 1.162(1) -0.040(5) 0.877(2)
H5 H 1.178(1) -0.328(6) 0.751(2)
H6 H 1.082(1) -0.273(5) 0.623(2)
H7 H 0.964(2) -0.233(7) 0.489(2)
H8 H 0.789(2) -0.657(6) 0.453(2)
H9 H 0.709(2) -0.537(7) 0.450(2)
H10 H 0.761(2) -0.412(8) 0.386(2)
H11 H 0.551(2) -0.202(5) 0.557(2)
H12 H 0.620(2) -0.099(6) 0.658(2)
H13 H 0.601(2) 0.144(7) 0.578(2)
H14 H 1.091(2) 0.285(6) 0.931(2)
loop_
_geom_bond_atom_site_label_1
_geom_bond_atom_site_label_2
_geom_bond_site_symmetry_1
_geom_bond_site_symmetry_2
C1 C2 1_555 1_555
C2 C3 1_555 1_555
C3 C4 1_555 1_555
C4 C5 1_555 1_555
C5 C6 1_555 1_555
C6 C7 1_555 1_555
C7 C8 1_555 1_555
C8 C9 1_555 1_555
C9 C10 1_555 1_555
C10 C11 1_555 1_555
C11 C12 1_555 1_555
C12 C13 1_555 1_555
C13 C8 1_555 1_555
O1 C13 1_555 1_555
C14 C1 1_555 1_555
O2 C1 1_555 1_555
C15 C2 1_555 1_555
O3 C3 1_555 1_555
C16 O3 1_555 1_555
O4 C9 1_555 1_555
H1 C4 1_555 1_555
H2 C6 1_555 1_555
H3 C7 1_555 1_555
H4 C10 1_555 1_555
H5 C11 1_555 1_555
H6 C12 1_555 1_555
H7 O2 1_555 1_555
H8 C15 1_555 1_555
H9 C15 1_555 1_555
H10 C15 1_555 1_555
H11 C16 1_555 1_555
H12 C16 1_555 1_555
H13 C16 1_555 1_555
H14 O4 1_555 1_555
C5 C14 1_555 1_555
O1 C14 1_555 1_555

#END
