
#######################################################################
#
#                 Cambridge Crystallographic Data Centre
#                                CCDC 
#
#######################################################################
#
# If this CIF has been generated from an entry in the Cambridge 
# Structural Database, then it will include bibliographic, chemical, 
# crystal, experimental, refinement or atomic coordinate data resulting 
# from the CCDC's data processing and validation procedures.
#
#######################################################################

data_COVRAI
_chemical_formula_moiety         'C28 H27 N3 O3'
_chemical_name_systematic        
'methyl N-(1-(3-methyl-5-oxo-1-phenyl-1,5-dihydro-4H-pyrazol-4-ylidene)-2-phenylethyl)phenylalaninate'
_symmetry_cell_setting           triclinic
_symmetry_space_group_name_H-M   'P 1'
_symmetry_Int_Tables_number      1
_space_group_name_Hall           'P 1'
loop_
_symmetry_equiv_pos_site_id
_symmetry_equiv_pos_as_xyz
1 x,y,z
_cell_length_a                   5.6268(5)
_cell_length_b                   10.6892(11)
_cell_length_c                   19.4869(18)
_cell_angle_alpha                86.892(2)
_cell_angle_beta                 85.318(2)
_cell_angle_gamma                80.176(2)
_cell_volume                     1150.05
_exptl_crystal_colour            colorless
_exptl_crystal_description       block
_cell_formula_units_Z            2
loop_
_atom_site_label
_atom_site_type_symbol
_atom_site_fract_x
_atom_site_fract_y
_atom_site_fract_z
O1 O 0.7892(3) 0.21857(18) 0.69854(11)
O2 O 0.3058(4) -0.1889(2) 0.81648(13)
O3 O 0.6191(3) -0.08868(19) 0.82647(11)
N1 N 0.8198(4) 0.4133(2) 0.74338(12)
N2 N 0.7060(4) 0.4892(2) 0.79740(13)
N3 N 0.4177(4) 0.1256(2) 0.76231(13)
H1 H 0.5376 0.1257 0.7304
C1 C 1.0144(5) 0.4533(3) 0.70248(15)
C2 C 1.1069(5) 0.5578(3) 0.72200(17)
H2 H 1.0342 0.6038 0.7608
C3 C 1.3049(5) 0.5945(3) 0.68467(17)
H3 H 1.3680 0.6655 0.6982
C4 C 1.4126(5) 0.5290(3) 0.62780(17)
H4 H 1.5503 0.5539 0.6028
C5 C 1.3174(6) 0.4272(3) 0.60791(17)
H5 H 1.3891 0.3826 0.5685
C6 C 1.1173(5) 0.3888(3) 0.64470(16)
H6 H 1.0522 0.3190 0.6303
C7 C 0.5347(5) 0.4313(3) 0.82601(15)
C8 C 0.5269(5) 0.3148(3) 0.79363(14)
C9 C 0.7198(5) 0.3055(3) 0.73934(15)
C10 C 0.3800(6) 0.4948(3) 0.88485(16)
H7 H 0.4335 0.5748 0.8933
H8 H 0.3946 0.4387 0.9263
H9 H 0.2108 0.5122 0.8734
C11 C 0.3754(5) 0.2225(3) 0.80332(14)
C12 C 0.1641(5) 0.2320(3) 0.85721(15)
H10 H 0.0183 0.2190 0.8351
H11 H 0.1324 0.3187 0.8750
C13 C 0.2055(5) 0.1362(3) 0.91743(15)
C14 C 0.0547(5) 0.0475(3) 0.93237(16)
H12 H -0.0750 0.0458 0.9043
C15 C 0.0898(6) -0.0394(3) 0.98785(17)
H13 H -0.0141 -0.1007 0.9970
C16 C 0.2745(6) -0.0368(3) 1.02951(16)
H14 H 0.2994 -0.0965 1.0672
C17 C 0.4248(6) 0.0537(3) 1.01607(17)
H15 H 0.5509 0.0568 1.0452
C18 C 0.3915(5) 0.1394(3) 0.96033(16)
H16 H 0.4955 0.2005 0.9512
C19 C 0.2883(5) 0.0188(3) 0.76410(16)
H17 H 0.1232 0.0474 0.7866
C20 C 0.2556(5) -0.0183(3) 0.69023(16)
H18 H 0.1911 -0.0992 0.6932
H19 H 0.1329 0.0476 0.6698
C21 C 0.4825(5) -0.0340(3) 0.64210(16)
C22 C 0.6646(5) -0.1390(3) 0.64694(16)
H20 H 0.6483 -0.2039 0.6814
C23 C 0.8700(5) -0.1498(3) 0.60179(16)
H21 H 0.9930 -0.2221 0.6057
C24 C 0.8979(6) -0.0566(3) 0.55125(17)
H22 H 1.0391 -0.0645 0.5205
C25 C 0.7189(7) 0.0475(3) 0.54602(17)
H23 H 0.7373 0.1124 0.5117
C26 C 0.5116(6) 0.0587(3) 0.59039(17)
H24 H 0.3877 0.1304 0.5855
C27 C 0.4033(5) -0.0980(3) 0.80551(16)
C28 C 0.7272(6) -0.1985(3) 0.86743(18)
H25 H 0.7240 -0.2762 0.8433
H26 H 0.6354 -0.2016 0.9123
H27 H 0.8950 -0.1915 0.8743
O4 O 1.1554(3) 0.36584(18) 0.19052(11)
O5 O 0.8588(4) 0.3931(2) 0.39420(11)
O6 O 0.5275(4) 0.3152(2) 0.43635(11)
N4 N 1.2352(4) 0.5466(2) 0.12566(13)
N5 N 1.1299(4) 0.6756(2) 0.11930(13)
N6 N 0.7372(4) 0.4157(2) 0.26552(12)
H28 H 0.8673 0.3646 0.2496
C29 C 1.4545(5) 0.5029(3) 0.08678(15)
C30 C 1.5500(5) 0.3740(3) 0.08701(16)
H29 H 1.4651 0.3140 0.1116
C31 C 1.7705(5) 0.3341(3) 0.05102(16)
H30 H 1.8357 0.2460 0.0509
C32 C 1.8968(5) 0.4199(3) 0.01536(16)
H31 H 2.0502 0.3919 -0.0079
C33 C 1.7969(5) 0.5474(3) 0.01390(16)
H32 H 1.8809 0.6069 -0.0115
C34 C 1.5753(5) 0.5897(3) 0.04901(16)
H33 H 1.5070 0.6774 0.0472
C35 C 0.9295(5) 0.6897(3) 0.16045(15)
C36 C 0.8950(5) 0.5719(3) 0.19583(15)
C37 C 1.1016(5) 0.4808(3) 0.17236(14)
C38 C 0.7798(5) 0.8191(3) 0.16279(17)
H34 H 0.8560 0.8776 0.1312
H35 H 0.7676 0.8491 0.2098
H36 H 0.6177 0.8155 0.1489
C39 C 0.7132(5) 0.5359(3) 0.24176(15)
C40 C 0.4893(5) 0.6276(3) 0.26583(15)
H37 H 0.4761 0.7053 0.2354
H38 H 0.3448 0.5881 0.2614
C41 C 0.4906(5) 0.6649(3) 0.33967(15)
C42 C 0.3116(5) 0.6389(3) 0.38925(16)
H39 H 0.1888 0.5952 0.3771
C43 C 0.3106(5) 0.6763(3) 0.45626(16)
H40 H 0.1873 0.6579 0.4896
C44 C 0.4880(6) 0.7400(3) 0.47482(16)
H41 H 0.4873 0.7654 0.5208
C45 C 0.6661(5) 0.7663(3) 0.42591(17)
H42 H 0.7875 0.8110 0.4382
C46 C 0.6696(5) 0.7281(3) 0.35903(16)
H43 H 0.7953 0.7451 0.3261
C47 C 0.5744(5) 0.3585(3) 0.31464(15)
H44 H 0.4113 0.4129 0.3138
C48 C 0.5482(5) 0.2251(3) 0.29390(17)
H45 H 0.4358 0.1898 0.3285
H46 H 0.4754 0.2323 0.2490
C49 C 0.7859(5) 0.1331(3) 0.28815(16)
C50 C 0.8707(6) 0.0615(3) 0.34543(17)
H47 H 0.7752 0.0666 0.3880
C51 C 1.0934(6) -0.0171(3) 0.34086(18)
H48 H 1.1498 -0.0659 0.3803
C52 C 1.2330(6) -0.0248(3) 0.27977(18)
H49 H 1.3873 -0.0775 0.2772
C53 C 1.1497(6) 0.0436(3) 0.22209(18)
H50 H 1.2452 0.0372 0.1795
C54 C 0.9254(6) 0.1222(3) 0.22643(17)
H51 H 0.8676 0.1688 0.1865
C55 C 0.6498(5) 0.3530(3) 0.38878(16)
C56 C 0.9288(6) 0.3927(4) 0.46434(17)
H52 H 0.9292 0.3079 0.4862
H53 H 0.8133 0.4551 0.4904
H54 H 1.0910 0.4147 0.4637
loop_
_geom_bond_atom_site_label_1
_geom_bond_atom_site_label_2
_geom_bond_site_symmetry_1
_geom_bond_site_symmetry_2
O1 C9 1_555 1_555
O2 C27 1_555 1_555
O3 C27 1_555 1_555
N1 N2 1_555 1_555
N2 C7 1_555 1_555
N3 H1 1_555 1_555
C1 N1 1_555 1_555
C2 C1 1_555 1_555
H2 C2 1_555 1_555
C3 C2 1_555 1_555
H3 C3 1_555 1_555
C4 C3 1_555 1_555
H4 C4 1_555 1_555
C5 C4 1_555 1_555
H5 C5 1_555 1_555
C6 C1 1_555 1_555
H6 C6 1_555 1_555
C7 C8 1_555 1_555
C8 C9 1_555 1_555
C9 N1 1_555 1_555
C10 C7 1_555 1_555
H7 C10 1_555 1_555
H8 C10 1_555 1_555
H9 C10 1_555 1_555
C11 N3 1_555 1_555
C12 C11 1_555 1_555
H10 C12 1_555 1_555
H11 C12 1_555 1_555
C13 C12 1_555 1_555
C14 C13 1_555 1_555
H12 C14 1_555 1_555
C15 C14 1_555 1_555
H13 C15 1_555 1_555
C16 C15 1_555 1_555
H14 C16 1_555 1_555
C17 C16 1_555 1_555
H15 C17 1_555 1_555
C18 C13 1_555 1_555
H16 C18 1_555 1_555
C19 N3 1_555 1_555
H17 C19 1_555 1_555
C20 C19 1_555 1_555
H18 C20 1_555 1_555
H19 C20 1_555 1_555
C21 C20 1_555 1_555
C22 C21 1_555 1_555
H20 C22 1_555 1_555
C23 C22 1_555 1_555
H21 C23 1_555 1_555
C24 C23 1_555 1_555
H22 C24 1_555 1_555
C25 C24 1_555 1_555
H23 C25 1_555 1_555
C26 C21 1_555 1_555
H24 C26 1_555 1_555
C27 C19 1_555 1_555
C28 O3 1_555 1_555
H25 C28 1_555 1_555
H26 C28 1_555 1_555
H27 C28 1_555 1_555
O4 C37 1_555 1_555
O5 C55 1_555 1_555
O6 C55 1_555 1_555
N4 N5 1_555 1_555
N5 C35 1_555 1_555
N6 H28 1_555 1_555
C29 N4 1_555 1_555
C30 C29 1_555 1_555
H29 C30 1_555 1_555
C31 C30 1_555 1_555
H30 C31 1_555 1_555
C32 C31 1_555 1_555
H31 C32 1_555 1_555
C33 C32 1_555 1_555
H32 C33 1_555 1_555
C34 C29 1_555 1_555
H33 C34 1_555 1_555
C35 C36 1_555 1_555
C36 C37 1_555 1_555
C37 N4 1_555 1_555
C38 C35 1_555 1_555
H34 C38 1_555 1_555
H35 C38 1_555 1_555
H36 C38 1_555 1_555
C39 N6 1_555 1_555
C40 C39 1_555 1_555
H37 C40 1_555 1_555
H38 C40 1_555 1_555
C41 C40 1_555 1_555
C42 C41 1_555 1_555
H39 C42 1_555 1_555
C43 C42 1_555 1_555
H40 C43 1_555 1_555
C44 C43 1_555 1_555
H41 C44 1_555 1_555
C45 C44 1_555 1_555
H42 C45 1_555 1_555
C46 C41 1_555 1_555
H43 C46 1_555 1_555
C47 N6 1_555 1_555
H44 C47 1_555 1_555
C48 C47 1_555 1_555
H45 C48 1_555 1_555
H46 C48 1_555 1_555
C49 C48 1_555 1_555
C50 C49 1_555 1_555
H47 C50 1_555 1_555
C51 C50 1_555 1_555
H48 C51 1_555 1_555
C52 C51 1_555 1_555
H49 C52 1_555 1_555
C53 C52 1_555 1_555
H50 C53 1_555 1_555
C54 C49 1_555 1_555
H51 C54 1_555 1_555
C55 C47 1_555 1_555
C56 O5 1_555 1_555
H52 C56 1_555 1_555
H53 C56 1_555 1_555
H54 C56 1_555 1_555
C5 C6 1_555 1_555
C8 C11 1_555 1_555
C17 C18 1_555 1_555
C25 C26 1_555 1_555
C33 C34 1_555 1_555
C36 C39 1_555 1_555
C45 C46 1_555 1_555
C53 C54 1_555 1_555

#END
