
#######################################################################
#
#                 Cambridge Crystallographic Data Centre
#                                CCDC 
#
#######################################################################
#
# If this CIF has been generated from an entry in the Cambridge 
# Structural Database, then it will include bibliographic, chemical, 
# crystal, experimental, refinement or atomic coordinate data resulting 
# from the CCDC's data processing and validation procedures.
#
#######################################################################

data_COVTEO
_chemical_formula_moiety         'C20 H12 F6 O2'
_chemical_name_systematic        
(E)-5-phenyl-5-(trifluoromethyl)-3-(3,3,3-trifluoro-2-phenylprop-1-en-1-yl)furan-2(5H)-one
_symmetry_cell_setting           triclinic
_symmetry_space_group_name_H-M   'P -1'
_symmetry_Int_Tables_number      2
_space_group_name_Hall           '-P 1'
loop_
_symmetry_equiv_pos_site_id
_symmetry_equiv_pos_as_xyz
1 x,y,z
2 -x,-y,-z
_cell_length_a                   8.9118(10)
_cell_length_b                   10.0774(11)
_cell_length_c                   10.3418(11)
_cell_angle_alpha                92.670(2)
_cell_angle_beta                 109.106(2)
_cell_angle_gamma                91.839(2)
_cell_volume                     875.556
_exptl_crystal_colour            colorless
_exptl_crystal_description       prismatic
_cell_formula_units_Z            2
_exptl_crystal_recrystallization_method 'n-hexane/ethyl acetate'
loop_
_atom_site_label
_atom_site_type_symbol
_atom_site_fract_x
_atom_site_fract_y
_atom_site_fract_z
F1 F 0.30593(18) -0.31978(12) 0.91150(15)
F2 F 0.29568(19) -0.13910(15) 1.02309(13)
F3 F 0.47494(16) -0.15898(15) 0.92915(16)
F4 F 0.52689(18) 0.38663(13) 0.60836(17)
F5 F 0.33757(19) 0.50365(12) 0.61856(16)
F6 F 0.5218(2) 0.46728(16) 0.80147(16)
O1 O 0.36484(19) -0.10074(15) 0.52220(17)
O2 O 0.25788(16) -0.18299(12) 0.67132(14)
C1 C 0.3186(2) -0.08109(18) 0.6167(2)
C2 C 0.3129(2) 0.04468(17) 0.69467(19)
C3 C 0.2505(2) 0.01554(17) 0.79017(19)
H1 H 0.2331 0.0773 0.8528
C4 C 0.2116(2) -0.13070(17) 0.78351(19)
C5 C 0.3225(3) -0.1891(2) 0.9121(2)
C6 C 0.0390(2) -0.17063(17) 0.75985(19)
C7 C -0.0644(3) -0.0801(2) 0.7822(3)
H2 H -0.0277 0.0066 0.8145
C8 C -0.2220(3) -0.1180(3) 0.7566(3)
H3 H -0.2910 -0.0561 0.7710
C9 C -0.2778(3) -0.2445(3) 0.7106(3)
H4 H -0.3843 -0.2691 0.6940
C10 C -0.1768(3) -0.3354(2) 0.6890(2)
H5 H -0.2146 -0.4221 0.6576
C11 C -0.0189(3) -0.29922(19) 0.7133(2)
H6 H 0.0492 -0.3617 0.6984
C12 C 0.3797(2) 0.17007(18) 0.6664(2)
H7 H 0.4552 0.1656 0.6222
C13 C 0.3403(2) 0.28989(17) 0.69917(18)
C14 C 0.4319(3) 0.4107(2) 0.6812(2)
C15 C 0.2072(2) 0.31386(16) 0.75298(18)
C16 C 0.0530(2) 0.2875(2) 0.6673(2)
H8 H 0.0338 0.2606 0.5758
C17 C -0.0726(3) 0.3005(2) 0.7155(3)
H9 H -0.1761 0.2821 0.6569
C18 C -0.0451(4) 0.3405(2) 0.8492(3)
H10 H -0.1299 0.3484 0.8822
C19 C 0.1073(4) 0.3690(2) 0.9353(3)
H11 H 0.1252 0.3965 1.0264
C20 C 0.2343(3) 0.3572(2) 0.8878(2)
H12 H 0.3374 0.3783 0.9460
loop_
_geom_bond_atom_site_label_1
_geom_bond_atom_site_label_2
_geom_bond_site_symmetry_1
_geom_bond_site_symmetry_2
F1 C5 1_555 1_555
F2 C5 1_555 1_555
F3 C5 1_555 1_555
F4 C14 1_555 1_555
F5 C14 1_555 1_555
F6 C14 1_555 1_555
O1 C1 1_555 1_555
O2 C1 1_555 1_555
C1 C2 1_555 1_555
C2 C3 1_555 1_555
C3 H1 1_555 1_555
C4 O2 1_555 1_555
C5 C4 1_555 1_555
C6 C4 1_555 1_555
C7 C6 1_555 1_555
H2 C7 1_555 1_555
C8 C7 1_555 1_555
H3 C8 1_555 1_555
C9 C8 1_555 1_555
H4 C9 1_555 1_555
C10 C9 1_555 1_555
H5 C10 1_555 1_555
C11 C6 1_555 1_555
H6 C11 1_555 1_555
C12 C2 1_555 1_555
H7 C12 1_555 1_555
C13 C12 1_555 1_555
C14 C13 1_555 1_555
C15 C13 1_555 1_555
C16 C15 1_555 1_555
H8 C16 1_555 1_555
C17 C16 1_555 1_555
H9 C17 1_555 1_555
C18 C17 1_555 1_555
H10 C18 1_555 1_555
C19 C18 1_555 1_555
H11 C19 1_555 1_555
C20 C15 1_555 1_555
H12 C20 1_555 1_555
C3 C4 1_555 1_555
C10 C11 1_555 1_555
C19 C20 1_555 1_555

#END
