
#######################################################################
#
#                 Cambridge Crystallographic Data Centre
#                                CCDC 
#
#######################################################################
#
# If this CIF has been generated from an entry in the Cambridge 
# Structural Database, then it will include bibliographic, chemical, 
# crystal, experimental, refinement or atomic coordinate data resulting 
# from the CCDC's data processing and validation procedures.
#
#######################################################################

data_COVZEU
_chemical_formula_moiety         'C28 H22 N4 O4 2+,2(I1 1-)'
_chemical_name_systematic        
"4,4'-(1,3,6,8-Tetraoxo-1,3,6,8-tetrahydrobenzo[lmn][3,8]phenanthroline-2,7-diyl)bis(1-ethylpyridinium) bis(iodide)"
_symmetry_cell_setting           monoclinic
_symmetry_space_group_name_H-M   'P 2/c'
_symmetry_Int_Tables_number      13
_space_group_name_Hall           '-P 2yc'
loop_
_symmetry_equiv_pos_site_id
_symmetry_equiv_pos_as_xyz
1 x,y,z
2 -x,y,1/2-z
3 -x,-y,-z
4 x,-y,1/2+z
_cell_length_a                   12.006(2)
_cell_length_b                   7.4721(15)
_cell_length_c                   16.822(6)
_cell_angle_alpha                90
_cell_angle_beta                 117.21(2)
_cell_angle_gamma                90
_cell_volume                     1342.1
_exptl_crystal_colour            red
_exptl_crystal_description       block
_cell_formula_units_Z            2
loop_
_atom_site_label
_atom_site_type_symbol
_atom_site_fract_x
_atom_site_fract_y
_atom_site_fract_z
O1 O 0.3389(3) 0.1717(6) 0.5112(3)
O2 O -0.0172(3) 0.5044(5) 0.3870(3)
N1 N 0.3252(4) 0.7219(6) 0.3572(3)
N2 N 0.1615(3) 0.3384(5) 0.4496(2)
C1 C 0.3684(13) 1.0307(17) 0.3383(11)
H1 H 0.2813 1.0616 0.3137
H2 H 0.4085 1.1074 0.3133
H3 H 0.4075 1.0456 0.4021
C2 C 0.3794(8) 0.8610(11) 0.3187(7)
H4 H 0.4676 0.8350 0.3399
H5 H 0.3386 0.8483 0.2542
C3 C 0.3762(5) 0.6877(8) 0.4448(4)
H6 H 0.4470 0.7508 0.4837
C4 C 0.3263(5) 0.5614(7) 0.4784(4)
H7 H 0.3616 0.5396 0.5396
C5 C 0.2219(4) 0.4672(6) 0.4189(3)
C6 C 0.1758(5) 0.4971(8) 0.3294(3)
H8 H 0.1097 0.4287 0.2885
C7 C 0.2283(5) 0.6300(9) 0.3001(4)
H9 H 0.1946 0.6547 0.2393
C8 C 0.2294(4) 0.1871(7) 0.4946(3)
C9 C 0.1620(4) 0.0502(7) 0.5190(3)
C10 C 0.0325(4) 0.0682(6) 0.4904(3)
C11 C -0.0337(4) 0.2209(6) 0.4426(3)
C12 C 0.0320(4) 0.3657(7) 0.4228(3)
C13 C 0.2248(4) -0.0975(7) 0.5676(4)
H10 H 0.3109 -0.1065 0.5881
C14 C -0.1610(4) 0.2342(7) 0.4137(3)
H11 H -0.2044 0.3342 0.3816
O1B O -0.3389(3) -0.1717(6) 0.4888(3)
O2B O 0.0172(3) -0.5044(5) 0.6130(3)
N1B N -0.3252(4) -0.7219(6) 0.6428(3)
N2B N -0.1615(3) -0.3384(5) 0.5504(2)
C1B C -0.3684(13) -1.0307(17) 0.6617(11)
H1B H -0.2813 -1.0616 0.6863
H2B H -0.4085 -1.1074 0.6867
H3B H -0.4075 -1.0456 0.5979
C2B C -0.3794(8) -0.8610(11) 0.6813(7)
H4B H -0.4676 -0.8350 0.6601
H5B H -0.3386 -0.8483 0.7458
C3B C -0.3762(5) -0.6877(8) 0.5552(4)
H6B H -0.4470 -0.7508 0.5163
C4B C -0.3263(5) -0.5614(7) 0.5216(4)
H7B H -0.3616 -0.5396 0.4604
C5B C -0.2219(4) -0.4672(6) 0.5811(3)
C6B C -0.1758(5) -0.4971(8) 0.6706(3)
H8B H -0.1097 -0.4287 0.7115
C7B C -0.2283(5) -0.6300(9) 0.6999(4)
H9B H -0.1946 -0.6547 0.7607
C8B C -0.2294(4) -0.1871(7) 0.5054(3)
C9B C -0.1620(4) -0.0502(7) 0.4810(3)
C10B C -0.0325(4) -0.0682(6) 0.5096(3)
C11B C 0.0337(4) -0.2209(6) 0.5574(3)
C12B C -0.0320(4) -0.3657(7) 0.5772(3)
C13B C -0.2248(4) 0.0975(7) 0.4324(4)
H10B H -0.3109 0.1065 0.4119
C14B C 0.1610(4) -0.2342(7) 0.5863(3)
H11B H 0.2044 -0.3342 0.6184
I1 I 0.5000 0.42782(8) 0.2500
I2 I 0.0000 0.02483(8) 0.2500
loop_
_geom_bond_atom_site_label_1
_geom_bond_atom_site_label_2
_geom_bond_site_symmetry_1
_geom_bond_site_symmetry_2
O1 C8 1_555 1_555
O2 C12 1_555 1_555
N1 C2 1_555 1_555
N2 C5 1_555 1_555
C1 H1 1_555 1_555
H2 C1 1_555 1_555
H3 C1 1_555 1_555
C2 C1 1_555 1_555
H4 C2 1_555 1_555
H5 C2 1_555 1_555
C3 N1 1_555 1_555
H6 C3 1_555 1_555
C4 C3 1_555 1_555
H7 C4 1_555 1_555
C5 C4 1_555 1_555
C6 C5 1_555 1_555
H8 C6 1_555 1_555
C7 N1 1_555 1_555
H9 C7 1_555 1_555
C8 N2 1_555 1_555
C9 C8 1_555 1_555
C10 C9 1_555 1_555
C11 C10 1_555 1_555
C12 N2 1_555 1_555
C13 C9 1_555 1_555
H10 C13 1_555 1_555
C14 C11 1_555 1_555
H11 C14 1_555 1_555
O1B C8B 1_555 1_555
O2B C12B 1_555 1_555
N1B C2B 1_555 1_555
N2B C5B 1_555 1_555
C1B H1B 1_555 1_555
H2B C1B 1_555 1_555
H3B C1B 1_555 1_555
C2B C1B 1_555 1_555
H4B C2B 1_555 1_555
H5B C2B 1_555 1_555
C3B N1B 1_555 1_555
H6B C3B 1_555 1_555
C4B C3B 1_555 1_555
H7B C4B 1_555 1_555
C5B C4B 1_555 1_555
C6B C5B 1_555 1_555
H8B C6B 1_555 1_555
C7B N1B 1_555 1_555
H9B C7B 1_555 1_555
C8B N2B 1_555 1_555
C9B C8B 1_555 1_555
C10B C10 1_555 1_555
C11B C10B 1_555 1_555
C12B N2B 1_555 1_555
C13B C14 1_555 1_555
H10B C13B 1_555 1_555
C14B C13 1_555 1_555
H11B C14B 1_555 1_555
C6 C7 1_555 1_555
C11 C12 1_555 1_555
C6B C7B 1_555 1_555
C9B C10B 1_555 1_555
C9B C13B 1_555 1_555
C11B C12B 1_555 1_555
C11B C14B 1_555 1_555

#END
