
#######################################################################
#
#                 Cambridge Crystallographic Data Centre
#                                CCDC 
#
#######################################################################
#
# If this CIF has been generated from an entry in the Cambridge 
# Structural Database, then it will include bibliographic, chemical, 
# crystal, experimental, refinement or atomic coordinate data resulting 
# from the CCDC's data processing and validation procedures.
#
#######################################################################

data_COVZIW
_chemical_compound_source        'Dysoxylum lenticellare'
_chemical_formula_moiety         'C40 H56 O2'
_chemical_name_systematic        Ferrubietolide
_symmetry_cell_setting           orthorhombic
_symmetry_space_group_name_H-M   'P 21 21 2'
_symmetry_Int_Tables_number      18
_space_group_name_Hall           'P 2 2ab'
loop_
_symmetry_equiv_pos_site_id
_symmetry_equiv_pos_as_xyz
1 x,y,z
2 1/2+x,1/2-y,-z
3 1/2-x,1/2+y,-z
4 -x,-y,z
_cell_length_a                   19.108(2)
_cell_length_b                   24.111(3)
_cell_length_c                   7.093(1)
_cell_angle_alpha                90
_cell_angle_beta                 90
_cell_angle_gamma                90
_cell_volume                     3267.84
_chemical_melting_point          239-240deg.C
_cell_formula_units_Z            4
loop_
_atom_site_label
_atom_site_type_symbol
_atom_site_fract_x
_atom_site_fract_y
_atom_site_fract_z
C1 C -0.1847(2) 0.0137(2) 0.3940(6)
C2 C -0.2511(2) -0.0178(2) 0.3415(6)
C3 C -0.2975(2) 0.0189(2) 0.2214(6)
C4 C -0.2626(2) 0.0376(2) 0.0362(6)
C5 C -0.1910(2) 0.0650(1) 0.0858(5)
C6 C -0.1492(2) 0.0852(2) -0.0815(5)
C7 C -0.0930(2) 0.1263(2) -0.0236(5)
C8 C -0.0608(2) 0.1156(1) 0.1683(5)
C9 C -0.0831(2) 0.0721(1) 0.2840(5)
C10 C -0.1421(2) 0.0327(1) 0.2225(5)
C11 C -0.0489(2) 0.0632(1) 0.4572(5)
C12 C 0.0063(2) 0.0966(1) 0.5021(5)
C13 C 0.0291(2) 0.1406(1) 0.3922(5)
C14 C -0.0043(2) 0.1492(1) 0.2226(5)
C15 C 0.0943(2) 0.1648(1) 0.4825(5)
C16 C 0.1050(2) 0.1247(1) 0.6473(6)
C17 C 0.1585(2) 0.1655(1) 0.3462(6)
C18 C -0.1057(2) -0.0183(1) 0.1332(7)
C19 C -0.2571(2) -0.0122(2) -0.1003(6)
C20 C -0.3102(2) 0.0806(2) -0.0562(9)
O1 O 0.0492(1) 0.0882(1) 0.6599(4)
O2 O 0.1516(1) 0.1222(1) 0.7584(5)
C21 C 0.0153(2) 0.3544(2) 0.2914(5)
C22 C -0.0213(3) 0.4099(2) 0.3400(7)
C23 C -0.0792(2) 0.4012(2) 0.4847(6)
C24 C -0.0546(2) 0.3739(2) 0.6687(6)
C25 C -0.0143(2) 0.3194(1) 0.6154(5)
C26 C 0.0096(2) 0.2851(1) 0.7848(5)
C27 C 0.0282(2) 0.2263(1) 0.7216(5)
C28 C 0.0856(2) 0.2259(1) 0.5715(5)
C29 C 0.0672(2) 0.2652(1) 0.4051(5)
C30 C 0.0457(2) 0.3255(1) 0.4665(5)
C31 C 0.1281(2) 0.2631(1) 0.2595(5)
C32 C 0.1869(2) 0.2253(1) 0.3321(6)
C33 C 0.2091(2) 0.2410(1) 0.5283(6)
C34 C 0.1563(2) 0.2406(1) 0.6514(5)
C35 C 0.2856(2) 0.2516(2) 0.5733(7)
C36 C 0.3126(2) 0.3038(2) 0.4746(9)
C37 C 0.3010(2) 0.2537(3) 0.7807(9)
C38 C 0.1085(2) 0.3593(1) 0.5400(6)
C39 C -0.0111(2) 0.4159(2) 0.7858(6)
C40 C -0.1194(2) 0.3592(2) 0.7853(7)
H1 H -0.201 0.051 0.476
H2 H -0.152 -0.012 0.485
H3 H -0.279 -0.031 0.467
H4 H -0.236 -0.055 0.259
H5 H -0.312 0.056 0.301
H6 H -0.346 -0.004 0.184
H7 H -0.207 0.102 0.161
H8 H -0.184 0.105 -0.184
H9 H -0.124 0.049 -0.150
H10 H -0.117 0.168 -0.022
H11 H -0.051 0.126 -0.130
H12 H -0.066 0.028 0.546
H13 H 0.013 0.183 0.134
H14 H 0.143 0.151 0.209
H15 H 0.200 0.138 0.404
H16 H -0.148 -0.046 0.094
H17 H -0.075 -0.005 0.014
H18 H -0.071 -0.040 0.233
H19 H -0.230 0.000 -0.229
H20 H -0.305 -0.032 -0.135
H21 H -0.222 -0.044 -0.035
H22 H -0.284 0.094 -0.184
H23 H -0.359 0.062 -0.089
H24 H -0.314 0.117 0.041
H25 H -0.023 0.327 0.229
H26 H 0.057 0.362 0.194
H27 H -0.044 0.427 0.208
H28 H 0.017 0.440 0.392
H29 H -0.120 0.375 0.422
H30 H -0.102 0.442 0.520
H31 H -0.054 0.296 0.545
H32 H -0.033 0.282 0.887
H33 H 0.055 0.303 0.850
H34 H -0.019 0.207 0.659
H35 H 0.045 0.202 0.841
H36 H 0.021 0.248 0.334
H37 H 0.109 0.247 0.126
H38 H 0.149 0.305 0.240
H39 H 0.231 0.227 0.236
H40 H 0.173 0.253 0.796
H41 H 0.315 0.218 0.515
H42 H 0.366 0.313 0.511
H43 H 0.300 0.304 0.327
H44 H 0.280 0.338 0.540
H45 H 0.354 0.262 0.814
H46 H 0.281 0.216 0.850
H47 H 0.269 0.288 0.834
H48 H 0.131 0.338 0.665
H49 H 0.151 0.362 0.438
H50 H 0.094 0.400 0.586
H51 H 0.006 0.397 0.915
H52 H -0.040 0.454 0.822
H53 H 0.035 0.427 0.701
H54 H -0.101 0.339 0.916
H55 H -0.147 0.397 0.823
loop_
_geom_bond_atom_site_label_1
_geom_bond_atom_site_label_2
_geom_bond_site_symmetry_1
_geom_bond_site_symmetry_2
C1 C2 1_555 1_555
C2 C3 1_555 1_555
C3 C4 1_555 1_555
C4 C5 1_555 1_555
C5 C6 1_555 1_555
C6 C7 1_555 1_555
C7 C8 1_555 1_555
C8 C9 1_555 1_555
C9 C10 1_555 1_555
C10 C1 1_555 1_555
C11 C9 1_555 1_555
C12 C11 1_555 1_555
C13 C12 1_555 1_555
C14 C8 1_555 1_555
C15 C13 1_555 1_555
C16 C15 1_555 1_555
C17 C15 1_555 1_555
C18 C10 1_555 1_555
C19 C4 1_555 1_555
C20 C4 1_555 1_555
O1 C12 1_555 1_555
O2 C16 1_555 1_555
C21 C22 1_555 1_555
C22 C23 1_555 1_555
C23 C24 1_555 1_555
C24 C25 1_555 1_555
C25 C26 1_555 1_555
C26 C27 1_555 1_555
C27 C28 1_555 1_555
C28 C15 1_555 1_555
C29 C28 1_555 1_555
C30 C21 1_555 1_555
C31 C29 1_555 1_555
C32 C17 1_555 1_555
C33 C32 1_555 1_555
C34 C28 1_555 1_555
C35 C33 1_555 1_555
C36 C35 1_555 1_555
C37 C35 1_555 1_555
C38 C30 1_555 1_555
C39 C24 1_555 1_555
C40 C24 1_555 1_555
H1 C1 1_555 1_555
H2 C1 1_555 1_555
H3 C2 1_555 1_555
H4 C2 1_555 1_555
H5 C3 1_555 1_555
H6 C3 1_555 1_555
H7 C5 1_555 1_555
H8 C6 1_555 1_555
H9 C6 1_555 1_555
H10 C7 1_555 1_555
H11 C7 1_555 1_555
H12 C11 1_555 1_555
H13 C14 1_555 1_555
H14 C17 1_555 1_555
H15 C17 1_555 1_555
H16 C18 1_555 1_555
H17 C18 1_555 1_555
H18 C18 1_555 1_555
H19 C19 1_555 1_555
H20 C19 1_555 1_555
H21 C19 1_555 1_555
H22 C20 1_555 1_555
H23 C20 1_555 1_555
H24 C20 1_555 1_555
H25 C21 1_555 1_555
H26 C21 1_555 1_555
H27 C22 1_555 1_555
H28 C22 1_555 1_555
H29 C23 1_555 1_555
H30 C23 1_555 1_555
H31 C25 1_555 1_555
H32 C26 1_555 1_555
H33 C26 1_555 1_555
H34 C27 1_555 1_555
H35 C27 1_555 1_555
H36 C29 1_555 1_555
H37 C31 1_555 1_555
H38 C31 1_555 1_555
H39 C32 1_555 1_555
H40 C34 1_555 1_555
H41 C35 1_555 1_555
H42 C36 1_555 1_555
H43 C36 1_555 1_555
H44 C36 1_555 1_555
H45 C37 1_555 1_555
H46 C37 1_555 1_555
H47 C37 1_555 1_555
H48 C38 1_555 1_555
H49 C38 1_555 1_555
H50 C38 1_555 1_555
H51 C39 1_555 1_555
H52 C39 1_555 1_555
H53 C39 1_555 1_555
H54 C40 1_555 1_555
H55 C40 1_555 1_555
C5 C10 1_555 1_555
C13 C14 1_555 1_555
C16 O1 1_555 1_555
C25 C30 1_555 1_555
C29 C30 1_555 1_555
C31 C32 1_555 1_555
C33 C34 1_555 1_555

#END
