
#######################################################################
#
#                 Cambridge Crystallographic Data Centre
#                                CCDC 
#
#######################################################################
#
# If this CIF has been generated from an entry in the Cambridge 
# Structural Database, then it will include bibliographic, chemical, 
# crystal, experimental, refinement or atomic coordinate data resulting 
# from the CCDC's data processing and validation procedures.
#
#######################################################################

data_COWGEB
_chemical_formula_moiety         'C8 H10 N2 O3'
_chemical_name_systematic        "N-Methoxy-N'-p-methoxyphenyldi-imide N'-oxide"
_symmetry_cell_setting           orthorhombic
_symmetry_space_group_name_H-M   'P n a 21'
_symmetry_Int_Tables_number      33
_space_group_name_Hall           'P 2c -2n'
loop_
_symmetry_equiv_pos_site_id
_symmetry_equiv_pos_as_xyz
1 x,y,z
2 -x,-y,1/2+z
3 1/2+x,1/2-y,z
4 1/2-x,1/2+y,1/2+z
_cell_length_a                   11.553(2)
_cell_length_b                   21.960(4)
_cell_length_c                   6.9610(14)
_cell_angle_alpha                90
_cell_angle_beta                 90
_cell_angle_gamma                90
_cell_volume                     1766.03
_exptl_crystal_colour            colorless
_exptl_crystal_description       block
_chemical_melting_point          '62-63 deg.C'
_cell_formula_units_Z            8
loop_
_atom_site_label
_atom_site_type_symbol
_atom_site_fract_x
_atom_site_fract_y
_atom_site_fract_z
O1 O 0.6309(3) 0.90781(16) 0.9391(8)
O2 O 0.5072(3) 0.63183(16) 0.9898(11)
O3 O 0.6786(3) 0.56556(15) 0.9881(10)
N1 N 0.6066(4) 0.6550(2) 0.9791(11)
N2 N 0.7018(4) 0.62664(18) 0.9777(9)
C1 C 0.7381(5) 0.9386(2) 0.9740(17)
H1 H 0.7270 0.9817 0.9603
H2 H 0.7949 0.9249 0.8832
H3 H 0.7641 0.9297 1.1019
C2 C 0.6310(5) 0.8461(3) 0.9519(10)
C3 C 0.5303(5) 0.8170(3) 0.8988(10)
H4 H 0.4674 0.8397 0.8562
C4 C 0.5222(6) 0.7538(2) 0.9085(12)
H5 H 0.4541 0.7342 0.8734
C5 C 0.6165(4) 0.7208(2) 0.9708(10)
C6 C 0.7170(6) 0.7493(2) 1.0290(11)
H6 H 0.7780 0.7266 1.0786
C7 C 0.7265(4) 0.8123(2) 1.0129(11)
H7 H 0.7958 0.8317 1.0425
C8 C 0.7872(5) 0.5338(2) 0.9789(16)
H8 H 0.7737 0.4908 0.9869
H9 H 0.8354 0.5464 1.0841
H10 H 0.8251 0.5431 0.8597
O4 O 0.6207(3) 0.09438(16) 0.9664(10)
O5 O 0.7463(3) 0.37166(15) 0.9825(10)
O6 O 0.5727(3) 0.43613(15) 0.9927(12)
N3 N 0.6469(4) 0.3473(2) 0.9804(9)
N4 N 0.5515(4) 0.3748(2) 0.9890(11)
C9 C 0.5138(5) 0.0648(2) 0.9360(14)
H11 H 0.5248 0.0215 0.9426
H12 H 0.4843 0.0755 0.8116
H13 H 0.4597 0.0772 1.0330
C10 C 0.6236(5) 0.1569(2) 0.9636(12)
C11 C 0.7237(4) 0.1839(2) 1.0183(12)
H14 H 0.7869 0.1600 1.0520
C12 C 0.7330(6) 0.2467(2) 1.0248(13)
H15 H 0.8012 0.2654 1.0643
C13 C 0.6388(4) 0.2805(2) 0.9712(10)
C14 C 0.5377(6) 0.2548(2) 0.9098(12)
H16 H 0.4758 0.2791 0.8720
C15 C 0.5287(5) 0.1915(2) 0.9046(10)
H17 H 0.4610 0.1728 0.8628
C16 C 0.4626(5) 0.4669(3) 0.9956(18)
H18 H 0.4748 0.5101 0.9968
H19 H 0.4204 0.4551 1.1085
H20 H 0.4190 0.4559 0.8834
loop_
_geom_bond_atom_site_label_1
_geom_bond_atom_site_label_2
_geom_bond_site_symmetry_1
_geom_bond_site_symmetry_2
O1 C1 1_555 1_555
O2 N1 1_555 1_555
O3 N2 1_555 1_555
N1 N2 1_555 1_555
C1 H1 1_555 1_555
H2 C1 1_555 1_555
H3 C1 1_555 1_555
C2 O1 1_555 1_555
C3 C2 1_555 1_555
H4 C3 1_555 1_555
C4 C3 1_555 1_555
H5 C4 1_555 1_555
C5 N1 1_555 1_555
C6 C5 1_555 1_555
H6 C6 1_555 1_555
C7 C2 1_555 1_555
H7 C7 1_555 1_555
C8 O3 1_555 1_555
H8 C8 1_555 1_555
H9 C8 1_555 1_555
H10 C8 1_555 1_555
O4 C9 1_555 1_555
O5 N3 1_555 1_555
O6 N4 1_555 1_555
N3 N4 1_555 1_555
C9 H11 1_555 1_555
H12 C9 1_555 1_555
H13 C9 1_555 1_555
C10 O4 1_555 1_555
C11 C10 1_555 1_555
H14 C11 1_555 1_555
C12 C11 1_555 1_555
H15 C12 1_555 1_555
C13 N3 1_555 1_555
C14 C13 1_555 1_555
H16 C14 1_555 1_555
C15 C10 1_555 1_555
H17 C15 1_555 1_555
C16 O6 1_555 1_555
H18 C16 1_555 1_555
H19 C16 1_555 1_555
H20 C16 1_555 1_555
C4 C5 1_555 1_555
C6 C7 1_555 1_555
C12 C13 1_555 1_555
C14 C15 1_555 1_555

#END
