
#######################################################################
#
#                 Cambridge Crystallographic Data Centre
#                                CCDC 
#
#######################################################################
#
# If this CIF has been generated from an entry in the Cambridge 
# Structural Database, then it will include bibliographic, chemical, 
# crystal, experimental, refinement or atomic coordinate data resulting 
# from the CCDC's data processing and validation procedures.
#
#######################################################################

data_COWMUY
_chemical_formula_moiety         'C25 H23 N3'
_chemical_name_systematic        
10-t-butyl-3-(4-methylphenyl)[1,2,3]triazolo[1,5-f]phenanthridine
_symmetry_cell_setting           orthorhombic
_symmetry_space_group_name_H-M   'P 21 21 21'
_symmetry_Int_Tables_number      19
_space_group_name_Hall           'P 2ac 2ab'
loop_
_symmetry_equiv_pos_site_id
_symmetry_equiv_pos_as_xyz
1 x,y,z
2 1/2-x,-y,1/2+z
3 -x,1/2+y,1/2-z
4 1/2+x,1/2-y,-z
_cell_length_a                   7.1020(4)
_cell_length_b                   12.3772(6)
_cell_length_c                   22.4906(10)
_cell_angle_alpha                90
_cell_angle_beta                 90
_cell_angle_gamma                90
_cell_volume                     1976.99
_exptl_crystal_colour            white
_exptl_crystal_description       needle
_cell_formula_units_Z            4
_exptl_crystal_recrystallization_method 'dichloromethane/petroleum ether'
loop_
_atom_site_label
_atom_site_type_symbol
_atom_site_fract_x
_atom_site_fract_y
_atom_site_fract_z
C1 C -0.5052(4) -0.38951(19) -0.01162(9)
C2 C -0.4624(4) -0.0577(2) -0.05491(12)
H1 H -0.4553 -0.0048 -0.0256
C3 C -0.4872(4) -0.20176(19) 0.02365(10)
C4 C -0.4909(4) -0.24082(19) -0.08456(9)
C5 C -0.4798(4) -0.16615(19) -0.03812(10)
N1 N -0.5047(3) -0.35055(16) -0.06859(8)
C6 C -0.4695(4) -0.1027(2) -0.16013(11)
N2 N -0.5339(4) -0.52173(18) -0.07854(9)
N3 N -0.5224(4) -0.43078(17) -0.10897(9)
C7 C -0.4556(4) -0.0274(2) -0.11375(12)
H2 H -0.4412 0.0453 -0.1230
C8 C -0.5067(4) -0.3461(2) 0.09689(10)
H3 H -0.5151 -0.4192 0.1060
C9 C -0.5231(4) -0.50063(19) -0.01908(10)
C10 C -0.4981(4) -0.31332(19) 0.03727(9)
C11 C -0.4853(5) -0.1281(2) 0.07130(11)
H4 H -0.4787 -0.0545 0.0634
C12 C -0.4931(5) -0.1626(2) 0.12903(11)
H5 H -0.4916 -0.1124 0.1598
C13 C -0.4663(5) -0.0642(2) -0.22487(11)
C14 C -0.4874(4) -0.21098(19) -0.14425(10)
H6 H -0.4970 -0.2636 -0.1736
C15 C -0.5298(4) -0.5904(2) 0.02397(10)
C16 C -0.5437(5) -0.7640(2) 0.10471(12)
C17 C -0.5031(5) -0.2718(2) 0.14187(11)
H7 H -0.5073 -0.2947 0.1812
C18 C -0.4642(6) -0.1581(3) -0.26841(12)
H8 H -0.3548 -0.2018 -0.2614
H9 H -0.4609 -0.1308 -0.3083
H10 H -0.5755 -0.2010 -0.2630
C19 C -0.3969(5) -0.6018(3) 0.06815(13)
H11 H -0.3005 -0.5513 0.0712
C20 C -0.5488(7) -0.8568(3) 0.14791(15)
H12 H -0.4287 -0.8924 0.1482
H13 H -0.6446 -0.9071 0.1361
H14 H -0.5763 -0.8300 0.1870
C21 C -0.6677(5) -0.6689(2) 0.01983(13)
H15 H -0.7573 -0.6646 -0.0102
C22 C -0.4040(5) -0.6867(2) 0.10800(13)
H16 H -0.3129 -0.6918 0.1376
C23 C -0.6742(5) -0.7536(2) 0.05966(14)
H17 H -0.7689 -0.8051 0.0560
C24 C -0.2939(6) 0.0059(3) -0.23590(16)
H18 H -0.2959 0.0667 -0.2094
H19 H -0.2948 0.0310 -0.2763
H20 H -0.1820 -0.0358 -0.2290
C25 C -0.6441(6) 0.0037(3) -0.23611(14)
H21 H -0.7537 -0.0387 -0.2273
H22 H -0.6474 0.0258 -0.2770
H23 H -0.6421 0.0664 -0.2110
loop_
_geom_bond_atom_site_label_1
_geom_bond_atom_site_label_2
_geom_bond_site_symmetry_1
_geom_bond_site_symmetry_2
C1 N1 1_555 1_555
C2 H1 1_555 1_555
C3 C5 1_555 1_555
C4 C5 1_555 1_555
C5 C2 1_555 1_555
N1 C4 1_555 1_555
C6 C7 1_555 1_555
N2 N3 1_555 1_555
N3 N1 1_555 1_555
C7 C2 1_555 1_555
H2 C7 1_555 1_555
C8 H3 1_555 1_555
C9 C1 1_555 1_555
C10 C1 1_555 1_555
C11 C3 1_555 1_555
H4 C11 1_555 1_555
C12 C11 1_555 1_555
H5 C12 1_555 1_555
C13 C6 1_555 1_555
C14 C4 1_555 1_555
H6 C14 1_555 1_555
C15 C9 1_555 1_555
C16 C20 1_555 1_555
C17 C8 1_555 1_555
H7 C17 1_555 1_555
C18 C13 1_555 1_555
H8 C18 1_555 1_555
H9 C18 1_555 1_555
H10 C18 1_555 1_555
C19 C15 1_555 1_555
H11 C19 1_555 1_555
C20 H12 1_555 1_555
H13 C20 1_555 1_555
H14 C20 1_555 1_555
C21 C15 1_555 1_555
H15 C21 1_555 1_555
C22 C16 1_555 1_555
H16 C22 1_555 1_555
C23 C16 1_555 1_555
H17 C23 1_555 1_555
C24 C13 1_555 1_555
H18 C24 1_555 1_555
H19 C24 1_555 1_555
H20 C24 1_555 1_555
C25 C13 1_555 1_555
H21 C25 1_555 1_555
H22 C25 1_555 1_555
H23 C25 1_555 1_555
C3 C10 1_555 1_555
C6 C14 1_555 1_555
N2 C9 1_555 1_555
C8 C10 1_555 1_555
C12 C17 1_555 1_555
C19 C22 1_555 1_555
C21 C23 1_555 1_555

#END
