
#######################################################################
#
#                 Cambridge Crystallographic Data Centre
#                                CCDC 
#
#######################################################################
#
# If this CIF has been generated from an entry in the Cambridge 
# Structural Database, then it will include bibliographic, chemical, 
# crystal, experimental, refinement or atomic coordinate data resulting 
# from the CCDC's data processing and validation procedures.
#
#######################################################################

data_COWNOT
_chemical_formula_moiety         'C20 H6 Br2 N6 S3,1.5(C1 H1 Cl3)'
_chemical_name_systematic        
'3,9-dibromo-6,16,25-trithia-5,7,15,17,24,26-hexaazaoctacyclo[9.9.9.0^2,10^.0^4,8^.0^12,20^.0^14,18^.0^21,29^.0^23,27^]nonacosa-2,4,7,9,12,14,17,19,21,23,26,28-dodecaene chloroform solvate'
_symmetry_cell_setting           triclinic
_symmetry_space_group_name_H-M   'P -1'
_symmetry_Int_Tables_number      2
_space_group_name_Hall           '-P 1'
loop_
_symmetry_equiv_pos_site_id
_symmetry_equiv_pos_as_xyz
1 x,y,z
2 -x,-y,-z
_cell_length_a                   12.1222(17)
_cell_length_b                   14.7190(19)
_cell_length_c                   15.016(2)
_cell_angle_alpha                81.818(3)
_cell_angle_beta                 81.662(4)
_cell_angle_gamma                87.213(3)
_cell_volume                     2622.88
_exptl_crystal_colour            yellow
_exptl_crystal_description       polyhedron
_cell_formula_units_Z            4
loop_
_atom_site_label
_atom_site_type_symbol
_atom_site_fract_x
_atom_site_fract_y
_atom_site_fract_z
Br1 Br 0.18630(4) -0.05264(3) 0.66351(4)
Br2 Br 0.31979(4) 0.38227(3) 0.63142(4)
C1 C 0.0573(4) 0.1079(3) 0.7779(3)
H1 H 0.0386 0.0417 0.7850
C2 C 0.1052(4) 0.2803(3) 0.7604(3)
H2 H 0.1236 0.3467 0.7534
C3 C -0.0394(4) 0.1714(3) 0.7526(3)
C4 C -0.0131(4) 0.2670(3) 0.7425(3)
C5 C -0.0898(4) 0.3350(3) 0.7244(3)
H3 H -0.0714 0.3978 0.7178
C6 C -0.1982(4) 0.3087(3) 0.7158(3)
C7 C -0.2232(4) 0.2131(3) 0.7227(3)
C8 C -0.1421(4) 0.1441(3) 0.7429(3)
H4 H -0.1587 0.0809 0.7495
N1 N -0.2860(3) 0.3656(3) 0.7017(3)
S1 S -0.38871(11) 0.30111(10) 0.69669(11)
N2 N -0.3300(3) 0.1998(3) 0.7120(3)
C9 C 0.0896(4) 0.1352(3) 0.8643(3)
C10 C 0.1135(4) 0.2318(3) 0.8554(3)
C11 C 0.1402(4) 0.2710(3) 0.9256(3)
H5 H 0.1573 0.3342 0.9188
C12 C 0.1413(5) 0.2134(4) 1.0092(4)
C13 C 0.1216(5) 0.1176(4) 1.0182(4)
C14 C 0.0965(4) 0.0780(3) 0.9424(3)
H6 H 0.0852 0.0140 0.9465
N3 N 0.1595(5) 0.2406(4) 1.0881(3)
S2 S 0.1520(2) 0.14961(14) 1.16215(12)
N4 N 0.1256(5) 0.0724(4) 1.1020(3)
C15 C 0.1577(4) 0.1312(3) 0.7065(3)
C16 C 0.1862(4) 0.2269(3) 0.6981(3)
C17 C 0.2802(4) 0.2586(3) 0.6464(3)
C18 C 0.3540(4) 0.1961(3) 0.6014(3)
C19 C 0.3249(4) 0.1020(3) 0.6075(3)
C20 C 0.2237(4) 0.0714(3) 0.6595(3)
N5 N 0.4545(3) 0.2147(3) 0.5540(3)
S3 S 0.50494(11) 0.11968(9) 0.52133(10)
N6 N 0.4046(3) 0.0513(3) 0.5639(3)
Br3 Br 0.10772(4) 0.43096(3) 0.45522(4)
Br4 Br 0.30346(4) 0.02763(3) 0.34718(3)
C21 C 0.3370(4) 0.3908(3) 0.3166(3)
H7 H 0.3070 0.4517 0.3327
C22 C 0.4162(4) 0.2326(3) 0.2740(3)
H8 H 0.4464 0.1718 0.2575
C23 C 0.3530(4) 0.3873(3) 0.2151(3)
C24 C 0.3960(4) 0.2993(3) 0.1916(3)
C25 C 0.4201(4) 0.2825(3) 0.1034(3)
H9 H 0.4483 0.2242 0.0887
C26 C 0.4012(5) 0.3557(4) 0.0353(4)
C27 C 0.3589(5) 0.4437(4) 0.0581(4)
C28 C 0.3345(4) 0.4588(3) 0.1505(4)
H10 H 0.3062 0.5165 0.1664
N7 N 0.4207(5) 0.3535(3) -0.0548(3)
S4 S 0.38836(18) 0.45423(12) -0.10294(11)
N8 N 0.3484(5) 0.5064(3) -0.0150(3)
C29 C 0.4512(4) 0.3652(3) 0.3475(3)
C30 C 0.4958(4) 0.2788(3) 0.3222(3)
C31 C 0.5967(4) 0.2449(3) 0.3416(3)
H11 H 0.6267 0.1890 0.3224
C32 C 0.6563(4) 0.2956(3) 0.3917(4)
C33 C 0.6089(4) 0.3798(3) 0.4194(3)
C34 C 0.5046(4) 0.4159(3) 0.3963(3)
H12 H 0.4737 0.4723 0.4138
N9 N 0.7546(3) 0.2709(3) 0.4208(3)
S5 S 0.78205(11) 0.35086(9) 0.47774(11)
N10 N 0.6734(3) 0.4183(3) 0.4697(3)
C35 C 0.2625(3) 0.3115(3) 0.3624(3)
C36 C 0.3066(3) 0.2240(3) 0.3382(3)
C37 C 0.2507(3) 0.1456(3) 0.3724(3)
C38 C 0.1476(3) 0.1512(3) 0.4293(3)
C39 C 0.1049(4) 0.2376(3) 0.4542(3)
C40 C 0.1667(4) 0.3186(3) 0.4198(3)
N11 N 0.0795(3) 0.0813(2) 0.4634(3)
S6 S -0.02705(10) 0.12533(8) 0.52238(9)
N12 N 0.0069(3) 0.2320(3) 0.5081(3)
C41 C 0.4870(5) 0.0567(4) 0.8301(4)
H13 H 0.5211 0.0771 0.7661
Cl1 Cl 0.39210(15) -0.02851(13) 0.82859(15)
Cl2 Cl 0.59380(14) 0.01273(14) 0.89172(12)
Cl3 Cl 0.41986(15) 0.15222(12) 0.87376(14)
C42 C 0.7533(12) 0.2776(11) 0.0286(8)
H14 H 0.6924 0.3189 0.0539
Cl4 Cl 0.7997(6) 0.2097(3) 0.1207(3)
Cl5 Cl 0.8568(3) 0.3486(4) -0.0334(3)
Cl6 Cl 0.6961(11) 0.2166(12) -0.0428(9)
C44 C 1.0394(8) 0.5916(9) -0.1663(8)
H16 H 1.0413 0.6460 -0.1336
Cl10 Cl 0.9684(4) 0.5051(4) -0.0942(4)
Cl11 Cl 0.9729(3) 0.6233(4) -0.2618(2)
Cl12 Cl 1.1742(5) 0.5532(5) -0.1982(5)
C43? C 0.7400(11) 0.2820(13) 0.0171(8)
H15? H 0.7089 0.3450 -0.0011
Cl7? Cl 0.7115(4) 0.2560(4) 0.1341(2)
Cl8? Cl 0.8825(4) 0.2809(7) -0.0188(5)
Cl9? Cl 0.6773(7) 0.2056(8) -0.0344(8)
C45? C 1.0560(10) 0.6163(8) -0.1910(11)
H17? H 1.0799 0.6328 -0.1345
Cl13? Cl 0.9302(4) 0.5611(4) -0.1610(4)
Cl14? Cl 1.0359(4) 0.7180(3) -0.2633(3)
Cl15? Cl 1.1610(5) 0.5463(4) -0.2411(5)
loop_
_geom_bond_atom_site_label_1
_geom_bond_atom_site_label_2
_geom_bond_site_symmetry_1
_geom_bond_site_symmetry_2
Br1 C20 1_555 1_555
Br2 C17 1_555 1_555
C1 H1 1_555 1_555
C2 H2 1_555 1_555
C3 C1 1_555 1_555
C4 C2 1_555 1_555
C5 C4 1_555 1_555
H3 C5 1_555 1_555
C6 C5 1_555 1_555
C7 C6 1_555 1_555
C8 C3 1_555 1_555
H4 C8 1_555 1_555
N1 C6 1_555 1_555
S1 N1 1_555 1_555
N2 C7 1_555 1_555
C9 C1 1_555 1_555
C10 C2 1_555 1_555
C11 C10 1_555 1_555
H5 C11 1_555 1_555
C12 C11 1_555 1_555
C13 C12 1_555 1_555
C14 C9 1_555 1_555
H6 C14 1_555 1_555
N3 C12 1_555 1_555
S2 N3 1_555 1_555
N4 C13 1_555 1_555
C15 C1 1_555 1_555
C16 C2 1_555 1_555
C17 C16 1_555 1_555
C18 C17 1_555 1_555
C19 C18 1_555 1_555
C20 C15 1_555 1_555
N5 C18 1_555 1_555
S3 N5 1_555 1_555
N6 C19 1_555 1_555
Br3 C40 1_555 1_555
Br4 C37 1_555 1_555
C21 H7 1_555 1_555
C22 H8 1_555 1_555
C23 C21 1_555 1_555
C24 C22 1_555 1_555
C25 C24 1_555 1_555
H9 C25 1_555 1_555
C26 C25 1_555 1_555
C27 C26 1_555 1_555
C28 C23 1_555 1_555
H10 C28 1_555 1_555
N7 C26 1_555 1_555
S4 N7 1_555 1_555
N8 C27 1_555 1_555
C29 C21 1_555 1_555
C30 C22 1_555 1_555
C31 C30 1_555 1_555
H11 C31 1_555 1_555
C32 C31 1_555 1_555
C33 C32 1_555 1_555
C34 C29 1_555 1_555
H12 C34 1_555 1_555
N9 C32 1_555 1_555
S5 N9 1_555 1_555
N10 C33 1_555 1_555
C35 C21 1_555 1_555
C36 C22 1_555 1_555
C37 C36 1_555 1_555
C38 C37 1_555 1_555
C39 C38 1_555 1_555
C40 C35 1_555 1_555
N11 C38 1_555 1_555
S6 N11 1_555 1_555
N12 C39 1_555 1_555
C41 H13 1_555 1_555
Cl1 C41 1_555 1_555
Cl2 C41 1_555 1_555
Cl3 C41 1_555 1_555
C42 H14 1_555 1_555
Cl4 C42 1_555 1_555
Cl5 C42 1_555 1_555
Cl6 C42 1_555 1_555
C44 H16 1_555 1_555
Cl10 C44 1_555 1_555
Cl11 C44 1_555 1_555
Cl12 C44 1_555 1_555
C3 C4 1_555 1_555
C7 C8 1_555 1_555
S1 N2 1_555 1_555
C9 C10 1_555 1_555
C13 C14 1_555 1_555
S2 N4 1_555 1_555
C15 C16 1_555 1_555
C19 C20 1_555 1_555
S3 N6 1_555 1_555
C23 C24 1_555 1_555
C27 C28 1_555 1_555
S4 N8 1_555 1_555
C29 C30 1_555 1_555
C33 C34 1_555 1_555
S5 N10 1_555 1_555
C35 C36 1_555 1_555
C39 C40 1_555 1_555
S6 N12 1_555 1_555

#END
