
#######################################################################
#
#                 Cambridge Crystallographic Data Centre
#                                CCDC 
#
#######################################################################
#
# If this CIF has been generated from an entry in the Cambridge 
# Structural Database, then it will include bibliographic, chemical, 
# crystal, experimental, refinement or atomic coordinate data resulting 
# from the CCDC's data processing and validation procedures.
#
#######################################################################

data_COWPUZ
_chemical_formula_moiety         'C13 H24 O4'
_chemical_name_systematic        
'Methyl \a(R),5(S)-dimethyl-6(R)-(1(S)-hydroxypropyl)-tetrahydropyran-2(R)-acetate'
_symmetry_cell_setting           orthorhombic
_symmetry_space_group_name_H-M   'P 21 21 21'
_symmetry_Int_Tables_number      19
_space_group_name_Hall           'P 2ac 2ab'
loop_
_symmetry_equiv_pos_site_id
_symmetry_equiv_pos_as_xyz
1 x,y,z
2 1/2+x,1/2-y,-z
3 -x,1/2+y,1/2-z
4 1/2-x,-y,1/2+z
_cell_length_a                   5.006(1)
_cell_length_b                   15.894(4)
_cell_length_c                   17.448(6)
_cell_angle_alpha                90
_cell_angle_beta                 90
_cell_angle_gamma                90
_cell_volume                     1388.26
_chemical_melting_point          76-77deg.C
_cell_formula_units_Z            4
loop_
_atom_site_label
_atom_site_type_symbol
_atom_site_fract_x
_atom_site_fract_y
_atom_site_fract_z
H1 H 0.5471 0.5732 0.1249
H2 H 0.0458 0.5955 0.0627
H3 H 0.3569 0.5454 -0.0263
H4 H 0.1114 0.4849 -0.0182
H5 H 0.4896 0.4040 -0.0173
H6 H 0.6131 0.4585 0.0487
H7 H 0.4559 0.3376 0.1067
H8 H 0.3935 0.4476 0.1774
H9 H -0.0992 0.3645 0.1948
H10 H -0.0946 0.4872 0.2649
H11 H 0.1583 0.4550 0.3090
H12 H -0.2321 0.4335 0.3810
H13 H -0.0800 0.3498 0.3621
H14 H -0.3441 0.3722 0.3184
H15 H 0.1774 0.2907 0.0090
H16 H -0.0410 0.3542 0.0374
H17 H 0.0549 0.2813 0.0913
H18 H 0.5563 0.6721 0.0172
H19 H 0.5977 0.7129 0.0982
H20 H 0.3143 0.7136 0.0599
H21 H 0.4102 0.6371 0.3660
H22 H 0.1284 0.6307 0.3272
H23 H 0.2986 0.7129 0.3181
H24 H 0.1566(80) 0.2568(13) 0.2533(23)
C1 C 0.2847(7) 0.6404(2) 0.1908(2)
C2 C 0.3915(6) 0.6074(2) 0.1169(2)
C3 C 0.1758(6) 0.5548(2) 0.0789(2)
C4 C 0.2654(8) 0.5073(2) 0.0074(2)
C5 C 0.4505(6) 0.4357(2) 0.0282(2)
C6 C 0.3253(6) 0.3767(2) 0.0878(2)
C7 C 0.2278(6) 0.4290(2) 0.1555(2)
C8 C 0.0696(6) 0.3824(2) 0.2152(2)
C9 C -0.0034(8) 0.4382(2) 0.2837(2)
C10 C -0.1847(9) 0.3948(3) 0.3410(2)
C11 C 0.1095(7) 0.3207(2) 0.0526(2)
C12 C 0.4760(9) 0.6819(2) 0.0644(2)
C13 C 0.3070(16) 0.6540(4) 0.3214(4)
O1 O 0.0570(4) 0.4966(1) 0.1315(1)
O2 O 0.2296(5) 0.3115(1) 0.2375(1)
O3 O 0.0921(6) 0.6844(2) 0.1966(2)
O4 O 0.4346(5) 0.6167(1) 0.2503(1)
loop_
_geom_bond_atom_site_label_1
_geom_bond_atom_site_label_2
_geom_bond_site_symmetry_1
_geom_bond_site_symmetry_2
H1 C2 1_555 1_555
H2 C3 1_555 1_555
H3 C4 1_555 1_555
H4 C4 1_555 1_555
H5 C5 1_555 1_555
H6 C5 1_555 1_555
H7 C6 1_555 1_555
H8 C7 1_555 1_555
H9 C8 1_555 1_555
H10 C9 1_555 1_555
H11 C9 1_555 1_555
H12 C10 1_555 1_555
H13 C10 1_555 1_555
H14 C10 1_555 1_555
H15 C11 1_555 1_555
H16 C11 1_555 1_555
H17 C11 1_555 1_555
H18 C12 1_555 1_555
H19 C12 1_555 1_555
H20 C12 1_555 1_555
H21 C13 1_555 1_555
H22 C13 1_555 1_555
H23 C13 1_555 1_555
H24 O2 1_555 1_555
C1 C2 1_555 1_555
C2 C3 1_555 1_555
C3 C4 1_555 1_555
C4 C5 1_555 1_555
C5 C6 1_555 1_555
C6 C7 1_555 1_555
C7 C8 1_555 1_555
C8 C9 1_555 1_555
C9 C10 1_555 1_555
C11 C6 1_555 1_555
C12 C2 1_555 1_555
C13 O4 1_555 1_555
O1 C3 1_555 1_555
O2 C8 1_555 1_555
O3 C1 1_555 1_555
O4 C1 1_555 1_555
C7 O1 1_555 1_555

#END
