
#######################################################################
#
#                 Cambridge Crystallographic Data Centre
#                                CCDC 
#
#######################################################################
#
# If this CIF has been generated from an entry in the Cambridge 
# Structural Database, then it will include bibliographic, chemical, 
# crystal, experimental, refinement or atomic coordinate data resulting 
# from the CCDC's data processing and validation procedures.
#
#######################################################################

data_COWSIR
_chemical_formula_moiety         'C40 H26 N8'
_chemical_name_systematic        5,10,15,20-tetrakis(4-Pyridyl)porphyrin
_symmetry_cell_setting           monoclinic
_symmetry_space_group_name_H-M   'C 2/c'
_symmetry_Int_Tables_number      15
_space_group_name_Hall           '-C 2yn'
loop_
_symmetry_equiv_pos_site_id
_symmetry_equiv_pos_as_xyz
1 x,y,z
2 -x,y,1/2-z
3 1/2+x,1/2+y,z
4 1/2-x,1/2+y,1/2-z
5 -x,-y,-z
6 x,-y,1/2+z
7 1/2-x,1/2-y,-z
8 1/2+x,1/2-y,1/2+z
_cell_length_a                   21.0420(10)
_cell_length_b                   6.88800(10)
_cell_length_c                   21.75600(10)
_cell_angle_alpha                90
_cell_angle_beta                 90.3700(10)
_cell_angle_gamma                90
_cell_volume                     3153.19
_exptl_crystal_colour            violet
_exptl_crystal_description       needle
_cell_formula_units_Z            4
_exptl_crystal_recrystallization_method 
'vaporisation-condensation-recrystallisation process'
loop_
_atom_site_label
_atom_site_type_symbol
_atom_site_fract_x
_atom_site_fract_y
_atom_site_fract_z
C1 C -0.02798(8) 0.2947(3) 0.37725(7)
C2 C -0.00799(9) 0.1301(3) 0.34106(8)
H1 H -0.0245 0.0922 0.3032
C3 C 0.03865(9) 0.0426(3) 0.37232(8)
H2 H 0.0611 -0.0672 0.3603
C4 C 0.04752(8) 0.1519(2) 0.42868(7)
C5 C 0.09290(7) 0.1036(2) 0.47350(7)
C6 C 0.10193(7) 0.1959(3) 0.52982(8)
C7 C 0.15070(8) 0.1528(3) 0.57412(8)
H3 H 0.1807 0.0540 0.5712
C8 C 0.14548(9) 0.2811(3) 0.62093(8)
H4 H 0.1713 0.2854 0.6557
C9 C 0.09364(8) 0.4089(3) 0.60799(7)
C10 C 0.23474(10) -0.1570(3) 0.41104(11)
H5 H 0.2709 -0.1245 0.3889
C11 C 0.19252(9) -0.0104(3) 0.42432(9)
H6 H 0.1998 0.1157 0.4108
C12 C 0.13920(8) -0.0540(3) 0.45806(7)
C13 C 0.13140(9) -0.2429(3) 0.47562(9)
H7 H 0.0961 -0.2793 0.4984
C14 C 0.17606(10) -0.3785(3) 0.45942(10)
H8 H 0.1696 -0.5062 0.4718
C15 C -0.1396(2) 0.4732(6) 0.19763(12)
H9 H -0.1357 0.5587 0.1648
C16 C -0.10529(13) 0.5138(4) 0.25014(10)
H10 H -0.0796 0.6234 0.2522
C17 C -0.10969(9) 0.3886(3) 0.29998(8)
C18 C -0.14866(11) 0.2302(4) 0.29309(11)
H11 H -0.1533 0.1416 0.3250
C19 C -0.18103(14) 0.2038(5) 0.23783(15)
H12 H -0.2070 0.0951 0.2340
C20 C -0.07476(8) 0.4277(3) 0.35877(7)
N1 N 0.00671(6) 0.3053(2) 0.43071(6)
N2 N 0.06837(6) 0.3493(2) 0.55266(6)
H13 H 0.0359 0.4013 0.5349
N3 N 0.22766(8) -0.3398(3) 0.42736(8)
N4 N -0.17737(16) 0.3232(5) 0.19027(13)
C1D C 0.02798(8) 0.7053(3) 0.62275(7)
C2D C 0.00799(9) 0.8699(3) 0.65894(8)
H1D H 0.0245 0.9078 0.6968
C3D C -0.03865(9) 0.9574(3) 0.62768(8)
H2D H -0.0611 1.0672 0.6397
C4D C -0.04752(8) 0.8481(2) 0.57132(7)
C5D C -0.09290(7) 0.8964(2) 0.52650(7)
C6D C -0.10193(7) 0.8041(3) 0.47018(8)
C7D C -0.15070(8) 0.8472(3) 0.42588(8)
H3D H -0.1807 0.9460 0.4288
C8D C -0.14548(9) 0.7189(3) 0.37907(8)
H4D H -0.1713 0.7146 0.3443
C9D C -0.09364(8) 0.5911(3) 0.39201(7)
C10D C -0.23474(10) 1.1570(3) 0.58896(11)
H5D H -0.2709 1.1245 0.6111
C11D C -0.19252(9) 1.0104(3) 0.57568(9)
H6D H -0.1998 0.8843 0.5892
C12D C -0.13920(8) 1.0540(3) 0.54194(7)
C13D C -0.13140(9) 1.2429(3) 0.52438(9)
H7D H -0.0961 1.2793 0.5016
C14D C -0.17606(10) 1.3785(3) 0.54058(10)
H8D H -0.1696 1.5062 0.5282
C15D C 0.1396(2) 0.5268(6) 0.80237(12)
H9D H 0.1357 0.4413 0.8352
C16D C 0.10529(13) 0.4862(4) 0.74986(10)
H10D H 0.0796 0.3766 0.7478
C17D C 0.10969(9) 0.6114(3) 0.70002(8)
C18D C 0.14866(11) 0.7698(4) 0.70691(11)
H11D H 0.1533 0.8584 0.6750
C19D C 0.18103(14) 0.7962(5) 0.76217(15)
H12D H 0.2070 0.9049 0.7660
C20D C 0.07476(8) 0.5723(3) 0.64123(7)
N1D N -0.00671(6) 0.6947(2) 0.56929(6)
N2D N -0.06837(6) 0.6507(2) 0.44734(6)
H13D H -0.0359 0.5987 0.4651
N3D N -0.22766(8) 1.3398(3) 0.57264(8)
N4D N 0.17737(16) 0.6768(5) 0.80973(13)
loop_
_geom_bond_atom_site_label_1
_geom_bond_atom_site_label_2
_geom_bond_site_symmetry_1
_geom_bond_site_symmetry_2
C1 C2 1_555 1_555
C2 H1 1_555 1_555
C3 C2 1_555 1_555
H2 C3 1_555 1_555
C4 C3 1_555 1_555
C5 C4 1_555 1_555
C6 C5 1_555 1_555
C7 C6 1_555 1_555
H3 C7 1_555 1_555
C8 C7 1_555 1_555
H4 C8 1_555 1_555
C9 C8 1_555 1_555
C10 H5 1_555 1_555
C11 C10 1_555 1_555
H6 C11 1_555 1_555
C12 C5 1_555 1_555
C13 C12 1_555 1_555
H7 C13 1_555 1_555
C14 C13 1_555 1_555
H8 C14 1_555 1_555
C15 H9 1_555 1_555
C16 C15 1_555 1_555
H10 C16 1_555 1_555
C17 C16 1_555 1_555
C18 C17 1_555 1_555
H11 C18 1_555 1_555
C19 C18 1_555 1_555
H12 C19 1_555 1_555
C20 C1 1_555 1_555
N1 C1 1_555 1_555
N2 C6 1_555 1_555
H13 N2 1_555 1_555
N3 C10 1_555 1_555
N4 C15 1_555 1_555
C1D C2D 1_555 1_555
C2D H1D 1_555 1_555
C3D C2D 1_555 1_555
H2D C3D 1_555 1_555
C4D C3D 1_555 1_555
C5D C4D 1_555 1_555
C6D C5D 1_555 1_555
C7D C6D 1_555 1_555
H3D C7D 1_555 1_555
C8D C7D 1_555 1_555
H4D C8D 1_555 1_555
C9D C20 1_555 1_555
C10D H5D 1_555 1_555
C11D C10D 1_555 1_555
H6D C11D 1_555 1_555
C12D C5D 1_555 1_555
C13D C12D 1_555 1_555
H7D C13D 1_555 1_555
C14D C13D 1_555 1_555
H8D C14D 1_555 1_555
C15D H9D 1_555 1_555
C16D C15D 1_555 1_555
H10D C16D 1_555 1_555
C17D C16D 1_555 1_555
C18D C17D 1_555 1_555
H11D C18D 1_555 1_555
C19D C18D 1_555 1_555
H12D C19D 1_555 1_555
C20D C9 1_555 1_555
N1D C1D 1_555 1_555
N2D C6D 1_555 1_555
H13D N2D 1_555 1_555
N3D C10D 1_555 1_555
N4D C15D 1_555 1_555
C4 N1 1_555 1_555
C9 N2 1_555 1_555
C11 C12 1_555 1_555
C14 N3 1_555 1_555
C17 C20 1_555 1_555
C19 N4 1_555 1_555
C1D C20D 1_555 1_555
C4D N1D 1_555 1_555
C8D C9D 1_555 1_555
C9D N2D 1_555 1_555
C11D C12D 1_555 1_555
C14D N3D 1_555 1_555
C17D C20D 1_555 1_555
C19D N4D 1_555 1_555

#END
