
#######################################################################
#
#                 Cambridge Crystallographic Data Centre
#                                CCDC 
#
#######################################################################
#
# If this CIF has been generated from an entry in the Cambridge 
# Structural Database, then it will include bibliographic, chemical, 
# crystal, experimental, refinement or atomic coordinate data resulting 
# from the CCDC's data processing and validation procedures.
#
#######################################################################

data_COWTEN
_chemical_formula_moiety         'C15 H15 I1 N1 O4 1+,Cl1 1-,2(H2 O1)'
_chemical_name_systematic        '3-Iodo-L-thyronine hydrochloride dihydrate'
_symmetry_cell_setting           monoclinic
_symmetry_space_group_name_H-M   'P 21'
_symmetry_Int_Tables_number      4
_space_group_name_Hall           'P 2yb'
loop_
_symmetry_equiv_pos_site_id
_symmetry_equiv_pos_as_xyz
1 x,y,z
2 -x,1/2+y,-z
_cell_length_a                   10.296(5)
_cell_length_b                   11.883(4)
_cell_length_c                   14.869(5)
_cell_angle_alpha                90
_cell_angle_beta                 91.20(4)
_cell_angle_gamma                90
_cell_volume                     1818.78
_cell_formula_units_Z            4
loop_
_atom_site_label
_atom_site_type_symbol
_atom_site_fract_x
_atom_site_fract_y
_atom_site_fract_z
I1 I 0.8699(4) 0.7495 0.6466(3)
C1 C 0.846(5) 0.395(4) 0.718(3)
C2 C 0.832(4) 0.518(4) 0.706(3)
C3 C 0.901(4) 0.573(4) 0.657(3)
C4 C 0.972(4) 0.525(4) 0.595(3)
C5 C 0.989(5) 0.405(5) 0.594(4)
C6 C 0.932(5) 0.343(4) 0.663(4)
C7 C 0.765(5) 0.331(4) 0.774(4)
C8 C 0.756(5) 0.367(4) 0.874(4)
C9 C 0.668(5) 0.291(4) 0.928(3)
C10 C 1.072(4) 0.563(4) 0.452(4)
C11 C 1.193(5) 0.559(4) 0.413(4)
C12 C 1.199(5) 0.542(5) 0.322(4)
C13 C 1.085(5) 0.539(5) 0.267(4)
C14 C 0.963(5) 0.551(4) 0.314(3)
C15 C 0.955(5) 0.549(4) 0.398(3)
O1 O 1.055(3) 0.595(3) 0.549(2)
O2 O 1.083(4) 0.523(3) 0.176(3)
O3 O 0.540(4) 0.298(3) 0.904(3)
O4 O 0.700(3) 0.216(3) 0.981(2)
N1 N 0.884(5) 0.365(4) 0.921(3)
H1 H 0.75036 0.55903 0.72832
H2 H 1.06504 0.37324 0.54394
H3 H 0.94600 0.25265 0.65532
H4 H 0.80003 0.24734 0.78324
H5 H 0.66862 0.33395 0.75282
H6 H 0.72935 0.46043 0.87318
H7 H 1.15513 0.45855 0.15457
H8 H 0.96591 0.40556 0.91600
H9 H 0.90307 0.28271 0.92507
H10 H 0.85722 0.39790 0.99144
I2 I 0.5672(4) 0.6255(4) 0.3556(3)
C16 C 0.679(4) 0.968(4) 0.303(3)
C17 C 0.676(5) 0.851(4) 0.300(4)
C18 C 0.566(5) 0.798(4) 0.355(3)
C19 C 0.482(4) 0.869(4) 0.387(3)
C20 C 0.490(4) 0.982(4) 0.388(3)
C21 C 0.593(4) 1.032(4) 0.347(3)
C22 C 0.790(5) 1.027(4) 0.252(3)
C23 C 0.753(4) 1.062(4) 0.153(3)
C24 C 0.882(4) 1.105(4) 0.118(3)
C25 C 0.381(4) 0.828(3) 0.538(3)
C26 C 0.261(4) 0.818(4) 0.574(3)
C27 C 0.256(4) 0.819(4) 0.654(3)
C28 C 0.383(4) 0.842(3) 0.716(3)
C29 C 0.492(5) 0.849(4) 0.676(4)
C30 C 0.501(5) 0.832(4) 0.580(3)
O5 O 0.385(3) 0.819(3) 0.440(2)
O6 O 0.372(4) 0.838(3) 0.811(3)
O7 O 0.942(4) 1.051(3) 0.062(3)
O8 O 0.925(3) 1.198(3) 0.142(2)
N2 N 0.698(4) 0.976(4) 0.100(3)
H11 H 0.74983 0.79941 0.26174
H12 H 0.41945 1.03661 0.42148
H13 H 0.59687 1.12545 0.34739
H14 H 0.87038 0.97835 0.25641
H15 H 0.81077 1.10871 0.29321
H16 H 0.68143 1.13375 0.15342
H17 H 0.43667 0.90417 0.81923
H18 H 0.62417 1.01894 0.05721
H19 H 0.66585 0.91459 0.13789
H20 H 0.77640 0.94969 0.05386
Cl1 Cl 0.6318(19) 0.9357(21) 0.8903(10)
Cl2 Cl 0.8528(15) 0.7428(16) 0.1168(11)
O9 O 0.842(4) 0.733(4) 0.908(3)
O10 O 0.591(4) 0.605(4) 0.060(3)
O11 O 0.567(4) 0.597(3) 0.867(3)
O12 O 0.839(4) 0.450(3) 0.081(2)
loop_
_geom_bond_atom_site_label_1
_geom_bond_atom_site_label_2
_geom_bond_site_symmetry_1
_geom_bond_site_symmetry_2
I1 C3 1_555 1_555
C1 C2 1_555 1_555
C2 C3 1_555 1_555
C3 C4 1_555 1_555
C4 C5 1_555 1_555
C5 C6 1_555 1_555
C6 C1 1_555 1_555
C7 C1 1_555 1_555
C8 C7 1_555 1_555
C9 C8 1_555 1_555
C10 C11 1_555 1_555
C11 C12 1_555 1_555
C12 C13 1_555 1_555
C13 C14 1_555 1_555
C14 C15 1_555 1_555
C15 C10 1_555 1_555
O1 C4 1_555 1_555
O2 C13 1_555 1_555
O3 C9 1_555 1_555
O4 C9 1_555 1_555
N1 C8 1_555 1_555
I2 C18 1_555 1_555
C16 C17 1_555 1_555
C17 C18 1_555 1_555
C18 C19 1_555 1_555
C19 C20 1_555 1_555
C20 C21 1_555 1_555
C21 C16 1_555 1_555
C22 C16 1_555 1_555
C23 C22 1_555 1_555
C24 C23 1_555 1_555
C25 C26 1_555 1_555
C26 C27 1_555 1_555
C27 C28 1_555 1_555
C28 C29 1_555 1_555
C29 C30 1_555 1_555
C30 C25 1_555 1_555
O5 C19 1_555 1_555
O6 C28 1_555 1_555
O7 C24 1_555 1_555
O8 C24 1_555 1_555
N2 C23 1_555 1_555
H1 C2 1_555 1_555
H2 C5 1_555 1_555
H3 C6 1_555 1_555
H4 C7 1_555 1_555
H5 C7 1_555 1_555
H6 C8 1_555 1_555
H7 O2 1_555 1_555
H8 N1 1_555 1_555
H9 N1 1_555 1_555
H10 N1 1_555 1_555
H11 C17 1_555 1_555
H12 C20 1_555 1_555
H13 C21 1_555 1_555
H14 C22 1_555 1_555
H15 C22 1_555 1_555
H16 C23 1_555 1_555
H17 O6 1_555 1_555
H18 N2 1_555 1_555
H19 N2 1_555 1_555
H20 N2 1_555 1_555
C10 O1 1_555 1_555
C25 O5 1_555 1_555

#END
