
#######################################################################
#
#                 Cambridge Crystallographic Data Centre
#                                CCDC 
#
#######################################################################
#
# If this CIF has been generated from an entry in the Cambridge 
# Structural Database, then it will include bibliographic, chemical, 
# crystal, experimental, refinement or atomic coordinate data resulting 
# from the CCDC's data processing and validation procedures.
#
#######################################################################

data_COWXAP
_chemical_formula_moiety         'C31 H31 O5 P1'
_chemical_name_systematic        
'dimethyl 4-(diphenylphosphoryl)-9,9-dimethyl-1,3,9,9a-tetrahydro-2H-fluorene-2,2-dicarboxylate'
_symmetry_cell_setting           monoclinic
_symmetry_space_group_name_H-M   'P 21/c'
_symmetry_Int_Tables_number      14
_space_group_name_Hall           '-P 2ybc'
loop_
_symmetry_equiv_pos_site_id
_symmetry_equiv_pos_as_xyz
1 x,y,z
2 -x,1/2+y,1/2-z
3 -x,-y,-z
4 x,1/2-y,1/2+z
_cell_length_a                   11.5189(13)
_cell_length_b                   20.166(2)
_cell_length_c                   12.1082(10)
_cell_angle_alpha                90
_cell_angle_beta                 99.379(10)
_cell_angle_gamma                90
_cell_volume                     2775.02
_exptl_crystal_colour            'light colorless'
_exptl_crystal_description       block
_cell_formula_units_Z            4
loop_
_atom_site_label
_atom_site_type_symbol
_atom_site_fract_x
_atom_site_fract_y
_atom_site_fract_z
P1 P -0.03437(8) 0.77404(6) 0.43189(8)
O1 O 0.3536(3) 0.83827(17) 0.8456(2)
O2 O 0.3195(3) 0.91288(15) 0.7080(2)
O3 O 0.3271(3) 0.83338(18) 0.4759(2)
O4 O 0.4705(2) 0.79728(17) 0.6080(2)
O5 O -0.0199(2) 0.77469(16) 0.31188(19)
C1 C -0.0875(4) 0.9065(2) 0.3996(4)
H1 H -0.0536 0.9012 0.3355
C2 C -0.1349(4) 0.9673(3) 0.4204(4)
H2 H -0.1324 1.0026 0.3714
C3 C -0.1860(4) 0.9747(3) 0.5147(5)
H3 H -0.2197 1.0150 0.5291
C4 C -0.1872(4) 0.9225(3) 0.5881(4)
H4 H -0.2211 0.9279 0.6522
C5 C -0.1383(4) 0.8621(3) 0.5667(4)
H5 H -0.1388 0.8272 0.6169
C6 C -0.0887(3) 0.8533(2) 0.4709(3)
C7 C -0.1489(3) 0.7172(2) 0.4580(3)
C8 C -0.2382(3) 0.7040(3) 0.3683(4)
H6 H -0.2341 0.7210 0.2976
C9 C -0.3339(4) 0.6651(3) 0.3855(5)
H7 H -0.3933 0.6556 0.3259
C10 C -0.3406(4) 0.6411(3) 0.4885(5)
H8 H -0.4060 0.6163 0.4993
C11 C -0.2526(4) 0.6525(3) 0.5778(4)
H9 H -0.2576 0.6351 0.6480
C12 C -0.1558(4) 0.6907(2) 0.5617(3)
H10 H -0.0955 0.6984 0.6214
C13 C 0.0986(3) 0.7563(2) 0.5292(3)
C14 C 0.1509(3) 0.8136(2) 0.6042(3)
H11 H 0.1044 0.8200 0.6633
H12 H 0.1463 0.8540 0.5602
C15 C 0.2800(3) 0.8013(2) 0.6571(3)
C16 C 0.2933(3) 0.7307(2) 0.7052(3)
H13 H 0.3734 0.7239 0.7429
H14 H 0.2409 0.7247 0.7595
C17 C 0.2639(3) 0.68081(19) 0.6114(3)
H15 H 0.3279 0.6830 0.5671
C18 C 0.1510(3) 0.6970(2) 0.5317(3)
C19 C 0.1188(3) 0.6331(2) 0.4727(3)
C20 C 0.1779(3) 0.5813(2) 0.5354(3)
C21 C 0.2509(3) 0.6068(2) 0.6420(3)
C22 C 0.0471(3) 0.6194(2) 0.3707(3)
H16 H 0.0076 0.6534 0.3280
C23 C 0.0361(4) 0.5538(3) 0.3341(4)
H17 H -0.0099 0.5441 0.2655
C24 C 0.0918(4) 0.5031(3) 0.3978(4)
H18 H 0.0816 0.4596 0.3726
C25 C 0.1625(4) 0.5162(2) 0.4982(3)
H19 H 0.1997 0.4817 0.5411
C26 C 0.1797(4) 0.5987(2) 0.7378(3)
H20 H 0.1081 0.6238 0.7213
H21 H 0.2251 0.6146 0.8062
H22 H 0.1612 0.5527 0.7458
C27 C 0.3705(4) 0.5718(3) 0.6714(4)
H23 H 0.3583 0.5261 0.6884
H24 H 0.4159 0.5930 0.7353
H25 H 0.4120 0.5746 0.6089
C28 C 0.3214(3) 0.8514(2) 0.7488(3)
C29 C 0.3649(4) 0.9646(3) 0.7858(4)
H26 H 0.3706 1.0052 0.7457
H27 H 0.4415 0.9522 0.8241
H28 H 0.3129 0.9707 0.8394
C30 C 0.3585(3) 0.8125(2) 0.5684(3)
C31 C 0.5528(4) 0.8073(3) 0.5305(5)
H29 H 0.5276 0.7822 0.4635
H30 H 0.6297 0.7927 0.5646
H31 H 0.5556 0.8535 0.5123
loop_
_geom_bond_atom_site_label_1
_geom_bond_atom_site_label_2
_geom_bond_site_symmetry_1
_geom_bond_site_symmetry_2
P1 O5 1_555 1_555
O1 C28 1_555 1_555
O2 C28 1_555 1_555
O3 C30 1_555 1_555
O4 C30 1_555 1_555
C1 H1 1_555 1_555
C2 C1 1_555 1_555
H2 C2 1_555 1_555
C3 C2 1_555 1_555
H3 C3 1_555 1_555
C4 C3 1_555 1_555
H4 C4 1_555 1_555
C5 C4 1_555 1_555
H5 C5 1_555 1_555
C6 P1 1_555 1_555
C7 P1 1_555 1_555
C8 C7 1_555 1_555
H6 C8 1_555 1_555
C9 C8 1_555 1_555
H7 C9 1_555 1_555
C10 C9 1_555 1_555
H8 C10 1_555 1_555
C11 C10 1_555 1_555
H9 C11 1_555 1_555
C12 C7 1_555 1_555
H10 C12 1_555 1_555
C13 P1 1_555 1_555
C14 C13 1_555 1_555
H11 C14 1_555 1_555
H12 C14 1_555 1_555
C15 C14 1_555 1_555
C16 C15 1_555 1_555
H13 C16 1_555 1_555
H14 C16 1_555 1_555
C17 C16 1_555 1_555
H15 C17 1_555 1_555
C18 C13 1_555 1_555
C19 C18 1_555 1_555
C20 C19 1_555 1_555
C21 C17 1_555 1_555
C22 C19 1_555 1_555
H16 C22 1_555 1_555
C23 C22 1_555 1_555
H17 C23 1_555 1_555
C24 C23 1_555 1_555
H18 C24 1_555 1_555
C25 C20 1_555 1_555
H19 C25 1_555 1_555
C26 C21 1_555 1_555
H20 C26 1_555 1_555
H21 C26 1_555 1_555
H22 C26 1_555 1_555
C27 C21 1_555 1_555
H23 C27 1_555 1_555
H24 C27 1_555 1_555
H25 C27 1_555 1_555
C28 C15 1_555 1_555
C29 O2 1_555 1_555
H26 C29 1_555 1_555
H27 C29 1_555 1_555
H28 C29 1_555 1_555
C30 C15 1_555 1_555
C31 O4 1_555 1_555
H29 C31 1_555 1_555
H30 C31 1_555 1_555
H31 C31 1_555 1_555
C1 C6 1_555 1_555
C5 C6 1_555 1_555
C11 C12 1_555 1_555
C17 C18 1_555 1_555
C20 C21 1_555 1_555
C24 C25 1_555 1_555

#END
