
#######################################################################
#
#                 Cambridge Crystallographic Data Centre
#                                CCDC 
#
#######################################################################
#
# If this CIF has been generated from an entry in the Cambridge 
# Structural Database, then it will include bibliographic, chemical, 
# crystal, experimental, refinement or atomic coordinate data resulting 
# from the CCDC's data processing and validation procedures.
#
#######################################################################

data_COXKEH
_chemical_formula_moiety         'C21 H18 N1 O2 P1'
_chemical_name_systematic        
17-(3,5-dimethylphenyl)-8,10-dioxa-17-aza-9-phosphatetracyclo[7.7.1.0^2,7^.0^11,16^]heptadeca-2,4,6,11,13,15-hexaene
_symmetry_cell_setting           monoclinic
_symmetry_space_group_name_H-M   'P 21/n'
_symmetry_Int_Tables_number      14
_space_group_name_Hall           '-P 2yn'
loop_
_symmetry_equiv_pos_site_id
_symmetry_equiv_pos_as_xyz
1 x,y,z
2 1/2-x,1/2+y,1/2-z
3 -x,-y,-z
4 1/2+x,1/2-y,1/2+z
_cell_length_a                   10.895(2)
_cell_length_b                   6.6814(15)
_cell_length_c                   23.895(5)
_cell_angle_alpha                90
_cell_angle_beta                 93.140(6)
_cell_angle_gamma                90
_cell_volume                     1736.8
_exptl_crystal_colour            colorless
_exptl_crystal_description       needle
_cell_formula_units_Z            4
_chemical_properties_physical    
'Air-sensitive, Moisture-sensitive, Oxygen-sensitive'
_exptl_crystal_recrystallization_method 'Vapour Deposition'
loop_
_atom_site_label
_atom_site_type_symbol
_atom_site_fract_x
_atom_site_fract_y
_atom_site_fract_z
P1 P 0.41238(4) 0.48705(7) 0.15064(2)
O1 O 0.56459(11) 0.48500(19) 0.15718(6)
O2 O 0.38108(11) 0.52835(18) 0.21578(5)
N1 N 0.38230(12) 0.2396(2) 0.14701(5)
C1 C 0.45462(14) 0.1181(3) 0.18854(6)
H1 H 0.4287 -0.0250 0.1843
C2 C 0.59067(14) 0.1330(3) 0.17912(6)
C3 C 0.63841(15) 0.3164(3) 0.16391(7)
C4 C 0.76198(16) 0.3387(3) 0.15444(7)
H2 H 0.7933 0.4646 0.1435
C5 C 0.83899(16) 0.1751(3) 0.16120(8)
H3 H 0.9238 0.1894 0.1548
C6 C 0.79465(16) -0.0090(3) 0.17719(8)
H4 H 0.8486 -0.1202 0.1821
C7 C 0.67013(15) -0.0293(3) 0.18593(7)
H5 H 0.6389 -0.1555 0.1967
C8 C 0.42635(13) 0.1891(3) 0.24682(6)
C9 C 0.39102(14) 0.3837(3) 0.25745(7)
C10 C 0.36336(14) 0.4452(3) 0.31102(7)
H6 H 0.3351 0.5775 0.3172
C11 C 0.37750(15) 0.3114(3) 0.35526(7)
H7 H 0.3598 0.3522 0.3920
C12 C 0.41739(15) 0.1185(3) 0.34578(7)
H8 H 0.4297 0.0282 0.3763
C13 C 0.43947(15) 0.0565(3) 0.29164(7)
H9 H 0.4638 -0.0778 0.2852
C14 C 0.34567(14) 0.1542(3) 0.09380(6)
C15 C 0.25260(15) 0.2482(3) 0.06141(7)
H10 H 0.2163 0.3670 0.0748
C16 C 0.21233(17) 0.1705(3) 0.00983(7)
C17 C 0.26474(17) -0.0053(3) -0.00882(7)
H11 H 0.2366 -0.0600 -0.0439
C18 C 0.35717(15) -0.1021(3) 0.02268(7)
C19 C 0.39836(14) -0.0198(3) 0.07406(6)
H12 H 0.4629 -0.0833 0.0957
C20 C 0.1121(2) 0.2749(4) -0.02533(9)
H13 H 0.1182 0.2380 -0.0648
H14 H 0.1215 0.4202 -0.0212
H15 H 0.0317 0.2344 -0.0128
C21 C 0.41396(18) -0.2916(3) 0.00241(7)
H16 H 0.5027 -0.2894 0.0117
H17 H 0.3990 -0.3024 -0.0383
H18 H 0.3773 -0.4068 0.0206
loop_
_geom_bond_atom_site_label_1
_geom_bond_atom_site_label_2
_geom_bond_site_symmetry_1
_geom_bond_site_symmetry_2
P1 O1 1_555 1_555
O1 C3 1_555 1_555
O2 P1 1_555 1_555
N1 P1 1_555 1_555
C1 N1 1_555 1_555
H1 C1 1_555 1_555
C2 C1 1_555 1_555
C3 C2 1_555 1_555
C4 C3 1_555 1_555
H2 C4 1_555 1_555
C5 C4 1_555 1_555
H3 C5 1_555 1_555
C6 C5 1_555 1_555
H4 C6 1_555 1_555
C7 C2 1_555 1_555
H5 C7 1_555 1_555
C8 C1 1_555 1_555
C9 O2 1_555 1_555
C10 C9 1_555 1_555
H6 C10 1_555 1_555
C11 C10 1_555 1_555
H7 C11 1_555 1_555
C12 C11 1_555 1_555
H8 C12 1_555 1_555
C13 C8 1_555 1_555
H9 C13 1_555 1_555
C14 N1 1_555 1_555
C15 C14 1_555 1_555
H10 C15 1_555 1_555
C16 C15 1_555 1_555
C17 C16 1_555 1_555
H11 C17 1_555 1_555
C18 C17 1_555 1_555
C19 C14 1_555 1_555
H12 C19 1_555 1_555
C20 C16 1_555 1_555
H13 C20 1_555 1_555
H14 C20 1_555 1_555
H15 C20 1_555 1_555
C21 C18 1_555 1_555
H16 C21 1_555 1_555
H17 C21 1_555 1_555
H18 C21 1_555 1_555
C6 C7 1_555 1_555
C8 C9 1_555 1_555
C12 C13 1_555 1_555
C18 C19 1_555 1_555

#END
