
#######################################################################
#
#                 Cambridge Crystallographic Data Centre
#                                CCDC 
#
#######################################################################
#
# If this CIF has been generated from an entry in the Cambridge 
# Structural Database, then it will include bibliographic, chemical, 
# crystal, experimental, refinement or atomic coordinate data resulting 
# from the CCDC's data processing and validation procedures.
#
#######################################################################

data_COXLUW
_chemical_formula_moiety         'C10 H6 Br2'
_chemical_name_systematic        1,8-Dibromonaphthalene
_symmetry_cell_setting           monoclinic
_symmetry_space_group_name_H-M   'P 21/c'
_symmetry_Int_Tables_number      14
_space_group_name_Hall           '-P 2ybc'
loop_
_symmetry_equiv_pos_site_id
_symmetry_equiv_pos_as_xyz
1 x,y,z
2 -x,1/2+y,1/2-z
3 -x,-y,-z
4 x,1/2-y,1/2+z
_cell_length_a                   8.050(4)
_cell_length_b                   10.898(5)
_cell_length_c                   11.083(5)
_cell_angle_alpha                90
_cell_angle_beta                 107.83(4)
_cell_angle_gamma                90
_cell_volume                     925.599
_cell_formula_units_Z            4
loop_
_atom_site_label
_atom_site_type_symbol
_atom_site_fract_x
_atom_site_fract_y
_atom_site_fract_z
Br1 Br 0.2670(9) 0.3228(6) 0.5190(6)
Br2 Br -0.1504(9) 0.3097(7) 0.4261(7)
C1 C 0.2209(19) 0.1735(14) 0.6063(15)
C2 C 0.3776(19) 0.1547(14) 0.7062(15)
C3 C 0.3880(19) 0.0477(14) 0.7787(15)
C4 C 0.2337(19) -0.0080(14) 0.7843(15)
C5 C -0.0758(19) -0.0407(14) 0.6898(15)
C6 C -0.2389(19) 0.0061(14) 0.6206(15)
C7 C -0.2497(19) 0.1189(14) 0.5574(15)
C8 C -0.0958(19) 0.1695(14) 0.5467(15)
C9 C 0.0650(19) 0.1347(14) 0.6252(15)
C10 C 0.0749(19) 0.0254(14) 0.6974(15)
loop_
_geom_bond_atom_site_label_1
_geom_bond_atom_site_label_2
_geom_bond_site_symmetry_1
_geom_bond_site_symmetry_2
Br1 C1 1_555 1_555
Br2 C8 1_555 1_555
C1 C2 1_555 1_555
C2 C3 1_555 1_555
C3 C4 1_555 1_555
C4 C10 1_555 1_555
C5 C6 1_555 1_555
C6 C7 1_555 1_555
C7 C8 1_555 1_555
C8 C9 1_555 1_555
C9 C1 1_555 1_555
C10 C5 1_555 1_555
C9 C10 1_555 1_555

#END
