
#######################################################################
#
#                 Cambridge Crystallographic Data Centre
#                                CCDC 
#
#######################################################################
#
# If this CIF has been generated from an entry in the Cambridge 
# Structural Database, then it will include bibliographic, chemical, 
# crystal, experimental, refinement or atomic coordinate data resulting 
# from the CCDC's data processing and validation procedures.
#
#######################################################################

data_COXTIU
_chemical_formula_moiety         'C12 H12 N2 S4'
_chemical_name_systematic        N,N'-1,4-phenylenebis(1,3-dithiolan-2-imine)
_symmetry_cell_setting           orthorhombic
_symmetry_space_group_name_H-M   'P b c n'
_symmetry_Int_Tables_number      60
_space_group_name_Hall           '-P 2n 2ab'
loop_
_symmetry_equiv_pos_site_id
_symmetry_equiv_pos_as_xyz
1 x,y,z
2 1/2-x,1/2-y,1/2+z
3 -x,y,1/2-z
4 1/2+x,1/2-y,-z
5 -x,-y,-z
6 1/2+x,1/2+y,1/2-z
7 x,-y,1/2+z
8 1/2-x,1/2+y,z
_cell_length_a                   14.3117(6)
_cell_length_b                   8.6996(4)
_cell_length_c                   11.2151(5)
_cell_angle_alpha                90
_cell_angle_beta                 90
_cell_angle_gamma                90
_cell_volume                     1396.35
_exptl_crystal_colour            colorless
_exptl_crystal_description       block
_cell_formula_units_Z            4
loop_
_atom_site_label
_atom_site_type_symbol
_atom_site_fract_x
_atom_site_fract_y
_atom_site_fract_z
S1 S 0.14101(4) 0.22694(7) 0.18859(5)
S2 S 0.20228(4) 0.11780(8) -0.04842(5)
N1 N 0.04074(12) 0.2721(2) -0.00468(16)
C1 C 0.11486(14) 0.2134(2) 0.03549(18)
C2 C 0.00990(14) 0.4050(2) -0.18984(18)
H1 H 0.0155 0.4977 -0.1492
C3 C 0.01090(15) 0.1293(2) -0.18974(18)
H2 H 0.0184 0.0366 -0.1495
C4 C 0.02156(13) 0.2670(2) -0.12900(18)
C5 C 0.2457(2) 0.1124(3) 0.1836(2)
H3 H 0.2880 0.1438 0.2466
H4 H 0.2303 0.0049 0.1953
C6 C 0.29133(17) 0.1344(3) 0.0644(2)
H5 H 0.3391 0.0569 0.0522
H6 H 0.3205 0.2349 0.0603
S1B S -0.14101(4) 0.22694(7) -0.68859(5)
S2B S -0.20228(4) 0.11780(8) -0.45158(5)
N1B N -0.04074(12) 0.2721(2) -0.49532(16)
C1B C -0.11486(14) 0.2134(2) -0.53549(18)
C2B C -0.00990(14) 0.4050(2) -0.31016(18)
H1B H -0.0155 0.4977 -0.3508
C3B C -0.01090(15) 0.1293(2) -0.31026(18)
H2B H -0.0184 0.0366 -0.3505
C4B C -0.02156(13) 0.2670(2) -0.37100(18)
C5B C -0.2457(2) 0.1124(3) -0.6836(2)
H3B H -0.2880 0.1438 -0.7466
H4B H -0.2303 0.0049 -0.6953
C6B C -0.29133(17) 0.1344(3) -0.5644(2)
H5B H -0.3391 0.0569 -0.5522
H6B H -0.3205 0.2349 -0.5603
loop_
_geom_bond_atom_site_label_1
_geom_bond_atom_site_label_2
_geom_bond_site_symmetry_1
_geom_bond_site_symmetry_2
S1 C1 1_555 1_555
S2 C1 1_555 1_555
N1 C1 1_555 1_555
C2 H1 1_555 1_555
C3 H2 1_555 1_555
C4 N1 1_555 1_555
C5 S1 1_555 1_555
H3 C5 1_555 1_555
H4 C5 1_555 1_555
C6 S2 1_555 1_555
H5 C6 1_555 1_555
H6 C6 1_555 1_555
S1B C1B 1_555 1_555
S2B C1B 1_555 1_555
N1B C1B 1_555 1_555
C2B C2 1_555 1_555
H1B C2B 1_555 1_555
C3B C3 1_555 1_555
H2B C3B 1_555 1_555
C4B N1B 1_555 1_555
C5B S1B 1_555 1_555
H3B C5B 1_555 1_555
H4B C5B 1_555 1_555
C6B S2B 1_555 1_555
H5B C6B 1_555 1_555
H6B C6B 1_555 1_555
C2 C4 1_555 1_555
C3 C4 1_555 1_555
C5 C6 1_555 1_555
C2B C4B 1_555 1_555
C3B C4B 1_555 1_555
C5B C6B 1_555 1_555

#END
