
#######################################################################
#
#                 Cambridge Crystallographic Data Centre
#                                CCDC 
#
#######################################################################
#
# If this CIF has been generated from an entry in the Cambridge 
# Structural Database, then it will include bibliographic, chemical, 
# crystal, experimental, refinement or atomic coordinate data resulting 
# from the CCDC's data processing and validation procedures.
#
#######################################################################

data_COXVAN
_chemical_formula_moiety         'C24 H26 N4 O2'
_chemical_name_systematic        
N'-(2,6-Di-isopropylphenyl)-N-(5-nitro-2-pyridinyl)benzenecarboximidamide
_symmetry_cell_setting           triclinic
_symmetry_space_group_name_H-M   'P -1'
_symmetry_Int_Tables_number      2
_space_group_name_Hall           '-P 1'
loop_
_symmetry_equiv_pos_site_id
_symmetry_equiv_pos_as_xyz
1 x,y,z
2 -x,-y,-z
_cell_length_a                   8.2857(15)
_cell_length_b                   11.834(2)
_cell_length_c                   12.549(2)
_cell_angle_alpha                110.520(3)
_cell_angle_beta                 107.437(3)
_cell_angle_gamma                90.894(3)
_cell_volume                     1089.37
_chemical_melting_point          140deg.C
_cell_formula_units_Z            2
_exptl_crystal_recrystallization_method ethanol
loop_
_atom_site_label
_atom_site_type_symbol
_atom_site_fract_x
_atom_site_fract_y
_atom_site_fract_z
C1 C 0.3339(2) 0.03280(15) 0.65849(15)
C2 C 0.3423(2) 0.07232(15) 0.77711(16)
H1 H 0.2830 0.1359 0.8058
C3 C 0.5191(2) -0.06846(15) 0.81000(15)
C4 C 0.5173(2) -0.11138(16) 0.69041(15)
H2 H 0.5783 -0.1744 0.6630
C5 C 0.4248(3) -0.05916(17) 0.61489(16)
H3 H 0.4229 -0.0850 0.5354
C6 C 0.7005(2) -0.21178(15) 0.87770(15)
C7 C 0.8330(2) -0.20825(15) 0.98977(15)
C8 C 0.8639(3) -0.31305(17) 1.01423(17)
H4 H 0.7989 -0.3872 0.9611
C9 C 0.9909(3) -0.30741(19) 1.11736(18)
H5 H 1.0108 -0.3778 1.1336
C10 C 1.0881(3) -0.1981(2) 1.19617(18)
H6 H 1.1732 -0.1949 1.2655
C11 C 1.0601(3) -0.09345(19) 1.17298(17)
H7 H 1.1270 -0.0199 1.2260
C12 C 0.9319(2) -0.09796(16) 1.07047(15)
H8 H 0.9118 -0.0271 1.0554
C13 C 0.7553(2) -0.39307(15) 0.73877(14)
C14 C 0.6624(2) -0.51015(15) 0.68992(15)
C15 C 0.7406(3) -0.60895(16) 0.64000(16)
H9 H 0.6808 -0.6869 0.6078
C16 C 0.9041(3) -0.59462(17) 0.63684(17)
H10 H 0.9538 -0.6619 0.6026
C17 C 0.9929(2) -0.47925(16) 0.68516(17)
H11 H 1.1035 -0.4697 0.6833
C18 C 0.9226(2) -0.37658(15) 0.73659(15)
C19 C 1.0277(2) -0.25233(16) 0.78281(16)
H12 H 0.9608 -0.1908 0.8172
C20 C 1.0624(3) -0.22587(19) 0.68045(18)
H13 H 0.9561 -0.2328 0.6192
H14 H 1.1313 -0.2833 0.6469
H15 H 1.1215 -0.1448 0.7109
C21 C 1.1949(3) -0.24125(19) 0.88260(18)
H16 H 1.1703 -0.2573 0.9464
H17 H 1.2547 -0.1604 0.9134
H18 H 1.2646 -0.2991 0.8506
C22 C 0.4820(2) -0.52960(17) 0.69117(17)
H19 H 0.4439 -0.4494 0.7169
C23 C 0.3598(3) -0.6045(2) 0.5681(2)
H20 H 0.3629 -0.5659 0.5128
H21 H 0.2463 -0.6108 0.5720
H22 H 0.3925 -0.6844 0.5410
C24 C 0.4738(4) -0.5871(4) 0.7805(2)
H23 H 0.3578 -0.5980 0.7787
H24 H 0.5437 -0.5349 0.8599
H25 H 0.5147 -0.6647 0.7593
N1 N 0.2282(2) 0.08632(14) 0.57831(14)
N2 N 0.43247(19) 0.02281(13) 0.85257(13)
N3 N 0.61158(18) -0.11155(12) 0.89469(12)
H26 H 0.6151 -0.0716 0.9675
N4 N 0.66406(18) -0.29361(12) 0.77242(12)
O1 O 0.2408(2) 0.05938(15) 0.47792(13)
O2 O 0.1331(2) 0.15629(15) 0.61481(14)
loop_
_geom_bond_atom_site_label_1
_geom_bond_atom_site_label_2
_geom_bond_site_symmetry_1
_geom_bond_site_symmetry_2
C1 C2 1_555 1_555
C2 H1 1_555 1_555
C3 C4 1_555 1_555
C4 H2 1_555 1_555
C5 C1 1_555 1_555
H3 C5 1_555 1_555
C6 C7 1_555 1_555
C7 C8 1_555 1_555
C8 H4 1_555 1_555
C9 C8 1_555 1_555
H5 C9 1_555 1_555
C10 C9 1_555 1_555
H6 C10 1_555 1_555
C11 C10 1_555 1_555
H7 C11 1_555 1_555
C12 C7 1_555 1_555
H8 C12 1_555 1_555
C13 C14 1_555 1_555
C14 C15 1_555 1_555
C15 H9 1_555 1_555
C16 C15 1_555 1_555
H10 C16 1_555 1_555
C17 C16 1_555 1_555
H11 C17 1_555 1_555
C18 C13 1_555 1_555
C19 C18 1_555 1_555
H12 C19 1_555 1_555
C20 C19 1_555 1_555
H13 C20 1_555 1_555
H14 C20 1_555 1_555
H15 C20 1_555 1_555
C21 C19 1_555 1_555
H16 C21 1_555 1_555
H17 C21 1_555 1_555
H18 C21 1_555 1_555
C22 C14 1_555 1_555
H19 C22 1_555 1_555
C23 C22 1_555 1_555
H20 C23 1_555 1_555
H21 C23 1_555 1_555
H22 C23 1_555 1_555
C24 C22 1_555 1_555
H23 C24 1_555 1_555
H24 C24 1_555 1_555
H25 C24 1_555 1_555
N1 C1 1_555 1_555
N2 C2 1_555 1_555
N3 C3 1_555 1_555
H26 N3 1_555 1_555
N4 C6 1_555 1_555
O1 N1 1_555 1_555
O2 N1 1_555 1_555
C3 N2 1_555 1_555
C4 C5 1_555 1_555
C6 N3 1_555 1_555
C11 C12 1_555 1_555
C13 N4 1_555 1_555
C17 C18 1_555 1_555

#END
