
#######################################################################
#
#                 Cambridge Crystallographic Data Centre
#                                CCDC 
#
#######################################################################
#
# If this CIF has been generated from an entry in the Cambridge 
# Structural Database, then it will include bibliographic, chemical, 
# crystal, experimental, refinement or atomic coordinate data resulting 
# from the CCDC's data processing and validation procedures.
#
#######################################################################

data_COYHUV
_chemical_compound_source        'Plant Rubia alata'
_chemical_name_common            'Rubialatin A'
_chemical_formula_moiety         'C27 H20 O8'
_chemical_name_systematic        
"Methyl 2'-hydroxy-5,5-dimethyl-9',12',19'-trioxo-5H,10'H-spiro[furan-2,21'-[20]oxahexacyclo[9.8.1.1^2,10^.0^1,11^.0^3,8^.0^13,18^]henicosa[3,5,7,13,15,17]hexaene]-10'-carboxylate"
_symmetry_cell_setting           monoclinic
_symmetry_space_group_name_H-M   'P 21/n'
_symmetry_Int_Tables_number      14
_space_group_name_Hall           '-P 2yn'
loop_
_symmetry_equiv_pos_site_id
_symmetry_equiv_pos_as_xyz
1 x,y,z
2 1/2-x,1/2+y,1/2-z
3 -x,-y,-z
4 1/2+x,1/2-y,1/2+z
_cell_length_a                   14.4706(3)
_cell_length_b                   8.7390(2)
_cell_length_c                   17.7308(3)
_cell_angle_alpha                90
_cell_angle_beta                 107.8650(10)
_cell_angle_gamma                90
_cell_volume                     2134.1
_exptl_crystal_colour            yellowish
_exptl_crystal_description       prism
_cell_formula_units_Z            4
loop_
_atom_site_label
_atom_site_type_symbol
_atom_site_fract_x
_atom_site_fract_y
_atom_site_fract_z
O1 O 0.38104(9) -0.16719(14) 0.34420(7)
O2 O 0.42205(10) 0.41970(15) 0.08769(8)
O3 O 0.48831(10) 0.40150(16) 0.33774(8)
O4 O 0.33901(9) 0.47852(15) 0.17217(8)
O5 O 0.58640(9) 0.29825(16) 0.20569(9)
C1 C 0.26007(12) 0.1343(2) 0.07954(11)
H1 H 0.2100 0.1631 0.1010
C2 C 0.41782(12) 0.2349(2) 0.18311(10)
C3 C 0.55501(13) 0.0376(2) 0.22752(10)
C4 C 0.33280(14) -0.0946(2) -0.04428(11)
H2 H 0.3962 -0.1292 -0.0468
H3 H 0.2861 -0.0947 -0.0977
H4 H 0.3101 -0.1637 -0.0102
C5 C 0.37632(12) -0.0282(2) 0.33944(10)
C6 C 0.61060(14) -0.2645(2) 0.26342(11)
H5 H 0.6298 -0.3681 0.2747
C7 C 0.37654(12) -0.0319(2) 0.18945(10)
C8 C 0.36093(12) 0.0485(2) 0.26114(10)
C9 C 0.41210(14) 0.2643(2) 0.53925(11)
H6 H 0.4203 0.3286 0.5840
C10 C 0.37570(13) 0.0164(2) 0.47778(11)
H7 H 0.3598 -0.0884 0.4807
C11 C 0.38688(12) 0.0750(2) 0.40799(10)
C12 C 0.38873(12) 0.3921(2) 0.14847(10)
C13 C 0.42423(13) 0.3228(2) 0.47043(11)
H8 H 0.4405 0.4276 0.4680
C14 C 0.36326(12) 0.0998(2) 0.12715(10)
C15 C 0.43434(13) 0.2936(2) 0.33425(11)
C16 C 0.39344(15) 0.5641(2) 0.04751(12)
H9 H 0.3226 0.5737 0.0315
H10 H 0.4154 0.5683 0.0005
H11 H 0.4230 0.6482 0.0833
C17 C 0.41276(12) 0.2291(2) 0.40473(11)
C18 C 0.52727(13) 0.1999(2) 0.20502(10)
O6 O 0.41046(9) 0.06369(14) 0.07000(7)
C19 C 0.48366(13) -0.0776(2) 0.21677(10)
C20 C 0.38914(12) 0.2102(2) 0.25799(10)
O7 O 0.28911(8) 0.16764(14) 0.24432(7)
C21 C 0.37989(15) 0.1764(2) -0.06061(11)
H12 H 0.3926 0.2763 -0.0344
H13 H 0.3313 0.1877 -0.1128
H14 H 0.4402 0.1359 -0.0671
C22 C 0.38781(14) 0.1109(2) 0.54281(11)
H15 H 0.3795 0.0708 0.5901
C23 C 0.65293(13) -0.0006(2) 0.25725(10)
H16 H 0.7008 0.0772 0.2649
C24 C 0.68108(13) -0.1505(2) 0.27568(11)
H17 H 0.7480 -0.1757 0.2965
C25 C 0.24977(13) 0.1184(2) 0.00346(11)
H18 H 0.1910 0.1374 -0.0376
C26 C 0.34211(13) 0.0665(2) -0.01047(10)
C27 C 0.51277(13) -0.2281(2) 0.23492(10)
H19 H 0.4654 -0.3066 0.2278
O8 O 0.31176(9) -0.15099(14) 0.15683(7)
H20 H 0.3114 -0.2140 0.1925
loop_
_geom_bond_atom_site_label_1
_geom_bond_atom_site_label_2
_geom_bond_site_symmetry_1
_geom_bond_site_symmetry_2
O1 C5 1_555 1_555
O2 C12 1_555 1_555
O3 C15 1_555 1_555
O4 C12 1_555 1_555
O5 C18 1_555 1_555
C1 H1 1_555 1_555
C2 C12 1_555 1_555
C3 C18 1_555 1_555
C4 H2 1_555 1_555
H3 C4 1_555 1_555
H4 C4 1_555 1_555
C5 C8 1_555 1_555
C6 H5 1_555 1_555
C7 C8 1_555 1_555
C8 C20 1_555 1_555
C9 H6 1_555 1_555
C10 H7 1_555 1_555
C11 C5 1_555 1_555
C13 C9 1_555 1_555
H8 C13 1_555 1_555
C14 C1 1_555 1_555
C15 C17 1_555 1_555
C16 O2 1_555 1_555
H9 C16 1_555 1_555
H10 C16 1_555 1_555
H11 C16 1_555 1_555
C17 C11 1_555 1_555
C18 C2 1_555 1_555
O6 C14 1_555 1_555
C19 C3 1_555 1_555
C20 C2 1_555 1_555
O7 C8 1_555 1_555
C21 H12 1_555 1_555
H13 C21 1_555 1_555
H14 C21 1_555 1_555
C22 C9 1_555 1_555
H15 C22 1_555 1_555
C23 C3 1_555 1_555
H16 C23 1_555 1_555
C24 C6 1_555 1_555
H17 C24 1_555 1_555
C25 C1 1_555 1_555
H18 C25 1_555 1_555
C26 C4 1_555 1_555
C27 C6 1_555 1_555
H19 C27 1_555 1_555
O8 C7 1_555 1_555
H20 O8 1_555 1_555
C2 C14 1_555 1_555
C7 C14 1_555 1_555
C7 C19 1_555 1_555
C10 C11 1_555 1_555
C10 C22 1_555 1_555
C13 C17 1_555 1_555
C15 C20 1_555 1_555
O6 C26 1_555 1_555
C19 C27 1_555 1_555
C20 O7 1_555 1_555
C21 C26 1_555 1_555
C23 C24 1_555 1_555
C25 C26 1_555 1_555

#END
