
#######################################################################
#
#                 Cambridge Crystallographic Data Centre
#                                CCDC 
#
#######################################################################
#
# If this CIF has been generated from an entry in the Cambridge 
# Structural Database, then it will include bibliographic, chemical, 
# crystal, experimental, refinement or atomic coordinate data resulting 
# from the CCDC's data processing and validation procedures.
#
#######################################################################

data_COYKUY
_chemical_name_common            5-iodo-4-thio-2'-deoxyuridine
_chemical_formula_moiety         'C9 H11 I1 N2 O4 S1'
_chemical_name_systematic        
1-(4-hydroxy-5-(hydroxymethyl)tetrahydrofuran-2-yl)-5-iodo-4-thioxo-3,4-dihydropyrimidin-2(1H)-one
_symmetry_cell_setting           triclinic
_symmetry_space_group_name_H-M   'P 1'
_symmetry_Int_Tables_number      1
_space_group_name_Hall           'P 1'
loop_
_symmetry_equiv_pos_site_id
_symmetry_equiv_pos_as_xyz
1 x,y,z
_cell_length_a                   4.75890(10)
_cell_length_b                   13.8113(4)
_cell_length_c                   14.7638(4)
_cell_angle_alpha                111.4430(10)
_cell_angle_beta                 93.454(2)
_cell_angle_gamma                97.667(2)
_cell_volume                     888.859
_exptl_crystal_colour            yellow
_exptl_crystal_description       Needle
_cell_formula_units_Z            3
loop_
_atom_site_label
_atom_site_type_symbol
_atom_site_fract_x
_atom_site_fract_y
_atom_site_fract_z
C1 C 0.7571(10) -0.0309(4) 0.1448(3)
H1 H 0.5517 -0.0514 0.1482
H2 H 0.8189 -0.0864 0.0890
C2 C 0.8162(10) 0.0755(4) 0.1361(3)
H3 H 0.6995 0.1236 0.1802
C3 C 1.1285(10) 0.1131(4) 0.1772(3)
H4 H 1.2491 0.0801 0.1249
C4 C 1.2234(11) 0.2308(4) 0.2184(4)
H5 H 1.4169 0.2488 0.2548
H6 H 1.2300 0.2574 0.1646
C5 C 0.9346(10) -0.0121(4) 0.2399(4)
H7 H 1.0126 -0.0772 0.2352
C6 C 0.7677(10) 0.1239(4) 0.3844(4)
H8 H 0.8874 0.1781 0.3730
C7 C 0.6014(10) 0.1498(4) 0.4576(4)
C8 C 0.4236(10) 0.0702(4) 0.4782(4)
C9 C 0.5833(10) -0.0598(4) 0.3354(4)
O1 O 0.7625(8) 0.0750(3) 0.0398(3)
H9 H 0.7607 0.0139 -0.0017
O2 O 1.0261(8) 0.2779(3) 0.2823(3)
H10 H 1.0659 0.3439 0.3009
O3 O 1.1623(7) 0.0716(3) 0.2541(2)
O4 O 0.5614(8) -0.1523(3) 0.2787(3)
N1 N 0.7665(9) 0.0206(3) 0.3263(3)
N2 N 0.4268(9) -0.0314(3) 0.4130(3)
H11 H 0.3174 -0.0827 0.4223
S1 S 0.2185(3) 0.08848(10) 0.56860(9)
I1 I 0.59075(7) 0.30741(3) 0.54019(3)
C10 C 0.7279(10) 0.9379(4) 0.6774(3)
H12 H 0.5275 0.9044 0.6729
H13 H 0.7319 0.9958 0.6528
C11 C 0.8763(10) 0.9774(4) 0.7818(4)
H14 H 0.7465 1.0092 0.8312
C12 C 0.9494(10) 0.8750(4) 0.7868(3)
H15 H 1.1239 0.8916 0.8346
C13 C 0.7114(11) 0.8104(4) 0.8147(3)
H16 H 0.5351 0.7956 0.7694
H17 H 0.7664 0.7424 0.8104
C14 C 0.9091(10) 0.8576(4) 0.6221(3)
H18 H 1.0744 0.8940 0.6014
C15 C 0.5262(10) 0.7033(4) 0.5474(3)
H19 H 0.4747 0.7163 0.6114
C16 C 0.3768(10) 0.6204(4) 0.4721(4)
C17 C 0.4423(10) 0.6008(4) 0.3731(3)
C18 C 0.8375(10) 0.7519(4) 0.4439(3)
O5 O 1.1248(7) 1.0508(3) 0.7891(3)
H20 H 1.2005 1.0784 0.8476
O6 O 0.6628(8) 0.8699(3) 0.9132(2)
H21 H 0.5455 0.8324 0.9322
O7 O 1.0122(7) 0.8145(3) 0.6903(2)
O8 O 1.0483(8) 0.8051(3) 0.4319(3)
N3 N 0.7495(8) 0.7701(3) 0.5360(3)
N4 N 0.6722(9) 0.6715(3) 0.3686(3)
H22 H 0.7163 0.6633 0.3095
S2 S 0.2687(3) 0.50745(11) 0.27269(9)
I2 I 0.06597(5) 0.51571(2) 0.49765(2)
C19 C 0.6985(11) 0.3700(4) 1.0644(4)
H23 H 0.5582 0.4050 1.1064
H24 H 0.8227 0.3419 1.1016
C20 C 0.5500(9) 0.2830(4) 0.9690(3)
H25 H 0.3952 0.3115 0.9429
C21 C 0.7864(10) 0.2746(4) 0.9030(3)
H26 H 0.9174 0.2298 0.9174
C22 C 0.6971(10) 0.2313(4) 0.7944(4)
H27 H 0.8642 0.2394 0.7595
H28 H 0.6167 0.1553 0.7715
C23 C 0.8717(10) 0.4445(4) 1.0271(3)
H29 H 1.0494 0.4815 1.0732
C24 C 0.5620(9) 0.5104(4) 0.9270(3)
H30 H 0.5824 0.4511 0.8709
C25 C 0.3964(10) 0.5796(4) 0.9171(3)
C26 C 0.3580(10) 0.6682(4) 1.0013(4)
C27 C 0.6882(10) 0.6108(4) 1.1001(4)
O9 O 0.4264(7) 0.1866(3) 0.9741(3)
H31 H 0.5534 0.1602 0.9945
O10 O 0.4877(8) 0.2879(3) 0.7748(3)
H32 H 0.4028 0.2545 0.7181
O11 O 0.9426(7) 0.3828(3) 0.9346(2)
O12 O 0.8264(7) 0.6266(3) 1.1774(2)
N5 N 0.6990(8) 0.5241(3) 1.0151(3)
N6 N 0.5088(9) 0.6765(3) 1.0872(3)
H33 H 0.4882 0.7301 1.1401
S3 S 0.1536(3) 0.75778(10) 1.00132(10)
I3 I 0.20079(6) 0.55212(3) 0.77832(2)
loop_
_geom_bond_atom_site_label_1
_geom_bond_atom_site_label_2
_geom_bond_site_symmetry_1
_geom_bond_site_symmetry_2
C1 H1 1_555 1_555
H2 C1 1_555 1_555
C2 C1 1_555 1_555
H3 C2 1_555 1_555
C3 C2 1_555 1_555
H4 C3 1_555 1_555
C4 C3 1_555 1_555
H5 C4 1_555 1_555
H6 C4 1_555 1_555
C5 C1 1_555 1_555
H7 C5 1_555 1_555
C6 H8 1_555 1_555
C7 C6 1_555 1_555
C8 C7 1_555 1_555
C9 O4 1_555 1_555
O1 C2 1_555 1_555
H9 O1 1_555 1_555
O2 C4 1_555 1_555
H10 O2 1_555 1_555
O3 C3 1_555 1_555
N1 C5 1_555 1_555
N2 C8 1_555 1_555
H11 N2 1_555 1_555
S1 C8 1_555 1_555
I1 C7 1_555 1_555
C10 H12 1_555 1_555
H13 C10 1_555 1_555
C11 C10 1_555 1_555
H14 C11 1_555 1_555
C12 C11 1_555 1_555
H15 C12 1_555 1_555
C13 C12 1_555 1_555
H16 C13 1_555 1_555
H17 C13 1_555 1_555
C14 C10 1_555 1_555
H18 C14 1_555 1_555
C15 H19 1_555 1_555
C16 C15 1_555 1_555
C17 C16 1_555 1_555
C18 O8 1_555 1_555
O5 C11 1_555 1_555
H20 O5 1_555 1_555
O6 C13 1_555 1_555
H21 O6 1_555 1_555
O7 C12 1_555 1_555
N3 C14 1_555 1_555
N4 C17 1_555 1_555
H22 N4 1_555 1_555
S2 C17 1_555 1_555
I2 C16 1_555 1_555
C19 H23 1_555 1_555
H24 C19 1_555 1_555
C20 C19 1_555 1_555
H25 C20 1_555 1_555
C21 C20 1_555 1_555
H26 C21 1_555 1_555
C22 C21 1_555 1_555
H27 C22 1_555 1_555
H28 C22 1_555 1_555
C23 C19 1_555 1_555
H29 C23 1_555 1_555
C24 H30 1_555 1_555
C25 C24 1_555 1_555
C26 C25 1_555 1_555
C27 O12 1_555 1_555
O9 C20 1_555 1_555
H31 O9 1_555 1_555
O10 C22 1_555 1_555
H32 O10 1_555 1_555
O11 C21 1_555 1_555
N5 C23 1_555 1_555
N6 C26 1_555 1_555
H33 N6 1_555 1_555
S3 C26 1_555 1_555
I3 C25 1_555 1_555
C5 O3 1_555 1_555
C6 N1 1_555 1_555
C9 N1 1_555 1_555
C9 N2 1_555 1_555
C14 O7 1_555 1_555
C15 N3 1_555 1_555
C18 N3 1_555 1_555
C18 N4 1_555 1_555
C23 O11 1_555 1_555
C24 N5 1_555 1_555
C27 N5 1_555 1_555
C27 N6 1_555 1_555

#END
