
#######################################################################
#
#                 Cambridge Crystallographic Data Centre
#                                CCDC 
#
#######################################################################
#
# If this CIF has been generated from an entry in the Cambridge 
# Structural Database, then it will include bibliographic, chemical, 
# crystal, experimental, refinement or atomic coordinate data resulting 
# from the CCDC's data processing and validation procedures.
#
#######################################################################

data_COYPOX
_chemical_formula_moiety         'C12 H19 N4 O7 P2 S1 1+,C1 F3 O3 S1 1-,H2 O1'
_chemical_name_systematic        
'3-((4-amino-2-methylpyrimidin-5-yl)methyl)-5-(2-((hydroxy(phosphonooxy)phosphoryl)oxy)ethyl)-4-methyl-1,3-thiazol-3-ium trifluoromethanesulfonate monohydrate'
_symmetry_cell_setting           triclinic
_symmetry_space_group_name_H-M   'P -1'
_symmetry_Int_Tables_number      2
_space_group_name_Hall           '-P 1'
loop_
_symmetry_equiv_pos_site_id
_symmetry_equiv_pos_as_xyz
1 x,y,z
2 -x,-y,-z
_cell_length_a                   12.353(2)
_cell_length_b                   13.723(2)
_cell_length_c                   7.1002(7)
_cell_angle_alpha                91.930(12)
_cell_angle_beta                 92.835(12)
_cell_angle_gamma                76.925(14)
_cell_volume                     1170.68
_exptl_crystal_colour            colorless
_exptl_crystal_description       block
_cell_formula_units_Z            2
loop_
_atom_site_label
_atom_site_type_symbol
_atom_site_fract_x
_atom_site_fract_y
_atom_site_fract_z
O1 O 0.4038(4) 0.7693(3) 0.4499(5)
H1 H 0.4479 0.8045 0.4949
H2 H 0.3370 0.8015 0.4615
P1 P 0.32581(12) 0.59409(9) 0.14660(16)
P2 P 0.45386(12) 0.71494(9) -0.05128(16)
S1 S 0.08126(12) 0.90237(9) 0.18926(17)
N1 N 0.0418(3) 0.7565(2) 0.0020(5)
N2 N -0.1226(5) 0.5569(3) 0.3436(5)
N3 N -0.2685(4) 0.6578(3) 0.1683(5)
N4 N 0.0576(4) 0.5453(3) 0.2768(5)
H3 H 0.0762 0.5074 0.3726
H4 H 0.1081 0.5592 0.2101
O2 O 0.5180(3) 0.6582(2) -0.2043(5)
H5 H 0.4966 0.6065 -0.2273
O3 O 0.5142(3) 0.7345(2) 0.1255(4)
O4 O 0.3861(3) 0.8142(2) -0.1421(4)
O5 O 0.2768(3) 0.6651(3) 0.3060(5)
H6 H 0.3216 0.6983 0.3429
O6 O 0.2423(3) 0.5427(2) 0.0645(4)
O7 O 0.4362(3) 0.5307(2) 0.2179(6)
H7 H 0.4383 0.4716 0.1924
O8 O 0.3567(3) 0.6623(3) -0.0063(5)
C1 C -0.0050(4) 0.6693(3) -0.0602(6)
H8 H 0.0558 0.6113 -0.0761
H9 H -0.0435 0.6832 -0.1820
C2 C -0.0478(5) 0.5819(3) 0.2324(7)
C3 C -0.1949(6) 0.6801(3) 0.0513(7)
H10 H -0.2219 0.7214 -0.0496
C4 C -0.2286(6) 0.5943(3) 0.3098(6)
C5 C -0.3121(5) 0.5682(4) 0.4280(7)
H11 H -0.2873 0.5001 0.4664
H12 H -0.3816 0.5759 0.3571
H13 H -0.3219 0.6117 0.5376
C6 C -0.0836(5) 0.6449(3) 0.0746(6)
C7 C 0.0195(4) 0.8068(3) 0.1615(6)
H14 H -0.0262 0.7905 0.2500
C8 C 0.1114(4) 0.7949(3) -0.1096(6)
C9 C 0.1411(4) 0.8751(3) -0.0261(6)
C10 C 0.1438(4) 0.7471(4) -0.2958(6)
H15 H 0.1893 0.7840 -0.3558
H16 H 0.0781 0.7470 -0.3739
H17 H 0.1848 0.6796 -0.2780
C11 C 0.2154(4) 0.9374(3) -0.0956(7)
H18 H 0.1892 1.0058 -0.0504
H19 H 0.2089 0.9376 -0.2323
C12 C 0.3361(5) 0.9030(3) -0.0361(7)
H20 H 0.3748 0.9556 -0.0570
H21 H 0.3429 0.8890 0.0975
S2 S 0.82395(13) 0.86190(10) 0.58640(18)
O9 O 0.8319(4) 0.8775(3) 0.7839(5)
O10 O 0.8593(4) 0.7608(3) 0.5228(6)
O11 O 0.8710(4) 0.9297(3) 0.4822(6)
F1 F 0.6361(4) 0.9893(4) 0.5695(8)
F2 F 0.6257(5) 0.8379(6) 0.6031(13)
F3 F 0.6583(5) 0.8871(4) 0.3441(8)
C13 C 0.6782(7) 0.8965(6) 0.5307(12)
loop_
_geom_bond_atom_site_label_1
_geom_bond_atom_site_label_2
_geom_bond_site_symmetry_1
_geom_bond_site_symmetry_2
O1 H1 1_555 1_555
H2 O1 1_555 1_555
P1 O5 1_555 1_555
P2 O2 1_555 1_555
S1 C7 1_555 1_555
N1 C1 1_555 1_555
N2 C2 1_555 1_555
N3 C3 1_555 1_555
N4 H3 1_555 1_555
H4 N4 1_555 1_555
O2 H5 1_555 1_555
O3 P2 1_555 1_555
O4 P2 1_555 1_555
O5 H6 1_555 1_555
O6 P1 1_555 1_555
O7 P1 1_555 1_555
H7 O7 1_555 1_555
O8 P1 1_555 1_555
C1 H8 1_555 1_555
H9 C1 1_555 1_555
C2 N4 1_555 1_555
C3 H10 1_555 1_555
C4 N2 1_555 1_555
C5 C4 1_555 1_555
H11 C5 1_555 1_555
H12 C5 1_555 1_555
H13 C5 1_555 1_555
C6 C1 1_555 1_555
C7 N1 1_555 1_555
H14 C7 1_555 1_555
C8 N1 1_555 1_555
C9 S1 1_555 1_555
C10 C8 1_555 1_555
H15 C10 1_555 1_555
H16 C10 1_555 1_555
H17 C10 1_555 1_555
C11 C9 1_555 1_555
H18 C11 1_555 1_555
H19 C11 1_555 1_555
C12 O4 1_555 1_555
H20 C12 1_555 1_555
H21 C12 1_555 1_555
S2 O9 1_555 1_555
O10 S2 1_555 1_555
O11 S2 1_555 1_555
F1 C13 1_555 1_555
F2 C13 1_555 1_555
F3 C13 1_555 1_555
C13 S2 1_555 1_555
P2 O8 1_555 1_555
N3 C4 1_555 1_555
C2 C6 1_555 1_555
C3 C6 1_555 1_555
C8 C9 1_555 1_555
C11 C12 1_555 1_555

#END
