
#######################################################################
#
#                 Cambridge Crystallographic Data Centre
#                                CCDC 
#
#######################################################################
#
# If this CIF has been generated from an entry in the Cambridge 
# Structural Database, then it will include bibliographic, chemical, 
# crystal, experimental, refinement or atomic coordinate data resulting 
# from the CCDC's data processing and validation procedures.
#
#######################################################################

data_COYTAN
_chemical_formula_moiety         'C30 H44 O4'
_chemical_name_systematic        
8-(6-hydroxy-6-methylhept-4-en-2-yl)-5,9,17,17-tetramethyl-18-oxapentacyclo[10.5.2.0^1,13^.0^4,12^.0^5,9^]nonadec-14-ene-3,16-dione
_symmetry_cell_setting           monoclinic
_symmetry_space_group_name_H-M   'P 21'
_symmetry_Int_Tables_number      4
_space_group_name_Hall           'P 2yb'
loop_
_symmetry_equiv_pos_site_id
_symmetry_equiv_pos_as_xyz
1 x,y,z
2 -x,1/2+y,-z
_cell_length_a                   6.583(3)
_cell_length_b                   10.929(5)
_cell_length_c                   18.986(9)
_cell_angle_alpha                90
_cell_angle_beta                 84.205(6)
_cell_angle_gamma                90
_cell_volume                     1358.98
_exptl_crystal_colour            colorless
_exptl_crystal_description       prism
_cell_formula_units_Z            2
loop_
_atom_site_label
_atom_site_type_symbol
_atom_site_fract_x
_atom_site_fract_y
_atom_site_fract_z
O1 O 0.2557(19) 0.3340(16) 1.0370(5)
O2 O -0.3069(12) 0.1232(8) 0.7667(4)
O3 O -0.0580(10) 0.3357(7) 0.8903(3)
O4 O 0.167(2) 0.3029(14) 0.2145(6)
H1 H 0.1369 0.2917 0.1741
C1 C 0.3945(18) 0.3402(13) 0.8609(6)
H2 H 0.4722 0.3953 0.8322
C2 C 0.427(2) 0.334(2) 0.9293(7)
H3 H 0.5510 0.3580 0.9439
C3 C 0.269(2) 0.2889(15) 0.9795(6)
C4 C 0.1222(17) 0.1958(12) 0.9576(6)
C5 C 0.0700(18) 0.2283(10) 0.8820(6)
C6 C -0.0645(14) 0.1286(10) 0.8514(6)
H4 H 0.0166 0.0554 0.8413
H5 H -0.1765 0.1078 0.8865
C7 C -0.148(2) 0.1697(10) 0.7859(6)
C8 C -0.0180(14) 0.2540(9) 0.7331(5)
H6 H -0.1170 0.3115 0.7165
C9 C 0.1230(15) 0.3346(9) 0.7739(5)
C10 C 0.2372(15) 0.2621(10) 0.8272(5)
H7 H 0.3012 0.1888 0.8050
C11 C 0.2445(16) 0.4235(10) 0.7230(5)
H8 H 0.1548 0.4888 0.7107
H9 H 0.3530 0.4599 0.7469
C12 C 0.3360(17) 0.3625(11) 0.6563(5)
H10 H 0.4383 0.3039 0.6679
H11 H 0.4036 0.4236 0.6251
C13 C 0.1774(15) 0.2974(9) 0.6181(5)
C14 C 0.0828(15) 0.1960(9) 0.6662(5)
C15 C -0.0615(14) 0.1331(10) 0.6200(5)
H12 H -0.1876 0.1788 0.6195
H13 H -0.0932 0.0507 0.6367
C16 C 0.0576(17) 0.1313(11) 0.5468(6)
H14 H -0.0269 0.1608 0.5114
H15 H 0.1020 0.0488 0.5343
C17 C 0.2461(18) 0.2172(10) 0.5510(5)
H16 H 0.3639 0.1675 0.5607
C18 C 0.0261(14) 0.3895(9) 0.5952(5)
H17 H -0.0511 0.3531 0.5604
H18 H 0.0981 0.4597 0.5752
H19 H -0.0647 0.4141 0.6354
C19 C -0.0149(18) 0.4107(10) 0.8290(5)
H20 H 0.0549 0.4848 0.8410
H21 H -0.1407 0.4334 0.8098
C20 C 0.291(2) 0.2770(11) 0.4778(6)
H22 H 0.1650 0.3147 0.4646
C21 C 0.454(2) 0.3771(14) 0.4803(6)
H23 H 0.5715 0.3437 0.4998
H24 H 0.3999 0.4436 0.5093
H25 H 0.4939 0.4063 0.4332
C22 C 0.363(2) 0.1849(11) 0.4226(5)
H26 H 0.2982 0.1070 0.4346
H27 H 0.5094 0.1739 0.4231
C23 C 0.318(3) 0.222(2) 0.3458(12)
H28 H 0.1886 0.2543 0.3423
C24 C 0.408(3) 0.2156(15) 0.3001(8)
H29 H 0.5256 0.1714 0.3058
C25 C 0.404(2) 0.2612(16) 0.2192(7)
C26 C 0.5275(17) 0.3697(15) 0.2045(6)
H30 H 0.6658 0.3530 0.2133
H31 H 0.4744 0.4353 0.2345
H32 H 0.5241 0.3928 0.1558
C27 C 0.443(2) 0.1576(12) 0.1695(6)
H33 H 0.4670 0.1882 0.1220
H34 H 0.3256 0.1046 0.1730
H35 H 0.5598 0.1126 0.1812
C28 C -0.0816(18) 0.1878(11) 1.0111(6)
H36 H -0.0469 0.1673 1.0576
H37 H -0.1698 0.1259 0.9951
H38 H -0.1504 0.2653 1.0126
C29 C 0.243(2) 0.0701(14) 0.9536(7)
H39 H 0.3188 0.0624 0.9079
H40 H 0.1477 0.0036 0.9607
H41 H 0.3349 0.0682 0.9896
C30 C 0.2318(15) 0.0953(8) 0.6858(5)
H42 H 0.2522 0.0373 0.6477
H43 H 0.1755 0.0543 0.7280
H44 H 0.3602 0.1317 0.6937
loop_
_geom_bond_atom_site_label_1
_geom_bond_atom_site_label_2
_geom_bond_site_symmetry_1
_geom_bond_site_symmetry_2
O1 C3 1_555 1_555
O2 C7 1_555 1_555
O3 C5 1_555 1_555
O4 H1 1_555 1_555
C1 H2 1_555 1_555
C2 C1 1_555 1_555
H3 C2 1_555 1_555
C3 C2 1_555 1_555
C4 C3 1_555 1_555
C5 C4 1_555 1_555
C6 C5 1_555 1_555
H4 C6 1_555 1_555
H5 C6 1_555 1_555
C7 C6 1_555 1_555
C8 C7 1_555 1_555
H6 C8 1_555 1_555
C9 C8 1_555 1_555
C10 C1 1_555 1_555
H7 C10 1_555 1_555
C11 C9 1_555 1_555
H8 C11 1_555 1_555
H9 C11 1_555 1_555
C12 C11 1_555 1_555
H10 C12 1_555 1_555
H11 C12 1_555 1_555
C13 C12 1_555 1_555
C14 C8 1_555 1_555
C15 C14 1_555 1_555
H12 C15 1_555 1_555
H13 C15 1_555 1_555
C16 C15 1_555 1_555
H14 C16 1_555 1_555
H15 C16 1_555 1_555
C17 C13 1_555 1_555
H16 C17 1_555 1_555
C18 C13 1_555 1_555
H17 C18 1_555 1_555
H18 C18 1_555 1_555
H19 C18 1_555 1_555
C19 O3 1_555 1_555
H20 C19 1_555 1_555
H21 C19 1_555 1_555
C20 C17 1_555 1_555
H22 C20 1_555 1_555
C21 C20 1_555 1_555
H23 C21 1_555 1_555
H24 C21 1_555 1_555
H25 C21 1_555 1_555
C22 C20 1_555 1_555
H26 C22 1_555 1_555
H27 C22 1_555 1_555
C23 C22 1_555 1_555
H28 C23 1_555 1_555
C24 C23 1_555 1_555
H29 C24 1_555 1_555
C25 O4 1_555 1_555
C26 C25 1_555 1_555
H30 C26 1_555 1_555
H31 C26 1_555 1_555
H32 C26 1_555 1_555
C27 C25 1_555 1_555
H33 C27 1_555 1_555
H34 C27 1_555 1_555
H35 C27 1_555 1_555
C28 C4 1_555 1_555
H36 C28 1_555 1_555
H37 C28 1_555 1_555
H38 C28 1_555 1_555
C29 C4 1_555 1_555
H39 C29 1_555 1_555
H40 C29 1_555 1_555
H41 C29 1_555 1_555
C30 C14 1_555 1_555
H42 C30 1_555 1_555
H43 C30 1_555 1_555
H44 C30 1_555 1_555
C5 C10 1_555 1_555
C9 C10 1_555 1_555
C9 C19 1_555 1_555
C13 C14 1_555 1_555
C16 C17 1_555 1_555
C24 C25 1_555 1_555

#END
