
#######################################################################
#
#                 Cambridge Crystallographic Data Centre
#                                CCDC 
#
#######################################################################
#
# If this CIF has been generated from an entry in the Cambridge 
# Structural Database, then it will include bibliographic, chemical, 
# crystal, experimental, refinement or atomic coordinate data resulting 
# from the CCDC's data processing and validation procedures.
#
#######################################################################

data_COYZEX
_chemical_formula_moiety         'C2 H2 N8 O1'
_chemical_name_systematic        
'tetrazolo[1,5-b][1,2,4,5]tetrazin-6-amine 5-oxide'
_symmetry_cell_setting           monoclinic
_symmetry_space_group_name_H-M   'P 21/n'
_symmetry_Int_Tables_number      14
_space_group_name_Hall           '-P 2yn'
loop_
_symmetry_equiv_pos_site_id
_symmetry_equiv_pos_as_xyz
1 x,y,z
2 1/2-x,1/2+y,1/2-z
3 -x,-y,-z
4 1/2+x,1/2-y,1/2+z
_cell_length_a                   7.0978(3)
_cell_length_b                   5.3038(2)
_cell_length_c                   14.9463(6)
_cell_angle_alpha                90
_cell_angle_beta                 103.74
_cell_angle_gamma                90
_cell_volume                     546.557
_exptl_crystal_colour            yellow
_exptl_crystal_description       plate
_cell_formula_units_Z            4
loop_
_atom_site_label
_atom_site_type_symbol
_atom_site_fract_x
_atom_site_fract_y
_atom_site_fract_z
O1 O 0.7543(2) 0.6307(3) 0.36745(11)
N1 N 0.2621(2) 1.1751(3) 0.14006(10)
N2 N 0.39153(19) 1.0574(2) 0.20679(9)
N3 N 0.4581(2) 1.1515(2) 0.29221(9)
N4 N 0.6672(3) 1.0501(3) 0.43074(10)
N5 N 0.63810(19) 0.7585(2) 0.31162(9)
N6 N 0.3477(2) 0.8154(3) 0.08680(10)
C1 C 0.4425(2) 0.8383(3) 0.17454(10)
N7 N 0.5719(2) 0.6795(2) 0.22823(9)
N8 N 0.2391(3) 1.0251(3) 0.06901(11)
C2 C 0.5818(2) 0.9995(3) 0.34477(10)
H1 H 0.631(4) 1.194(7) 0.456(2)
H2 H 0.745(4) 0.946(6) 0.4616(18)
loop_
_geom_bond_atom_site_label_1
_geom_bond_atom_site_label_2
_geom_bond_site_symmetry_1
_geom_bond_site_symmetry_2
O1 N5 1_555 1_555
N1 N2 1_555 1_555
N2 N3 1_555 1_555
N3 C2 1_555 1_555
N4 C2 1_555 1_555
N5 N7 1_555 1_555
N6 C1 1_555 1_555
C1 N2 1_555 1_555
N7 C1 1_555 1_555
N8 N1 1_555 1_555
C2 N5 1_555 1_555
H1 N4 1_555 1_555
H2 N4 1_555 1_555
N6 N8 1_555 1_555

#END
