
#######################################################################
#
#                 Cambridge Crystallographic Data Centre
#                                CCDC 
#
#######################################################################
#
# If this CIF has been generated from an entry in the Cambridge 
# Structural Database, then it will include bibliographic, chemical, 
# crystal, experimental, refinement or atomic coordinate data resulting 
# from the CCDC's data processing and validation procedures.
#
#######################################################################

data_COZCUQ
_chemical_formula_moiety         'C25 H29 O2 P1 S1 Si1'
_chemical_name_systematic        
'Diphenyl(2-phenyl-2-((trimethylsilyl)oxy)tetrahydro-3-furanyl)phosphine sulfide'
_symmetry_cell_setting           monoclinic
_symmetry_space_group_name_H-M   'C 2/c'
_symmetry_Int_Tables_number      15
_space_group_name_Hall           '-C 2yn'
loop_
_symmetry_equiv_pos_site_id
_symmetry_equiv_pos_as_xyz
1 x,y,z
2 -x,y,1/2-z
3 1/2+x,1/2+y,z
4 1/2-x,1/2+y,1/2-z
5 -x,-y,-z
6 x,-y,1/2+z
7 1/2-x,1/2-y,-z
8 1/2+x,1/2-y,1/2+z
_cell_length_a                   32.7713(6)
_cell_length_b                   8.3741(2)
_cell_length_c                   18.3244(3)
_cell_angle_alpha                90
_cell_angle_beta                 104.915(1)
_cell_angle_gamma                90
_cell_volume                     4859.34
_exptl_crystal_colour            colorless
_exptl_crystal_description       block
_cell_formula_units_Z            8
loop_
_atom_site_label
_atom_site_type_symbol
_atom_site_fract_x
_atom_site_fract_y
_atom_site_fract_z
Si1 Si 0.165372(13) 1.16007(5) 0.39002(3)
P1 P 0.064855(11) 0.83568(5) 0.40636(2)
S1 S 0.041410(13) 1.05113(5) 0.40231(2)
O1 O 0.12160(3) 0.96043(14) 0.26032(6)
C1 C 0.13126(4) 0.87771(18) 0.33043(8)
O2 O 0.14095(3) 0.98595(13) 0.39080(5)
C2 C 0.09043(4) 0.78143(19) 0.33143(8)
H1 H 0.0976 0.6652 0.3361
C3 C 0.06100(5) 0.8118(3) 0.25270(9)
H2 H 0.0637 0.7263 0.2169
H3 H 0.0312 0.8192 0.2548
C4 C 0.07654(5) 0.9694(2) 0.23054(9)
H4 H 0.0689 0.9822 0.1750
H5 H 0.0646 1.0597 0.2531
C5 C 0.10295(4) 0.78643(19) 0.49483(8)
C6 C 0.12041(5) 0.6346(2) 0.50734(8)
H6 H 0.1125 0.5549 0.4694
C7 C 0.14945(5) 0.5987(2) 0.57508(9)
H7 H 0.1615 0.4950 0.5833
C8 C 0.16078(5) 0.7145(2) 0.63058(9)
H8 H 0.1806 0.6901 0.6770
C9 C 0.14341(6) 0.8645(2) 0.61875(9)
H9 H 0.1513 0.9434 0.6570
C10 C 0.11436(5) 0.9017(2) 0.55113(9)
H10 H 0.1023 1.0055 0.5434
C11 C 0.02367(4) 0.68502(19) 0.39841(8)
C12 C -0.00748(5) 0.7151(2) 0.43627(8)
H11 H -0.0065 0.8109 0.4644
C13 C -0.03967(5) 0.6064(2) 0.43307(9)
H12 H -0.0606 0.6277 0.4592
C14 C -0.04150(5) 0.4666(2) 0.39197(10)
H13 H -0.0637 0.3925 0.3897
C15 C -0.01087(5) 0.4352(2) 0.35419(10)
H14 H -0.0121 0.3396 0.3258
C16 C 0.02170(5) 0.54329(19) 0.35765(9)
H15 H 0.0428 0.5205 0.3321
C17 C 0.16889(4) 0.76984(18) 0.33274(8)
C18 C 0.17715(5) 0.7135(2) 0.26661(10)
H16 H 0.1589 0.7412 0.2191
C19 C 0.21205(6) 0.6168(2) 0.26977(13)
H17 H 0.2177 0.5799 0.2243
C20 C 0.23841(6) 0.5741(2) 0.33832(14)
H18 H 0.2624 0.5087 0.3402
C21 C 0.22992(5) 0.6264(2) 0.40426(13)
H19 H 0.2478 0.5956 0.4517
C22 C 0.19537(5) 0.7239(2) 0.40161(10)
H20 H 0.1897 0.7595 0.4473
C23 C 0.12985(6) 1.3139(2) 0.33474(12)
H21 H 0.1241 1.2889 0.2808
H22 H 0.1434 1.4189 0.3444
H23 H 0.1033 1.3153 0.3498
C24 C 0.21292(5) 1.1341(2) 0.35337(11)
H24 H 0.2044 1.0931 0.3016
H25 H 0.2323 1.0582 0.3854
H26 H 0.2271 1.2372 0.3538
C25 C 0.18051(7) 1.2180(2) 0.49113(11)
H27 H 0.1550 1.2337 0.5088
H28 H 0.1968 1.3176 0.4972
H29 H 0.1978 1.1334 0.5208
loop_
_geom_bond_atom_site_label_1
_geom_bond_atom_site_label_2
_geom_bond_site_symmetry_1
_geom_bond_site_symmetry_2
Si1 O2 1_555 1_555
P1 S1 1_555 1_555
O1 C1 1_555 1_555
C1 O2 1_555 1_555
C2 P1 1_555 1_555
H1 C2 1_555 1_555
C3 C2 1_555 1_555
H2 C3 1_555 1_555
H3 C3 1_555 1_555
C4 O1 1_555 1_555
H4 C4 1_555 1_555
H5 C4 1_555 1_555
C5 P1 1_555 1_555
C6 C5 1_555 1_555
H6 C6 1_555 1_555
C7 C6 1_555 1_555
H7 C7 1_555 1_555
C8 C7 1_555 1_555
H8 C8 1_555 1_555
C9 C8 1_555 1_555
H9 C9 1_555 1_555
C10 C5 1_555 1_555
H10 C10 1_555 1_555
C11 P1 1_555 1_555
C12 C11 1_555 1_555
H11 C12 1_555 1_555
C13 C12 1_555 1_555
H12 C13 1_555 1_555
C14 C13 1_555 1_555
H13 C14 1_555 1_555
C15 C14 1_555 1_555
H14 C15 1_555 1_555
C16 C11 1_555 1_555
H15 C16 1_555 1_555
C17 C1 1_555 1_555
C18 C17 1_555 1_555
H16 C18 1_555 1_555
C19 C18 1_555 1_555
H17 C19 1_555 1_555
C20 C19 1_555 1_555
H18 C20 1_555 1_555
C21 C20 1_555 1_555
H19 C21 1_555 1_555
C22 C17 1_555 1_555
H20 C22 1_555 1_555
C23 Si1 1_555 1_555
H21 C23 1_555 1_555
H22 C23 1_555 1_555
H23 C23 1_555 1_555
C24 Si1 1_555 1_555
H24 C24 1_555 1_555
H25 C24 1_555 1_555
H26 C24 1_555 1_555
C25 Si1 1_555 1_555
H27 C25 1_555 1_555
H28 C25 1_555 1_555
H29 C25 1_555 1_555
C1 C2 1_555 1_555
C3 C4 1_555 1_555
C9 C10 1_555 1_555
C15 C16 1_555 1_555
C21 C22 1_555 1_555

#END
