
#######################################################################
#
#                 Cambridge Crystallographic Data Centre
#                                CCDC 
#
#######################################################################
#
# If this CIF has been generated from an entry in the Cambridge 
# Structural Database, then it will include bibliographic, chemical, 
# crystal, experimental, refinement or atomic coordinate data resulting 
# from the CCDC's data processing and validation procedures.
#
#######################################################################

data_COZKUZ
_chemical_formula_moiety         'C29 H26 O4'
_chemical_name_systematic        
'2-ethyl 1-methyl 4-(diphenylmethylene)-1-phenylcyclopent-2-ene-1,2-dicarboxylate'
_symmetry_cell_setting           monoclinic
_symmetry_space_group_name_H-M   'P 21/c'
_symmetry_Int_Tables_number      14
_space_group_name_Hall           '-P 2ybc'
loop_
_symmetry_equiv_pos_site_id
_symmetry_equiv_pos_as_xyz
1 x,y,z
2 -x,1/2+y,1/2-z
3 -x,-y,-z
4 x,1/2-y,1/2+z
_cell_length_a                   9.581(5)
_cell_length_b                   22.757(12)
_cell_length_c                   11.371(6)
_cell_angle_alpha                90
_cell_angle_beta                 107.397(6)
_cell_angle_gamma                90
_cell_volume                     2365.86
_exptl_crystal_colour            colorless
_exptl_crystal_description       block
_cell_formula_units_Z            4
loop_
_atom_site_label
_atom_site_type_symbol
_atom_site_fract_x
_atom_site_fract_y
_atom_site_fract_z
C1 C 0.7317(5) 0.85293(16) 0.6822(4)
H1 H 0.8060 0.8344 0.7427
C2 C 0.7589(6) 0.9059(2) 0.6322(5)
H2 H 0.8514 0.9228 0.6591
C3 C 0.6507(8) 0.93299(19) 0.5441(5)
H3 H 0.6695 0.9682 0.5102
C4 C 0.5133(7) 0.9087(2) 0.5047(4)
H4 H 0.4393 0.9275 0.4444
C5 C 0.4855(5) 0.85665(15) 0.5544(3)
H5 H 0.3919 0.8406 0.5286
C6 C 0.5950(4) 0.82792(14) 0.6423(3)
C7 C 0.5618(4) 0.77120(14) 0.6940(3)
C8 C 0.6314(4) 0.72137(14) 0.6802(3)
C9 C 0.7354(4) 0.71593(14) 0.6109(3)
H6 H 0.7524 0.7452 0.5597
C10 C 0.8042(4) 0.66408(14) 0.6289(3)
C11 C 0.7590(4) 0.62661(13) 0.7219(3)
C12 C 0.6219(4) 0.66094(13) 0.7333(3)
H7 H 0.5325 0.6413 0.6872
H8 H 0.6238 0.6639 0.8188
C13 C 0.4516(4) 0.77351(15) 0.7620(3)
C14 C 0.3402(4) 0.73162(15) 0.7438(3)
H9 H 0.3361 0.7007 0.6894
C15 C 0.2367(4) 0.73556(18) 0.8052(4)
H10 H 0.1647 0.7068 0.7934
C16 C 0.2388(5) 0.78188(19) 0.8844(4)
H11 H 0.1679 0.7850 0.9250
C17 C 0.3476(5) 0.82326(18) 0.9020(4)
H12 H 0.3506 0.8543 0.9558
C18 C 0.4518(4) 0.81971(15) 0.8421(3)
H13 H 0.5236 0.8485 0.8551
C19 C 0.9172(4) 0.64896(15) 0.5698(3)
C20 C 1.1080(5) 0.58268(19) 0.5691(5)
H14 H 1.0636 0.5633 0.4909
H15 H 1.1628 0.6163 0.5543
C21 C 1.2037(7) 0.5432(3) 0.6517(6)
H16 H 1.2540 0.5635 0.7263
H17 H 1.2737 0.5280 0.6143
H18 H 1.1482 0.5113 0.6704
C22 C 0.7051(4) 0.56626(15) 0.6686(4)
C23 C 0.6030(5) 0.47656(15) 0.7063(4)
H19 H 0.5249 0.4810 0.6309
H20 H 0.5661 0.4588 0.7675
H21 H 0.6779 0.4520 0.6921
C24 C 0.8824(4) 0.62442(14) 0.8440(3)
C25 C 0.9148(4) 0.67497(14) 0.9156(3)
H22 H 0.8600 0.7088 0.8889
C26 C 1.0248(4) 0.67607(17) 1.0237(3)
H23 H 1.0439 0.7104 1.0700
C27 C 1.1083(4) 0.62670(19) 1.0652(4)
H24 H 1.1826 0.6273 1.1397
C28 C 1.0800(4) 0.57662(17) 0.9946(4)
H25 H 1.1370 0.5433 1.0209
C29 C 0.9676(4) 0.57523(15) 0.8848(3)
H26 H 0.9493 0.5410 0.8382
O1 O 0.9397(3) 0.67582(12) 0.4864(3)
O2 O 0.9949(3) 0.60225(11) 0.6210(2)
O3 O 0.6937(3) 0.55124(11) 0.5666(3)
O4 O 0.6637(3) 0.53368(10) 0.7489(2)
loop_
_geom_bond_atom_site_label_1
_geom_bond_atom_site_label_2
_geom_bond_site_symmetry_1
_geom_bond_site_symmetry_2
C1 H1 1_555 1_555
C2 C1 1_555 1_555
H2 C2 1_555 1_555
C3 C2 1_555 1_555
H3 C3 1_555 1_555
C4 C3 1_555 1_555
H4 C4 1_555 1_555
C5 C4 1_555 1_555
H5 C5 1_555 1_555
C6 C1 1_555 1_555
C7 C6 1_555 1_555
C8 C7 1_555 1_555
C9 C8 1_555 1_555
H6 C9 1_555 1_555
C10 C9 1_555 1_555
C11 C10 1_555 1_555
C12 C8 1_555 1_555
H7 C12 1_555 1_555
H8 C12 1_555 1_555
C13 C7 1_555 1_555
C14 C13 1_555 1_555
H9 C14 1_555 1_555
C15 C14 1_555 1_555
H10 C15 1_555 1_555
C16 C15 1_555 1_555
H11 C16 1_555 1_555
C17 C16 1_555 1_555
H12 C17 1_555 1_555
C18 C13 1_555 1_555
H13 C18 1_555 1_555
C19 C10 1_555 1_555
C20 H14 1_555 1_555
H15 C20 1_555 1_555
C21 C20 1_555 1_555
H16 C21 1_555 1_555
H17 C21 1_555 1_555
H18 C21 1_555 1_555
C22 C11 1_555 1_555
C23 H19 1_555 1_555
H20 C23 1_555 1_555
H21 C23 1_555 1_555
C24 C11 1_555 1_555
C25 C24 1_555 1_555
H22 C25 1_555 1_555
C26 C25 1_555 1_555
H23 C26 1_555 1_555
C27 C26 1_555 1_555
H24 C27 1_555 1_555
C28 C27 1_555 1_555
H25 C28 1_555 1_555
C29 C24 1_555 1_555
H26 C29 1_555 1_555
O1 C19 1_555 1_555
O2 C19 1_555 1_555
O3 C22 1_555 1_555
O4 C22 1_555 1_555
C5 C6 1_555 1_555
C11 C12 1_555 1_555
C17 C18 1_555 1_555
C20 O2 1_555 1_555
C23 O4 1_555 1_555
C28 C29 1_555 1_555

#END
