
#######################################################################
#
#                 Cambridge Crystallographic Data Centre
#                                CCDC 
#
#######################################################################
#
# If this CIF has been generated from an entry in the Cambridge 
# Structural Database, then it will include bibliographic, chemical, 
# crystal, experimental, refinement or atomic coordinate data resulting 
# from the CCDC's data processing and validation procedures.
#
#######################################################################

data_COZNIQ
_chemical_formula_moiety         'C22 H19 Cl1 N2 O4,C1 H2 Cl2'
_chemical_name_systematic        
'methyl 7-(4-chlorophenyl)-3,5-dioxo-4-phenyl-4,10-diazatricyclo[5.2.1.0^2,6^]decane-1-carboxylate dichloromethane solvate'
_symmetry_cell_setting           monoclinic
_symmetry_space_group_name_H-M   'P 21'
_symmetry_Int_Tables_number      4
_space_group_name_Hall           'P 2yb'
loop_
_symmetry_equiv_pos_site_id
_symmetry_equiv_pos_as_xyz
1 x,y,z
2 -x,1/2+y,-z
_cell_length_a                   10.3864(14)
_cell_length_b                   9.6576(13)
_cell_length_c                   11.8090(16)
_cell_angle_alpha                90
_cell_angle_beta                 95.122(3)
_cell_angle_gamma                90
_cell_volume                     1179.8
_exptl_crystal_colour            colorless
_exptl_crystal_description       block
_cell_formula_units_Z            2
loop_
_atom_site_label
_atom_site_type_symbol
_atom_site_fract_x
_atom_site_fract_y
_atom_site_fract_z
C1 C 0.5544(5) 0.7252(5) 0.3580(4)
C2 C 0.5051(5) 0.6078(5) 0.4040(4)
H1 H 0.5530 0.5595 0.4615
C3 C 0.3839(5) 0.5630(5) 0.3637(4)
H2 H 0.3504 0.4834 0.3943
C4 C 0.3105(4) 0.6334(5) 0.2786(3)
C5 C 0.3632(5) 0.7528(6) 0.2350(4)
H3 H 0.3158 0.8019 0.1777
C6 C 0.4844(5) 0.7995(6) 0.2754(5)
H4 H 0.5178 0.8803 0.2468
C7 C 0.1801(4) 0.5819(4) 0.2317(3)
C8 C 0.0997(5) 0.5021(6) 0.3152(4)
H5 H 0.1058 0.5458 0.3895
H6 H 0.1278 0.4065 0.3235
C9 C -0.0395(5) 0.5119(5) 0.2562(4)
H7 H -0.0728 0.4214 0.2333
H8 H -0.0978 0.5555 0.3051
C10 C -0.0188(4) 0.6032(4) 0.1521(3)
C11 C 0.0431(3) 0.5151(4) 0.0651(3)
H9 H -0.0052 0.4300 0.0454
C12 C 0.1786(4) 0.4876(4) 0.1237(3)
H10 H 0.1901 0.3898 0.1444
C13 C 0.2705(4) 0.5313(4) 0.0401(3)
C14 C 0.0695(4) 0.6014(4) -0.0385(3)
C15 C -0.1384(4) 0.6813(5) 0.1074(4)
C16 C -0.3477(5) 0.6545(7) 0.0140(6)
H11 H -0.3318 0.7430 -0.0191
H12 H -0.4053 0.6659 0.0726
H13 H -0.3862 0.5935 -0.0435
C17 C 0.2606(4) 0.6604(4) -0.1425(3)
C18 C 0.2319(5) 0.6032(6) -0.2486(4)
H14 H 0.1748 0.5291 -0.2586
C19 C 0.2895(7) 0.6577(7) -0.3404(4)
H15 H 0.2726 0.6187 -0.4122
C20 C 0.3711(5) 0.7687(6) -0.3254(4)
H16 H 0.4085 0.8060 -0.3872
C21 C 0.3977(5) 0.8247(6) -0.2203(4)
H17 H 0.4538 0.8996 -0.2105
C22 C 0.3417(5) 0.7706(5) -0.1280(4)
H18 H 0.3594 0.8096 -0.0562
Cl1 Cl 0.71106(14) 0.78122(17) 0.40576(14)
N1 N 0.0917(3) 0.6930(3) 0.1880(3)
H19 H 0.1016 0.7812 0.1846
N2 N 0.2015(3) 0.6027(3) -0.0475(2)
O1 O -0.0086(3) 0.6607(4) -0.1029(3)
O2 O 0.3857(3) 0.5097(3) 0.0442(3)
O3 O -0.1515(3) 0.8053(3) 0.1146(3)
O4 O -0.2268(3) 0.5962(4) 0.0626(4)
C23 C 0.1367(10) 0.0644(10) 0.3355(8)
H20 H 0.0883 0.1432 0.3598
H21 H 0.0929 0.0322 0.2644
Cl2 Cl 0.1256(4) -0.0605(3) 0.43112(19)
Cl3 Cl 0.2874(3) 0.1238(3) 0.3068(2)
loop_
_geom_bond_atom_site_label_1
_geom_bond_atom_site_label_2
_geom_bond_site_symmetry_1
_geom_bond_site_symmetry_2
C1 C2 1_555 1_555
C2 H1 1_555 1_555
C3 C2 1_555 1_555
H2 C3 1_555 1_555
C4 C3 1_555 1_555
C5 C4 1_555 1_555
H3 C5 1_555 1_555
C6 C1 1_555 1_555
H4 C6 1_555 1_555
C7 C4 1_555 1_555
C8 C7 1_555 1_555
H5 C8 1_555 1_555
H6 C8 1_555 1_555
C9 C8 1_555 1_555
H7 C9 1_555 1_555
H8 C9 1_555 1_555
C10 C9 1_555 1_555
C11 C10 1_555 1_555
H9 C11 1_555 1_555
C12 C7 1_555 1_555
H10 C12 1_555 1_555
C13 C12 1_555 1_555
C14 C11 1_555 1_555
C15 C10 1_555 1_555
C16 H11 1_555 1_555
H12 C16 1_555 1_555
H13 C16 1_555 1_555
C17 C18 1_555 1_555
C18 H14 1_555 1_555
C19 C18 1_555 1_555
H15 C19 1_555 1_555
C20 C19 1_555 1_555
H16 C20 1_555 1_555
C21 C20 1_555 1_555
H17 C21 1_555 1_555
C22 C17 1_555 1_555
H18 C22 1_555 1_555
Cl1 C1 1_555 1_555
N1 C7 1_555 1_555
H19 N1 1_555 1_555
N2 C13 1_555 1_555
O1 C14 1_555 1_555
O2 C13 1_555 1_555
O3 C15 1_555 1_555
O4 C15 1_555 1_555
C23 H20 1_555 1_555
H21 C23 1_555 1_555
Cl2 C23 1_555 1_555
Cl3 C23 1_555 1_555
C5 C6 1_555 1_555
C10 N1 1_555 1_555
C11 C12 1_555 1_555
C14 N2 1_555 1_555
C16 O4 1_555 1_555
C17 N2 1_555 1_555
C21 C22 1_555 1_555

#END
