
#######################################################################
#
#                 Cambridge Crystallographic Data Centre
#                                CCDC 
#
#######################################################################
#
# If this CIF has been generated from an entry in the Cambridge 
# Structural Database, then it will include bibliographic, chemical, 
# crystal, experimental, refinement or atomic coordinate data resulting 
# from the CCDC's data processing and validation procedures.
#
#######################################################################

data_COZRUF
_chemical_formula_moiety         
'C24 H22 N7 1+,1.5(C18 H14 N4),Cl1 O4 1-,3(H2 O1)'
_chemical_name_systematic        
"(bis(Benzimidazol-2-ylmethyl)((benzimidazol-3-ium-2-yl)methyl)amine) monohydrate clathrate perchlorate sesquikis(N,N'-bis(4-pyridinylmethylene)-1,4-benzenediamine) dihydrate"
_symmetry_cell_setting           rhombohedral
_symmetry_space_group_name_H-M   'R -3'
_symmetry_Int_Tables_number      148
_space_group_name_Hall           '-R 3'
loop_
_symmetry_equiv_pos_site_id
_symmetry_equiv_pos_as_xyz
1 x,y,z
2 -y,x-y,z
3 -x+y,-x,z
4 2/3+x,1/3+y,1/3+z
5 2/3-y,1/3+x-y,1/3+z
6 2/3-x+y,1/3-x,1/3+z
7 1/3+x,2/3+y,2/3+z
8 1/3-y,2/3+x-y,2/3+z
9 1/3-x+y,2/3-x,2/3+z
10 -x,-y,-z
11 y,-x+y,-z
12 x-y,x,-z
13 1/3-x,2/3-y,2/3-z
14 1/3+y,2/3-x+y,2/3-z
15 1/3+x-y,2/3+x,2/3-z
16 2/3-x,1/3-y,1/3-z
17 2/3+y,1/3-x+y,1/3-z
18 2/3+x-y,1/3+x,1/3-z
_cell_length_a                   16.8323(4)
_cell_length_b                   16.8323(4)
_cell_length_c                   32.6236(14)
_cell_angle_alpha                90
_cell_angle_beta                 90
_cell_angle_gamma                120
_cell_volume                     8004.78
_exptl_crystal_colour            red
_exptl_crystal_description       block
_cell_formula_units_Z            6
_exptl_crystal_recrystallization_method 'diethyl ether'
loop_
_atom_site_label
_atom_site_type_symbol
_atom_site_fract_x
_atom_site_fract_y
_atom_site_fract_z
N1 N 0.6667 0.3333 0.05110(19)
N2 N 0.7319(3) 0.2431(3) -0.00207(11)
N3 N 0.7604(2) 0.1812(2) 0.05197(11)
H2 H 0.7604 0.1646 0.0769
C1 C 0.6610(3) 0.2479(3) 0.06429(13)
H3 H 0.5977 0.1986 0.0632
H4 H 0.6821 0.2539 0.0924
C2 C 0.7174(3) 0.2261(3) 0.03775(14)
C3 C 0.8042(3) 0.1670(3) 0.01896(15)
C4 C 0.8564(3) 0.1249(3) 0.01606(15)
H5 H 0.8678 0.0985 0.0387
C5 C 0.8911(4) 0.1243(4) -0.02282(17)
H6 H 0.9264 0.0966 -0.0270
C6 C 0.8713(4) 0.1665(4) -0.05543(19)
H7 H 0.8961 0.1657 -0.0808
C7 C 0.8198(4) 0.2083(5) -0.05411(18)
H8 H 0.8085 0.2351 -0.0766
C8 C 0.7858(4) 0.2059(4) -0.01416(16)
N2A N 0.7569(3) 0.4888(4) -0.00207(11)
N2B N 0.5112(4) 0.2681(3) -0.00207(11)
N3A N 0.8188(2) 0.5792(3) 0.05197(11)
N3B N 0.4208(3) 0.2396(2) 0.05197(11)
H2A H 0.8354 0.5958 0.0769
H2B H 0.4042 0.2396 0.0769
C1A C 0.7521(3) 0.4131(4) 0.06429(13)
C1B C 0.5869(4) 0.3390(3) 0.06429(13)
H3A H 0.8014 0.3991 0.0632
H3B H 0.6009 0.4023 0.0632
H4A H 0.7461 0.4282 0.0924
H4B H 0.5718 0.3179 0.0924
C2A C 0.7739(3) 0.4913(4) 0.03775(14)
C2B C 0.5087(4) 0.2826(3) 0.03775(14)
C3A C 0.8330(3) 0.6372(4) 0.01896(15)
C3B C 0.3628(4) 0.1958(3) 0.01896(15)
C4A C 0.8751(3) 0.7315(4) 0.01606(15)
C4B C 0.2685(4) 0.1436(3) 0.01606(15)
H5A H 0.9015 0.7693 0.0387
H5B H 0.2307 0.1322 0.0387
C5A C 0.8757(4) 0.7668(6) -0.02282(17)
C5B C 0.2332(6) 0.1089(4) -0.02282(17)
H6A H 0.9034 0.8298 -0.0270
H6B H 0.1702 0.0736 -0.0270
C6A C 0.8335(4) 0.7048(6) -0.05543(19)
C6B C 0.2952(6) 0.1287(4) -0.05543(19)
H7A H 0.8343 0.7304 -0.0808
H7B H 0.2696 0.1039 -0.0808
C7A C 0.7917(5) 0.6115(6) -0.05411(18)
C7B C 0.3885(6) 0.1802(4) -0.05411(18)
H8A H 0.7649 0.5734 -0.0766
H8B H 0.4266 0.1915 -0.0766
C8A C 0.7941(4) 0.5799(6) -0.01416(16)
C8B C 0.4201(6) 0.2142(4) -0.01416(16)
N4 N 0.7089(2) -0.0670(2) -0.20159(10)
N5 N 0.54971(19) -0.0374(2) -0.07631(10)
C9 C 0.7696(3) -0.0267(3) -0.17075(14)
H9 H 0.8307 -0.0088 -0.1757
C10 C 0.7467(3) -0.0106(3) -0.13255(14)
H10 H 0.7912 0.0167 -0.1123
C11 C 0.6218(3) -0.0943(3) -0.19231(14)
H11 H 0.5776 -0.1255 -0.2123
C12 C 0.5929(3) -0.0795(3) -0.15523(14)
H12 H 0.5313 -0.0988 -0.1508
C13 C 0.6567(2) -0.0354(3) -0.12461(13)
C14 C 0.6308(2) -0.0163(3) -0.08425(14)
H13 H 0.6756 0.0120 -0.0642
C15 C 0.5283(2) -0.0173(3) -0.03722(13)
C16 C 0.4550(2) -0.0011(3) -0.03509(13)
H14 H 0.4241 -0.0026 -0.0589
C17 C 0.5719(2) -0.0170(3) -0.00135(13)
H15 H 0.6200 -0.0293 -0.0021
N4I N 0.2911(2) 0.0670(2) 0.20159(10)
N5I N 0.45029(19) 0.0374(2) 0.07631(10)
C9I C 0.2304(3) 0.0267(3) 0.17075(14)
H9I H 0.1693 0.0088 0.1757
C10I C 0.2533(3) 0.0106(3) 0.13255(14)
H10I H 0.2088 -0.0167 0.1123
C11I C 0.3782(3) 0.0943(3) 0.19231(14)
H11I H 0.4224 0.1255 0.2123
C12I C 0.4071(3) 0.0795(3) 0.15523(14)
H12I H 0.4687 0.0988 0.1508
C13I C 0.3433(2) 0.0354(3) 0.12461(13)
C14I C 0.3692(2) 0.0163(3) 0.08425(14)
H13I H 0.3244 -0.0120 0.0642
C15I C 0.4717(2) 0.0173(3) 0.03722(13)
C16I C 0.5450(2) 0.0011(3) 0.03509(13)
H14I H 0.5759 0.0026 0.0589
C17I C 0.4281(2) 0.0170(3) 0.00135(13)
H15I H 0.3800 0.0293 0.0021
Cl1 Cl 1.0000 0.0000 0.12240(5)
O1 O 0.9146(2) -0.0160(2) 0.11189(15)
O2 O 1.0000 0.0000 0.1662(2)
O1A O 1.0160(2) -0.0694(3) 0.11189(15)
O1B O 1.0694(3) 0.0854(2) 0.11189(15)
O3 O 0.6667 0.3333 -0.0333(3)
O4 O 0.7465(12) 0.2092(13) -0.1832(6)
H1? H 0.7121 0.2713 -0.0173
O5? O 0.8044(12) 0.3123(13) -0.1703(6)
loop_
_geom_bond_atom_site_label_1
_geom_bond_atom_site_label_2
_geom_bond_site_symmetry_1
_geom_bond_site_symmetry_2
N1 C1 1_555 1_555
N2 C2 1_555 1_555
N3 H2 1_555 1_555
N4 C9 1_555 1_555
N5 C14 1_555 1_555
C1 H3 1_555 1_555
H4 C1 1_555 1_555
C2 N3 1_555 1_555
C3 N3 1_555 1_555
C4 C3 1_555 1_555
H5 C4 1_555 1_555
C5 C4 1_555 1_555
H6 C5 1_555 1_555
C6 C5 1_555 1_555
H7 C6 1_555 1_555
C7 C6 1_555 1_555
H8 C7 1_555 1_555
C8 N2 1_555 1_555
C9 H9 1_555 1_555
C10 C9 1_555 1_555
H10 C10 1_555 1_555
C11 N4 1_555 1_555
H11 C11 1_555 1_555
C12 C11 1_555 1_555
H12 C12 1_555 1_555
C13 C10 1_555 1_555
C14 C13 1_555 1_555
H13 C14 1_555 1_555
C15 N5 1_555 1_555
C16 C15 1_555 1_555
H14 C16 1_555 1_555
C17 C15 1_555 1_555
H15 C17 1_555 1_555
Cl1 O1 1_555 1_555
O2 Cl1 1_555 1_555
N2A C2A 1_555 1_555
N2B C2B 1_555 1_555
N3A H2A 1_555 1_555
N3B H2B 1_555 1_555
N4I C9I 1_555 1_555
N5I C14I 1_555 1_555
C1A N1 1_555 1_555
C1B N1 1_555 1_555
H3A C1A 1_555 1_555
H3B C1B 1_555 1_555
H4A C1A 1_555 1_555
H4B C1B 1_555 1_555
C2A N3A 1_555 1_555
C2B N3B 1_555 1_555
C3A N3A 1_555 1_555
C3B N3B 1_555 1_555
C4A C3A 1_555 1_555
C4B C3B 1_555 1_555
H5A C4A 1_555 1_555
H5B C4B 1_555 1_555
C5A C4A 1_555 1_555
C5B C4B 1_555 1_555
H6A C5A 1_555 1_555
H6B C5B 1_555 1_555
C6A C5A 1_555 1_555
C6B C5B 1_555 1_555
H7A C6A 1_555 1_555
H7B C6B 1_555 1_555
C7A C6A 1_555 1_555
C7B C6B 1_555 1_555
H8A C7A 1_555 1_555
H8B C7B 1_555 1_555
C8A N2A 1_555 1_555
C8B N2B 1_555 1_555
C9I H9I 1_555 1_555
C10I C9I 1_555 1_555
H10I C10I 1_555 1_555
C11I N4I 1_555 1_555
H11I C11I 1_555 1_555
C12I C11I 1_555 1_555
H12I C12I 1_555 1_555
C13I C10I 1_555 1_555
C14I C13I 1_555 1_555
H13I C14I 1_555 1_555
C15I N5I 1_555 1_555
C16I C17 1_555 1_555
H14I C16I 1_555 1_555
C17I C16 1_555 1_555
H15I C17I 1_555 1_555
O1A Cl1 1_555 1_555
O1B Cl1 1_555 1_555
C1 C2 1_555 1_555
C3 C8 1_555 1_555
C7 C8 1_555 1_555
C12 C13 1_555 1_555
C1A C2A 1_555 1_555
C1B C2B 1_555 1_555
C3A C8A 1_555 1_555
C3B C8B 1_555 1_555
C7A C8A 1_555 1_555
C7B C8B 1_555 1_555
C12I C13I 1_555 1_555
C15I C16I 1_555 1_555
C15I C17I 1_555 1_555

#END
