
#######################################################################
#
#                 Cambridge Crystallographic Data Centre
#                                CCDC 
#
#######################################################################
#
# If this CIF has been generated from an entry in the Cambridge 
# Structural Database, then it will include bibliographic, chemical, 
# crystal, experimental, refinement or atomic coordinate data resulting 
# from the CCDC's data processing and validation procedures.
#
#######################################################################

data_COZWIZ
_chemical_formula_moiety         'C22 H15 N1 O2'
_chemical_name_systematic        11-benzylchromeno[4,3-b]indol-6(11H)-one
_symmetry_cell_setting           triclinic
_symmetry_space_group_name_H-M   'P -1'
_symmetry_Int_Tables_number      2
_space_group_name_Hall           '-P 1'
loop_
_symmetry_equiv_pos_site_id
_symmetry_equiv_pos_as_xyz
1 x,y,z
2 -x,-y,-z
_cell_length_a                   8.4366(6)
_cell_length_b                   8.8120(6)
_cell_length_c                   11.1014(8)
_cell_angle_alpha                83.374(6)
_cell_angle_beta                 87.099(6)
_cell_angle_gamma                87.095(6)
_cell_volume                     817.915
_cell_formula_units_Z            2
loop_
_atom_site_label
_atom_site_type_symbol
_atom_site_fract_x
_atom_site_fract_y
_atom_site_fract_z
O1 O 0.2327(2) -0.0580(3) 0.9065(2)
O2 O 0.1650(5) 0.1092(7) 0.7442(3)
N1 N 0.6939(3) -0.0529(3) 0.7696(2)
C1 C 0.3403(6) -0.1560(6) 0.9676(5)
C2 C 0.2764(5) -0.2390(5) 1.0679(4)
H1 H 0.1696 -0.2245 1.0908
C3 C 0.3732(6) -0.3455(5) 1.1356(4)
H2 H 0.3315 -0.4019 1.2049
C4 C 0.5324(5) -0.3678(6) 1.0998(4)
H3 H 0.5952 -0.4426 1.1433
C5 C 0.5979(10) -0.2807(9) 1.0007(8)
H4 H 0.7056 -0.2922 0.9798
C6 C 0.4989(4) -0.1725(4) 0.9303(3)
C7 C 0.5485(4) -0.0721(4) 0.8229(3)
C8 C 0.6779(4) 0.0536(4) 0.6646(4)
C9 C 0.7926(7) 0.1039(8) 0.5762(4)
H5 H 0.8976 0.0665 0.5802
C10 C 0.7451(5) 0.2114(6) 0.4823(4)
H6 H 0.8201 0.2497 0.4238
C11 C 0.5885(5) 0.2625(6) 0.4743(4)
H7 H 0.5589 0.3336 0.4099
C12 C 0.4731(6) 0.2085(5) 0.5623(4)
H8 H 0.3677 0.2440 0.5569
C13 C 0.5184(4) 0.1022(4) 0.6569(3)
C14 C 0.4341(7) 0.0198(5) 0.7591(3)
C15 C 0.2759(4) 0.0329(4) 0.7976(3)
C16 C 0.8498(6) -0.1169(6) 0.8080(4)
H9 H 0.8518 -0.1207 0.8956
H10 H 0.9305 -0.0481 0.7732
C17 C 0.8934(2) -0.2759(2) 0.77247(19)
C18 C 0.8296(3) -0.3203(3) 0.6717(2)
H11 H 0.7535 -0.2567 0.6310
C19 C 0.8762(3) -0.4573(3) 0.6297(2)
H12 H 0.8322 -0.4843 0.5605
C20 C 0.9847(3) -0.5529(3) 0.6876(3)
H13 H 1.0147 -0.6460 0.6594
C21 C 1.0493(3) -0.5116(3) 0.7874(3)
H14 H 1.1249 -0.5766 0.8274
C22 C 1.0043(3) -0.3738(3) 0.8307(2)
H15 H 1.0495 -0.3474 0.8997
O3? O 0.3547(8) 0.1838(8) 0.6413(7)
O4? O 0.172(2) 0.095(3) 0.7903(14)
N2? N 0.6650(10) -0.1171(10) 0.8370(8)
C23? C 0.5055(15) 0.186(2) 0.5983(15)
C24? C 0.5378(17) 0.2851(17) 0.4985(13)
H16? H 0.4606 0.3578 0.4703
C25? C 0.6899(17) 0.2784(14) 0.4368(10)
H17? H 0.7079 0.3338 0.3613
C26? C 0.8114(13) 0.186(2) 0.4927(15)
H18? H 0.9129 0.1849 0.4560
C27? C 0.782(2) 0.097(3) 0.6024(17)
H19? H 0.8651 0.0469 0.6445
C28? C 0.627(2) 0.0847(15) 0.6485(12)
C29? C 0.5810(13) -0.0081(12) 0.7545(10)
C30? C 0.5673(14) -0.1780(16) 0.9196(14)
C31? C 0.585(3) -0.298(3) 1.009(2)
H20? H 0.6815 -0.3533 1.0125
C32? C 0.464(2) -0.341(2) 1.0962(18)
H21? H 0.4865 -0.4131 1.1619
C33? C 0.327(2) -0.283(2) 1.0858(18)
H22? H 0.2469 -0.3115 1.1435
C34? C 0.294(2) -0.174(2) 0.9853(19)
H23? H 0.1891 -0.1376 0.9765
C35? C 0.4107(14) -0.1161(12) 0.8966(11)
C36? C 0.429(3) -0.0180(18) 0.8022(14)
C37? C 0.3046(12) 0.0978(13) 0.7281(11)
C38? C 0.836(2) -0.144(2) 0.8444(18)
H24? H 0.843(10) -0.169(10) 0.932(3)
H25? H 0.886(12) -0.049(7) 0.813(9)
loop_
_geom_bond_atom_site_label_1
_geom_bond_atom_site_label_2
_geom_bond_site_symmetry_1
_geom_bond_site_symmetry_2
O1 C1 1_555 1_555
O2 C15 1_555 1_555
N1 C7 1_555 1_555
C1 C2 1_555 1_555
C2 H1 1_555 1_555
C3 C2 1_555 1_555
H2 C3 1_555 1_555
C4 C3 1_555 1_555
H3 C4 1_555 1_555
C5 C4 1_555 1_555
H4 C5 1_555 1_555
C6 C1 1_555 1_555
C7 C6 1_555 1_555
C8 N1 1_555 1_555
C9 C8 1_555 1_555
H5 C9 1_555 1_555
C10 C9 1_555 1_555
H6 C10 1_555 1_555
C11 C10 1_555 1_555
H7 C11 1_555 1_555
C12 C11 1_555 1_555
H8 C12 1_555 1_555
C13 C8 1_555 1_555
C14 C7 1_555 1_555
C15 O1 1_555 1_555
C16 N1 1_555 1_555
H9 C16 1_555 1_555
H10 C16 1_555 1_555
C17 C16 1_555 1_555
C18 C17 1_555 1_555
H11 C18 1_555 1_555
C19 C18 1_555 1_555
H12 C19 1_555 1_555
C20 C19 1_555 1_555
H13 C20 1_555 1_555
C21 C20 1_555 1_555
H14 C21 1_555 1_555
C22 C17 1_555 1_555
H15 C22 1_555 1_555
C5 C6 1_555 1_555
C12 C13 1_555 1_555
C13 C14 1_555 1_555
C14 C15 1_555 1_555
C21 C22 1_555 1_555

#END
