
#######################################################################
#
#                 Cambridge Crystallographic Data Centre
#                                CCDC 
#
#######################################################################
#
# If this CIF has been generated from an entry in the Cambridge 
# Structural Database, then it will include bibliographic, chemical, 
# crystal, experimental, refinement or atomic coordinate data resulting 
# from the CCDC's data processing and validation procedures.
#
#######################################################################

data_COZZIC
_chemical_formula_moiety         'C16 H19 N1 O3'
_chemical_name_systematic        
N-(3-acetyl-3-methyl-4-oxo-1-phenylpent-1-en-1-yl)acetamide
_symmetry_cell_setting           orthorhombic
_symmetry_space_group_name_H-M   'P b c a'
_symmetry_Int_Tables_number      61
_space_group_name_Hall           '-P 2ac 2ab'
loop_
_symmetry_equiv_pos_site_id
_symmetry_equiv_pos_as_xyz
1 x,y,z
2 1/2-x,-y,1/2+z
3 1/2+x,1/2-y,-z
4 -x,1/2+y,1/2-z
5 -x,-y,-z
6 1/2+x,y,1/2-z
7 1/2-x,1/2+y,z
8 x,1/2-y,1/2+z
_cell_length_a                   37.202(3)
_cell_length_b                   8.9299(10)
_cell_length_c                   9.4735(7)
_cell_angle_alpha                90
_cell_angle_beta                 90
_cell_angle_gamma                90
_cell_volume                     3147.19
_exptl_crystal_colour            'light colorless'
_exptl_crystal_description       plate
_cell_formula_units_Z            8
loop_
_atom_site_label
_atom_site_type_symbol
_atom_site_fract_x
_atom_site_fract_y
_atom_site_fract_z
O1 O 0.43405(12) -0.3004(5) 0.2865(5)
O2 O 0.44286(10) 0.1986(5) 0.2977(4)
O3 O 0.34763(8) 0.2489(3) 0.0850(2)
N1 N 0.35421(7) 0.1528(3) 0.3015(3)
H1 H 0.3574 0.1717 0.3896
C1 C 0.28684(11) 0.0034(5) 0.2441(5)
H2 H 0.2867 0.0793 0.3113
C2 C 0.25446(13) -0.0521(8) 0.1933(7)
H3 H 0.2329 -0.0143 0.2279
C3 C 0.25412(17) -0.1596(8) 0.0948(7)
H4 H 0.2323 -0.1973 0.0622
C4 C 0.28576(19) -0.2143(7) 0.0421(6)
H5 H 0.2854 -0.2869 -0.0282
C5 C 0.31842(12) -0.1622(5) 0.0928(4)
H6 H 0.3398 -0.2008 0.0573
C6 C 0.31921(10) -0.0520(5) 0.1968(3)
C7 C 0.35326(9) 0.0006(4) 0.2577(3)
C8 C 0.38105(10) -0.0892(5) 0.2777(3)
H7 H 0.3777 -0.1898 0.2561
C9 C 0.41782(10) -0.0451(5) 0.3319(4)
C10 C 0.41739(12) -0.0035(5) 0.4905(4)
H8 H 0.4024 0.0828 0.5046
H9 H 0.4414 0.0186 0.5212
H10 H 0.4081 -0.0860 0.5442
C11 C 0.44373(14) -0.1780(7) 0.3176(5)
C12 C 0.48294(14) -0.1510(8) 0.3507(7)
H11 H 0.4926 -0.0792 0.2854
H12 H 0.4960 -0.2434 0.3425
H13 H 0.4852 -0.1132 0.4451
C13 C 0.43275(11) 0.0833(6) 0.2435(5)
C14 C 0.43418(13) 0.0603(7) 0.0878(4)
H14 H 0.4402 -0.0422 0.0680
H15 H 0.4521 0.1248 0.0478
H16 H 0.4112 0.0833 0.0474
C15 C 0.35043(9) 0.2683(4) 0.2126(3)
C16 C 0.35065(11) 0.4211(5) 0.2774(4)
H17 H 0.3372 0.4195 0.3638
H18 H 0.3400 0.4913 0.2132
H19 H 0.3750 0.4505 0.2969
loop_
_geom_bond_atom_site_label_1
_geom_bond_atom_site_label_2
_geom_bond_site_symmetry_1
_geom_bond_site_symmetry_2
O1 C11 1_555 1_555
O2 C13 1_555 1_555
O3 C15 1_555 1_555
N1 H1 1_555 1_555
C1 H2 1_555 1_555
C2 C1 1_555 1_555
H3 C2 1_555 1_555
C3 C2 1_555 1_555
H4 C3 1_555 1_555
C4 C3 1_555 1_555
H5 C4 1_555 1_555
C5 C4 1_555 1_555
H6 C5 1_555 1_555
C6 C1 1_555 1_555
C7 N1 1_555 1_555
C8 C7 1_555 1_555
H7 C8 1_555 1_555
C9 C8 1_555 1_555
C10 C9 1_555 1_555
H8 C10 1_555 1_555
H9 C10 1_555 1_555
H10 C10 1_555 1_555
C11 C9 1_555 1_555
C12 C11 1_555 1_555
H11 C12 1_555 1_555
H12 C12 1_555 1_555
H13 C12 1_555 1_555
C13 C9 1_555 1_555
C14 C13 1_555 1_555
H14 C14 1_555 1_555
H15 C14 1_555 1_555
H16 C14 1_555 1_555
C15 N1 1_555 1_555
C16 C15 1_555 1_555
H17 C16 1_555 1_555
H18 C16 1_555 1_555
H19 C16 1_555 1_555
C5 C6 1_555 1_555
C6 C7 1_555 1_555

#END
