
#######################################################################
#
#                 Cambridge Crystallographic Data Centre
#                                CCDC 
#
#######################################################################
#
# If this CIF has been generated from an entry in the Cambridge 
# Structural Database, then it will include bibliographic, chemical, 
# crystal, experimental, refinement or atomic coordinate data resulting 
# from the CCDC's data processing and validation procedures.
#
#######################################################################

data_CPHMUR01
_chemical_formula_moiety         'C9 H11 Cl1 N2 O1'
_chemical_name_systematic        3-(4-chlorophenyl)-1,1-dimethylurea
_symmetry_cell_setting           orthorhombic
_symmetry_space_group_name_H-M   'P b c a'
_symmetry_Int_Tables_number      61
_space_group_name_Hall           '-P 2ac 2ab'
loop_
_symmetry_equiv_pos_site_id
_symmetry_equiv_pos_as_xyz
1 x,y,z
2 1/2-x,-y,1/2+z
3 1/2+x,1/2-y,-z
4 -x,1/2+y,1/2-z
5 -x,-y,-z
6 1/2+x,y,1/2-z
7 1/2-x,1/2+y,z
8 x,1/2-y,1/2+z
_cell_length_a                   9.1347(3)
_cell_length_b                   11.3629(4)
_cell_length_c                   18.5528(6)
_cell_angle_alpha                90
_cell_angle_beta                 90
_cell_angle_gamma                90
_cell_volume                     1925.72
_exptl_crystal_colour            colorless
_exptl_crystal_description       needle
_cell_formula_units_Z            8
loop_
_atom_site_label
_atom_site_type_symbol
_atom_site_fract_x
_atom_site_fract_y
_atom_site_fract_z
Cl1 Cl 0.11848(7) 0.39068(5) 0.47466(3)
O1 O 0.14591(18) 0.02540(15) 0.19836(9)
N1 N 0.3572(2) -0.02813(18) 0.14288(11)
N2 N 0.3644(2) 0.09886(16) 0.23942(10)
H1 H 0.4580 0.0979 0.2345
C1 C 0.2809(2) 0.03159(19) 0.19351(12)
C2 C 0.2831(3) -0.1136(2) 0.09759(14)
H2 H 0.1875 -0.1293 0.1169
H3 H 0.3388 -0.1851 0.0963
H4 H 0.2738 -0.0827 0.0496
C3 C 0.5120(3) -0.0080(2) 0.12903(15)
H5 H 0.5333 0.0743 0.1342
H6 H 0.5353 -0.0328 0.0809
H7 H 0.5694 -0.0521 0.1629
C4 C 0.3026(2) 0.16956(19) 0.29441(12)
C5 C 0.3628(3) 0.16327(19) 0.36344(12)
H8 H 0.4411 0.1131 0.3725
C6 C 0.3055(3) 0.2319(2) 0.41852(12)
H9 H 0.3457 0.2284 0.4645
C7 C 0.1890(3) 0.30535(19) 0.40471(12)
C8 C 0.1293(3) 0.31440(19) 0.33613(12)
H10 H 0.0517 0.3654 0.3273
C9 C 0.1869(2) 0.24639(19) 0.28096(12)
H11 H 0.1481 0.2521 0.2347
loop_
_geom_bond_atom_site_label_1
_geom_bond_atom_site_label_2
_geom_bond_site_symmetry_1
_geom_bond_site_symmetry_2
Cl1 C7 1_555 1_555
O1 C1 1_555 1_555
N1 C1 1_555 1_555
N2 H1 1_555 1_555
C1 N2 1_555 1_555
C2 N1 1_555 1_555
H2 C2 1_555 1_555
H3 C2 1_555 1_555
H4 C2 1_555 1_555
C3 N1 1_555 1_555
H5 C3 1_555 1_555
H6 C3 1_555 1_555
H7 C3 1_555 1_555
C4 N2 1_555 1_555
C5 C4 1_555 1_555
H8 C5 1_555 1_555
C6 C5 1_555 1_555
H9 C6 1_555 1_555
C7 C6 1_555 1_555
C8 C7 1_555 1_555
H10 C8 1_555 1_555
C9 C4 1_555 1_555
H11 C9 1_555 1_555
C8 C9 1_555 1_555

#END
