
#######################################################################
#
#                 Cambridge Crystallographic Data Centre
#                                CCDC 
#
#######################################################################
#
# If this CIF has been generated from an entry in the Cambridge 
# Structural Database, then it will include bibliographic, chemical, 
# crystal, experimental, refinement or atomic coordinate data resulting 
# from the CCDC's data processing and validation procedures.
#
#######################################################################

data_CRYSEN02
_chemical_formula_moiety         'C18 H12'
_chemical_name_systematic        chrysene
_symmetry_cell_setting           monoclinic
_symmetry_space_group_name_H-M   'C 2/c'
_symmetry_Int_Tables_number      15
_space_group_name_Hall           '-C 2yn'
loop_
_symmetry_equiv_pos_site_id
_symmetry_equiv_pos_as_xyz
1 x,y,z
2 -x,y,1/2-z
3 1/2+x,1/2+y,z
4 1/2-x,1/2+y,1/2-z
5 -x,-y,-z
6 x,-y,1/2+z
7 1/2-x,1/2-y,-z
8 1/2+x,1/2-y,1/2+z
_cell_length_a                   22.64(4)
_cell_length_b                   6.163(12)
_cell_length_c                   8.231(15)
_cell_angle_alpha                90
_cell_angle_beta                 97.56(3)
_cell_angle_gamma                90
_cell_volume                     1138.49
_exptl_crystal_colour            colorless
_exptl_crystal_description       triangular
_cell_formula_units_Z            4
loop_
_atom_site_label
_atom_site_type_symbol
_atom_site_fract_x
_atom_site_fract_y
_atom_site_fract_z
C1 C 0.22600(9) -0.0129(3) 0.3983(2)
C2 C 0.26292(8) 0.1639(2) 0.4609(2)
C3 C 0.32580(8) 0.1685(3) 0.4436(2)
C4 C 0.35450(9) 0.0027(3) 0.3645(2)
C5 C 0.41391(9) 0.0153(3) 0.3489(3)
C6 C 0.44818(9) 0.1931(3) 0.4124(2)
C7 C 0.42171(9) 0.3562(3) 0.4894(2)
C8 C 0.36060(8) 0.3480(3) 0.5068(2)
C9 C 0.33290(8) 0.5184(3) 0.5865(2)
H1 H 0.2439(10) -0.132(4) 0.343(3)
H2 H 0.3307(10) -0.124(4) 0.319(3)
H3 H 0.4329(11) -0.101(4) 0.285(3)
H4 H 0.4916(10) 0.202(4) 0.401(3)
H5 H 0.4448(11) 0.471(4) 0.536(3)
H6 H 0.3580(10) 0.639(4) 0.631(3)
C1F C 0.27400(9) 0.5129(3) 0.6017(2)
C2F C 0.23708(8) 0.3361(2) 0.5391(2)
C3F C 0.17420(8) 0.3315(3) 0.5564(2)
C4F C 0.14550(9) 0.4973(3) 0.6355(2)
C5F C 0.08609(9) 0.4847(3) 0.6511(3)
C6F C 0.05182(9) 0.3069(3) 0.5876(2)
C7F C 0.07829(9) 0.1438(3) 0.5106(2)
C8F C 0.13940(8) 0.1520(3) 0.4932(2)
C9F C 0.16710(8) -0.0184(3) 0.4135(2)
H1F H 0.2561(10) 0.632(4) 0.657(3)
H2F H 0.1693(10) 0.624(4) 0.681(3)
H3F H 0.0671(11) 0.601(4) 0.715(3)
H4F H 0.0084(10) 0.298(4) 0.599(3)
H5F H 0.0552(11) 0.029(4) 0.464(3)
H6F H 0.1420(10) -0.139(4) 0.369(3)
loop_
_geom_bond_atom_site_label_1
_geom_bond_atom_site_label_2
_geom_bond_site_symmetry_1
_geom_bond_site_symmetry_2
C1 C2 1_555 1_555
C2 C3 1_555 1_555
C3 C4 1_555 1_555
C4 C5 1_555 1_555
C5 C6 1_555 1_555
C6 C7 1_555 1_555
C7 C8 1_555 1_555
C8 C3 1_555 1_555
C9 C8 1_555 1_555
H1 C1 1_555 1_555
H2 C4 1_555 1_555
H3 C5 1_555 1_555
H4 C6 1_555 1_555
H5 C7 1_555 1_555
H6 C9 1_555 1_555
C1F C9 1_555 1_555
C2F C2 1_555 1_555
C3F C2F 1_555 1_555
C4F C3F 1_555 1_555
C5F C4F 1_555 1_555
C6F C5F 1_555 1_555
C7F C6F 1_555 1_555
C8F C3F 1_555 1_555
C9F C1 1_555 1_555
H1F C1F 1_555 1_555
H2F C4F 1_555 1_555
H3F C5F 1_555 1_555
H4F C6F 1_555 1_555
H5F C7F 1_555 1_555
H6F C9F 1_555 1_555
C1F C2F 1_555 1_555
C7F C8F 1_555 1_555
C8F C9F 1_555 1_555

#END
