
#######################################################################
#
#                 Cambridge Crystallographic Data Centre
#                                CCDC 
#
#######################################################################
#
# If this CIF has been generated from an entry in the Cambridge 
# Structural Database, then it will include bibliographic, chemical, 
# crystal, experimental, refinement or atomic coordinate data resulting 
# from the CCDC's data processing and validation procedures.
#
#######################################################################

data_CSIXPH01
_chemical_formula_moiety         'C12 H8 Cl2 O1 Si1'
_chemical_name_systematic        10,10-Dichloro-10-sila-9-oxa-phenanthrene
_symmetry_cell_setting           triclinic
_symmetry_space_group_name_H-M   'P -1'
_symmetry_Int_Tables_number      2
_space_group_name_Hall           '-P 1'
loop_
_symmetry_equiv_pos_site_id
_symmetry_equiv_pos_as_xyz
1 x,y,z
2 -x,-y,-z
_cell_length_a                   8.767(4)
_cell_length_b                   9.439(4)
_cell_length_c                   15.960(6)
_cell_angle_alpha                97.11(3)
_cell_angle_beta                 112.06(3)
_cell_angle_gamma                99.68(3)
_cell_volume                     1181.08
_cell_formula_units_Z            4
loop_
_atom_site_label
_atom_site_type_symbol
_atom_site_fract_x
_atom_site_fract_y
_atom_site_fract_z
Si1 Si 0.77350 0.27790 0.05680
Cl1 Cl 0.69470 0.19380 0.14750
Cl2 Cl 0.64830 0.13660 -0.06520
O1 O 0.71580 0.43080 0.04330
C1 C 0.82350 0.56760 0.09210
C2 C 0.73860 0.68270 0.09380
C3 C 0.82980 0.82110 0.14140
C4 C 1.00720 0.84840 0.18650
C5 C 1.08420 0.73090 0.18140
C6 C 0.99520 0.58980 0.13450
C7 C 1.08960 0.46980 0.13030
C8 C 1.26620 0.50770 0.15820
C9 C 1.35050 0.39390 0.15340
C10 C 1.26850 0.25450 0.12350
C11 C 1.08960 0.21290 0.09270
C12 C 1.00220 0.32400 0.09640
Si2 Si 0.69210 0.22590 0.42540
Cl3 Cl 0.49160 0.08500 0.32130
Cl4 Cl 0.73320 0.13550 0.53730
O2 O 0.62460 0.38080 0.44740
C13 C 0.67380 0.50350 0.40960
C14 C 0.57720 0.60150 0.41060
C15 C 0.60190 0.72570 0.37350
C16 C 0.71370 0.73960 0.33030
C17 C 0.80920 0.63380 0.33070
C18 C 0.79620 0.51260 0.37050
C19 C 0.90540 0.40700 0.37140
C20 C 1.04030 0.44010 0.34760
C21 C 1.14150 0.33940 0.34820
C22 C 1.10990 0.20840 0.37070
C23 C 0.97640 0.17170 0.39550
C24 C 0.87340 0.27140 0.39670
loop_
_geom_bond_atom_site_label_1
_geom_bond_atom_site_label_2
_geom_bond_site_symmetry_1
_geom_bond_site_symmetry_2
Si1 Cl1 1_555 1_555
Cl2 Si1 1_555 1_555
O1 Si1 1_555 1_555
C1 O1 1_555 1_555
C2 C1 1_555 1_555
C3 C2 1_555 1_555
C4 C3 1_555 1_555
C5 C4 1_555 1_555
C6 C1 1_555 1_555
C7 C6 1_555 1_555
C8 C7 1_555 1_555
C9 C8 1_555 1_555
C10 C9 1_555 1_555
C11 C10 1_555 1_555
C12 Si1 1_555 1_555
Si2 Cl3 1_555 1_555
Cl4 Si2 1_555 1_555
O2 Si2 1_555 1_555
C13 O2 1_555 1_555
C14 C13 1_555 1_555
C15 C14 1_555 1_555
C16 C15 1_555 1_555
C17 C16 1_555 1_555
C18 C13 1_555 1_555
C19 C18 1_555 1_555
C20 C19 1_555 1_555
C21 C20 1_555 1_555
C22 C21 1_555 1_555
C23 C22 1_555 1_555
C24 Si2 1_555 1_555
C5 C6 1_555 1_555
C7 C12 1_555 1_555
C11 C12 1_555 1_555
C17 C18 1_555 1_555
C19 C24 1_555 1_555
C23 C24 1_555 1_555

#END
