
#######################################################################
#
#                 Cambridge Crystallographic Data Centre
#                                CCDC 
#
#######################################################################
#
# If this CIF has been generated from an entry in the Cambridge 
# Structural Database, then it will include bibliographic, chemical, 
# crystal, experimental, refinement or atomic coordinate data resulting 
# from the CCDC's data processing and validation procedures.
#
#######################################################################

data_CSIXPH10
_chemical_formula_moiety         'C12 H8 Cl2 O1 Si1'
_chemical_name_systematic        10,10-Dichloro-10-sila-9-oxa-phenanthrene
_symmetry_cell_setting           orthorhombic
_symmetry_space_group_name_H-M   'P b c a'
_symmetry_Int_Tables_number      61
_space_group_name_Hall           '-P 2ac 2ab'
loop_
_symmetry_equiv_pos_site_id
_symmetry_equiv_pos_as_xyz
1 x,y,z
2 1/2-x,-y,1/2+z
3 1/2+x,1/2-y,-z
4 -x,1/2+y,1/2-z
5 -x,-y,-z
6 1/2+x,y,1/2-z
7 1/2-x,1/2+y,z
8 x,1/2-y,1/2+z
_cell_length_a                   16.50(3)
_cell_length_b                   12.30(3)
_cell_length_c                   11.90(3)
_cell_angle_alpha                90
_cell_angle_beta                 90
_cell_angle_gamma                90
_cell_volume                     2415.11
_cell_formula_units_Z            8
loop_
_atom_site_label
_atom_site_type_symbol
_atom_site_fract_x
_atom_site_fract_y
_atom_site_fract_z
Si1 Si 0.39710 0.25930 0.37670
Cl1 Cl 0.45900 0.11480 0.38830
Cl2 Cl 0.43790 0.34110 0.24120
O1 O 0.41960 0.32940 0.49030
C1 C 0.36540 0.41380 0.53530
C2 C 0.40400 0.48730 0.59880
C3 C 0.35730 0.57350 0.64620
C4 C 0.27440 0.57550 0.62660
C5 C 0.23750 0.49670 0.56110
C6 C 0.28510 0.40630 0.51110
C7 C 0.24520 0.31840 0.44150
C8 C 0.15700 0.30490 0.45480
C9 C 0.12030 0.21870 0.39090
C10 C 0.16450 0.14910 0.31900
C11 C 0.24630 0.15910 0.31200
C12 C 0.28870 0.24090 0.38040
loop_
_geom_bond_atom_site_label_1
_geom_bond_atom_site_label_2
_geom_bond_site_symmetry_1
_geom_bond_site_symmetry_2
Si1 Cl1 1_555 1_555
Cl2 Si1 1_555 1_555
O1 Si1 1_555 1_555
C1 O1 1_555 1_555
C2 C1 1_555 1_555
C3 C2 1_555 1_555
C4 C3 1_555 1_555
C5 C4 1_555 1_555
C6 C1 1_555 1_555
C7 C6 1_555 1_555
C8 C7 1_555 1_555
C9 C8 1_555 1_555
C10 C9 1_555 1_555
C11 C10 1_555 1_555
C12 Si1 1_555 1_555
C5 C6 1_555 1_555
C7 C12 1_555 1_555
C11 C12 1_555 1_555

#END
