
#######################################################################
#
#                 Cambridge Crystallographic Data Centre
#                                CCDC 
#
#######################################################################
#
# If this CIF has been generated from an entry in the Cambridge 
# Structural Database, then it will include bibliographic, chemical, 
# crystal, experimental, refinement or atomic coordinate data resulting 
# from the CCDC's data processing and validation procedures.
#
#######################################################################

data_CUBBAE
_chemical_formula_moiety         'C22 H20 F3 N1 O4'
_chemical_name_systematic        
4-(2-(1,3-benzodioxol-5-yl)vinyl)-1-isopropyl-3-(trifluoromethyl)-1-azaspiro[4.5]deca-6,9-diene-2,8-dione
_symmetry_cell_setting           monoclinic
_symmetry_space_group_name_H-M   'P 21/c'
_symmetry_Int_Tables_number      14
_space_group_name_Hall           '-P 2ybc'
loop_
_symmetry_equiv_pos_site_id
_symmetry_equiv_pos_as_xyz
1 x,y,z
2 -x,1/2+y,1/2-z
3 -x,-y,-z
4 x,1/2-y,1/2+z
_cell_length_a                   10.383(2)
_cell_length_b                   11.016(2)
_cell_length_c                   17.728(4)
_cell_angle_alpha                90
_cell_angle_beta                 90.68(3)
_cell_angle_gamma                90
_cell_volume                     2027.57
_exptl_crystal_colour            colorless
_cell_formula_units_Z            4
loop_
_atom_site_label
_atom_site_type_symbol
_atom_site_fract_x
_atom_site_fract_y
_atom_site_fract_z
F1 F 0.4117(3) 0.3270(3) 0.1572(2)
F2 F 0.5033(3) 0.4515(3) 0.08316(18)
F3 F 0.5253(4) 0.2605(3) 0.06568(18)
O1 O 1.0190(3) 0.0102(3) 0.3382(2)
O2 O 0.5776(3) 0.5324(2) 0.23303(18)
O3 O 0.8964(3) -0.3781(2) 0.00091(18)
O4 O 1.0087(3) -0.1981(2) -0.00589(18)
N1 N 0.6844(3) 0.3794(3) 0.29550(17)
C1 C 0.7200(4) 0.1675(3) 0.3363(2)
H1 H 0.6400 0.1645 0.3593
C2 C 0.8101(5) 0.0868(4) 0.3561(2)
H2 H 0.7888 0.0252 0.3896
C3 C 0.9404(4) 0.0918(4) 0.3273(2)
C4 C 0.9741(4) 0.2007(4) 0.2845(2)
H3 H 1.0597 0.2148 0.2726
C5 C 0.8854(4) 0.2790(3) 0.2627(2)
H4 H 0.9111 0.3478 0.2365
C6 C 0.7445(4) 0.2624(3) 0.2781(2)
C7 C 0.6679(4) 0.2238(3) 0.2041(2)
H5 H 0.5860 0.1896 0.2209
C8 C 0.6360(4) 0.3453(3) 0.1684(2)
H6 H 0.7102 0.3703 0.1385
C9 C 0.6268(4) 0.4310(3) 0.2353(2)
C10 C 0.7220(6) 0.4451(5) 0.3659(3)
H7 H 0.7844 0.3892 0.3889
C11 C 0.8006(5) 0.5527(5) 0.3525(3)
H8 H 0.7516 0.6108 0.3238
H9 H 0.8759 0.5301 0.3249
H10 H 0.8261 0.5878 0.3999
C12 C 0.6226(6) 0.4494(7) 0.4218(3)
H11 H 0.6533 0.4932 0.4652
H12 H 0.6000 0.3682 0.4363
H13 H 0.5480 0.4895 0.4011
C13 C 0.5214(6) 0.3457(4) 0.1180(3)
C14 C 0.7311(3) 0.1280(3) 0.1594(2)
H14 H 0.7940 0.1512 0.1253
C15 C 0.7040(4) 0.0133(3) 0.1649(2)
H15 H 0.6413 -0.0054 0.2000
C16 C 0.7564(3) -0.0913(3) 0.1245(2)
C17 C 0.6965(4) -0.2012(3) 0.1296(3)
H16 H 0.6259 -0.2086 0.1611
C18 C 0.7363(4) -0.3016(3) 0.0898(3)
H17 H 0.6928 -0.3751 0.0940
C19 C 0.8388(4) -0.2915(3) 0.0451(2)
C20 C 0.9048(4) -0.1834(3) 0.0402(2)
C21 C 0.8658(4) -0.0810(3) 0.0785(2)
H18 H 0.9099 -0.0080 0.0740
C22 C 1.0006(5) -0.3179(4) -0.0342(3)
H19 H 1.0803 -0.3609 -0.0237
H20 H 0.9870 -0.3162 -0.0884
loop_
_geom_bond_atom_site_label_1
_geom_bond_atom_site_label_2
_geom_bond_site_symmetry_1
_geom_bond_site_symmetry_2
F1 C13 1_555 1_555
F2 C13 1_555 1_555
F3 C13 1_555 1_555
O1 C3 1_555 1_555
O2 C9 1_555 1_555
O3 C19 1_555 1_555
O4 C20 1_555 1_555
N1 C6 1_555 1_555
C1 H1 1_555 1_555
C2 C1 1_555 1_555
H2 C2 1_555 1_555
C3 C2 1_555 1_555
C4 C3 1_555 1_555
H3 C4 1_555 1_555
C5 C4 1_555 1_555
H4 C5 1_555 1_555
C6 C1 1_555 1_555
C7 C6 1_555 1_555
H5 C7 1_555 1_555
C8 C7 1_555 1_555
H6 C8 1_555 1_555
C9 N1 1_555 1_555
C10 N1 1_555 1_555
H7 C10 1_555 1_555
C11 C10 1_555 1_555
H8 C11 1_555 1_555
H9 C11 1_555 1_555
H10 C11 1_555 1_555
C12 C10 1_555 1_555
H11 C12 1_555 1_555
H12 C12 1_555 1_555
H13 C12 1_555 1_555
C13 C8 1_555 1_555
C14 C7 1_555 1_555
H14 C14 1_555 1_555
C15 C14 1_555 1_555
H15 C15 1_555 1_555
C16 C15 1_555 1_555
C17 C16 1_555 1_555
H16 C17 1_555 1_555
C18 C17 1_555 1_555
H17 C18 1_555 1_555
C19 C18 1_555 1_555
C20 C19 1_555 1_555
C21 C16 1_555 1_555
H18 C21 1_555 1_555
C22 O3 1_555 1_555
H19 C22 1_555 1_555
H20 C22 1_555 1_555
O4 C22 1_555 1_555
C5 C6 1_555 1_555
C8 C9 1_555 1_555
C20 C21 1_555 1_555

#END
