
#######################################################################
#
#                 Cambridge Crystallographic Data Centre
#                                CCDC 
#
#######################################################################
#
# If this CIF has been generated from an entry in the Cambridge 
# Structural Database, then it will include bibliographic, chemical, 
# crystal, experimental, refinement or atomic coordinate data resulting 
# from the CCDC's data processing and validation procedures.
#
#######################################################################

data_CUBRIC
_chemical_formula_moiety         'C19 H14 N2 O1'
_chemical_name_systematic        N-(pyridin-2-yl)-9H-fluorene-2-carboxamide
_symmetry_cell_setting           triclinic
_symmetry_space_group_name_H-M   'P -1'
_symmetry_Int_Tables_number      2
_space_group_name_Hall           '-P 1'
loop_
_symmetry_equiv_pos_site_id
_symmetry_equiv_pos_as_xyz
1 x,y,z
2 -x,-y,-z
_cell_length_a                   7.428(3)
_cell_length_b                   8.871(3)
_cell_length_c                   11.077(5)
_cell_angle_alpha                102.279(4)
_cell_angle_beta                 105.935(6)
_cell_angle_gamma                90.948(4)
_cell_volume                     683.618
_exptl_crystal_colour            colorless
_exptl_crystal_description       prism
_chemical_melting_point          '144-146 deg.C'
_cell_formula_units_Z            2
_exptl_crystal_recrystallization_method Chloroform
loop_
_atom_site_label
_atom_site_type_symbol
_atom_site_fract_x
_atom_site_fract_y
_atom_site_fract_z
O1 O 0.28856(18) 0.50487(14) 0.81860(13)
N1 N 0.3592(2) 0.47590(16) 0.62699(15)
N2 N 0.2938(2) 0.61407(16) 0.46896(15)
C1 C 0.6121(3) 0.0172(2) 0.80264(19)
C2 C 0.4359(3) 0.1615(2) 0.65744(19)
C3 C 0.7031(3) -0.1108(2) 0.85485(19)
C4 C 0.2559(3) 0.59050(19) 0.57593(19)
C5 C 0.7224(3) -0.2615(2) 0.7926(2)
C6 C 0.3612(3) 0.4339(2) 0.73991(19)
C7 C 0.0567(3) 0.7957(2) 0.45294(19)
C8 C 0.5132(3) 0.0240(2) 0.67898(19)
C9 C 0.1249(3) 0.66849(19) 0.62857(19)
C10 C 0.0254(3) 0.7728(2) 0.5651(2)
C11 C 0.5522(3) 0.2813(2) 0.88427(19)
C12 C 0.4557(3) 0.2897(2) 0.75886(19)
C13 C 0.6316(3) 0.1449(2) 0.90583(19)
C14 C 0.7347(3) 0.10551(19) 1.03125(19)
C15 C 0.8539(3) -0.1635(2) 1.0625(2)
C16 C 0.1903(3) 0.7144(2) 0.40884(19)
C17 C 0.7702(3) -0.0619(2) 0.9883(2)
C18 C 0.8072(3) -0.3617(2) 0.8679(2)
C19 C 0.8699(3) -0.3145(3) 1.0004(2)
H1 H 0.4297 0.4259 0.5822
H2 H 0.3689 0.1677 0.5725
H3 H 0.6788 -0.2944 0.7014
H4 H -0.0123 0.8656 0.4075
H5 H 0.4981 -0.0636 0.6096
H6 H 0.1043 0.6508 0.7055
H7 H -0.0646 0.8288 0.5987
H8 H 0.5636 0.3677 0.9541
H9 H 0.6565 0.1173 1.0916
H10 H 0.8539 0.1711 1.0730
H11 H 0.8993 -0.1308 1.1537
H12 H 0.2112 0.7298 0.3313
H13 H 0.8223 -0.4645 0.8274
H14 H 0.9247 -0.3859 1.0500
loop_
_geom_bond_atom_site_label_1
_geom_bond_atom_site_label_2
_geom_bond_site_symmetry_1
_geom_bond_site_symmetry_2
O1 C6 1_555 1_555
N1 C4 1_555 1_555
N2 C4 1_555 1_555
C1 C3 1_555 1_555
C2 C8 1_555 1_555
C3 C5 1_555 1_555
C4 C9 1_555 1_555
C5 C18 1_555 1_555
C6 N1 1_555 1_555
C7 C10 1_555 1_555
C8 C1 1_555 1_555
C9 C10 1_555 1_555
C10 H7 1_555 1_555
C11 C12 1_555 1_555
C12 C2 1_555 1_555
C13 C1 1_555 1_555
C14 C13 1_555 1_555
C15 C17 1_555 1_555
C16 N2 1_555 1_555
C17 C3 1_555 1_555
C18 C19 1_555 1_555
C19 C15 1_555 1_555
H1 N1 1_555 1_555
H2 C2 1_555 1_555
H3 C5 1_555 1_555
H4 C7 1_555 1_555
H5 C8 1_555 1_555
H6 C9 1_555 1_555
H8 C11 1_555 1_555
H9 C14 1_555 1_555
H10 C14 1_555 1_555
H11 C15 1_555 1_555
H12 C16 1_555 1_555
H13 C18 1_555 1_555
H14 C19 1_555 1_555
C6 C12 1_555 1_555
C7 C16 1_555 1_555
C11 C13 1_555 1_555
C14 C17 1_555 1_555

#END
