
#######################################################################
#
#                 Cambridge Crystallographic Data Centre
#                                CCDC 
#
#######################################################################
#
# If this CIF has been generated from an entry in the Cambridge 
# Structural Database, then it will include bibliographic, chemical, 
# crystal, experimental, refinement or atomic coordinate data resulting 
# from the CCDC's data processing and validation procedures.
#
#######################################################################

data_CUBRUM
_chemical_formula_moiety         'C12 H13 N7 O3'
_chemical_name_systematic        
3-(Adenin-9-yl)-N-(2-succinimidyl)-propionamide
_symmetry_cell_setting           monoclinic
_symmetry_space_group_name_H-M   'P 21/c'
_symmetry_Int_Tables_number      14
_space_group_name_Hall           '-P 2ybc'
loop_
_symmetry_equiv_pos_site_id
_symmetry_equiv_pos_as_xyz
1 x,y,z
2 -x,1/2+y,1/2-z
3 -x,-y,-z
4 x,1/2-y,1/2+z
_cell_length_a                   10.861(1)
_cell_length_b                   12.766(1)
_cell_length_c                   9.753(1)
_cell_angle_alpha                90
_cell_angle_beta                 91.10(1)
_cell_angle_gamma                90
_cell_volume                     1352.02
_exptl_crystal_colour            colorless
_cell_formula_units_Z            4
loop_
_atom_site_label
_atom_site_type_symbol
_atom_site_fract_x
_atom_site_fract_y
_atom_site_fract_z
N1 N 0.8782(2) 0.3078(2) 0.3446(3)
C1 C 0.9222(3) 0.3974(2) 0.2916(4)
N2 N 1.0051(2) 0.4102(2) 0.1940(3)
C2 C 1.0454(3) 0.3171(2) 0.1478(3)
C3 C 1.0107(3) 0.2194(2) 0.1935(3)
C4 C 0.9226(3) 0.2160(2) 0.2955(3)
N3 N 0.8799(3) 0.1266(2) 0.3494(3)
N4 N 1.0728(2) 0.1418(2) 0.1249(3)
C5 C 1.1426(3) 0.1926(2) 0.0392(3)
N5 N 1.1295(2) 0.3005(2) 0.0480(2)
C6 C 1.2000(3) 0.3806(2) -0.0248(3)
C7 C 1.3096(3) 0.4157(2) 0.0628(4)
C8 C 1.4045(3) 0.3295(2) 0.0753(3)
O1 O 1.4321(2) 0.2750(2) -0.0233(2)
N6 N 1.4604(2) 0.3174(2) 0.1977(3)
C9 C 1.5612(3) 0.2446(3) 0.2131(3)
C10 C 1.5306(3) 0.1267(3) 0.1994(4)
C11 C 1.6315(3) 0.0833(3) 0.1116(3)
O2 O 1.6519(2) -0.0086(2) 0.0884
N7 N 1.6973(2) 0.1665(2) 0.0572(3)
C12 C 1.6574(3) 0.2628(3) 0.1038(3)
O3 O 1.6951(2) 0.3466(2) 0.0651(2)
H1 H 0.892(2) 0.459(2) 0.338(3)
H2 H 0.826(2) 0.130(2) 0.421(3)
H3 H 0.909(3) 0.073(2) 0.328(3)
H4 H 1.203(2) 0.161(2) -0.023(3)
H5 H 1.141(2) 0.439(2) -0.043(3)
H6 H 1.233(2) 0.348(2) -0.112(3)
H7 H 1.285(2) 0.436(2) 0.159(3)
H8 H 1.347(3) 0.474(2) 0.018(3)
H9 H 1.431(3) 0.346(2) 0.270(3)
H10 H 1.603(2) 0.262(2) 0.304(3)
H11 H 1.447(3) 0.111(2) 0.149(3)
H12 H 1.529(3) 0.092(2) 0.292(3)
H13 H 1.768(3) 0.163(2) -0.021(3)
loop_
_geom_bond_atom_site_label_1
_geom_bond_atom_site_label_2
_geom_bond_site_symmetry_1
_geom_bond_site_symmetry_2
N1 C1 1_555 1_555
C1 N2 1_555 1_555
N2 C2 1_555 1_555
C2 C3 1_555 1_555
C3 C4 1_555 1_555
C4 N1 1_555 1_555
N3 C4 1_555 1_555
N4 C3 1_555 1_555
C5 N4 1_555 1_555
N5 C2 1_555 1_555
C6 N5 1_555 1_555
C7 C6 1_555 1_555
C8 C7 1_555 1_555
O1 C8 1_555 1_555
N6 C8 1_555 1_555
C9 N6 1_555 1_555
C10 C9 1_555 1_555
C11 C10 1_555 1_555
O2 C11 1_555 1_555
N7 C11 1_555 1_555
C12 C9 1_555 1_555
O3 C12 1_555 1_555
H1 C1 1_555 1_555
H2 N3 1_555 1_555
H3 N3 1_555 1_555
H4 C5 1_555 1_555
H5 C6 1_555 1_555
H6 C6 1_555 1_555
H7 C7 1_555 1_555
H8 C7 1_555 1_555
H9 N6 1_555 1_555
H10 C9 1_555 1_555
H11 C10 1_555 1_555
H12 C10 1_555 1_555
H13 N7 1_555 1_555
C5 N5 1_555 1_555
N7 C12 1_555 1_555

#END
