
#######################################################################
#
#                 Cambridge Crystallographic Data Centre
#                                CCDC 
#
#######################################################################
#
# If this CIF has been generated from an entry in the Cambridge 
# Structural Database, then it will include bibliographic, chemical, 
# crystal, experimental, refinement or atomic coordinate data resulting 
# from the CCDC's data processing and validation procedures.
#
#######################################################################

data_CUBVEC
_chemical_name_common            
"25,27-(2,2'-[(5,10,10,15,20,20-hexamethyl-5,10,15,20,22,24-hexahydroporphyrin-5,15-diyl)bis(benzene-4,1-diyloxy)]diethanolate)-26,28-bis(2-ethoxy-2-oxoethanolate)calix(4)arene methanol solvate monohydrate"
_chemical_formula_moiety         'C78 H80 N4 O10,C1 H4 O1,H2 O1'
_chemical_name_systematic        
"diethyl 2,2'-((1,37,42,42,51,51-hexamethyl-6,9,29,32-tetraoxa-56,57,58,59-tetraazatridecacyclo[35.9.9.7^11,27^.2^2,5^.2^33,36^.1^17,21^.1^38,41^.1^43,46^.1^47,50^.1^52,55^.1^63,67^.0^10,15^.0^23,28^]doheptaconta-2,4,10,12,14,17(69),18,20,23,25,27,33,35,38,40,43,45,47,49,52,54,60,63(72),64,66,70-hexacosaene-69,72-diyl)bis(oxy))diacetate methanol solvate monohydrate"
_symmetry_cell_setting           monoclinic
_symmetry_space_group_name_H-M   'P 21/c'
_symmetry_Int_Tables_number      14
_space_group_name_Hall           '-P 2ybc'
loop_
_symmetry_equiv_pos_site_id
_symmetry_equiv_pos_as_xyz
1 x,y,z
2 -x,1/2+y,1/2-z
3 -x,-y,-z
4 x,1/2-y,1/2+z
_cell_length_a                   16.8102(14)
_cell_length_b                   21.0789(16)
_cell_length_c                   19.1698(14)
_cell_angle_alpha                90
_cell_angle_beta                 94.179(2)
_cell_angle_gamma                90
_cell_volume                     6774.58
_exptl_crystal_colour            colorless
_exptl_crystal_description       plates
_cell_formula_units_Z            4
loop_
_atom_site_label
_atom_site_type_symbol
_atom_site_fract_x
_atom_site_fract_y
_atom_site_fract_z
O1 O 0.49829(14) 0.53179(11) 0.60359(11)
O2 O 0.65700(14) 0.58401(10) 0.62883(11)
O3 O 0.64024(15) 0.74696(11) 0.83587(11)
O4 O 0.53620(15) 0.85799(11) 0.83738(12)
O5 O 0.65776(15) 0.59678(12) 0.78544(12)
O6 O 0.52408(19) 0.61244(16) 0.87152(17)
O7 O 0.47787(17) 0.52187(14) 0.82375(14)
O8 O 0.66715(15) 0.72933(11) 0.67723(11)
O9 O 0.55219(16) 0.73165(12) 0.55664(13)
O10 O 0.49649(16) 0.81444(13) 0.60807(13)
N1 N 0.15204(17) 0.66248(13) 0.58539(13)
H1 H 0.1961 0.6671 0.6127
N2 N 0.12699(18) 0.56163(13) 0.71009(14)
H2 H 0.1495 0.5993 0.7117
N3 N 0.13540(18) 0.68163(13) 0.82757(14)
H3 H 0.0898 0.6976 0.8102
N4 N 0.17250(17) 0.77955(13) 0.69974(14)
H4 H 0.2117 0.7529 0.6935
C1 C 0.1038(2) 0.71162(16) 0.56005(16)
C2 C 0.0413(2) 0.68469(17) 0.52119(17)
H5 H -0.0021 0.7067 0.4978
C3 C 0.0528(2) 0.61816(17) 0.52200(18)
H6 H 0.0185 0.5878 0.4987
C4 C 0.1212(2) 0.60503(16) 0.56173(17)
C5 C 0.1576(2) 0.54169(16) 0.58508(17)
C6 C 0.1227(2) 0.52220(16) 0.65245(17)
C7 C 0.0831(2) 0.46905(17) 0.67139(17)
H7 H 0.0707 0.4333 0.6424
C8 C 0.0637(2) 0.47639(16) 0.74186(18)
H8 H 0.0363 0.4464 0.7683
C9 C 0.0911(2) 0.53362(16) 0.76470(17)
C10 C 0.0844(2) 0.56747(17) 0.83425(18)
C11 C 0.1471(2) 0.61865(16) 0.84524(17)
C12 C 0.2254(2) 0.61345(17) 0.86882(18)
H9 H 0.2514 0.5755 0.8844
C13 C 0.2616(2) 0.67431(17) 0.86620(18)
H10 H 0.3156 0.6842 0.8797
C14 C 0.2042(2) 0.71623(17) 0.84057(17)
C15 C 0.2058(2) 0.78874(16) 0.83069(16)
C16 C 0.1571(2) 0.80587(16) 0.76313(17)
C17 C 0.0912(3) 0.8430(2) 0.75048(19)
H11 H 0.0657 0.8669 0.7845
C18 C 0.0669(3) 0.8400(2) 0.67805(19)
H12 H 0.0228 0.8616 0.6550
C19 C 0.1186(2) 0.80036(16) 0.64747(18)
C20 C 0.1249(2) 0.78061(16) 0.57194(17)
C21 C 0.1345(2) 0.49157(17) 0.52853(18)
H13 H 0.1557 0.4501 0.5438
H14 H 0.1570 0.5036 0.4846
H15 H 0.0763 0.4892 0.5212
C22 C 0.0968(3) 0.51809(18) 0.89348(18)
H16 H 0.0559 0.4850 0.8872
H17 H 0.0927 0.5390 0.9387
H18 H 0.1498 0.4989 0.8921
C23 C 0.0002(2) 0.5956(2) 0.8377(2)
H19 H -0.0108 0.6251 0.7988
H20 H -0.0031 0.6182 0.8821
H21 H -0.0393 0.5613 0.8345
C24 C 0.1645(2) 0.82078(17) 0.89063(17)
H22 H 0.1650 0.8669 0.8842
H23 H 0.1931 0.8099 0.9354
H24 H 0.1093 0.8059 0.8903
C25 C 0.2109(2) 0.79422(17) 0.55236(19)
H25 H 0.2240 0.8388 0.5620
H26 H 0.2148 0.7855 0.5025
H27 H 0.2483 0.7669 0.5801
C26 C 0.0670(3) 0.82114(17) 0.52468(18)
H28 H 0.0121 0.8130 0.5364
H29 H 0.0723 0.8100 0.4756
H30 H 0.0795 0.8662 0.5319
C27 C 0.2493(2) 0.54386(15) 0.59298(17)
C28 C 0.2917(2) 0.57571(16) 0.54429(17)
H31 H 0.2633 0.5996 0.5086
C29 C 0.3743(2) 0.57367(16) 0.54616(16)
H32 H 0.4018 0.5963 0.5124
C30 C 0.4165(2) 0.53833(15) 0.59779(17)
C31 C 0.3754(2) 0.50634(16) 0.64762(17)
H33 H 0.4037 0.4822 0.6832
C32 C 0.5418(2) 0.56504(16) 0.55317(17)
H34 H 0.5327 0.6113 0.5571
H35 H 0.5232 0.5515 0.5053
C33 C 0.6282(2) 0.55051(16) 0.56693(17)
H36 H 0.6360 0.5043 0.5737
H37 H 0.6579 0.5641 0.5267
C34 C 0.7404(2) 0.58350(16) 0.63726(17)
C35 C 0.7832(2) 0.62921(16) 0.60326(17)
C36 C 0.8659(2) 0.62577(17) 0.61000(17)
H38 H 0.8962 0.6565 0.5872
C37 C 0.9054(2) 0.57860(17) 0.64920(18)
H39 H 0.9620 0.5765 0.6523
C38 C 0.8614(2) 0.53437(17) 0.68399(18)
H40 H 0.8881 0.5024 0.7116
C39 C 0.7781(2) 0.53659(16) 0.67858(17)
C40 C 0.7312(2) 0.48905(16) 0.71937(17)
H41 H 0.6740 0.4912 0.7030
H42 H 0.7504 0.4456 0.7106
C41 C 0.7408(2) 0.50308(17) 0.79718(19)
C42 C 0.7088(2) 0.55747(17) 0.82612(18)
C43 C 0.7317(2) 0.57797(18) 0.89437(19)
C44 C 0.7809(3) 0.53835(19) 0.9363(2)
H43 H 0.7960 0.5503 0.9832
C45 C 0.8083(3) 0.4816(2) 0.9106(2)
H44 H 0.8402 0.4542 0.9405
C46 C 0.7894(3) 0.46472(18) 0.8415(2)
H45 H 0.8099 0.4263 0.8241
C47 C 0.7083(2) 0.64292(17) 0.91791(18)
H46 H 0.7159 0.6455 0.9695
H47 H 0.6512 0.6503 0.9041
C48 C 0.7582(2) 0.69426(17) 0.88559(17)
C49 C 0.7230(2) 0.74352(17) 0.84539(17)
C50 C 0.7687(2) 0.78809(16) 0.81224(17)
C51 C 0.8513(2) 0.78442(18) 0.82281(18)
H48 H 0.8834 0.8150 0.8016
C52 C 0.8876(2) 0.73717(18) 0.86362(18)
H49 H 0.9441 0.7357 0.8711
C53 C 0.8409(2) 0.69191(18) 0.89365(18)
H50 H 0.8661 0.6586 0.9203
C54 C 0.7311(2) 0.83761(17) 0.76211(17)
H51 H 0.7508 0.8804 0.7759
H52 H 0.6724 0.8372 0.7640
C55 C 0.7528(2) 0.82248(16) 0.68808(18)
C56 C 0.7253(2) 0.76827(16) 0.65168(18)
C57 C 0.7617(2) 0.74655(16) 0.59269(17)
C58 C 0.8210(2) 0.78387(17) 0.56676(18)
H53 H 0.8468 0.7698 0.5271
C59 C 0.8433(2) 0.84129(17) 0.59762(18)
H54 H 0.8809 0.8679 0.5772
C60 C 0.8101(2) 0.85933(17) 0.65832(19)
H55 H 0.8268 0.8979 0.6804
C61 C 0.7411(2) 0.68239(16) 0.56129(17)
H56 H 0.7569 0.6811 0.5126
H57 H 0.6827 0.6759 0.5601
C62 C 0.2930(2) 0.50988(16) 0.64502(18)
H58 H 0.2656 0.4886 0.6797
C63 C 0.5807(2) 0.5706(2) 0.7681(2)
H59 H 0.5869 0.5260 0.7531
H60 H 0.5549 0.5944 0.7281
C64 C 0.5265(3) 0.5721(2) 0.8279(2)
C65 C 0.4206(3) 0.5185(2) 0.8766(3)
H61 H 0.3879 0.5576 0.8758
H62 H 0.4486 0.5143 0.9236
C66 C 0.3685(3) 0.4621(2) 0.8612(3)
H63 H 0.3366 0.4688 0.8169
H64 H 0.3329 0.4563 0.8990
H65 H 0.4017 0.4243 0.8574
C67 C 0.5898(2) 0.7570(2) 0.67856(18)
H66 H 0.5952 0.7992 0.7010
H67 H 0.5571 0.7302 0.7078
C68 C 0.5466(2) 0.76447(18) 0.60715(19)
C69 C 0.4463(3) 0.8270(2) 0.5441(2)
H68 H 0.4094 0.7911 0.5336
H69 H 0.4797 0.8327 0.5041
C70 C 0.4001(3) 0.8866(2) 0.5563(3)
H70 H 0.3684 0.8807 0.5967
H71 H 0.3645 0.8960 0.5148
H72 H 0.4372 0.9220 0.5654
C71 C 0.6023(2) 0.76776(17) 0.89657(18)
H73 H 0.6358 0.7559 0.9392
H74 H 0.5501 0.7462 0.8982
C72 C 0.5900(2) 0.83826(18) 0.89520(18)
H75 H 0.5684 0.8518 0.9395
H76 H 0.6421 0.8595 0.8919
C73 C 0.4574(2) 0.84253(16) 0.83965(18)
C74 C 0.4225(2) 0.82008(17) 0.89846(18)
H77 H 0.4537 0.8147 0.9414
C75 C 0.3414(2) 0.80550(16) 0.89410(18)
H78 H 0.3180 0.7920 0.9352
C76 C 0.2932(2) 0.80987(15) 0.83217(17)
C77 C 0.3297(2) 0.83319(16) 0.77443(18)
H79 H 0.2986 0.8383 0.7314
C78 C 0.4098(2) 0.84916(16) 0.77766(18)
H80 H 0.4324 0.8648 0.7371
O11 O 0.28880(16) 0.67701(13) 0.70272(13)
H81 H 0.2777 0.6658 0.7429
C79 C 0.3733(3) 0.6780(2) 0.6994(2)
H82 H 0.3968 0.7081 0.7341
H83 H 0.3862 0.6911 0.6525
H84 H 0.3949 0.6355 0.7094
O12 O 0.0017(3) 0.7045(3) 0.7185(2)
O13? O 0.0052(11) 0.7420(8) 0.7622(9)
loop_
_geom_bond_atom_site_label_1
_geom_bond_atom_site_label_2
_geom_bond_site_symmetry_1
_geom_bond_site_symmetry_2
O1 C30 1_555 1_555
O2 C33 1_555 1_555
O3 C49 1_555 1_555
O4 C72 1_555 1_555
O5 C42 1_555 1_555
O6 C64 1_555 1_555
O7 C64 1_555 1_555
O8 C56 1_555 1_555
O9 C68 1_555 1_555
O10 C68 1_555 1_555
N1 H1 1_555 1_555
N2 H2 1_555 1_555
N3 H3 1_555 1_555
N4 H4 1_555 1_555
C1 N1 1_555 1_555
C2 C1 1_555 1_555
H5 C2 1_555 1_555
C3 C2 1_555 1_555
H6 C3 1_555 1_555
C4 N1 1_555 1_555
C5 C4 1_555 1_555
C6 N2 1_555 1_555
C7 C6 1_555 1_555
H7 C7 1_555 1_555
C8 C7 1_555 1_555
H8 C8 1_555 1_555
C9 N2 1_555 1_555
C10 C9 1_555 1_555
C11 N3 1_555 1_555
C12 C11 1_555 1_555
H9 C12 1_555 1_555
C13 C12 1_555 1_555
H10 C13 1_555 1_555
C14 N3 1_555 1_555
C15 C14 1_555 1_555
C16 N4 1_555 1_555
C17 C16 1_555 1_555
H11 C17 1_555 1_555
C18 C17 1_555 1_555
H12 C18 1_555 1_555
C19 N4 1_555 1_555
C20 C1 1_555 1_555
C21 C5 1_555 1_555
H13 C21 1_555 1_555
H14 C21 1_555 1_555
H15 C21 1_555 1_555
C22 C10 1_555 1_555
H16 C22 1_555 1_555
H17 C22 1_555 1_555
H18 C22 1_555 1_555
C23 C10 1_555 1_555
H19 C23 1_555 1_555
H20 C23 1_555 1_555
H21 C23 1_555 1_555
C24 C15 1_555 1_555
H22 C24 1_555 1_555
H23 C24 1_555 1_555
H24 C24 1_555 1_555
C25 C20 1_555 1_555
H25 C25 1_555 1_555
H26 C25 1_555 1_555
H27 C25 1_555 1_555
C26 C20 1_555 1_555
H28 C26 1_555 1_555
H29 C26 1_555 1_555
H30 C26 1_555 1_555
C27 C5 1_555 1_555
C28 C27 1_555 1_555
H31 C28 1_555 1_555
C29 C28 1_555 1_555
H32 C29 1_555 1_555
C30 C29 1_555 1_555
C31 C30 1_555 1_555
H33 C31 1_555 1_555
C32 O1 1_555 1_555
H34 C32 1_555 1_555
H35 C32 1_555 1_555
C33 C32 1_555 1_555
H36 C33 1_555 1_555
H37 C33 1_555 1_555
C34 O2 1_555 1_555
C35 C34 1_555 1_555
C36 C35 1_555 1_555
H38 C36 1_555 1_555
C37 C36 1_555 1_555
H39 C37 1_555 1_555
C38 C37 1_555 1_555
H40 C38 1_555 1_555
C39 C34 1_555 1_555
C40 C39 1_555 1_555
H41 C40 1_555 1_555
H42 C40 1_555 1_555
C41 C40 1_555 1_555
C42 C41 1_555 1_555
C43 C42 1_555 1_555
C44 C43 1_555 1_555
H43 C44 1_555 1_555
C45 C44 1_555 1_555
H44 C45 1_555 1_555
C46 C41 1_555 1_555
H45 C46 1_555 1_555
C47 C43 1_555 1_555
H46 C47 1_555 1_555
H47 C47 1_555 1_555
C48 C47 1_555 1_555
C49 C48 1_555 1_555
C50 C49 1_555 1_555
C51 C50 1_555 1_555
H48 C51 1_555 1_555
C52 C51 1_555 1_555
H49 C52 1_555 1_555
C53 C48 1_555 1_555
H50 C53 1_555 1_555
C54 C50 1_555 1_555
H51 C54 1_555 1_555
H52 C54 1_555 1_555
C55 C54 1_555 1_555
C56 C55 1_555 1_555
C57 C56 1_555 1_555
C58 C57 1_555 1_555
H53 C58 1_555 1_555
C59 C58 1_555 1_555
H54 C59 1_555 1_555
C60 C55 1_555 1_555
H55 C60 1_555 1_555
C61 C35 1_555 1_555
H56 C61 1_555 1_555
H57 C61 1_555 1_555
C62 C27 1_555 1_555
H58 C62 1_555 1_555
C63 O5 1_555 1_555
H59 C63 1_555 1_555
H60 C63 1_555 1_555
C64 C63 1_555 1_555
C65 O7 1_555 1_555
H61 C65 1_555 1_555
H62 C65 1_555 1_555
C66 C65 1_555 1_555
H63 C66 1_555 1_555
H64 C66 1_555 1_555
H65 C66 1_555 1_555
C67 O8 1_555 1_555
H66 C67 1_555 1_555
H67 C67 1_555 1_555
C68 C67 1_555 1_555
C69 O10 1_555 1_555
H68 C69 1_555 1_555
H69 C69 1_555 1_555
C70 C69 1_555 1_555
H70 C70 1_555 1_555
H71 C70 1_555 1_555
H72 C70 1_555 1_555
C71 O3 1_555 1_555
H73 C71 1_555 1_555
H74 C71 1_555 1_555
C72 C71 1_555 1_555
H75 C72 1_555 1_555
H76 C72 1_555 1_555
C73 O4 1_555 1_555
C74 C73 1_555 1_555
H77 C74 1_555 1_555
C75 C74 1_555 1_555
H78 C75 1_555 1_555
C76 C15 1_555 1_555
C77 C76 1_555 1_555
H79 C77 1_555 1_555
C78 C73 1_555 1_555
H80 C78 1_555 1_555
O11 H81 1_555 1_555
C79 O11 1_555 1_555
H82 C79 1_555 1_555
H83 C79 1_555 1_555
H84 C79 1_555 1_555
C3 C4 1_555 1_555
C5 C6 1_555 1_555
C8 C9 1_555 1_555
C10 C11 1_555 1_555
C13 C14 1_555 1_555
C15 C16 1_555 1_555
C18 C19 1_555 1_555
C19 C20 1_555 1_555
C31 C62 1_555 1_555
C38 C39 1_555 1_555
C45 C46 1_555 1_555
C52 C53 1_555 1_555
C57 C61 1_555 1_555
C59 C60 1_555 1_555
C75 C76 1_555 1_555
C77 C78 1_555 1_555

#END
