
#######################################################################
#
#                 Cambridge Crystallographic Data Centre
#                                CCDC 
#
#######################################################################
#
# If this CIF has been generated from an entry in the Cambridge 
# Structural Database, then it will include bibliographic, chemical, 
# crystal, experimental, refinement or atomic coordinate data resulting 
# from the CCDC's data processing and validation procedures.
#
#######################################################################

data_CUBVUR
_chemical_name_common            
"4,4'-bis(3,5-Dimethyl-1,2,4-Triazol-1-ylmethyl)biphenyl bis(hydrochloride) dihydrate"
_chemical_formula_moiety         'C22 H26 N6 2+,2(Cl1 1-),2(H2 O1)'
_chemical_name_systematic        
"4,4'-bis((3,5-Dimethyl-1H-1,2,4-triazol-4-ium-1-yl)methyl)biphenyl dichloride dihydrate"
_symmetry_cell_setting           monoclinic
_symmetry_space_group_name_H-M   'P 21/c'
_symmetry_Int_Tables_number      14
_space_group_name_Hall           '-P 2ybc'
loop_
_symmetry_equiv_pos_site_id
_symmetry_equiv_pos_as_xyz
1 x,y,z
2 -x,1/2+y,1/2-z
3 -x,-y,-z
4 x,1/2-y,1/2+z
_cell_length_a                   10.4120(4)
_cell_length_b                   9.2495(3)
_cell_length_c                   12.8461(4)
_cell_angle_alpha                90
_cell_angle_beta                 90.020(10)
_cell_angle_gamma                90
_cell_volume                     1237.15
_exptl_crystal_colour            colorless
_exptl_crystal_description       block
_chemical_melting_point          '153-157 deg.C'
_cell_formula_units_Z            2
_exptl_crystal_preparation       fluorescent
loop_
_atom_site_label
_atom_site_type_symbol
_atom_site_fract_x
_atom_site_fract_y
_atom_site_fract_z
Cl1 Cl 0.37844(6) 0.14925(6) 0.17956(4)
C1 C 0.35016(19) 0.69826(18) 0.05780(14)
C2 C 0.03058(18) 0.54000(18) 0.45577(13)
C3 C 0.1463(2) 0.69231(19) 0.28991(15)
C4 C 0.2071(2) 0.7789(2) 0.20303(15)
H1 H 0.1467 0.8517 0.1794
H2 H 0.2823 0.8284 0.2297
C5 C 0.0176(2) 0.7078(2) 0.31145(15)
H3 H -0.0321 0.7695 0.2709
C6 C 0.1614(2) 0.5248(2) 0.43397(17)
H4 H 0.2116 0.4640 0.4748
C7 C 0.2172(2) 0.5997(2) 0.35197(18)
H5 H 0.3042 0.5873 0.3384
C8 C 0.2212(2) 0.5334(2) -0.00519(15)
C9 C -0.0390(2) 0.6328(2) 0.39281(15)
H6 H -0.1263 0.6452 0.4055
C10 C 0.4604(2) 0.7942(2) 0.07287(16)
H7 H 0.5080 0.7637 0.1330
H8 H 0.4307 0.8915 0.0829
H9 H 0.5148 0.7904 0.0126
C11 C 0.1723(3) 0.4178(3) -0.07453(19)
H10 H 0.2088 0.3268 -0.0542
H11 H 0.1960 0.4389 -0.1451
H12 H 0.0805 0.4129 -0.0692
N1 N 0.33605(17) 0.60053(16) -0.01829(12)
N2 N 0.24484(16) 0.68872(16) 0.11460(12)
N3 N 0.16146(17) 0.58602(17) 0.07621(13)
H15 H 0.396(2) 0.5852(18) -0.0698(16)
C1B C -0.35016(19) 0.30174(18) 0.94220(14)
C2B C -0.03058(18) 0.46000(18) 0.54423(13)
C3B C -0.1463(2) 0.30769(19) 0.71009(15)
C4B C -0.2071(2) 0.2211(2) 0.79697(15)
H1B H -0.1467 0.1483 0.8206
H2B H -0.2823 0.1716 0.7703
C5B C -0.0176(2) 0.2922(2) 0.68855(15)
H3B H 0.0321 0.2305 0.7291
C6B C -0.1614(2) 0.4752(2) 0.56603(17)
H4B H -0.2116 0.5360 0.5252
C7B C -0.2172(2) 0.4003(2) 0.64803(18)
H5B H -0.3042 0.4127 0.6616
C8B C -0.2212(2) 0.4666(2) 1.00519(15)
C9B C 0.0390(2) 0.3672(2) 0.60719(15)
H6B H 0.1263 0.3548 0.5945
C10B C -0.4604(2) 0.2058(2) 0.92713(16)
H7B H -0.5080 0.2363 0.8670
H8B H -0.4307 0.1085 0.9171
H9B H -0.5148 0.2096 0.9874
C11B C -0.1723(3) 0.5822(3) 1.07453(19)
H10B H -0.2088 0.6732 1.0542
H11B H -0.1960 0.5611 1.1451
H12B H -0.0805 0.5871 1.0692
N1B N -0.33605(17) 0.39947(16) 1.01829(12)
N2B N -0.24484(16) 0.31128(16) 0.88540(12)
N3B N -0.16146(17) 0.41398(17) 0.92379(13)
H15B H -0.396(2) 0.4148(18) 1.0698(16)
O1 O 0.51368(17) 0.54477(18) 0.83858(11)
H13 H 0.484(2) 0.495(2) 0.7885(15)
H14 H 0.537(2) 0.6274(18) 0.8212(19)
loop_
_geom_bond_atom_site_label_1
_geom_bond_atom_site_label_2
_geom_bond_site_symmetry_1
_geom_bond_site_symmetry_2
C1 C10 1_555 1_555
C2 C6 1_555 1_555
C3 C4 1_555 1_555
C4 H1 1_555 1_555
H2 C4 1_555 1_555
C5 C3 1_555 1_555
H3 C5 1_555 1_555
C6 H4 1_555 1_555
C7 C3 1_555 1_555
H5 C7 1_555 1_555
C8 C11 1_555 1_555
C9 C2 1_555 1_555
H6 C9 1_555 1_555
C10 H7 1_555 1_555
H8 C10 1_555 1_555
H9 C10 1_555 1_555
C11 H10 1_555 1_555
H11 C11 1_555 1_555
H12 C11 1_555 1_555
N1 C1 1_555 1_555
N2 C1 1_555 1_555
N3 C8 1_555 1_555
O1 H13 1_555 1_555
H14 O1 1_555 1_555
H15 N1 1_555 1_555
C1B C10B 1_555 1_555
C2B C2 1_555 1_555
C3B C4B 1_555 1_555
C4B H1B 1_555 1_555
H2B C4B 1_555 1_555
C5B C3B 1_555 1_555
H3B C5B 1_555 1_555
C6B C2B 1_555 1_555
H4B C6B 1_555 1_555
C7B C3B 1_555 1_555
H5B C7B 1_555 1_555
C8B C11B 1_555 1_555
C9B C2B 1_555 1_555
H6B C9B 1_555 1_555
C10B H7B 1_555 1_555
H8B C10B 1_555 1_555
H9B C10B 1_555 1_555
C11B H10B 1_555 1_555
H11B C11B 1_555 1_555
H12B C11B 1_555 1_555
N1B C1B 1_555 1_555
N2B C1B 1_555 1_555
N3B C8B 1_555 1_555
H15B N1B 1_555 1_555
C4 N2 1_555 1_555
C5 C9 1_555 1_555
C6 C7 1_555 1_555
C8 N1 1_555 1_555
N2 N3 1_555 1_555
C4B N2B 1_555 1_555
C5B C9B 1_555 1_555
C6B C7B 1_555 1_555
C8B N1B 1_555 1_555
N2B N3B 1_555 1_555

#END
