
#######################################################################
#
#                 Cambridge Crystallographic Data Centre
#                                CCDC 
#
#######################################################################
#
# If this CIF has been generated from an entry in the Cambridge 
# Structural Database, then it will include bibliographic, chemical, 
# crystal, experimental, refinement or atomic coordinate data resulting 
# from the CCDC's data processing and validation procedures.
#
#######################################################################

data_CUBVIG
_chemical_name_common            
"tetraethylammonium 25,27-(2,2'-[(5,10,10,15,20,20-hexamethyl-5,10,15,20,22,24-hexahydroporphyrin-5,15-diyl)bis(benzene-4,1-diyloxy)]diethanolate)-26,28-bis(2-ethoxy-2-oxoethanolate)calix(4)arene fluoride dichloromethane solvate"
_chemical_formula_moiety         
'C78 H80 N4 O10,C8 H20 N1 1+,H2 O1,F1 1-,2(C1 H2 Cl2)'
_chemical_name_systematic        
"tetraethylammonium diethyl 2,2'-((1,37,42,42,51,51-hexamethyl-6,9,29,32-tetraoxa-56,57,58,59-tetraazatridecacyclo[35.9.9.7^11,27^.2^2,5^.2^33,36^.1^17,21^.1^38,41^.1^43,46^.1^47,50^.1^52,55^.1^63,67^.0^10,15^.0^23,28^]doheptaconta-2,4,10,12,14,17(69),18,20,23,25,27,33,35,38,40,43,45,47,49,52,54,60,63(72),64,66,70-hexacosaene-69,72-diyl)bis(oxy))diacetate fluoride dichloromethane solvate monohydrate"
_symmetry_cell_setting           monoclinic
_symmetry_space_group_name_H-M   'I 2/a'
_symmetry_Int_Tables_number      15
_space_group_name_Hall           '-I 2ya'
loop_
_symmetry_equiv_pos_site_id
_symmetry_equiv_pos_as_xyz
1 x,y,z
2 1/2-x,y,-z
3 1/2+x,1/2+y,1/2+z
4 -x,1/2+y,1/2-z
5 -x,-y,-z
6 1/2+x,-y,z
7 1/2-x,1/2-y,1/2-z
8 x,1/2-y,1/2+z
_cell_length_a                   19.9315(9)
_cell_length_b                   23.719(3)
_cell_length_c                   20.4020(16)
_cell_angle_alpha                90
_cell_angle_beta                 116.015(5)
_cell_angle_gamma                90
_cell_volume                     8667.9
_exptl_crystal_colour            colorless
_exptl_crystal_description       plate
_cell_formula_units_Z            4
loop_
_atom_site_label
_atom_site_type_symbol
_atom_site_fract_x
_atom_site_fract_y
_atom_site_fract_z
O1 O 0.56084(9) 0.62482(6) 0.35837(9)
O2 O 0.61326(9) 0.51251(6) 0.37777(8)
O3 O 0.69906(9) 0.50158(6) 0.54643(8)
O4 O 0.74590(10) 0.59665(8) 0.64457(10)
O5 O 0.63037(11) 0.62846(8) 0.58349(12)
C1 C 0.64495(18) 0.67121(13) 0.63895(18)
H1 H 0.6778 0.7010 0.6351
H2 H 0.6695 0.6543 0.6883
C2 C 0.5702(2) 0.69532(14) 0.62524(19)
H3 H 0.5466 0.7116 0.5762
H4 H 0.5770 0.7247 0.6613
H5 H 0.5384 0.6653 0.6293
N1 N 0.79432(11) 0.87549(8) 0.62399(10)
H6 H 0.7781 0.8521 0.5867
N2 N 0.63009(11) 0.87623(8) 0.48737(10)
H7 H 0.6673 0.8533 0.4942
C3 C 0.86781(13) 0.88954(9) 0.66528(12)
C4 C 0.87000(14) 0.92715(10) 0.71749(13)
H8 H 0.9135 0.9442 0.7539
C5 C 0.79599(14) 0.93593(10) 0.70745(13)
H9 H 0.7810 0.9601 0.7357
C6 C 0.74948(14) 0.90331(10) 0.64938(12)
C7 C 0.66734(14) 0.88977(10) 0.62218(13)
C8 C 0.61959(13) 0.90279(10) 0.54227(13)
C9 C 0.55640(14) 0.93473(10) 0.50936(14)
H10 H 0.5354 0.9579 0.5336
C10 C 0.52762(14) 0.92730(10) 0.43310(14)
H11 H 0.4840 0.9445 0.3970
C11 C 0.57423(13) 0.89063(9) 0.42066(12)
C12 C 0.57074(13) 0.86542(9) 0.35098(12)
C13 C 0.63668(16) 0.92307(13) 0.66746(14)
H12 H 0.6394 0.9635 0.6591
H13 H 0.6665 0.9147 0.7193
H14 H 0.5846 0.9123 0.6529
C14 C 0.65985(15) 0.82615(11) 0.63428(15)
H15 H 0.6072 0.8169 0.6194
H16 H 0.6891 0.8171 0.6860
H17 H 0.6785 0.8042 0.6051
C15 C 0.49487(14) 0.88073(10) 0.28779(13)
H18 H 0.4897 0.9218 0.2838
H19 H 0.4546 0.8648 0.2972
H20 H 0.4921 0.8653 0.2421
C16 C 0.57466(12) 0.80069(9) 0.35655(12)
C17 C 0.54323(13) 0.77202(10) 0.39592(13)
H21 H 0.5232 0.7930 0.4230
C18 C 0.54045(13) 0.71371(10) 0.39653(13)
H22 H 0.5191 0.6951 0.4242
C19 C 0.56881(13) 0.68219(9) 0.35676(12)
C20 C 0.60242(14) 0.70970(10) 0.31903(13)
H23 H 0.6236 0.6887 0.2931
C21 C 0.60491(14) 0.76838(10) 0.31935(12)
H24 H 0.6280 0.7869 0.2933
C22 C 0.57174(14) 0.59347(9) 0.30378(13)
H25 H 0.6237 0.5981 0.3105
H26 H 0.5376 0.6075 0.2547
C23 C 0.55618(13) 0.53234(9) 0.31065(13)
H27 H 0.5066 0.5280 0.3103
H28 H 0.5564 0.5106 0.2694
C24 C 0.62458(12) 0.45444(9) 0.38463(12)
C25 C 0.59692(12) 0.42416(9) 0.42594(12)
C26 C 0.55199(13) 0.45203(10) 0.46083(13)
H29 H 0.5029 0.4332 0.4440
H30 H 0.5432 0.4921 0.4460
C27 C 0.59422(13) 0.44794(9) 0.54346(13)
C28 C 0.66688(13) 0.46863(9) 0.58134(12)
C29 C 0.71269(13) 0.45235(10) 0.65258(12)
C30 C 0.68146(14) 0.42045(10) 0.68941(13)
H31 H 0.7114 0.4097 0.7386
C31 C 0.60731(14) 0.40409(10) 0.65537(14)
H32 H 0.5857 0.3845 0.6820
C32 C 0.56492(14) 0.41649(10) 0.58241(14)
H33 H 0.5149 0.4033 0.5585
C33 C 0.79538(13) 0.46386(10) 0.68393(12)
H34 H 0.8194 0.4538 0.7363
H35 H 0.8039 0.5045 0.6795
C34 C 0.83005(12) 0.42949(9) 0.64345(12)
C35 C 0.81282(13) 0.37276(10) 0.62856(13)
H36 H 0.7823 0.3547 0.6473
C36 C 0.83896(14) 0.34206(10) 0.58722(14)
H37 H 0.8259 0.3034 0.5771
C37 C 0.88423(14) 0.36762(10) 0.56048(13)
H38 H 0.9026 0.3462 0.5325
C38 C 0.66724(14) 0.55655(10) 0.52650(13)
H39 H 0.6122 0.5531 0.5012
H40 H 0.6840 0.5734 0.4918
C39 C 0.68814(13) 0.59538(10) 0.59082(14)
O1A O 0.93916(9) 0.62482(6) 0.64163(9)
O2A O 0.88674(9) 0.51251(6) 0.62223(8)
O3A O 0.80094(9) 0.50158(6) 0.45357(8)
O4A O 0.75410(10) 0.59665(8) 0.35543(10)
O5A O 0.86963(11) 0.62846(8) 0.41651(12)
C1A C 0.85505(18) 0.67121(13) 0.36105(18)
H1A H 0.8222 0.7010 0.3649
H2A H 0.8305 0.6543 0.3117
C2A C 0.9298(2) 0.69532(14) 0.37476(19)
H3A H 0.9534 0.7116 0.4238
H4A H 0.9230 0.7247 0.3387
H5A H 0.9616 0.6653 0.3707
N1A N 0.70568(11) 0.87549(8) 0.37601(10)
H6A H 0.7219 0.8521 0.4133
N2A N 0.86991(11) 0.87623(8) 0.51263(10)
H7A H 0.8327 0.8533 0.5058
C3A C 0.63219(13) 0.88954(9) 0.33472(12)
C4A C 0.63000(14) 0.92715(10) 0.28251(13)
H8A H 0.5865 0.9442 0.2461
C5A C 0.70401(14) 0.93593(10) 0.29255(13)
H9A H 0.7190 0.9601 0.2643
C6A C 0.75052(14) 0.90331(10) 0.35062(12)
C7A C 0.83266(14) 0.88977(10) 0.37782(13)
C8A C 0.88041(13) 0.90279(10) 0.45773(13)
C9A C 0.94360(14) 0.93473(10) 0.49064(14)
H10A H 0.9646 0.9579 0.4664
C10A C 0.97238(14) 0.92730(10) 0.56690(14)
H11A H 1.0160 0.9445 0.6030
C11A C 0.92577(13) 0.89063(9) 0.57934(12)
C12A C 0.92926(13) 0.86542(9) 0.64902(12)
C13A C 0.86332(16) 0.92307(13) 0.33254(14)
H12A H 0.8606 0.9635 0.3409
H13A H 0.8335 0.9147 0.2807
H14A H 0.9154 0.9123 0.3471
C14A C 0.84015(15) 0.82615(11) 0.36572(15)
H15A H 0.8928 0.8169 0.3806
H16A H 0.8109 0.8171 0.3140
H17A H 0.8215 0.8042 0.3949
C15A C 1.00513(14) 0.88073(10) 0.71221(13)
H18A H 1.0103 0.9218 0.7162
H19A H 1.0454 0.8648 0.7028
H20A H 1.0079 0.8653 0.7579
C16A C 0.92534(12) 0.80069(9) 0.64345(12)
C17A C 0.95677(13) 0.77202(10) 0.60408(13)
H21A H 0.9768 0.7930 0.5770
C18A C 0.95955(13) 0.71371(10) 0.60347(13)
H22A H 0.9809 0.6951 0.5758
C19A C 0.93119(13) 0.68219(9) 0.64324(12)
C20A C 0.89758(14) 0.70970(10) 0.68097(13)
H23A H 0.8764 0.6887 0.7069
C21A C 0.89509(14) 0.76838(10) 0.68065(12)
H24A H 0.8720 0.7869 0.7067
C22A C 0.92826(14) 0.59347(9) 0.69622(13)
H25A H 0.8763 0.5981 0.6895
H26A H 0.9624 0.6075 0.7453
C23A C 0.94382(13) 0.53234(9) 0.68935(13)
H27A H 0.9934 0.5280 0.6897
H28A H 0.9436 0.5106 0.7306
C24A C 0.87542(12) 0.45444(9) 0.61537(12)
C25A C 0.90308(12) 0.42416(9) 0.57406(12)
C26A C 0.94801(13) 0.45203(10) 0.53917(13)
H29A H 0.9971 0.4332 0.5560
H30A H 0.9568 0.4921 0.5540
C27A C 0.90578(13) 0.44794(9) 0.45654(13)
C28A C 0.83312(13) 0.46863(9) 0.41866(12)
C29A C 0.78731(13) 0.45235(10) 0.34742(12)
C30A C 0.81854(14) 0.42045(10) 0.31059(13)
H31A H 0.7886 0.4097 0.2614
C31A C 0.89269(14) 0.40409(10) 0.34463(14)
H32A H 0.9143 0.3845 0.3180
C32A C 0.93508(14) 0.41649(10) 0.41759(14)
H33A H 0.9851 0.4033 0.4415
C33A C 0.70462(13) 0.46386(10) 0.31607(12)
H34A H 0.6806 0.4538 0.2637
H35A H 0.6961 0.5045 0.3205
C34A C 0.66995(12) 0.42949(9) 0.35655(12)
C35A C 0.68718(13) 0.37276(10) 0.37144(13)
H36A H 0.7177 0.3547 0.3527
C36A C 0.66104(14) 0.34206(10) 0.41278(14)
H37A H 0.6741 0.3034 0.4229
C37A C 0.61577(14) 0.36762(10) 0.43952(13)
H38A H 0.5974 0.3462 0.4675
C38A C 0.83276(14) 0.55655(10) 0.47350(13)
H39A H 0.8878 0.5531 0.4988
H40A H 0.8160 0.5734 0.5082
C39A C 0.81186(13) 0.59538(10) 0.40918(14)
N3 N 0.7500 1.05157(12) 0.5000
C40 C 0.68945(15) 1.01297(10) 0.44713(14)
H41 H 0.7116 0.9889 0.4221
H42 H 0.6723 0.9878 0.4755
C41 C 0.62201(17) 1.04310(12) 0.38977(16)
H43 H 0.5992 1.0669 0.4138
H44 H 0.5855 1.0152 0.3590
H45 H 0.6378 1.0667 0.3596
C42 C 0.71930(17) 1.09003(11) 0.53972(15)
H46 H 0.6813 1.1150 0.5034
H47 H 0.7604 1.1143 0.5734
C43 C 0.68433(19) 1.06049(12) 0.58304(17)
H48 H 0.6443 1.0355 0.5507
H49 H 0.6636 1.0886 0.6043
H50 H 0.7224 1.0382 0.6222
C40A C 0.81055(15) 1.01297(10) 0.55287(14)
H41A H 0.7884 0.9889 0.5779
H42A H 0.8277 0.9878 0.5245
C41A C 0.87799(17) 1.04310(12) 0.61023(16)
H43A H 0.9008 1.0669 0.5862
H44A H 0.9145 1.0152 0.6410
H45A H 0.8622 1.0667 0.6404
C42A C 0.78070(17) 1.09003(11) 0.46028(15)
H46A H 0.8187 1.1150 0.4966
H47A H 0.7396 1.1143 0.4266
C43A C 0.81567(19) 1.06049(12) 0.41696(17)
H48A H 0.8557 1.0355 0.4493
H49A H 0.8364 1.0886 0.3957
H50A H 0.7776 1.0382 0.3778
O6 O 0.7398(5) 0.69636(16) 0.5147(4)
H51 H 0.7167 0.7072 0.5359
H52A H 0.7532 0.7277 0.4952
H52 H 0.7468 0.7277 0.5048
O6A O 0.7602(5) 0.69636(16) 0.4853(4)
H51A H 0.7833 0.7072 0.4641
F1 F 0.7500 0.81212(7) 0.5000
O7? O 0.6383(6) 0.6390(4) 0.5514(6)
C44? C 0.6547(8) 0.6900(5) 0.5954(8)
H53? H 0.6345 0.7236 0.5641
H54? H 0.7092 0.6947 0.6244
C45? C 0.6172(12) 0.6819(8) 0.6444(9)
H55? H 0.5634 0.6774 0.6147
H56? H 0.6265 0.7149 0.6761
H57? H 0.6373 0.6482 0.6744
loop_
_geom_bond_atom_site_label_1
_geom_bond_atom_site_label_2
_geom_bond_site_symmetry_1
_geom_bond_site_symmetry_2
O1 C19 1_555 1_555
O2 C23 1_555 1_555
O3 C28 1_555 1_555
O4 C39 1_555 1_555
O5 C1 1_555 1_555
C1 H1 1_555 1_555
H2 C1 1_555 1_555
C2 C1 1_555 1_555
H3 C2 1_555 1_555
H4 C2 1_555 1_555
H5 C2 1_555 1_555
N1 H6 1_555 1_555
N2 H7 1_555 1_555
C3 N1 1_555 1_555
C4 C3 1_555 1_555
H8 C4 1_555 1_555
C5 C4 1_555 1_555
H9 C5 1_555 1_555
C6 N1 1_555 1_555
C7 C6 1_555 1_555
C8 N2 1_555 1_555
C9 C8 1_555 1_555
H10 C9 1_555 1_555
C10 C9 1_555 1_555
H11 C10 1_555 1_555
C11 N2 1_555 1_555
C12 C11 1_555 1_555
C13 C7 1_555 1_555
H12 C13 1_555 1_555
H13 C13 1_555 1_555
H14 C13 1_555 1_555
C14 C7 1_555 1_555
H15 C14 1_555 1_555
H16 C14 1_555 1_555
H17 C14 1_555 1_555
C15 C12 1_555 1_555
H18 C15 1_555 1_555
H19 C15 1_555 1_555
H20 C15 1_555 1_555
C16 C12 1_555 1_555
C17 C16 1_555 1_555
H21 C17 1_555 1_555
C18 C17 1_555 1_555
H22 C18 1_555 1_555
C19 C18 1_555 1_555
C20 C19 1_555 1_555
H23 C20 1_555 1_555
C21 C16 1_555 1_555
H24 C21 1_555 1_555
C22 O1 1_555 1_555
H25 C22 1_555 1_555
H26 C22 1_555 1_555
C23 C22 1_555 1_555
H27 C23 1_555 1_555
H28 C23 1_555 1_555
C24 O2 1_555 1_555
C25 C24 1_555 1_555
C26 C25 1_555 1_555
H29 C26 1_555 1_555
H30 C26 1_555 1_555
C27 C26 1_555 1_555
C28 C27 1_555 1_555
C29 C28 1_555 1_555
C30 C29 1_555 1_555
H31 C30 1_555 1_555
C31 C30 1_555 1_555
H32 C31 1_555 1_555
C32 C27 1_555 1_555
H33 C32 1_555 1_555
C33 C29 1_555 1_555
H34 C33 1_555 1_555
H35 C33 1_555 1_555
C34 C33 1_555 1_555
C35 C34 1_555 1_555
H36 C35 1_555 1_555
C36 C35 1_555 1_555
H37 C36 1_555 1_555
C37 C36 1_555 1_555
H38 C37 1_555 1_555
C38 O3 1_555 1_555
H39 C38 1_555 1_555
H40 C38 1_555 1_555
C39 O5 1_555 1_555
N3 C40 1_555 1_555
C40 H41 1_555 1_555
H42 C40 1_555 1_555
C41 C40 1_555 1_555
H43 C41 1_555 1_555
H44 C41 1_555 1_555
H45 C41 1_555 1_555
C42 N3 1_555 1_555
H46 C42 1_555 1_555
H47 C42 1_555 1_555
C43 C42 1_555 1_555
H48 C43 1_555 1_555
H49 C43 1_555 1_555
H50 C43 1_555 1_555
O6 H51 1_555 1_555
H52 O6A 1_555 1_555
O1A C19A 1_555 1_555
O2A C23A 1_555 1_555
O3A C28A 1_555 1_555
O4A C39A 1_555 1_555
O5A C1A 1_555 1_555
C1A H1A 1_555 1_555
H2A C1A 1_555 1_555
C2A C1A 1_555 1_555
H3A C2A 1_555 1_555
H4A C2A 1_555 1_555
H5A C2A 1_555 1_555
N1A H6A 1_555 1_555
N2A H7A 1_555 1_555
C3A C12 1_555 1_555
C4A C3A 1_555 1_555
H8A C4A 1_555 1_555
C5A C4A 1_555 1_555
H9A C5A 1_555 1_555
C6A N1A 1_555 1_555
C7A C6A 1_555 1_555
C8A N2A 1_555 1_555
C9A C8A 1_555 1_555
H10A C9A 1_555 1_555
C10A C9A 1_555 1_555
H11A C10A 1_555 1_555
C11A N2A 1_555 1_555
C12A C3 1_555 1_555
C13A C7A 1_555 1_555
H12A C13A 1_555 1_555
H13A C13A 1_555 1_555
H14A C13A 1_555 1_555
C14A C7A 1_555 1_555
H15A C14A 1_555 1_555
H16A C14A 1_555 1_555
H17A C14A 1_555 1_555
C15A C12A 1_555 1_555
H18A C15A 1_555 1_555
H19A C15A 1_555 1_555
H20A C15A 1_555 1_555
C16A C12A 1_555 1_555
C17A C16A 1_555 1_555
H21A C17A 1_555 1_555
C18A C17A 1_555 1_555
H22A C18A 1_555 1_555
C19A C18A 1_555 1_555
C20A C19A 1_555 1_555
H23A C20A 1_555 1_555
C21A C16A 1_555 1_555
H24A C21A 1_555 1_555
C22A O1A 1_555 1_555
H25A C22A 1_555 1_555
H26A C22A 1_555 1_555
C23A C22A 1_555 1_555
H27A C23A 1_555 1_555
H28A C23A 1_555 1_555
C24A C34 1_555 1_555
C25A C37 1_555 1_555
C26A C25A 1_555 1_555
H29A C26A 1_555 1_555
H30A C26A 1_555 1_555
C27A C26A 1_555 1_555
C28A C27A 1_555 1_555
C29A C28A 1_555 1_555
C30A C29A 1_555 1_555
H31A C30A 1_555 1_555
C31A C30A 1_555 1_555
H32A C31A 1_555 1_555
C32A C27A 1_555 1_555
H33A C32A 1_555 1_555
C33A C29A 1_555 1_555
H34A C33A 1_555 1_555
H35A C33A 1_555 1_555
C34A C24 1_555 1_555
C35A C34A 1_555 1_555
H36A C35A 1_555 1_555
C36A C35A 1_555 1_555
H37A C36A 1_555 1_555
C37A C25 1_555 1_555
H38A C37A 1_555 1_555
C38A O3A 1_555 1_555
H39A C38A 1_555 1_555
H40A C38A 1_555 1_555
C39A O5A 1_555 1_555
C40A N3 1_555 1_555
H41A C40A 1_555 1_555
H42A C40A 1_555 1_555
C41A C40A 1_555 1_555
H43A C41A 1_555 1_555
H44A C41A 1_555 1_555
H45A C41A 1_555 1_555
C42A N3 1_555 1_555
H46A C42A 1_555 1_555
H47A C42A 1_555 1_555
C43A C42A 1_555 1_555
H48A C43A 1_555 1_555
H49A C43A 1_555 1_555
H50A C43A 1_555 1_555
H52A O6 1_555 1_555
O6A H51A 1_555 1_555
C5 C6 1_555 1_555
C7 C8 1_555 1_555
C10 C11 1_555 1_555
C20 C21 1_555 1_555
C31 C32 1_555 1_555
C38 C39 1_555 1_555
O2A C24A 1_555 1_555
N1A C3A 1_555 1_555
C5A C6A 1_555 1_555
C7A C8A 1_555 1_555
C10A C11A 1_555 1_555
C11A C12A 1_555 1_555
C20A C21A 1_555 1_555
C24A C25A 1_555 1_555
C31A C32A 1_555 1_555
C33A C34A 1_555 1_555
C36A C37A 1_555 1_555
C38A C39A 1_555 1_555

#END
