
#######################################################################
#
#                 Cambridge Crystallographic Data Centre
#                                CCDC 
#
#######################################################################
#
# If this CIF has been generated from an entry in the Cambridge 
# Structural Database, then it will include bibliographic, chemical, 
# crystal, experimental, refinement or atomic coordinate data resulting 
# from the CCDC's data processing and validation procedures.
#
#######################################################################

data_CUBVOM
_chemical_formula_moiety         'C26 H21 N3 O4'
_chemical_name_systematic        
3-(1,3-dioxo-1,3-dihydro-2H-isoindol-2-yl)-1-(quinolin-8-yl)-1-azaspiro[4.5]decane-2,7-dione
_symmetry_cell_setting           monoclinic
_symmetry_space_group_name_H-M   'C 2/c'
_symmetry_Int_Tables_number      15
_space_group_name_Hall           '-C 2yn'
loop_
_symmetry_equiv_pos_site_id
_symmetry_equiv_pos_as_xyz
1 x,y,z
2 -x,y,1/2-z
3 1/2+x,1/2+y,z
4 1/2-x,1/2+y,1/2-z
5 -x,-y,-z
6 x,-y,1/2+z
7 1/2-x,1/2-y,-z
8 1/2+x,1/2-y,1/2+z
_cell_length_a                   15.440(5)
_cell_length_b                   21.826(7)
_cell_length_c                   13.714(4)
_cell_angle_alpha                90
_cell_angle_beta                 110.809(6)
_cell_angle_gamma                90
_cell_volume                     4320.07
_exptl_crystal_colour            colorless
_exptl_crystal_description       block
_cell_formula_units_Z            8
loop_
_atom_site_label
_atom_site_type_symbol
_atom_site_fract_x
_atom_site_fract_y
_atom_site_fract_z
C1 C -0.02849(10) 0.09947(8) 0.08931(13)
C2 C -0.07915(11) 0.15111(8) 0.11442(13)
C3 C -0.15553(13) 0.15131(10) 0.14480(16)
H1 H -0.1824 0.1149 0.1552
C4 C -0.19035(17) 0.20750(13) 0.1591(2)
H2 H -0.2415 0.2091 0.1798
C5 C -0.1505(2) 0.26089(14) 0.1433(3)
H3 H -0.1760 0.2981 0.1525
C6 C -0.07295(19) 0.26096(11) 0.1139(2)
H4 H -0.0460 0.2973 0.1036
C7 C -0.03802(13) 0.20496(9) 0.10089(16)
C8 C 0.04270(12) 0.18923(8) 0.07010(15)
C9 C 0.10314(10) 0.09131(8) 0.02210(13)
H5 H 0.0888 0.0476 0.0231
C10 C 0.20474(10) 0.10104(7) 0.08893(13)
C11 C 0.09666(10) 0.10839(9) -0.08781(13)
H6 H 0.0733 0.1498 -0.1045
H7 H 0.0554 0.0806 -0.1384
C12 C 0.19622(9) 0.10342(7) -0.08909(12)
C13 C 0.21295(11) 0.04315(8) -0.13478(14)
H8 H 0.1927 0.0097 -0.1014
H9 H 0.2789 0.0383 -0.1195
C14 C 0.16253(14) 0.03915(11) -0.25210(16)
H10 H 0.1789 0.0010 -0.2776
H11 H 0.0962 0.0389 -0.2671
C15 C 0.18688(18) 0.09257(14) -0.30861(17)
H12 H 0.2511 0.0893 -0.3029
H13 H 0.1486 0.0911 -0.3820
C16 C 0.17226(13) 0.15156(11) -0.26387(16)
C17 C 0.21958(12) 0.15735(9) -0.14749(15)
H14 H 0.2006 0.1953 -0.1243
H15 H 0.2861 0.1590 -0.1307
C18 C 0.35223(10) 0.10997(8) 0.06424(12)
C19 C 0.39462(12) 0.16541(9) 0.07975(14)
H16 H 0.3588 0.2008 0.0636
C20 C 0.49201(14) 0.17035(13) 0.11989(17)
H17 H 0.5199 0.2088 0.1300
C21 C 0.54484(13) 0.11929(13) 0.14372(15)
H18 H 0.6091 0.1227 0.1700
C22 C 0.50366(12) 0.06112(11) 0.12921(13)
C23 C 0.40483(11) 0.05539(9) 0.08895(12)
C24 C 0.41410(17) -0.04915(11) 0.09414(17)
H19 H 0.3853 -0.0873 0.0821
C25 C 0.51170(19) -0.04765(15) 0.13261(19)
H20 H 0.5457 -0.0838 0.1451
C26 C 0.55505(15) 0.00695(15) 0.15100(17)
H21 H 0.6194 0.0086 0.1783
N1 N 0.25262(8) 0.10683(6) 0.02412(10)
N2 N 0.04120(8) 0.12575(6) 0.06053(11)
N3 N 0.36115(10) -0.00003(7) 0.07420(12)
O1 O -0.04295(9) 0.04527(6) 0.09006(11)
O2 O 0.09980(10) 0.22215(6) 0.05593(13)
O3 O 0.23638(8) 0.10109(6) 0.18361(9)
O4 O 0.12500(12) 0.19177(9) -0.31652(14)
loop_
_geom_bond_atom_site_label_1
_geom_bond_atom_site_label_2
_geom_bond_site_symmetry_1
_geom_bond_site_symmetry_2
C1 C2 1_555 1_555
C2 C3 1_555 1_555
C3 H1 1_555 1_555
C4 C3 1_555 1_555
H2 C4 1_555 1_555
C5 C4 1_555 1_555
H3 C5 1_555 1_555
C6 C5 1_555 1_555
H4 C6 1_555 1_555
C7 C2 1_555 1_555
C8 C7 1_555 1_555
C9 H5 1_555 1_555
C10 C9 1_555 1_555
C11 C9 1_555 1_555
H6 C11 1_555 1_555
H7 C11 1_555 1_555
C12 C11 1_555 1_555
C13 C12 1_555 1_555
H8 C13 1_555 1_555
H9 C13 1_555 1_555
C14 C13 1_555 1_555
H10 C14 1_555 1_555
H11 C14 1_555 1_555
C15 C14 1_555 1_555
H12 C15 1_555 1_555
H13 C15 1_555 1_555
C16 C15 1_555 1_555
C17 C12 1_555 1_555
H14 C17 1_555 1_555
H15 C17 1_555 1_555
C18 C19 1_555 1_555
C19 H16 1_555 1_555
C20 C19 1_555 1_555
H17 C20 1_555 1_555
C21 C20 1_555 1_555
H18 C21 1_555 1_555
C22 C21 1_555 1_555
C23 C18 1_555 1_555
C24 H19 1_555 1_555
C25 C24 1_555 1_555
H20 C25 1_555 1_555
C26 C22 1_555 1_555
H21 C26 1_555 1_555
N1 C10 1_555 1_555
N2 C1 1_555 1_555
N3 C23 1_555 1_555
O1 C1 1_555 1_555
O2 C8 1_555 1_555
O3 C10 1_555 1_555
O4 C16 1_555 1_555
C6 C7 1_555 1_555
C8 N2 1_555 1_555
C9 N2 1_555 1_555
C12 N1 1_555 1_555
C16 C17 1_555 1_555
C18 N1 1_555 1_555
C22 C23 1_555 1_555
C24 N3 1_555 1_555
C25 C26 1_555 1_555

#END
