
#######################################################################
#
#                 Cambridge Crystallographic Data Centre
#                                CCDC 
#
#######################################################################
#
# If this CIF has been generated from an entry in the Cambridge 
# Structural Database, then it will include bibliographic, chemical, 
# crystal, experimental, refinement or atomic coordinate data resulting 
# from the CCDC's data processing and validation procedures.
#
#######################################################################

data_CUBWED
_chemical_formula_moiety         'C18 H17 N1 O2 S1'
_chemical_name_systematic        
2-(((4-methylphenyl)sulfonyl)methyl)-5-phenyl-1H-pyrrole
_symmetry_cell_setting           monoclinic
_symmetry_space_group_name_H-M   'P 21/c'
_symmetry_Int_Tables_number      14
_space_group_name_Hall           '-P 2ybc'
loop_
_symmetry_equiv_pos_site_id
_symmetry_equiv_pos_as_xyz
1 x,y,z
2 -x,1/2+y,1/2-z
3 -x,-y,-z
4 x,1/2-y,1/2+z
_cell_length_a                   12.8499(7)
_cell_length_b                   10.5117(6)
_cell_length_c                   12.0432(6)
_cell_angle_alpha                90
_cell_angle_beta                 109.1820(10)
_cell_angle_gamma                90
_cell_volume                     1536.41
_exptl_crystal_colour            colorless
_exptl_crystal_description       Lamellar
_cell_formula_units_Z            4
loop_
_atom_site_label
_atom_site_type_symbol
_atom_site_fract_x
_atom_site_fract_y
_atom_site_fract_z
S1 S 0.29544(3) 1.03592(3) 0.00874(3)
O1 O 0.20359(8) 1.08186(10) -0.08852(8)
O2 O 0.37683(8) 0.95692(10) -0.01744(9)
N1 N 0.53576(10) 1.07834(11) 0.23060(10)
H1 H 0.5615 1.0480 0.1766
C1 C 0.10615(14) 0.74118(16) 0.32930(15)
H2 H 0.1318 0.7776 0.4086
H3 H 0.1302 0.6524 0.3325
H4 H 0.0255 0.7450 0.2981
C2 C 0.15362(12) 0.81583(14) 0.25068(12)
C3 C 0.09117(12) 0.90760(15) 0.17356(13)
H5 H 0.0172 0.9228 0.1699
C4 C 0.13580(12) 0.97691(14) 0.10215(12)
H6 H 0.0934 1.0406 0.0512
C5 C 0.24316(11) 0.95233(13) 0.10589(12)
C6 C 0.36461(12) 1.17311(14) 0.08783(12)
H7 H 0.4077 1.2133 0.0426
H8 H 0.3085 1.2353 0.0929
C7 C 0.43976(11) 1.14575(13) 0.20857(12)
C8 C 0.58591(12) 1.06546(13) 0.35049(12)
C9 C 0.69239(12) 1.00116(13) 0.40173(12)
C10 C 0.73134(12) 0.97027(14) 0.52157(13)
H9 H 0.6889 0.9920 0.5702
C11 C 0.83123(13) 0.90836(15) 0.56978(13)
H10 H 0.8563 0.8875 0.6510
C12 C 0.89489(13) 0.87652(16) 0.50083(15)
H11 H 0.9632 0.8338 0.5343
C13 C 0.75747(13) 0.96904(15) 0.33320(13)
H12 H 0.7328 0.9894 0.2518
C14 C 0.85776(14) 0.90770(17) 0.38244(15)
H13 H 0.9013 0.8869 0.3347
C15 C 0.51969(12) 1.12596(14) 0.40355(12)
H14 H 0.5334 1.1326 0.4858
C16 C 0.42776(12) 1.17657(14) 0.31442(12)
H15 H 0.3687 1.2232 0.3257
C17 C 0.30777(12) 0.86186(14) 0.18229(13)
H16 H 0.3812 0.8459 0.1846
C18 C 0.26252(12) 0.79549(14) 0.25493(13)
H17 H 0.3064 0.7349 0.3087
loop_
_geom_bond_atom_site_label_1
_geom_bond_atom_site_label_2
_geom_bond_site_symmetry_1
_geom_bond_site_symmetry_2
S1 O1 1_555 1_555
O2 S1 1_555 1_555
N1 H1 1_555 1_555
C1 H2 1_555 1_555
H3 C1 1_555 1_555
H4 C1 1_555 1_555
C2 C1 1_555 1_555
C3 C2 1_555 1_555
H5 C3 1_555 1_555
C4 C3 1_555 1_555
H6 C4 1_555 1_555
C5 S1 1_555 1_555
C6 S1 1_555 1_555
H7 C6 1_555 1_555
H8 C6 1_555 1_555
C7 N1 1_555 1_555
C8 N1 1_555 1_555
C9 C8 1_555 1_555
C10 C9 1_555 1_555
H9 C10 1_555 1_555
C11 C10 1_555 1_555
H10 C11 1_555 1_555
C12 C11 1_555 1_555
H11 C12 1_555 1_555
C13 C9 1_555 1_555
H12 C13 1_555 1_555
C14 C12 1_555 1_555
H13 C14 1_555 1_555
C15 C8 1_555 1_555
H14 C15 1_555 1_555
C16 C7 1_555 1_555
H15 C16 1_555 1_555
C17 C5 1_555 1_555
H16 C17 1_555 1_555
C18 C2 1_555 1_555
H17 C18 1_555 1_555
C4 C5 1_555 1_555
C6 C7 1_555 1_555
C13 C14 1_555 1_555
C15 C16 1_555 1_555
C17 C18 1_555 1_555

#END
