
#######################################################################
#
#                 Cambridge Crystallographic Data Centre
#                                CCDC 
#
#######################################################################
#
# If this CIF has been generated from an entry in the Cambridge 
# Structural Database, then it will include bibliographic, chemical, 
# crystal, experimental, refinement or atomic coordinate data resulting 
# from the CCDC's data processing and validation procedures.
#
#######################################################################

data_CUBXAZ
_chemical_formula_moiety         'C28 H29 N2 O7 P1'
_chemical_name_systematic        
'Ethyl N-(((5,7-dimethoxy-2-phenyl-4-quinolinyl)oxy)(phenoxy)phosphoryl)alaninate'
_symmetry_cell_setting           triclinic
_symmetry_space_group_name_H-M   'P -1'
_symmetry_Int_Tables_number      2
_space_group_name_Hall           '-P 1'
loop_
_symmetry_equiv_pos_site_id
_symmetry_equiv_pos_as_xyz
1 x,y,z
2 -x,-y,-z
_cell_length_a                   11.375(2)
_cell_length_b                   11.591(2)
_cell_length_c                   11.638(2)
_cell_angle_alpha                109.46(3)
_cell_angle_beta                 104.58(3)
_cell_angle_gamma                100.48(3)
_cell_volume                     1339.5
_exptl_crystal_colour            colorless
_exptl_crystal_description       prismatic
_chemical_melting_point          '157-159 deg.C'
_cell_formula_units_Z            2
_exptl_crystal_recrystallization_method methanol
loop_
_atom_site_label
_atom_site_type_symbol
_atom_site_fract_x
_atom_site_fract_y
_atom_site_fract_z
P1 P 0.41709(7) 0.64914(8) 0.59918(8)
O1 O 0.4484(2) 0.5441(2) 0.6305(2)
O2 O 0.27190(19) 0.64604(19) 0.5712(2)
O3 O 0.47932(19) 0.7859(2) 0.7141(2)
O4 O -0.2620(2) 0.6618(2) 0.2357(3)
O5 O 0.1572(2) 0.8100(2) 0.5312(2)
O6 O 0.2782(3) 0.7878(3) 0.2753(4)
O7 O 0.2900(3) 0.5907(3) 0.2395(3)
N1 N -0.0338(2) 0.3580(2) 0.2672(2)
N2 N 0.4580(3) 0.6638(3) 0.4817(3)
C1 C -0.0360(4) 0.0979(3) 0.1935(5)
H1 H -0.1139 0.1151 0.1777
C2 C -0.0324(4) -0.0275(4) 0.1413(6)
H2 H -0.1074 -0.0925 0.0894
C3 C 0.0790(4) -0.0564(4) 0.1651(5)
H3 H 0.0802 -0.1410 0.1331
C4 C 0.1883(4) 0.0390(4) 0.2357(4)
H4 H 0.2654 0.0202 0.2501
C5 C 0.1863(4) 0.1652(4) 0.2871(4)
H5 H 0.2623 0.2300 0.3354
C6 C 0.0721(3) 0.1961(3) 0.2671(3)
C7 C 0.0698(3) 0.3319(3) 0.3216(3)
C8 C 0.1727(3) 0.4260(3) 0.4254(3)
H6 H 0.2411 0.4034 0.4655
C9 C 0.1726(3) 0.5514(3) 0.4677(3)
C10 C 0.0666(3) 0.5856(3) 0.4103(3)
C11 C -0.0367(3) 0.4826(3) 0.3103(3)
C12 C -0.1498(3) 0.5056(3) 0.2498(3)
H7 H -0.2179 0.4379 0.1865
C13 C -0.1576(3) 0.6277(3) 0.2854(3)
C14 C -0.0554(3) 0.7318(3) 0.3788(3)
H8 H -0.0626 0.8143 0.3991
C15 C 0.0546(3) 0.7134(3) 0.4406(3)
C16 C -0.3731(3) 0.5607(4) 0.1476(4)
H9 H -0.4397 0.5959 0.1200
H10 H -0.3996 0.5073 0.1897
H11 H -0.3547 0.5106 0.0737
C17 C 0.1535(4) 0.9389(3) 0.5535(5)
H12 H 0.2309 0.9979 0.6192
H13 H 0.0828 0.9529 0.5813
H14 H 0.1444 0.9518 0.4748
C18 C 0.4761(3) 0.8043(3) 0.8398(3)
C19 C 0.5832(4) 0.8108(4) 0.9302(4)
H15 H 0.6551 0.8008 0.9085
C20 C 0.5834(5) 0.8325(5) 1.0548(4)
H16 H 0.6555 0.8369 1.1174
C21 C 0.4763(6) 0.8474(4) 1.0854(5)
H17 H 0.4765 0.8630 1.1692
C22 C 0.3704(5) 0.8393(4) 0.9936(5)
H18 H 0.2980 0.8479 1.0148
C23 C 0.3689(4) 0.8184(4) 0.8692(4)
H19 H 0.2967 0.8139 0.8068
C24 C 0.5566(6) 0.8286(8) 0.4216(7)
H20 H 0.6251 0.8567 0.5017
H21 H 0.5448 0.9012 0.4030
H22 H 0.5764 0.7712 0.3531
C25 C 0.4399(4) 0.7624(4) 0.4325(4)
C26 C 0.3266(4) 0.7145(4) 0.3072(4)
C27 C 0.1820(5) 0.5403(5) 0.1195(4)
H23 H 0.1993 0.5815 0.0629
H24 H 0.1068 0.5568 0.1381
C28 C 0.1614(6) 0.4017(5) 0.0565(5)
H25 H 0.0908 0.3666 -0.0229
H26 H 0.1438 0.3618 0.1129
H27 H 0.2362 0.3863 0.0383
H28 H 0.481(4) 0.606(4) 0.438(4)
C29? C 0.4309(17) 0.8782(19) 0.5141(17)
H29? H 0.5005 0.9127 0.5943
H30? H 0.3522 0.8635 0.5307
H31? H 0.4340 0.9377 0.4733
loop_
_geom_bond_atom_site_label_1
_geom_bond_atom_site_label_2
_geom_bond_site_symmetry_1
_geom_bond_site_symmetry_2
P1 O1 1_555 1_555
O2 P1 1_555 1_555
O3 P1 1_555 1_555
O4 C13 1_555 1_555
O5 C15 1_555 1_555
O6 C26 1_555 1_555
O7 C26 1_555 1_555
N1 C7 1_555 1_555
N2 P1 1_555 1_555
C1 H1 1_555 1_555
C2 C1 1_555 1_555
H2 C2 1_555 1_555
C3 C2 1_555 1_555
H3 C3 1_555 1_555
C4 C3 1_555 1_555
H4 C4 1_555 1_555
C5 C4 1_555 1_555
H5 C5 1_555 1_555
C6 C1 1_555 1_555
C7 C6 1_555 1_555
C8 C7 1_555 1_555
H6 C8 1_555 1_555
C9 O2 1_555 1_555
C10 C9 1_555 1_555
C11 N1 1_555 1_555
C12 C11 1_555 1_555
H7 C12 1_555 1_555
C13 C12 1_555 1_555
C14 C13 1_555 1_555
H8 C14 1_555 1_555
C15 C10 1_555 1_555
C16 O4 1_555 1_555
H9 C16 1_555 1_555
H10 C16 1_555 1_555
H11 C16 1_555 1_555
C17 O5 1_555 1_555
H12 C17 1_555 1_555
H13 C17 1_555 1_555
H14 C17 1_555 1_555
C18 O3 1_555 1_555
C19 C18 1_555 1_555
H15 C19 1_555 1_555
C20 C19 1_555 1_555
H16 C20 1_555 1_555
C21 C20 1_555 1_555
H17 C21 1_555 1_555
C22 C21 1_555 1_555
H18 C22 1_555 1_555
C23 C18 1_555 1_555
H19 C23 1_555 1_555
C24 H20 1_555 1_555
H21 C24 1_555 1_555
H22 C24 1_555 1_555
C25 N2 1_555 1_555
C26 C25 1_555 1_555
C27 O7 1_555 1_555
H23 C27 1_555 1_555
H24 C27 1_555 1_555
C28 C27 1_555 1_555
H25 C28 1_555 1_555
H26 C28 1_555 1_555
H27 C28 1_555 1_555
H28 N2 1_555 1_555
C5 C6 1_555 1_555
C8 C9 1_555 1_555
C10 C11 1_555 1_555
C14 C15 1_555 1_555
C22 C23 1_555 1_555
C24 C25 1_555 1_555

#END
