
#######################################################################
#
#                 Cambridge Crystallographic Data Centre
#                                CCDC 
#
#######################################################################
#
# If this CIF has been generated from an entry in the Cambridge 
# Structural Database, then it will include bibliographic, chemical, 
# crystal, experimental, refinement or atomic coordinate data resulting 
# from the CCDC's data processing and validation procedures.
#
#######################################################################

data_CUBYAZ
_chemical_formula_moiety         'C34 H54 O4'
_chemical_name_systematic        'Betulin diacetate'
_symmetry_cell_setting           orthorhombic
_symmetry_space_group_name_H-M   'P 21 21 21'
_symmetry_Int_Tables_number      19
_space_group_name_Hall           'P 2ac 2ab'
loop_
_symmetry_equiv_pos_site_id
_symmetry_equiv_pos_as_xyz
1 x,y,z
2 1/2+x,1/2-y,-z
3 -x,1/2+y,1/2-z
4 1/2-x,-y,1/2+z
_cell_length_a                   15.788(1)
_cell_length_b                   12.566(2)
_cell_length_c                   15.673(1)
_cell_angle_alpha                90
_cell_angle_beta                 90
_cell_angle_gamma                90
_cell_volume                     3109.4
_exptl_crystal_colour            colorless
_cell_formula_units_Z            4
loop_
_atom_site_label
_atom_site_type_symbol
_atom_site_fract_x
_atom_site_fract_y
_atom_site_fract_z
C1 C 0.1084(4) 0.3839(5) 0.8340(3)
C2 C 0.1234(3) 0.4102(4) 0.9890(3)
C3 C 0.0566(4) 0.4837(5) 0.8265(3)
C4 C 0.1739(3) 0.3884(3) 0.9056(3)
C5 C 0.0059(3) 0.5012(4) 0.9101(3)
C6 C 0.1152(4) 0.3046(5) 0.6971(4)
C7 C 0.0643(3) 0.5106(4) 0.9889(3)
C8 C 0.0063(2) 0.4965(4) 1.0697(3)
C9 C 0.1099(4) 0.6188(4) 0.9871(3)
C10 C -0.0617(2) 0.5859(4) 1.0774(3)
C11 C -0.1273(3) 0.5585(4) 1.1471(3)
C12 C 0.1675(4) 0.2960(4) 0.6164(3)
C13 C -0.2953(4) 0.5957(6) 1.2608(3)
C14 C -0.3230(5) 0.6898(7) 1.2366(5)
C15 C -0.0862(3) 0.5356(4) 1.2335(3)
C16 C -0.3322(4) 0.4951(7) 1.2302(4)
C17 C -0.1495(3) 0.5105(4) 1.3041(3)
C18 C -0.0604(4) 0.5911(4) 1.4216(3)
C19 C -0.2227(4) 0.5894(5) 1.3239(3)
C20 C 0.0339(4) 0.6336(5) 1.5331(3)
C21 C -0.2530(4) 0.5513(5) 1.4133(3)
C22 C 0.0650(4) 0.6069(6) 1.6209(4)
C23 C -0.1853(4) 0.4753(5) 1.4492(3)
C24 C -0.0654(4) 0.3393(4) 1.1947(3)
C25 C -0.1074(4) 0.4925(4) 1.3921(3)
C26 C 0.0948(3) 0.5825(4) 1.1895(3)
C27 C -0.0462(4) 0.3988(4) 1.3844(3)
C28 C 0.2146(4) 0.2771(5) 0.9117(4)
C29 C 0.0202(4) 0.4163(4) 1.3138(3)
C30 C 0.2458(5) 0.4681(5) 0.8877(4)
C31 C -0.0201(3) 0.4430(4) 1.2239(3)
O1 O 0.1528(2) 0.3680(3) 0.7531(2)
C32 C 0.0504(3) 0.4793(4) 1.1583(3)
O2 O 0.0505(3) 0.2572(4) 0.7080(3)
C33 C 0.1185(3) 0.3937(4) 1.1488(3)
O3 O -0.0251(3) 0.5700(3) 1.5050(2)
C34 C 0.1765(3) 0.4049(5) 1.0709(3)
O4 O 0.0555(3) 0.7125(4) 1.4958(3)
H1 H 0.073 0.324 0.846
H2 H 0.018 0.474 0.780
H3 H 0.092 0.541 0.816
H4 H -0.031 0.443 0.919
H5 H -0.026 0.565 0.904
H6 H -0.021 0.429 1.068
H7 H -0.090 0.595 1.023
H8 H -0.036 0.663 1.091
H9 H -0.158 0.497 1.130
H10 H -0.167 0.616 1.153
H11 H -0.054 0.599 1.248
H12 H -0.174 0.445 1.291
H13 H -0.200 0.663 1.328
H14 H -0.305 0.513 1.405
H15 H -0.263 0.609 1.450
H16 H -0.204 0.405 1.447
H17 H -0.172 0.495 1.505
H18 H -0.077 0.336 1.372
H19 H -0.017 0.390 1.437
H20 H 0.052 0.472 1.330
H21 H 0.091 0.328 1.144
H22 H 0.153 0.396 1.197
H23 H 0.213 0.345 1.069
H24 H 0.209 0.468 1.076
H25 H 0.080 0.357 0.993
H26 H 0.195 0.363 0.606
H27 H 0.129 0.284 0.569
H28 H 0.165 0.609 1.014
H29 H 0.079 0.668 1.020
H30 H 0.120 0.650 0.920
H31 H -0.360 0.700 1.200
H32 H -0.327 0.754 1.275
H33 H -0.290 0.450 1.196
H34 H -0.381 0.508 1.195
H35 H -0.351 0.452 1.278
H36 H -0.099 0.649 1.424
H37 H -0.016 0.608 1.382
H38 H 0.042 0.545 1.643
H39 H 0.120 0.600 1.620
H40 H 0.052 0.665 1.660
H41 H -0.111 0.321 1.232
H42 H -0.027 0.280 1.194
H43 H -0.088 0.349 1.137
H44 H 0.060 0.640 1.180
H45 H 0.147 0.594 1.159
H46 H 0.108 0.579 1.249
H47 H 0.250 0.270 0.860
H48 H 0.170 0.226 0.910
H49 H 0.245 0.272 0.961
H50 H 0.224 0.539 0.882
H51 H 0.274 0.450 0.836
H52 H 0.286 0.466 0.935
loop_
_geom_bond_atom_site_label_1
_geom_bond_atom_site_label_2
_geom_bond_site_symmetry_1
_geom_bond_site_symmetry_2
C1 C3 1_555 1_555
C2 C4 1_555 1_555
C3 C5 1_555 1_555
C4 C1 1_555 1_555
C5 C7 1_555 1_555
C6 C12 1_555 1_555
C7 C2 1_555 1_555
C8 C7 1_555 1_555
C9 C7 1_555 1_555
C10 C8 1_555 1_555
C11 C10 1_555 1_555
C12 H26 1_555 1_555
C13 C14 1_555 1_555
C14 H31 1_555 1_555
C15 C11 1_555 1_555
C16 C13 1_555 1_555
C17 C15 1_555 1_555
C18 C25 1_555 1_555
C19 C13 1_555 1_555
C20 C22 1_555 1_555
C21 C19 1_555 1_555
C22 H38 1_555 1_555
C23 C21 1_555 1_555
C24 C31 1_555 1_555
C25 C17 1_555 1_555
C26 C32 1_555 1_555
C27 C25 1_555 1_555
C28 C4 1_555 1_555
C29 C27 1_555 1_555
C30 C4 1_555 1_555
C31 C15 1_555 1_555
O1 C1 1_555 1_555
C32 C8 1_555 1_555
O2 C6 1_555 1_555
C33 C32 1_555 1_555
O3 C18 1_555 1_555
C34 C2 1_555 1_555
O4 C20 1_555 1_555
H1 C1 1_555 1_555
H2 C3 1_555 1_555
H3 C3 1_555 1_555
H4 C5 1_555 1_555
H5 C5 1_555 1_555
H6 C8 1_555 1_555
H7 C10 1_555 1_555
H8 C10 1_555 1_555
H9 C11 1_555 1_555
H10 C11 1_555 1_555
H11 C15 1_555 1_555
H12 C17 1_555 1_555
H13 C19 1_555 1_555
H14 C21 1_555 1_555
H15 C21 1_555 1_555
H16 C23 1_555 1_555
H17 C23 1_555 1_555
H18 C27 1_555 1_555
H19 C27 1_555 1_555
H20 C29 1_555 1_555
H21 C33 1_555 1_555
H22 C33 1_555 1_555
H23 C34 1_555 1_555
H24 C34 1_555 1_555
H25 C2 1_555 1_555
H27 C12 1_555 1_555
H28 C9 1_555 1_555
H29 C9 1_555 1_555
H30 C9 1_555 1_555
H32 C14 1_555 1_555
H33 C16 1_555 1_555
H34 C16 1_555 1_555
H35 C16 1_555 1_555
H36 C18 1_555 1_555
H37 C18 1_555 1_555
H39 C22 1_555 1_555
H40 C22 1_555 1_555
H41 C24 1_555 1_555
H42 C24 1_555 1_555
H43 C24 1_555 1_555
H44 C26 1_555 1_555
H45 C26 1_555 1_555
H46 C26 1_555 1_555
H47 C28 1_555 1_555
H48 C28 1_555 1_555
H49 C28 1_555 1_555
H50 C30 1_555 1_555
H51 C30 1_555 1_555
H52 C30 1_555 1_555
C6 O1 1_555 1_555
C17 C19 1_555 1_555
C20 O3 1_555 1_555
C23 C25 1_555 1_555
C29 C31 1_555 1_555
C31 C32 1_555 1_555
C33 C34 1_555 1_555

#END
