
#######################################################################
#
#                 Cambridge Crystallographic Data Centre
#                                CCDC 
#
#######################################################################
#
# If this CIF has been generated from an entry in the Cambridge 
# Structural Database, then it will include bibliographic, chemical, 
# crystal, experimental, refinement or atomic coordinate data resulting 
# from the CCDC's data processing and validation procedures.
#
#######################################################################

data_CUCDEK
_chemical_formula_moiety         'C29 H34 N2 O5 S1'
_chemical_name_systematic        
'(+/-)-t-Butyl (1RS,2RS,3SR,4SR)-2-((4-methoxybenzyl)amino)-3-(2-naphthylsulfonyl)-7-azabicyclo[2.2.1]heptane-7-carboxylate'
_symmetry_cell_setting           monoclinic
_symmetry_space_group_name_H-M   'P 21/c'
_symmetry_Int_Tables_number      14
_space_group_name_Hall           '-P 2ybc'
loop_
_symmetry_equiv_pos_site_id
_symmetry_equiv_pos_as_xyz
1 x,y,z
2 -x,1/2+y,1/2-z
3 -x,-y,-z
4 x,1/2-y,1/2+z
_cell_length_a                   9.8594(2)
_cell_length_b                   26.7410(6)
_cell_length_c                   10.0914(3)
_cell_angle_alpha                90
_cell_angle_beta                 96.8875(10)
_cell_angle_gamma                90
_cell_volume                     2641.4
_exptl_crystal_colour            colorless
_exptl_crystal_description       cube
_chemical_melting_point          '134-136 deg.C'
_cell_formula_units_Z            4
_exptl_crystal_recrystallization_method 'ethyl acetate/pentane'
loop_
_atom_site_label
_atom_site_type_symbol
_atom_site_fract_x
_atom_site_fract_y
_atom_site_fract_z
S1 S 0.23468(6) 0.143867(17) 0.63546(5)
O1 O 0.6064(2) 0.14936(7) 1.0149(2)
O2 O 0.75459(16) 0.20023(5) 0.92167(16)
O3 O 0.83813(19) 0.01445(6) 0.19577(18)
O4 O 0.17848(18) 0.18688(5) 0.56249(17)
O5 O 0.15636(18) 0.11982(6) 0.72900(18)
N1 N 0.53115(18) 0.21139(6) 0.87041(17)
N2 N 0.6108(2) 0.15087(6) 0.6318(2)
C1 C 0.3887(2) 0.19390(7) 0.8487(2)
C2 C 0.3957(2) 0.15875(7) 0.7263(2)
C3 C 0.4990(2) 0.18505(6) 0.6451(2)
C4 C 0.5387(2) 0.23135(7) 0.7348(2)
C5 C 0.4176(3) 0.26783(7) 0.7211(2)
C6 C 0.3158(3) 0.24306(7) 0.8064(2)
C7 C 0.7124(3) 0.16882(8) 0.5466(3)
C8 C 0.7513(2) 0.12771(7) 0.4554(2)
C9 C 0.6565(2) 0.11084(8) 0.3511(2)
C10 C 0.6882(3) 0.07335(8) 0.2669(2)
C11 C 0.8167(2) 0.05176(7) 0.2845(2)
C12 C 0.9126(2) 0.06705(8) 0.3876(3)
C13 C 0.8783(2) 0.10510(8) 0.4722(3)
C14 C 0.9716(3) -0.00585(11) 0.2013(4)
C15 C 0.2743(2) 0.09913(7) 0.5166(2)
C16 C 0.2680(2) 0.11267(7) 0.3856(2)
C17 C 0.2938(3) 0.07691(8) 0.2878(2)
C18 C 0.2881(3) 0.08912(10) 0.1510(3)
C19 C 0.3106(4) 0.05326(12) 0.0589(3)
C20 C 0.3405(3) 0.00379(11) 0.1010(3)
C21 C 0.3477(3) -0.00878(10) 0.2307(3)
C22 C 0.3251(2) 0.02704(7) 0.3298(2)
C23 C 0.3291(3) 0.01450(8) 0.4663(2)
C24 C 0.3048(3) 0.04947(7) 0.5595(2)
C25 C 0.6311(2) 0.18289(7) 0.9412(2)
C26 C 0.8811(2) 0.17808(8) 0.9914(2)
C27 C 0.8891(4) 0.12315(10) 0.9578(4)
C28 C 0.8844(3) 0.18714(12) 1.1409(3)
C29 C 0.9906(3) 0.20765(11) 0.9340(4)
H1 H 1.000(4) -0.0217(11) 0.285(3)
H2 H 1.042(4) 0.0208(11) 0.191(3)
H3 H 0.954(3) -0.0273(10) 0.121(3)
H4 H 0.974(4) 0.1743(12) 1.193(3)
H5 H 0.311(3) 0.2606(9) 0.888(3)
H6 H 0.984(3) 0.2424(13) 0.959(3)
H7 H 0.462(3) 0.1968(8) 0.556(2)
H8 H 0.983(4) 0.2042(11) 0.838(4)
H9 H 0.811(4) 0.1667(14) 1.183(4)
H10 H 0.980(4) 0.1098(11) 0.990(3)
H11 H 0.312(3) 0.0395(8) 0.654(3)
H12 H 0.226(3) 0.2411(8) 0.760(3)
H13 H 1.004(4) 0.0516(10) 0.398(3)
H14 H 0.381(3) 0.2717(8) 0.627(3)
H15 H 0.361(3) 0.1758(8) 0.928(2)
H16 H 0.813(4) 0.1033(13) 1.001(4)
H17 H 0.241(4) 0.1458(11) 0.361(3)
H18 H 0.266(3) 0.1236(11) 0.126(3)
H19 H 0.627(2) 0.2453(7) 0.719(2)
H20 H 0.879(4) 0.1179(14) 0.868(4)
H21 H 0.877(4) 0.2241(13) 1.162(4)
H22 H 0.352(4) -0.0219(11) 0.037(3)
H23 H 0.942(3) 0.1148(9) 0.538(3)
H24 H 0.304(4) 0.0604(12) -0.039(4)
H25 H 0.449(3) 0.3011(10) 0.756(3)
H26 H 0.617(3) 0.0600(10) 0.196(3)
H27 H 1.080(4) 0.1982(13) 0.968(4)
H28 H 0.678(3) 0.1978(11) 0.490(3)
H29 H 0.801(4) 0.1829(12) 0.602(3)
H30 H 0.432(3) 0.1268(9) 0.756(2)
H31 H 0.560(3) 0.1271(9) 0.333(3)
H32 H 0.351(3) -0.0239(10) 0.492(3)
H33 H 0.369(4) -0.0417(11) 0.262(3)
H34 H 0.582(6) 0.1220(19) 0.603(6)
loop_
_geom_bond_atom_site_label_1
_geom_bond_atom_site_label_2
_geom_bond_site_symmetry_1
_geom_bond_site_symmetry_2
S1 O4 1_555 1_555
O1 C25 1_555 1_555
O2 C25 1_555 1_555
O3 C11 1_555 1_555
O5 S1 1_555 1_555
N1 C1 1_555 1_555
N2 C3 1_555 1_555
C1 C2 1_555 1_555
C2 S1 1_555 1_555
C3 C2 1_555 1_555
C4 N1 1_555 1_555
C5 C4 1_555 1_555
C6 C1 1_555 1_555
C7 N2 1_555 1_555
C8 C7 1_555 1_555
C9 C8 1_555 1_555
C10 C9 1_555 1_555
C11 C10 1_555 1_555
C12 C11 1_555 1_555
C13 C8 1_555 1_555
C14 O3 1_555 1_555
C15 S1 1_555 1_555
C16 C15 1_555 1_555
C17 C16 1_555 1_555
C18 C17 1_555 1_555
C19 C18 1_555 1_555
C20 C19 1_555 1_555
C21 C20 1_555 1_555
C22 C17 1_555 1_555
C23 C22 1_555 1_555
C24 C15 1_555 1_555
C25 N1 1_555 1_555
C26 O2 1_555 1_555
C27 C26 1_555 1_555
C28 C26 1_555 1_555
C29 C26 1_555 1_555
H1 C14 1_555 1_555
H2 C14 1_555 1_555
H3 C14 1_555 1_555
H4 C28 1_555 1_555
H5 C6 1_555 1_555
H6 C29 1_555 1_555
H7 C3 1_555 1_555
H8 C29 1_555 1_555
H9 C28 1_555 1_555
H10 C27 1_555 1_555
H11 C24 1_555 1_555
H12 C6 1_555 1_555
H13 C12 1_555 1_555
H14 C5 1_555 1_555
H15 C1 1_555 1_555
H16 C27 1_555 1_555
H17 C16 1_555 1_555
H18 C18 1_555 1_555
H19 C4 1_555 1_555
H20 C27 1_555 1_555
H21 C28 1_555 1_555
H22 C20 1_555 1_555
H23 C13 1_555 1_555
H24 C19 1_555 1_555
H25 C5 1_555 1_555
H26 C10 1_555 1_555
H27 C29 1_555 1_555
H28 C7 1_555 1_555
H29 C7 1_555 1_555
H30 C2 1_555 1_555
H31 C9 1_555 1_555
H32 C23 1_555 1_555
H33 C21 1_555 1_555
H34 N2 1_555 1_555
C3 C4 1_555 1_555
C5 C6 1_555 1_555
C12 C13 1_555 1_555
C21 C22 1_555 1_555
C23 C24 1_555 1_555

#END
