
#######################################################################
#
#                 Cambridge Crystallographic Data Centre
#                                CCDC 
#
#######################################################################
#
# If this CIF has been generated from an entry in the Cambridge 
# Structural Database, then it will include bibliographic, chemical, 
# crystal, experimental, refinement or atomic coordinate data resulting 
# from the CCDC's data processing and validation procedures.
#
#######################################################################

data_CUCDIP
_chemical_formula_moiety         'C19 H22 N2 O3'
_chemical_name_systematic        
12a-ethyl-5a-hydroxy-1,2,3,5,5a,11,12,12a-octahydro-4H,10H-3a,9b-diazaindeno[7,1-jk]fluorene-4,10-dione
_symmetry_cell_setting           monoclinic
_symmetry_space_group_name_H-M   'P 21/c'
_symmetry_Int_Tables_number      14
_space_group_name_Hall           '-P 2ybc'
loop_
_symmetry_equiv_pos_site_id
_symmetry_equiv_pos_as_xyz
1 x,y,z
2 -x,1/2+y,1/2-z
3 -x,-y,-z
4 x,1/2-y,1/2+z
_cell_length_a                   16.4690(9)
_cell_length_b                   12.5405(6)
_cell_length_c                   15.4635(8)
_cell_angle_alpha                90
_cell_angle_beta                 92.9330(9)
_cell_angle_gamma                90
_cell_volume                     3189.49
_exptl_crystal_colour            colorless
_exptl_crystal_description       block
_cell_formula_units_Z            8
loop_
_atom_site_label
_atom_site_type_symbol
_atom_site_fract_x
_atom_site_fract_y
_atom_site_fract_z
O1 O 0.07894(5) 0.41986(6) -0.00437(5)
O2 O 0.18989(7) 0.92160(7) 0.12269(8)
O3 O 0.28904(5) 0.57567(6) 0.18928(5)
H1 H 0.2786(9) 0.5135(8) 0.1697(10)
N1 N 0.12895(5) 0.57246(7) 0.05648(6)
N2 N 0.13392(6) 0.75531(7) 0.10491(6)
C1 C 0.15080(6) 0.64411(8) 0.13110(7)
C2 C 0.10300(6) 0.61714(8) 0.21256(7)
C3 C 0.10046(7) 0.49587(8) 0.22412(7)
H2 H 0.1567 0.4686 0.2333
H3 H 0.0707 0.4787 0.2764
C4 C 0.05940(7) 0.43993(9) 0.14611(7)
H4 H 0.0686 0.3622 0.1521
H5 H 0.0001 0.4525 0.1466
C5 C 0.08864(6) 0.47544(8) 0.06012(7)
C6 C 0.01426(7) 0.65787(9) 0.19899(7)
H6 H -0.0138 0.6149 0.1528
H7 H -0.0143 0.6459 0.2530
C7 C 0.00701(7) 0.77540(9) 0.17468(8)
H8 H -0.0509 0.7958 0.1663
H9 H 0.0324 0.8202 0.2213
C8 C 0.05022(7) 0.79184(9) 0.09108(8)
H10 H 0.0225 0.7508 0.0435
H11 H 0.0493 0.8683 0.0750
C9 C 0.14594(7) 0.67003(9) 0.29296(7)
H12 H 0.2008 0.6382 0.3018
H13 H 0.1533 0.7467 0.2803
C10 C 0.10248(9) 0.66033(11) 0.37768(8)
H14 H 0.1367 0.6909 0.4251
H15 H 0.0922 0.5850 0.3898
H16 H 0.0507 0.6989 0.3724
C11 C 0.24756(6) 0.64750(9) 0.13288(7)
C12 C 0.26998(7) 0.76211(9) 0.15581(8)
H17 H 0.2818 0.7701 0.2189
H18 H 0.3180 0.7856 0.1248
C13 C 0.19543(8) 0.82452(9) 0.12654(8)
C14 C 0.26082(7) 0.62482(9) 0.03801(7)
C15 C 0.19123(7) 0.58308(8) -0.00384(7)
C16 C 0.18914(7) 0.55532(9) -0.09091(7)
H19 H 0.1414 0.5265 -0.1191
C17 C 0.25975(8) 0.57138(10) -0.13549(8)
H20 H 0.2601 0.5535 -0.1952
C18 C 0.32956(8) 0.61306(10) -0.09403(9)
H21 H 0.3770 0.6232 -0.1256
C19 C 0.33065(8) 0.64005(10) -0.00669(9)
H22 H 0.3784 0.6684 0.0217
O4 O 0.42607(5) 0.59297(7) 0.54377(6)
O5 O 0.24428(5) 0.11747(6) 0.62921(5)
O6 O 0.47825(5) 0.23597(6) 0.49032(5)
H23 H 0.5051(9) 0.2934(9) 0.4884(10)
N3 N 0.36918(6) 0.43011(7) 0.55598(6)
N4 N 0.28070(5) 0.27857(7) 0.57402(6)
C20 C 0.34290(6) 0.32469(8) 0.51995(7)
C21 C 0.30707(7) 0.33370(9) 0.42575(7)
C22 C 0.36294(7) 0.40419(10) 0.37320(8)
H24 H 0.4172 0.3705 0.3720
H25 H 0.3403 0.4094 0.3128
C23 C 0.37185(7) 0.51603(10) 0.41151(8)
H26 H 0.4158 0.5538 0.3826
H27 H 0.3207 0.5558 0.3988
C24 C 0.39079(7) 0.51713(9) 0.50770(8)
C25 C 0.22245(7) 0.38812(9) 0.42801(7)
H28 H 0.2303 0.4626 0.4481
H29 H 0.1979 0.3908 0.3683
C26 C 0.16265(7) 0.33335(9) 0.48599(8)
H30 H 0.1111 0.3739 0.4854
H31 H 0.1506 0.2604 0.4644
C27 C 0.20063(6) 0.32840(9) 0.57764(7)
H32 H 0.2061 0.4012 0.6021
H33 H 0.1658 0.2860 0.6150
C28 C 0.30006(8) 0.22060(9) 0.38606(7)
H34 H 0.3556 0.1923 0.3797
H35 H 0.2729 0.1737 0.4272
C29 C 0.25354(10) 0.21407(12) 0.29829(9)
H36 H 0.2606 0.1430 0.2734
H37 H 0.2745 0.2680 0.2593
H38 H 0.1956 0.2271 0.3058
C30 C 0.41687(6) 0.24888(9) 0.54938(7)
C31 C 0.37736(7) 0.14263(9) 0.56909(7)
H39 H 0.3744 0.0958 0.5175
H40 H 0.4074 0.1053 0.6172
C32 C 0.29376(7) 0.17510(8) 0.59431(7)
C33 C 0.44527(6) 0.30503(9) 0.63283(7)
C34 C 0.41506(7) 0.40841(9) 0.63519(7)
C35 C 0.42875(7) 0.47445(10) 0.70615(8)
H41 H 0.4070 0.5446 0.7072
C36 C 0.47577(8) 0.43365(11) 0.77609(8)
H42 H 0.4865 0.4770 0.8257
C37 C 0.50726(7) 0.33077(11) 0.77458(8)
H43 H 0.5397 0.3051 0.8227
C38 C 0.49153(7) 0.26532(10) 0.70323(8)
H44 H 0.5121 0.1945 0.7026
loop_
_geom_bond_atom_site_label_1
_geom_bond_atom_site_label_2
_geom_bond_site_symmetry_1
_geom_bond_site_symmetry_2
O1 C5 1_555 1_555
O2 C13 1_555 1_555
O3 H1 1_555 1_555
N1 C1 1_555 1_555
N2 C1 1_555 1_555
C1 C2 1_555 1_555
C2 C3 1_555 1_555
C3 H2 1_555 1_555
H3 C3 1_555 1_555
C4 C3 1_555 1_555
H4 C4 1_555 1_555
H5 C4 1_555 1_555
C5 N1 1_555 1_555
C6 C2 1_555 1_555
H6 C6 1_555 1_555
H7 C6 1_555 1_555
C7 C6 1_555 1_555
H8 C7 1_555 1_555
H9 C7 1_555 1_555
C8 N2 1_555 1_555
H10 C8 1_555 1_555
H11 C8 1_555 1_555
C9 C2 1_555 1_555
H12 C9 1_555 1_555
H13 C9 1_555 1_555
C10 C9 1_555 1_555
H14 C10 1_555 1_555
H15 C10 1_555 1_555
H16 C10 1_555 1_555
C11 O3 1_555 1_555
C12 C11 1_555 1_555
H17 C12 1_555 1_555
H18 C12 1_555 1_555
C13 N2 1_555 1_555
C14 C11 1_555 1_555
C15 N1 1_555 1_555
C16 C15 1_555 1_555
H19 C16 1_555 1_555
C17 C16 1_555 1_555
H20 C17 1_555 1_555
C18 C17 1_555 1_555
H21 C18 1_555 1_555
C19 C14 1_555 1_555
H22 C19 1_555 1_555
O4 C24 1_555 1_555
O5 C32 1_555 1_555
O6 H23 1_555 1_555
N3 C20 1_555 1_555
N4 C20 1_555 1_555
C20 C21 1_555 1_555
C21 C22 1_555 1_555
C22 H24 1_555 1_555
H25 C22 1_555 1_555
C23 C22 1_555 1_555
H26 C23 1_555 1_555
H27 C23 1_555 1_555
C24 N3 1_555 1_555
C25 C21 1_555 1_555
H28 C25 1_555 1_555
H29 C25 1_555 1_555
C26 C25 1_555 1_555
H30 C26 1_555 1_555
H31 C26 1_555 1_555
C27 N4 1_555 1_555
H32 C27 1_555 1_555
H33 C27 1_555 1_555
C28 C21 1_555 1_555
H34 C28 1_555 1_555
H35 C28 1_555 1_555
C29 C28 1_555 1_555
H36 C29 1_555 1_555
H37 C29 1_555 1_555
H38 C29 1_555 1_555
C30 O6 1_555 1_555
C31 C30 1_555 1_555
H39 C31 1_555 1_555
H40 C31 1_555 1_555
C32 N4 1_555 1_555
C33 C30 1_555 1_555
C34 N3 1_555 1_555
C35 C34 1_555 1_555
H41 C35 1_555 1_555
C36 C35 1_555 1_555
H42 C36 1_555 1_555
C37 C36 1_555 1_555
H43 C37 1_555 1_555
C38 C33 1_555 1_555
H44 C38 1_555 1_555
C1 C11 1_555 1_555
C4 C5 1_555 1_555
C7 C8 1_555 1_555
C12 C13 1_555 1_555
C14 C15 1_555 1_555
C18 C19 1_555 1_555
C20 C30 1_555 1_555
C23 C24 1_555 1_555
C26 C27 1_555 1_555
C31 C32 1_555 1_555
C33 C34 1_555 1_555
C37 C38 1_555 1_555

#END
