
#######################################################################
#
#                 Cambridge Crystallographic Data Centre
#                                CCDC 
#
#######################################################################
#
# If this CIF has been generated from an entry in the Cambridge 
# Structural Database, then it will include bibliographic, chemical, 
# crystal, experimental, refinement or atomic coordinate data resulting 
# from the CCDC's data processing and validation procedures.
#
#######################################################################

data_CUCDIO
_chemical_formula_moiety         'C35 H46 N2 O4 S1'
_chemical_name_systematic        
'(+/-)-t-Butyl (1SR,2SR,3RS,4RS)-2-((4-heptylphenyl)sulfonyl)-3-((2-naphthylmethyl)amino)-7-azabicyclo[2.2.1]heptane-7-carboxylate'
_symmetry_cell_setting           monoclinic
_symmetry_space_group_name_H-M   'P 21/n'
_symmetry_Int_Tables_number      14
_space_group_name_Hall           '-P 2yn'
loop_
_symmetry_equiv_pos_site_id
_symmetry_equiv_pos_as_xyz
1 x,y,z
2 1/2-x,1/2+y,1/2-z
3 -x,-y,-z
4 1/2+x,1/2-y,1/2+z
_cell_length_a                   10.8999(7)
_cell_length_b                   9.8349(9)
_cell_length_c                   30.400(2)
_cell_angle_alpha                90
_cell_angle_beta                 92.132(3)
_cell_angle_gamma                90
_cell_volume                     3256.61
_exptl_crystal_colour            colorless
_exptl_crystal_description       plate
_chemical_melting_point          '88-90 deg.C'
_cell_formula_units_Z            4
_exptl_crystal_recrystallization_method hexane/methanol
loop_
_atom_site_label
_atom_site_type_symbol
_atom_site_fract_x
_atom_site_fract_y
_atom_site_fract_z
S1 S -0.2102(2) -0.0821(2) 0.15354(7)
O1 O 0.1407(5) -0.2627(7) 0.0663(2)
O2 O 0.2549(5) -0.0687(5) 0.0691(2)
O3 O -0.2713(5) -0.2080(6) 0.14306(17)
O4 O -0.2732(6) 0.0445(6) 0.14467(18)
N1 N 0.0510(7) -0.0544(7) 0.0665(2)
N2 N 0.1209(7) 0.0117(7) 0.1625(2)
C1 C -0.0723(7) -0.1039(9) 0.0765(3)
C2 C -0.0678(7) -0.0836(8) 0.1266(3)
C3 C 0.0131(8) 0.0458(8) 0.1349(3)
C4 C 0.0452(8) 0.0803(9) 0.0869(3)
C5 C -0.0713(7) 0.1379(9) 0.0623(3)
C6 C -0.1495(8) 0.0065(10) 0.0537(3)
C7 C 0.1511(10) -0.1395(10) 0.0674(3)
C8 C 0.3729(8) -0.1419(9) 0.0635(4)
C9 C 0.3760(9) -0.2072(11) 0.0185(4)
C10 C 0.4647(8) -0.0272(11) 0.0681(4)
C11 C 0.3972(10) -0.2442(10) 0.0998(4)
C12 C 0.1709(12) 0.1152(13) 0.1837(4)
C13 C 0.2699(11) 0.0743(12) 0.2164(4)
C14 C 0.3652(13) -0.0022(14) 0.2006(5)
C15 C 0.4629(15) -0.0592(12) 0.2263(5)
C16 C 0.5724(11) -0.0853(10) 0.2985(4)
C17 C 0.5681(12) -0.0462(11) 0.3404(4)
C18 C 0.4748(17) 0.0306(17) 0.3543(6)
C19 C 0.367(2) 0.0863(18) 0.3299(8)
C20 C 0.2653(12) 0.1102(14) 0.2593(5)
C21 C 0.3781(9) 0.0513(9) 0.2905(4)
C22 C 0.4603(12) -0.0252(10) 0.2690(3)
C23 C -0.1609(8) -0.0826(8) 0.2099(3)
C24 C -0.1227(9) -0.2017(9) 0.2286(3)
C25 C -0.0846(12) -0.2020(9) 0.2723(4)
C26 C -0.048(2) -0.076(2) 0.2930(6)
C27 C -0.1233(12) 0.0345(9) 0.2775(4)
C28 C -0.1608(10) 0.0365(9) 0.2338(3)
C29 C 0.011(2) -0.066(2) 0.3372(8)
C30 C -0.031(2) -0.162(2) 0.3667(7)
C31 C 0.0451(16) -0.1302(12) 0.4148(3)
C32 C 0.1754(17) -0.1472(14) 0.4268(4)
C33 C 0.1883(17) -0.108(2) 0.4830(7)
C34 C 0.302(2) -0.099(2) 0.4883(7)
C35 C 0.3143(17) -0.0429(13) 0.5393(5)
H1 H 0.0792 -0.0636 0.1851
H2 H -0.0973 -0.1953 0.0696
H3 H -0.0244 -0.1588 0.1400
H4 H -0.0383 0.1121 0.1483
H5 H 0.1180 0.1354 0.0880
H6 H -0.1101 0.2021 0.0811
H7 H -0.0481 0.1826 0.0358
H8 H -0.1600 -0.0140 0.0229
H9 H -0.2285 0.0109 0.0666
H10 H 0.4521 -0.2539 0.0145
H11 H 0.3656 -0.1376 -0.0034
H12 H 0.3092 -0.2707 0.0158
H13 H 0.5467 -0.0607 0.0652
H14 H 0.4577 0.0142 0.0965
H15 H 0.4467 0.0390 0.0455
H16 H 0.4741 -0.2896 0.0959
H17 H 0.3319 -0.3098 0.0988
H18 H 0.3993 -0.1989 0.1278
H19 H 0.2050 0.1749 0.1624
H20 H 0.1089 0.1626 0.1992
H21 H 0.3654 -0.0178 0.1694
H22 H 0.5222 -0.1193 0.2141
H23 H 0.6386 -0.1423 0.2897
H24 H 0.6320 -0.0716 0.3614
H25 H 0.4758 0.0539 0.3850
H26 H 0.3051 0.1372 0.3445
H27 H 0.1967 0.1658 0.2667
H28 H -0.1224 -0.2830 0.2111
H29 H -0.0514 -0.2847 0.2845
H30 H -0.1250 0.1175 0.2941
H31 H -0.1873 0.1193 0.2198
H32 H 0.0986 -0.0780 0.3347
H33 H -0.0030 0.0239 0.3489
H34 H -0.0147 -0.2532 0.3566
H35 H -0.1192 -0.1521 0.3699
H36 H -0.0022 -0.1962 0.4301
H37 H 0.0217 -0.0404 0.4236
H38 H 0.1977 -0.2387 0.4196
H39 H 0.2230 -0.0846 0.4102
H40 H 0.1391 -0.0308 0.4902
H41 H 0.1607 -0.1863 0.4988
H42 H 0.3466 -0.1815 0.4848
H43 H 0.3293 -0.0319 0.4679
H44 H 0.3982 -0.0232 0.5477
H45 H 0.2833 -0.1113 0.5585
H46 H 0.2660 0.0383 0.5416
C36? C -0.1135(17) -0.0900(16) 0.3012(5)
C37? C -0.0862(18) -0.094(2) 0.3497(6)
C38? C 0.0508(18) -0.1202(19) 0.3651(6)
H47? H -0.1365 -0.1645 0.3622
H48? H -0.1117 -0.0080 0.3621
H49? H 0.0812 -0.2040 0.3527
H50? H 0.1031 -0.0456 0.3566
loop_
_geom_bond_atom_site_label_1
_geom_bond_atom_site_label_2
_geom_bond_site_symmetry_1
_geom_bond_site_symmetry_2
S1 O3 1_555 1_555
O1 C7 1_555 1_555
O2 C7 1_555 1_555
O4 S1 1_555 1_555
N1 C1 1_555 1_555
N2 C3 1_555 1_555
C1 C2 1_555 1_555
C2 S1 1_555 1_555
C3 C2 1_555 1_555
C4 N1 1_555 1_555
C5 C4 1_555 1_555
C6 C1 1_555 1_555
C7 N1 1_555 1_555
C8 O2 1_555 1_555
C9 C8 1_555 1_555
C10 C8 1_555 1_555
C11 C8 1_555 1_555
C12 N2 1_555 1_555
C13 C12 1_555 1_555
C14 C13 1_555 1_555
C15 C14 1_555 1_555
C16 C17 1_555 1_555
C17 C18 1_555 1_555
C18 C19 1_555 1_555
C19 C21 1_555 1_555
C20 C13 1_555 1_555
C21 C20 1_555 1_555
C22 C15 1_555 1_555
C23 S1 1_555 1_555
C24 C23 1_555 1_555
C25 C24 1_555 1_555
C26 C25 1_555 1_555
C27 C26 1_555 1_555
C28 C23 1_555 1_555
C29 C26 1_555 1_555
C30 C29 1_555 1_555
C31 C30 1_555 1_555
C32 C31 1_555 1_555
C33 C32 1_555 1_555
C34 C33 1_555 1_555
C35 C34 1_555 1_555
H1 N2 1_555 1_555
H2 C1 1_555 1_555
H3 C2 1_555 1_555
H4 C3 1_555 1_555
H5 C4 1_555 1_555
H6 C5 1_555 1_555
H7 C5 1_555 1_555
H8 C6 1_555 1_555
H9 C6 1_555 1_555
H10 C9 1_555 1_555
H11 C9 1_555 1_555
H12 C9 1_555 1_555
H13 C10 1_555 1_555
H14 C10 1_555 1_555
H15 C10 1_555 1_555
H16 C11 1_555 1_555
H17 C11 1_555 1_555
H18 C11 1_555 1_555
H19 C12 1_555 1_555
H20 C12 1_555 1_555
H21 C14 1_555 1_555
H22 C15 1_555 1_555
H23 C16 1_555 1_555
H24 C17 1_555 1_555
H25 C18 1_555 1_555
H26 C19 1_555 1_555
H27 C20 1_555 1_555
H28 C24 1_555 1_555
H29 C25 1_555 1_555
H30 C27 1_555 1_555
H31 C28 1_555 1_555
H32 C29 1_555 1_555
H33 C29 1_555 1_555
H34 C30 1_555 1_555
H35 C30 1_555 1_555
H36 C31 1_555 1_555
H37 C31 1_555 1_555
H38 C32 1_555 1_555
H39 C32 1_555 1_555
H40 C33 1_555 1_555
H41 C33 1_555 1_555
H42 C34 1_555 1_555
H43 C34 1_555 1_555
H44 C35 1_555 1_555
H45 C35 1_555 1_555
H46 C35 1_555 1_555
C3 C4 1_555 1_555
C5 C6 1_555 1_555
C16 C22 1_555 1_555
C21 C22 1_555 1_555
C27 C28 1_555 1_555

#END
