
#######################################################################
#
#                 Cambridge Crystallographic Data Centre
#                                CCDC 
#
#######################################################################
#
# If this CIF has been generated from an entry in the Cambridge 
# Structural Database, then it will include bibliographic, chemical, 
# crystal, experimental, refinement or atomic coordinate data resulting 
# from the CCDC's data processing and validation procedures.
#
#######################################################################

data_CUCFEL
_chemical_formula_moiety         'C4 H11 N1,C39 H32 N2 O1'
_chemical_name_systematic        "N,N'-Ditritylurea diethylamine"
_symmetry_cell_setting           monoclinic
_symmetry_space_group_name_H-M   'C 2/c'
_symmetry_Int_Tables_number      15
_space_group_name_Hall           '-C 2yn'
loop_
_symmetry_equiv_pos_site_id
_symmetry_equiv_pos_as_xyz
1 x,y,z
2 1/2+x,1/2+y,z
3 -x,y,1/2-z
4 1/2-x,1/2+y,1/2-z
5 -x,-y,-z
6 1/2-x,1/2-y,-z
7 x,-y,1/2+z
8 1/2+x,1/2-y,1/2+z
_cell_length_a                   16.926(9)
_cell_length_b                   8.740(5)
_cell_length_c                   24.404(13)
_cell_angle_alpha                90
_cell_angle_beta                 106.99(4)
_cell_angle_gamma                90
_cell_volume                     3452.6
_cell_formula_units_Z            4
loop_
_atom_site_label
_atom_site_type_symbol
_atom_site_fract_x
_atom_site_fract_y
_atom_site_fract_z
C3 C 0.4731(3) 0.1709(5) 0.1434(2)
N2 N 0.4986(3) 0.2313(5) 0.2027(2)
C4 C 0.5000 0.1441(9) 0.2500
O1 O 0.5000 0.0063(5) 0.2500
C5 C 0.3971(3) 0.0665(6) 0.1356(2)
C6 C 0.3893(4) -0.0736(6) 0.1075(2)
C7 C 0.3188(4) -0.1603(6) 0.0994(3)
C8 C 0.2560(4) -0.1127(7) 0.1194(3)
C9 C 0.2626(4) 0.0262(7) 0.1471(3)
C10 C 0.3325(3) 0.1135(6) 0.1551(2)
C11 C 0.4500(3) 0.3104(5) 0.1037(2)
C12 C 0.5068(4) 0.4285(7) 0.1101(2)
C13 C 0.4910(5) 0.5545(7) 0.0743(3)
C14 C 0.4187(5) 0.5641(8) 0.0308(3)
C15 C 0.3621(5) 0.4491(9) 0.0239(3)
C16 C 0.3771(4) 0.3218(7) 0.0601(2)
C17 C 0.5450(3) 0.0892(5) 0.1290(2)
C18 C 0.5503(4) 0.0858(7) 0.0733(2)
C19 C 0.6125(4) 0.0121(7) 0.0591(3)
C20 C 0.6709(4) -0.0639(8) 0.0997(3)
C21 C 0.6688(4) -0.0648(8) 0.1551(3)
C22 C 0.6060(4) 0.0131(7) 0.1694(3)
H7 H 0.495(3) 0.323(4) 0.205(2)
H8 H 0.435(3) -0.109(4) 0.096(2)
H9 H 0.314(4) -0.263(7) 0.083(3)
H10 H 0.210(3) -0.180(5) 0.120(2)
H11 H 0.221(3) 0.054(5) 0.161(2)
H12 H 0.333(2) 0.212(5) 0.177(2)
H13 H 0.557(3) 0.415(5) 0.139(2)
H14 H 0.528(3) 0.633(6) 0.080(2)
H15 H 0.413(4) 0.660(7) 0.008(3)
H16 H 0.317(4) 0.448(6) -0.006(2)
H17 H 0.337(3) 0.246(5) 0.054(2)
H18 H 0.515(4) 0.144(7) 0.043(3)
H19 H 0.610(3) 0.007(6) 0.020(2)
H20 H 0.709(4) -0.111(6) 0.091(2)
H21 H 0.714(4) -0.123(7) 0.195(3)
H22 H 0.608(3) 0.006(6) 0.209(2)
N2B N 0.5014(3) 0.2313(5) 0.2973(2)
C3B C 0.5269(3) 0.1709(5) 0.3566(2)
H7B H 0.505(3) 0.323(4) 0.295(2)
C5B C 0.6029(3) 0.0665(6) 0.3644(2)
C11B C 0.5500(3) 0.3104(5) 0.3963(2)
C17B C 0.4550(3) 0.0892(5) 0.3710(2)
C6B C 0.6107(4) -0.0736(6) 0.3925(2)
C10B C 0.6675(3) 0.1135(6) 0.3449(2)
C12B C 0.4932(4) 0.4285(7) 0.3899(2)
C16B C 0.6229(4) 0.3218(7) 0.4399(2)
C18B C 0.4497(4) 0.0858(7) 0.4267(2)
C22B C 0.3940(4) 0.0131(7) 0.3306(3)
C7B C 0.6812(4) -0.1603(6) 0.4006(3)
H8B H 0.565(3) -0.109(4) 0.404(2)
C9B C 0.7374(4) 0.0262(7) 0.3529(3)
H12B H 0.667(2) 0.212(5) 0.323(2)
C13B C 0.5090(5) 0.5545(7) 0.4257(3)
H13B H 0.443(3) 0.415(5) 0.361(2)
C15B C 0.6379(5) 0.4491(9) 0.4761(3)
H17B H 0.663(3) 0.246(5) 0.446(2)
C19B C 0.3875(4) 0.0121(7) 0.4409(3)
H18B H 0.485(4) 0.144(7) 0.457(3)
C21B C 0.3312(4) -0.0648(8) 0.3449(3)
H22B H 0.392(3) 0.006(6) 0.291(2)
C8B C 0.7440(4) -0.1127(7) 0.3806(3)
H9B H 0.686(4) -0.263(7) 0.417(3)
H11B H 0.779(3) 0.054(5) 0.339(2)
C14B C 0.5813(5) 0.5641(8) 0.4692(3)
H14B H 0.472(3) 0.633(6) 0.420(2)
H16B H 0.683(4) 0.448(6) 0.506(2)
C20B C 0.3291(4) -0.0639(8) 0.4003(3)
H19B H 0.390(3) 0.007(6) 0.480(2)
H21B H 0.286(4) -0.123(7) 0.305(3)
H10B H 0.790(3) -0.180(5) 0.380(2)
H15B H 0.587(4) 0.660(7) 0.492(3)
H20B H 0.291(4) -0.111(6) 0.409(2)
N1 N 0.5000 0.5774(8) 0.2500
C1 C 0.430 0.668 0.256
C2 C 0.3592(7) 0.587(1) 0.2368(5)
H1 H 0.481 0.515 0.217
H2 H 0.426 0.760 0.235
H3 H 0.438 0.692 0.295
H4 H 0.365 0.496 0.258
H5 H 0.352 0.564 0.197
H6 H 0.315 0.646 0.240
C1B C 0.570 0.668 0.244
H1B H 0.519 0.515 0.283
C2B C 0.6408(7) 0.587(1) 0.2632(5)
H2B H 0.574 0.760 0.265
H3B H 0.562 0.692 0.205
H4B H 0.635 0.496 0.242
H5B H 0.648 0.564 0.303
H6B H 0.685 0.646 0.260
loop_
_geom_bond_atom_site_label_1
_geom_bond_atom_site_label_2
_geom_bond_site_symmetry_1
_geom_bond_site_symmetry_2
N1 C1 1_555 1_555
C1 C2 1_555 1_555
C2 H4 1_555 1_555
H1 N1 1_555 1_555
H2 C1 1_555 1_555
H3 C1 1_555 1_555
H5 C2 1_555 1_555
H6 C2 1_555 1_555
C3 N2 1_555 1_555
N2 C4 1_555 1_555
C4 O1 1_555 1_555
C5 C3 1_555 1_555
C6 C5 1_555 1_555
C7 C6 1_555 1_555
C8 C7 1_555 1_555
C9 C8 1_555 1_555
C10 C5 1_555 1_555
C11 C3 1_555 1_555
C12 C11 1_555 1_555
C13 C12 1_555 1_555
C14 C13 1_555 1_555
C15 C14 1_555 1_555
C16 C11 1_555 1_555
C17 C3 1_555 1_555
C18 C17 1_555 1_555
C19 C18 1_555 1_555
C20 C19 1_555 1_555
C21 C20 1_555 1_555
C22 C17 1_555 1_555
H7 N2 1_555 1_555
H8 C6 1_555 1_555
H9 C7 1_555 1_555
H10 C8 1_555 1_555
H11 C9 1_555 1_555
H12 C10 1_555 1_555
H13 C12 1_555 1_555
H14 C13 1_555 1_555
H15 C14 1_555 1_555
H16 C15 1_555 1_555
H17 C16 1_555 1_555
H18 C18 1_555 1_555
H19 C19 1_555 1_555
H20 C20 1_555 1_555
H21 C21 1_555 1_555
H22 C22 1_555 1_555
C1B N1 1_555 1_555
H1B N1 1_555 1_555
C2B C1B 1_555 1_555
H2B C1B 1_555 1_555
H3B C1B 1_555 1_555
H4B C2B 1_555 1_555
H5B C2B 1_555 1_555
H6B C2B 1_555 1_555
N2B C4 1_555 1_555
C3B N2B 1_555 1_555
H7B N2B 1_555 1_555
C5B C3B 1_555 1_555
C11B C3B 1_555 1_555
C17B C3B 1_555 1_555
C6B C5B 1_555 1_555
C10B C5B 1_555 1_555
C12B C11B 1_555 1_555
C16B C11B 1_555 1_555
C18B C17B 1_555 1_555
C22B C17B 1_555 1_555
C7B C6B 1_555 1_555
H8B C6B 1_555 1_555
C9B C10B 1_555 1_555
H12B C10B 1_555 1_555
C13B C12B 1_555 1_555
H13B C12B 1_555 1_555
C15B C16B 1_555 1_555
H17B C16B 1_555 1_555
C19B C18B 1_555 1_555
H18B C18B 1_555 1_555
C21B C22B 1_555 1_555
H22B C22B 1_555 1_555
C8B C7B 1_555 1_555
H9B C7B 1_555 1_555
H11B C9B 1_555 1_555
C14B C13B 1_555 1_555
H14B C13B 1_555 1_555
H16B C15B 1_555 1_555
C20B C19B 1_555 1_555
H19B C19B 1_555 1_555
H21B C21B 1_555 1_555
H10B C8B 1_555 1_555
H15B C14B 1_555 1_555
H20B C20B 1_555 1_555
C9 C10 1_555 1_555
C15 C16 1_555 1_555
C21 C22 1_555 1_555
C9B C8B 1_555 1_555
C15B C14B 1_555 1_555
C21B C20B 1_555 1_555

#END
