
#######################################################################
#
#                 Cambridge Crystallographic Data Centre
#                                CCDC 
#
#######################################################################
#
# If this CIF has been generated from an entry in the Cambridge 
# Structural Database, then it will include bibliographic, chemical, 
# crystal, experimental, refinement or atomic coordinate data resulting 
# from the CCDC's data processing and validation procedures.
#
#######################################################################

data_CUCFAH
_chemical_formula_moiety         'C39 H32 N2 O1,C4 H10 O1'
_chemical_name_systematic        "N,N'-Ditritylurea diethyl ether"
_symmetry_cell_setting           monoclinic
_symmetry_space_group_name_H-M   'C 2/c'
_symmetry_Int_Tables_number      15
_space_group_name_Hall           '-C 2yn'
loop_
_symmetry_equiv_pos_site_id
_symmetry_equiv_pos_as_xyz
1 x,y,z
2 1/2+x,1/2+y,z
3 -x,y,1/2-z
4 1/2-x,1/2+y,1/2-z
5 -x,-y,-z
6 1/2-x,1/2-y,-z
7 x,-y,1/2+z
8 1/2+x,1/2-y,1/2+z
_cell_length_a                   16.707(4)
_cell_length_b                   8.793(2)
_cell_length_c                   24.376(5)
_cell_angle_alpha                90
_cell_angle_beta                 106.94(2)
_cell_angle_gamma                90
_cell_volume                     3425.57
_cell_formula_units_Z            4
loop_
_atom_site_label
_atom_site_type_symbol
_atom_site_fract_x
_atom_site_fract_y
_atom_site_fract_z
C1 C 0.4745(2) 0.1663(4) 0.1437(1)
N1 N 0.4993(2) 0.2248(3) 0.2029(1)
C2 C 0.5000 0.1384(6) 0.2500
O1 O 0.5000 -0.0003(4) 0.2500
C3 C 0.3975(2) 0.0629(4) 0.1349(1)
C4 C 0.3885(2) -0.0762(4) 0.1061(2)
C5 C 0.3166(3) -0.1627(5) 0.0974(2)
C6 C 0.2515(3) -0.1151(5) 0.1175(2)
C7 C 0.2599(3) 0.0225(5) 0.1460(2)
C8 C 0.3307(2) 0.1089(5) 0.1543(2)
C9 C 0.4520(2) 0.3078(4) 0.1047(1)
C10 C 0.5095(3) 0.4268(4) 0.1137(2)
C11 C 0.4928(3) 0.5544(5) 0.0775(2)
C12 C 0.4195(3) 0.5593(5) 0.0320(2)
C13 C 0.3625(3) 0.4427(5) 0.0223(2)
C14 C 0.3794(3) 0.3163(5) 0.0588(2)
C15 C 0.5479(2) 0.0852(4) 0.1295(1)
C16 C 0.5534(3) 0.0815(5) 0.0740(2)
C17 C 0.6173(3) 0.0080(6) 0.0597(2)
C18 C 0.6776(3) -0.0646(6) 0.1003(2)
C19 C 0.6730(4) -0.0617(7) 0.1551(2)
C20 C 0.6096(3) 0.0120(5) 0.1701(2)
H1 H 0.500(2) 0.324(3) 0.209(1)
H2 H 0.440(2) -0.116(3) 0.094(1)
H3 H 0.302(3) -0.265(5) 0.071(2)
H4 H 0.195(2) -0.184(5) 0.109(2)
H5 H 0.208(2) 0.057(4) 0.157(1)
H6 H 0.336(2) 0.198(4) 0.177(2)
H7 H 0.569(2) 0.421(4) 0.148(1)
H8 H 0.548(3) 0.641(5) 0.091(2)
H9 H 0.405(2) 0.644(4) 0.000(2)
H10 H 0.302(3) 0.433(5) -0.015(2)
H11 H 0.332(2) 0.235(4) 0.049(1)
H12 H 0.515(2) 0.127(4) 0.049(1)
H13 H 0.635(2) 0.012(5) 0.027(2)
H14 H 0.719(2) -0.122(4) 0.089(2)
H15 H 0.701(3) -0.108(5) 0.177(2)
H16 H 0.602(2) 0.012(4) 0.209(1)
N1B N 0.5007(2) 0.2248(3) 0.2971(1)
C1B C 0.5255(2) 0.1663(4) 0.3563(1)
H1B H 0.500(2) 0.324(3) 0.291(1)
C3B C 0.6025(2) 0.0629(4) 0.3651(1)
C9B C 0.5480(2) 0.3078(4) 0.3953(1)
C15B C 0.4521(2) 0.0852(4) 0.3705(1)
C4B C 0.6115(2) -0.0762(4) 0.3939(2)
C8B C 0.6693(2) 0.1089(5) 0.3457(2)
C10B C 0.4905(3) 0.4268(4) 0.3863(2)
C14B C 0.6206(3) 0.3163(5) 0.4412(2)
C16B C 0.4466(3) 0.0815(5) 0.4260(2)
C20B C 0.3904(3) 0.0120(5) 0.3299(2)
C5B C 0.6834(3) -0.1627(5) 0.4026(2)
H2B H 0.560(2) -0.116(3) 0.406(1)
C7B C 0.7401(3) 0.0225(5) 0.3540(2)
H6B H 0.664(2) 0.198(4) 0.323(2)
C11B C 0.5072(3) 0.5544(5) 0.4225(2)
H7B H 0.431(2) 0.421(4) 0.352(1)
C13B C 0.6375(3) 0.4427(5) 0.4777(2)
H11B H 0.668(2) 0.235(4) 0.451(1)
C17B C 0.3827(3) 0.0080(6) 0.4403(2)
H12B H 0.485(2) 0.127(4) 0.451(1)
C19B C 0.3270(4) -0.0617(7) 0.3449(2)
H16B H 0.398(2) 0.012(4) 0.291(1)
C6B C 0.7485(3) -0.1151(5) 0.3825(2)
H3B H 0.698(3) -0.265(5) 0.429(2)
H5B H 0.792(2) 0.057(4) 0.343(1)
C12B C 0.5805(3) 0.5593(5) 0.4680(2)
H8B H 0.452(3) 0.641(5) 0.409(2)
H10B H 0.698(3) 0.433(5) 0.515(2)
C18B C 0.3224(3) -0.0646(6) 0.3997(2)
H13B H 0.365(2) 0.012(5) 0.473(2)
H15B H 0.299(3) -0.108(5) 0.323(2)
H4B H 0.805(2) -0.184(5) 0.391(2)
H9B H 0.595(2) 0.644(4) 0.500(2)
H14B H 0.281(2) -0.122(4) 0.411(2)
O2 O 0.5000 0.5352(4) 0.2500
C21 C 0.5510(9) 0.641(2) 0.2498(6)
C22 C 0.6363(7) 0.561(1) 0.2764(5)
H17 H 0.545 0.731 0.272
H18 H 0.548 0.674 0.209
H19 H 0.641 0.471 0.253
H20 H 0.637 0.528 0.316
H21 H 0.682 0.633 0.279
C21B C 0.4490(9) 0.641(2) 0.2502(6)
C22B C 0.3637(7) 0.561(1) 0.2236(5)
H17B H 0.455 0.731 0.228
H18B H 0.452 0.674 0.291
H19B H 0.359 0.471 0.247
H20B H 0.363 0.528 0.184
H21B H 0.318 0.633 0.221
loop_
_geom_bond_atom_site_label_1
_geom_bond_atom_site_label_2
_geom_bond_site_symmetry_1
_geom_bond_site_symmetry_2
C1 N1 1_555 1_555
N1 C2 1_555 1_555
C2 O1 1_555 1_555
C3 C1 1_555 1_555
C4 C3 1_555 1_555
C5 C4 1_555 1_555
C6 C5 1_555 1_555
C7 C6 1_555 1_555
C8 C3 1_555 1_555
C9 C1 1_555 1_555
C10 C9 1_555 1_555
C11 C10 1_555 1_555
C12 C11 1_555 1_555
C13 C12 1_555 1_555
C14 C9 1_555 1_555
C15 C1 1_555 1_555
C16 C15 1_555 1_555
C17 C16 1_555 1_555
C18 C17 1_555 1_555
C19 C18 1_555 1_555
C20 C15 1_555 1_555
H1 N1 1_555 1_555
H2 C4 1_555 1_555
H3 C5 1_555 1_555
H4 C6 1_555 1_555
H5 C7 1_555 1_555
H6 C8 1_555 1_555
H7 C10 1_555 1_555
H8 C11 1_555 1_555
H9 C12 1_555 1_555
H10 C13 1_555 1_555
H11 C14 1_555 1_555
H12 C16 1_555 1_555
H13 C17 1_555 1_555
H14 C18 1_555 1_555
H15 C19 1_555 1_555
H16 C20 1_555 1_555
O2 C21 1_555 1_555
C21 C22 1_555 1_555
C22 H19 1_555 1_555
H17 C21 1_555 1_555
H18 C21 1_555 1_555
H20 C22 1_555 1_555
H21 C22 1_555 1_555
N1B C2 1_555 1_555
C1B N1B 1_555 1_555
H1B N1B 1_555 1_555
C3B C1B 1_555 1_555
C9B C1B 1_555 1_555
C15B C1B 1_555 1_555
C4B C3B 1_555 1_555
C8B C3B 1_555 1_555
C10B C9B 1_555 1_555
C14B C9B 1_555 1_555
C16B C15B 1_555 1_555
C20B C15B 1_555 1_555
C5B C4B 1_555 1_555
H2B C4B 1_555 1_555
C7B C8B 1_555 1_555
H6B C8B 1_555 1_555
C11B C10B 1_555 1_555
H7B C10B 1_555 1_555
C13B C14B 1_555 1_555
H11B C14B 1_555 1_555
C17B C16B 1_555 1_555
H12B C16B 1_555 1_555
C19B C20B 1_555 1_555
H16B C20B 1_555 1_555
C6B C5B 1_555 1_555
H3B C5B 1_555 1_555
H5B C7B 1_555 1_555
C12B C11B 1_555 1_555
H8B C11B 1_555 1_555
H10B C13B 1_555 1_555
C18B C17B 1_555 1_555
H13B C17B 1_555 1_555
H15B C19B 1_555 1_555
H4B C6B 1_555 1_555
H9B C12B 1_555 1_555
H14B C18B 1_555 1_555
C21B O2 1_555 1_555
C22B C21B 1_555 1_555
H17B C21B 1_555 1_555
H18B C21B 1_555 1_555
H19B C22B 1_555 1_555
H20B C22B 1_555 1_555
H21B C22B 1_555 1_555
C7 C8 1_555 1_555
C13 C14 1_555 1_555
C19 C20 1_555 1_555
C7B C6B 1_555 1_555
C13B C12B 1_555 1_555
C19B C18B 1_555 1_555

#END
