
#######################################################################
#
#                 Cambridge Crystallographic Data Centre
#                                CCDC 
#
#######################################################################
#
# If this CIF has been generated from an entry in the Cambridge 
# Structural Database, then it will include bibliographic, chemical, 
# crystal, experimental, refinement or atomic coordinate data resulting 
# from the CCDC's data processing and validation procedures.
#
#######################################################################

data_CUCHIT
_chemical_formula_moiety         'C17 H14 F1 N1 O2'
_chemical_name_systematic        N-Benzyl-2-fluoro-1-oxoindane-2-carboxamide
_symmetry_cell_setting           orthorhombic
_symmetry_space_group_name_H-M   'P 21 21 21'
_symmetry_Int_Tables_number      19
_space_group_name_Hall           'P 2ac 2ab'
loop_
_symmetry_equiv_pos_site_id
_symmetry_equiv_pos_as_xyz
1 x,y,z
2 1/2-x,-y,1/2+z
3 -x,1/2+y,1/2-z
4 1/2+x,1/2-y,-z
_cell_length_a                   9.7811(5)
_cell_length_b                   9.9747(7)
_cell_length_c                   14.5229(8)
_cell_angle_alpha                90
_cell_angle_beta                 90
_cell_angle_gamma                90
_cell_volume                     1416.91
_exptl_crystal_colour            colorless
_exptl_crystal_description       block
_cell_formula_units_Z            4
_chemical_properties_physical    Heat-sensitive
loop_
_atom_site_label
_atom_site_type_symbol
_atom_site_fract_x
_atom_site_fract_y
_atom_site_fract_z
C1 C 0.79537(16) 0.18152(19) 1.02790(10)
C2 C 0.80852(16) -0.0662(2) 1.00267(12)
C3 C 0.87015(18) -0.14846(18) 1.07514(12)
C4 C 0.83112(17) -0.09999(18) 1.16072(12)
C5 C 0.72986(15) 0.04839(18) 1.05030(11)
C6 C 0.73470(19) 0.0158(2) 1.15349(12)
H1 H 0.7681 0.0919 1.1884
H2 H 0.6447 -0.0085 1.1761
C7 C 0.80754(16) 0.4258(2) 0.86881(12)
C8 C 0.76493(19) 0.40861(18) 0.96729(12)
H3 H 0.8422 0.4296 1.0066
H4 H 0.6931 0.4727 0.9809
C9 C 0.8787(2) -0.1622(2) 1.23916(13)
H5 H 0.8556 -0.1295 1.2971
C10 C 0.88904(18) 0.3333(2) 0.82493(12)
H6 H 0.9163 0.2564 0.8562
C11 C 0.9608(2) -0.2731(3) 1.23046(16)
H7 H 0.9922 -0.3159 1.2832
C12 C 0.9534(2) -0.2604(2) 1.06624(15)
H8 H 0.9783 -0.2925 1.0085
C13 C 0.9311(2) 0.3531(3) 0.73476(14)
H9 H 0.9867 0.2902 0.7060
C14 C 0.9978(2) -0.3224(3) 1.14546(17)
H10 H 1.0532 -0.3980 1.1416
C15 C 0.7678(2) 0.5378(2) 0.82099(15)
H11 H 0.7125 0.6015 0.8492
C16 C 0.8099(3) 0.5564(3) 0.73050(18)
H12 H 0.7822 0.6325 0.6986
C17 C 0.8905(3) 0.4651(4) 0.68843(16)
H13 H 0.9183 0.4787 0.6279
O1 O 0.91680(12) 0.19619(14) 1.04549(9)
O2 O 0.81267(14) -0.08025(17) 0.91995(9)
F1 F 0.59623(9) 0.04506(11) 1.01685(7)
N1 N 0.71579(15) 0.27416(15) 0.99023(9)
H14 H 0.6330(19) 0.2578(18) 0.9794(10)
loop_
_geom_bond_atom_site_label_1
_geom_bond_atom_site_label_2
_geom_bond_site_symmetry_1
_geom_bond_site_symmetry_2
C1 C5 1_555 1_555
C2 C3 1_555 1_555
C3 C4 1_555 1_555
C4 C6 1_555 1_555
C5 C2 1_555 1_555
C6 C5 1_555 1_555
H1 C6 1_555 1_555
H2 C6 1_555 1_555
C7 C8 1_555 1_555
C8 H3 1_555 1_555
H4 C8 1_555 1_555
C9 C4 1_555 1_555
H5 C9 1_555 1_555
C10 C7 1_555 1_555
H6 C10 1_555 1_555
C11 C9 1_555 1_555
H7 C11 1_555 1_555
C12 C3 1_555 1_555
H8 C12 1_555 1_555
C13 C10 1_555 1_555
H9 C13 1_555 1_555
C14 C11 1_555 1_555
H10 C14 1_555 1_555
C15 C7 1_555 1_555
H11 C15 1_555 1_555
C16 C15 1_555 1_555
H12 C16 1_555 1_555
C17 C13 1_555 1_555
H13 C17 1_555 1_555
O1 C1 1_555 1_555
O2 C2 1_555 1_555
F1 C5 1_555 1_555
N1 C1 1_555 1_555
H14 N1 1_555 1_555
C8 N1 1_555 1_555
C12 C14 1_555 1_555
C16 C17 1_555 1_555

#END
