
#######################################################################
#
#                 Cambridge Crystallographic Data Centre
#                                CCDC 
#
#######################################################################
#
# If this CIF has been generated from an entry in the Cambridge 
# Structural Database, then it will include bibliographic, chemical, 
# crystal, experimental, refinement or atomic coordinate data resulting 
# from the CCDC's data processing and validation procedures.
#
#######################################################################

data_CUCMEU
_chemical_formula_moiety         'C15 H14 O7'
_chemical_name_systematic        
'3,6-Dihydroxy-8-oxo-14,16-dioxatetracyclo[11.2.1.0^1,10^.0^2,7^]hexadeca-2,4,6-triene-10-carboxylic acid'
_symmetry_cell_setting           monoclinic
_symmetry_space_group_name_H-M   'P 21/c'
_symmetry_Int_Tables_number      14
_space_group_name_Hall           '-P 2ybc'
loop_
_symmetry_equiv_pos_site_id
_symmetry_equiv_pos_as_xyz
1 x,y,z
2 -x,1/2+y,1/2-z
3 -x,-y,-z
4 x,1/2-y,1/2+z
_cell_length_a                   7.9326(14)
_cell_length_b                   6.7818(12)
_cell_length_c                   23.881(4)
_cell_angle_alpha                90
_cell_angle_beta                 95.332(3)
_cell_angle_gamma                90
_cell_volume                     1279.17
_exptl_crystal_colour            colorless
_exptl_crystal_description       prism
_cell_formula_units_Z            4
loop_
_atom_site_label
_atom_site_type_symbol
_atom_site_fract_x
_atom_site_fract_y
_atom_site_fract_z
O1 O 0.68177(16) 0.3778(2) 0.80821(6)
O2 O 0.9725(2) 0.2528(2) 0.98847(6)
H1 H 1.0144 0.1653 1.0104
O3 O 0.9026(3) -0.0081(2) 0.93325(6)
O4 O 0.93267(17) 0.2988(2) 0.77678(5)
O5 O 0.60037(19) -0.0766(3) 0.76721(6)
H2 H 0.5205 -0.0912 0.7419
C1 C 0.3790(4) -0.0059(5) 0.91640(16)
C2 C 0.5123(4) 0.1206(4) 0.90449(14)
C3 C 0.5982(2) 0.0892(3) 0.85568(9)
C4 C 0.7475(2) 0.2210(3) 0.84556(7)
C5 C 0.8312(2) 0.4632(3) 0.78907(8)
H3 H 0.8016 0.5429 0.7543
C6 C 0.9159(2) 0.5921(3) 0.83520(8)
H4 H 0.8366 0.6965 0.8451
H5 H 1.0168 0.6565 0.8219
C7 C 0.9040(3) 0.1699(3) 0.94201(8)
C8 C 0.8261(2) 0.3215(3) 0.90049(8)
C9 C 0.8913(2) 0.1372(3) 0.81266(7)
H6 H 0.9906 0.0990 0.8386
H7 H 0.8519 0.0209 0.7901
C10 C 0.9685(2) 0.4665(3) 0.88689(7)
H8 H 0.9968 0.5539 0.9196
H9 H 1.0713 0.3905 0.8803
C11 C 0.5359(2) -0.0550(3) 0.81825(8)
C12 C 0.4055(2) -0.1820(3) 0.83216(8)
H10 H 0.3694 -0.2857 0.8071
C13 C 0.3299(3) -0.1595(3) 0.88069(10)
H11 H 0.2444 -0.2487 0.8899
O6 O 0.3317(4) -0.0208(5) 0.97429(13)
H12 H 0.3665 0.0792 0.9926
O7 O 0.5179(4) 0.2780(5) 0.99748(11)
C14 C 0.7041(10) 0.4154(13) 0.9343(3)
H13 H 0.6428 0.5208 0.9121
H14 H 0.7647 0.4763 0.9681
C15 C 0.5790(5) 0.2644(6) 0.95202(15)
O8? O 0.4035(4) 0.3900(5) 0.95508(14)
C16? C 0.5132(5) 0.3281(6) 0.92614(17)
C17? C 0.6693(11) 0.4476(13) 0.9217(4)
H15? H 0.7053 0.5055 0.9590
H16? H 0.6422 0.5577 0.8952
O9? O 0.2543(4) 0.0620(5) 0.94836(14)
H17? H 0.1654 -0.0037 0.9407
loop_
_geom_bond_atom_site_label_1
_geom_bond_atom_site_label_2
_geom_bond_site_symmetry_1
_geom_bond_site_symmetry_2
O1 C4 1_555 1_555
O2 H1 1_555 1_555
O3 C7 1_555 1_555
O4 C5 1_555 1_555
O5 H2 1_555 1_555
C1 C2 1_555 1_555
C2 C3 1_555 1_555
C3 C4 1_555 1_555
C4 C8 1_555 1_555
C5 O1 1_555 1_555
H3 C5 1_555 1_555
C6 C5 1_555 1_555
H4 C6 1_555 1_555
H5 C6 1_555 1_555
C7 O2 1_555 1_555
C8 C7 1_555 1_555
C9 O4 1_555 1_555
H6 C9 1_555 1_555
H7 C9 1_555 1_555
C10 C6 1_555 1_555
H8 C10 1_555 1_555
H9 C10 1_555 1_555
C11 O5 1_555 1_555
C12 C11 1_555 1_555
H10 C12 1_555 1_555
C13 C1 1_555 1_555
H11 C13 1_555 1_555
O6 C1 1_555 1_555
H12 O6 1_555 1_555
O7 C15 1_555 1_555
C14 C8 1_555 1_555
H13 C14 1_555 1_555
H14 C14 1_555 1_555
C15 C2 1_555 1_555
C3 C11 1_555 1_555
C4 C9 1_555 1_555
C8 C10 1_555 1_555
C12 C13 1_555 1_555
C14 C15 1_555 1_555

#END
