
#######################################################################
#
#                 Cambridge Crystallographic Data Centre
#                                CCDC 
#
#######################################################################
#
# If this CIF has been generated from an entry in the Cambridge 
# Structural Database, then it will include bibliographic, chemical, 
# crystal, experimental, refinement or atomic coordinate data resulting 
# from the CCDC's data processing and validation procedures.
#
#######################################################################

data_CUCPEX
_chemical_formula_moiety         'C28 H30 N2 O8 S1'
_chemical_name_systematic        
'Ethyl (2-(3,4-dimethoxyphenyl)-1-((4-methylphenyl)sulfonyl)-3-nitro-1,2,3,4-tetrahydroquinolin-4-yl)acetate'
_symmetry_cell_setting           orthorhombic
_symmetry_space_group_name_H-M   'P 21 21 21'
_symmetry_Int_Tables_number      19
_space_group_name_Hall           'P 2ac 2ab'
loop_
_symmetry_equiv_pos_site_id
_symmetry_equiv_pos_as_xyz
1 x,y,z
2 1/2+x,1/2-y,-z
3 -x,1/2+y,1/2-z
4 1/2-x,-y,1/2+z
_cell_length_a                   9.2028(1)
_cell_length_b                   13.6648(2)
_cell_length_c                   20.9662(3)
_cell_angle_alpha                90
_cell_angle_beta                 90
_cell_angle_gamma                90
_cell_volume                     2636.59
_exptl_crystal_colour            silver
_exptl_crystal_description       Block
_cell_formula_units_Z            4
loop_
_atom_site_label
_atom_site_type_symbol
_atom_site_fract_x
_atom_site_fract_y
_atom_site_fract_z
S1 S 0.29915(4) 0.38137(3) 0.271908(17)
O1 O 0.38340(12) 0.30733(8) 0.30326(5)
O2 O 0.16521(11) 0.41424(8) 0.29882(5)
O3 O 0.64844(12) 0.47623(9) 0.48539(5)
O4 O 0.91909(12) 0.52190(9) 0.46959(5)
O5 O 0.65138(15) 0.39588(9) 0.12684(6)
O6 O 0.82272(12) 0.50174(11) 0.14132(6)
O7 O 0.45809(12) 0.70531(9) 0.00265(5)
O8 O 0.28631(12) 0.60852(9) 0.04598(5)
N1 N 0.40468(12) 0.47895(9) 0.26813(6)
N2 N 0.69923(15) 0.47101(10) 0.15014(6)
C1 C 0.55929(14) 0.46724(11) 0.25162(6)
H1 H 0.5748 0.3972 0.2396
C2 C 0.59931(15) 0.53066(11) 0.19270(6)
H2 H 0.6532 0.5899 0.2077
C3 C 0.46760(15) 0.56422(11) 0.15301(6)
H3 H 0.4154 0.5052 0.1366
C4 C 0.36857(14) 0.61853(11) 0.19909(7)
C5 C 0.30690(17) 0.71001(10) 0.18829(7)
H4 H 0.3250 0.7430 0.1492
C6 C 0.21901(17) 0.75356(11) 0.23414(8)
H5 H 0.1736 0.8145 0.2253
C7 C 0.19704(18) 0.70862(11) 0.29297(7)
H6 H 0.1388 0.7394 0.3245
C8 C 0.26077(15) 0.61856(12) 0.30510(7)
H7 H 0.2492 0.5881 0.3455
C9 C 0.34164(15) 0.57342(10) 0.25755(7)
C10 C 0.26504(16) 0.34043(11) 0.19382(7)
C11 C 0.35752(18) 0.27280(12) 0.16596(8)
H8 H 0.4376 0.2470 0.1891
C12 C 0.3310(2) 0.24335(13) 0.10359(9)
H9 H 0.3943 0.1974 0.0840
C13 C 0.2134(2) 0.27990(13) 0.06930(8)
C14 C 0.1205(2) 0.34588(13) 0.09877(8)
H10 H 0.0385 0.3700 0.0761
C15 C 0.14525(17) 0.37725(12) 0.16080(8)
H11 H 0.0817 0.4230 0.1804
C16 C 0.1893(3) 0.24743(18) 0.00097(10)
H12 H 0.1024 0.2796 -0.0161
H13 H 0.1760 0.1763 -0.0003
H14 H 0.2739 0.2654 -0.0249
C17 C 0.65654(15) 0.48900(10) 0.30902(6)
C18 C 0.60343(16) 0.47359(11) 0.37097(7)
H15 H 0.5051 0.4545 0.3769
C19 C 0.69270(17) 0.48592(11) 0.42345(6)
C20 C 0.83849(16) 0.51249(11) 0.41500(7)
C21 C 0.89091(16) 0.52778(11) 0.35403(7)
H16 H 0.9896 0.5460 0.3480
C22 C 0.80004(16) 0.51670(10) 0.30143(7)
H17 H 0.8371 0.5283 0.2598
C23 C 0.49850(17) 0.45475(12) 0.49544(7)
H18 H 0.4795 0.4492 0.5413
H19 H 0.4741 0.3928 0.4744
H20 H 0.4389 0.5074 0.4775
C24 C 1.06210(17) 0.56003(13) 0.46196(8)
H21 H 1.1099 0.5637 0.5037
H22 H 1.0568 0.6256 0.4432
H23 H 1.1180 0.5170 0.4338
C25 C 0.52065(15) 0.62483(12) 0.09632(6)
H24 H 0.5579 0.6882 0.1123
H25 H 0.6026 0.5901 0.0758
C26 C 0.40531(17) 0.64441(11) 0.04677(7)
C27 C 0.3643(2) 0.73065(14) -0.05084(8)
H26 H 0.3048 0.7888 -0.0404
H27 H 0.2983 0.6756 -0.0610
C28 C 0.4628(2) 0.75200(13) -0.10659(8)
H28 H 0.4040 0.7695 -0.1439
H29 H 0.5210 0.6938 -0.1164
H30 H 0.5275 0.8065 -0.0958
loop_
_geom_bond_atom_site_label_1
_geom_bond_atom_site_label_2
_geom_bond_site_symmetry_1
_geom_bond_site_symmetry_2
S1 O1 1_555 1_555
O2 S1 1_555 1_555
O3 C19 1_555 1_555
O4 C20 1_555 1_555
O5 N2 1_555 1_555
O6 N2 1_555 1_555
O7 C26 1_555 1_555
O8 C26 1_555 1_555
N1 S1 1_555 1_555
N2 C2 1_555 1_555
C1 N1 1_555 1_555
H1 C1 1_555 1_555
C2 C1 1_555 1_555
H2 C2 1_555 1_555
C3 C2 1_555 1_555
H3 C3 1_555 1_555
C4 C3 1_555 1_555
C5 C4 1_555 1_555
H4 C5 1_555 1_555
C6 C5 1_555 1_555
H5 C6 1_555 1_555
C7 C6 1_555 1_555
H6 C7 1_555 1_555
C8 C7 1_555 1_555
H7 C8 1_555 1_555
C9 N1 1_555 1_555
C10 S1 1_555 1_555
C11 C10 1_555 1_555
H8 C11 1_555 1_555
C12 C11 1_555 1_555
H9 C12 1_555 1_555
C13 C12 1_555 1_555
C14 C13 1_555 1_555
H10 C14 1_555 1_555
C15 C10 1_555 1_555
H11 C15 1_555 1_555
C16 C13 1_555 1_555
H12 C16 1_555 1_555
H13 C16 1_555 1_555
H14 C16 1_555 1_555
C17 C1 1_555 1_555
C18 C17 1_555 1_555
H15 C18 1_555 1_555
C19 C18 1_555 1_555
C20 C19 1_555 1_555
C21 C20 1_555 1_555
H16 C21 1_555 1_555
C22 C17 1_555 1_555
H17 C22 1_555 1_555
C23 O3 1_555 1_555
H18 C23 1_555 1_555
H19 C23 1_555 1_555
H20 C23 1_555 1_555
C24 O4 1_555 1_555
H21 C24 1_555 1_555
H22 C24 1_555 1_555
H23 C24 1_555 1_555
C25 C3 1_555 1_555
H24 C25 1_555 1_555
H25 C25 1_555 1_555
C26 C25 1_555 1_555
C27 O7 1_555 1_555
H26 C27 1_555 1_555
H27 C27 1_555 1_555
C28 C27 1_555 1_555
H28 C28 1_555 1_555
H29 C28 1_555 1_555
H30 C28 1_555 1_555
C4 C9 1_555 1_555
C8 C9 1_555 1_555
C14 C15 1_555 1_555
C21 C22 1_555 1_555

#END
