
#######################################################################
#
#                 Cambridge Crystallographic Data Centre
#                                CCDC 
#
#######################################################################
#
# If this CIF has been generated from an entry in the Cambridge 
# Structural Database, then it will include bibliographic, chemical, 
# crystal, experimental, refinement or atomic coordinate data resulting 
# from the CCDC's data processing and validation procedures.
#
#######################################################################

data_CUCPUN
_chemical_formula_moiety         'C25 H18 Cl1 F3 O2 S1'
_chemical_name_systematic        
1-(chloro(4-methoxyphenyl)methylene)-2-(4-methoxyphenyl)-3-((trifluoromethyl)sulfanyl)-1H-indene
_symmetry_cell_setting           triclinic
_symmetry_space_group_name_H-M   'P -1'
_symmetry_Int_Tables_number      2
_space_group_name_Hall           '-P 1'
loop_
_symmetry_equiv_pos_site_id
_symmetry_equiv_pos_as_xyz
1 x,y,z
2 -x,-y,-z
_cell_length_a                   9.749(4)
_cell_length_b                   10.699(4)
_cell_length_c                   12.123(5)
_cell_angle_alpha                67.883(5)
_cell_angle_beta                 88.319(5)
_cell_angle_gamma                74.890(5)
_cell_volume                     1127.59
_exptl_crystal_colour            yellow
_exptl_crystal_description       block
_cell_formula_units_Z            2
loop_
_atom_site_label
_atom_site_type_symbol
_atom_site_fract_x
_atom_site_fract_y
_atom_site_fract_z
Cl1 Cl 0.65509(7) 0.36682(7) 0.15326(6)
S1 S 0.32159(8) 0.26493(8) -0.26447(6)
F1 F 0.2981(2) 0.5322(2) -0.39304(18)
F2 F 0.1216(2) 0.4522(2) -0.41168(17)
F3 F 0.1541(2) 0.4980(2) -0.25763(19)
O1 O 0.2341(3) 0.0298(3) 0.50534(19)
O2 O -0.0501(2) 0.0992(2) 0.21188(19)
C1 C 0.5347(2) 0.2775(2) 0.0104(2)
C2 C 0.4146(3) 0.2505(2) -0.0430(2)
C3 C 0.4379(3) 0.2764(3) -0.1611(2)
C4 C 0.5729(3) 0.3131(3) -0.1903(2)
C5 C 0.6433(3) 0.3385(3) -0.2946(2)
H1 H 0.6026 0.3385 -0.3630
C6 C 0.7764(3) 0.3642(3) -0.2943(3)
H2 H 0.8245 0.3829 -0.3636
C7 C 0.8373(3) 0.3620(3) -0.1920(3)
H3 H 0.9271 0.3770 -0.1928
C8 C 0.7670(3) 0.3377(3) -0.0877(3)
H4 H 0.8094 0.3367 -0.0195
C9 C 0.6319(3) 0.3150(3) -0.0862(2)
C10 C 0.5436(2) 0.2776(2) 0.1226(2)
C11 C 0.4691(3) 0.2103(3) 0.2257(2)
C12 C 0.4592(3) 0.0749(3) 0.2518(2)
H5 H 0.5045 0.0264 0.2056
C13 C 0.3835(3) 0.0102(3) 0.3449(2)
H6 H 0.3783 -0.0805 0.3606
C14 C 0.3158(3) 0.0817(3) 0.4143(2)
C15 C 0.3299(3) 0.2145(3) 0.3929(3)
H7 H 0.2868 0.2614 0.4411
C16 C 0.4065(3) 0.2781(3) 0.3016(2)
H8 H 0.4170 0.3660 0.2900
C17 C 0.2087(4) -0.1028(4) 0.5245(3)
H9 H 0.1627 -0.0973 0.4532
H10 H 0.1485 -0.1258 0.5892
H11 H 0.2977 -0.1739 0.5439
C18 C 0.2878(2) 0.2121(2) 0.0165(2)
C19 C 0.2607(3) 0.0862(3) 0.0309(2)
H12 H 0.3193 0.0281 -0.0024
C20 C 0.1473(3) 0.0444(3) 0.0943(2)
H13 H 0.1310 -0.0407 0.1034
C21 C 0.0600(3) 0.1312(3) 0.1432(2)
C22 C 0.0830(3) 0.2605(3) 0.1262(2)
H14 H 0.0224 0.3198 0.1573
C23 C 0.1950(3) 0.3009(3) 0.0637(2)
H15 H 0.2093 0.3873 0.0528
C24 C -0.0903(4) -0.0224(4) 0.2232(3)
H16 H -0.1127 -0.0188 0.1453
H17 H -0.1723 -0.0273 0.2687
H18 H -0.0130 -0.1037 0.2632
C25 C 0.2215(3) 0.4450(3) -0.3341(3)
loop_
_geom_bond_atom_site_label_1
_geom_bond_atom_site_label_2
_geom_bond_site_symmetry_1
_geom_bond_site_symmetry_2
Cl1 C10 1_555 1_555
S1 C3 1_555 1_555
F1 C25 1_555 1_555
F2 C25 1_555 1_555
F3 C25 1_555 1_555
O1 C14 1_555 1_555
O2 C21 1_555 1_555
C1 C2 1_555 1_555
C2 C3 1_555 1_555
C3 C4 1_555 1_555
C4 C5 1_555 1_555
C5 H1 1_555 1_555
C6 C5 1_555 1_555
H2 C6 1_555 1_555
C7 C6 1_555 1_555
H3 C7 1_555 1_555
C8 C7 1_555 1_555
H4 C8 1_555 1_555
C9 C1 1_555 1_555
C10 C1 1_555 1_555
C11 C10 1_555 1_555
C12 C11 1_555 1_555
H5 C12 1_555 1_555
C13 C12 1_555 1_555
H6 C13 1_555 1_555
C14 C13 1_555 1_555
C15 C14 1_555 1_555
H7 C15 1_555 1_555
C16 C11 1_555 1_555
H8 C16 1_555 1_555
C17 O1 1_555 1_555
H9 C17 1_555 1_555
H10 C17 1_555 1_555
H11 C17 1_555 1_555
C18 C2 1_555 1_555
C19 C18 1_555 1_555
H12 C19 1_555 1_555
C20 C19 1_555 1_555
H13 C20 1_555 1_555
C21 C20 1_555 1_555
C22 C21 1_555 1_555
H14 C22 1_555 1_555
C23 C18 1_555 1_555
H15 C23 1_555 1_555
C24 O2 1_555 1_555
H16 C24 1_555 1_555
H17 C24 1_555 1_555
H18 C24 1_555 1_555
C25 S1 1_555 1_555
C4 C9 1_555 1_555
C8 C9 1_555 1_555
C15 C16 1_555 1_555
C22 C23 1_555 1_555

#END
