
#######################################################################
#
#                 Cambridge Crystallographic Data Centre
#                                CCDC 
#
#######################################################################
#
# If this CIF has been generated from an entry in the Cambridge 
# Structural Database, then it will include bibliographic, chemical, 
# crystal, experimental, refinement or atomic coordinate data resulting 
# from the CCDC's data processing and validation procedures.
#
#######################################################################

data_CUCQAU
_chemical_formula_moiety         'C25 H16 Cl1 F3 O2 S1'
_chemical_name_systematic        
'methyl 4-(chloro(2-phenyl-3-((trifluoromethyl)sulfanyl)-1H-inden-1-ylidene)methyl)benzoate'
_symmetry_cell_setting           monoclinic
_symmetry_space_group_name_H-M   'P 21/c'
_symmetry_Int_Tables_number      14
_space_group_name_Hall           '-P 2ybc'
loop_
_symmetry_equiv_pos_site_id
_symmetry_equiv_pos_as_xyz
1 x,y,z
2 -x,1/2+y,1/2-z
3 -x,-y,-z
4 x,1/2-y,1/2+z
_cell_length_a                   17.260(2)
_cell_length_b                   7.7963(10)
_cell_length_c                   15.824(2)
_cell_angle_alpha                90
_cell_angle_beta                 96.502(2)
_cell_angle_gamma                90
_cell_volume                     2115.65
_exptl_crystal_colour            red
_exptl_crystal_description       polyhedral
_cell_formula_units_Z            4
loop_
_atom_site_label
_atom_site_type_symbol
_atom_site_fract_x
_atom_site_fract_y
_atom_site_fract_z
S1 S 0.22125(2) 0.28398(6) 1.17690(3)
Cl1 Cl 0.08516(2) 0.87235(5) 0.89005(3)
O1 O 0.50882(7) 0.93926(19) 0.86304(8)
O2 O 0.45610(9) 0.9001(3) 0.72909(9)
F1 F 0.21536(8) -0.04104(16) 1.15917(10)
F2 F 0.10377(7) 0.07863(17) 1.12863(10)
F3 F 0.18818(10) 0.09309(16) 1.04220(8)
C1 C 0.14988(8) 0.64450(18) 1.00345(9)
C2 C 0.20677(8) 0.51429(19) 1.04158(9)
C3 C 0.17688(9) 0.4439(2) 1.10946(9)
C4 C 0.10018(9) 0.5160(2) 1.11902(9)
C5 C 0.04925(10) 0.4797(2) 1.17817(10)
H1 H 0.0625 0.3989 1.2223
C6 C -0.02204(10) 0.5653(2) 1.17100(11)
H2 H -0.0584 0.5413 1.2102
C7 C -0.04026(9) 0.6846(2) 1.10755(12)
H3 H -0.0889 0.7428 1.1044
C8 C 0.01098(9) 0.7218(2) 1.04790(11)
H4 H -0.0023 0.8045 1.0046
C9 C 0.08197(8) 0.63563(19) 1.05307(10)
C10 C 0.16199(8) 0.75218(19) 0.93928(10)
C11 C 0.23600(8) 0.79012(19) 0.90470(9)
C12 C 0.30319(9) 0.8235(2) 0.95987(10)
H5 H 0.3011 0.8198 1.0196
C13 C 0.37291(9) 0.8621(2) 0.92847(10)
H6 H 0.4183 0.8857 0.9665
C14 C 0.37623(9) 0.8661(2) 0.84105(10)
C15 C 0.30905(10) 0.8343(2) 0.78584(10)
H7 H 0.3113 0.8369 0.7262
C16 C 0.23931(9) 0.7992(2) 0.81693(10)
H8 H 0.1935 0.7811 0.7787
C17 C 0.44999(10) 0.9041(3) 0.80393(11)
C18 C 0.58379(11) 0.9690(4) 0.83351(15)
H9 H 0.5936 0.8806 0.7920
H10 H 0.6246 0.9643 0.8818
H11 H 0.5841 1.0823 0.8067
C19 C 0.27758(8) 0.45409(19) 1.00556(9)
C20 C 0.34987(9) 0.4509(2) 1.05469(10)
H12 H 0.3543 0.4901 1.1119
C21 C 0.41536(9) 0.3909(2) 1.02078(12)
H13 H 0.4644 0.3898 1.0548
C22 C 0.40976(10) 0.3329(2) 0.93795(12)
H14 H 0.4548 0.2927 0.9147
C23 C 0.33796(10) 0.3337(2) 0.88901(11)
H15 H 0.3337 0.2921 0.8322
C24 C 0.27236(9) 0.3944(2) 0.92200(10)
H16 H 0.2235 0.3954 0.8876
C25 C 0.17974(10) 0.0973(2) 1.12391(11)
loop_
_geom_bond_atom_site_label_1
_geom_bond_atom_site_label_2
_geom_bond_site_symmetry_1
_geom_bond_site_symmetry_2
S1 C3 1_555 1_555
Cl1 C10 1_555 1_555
O1 C17 1_555 1_555
O2 C17 1_555 1_555
F1 C25 1_555 1_555
F2 C25 1_555 1_555
F3 C25 1_555 1_555
C1 C2 1_555 1_555
C2 C3 1_555 1_555
C3 C4 1_555 1_555
C4 C5 1_555 1_555
C5 H1 1_555 1_555
C6 C5 1_555 1_555
H2 C6 1_555 1_555
C7 C6 1_555 1_555
H3 C7 1_555 1_555
C8 C7 1_555 1_555
H4 C8 1_555 1_555
C9 C1 1_555 1_555
C10 C1 1_555 1_555
C11 C10 1_555 1_555
C12 C11 1_555 1_555
H5 C12 1_555 1_555
C13 C12 1_555 1_555
H6 C13 1_555 1_555
C14 C13 1_555 1_555
C15 C14 1_555 1_555
H7 C15 1_555 1_555
C16 C11 1_555 1_555
H8 C16 1_555 1_555
C17 C14 1_555 1_555
C18 O1 1_555 1_555
H9 C18 1_555 1_555
H10 C18 1_555 1_555
H11 C18 1_555 1_555
C19 C2 1_555 1_555
C20 C19 1_555 1_555
H12 C20 1_555 1_555
C21 C20 1_555 1_555
H13 C21 1_555 1_555
C22 C21 1_555 1_555
H14 C22 1_555 1_555
C23 C22 1_555 1_555
H15 C23 1_555 1_555
C24 C19 1_555 1_555
H16 C24 1_555 1_555
C25 S1 1_555 1_555
C4 C9 1_555 1_555
C8 C9 1_555 1_555
C15 C16 1_555 1_555
C23 C24 1_555 1_555

#END
