
#######################################################################
#
#                 Cambridge Crystallographic Data Centre
#                                CCDC 
#
#######################################################################
#
# If this CIF has been generated from an entry in the Cambridge 
# Structural Database, then it will include bibliographic, chemical, 
# crystal, experimental, refinement or atomic coordinate data resulting 
# from the CCDC's data processing and validation procedures.
#
#######################################################################

data_CUCSOJ
_chemical_name_common            
1-(10,10-Dimethyl-3,3-dioxo-3-thia-4-azatricyclo[5.2.1.0$1,5!]dec-4-yl)-3-methylbutan-1-one
_chemical_formula_moiety         'C15 H25 N1 O3 S1'
_chemical_name_systematic        (R)-(-)-N-Isovalerylcamphorsultam
_symmetry_cell_setting           tetragonal
_symmetry_space_group_name_H-M   'P 41'
_symmetry_Int_Tables_number      76
_space_group_name_Hall           'P 4w'
loop_
_symmetry_equiv_pos_site_id
_symmetry_equiv_pos_as_xyz
1 x,y,z
2 -x,-y,1/2+z
3 -y,x,1/4+z
4 y,-x,3/4+z
_cell_length_a                   7.9038(7)
_cell_length_b                   7.9038(7)
_cell_length_c                   50.228(8)
_cell_angle_alpha                90
_cell_angle_beta                 90
_cell_angle_gamma                90
_cell_volume                     3137.75
_exptl_crystal_colour            colorless
_exptl_crystal_description       prism
_chemical_melting_point          '403-406 K'
_cell_formula_units_Z            8
_exptl_crystal_recrystallization_method toluene
loop_
_atom_site_label
_atom_site_type_symbol
_atom_site_fract_x
_atom_site_fract_y
_atom_site_fract_z
S1 S 0.78736(8) 0.43930(9) 0.123672(15)
N1 N 0.9609(3) 0.3737(3) 0.14051(4)
O1 O 0.7275(3) 0.5927(3) 0.13478(6)
O2 O 0.8219(3) 0.4381(3) 0.09586(5)
O3 O 1.2414(2) 0.3426(3) 0.14096(5)
C1 C 1.3005(4) 0.6926(4) 0.13051(7)
H1 H 1.3948 0.6184 0.1264
C2 C 1.1411(3) 0.6024(4) 0.12208(7)
H2 H 1.0441 0.6718 0.1266
H3 H 1.1422 0.5881 0.1029
C3 C 1.1225(3) 0.4323(4) 0.13503(6)
C4 C 0.6596(3) 0.2646(4) 0.13288(6)
H4 H 0.5484 0.3030 0.1384
H5 H 0.6464 0.1879 0.1179
C5 C 0.7480(3) 0.1757(3) 0.15582(5)
C6 C 0.7286(4) -0.0169(4) 0.15733(7)
H6 H 0.7891 -0.0725 0.1430
H7 H 0.6105 -0.0501 0.1567
C7 C 0.8086(5) -0.0579(4) 0.18471(7)
H8 H 0.7287 -0.1159 0.1962
H9 H 0.9090 -0.1275 0.1827
C8 C 0.8533(4) 0.1164(4) 0.19581(6)
H10 H 0.8647 0.1195 0.2152
C9 C 1.0083(3) 0.1827(4) 0.18085(6)
H11 H 1.1005 0.1018 0.1814
H12 H 1.0466 0.2896 0.1881
C10 C 0.9399(3) 0.2045(3) 0.15241(5)
H13 H 0.9879 0.1179 0.1407
C11 C 1.3250(5) 0.8542(6) 0.11444(10)
H14 H 1.2336 0.9308 0.1180
H15 H 1.3266 0.8274 0.0958
H16 H 1.4302 0.9062 0.1193
C12 C 1.3038(6) 0.7248(6) 0.15998(8)
H17 H 1.2079 0.7925 0.1649
H18 H 1.4060 0.7835 0.1646
H19 H 1.2996 0.6189 0.1693
C13 C 0.7110(3) 0.2307(4) 0.18487(6)
C14 C 0.7325(5) 0.4182(4) 0.19173(7)
H20 H 0.7242 0.4330 0.2107
H21 H 0.6455 0.4828 0.1831
H22 H 0.8413 0.4564 0.1857
C15 C 0.5316(4) 0.1818(5) 0.19420(7)
H23 H 0.5200 0.2063 0.2128
H24 H 0.5137 0.0631 0.1913
H25 H 0.4494 0.2455 0.1843
S2 S 0.90760(10) 0.85718(10) 0.063320(15)
N2 N 0.8697(3) 1.0177(3) 0.04197(5)
O4 O 1.0708(3) 0.7888(3) 0.05816(6)
O5 O 0.8725(4) 0.9123(3) 0.08967(5)
O6 O 0.8603(3) 1.2988(3) 0.03577(5)
C16 C 1.2148(6) 1.3263(6) 0.05161(9)
H26 H 1.1589 1.4337 0.0547
C17 C 1.0962(5) 1.1959(5) 0.06127(8)
H27 H 1.0676 1.2212 0.0796
H28 H 1.1537 1.0875 0.0611
C18 C 0.9354(4) 1.1795(4) 0.04570(7)
C19 C 0.7438(4) 0.7217(4) 0.05125(6)
H29 H 0.7895 0.6114 0.0468
H30 H 0.6569 0.7072 0.0647
C20 C 0.6707(4) 0.8062(3) 0.02665(6)
C21 C 0.4805(4) 0.7925(4) 0.02243(8)
H31 H 0.4192 0.8602 0.0353
H32 H 0.4429 0.6760 0.0237
C22 C 0.4565(5) 0.8626(5) -0.00620(8)
H33 H 0.4012 0.7803 -0.0176
H34 H 0.3905 0.9661 -0.0061
C23 C 0.6380(5) 0.8958(4) -0.01530(7)
H35 H 0.6520 0.8977 -0.0347
C24 C 0.7020(4) 1.0534(4) -0.00152(6)
H36 H 0.6254 1.1479 -0.0041
H37 H 0.8138 1.0845 -0.0078
C25 C 0.7064(3) 0.9970(3) 0.02803(6)
H38 H 0.6164 1.0541 0.0380
C26 C 1.3725(5) 1.3300(7) 0.06852(10)
H39 H 1.3431 1.3603 0.0864
H40 H 1.4501 1.4119 0.0615
H41 H 1.4245 1.2203 0.0684
C27 C 1.2521(7) 1.3223(8) 0.02283(10)
H42 H 1.3430 1.3991 0.0190
H43 H 1.1532 1.3554 0.0130
H44 H 1.2844 1.2098 0.0178
C28 C 0.7403(4) 0.7537(4) -0.00121(6)
C29 C 0.9302(5) 0.7688(5) -0.00515(8)
H45 H 0.9861 0.6782 0.0040
H46 H 0.9685 0.8752 0.0018
H47 H 0.9560 0.7627 -0.0238
C30 C 0.6873(6) 0.5750(4) -0.00991(8)
H48 H 0.7228 0.5560 -0.0279
H49 H 0.5666 0.5645 -0.0088
H50 H 0.7396 0.4930 0.0015
loop_
_geom_bond_atom_site_label_1
_geom_bond_atom_site_label_2
_geom_bond_site_symmetry_1
_geom_bond_site_symmetry_2
S1 N1 1_555 1_555
N1 C3 1_555 1_555
O1 S1 1_555 1_555
O2 S1 1_555 1_555
O3 C3 1_555 1_555
C1 H1 1_555 1_555
C2 C1 1_555 1_555
H2 C2 1_555 1_555
H3 C2 1_555 1_555
C3 C2 1_555 1_555
C4 S1 1_555 1_555
H4 C4 1_555 1_555
H5 C4 1_555 1_555
C5 C4 1_555 1_555
C6 C5 1_555 1_555
H6 C6 1_555 1_555
H7 C6 1_555 1_555
C7 C6 1_555 1_555
H8 C7 1_555 1_555
H9 C7 1_555 1_555
C8 C7 1_555 1_555
H10 C8 1_555 1_555
C9 C8 1_555 1_555
H11 C9 1_555 1_555
H12 C9 1_555 1_555
C10 N1 1_555 1_555
H13 C10 1_555 1_555
C11 C1 1_555 1_555
H14 C11 1_555 1_555
H15 C11 1_555 1_555
H16 C11 1_555 1_555
C12 C1 1_555 1_555
H17 C12 1_555 1_555
H18 C12 1_555 1_555
H19 C12 1_555 1_555
C13 C5 1_555 1_555
C14 C13 1_555 1_555
H20 C14 1_555 1_555
H21 C14 1_555 1_555
H22 C14 1_555 1_555
C15 C13 1_555 1_555
H23 C15 1_555 1_555
H24 C15 1_555 1_555
H25 C15 1_555 1_555
S2 N2 1_555 1_555
N2 C18 1_555 1_555
O4 S2 1_555 1_555
O5 S2 1_555 1_555
O6 C18 1_555 1_555
C16 H26 1_555 1_555
C17 C16 1_555 1_555
H27 C17 1_555 1_555
H28 C17 1_555 1_555
C18 C17 1_555 1_555
C19 S2 1_555 1_555
H29 C19 1_555 1_555
H30 C19 1_555 1_555
C20 C19 1_555 1_555
C21 C20 1_555 1_555
H31 C21 1_555 1_555
H32 C21 1_555 1_555
C22 C21 1_555 1_555
H33 C22 1_555 1_555
H34 C22 1_555 1_555
C23 C22 1_555 1_555
H35 C23 1_555 1_555
C24 C23 1_555 1_555
H36 C24 1_555 1_555
H37 C24 1_555 1_555
C25 N2 1_555 1_555
H38 C25 1_555 1_555
C26 C16 1_555 1_555
H39 C26 1_555 1_555
H40 C26 1_555 1_555
H41 C26 1_555 1_555
C27 C16 1_555 1_555
H42 C27 1_555 1_555
H43 C27 1_555 1_555
H44 C27 1_555 1_555
C28 C20 1_555 1_555
C29 C28 1_555 1_555
H45 C29 1_555 1_555
H46 C29 1_555 1_555
H47 C29 1_555 1_555
C30 C28 1_555 1_555
H48 C30 1_555 1_555
H49 C30 1_555 1_555
H50 C30 1_555 1_555
C5 C10 1_555 1_555
C8 C13 1_555 1_555
C9 C10 1_555 1_555
C20 C25 1_555 1_555
C23 C28 1_555 1_555
C24 C25 1_555 1_555

#END
