
#######################################################################
#
#                 Cambridge Crystallographic Data Centre
#                                CCDC 
#
#######################################################################
#
# If this CIF has been generated from an entry in the Cambridge 
# Structural Database, then it will include bibliographic, chemical, 
# crystal, experimental, refinement or atomic coordinate data resulting 
# from the CCDC's data processing and validation procedures.
#
#######################################################################

data_CUCSUP
_chemical_name_common            
'Ethyl 6-methyl-2-(4-methylphenyl)pyrazolo[1,5-a]pyridine-5-carboxylate'
_chemical_formula_moiety         'C18 H18 N2 O2'
_chemical_name_systematic        
'Ethyl 6-methyl-2-p-tolylpyrazolo[1,5-a]pyridine-5-carboxylate'
_symmetry_cell_setting           monoclinic
_symmetry_space_group_name_H-M   'P 21/c'
_symmetry_Int_Tables_number      14
_space_group_name_Hall           '-P 2ybc'
loop_
_symmetry_equiv_pos_site_id
_symmetry_equiv_pos_as_xyz
1 x,y,z
2 -x,1/2+y,1/2-z
3 -x,-y,-z
4 x,1/2-y,1/2+z
_cell_length_a                   6.8352(3)
_cell_length_b                   30.3999(11)
_cell_length_c                   7.5409(3)
_cell_angle_alpha                90
_cell_angle_beta                 97.375(2)
_cell_angle_gamma                90
_cell_volume                     1553.96
_exptl_crystal_colour            colorless
_exptl_crystal_description       block
_cell_formula_units_Z            4
_exptl_crystal_recrystallization_method 'ethyl acetate'
loop_
_atom_site_label
_atom_site_type_symbol
_atom_site_fract_x
_atom_site_fract_y
_atom_site_fract_z
N1 N 0.3372(2) 0.65607(5) 0.5370(2)
N2 N 0.3988(2) 0.61395(6) 0.5589(2)
O1 O 0.3651(2) 0.81645(4) 0.5569(2)
O2 O 0.0666(3) 0.80858(6) 0.4073(3)
C1 C 1.0771(5) 0.46224(8) 0.7690(4)
H1 H 1.2123 0.4711 0.7975
H2 H 1.0627 0.4450 0.6615
H3 H 1.0386 0.4450 0.8654
C2 C 0.9475(4) 0.50258(8) 0.7418(3)
C3 C 1.0264(4) 0.54415(8) 0.7553(3)
H4 H 1.1619 0.5474 0.7852
C4 C 0.9101(3) 0.58130(7) 0.7255(3)
H5 H 0.9683 0.6090 0.7366
C5 C 0.7080(3) 0.57786(6) 0.6794(3)
C6 C 0.6282(4) 0.53587(7) 0.6683(3)
H6 H 0.4927 0.5324 0.6392
C7 C 0.7463(4) 0.49920(8) 0.6995(4)
H7 H 0.6885 0.4715 0.6918
C8 C 0.5871(3) 0.61754(6) 0.6386(3)
C9 C 0.6428(3) 0.66109(7) 0.6684(3)
H8 H 0.7643 0.6714 0.7221
C10 C 0.4813(3) 0.68603(6) 0.6023(3)
C11 C 0.4335(3) 0.73089(6) 0.5842(3)
H9 H 0.5260 0.7519 0.6288
C12 C 0.2535(3) 0.74423(7) 0.5024(2)
C13 C 0.1075(3) 0.71204(7) 0.4353(3)
C14 C 0.1553(3) 0.66890(7) 0.4564(3)
H10 H 0.0628 0.6476 0.4153
C15 C -0.0942(3) 0.72349(8) 0.3412(3)
H11 H -0.1660 0.6970 0.3083
H12 H -0.0807 0.7403 0.2357
H13 H -0.1644 0.7405 0.4197
C16 C 0.2140(3) 0.79236(7) 0.4827(3)
C17 C 0.3473(4) 0.86376(7) 0.5387(3)
H14 H 0.2408 0.8744 0.6007
H15 H 0.3190 0.8718 0.4135
C18 C 0.5387(4) 0.88348(8) 0.6182(3)
H16 H 0.5313 0.9149 0.6078
H17 H 0.6429 0.8727 0.5557
H18 H 0.5649 0.8755 0.7421
loop_
_geom_bond_atom_site_label_1
_geom_bond_atom_site_label_2
_geom_bond_site_symmetry_1
_geom_bond_site_symmetry_2
N1 N2 1_555 1_555
N2 C8 1_555 1_555
O1 C16 1_555 1_555
O2 C16 1_555 1_555
C1 H1 1_555 1_555
H2 C1 1_555 1_555
H3 C1 1_555 1_555
C2 C1 1_555 1_555
C3 C2 1_555 1_555
H4 C3 1_555 1_555
C4 C3 1_555 1_555
H5 C4 1_555 1_555
C5 C4 1_555 1_555
C6 C5 1_555 1_555
H6 C6 1_555 1_555
C7 C2 1_555 1_555
H7 C7 1_555 1_555
C8 C5 1_555 1_555
C9 C8 1_555 1_555
H8 C9 1_555 1_555
C10 N1 1_555 1_555
C11 C10 1_555 1_555
H9 C11 1_555 1_555
C12 C11 1_555 1_555
C13 C12 1_555 1_555
C14 N1 1_555 1_555
H10 C14 1_555 1_555
C15 C13 1_555 1_555
H11 C15 1_555 1_555
H12 C15 1_555 1_555
H13 C15 1_555 1_555
C16 C12 1_555 1_555
C17 O1 1_555 1_555
H14 C17 1_555 1_555
H15 C17 1_555 1_555
C18 C17 1_555 1_555
H16 C18 1_555 1_555
H17 C18 1_555 1_555
H18 C18 1_555 1_555
C6 C7 1_555 1_555
C9 C10 1_555 1_555
C13 C14 1_555 1_555

#END
