
#######################################################################
#
#                 Cambridge Crystallographic Data Centre
#                                CCDC 
#
#######################################################################
#
# If this CIF has been generated from an entry in the Cambridge 
# Structural Database, then it will include bibliographic, chemical, 
# crystal, experimental, refinement or atomic coordinate data resulting 
# from the CCDC's data processing and validation procedures.
#
#######################################################################

data_CUCVOM
_chemical_formula_moiety         'C13 H14 Cl1 N1 O2'
_chemical_name_systematic        1-Benzoyl-3-chloroazepan-2-one
_symmetry_cell_setting           orthorhombic
_symmetry_space_group_name_H-M   'P n a 21'
_symmetry_Int_Tables_number      33
_space_group_name_Hall           'P 2c -2n'
loop_
_symmetry_equiv_pos_site_id
_symmetry_equiv_pos_as_xyz
1 x,y,z
2 -x,-y,1/2+z
3 1/2+x,1/2-y,z
4 1/2-x,1/2+y,1/2+z
_cell_length_a                   19.564(4)
_cell_length_b                   7.6500(15)
_cell_length_c                   8.4050(17)
_cell_angle_alpha                90
_cell_angle_beta                 90
_cell_angle_gamma                90
_cell_volume                     1257.93
_exptl_crystal_colour            colorless
_exptl_crystal_description       block
_cell_formula_units_Z            4
_exptl_crystal_recrystallization_method ethanol
loop_
_atom_site_label
_atom_site_type_symbol
_atom_site_fract_x
_atom_site_fract_y
_atom_site_fract_z
Cl1 Cl 0.11953(5) 0.57305(14) 0.24751(14)
O1 O -0.1309(2) 0.1107(4) 0.1382(6)
O2 O -0.00941(14) 0.4326(3) 0.3449(4)
N1 N -0.03396(16) 0.2690(4) 0.1259(4)
C1 C -0.2327(2) 0.5048(9) 0.3917(8)
H1 H -0.2664 0.4839 0.4674
C2 C -0.1934(2) 0.3696(7) 0.3412(7)
H2 H -0.2007 0.2575 0.3804
C3 C -0.14219(19) 0.4004(5) 0.2300(6)
C4 C -0.1317(2) 0.5660(5) 0.1702(6)
H3 H -0.0972 0.5876 0.0968
C5 C -0.1740(3) 0.6992(7) 0.2223(7)
H4 H -0.1688 0.8113 0.1811
C6 C -0.2244(3) 0.6671(9) 0.3359(9)
H5 H -0.2520 0.7577 0.3725
C7 C -0.1033(2) 0.2489(5) 0.1659(5)
C8 C -0.0071(2) 0.1496(5) 0.0028(5)
H6 H 0.0183 0.2172 -0.0749
H7 H -0.0452 0.0950 -0.0518
C9 C 0.0390(3) 0.0080(5) 0.0694(6)
H8 H 0.0200 -0.0327 0.1693
H9 H 0.0392 -0.0901 -0.0038
C10 C 0.1113(3) 0.0645(6) 0.0972(7)
H10 H 0.1315 0.0921 -0.0052
H11 H 0.1362 -0.0344 0.1402
C11 C 0.1229(2) 0.2193(5) 0.2068(5)
H12 H 0.1712 0.2481 0.2068
H13 H 0.1105 0.1859 0.3143
C12 C 0.08196(19) 0.3832(4) 0.1600(4)
H14 H 0.0820 0.3955 0.0439
C13 C 0.00874(18) 0.3694(4) 0.2188(4)
loop_
_geom_bond_atom_site_label_1
_geom_bond_atom_site_label_2
_geom_bond_site_symmetry_1
_geom_bond_site_symmetry_2
Cl1 C12 1_555 1_555
O1 C7 1_555 1_555
O2 C13 1_555 1_555
N1 C7 1_555 1_555
C1 H1 1_555 1_555
C2 C1 1_555 1_555
H2 C2 1_555 1_555
C3 C2 1_555 1_555
C4 C3 1_555 1_555
H3 C4 1_555 1_555
C5 C4 1_555 1_555
H4 C5 1_555 1_555
C6 C1 1_555 1_555
H5 C6 1_555 1_555
C7 C3 1_555 1_555
C8 N1 1_555 1_555
H6 C8 1_555 1_555
H7 C8 1_555 1_555
C9 C8 1_555 1_555
H8 C9 1_555 1_555
H9 C9 1_555 1_555
C10 C9 1_555 1_555
H10 C10 1_555 1_555
H11 C10 1_555 1_555
C11 C10 1_555 1_555
H12 C11 1_555 1_555
H13 C11 1_555 1_555
C12 C11 1_555 1_555
H14 C12 1_555 1_555
C13 N1 1_555 1_555
C5 C6 1_555 1_555
C12 C13 1_555 1_555

#END
