
#######################################################################
#
#                 Cambridge Crystallographic Data Centre
#                                CCDC 
#
#######################################################################
#
# If this CIF has been generated from an entry in the Cambridge 
# Structural Database, then it will include bibliographic, chemical, 
# crystal, experimental, refinement or atomic coordinate data resulting 
# from the CCDC's data processing and validation procedures.
#
#######################################################################

data_CUCXOO
_chemical_formula_moiety         'C7 H7 N2 1+,Br1 1-'
_chemical_name_systematic        '3-Cyanoanilinium bromide'
_symmetry_cell_setting           triclinic
_symmetry_space_group_name_H-M   'P -1'
_symmetry_Int_Tables_number      2
_space_group_name_Hall           '-P 1'
loop_
_symmetry_equiv_pos_site_id
_symmetry_equiv_pos_as_xyz
1 x,y,z
2 -x,-y,-z
_cell_length_a                   4.6396(9)
_cell_length_b                   6.1757(12)
_cell_length_c                   13.542(3)
_cell_angle_alpha                93.07(3)
_cell_angle_beta                 96.22(3)
_cell_angle_gamma                97.33(3)
_cell_volume                     381.685
_exptl_crystal_colour            colorless
_exptl_crystal_description       block
_cell_formula_units_Z            2
loop_
_atom_site_label
_atom_site_type_symbol
_atom_site_fract_x
_atom_site_fract_y
_atom_site_fract_z
N1 N 0.6256(9) 0.2461(6) 0.6051(3)
H1 H 0.7437 0.1446 0.5990
H2 H 0.7175 0.3755 0.5927
H3 H 0.4653 0.2118 0.5619
N2 N -0.0113(11) 0.7158(8) 0.8871(4)
C1 C 0.5438(10) 0.2565(7) 0.7064(4)
C2 C 0.3783(10) 0.4177(7) 0.7330(3)
H4 H 0.3215 0.5166 0.6877
C3 C 0.3001(10) 0.4273(7) 0.8286(4)
C4 C 0.6331(11) 0.1113(7) 0.7719(4)
H5 H 0.7446 0.0048 0.7527
C5 C 0.3878(12) 0.2814(8) 0.8962(4)
H6 H 0.3345 0.2889 0.9604
C6 C 0.5540(12) 0.1259(8) 0.8677(4)
H7 H 0.6146 0.0287 0.9132
C7 C 0.1216(11) 0.5910(8) 0.8593(4)
Br1 Br 0.09268(11) 0.23870(7) 0.42210(4)
loop_
_geom_bond_atom_site_label_1
_geom_bond_atom_site_label_2
_geom_bond_site_symmetry_1
_geom_bond_site_symmetry_2
N1 H1 1_555 1_555
H2 N1 1_555 1_555
H3 N1 1_555 1_555
N2 C7 1_555 1_555
C1 N1 1_555 1_555
C2 C1 1_555 1_555
H4 C2 1_555 1_555
C3 C2 1_555 1_555
C4 C1 1_555 1_555
H5 C4 1_555 1_555
C5 C3 1_555 1_555
H6 C5 1_555 1_555
C6 C4 1_555 1_555
H7 C6 1_555 1_555
C7 C3 1_555 1_555
C5 C6 1_555 1_555

#END
