
#######################################################################
#
#                 Cambridge Crystallographic Data Centre
#                                CCDC 
#
#######################################################################
#
# If this CIF has been generated from an entry in the Cambridge 
# Structural Database, then it will include bibliographic, chemical, 
# crystal, experimental, refinement or atomic coordinate data resulting 
# from the CCDC's data processing and validation procedures.
#
#######################################################################

data_CUCYEF
_chemical_formula_moiety         'C6 H6 N5 1+,C2 F3 O2 1-'
_chemical_name_systematic        
'3-(2H-Tetrazol-5-yl)pyridinium trifluoroacetate'
_symmetry_cell_setting           triclinic
_symmetry_space_group_name_H-M   'P -1'
_symmetry_Int_Tables_number      2
_space_group_name_Hall           '-P 1'
loop_
_symmetry_equiv_pos_site_id
_symmetry_equiv_pos_as_xyz
1 x,y,z
2 -x,-y,-z
_cell_length_a                   4.8564(10)
_cell_length_b                   9.5989(19)
_cell_length_c                   11.917(2)
_cell_angle_alpha                90.02(3)
_cell_angle_beta                 101.34(3)
_cell_angle_gamma                98.55(3)
_cell_volume                     538.375
_exptl_crystal_colour            colorless
_exptl_crystal_description       block
_cell_formula_units_Z            2
loop_
_atom_site_label
_atom_site_type_symbol
_atom_site_fract_x
_atom_site_fract_y
_atom_site_fract_z
C1 C 0.1751(8) 0.1275(4) 0.6775(3)
H1 H 0.0072 0.0667 0.6502
C2 C 0.2548(7) 0.2409(3) 0.6141(3)
C3 C 0.5092(7) 0.3283(4) 0.6578(3)
H2 H 0.5695 0.4055 0.6169
C4 C 0.6729(8) 0.3005(4) 0.7619(3)
H3 H 0.8421 0.3593 0.7912
C5 C 0.5847(8) 0.1867(4) 0.8213(3)
H4 H 0.6946 0.1666 0.8908
C6 C 0.0725(7) 0.2678(4) 0.5049(3)
N1 N 0.3391(6) 0.1041(3) 0.7789(2)
H5 H 0.2837 0.0335 0.8177
N2 N 0.1380(7) 0.3773(3) 0.4385(3)
N3 N -0.0790(7) 0.3696(4) 0.3500(3)
N4 N -0.2582(6) 0.2577(3) 0.3670(3)
H6 H -0.4163 0.2309 0.3202
N5 N -0.1752(6) 0.1894(3) 0.4621(2)
O1 O 0.2404(5) 0.1352(3) 0.2369(2)
F1 F 0.2471(6) 0.2764(3) -0.0109(2)
F2 F -0.0045(6) 0.3887(3) 0.0715(2)
F3 F 0.4227(5) 0.3786(3) 0.1514(2)
C7 C 0.0877(8) 0.1692(4) 0.1485(3)
C8 C 0.1930(8) 0.3036(4) 0.0912(3)
O2 O -0.1502(6) 0.1066(3) 0.0989(2)
loop_
_geom_bond_atom_site_label_1
_geom_bond_atom_site_label_2
_geom_bond_site_symmetry_1
_geom_bond_site_symmetry_2
C1 H1 1_555 1_555
C2 C1 1_555 1_555
C3 C2 1_555 1_555
H2 C3 1_555 1_555
C4 C3 1_555 1_555
H3 C4 1_555 1_555
C5 C4 1_555 1_555
H4 C5 1_555 1_555
C6 C2 1_555 1_555
N1 C1 1_555 1_555
H5 N1 1_555 1_555
N2 C6 1_555 1_555
N3 N2 1_555 1_555
N4 N3 1_555 1_555
H6 N4 1_555 1_555
N5 C6 1_555 1_555
O1 C7 1_555 1_555
F1 C8 1_555 1_555
F2 C8 1_555 1_555
F3 C8 1_555 1_555
C7 C8 1_555 1_555
O2 C7 1_555 1_555
C5 N1 1_555 1_555
N4 N5 1_555 1_555

#END
