
#######################################################################
#
#                 Cambridge Crystallographic Data Centre
#                                CCDC 
#
#######################################################################
#
# If this CIF has been generated from an entry in the Cambridge 
# Structural Database, then it will include bibliographic, chemical, 
# crystal, experimental, refinement or atomic coordinate data resulting 
# from the CCDC's data processing and validation procedures.
#
#######################################################################

data_CUCYAB
_chemical_formula_moiety         'C6 H6 N5 1+,H1 O4 S1 1-'
_chemical_name_systematic        
'4-(2H-Tetrazol-5-yl)pyridinium hydrogen sulfate'
_symmetry_cell_setting           triclinic
_symmetry_space_group_name_H-M   'P -1'
_symmetry_Int_Tables_number      2
_space_group_name_Hall           '-P 1'
loop_
_symmetry_equiv_pos_site_id
_symmetry_equiv_pos_as_xyz
1 x,y,z
2 -x,-y,-z
_cell_length_a                   6.6515(13)
_cell_length_b                   7.5507(15)
_cell_length_c                   10.072(2)
_cell_angle_alpha                77.72(3)
_cell_angle_beta                 76.88(3)
_cell_angle_gamma                79.71(3)
_cell_volume                     476.837
_exptl_crystal_colour            colorless
_exptl_crystal_description       block
_cell_formula_units_Z            2
loop_
_atom_site_label
_atom_site_type_symbol
_atom_site_fract_x
_atom_site_fract_y
_atom_site_fract_z
S1 S 0.17610(8) 0.76548(6) 0.48163(5)
O1 O -0.0454(3) 0.7896(2) 0.54236(17)
O2 O 0.2068(3) 0.9101(2) 0.34498(15)
H1 H 0.1631 1.0128 0.3627
O3 O 0.2479(3) 0.5928(2) 0.43634(16)
O4 O 0.3022(3) 0.8031(2) 0.56937(19)
C1 C 0.2581(3) 0.3789(3) 0.0215(2)
N1 N 0.2528(3) 0.5615(2) -0.00724(18)
N2 N 0.2800(3) 0.0732(2) -0.28273(19)
H2 H 0.2824 0.0112 -0.3456
N3 N 0.2423(3) 0.6128(3) 0.1106(2)
N4 N 0.2414(3) 0.4632(3) 0.20321(19)
H3 H 0.2349 0.4630 0.2895
N5 N 0.2511(3) 0.3125(3) 0.15493(18)
C2 C 0.2855(3) 0.3527(3) -0.2218(2)
H4 H 0.2935 0.4774 -0.2472
C3 C 0.2684(3) 0.2687(3) -0.0841(2)
C4 C 0.2597(3) 0.0814(3) -0.0490(2)
H5 H 0.2498 0.0217 0.0426
C5 C 0.2661(4) -0.0136(3) -0.1518(2)
H6 H 0.2606 -0.1389 -0.1303
C6 C 0.2904(4) 0.2516(3) -0.3202(2)
H7 H 0.3010 0.3072 -0.4128
loop_
_geom_bond_atom_site_label_1
_geom_bond_atom_site_label_2
_geom_bond_site_symmetry_1
_geom_bond_site_symmetry_2
S1 O1 1_555 1_555
O2 S1 1_555 1_555
H1 O2 1_555 1_555
C1 N1 1_555 1_555
N1 N3 1_555 1_555
O3 S1 1_555 1_555
N2 H2 1_555 1_555
O4 S1 1_555 1_555
N3 N4 1_555 1_555
N4 H3 1_555 1_555
N5 C1 1_555 1_555
C2 H4 1_555 1_555
C3 C1 1_555 1_555
C4 C3 1_555 1_555
H5 C4 1_555 1_555
C5 N2 1_555 1_555
H6 C5 1_555 1_555
C6 N2 1_555 1_555
H7 C6 1_555 1_555
N4 N5 1_555 1_555
C2 C3 1_555 1_555
C2 C6 1_555 1_555
C4 C5 1_555 1_555

#END
