
#######################################################################
#
#                 Cambridge Crystallographic Data Centre
#                                CCDC 
#
#######################################################################
#
# If this CIF has been generated from an entry in the Cambridge 
# Structural Database, then it will include bibliographic, chemical, 
# crystal, experimental, refinement or atomic coordinate data resulting 
# from the CCDC's data processing and validation procedures.
#
#######################################################################

data_CUCYAA
_chemical_formula_moiety         'C24 H18 As1 F5 O3'
_chemical_name_systematic        
((Pentafluoropropionyl)-(carbomethoxy)-methylene)-triphenyl-arsorane
_symmetry_cell_setting           monoclinic
_symmetry_space_group_name_H-M   'P 21'
_symmetry_Int_Tables_number      4
_space_group_name_Hall           'P 2yb'
loop_
_symmetry_equiv_pos_site_id
_symmetry_equiv_pos_as_xyz
1 x,y,z
2 -x,1/2+y,-z
_cell_length_a                   11.917(3)
_cell_length_b                   9.495(1)
_cell_length_c                   11.729(3)
_cell_angle_alpha                90
_cell_angle_beta                 117.82(4)
_cell_angle_gamma                90
_cell_volume                     1173.76
_exptl_crystal_colour            colorless
_cell_formula_units_Z            2
loop_
_atom_site_label
_atom_site_type_symbol
_atom_site_fract_x
_atom_site_fract_y
_atom_site_fract_z
As1 As 0.1899 0.2500 0.3160
C1 C 0.3488(5) 0.2633(11) 0.4748(6)
C2 C 0.4504(7) 0.1799(11) 0.4893(8)
C3 C 0.5651(8) 0.1891(12) 0.6020(9)
C4 C 0.5737(8) 0.2815(13) 0.6966(8)
C5 C 0.4749(9) 0.3604(13) 0.6844(9)
C6 C 0.3566(8) 0.3546(11) 0.5695(8)
C7 C 0.1267(5) 0.4356(7) 0.2760(5)
C8 C 0.1341(5) 0.5102(6) 0.1770(6)
C9 C 0.0957(6) 0.6489(8) 0.1559(6)
C10 C 0.0485(7) 0.7118(7) 0.2306(7)
C11 C 0.0385(8) 0.6359(8) 0.3261(7)
C12 C 0.0761(7) 0.4971(8) 0.3487(6)
C13 C 0.2368(6) 0.1832(7) 0.1880(6)
C14 C 0.3294(5) 0.2560(14) 0.1724(6)
C15 C 0.3626(8) 0.2117(9) 0.0812(8)
C16 C 0.3016(7) 0.0919(10) 0.0072(7)
C17 C 0.2109(7) 0.0204(9) 0.0237(7)
C18 C 0.1764(6) 0.0644(7) 0.1162(6)
C19 C 0.0704(6) 0.1291(7) 0.3307(6)
C20 C -0.0495(6) 0.1502(7) 0.2274(6)
C21 C -0.1690(7) 0.0777(8) 0.2217(8)
C22 C -0.2953(7) 0.1166(11) 0.0979(9)
C23 C 0.1058(7) 0.0262(8) 0.4336(7)
C24 C 0.2841(14) -0.0878(17) 0.6040(14)
F1 F -0.1852(5) 0.1074(6) 0.3254(5)
F2 F -0.1636(4) -0.0646(5) 0.2121(5)
F3 F -0.2937(5) 0.0835(7) -0.0076(5)
F4 F -0.3875(5) 0.0471(8) 0.1059(7)
F5 F -0.3151(4) 0.2552(8) 0.1041(5)
O1 O -0.0701(4) 0.2252(6) 0.1334(4)
O2 O 0.2335(6) 0.0107(8) 0.4969(8)
O3 O 0.0396(6) -0.0430(6) 0.4585(6)
loop_
_geom_bond_atom_site_label_1
_geom_bond_atom_site_label_2
_geom_bond_site_symmetry_1
_geom_bond_site_symmetry_2
As1 C1 1_555 1_555
C1 C2 1_555 1_555
C2 C3 1_555 1_555
C3 C4 1_555 1_555
C4 C5 1_555 1_555
C5 C6 1_555 1_555
C6 C1 1_555 1_555
C7 As1 1_555 1_555
C8 C7 1_555 1_555
C9 C8 1_555 1_555
C10 C9 1_555 1_555
C11 C10 1_555 1_555
C12 C7 1_555 1_555
C13 As1 1_555 1_555
C14 C13 1_555 1_555
C15 C14 1_555 1_555
C16 C15 1_555 1_555
C17 C16 1_555 1_555
C18 C13 1_555 1_555
C19 As1 1_555 1_555
C20 C19 1_555 1_555
C21 C20 1_555 1_555
C22 C21 1_555 1_555
C23 C19 1_555 1_555
C24 O2 1_555 1_555
F1 C21 1_555 1_555
F2 C21 1_555 1_555
F3 C22 1_555 1_555
F4 C22 1_555 1_555
F5 C22 1_555 1_555
O1 C20 1_555 1_555
O2 C23 1_555 1_555
O3 C23 1_555 1_555
C11 C12 1_555 1_555
C17 C18 1_555 1_555

#END
