
#######################################################################
#
#                 Cambridge Crystallographic Data Centre
#                                CCDC 
#
#######################################################################
#
# If this CIF has been generated from an entry in the Cambridge 
# Structural Database, then it will include bibliographic, chemical, 
# crystal, experimental, refinement or atomic coordinate data resulting 
# from the CCDC's data processing and validation procedures.
#
#######################################################################

data_CUCZIK
_chemical_name_common            'Pyridine-4-carboximidamidate chloride'
_chemical_formula_moiety         'C6 H8 N3 1+,Cl1 1-'
_chemical_name_systematic        'Isonicotinamidine hydrochloride'
_symmetry_cell_setting           orthorhombic
_symmetry_space_group_name_H-M   'P b c a'
_symmetry_Int_Tables_number      61
_space_group_name_Hall           '-P 2ac 2ab'
loop_
_symmetry_equiv_pos_site_id
_symmetry_equiv_pos_as_xyz
1 x,y,z
2 1/2-x,-y,1/2+z
3 -x,1/2+y,1/2-z
4 1/2+x,1/2-y,-z
5 -x,-y,-z
6 1/2+x,y,1/2-z
7 x,1/2-y,1/2+z
8 1/2-x,1/2+y,z
_cell_length_a                   7.3928(13)
_cell_length_b                   10.4467(16)
_cell_length_c                   18.925(3)
_cell_angle_alpha                90
_cell_angle_beta                 90
_cell_angle_gamma                90
_cell_volume                     1461.58
_exptl_crystal_colour            colorless
_exptl_crystal_description       block
_cell_formula_units_Z            8
_exptl_crystal_recrystallization_method ethanol/acetone
loop_
_atom_site_label
_atom_site_type_symbol
_atom_site_fract_x
_atom_site_fract_y
_atom_site_fract_z
N1 N 0.0852(2) 0.38353(14) 0.75509(8)
C1 C 0.0499(3) 0.36114(17) 0.82329(10)
N2 N 0.0353(2) 0.79417(15) 0.89141(9)
C2 C 0.0593(3) 0.45387(17) 0.87518(9)
N3 N 0.1766(3) 0.66264(17) 0.97084(9)
C3 C 0.1026(2) 0.57807(15) 0.85578(9)
C4 C 0.1401(3) 0.60305(17) 0.78520(9)
C5 C 0.1315(3) 0.50297(18) 0.73774(9)
C6 C 0.1052(2) 0.68338(16) 0.90895(9)
H1 H 0.171(3) 0.6863(18) 0.7679(10)
H2 H 0.015(3) 0.275(2) 0.8348(11)
H3 H 0.032(3) 0.4327(18) 0.9204(11)
H4 H 0.159(3) 0.519(2) 0.6925(12)
H5 H 0.037(3) 0.854(2) 0.9202(13)
H6 H -0.016(3) 0.803(2) 0.8500(12)
H7 H 0.229(4) 0.590(2) 0.9833(12)
H8 H 0.184(3) 0.732(2) 1.0012(14)
Cl1 Cl 0.15740(8) 0.91636(4) 1.05546(2)
loop_
_geom_bond_atom_site_label_1
_geom_bond_atom_site_label_2
_geom_bond_site_symmetry_1
_geom_bond_site_symmetry_2
N1 C1 1_555 1_555
C1 C2 1_555 1_555
N2 C6 1_555 1_555
C2 C3 1_555 1_555
N3 C6 1_555 1_555
C3 C4 1_555 1_555
C4 C5 1_555 1_555
C5 N1 1_555 1_555
C6 C3 1_555 1_555
H1 C4 1_555 1_555
H2 C1 1_555 1_555
H3 C2 1_555 1_555
H4 C5 1_555 1_555
H5 N2 1_555 1_555
H6 N2 1_555 1_555
H7 N3 1_555 1_555
H8 N3 1_555 1_555

#END
