
#######################################################################
#
#                 Cambridge Crystallographic Data Centre
#                                CCDC 
#
#######################################################################
#
# If this CIF has been generated from an entry in the Cambridge 
# Structural Database, then it will include bibliographic, chemical, 
# crystal, experimental, refinement or atomic coordinate data resulting 
# from the CCDC's data processing and validation procedures.
#
#######################################################################

data_CUDCIO
_chemical_formula_moiety         'C7 H9 Br1 N1 1+,H1 O4 S1 1-'
_chemical_name_systematic        '4-Bromo-3-methylanilinium hydrogen sulfate'
_symmetry_cell_setting           triclinic
_symmetry_space_group_name_H-M   'P -1'
_symmetry_Int_Tables_number      2
_space_group_name_Hall           '-P 1'
loop_
_symmetry_equiv_pos_site_id
_symmetry_equiv_pos_as_xyz
1 x,y,z
2 -x,-y,-z
_cell_length_a                   4.9448(10)
_cell_length_b                   6.4084(13)
_cell_length_c                   16.674(3)
_cell_angle_alpha                98.92(3)
_cell_angle_beta                 96.22(3)
_cell_angle_gamma                100.01(3)
_cell_volume                     509.039
_exptl_crystal_colour            colorless
_exptl_crystal_description       block
_cell_formula_units_Z            2
loop_
_atom_site_label
_atom_site_type_symbol
_atom_site_fract_x
_atom_site_fract_y
_atom_site_fract_z
Br1 Br 0.74330(10) 0.74731(8) 0.96412(3)
N1 N 0.0682(6) 0.3866(4) 0.63055(17)
H1 H -0.0452 0.4741 0.6182
H2 H -0.0308 0.2561 0.6299
H3 H 0.1857 0.3782 0.5939
C1 C 0.5271(7) 0.6260(6) 0.8613(2)
C2 C 0.2233(7) 0.4704(5) 0.7120(2)
C3 C 0.4016(7) 0.3520(5) 0.7448(2)
H4 H 0.4154 0.2193 0.7156
C4 C 0.1915(7) 0.6643(5) 0.7535(2)
H5 H 0.0696 0.7418 0.7309
C5 C 0.5593(7) 0.4282(6) 0.8206(2)
C6 C 0.3444(8) 0.7420(6) 0.8295(2)
H6 H 0.3247 0.8723 0.8594
C7 C 0.7547(8) 0.2971(7) 0.8549(3)
H7 H 0.9411 0.3782 0.8635
H8 H 0.7431 0.1659 0.8169
H9 H 0.7043 0.2638 0.9061
S1 S 0.37322(15) 0.18764(12) 0.42345(5)
O1 O 0.6927(5) 0.1969(4) 0.43590(16)
H10 H 0.7257 0.0932 0.4558
O2 O 0.2512(6) 0.0108(4) 0.35840(16)
O3 O 0.3537(5) 0.3945(3) 0.40391(16)
O4 O 0.2770(5) 0.1540(4) 0.50052(14)
loop_
_geom_bond_atom_site_label_1
_geom_bond_atom_site_label_2
_geom_bond_site_symmetry_1
_geom_bond_site_symmetry_2
Br1 C1 1_555 1_555
N1 H1 1_555 1_555
H2 N1 1_555 1_555
H3 N1 1_555 1_555
C1 C5 1_555 1_555
C2 N1 1_555 1_555
C3 C2 1_555 1_555
H4 C3 1_555 1_555
C4 C2 1_555 1_555
H5 C4 1_555 1_555
C5 C3 1_555 1_555
C6 C1 1_555 1_555
H6 C6 1_555 1_555
C7 C5 1_555 1_555
H7 C7 1_555 1_555
H8 C7 1_555 1_555
H9 C7 1_555 1_555
S1 O1 1_555 1_555
O1 H10 1_555 1_555
O2 S1 1_555 1_555
O3 S1 1_555 1_555
O4 S1 1_555 1_555
C4 C6 1_555 1_555

#END
