
#######################################################################
#
#                 Cambridge Crystallographic Data Centre
#                                CCDC 
#
#######################################################################
#
# If this CIF has been generated from an entry in the Cambridge 
# Structural Database, then it will include bibliographic, chemical, 
# crystal, experimental, refinement or atomic coordinate data resulting 
# from the CCDC's data processing and validation procedures.
#
#######################################################################

data_CUDJUI
_chemical_formula_moiety         'C18 H16 Br1 N1 O3'
_chemical_name_systematic        
'(3aR, 4S, 9aS)-(6-bromo-4-hydroxy-2,3,3a,9a-tetrahydrochromeno[2,3-b]pyrrol-1(4H)-yl)(phenyl)methanone'
_symmetry_cell_setting           orthorhombic
_symmetry_space_group_name_H-M   'P 21 21 21'
_symmetry_Int_Tables_number      19
_space_group_name_Hall           'P 2ac 2ab'
loop_
_symmetry_equiv_pos_site_id
_symmetry_equiv_pos_as_xyz
1 x,y,z
2 1/2-x,-y,1/2+z
3 -x,1/2+y,1/2-z
4 1/2+x,1/2-y,-z
_cell_length_a                   5.9343(12)
_cell_length_b                   11.372(2)
_cell_length_c                   23.049(5)
_cell_angle_alpha                90
_cell_angle_beta                 90
_cell_angle_gamma                90
_cell_volume                     1555.46
_exptl_crystal_colour            colorless
_exptl_crystal_description       rod
_cell_formula_units_Z            4
loop_
_atom_site_label
_atom_site_type_symbol
_atom_site_fract_x
_atom_site_fract_y
_atom_site_fract_z
Br1 Br -0.09130(5) 0.14530(3) 0.585116(13)
O1 O 0.4372(3) 0.58327(16) 0.63944(7)
O2 O -0.0991(3) 0.49542(17) 0.74909(7)
H1 H -0.0070 0.4542 0.7678
O3 O 0.8309(3) 0.84493(18) 0.68999(8)
N1 N 0.5017(4) 0.7480(2) 0.69529(9)
C1 C 0.3251(4) 0.6803(2) 0.66835(11)
H2 H 0.2347 0.7287 0.6406
C2 C 0.1849(4) 0.6399(2) 0.71963(10)
H3 H 0.1018 0.7097 0.7351
C3 C 0.0124(4) 0.5489(2) 0.70156(10)
H4 H -0.1060 0.5922 0.6793
C4 C 0.1123(4) 0.4593(2) 0.65999(10)
C5 C 0.3160(4) 0.4816(2) 0.63185(11)
C6 C 0.4061(5) 0.3994(2) 0.59336(10)
H5 H 0.5484 0.4137 0.5759
C7 C 0.2906(5) 0.2981(2) 0.58060(12)
H6 H 0.3519 0.2421 0.5544
C8 C 0.0826(5) 0.2788(2) 0.60665(11)
C9 C -0.0036(4) 0.3566(2) 0.64663(10)
H7 H -0.1429 0.3400 0.6652
C10 C 0.3701(4) 0.6081(2) 0.76320(11)
H8 H 0.3099 0.6038 0.8032
H9 H 0.4420 0.5322 0.7533
C11 C 0.5351(5) 0.7101(3) 0.75651(11)
H10 H 0.4991 0.7746 0.7838
H11 H 0.6921 0.6840 0.7632
C12 C 0.6528(4) 0.8148(2) 0.66684(11)
C13 C 0.6015(4) 0.8523(2) 0.60604(11)
C14 C 0.4061(5) 0.9140(2) 0.59216(12)
H12 H 0.2969 0.9299 0.6213
C15 C 0.3714(5) 0.9521(3) 0.53570(13)
H13 H 0.2379 0.9939 0.5261
C16 C 0.5303(5) 0.9296(3) 0.49332(13)
H14 H 0.5060 0.9560 0.4547
C17 C 0.7254(5) 0.8684(3) 0.50705(13)
H15 H 0.8339 0.8522 0.4778
C18 C 0.7610(5) 0.8314(3) 0.56322(13)
H16 H 0.8963 0.7912 0.5727
loop_
_geom_bond_atom_site_label_1
_geom_bond_atom_site_label_2
_geom_bond_site_symmetry_1
_geom_bond_site_symmetry_2
Br1 C8 1_555 1_555
O1 C1 1_555 1_555
O2 H1 1_555 1_555
O3 C12 1_555 1_555
N1 C1 1_555 1_555
C1 H2 1_555 1_555
C2 C1 1_555 1_555
H3 C2 1_555 1_555
C3 O2 1_555 1_555
H4 C3 1_555 1_555
C4 C3 1_555 1_555
C5 O1 1_555 1_555
C6 C5 1_555 1_555
H5 C6 1_555 1_555
C7 C6 1_555 1_555
H6 C7 1_555 1_555
C8 C7 1_555 1_555
C9 C4 1_555 1_555
H7 C9 1_555 1_555
C10 C2 1_555 1_555
H8 C10 1_555 1_555
H9 C10 1_555 1_555
C11 N1 1_555 1_555
H10 C11 1_555 1_555
H11 C11 1_555 1_555
C12 N1 1_555 1_555
C13 C12 1_555 1_555
C14 C13 1_555 1_555
H12 C14 1_555 1_555
C15 C14 1_555 1_555
H13 C15 1_555 1_555
C16 C15 1_555 1_555
H14 C16 1_555 1_555
C17 C16 1_555 1_555
H15 C17 1_555 1_555
C18 C13 1_555 1_555
H16 C18 1_555 1_555
C2 C3 1_555 1_555
C4 C5 1_555 1_555
C8 C9 1_555 1_555
C10 C11 1_555 1_555
C17 C18 1_555 1_555

#END
