
#######################################################################
#
#                 Cambridge Crystallographic Data Centre
#                                CCDC 
#
#######################################################################
#
# If this CIF has been generated from an entry in the Cambridge 
# Structural Database, then it will include bibliographic, chemical, 
# crystal, experimental, refinement or atomic coordinate data resulting 
# from the CCDC's data processing and validation procedures.
#
#######################################################################

data_CUDKOD
_chemical_formula_moiety         'C18 H14 N2'
_chemical_name_systematic        3-(1-Benzyl-1H-indol-3-yl)acrylonitrile
_symmetry_cell_setting           monoclinic
_symmetry_space_group_name_H-M   'P 21/n'
_symmetry_Int_Tables_number      14
_space_group_name_Hall           '-P 2yn'
loop_
_symmetry_equiv_pos_site_id
_symmetry_equiv_pos_as_xyz
1 x,y,z
2 1/2-x,1/2+y,1/2-z
3 -x,-y,-z
4 1/2+x,1/2-y,1/2+z
_cell_length_a                   10.672(3)
_cell_length_b                   5.9939(17)
_cell_length_c                   22.113(6)
_cell_angle_alpha                90
_cell_angle_beta                 92.189(6)
_cell_angle_gamma                90
_cell_volume                     1413.47
_exptl_crystal_colour            colorless
_exptl_crystal_description       prismatic
_cell_formula_units_Z            4
loop_
_atom_site_label
_atom_site_type_symbol
_atom_site_fract_x
_atom_site_fract_y
_atom_site_fract_z
N1 N 0.30750(11) 0.72766(19) 0.11563(4)
N2 N 0.68313(15) 0.8646(3) 0.22253(7)
C1 C 0.19942(12) 0.8565(2) 0.11542(6)
C2 C 0.08735(14) 0.8334(3) 0.08165(7)
H1 H 0.0749 0.7171 0.0542
C3 C -0.00388(15) 0.9900(3) 0.09069(8)
H2 H -0.0794 0.9806 0.0684
C4 C 0.01373(15) 1.1617(3) 0.13216(8)
H3 H -0.0506 1.2637 0.1376
C5 C 0.12406(13) 1.1840(3) 0.16526(7)
H4 H 0.1348 1.2994 0.1931
C6 C 0.21999(12) 1.0309(2) 0.15655(5)
C7 C 0.34600(12) 1.0066(2) 0.18171(5)
C8 C 0.39348(13) 0.8193(2) 0.15512(5)
H5 H 0.4736 0.7628 0.1631
C9 C 0.40481(13) 1.1589(3) 0.22450(6)
H6 H 0.3542 1.2755 0.2368
C10 C 0.52113(14) 1.1577(3) 0.24912(6)
H7 H 0.5436 1.2685 0.2769
C11 C 0.61135(16) 0.9963(3) 0.23491(7)
C12 C 0.32549(16) 0.5282(2) 0.07946(6)
H8 H 0.2604 0.4214 0.0883
H9 H 0.4055 0.4617 0.0915
C13 C 0.32280(12) 0.5690(2) 0.01237(6)
C14 C 0.36655(13) 0.7626(3) -0.01274(7)
H10 H 0.3979 0.8759 0.0123
C15 C 0.36421(15) 0.7898(3) -0.07469(7)
H11 H 0.3935 0.9218 -0.0911
C16 C 0.31932(15) 0.6247(3) -0.11214(7)
H12 H 0.3185 0.6437 -0.1539
C17 C 0.27571(15) 0.4323(3) -0.08797(7)
H13 H 0.2451 0.3192 -0.1133
C18 C 0.27684(15) 0.4046(3) -0.02604(7)
H14 H 0.2461 0.2731 -0.0099
loop_
_geom_bond_atom_site_label_1
_geom_bond_atom_site_label_2
_geom_bond_site_symmetry_1
_geom_bond_site_symmetry_2
N1 C1 1_555 1_555
N2 C11 1_555 1_555
C1 C2 1_555 1_555
C2 H1 1_555 1_555
C3 C2 1_555 1_555
H2 C3 1_555 1_555
C4 C3 1_555 1_555
H3 C4 1_555 1_555
C5 C4 1_555 1_555
H4 C5 1_555 1_555
C6 C1 1_555 1_555
C7 C6 1_555 1_555
C8 N1 1_555 1_555
H5 C8 1_555 1_555
C9 C7 1_555 1_555
H6 C9 1_555 1_555
C10 C9 1_555 1_555
H7 C10 1_555 1_555
C11 C10 1_555 1_555
C12 N1 1_555 1_555
H8 C12 1_555 1_555
H9 C12 1_555 1_555
C13 C12 1_555 1_555
C14 C13 1_555 1_555
H10 C14 1_555 1_555
C15 C14 1_555 1_555
H11 C15 1_555 1_555
C16 C15 1_555 1_555
H12 C16 1_555 1_555
C17 C16 1_555 1_555
H13 C17 1_555 1_555
C18 C13 1_555 1_555
H14 C18 1_555 1_555
C5 C6 1_555 1_555
C7 C8 1_555 1_555
C17 C18 1_555 1_555

#END
