
#######################################################################
#
#                 Cambridge Crystallographic Data Centre
#                                CCDC 
#
#######################################################################
#
# If this CIF has been generated from an entry in the Cambridge 
# Structural Database, then it will include bibliographic, chemical, 
# crystal, experimental, refinement or atomic coordinate data resulting 
# from the CCDC's data processing and validation procedures.
#
#######################################################################

data_CUDKUJ
_chemical_formula_moiety         'C24 H20 N4'
_chemical_name_systematic        
3-(1-Methyl-1H-indol-3-yl)-4-((1-methyl-1H-indol-3-yl)methylene)pent-2-enedinitrile
_symmetry_cell_setting           monoclinic
_symmetry_space_group_name_H-M   'P 21/n'
_symmetry_Int_Tables_number      14
_space_group_name_Hall           '-P 2yn'
loop_
_symmetry_equiv_pos_site_id
_symmetry_equiv_pos_as_xyz
1 x,y,z
2 1/2-x,1/2+y,1/2-z
3 -x,-y,-z
4 1/2+x,1/2-y,1/2+z
_cell_length_a                   10.6638(11)
_cell_length_b                   16.1514(17)
_cell_length_c                   11.3170(12)
_cell_angle_alpha                90
_cell_angle_beta                 91.705(2)
_cell_angle_gamma                90
_cell_volume                     1948.32
_exptl_crystal_colour            colorless
_exptl_crystal_description       prismatic
_cell_formula_units_Z            4
loop_
_atom_site_label
_atom_site_type_symbol
_atom_site_fract_x
_atom_site_fract_y
_atom_site_fract_z
N1 N 0.45127(19) 0.13534(12) 1.03820(17)
N2 N 0.07847(18) 0.09295(15) 0.35893(17)
N3 N 0.1553(2) 0.2225(2) 0.7376(2)
N4 N 0.5838(3) 0.32696(19) 0.5337(3)
C1 C 0.5663(2) 0.09989(14) 1.0195(2)
C2 C 0.6537(3) 0.06446(16) 1.0984(2)
H1 H 0.6415 0.0648 1.1795
C3 C 0.7582(3) 0.02918(17) 1.0520(3)
H2 H 0.8169 0.0039 1.1026
C4 C 0.7784(3) 0.03023(17) 0.9324(3)
H3 H 0.8511 0.0066 0.9041
C5 C 0.6939(2) 0.06532(16) 0.8545(2)
H4 H 0.7090 0.0659 0.7740
C6 C 0.5841(2) 0.10043(13) 0.8976(2)
C7 C 0.4745(2) 0.13760(13) 0.8424(2)
C8 C 0.3969(2) 0.15692(15) 0.9336(2)
H5 H 0.3182 0.1814 0.9244
C9 C 0.4573(2) 0.14520(14) 0.7169(2)
H6 H 0.5267 0.1292 0.6747
C10 C 0.36040(19) 0.17091(14) 0.64913(19)
C11 C 0.3640(2) 0.17180(14) 0.5141(2)
C12 C 0.2556(2) 0.12572(14) 0.45803(19)
C13 C 0.1556(2) 0.15541(16) 0.3957(2)
H7 H 0.1413 0.2112 0.3800
C14 C 0.1290(2) 0.02005(17) 0.3988(2)
C15 C 0.2412(2) 0.03787(14) 0.4621(2)
C16 C 0.3103(3) -0.02758(16) 0.5119(3)
H8 H 0.3848 -0.0178 0.5544
C17 C 0.2653(4) -0.10744(19) 0.4963(3)
H9 H 0.3103 -0.1518 0.5284
C18 C 0.1535(4) -0.1220(2) 0.4334(4)
H10 H 0.1254 -0.1762 0.4248
C19 C 0.0838(3) -0.0600(2) 0.3841(3)
H11 H 0.0091 -0.0706 0.3424
C20 C 0.2472(3) 0.19938(17) 0.6991(2)
C21 C 0.3728(3) 0.26042(16) 0.4663(2)
H12 H 0.3107 0.2863 0.4202
C22 C 0.4919(3) 0.29867(17) 0.5032(3)
C23 C 0.3967(3) 0.14620(19) 1.1547(2)
H13 H 0.3128 0.1671 1.1451
H14 H 0.4467 0.1847 1.2004
H15 H 0.3951 0.0939 1.1949
C24 C -0.0367(3) 0.1014(3) 0.2886(3)
H16 H -0.0622 0.1584 0.2873
H17 H -0.1012 0.0684 0.3227
H18 H -0.0230 0.0830 0.2094
H19 H 0.4407 0.1429 0.4921
loop_
_geom_bond_atom_site_label_1
_geom_bond_atom_site_label_2
_geom_bond_site_symmetry_1
_geom_bond_site_symmetry_2
N1 C1 1_555 1_555
N2 C13 1_555 1_555
N3 C20 1_555 1_555
N4 C22 1_555 1_555
C1 C2 1_555 1_555
C2 H1 1_555 1_555
C3 C2 1_555 1_555
H2 C3 1_555 1_555
C4 C3 1_555 1_555
H3 C4 1_555 1_555
C5 C4 1_555 1_555
H4 C5 1_555 1_555
C6 C1 1_555 1_555
C7 C6 1_555 1_555
C8 N1 1_555 1_555
H5 C8 1_555 1_555
C9 C7 1_555 1_555
H6 C9 1_555 1_555
C10 C9 1_555 1_555
C11 C10 1_555 1_555
C12 C11 1_555 1_555
C13 C12 1_555 1_555
H7 C13 1_555 1_555
C14 N2 1_555 1_555
C15 C12 1_555 1_555
C16 C15 1_555 1_555
H8 C16 1_555 1_555
C17 C16 1_555 1_555
H9 C17 1_555 1_555
C18 C17 1_555 1_555
H10 C18 1_555 1_555
C19 C14 1_555 1_555
H11 C19 1_555 1_555
C20 C10 1_555 1_555
C21 C11 1_555 1_555
H12 C21 1_555 1_555
C22 C21 1_555 1_555
C23 N1 1_555 1_555
H13 C23 1_555 1_555
H14 C23 1_555 1_555
H15 C23 1_555 1_555
C24 N2 1_555 1_555
H16 C24 1_555 1_555
H17 C24 1_555 1_555
H18 C24 1_555 1_555
H19 C11 1_555 1_555
C5 C6 1_555 1_555
C7 C8 1_555 1_555
C14 C15 1_555 1_555
C18 C19 1_555 1_555

#END
