
#######################################################################
#
#                 Cambridge Crystallographic Data Centre
#                                CCDC 
#
#######################################################################
#
# If this CIF has been generated from an entry in the Cambridge 
# Structural Database, then it will include bibliographic, chemical, 
# crystal, experimental, refinement or atomic coordinate data resulting 
# from the CCDC's data processing and validation procedures.
#
#######################################################################

data_CUDKIX
_chemical_formula_moiety         'C12 H9 Cl1 N2'
_chemical_name_systematic        
3-(5-Chloro-2-methyl-1H-indol-3-yl)acrylonitrile
_symmetry_cell_setting           orthorhombic
_symmetry_space_group_name_H-M   'P c a 21'
_symmetry_Int_Tables_number      29
_space_group_name_Hall           'P 2c -2ac'
loop_
_symmetry_equiv_pos_site_id
_symmetry_equiv_pos_as_xyz
1 x,y,z
2 -x,-y,1/2+z
3 1/2+x,-y,z
4 1/2-x,y,1/2+z
_cell_length_a                   8.8067(15)
_cell_length_b                   16.540(3)
_cell_length_c                   14.839(3)
_cell_angle_alpha                90
_cell_angle_beta                 90
_cell_angle_gamma                90
_cell_volume                     2161.49
_exptl_crystal_colour            colorless
_exptl_crystal_description       prismatic
_cell_formula_units_Z            8
loop_
_atom_site_label
_atom_site_type_symbol
_atom_site_fract_x
_atom_site_fract_y
_atom_site_fract_z
Cl1 Cl 0.34510(12) 0.67377(5) 0.63329(6)
N1 N 0.0979(2) 0.39631(12) 0.44505(16)
N2 N -0.2449(3) 0.73330(13) 0.24250(18)
C1 C 0.1645(3) 0.45346(15) 0.49912(18)
C2 C 0.2581(3) 0.44396(17) 0.5729(2)
H1 H 0.2840 0.3929 0.5941
C3 C 0.3113(3) 0.51257(19) 0.6137(2)
H2 H 0.3750 0.5085 0.6635
C4 C 0.2704(3) 0.58818(16) 0.58115(19)
C5 C 0.1750(3) 0.59881(15) 0.50944(18)
H3 H 0.1478 0.6503 0.4902
C6 C 0.1196(3) 0.52996(14) 0.46596(16)
C7 C 0.0230(3) 0.51497(13) 0.38959(17)
C8 C 0.0148(3) 0.43188(14) 0.37941(18)
C9 C -0.0698(4) 0.38329(15) 0.3120(2)
H4 H -0.0482 0.3270 0.3209
H5 H -0.0393 0.3990 0.2524
H6 H -0.1768 0.3925 0.3191
C10 C -0.0599(3) 0.57083(14) 0.33502(17)
H7 H -0.1133 0.5482 0.2872
C11 C -0.0714(3) 0.65012(14) 0.34294(18)
H8 H -0.0156 0.6764 0.3874
C12 C -0.1662(3) 0.69609(15) 0.28581(19)
H9 H 0.116(3) 0.3469(10) 0.4483(18)
Cl2 Cl 0.31485(12) 0.81842(5) 0.39566(6)
N3 N 0.0998(3) 1.10824(14) 0.21609(17)
N4 N -0.2189(3) 0.77317(13) -0.01228(17)
C13 C 0.0136(3) 1.07773(14) 0.1485(2)
C14 C 0.1619(3) 1.04753(15) 0.26698(18)
C15 C 0.2557(4) 1.05203(17) 0.3417(2)
H10 H 0.2858 1.1016 0.3651
C16 C 0.3028(3) 0.9805(2) 0.3801(2)
H11 H 0.3681 0.9813 0.4293
C17 C 0.2524(4) 0.90708(16) 0.3451(2)
C18 C 0.1577(3) 0.90236(15) 0.27182(19)
H12 H 0.1257 0.8524 0.2501
C19 C 0.1103(3) 0.97364(14) 0.23048(17)
C20 C 0.0161(3) 0.99405(14) 0.15456(18)
C21 C -0.0659(4) 1.13105(16) 0.0842(2)
H13 H -0.0503 1.1864 0.1012
H14 H -0.1725 1.1191 0.0850
H15 H -0.0265 1.1223 0.0247
C22 C -0.0646(3) 0.94169(14) 0.09505(18)
H16 H -0.1206 0.9668 0.0499
C23 C -0.0696(3) 0.86202(14) 0.09622(18)
H17 H -0.0144 0.8355 0.1407
C24 C -0.1525(3) 0.81395(14) 0.03496(19)
H18 H 0.122(3) 1.1566(10) 0.2210(16)
loop_
_geom_bond_atom_site_label_1
_geom_bond_atom_site_label_2
_geom_bond_site_symmetry_1
_geom_bond_site_symmetry_2
Cl1 C4 1_555 1_555
N1 C1 1_555 1_555
N2 C12 1_555 1_555
C1 C2 1_555 1_555
C2 H1 1_555 1_555
C3 C2 1_555 1_555
H2 C3 1_555 1_555
C4 C3 1_555 1_555
C5 C4 1_555 1_555
H3 C5 1_555 1_555
C6 C1 1_555 1_555
C7 C6 1_555 1_555
C8 N1 1_555 1_555
C9 C8 1_555 1_555
H4 C9 1_555 1_555
H5 C9 1_555 1_555
H6 C9 1_555 1_555
C10 C7 1_555 1_555
H7 C10 1_555 1_555
C11 C10 1_555 1_555
H8 C11 1_555 1_555
C12 C11 1_555 1_555
H9 N1 1_555 1_555
Cl2 C17 1_555 1_555
N3 C13 1_555 1_555
N4 C24 1_555 1_555
C13 C20 1_555 1_555
C14 N3 1_555 1_555
C15 C14 1_555 1_555
H10 C15 1_555 1_555
C16 C15 1_555 1_555
H11 C16 1_555 1_555
C17 C16 1_555 1_555
C18 C17 1_555 1_555
H12 C18 1_555 1_555
C19 C14 1_555 1_555
C20 C19 1_555 1_555
C21 C13 1_555 1_555
H13 C21 1_555 1_555
H14 C21 1_555 1_555
H15 C21 1_555 1_555
C22 C20 1_555 1_555
H16 C22 1_555 1_555
C23 C22 1_555 1_555
H17 C23 1_555 1_555
C24 C23 1_555 1_555
H18 N3 1_555 1_555
C5 C6 1_555 1_555
C7 C8 1_555 1_555
C18 C19 1_555 1_555

#END
