
#######################################################################
#
#                 Cambridge Crystallographic Data Centre
#                                CCDC 
#
#######################################################################
#
# If this CIF has been generated from an entry in the Cambridge 
# Structural Database, then it will include bibliographic, chemical, 
# crystal, experimental, refinement or atomic coordinate data resulting 
# from the CCDC's data processing and validation procedures.
#
#######################################################################

data_CUDQUP
_chemical_name_common            '2,4,6-trinitrophenol 1-nitronaphthalene'
_chemical_formula_moiety         'C10 H7 N1 O2,C6 H3 N3 O7'
_chemical_name_systematic        '1-nitronaphthalene picric acid'
_symmetry_cell_setting           monoclinic
_symmetry_space_group_name_H-M   'P 21'
_symmetry_Int_Tables_number      4
_space_group_name_Hall           'P 2yb'
loop_
_symmetry_equiv_pos_site_id
_symmetry_equiv_pos_as_xyz
1 x,y,z
2 -x,1/2+y,-z
_cell_length_a                   8.181(14)
_cell_length_b                   8.061(14)
_cell_length_c                   13.23(2)
_cell_angle_alpha                90
_cell_angle_beta                 90.29(2)
_cell_angle_gamma                90
_cell_volume                     872.468
_exptl_crystal_colour            yellow
_exptl_crystal_description       blade
_chemical_melting_point          '67 deg.C'
_cell_formula_units_Z            2
loop_
_atom_site_label
_atom_site_type_symbol
_atom_site_fract_x
_atom_site_fract_y
_atom_site_fract_z
O1 O 0.0267(19) 0.845(2) 0.5077(9)
C1 C 0.088(2) 0.721(2) 0.3484(14)
C2 C -0.035(2) 0.987(2) 0.3049(15)
H1 H -0.0036 1.0271 0.3680
C3 C -0.0009(19) 0.817(2) 0.2838(13)
N1 N 0.117(2) 0.7626(19) 0.4534(11)
C4 C 0.0882(19) 0.510(2) 0.2091(13)
H2 H 0.1206 0.4042 0.1888
O2 O 0.261(3) 0.703(3) 0.4842(13)
C5 C -0.164(2) 1.0516(19) 0.1380(16)
H3 H -0.2195 1.1168 0.0911
C6 C -0.117(2) 1.106(3) 0.2350(16)
H4 H -0.1360 1.2151 0.2550
C7 C -0.0394(17) 0.779(2) 0.1867(13)
C8 C 0.012(2) 0.597(2) 0.1471(14)
H5 H -0.0144 0.5601 0.0824
C9 C 0.1320(19) 0.565(2) 0.3160(13)
H6 H 0.1882 0.4936 0.3591
C10 C -0.1161(17) 0.8826(18) 0.1207(14)
H7 H -0.1403 0.8391 0.0573
O3 O 0.4192(15) 0.480(2) 0.0458(8)
O4 O 0.6176(17) 0.8598(14) 0.5092(11)
O5 O 0.6496(17) 0.3997(18) 0.1121(9)
O6 O 0.6527(14) 0.4642(15) 0.3092(8)
H8 H 0.6719 0.4707 0.3700
O7 O 0.3657(18) 1.1852(15) 0.2474(12)
O8 O 0.305(2) 1.073(3) 0.1028(15)
O9 O 0.7008(19) 0.5995(15) 0.4859(12)
C11 C 0.5900(18) 0.5941(18) 0.2799(11)
C12 C 0.5757(17) 0.7364(17) 0.3479(12)
N2 N 0.350(2) 1.079(2) 0.1858(12)
N3 N 0.5292(17) 0.4924(17) 0.1133(8)
C13 C 0.5099(15) 0.6371(15) 0.1828(9)
N4 N 0.6378(16) 0.7358(13) 0.4561(9)
C14 C 0.5009(16) 0.8997(18) 0.3147(12)
H9 H 0.4946 0.9918 0.3569
C15 C 0.4437(17) 0.900(2) 0.2176(12)
C16 C 0.4422(15) 0.7690(17) 0.1516(11)
H10 H 0.3945 0.7764 0.0878
loop_
_geom_bond_atom_site_label_1
_geom_bond_atom_site_label_2
_geom_bond_site_symmetry_1
_geom_bond_site_symmetry_2
O1 N1 1_555 1_555
C1 C3 1_555 1_555
C2 H1 1_555 1_555
C3 C2 1_555 1_555
N1 C1 1_555 1_555
C4 H2 1_555 1_555
O2 N1 1_555 1_555
C5 H3 1_555 1_555
C6 C2 1_555 1_555
H4 C6 1_555 1_555
C7 C3 1_555 1_555
C8 C4 1_555 1_555
H5 C8 1_555 1_555
C9 C1 1_555 1_555
H6 C9 1_555 1_555
C10 C5 1_555 1_555
H7 C10 1_555 1_555
O3 N3 1_555 1_555
O4 N4 1_555 1_555
O5 N3 1_555 1_555
O6 H8 1_555 1_555
O7 N2 1_555 1_555
O8 N2 1_555 1_555
O9 N4 1_555 1_555
C11 O6 1_555 1_555
C12 C11 1_555 1_555
N2 C15 1_555 1_555
N3 C13 1_555 1_555
C13 C11 1_555 1_555
N4 C12 1_555 1_555
C14 C12 1_555 1_555
H9 C14 1_555 1_555
C15 C14 1_555 1_555
C16 C13 1_555 1_555
H10 C16 1_555 1_555
C4 C9 1_555 1_555
C5 C6 1_555 1_555
C7 C8 1_555 1_555
C7 C10 1_555 1_555
C15 C16 1_555 1_555

#END
