
#######################################################################
#
#                 Cambridge Crystallographic Data Centre
#                                CCDC 
#
#######################################################################
#
# If this CIF has been generated from an entry in the Cambridge 
# Structural Database, then it will include bibliographic, chemical, 
# crystal, experimental, refinement or atomic coordinate data resulting 
# from the CCDC's data processing and validation procedures.
#
#######################################################################

data_CUDRAN
_chemical_name_common            Cudranone
_chemical_formula_moiety         'C19 H20 O5'
_chemical_name_systematic        
2,6,3'-Trihydroxy-4-methoxy-2'-(3-methyl-2-butenyl)benzophenone
_symmetry_cell_setting           monoclinic
_symmetry_space_group_name_H-M   'C c'
_symmetry_Int_Tables_number      9
_space_group_name_Hall           'C -2yc'
loop_
_symmetry_equiv_pos_site_id
_symmetry_equiv_pos_as_xyz
1 x,y,z
2 1/2+x,1/2+y,z
3 x,-y,1/2+z
4 1/2+x,1/2-y,1/2+z
_cell_length_a                   9.037(2)
_cell_length_b                   17.977(8)
_cell_length_c                   10.402(3)
_cell_angle_alpha                90
_cell_angle_beta                 93.39(2)
_cell_angle_gamma                90
_cell_volume                     1686.93
_cell_formula_units_Z            4
loop_
_atom_site_label
_atom_site_type_symbol
_atom_site_fract_x
_atom_site_fract_y
_atom_site_fract_z
C1 C 0.22050 0.16000 0.44820
C2 C 0.17580 0.08620 0.42220
C3 C 0.23030 0.04750 0.32050
C4 C 0.32940 0.08070 0.24320
C5 C 0.37470 0.15320 0.26540
C6 C 0.31860 0.19250 0.36750
C7 C 0.36950 0.27110 0.38870
C8 C 0.31730 0.33140 0.30570
C9 C 0.38530 0.40310 0.31890
C10 C 0.34490 0.46120 0.23870
C11 C 0.23080 0.45110 0.14400
C12 C 0.16040 0.38370 0.12780
C13 C 0.20200 0.32440 0.20770
C14 C 0.15440 0.20150 0.55870
C15 C 0.22300 0.17890 0.68690
C16 C 0.28060 0.22140 0.78190
C17 C 0.29280 0.30460 0.77640
C18 C 0.34190 0.18720 0.90590
O1 O 0.07710 0.05640 0.50170
O2 O 0.46090 0.28270 0.48130
O3 O 0.49230 0.41490 0.41310
O4 O 0.19890 0.51170 0.07010
C19 C 0.08590 0.50400 -0.03190
O5 O 0.13020 0.25910 0.19540
loop_
_geom_bond_atom_site_label_1
_geom_bond_atom_site_label_2
_geom_bond_site_symmetry_1
_geom_bond_site_symmetry_2
C1 C2 1_555 1_555
C2 C3 1_555 1_555
C3 C4 1_555 1_555
C4 C5 1_555 1_555
C5 C6 1_555 1_555
C6 C1 1_555 1_555
C7 C6 1_555 1_555
C8 C7 1_555 1_555
C9 C8 1_555 1_555
C10 C9 1_555 1_555
C11 C10 1_555 1_555
C12 C11 1_555 1_555
C13 C8 1_555 1_555
C14 C1 1_555 1_555
C15 C14 1_555 1_555
C16 C15 1_555 1_555
C17 C16 1_555 1_555
C18 C16 1_555 1_555
O1 C2 1_555 1_555
O2 C7 1_555 1_555
O3 C9 1_555 1_555
O4 C11 1_555 1_555
C19 O4 1_555 1_555
O5 C13 1_555 1_555
C12 C13 1_555 1_555

#END
