
#######################################################################
#
#                 Cambridge Crystallographic Data Centre
#                                CCDC 
#
#######################################################################
#
# If this CIF has been generated from an entry in the Cambridge 
# Structural Database, then it will include bibliographic, chemical, 
# crystal, experimental, refinement or atomic coordinate data resulting 
# from the CCDC's data processing and validation procedures.
#
#######################################################################

data_CUDSUR
_chemical_formula_moiety         'C30 H25 N1 O6 S2'
_chemical_name_systematic        
5-methyl-2-phenyl-5-(1-phenyl-2,2-bis(phenylsulfonyl)ethyl)-1,3-oxazol-4(5H)-one
_symmetry_cell_setting           orthorhombic
_symmetry_space_group_name_H-M   'P 21 21 21'
_symmetry_Int_Tables_number      19
_space_group_name_Hall           'P 2ac 2ab'
loop_
_symmetry_equiv_pos_site_id
_symmetry_equiv_pos_as_xyz
1 x,y,z
2 1/2-x,-y,1/2+z
3 1/2+x,1/2-y,-z
4 -x,1/2+y,1/2-z
_cell_length_a                   9.5260(15)
_cell_length_b                   9.9394(16)
_cell_length_c                   28.940(4)
_cell_angle_alpha                90
_cell_angle_beta                 90
_cell_angle_gamma                90
_cell_volume                     2740.12
_exptl_crystal_description       prismatic
_cell_formula_units_Z            4
loop_
_atom_site_label
_atom_site_type_symbol
_atom_site_fract_x
_atom_site_fract_y
_atom_site_fract_z
S1 S 0.41778(9) 0.48510(8) 0.56137(3)
S2 S 0.23394(8) 0.27864(8) 0.61167(3)
O1 O 0.3954(3) 0.3409(2) 0.72233(8)
O2 O 0.5188(3) 0.6474(3) 0.68249(10)
O3 O 0.5581(2) 0.5330(3) 0.56733(11)
O4 O 0.3865(4) 0.3965(3) 0.52467(9)
O5 O 0.1957(3) 0.2478(3) 0.65824(8)
O6 O 0.2792(3) 0.1737(2) 0.58145(9)
N1 N 0.3354(4) 0.5600(3) 0.72575(11)
C1 C 0.1042(5) 0.4886(6) 0.78613(16)
H1 H 0.1272 0.5793 0.7839
C2 C -0.0118(7) 0.4500(8) 0.8109(2)
H2 H -0.0655 0.5137 0.8265
C3 C -0.0476(7) 0.3163(8) 0.8124(2)
H3 H -0.1301 0.2902 0.8271
C4 C 0.0381(7) 0.2193(6) 0.79234(17)
H4 H 0.0169 0.1284 0.7954
C5 C 0.1542(5) 0.2591(5) 0.76799(14)
H5 H 0.2109 0.1951 0.7538
C6 C 0.1872(4) 0.3930(4) 0.76446(12)
C7 C 0.3075(4) 0.4370(3) 0.73663(12)
C8 C 0.4587(4) 0.5554(3) 0.70002(12)
C9 C 0.5039(4) 0.4073(3) 0.69542(11)
C10 C 0.6429(4) 0.3829(4) 0.71913(14)
H6 H 0.6397 0.4188 0.7499
H7 H 0.7165 0.4264 0.7021
H8 H 0.6610 0.2879 0.7205
C11 C 0.5042(3) 0.3637(3) 0.64461(11)
H9 H 0.5783 0.4193 0.6309
C12 C 0.3700(3) 0.4064(3) 0.61716(10)
H10 H 0.3273 0.4786 0.6354
C13 C 0.5554(3) 0.2200(3) 0.63596(11)
C14 C 0.6583(4) 0.2002(4) 0.60241(14)
H11 H 0.6922 0.2732 0.5857
C15 C 0.7103(6) 0.0731(5) 0.59385(17)
H12 H 0.7805 0.0608 0.5719
C16 C 0.6573(6) -0.0364(5) 0.61809(17)
H13 H 0.6903 -0.1225 0.6118
C17 C 0.5574(5) -0.0179(4) 0.65097(14)
H14 H 0.5224 -0.0916 0.6671
C18 C 0.5069(4) 0.1104(3) 0.66072(13)
H15 H 0.4405 0.1225 0.6839
C19 C 0.3092(3) 0.6282(3) 0.55675(11)
C20 C 0.3360(4) 0.7366(4) 0.58543(13)
H16 H 0.4053 0.7316 0.6080
C21 C 0.2585(6) 0.8506(4) 0.57995(15)
H17 H 0.2772 0.9251 0.5984
C22 C 0.1538(5) 0.8574(5) 0.54785(17)
H18 H 0.0993 0.9347 0.5454
C23 C 0.1289(5) 0.7500(5) 0.51921(17)
H19 H 0.0589 0.7558 0.4969
C24 C 0.2080(4) 0.6319(4) 0.52327(13)
H20 H 0.1922 0.5587 0.5039
C25 C 0.0920(4) 0.3647(3) 0.58594(11)
C26 C 0.0224(4) 0.4594(4) 0.61154(14)
H21 H 0.0489 0.4776 0.6418
C27 C -0.0878(4) 0.5268(5) 0.59142(17)
H22 H -0.1361 0.5925 0.6079
C28 C -0.1261(4) 0.4969(6) 0.54715(18)
H23 H -0.1995 0.5445 0.5337
C29 C -0.0605(5) 0.3997(5) 0.52216(16)
H24 H -0.0910 0.3789 0.4925
C30 C 0.0536(4) 0.3312(4) 0.54166(12)
H25 H 0.1016 0.2653 0.5252
loop_
_geom_bond_atom_site_label_1
_geom_bond_atom_site_label_2
_geom_bond_site_symmetry_1
_geom_bond_site_symmetry_2
S1 O3 1_555 1_555
S2 O5 1_555 1_555
O1 C7 1_555 1_555
O2 C8 1_555 1_555
O4 S1 1_555 1_555
O6 S2 1_555 1_555
N1 C7 1_555 1_555
C1 H1 1_555 1_555
C2 C1 1_555 1_555
H2 C2 1_555 1_555
C3 C2 1_555 1_555
H3 C3 1_555 1_555
C4 C3 1_555 1_555
H4 C4 1_555 1_555
C5 C4 1_555 1_555
H5 C5 1_555 1_555
C6 C1 1_555 1_555
C7 C6 1_555 1_555
C8 N1 1_555 1_555
C9 O1 1_555 1_555
C10 C9 1_555 1_555
H6 C10 1_555 1_555
H7 C10 1_555 1_555
H8 C10 1_555 1_555
C11 C9 1_555 1_555
H9 C11 1_555 1_555
C12 S1 1_555 1_555
H10 C12 1_555 1_555
C13 C11 1_555 1_555
C14 C13 1_555 1_555
H11 C14 1_555 1_555
C15 C14 1_555 1_555
H12 C15 1_555 1_555
C16 C15 1_555 1_555
H13 C16 1_555 1_555
C17 C16 1_555 1_555
H14 C17 1_555 1_555
C18 C13 1_555 1_555
H15 C18 1_555 1_555
C19 S1 1_555 1_555
C20 C19 1_555 1_555
H16 C20 1_555 1_555
C21 C20 1_555 1_555
H17 C21 1_555 1_555
C22 C21 1_555 1_555
H18 C22 1_555 1_555
C23 C22 1_555 1_555
H19 C23 1_555 1_555
C24 C19 1_555 1_555
H20 C24 1_555 1_555
C25 S2 1_555 1_555
C26 C25 1_555 1_555
H21 C26 1_555 1_555
C27 C26 1_555 1_555
H22 C27 1_555 1_555
C28 C27 1_555 1_555
H23 C28 1_555 1_555
C29 C28 1_555 1_555
H24 C29 1_555 1_555
C30 C25 1_555 1_555
H25 C30 1_555 1_555
S2 C12 1_555 1_555
C5 C6 1_555 1_555
C8 C9 1_555 1_555
C11 C12 1_555 1_555
C17 C18 1_555 1_555
C23 C24 1_555 1_555
C29 C30 1_555 1_555

#END
