
#######################################################################
#
#                 Cambridge Crystallographic Data Centre
#                                CCDC 
#
#######################################################################
#
# If this CIF has been generated from an entry in the Cambridge 
# Structural Database, then it will include bibliographic, chemical, 
# crystal, experimental, refinement or atomic coordinate data resulting 
# from the CCDC's data processing and validation procedures.
#
#######################################################################

data_CUDTOM
_chemical_formula_moiety         'C20 H16 N2 O2'
_chemical_name_systematic        2,5-bis(phenylcarbonoimidoyl)benzene-1,4-diol
_symmetry_cell_setting           monoclinic
_symmetry_space_group_name_H-M   'P 21/a'
_symmetry_Int_Tables_number      14
_space_group_name_Hall           '-P 2yab'
loop_
_symmetry_equiv_pos_site_id
_symmetry_equiv_pos_as_xyz
1 x,y,z
2 1/2-x,1/2+y,-z
3 -x,-y,-z
4 1/2+x,1/2-y,z
_cell_length_a                   12.2494(15)
_cell_length_b                   4.6659(5)
_cell_length_c                   14.5554(19)
_cell_angle_alpha                90
_cell_angle_beta                 113.260(15)
_cell_angle_gamma                90
_cell_volume                     764.291
_exptl_crystal_colour            red
_exptl_crystal_description       plate
_cell_formula_units_Z            2
loop_
_atom_site_label
_atom_site_type_symbol
_atom_site_fract_x
_atom_site_fract_y
_atom_site_fract_z
N1 N 0.07403(13) 0.5538(4) 0.19711(12)
C1 C -0.10827(16) 0.0689(5) 0.00278(15)
H1 H -0.1811 0.1143 0.0050
C2 C -0.00674(17) 0.2065(4) 0.06734(14)
C3 C -0.01590(17) 0.4178(5) 0.13683(14)
H2 H -0.0901 0.4556 0.1375
C4 C -0.10405(16) -0.1346(5) -0.06505(14)
O1 O -0.20635(12) -0.2595(4) -0.12705(12)
H3 H -0.1921 -0.3719 -0.1642
C5 C 0.1676(2) 0.8885(5) 0.32808(17)
H4 H 0.2388 0.8416 0.3229
C6 C 0.06403(19) 0.7581(5) 0.26564(15)
C7 C 0.0641(3) 1.1609(6) 0.40654(18)
H5 H 0.0642 1.2933 0.4544
C8 C -0.0412(2) 0.8368(5) 0.27316(18)
H6 H -0.1125 0.7547 0.2308
C9 C -0.0404(2) 1.0375(6) 0.34359(19)
H7 H -0.1114 1.0890 0.3483
C10 C 0.1678(2) 1.0880(6) 0.39839(17)
H8 H 0.2388 1.1726 0.4402
N1B N -0.07403(13) -0.5538(4) -0.19711(12)
C1B C 0.10827(16) -0.0689(5) -0.00278(15)
H1B H 0.1811 -0.1143 -0.0050
C2B C 0.00674(17) -0.2065(4) -0.06734(14)
C3B C 0.01590(17) -0.4178(5) -0.13683(14)
H2B H 0.0901 -0.4556 -0.1375
C4B C 0.10405(16) 0.1346(5) 0.06505(14)
O1B O 0.20635(12) 0.2595(4) 0.12705(12)
H3B H 0.1921 0.3719 0.1642
C5B C -0.1676(2) -0.8885(5) -0.32808(17)
H4B H -0.2388 -0.8416 -0.3229
C6B C -0.06403(19) -0.7581(5) -0.26564(15)
C7B C -0.0641(3) -1.1609(6) -0.40654(18)
H5B H -0.0642 -1.2933 -0.4544
C8B C 0.0412(2) -0.8368(5) -0.27316(18)
H6B H 0.1125 -0.7547 -0.2308
C9B C 0.0404(2) -1.0375(6) -0.34359(19)
H7B H 0.1114 -1.0890 -0.3483
C10B C -0.1678(2) -1.0880(6) -0.39839(17)
H8B H -0.2388 -1.1726 -0.4402
loop_
_geom_bond_atom_site_label_1
_geom_bond_atom_site_label_2
_geom_bond_site_symmetry_1
_geom_bond_site_symmetry_2
N1 C3 1_555 1_555
C1 H1 1_555 1_555
C2 C1 1_555 1_555
C3 C2 1_555 1_555
H2 C3 1_555 1_555
C4 C1 1_555 1_555
O1 C4 1_555 1_555
H3 O1 1_555 1_555
C5 H4 1_555 1_555
C6 N1 1_555 1_555
C7 H5 1_555 1_555
C8 C6 1_555 1_555
H6 C8 1_555 1_555
C9 C7 1_555 1_555
H7 C9 1_555 1_555
C10 C5 1_555 1_555
H8 C10 1_555 1_555
N1B C3B 1_555 1_555
C1B H1B 1_555 1_555
C2B C4 1_555 1_555
C3B C2B 1_555 1_555
H2B C3B 1_555 1_555
C4B C2 1_555 1_555
O1B C4B 1_555 1_555
H3B O1B 1_555 1_555
C5B H4B 1_555 1_555
C6B N1B 1_555 1_555
C7B H5B 1_555 1_555
C8B C6B 1_555 1_555
H6B C8B 1_555 1_555
C9B C7B 1_555 1_555
H7B C9B 1_555 1_555
C10B C5B 1_555 1_555
H8B C10B 1_555 1_555
C5 C6 1_555 1_555
C7 C10 1_555 1_555
C8 C9 1_555 1_555
C1B C2B 1_555 1_555
C1B C4B 1_555 1_555
C5B C6B 1_555 1_555
C7B C10B 1_555 1_555
C8B C9B 1_555 1_555

#END
