
#######################################################################
#
#                 Cambridge Crystallographic Data Centre
#                                CCDC 
#
#######################################################################
#
# If this CIF has been generated from an entry in the Cambridge 
# Structural Database, then it will include bibliographic, chemical, 
# crystal, experimental, refinement or atomic coordinate data resulting 
# from the CCDC's data processing and validation procedures.
#
#######################################################################

data_CUDTEC
_chemical_formula_moiety         'C83 H132 N14 O17,13.5(H2 O1)'
_chemical_name_systematic        
'N,N-dimethylvalyl-N-(1-((27-(1-hydroxyethyl)-6-(hydroxy(phenyl)methyl)-21-isobutyl-3,9,15,18,24-pentaisopropyl-12-((4-methoxy-1H-indol-3-yl)methyl)-13,16,22,28,31-pentamethyl-2,5,8,11,14,17,20,23,26,29-decaoxo-1-oxa-4,7,10,13,16,19,22,25,28-nonaazacyclohentriacontan-30-yl)amino)-3-methyl-1-oxopent-3-en-2-yl)-N-methylvalinamide hydrate'
_symmetry_cell_setting           orthorhombic
_symmetry_space_group_name_H-M   'P 21 21 2'
_symmetry_Int_Tables_number      18
_space_group_name_Hall           'P 2 2ab'
loop_
_symmetry_equiv_pos_site_id
_symmetry_equiv_pos_as_xyz
1 x,y,z
2 -x,-y,z
3 1/2-x,1/2+y,-z
4 1/2+x,1/2-y,-z
_cell_length_a                   71.64(7)
_cell_length_b                   11.434(11)
_cell_length_c                   12.697(13)
_cell_angle_alpha                90
_cell_angle_beta                 90
_cell_angle_gamma                90
_cell_volume                     10400.5
_cell_formula_units_Z            4
loop_
_atom_site_label
_atom_site_type_symbol
_atom_site_fract_x
_atom_site_fract_y
_atom_site_fract_z
C1 C 0.00388(19) -0.2788(16) 1.666(2)
C2 C 0.0351(3) -0.1981(15) 1.7413(19)
N1 N 0.02525(14) -0.2835(13) 1.6519(12)
C3 C 0.03208(16) -0.2691(11) 1.5407(13)
C4 C 0.0223(2) -0.3511(13) 1.4591(14)
C5 C 0.0288(4) -0.3309(19) 1.3478(15)
C6 C 0.0249(2) -0.4818(13) 1.4863(14)
C7 C 0.03026(15) -0.1422(11) 1.5033(12)
O1 O 0.01515(13) -0.1004(11) 1.4697(15)
N2 N 0.04594(13) -0.0794(9) 1.5071(9)
C8 C 0.04573(16) 0.0454(10) 1.4778(9)
C9 C 0.05038(15) 0.0522(10) 1.3595(8)
O2 O 0.06593(12) 0.0114(9) 1.3296(9)
C10 C 0.06040(19) 0.1143(13) 1.5440(10)
C11 C 0.0598(3) 0.2425(14) 1.5135(16)
C12 C 0.0566(3) 0.108(2) 1.6624(11)
C13 C 0.01991(19) 0.1595(15) 1.3260(15)
N3 N 0.03863(13) 0.1059(9) 1.2943(8)
C14 C 0.04477(16) 0.1168(10) 1.1838(9)
C15 C 0.04377(15) 0.2456(10) 1.1496(10)
O3 O 0.03030(12) 0.2960(12) 1.1155(12)
C16 C 0.0393(2) 0.0187(13) 1.1091(11)
C17 C 0.0384(3) 0.063(2) 0.9953(11)
C18 C 0.0268(3) -0.0749(16) 1.1509(15)
C19 C 0.0271(4) 0.016(3) 0.9094(14)
N4 N 0.06022(11) 0.3005(8) 1.1651(8)
C20 C 0.06207(13) 0.4229(9) 1.1306(8)
C21 C 0.07492(14) 0.4940(10) 1.2028(8)
O4 O 0.09393(9) 0.4547(6) 1.1931(6)
C22 C 0.0708(2) 0.4755(17) 1.3230(10)
C23 C 0.06802(11) 0.4170(9) 1.0121(7)
O5 O 0.07847(10) 0.3382(7) 0.9831(6)
C24 C 0.05173(16) 0.6120(13) 0.9803(13)
N5 N 0.06226(10) 0.5017(8) 0.9451(7)
C25 C 0.06525(11) 0.4803(8) 0.8325(8)
C26 C 0.04746(12) 0.4396(9) 0.7760(9)
O6 O 0.03258(9) 0.5251(8) 0.7822(8)
C27 C 0.04029(18) 0.3256(11) 0.8271(12)
C28 C 0.07494(11) 0.5827(8) 0.7770(8)
O7 O 0.07109(10) 0.6078(7) 0.6866(7)
N6 N 0.08874(9) 0.6321(7) 0.8307(7)
C29 C 0.10115(11) 0.7187(7) 0.7804(8)
C30 C 0.10165(12) 0.8352(8) 0.8413(9)
C31 C 0.08199(16) 0.8873(14) 0.8453(16)
C32 C 0.10980(17) 0.8262(12) 0.9509(9)
C33 C 0.12077(10) 0.6623(8) 0.7697(7)
O8 O 0.12629(9) 0.5899(6) 0.8349(5)
C34 C 0.12675(14) 0.7880(11) 0.6070(10)
N7 N 0.13159(9) 0.6943(7) 0.6866(6)
C35 C 0.14953(10) 0.6303(8) 0.6738(6)
C36 C 0.15461(13) 0.6114(9) 0.5567(7)
C37 C 0.16913(13) 0.5148(9) 0.5384(7)
C38 C 0.16003(15) 0.3945(10) 0.5428(9)
C39 C 0.17855(14) 0.5331(13) 0.4302(7)
C40 C 0.16523(10) 0.6991(7) 0.7284(6)
O9 O 0.16719(8) 0.8055(5) 0.7152(5)
N8 N 0.17606(9) 0.6334(6) 0.7906(5)
C41 C 0.19097(10) 0.6837(7) 0.8543(6)
C42 C 0.18526(11) 0.6872(8) 0.9733(6)
C43 C 0.20052(14) 0.7497(10) 1.0357(8)
C44 C 0.16659(13) 0.7456(11) 0.9892(9)
C45 C 0.20793(10) 0.6039(7) 0.8376(6)
O10 O 0.20675(8) 0.5006(5) 0.8661(5)
C46 C 0.22504(13) 0.7708(8) 0.7625(8)
N9 N 0.22331(8) 0.6459(6) 0.7941(5)
C47 C 0.23942(10) 0.5671(7) 0.7749(6)
C48 C 0.25177(11) 0.5495(8) 0.8736(6)
C49 C 0.27090(13) 0.5043(14) 0.8379(10)
C50 C 0.25443(13) 0.6648(9) 0.9329(8)
C51 C 0.23367(10) 0.4479(7) 0.7283(6)
O11 O 0.23821(9) 0.3539(6) 0.7668(5)
C52 C 0.21909(12) 0.5591(8) 0.5799(6)
N10 N 0.22254(9) 0.4521(6) 0.6399(5)
C53 C 0.21802(10) 0.3416(7) 0.5864(6)
C54 C 0.23558(11) 0.2836(7) 0.5326(6)
C55 C 0.24232(10) 0.3657(6) 0.4492(6)
C56 C 0.25843(11) 0.4333(7) 0.4529(7)
N11 N 0.25972(10) 0.5014(6) 0.3622(6)
C57 C 0.24484(11) 0.4778(6) 0.2983(6)
C58 C 0.23331(10) 0.3927(7) 0.3491(6)
C59 C 0.21700(11) 0.3543(8) 0.2990(6)
C60 C 0.21200(14) 0.3981(8) 0.2015(7)
C61 C 0.22366(14) 0.4809(9) 0.1528(8)
C62 C 0.24000(14) 0.5226(9) 0.1989(7)
O12 O 0.20704(9) 0.2693(6) 0.3530(5)
C63 C 0.19042(15) 0.2303(12) 0.3040(9)
C64 C 0.20712(10) 0.2508(7) 0.6518(6)
O13 O 0.20697(8) 0.1479(5) 0.6204(5)
N12 N 0.19723(9) 0.2892(6) 0.7329(5)
C65 C 0.18295(10) 0.2157(7) 0.7816(6)
C66 C 0.18948(11) 0.1544(7) 0.8827(6)
C67 C 0.20579(14) 0.0691(10) 0.8564(8)
C68 C 0.19469(14) 0.2378(9) 0.9710(7)
C69 C 0.16606(10) 0.2924(7) 0.8062(6)
O14 O 0.16720(8) 0.3989(5) 0.8135(6)
N13 N 0.14996(9) 0.2349(6) 0.8228(6)
C70 C 0.13373(11) 0.3013(8) 0.8555(6)
C71 C 0.11558(12) 0.2409(9) 0.8178(7)
C72 C 0.11325(11) 0.2592(9) 0.6984(7)
C73 C 0.10860(13) 0.3708(10) 0.6602(8)
C74 C 0.10709(15) 0.3921(11) 0.5526(9)
C75 C 0.1103(2) 0.2999(13) 0.4818(10)
C76 C 0.1147(2) 0.1907(13) 0.5154(9)
C77 C 0.11650(18) 0.1675(10) 0.6248(8)
O15 O 0.11580(10) 0.1184(6) 0.8470(6)
C78 C 0.13302(10) 0.3175(7) 0.9739(6)
O16 O 0.13795(10) 0.2397(6) 1.0361(6)
N14 N 0.12725(10) 0.4225(6) 1.0038(5)
C79 C 0.12367(12) 0.4531(8) 1.1141(7)
C80 C 0.10454(12) 0.5039(8) 1.1179(8)
O17 O 0.09842(9) 0.5749(6) 1.0560(6)
C81 C 0.13771(12) 0.5421(9) 1.1551(7)
C82 C 0.1329(2) 0.5731(14) 1.2719(8)
C83 C 0.15747(13) 0.4917(10) 1.1534(9)
O18 O 0.09274(14) 0.1585(9) 1.2384(8)
O19 O 0.0000 0.5000 0.8879(10)
O20 O 0.13073(16) 0.1879(10) 1.2587(8)
O21 O 0.1494(2) 0.0109(11) 1.0485(10)
O22 O 0.14865(10) -0.0189(7) 0.8299(7)
O23 O 0.1884(2) -0.0630(13) 0.5752(10)
O24 O 0.07969(12) 0.7880(10) 0.5416(9)
O25 O 0.00466(14) 0.6748(16) 1.0290(17)
O26 O 0.0882(3) -0.201(2) 1.3288(16)
O27 O 0.1880(4) -0.1280(19) 0.3560(17)
O28 O 0.09292(10) 0.1220(7) 1.0150(7)
O29 O 0.0086(5) 0.415(2) 1.278(3)
O30 O 0.1204(4) -0.121(2) 1.231(2)
loop_
_geom_bond_atom_site_label_1
_geom_bond_atom_site_label_2
_geom_bond_site_symmetry_1
_geom_bond_site_symmetry_2
C1 N1 1_555 1_555
C2 N1 1_555 1_555
N1 C3 1_555 1_555
C3 C4 1_555 1_555
C4 C5 1_555 1_555
C6 C4 1_555 1_555
C7 C3 1_555 1_555
O1 C7 1_555 1_555
N2 C7 1_555 1_555
C8 N2 1_555 1_555
C9 C8 1_555 1_555
O2 C9 1_555 1_555
C10 C8 1_555 1_555
C11 C10 1_555 1_555
C12 C10 1_555 1_555
C13 N3 1_555 1_555
N3 C9 1_555 1_555
C14 N3 1_555 1_555
C15 C14 1_555 1_555
O3 C15 1_555 1_555
C16 C14 1_555 1_555
C17 C16 1_555 1_555
C18 C16 1_555 1_555
C19 C17 1_555 1_555
N4 C15 1_555 1_555
C20 N4 1_555 1_555
C21 C20 1_555 1_555
O4 C21 1_555 1_555
C22 C21 1_555 1_555
C23 C20 1_555 1_555
O5 C23 1_555 1_555
C24 N5 1_555 1_555
N5 C23 1_555 1_555
C25 N5 1_555 1_555
C26 C25 1_555 1_555
O6 C26 1_555 1_555
C27 C26 1_555 1_555
C28 C25 1_555 1_555
O7 C28 1_555 1_555
N6 C28 1_555 1_555
C29 N6 1_555 1_555
C30 C29 1_555 1_555
C31 C30 1_555 1_555
C32 C30 1_555 1_555
C33 C29 1_555 1_555
O8 C33 1_555 1_555
C34 N7 1_555 1_555
N7 C33 1_555 1_555
C35 N7 1_555 1_555
C36 C35 1_555 1_555
C37 C36 1_555 1_555
C38 C37 1_555 1_555
C39 C37 1_555 1_555
C40 C35 1_555 1_555
O9 C40 1_555 1_555
N8 C40 1_555 1_555
C41 N8 1_555 1_555
C42 C41 1_555 1_555
C43 C42 1_555 1_555
C44 C42 1_555 1_555
C45 C41 1_555 1_555
O10 C45 1_555 1_555
C46 N9 1_555 1_555
N9 C45 1_555 1_555
C47 N9 1_555 1_555
C48 C47 1_555 1_555
C49 C48 1_555 1_555
C50 C48 1_555 1_555
C51 C47 1_555 1_555
O11 C51 1_555 1_555
C52 N10 1_555 1_555
N10 C51 1_555 1_555
C53 N10 1_555 1_555
C54 C53 1_555 1_555
C55 C54 1_555 1_555
C56 C55 1_555 1_555
N11 C56 1_555 1_555
C57 N11 1_555 1_555
C58 C55 1_555 1_555
C59 C58 1_555 1_555
C60 C59 1_555 1_555
C61 C60 1_555 1_555
C62 C57 1_555 1_555
O12 C59 1_555 1_555
C63 O12 1_555 1_555
C64 C53 1_555 1_555
O13 C64 1_555 1_555
N12 C64 1_555 1_555
C65 N12 1_555 1_555
C66 C65 1_555 1_555
C67 C66 1_555 1_555
C68 C66 1_555 1_555
C69 C65 1_555 1_555
O14 C69 1_555 1_555
N13 C69 1_555 1_555
C70 N13 1_555 1_555
C71 C70 1_555 1_555
C72 C71 1_555 1_555
C73 C72 1_555 1_555
C74 C73 1_555 1_555
C75 C74 1_555 1_555
C76 C75 1_555 1_555
C77 C72 1_555 1_555
O15 C71 1_555 1_555
C78 C70 1_555 1_555
O16 C78 1_555 1_555
N14 C78 1_555 1_555
C79 N14 1_555 1_555
C80 O4 1_555 1_555
O17 C80 1_555 1_555
C81 C79 1_555 1_555
C82 C81 1_555 1_555
C83 C81 1_555 1_555
C57 C58 1_555 1_555
C61 C62 1_555 1_555
C76 C77 1_555 1_555
C79 C80 1_555 1_555

#END
