
#######################################################################
#
#                 Cambridge Crystallographic Data Centre
#                                CCDC 
#
#######################################################################
#
# If this CIF has been generated from an entry in the Cambridge 
# Structural Database, then it will include bibliographic, chemical, 
# crystal, experimental, refinement or atomic coordinate data resulting 
# from the CCDC's data processing and validation procedures.
#
#######################################################################

data_CUFBUC01
_chemical_formula_moiety         'C31 H22 N4 O4'
_chemical_name_systematic        
3'-(1H-indol-3-ylcarbonyl)-1'-methyl-2-oxo-4'-(4-oxo-4H-chromen-3-yl)-1,2-dihydrospiro[indole-3,2'-pyrrolidine]-3'-carbonitrile
_symmetry_cell_setting           monoclinic
_symmetry_space_group_name_H-M   'P 21/n'
_symmetry_Int_Tables_number      14
_space_group_name_Hall           '-P 2yn'
loop_
_symmetry_equiv_pos_site_id
_symmetry_equiv_pos_as_xyz
1 x,y,z
2 1/2-x,1/2+y,1/2-z
3 -x,-y,-z
4 1/2+x,1/2-y,1/2+z
_cell_length_a                   13.0401(5)
_cell_length_b                   14.9139(6)
_cell_length_c                   13.7161(5)
_cell_angle_alpha                90
_cell_angle_beta                 112.603(2)
_cell_angle_gamma                90
_cell_volume                     2462.6
_exptl_crystal_colour            colorless
_exptl_crystal_description       Block
_cell_formula_units_Z            4
loop_
_atom_site_label
_atom_site_type_symbol
_atom_site_fract_x
_atom_site_fract_y
_atom_site_fract_z
C1 C 0.2880(2) 0.25426(16) -0.10673(17)
H1 H 0.2737 0.3152 -0.1193
C2 C 0.36735(18) 0.12268(16) -0.14083(15)
C3 C 0.4277(2) 0.08350(19) -0.19416(18)
H2 H 0.4542 0.1178 -0.2361
C4 C 0.4468(2) -0.00645(19) -0.18327(19)
H3 H 0.4867 -0.0338 -0.2186
C5 C 0.4078(2) -0.05821(18) -0.1203(2)
H4 H 0.4201 -0.1198 -0.1153
C6 C 0.35133(19) -0.01845(17) -0.06596(19)
H5 H 0.3269 -0.0529 -0.0226
C7 C 0.33001(17) 0.07404(15) -0.07526(15)
C8 C 0.27094(18) 0.11941(15) -0.01806(15)
C9 C 0.24912(18) 0.21424(15) -0.04083(15)
C10 C 0.18396(18) 0.26261(15) 0.01285(15)
H6 H 0.1243 0.2227 0.0130
C11 C 0.25597(17) 0.28881(15) 0.13121(15)
C12 C 0.3687(2) 0.25089(15) 0.16436(16)
C13 C 0.26070(17) 0.39617(15) 0.13015(15)
C14 C 0.1881(2) 0.43664(17) 0.18886(18)
C15 C 0.3657(2) 0.48427(17) 0.27711(19)
C16 C 0.4568(3) 0.52655(19) 0.3503(2)
H7 H 0.4530 0.5548 0.4093
C17 C 0.5530(3) 0.5251(2) 0.3323(3)
H8 H 0.6159 0.5529 0.3804
C18 C 0.5596(2) 0.4835(2) 0.2449(3)
H9 H 0.6256 0.4856 0.2338
C19 C 0.4675(2) 0.43842(19) 0.1731(2)
H10 H 0.4715 0.4095 0.1146
C20 C 0.37124(19) 0.43801(16) 0.19138(17)
C21 C 0.13173(19) 0.35150(16) -0.03531(16)
H11 H 0.1129 0.3522 -0.1110
H12 H 0.0653 0.3635 -0.0217
C22 C 0.1867(2) 0.50981(18) -0.0085(2)
H13 H 0.1694 0.5195 -0.0823
H14 H 0.2473 0.5479 0.0325
H15 H 0.1227 0.5236 0.0073
C23 C 0.19977(18) 0.25368(15) 0.20664(16)
C24 C 0.25979(18) 0.25638(15) 0.32050(16)
C25 C 0.21092(18) 0.23643(15) 0.39638(16)
C26 C 0.1073(2) 0.20842(18) 0.39024(19)
H16 H 0.0500 0.1987 0.3251
C27 C 0.0911(2) 0.1953(2) 0.4831(2)
H17 H 0.0222 0.1757 0.4799
C28 C 0.1754(2) 0.2107(2) 0.5811(2)
H18 H 0.1615 0.2020 0.6421
C29 C 0.2784(2) 0.23842(17) 0.58952(18)
H19 H 0.3350 0.2487 0.6549
C30 C 0.29469(19) 0.25050(16) 0.49630(16)
C31 C 0.36911(19) 0.27949(17) 0.37844(17)
H20 H 0.4208 0.2950 0.3499
N1 N 0.45588(18) 0.22200(15) 0.18987(16)
N2 N 0.21796(16) 0.41585(13) 0.01775(13)
N3 N 0.38947(16) 0.27611(14) 0.48210(14)
H21 H 0.4522 0.2881 0.5320
N4 N 0.25757(18) 0.48177(15) 0.27375(16)
H22 H 0.2375 0.5062 0.3204
O1 O 0.08831(15) 0.42855(14) 0.16214(15)
O2 O 0.34652(14) 0.21307(11) -0.15668(12)
O3 O 0.24130(15) 0.08041(11) 0.04650(13)
O4 O 0.10336(13) 0.22832(12) 0.16760(12)
loop_
_geom_bond_atom_site_label_1
_geom_bond_atom_site_label_2
_geom_bond_site_symmetry_1
_geom_bond_site_symmetry_2
C1 H1 1_555 1_555
C2 C3 1_555 1_555
C3 H2 1_555 1_555
C4 C3 1_555 1_555
H3 C4 1_555 1_555
C5 C4 1_555 1_555
H4 C5 1_555 1_555
C6 C5 1_555 1_555
H5 C6 1_555 1_555
C7 C2 1_555 1_555
C8 C7 1_555 1_555
C9 C1 1_555 1_555
C10 C9 1_555 1_555
H6 C10 1_555 1_555
C11 C10 1_555 1_555
C12 C11 1_555 1_555
C13 C11 1_555 1_555
C14 C13 1_555 1_555
C15 C16 1_555 1_555
C16 H7 1_555 1_555
C17 C16 1_555 1_555
H8 C17 1_555 1_555
C18 C17 1_555 1_555
H9 C18 1_555 1_555
C19 C18 1_555 1_555
H10 C19 1_555 1_555
C20 C13 1_555 1_555
C21 C10 1_555 1_555
H11 C21 1_555 1_555
H12 C21 1_555 1_555
C22 H13 1_555 1_555
H14 C22 1_555 1_555
H15 C22 1_555 1_555
C23 C11 1_555 1_555
C24 C23 1_555 1_555
C25 C24 1_555 1_555
C26 C25 1_555 1_555
H16 C26 1_555 1_555
C27 C26 1_555 1_555
H17 C27 1_555 1_555
C28 C27 1_555 1_555
H18 C28 1_555 1_555
C29 C28 1_555 1_555
H19 C29 1_555 1_555
C30 C25 1_555 1_555
C31 C24 1_555 1_555
H20 C31 1_555 1_555
N1 C12 1_555 1_555
N2 C13 1_555 1_555
N3 C30 1_555 1_555
H21 N3 1_555 1_555
N4 C14 1_555 1_555
H22 N4 1_555 1_555
O1 C14 1_555 1_555
O2 C1 1_555 1_555
O3 C8 1_555 1_555
O4 C23 1_555 1_555
C2 O2 1_555 1_555
C6 C7 1_555 1_555
C8 C9 1_555 1_555
C15 C20 1_555 1_555
C15 N4 1_555 1_555
C19 C20 1_555 1_555
C21 N2 1_555 1_555
C22 N2 1_555 1_555
C29 C30 1_555 1_555
C31 N3 1_555 1_555

#END
