
#######################################################################
#
#                 Cambridge Crystallographic Data Centre
#                                CCDC 
#
#######################################################################
#
# If this CIF has been generated from an entry in the Cambridge 
# Structural Database, then it will include bibliographic, chemical, 
# crystal, experimental, refinement or atomic coordinate data resulting 
# from the CCDC's data processing and validation procedures.
#
#######################################################################

data_CUFFOA
_chemical_formula_moiety         'C23 H24 O4'
_chemical_name_systematic        
'dimethyl 2-butylidene-4-(naphthalen-2-yl)cyclopent-3-ene-1,1-dicarboxylate'
_symmetry_cell_setting           monoclinic
_symmetry_space_group_name_H-M   'P 21/c'
_symmetry_Int_Tables_number      14
_space_group_name_Hall           '-P 2ybc'
loop_
_symmetry_equiv_pos_site_id
_symmetry_equiv_pos_as_xyz
1 x,y,z
2 -x,1/2+y,1/2-z
3 -x,-y,-z
4 x,1/2-y,1/2+z
_cell_length_a                   13.0339(9)
_cell_length_b                   19.6069(4)
_cell_length_c                   8.25960(10)
_cell_angle_alpha                90
_cell_angle_beta                 106.541(7)
_cell_angle_gamma                90
_cell_volume                     2023.43
_exptl_crystal_colour            colorless
_exptl_crystal_description       block
_cell_formula_units_Z            4
loop_
_atom_site_label
_atom_site_type_symbol
_atom_site_fract_x
_atom_site_fract_y
_atom_site_fract_z
O1 O 0.97956(15) 0.10994(9) 0.2850(2)
O2 O 0.82233(18) 0.05991(11) 0.1789(2)
O3 O 0.80814(14) -0.00959(8) 0.4997(3)
O4 O 0.69123(16) 0.07288(11) 0.4785(4)
C1 C 0.5956(3) 0.37398(17) 0.3441(5)
H1 H 0.6377 0.3956 0.4455
H2 H 0.5210 0.3789 0.3360
H3 H 0.6101 0.3950 0.2480
C2 C 0.6238(2) 0.29888(15) 0.3487(5)
H4 H 0.6007 0.2772 0.4380
H5 H 0.5839 0.2783 0.2427
C3 C 0.7384(2) 0.28438(11) 0.3764(3)
H6 H 0.7905 0.3182 0.3950
C4 C 0.76334(18) 0.20973(11) 0.3717(3)
H7 H 0.7169 0.1839 0.2878
C5 C 0.84544(16) 0.17686(9) 0.4759(3)
C6 C 0.93038(16) 0.20403(10) 0.6141(3)
H8 H 0.9341 0.2494 0.6477
C7 C 1.00334(15) 0.15699(9) 0.6888(2)
C8 C 1.10143(15) 0.16638(9) 0.8268(2)
C9 C 1.17608(16) 0.11511(10) 0.8726(3)
H9 H 1.1635 0.0741 0.8137
C10 C 1.27136(16) 0.12258(10) 1.0063(3)
C11 C 1.34832(19) 0.07003(13) 1.0526(4)
H10 H 1.3376 0.0293 0.9925
C12 C 1.4379(2) 0.07851(15) 1.1842(4)
H11 H 1.4882 0.0436 1.2131
C13 C 1.4551(2) 0.13947(15) 1.2767(4)
H12 H 1.5165 0.1446 1.3668
C14 C 1.12221(17) 0.22916(10) 0.9182(3)
H13 H 1.0736 0.2649 0.8879
C15 C 1.21228(18) 0.23714(11) 1.0489(3)
H14 H 1.2237 0.2783 1.1074
C16 C 1.28912(16) 0.18457(11) 1.0983(3)
C17 C 1.38263(19) 0.19113(14) 1.2359(3)
H15 H 1.3946 0.2312 1.2989
C18 C 0.97212(16) 0.08778(9) 0.6104(3)
H16 H 0.9584 0.0563 0.6923
H17 H 1.0283 0.0692 0.5676
C19 C 0.86906(15) 0.10056(9) 0.4644(2)
C20 C 0.88630(18) 0.08676(9) 0.2936(3)
C21 C 1.0055(3) 0.09877(18) 0.1297(4)
H18 H 1.0077 0.0507 0.1093
H19 H 1.0741 0.1185 0.1372
H20 H 0.9521 0.1197 0.0385
C22 C 0.77777(17) 0.05472(10) 0.4807(3)
C23 C 0.7286(3) -0.05953(14) 0.5108(5)
H21 H 0.6939 -0.0450 0.5929
H22 H 0.7627 -0.1028 0.5440
H23 H 0.6764 -0.0640 0.4026
loop_
_geom_bond_atom_site_label_1
_geom_bond_atom_site_label_2
_geom_bond_site_symmetry_1
_geom_bond_site_symmetry_2
O1 C20 1_555 1_555
O2 C20 1_555 1_555
O3 C22 1_555 1_555
O4 C22 1_555 1_555
C1 H1 1_555 1_555
H2 C1 1_555 1_555
H3 C1 1_555 1_555
C2 C1 1_555 1_555
H4 C2 1_555 1_555
H5 C2 1_555 1_555
C3 C2 1_555 1_555
H6 C3 1_555 1_555
C4 C3 1_555 1_555
H7 C4 1_555 1_555
C5 C4 1_555 1_555
C6 C5 1_555 1_555
H8 C6 1_555 1_555
C7 C6 1_555 1_555
C8 C7 1_555 1_555
C9 C8 1_555 1_555
H9 C9 1_555 1_555
C10 C9 1_555 1_555
C11 C10 1_555 1_555
H10 C11 1_555 1_555
C12 C11 1_555 1_555
H11 C12 1_555 1_555
C13 C12 1_555 1_555
H12 C13 1_555 1_555
C14 C8 1_555 1_555
H13 C14 1_555 1_555
C15 C14 1_555 1_555
H14 C15 1_555 1_555
C16 C10 1_555 1_555
C17 C13 1_555 1_555
H15 C17 1_555 1_555
C18 C7 1_555 1_555
H16 C18 1_555 1_555
H17 C18 1_555 1_555
C19 C5 1_555 1_555
C20 C19 1_555 1_555
C21 O1 1_555 1_555
H18 C21 1_555 1_555
H19 C21 1_555 1_555
H20 C21 1_555 1_555
C22 C19 1_555 1_555
C23 O3 1_555 1_555
H21 C23 1_555 1_555
H22 C23 1_555 1_555
H23 C23 1_555 1_555
C15 C16 1_555 1_555
C16 C17 1_555 1_555
C18 C19 1_555 1_555

#END
