
#######################################################################
#
#                 Cambridge Crystallographic Data Centre
#                                CCDC 
#
#######################################################################
#
# If this CIF has been generated from an entry in the Cambridge 
# Structural Database, then it will include bibliographic, chemical, 
# crystal, experimental, refinement or atomic coordinate data resulting 
# from the CCDC's data processing and validation procedures.
#
#######################################################################

data_CUGBIQ
_chemical_name_common            
N-(3-isopropyl-4-(methylsulfanyl)-1,2,3-oxadiazol-3-ium-5-yl)benzamide
_chemical_formula_moiety         'C13 H15 N3 O2 S1'
_chemical_name_systematic        
Benzoyl(3-isopropyl-4-(methylsulfanyl)-1,2,3-oxadiazol-3-ium-5-yl)azanide
_symmetry_cell_setting           triclinic
_symmetry_space_group_name_H-M   'P -1'
_symmetry_Int_Tables_number      2
_space_group_name_Hall           '-P 1'
loop_
_symmetry_equiv_pos_site_id
_symmetry_equiv_pos_as_xyz
1 x,y,z
2 -x,-y,-z
_cell_length_a                   10.2520(4)
_cell_length_b                   11.2447(4)
_cell_length_c                   23.8900(8)
_cell_angle_alpha                103.240(5)
_cell_angle_beta                 91.368(5)
_cell_angle_gamma                90.574(5)
_cell_volume                     2679.75
_exptl_crystal_colour            colorless
_exptl_crystal_description       prism
_cell_formula_units_Z            8
loop_
_atom_site_label
_atom_site_type_symbol
_atom_site_fract_x
_atom_site_fract_y
_atom_site_fract_z
O1 O 1.17161(5) 0.94234(5) 0.47545(2)
N1 N 1.13747(6) 0.82063(5) 0.46987(2)
N2 N 1.03931(5) 0.80134(5) 0.43314(2)
C1 C 1.00270(6) 0.90075(5) 0.41395(3)
C2 C 1.09282(6) 0.99346(5) 0.43992(3)
N3 N 1.10870(6) 1.10181(5) 0.42954(3)
C3 C 1.19485(6) 1.18497(6) 0.46232(3)
O2 O 1.23410(6) 1.18564(5) 0.51155(2)
C4 C 1.23981(6) 1.28247(6) 0.43311(3)
C5 C 1.20664(7) 1.27926(7) 0.37581(3)
H1 H 1.1508(15) 1.2166(14) 0.3556(6)
C6 C 1.25834(8) 1.36602(7) 0.34879(3)
H2 H 1.2375(15) 1.3642(14) 0.3100(7)
C7 C 1.34333(8) 1.45706(7) 0.37887(4)
H3 H 1.3823(15) 1.5150(14) 0.3609(7)
C8 C 1.37425(8) 1.46196(7) 0.43653(4)
H4 H 1.4313(15) 1.5254(14) 0.4583(7)
C9 C 1.32281(7) 1.37557(6) 0.46354(3)
H5 H 1.3439(16) 1.3784(15) 0.5033(7)
C10 C 0.98444(7) 0.67474(6) 0.41296(3)
H6 H 0.8927(14) 0.6862(13) 0.4120(6)
C11 C 1.02230(9) 0.59731(7) 0.45494(4)
H7 H 1.1170(16) 0.5825(15) 0.4541(7)
H8 H 0.9942(15) 0.6373(14) 0.4931(7)
H9 H 0.9774(16) 0.5190(15) 0.4424(7)
C12 C 1.03283(8) 0.62292(7) 0.35249(4)
H10 H 1.1270(16) 0.6259(15) 0.3528(7)
H11 H 1.0013(16) 0.5389(15) 0.3400(7)
H12 H 0.9971(18) 0.6668(17) 0.3239(8)
S1 S 0.869396(15) 0.907277(16) 0.369121(7)
C13 C 0.95248(9) 0.92360(10) 0.30521(4)
H13 H 1.0003(19) 0.8507(18) 0.2873(8)
H14 H 0.8873(18) 0.9377(17) 0.2787(8)
H15 H 1.019(2) 0.990(2) 0.3140(9)
O3 O 0.65888(5) 0.77856(4) 0.27428(2)
N4 N 0.62492(5) 0.89985(5) 0.28018(2)
N5 N 0.53121(5) 0.91657(5) 0.31695(2)
C14 C 0.49744(6) 0.81617(5) 0.33583(2)
C15 C 0.58468(6) 0.72549(5) 0.30972(2)
N6 N 0.60204(5) 0.61756(5) 0.32005(2)
C16 C 0.68510(6) 0.53555(6) 0.28798(3)
O4 O 0.71894(6) 0.53432(6) 0.23869(2)
C17 C 0.73300(6) 0.43982(6) 0.31796(3)
C18 C 0.70576(7) 0.44426(7) 0.37538(3)
H16 H 0.6514(15) 0.5083(14) 0.3955(6)
C19 C 0.75866(8) 0.35840(8) 0.40303(3)
H17 H 0.7429(16) 0.3629(15) 0.4418(7)
C20 C 0.83939(8) 0.26747(7) 0.37355(4)
H18 H 0.8765(15) 0.2081(14) 0.3924(7)
C21 C 0.86490(8) 0.26170(7) 0.31596(4)
H19 H 0.9197(16) 0.1975(15) 0.2945(7)
C22 C 0.81220(7) 0.34727(6) 0.28829(3)
H20 H 0.8297(15) 0.3460(14) 0.2483(7)
C23 C 0.47794(6) 1.04190(6) 0.33751(3)
H21 H 0.3868(14) 1.0280(13) 0.3387(6)
C24 C 0.50910(8) 1.12074(7) 0.29567(4)
H22 H 0.4787(15) 1.0829(14) 0.2570(7)
H23 H 0.6035(15) 1.1370(14) 0.2952(6)
H24 H 0.4660(16) 1.1980(15) 0.3081(7)
C25 C 0.53386(8) 1.09443(7) 0.39793(3)
H25 H 0.5040(17) 1.0488(16) 0.4252(8)
H26 H 0.6276(16) 1.0916(15) 0.3970(7)
H27 H 0.5039(15) 1.1789(14) 0.4100(7)
S2 S 0.370741(15) 0.806914(16) 0.381143(7)
C26 C 0.46413(8) 0.79188(9) 0.44443(3)
H28 H 0.4033(17) 0.7754(16) 0.4720(7)
H29 H 0.5129(17) 0.8657(16) 0.4603(7)
H30 H 0.5222(18) 0.7238(17) 0.4356(8)
O5 O 0.30718(5) 0.64682(5) 0.22645(2)
N7 N 0.34222(6) 0.52563(6) 0.21992(3)
N8 N 0.43702(5) 0.51108(5) 0.18371(2)
C27 C 0.47082(6) 0.61293(5) 0.16602(3)
C28 C 0.38237(6) 0.70230(5) 0.19221(2)
N9 N 0.36470(5) 0.81094(5) 0.18279(2)
C29 C 0.28204(6) 0.89171(6) 0.21568(3)
O6 O 0.24960(6) 0.89073(6) 0.26495(2)
C30 C 0.23328(6) 0.98919(6) 0.18719(3)
C31 C 0.24709(7) 0.98078(6) 0.12838(3)
H31 H 0.2902(15) 0.9113(14) 0.1044(6)
C32 C 0.19239(8) 1.06895(8) 0.10274(3)
H32 H 0.2005(14) 1.0636(14) 0.0632(6)
C33 C 0.12471(8) 1.16637(7) 0.13541(4)
H33 H 0.0855(15) 1.2273(14) 0.1179(6)
C34 C 0.11246(8) 1.17580(7) 0.19427(3)
H34 H 0.0674(16) 1.2453(15) 0.2174(7)
C35 C 0.16590(7) 1.08750(6) 0.21997(3)
H35 H 0.1600(15) 1.0917(14) 0.2609(7)
C36 C 0.49075(7) 0.38631(6) 0.16215(3)
H36 H 0.5818(14) 0.3997(13) 0.1590(6)
C37 C 0.46359(9) 0.30638(8) 0.20392(4)
H37 H 0.3699(15) 0.2899(14) 0.2053(6)
H38 H 0.5006(16) 0.3469(15) 0.2422(7)
H39 H 0.5053(16) 0.2319(15) 0.1910(7)
C38 C 0.43118(9) 0.33492(7) 0.10228(4)
H40 H 0.4607(16) 0.2513(15) 0.0884(7)
H41 H 0.4601(17) 0.3820(16) 0.0754(7)
H42 H 0.3376(17) 0.3356(15) 0.1040(7)
S3 S 0.596117(16) 0.624637(16) 0.120340(7)
C39 C 0.49977(8) 0.64855(8) 0.05933(3)
H43 H 0.4418(15) 0.7135(14) 0.0714(7)
H44 H 0.4478(16) 0.5718(16) 0.0411(7)
H45 H 0.5605(18) 0.6673(17) 0.0329(8)
O7 O -0.20926(5) 0.47712(5) 0.02134(2)
N10 N -0.17674(6) 0.59793(6) 0.02275(3)
N11 N -0.07678(5) 0.62290(5) 0.05837(2)
C40 C -0.03743(6) 0.52826(6) 0.08079(3)
C41 C -0.12802(6) 0.43272(6) 0.05856(3)
N12 N -0.14125(6) 0.32826(5) 0.07279(2)
C42 C -0.22550(6) 0.23900(6) 0.04261(3)
O8 O -0.26355(6) 0.22944(6) -0.00758(2)
C43 C -0.26827(6) 0.14789(6) 0.07575(3)
C44 C -0.22662(8) 0.15585(7) 0.13259(3)
H46 H -0.1670(15) 0.2164(14) 0.1507(6)
C45 C -0.27441(9) 0.07337(8) 0.16303(4)
H47 H -0.2474(16) 0.0806(15) 0.2018(7)
C46 C -0.36505(9) -0.01671(8) 0.13723(4)
H48 H -0.3991(17) -0.0711(16) 0.1577(7)
C47 C -0.40574(8) -0.02558(7) 0.08043(4)
H49 H -0.4666(16) -0.0889(15) 0.0615(7)
C48 C -0.35714(7) 0.05558(7) 0.04965(4)
H50 H -0.3855(16) 0.0523(15) 0.0104(7)
C49 C -0.02220(7) 0.75098(6) 0.07320(3)
H51 H 0.0733(14) 0.7419(13) 0.0692(6)
C50 C -0.07380(9) 0.82282(8) 0.03090(4)
H52 H -0.1699(16) 0.8368(15) 0.0353(7)
H53 H -0.0572(16) 0.7807(15) -0.0089(7)
H54 H -0.0302(17) 0.9031(16) 0.0385(7)
C51 C -0.05706(9) 0.80913(7) 0.13505(4)
H55 H -0.1491(16) 0.8062(14) 0.1391(7)
H56 H -0.0302(16) 0.8944(15) 0.1427(7)
H57 H -0.0089(16) 0.7716(15) 0.1627(7)
S4 S 0.095333(16) 0.528105(17) 0.126814(7)
C52 C 0.01065(9) 0.51982(10) 0.19160(4)
H58 H 0.0732(17) 0.5108(16) 0.2187(8)
H59 H -0.0530(19) 0.4520(18) 0.1828(8)
H60 H -0.0354(19) 0.5934(18) 0.2072(8)
loop_
_geom_bond_atom_site_label_1
_geom_bond_atom_site_label_2
_geom_bond_site_symmetry_1
_geom_bond_site_symmetry_2
O1 N1 1_555 1_555
N1 N2 1_555 1_555
N2 C1 1_555 1_555
C1 C2 1_555 1_555
C2 O1 1_555 1_555
N3 C2 1_555 1_555
C3 N3 1_555 1_555
O2 C3 1_555 1_555
C4 C3 1_555 1_555
C5 C4 1_555 1_555
H1 C5 1_555 1_555
C6 C5 1_555 1_555
H2 C6 1_555 1_555
C7 C6 1_555 1_555
H3 C7 1_555 1_555
C8 C7 1_555 1_555
H4 C8 1_555 1_555
C9 C4 1_555 1_555
H5 C9 1_555 1_555
C10 N2 1_555 1_555
H6 C10 1_555 1_555
C11 C10 1_555 1_555
H7 C11 1_555 1_555
H8 C11 1_555 1_555
H9 C11 1_555 1_555
C12 C10 1_555 1_555
H10 C12 1_555 1_555
H11 C12 1_555 1_555
H12 C12 1_555 1_555
S1 C1 1_555 1_555
C13 S1 1_555 1_555
H13 C13 1_555 1_555
H14 C13 1_555 1_555
H15 C13 1_555 1_555
O3 N4 1_555 1_555
N4 N5 1_555 1_555
N5 C14 1_555 1_555
C14 C15 1_555 1_555
C15 O3 1_555 1_555
N6 C15 1_555 1_555
C16 N6 1_555 1_555
O4 C16 1_555 1_555
C17 C16 1_555 1_555
C18 C17 1_555 1_555
H16 C18 1_555 1_555
C19 C18 1_555 1_555
H17 C19 1_555 1_555
C20 C19 1_555 1_555
H18 C20 1_555 1_555
C21 C20 1_555 1_555
H19 C21 1_555 1_555
C22 C17 1_555 1_555
H20 C22 1_555 1_555
C23 N5 1_555 1_555
H21 C23 1_555 1_555
C24 C23 1_555 1_555
H22 C24 1_555 1_555
H23 C24 1_555 1_555
H24 C24 1_555 1_555
C25 C23 1_555 1_555
H25 C25 1_555 1_555
H26 C25 1_555 1_555
H27 C25 1_555 1_555
S2 C14 1_555 1_555
C26 S2 1_555 1_555
H28 C26 1_555 1_555
H29 C26 1_555 1_555
H30 C26 1_555 1_555
O5 N7 1_555 1_555
N7 N8 1_555 1_555
N8 C27 1_555 1_555
C27 C28 1_555 1_555
C28 O5 1_555 1_555
N9 C28 1_555 1_555
C29 N9 1_555 1_555
O6 C29 1_555 1_555
C30 C29 1_555 1_555
C31 C30 1_555 1_555
H31 C31 1_555 1_555
C32 C31 1_555 1_555
H32 C32 1_555 1_555
C33 C32 1_555 1_555
H33 C33 1_555 1_555
C34 C33 1_555 1_555
H34 C34 1_555 1_555
C35 C30 1_555 1_555
H35 C35 1_555 1_555
C36 N8 1_555 1_555
H36 C36 1_555 1_555
C37 C36 1_555 1_555
H37 C37 1_555 1_555
H38 C37 1_555 1_555
H39 C37 1_555 1_555
C38 C36 1_555 1_555
H40 C38 1_555 1_555
H41 C38 1_555 1_555
H42 C38 1_555 1_555
S3 C27 1_555 1_555
C39 S3 1_555 1_555
H43 C39 1_555 1_555
H44 C39 1_555 1_555
H45 C39 1_555 1_555
O7 N10 1_555 1_555
N10 N11 1_555 1_555
N11 C40 1_555 1_555
C40 C41 1_555 1_555
C41 O7 1_555 1_555
N12 C41 1_555 1_555
C42 N12 1_555 1_555
O8 C42 1_555 1_555
C43 C42 1_555 1_555
C44 C43 1_555 1_555
H46 C44 1_555 1_555
C45 C44 1_555 1_555
H47 C45 1_555 1_555
C46 C45 1_555 1_555
H48 C46 1_555 1_555
C47 C46 1_555 1_555
H49 C47 1_555 1_555
C48 C43 1_555 1_555
H50 C48 1_555 1_555
C49 N11 1_555 1_555
H51 C49 1_555 1_555
C50 C49 1_555 1_555
H52 C50 1_555 1_555
H53 C50 1_555 1_555
H54 C50 1_555 1_555
C51 C49 1_555 1_555
H55 C51 1_555 1_555
H56 C51 1_555 1_555
H57 C51 1_555 1_555
S4 C40 1_555 1_555
C52 S4 1_555 1_555
H58 C52 1_555 1_555
H59 C52 1_555 1_555
H60 C52 1_555 1_555
C8 C9 1_555 1_555
C21 C22 1_555 1_555
C34 C35 1_555 1_555
C47 C48 1_555 1_555

#END
