
#######################################################################
#
#                 Cambridge Crystallographic Data Centre
#                                CCDC 
#
#######################################################################
#
# If this CIF has been generated from an entry in the Cambridge 
# Structural Database, then it will include bibliographic, chemical, 
# crystal, experimental, refinement or atomic coordinate data resulting 
# from the CCDC's data processing and validation procedures.
#
#######################################################################

data_CUGCOW
_chemical_formula_moiety         'C8 H1 N7 O14'
_chemical_name_systematic        Heptanitrocubane
_symmetry_cell_setting           orthorhombic
_symmetry_space_group_name_H-M   'P b c n'
_symmetry_Int_Tables_number      60
_space_group_name_Hall           '-P 2n 2ab'
loop_
_symmetry_equiv_pos_site_id
_symmetry_equiv_pos_as_xyz
1 x,y,z
2 1/2+x,1/2+y,1/2-z
3 x,-y,1/2+z
4 1/2-x,1/2+y,z
5 -x,-y,-z
6 1/2-x,1/2-y,1/2+z
7 -x,y,1/2-z
8 1/2+x,1/2-y,-z
_cell_length_a                   23.5942(13)
_cell_length_b                   8.1735(7)
_cell_length_c                   14.2642(5)
_cell_angle_alpha                90
_cell_angle_beta                 90
_cell_angle_gamma                90
_cell_volume                     2750.81
_exptl_crystal_colour            colorless
_exptl_crystal_description       prism
_cell_formula_units_Z            8
_exptl_crystal_recrystallization_method 'fuming nitric acid/sulfuric acid'
loop_
_atom_site_label
_atom_site_type_symbol
_atom_site_fract_x
_atom_site_fract_y
_atom_site_fract_z
C1 C 0.32869(10) 0.3136(3) 0.45156(16)
N1 N 0.27992(8) 0.3707(3) 0.39550(15)
O1 O 0.29059(9) 0.4750(3) 0.33873(15)
O2 O 0.23451(8) 0.3081(3) 0.41027(15)
C2 C 0.32636(9) 0.2124(3) 0.54517(16)
N2 N 0.27414(9) 0.1586(3) 0.59462(15)
O3 O 0.26210(9) 0.2294(3) 0.66505(14)
O4 O 0.24779(9) 0.0497(3) 0.55681(15)
C3 C 0.37354(10) 0.3262(3) 0.58578(17)
N3 N 0.37484(8) 0.3934(3) 0.68201(15)
O5 O 0.37913(9) 0.2942(3) 0.74397(14)
O6 O 0.37187(9) 0.5408(3) 0.68903(14)
C4 C 0.41952(10) 0.2059(3) 0.54781(17)
N4 N 0.46869(9) 0.1444(3) 0.60260(16)
O7 O 0.49266(10) 0.2429(3) 0.64952(17)
O8 O 0.47994(10) 0.0025(3) 0.5920(2)
C5 C 0.37250(10) 0.0959(3) 0.50432(17)
N5 N 0.37238(8) -0.0849(3) 0.50957(16)
O9 O 0.39082(9) -0.1576(2) 0.44236(14)
O10 O 0.35429(10) -0.1423(3) 0.58128(15)
C6 C 0.37530(9) 0.1976(3) 0.41154(16)
N6 N 0.37471(9) 0.1235(3) 0.31666(14)
O11 O 0.41989(8) 0.1000(3) 0.27992(14)
O12 O 0.32811(8) 0.0898(3) 0.28707(13)
C7 C 0.42205(10) 0.3079(3) 0.45519(17)
N7 N 0.47336(9) 0.3662(3) 0.40711(16)
O13 O 0.46589(10) 0.4314(4) 0.33362(17)
O14 O 0.51775(8) 0.3513(3) 0.44742(17)
C8 C 0.37542(10) 0.4268(3) 0.49353(18)
H1 H 0.3763 0.5464 0.4892
loop_
_geom_bond_atom_site_label_1
_geom_bond_atom_site_label_2
_geom_bond_site_symmetry_1
_geom_bond_site_symmetry_2
C1 N1 1_555 1_555
N1 O1 1_555 1_555
O2 N1 1_555 1_555
C2 C1 1_555 1_555
N2 C2 1_555 1_555
O3 N2 1_555 1_555
O4 N2 1_555 1_555
C3 C2 1_555 1_555
N3 C3 1_555 1_555
O5 N3 1_555 1_555
O6 N3 1_555 1_555
C4 C3 1_555 1_555
N4 C4 1_555 1_555
O7 N4 1_555 1_555
O8 N4 1_555 1_555
C5 C2 1_555 1_555
N5 C5 1_555 1_555
O9 N5 1_555 1_555
O10 N5 1_555 1_555
C6 C1 1_555 1_555
N6 C6 1_555 1_555
O11 N6 1_555 1_555
O12 N6 1_555 1_555
C7 C4 1_555 1_555
N7 C7 1_555 1_555
O13 N7 1_555 1_555
O14 N7 1_555 1_555
C8 C1 1_555 1_555
H1 C8 1_555 1_555
C3 C8 1_555 1_555
C4 C5 1_555 1_555
C5 C6 1_555 1_555
C6 C7 1_555 1_555
C7 C8 1_555 1_555

#END
