
#######################################################################
#
#                 Cambridge Crystallographic Data Centre
#                                CCDC 
#
#######################################################################
#
# If this CIF has been generated from an entry in the Cambridge 
# Structural Database, then it will include bibliographic, chemical, 
# crystal, experimental, refinement or atomic coordinate data resulting 
# from the CCDC's data processing and validation procedures.
#
#######################################################################

data_CUGFIU
_chemical_formula_moiety         'C17 H17 Cl1 N1 O5 P1'
_chemical_name_systematic        
"2'-(2-Chloroethoxy)-4'H-spiro[cyclopentane-1,3'-naphtho[2,3-e][1,4,2]oxazaphosphinine]-5',10'-dione 2'-oxide"
_symmetry_cell_setting           monoclinic
_symmetry_space_group_name_H-M   'P 21/c'
_symmetry_Int_Tables_number      14
_space_group_name_Hall           '-P 2ybc'
loop_
_symmetry_equiv_pos_site_id
_symmetry_equiv_pos_as_xyz
1 x,y,z
2 -x,1/2+y,1/2-z
3 -x,-y,-z
4 x,1/2-y,1/2+z
_cell_length_a                   8.3947(16)
_cell_length_b                   16.079(3)
_cell_length_c                   12.547(2)
_cell_angle_alpha                90
_cell_angle_beta                 98.156(10)
_cell_angle_gamma                90
_cell_volume                     1676.44
_exptl_crystal_colour            red
_exptl_crystal_description       platelet
_cell_formula_units_Z            4
loop_
_atom_site_label
_atom_site_type_symbol
_atom_site_fract_x
_atom_site_fract_y
_atom_site_fract_z
P1 P 0.53618(15) 0.15988(8) 0.63996(9)
O1 O 0.8494(4) -0.0504(2) 0.7158(3)
O2 O 0.6115(4) 0.1008(2) 1.0432(2)
O3 O 0.6685(4) 0.08824(18) 0.6695(2)
O4 O 0.5464(4) 0.19452(18) 0.5320(2)
O5 O 0.3700(4) 0.11719(19) 0.6529(2)
N1 N 0.5791(5) 0.1788(2) 0.8523(3)
H1 H 0.552(5) 0.202(2) 0.908(2)
C1 C 0.9173(6) -0.1247(3) 0.9236(5)
H2 H 0.9627 -0.1502 0.8667
C2 C 0.9406(7) -0.1601(3) 1.0265(5)
H3 H 1.0030 -0.2092 1.0397
C3 C 0.8712(7) -0.1226(3) 1.1105(5)
H4 H 0.8853 -0.1472 1.1801
C4 C 0.7832(6) -0.0504(3) 1.0924(4)
H5 H 0.7375 -0.0252 1.1495
C5 C 0.7608(6) -0.0140(3) 0.9895(4)
C6 C 0.8275(6) -0.0520(3) 0.9046(4)
C7 C 0.7945(6) -0.0156(3) 0.7918(4)
C8 C 0.7006(6) 0.0598(3) 0.7777(3)
C9 C 0.6513(5) 0.1032(3) 0.8606(3)
C10 C 0.6713(6) 0.0650(3) 0.9729(4)
C11 C 0.5773(5) 0.2306(3) 0.7543(3)
C12 C 0.4562(6) 0.3032(3) 0.7530(3)
H6 H 0.4001 0.3125 0.6791
H7 H 0.3748 0.2907 0.8006
C13 C 0.5544(6) 0.3804(3) 0.7934(4)
H8 H 0.5162 0.4031 0.8586
H9 H 0.5440 0.4241 0.7373
C14 C 0.7326(6) 0.3513(3) 0.8198(4)
H10 H 0.8071 0.3949 0.8009
H11 H 0.7600 0.3377 0.8972
C15 C 0.7412(5) 0.2744(3) 0.7507(3)
H12 H 0.8318 0.2381 0.7807
H13 H 0.7541 0.2897 0.6760
C16 C 0.2820(6) 0.0735(3) 0.5606(4)
H14 H 0.2416 0.0219 0.5844
H15 H 0.3552 0.0610 0.5106
C17 C 0.1512(8) 0.1211(5) 0.5063(5)
H16 H 0.1064 0.0916 0.4395
H17 H 0.1930 0.1753 0.4853
Cl1 Cl -0.0043(15) 0.1390(9) 0.5831(7)
C18? C 0.1035(15) 0.0643(8) 0.5748(10)
Cl2? Cl 0.003(3) 0.1511(15) 0.6077(12)
H18? H 0.3295 0.0197 0.5550
H19? H 0.2907 0.1037 0.4957
H20? H 0.0967 0.0221 0.6314
H21? H 0.0452 0.0418 0.5068
loop_
_geom_bond_atom_site_label_1
_geom_bond_atom_site_label_2
_geom_bond_site_symmetry_1
_geom_bond_site_symmetry_2
P1 O3 1_555 1_555
O1 C7 1_555 1_555
O2 C10 1_555 1_555
O3 C8 1_555 1_555
O4 P1 1_555 1_555
O5 P1 1_555 1_555
N1 H1 1_555 1_555
C1 H2 1_555 1_555
C2 C1 1_555 1_555
H3 C2 1_555 1_555
C3 C2 1_555 1_555
H4 C3 1_555 1_555
C4 C3 1_555 1_555
H5 C4 1_555 1_555
C5 C4 1_555 1_555
C6 C1 1_555 1_555
C7 C6 1_555 1_555
C8 C7 1_555 1_555
C9 N1 1_555 1_555
C10 C5 1_555 1_555
C11 P1 1_555 1_555
C12 C11 1_555 1_555
H6 C12 1_555 1_555
H7 C12 1_555 1_555
C13 C12 1_555 1_555
H8 C13 1_555 1_555
H9 C13 1_555 1_555
C14 C13 1_555 1_555
H10 C14 1_555 1_555
H11 C14 1_555 1_555
C15 C11 1_555 1_555
H12 C15 1_555 1_555
H13 C15 1_555 1_555
C16 O5 1_555 1_555
H14 C16 1_555 1_555
H15 C16 1_555 1_555
C17 C16 1_555 1_555
H16 C17 1_555 1_555
H17 C17 1_555 1_555
Cl1 C17 1_555 1_555
N1 C11 1_555 1_555
C5 C6 1_555 1_555
C8 C9 1_555 1_555
C9 C10 1_555 1_555
C14 C15 1_555 1_555

#END
