
#######################################################################
#
#                 Cambridge Crystallographic Data Centre
#                                CCDC 
#
#######################################################################
#
# If this CIF has been generated from an entry in the Cambridge 
# Structural Database, then it will include bibliographic, chemical, 
# crystal, experimental, refinement or atomic coordinate data resulting 
# from the CCDC's data processing and validation procedures.
#
#######################################################################

data_CUGFEQ
_chemical_formula_moiety         'C21 H15 N3 O2'
_chemical_name_systematic        
4-Methyl-3-(4-methyl-1H-benzotriazol-1-yl)-2H-benzo[h]chromen-2-one
_symmetry_cell_setting           monoclinic
_symmetry_space_group_name_H-M   'P 21/n'
_symmetry_Int_Tables_number      14
_space_group_name_Hall           '-P 2yn'
loop_
_symmetry_equiv_pos_site_id
_symmetry_equiv_pos_as_xyz
1 x,y,z
2 1/2-x,1/2+y,1/2-z
3 -x,-y,-z
4 1/2+x,1/2-y,1/2+z
_cell_length_a                   7.3632(9)
_cell_length_b                   14.0875(18)
_cell_length_c                   16.004(2)
_cell_angle_alpha                90
_cell_angle_beta                 93.699(2)
_cell_angle_gamma                90
_cell_volume                     1656.62
_cell_formula_units_Z            4
loop_
_atom_site_label
_atom_site_type_symbol
_atom_site_fract_x
_atom_site_fract_y
_atom_site_fract_z
C1 C 0.2419(3) 0.57171(14) 0.03732(12)
C2 C 0.2915(3) 0.57129(14) -0.04700(12)
C3 C 0.3380(3) 0.65404(16) -0.09047(13)
H1 H 0.3350 0.7141 -0.0636
C4 C 0.3874(3) 0.64789(17) -0.17135(14)
H2 H 0.4195 0.7037 -0.2002
C5 C 0.3909(3) 0.55936(17) -0.21195(13)
H3 H 0.4251 0.5558 -0.2681
C6 C 0.3456(3) 0.47864(17) -0.17116(13)
H4 H 0.3484 0.4194 -0.1994
C7 C 0.2946(3) 0.48156(15) -0.08763(12)
C8 C 0.2456(3) 0.39874(15) -0.04399(13)
H5 H 0.2450 0.3392 -0.0718
C9 C 0.1996(3) 0.40285(14) 0.03651(13)
H6 H 0.1678 0.3462 0.0643
C10 C 0.1982(3) 0.49097(14) 0.08020(12)
C11 C 0.1573(3) 0.49896(14) 0.16742(12)
C12 C 0.1593(3) 0.58726(15) 0.20180(13)
C13 C 0.1906(3) 0.67286(16) 0.15468(13)
C14 C 0.1166(3) 0.41221(15) 0.21602(13)
H7 H 0.1008 0.4296 0.2744
H8 H 0.2177 0.3672 0.2138
H9 H 0.0047 0.3828 0.1918
C15 C 0.1306(3) 0.62211(14) 0.42246(12)
C16 C 0.2028(3) 0.63433(14) 0.50573(12)
C17 C 0.3888(3) 0.63898(16) 0.51554(14)
H10 H 0.4446 0.6469 0.5703
C18 C 0.5003(3) 0.63242(18) 0.44773(15)
H11 H 0.6285 0.6361 0.4583
C19 C 0.4308(3) 0.62090(17) 0.36703(14)
H12 H 0.5068 0.6170 0.3214
C20 C 0.2423(3) 0.61524(14) 0.35587(13)
C21 C 0.0795(4) 0.64082(18) 0.57682(14)
H13 H 0.1529 0.6488 0.6296
H14 H 0.0073 0.5825 0.5791
H15 H -0.0021 0.6954 0.5680
N1 N 0.1225(2) 0.60200(12) 0.28742(10)
N2 N -0.0522(2) 0.60222(13) 0.31153(12)
N3 N -0.0475(2) 0.61421(13) 0.39211(11)
O1 O 0.2387(2) 0.66004(10) 0.07384(9)
O2 O 0.1772(3) 0.75346(11) 0.17923(10)
loop_
_geom_bond_atom_site_label_1
_geom_bond_atom_site_label_2
_geom_bond_site_symmetry_1
_geom_bond_site_symmetry_2
C1 C2 1_555 1_555
C2 C3 1_555 1_555
C3 H1 1_555 1_555
C4 C3 1_555 1_555
H2 C4 1_555 1_555
C5 C4 1_555 1_555
H3 C5 1_555 1_555
C6 C5 1_555 1_555
H4 C6 1_555 1_555
C7 C2 1_555 1_555
C8 C7 1_555 1_555
H5 C8 1_555 1_555
C9 C8 1_555 1_555
H6 C9 1_555 1_555
C10 C1 1_555 1_555
C11 C10 1_555 1_555
C12 C11 1_555 1_555
C13 C12 1_555 1_555
C14 C11 1_555 1_555
H7 C14 1_555 1_555
H8 C14 1_555 1_555
H9 C14 1_555 1_555
C15 C16 1_555 1_555
C16 C17 1_555 1_555
C17 H10 1_555 1_555
C18 C17 1_555 1_555
H11 C18 1_555 1_555
C19 C18 1_555 1_555
H12 C19 1_555 1_555
C20 C15 1_555 1_555
C21 C16 1_555 1_555
H13 C21 1_555 1_555
H14 C21 1_555 1_555
H15 C21 1_555 1_555
N1 C12 1_555 1_555
N2 N1 1_555 1_555
N3 C15 1_555 1_555
O1 C1 1_555 1_555
O2 C13 1_555 1_555
C6 C7 1_555 1_555
C9 C10 1_555 1_555
C13 O1 1_555 1_555
C19 C20 1_555 1_555
C20 N1 1_555 1_555
N2 N3 1_555 1_555

#END
