
#######################################################################
#
#                 Cambridge Crystallographic Data Centre
#                                CCDC 
#
#######################################################################
#
# If this CIF has been generated from an entry in the Cambridge 
# Structural Database, then it will include bibliographic, chemical, 
# crystal, experimental, refinement or atomic coordinate data resulting 
# from the CCDC's data processing and validation procedures.
#
#######################################################################

data_CUGGUH
_chemical_formula_moiety         'C19 H14 Cl2 F1 N3 O1'
_chemical_name_systematic        
5-(1-(2,4-Dichlorobenzyl)-5-fluoro-3-methyl-1H-indol-7-yl)-1,2-oxazol-3-amine
_symmetry_cell_setting           triclinic
_symmetry_space_group_name_H-M   'P -1'
_symmetry_Int_Tables_number      2
_space_group_name_Hall           '-P 1'
loop_
_symmetry_equiv_pos_site_id
_symmetry_equiv_pos_as_xyz
1 x,y,z
2 -x,-y,-z
_cell_length_a                   9.3960(4)
_cell_length_b                   10.0670(4)
_cell_length_c                   11.0670(5)
_cell_angle_alpha                114.423(2)
_cell_angle_beta                 102.367(2)
_cell_angle_gamma                101.670(3)
_cell_volume                     879.85
_exptl_crystal_colour            colorless
_exptl_crystal_description       prism
_cell_formula_units_Z            2
loop_
_atom_site_label
_atom_site_type_symbol
_atom_site_fract_x
_atom_site_fract_y
_atom_site_fract_z
Cl1 Cl 0.52216(8) 0.37865(8) 0.06736(7)
Cl2 Cl 0.78868(7) -0.06103(8) -0.07752(7)
F1 F 0.96740(19) 0.63851(18) 1.00974(16)
O1 O 0.90043(19) 0.80893(18) 0.64642(18)
N1 N 0.9520(2) 0.8768(2) 0.5672(2)
N2 N 1.0014(3) 0.7846(3) 0.3542(3)
H1 H 1.0313 0.8785 0.3645
H2 H 1.0021 0.7060 0.2794
N3 N 0.5758(2) 0.3582(2) 0.4682(2)
C1 C 0.8714(3) 0.6534(3) 0.5739(3)
C2 C 0.9047(3) 0.6180(3) 0.4547(3)
H3 H 0.8970 0.5188 0.3856
C3 C 0.9541(3) 0.7610(3) 0.4542(3)
C4 C 0.6941(3) 0.4401(3) 0.5959(2)
C5 C 0.8245(3) 0.5718(3) 0.6498(3)
C6 C 0.9140(3) 0.6338(3) 0.7904(3)
H4 H 1.0035 0.7237 0.8316
C7 C 0.8761(3) 0.5682(3) 0.8726(3)
C8 C 0.7508(3) 0.4394(3) 0.8220(3)
H5 H 0.7282 0.3960 0.8801
C9 C 0.6578(3) 0.3745(3) 0.6820(3)
C10 C 0.5152(3) 0.2490(3) 0.6005(3)
C11 C 0.4716(3) 0.2442(3) 0.4735(3)
H6 H 0.3807 0.1715 0.3976
C12 C 0.4320(3) 0.1477(3) 0.6485(3)
H7 H 0.3328 0.0783 0.5751
H8 H 0.4145 0.2118 0.7350
H9 H 0.4944 0.0867 0.6668
C13 C 0.5584(3) 0.3710(3) 0.3400(2)
H10 H 0.6127 0.4788 0.3653
H11 H 0.4476 0.3473 0.2919
C14 C 0.6211(3) 0.2635(3) 0.2389(2)
C15 C 0.6899(3) 0.1659(3) 0.2692(3)
H12 H 0.7034 0.1692 0.3581
C16 C 0.7395(3) 0.0629(3) 0.1711(3)
H13 H 0.7846 -0.0047 0.1921
C17 C 0.7221(3) 0.0609(3) 0.0436(3)
C18 C 0.6562(3) 0.1579(3) 0.0107(3)
H14 H 0.6456 0.1565 -0.0771
C19 C 0.6061(3) 0.2567(3) 0.1087(3)
loop_
_geom_bond_atom_site_label_1
_geom_bond_atom_site_label_2
_geom_bond_site_symmetry_1
_geom_bond_site_symmetry_2
Cl1 C19 1_555 1_555
Cl2 C17 1_555 1_555
F1 C7 1_555 1_555
O1 N1 1_555 1_555
N1 C3 1_555 1_555
N2 H1 1_555 1_555
H2 N2 1_555 1_555
N3 C4 1_555 1_555
C1 O1 1_555 1_555
C2 C1 1_555 1_555
H3 C2 1_555 1_555
C3 N2 1_555 1_555
C4 C5 1_555 1_555
C5 C1 1_555 1_555
C6 C5 1_555 1_555
H4 C6 1_555 1_555
C7 C6 1_555 1_555
C8 C7 1_555 1_555
H5 C8 1_555 1_555
C9 C4 1_555 1_555
C10 C9 1_555 1_555
C11 N3 1_555 1_555
H6 C11 1_555 1_555
C12 C10 1_555 1_555
H7 C12 1_555 1_555
H8 C12 1_555 1_555
H9 C12 1_555 1_555
C13 N3 1_555 1_555
H10 C13 1_555 1_555
H11 C13 1_555 1_555
C14 C13 1_555 1_555
C15 C14 1_555 1_555
H12 C15 1_555 1_555
C16 C15 1_555 1_555
H13 C16 1_555 1_555
C17 C16 1_555 1_555
C18 C17 1_555 1_555
H14 C18 1_555 1_555
C19 C14 1_555 1_555
C2 C3 1_555 1_555
C8 C9 1_555 1_555
C10 C11 1_555 1_555
C18 C19 1_555 1_555

#END
