
#######################################################################
#
#                 Cambridge Crystallographic Data Centre
#                                CCDC 
#
#######################################################################
#
# If this CIF has been generated from an entry in the Cambridge 
# Structural Database, then it will include bibliographic, chemical, 
# crystal, experimental, refinement or atomic coordinate data resulting 
# from the CCDC's data processing and validation procedures.
#
#######################################################################

data_CUGHAO
_chemical_formula_moiety         'C24 H20 N4 O5'
_chemical_name_systematic        
'3-(1H-Benzotriazol-1-yl)-1-(4-nitrophenyl)-1-oxopropan-2-yl 4-ethylbenzoate'
_symmetry_cell_setting           monoclinic
_symmetry_space_group_name_H-M   'P 21/c'
_symmetry_Int_Tables_number      14
_space_group_name_Hall           '-P 2ybc'
loop_
_symmetry_equiv_pos_site_id
_symmetry_equiv_pos_as_xyz
1 x,y,z
2 -x,1/2+y,1/2-z
3 -x,-y,-z
4 x,1/2-y,1/2+z
_cell_length_a                   18.895(4)
_cell_length_b                   6.9805(14)
_cell_length_c                   18.105(4)
_cell_angle_alpha                90
_cell_angle_beta                 116.755(3)
_cell_angle_gamma                90
_cell_volume                     2132.33
_exptl_crystal_colour            colorless
_exptl_crystal_description       block
_cell_formula_units_Z            4
loop_
_atom_site_label
_atom_site_type_symbol
_atom_site_fract_x
_atom_site_fract_y
_atom_site_fract_z
O1 O 0.25729(11) 0.6089(3) 0.26303(11)
O2 O 0.32831(13) 0.5295(3) 0.19733(14)
O3 O 0.14560(14) 0.7213(3) 0.11595(12)
O4 O -0.01739(16) 0.1291(4) -0.21945(13)
O5 O 0.01231(16) -0.1142(4) -0.14018(14)
N1 N 0.23307(16) 0.1197(4) 0.41526(17)
N2 N 0.19349(16) 0.1652(4) 0.33821(17)
N3 N 0.18367(13) 0.3580(3) 0.33274(13)
N4 N 0.01234(14) 0.0571(4) -0.15133(15)
C1 C 0.24948(16) 0.2828(4) 0.46082(18)
C2 C 0.28915(18) 0.3108(6) 0.5469(2)
H1 H 0.3106 0.2090 0.5834
C3 C 0.2945(2) 0.4943(7) 0.5739(2)
H2 H 0.3200 0.5180 0.6305
C4 C 0.2634(2) 0.6475(6) 0.5202(2)
H3 H 0.2691 0.7703 0.5421
C5 C 0.22493(18) 0.6253(4) 0.43716(19)
H4 H 0.2041 0.7285 0.4013
C6 C 0.21861(15) 0.4375(4) 0.40899(16)
C7 C 0.14414(16) 0.4454(4) 0.25222(16)
H5 H 0.1234 0.5692 0.2572
H6 H 0.0998 0.3658 0.2165
C8 C 0.19977(16) 0.4713(4) 0.21330(15)
H7 H 0.2253 0.3497 0.2125
C9 C 0.31882(16) 0.6320(4) 0.24530(17)
C10 C 0.36888(16) 0.7943(4) 0.28896(17)
C11 C 0.3406(2) 0.9423(5) 0.3179(2)
H8 H 0.2900 0.9350 0.3144
C12 C 0.3865(2) 1.1008(6) 0.3520(3)
H9 H 0.3660 1.2020 0.3697
C13 C 0.4625(2) 1.1128(6) 0.3604(2)
C14 C 0.4907(2) 0.9627(6) 0.3327(2)
H10 H 0.5424 0.9671 0.3392
C15 C 0.44474(18) 0.8062(5) 0.29574(19)
H11 H 0.4643 0.7084 0.2753
C16 C 0.5116(3) 1.2938(7) 0.3979(3)
H12 H 0.5477 1.3167 0.3741
H13 H 0.4770 1.4041 0.3866
C17 C 0.5559(4) 1.2639(11) 0.4866(3)
H14 H 0.5875 1.3750 0.5117
H15 H 0.5897 1.1542 0.4970
H16 H 0.5196 1.2427 0.5096
C20 C 0.15335(17) 0.5498(4) 0.12565(16)
C21 C 0.11817(15) 0.4166(4) 0.05553(15)
C22 C 0.08669(16) 0.4917(4) -0.02410(16)
H22 H 0.0886 0.6232 -0.0313
C23 C 0.05308(16) 0.3759(4) -0.09187(16)
H23 H 0.0331 0.4262 -0.1450
C24 C 0.04966(15) 0.1828(4) -0.07922(16)
C25 C 0.08043(16) 0.1020(4) -0.00249(16)
H24 H 0.0778 -0.0296 0.0038
C26 C 0.11536(16) 0.2197(4) 0.06516(16)
H25 H 0.1374 0.1671 0.1180
C18? C 0.5116(3) 1.2938(7) 0.3979(3)
H17? H 0.5662 1.2604 0.4129
H18? H 0.4958 1.3862 0.3533
C19? C 0.513(2) 1.400(5) 0.4709(18)
H19? H 0.5424 1.5164 0.4795
H20? H 0.5367 1.3212 0.5194
H21? H 0.4592 1.4301 0.4602
loop_
_geom_bond_atom_site_label_1
_geom_bond_atom_site_label_2
_geom_bond_site_symmetry_1
_geom_bond_site_symmetry_2
O1 C8 1_555 1_555
O2 C9 1_555 1_555
O3 C20 1_555 1_555
O4 N4 1_555 1_555
O5 N4 1_555 1_555
N1 N2 1_555 1_555
N2 N3 1_555 1_555
N3 C6 1_555 1_555
N4 C24 1_555 1_555
C1 N1 1_555 1_555
C2 C1 1_555 1_555
H1 C2 1_555 1_555
C3 C2 1_555 1_555
H2 C3 1_555 1_555
C4 C3 1_555 1_555
H3 C4 1_555 1_555
C5 C4 1_555 1_555
H4 C5 1_555 1_555
C6 C1 1_555 1_555
C7 N3 1_555 1_555
H5 C7 1_555 1_555
H6 C7 1_555 1_555
C8 C7 1_555 1_555
H7 C8 1_555 1_555
C9 O1 1_555 1_555
C10 C9 1_555 1_555
C11 C10 1_555 1_555
H8 C11 1_555 1_555
C12 C11 1_555 1_555
H9 C12 1_555 1_555
C13 C12 1_555 1_555
C14 C13 1_555 1_555
H10 C14 1_555 1_555
C15 C10 1_555 1_555
H11 C15 1_555 1_555
C16 C13 1_555 1_555
H12 C16 1_555 1_555
H13 C16 1_555 1_555
C17 C16 1_555 1_555
H14 C17 1_555 1_555
H15 C17 1_555 1_555
H16 C17 1_555 1_555
C20 C8 1_555 1_555
C21 C20 1_555 1_555
C22 C21 1_555 1_555
H22 C22 1_555 1_555
C23 C22 1_555 1_555
H23 C23 1_555 1_555
C24 C23 1_555 1_555
C25 C24 1_555 1_555
H24 C25 1_555 1_555
C26 C21 1_555 1_555
H25 C26 1_555 1_555
C5 C6 1_555 1_555
C14 C15 1_555 1_555
C25 C26 1_555 1_555

#END
