
#######################################################################
#
#                 Cambridge Crystallographic Data Centre
#                                CCDC 
#
#######################################################################
#
# If this CIF has been generated from an entry in the Cambridge 
# Structural Database, then it will include bibliographic, chemical, 
# crystal, experimental, refinement or atomic coordinate data resulting 
# from the CCDC's data processing and validation procedures.
#
#######################################################################

data_CUGKIZ
_chemical_formula_moiety         'C40 H32 N4 Si1'
_chemical_name_systematic        
6,6'-(2,3-Diphenyl-5-silaspiro[4.4]nona-1,3-diene-1,4-diyl)bis(2,2'-bipyridine)
_symmetry_cell_setting           monoclinic
_symmetry_space_group_name_H-M   'C 2/c'
_symmetry_Int_Tables_number      15
_space_group_name_Hall           '-C 2yn'
loop_
_symmetry_equiv_pos_site_id
_symmetry_equiv_pos_as_xyz
1 x,y,z
2 -x,y,1/2-z
3 1/2+x,1/2+y,z
4 1/2-x,1/2+y,1/2-z
5 -x,-y,-z
6 x,-y,1/2+z
7 1/2-x,1/2-y,-z
8 1/2+x,1/2-y,1/2+z
_cell_length_a                   23.862(5)
_cell_length_b                   12.213(3)
_cell_length_c                   10.898(2)
_cell_angle_alpha                90
_cell_angle_beta                 96.596(5)
_cell_angle_gamma                90
_cell_volume                     3154.94
_exptl_crystal_colour            green
_exptl_crystal_description       block
_cell_formula_units_Z            4
loop_
_atom_site_label
_atom_site_type_symbol
_atom_site_fract_x
_atom_site_fract_y
_atom_site_fract_z
Si1 Si 0.5000 0.24371(7) 0.2500
N1 N 0.25581(8) 0.04194(17) 0.07098(18)
N2 N 0.37179(7) 0.22572(13) 0.14683(16)
C1 C 0.44393(9) 0.35072(16) 0.2218(2)
C2 C 0.46831(9) 0.45103(17) 0.2353(2)
C3 C 0.43882(9) 0.55916(16) 0.2249(2)
C4 C 0.43453(11) 0.6228(2) 0.3284(2)
H1 H 0.4508 0.5987 0.4054
C5 C 0.40636(13) 0.7216(2) 0.3186(3)
H2 H 0.4027 0.7625 0.3893
C6 C 0.38374(12) 0.7601(2) 0.2056(4)
H3 H 0.3651 0.8271 0.1993
C7 C 0.38885(11) 0.6993(2) 0.1022(3)
H4 H 0.3743 0.7257 0.0250
C8 C 0.41556(10) 0.59860(19) 0.1117(2)
H5 H 0.4179 0.5570 0.0410
C9 C 0.38306(9) 0.32496(17) 0.20011(19)
C10 C 0.33990(9) 0.39116(18) 0.2343(2)
H6 H 0.3482 0.4589 0.2710
C11 C 0.28478(9) 0.35545(19) 0.2132(2)
H7 H 0.2557 0.3990 0.2357
C12 C 0.27314(9) 0.25551(19) 0.1589(2)
H8 H 0.2362 0.2302 0.1443
C13 C 0.31768(8) 0.19296(17) 0.12627(18)
C14 C 0.30668(9) 0.08585(17) 0.06257(19)
C15 C 0.34527(10) 0.03834(18) -0.0068(2)
H9 H 0.3806 0.0696 -0.0094
C16 C 0.33041(11) -0.0563(2) -0.0721(2)
H10 H 0.3554 -0.0888 -0.1206
C17 C 0.27858(12) -0.1016(2) -0.0646(2)
H11 H 0.2676 -0.1654 -0.1074
C18 C 0.24331(12) -0.0504(2) 0.0076(2)
H12 H 0.2082 -0.0820 0.0131
C19 C 0.51025(10) 0.14116(18) 0.1275(2)
H13 H 0.4793 0.1436 0.0616
H14 H 0.5453 0.1542 0.0929
C20 C 0.5118(2) 0.0330(2) 0.1942(3)
H15 H 0.4920 -0.0208 0.1398
H16 H 0.5508 0.0095 0.2104
N1A N 0.74419(8) 0.04194(17) 0.42902(18)
N2A N 0.62821(7) 0.22572(13) 0.35317(16)
C1A C 0.55607(9) 0.35072(16) 0.2782(2)
C2A C 0.53169(9) 0.45103(17) 0.2647(2)
C3A C 0.56118(9) 0.55916(16) 0.2751(2)
C4A C 0.56547(11) 0.6228(2) 0.1716(2)
H1A H 0.5492 0.5987 0.0946
C5A C 0.59364(13) 0.7216(2) 0.1814(3)
H2A H 0.5973 0.7625 0.1107
C6A C 0.61626(12) 0.7601(2) 0.2944(4)
H3A H 0.6349 0.8271 0.3007
C7A C 0.61115(11) 0.6993(2) 0.3978(3)
H4A H 0.6257 0.7257 0.4750
C8A C 0.58444(10) 0.59860(19) 0.3883(2)
H5A H 0.5821 0.5570 0.4590
C9A C 0.61694(9) 0.32496(17) 0.29989(19)
C10A C 0.66010(9) 0.39116(18) 0.2657(2)
H6A H 0.6518 0.4589 0.2290
C11A C 0.71522(9) 0.35545(19) 0.2868(2)
H7A H 0.7443 0.3990 0.2643
C12A C 0.72686(9) 0.25551(19) 0.3411(2)
H8A H 0.7638 0.2302 0.3557
C13A C 0.68232(8) 0.19296(17) 0.37373(18)
C14A C 0.69332(9) 0.08585(17) 0.43743(19)
C15A C 0.65473(10) 0.03834(18) 0.5068(2)
H9A H 0.6194 0.0696 0.5094
C16A C 0.66959(11) -0.0563(2) 0.5721(2)
H10A H 0.6446 -0.0888 0.6206
C17A C 0.72142(12) -0.1016(2) 0.5646(2)
H11A H 0.7324 -0.1654 0.6074
C18A C 0.75669(12) -0.0504(2) 0.4924(2)
H12A H 0.7918 -0.0820 0.4869
C19A C 0.48975(10) 0.14116(18) 0.3725(2)
H13A H 0.5207 0.1436 0.4384
H14A H 0.4547 0.1542 0.4071
C20A C 0.4882(2) 0.0330(2) 0.3058(3)
H15A H 0.5080 -0.0208 0.3602
H16A H 0.4492 0.0095 0.2896
loop_
_geom_bond_atom_site_label_1
_geom_bond_atom_site_label_2
_geom_bond_site_symmetry_1
_geom_bond_site_symmetry_2
Si1 C1 1_555 1_555
N1 C14 1_555 1_555
N2 C9 1_555 1_555
C1 C2 1_555 1_555
C2 C3 1_555 1_555
C3 C4 1_555 1_555
C4 H1 1_555 1_555
C5 C4 1_555 1_555
H2 C5 1_555 1_555
C6 C5 1_555 1_555
H3 C6 1_555 1_555
C7 C6 1_555 1_555
H4 C7 1_555 1_555
C8 C3 1_555 1_555
H5 C8 1_555 1_555
C9 C1 1_555 1_555
C10 C9 1_555 1_555
H6 C10 1_555 1_555
C11 C10 1_555 1_555
H7 C11 1_555 1_555
C12 C11 1_555 1_555
H8 C12 1_555 1_555
C13 N2 1_555 1_555
C14 C13 1_555 1_555
C15 C14 1_555 1_555
H9 C15 1_555 1_555
C16 C15 1_555 1_555
H10 C16 1_555 1_555
C17 C16 1_555 1_555
H11 C17 1_555 1_555
C18 N1 1_555 1_555
H12 C18 1_555 1_555
C19 Si1 1_555 1_555
H13 C19 1_555 1_555
H14 C19 1_555 1_555
C20 C19 1_555 1_555
H15 C20 1_555 1_555
H16 C20 1_555 1_555
N1A C14A 1_555 1_555
N2A C9A 1_555 1_555
C1A Si1 1_555 1_555
C2A C2 1_555 1_555
C3A C2A 1_555 1_555
C4A C3A 1_555 1_555
H1A C4A 1_555 1_555
C5A C4A 1_555 1_555
H2A C5A 1_555 1_555
C6A C5A 1_555 1_555
H3A C6A 1_555 1_555
C7A C6A 1_555 1_555
H4A C7A 1_555 1_555
C8A C3A 1_555 1_555
H5A C8A 1_555 1_555
C9A C1A 1_555 1_555
C10A C9A 1_555 1_555
H6A C10A 1_555 1_555
C11A C10A 1_555 1_555
H7A C11A 1_555 1_555
C12A C11A 1_555 1_555
H8A C12A 1_555 1_555
C13A N2A 1_555 1_555
C14A C13A 1_555 1_555
C15A C14A 1_555 1_555
H9A C15A 1_555 1_555
C16A C15A 1_555 1_555
H10A C16A 1_555 1_555
C17A C16A 1_555 1_555
H11A C17A 1_555 1_555
C18A N1A 1_555 1_555
H12A C18A 1_555 1_555
C19A Si1 1_555 1_555
H13A C19A 1_555 1_555
H14A C19A 1_555 1_555
C20A C20 1_555 1_555
H15A C20A 1_555 1_555
H16A C20A 1_555 1_555
C7 C8 1_555 1_555
C12 C13 1_555 1_555
C17 C18 1_555 1_555
C1A C2A 1_555 1_555
C7A C8A 1_555 1_555
C12A C13A 1_555 1_555
C17A C18A 1_555 1_555
C19A C20A 1_555 1_555

#END
