
#######################################################################
#
#                 Cambridge Crystallographic Data Centre
#                                CCDC 
#
#######################################################################
#
# If this CIF has been generated from an entry in the Cambridge 
# Structural Database, then it will include bibliographic, chemical, 
# crystal, experimental, refinement or atomic coordinate data resulting 
# from the CCDC's data processing and validation procedures.
#
#######################################################################

data_CUHGOC
_chemical_name_common            
3-Methyl-4-phenyl-5-(2-pyridyl)-1,2,4-triazole
_chemical_formula_moiety         'C14 H12 N4'
_chemical_name_systematic        
2-(5-Methyl-4-phenyl-4H-1,2,4-triazol-3-yl)pyridine
_symmetry_cell_setting           orthorhombic
_symmetry_space_group_name_H-M   'P 21 21 21'
_symmetry_Int_Tables_number      19
_space_group_name_Hall           'P 2ac 2ab'
loop_
_symmetry_equiv_pos_site_id
_symmetry_equiv_pos_as_xyz
1 x,y,z
2 1/2-x,-y,1/2+z
3 1/2+x,1/2-y,-z
4 -x,1/2+y,1/2-z
_cell_length_a                   19.414(4)
_cell_length_b                   17.172(3)
_cell_length_c                   7.4850(15)
_cell_angle_alpha                90
_cell_angle_beta                 90
_cell_angle_gamma                90
_cell_volume                     2495.33
_exptl_crystal_colour            colorless
_exptl_crystal_description       block
_chemical_melting_point          '104-106 deg.C'
_cell_formula_units_Z            8
_exptl_crystal_recrystallization_method ethanol/water
loop_
_atom_site_label
_atom_site_type_symbol
_atom_site_fract_x
_atom_site_fract_y
_atom_site_fract_z
N1 N 0.2410(3) 0.1669(3) 0.0119(10)
N2 N 0.0945(3) 0.2967(4) 0.0051(10)
N3 N 0.0971(3) 0.3752(5) -0.0441(11)
N4 N 0.2034(2) 0.3330(3) -0.0225(9)
C1 C 0.2550(4) 0.0926(4) 0.0495(14)
H1 H 0.2998 0.0759 0.0273
C2 C 0.2107(5) 0.0390(5) 0.1168(13)
H2 H 0.2238 -0.0126 0.1337
C3 C 0.1444(5) 0.0651(6) 0.1596(15)
H3 H 0.1123 0.0320 0.2122
C4 C 0.1282(4) 0.1422(6) 0.1207(13)
H4 H 0.0837 0.1606 0.1398
C5 C 0.1776(4) 0.1910(4) 0.0544(10)
C6 C 0.1582(3) 0.2732(4) 0.0110(10)
C7 C 0.1623(4) 0.3956(4) -0.0510(12)
C8 C 0.1882(4) 0.4741(4) -0.1000(16)
H5 H 0.1608 0.4949 -0.1954
H6 H 0.2353 0.4703 -0.1381
H7 H 0.1853 0.5079 0.0019
C9 C 0.2774(3) 0.3357(4) -0.0168(13)
C10 C 0.3086(4) 0.3427(5) 0.1559(12)
H8 H 0.2826 0.3448 0.2600
C11 C 0.3801(5) 0.3463(6) 0.1590(17)
H9 H 0.4028 0.3502 0.2680
C12 C 0.4182(4) 0.3443(5) 0.002(3)
H10 H 0.4660 0.3463 0.0072
C13 C 0.3851(5) 0.3392(7) -0.1668(18)
H11 H 0.4107 0.3391 -0.2718
C14 C 0.3147(4) 0.3343(5) -0.1718(14)
H12 H 0.2921 0.3301 -0.2810
N5 N 0.0218(3) 0.1448(3) 0.4805(10)
N6 N 0.1724(3) 0.2631(4) 0.5288(11)
N7 N 0.1779(3) 0.3411(4) 0.4839(11)
N8 N 0.0684(2) 0.3088(3) 0.4868(9)
C15 C 0.0004(3) 0.0713(4) 0.5084(13)
H13 H -0.0412 0.0561 0.4576
C16 C 0.0365(4) 0.0168(5) 0.6082(13)
H14 H 0.0191 -0.0332 0.6241
C17 C 0.0973(5) 0.0376(5) 0.6822(14)
H15 H 0.1225 0.0024 0.7504
C18 C 0.1213(4) 0.1128(5) 0.6537(13)
H16 H 0.1636 0.1280 0.7003
C19 C 0.0822(3) 0.1653(4) 0.5559(11)
C20 C 0.1077(3) 0.2450(4) 0.5240(11)
C21 C 0.1153(4) 0.3676(4) 0.4711(11)
C22 C 0.0956(5) 0.4501(5) 0.4257(16)
H17 H 0.1359 0.4785 0.3903
H18 H 0.0754 0.4745 0.5286
H19 H 0.0629 0.4499 0.3295
C23 C -0.0050(3) 0.3186(4) 0.4872(12)
C24 C -0.0397(4) 0.3156(4) 0.6496(13)
H20 H -0.0152 0.3075 0.7547
C25 C -0.1120(4) 0.3247(5) 0.6554(15)
H21 H -0.1362 0.3227 0.7625
C26 C -0.1458(4) 0.3371(5) 0.4906(19)
H22 H -0.1935 0.3425 0.4894
C27 C -0.1101(5) 0.3414(6) 0.3313(19)
H23 H -0.1337 0.3505 0.2251
C28 C -0.0394(4) 0.3323(5) 0.3299(13)
H24 H -0.0152 0.3355 0.2230
loop_
_geom_bond_atom_site_label_1
_geom_bond_atom_site_label_2
_geom_bond_site_symmetry_1
_geom_bond_site_symmetry_2
N1 C1 1_555 1_555
N2 N3 1_555 1_555
N3 C7 1_555 1_555
N4 C6 1_555 1_555
C1 H1 1_555 1_555
C2 C1 1_555 1_555
H2 C2 1_555 1_555
C3 C2 1_555 1_555
H3 C3 1_555 1_555
C4 C3 1_555 1_555
H4 C4 1_555 1_555
C5 N1 1_555 1_555
C6 N2 1_555 1_555
C7 N4 1_555 1_555
C8 C7 1_555 1_555
H5 C8 1_555 1_555
H6 C8 1_555 1_555
H7 C8 1_555 1_555
C9 N4 1_555 1_555
C10 C9 1_555 1_555
H8 C10 1_555 1_555
C11 C10 1_555 1_555
H9 C11 1_555 1_555
C12 C11 1_555 1_555
H10 C12 1_555 1_555
C13 C12 1_555 1_555
H11 C13 1_555 1_555
C14 C9 1_555 1_555
H12 C14 1_555 1_555
N5 C15 1_555 1_555
N6 N7 1_555 1_555
N7 C21 1_555 1_555
N8 C20 1_555 1_555
C15 H13 1_555 1_555
C16 C15 1_555 1_555
H14 C16 1_555 1_555
C17 C16 1_555 1_555
H15 C17 1_555 1_555
C18 C17 1_555 1_555
H16 C18 1_555 1_555
C19 N5 1_555 1_555
C20 N6 1_555 1_555
C21 N8 1_555 1_555
C22 C21 1_555 1_555
H17 C22 1_555 1_555
H18 C22 1_555 1_555
H19 C22 1_555 1_555
C23 N8 1_555 1_555
C24 C23 1_555 1_555
H20 C24 1_555 1_555
C25 C24 1_555 1_555
H21 C25 1_555 1_555
C26 C25 1_555 1_555
H22 C26 1_555 1_555
C27 C26 1_555 1_555
H23 C27 1_555 1_555
C28 C23 1_555 1_555
H24 C28 1_555 1_555
C4 C5 1_555 1_555
C5 C6 1_555 1_555
C13 C14 1_555 1_555
C18 C19 1_555 1_555
C19 C20 1_555 1_555
C27 C28 1_555 1_555

#END
