
#######################################################################
#
#                 Cambridge Crystallographic Data Centre
#                                CCDC 
#
#######################################################################
#
# If this CIF has been generated from an entry in the Cambridge 
# Structural Database, then it will include bibliographic, chemical, 
# crystal, experimental, refinement or atomic coordinate data resulting 
# from the CCDC's data processing and validation procedures.
#
#######################################################################

data_CUHNOJ
_chemical_formula_moiety         'C15 H20 N2 S1'
_chemical_name_systematic        
1-Isopropyl-2,2-dimethyl-5-phenyl-2,3-dihydropyrimidine-4(1H)-thione
_symmetry_cell_setting           orthorhombic
_symmetry_space_group_name_H-M   'P b c a'
_symmetry_Int_Tables_number      61
_space_group_name_Hall           '-P 2ac 2ab'
loop_
_symmetry_equiv_pos_site_id
_symmetry_equiv_pos_as_xyz
1 x,y,z
2 1/2-x,-y,1/2+z
3 -x,1/2+y,1/2-z
4 1/2+x,1/2-y,-z
5 -x,-y,-z
6 1/2+x,y,1/2-z
7 x,1/2-y,1/2+z
8 1/2-x,1/2+y,z
_cell_length_a                   12.589(2)
_cell_length_b                   14.928(3)
_cell_length_c                   15.567(3)
_cell_angle_alpha                90
_cell_angle_beta                 90
_cell_angle_gamma                90
_cell_volume                     2925.48
_cell_formula_units_Z            8
_exptl_crystal_recrystallization_method dichloromethane/hexane
loop_
_atom_site_label
_atom_site_type_symbol
_atom_site_fract_x
_atom_site_fract_y
_atom_site_fract_z
C1 C 0.09271(15) 0.04356(14) 0.70757(11)
C2 C 0.22395(14) 0.15530(13) 0.67673(12)
H1 H 0.2693 0.2016 0.6969
C3 C 0.24548(14) 0.12011(13) 0.59745(11)
C4 C 0.16519(14) 0.06371(12) 0.55999(11)
C5 C 0.33667(14) 0.15677(13) 0.54796(12)
C6 C 0.35538(15) 0.24827(14) 0.54659(12)
H2 H 0.3088 0.2871 0.5769
C7 C 0.44037(19) 0.28440(17) 0.50208(14)
H3 H 0.4520 0.3473 0.5021
C8 C 0.50790(18) 0.22865(19) 0.45782(15)
H4 H 0.5667 0.2529 0.4274
C9 C 0.49039(17) 0.13817(18) 0.45765(14)
H5 H 0.5369 0.0998 0.4268
C10 C 0.40508(16) 0.10202(15) 0.50232(13)
H6 H 0.3936 0.0391 0.5015
C11 C 0.16039(17) -0.03330(15) 0.74237(13)
H7 H 0.1284 -0.0906 0.7259
H8 H 0.1640 -0.0293 0.8051
H9 H 0.2322 -0.0293 0.7184
C12 C -0.02138(15) 0.03806(16) 0.74117(13)
H10 H -0.0617 0.0901 0.7210
H11 H -0.0206 0.0374 0.8041
H12 H -0.0549 -0.0169 0.7199
C13 C 0.11939(18) 0.18301(16) 0.80674(13)
C14 C 0.21533(18) 0.19354(17) 0.86400(14)
H13 H 0.2696 0.2289 0.8341
H14 H 0.2441 0.1343 0.8780
H15 H 0.1946 0.2243 0.9170
C15 C 0.0721(2) 0.27227(17) 0.78263(13)
H16 H 0.1237 0.3065 0.7487
H17 H 0.0543 0.3057 0.8349
H18 H 0.0076 0.2627 0.7486
H19 H 0.0290(15) 0.0125(12) 0.5902(11)
H20 H 0.0670(15) 0.1482(13) 0.8388(11)
N1 N 0.08690(13) 0.03858(11) 0.61361(10)
N2 N 0.14412(12) 0.12978(11) 0.72820(9)
S1 S 0.15739(4) 0.03904(4) 0.45483(3)
loop_
_geom_bond_atom_site_label_1
_geom_bond_atom_site_label_2
_geom_bond_site_symmetry_1
_geom_bond_site_symmetry_2
C1 C11 1_555 1_555
C2 H1 1_555 1_555
C3 C2 1_555 1_555
C4 C3 1_555 1_555
C5 C3 1_555 1_555
C6 C5 1_555 1_555
H2 C6 1_555 1_555
C7 C6 1_555 1_555
H3 C7 1_555 1_555
C8 C7 1_555 1_555
H4 C8 1_555 1_555
C9 C8 1_555 1_555
H5 C9 1_555 1_555
C10 C5 1_555 1_555
H6 C10 1_555 1_555
C11 H7 1_555 1_555
H8 C11 1_555 1_555
H9 C11 1_555 1_555
C12 C1 1_555 1_555
H10 C12 1_555 1_555
H11 C12 1_555 1_555
H12 C12 1_555 1_555
C13 C14 1_555 1_555
C14 H13 1_555 1_555
H14 C14 1_555 1_555
H15 C14 1_555 1_555
C15 C13 1_555 1_555
H16 C15 1_555 1_555
H17 C15 1_555 1_555
H18 C15 1_555 1_555
H19 N1 1_555 1_555
H20 C13 1_555 1_555
N1 C1 1_555 1_555
N2 C1 1_555 1_555
S1 C4 1_555 1_555
C2 N2 1_555 1_555
C4 N1 1_555 1_555
C9 C10 1_555 1_555
C13 N2 1_555 1_555

#END
