
#######################################################################
#
#                 Cambridge Crystallographic Data Centre
#                                CCDC 
#
#######################################################################
#
# If this CIF has been generated from an entry in the Cambridge 
# Structural Database, then it will include bibliographic, chemical, 
# crystal, experimental, refinement or atomic coordinate data resulting 
# from the CCDC's data processing and validation procedures.
#
#######################################################################

data_CUHQUT
_chemical_formula_moiety         'C46 H68 Li2 N6 O2'
_chemical_name_systematic        
'bis(\m~2~-2-(2,6-Dimethylphenyl)-1,1-diethyl-3-phenylguanidinato)-bis(diethyl ether)-di-lithium'
_symmetry_cell_setting           triclinic
_symmetry_space_group_name_H-M   'P -1'
_symmetry_Int_Tables_number      2
_space_group_name_Hall           '-P 1'
loop_
_symmetry_equiv_pos_site_id
_symmetry_equiv_pos_as_xyz
1 x,y,z
2 -x,-y,-z
_cell_length_a                   9.9902(15)
_cell_length_b                   10.9728(17)
_cell_length_c                   11.4469(17)
_cell_angle_alpha                75.621(3)
_cell_angle_beta                 67.864(3)
_cell_angle_gamma                80.771(3)
_cell_volume                     1122.79
_exptl_crystal_colour            colorless
_exptl_crystal_description       block
_cell_formula_units_Z            1
loop_
_atom_site_label
_atom_site_type_symbol
_atom_site_fract_x
_atom_site_fract_y
_atom_site_fract_z
Li1 Li 0.5571(4) 0.5806(3) 0.0284(3)
N1 N 0.46655(18) 0.27881(16) 0.12026(16)
N2 N 0.70058(18) 0.21710(16) 0.13614(17)
N3 N 0.65001(17) 0.40269(16) -0.00786(16)
O1 O 0.57017(17) 0.63473(17) 0.17586(16)
C1 C 0.3825(2) 0.2044(2) 0.2376(2)
C2 C 0.3010(2) 0.1144(2) 0.2312(3)
C3 C 0.2088(3) 0.0471(3) 0.3452(3)
H1 H 0.1547 -0.0124 0.3415
C4 C 0.1957(3) 0.0664(3) 0.4628(3)
H2 H 0.1348 0.0193 0.5382
C5 C 0.2732(3) 0.1557(3) 0.4683(3)
H3 H 0.2635 0.1688 0.5484
C6 C 0.3659(3) 0.2273(2) 0.3577(2)
C7 C 0.4406(3) 0.3288(3) 0.3685(3)
H4 H 0.5380 0.2982 0.3631
H5 H 0.3893 0.3534 0.4498
H6 H 0.4429 0.4003 0.2997
C8 C 0.3142(3) 0.0914(3) 0.1046(3)
H7 H 0.2499 0.0290 0.1178
H8 H 0.4121 0.0619 0.0610
H9 H 0.2891 0.1685 0.0531
C9 C 0.6049(2) 0.29619(19) 0.08520(19)
C10 C 0.7741(2) 0.3935(2) -0.11683(19)
C11 C 0.8394(2) 0.2808(2) -0.1573(2)
H10 H 0.8040 0.2045 -0.1060
C12 C 0.9550(3) 0.2808(3) -0.2715(2)
H11 H 0.9965 0.2045 -0.2956
C13 C 1.0102(3) 0.3922(3) -0.3507(2)
H12 H 1.0881 0.3917 -0.4276
C14 C 0.9474(2) 0.5038(2) -0.3132(2)
H13 H 0.9831 0.5795 -0.3657
C15 C 0.8322(2) 0.5053(2) -0.1989(2)
H14 H 0.7922 0.5822 -0.1758
C16 C 0.8385(2) 0.2591(2) 0.1225(2)
H15 H 0.8420 0.3481 0.0823
H16 H 0.9169 0.2136 0.0654
C17 C 0.8632(3) 0.2401(3) 0.2487(3)
H17 H 0.7901 0.2896 0.3037
H18 H 0.9571 0.2660 0.2323
H19 H 0.8581 0.1525 0.2902
C18 C 0.6756(3) 0.0840(2) 0.1946(3)
H20 H 0.5948 0.0627 0.1779
H21 H 0.6485 0.0724 0.2872
C19 C 0.8054(3) -0.0063(2) 0.1455(3)
H22 H 0.8369 0.0080 0.0533
H23 H 0.7789 -0.0915 0.1819
H24 H 0.8826 0.0076 0.1702
C20 C 0.6926(3) 0.5979(3) 0.2158(3)
H25 H 0.6887 0.5102 0.2604
H26 H 0.6888 0.6484 0.2757
C21 C 0.8291(3) 0.6137(3) 0.1061(3)
H27 H 0.8282 0.5722 0.0418
H28 H 0.9085 0.5774 0.1345
H29 H 0.8402 0.7020 0.0700
C22 C 0.4714(4) 0.7342(4) 0.2346(4)
H30 H 0.5271 0.7959 0.2401
H31 H 0.4157 0.7767 0.1807
C23 C 0.3728(5) 0.6830(4) 0.3632(4)
H32 H 0.3090 0.6302 0.3568
H33 H 0.3168 0.7509 0.4032
H34 H 0.4277 0.6340 0.4142
Li1A Li 0.4429(4) 0.4194(3) -0.0284(3)
N1A N 0.53345(18) 0.72119(16) -0.12026(16)
N2A N 0.29942(18) 0.78290(16) -0.13614(17)
N3A N 0.34999(17) 0.59731(16) 0.00786(16)
O1A O 0.42983(17) 0.36527(17) -0.17586(16)
C1A C 0.6175(2) 0.7956(2) -0.2376(2)
C2A C 0.6990(2) 0.8856(2) -0.2312(3)
C3A C 0.7912(3) 0.9529(3) -0.3452(3)
H1A H 0.8453 1.0124 -0.3415
C4A C 0.8043(3) 0.9336(3) -0.4628(3)
H2A H 0.8652 0.9807 -0.5382
C5A C 0.7268(3) 0.8443(3) -0.4683(3)
H3A H 0.7365 0.8312 -0.5484
C6A C 0.6341(3) 0.7727(2) -0.3577(2)
C7A C 0.5594(3) 0.6712(3) -0.3685(3)
H4A H 0.4620 0.7018 -0.3631
H5A H 0.6107 0.6466 -0.4498
H6A H 0.5571 0.5997 -0.2997
C8A C 0.6858(3) 0.9086(3) -0.1046(3)
H7A H 0.7501 0.9710 -0.1178
H8A H 0.5879 0.9381 -0.0610
H9A H 0.7109 0.8315 -0.0531
C9A C 0.3951(2) 0.70381(19) -0.08520(19)
C10A C 0.2259(2) 0.6065(2) 0.11683(19)
C11A C 0.1606(2) 0.7192(2) 0.1573(2)
H10A H 0.1960 0.7955 0.1060
C12A C 0.0450(3) 0.7192(3) 0.2715(2)
H11A H 0.0035 0.7955 0.2956
C13A C -0.0102(3) 0.6078(3) 0.3507(2)
H12A H -0.0881 0.6083 0.4276
C14A C 0.0526(2) 0.4962(2) 0.3132(2)
H13A H 0.0169 0.4205 0.3657
C15A C 0.1678(2) 0.4947(2) 0.1989(2)
H14A H 0.2078 0.4178 0.1758
C16A C 0.1615(2) 0.7409(2) -0.1225(2)
H15A H 0.1580 0.6519 -0.0823
H16A H 0.0831 0.7864 -0.0654
C17A C 0.1368(3) 0.7599(3) -0.2487(3)
H17A H 0.2099 0.7104 -0.3037
H18A H 0.0429 0.7340 -0.2323
H19A H 0.1419 0.8475 -0.2902
C18A C 0.3244(3) 0.9160(2) -0.1946(3)
H20A H 0.4052 0.9373 -0.1779
H21A H 0.3515 0.9276 -0.2872
C19A C 0.1946(3) 1.0063(2) -0.1455(3)
H22A H 0.1631 0.9920 -0.0533
H23A H 0.2211 1.0915 -0.1819
H24A H 0.1174 0.9924 -0.1702
C20A C 0.3074(3) 0.4021(3) -0.2158(3)
H25A H 0.3113 0.4898 -0.2604
H26A H 0.3112 0.3516 -0.2757
C21A C 0.1709(3) 0.3863(3) -0.1061(3)
H27A H 0.1718 0.4278 -0.0418
H28A H 0.0915 0.4226 -0.1345
H29A H 0.1598 0.2980 -0.0700
C22A C 0.5286(4) 0.2658(4) -0.2346(4)
H30A H 0.4729 0.2041 -0.2401
H31A H 0.5843 0.2233 -0.1807
C23A C 0.6272(5) 0.3170(4) -0.3632(4)
H32A H 0.6910 0.3698 -0.3568
H33A H 0.6832 0.2491 -0.4032
H34A H 0.5723 0.3660 -0.4142
C24? C 0.4547(14) 0.6437(13) 0.2903(13)
loop_
_geom_bond_atom_site_label_1
_geom_bond_atom_site_label_2
_geom_bond_site_symmetry_1
_geom_bond_site_symmetry_2
Li1 N3 1_555 1_555
N1 C1 1_555 1_555
N2 C9 1_555 1_555
N3 C9 1_555 1_555
O1 Li1 1_555 1_555
C1 C2 1_555 1_555
C2 C3 1_555 1_555
C3 H1 1_555 1_555
C4 C3 1_555 1_555
H2 C4 1_555 1_555
C5 C4 1_555 1_555
H3 C5 1_555 1_555
C6 C1 1_555 1_555
C7 C6 1_555 1_555
H4 C7 1_555 1_555
H5 C7 1_555 1_555
H6 C7 1_555 1_555
C8 C2 1_555 1_555
H7 C8 1_555 1_555
H8 C8 1_555 1_555
H9 C8 1_555 1_555
C9 N1 1_555 1_555
C10 N3 1_555 1_555
C11 C10 1_555 1_555
H10 C11 1_555 1_555
C12 C11 1_555 1_555
H11 C12 1_555 1_555
C13 C12 1_555 1_555
H12 C13 1_555 1_555
C14 C13 1_555 1_555
H13 C14 1_555 1_555
C15 C10 1_555 1_555
H14 C15 1_555 1_555
C16 N2 1_555 1_555
H15 C16 1_555 1_555
H16 C16 1_555 1_555
C17 C16 1_555 1_555
H17 C17 1_555 1_555
H18 C17 1_555 1_555
H19 C17 1_555 1_555
C18 N2 1_555 1_555
H20 C18 1_555 1_555
H21 C18 1_555 1_555
C19 C18 1_555 1_555
H22 C19 1_555 1_555
H23 C19 1_555 1_555
H24 C19 1_555 1_555
C20 O1 1_555 1_555
H25 C20 1_555 1_555
H26 C20 1_555 1_555
C21 C20 1_555 1_555
H27 C21 1_555 1_555
H28 C21 1_555 1_555
H29 C21 1_555 1_555
C22 O1 1_555 1_555
H30 C22 1_555 1_555
H31 C22 1_555 1_555
C23 C22 1_555 1_555
H32 C23 1_555 1_555
H33 C23 1_555 1_555
H34 C23 1_555 1_555
Li1A N1 1_555 1_555
N1A Li1 1_555 1_555
N2A C9A 1_555 1_555
N3A Li1 1_555 1_555
O1A Li1A 1_555 1_555
C1A N1A 1_555 1_555
C2A C1A 1_555 1_555
C3A C2A 1_555 1_555
H1A C3A 1_555 1_555
C4A C3A 1_555 1_555
H2A C4A 1_555 1_555
C5A C4A 1_555 1_555
H3A C5A 1_555 1_555
C6A C1A 1_555 1_555
C7A C6A 1_555 1_555
H4A C7A 1_555 1_555
H5A C7A 1_555 1_555
H6A C7A 1_555 1_555
C8A C2A 1_555 1_555
H7A C8A 1_555 1_555
H8A C8A 1_555 1_555
H9A C8A 1_555 1_555
C9A N1A 1_555 1_555
C10A N3A 1_555 1_555
C11A C10A 1_555 1_555
H10A C11A 1_555 1_555
C12A C11A 1_555 1_555
H11A C12A 1_555 1_555
C13A C12A 1_555 1_555
H12A C13A 1_555 1_555
C14A C13A 1_555 1_555
H13A C14A 1_555 1_555
C15A C10A 1_555 1_555
H14A C15A 1_555 1_555
C16A N2A 1_555 1_555
H15A C16A 1_555 1_555
H16A C16A 1_555 1_555
C17A C16A 1_555 1_555
H17A C17A 1_555 1_555
H18A C17A 1_555 1_555
H19A C17A 1_555 1_555
C18A N2A 1_555 1_555
H20A C18A 1_555 1_555
H21A C18A 1_555 1_555
C19A C18A 1_555 1_555
H22A C19A 1_555 1_555
H23A C19A 1_555 1_555
H24A C19A 1_555 1_555
C20A O1A 1_555 1_555
H25A C20A 1_555 1_555
H26A C20A 1_555 1_555
C21A C20A 1_555 1_555
H27A C21A 1_555 1_555
H28A C21A 1_555 1_555
H29A C21A 1_555 1_555
C22A O1A 1_555 1_555
H30A C22A 1_555 1_555
H31A C22A 1_555 1_555
C23A C22A 1_555 1_555
H32A C23A 1_555 1_555
H33A C23A 1_555 1_555
H34A C23A 1_555 1_555
N3 Li1A 1_555 1_555
C5 C6 1_555 1_555
C14 C15 1_555 1_555
Li1A N3A 1_555 1_555
N3A C9A 1_555 1_555
C5A C6A 1_555 1_555
C14A C15A 1_555 1_555

#END
