
#######################################################################
#
#                 Cambridge Crystallographic Data Centre
#                                CCDC 
#
#######################################################################
#
# If this CIF has been generated from an entry in the Cambridge 
# Structural Database, then it will include bibliographic, chemical, 
# crystal, experimental, refinement or atomic coordinate data resulting 
# from the CCDC's data processing and validation procedures.
#
#######################################################################

data_CUJCUH
_chemical_formula_moiety         'C17 H12 Br1 N1 O2'
_chemical_name_systematic        
1-(4-Bromophenyl)-2-(1-methyl-1H-indol-3-yl)ethane-1,2-dione
_symmetry_cell_setting           monoclinic
_symmetry_space_group_name_H-M   'P 21/c'
_symmetry_Int_Tables_number      14
_space_group_name_Hall           '-P 2ybc'
loop_
_symmetry_equiv_pos_site_id
_symmetry_equiv_pos_as_xyz
1 x,y,z
2 -x,1/2+y,1/2-z
3 -x,-y,-z
4 x,1/2-y,1/2+z
_cell_length_a                   14.0761(4)
_cell_length_b                   11.8548(2)
_cell_length_c                   17.3159(5)
_cell_angle_alpha                90
_cell_angle_beta                 92.394(3)
_cell_angle_gamma                90
_cell_volume                     2886.97
_exptl_crystal_colour            yellow
_exptl_crystal_description       block
_cell_formula_units_Z            8
loop_
_atom_site_label
_atom_site_type_symbol
_atom_site_fract_x
_atom_site_fract_y
_atom_site_fract_z
Br1 Br 0.67042(3) -0.22718(3) 0.17448(2)
O1 O 0.87891(14) 0.31431(15) 0.23715(10)
O2 O 1.01822(14) 0.12703(16) 0.31700(12)
N1 N 0.91210(15) 0.34353(17) 0.50105(12)
C1 C 0.92320(18) 0.2715(2) 0.44294(15)
H1 H 0.9436 0.1963 0.4487
C2 C 0.90034(18) 0.3234(2) 0.37284(14)
C3 C 0.87295(18) 0.4376(2) 0.39081(15)
C4 C 0.84294(19) 0.5313(2) 0.34726(17)
H2 H 0.8363 0.5277 0.2931
C5 C 0.8234(2) 0.6291(2) 0.38670(19)
H3 H 0.8021 0.6927 0.3586
C6 C 0.8341(2) 0.6366(2) 0.46646(19)
H4 H 0.8210 0.7053 0.4909
C7 C 0.8633(2) 0.5462(2) 0.51029(17)
H5 H 0.8704 0.5511 0.5644
C8 C 0.88198(18) 0.4468(2) 0.47148(15)
C9 C 0.9260(2) 0.3176(3) 0.58324(15)
H6 H 0.8657 0.3233 0.6081
H7 H 0.9708 0.3707 0.6069
H8 H 0.9507 0.2416 0.5893
C10 C 0.90114(18) 0.2696(2) 0.29940(15)
C11 C 0.9361(2) 0.1473(2) 0.29629(14)
C12 C 0.87039(18) 0.05969(19) 0.26488(14)
C13 C 0.9067(2) -0.0465(2) 0.24831(15)
H9 H 0.9723 -0.0600 0.2553
C14 C 0.8476(2) -0.1316(2) 0.22186(16)
H10 H 0.8722 -0.2032 0.2106
C15 C 0.7521(2) -0.1101(2) 0.21226(16)
C16 C 0.7138(2) -0.0065(2) 0.22833(17)
H11 H 0.6480 0.0058 0.2219
C17 C 0.77378(19) 0.0795(2) 0.25421(15)
H12 H 0.7489 0.1513 0.2645
Br2 Br 0.12242(3) 0.44737(2) 1.04204(2)
O3 O 0.42305(17) 0.71932(16) 0.77386(12)
O4 O 0.53280(17) 0.5113(2) 0.84748(14)
N2 N 0.41810(15) 0.42888(17) 0.59758(13)
C18 C 0.43659(19) 0.4512(2) 0.67242(17)
H13 H 0.4554 0.3973 0.7098
C19 C 0.42401(19) 0.5656(2) 0.68697(16)
C20 C 0.39495(18) 0.6159(2) 0.61439(16)
C21 C 0.3695(2) 0.7247(2) 0.59020(18)
H14 H 0.3713 0.7852 0.6253
C22 C 0.3418(2) 0.7411(2) 0.51417(19)
H15 H 0.3240 0.8138 0.4975
C23 C 0.3395(2) 0.6529(2) 0.46088(18)
H16 H 0.3204 0.6674 0.4092
C24 C 0.3647(2) 0.5449(2) 0.48278(17)
H17 H 0.3637 0.4852 0.4470
C25 C 0.39143(18) 0.5283(2) 0.55944(16)
C26 C 0.4217(2) 0.3182(2) 0.56096(18)
H18 H 0.4462 0.2632 0.5982
H19 H 0.4630 0.3215 0.5176
H20 H 0.3582 0.2964 0.5428
C27 C 0.4324(2) 0.6179(2) 0.76132(17)
C28 C 0.4518(2) 0.5421(2) 0.83159(17)
C29 C 0.37158(19) 0.5157(2) 0.88066(16)
C30 C 0.2788(2) 0.5459(2) 0.85760(16)
H21 H 0.2670 0.5825 0.8100
C31 C 0.2047(2) 0.5226(2) 0.90406(17)
H22 H 0.1420 0.5412 0.8880
C32 C 0.2231(2) 0.4716(2) 0.97444(17)
C33 C 0.3138(2) 0.4402(2) 0.99878(17)
H23 H 0.3252 0.4060 1.0473
C34 C 0.3873(2) 0.4601(2) 0.95069(16)
H24 H 0.4490 0.4358 0.9654
loop_
_geom_bond_atom_site_label_1
_geom_bond_atom_site_label_2
_geom_bond_site_symmetry_1
_geom_bond_site_symmetry_2
Br1 C15 1_555 1_555
O1 C10 1_555 1_555
O2 C11 1_555 1_555
N1 C1 1_555 1_555
C1 H1 1_555 1_555
C2 C1 1_555 1_555
C3 C2 1_555 1_555
C4 C3 1_555 1_555
H2 C4 1_555 1_555
C5 C4 1_555 1_555
H3 C5 1_555 1_555
C6 C5 1_555 1_555
H4 C6 1_555 1_555
C7 C6 1_555 1_555
H5 C7 1_555 1_555
C8 N1 1_555 1_555
C9 N1 1_555 1_555
H6 C9 1_555 1_555
H7 C9 1_555 1_555
H8 C9 1_555 1_555
C10 C2 1_555 1_555
C11 C10 1_555 1_555
C12 C11 1_555 1_555
C13 C12 1_555 1_555
H9 C13 1_555 1_555
C14 C13 1_555 1_555
H10 C14 1_555 1_555
C15 C14 1_555 1_555
C16 C15 1_555 1_555
H11 C16 1_555 1_555
C17 C12 1_555 1_555
H12 C17 1_555 1_555
Br2 C32 1_555 1_555
O3 C27 1_555 1_555
O4 C28 1_555 1_555
N2 C18 1_555 1_555
C18 H13 1_555 1_555
C19 C18 1_555 1_555
C20 C19 1_555 1_555
C21 C20 1_555 1_555
H14 C21 1_555 1_555
C22 C21 1_555 1_555
H15 C22 1_555 1_555
C23 C22 1_555 1_555
H16 C23 1_555 1_555
C24 C23 1_555 1_555
H17 C24 1_555 1_555
C25 N2 1_555 1_555
C26 N2 1_555 1_555
H18 C26 1_555 1_555
H19 C26 1_555 1_555
H20 C26 1_555 1_555
C27 C19 1_555 1_555
C28 C27 1_555 1_555
C29 C28 1_555 1_555
C30 C29 1_555 1_555
H21 C30 1_555 1_555
C31 C30 1_555 1_555
H22 C31 1_555 1_555
C32 C31 1_555 1_555
C33 C32 1_555 1_555
H23 C33 1_555 1_555
C34 C29 1_555 1_555
H24 C34 1_555 1_555
C3 C8 1_555 1_555
C7 C8 1_555 1_555
C16 C17 1_555 1_555
C20 C25 1_555 1_555
C24 C25 1_555 1_555
C33 C34 1_555 1_555

#END
