
#######################################################################
#
#                 Cambridge Crystallographic Data Centre
#                                CCDC 
#
#######################################################################
#
# If this CIF has been generated from an entry in the Cambridge 
# Structural Database, then it will include bibliographic, chemical, 
# crystal, experimental, refinement or atomic coordinate data resulting 
# from the CCDC's data processing and validation procedures.
#
#######################################################################

data_CUJKUP
_chemical_formula_moiety         'C35 H32 N2 O4 S1'
_chemical_name_systematic        
'Ethyl 2-((((4-methylphenyl)sulfonyl)(phenyl)amino)methylene)-3-phenyl-1,2,3,9a-tetrahydro-9H-carbazole-9-carboxylate'
_symmetry_cell_setting           orthorhombic
_symmetry_space_group_name_H-M   'P 21 21 21'
_symmetry_Int_Tables_number      19
_space_group_name_Hall           'P 2ac 2ab'
loop_
_symmetry_equiv_pos_site_id
_symmetry_equiv_pos_as_xyz
1 x,y,z
2 1/2-x,-y,1/2+z
3 -x,1/2+y,1/2-z
4 1/2+x,1/2-y,-z
_cell_length_a                   6.0633(2)
_cell_length_b                   11.5428(4)
_cell_length_c                   42.4729(15)
_cell_angle_alpha                90
_cell_angle_beta                 90
_cell_angle_gamma                90
_cell_volume                     2972.57
_exptl_crystal_colour            colorless
_exptl_crystal_description       block
_cell_formula_units_Z            4
loop_
_atom_site_label
_atom_site_type_symbol
_atom_site_fract_x
_atom_site_fract_y
_atom_site_fract_z
S1 S 0.03062(9) 0.82435(5) 0.898941(14)
O1 O -0.1233(3) 0.78368(14) 0.92179(4)
O2 O -0.0464(3) 0.87049(14) 0.86983(4)
O3 O 0.9244(3) 1.14924(16) 0.77415(4)
O4 O 0.7669(3) 1.00586(16) 0.80232(4)
N1 N 0.1765(3) 0.92928(15) 0.91600(4)
N2 N 0.6262(3) 1.18214(17) 0.80570(4)
C1 C 0.3314(5) 0.7124(2) 0.86254(6)
H1 H 0.2942 0.7646 0.8467
C2 C 0.4969(5) 0.6321(2) 0.85775(6)
H2 H 0.5707 0.6312 0.8386
C3 C 0.5553(5) 0.5538(2) 0.88054(7)
C4 C 0.4427(5) 0.5565(2) 0.90843(6)
H3 H 0.4792 0.5035 0.9241
C5 C 0.2764(5) 0.6357(2) 0.91403(6)
H4 H 0.2020 0.6357 0.9332
C6 C 0.2220(4) 0.71434(18) 0.89097(5)
C7 C 0.3554(3) 0.97122(17) 0.89648(5)
H5 H 0.4856 0.9287 0.8958
C8 C 0.3424(3) 1.06644(18) 0.87971(5)
C9 C 0.1384(3) 1.14388(17) 0.87906(5)
H6 H 0.0127 1.0953 0.8731
C10 C 0.1573(4) 1.2396(2) 0.85487(5)
H7 H 0.0657 1.3038 0.8568
C11 C 0.2988(4) 1.23601(19) 0.83101(5)
C12 C 0.4526(3) 1.13544(18) 0.82674(5)
H8 H 0.3761 1.0707 0.8166
C13 C 0.5358(3) 1.09981(18) 0.85932(5)
H9 H 0.6362 1.0348 0.8574
H10 H 0.6151 1.1637 0.8689
C14 C 0.3664(4) 1.3268(2) 0.80902(5)
C15 C 0.2776(5) 1.4342(2) 0.80225(6)
H11 H 0.1437 1.4567 0.8110
C16 C 0.3912(6) 1.5080(3) 0.78217(7)
H12 H 0.3321 1.5801 0.7772
C17 C 0.5898(6) 1.4754(3) 0.76956(7)
H13 H 0.6643 1.5268 0.7565
C18 C 0.6827(5) 1.3684(2) 0.77570(6)
H14 H 0.8171 1.3468 0.7669
C19 C 0.5673(4) 1.2945(2) 0.79547(5)
C20 C 0.7862(4) 1.1153(2) 0.79243(5)
C21 C 0.9228(5) 0.9230(3) 0.78968(7)
H15 H 1.0586 0.9251 0.8017
H16 H 0.9568 0.9421 0.7680
C22 C 0.8252(6) 0.8074(3) 0.79140(8)
H17 H 0.9264 0.7517 0.7828
H18 H 0.6905 0.8060 0.7795
H19 H 0.7945 0.7885 0.8130
C23 C 0.0870(4) 1.19592(19) 0.91124(5)
C24 C -0.1153(4) 1.1800(3) 0.92540(5)
H20 H -0.2200 1.1334 0.9156
C25 C -0.1656(5) 1.2316(3) 0.95373(7)
H21 H -0.3029 1.2195 0.9629
C26 C -0.0142(7) 1.3006(3) 0.96833(7)
H22 H -0.0498 1.3380 0.9870
C27 C 0.1897(7) 1.3143(3) 0.95534(8)
H23 H 0.2965 1.3579 0.9657
C28 C 0.2370(5) 1.2630(2) 0.92667(7)
H24 H 0.3751 1.2746 0.9177
C29 C 0.7374(6) 0.4674(3) 0.87492(9)
H25 H 0.7566 0.4204 0.8934
H26 H 0.8722 0.5078 0.8704
H27 H 0.6994 0.4189 0.8574
C30 C 0.2203(3) 0.91718(17) 0.94939(5)
C31 C 0.4207(4) 0.8786(2) 0.96073(5)
H28 H 0.5335 0.8592 0.9469
C32 C 0.4524(5) 0.8691(2) 0.99293(6)
H29 H 0.5868 0.8423 1.0006
C33 C 0.2894(5) 0.8983(2) 1.01353(6)
H30 H 0.3130 0.8928 1.0351
C34 C 0.0906(4) 0.9358(2) 1.00219(6)
H31 H -0.0220 0.9542 1.0162
C35 C 0.0555(4) 0.9467(2) 0.97030(5)
H32 H -0.0792 0.9739 0.9629
loop_
_geom_bond_atom_site_label_1
_geom_bond_atom_site_label_2
_geom_bond_site_symmetry_1
_geom_bond_site_symmetry_2
S1 O1 1_555 1_555
O2 S1 1_555 1_555
O3 C20 1_555 1_555
O4 C20 1_555 1_555
N1 S1 1_555 1_555
N2 C12 1_555 1_555
C1 H1 1_555 1_555
C2 C1 1_555 1_555
H2 C2 1_555 1_555
C3 C2 1_555 1_555
C4 C3 1_555 1_555
H3 C4 1_555 1_555
C5 C4 1_555 1_555
H4 C5 1_555 1_555
C6 S1 1_555 1_555
C7 N1 1_555 1_555
H5 C7 1_555 1_555
C8 C7 1_555 1_555
C9 C8 1_555 1_555
H6 C9 1_555 1_555
C10 C9 1_555 1_555
H7 C10 1_555 1_555
C11 C10 1_555 1_555
C12 C11 1_555 1_555
H8 C12 1_555 1_555
C13 C8 1_555 1_555
H9 C13 1_555 1_555
H10 C13 1_555 1_555
C14 C11 1_555 1_555
C15 C14 1_555 1_555
H11 C15 1_555 1_555
C16 C15 1_555 1_555
H12 C16 1_555 1_555
C17 C16 1_555 1_555
H13 C17 1_555 1_555
C18 C17 1_555 1_555
H14 C18 1_555 1_555
C19 N2 1_555 1_555
C20 N2 1_555 1_555
C21 O4 1_555 1_555
H15 C21 1_555 1_555
H16 C21 1_555 1_555
C22 C21 1_555 1_555
H17 C22 1_555 1_555
H18 C22 1_555 1_555
H19 C22 1_555 1_555
C23 C9 1_555 1_555
C24 C23 1_555 1_555
H20 C24 1_555 1_555
C25 C24 1_555 1_555
H21 C25 1_555 1_555
C26 C25 1_555 1_555
H22 C26 1_555 1_555
C27 C26 1_555 1_555
H23 C27 1_555 1_555
C28 C23 1_555 1_555
H24 C28 1_555 1_555
C29 C3 1_555 1_555
H25 C29 1_555 1_555
H26 C29 1_555 1_555
H27 C29 1_555 1_555
C30 N1 1_555 1_555
C31 C30 1_555 1_555
H28 C31 1_555 1_555
C32 C31 1_555 1_555
H29 C32 1_555 1_555
C33 C32 1_555 1_555
H30 C33 1_555 1_555
C34 C33 1_555 1_555
H31 C34 1_555 1_555
C35 C30 1_555 1_555
H32 C35 1_555 1_555
C1 C6 1_555 1_555
C5 C6 1_555 1_555
C12 C13 1_555 1_555
C14 C19 1_555 1_555
C18 C19 1_555 1_555
C27 C28 1_555 1_555
C34 C35 1_555 1_555

#END
