
#######################################################################
#
#                 Cambridge Crystallographic Data Centre
#                                CCDC 
#
#######################################################################
#
# If this CIF has been generated from an entry in the Cambridge 
# Structural Database, then it will include bibliographic, chemical, 
# crystal, experimental, refinement or atomic coordinate data resulting 
# from the CCDC's data processing and validation procedures.
#
#######################################################################

data_CUJKOJ
_chemical_formula_moiety         'C33 H29 Cl1 N2 O2 S1'
_chemical_name_systematic        
N-((3-(4-Chlorophenyl)-2-(1-methyl-1H-indol-3-yl)cyclobutylidene)methyl)-4-methyl-N-phenylbenzenesulfonamide
_symmetry_cell_setting           monoclinic
_symmetry_space_group_name_H-M   'P 21'
_symmetry_Int_Tables_number      4
_space_group_name_Hall           'P 2yb'
loop_
_symmetry_equiv_pos_site_id
_symmetry_equiv_pos_as_xyz
1 x,y,z
2 -x,1/2+y,-z
_cell_length_a                   10.1227(16)
_cell_length_b                   25.116(4)
_cell_length_c                   11.5470(18)
_cell_angle_alpha                90
_cell_angle_beta                 97.553(6)
_cell_angle_gamma                90
_cell_volume                     2910.26
_exptl_crystal_colour            pink
_exptl_crystal_description       block
_cell_formula_units_Z            4
loop_
_atom_site_label
_atom_site_type_symbol
_atom_site_fract_x
_atom_site_fract_y
_atom_site_fract_z
S1 S 0.21608(16) 0.85103(7) 0.17089(14)
O1 O 0.1114(4) 0.87851(18) 0.0979(4)
O2 O 0.1947(4) 0.79841(17) 0.2138(4)
Cl1 Cl 0.4661(3) 1.08920(11) 0.9527(2)
N1 N 0.2595(5) 0.8885(2) 0.2855(4)
N2 N 0.7184(6) 0.9646(3) 0.2561(5)
C1 C 0.3532(6) 0.8476(3) 0.0921(5)
C2 C 0.4531(7) 0.8117(3) 0.1248(6)
H1 H 0.4483 0.7890 0.1878
C3 C 0.5617(8) 0.8095(3) 0.0625(7)
H2 H 0.6272 0.7840 0.0824
C4 C 0.5748(6) 0.8433(3) -0.0259(7)
C5 C 0.4742(8) 0.8792(3) -0.0579(6)
H3 H 0.4808 0.9021 -0.1200
C6 C 0.3617(7) 0.8819(3) 0.0010(6)
H4 H 0.2944 0.9065 -0.0213
C7 C 0.6960(7) 0.8425(4) -0.0912(7)
H5 H 0.7572 0.8156 -0.0582
H6 H 0.7389 0.8766 -0.0845
H7 H 0.6682 0.8346 -0.1721
C8 C 0.2368(6) 0.9444(3) 0.2815(5)
C9 C 0.2965(7) 0.9774(3) 0.2090(6)
H8 H 0.3536 0.9631 0.1603
C10 C 0.2731(8) 1.0314(4) 0.2074(7)
H9 H 0.3134 1.0532 0.1572
C11 C 0.1909(9) 1.0530(3) 0.2795(9)
H10 H 0.1772 1.0896 0.2800
C12 C 0.1301(8) 1.0214(3) 0.3492(7)
H11 H 0.0725 1.0360 0.3970
C13 C 0.1523(7) 0.9673(3) 0.3505(6)
H12 H 0.1090 0.9459 0.3993
C14 C 0.6233(7) 0.9776(3) 0.3248(6)
H13 H 0.5866 1.0113 0.3301
C15 C 0.5905(6) 0.9345(3) 0.3833(5)
C16 C 0.6694(6) 0.8907(3) 0.3537(5)
C17 C 0.7495(7) 0.9121(4) 0.2728(6)
C18 C 0.8405(8) 0.8800(5) 0.2239(7)
H14 H 0.8918 0.8942 0.1702
C19 C 0.8535(8) 0.8280(5) 0.2556(8)
H15 H 0.9167 0.8069 0.2258
C20 C 0.7719(8) 0.8054(3) 0.3336(7)
H16 H 0.7781 0.7693 0.3517
C21 C 0.6821(6) 0.8379(3) 0.3832(6)
H17 H 0.6306 0.8235 0.4366
C22 C 0.4913(6) 0.9340(2) 0.4713(5)
H18 H 0.4385 0.9669 0.4665
C23 C 0.4024(6) 0.8853(2) 0.4712(5)
C24 C 0.4561(7) 0.8699(3) 0.5930(5)
H19 H 0.5057 0.8368 0.5983
H20 H 0.3901 0.8702 0.6467
C25 C 0.5459(7) 0.9206(3) 0.6004(5)
H21 H 0.6401 0.9105 0.6068
C26 C 0.5262(7) 0.9624(3) 0.6876(5)
C27 C 0.3993(7) 0.9779(3) 0.7083(6)
H22 H 0.3253 0.9619 0.6660
C28 C 0.3807(7) 1.0158(3) 0.7888(7)
H23 H 0.2948 1.0251 0.8017
C29 C 0.4878(9) 1.0403(3) 0.8505(6)
C30 C 0.6149(8) 1.0266(4) 0.8340(7)
H24 H 0.6880 1.0426 0.8777
C31 C 0.6323(7) 0.9884(3) 0.7505(6)
H25 H 0.7183 0.9801 0.7364
C32 C 0.7761(9) 0.9998(4) 0.1746(8)
H26 H 0.8405 0.9804 0.1374
H27 H 0.8187 1.0295 0.2166
H28 H 0.7067 1.0125 0.1164
C33 C 0.3114(6) 0.8641(2) 0.3943(6)
H29 H 0.2780 0.8309 0.4113
S2 S 0.10600(19) 0.65806(8) -0.54217(18)
Cl2 Cl 0.0264(3) 1.07327(8) -0.0894(3)
O3 O 0.0291(5) 0.6781(2) -0.6482(4)
O4 O 0.0707(5) 0.60911(18) -0.4904(4)
N3 N 0.1048(5) 0.7058(2) -0.4440(5)
N4 N -0.0480(7) 0.7323(2) -0.0514(5)
C34 C 0.2733(7) 0.6506(3) -0.5680(6)
C35 C 0.3260(9) 0.6843(3) -0.6392(8)
H30 H 0.2742 0.7116 -0.6758
C36 C 0.4583(9) 0.6788(4) -0.6585(8)
H31 H 0.4924 0.7015 -0.7107
C37 C 0.5386(8) 0.6408(4) -0.6028(8)
C38 C 0.4828(10) 0.6073(3) -0.5314(8)
H32 H 0.5348 0.5803 -0.4938
C39 C 0.3501(9) 0.6119(3) -0.5119(7)
H33 H 0.3148 0.5887 -0.4613
C40 C 0.6843(8) 0.6367(4) -0.6210(9)
H34 H 0.7043 0.6637 -0.6748
H35 H 0.7009 0.6022 -0.6521
H36 H 0.7396 0.6415 -0.5476
C41 C 0.1740(7) 0.6965(3) -0.3274(7)
C42 C 0.1233(9) 0.6597(3) -0.2572(8)
H37 H 0.0478 0.6401 -0.2852
C43 C 0.1863(15) 0.6520(4) -0.1426(12)
H38 H 0.1545 0.6269 -0.0938
C44 C 0.2956(17) 0.6822(7) -0.1053(12)
H39 H 0.3381 0.6771 -0.0297
C45 C 0.3448(10) 0.7190(5) -0.1723(11)
H40 H 0.4171 0.7398 -0.1421
C46 C 0.2869(7) 0.7257(3) -0.2866(7)
H41 H 0.3232 0.7494 -0.3356
C47 C 0.0824(5) 0.7587(3) -0.4805(6)
H42 H 0.0803 0.7647 -0.5602
C48 C 0.0639(6) 0.8013(3) -0.4169(6)
C49 C 0.0478(6) 0.8149(2) -0.2913(5)
H43 H 0.1343 0.8268 -0.2516
C50 C -0.0301(6) 0.8642(2) -0.3416(5)
H44 H -0.1250 0.8553 -0.3569
C51 C 0.0327(6) 0.8570(2) -0.4547(5)
H45 H -0.0302 0.8598 -0.5255
H46 H 0.1107 0.8790 -0.4591
C52 C -0.0150(5) 0.9160(3) -0.2799(6)
C53 C 0.0028(6) 0.9189(3) -0.1590(7)
H47 H 0.0046 0.8876 -0.1156
C54 C 0.0180(6) 0.9670(3) -0.1020(6)
H48 H 0.0336 0.9677 -0.0209
C55 C 0.0105(7) 1.0130(3) -0.1618(8)
C56 C -0.0065(7) 1.0125(3) -0.2821(8)
H49 H -0.0089 1.0442 -0.3240
C57 C -0.0197(6) 0.9646(3) -0.3391(6)
H50 H -0.0322 0.9644 -0.4204
C58 C 0.0329(7) 0.7671(2) -0.0978(6)
H51 H 0.1092 0.7820 -0.0567
C59 C -0.0117(6) 0.7777(2) -0.2127(6)
C60 C -0.1330(6) 0.7466(2) -0.2387(6)
C61 C -0.2257(7) 0.7405(3) -0.3388(6)
H52 H -0.2155 0.7577 -0.4084
C62 C -0.3345(7) 0.7071(3) -0.3289(8)
H53 H -0.3996 0.7026 -0.3929
C63 C -0.3472(9) 0.6809(3) -0.2265(11)
H54 H -0.4209 0.6590 -0.2240
C64 C -0.2569(9) 0.6853(3) -0.1283(8)
H55 H -0.2669 0.6669 -0.0601
C65 C -0.1501(7) 0.7184(3) -0.1360(7)
C66 C -0.0261(9) 0.7122(3) 0.0680(6)
H56 H 0.0531 0.7280 0.1087
H57 H -0.0160 0.6742 0.0669
H58 H -0.1011 0.7213 0.1072
loop_
_geom_bond_atom_site_label_1
_geom_bond_atom_site_label_2
_geom_bond_site_symmetry_1
_geom_bond_site_symmetry_2
S1 O1 1_555 1_555
O2 S1 1_555 1_555
Cl1 C29 1_555 1_555
N1 S1 1_555 1_555
N2 C14 1_555 1_555
C1 S1 1_555 1_555
C2 C1 1_555 1_555
H1 C2 1_555 1_555
C3 C2 1_555 1_555
H2 C3 1_555 1_555
C4 C3 1_555 1_555
C5 C4 1_555 1_555
H3 C5 1_555 1_555
C6 C1 1_555 1_555
H4 C6 1_555 1_555
C7 C4 1_555 1_555
H5 C7 1_555 1_555
H6 C7 1_555 1_555
H7 C7 1_555 1_555
C8 N1 1_555 1_555
C9 C8 1_555 1_555
H8 C9 1_555 1_555
C10 C9 1_555 1_555
H9 C10 1_555 1_555
C11 C10 1_555 1_555
H10 C11 1_555 1_555
C12 C11 1_555 1_555
H11 C12 1_555 1_555
C13 C8 1_555 1_555
H12 C13 1_555 1_555
C14 H13 1_555 1_555
C15 C14 1_555 1_555
C16 C15 1_555 1_555
C17 N2 1_555 1_555
C18 C17 1_555 1_555
H14 C18 1_555 1_555
C19 C18 1_555 1_555
H15 C19 1_555 1_555
C20 C19 1_555 1_555
H16 C20 1_555 1_555
C21 C16 1_555 1_555
H17 C21 1_555 1_555
C22 C15 1_555 1_555
H18 C22 1_555 1_555
C23 C22 1_555 1_555
C24 C23 1_555 1_555
H19 C24 1_555 1_555
H20 C24 1_555 1_555
C25 C22 1_555 1_555
H21 C25 1_555 1_555
C26 C25 1_555 1_555
C27 C26 1_555 1_555
H22 C27 1_555 1_555
C28 C27 1_555 1_555
H23 C28 1_555 1_555
C29 C28 1_555 1_555
C30 C29 1_555 1_555
H24 C30 1_555 1_555
C31 C26 1_555 1_555
H25 C31 1_555 1_555
C32 N2 1_555 1_555
H26 C32 1_555 1_555
H27 C32 1_555 1_555
H28 C32 1_555 1_555
C33 N1 1_555 1_555
H29 C33 1_555 1_555
S2 O3 1_555 1_555
Cl2 C55 1_555 1_555
O4 S2 1_555 1_555
N3 S2 1_555 1_555
N4 C58 1_555 1_555
C34 S2 1_555 1_555
C35 C34 1_555 1_555
H30 C35 1_555 1_555
C36 C35 1_555 1_555
H31 C36 1_555 1_555
C37 C36 1_555 1_555
C38 C37 1_555 1_555
H32 C38 1_555 1_555
C39 C34 1_555 1_555
H33 C39 1_555 1_555
C40 C37 1_555 1_555
H34 C40 1_555 1_555
H35 C40 1_555 1_555
H36 C40 1_555 1_555
C41 N3 1_555 1_555
C42 C41 1_555 1_555
H37 C42 1_555 1_555
C43 C42 1_555 1_555
H38 C43 1_555 1_555
C44 C43 1_555 1_555
H39 C44 1_555 1_555
C45 C44 1_555 1_555
H40 C45 1_555 1_555
C46 C41 1_555 1_555
H41 C46 1_555 1_555
C47 N3 1_555 1_555
H42 C47 1_555 1_555
C48 C47 1_555 1_555
C49 C48 1_555 1_555
H43 C49 1_555 1_555
C50 C49 1_555 1_555
H44 C50 1_555 1_555
C51 C48 1_555 1_555
H45 C51 1_555 1_555
H46 C51 1_555 1_555
C52 C50 1_555 1_555
C53 C52 1_555 1_555
H47 C53 1_555 1_555
C54 C53 1_555 1_555
H48 C54 1_555 1_555
C55 C54 1_555 1_555
C56 C55 1_555 1_555
H49 C56 1_555 1_555
C57 C52 1_555 1_555
H50 C57 1_555 1_555
C58 H51 1_555 1_555
C59 C49 1_555 1_555
C60 C59 1_555 1_555
C61 C60 1_555 1_555
H52 C61 1_555 1_555
C62 C61 1_555 1_555
H53 C62 1_555 1_555
C63 C62 1_555 1_555
H54 C63 1_555 1_555
C64 C63 1_555 1_555
H55 C64 1_555 1_555
C65 N4 1_555 1_555
C66 N4 1_555 1_555
H56 C66 1_555 1_555
H57 C66 1_555 1_555
H58 C66 1_555 1_555
C5 C6 1_555 1_555
C12 C13 1_555 1_555
C16 C17 1_555 1_555
C20 C21 1_555 1_555
C23 C33 1_555 1_555
C24 C25 1_555 1_555
C30 C31 1_555 1_555
C38 C39 1_555 1_555
C45 C46 1_555 1_555
C50 C51 1_555 1_555
C56 C57 1_555 1_555
C58 C59 1_555 1_555
C60 C65 1_555 1_555
C64 C65 1_555 1_555

#END
