
#######################################################################
#
#                 Cambridge Crystallographic Data Centre
#                                CCDC 
#
#######################################################################
#
# If this CIF has been generated from an entry in the Cambridge 
# Structural Database, then it will include bibliographic, chemical, 
# crystal, experimental, refinement or atomic coordinate data resulting 
# from the CCDC's data processing and validation procedures.
#
#######################################################################

data_CUKDOC
_chemical_formula_moiety         'C13 H12 N4 O4'
_chemical_name_systematic        N,N'-bis(3-Nitrophenyl)methanediamine
_symmetry_cell_setting           monoclinic
_symmetry_space_group_name_H-M   'C 2/c'
_symmetry_Int_Tables_number      15
_space_group_name_Hall           '-C 2yn'
loop_
_symmetry_equiv_pos_site_id
_symmetry_equiv_pos_as_xyz
1 x,y,z
2 -x,y,1/2-z
3 1/2+x,1/2+y,z
4 1/2-x,1/2+y,1/2-z
5 -x,-y,-z
6 x,-y,1/2+z
7 1/2-x,1/2-y,-z
8 1/2+x,1/2-y,1/2+z
_cell_length_a                   24.517(6)
_cell_length_b                   4.0505(11)
_cell_length_c                   16.222(4)
_cell_angle_alpha                90
_cell_angle_beta                 127.924(2)
_cell_angle_gamma                90
_cell_volume                     1270.76
_exptl_crystal_colour            green
_exptl_crystal_description       plate
_cell_formula_units_Z            4
_exptl_crystal_recrystallization_method dimethylformamide
loop_
_atom_site_label
_atom_site_type_symbol
_atom_site_fract_x
_atom_site_fract_y
_atom_site_fract_z
O1 O 0.13852(13) 0.4634(9) 0.05651(17)
O2 O 0.05358(13) 0.7672(8) 0.00700(15)
N1 N 0.10416(11) 0.6162(6) 0.07392(16)
N2 N 0.06157(8) 0.8906(5) 0.32219(12)
H1 H 0.0742 0.8619 0.3843
C1 C 0.12535(10) 0.6099(5) 0.18042(15)
C2 C 0.18713(11) 0.4624(6) 0.25710(18)
H2 H 0.2148 0.3662 0.2426
C3 C 0.20635(11) 0.4637(6) 0.35729(18)
H3 H 0.2480 0.3678 0.4117
C4 C 0.16479(10) 0.6044(6) 0.37706(15)
H4 H 0.1789 0.6016 0.4450
C5 C 0.10170(9) 0.7523(5) 0.29815(14)
C6 C 0.08182(9) 0.7536(5) 0.19725(14)
H5 H 0.0402 0.8489 0.1424
C7 C 0.0000 1.0795(7) 0.2500
H6 H 0.0081 1.2212 0.2103
O1A O -0.13852(13) 0.4634(9) 0.44349(17)
O2A O -0.05358(13) 0.7672(8) 0.49300(15)
N1A N -0.10416(11) 0.6162(6) 0.42608(16)
N2A N -0.06157(8) 0.8906(5) 0.17781(12)
H1A H -0.0742 0.8619 0.1157
C1A C -0.12535(10) 0.6099(5) 0.31958(15)
C2A C -0.18713(11) 0.4624(6) 0.24290(18)
H2A H -0.2148 0.3662 0.2574
C3A C -0.20635(11) 0.4637(6) 0.14271(18)
H3A H -0.2480 0.3678 0.0883
C4A C -0.16479(10) 0.6044(6) 0.12294(15)
H4A H -0.1789 0.6016 0.0550
C5A C -0.10170(9) 0.7523(5) 0.20185(14)
C6A C -0.08182(9) 0.7536(5) 0.30275(14)
H5A H -0.0402 0.8489 0.3576
H6A H -0.0081 1.2212 0.2897
loop_
_geom_bond_atom_site_label_1
_geom_bond_atom_site_label_2
_geom_bond_site_symmetry_1
_geom_bond_site_symmetry_2
O1 N1 1_555 1_555
O2 N1 1_555 1_555
N1 C1 1_555 1_555
N2 H1 1_555 1_555
C1 C2 1_555 1_555
C2 H2 1_555 1_555
C3 C2 1_555 1_555
H3 C3 1_555 1_555
C4 C3 1_555 1_555
H4 C4 1_555 1_555
C5 N2 1_555 1_555
C6 C1 1_555 1_555
H5 C6 1_555 1_555
C7 N2 1_555 1_555
H6 C7 1_555 1_555
O1A N1A 1_555 1_555
O2A N1A 1_555 1_555
N1A C1A 1_555 1_555
N2A C7 1_555 1_555
H1A N2A 1_555 1_555
C1A C2A 1_555 1_555
C2A H2A 1_555 1_555
C3A C2A 1_555 1_555
H3A C3A 1_555 1_555
C4A C3A 1_555 1_555
H4A C4A 1_555 1_555
C5A N2A 1_555 1_555
C6A C1A 1_555 1_555
H5A C6A 1_555 1_555
H6A C7 1_555 1_555
C4 C5 1_555 1_555
C5 C6 1_555 1_555
C4A C5A 1_555 1_555
C5A C6A 1_555 1_555

#END
