
#######################################################################
#
#                 Cambridge Crystallographic Data Centre
#                                CCDC 
#
#######################################################################
#
# If this CIF has been generated from an entry in the Cambridge 
# Structural Database, then it will include bibliographic, chemical, 
# crystal, experimental, refinement or atomic coordinate data resulting 
# from the CCDC's data processing and validation procedures.
#
#######################################################################

data_CUKKUQ
_chemical_formula_moiety         'C29 H37 N3 O3'
_chemical_name_systematic        
'Methyl 1-benzyl-5-(7-ethyl-1H-indol-3-yl)prolyl-leucinate'
_symmetry_cell_setting           triclinic
_symmetry_space_group_name_H-M   'P 1'
_symmetry_Int_Tables_number      1
_space_group_name_Hall           'P 1'
loop_
_symmetry_equiv_pos_site_id
_symmetry_equiv_pos_as_xyz
1 x,y,z
_cell_length_a                   13.8032(6)
_cell_length_b                   14.0849(6)
_cell_length_c                   14.8146(6)
_cell_angle_alpha                89.715(3)
_cell_angle_beta                 77.329(3)
_cell_angle_gamma                77.339(3)
_cell_volume                     2738.92
_exptl_crystal_colour            colorless
_exptl_crystal_description       prism
_cell_formula_units_Z            4
loop_
_atom_site_label
_atom_site_type_symbol
_atom_site_fract_x
_atom_site_fract_y
_atom_site_fract_z
O1 O -0.2428(4) -0.7905(3) 0.4907(3)
O2 O -0.2848(4) -0.7749(4) 0.1787(3)
O3 O -0.3905(4) -0.8715(3) 0.2384(3)
N1 N -0.1638(5) -0.4365(4) 0.1244(4)
H1 H -0.1837 -0.4364 0.0719
N2 N -0.0986(4) -0.6507(3) 0.3265(3)
N3 N -0.2582(4) -0.7349(3) 0.3499(3)
H2 H -0.2367 -0.6991 0.3042
C1 C -0.1306(7) -0.1478(7) -0.0019(7)
H3 H -0.1486 -0.1365 -0.0621
H4 H -0.0577 -0.1510 -0.0088
H5 H -0.1700 -0.0944 0.0423
C2 C -0.1544(7) -0.2426(5) 0.0332(6)
H6 H -0.1169 -0.2954 -0.0136
H7 H -0.2281 -0.2385 0.0394
C3 C -0.1277(5) -0.2696(4) 0.1251(5)
C4 C -0.0936(6) -0.2091(5) 0.1794(6)
H8 H -0.0883 -0.1461 0.1586
C5 C -0.0669(6) -0.2366(5) 0.2623(5)
H9 H -0.0454 -0.1917 0.2970
C6 C -0.0710(5) -0.3287(4) 0.2957(5)
H10 H -0.0504 -0.3482 0.3513
C7 C -0.1065(4) -0.3913(4) 0.2445(4)
C8 C -0.1336(5) -0.3606(4) 0.1609(4)
C9 C -0.1220(4) -0.4881(4) 0.2588(4)
C10 C -0.1579(6) -0.5124(4) 0.1837(5)
H11 H -0.1757 -0.5724 0.1744
C11 C -0.1066(5) -0.5443(4) 0.3414(4)
H12 H -0.0420 -0.5354 0.3566
C12 C -0.1921(5) -0.5174(4) 0.4280(5)
H13 H -0.2597 -0.5134 0.4138
H14 H -0.1913 -0.4548 0.4576
C13 C -0.1649(6) -0.6031(4) 0.4888(4)
H15 H -0.2250 -0.6099 0.5369
H16 H -0.1097 -0.5953 0.5190
C14 C -0.1295(5) -0.6906(4) 0.4185(4)
H17 H -0.0690 -0.7360 0.4335
C15 C 0.0037(5) -0.6995(4) 0.2768(4)
H18 H 0.0531 -0.6916 0.3140
H19 H 0.0210 -0.6678 0.2175
C16 C 0.0136(5) -0.8068(4) 0.2573(4)
C17 C 0.0785(5) -0.8745(4) 0.2960(5)
H20 H 0.1188 -0.8539 0.3332
C18 C 0.0853(6) -0.9750(5) 0.2804(5)
H21 H 0.1309 -1.0220 0.3062
C19 C 0.0257(6) -1.0043(4) 0.2279(5)
H22 H 0.0298 -1.0718 0.2180
C20 C -0.0389(5) -0.9375(5) 0.1899(5)
H23 H -0.0797 -0.9587 0.1537
C21 C -0.0461(5) -0.8374(4) 0.2038(4)
H24 H -0.0913 -0.7910 0.1769
C22 C -0.2141(5) -0.7445(4) 0.4227(4)
C23 C -0.3398(5) -0.7815(4) 0.3447(4)
H25 H -0.3276 -0.8443 0.3767
C24 C -0.3335(5) -0.8069(4) 0.2428(4)
C25 C -0.3951(7) -0.9007(7) 0.1470(6)
H26 H -0.3258 -0.9238 0.1096
H27 H -0.4307 -0.8451 0.1181
H28 H -0.4319 -0.9533 0.1510
C26 C -0.4450(5) -0.7208(5) 0.3949(5)
H29 H -0.4979 -0.7470 0.3743
H30 H -0.4531 -0.7309 0.4621
C27 C -0.4660(5) -0.6118(5) 0.3813(6)
H31 H -0.4066 -0.5875 0.3925
C28 C -0.5589(8) -0.5613(7) 0.4521(7)
H32 H -0.6203 -0.5716 0.4342
H33 H -0.5611 -0.4914 0.4554
H34 H -0.5559 -0.5882 0.5129
C29 C -0.4775(10) -0.5864(7) 0.2854(7)
H35 H -0.4191 -0.6242 0.2402
H36 H -0.4806 -0.5167 0.2778
H37 H -0.5404 -0.6017 0.2753
O4 O -0.6016(4) -0.8493(3) 0.0676(3)
O5 O -0.5567(4) -0.8963(3) -0.2637(3)
O6 O -0.4616(4) -0.7881(4) -0.2522(3)
N4 N -0.7361(5) -1.1997(4) -0.2346(4)
H38 H -0.7140 -1.2035 -0.2951
N5 N -0.7569(4) -0.9891(4) -0.0200(4)
N6 N -0.5927(4) -0.9125(4) -0.0745(3)
H39 H -0.6179 -0.9476 -0.1086
C30 C -0.769(2) -1.4613(12) -0.3436(11)
H40 H -0.7813 -1.4699 -0.4054
H41 H -0.8043 -1.5022 -0.3005
H42 H -0.6957 -1.4802 -0.3463
C31 C -0.8039(10) -1.3680(6) -0.3143(6)
H43 H -0.8685 -1.3445 -0.3346
H44 H -0.7547 -1.3314 -0.3481
C32 C -0.8240(7) -1.3388(5) -0.2134(6)
C33 C -0.8784(7) -1.3859(5) -0.1436(6)
H45 H -0.9033 -1.4394 -0.1604
C34 C -0.8977(6) -1.3575(5) -0.0493(6)
H46 H -0.9342 -1.3926 -0.0043
C35 C -0.8645(5) -1.2795(5) -0.0210(5)
H47 H -0.8777 -1.2605 0.0428
C36 C -0.8109(5) -1.2290(4) -0.0885(5)
C37 C -0.7904(5) -1.2604(4) -0.1840(5)
C38 C -0.7662(5) -1.1464(5) -0.0863(5)
C39 C -0.7223(6) -1.1328(5) -0.1757(5)
H48 H -0.6866 -1.0830 -0.1945
C40 C -0.7645(5) -1.0910(4) -0.0005(4)
H49 H -0.8273 -1.0913 0.0482
C41 C -0.6710(6) -1.1284(5) 0.0381(5)
H50 H -0.6082 -1.1416 -0.0117
H51 H -0.6759 -1.1885 0.0721
C42 C -0.6729(5) -1.0430(5) 0.1043(5)
H52 H -0.6036 -1.0424 0.1120
H53 H -0.7174 -1.0467 0.1659
C43 C -0.7167(5) -0.9523(4) 0.0542(4)
H54 H -0.7731 -0.9077 0.0986
C44 C -0.8529(5) -0.9276(5) -0.0330(5)
H55 H -0.9026 -0.9152 0.0273
H56 H -0.8813 -0.9622 -0.0753
C45 C -0.8377(5) -0.8326(5) -0.0723(5)
C46 C -0.8587(6) -0.7477(5) -0.0160(6)
H57 H -0.8853 -0.7503 0.0485
C47 C -0.8426(8) -0.6625(7) -0.0505(10)
H58 H -0.8594 -0.6058 -0.0107
C48 C -0.8026(9) -0.6576(7) -0.1412(12)
H59 H -0.7886 -0.5982 -0.1652
C49 C -0.7821(10) -0.7388(8) -0.1991(9)
H60 H -0.7562 -0.7344 -0.2636
C50 C -0.7987(8) -0.8268(6) -0.1650(6)
H61 H -0.7831 -0.8828 -0.2055
C51 C -0.6338(5) -0.8998(4) 0.0155(4)
C52 C -0.5091(4) -0.8718(4) -0.1186(4)
H62 H -0.5149 -0.8080 -0.0863
C53 C -0.5139(5) -0.8543(4) -0.2190(4)
C54 C -0.4546(8) -0.7667(8) -0.3489(6)
H63 H -0.4112 -0.8228 -0.3878
H64 H -0.4250 -0.7096 -0.3624
H65 H -0.5228 -0.7533 -0.3619
C55 C -0.4064(5) -0.9392(5) -0.1142(5)
H66 H -0.3509 -0.9082 -0.1450
H67 H -0.4026 -0.9463 -0.0485
C56 C -0.3892(6) -1.0406(5) -0.1597(6)
H68 H -0.4505 -1.0439 -0.1841
C57 C -0.3775(9) -1.1181(7) -0.0874(8)
H69 H -0.3180 -1.1157 -0.0624
H70 H -0.3684 -1.1827 -0.1166
H71 H -0.4387 -1.1055 -0.0371
C58 C -0.2981(8) -1.0616(7) -0.2384(7)
H72 H -0.3019 -1.0078 -0.2806
H73 H -0.2963 -1.1220 -0.2719
H74 H -0.2362 -1.0689 -0.2145
O7 O -0.6470(4) -1.2076(3) 0.5758(3)
O8 O -0.5389(4) -1.1435(4) 0.2539(3)
O9 O -0.4872(4) -1.3065(4) 0.2397(4)
N7 N -0.6728(4) -0.7964(3) 0.2584(3)
H75 H -0.6488 -0.8045 0.1982
N8 N -0.6340(4) -0.9670(3) 0.4945(3)
N9 N -0.6211(4) -1.1472(3) 0.4334(3)
H76 H -0.6264 -1.0941 0.4016
C59 C -0.7926(8) -0.5137(5) 0.1322(6)
H77 H -0.7704 -0.5121 0.0648
H78 H -0.7757 -0.4592 0.1617
H79 H -0.8664 -0.5083 0.1491
C60 C -0.7390(6) -0.6085(4) 0.1647(5)
H80 H -0.7562 -0.6628 0.1338
H81 H -0.6646 -0.6145 0.1441
C61 C -0.7638(5) -0.6204(4) 0.2665(4)
C62 C -0.8228(5) -0.5468(4) 0.3325(5)
H82 H -0.8476 -0.4839 0.3121
C63 C -0.8458(5) -0.5633(4) 0.4263(5)
H83 H -0.8857 -0.5108 0.4677
C64 C -0.8139(5) -0.6513(4) 0.4623(5)
H84 H -0.8319 -0.6606 0.5269
C65 C -0.7535(4) -0.7275(4) 0.4000(4)
C66 C -0.7303(4) -0.7114(4) 0.3048(4)
C67 C -0.7080(5) -0.8286(4) 0.4106(4)
C68 C -0.6589(5) -0.8668(4) 0.3224(4)
H85 H -0.6211 -0.9319 0.3080
C69 C -0.7164(5) -0.8805(4) 0.4987(4)
H86 H -0.7153 -0.8348 0.5497
C70 C -0.8116(5) -0.9217(5) 0.5258(5)
H87 H -0.8247 -0.9536 0.4717
H88 H -0.8722 -0.8699 0.5531
C71 C -0.7854(5) -0.9956(5) 0.5976(5)
H89 H -0.8214 -1.0492 0.5978
H90 H -0.8033 -0.9642 0.6604
C72 C -0.6688(5) -1.0334(4) 0.5646(4)
H91 H -0.6358 -1.0308 0.6180
C73 C -0.5366(5) -0.9445(4) 0.5001(5)
H92 H -0.5425 -0.9154 0.5623
H93 H -0.5201 -0.8961 0.4538
C74 C -0.4509(5) -1.0363(4) 0.4821(5)
C75 C -0.4237(6) -1.0895(5) 0.5549(5)
H94 H -0.4534 -1.0657 0.6170
C76 C -0.3534(6) -1.1773(6) 0.5372(7)
H95 H -0.3366 -1.2145 0.5875
C77 C -0.3071(6) -1.2121(6) 0.4477(7)
H96 H -0.2584 -1.2724 0.4367
C78 C -0.3317(6) -1.1595(6) 0.3752(7)
H97 H -0.3005 -1.1836 0.3135
C79 C -0.4035(5) -1.0692(5) 0.3914(5)
H98 H -0.4191 -1.0315 0.3410
C80 C -0.6432(5) -1.1387(4) 0.5245(4)
C81 C -0.5881(5) -1.2419(4) 0.3835(5)
H99 H -0.5347 -1.2824 0.4121
C82 C -0.5360(5) -1.2230(5) 0.2848(5)
C83 C -0.4302(9) -1.2950(8) 0.1454(7)
H100 H -0.4772 -1.2595 0.1095
H101 H -0.3974 -1.3593 0.1154
H102 H -0.3782 -1.2584 0.1486
C84 C -0.6736(6) -1.2947(4) 0.3930(5)
H103 H -0.6913 -1.3132 0.4581
H104 H -0.6478 -1.3558 0.3540
C85 C -0.7721(6) -1.2390(4) 0.3666(5)
H105 H -0.7803 -1.1683 0.3823
C86 C -0.8641(7) -1.2707(7) 0.4220(7)
H106 H -0.8532 -1.3417 0.4159
H107 H -0.9243 -1.2402 0.3988
H108 H -0.8747 -1.2507 0.4873
C87 C -0.7632(7) -1.2506(7) 0.2605(6)
H109 H -0.7043 -1.2269 0.2270
H110 H -0.8253 -1.2128 0.2446
H111 H -0.7545 -1.3195 0.2430
O10 O -0.2551(4) -0.4291(3) -0.0314(3)
O11 O -0.3499(4) -0.5274(3) -0.3069(3)
O12 O -0.4104(4) -0.3663(3) -0.3137(3)
N10 N -0.1696(4) -0.8311(3) -0.3436(4)
H112 H -0.1798 -0.8185 -0.3995
N11 N -0.2716(5) -0.6756(3) -0.0797(4)
N12 N -0.2754(4) -0.5034(3) -0.1592(3)
H113 H -0.2677 -0.5599 -0.1881
C88 C -0.1476(8) -1.0396(6) -0.4959(6)
H114 H -0.1400 -1.0459 -0.5630
H115 H -0.2104 -0.9917 -0.4690
H116 H -0.1509 -1.1028 -0.4688
C89 C -0.0582(6) -1.0066(5) -0.4756(5)
H117 H 0.0050 -1.0528 -0.5074
H118 H -0.0568 -0.9421 -0.5020
C90 C -0.0586(5) -0.9991(4) -0.3747(5)
C91 C -0.0089(5) -1.0753(5) -0.3291(5)
H119 H 0.0266 -1.1342 -0.3632
C92 C -0.0097(5) -1.0675(4) -0.2340(5)
H120 H 0.0241 -1.1214 -0.2054
C93 C -0.0591(5) -0.9823(4) -0.1817(5)
H121 H -0.0568 -0.9764 -0.1184
C94 C -0.1126(5) -0.9047(4) -0.2243(4)
C95 C -0.1119(5) -0.9157(4) -0.3186(4)
C96 C -0.1756(5) -0.8102(4) -0.1913(5)
C97 C -0.2092(5) -0.7689(4) -0.2645(5)
H122 H -0.2533 -0.7064 -0.2625
C98 C -0.1992(8) -0.7719(5) -0.0920(6)
H123 H -0.2337 -0.8181 -0.0527
C99 C -0.1129(8) -0.7590(8) -0.0527(8)
H124 H -0.0474 -0.7975 -0.0895
H125 H -0.1215 -0.7786 0.0123
C100 C -0.1175(6) -0.6494(6) -0.0588(7)
H126 H -0.0843 -0.6264 -0.0129
H127 H -0.0841 -0.6336 -0.1216
C101 C -0.2310(5) -0.6044(4) -0.0372(4)
H128 H -0.2583 -0.6003 0.0313
C102 C -0.3733(7) -0.6844(5) -0.0292(7)
H129 H -0.3720 -0.6963 0.0365
H130 H -0.3909 -0.7412 -0.0555
C103 C -0.4549(6) -0.5935(5) -0.0341(6)
C104 C -0.4959(6) -0.5807(6) -0.1126(6)
H131 H -0.4758 -0.6299 -0.1608
C105 C -0.5660(7) -0.4958(7) -0.1197(8)
H132 H -0.5922 -0.4868 -0.1740
C106 C -0.5982(8) -0.4250(8) -0.0514(11)
H133 H -0.6463 -0.3670 -0.0572
C107 C -0.5595(8) -0.4396(10) 0.0261(9)
H134 H -0.5825 -0.3909 0.0749
C108 C -0.4892(7) -0.5213(7) 0.0364(7)
H135 H -0.4639 -0.5288 0.0913
C109 C -0.2554(5) -0.5035(4) -0.0756(4)
C110 C -0.3091(5) -0.4157(4) -0.2055(4)
H136 H -0.3630 -0.3706 -0.1592
C111 C -0.3592(5) -0.4454(4) -0.2802(4)
C112 C -0.4605(7) -0.3872(6) -0.3849(6)
H137 H -0.4092 -0.4163 -0.4401
H138 H -0.5026 -0.3267 -0.4007
H139 H -0.5037 -0.4329 -0.3622
C113 C -0.2268(5) -0.3605(4) -0.2462(5)
H140 H -0.2610 -0.2953 -0.2624
H141 H -0.1911 -0.3504 -0.1971
C114 C -0.1469(6) -0.4076(5) -0.3312(5)
H142 H -0.1839 -0.4238 -0.3780
C115 C -0.0766(6) -0.5015(5) -0.3126(6)
H143 H -0.0460 -0.4897 -0.2611
H144 H -0.0226 -0.5233 -0.3682
H145 H -0.1158 -0.5517 -0.2966
C116 C -0.0865(9) -0.3321(8) -0.3728(8)
H146 H -0.1338 -0.2722 -0.3828
H147 H -0.0410 -0.3583 -0.4320
H148 H -0.0461 -0.3176 -0.3300
loop_
_geom_bond_atom_site_label_1
_geom_bond_atom_site_label_2
_geom_bond_site_symmetry_1
_geom_bond_site_symmetry_2
O1 C22 1_555 1_555
O2 C24 1_555 1_555
O3 C24 1_555 1_555
N1 H1 1_555 1_555
N2 C11 1_555 1_555
N3 H2 1_555 1_555
C1 H3 1_555 1_555
H4 C1 1_555 1_555
H5 C1 1_555 1_555
C2 C1 1_555 1_555
H6 C2 1_555 1_555
H7 C2 1_555 1_555
C3 C2 1_555 1_555
C4 C3 1_555 1_555
H8 C4 1_555 1_555
C5 C4 1_555 1_555
H9 C5 1_555 1_555
C6 C5 1_555 1_555
H10 C6 1_555 1_555
C7 C6 1_555 1_555
C8 N1 1_555 1_555
C9 C7 1_555 1_555
C10 N1 1_555 1_555
H11 C10 1_555 1_555
C11 C9 1_555 1_555
H12 C11 1_555 1_555
C12 C11 1_555 1_555
H13 C12 1_555 1_555
H14 C12 1_555 1_555
C13 C12 1_555 1_555
H15 C13 1_555 1_555
H16 C13 1_555 1_555
C14 N2 1_555 1_555
H17 C14 1_555 1_555
C15 N2 1_555 1_555
H18 C15 1_555 1_555
H19 C15 1_555 1_555
C16 C15 1_555 1_555
C17 C16 1_555 1_555
H20 C17 1_555 1_555
C18 C17 1_555 1_555
H21 C18 1_555 1_555
C19 C18 1_555 1_555
H22 C19 1_555 1_555
C20 C19 1_555 1_555
H23 C20 1_555 1_555
C21 C16 1_555 1_555
H24 C21 1_555 1_555
C22 N3 1_555 1_555
C23 N3 1_555 1_555
H25 C23 1_555 1_555
C24 C23 1_555 1_555
C25 O3 1_555 1_555
H26 C25 1_555 1_555
H27 C25 1_555 1_555
H28 C25 1_555 1_555
C26 C23 1_555 1_555
H29 C26 1_555 1_555
H30 C26 1_555 1_555
C27 C26 1_555 1_555
H31 C27 1_555 1_555
C28 C27 1_555 1_555
H32 C28 1_555 1_555
H33 C28 1_555 1_555
H34 C28 1_555 1_555
C29 C27 1_555 1_555
H35 C29 1_555 1_555
H36 C29 1_555 1_555
H37 C29 1_555 1_555
O4 C51 1_555 1_555
O5 C53 1_555 1_555
O6 C53 1_555 1_555
N4 H38 1_555 1_555
N5 C40 1_555 1_555
N6 H39 1_555 1_555
C30 H40 1_555 1_555
H41 C30 1_555 1_555
H42 C30 1_555 1_555
C31 C30 1_555 1_555
H43 C31 1_555 1_555
H44 C31 1_555 1_555
C32 C31 1_555 1_555
C33 C32 1_555 1_555
H45 C33 1_555 1_555
C34 C33 1_555 1_555
H46 C34 1_555 1_555
C35 C34 1_555 1_555
H47 C35 1_555 1_555
C36 C35 1_555 1_555
C37 N4 1_555 1_555
C38 C36 1_555 1_555
C39 N4 1_555 1_555
H48 C39 1_555 1_555
C40 C38 1_555 1_555
H49 C40 1_555 1_555
C41 C40 1_555 1_555
H50 C41 1_555 1_555
H51 C41 1_555 1_555
C42 C41 1_555 1_555
H52 C42 1_555 1_555
H53 C42 1_555 1_555
C43 N5 1_555 1_555
H54 C43 1_555 1_555
C44 N5 1_555 1_555
H55 C44 1_555 1_555
H56 C44 1_555 1_555
C45 C44 1_555 1_555
C46 C45 1_555 1_555
H57 C46 1_555 1_555
C47 C46 1_555 1_555
H58 C47 1_555 1_555
C48 C47 1_555 1_555
H59 C48 1_555 1_555
C49 C48 1_555 1_555
H60 C49 1_555 1_555
C50 C45 1_555 1_555
H61 C50 1_555 1_555
C51 N6 1_555 1_555
C52 N6 1_555 1_555
H62 C52 1_555 1_555
C53 C52 1_555 1_555
C54 O6 1_555 1_555
H63 C54 1_555 1_555
H64 C54 1_555 1_555
H65 C54 1_555 1_555
C55 C52 1_555 1_555
H66 C55 1_555 1_555
H67 C55 1_555 1_555
C56 C55 1_555 1_555
H68 C56 1_555 1_555
C57 C56 1_555 1_555
H69 C57 1_555 1_555
H70 C57 1_555 1_555
H71 C57 1_555 1_555
C58 C56 1_555 1_555
H72 C58 1_555 1_555
H73 C58 1_555 1_555
H74 C58 1_555 1_555
O7 C80 1_555 1_555
O8 C82 1_555 1_555
O9 C82 1_555 1_555
N7 H75 1_555 1_555
N8 C69 1_555 1_555
N9 H76 1_555 1_555
C59 H77 1_555 1_555
H78 C59 1_555 1_555
H79 C59 1_555 1_555
C60 C59 1_555 1_555
H80 C60 1_555 1_555
H81 C60 1_555 1_555
C61 C60 1_555 1_555
C62 C61 1_555 1_555
H82 C62 1_555 1_555
C63 C62 1_555 1_555
H83 C63 1_555 1_555
C64 C63 1_555 1_555
H84 C64 1_555 1_555
C65 C64 1_555 1_555
C66 N7 1_555 1_555
C67 C65 1_555 1_555
C68 N7 1_555 1_555
H85 C68 1_555 1_555
C69 C67 1_555 1_555
H86 C69 1_555 1_555
C70 C69 1_555 1_555
H87 C70 1_555 1_555
H88 C70 1_555 1_555
C71 C70 1_555 1_555
H89 C71 1_555 1_555
H90 C71 1_555 1_555
C72 N8 1_555 1_555
H91 C72 1_555 1_555
C73 N8 1_555 1_555
H92 C73 1_555 1_555
H93 C73 1_555 1_555
C74 C73 1_555 1_555
C75 C74 1_555 1_555
H94 C75 1_555 1_555
C76 C75 1_555 1_555
H95 C76 1_555 1_555
C77 C76 1_555 1_555
H96 C77 1_555 1_555
C78 C77 1_555 1_555
H97 C78 1_555 1_555
C79 C74 1_555 1_555
H98 C79 1_555 1_555
C80 N9 1_555 1_555
C81 N9 1_555 1_555
H99 C81 1_555 1_555
C82 C81 1_555 1_555
C83 O9 1_555 1_555
H100 C83 1_555 1_555
H101 C83 1_555 1_555
H102 C83 1_555 1_555
C84 C81 1_555 1_555
H103 C84 1_555 1_555
H104 C84 1_555 1_555
C85 C84 1_555 1_555
H105 C85 1_555 1_555
C86 C85 1_555 1_555
H106 C86 1_555 1_555
H107 C86 1_555 1_555
H108 C86 1_555 1_555
C87 C85 1_555 1_555
H109 C87 1_555 1_555
H110 C87 1_555 1_555
H111 C87 1_555 1_555
O10 C109 1_555 1_555
O11 C111 1_555 1_555
O12 C111 1_555 1_555
N10 H112 1_555 1_555
N11 C98 1_555 1_555
N12 H113 1_555 1_555
C88 H114 1_555 1_555
H115 C88 1_555 1_555
H116 C88 1_555 1_555
C89 C88 1_555 1_555
H117 C89 1_555 1_555
H118 C89 1_555 1_555
C90 C89 1_555 1_555
C91 C90 1_555 1_555
H119 C91 1_555 1_555
C92 C91 1_555 1_555
H120 C92 1_555 1_555
C93 C92 1_555 1_555
H121 C93 1_555 1_555
C94 C93 1_555 1_555
C95 N10 1_555 1_555
C96 C94 1_555 1_555
C97 N10 1_555 1_555
H122 C97 1_555 1_555
C98 C96 1_555 1_555
H123 C98 1_555 1_555
C99 C98 1_555 1_555
H124 C99 1_555 1_555
H125 C99 1_555 1_555
C100 C99 1_555 1_555
H126 C100 1_555 1_555
H127 C100 1_555 1_555
C101 N11 1_555 1_555
H128 C101 1_555 1_555
C102 N11 1_555 1_555
H129 C102 1_555 1_555
H130 C102 1_555 1_555
C103 C102 1_555 1_555
C104 C103 1_555 1_555
H131 C104 1_555 1_555
C105 C104 1_555 1_555
H132 C105 1_555 1_555
C106 C105 1_555 1_555
H133 C106 1_555 1_555
C107 C106 1_555 1_555
H134 C107 1_555 1_555
C108 C103 1_555 1_555
H135 C108 1_555 1_555
C109 N12 1_555 1_555
C110 N12 1_555 1_555
H136 C110 1_555 1_555
C111 C110 1_555 1_555
C112 O12 1_555 1_555
H137 C112 1_555 1_555
H138 C112 1_555 1_555
H139 C112 1_555 1_555
C113 C110 1_555 1_555
H140 C113 1_555 1_555
H141 C113 1_555 1_555
C114 C113 1_555 1_555
H142 C114 1_555 1_555
C115 C114 1_555 1_555
H143 C115 1_555 1_555
H144 C115 1_555 1_555
H145 C115 1_555 1_555
C116 C114 1_555 1_555
H146 C116 1_555 1_555
H147 C116 1_555 1_555
H148 C116 1_555 1_555
C3 C8 1_555 1_555
C7 C8 1_555 1_555
C9 C10 1_555 1_555
C13 C14 1_555 1_555
C14 C22 1_555 1_555
C20 C21 1_555 1_555
C32 C37 1_555 1_555
C36 C37 1_555 1_555
C38 C39 1_555 1_555
C42 C43 1_555 1_555
C43 C51 1_555 1_555
C49 C50 1_555 1_555
C61 C66 1_555 1_555
C65 C66 1_555 1_555
C67 C68 1_555 1_555
C71 C72 1_555 1_555
C72 C80 1_555 1_555
C78 C79 1_555 1_555
C90 C95 1_555 1_555
C94 C95 1_555 1_555
C96 C97 1_555 1_555
C100 C101 1_555 1_555
C101 C109 1_555 1_555
C107 C108 1_555 1_555

#END
