
#######################################################################
#
#                 Cambridge Crystallographic Data Centre
#                                CCDC 
#
#######################################################################
#
# If this CIF has been generated from an entry in the Cambridge 
# Structural Database, then it will include bibliographic, chemical, 
# crystal, experimental, refinement or atomic coordinate data resulting 
# from the CCDC's data processing and validation procedures.
#
#######################################################################

data_CUKNON
_chemical_formula_moiety         'C7 H11 N2 1+,C7 H5 Cl1 O2,C7 H4 Cl1 O2 1-'
_chemical_name_systematic        
'4-(Dimethylamino)pyridinium 4-chlorobenzoate 4-chlorobenzoic acid'
_symmetry_cell_setting           triclinic
_symmetry_space_group_name_H-M   'P -1'
_symmetry_Int_Tables_number      2
_space_group_name_Hall           '-P 1'
loop_
_symmetry_equiv_pos_site_id
_symmetry_equiv_pos_as_xyz
1 x,y,z
2 -x,-y,-z
_cell_length_a                   9.5516(19)
_cell_length_b                   9.767(2)
_cell_length_c                   13.573(3)
_cell_angle_alpha                73.30(3)
_cell_angle_beta                 69.35(3)
_cell_angle_gamma                61.08(3)
_cell_volume                     1026.52
_exptl_crystal_colour            colorless
_exptl_crystal_description       block
_cell_formula_units_Z            2
loop_
_atom_site_label
_atom_site_type_symbol
_atom_site_fract_x
_atom_site_fract_y
_atom_site_fract_z
Cl1 Cl 0.49121(7) 0.18441(6) 0.95622(4)
O1 O 0.75318(18) 0.68145(16) 0.58174(11)
O2 O 0.67471(16) 0.59855(15) 0.48185(9)
C1 C 0.6977(2) 0.5986(2) 0.56778(14)
C2 C 0.6499(2) 0.48932(18) 0.66368(13)
C3 C 0.6946(2) 0.4648(2) 0.75571(14)
H1 H 0.7591 0.5135 0.7572
C4 C 0.6469(2) 0.3705(2) 0.84607(14)
H2 H 0.6780 0.3542 0.9092
C5 C 0.5580(2) 0.41536(19) 0.66140(14)
H3 H 0.5289 0.4292 0.5980
C6 C 0.5088(2) 0.3212(2) 0.75193(15)
H4 H 0.4448 0.2716 0.7511
C7 C 0.5539(2) 0.3010(2) 0.84233(14)
Cl2 Cl 0.99208(8) 1.32400(6) -0.00110(4)
O3 O 0.79133(16) 0.75360(14) 0.32054(10)
O4 O 0.54069(16) 0.95351(16) 0.34272(11)
C8 C 0.6877(2) 0.9003(2) 0.29994(14)
C9 C 0.7656(2) 1.00167(19) 0.22029(13)
C10 C 0.9338(2) 0.9416(2) 0.17239(13)
H5 H 1.0013 0.8319 0.1869
C11 C 1.0040(2) 1.0398(2) 0.10377(13)
H6 H 1.1192 0.9984 0.0706
C12 C 0.6672(2) 1.1616(2) 0.19864(14)
H7 H 0.5516 1.2031 0.2309
C13 C 0.7366(2) 1.2613(2) 0.13022(15)
H8 H 0.6696 1.3710 0.1153
C14 C 0.9045(2) 1.1983(2) 0.08411(13)
H9 H 0.742(3) 0.707(3) 0.3788(14)
N1 N 0.8086(2) 0.93888(19) 0.47574(12)
N2 N 1.04057(17) 1.21982(16) 0.28486(11)
C15 C 0.9704(2) 0.8731(2) 0.42749(14)
H10 H 1.0297 0.7613 0.4376
C16 C 1.0513(2) 0.9615(2) 0.36494(13)
H11 H 1.1662 0.9114 0.3321
C17 C 0.7228(2) 1.0965(2) 0.46328(14)
H12 H 0.6083 1.1416 0.4982
C18 C 0.7955(2) 1.1927(2) 0.40203(13)
H13 H 0.7322 1.3040 0.3951
C19 C 0.9660(2) 1.12789(19) 0.34811(12)
C20 C 0.9513(3) 1.3917(2) 0.27130(16)
H14 H 0.8494 1.4232 0.2516
H15 H 1.0209 1.4377 0.2150
H16 H 0.9236 1.4297 0.3381
C21 C 1.2158(2) 1.1528(3) 0.22978(15)
H17 H 1.2822 1.1066 0.2818
H18 H 1.2436 1.2362 0.1796
H19 H 1.2393 1.0705 0.1909
H20 H 0.763(3) 0.869(3) 0.514(2)
loop_
_geom_bond_atom_site_label_1
_geom_bond_atom_site_label_2
_geom_bond_site_symmetry_1
_geom_bond_site_symmetry_2
Cl1 C7 1_555 1_555
O1 C1 1_555 1_555
O2 C1 1_555 1_555
C1 C2 1_555 1_555
C2 C3 1_555 1_555
C3 H1 1_555 1_555
C4 C3 1_555 1_555
H2 C4 1_555 1_555
C5 C2 1_555 1_555
H3 C5 1_555 1_555
C6 C5 1_555 1_555
H4 C6 1_555 1_555
C7 C4 1_555 1_555
Cl2 C14 1_555 1_555
O3 C8 1_555 1_555
O4 C8 1_555 1_555
C8 C9 1_555 1_555
C9 C10 1_555 1_555
C10 H5 1_555 1_555
C11 C10 1_555 1_555
H6 C11 1_555 1_555
C12 C9 1_555 1_555
H7 C12 1_555 1_555
C13 C12 1_555 1_555
H8 C13 1_555 1_555
C14 C11 1_555 1_555
H9 O3 1_555 1_555
N1 C15 1_555 1_555
N2 C19 1_555 1_555
C15 H10 1_555 1_555
C16 C15 1_555 1_555
H11 C16 1_555 1_555
C17 N1 1_555 1_555
H12 C17 1_555 1_555
C18 C17 1_555 1_555
H13 C18 1_555 1_555
C19 C16 1_555 1_555
C20 N2 1_555 1_555
H14 C20 1_555 1_555
H15 C20 1_555 1_555
H16 C20 1_555 1_555
C21 N2 1_555 1_555
H17 C21 1_555 1_555
H18 C21 1_555 1_555
H19 C21 1_555 1_555
H20 N1 1_555 1_555
C6 C7 1_555 1_555
C13 C14 1_555 1_555
C18 C19 1_555 1_555

#END
