
#######################################################################
#
#                 Cambridge Crystallographic Data Centre
#                                CCDC 
#
#######################################################################
#
# If this CIF has been generated from an entry in the Cambridge 
# Structural Database, then it will include bibliographic, chemical, 
# crystal, experimental, refinement or atomic coordinate data resulting 
# from the CCDC's data processing and validation procedures.
#
#######################################################################

data_CUKNED
_chemical_formula_moiety         'C7 H11 N2 1+,C7 H4 Cl1 O2 1-'
_chemical_name_systematic        '4-(Dimethylamino)pyridinium 4-chlorobenzoate'
_symmetry_cell_setting           orthorhombic
_symmetry_space_group_name_H-M   'P b c a'
_symmetry_Int_Tables_number      61
_space_group_name_Hall           '-P 2ac 2ab'
loop_
_symmetry_equiv_pos_site_id
_symmetry_equiv_pos_as_xyz
1 x,y,z
2 1/2-x,-y,1/2+z
3 1/2+x,1/2-y,-z
4 -x,1/2+y,1/2-z
5 -x,-y,-z
6 1/2+x,y,1/2-z
7 1/2-x,1/2+y,z
8 x,1/2-y,1/2+z
_cell_length_a                   10.2442(7)
_cell_length_b                   7.9284(6)
_cell_length_c                   33.606(2)
_cell_angle_alpha                90
_cell_angle_beta                 90
_cell_angle_gamma                90
_cell_volume                     2729.48
_exptl_crystal_colour            colorless
_exptl_crystal_description       block
_cell_formula_units_Z            8
loop_
_atom_site_label
_atom_site_type_symbol
_atom_site_fract_x
_atom_site_fract_y
_atom_site_fract_z
Cl1 Cl 0.38242(7) -0.06883(9) 0.213835(14)
O1 O 0.31750(12) 0.21601(16) 0.39946(3)
O2 O 0.48331(13) 0.03914(17) 0.40934(4)
C1 C 0.39728(15) 0.06717(19) 0.34381(5)
C2 C 0.40207(15) 0.1077(2) 0.38769(5)
C3 C 0.29161(19) 0.0858(2) 0.27986(5)
H1 H 0.2224 0.1257 0.2636
C4 C 0.49104(19) -0.0732(2) 0.28679(5)
H2 H 0.5578 -0.1404 0.2753
C5 C 0.29682(17) 0.1269(2) 0.31995(5)
H3 H 0.2310 0.1967 0.3312
C6 C 0.49425(17) -0.0322(2) 0.32683(5)
H4 H 0.5638 -0.0726 0.3429
C7 C 0.38889(19) -0.0142(2) 0.26405(5)
N1 N 0.35447(12) 0.31540(16) 0.47023(4)
C8 C 0.38383(14) 0.42179(18) 0.54928(4)
N2 N 0.39776(13) 0.47401(17) 0.58708(4)
C9 C 0.26860(15) 0.42275(18) 0.48671(5)
H5 H 0.1979 0.4624 0.4710
C10 C 0.45449(14) 0.26047(19) 0.49250(5)
H6 H 0.5155 0.1849 0.4809
C11 C 0.47245(14) 0.30847(19) 0.53120(4)
H7 H 0.5444 0.2657 0.5459
C12 C 0.50808(17) 0.4184(2) 0.61139(5)
H8 H 0.5203 0.2966 0.6081
H9 H 0.4905 0.4438 0.6394
H10 H 0.5873 0.4775 0.6029
C13 C 0.27873(14) 0.47723(19) 0.52515(5)
H11 H 0.2153 0.5523 0.5357
C14 C 0.31198(17) 0.6035(2) 0.60342(5)
H12 H 0.3240 0.7089 0.5886
H13 H 0.3333 0.6220 0.6315
H14 H 0.2210 0.5667 0.6011
H15 H 0.344(3) 0.280(3) 0.4452(4)
loop_
_geom_bond_atom_site_label_1
_geom_bond_atom_site_label_2
_geom_bond_site_symmetry_1
_geom_bond_site_symmetry_2
Cl1 C7 1_555 1_555
O1 C2 1_555 1_555
O2 C2 1_555 1_555
C1 C2 1_555 1_555
C3 H1 1_555 1_555
C4 H2 1_555 1_555
C5 C1 1_555 1_555
H3 C5 1_555 1_555
C6 C1 1_555 1_555
H4 C6 1_555 1_555
C7 C3 1_555 1_555
N1 C9 1_555 1_555
C8 N2 1_555 1_555
N2 C12 1_555 1_555
C9 H5 1_555 1_555
C10 N1 1_555 1_555
H6 C10 1_555 1_555
C11 C8 1_555 1_555
H7 C11 1_555 1_555
C12 H8 1_555 1_555
H9 C12 1_555 1_555
H10 C12 1_555 1_555
C13 C8 1_555 1_555
H11 C13 1_555 1_555
C14 N2 1_555 1_555
H12 C14 1_555 1_555
H13 C14 1_555 1_555
H14 C14 1_555 1_555
H15 N1 1_555 1_555
C3 C5 1_555 1_555
C4 C6 1_555 1_555
C4 C7 1_555 1_555
C9 C13 1_555 1_555
C10 C11 1_555 1_555

#END
