
#######################################################################
#
#                 Cambridge Crystallographic Data Centre
#                                CCDC 
#
#######################################################################
#
# If this CIF has been generated from an entry in the Cambridge 
# Structural Database, then it will include bibliographic, chemical, 
# crystal, experimental, refinement or atomic coordinate data resulting 
# from the CCDC's data processing and validation procedures.
#
#######################################################################

data_CUKQAB
_chemical_formula_moiety         'C8 H8 F2 N2 O3 S1'
_chemical_name_systematic        
1-(3,3-Difluoro-4-hydroxytetrahydrothiophen-2-yl)pyrimidine-2,4(1H,3H)-dione
_symmetry_cell_setting           monoclinic
_symmetry_space_group_name_H-M   'P 21/n'
_symmetry_Int_Tables_number      14
_space_group_name_Hall           '-P 2yn'
loop_
_symmetry_equiv_pos_site_id
_symmetry_equiv_pos_as_xyz
1 x,y,z
2 1/2-x,1/2+y,1/2-z
3 -x,-y,-z
4 1/2+x,1/2-y,1/2+z
_cell_length_a                   6.1849(8)
_cell_length_b                   18.082(2)
_cell_length_c                   8.9343(11)
_cell_angle_alpha                90
_cell_angle_beta                 100.122(2)
_cell_angle_gamma                90
_cell_volume                     983.619
_exptl_crystal_colour            colorless
_exptl_crystal_description       prismatic
_cell_formula_units_Z            4
loop_
_atom_site_label
_atom_site_type_symbol
_atom_site_fract_x
_atom_site_fract_y
_atom_site_fract_z
F1 F 1.1680(2) 0.10956(8) 0.49407(17)
F2 F 1.1821(2) 0.19602(8) 0.66274(17)
S1 S 0.65193(11) 0.14828(4) 0.38384(7)
O1 O 1.0260(3) 0.05258(10) 0.7333(2)
O2 O 1.1544(3) 0.31505(9) 0.39599(19)
O3 O 0.7658(3) 0.48949(9) 0.59412(19)
N1 N 0.8596(3) 0.27635(9) 0.49555(18)
N2 N 0.9549(3) 0.40062(10) 0.4961(2)
C1 C 0.7238(4) 0.07566(14) 0.5228(3)
H1 H 0.5960 0.0606 0.5645
H2 H 0.7803 0.0330 0.4765
C2 C 0.8973(4) 0.10721(13) 0.6462(3)
H3 H 0.8272 0.1384 0.7135
C3 C 1.0392(3) 0.15374(11) 0.5663(2)
C4 C 0.8992(3) 0.20096(11) 0.4457(2)
H4 H 0.9766 0.2049 0.3593
C5 C 1.0017(3) 0.32991(12) 0.4580(2)
C6 C 0.7863(4) 0.42319(12) 0.5663(2)
C7 C 0.6456(4) 0.36523(12) 0.5989(2)
H5 H 0.5259 0.3762 0.6450
C8 C 0.6841(4) 0.29546(12) 0.5638(2)
H6 H 0.5899 0.2585 0.5860
H7 H 0.944(5) 0.0322(18) 0.782(3)
H8 H 1.048(3) 0.4308(12) 0.473(3)
loop_
_geom_bond_atom_site_label_1
_geom_bond_atom_site_label_2
_geom_bond_site_symmetry_1
_geom_bond_site_symmetry_2
F1 C3 1_555 1_555
F2 C3 1_555 1_555
S1 C1 1_555 1_555
O1 C2 1_555 1_555
O2 C5 1_555 1_555
O3 C6 1_555 1_555
N1 C4 1_555 1_555
N2 C5 1_555 1_555
C1 H1 1_555 1_555
H2 C1 1_555 1_555
C2 C1 1_555 1_555
H3 C2 1_555 1_555
C3 C2 1_555 1_555
C4 S1 1_555 1_555
H4 C4 1_555 1_555
C5 N1 1_555 1_555
C6 N2 1_555 1_555
C7 C6 1_555 1_555
H5 C7 1_555 1_555
C8 N1 1_555 1_555
H6 C8 1_555 1_555
H7 O1 1_555 1_555
H8 N2 1_555 1_555
C3 C4 1_555 1_555
C7 C8 1_555 1_555

#END
