
#######################################################################
#
#                 Cambridge Crystallographic Data Centre
#                                CCDC 
#
#######################################################################
#
# If this CIF has been generated from an entry in the Cambridge 
# Structural Database, then it will include bibliographic, chemical, 
# crystal, experimental, refinement or atomic coordinate data resulting 
# from the CCDC's data processing and validation procedures.
#
#######################################################################

data_CUKYAK
_chemical_formula_moiety         'C16 H19 N3 O3'
_chemical_name_systematic        
3-((Piperidin-1-ylacetyl)amino)-1-benzofuran-2-carboxamide
_symmetry_cell_setting           monoclinic
_symmetry_space_group_name_H-M   'P 21/n'
_symmetry_Int_Tables_number      14
_space_group_name_Hall           '-P 2yn'
loop_
_symmetry_equiv_pos_site_id
_symmetry_equiv_pos_as_xyz
1 x,y,z
2 1/2-x,1/2+y,1/2-z
3 -x,-y,-z
4 1/2+x,1/2-y,1/2+z
_cell_length_a                   8.9951(3)
_cell_length_b                   9.6679(4)
_cell_length_c                   17.6472(7)
_cell_angle_alpha                90
_cell_angle_beta                 95.3310(10)
_cell_angle_gamma                90
_cell_volume                     1528.03
_exptl_crystal_colour            colorless
_exptl_crystal_description       block
_cell_formula_units_Z            4
_exptl_crystal_recrystallization_method ethanol
loop_
_atom_site_label
_atom_site_type_symbol
_atom_site_fract_x
_atom_site_fract_y
_atom_site_fract_z
C1 C 0.61473(13) 0.51177(14) 0.11977(7)
C2 C 0.75207(15) 0.55776(17) 0.15391(9)
H1 H 0.7675 0.6504 0.1664
C3 C 0.86365(16) 0.46199(19) 0.16851(10)
H2 H 0.9562 0.4908 0.1908
C4 C 0.84172(17) 0.3235(2) 0.15088(11)
H3 H 0.9203 0.2618 0.1614
C5 C 0.70720(16) 0.27443(17) 0.11823(10)
H4 H 0.6920 0.1814 0.1067
C6 C 0.59582(13) 0.37225(15) 0.10368(8)
C7 C 0.37932(13) 0.46941(13) 0.07189(7)
C8 C 0.47149(13) 0.57319(13) 0.09729(7)
C9 C 0.21916(13) 0.47431(13) 0.04654(7)
C10 C 0.50493(14) 0.82629(14) 0.09836(8)
C11 C 0.41368(17) 0.95637(15) 0.10854(10)
H5 H 0.4654 1.0136 0.1477
H6 H 0.4058 1.0087 0.0614
C12 C 0.25850(16) 0.90528(16) 0.21081(8)
H7 H 0.2733 0.9930 0.2371
H8 H 0.3376 0.8429 0.2301
C13 C 0.10947(18) 0.84547(18) 0.22585(10)
H9 H 0.1052 0.8344 0.2802
H10 H 0.0977 0.7550 0.2023
C14 C -0.01553(18) 0.9388(2) 0.19435(11)
H11 H -0.1108 0.8949 0.2000
H12 H -0.0118 1.0250 0.2226
C15 C -0.00154(18) 0.9680(2) 0.11166(10)
H13 H -0.0767 1.0349 0.0932
H14 H -0.0192 0.8835 0.0825
C16 C 0.15111(18) 1.02343(16) 0.09965(9)
H15 H 0.1586 1.0380 0.0458
H16 H 0.1663 1.1116 0.1254
N1 N 0.26502(12) 0.92599(11) 0.12939(6)
N2 N 0.42491(11) 0.70942(11) 0.10334(7)
N3 N 0.15761(13) 0.36193(13) 0.01380(8)
O1 O 0.63573(10) 0.83242(11) 0.08571(7)
O2 O 0.45253(9) 0.34351(9) 0.07406(5)
O3 O 0.14972(9) 0.58150(10) 0.05805(6)
H17 H 0.3302(10) 0.7227(16) 0.1027(9)
H18 H 0.0672(11) 0.3688(16) -0.0049(8)
H19 H 0.2136(15) 0.2985(14) -0.0021(9)
loop_
_geom_bond_atom_site_label_1
_geom_bond_atom_site_label_2
_geom_bond_site_symmetry_1
_geom_bond_site_symmetry_2
C1 C2 1_555 1_555
C2 H1 1_555 1_555
C3 C2 1_555 1_555
H2 C3 1_555 1_555
C4 C3 1_555 1_555
H3 C4 1_555 1_555
C5 C4 1_555 1_555
H4 C5 1_555 1_555
C6 C1 1_555 1_555
C7 C8 1_555 1_555
C8 C1 1_555 1_555
C9 C7 1_555 1_555
C10 C11 1_555 1_555
C11 H5 1_555 1_555
H6 C11 1_555 1_555
C12 H7 1_555 1_555
H8 C12 1_555 1_555
C13 C12 1_555 1_555
H9 C13 1_555 1_555
H10 C13 1_555 1_555
C14 C13 1_555 1_555
H11 C14 1_555 1_555
H12 C14 1_555 1_555
C15 C14 1_555 1_555
H13 C15 1_555 1_555
H14 C15 1_555 1_555
C16 C15 1_555 1_555
H15 C16 1_555 1_555
H16 C16 1_555 1_555
N1 C11 1_555 1_555
N2 C8 1_555 1_555
N3 C9 1_555 1_555
O1 C10 1_555 1_555
O2 C6 1_555 1_555
O3 C9 1_555 1_555
H17 N2 1_555 1_555
H18 N3 1_555 1_555
H19 N3 1_555 1_555
C5 C6 1_555 1_555
C7 O2 1_555 1_555
C10 N2 1_555 1_555
C12 N1 1_555 1_555
C16 N1 1_555 1_555

#END
