
#######################################################################
#
#                 Cambridge Crystallographic Data Centre
#                                CCDC 
#
#######################################################################
#
# If this CIF has been generated from an entry in the Cambridge 
# Structural Database, then it will include bibliographic, chemical, 
# crystal, experimental, refinement or atomic coordinate data resulting 
# from the CCDC's data processing and validation procedures.
#
#######################################################################

data_CUMHID
_chemical_formula_moiety         'C24 H26 F1 N1 O3'
_chemical_name_systematic        
'9H-fluoren-9-ylmethyl (1-fluoro-1-(2-(hydroxymethyl)cyclopentylidene)propan-2-yl)carbamate'
_symmetry_cell_setting           orthorhombic
_symmetry_space_group_name_H-M   'P 21 21 21'
_symmetry_Int_Tables_number      19
_space_group_name_Hall           'P 2ac 2ab'
loop_
_symmetry_equiv_pos_site_id
_symmetry_equiv_pos_as_xyz
1 x,y,z
2 1/2-x,-y,1/2+z
3 1/2+x,1/2-y,-z
4 -x,1/2+y,1/2-z
_cell_length_a                   12.1048(16)
_cell_length_b                   13.1560(18)
_cell_length_c                   13.2578(19)
_cell_angle_alpha                90
_cell_angle_beta                 90
_cell_angle_gamma                90
_cell_volume                     2111.31
_exptl_crystal_colour            colorless
_exptl_crystal_description       prism
_cell_formula_units_Z            4
loop_
_atom_site_label
_atom_site_type_symbol
_atom_site_fract_x
_atom_site_fract_y
_atom_site_fract_z
C1 C 0.7499(3) 0.2967(2) 0.46898(18)
H1 H 0.6943 0.2886 0.521
H2 H 0.778 0.3657 0.4715
C2 C 0.8427(3) 0.2210(3) 0.4836(2)
H3 H 0.9071 0.2539 0.5126
H4 H 0.8197 0.1664 0.5281
C3 C 0.86843(18) 0.18059(19) 0.3802(2)
H5 H 0.8995 0.1127 0.3843
H6 H 0.9205 0.2245 0.3457
C4 C 0.75733(14) 0.17893(13) 0.32487(15)
H7 H 0.7691 0.1857 0.252
C5 C 0.69609(19) 0.08101(15) 0.34746(18)
H8 H 0.7496 0.0264 0.3537
H9 H 0.6592 0.088 0.412
C6 C 0.70189(16) 0.27382(14) 0.36603(14)
C7 C 0.63120(14) 0.33283(13) 0.31933(14)
C8 C 0.58180(13) 0.32849(12) 0.21615(13)
H10 H 0.6003 0.2627 0.1859
C9 C 0.39830(13) 0.25724(11) 0.24213(13)
C10 C 0.62631(16) 0.41249(15) 0.14786(15)
H11 H 0.5891 0.4101 0.084
H12 H 0.7041 0.4028 0.1377
H13 H 0.6137 0.4774 0.1789
C11 C 0.21200(13) 0.20242(12) 0.25484(13)
H14 H 0.1488 0.2254 0.2937
H15 H 0.2458 0.1463 0.2908
C12 C 0.17330(12) 0.16596(11) 0.15193(12)
H16 H 0.2356 0.1389 0.1131
C13 C 0.11373(13) 0.24731(11) 0.09221(12)
C14 C 0.15184(16) 0.33917(13) 0.05505(13)
H17 H 0.2252 0.3581 0.0641
C15 C 0.0797(2) 0.40247(14) 0.00431(14)
H18 H 0.1053 0.4637 -0.0217
C16 C -0.0292(2) 0.37622(15) -0.00825(16)
H19 H -0.0768 0.4204 -0.0416
C17 C -0.06880(18) 0.28482(13) 0.02807(15)
H20 H -0.1427 0.2673 0.0197
C18 C 0.00325(13) 0.21957(11) 0.07712(12)
C19 C -0.01473(13) 0.11829(11) 0.12089(11)
C20 C -0.10748(14) 0.05728(13) 0.12446(14)
H21 H -0.173 0.0782 0.0942
C21 C -0.10167(16) -0.03526(14) 0.17362(16)
H22 H -0.1638 -0.0767 0.1769
C22 C -0.00470(17) -0.06628(13) 0.21752(16)
H23 H -0.0024 -0.1282 0.2512
C23 C 0.08955(15) -0.00730(12) 0.21269(15)
H24 H 0.1552 -0.0296 0.2416
C24 C 0.08426(12) 0.08557(11) 0.16407(12)
F1 F 0.59595(12) 0.41809(10) 0.36871(9)
N1 N 0.46182(11) 0.33716(10) 0.22130(13)
H25 H 0.4314 0.3952 0.2106
O1 O 0.61725(12) 0.05332(10) 0.27437(16)
H26 H 0.5658 0.0938 0.2756
O2 O 0.42971(9) 0.17077(8) 0.25493(10)
O3 O 0.29062(9) 0.28439(8) 0.24582(11)
loop_
_geom_bond_atom_site_label_1
_geom_bond_atom_site_label_2
_geom_bond_site_symmetry_1
_geom_bond_site_symmetry_2
C1 H1 1_555 1_555
H2 C1 1_555 1_555
C2 C1 1_555 1_555
H3 C2 1_555 1_555
H4 C2 1_555 1_555
C3 C2 1_555 1_555
H5 C3 1_555 1_555
H6 C3 1_555 1_555
C4 C3 1_555 1_555
H7 C4 1_555 1_555
C5 C4 1_555 1_555
H8 C5 1_555 1_555
H9 C5 1_555 1_555
C6 C1 1_555 1_555
C7 C6 1_555 1_555
C8 C7 1_555 1_555
H10 C8 1_555 1_555
C9 N1 1_555 1_555
C10 C8 1_555 1_555
H11 C10 1_555 1_555
H12 C10 1_555 1_555
H13 C10 1_555 1_555
C11 H14 1_555 1_555
H15 C11 1_555 1_555
C12 C11 1_555 1_555
H16 C12 1_555 1_555
C13 C12 1_555 1_555
C14 C13 1_555 1_555
H17 C14 1_555 1_555
C15 C14 1_555 1_555
H18 C15 1_555 1_555
C16 C15 1_555 1_555
H19 C16 1_555 1_555
C17 C16 1_555 1_555
H20 C17 1_555 1_555
C18 C13 1_555 1_555
C19 C18 1_555 1_555
C20 C19 1_555 1_555
H21 C20 1_555 1_555
C21 C20 1_555 1_555
H22 C21 1_555 1_555
C22 C21 1_555 1_555
H23 C22 1_555 1_555
C23 C22 1_555 1_555
H24 C23 1_555 1_555
C24 C12 1_555 1_555
F1 C7 1_555 1_555
N1 C8 1_555 1_555
H25 N1 1_555 1_555
O1 C5 1_555 1_555
H26 O1 1_555 1_555
O2 C9 1_555 1_555
O3 C9 1_555 1_555
C4 C6 1_555 1_555
C11 O3 1_555 1_555
C17 C18 1_555 1_555
C19 C24 1_555 1_555
C23 C24 1_555 1_555

#END
