
#######################################################################
#
#                 Cambridge Crystallographic Data Centre
#                                CCDC 
#
#######################################################################
#
# If this CIF has been generated from an entry in the Cambridge 
# Structural Database, then it will include bibliographic, chemical, 
# crystal, experimental, refinement or atomic coordinate data resulting 
# from the CCDC's data processing and validation procedures.
#
#######################################################################

data_CUMNAZ
_chemical_formula_moiety         'C38 H36 N2 O2 Si4'
_chemical_name_systematic        
1,3-bis(Diphenylhydroxysilyl)-2,2-dimethyl-4,4-diphenyl-cyclodisilazane
_symmetry_cell_setting           monoclinic
_symmetry_space_group_name_H-M   'P 21/n'
_symmetry_Int_Tables_number      14
_space_group_name_Hall           '-P 2yn'
loop_
_symmetry_equiv_pos_site_id
_symmetry_equiv_pos_as_xyz
1 x,y,z
2 1/2-x,1/2+y,1/2-z
3 -x,-y,-z
4 1/2+x,1/2-y,1/2+z
_cell_length_a                   11.854(2)
_cell_length_b                   10.136(1)
_cell_length_c                   29.931(4)
_cell_angle_alpha                90
_cell_angle_beta                 93.51(1)
_cell_angle_gamma                90
_cell_volume                     3589.53
_cell_formula_units_Z            4
loop_
_atom_site_label
_atom_site_type_symbol
_atom_site_fract_x
_atom_site_fract_y
_atom_site_fract_z
Si1 Si 0.3365(1) 0.0090(2) 0.1680(1)
Si2 Si 0.5024(1) 0.0125(2) 0.1207(1)
Si3 Si 0.5628(1) 0.1145(2) 0.2196(1)
Si4 Si 0.2789(1) -0.1027(2) 0.0701(1)
O1 O 0.6936(3) 0.1013(5) 0.2064(2)
O2 O 0.3368(4) -0.0662(4) 0.0232(2)
N1 N 0.4787(4) 0.0538(4) 0.1760(1)
N2 N 0.3628(4) -0.0360(4) 0.1131(2)
C1 C 0.2373(6) 0.1478(7) 0.1724(3)
C2 C 0.2919(6) -0.1298(7) 0.2021(2)
C3 C 0.6071(4) -0.1245(4) 0.1161(1)
C4 C 0.6615(4) -0.1433(4) 0.0766(1)
C5 C 0.7378(4) -0.2472(4) 0.0732(1)
C6 C 0.7597(4) -0.3322(4) 0.1093(1)
C7 C 0.7053(4) -0.3133(4) 0.1489(1)
C8 C 0.6290(4) -0.2095(4) 0.1523(1)
C9 C 0.5444(3) 0.1556(4) 0.0858(1)
C10 C 0.6431(3) 0.2228(4) 0.0996(1)
C11 C 0.6792(3) 0.3296(4) 0.0748(1)
C12 C 0.6165(3) 0.3691(4) 0.0361(1)
C13 C 0.5178(3) 0.3019(4) 0.0223(1)
C14 C 0.4817(3) 0.1951(4) 0.0472(1)
C15 C 0.5337(4) 0.2944(4) 0.2302(1)
C16 C 0.4806(4) 0.3721(4) 0.1967(1)
C17 C 0.4608(4) 0.5056(4) 0.2045(1)
C18 C 0.4941(4) 0.5612(4) 0.2459(1)
C19 C 0.5472(4) 0.4835(4) 0.2794(1)
C20 C 0.5670(4) 0.3500(4) 0.2716(1)
C21 C 0.5392(3) 0.0210(4) 0.2723(2)
C22 C 0.4470(3) 0.0552(4) 0.2968(2)
C23 C 0.4256(3) -0.0143(4) 0.3356(2)
C24 C 0.4962(3) -0.1181(4) 0.3499(2)
C25 C 0.5883(3) -0.1522(4) 0.3255(2)
C26 C 0.6098(3) -0.0827(4) 0.2867(2)
C27 C 0.1368(5) -0.0244(5) 0.0687(2)
C28 C 0.1186(5) 0.0843(5) 0.0406(2)
C29 C 0.0145(5) 0.1489(5) 0.0386(2)
C30 C -0.0713(5) 0.1048(5) 0.0648(2)
C31 C -0.0531(5) -0.0038(5) 0.0929(2)
C32 C 0.0510(5) -0.0684(5) 0.0949(2)
C33 C 0.2663(3) -0.2870(4) 0.0727(1)
C34 C 0.3569(3) -0.3637(4) 0.0895(1)
C35 C 0.3512(3) -0.5009(4) 0.0867(1)
C36 C 0.2549(3) -0.5615(4) 0.0670(1)
C37 C 0.1643(3) -0.4849(4) 0.0501(1)
C38 C 0.1700(3) -0.3477(4) 0.0530(1)
loop_
_geom_bond_atom_site_label_1
_geom_bond_atom_site_label_2
_geom_bond_site_symmetry_1
_geom_bond_site_symmetry_2
Si1 N1 1_555 1_555
Si2 N1 1_555 1_555
Si3 O1 1_555 1_555
Si4 O2 1_555 1_555
N1 Si3 1_555 1_555
N2 Si1 1_555 1_555
C1 Si1 1_555 1_555
C2 Si1 1_555 1_555
C3 Si2 1_555 1_555
C4 C3 1_555 1_555
C5 C4 1_555 1_555
C6 C5 1_555 1_555
C7 C6 1_555 1_555
C8 C3 1_555 1_555
C9 Si2 1_555 1_555
C10 C9 1_555 1_555
C11 C10 1_555 1_555
C12 C11 1_555 1_555
C13 C12 1_555 1_555
C14 C9 1_555 1_555
C15 Si3 1_555 1_555
C16 C15 1_555 1_555
C17 C16 1_555 1_555
C18 C17 1_555 1_555
C19 C18 1_555 1_555
C20 C15 1_555 1_555
C21 Si3 1_555 1_555
C22 C21 1_555 1_555
C23 C22 1_555 1_555
C24 C23 1_555 1_555
C25 C24 1_555 1_555
C26 C21 1_555 1_555
C27 Si4 1_555 1_555
C28 C27 1_555 1_555
C29 C28 1_555 1_555
C30 C29 1_555 1_555
C31 C30 1_555 1_555
C32 C27 1_555 1_555
C33 Si4 1_555 1_555
C34 C33 1_555 1_555
C35 C34 1_555 1_555
C36 C35 1_555 1_555
C37 C36 1_555 1_555
C38 C33 1_555 1_555
Si2 N2 1_555 1_555
Si4 N2 1_555 1_555
C7 C8 1_555 1_555
C13 C14 1_555 1_555
C19 C20 1_555 1_555
C25 C26 1_555 1_555
C31 C32 1_555 1_555
C37 C38 1_555 1_555

#END
