
#######################################################################
#
#                 Cambridge Crystallographic Data Centre
#                                CCDC 
#
#######################################################################
#
# If this CIF has been generated from an entry in the Cambridge 
# Structural Database, then it will include bibliographic, chemical, 
# crystal, experimental, refinement or atomic coordinate data resulting 
# from the CCDC's data processing and validation procedures.
#
#######################################################################

data_CUNJEB
_chemical_formula_moiety         'C40 H26 N4'
_chemical_name_systematic        
1,1'-(1,4-Phenylene)bis(3-(9-anthryl)-1H-pyrazole)
_symmetry_cell_setting           monoclinic
_symmetry_space_group_name_H-M   'P 21/n'
_symmetry_Int_Tables_number      14
_space_group_name_Hall           '-P 2yn'
loop_
_symmetry_equiv_pos_site_id
_symmetry_equiv_pos_as_xyz
1 x,y,z
2 1/2-x,1/2+y,1/2-z
3 -x,-y,-z
4 1/2+x,1/2-y,1/2+z
_cell_length_a                   8.8701(18)
_cell_length_b                   10.946(2)
_cell_length_c                   15.512(3)
_cell_angle_alpha                90
_cell_angle_beta                 93.00(3)
_cell_angle_gamma                90
_cell_volume                     1504.03
_exptl_crystal_colour            yellow
_exptl_crystal_description       block
_cell_formula_units_Z            2
loop_
_atom_site_label
_atom_site_type_symbol
_atom_site_fract_x
_atom_site_fract_y
_atom_site_fract_z
C1 C 0.10313(15) 0.40919(11) 0.13300(8)
C2 C 0.15663(14) 0.51829(12) 0.09688(8)
C3 C 0.30963(16) 0.53478(13) 0.07479(9)
H1 H 0.3781 0.4711 0.0835
C4 C 0.35679(18) 0.64189(14) 0.04126(10)
H2 H 0.4573 0.6506 0.0280
C5 C 0.25556(19) 0.74074(14) 0.02613(10)
H3 H 0.2893 0.8133 0.0026
C6 C 0.11023(18) 0.72909(13) 0.04606(10)
H4 H 0.0442 0.7940 0.0356
C7 C 0.05545(15) 0.61916(12) 0.08290(8)
C8 C -0.09328(16) 0.60824(12) 0.10638(9)
H5 H -0.1590 0.6735 0.0964
C9 C -0.14647(15) 0.50283(13) 0.14416(9)
C10 C -0.29814(17) 0.49405(15) 0.16946(11)
H6 H -0.3622 0.5609 0.1618
C11 C -0.35064(18) 0.39048(17) 0.20439(12)
H7 H -0.4495 0.3869 0.2215
C12 C -0.25561(19) 0.28774(16) 0.21490(12)
H8 H -0.2933 0.2159 0.2374
C13 C -0.11012(18) 0.29230(14) 0.19259(10)
H9 H -0.0496 0.2234 0.2004
C14 C -0.04765(15) 0.40048(12) 0.15744(8)
C15 C 0.20412(16) 0.30168(12) 0.14491(9)
C16 C 0.25002(18) 0.24131(14) 0.22152(10)
H10 H 0.2241 0.2606 0.2772
C17 C 0.34078(18) 0.14830(14) 0.19718(9)
H11 H 0.3893 0.0915 0.2335
C18 C 0.42446(15) 0.07602(11) 0.05465(9)
C19 C 0.53488(16) -0.00293(13) 0.08802(9)
H12 H 0.5583 -0.0052 0.1471
C20 C 0.38986(16) 0.07836(12) -0.03298(9)
H13 H 0.3154 0.1310 -0.0553
N1 N 0.34709(13) 0.15407(10) 0.11050(7)
N2 N 0.26291(13) 0.24872(10) 0.07676(7)
C1B C 0.89687(15) -0.40919(11) -0.13300(8)
C2B C 0.84337(14) -0.51829(12) -0.09688(8)
C3B C 0.69037(16) -0.53478(13) -0.07479(9)
H1B H 0.6219 -0.4711 -0.0835
C4B C 0.64321(18) -0.64189(14) -0.04126(10)
H2B H 0.5427 -0.6506 -0.0280
C5B C 0.74444(19) -0.74074(14) -0.02613(10)
H3B H 0.7107 -0.8133 -0.0026
C6B C 0.88977(18) -0.72909(13) -0.04606(10)
H4B H 0.9558 -0.7940 -0.0356
C7B C 0.94455(15) -0.61916(12) -0.08290(8)
C8B C 1.09328(16) -0.60824(12) -0.10638(9)
H5B H 1.1590 -0.6735 -0.0964
C9B C 1.14647(15) -0.50283(13) -0.14416(9)
C10B C 1.29814(17) -0.49405(15) -0.16946(11)
H6B H 1.3622 -0.5609 -0.1618
C11B C 1.35064(18) -0.39048(17) -0.20439(12)
H7B H 1.4495 -0.3869 -0.2215
C12B C 1.25561(19) -0.28774(16) -0.21490(12)
H8B H 1.2933 -0.2159 -0.2374
C13B C 1.11012(18) -0.29230(14) -0.19259(10)
H9B H 1.0496 -0.2234 -0.2004
C14B C 1.04765(15) -0.40048(12) -0.15744(8)
C15B C 0.79588(16) -0.30168(12) -0.14491(9)
C16B C 0.74998(18) -0.24131(14) -0.22152(10)
H10B H 0.7759 -0.2606 -0.2772
C17B C 0.65922(18) -0.14830(14) -0.19718(9)
H11B H 0.6107 -0.0915 -0.2335
C18B C 0.57554(15) -0.07602(11) -0.05465(9)
C19B C 0.46512(16) 0.00293(13) -0.08802(9)
H12B H 0.4417 0.0052 -0.1471
C20B C 0.61014(16) -0.07836(12) 0.03298(9)
H13B H 0.6846 -0.1310 0.0553
N1B N 0.65291(13) -0.15407(10) -0.11050(7)
N2B N 0.73709(13) -0.24872(10) -0.07676(7)
loop_
_geom_bond_atom_site_label_1
_geom_bond_atom_site_label_2
_geom_bond_site_symmetry_1
_geom_bond_site_symmetry_2
C1 C2 1_555 1_555
C2 C3 1_555 1_555
C3 H1 1_555 1_555
C4 C3 1_555 1_555
H2 C4 1_555 1_555
C5 C4 1_555 1_555
H3 C5 1_555 1_555
C6 C5 1_555 1_555
H4 C6 1_555 1_555
C7 C2 1_555 1_555
C8 C7 1_555 1_555
H5 C8 1_555 1_555
C9 C8 1_555 1_555
C10 C9 1_555 1_555
H6 C10 1_555 1_555
C11 C10 1_555 1_555
H7 C11 1_555 1_555
C12 C11 1_555 1_555
H8 C12 1_555 1_555
C13 C12 1_555 1_555
H9 C13 1_555 1_555
C14 C1 1_555 1_555
C15 C1 1_555 1_555
C16 C15 1_555 1_555
H10 C16 1_555 1_555
C17 C16 1_555 1_555
H11 C17 1_555 1_555
C18 C19 1_555 1_555
C19 H12 1_555 1_555
C20 C18 1_555 1_555
H13 C20 1_555 1_555
N1 C17 1_555 1_555
N2 C15 1_555 1_555
C1B C2B 1_555 1_555
C2B C3B 1_555 1_555
C3B H1B 1_555 1_555
C4B C3B 1_555 1_555
H2B C4B 1_555 1_555
C5B C4B 1_555 1_555
H3B C5B 1_555 1_555
C6B C5B 1_555 1_555
H4B C6B 1_555 1_555
C7B C2B 1_555 1_555
C8B C7B 1_555 1_555
H5B C8B 1_555 1_555
C9B C8B 1_555 1_555
C10B C9B 1_555 1_555
H6B C10B 1_555 1_555
C11B C10B 1_555 1_555
H7B C11B 1_555 1_555
C12B C11B 1_555 1_555
H8B C12B 1_555 1_555
C13B C12B 1_555 1_555
H9B C13B 1_555 1_555
C14B C1B 1_555 1_555
C15B C1B 1_555 1_555
C16B C15B 1_555 1_555
H10B C16B 1_555 1_555
C17B C16B 1_555 1_555
H11B C17B 1_555 1_555
C18B C19B 1_555 1_555
C19B C20 1_555 1_555
H12B C19B 1_555 1_555
C20B C19 1_555 1_555
H13B C20B 1_555 1_555
N1B C17B 1_555 1_555
N2B C15B 1_555 1_555
C6 C7 1_555 1_555
C9 C14 1_555 1_555
C13 C14 1_555 1_555
C18 N1 1_555 1_555
N1 N2 1_555 1_555
C6B C7B 1_555 1_555
C9B C14B 1_555 1_555
C13B C14B 1_555 1_555
C18B C20B 1_555 1_555
C18B N1B 1_555 1_555
N1B N2B 1_555 1_555

#END
