
#######################################################################
#
#                 Cambridge Crystallographic Data Centre
#                                CCDC 
#
#######################################################################
#
# If this CIF has been generated from an entry in the Cambridge 
# Structural Database, then it will include bibliographic, chemical, 
# crystal, experimental, refinement or atomic coordinate data resulting 
# from the CCDC's data processing and validation procedures.
#
#######################################################################

data_CUNJIF
_chemical_formula_moiety         'C40 H26 N4,C1 H1 Cl3'
_chemical_name_systematic        
'3-(9-Anthryl)-1-(4-(5-(9-anthryl)-1H-pyrazol-1-yl)phenyl)-1H-pyrazole chloroform solvate'
_symmetry_cell_setting           triclinic
_symmetry_space_group_name_H-M   'P -1'
_symmetry_Int_Tables_number      2
_space_group_name_Hall           '-P 1'
loop_
_symmetry_equiv_pos_site_id
_symmetry_equiv_pos_as_xyz
1 x,y,z
2 -x,-y,-z
_cell_length_a                   9.1631(18)
_cell_length_b                   12.736(3)
_cell_length_c                   15.435(3)
_cell_angle_alpha                69.66(3)
_cell_angle_beta                 80.71(3)
_cell_angle_gamma                89.83(3)
_cell_volume                     1664.06
_exptl_crystal_colour            yellow
_exptl_crystal_description       block
_cell_formula_units_Z            2
loop_
_atom_site_label
_atom_site_type_symbol
_atom_site_fract_x
_atom_site_fract_y
_atom_site_fract_z
C1 C 0.4458(3) 0.6313(2) 0.32831(19)
C2 C 0.3655(3) 0.6217(2) 0.41691(19)
C3 C 0.2088(3) 0.6001(2) 0.4416(2)
H1 H 0.1554 0.5916 0.3978
C4 C 0.1362(4) 0.5916(3) 0.5277(2)
H2 H 0.0341 0.5773 0.5421
C5 C 0.2134(4) 0.6043(3) 0.5962(2)
H3 H 0.1621 0.5980 0.6551
C6 C 0.3615(4) 0.6255(3) 0.5757(2)
H4 H 0.4115 0.6337 0.6211
C7 C 0.4433(3) 0.6358(2) 0.4860(2)
C8 C 0.5961(3) 0.6603(2) 0.4635(2)
H5 H 0.6461 0.6690 0.5086
C9 C 0.6755(3) 0.6720(2) 0.3760(2)
C10 C 0.8310(4) 0.6990(3) 0.3525(3)
H6 H 0.8810 0.7103 0.3967
C11 C 0.9071(4) 0.7085(3) 0.2677(3)
H7 H 1.0088 0.7251 0.2542
C12 C 0.8330(4) 0.6932(3) 0.1990(3)
H8 H 0.8863 0.7005 0.1403
C13 C 0.6852(4) 0.6681(3) 0.2177(2)
H9 H 0.6388 0.6580 0.1716
C14 C 0.5992(3) 0.6567(2) 0.3062(2)
C15 C 0.3645(3) 0.6180(2) 0.25646(19)
C16 C 0.3315(4) 0.7019(2) 0.1762(2)
H10 H 0.3571 0.7783 0.1559
C17 C 0.2545(4) 0.6483(2) 0.1342(2)
H11 H 0.2168 0.6811 0.0791
C18 C 0.1750(3) 0.4489(2) 0.17129(18)
C19 C 0.1558(4) 0.4603(2) 0.0812(2)
H12 H 0.1838 0.5278 0.0321
C20 C 0.0955(4) 0.3723(2) 0.06463(19)
H13 H 0.0837 0.3802 0.0040
C21 C 0.0520(3) 0.2718(2) 0.13720(18)
C22 C 0.0685(4) 0.2611(2) 0.22767(19)
H14 H 0.0375 0.1944 0.2770
C23 C 0.1307(4) 0.3488(2) 0.24462(19)
H15 H 0.1429 0.3410 0.3052
C24 C -0.1242(4) 0.1123(3) 0.0387(2)
H16 H -0.1755 0.1044 -0.0062
C25 C -0.0817(3) 0.0226(3) 0.1098(2)
H17 H -0.0990 -0.0533 0.1211
C26 C -0.0089(3) 0.0691(2) 0.15997(18)
C27 C 0.0654(3) 0.0116(2) 0.24052(18)
C28 C -0.0176(3) -0.0319(2) 0.33152(19)
C29 C -0.1717(4) -0.0151(3) 0.3519(2)
H18 H -0.2210 0.0251 0.3035
C30 C -0.2471(4) -0.0575(3) 0.4413(3)
H19 H -0.3473 -0.0457 0.4535
C31 C -0.1748(5) -0.1190(3) 0.5158(2)
H20 H -0.2281 -0.1476 0.5765
C32 C -0.0308(4) -0.1365(3) 0.5002(2)
H21 H 0.0145 -0.1776 0.5503
C33 C 0.0549(4) -0.0932(2) 0.4080(2)
C34 C 0.2043(4) -0.1094(2) 0.3907(2)
H22 H 0.2500 -0.1504 0.4407
C35 C 0.2892(4) -0.0668(2) 0.3014(2)
C36 C 0.4423(4) -0.0842(3) 0.2838(3)
H23 H 0.4884 -0.1254 0.3334
C37 C 0.5228(4) -0.0423(3) 0.1967(3)
H24 H 0.6233 -0.0542 0.1866
C38 C 0.4528(4) 0.0200(3) 0.1207(3)
H25 H 0.5088 0.0492 0.0608
C39 C 0.3069(4) 0.0378(3) 0.1332(2)
H26 H 0.2641 0.0785 0.0818
C40 C 0.2172(3) -0.0049(2) 0.2240(2)
N1 N 0.2432(3) 0.53860(19) 0.18755(15)
N2 N 0.3107(3) 0.5179(2) 0.26387(16)
N3 N -0.0839(3) 0.2099(2) 0.04193(17)
N4 N -0.0125(3) 0.18308(19) 0.11757(15)
C41 C 0.5421(7) 0.3322(5) 0.1887(4)
H27 H 0.4686 0.3778 0.2101
Cl1 Cl 0.50271(18) 0.33214(17) 0.08072(12)
Cl2 Cl 0.70900(19) 0.3963(2) 0.17603(10)
Cl3 Cl 0.5152(3) 0.20103(13) 0.27096(14)
loop_
_geom_bond_atom_site_label_1
_geom_bond_atom_site_label_2
_geom_bond_site_symmetry_1
_geom_bond_site_symmetry_2
C1 C2 1_555 1_555
C2 C3 1_555 1_555
C3 H1 1_555 1_555
C4 C3 1_555 1_555
H2 C4 1_555 1_555
C5 C4 1_555 1_555
H3 C5 1_555 1_555
C6 C5 1_555 1_555
H4 C6 1_555 1_555
C7 C2 1_555 1_555
C8 C7 1_555 1_555
H5 C8 1_555 1_555
C9 C8 1_555 1_555
C10 C9 1_555 1_555
H6 C10 1_555 1_555
C11 C10 1_555 1_555
H7 C11 1_555 1_555
C12 C11 1_555 1_555
H8 C12 1_555 1_555
C13 C12 1_555 1_555
H9 C13 1_555 1_555
C14 C1 1_555 1_555
C15 C1 1_555 1_555
C16 C15 1_555 1_555
H10 C16 1_555 1_555
C17 C16 1_555 1_555
H11 C17 1_555 1_555
C18 C19 1_555 1_555
C19 H12 1_555 1_555
C20 C19 1_555 1_555
H13 C20 1_555 1_555
C21 C20 1_555 1_555
C22 C21 1_555 1_555
H14 C22 1_555 1_555
C23 C18 1_555 1_555
H15 C23 1_555 1_555
C24 H16 1_555 1_555
C25 C24 1_555 1_555
H17 C25 1_555 1_555
C26 C25 1_555 1_555
C27 C26 1_555 1_555
C28 C27 1_555 1_555
C29 C28 1_555 1_555
H18 C29 1_555 1_555
C30 C29 1_555 1_555
H19 C30 1_555 1_555
C31 C30 1_555 1_555
H20 C31 1_555 1_555
C32 C31 1_555 1_555
H21 C32 1_555 1_555
C33 C28 1_555 1_555
C34 C33 1_555 1_555
H22 C34 1_555 1_555
C35 C34 1_555 1_555
C36 C35 1_555 1_555
H23 C36 1_555 1_555
C37 C36 1_555 1_555
H24 C37 1_555 1_555
C38 C37 1_555 1_555
H25 C38 1_555 1_555
C39 C38 1_555 1_555
H26 C39 1_555 1_555
C40 C27 1_555 1_555
C41 H27 1_555 1_555
Cl1 C41 1_555 1_555
Cl2 C41 1_555 1_555
Cl3 C41 1_555 1_555
N1 C17 1_555 1_555
N2 C15 1_555 1_555
N3 C24 1_555 1_555
N4 C21 1_555 1_555
C6 C7 1_555 1_555
C9 C14 1_555 1_555
C13 C14 1_555 1_555
C18 N1 1_555 1_555
C22 C23 1_555 1_555
C26 N4 1_555 1_555
C32 C33 1_555 1_555
C35 C40 1_555 1_555
C39 C40 1_555 1_555
N1 N2 1_555 1_555
N3 N4 1_555 1_555

#END
