
#######################################################################
#
#                 Cambridge Crystallographic Data Centre
#                                CCDC 
#
#######################################################################
#
# If this CIF has been generated from an entry in the Cambridge 
# Structural Database, then it will include bibliographic, chemical, 
# crystal, experimental, refinement or atomic coordinate data resulting 
# from the CCDC's data processing and validation procedures.
#
#######################################################################

data_CUNJOL
_chemical_formula_moiety         'C40 H26 N4,C4 H8 O1'
_chemical_name_systematic        
'3-(9-Anthryl)-1-(4-(5-(9-anthryl)-1H-pyrazol-1-yl)phenyl)-1H-pyrazole tetrahydrofuran solvate'
_symmetry_cell_setting           triclinic
_symmetry_space_group_name_H-M   'P -1'
_symmetry_Int_Tables_number      2
_space_group_name_Hall           '-P 1'
loop_
_symmetry_equiv_pos_site_id
_symmetry_equiv_pos_as_xyz
1 x,y,z
2 -x,-y,-z
_cell_length_a                   8.1413(16)
_cell_length_b                   11.386(2)
_cell_length_c                   18.937(4)
_cell_angle_alpha                88.88(3)
_cell_angle_beta                 82.45(3)
_cell_angle_gamma                75.81(3)
_cell_volume                     1686.94
_exptl_crystal_colour            colorless
_exptl_crystal_description       block
_cell_formula_units_Z            2
loop_
_atom_site_label
_atom_site_type_symbol
_atom_site_fract_x
_atom_site_fract_y
_atom_site_fract_z
C1 C 0.9032(4) 0.8487(3) 0.82425(15)
C2 C 0.8120(4) 0.9430(4) 0.87002(17)
C3 C 0.7156(5) 1.0540(4) 0.8454(2)
H1 H 0.7127 1.0642 0.7967
C4 C 0.6274(6) 1.1459(5) 0.8908(3)
H2 H 0.5655 1.2179 0.8734
C5 C 0.6314(8) 1.1300(6) 0.9649(3)
H3 H 0.5709 1.1922 0.9963
C6 C 0.7211(8) 1.0265(7) 0.9910(3)
H4 H 0.7211 1.0190 1.0400
C7 C 0.8148(6) 0.9296(5) 0.9462(2)
C8 C 0.9084(7) 0.8226(6) 0.9706(2)
H5 H 0.9111 0.8139 1.0194
C9 C 0.9988(6) 0.7271(5) 0.9259(2)
C10 C 1.0941(8) 0.6144(6) 0.9520(3)
H6 H 1.0993 0.6049 1.0006
C11 C 1.1750(8) 0.5235(6) 0.9069(4)
H7 H 1.2336 0.4508 0.9248
C12 C 1.1733(6) 0.5356(4) 0.8337(3)
H8 H 1.2320 0.4716 0.8032
C13 C 1.0869(5) 0.6400(3) 0.8064(2)
H9 H 1.0866 0.6462 0.7573
C14 C 0.9969(4) 0.7401(3) 0.85082(17)
C15 C 0.9041(4) 0.8639(3) 0.74622(14)
C16 C 1.0354(4) 0.8844(3) 0.69622(15)
H10 H 1.1412 0.8941 0.7048
C17 C 0.9762(3) 0.8874(3) 0.63235(15)
H11 H 1.0344 0.8993 0.5882
C18 C 0.7065(3) 0.8585(2) 0.59465(12)
C19 C 0.7441(3) 0.8879(2) 0.52428(13)
H12 H 0.8390 0.9187 0.5103
C20 C 0.6420(3) 0.87202(19) 0.47478(12)
H13 H 0.6670 0.8929 0.4276
C21 C 0.5021(3) 0.82503(19) 0.49521(12)
C22 C 0.4620(3) 0.7978(2) 0.56569(13)
H14 H 0.3664 0.7678 0.5796
C23 C 0.5634(3) 0.8152(2) 0.61580(14)
H15 H 0.5355 0.7979 0.6634
C24 C 0.1737(3) 0.7966(3) 0.40135(14)
H16 H 0.0596 0.8034 0.3964
C25 C 0.3104(3) 0.7504(3) 0.34854(14)
H17 H 0.3044 0.7225 0.3034
C26 C 0.4552(3) 0.7548(2) 0.37709(13)
C27 C 0.6367(3) 0.7134(2) 0.34745(13)
C28 C 0.7399(3) 0.6099(2) 0.37513(14)
C29 C 0.6782(4) 0.5437(2) 0.43253(17)
H18 H 0.5629 0.5654 0.4506
C30 C 0.7827(5) 0.4499(3) 0.4616(2)
H19 H 0.7391 0.4093 0.4998
C31 C 0.9572(5) 0.4132(3) 0.4344(2)
H20 H 1.0286 0.3493 0.4553
C32 C 1.0205(4) 0.4700(3) 0.3787(2)
H21 H 1.1350 0.4429 0.3602
C33 C 0.9158(4) 0.5711(3) 0.34722(16)
C34 C 0.9793(4) 0.6335(3) 0.29036(18)
H22 H 1.0926 0.6052 0.2704
C35 C 0.8806(4) 0.7359(3) 0.26240(15)
C36 C 0.9476(5) 0.8012(4) 0.20687(19)
H23 H 1.0601 0.7725 0.1860
C37 C 0.8514(5) 0.9051(4) 0.18322(18)
H24 H 0.8983 0.9467 0.1463
C38 C 0.6789(5) 0.9515(3) 0.21442(17)
H25 H 0.6143 1.0238 0.1985
C39 C 0.6096(4) 0.8900(3) 0.26720(15)
H26 H 0.4969 0.9207 0.2873
C40 C 0.7056(3) 0.7792(2) 0.29262(13)
N1 N 0.8173(3) 0.86990(18) 0.64478(10)
N2 N 0.7707(3) 0.8543(2) 0.71536(11)
N3 N 0.2268(3) 0.82952(18) 0.45922(11)
N4 N 0.4002(2) 0.80416(16) 0.44379(10)
C41 C 0.3133(7) 0.5188(5) 0.1229(3)
H27 H 0.3416 0.5823 0.0924
H28 H 0.1899 0.5320 0.1302
C42 C 0.3884(7) 0.4032(5) 0.0888(3)
H29 H 0.4767 0.4095 0.0502
H30 H 0.3026 0.3716 0.0698
C43 C 0.4624(6) 0.3239(4) 0.1458(3)
H31 H 0.5859 0.2986 0.1354
H32 H 0.4172 0.2525 0.1508
C44 C 0.4102(7) 0.4005(5) 0.2120(3)
H33 H 0.3104 0.3826 0.2396
H34 H 0.5022 0.3862 0.2413
O1 O 0.3719(4) 0.5247(3) 0.18814(17)
loop_
_geom_bond_atom_site_label_1
_geom_bond_atom_site_label_2
_geom_bond_site_symmetry_1
_geom_bond_site_symmetry_2
C1 C2 1_555 1_555
C2 C3 1_555 1_555
C3 H1 1_555 1_555
C4 C3 1_555 1_555
H2 C4 1_555 1_555
C5 C4 1_555 1_555
H3 C5 1_555 1_555
C6 C5 1_555 1_555
H4 C6 1_555 1_555
C7 C2 1_555 1_555
C8 C7 1_555 1_555
H5 C8 1_555 1_555
C9 C8 1_555 1_555
C10 C9 1_555 1_555
H6 C10 1_555 1_555
C11 C10 1_555 1_555
H7 C11 1_555 1_555
C12 C11 1_555 1_555
H8 C12 1_555 1_555
C13 C12 1_555 1_555
H9 C13 1_555 1_555
C14 C1 1_555 1_555
C15 C1 1_555 1_555
C16 C15 1_555 1_555
H10 C16 1_555 1_555
C17 C16 1_555 1_555
H11 C17 1_555 1_555
C18 C19 1_555 1_555
C19 H12 1_555 1_555
C20 C19 1_555 1_555
H13 C20 1_555 1_555
C21 C20 1_555 1_555
C22 C21 1_555 1_555
H14 C22 1_555 1_555
C23 C18 1_555 1_555
H15 C23 1_555 1_555
C24 H16 1_555 1_555
C25 C24 1_555 1_555
H17 C25 1_555 1_555
C26 C25 1_555 1_555
C27 C26 1_555 1_555
C28 C27 1_555 1_555
C29 C28 1_555 1_555
H18 C29 1_555 1_555
C30 C29 1_555 1_555
H19 C30 1_555 1_555
C31 C30 1_555 1_555
H20 C31 1_555 1_555
C32 C31 1_555 1_555
H21 C32 1_555 1_555
C33 C28 1_555 1_555
C34 C33 1_555 1_555
H22 C34 1_555 1_555
C35 C34 1_555 1_555
C36 C35 1_555 1_555
H23 C36 1_555 1_555
C37 C36 1_555 1_555
H24 C37 1_555 1_555
C38 C37 1_555 1_555
H25 C38 1_555 1_555
C39 C38 1_555 1_555
H26 C39 1_555 1_555
C40 C27 1_555 1_555
C41 H27 1_555 1_555
H28 C41 1_555 1_555
C42 C41 1_555 1_555
H29 C42 1_555 1_555
H30 C42 1_555 1_555
C43 C42 1_555 1_555
H31 C43 1_555 1_555
H32 C43 1_555 1_555
C44 C43 1_555 1_555
H33 C44 1_555 1_555
H34 C44 1_555 1_555
N1 C17 1_555 1_555
N2 C15 1_555 1_555
N3 C24 1_555 1_555
N4 C21 1_555 1_555
O1 C41 1_555 1_555
C6 C7 1_555 1_555
C9 C14 1_555 1_555
C13 C14 1_555 1_555
C18 N1 1_555 1_555
C22 C23 1_555 1_555
C26 N4 1_555 1_555
C32 C33 1_555 1_555
C35 C40 1_555 1_555
C39 C40 1_555 1_555
C44 O1 1_555 1_555
N1 N2 1_555 1_555
N3 N4 1_555 1_555

#END
