
#######################################################################
#
#                 Cambridge Crystallographic Data Centre
#                                CCDC 
#
#######################################################################
#
# If this CIF has been generated from an entry in the Cambridge 
# Structural Database, then it will include bibliographic, chemical, 
# crystal, experimental, refinement or atomic coordinate data resulting 
# from the CCDC's data processing and validation procedures.
#
#######################################################################

data_CUNLAA
_chemical_formula_moiety         'C20 H17 Br1 F3 N3 O3'
_chemical_name_systematic        
5-bromo-1,7-dimethyl-3'-nitro-4'-phenyl-5'-(trifluoromethyl)spiro[indole-3,2'-pyrrolidin]-2(1H)-one
_symmetry_cell_setting           orthorhombic
_symmetry_space_group_name_H-M   'P 21 21 21'
_symmetry_Int_Tables_number      19
_space_group_name_Hall           'P 2ac 2ab'
loop_
_symmetry_equiv_pos_site_id
_symmetry_equiv_pos_as_xyz
1 x,y,z
2 1/2-x,-y,1/2+z
3 -x,1/2+y,1/2-z
4 1/2+x,1/2-y,-z
_cell_length_a                   9.0509(16)
_cell_length_b                   12.804(2)
_cell_length_c                   17.561(3)
_cell_angle_alpha                90
_cell_angle_beta                 90
_cell_angle_gamma                90
_cell_volume                     2035.1
_exptl_crystal_colour            colorless
_exptl_crystal_description       block
_cell_formula_units_Z            4
loop_
_atom_site_label
_atom_site_type_symbol
_atom_site_fract_x
_atom_site_fract_y
_atom_site_fract_z
Br1 Br 0.14194(4) 0.17076(2) 0.89374(2)
C1 C 0.1833(5) 0.8968(3) 0.8166(2)
H1 H 0.2355 0.9586 0.8095
C2 C 0.0419(5) 0.8910(3) 0.7932(2)
H2 H -0.0039 0.9486 0.7712
C3 C -0.0332(5) 0.7995(4) 0.8024(2)
H3 H -0.1303 0.7943 0.7855
C4 C 0.0341(4) 0.7138(3) 0.8368(2)
H4 H -0.0185 0.6520 0.8427
C5 C 0.1787(3) 0.7198(2) 0.86217(17)
C6 C 0.2526(4) 0.8132(2) 0.8507(2)
H5 H 0.3504 0.8196 0.8664
C7 C 0.2496(3) 0.6276(2) 0.90050(17)
H6 H 0.1844 0.5671 0.8940
C8 C 0.2825(3) 0.6404(2) 0.98697(16)
H7 H 0.3137 0.7123 0.9972
C9 C 0.4674(3) 0.5251(2) 0.93447(17)
C10 C 0.4019(3) 0.5978(2) 0.87223(16)
H8 H 0.4627 0.6610 0.8688
C11 C 0.1510(4) 0.6142(2) 1.03595(17)
C12 C 0.6346(4) 0.5316(2) 0.93433(17)
C13 C 0.5768(3) 0.3620(2) 0.90589(15)
C14 C 0.4418(3) 0.4098(2) 0.91965(15)
C15 C 0.3106(3) 0.3551(2) 0.91737(15)
H9 H 0.2205 0.3872 0.9276
C16 C 0.3197(3) 0.2500(2) 0.89904(17)
C17 C 0.4535(4) 0.2019(2) 0.88483(18)
H10 H 0.4547 0.1310 0.8733
C18 C 0.5869(4) 0.2564(2) 0.88731(18)
C19 C 0.7278(4) 0.1983(3) 0.8700(2)
H11 H 0.7052 0.1269 0.8579
H12 H 0.7917 0.2005 0.9136
H13 H 0.7764 0.2304 0.8274
C20 C 0.8516(4) 0.4182(3) 0.9134(2)
H14 H 0.9027 0.4829 0.9216
H15 H 0.8798 0.3897 0.8649
H16 H 0.8771 0.3698 0.9530
F1 F 0.1054(2) 0.51542(15) 1.02678(12)
F2 F 0.1769(2) 0.62629(19) 1.10974(11)
F3 F 0.0351(2) 0.67450(18) 1.01826(12)
N1 N 0.6917(3) 0.43673(19) 0.91431(14)
N2 N 0.4044(3) 0.5688(2) 1.00419(14)
H17 H 0.4348 0.5544 1.0494
N3 N 0.3980(4) 0.5456(2) 0.79523(17)
O1 O 0.2830(4) 0.5111(2) 0.77115(15)
O2 O 0.5199(4) 0.5408(3) 0.76350(17)
O3 O 0.7077(3) 0.60939(18) 0.94869(16)
loop_
_geom_bond_atom_site_label_1
_geom_bond_atom_site_label_2
_geom_bond_site_symmetry_1
_geom_bond_site_symmetry_2
Br1 C16 1_555 1_555
C1 H1 1_555 1_555
C2 C1 1_555 1_555
H2 C2 1_555 1_555
C3 C2 1_555 1_555
H3 C3 1_555 1_555
C4 C3 1_555 1_555
H4 C4 1_555 1_555
C5 C4 1_555 1_555
C6 C1 1_555 1_555
H5 C6 1_555 1_555
C7 C5 1_555 1_555
H6 C7 1_555 1_555
C8 C7 1_555 1_555
H7 C8 1_555 1_555
C9 C10 1_555 1_555
C10 C7 1_555 1_555
H8 C10 1_555 1_555
C11 C8 1_555 1_555
C12 C9 1_555 1_555
C13 C14 1_555 1_555
C14 C9 1_555 1_555
C15 C14 1_555 1_555
H9 C15 1_555 1_555
C16 C15 1_555 1_555
C17 C16 1_555 1_555
H10 C17 1_555 1_555
C18 C13 1_555 1_555
C19 C18 1_555 1_555
H11 C19 1_555 1_555
H12 C19 1_555 1_555
H13 C19 1_555 1_555
C20 H14 1_555 1_555
H15 C20 1_555 1_555
H16 C20 1_555 1_555
F1 C11 1_555 1_555
F2 C11 1_555 1_555
F3 C11 1_555 1_555
N1 C12 1_555 1_555
N2 C8 1_555 1_555
H17 N2 1_555 1_555
N3 C10 1_555 1_555
O1 N3 1_555 1_555
O2 N3 1_555 1_555
O3 C12 1_555 1_555
C5 C6 1_555 1_555
C9 N2 1_555 1_555
C13 N1 1_555 1_555
C17 C18 1_555 1_555
C20 N1 1_555 1_555

#END
