
#######################################################################
#
#                 Cambridge Crystallographic Data Centre
#                                CCDC 
#
#######################################################################
#
# If this CIF has been generated from an entry in the Cambridge 
# Structural Database, then it will include bibliographic, chemical, 
# crystal, experimental, refinement or atomic coordinate data resulting 
# from the CCDC's data processing and validation procedures.
#
#######################################################################

data_CUNPIM
_chemical_formula_moiety         'C30 H30 B2 N2'
_chemical_name_systematic        
6,12-Dimesityl-6H,12H-[2,1,3]benzazadiborolo[2,1-a][1,3,2]benzodiazaborole
_symmetry_cell_setting           triclinic
_symmetry_space_group_name_H-M   'P -1'
_symmetry_Int_Tables_number      2
_space_group_name_Hall           '-P 1'
loop_
_symmetry_equiv_pos_site_id
_symmetry_equiv_pos_as_xyz
1 x,y,z
2 -x,-y,-z
_cell_length_a                   7.9059(5)
_cell_length_b                   12.0886(7)
_cell_length_c                   14.4605(9)
_cell_angle_alpha                98.694(5)
_cell_angle_beta                 98.987(5)
_cell_angle_gamma                107.194(5)
_cell_volume                     1275.2
_exptl_crystal_colour            colorless
_exptl_crystal_description       block
_cell_formula_units_Z            2
loop_
_atom_site_label
_atom_site_type_symbol
_atom_site_fract_x
_atom_site_fract_y
_atom_site_fract_z
B1 B 0.940(4) 0.524(3) 0.468(2)
C1 C 0.8757(2) 0.72701(13) 0.48720(10)
C2 C 0.9545(2) 0.79254(14) 0.42337(11)
C3 C 0.8827(2) 0.87600(15) 0.39325(13)
H1 H 0.9373 0.9211 0.3509
C4 C 0.7339(2) 0.89566(14) 0.42298(13)
C5 C 0.6581(2) 0.83026(13) 0.48583(12)
H2 H 0.5568 0.8434 0.5074
C6 C 0.7255(2) 0.74604(13) 0.51831(11)
C7 C 1.1144(3) 0.7719(2) 0.38723(15)
H3 H 1.0716 0.7008 0.3359
H4 H 1.1983 0.7610 0.4399
H5 H 1.1768 0.8404 0.3625
C8 C 0.6533(3) 0.98354(19) 0.38621(19)
H6 H 0.5340 0.9717 0.4020
H7 H 0.6406 0.9717 0.3166
H8 H 0.7332 1.0642 0.4162
C9 C 0.6322(3) 0.67337(17) 0.58310(14)
H9 H 0.5237 0.6936 0.5920
H10 H 0.7149 0.6903 0.6453
H11 H 0.5972 0.5890 0.5541
C10 C 0.9294(2) 0.34428(15) 0.38154(13)
C11 C 0.8790(2) 0.25170(15) 0.30293(14)
H12 H 0.9191 0.1853 0.3058
C12 C 0.7689(3) 0.25668(19) 0.21951(17)
H13 H 0.7343 0.1934 0.1653
C13 C 0.7091(3) 0.35327(19) 0.21484(17)
H14 H 0.6341 0.3553 0.1574
C14 C 0.7577(3) 0.44670(18) 0.29305(16)
H15 H 0.7159 0.5123 0.2896
C15 C 0.8680(2) 0.44304(15) 0.37634(13)
B2 B 0.959(4) 0.641(2) 0.5266(19)
B1A B 1.060(4) 0.476(3) 0.532(2)
C1A C 1.1243(2) 0.27299(13) 0.51280(10)
C2A C 1.0455(2) 0.20746(14) 0.57663(11)
C3A C 1.1173(2) 0.12400(15) 0.60675(13)
H1A H 1.0627 0.0789 0.6491
C4A C 1.2661(2) 0.10434(14) 0.57702(13)
C5A C 1.3419(2) 0.16974(13) 0.51417(12)
H2A H 1.4432 0.1566 0.4926
C6A C 1.2745(2) 0.25396(13) 0.48169(11)
C7A C 0.8856(3) 0.2281(2) 0.61277(15)
H3A H 0.9284 0.2992 0.6641
H4A H 0.8017 0.2390 0.5601
H5A H 0.8232 0.1596 0.6375
C8A C 1.3467(3) 0.01646(19) 0.61379(19)
H6A H 1.4660 0.0283 0.5980
H7A H 1.3594 0.0283 0.6834
H8A H 1.2668 -0.0642 0.5838
C9A C 1.3678(3) 0.32663(17) 0.41690(14)
H9A H 1.4763 0.3064 0.4080
H10A H 1.2851 0.3097 0.3547
H11A H 1.4028 0.4110 0.4459
C10A C 1.0706(2) 0.65572(15) 0.61846(13)
C11A C 1.1210(2) 0.74830(15) 0.69707(14)
H12A H 1.0809 0.8147 0.6942
C12A C 1.2311(3) 0.74332(19) 0.78049(17)
H13A H 1.2657 0.8066 0.8347
C13A C 1.2909(3) 0.64673(19) 0.78516(17)
H14A H 1.3659 0.6447 0.8426
C14A C 1.2423(3) 0.55330(18) 0.70695(16)
H15A H 1.2841 0.4877 0.7104
C15A C 1.1320(2) 0.55696(15) 0.62366(13)
B2A B 1.041(4) 0.359(2) 0.4734(19)
N1? N 0.948(3) 0.6339(17) 0.5162(13)
N2? N 0.956(3) 0.5289(18) 0.4735(14)
C16? C 0.5104(6) 0.6033(4) 0.1421(3)
N3? N 0.684(5) 0.624(3) 0.002(2)
B3? B 0.557(5) 0.566(3) 0.034(3)
B4? B 0.695(7) 0.637(4) -0.003(4)
N4? N 0.536(3) 0.544(2) 0.034(2)
C17? C 0.8209(7) 0.7483(4) 0.0510(5)
C18? C 0.7657(14) 0.8491(8) 0.0622(6)
C19? C 0.882(3) 0.9539(16) 0.1014(14)
H16? H 0.8380 1.0189 0.1130
C20? C 1.063(3) 0.9733(17) 0.1264(12)
C21? C 1.115(3) 0.8759(15) 0.1280(18)
H17? H 1.2349 0.8870 0.1599
C22? C 1.0008(11) 0.7590(8) 0.0852(6)
C23? C 0.5688(14) 0.8412(9) 0.0270(8)
H18? H 0.5599 0.9211 0.0348
H19? H 0.4919 0.7955 0.0643
H20? H 0.5284 0.8019 -0.0408
C24? C 1.215(3) 1.0927(17) 0.1569(13)
H21? H 1.1684 1.1537 0.1844
H22? H 1.2627 1.1140 0.1010
H23? H 1.3130 1.0868 0.2048
C25? C 1.0618(11) 0.6519(6) 0.0750(7)
H24? H 1.0870 0.6349 0.0111
H25? H 0.9661 0.5837 0.0838
H26? H 1.1720 0.6673 0.1236
C26? C 0.3198(11) 0.4402(8) 0.0963(6)
C27? C 0.2099(16) 0.4111(10) 0.1615(9)
H27? H 0.1176 0.3362 0.1480
C28? C 0.235(4) 0.489(2) 0.2439(18)
H28? H 0.1512 0.4658 0.2836
C29? C 0.370(5) 0.602(3) 0.279(2)
H29? H 0.3815 0.6550 0.3370
C30? C 0.4956(14) 0.6268(8) 0.2050(8)
H30? H 0.5986 0.6965 0.2204
C31? C 0.4607(10) 0.5499(9) 0.1190(6)
B5? B 0.634(6) 0.647(4) 0.079(3)
N5? N 0.566(4) 0.540(2) -0.0059(18)
N6? N 0.634(4) 0.639(2) 0.0733(18)
B6? B 0.589(6) 0.554(3) -0.007(3)
C32? C 0.7881(4) 0.7556(2) 0.0958(3)
C33? C 0.7570(7) 0.8633(4) 0.0981(3)
C34? C 0.9095(12) 0.9686(8) 0.1236(8)
H31? H 0.8910 1.0425 0.1219
C35? C 1.0848(13) 0.9664(9) 0.1509(7)
C36? C 1.1124(16) 0.8562(8) 0.1406(10)
H32? H 1.2321 0.8525 0.1513
C37? C 0.9666(6) 0.7537(4) 0.1150(3)
C38? C 0.5671(6) 0.8682(4) 0.0739(4)
H33? H 0.5018 0.8422 0.1232
H34? H 0.5039 0.8159 0.0117
H35? H 0.5722 0.9496 0.0711
C39? C 1.2346(19) 1.0816(10) 0.1902(9)
H36? H 1.2093 1.1426 0.1582
H37? H 1.3494 1.0726 0.1791
H38? H 1.2432 1.1049 0.2591
C40? C 1.0052(5) 0.6380(4) 0.1111(3)
H39? H 0.9318 0.5900 0.1485
H40? H 1.1340 0.6541 0.1378
H41? H 0.9750 0.5949 0.0444
C41? C 0.3846(7) 0.4901(5) 0.1010(2)
C42? C 0.2563(9) 0.4350(6) 0.1484(5)
H42? H 0.1674 0.3605 0.1192
C43? C 0.261(2) 0.4928(15) 0.2417(12)
H43? H 0.1777 0.4583 0.2783
C44? C 0.390(3) 0.5996(19) 0.2765(13)
H44? H 0.3959 0.6358 0.3405
C45? C 0.5097(8) 0.6600(4) 0.2328(4)
H45? H 0.5902 0.7375 0.2616
loop_
_geom_bond_atom_site_label_1
_geom_bond_atom_site_label_2
_geom_bond_site_symmetry_1
_geom_bond_site_symmetry_2
B1 C15 1_555 1_555
C1 C2 1_555 1_555
C2 C3 1_555 1_555
C3 H1 1_555 1_555
C4 C3 1_555 1_555
C5 C4 1_555 1_555
H2 C5 1_555 1_555
C6 C1 1_555 1_555
C7 C2 1_555 1_555
H3 C7 1_555 1_555
H4 C7 1_555 1_555
H5 C7 1_555 1_555
C8 C4 1_555 1_555
H6 C8 1_555 1_555
H7 C8 1_555 1_555
H8 C8 1_555 1_555
C9 C6 1_555 1_555
H9 C9 1_555 1_555
H10 C9 1_555 1_555
H11 C9 1_555 1_555
C10 C11 1_555 1_555
C11 H12 1_555 1_555
C12 C11 1_555 1_555
H13 C12 1_555 1_555
C13 C12 1_555 1_555
H14 C13 1_555 1_555
C14 C13 1_555 1_555
H15 C14 1_555 1_555
C15 C10 1_555 1_555
B2 B1 1_555 1_555
B1A B1 1_555 1_555
C1A C2A 1_555 1_555
C2A C3A 1_555 1_555
C3A H1A 1_555 1_555
C4A C3A 1_555 1_555
C5A C4A 1_555 1_555
H2A C5A 1_555 1_555
C6A C1A 1_555 1_555
C7A C2A 1_555 1_555
H3A C7A 1_555 1_555
H4A C7A 1_555 1_555
H5A C7A 1_555 1_555
C8A C4A 1_555 1_555
H6A C8A 1_555 1_555
H7A C8A 1_555 1_555
H8A C8A 1_555 1_555
C9A C6A 1_555 1_555
H9A C9A 1_555 1_555
H10A C9A 1_555 1_555
H11A C9A 1_555 1_555
C10A B2 1_555 1_555
C11A C10A 1_555 1_555
H12A C11A 1_555 1_555
C12A C11A 1_555 1_555
H13A C12A 1_555 1_555
C13A C12A 1_555 1_555
H14A C13A 1_555 1_555
C14A C13A 1_555 1_555
H15A C14A 1_555 1_555
C15A B1A 1_555 1_555
B2A C10 1_555 1_555
C1 B2 1_555 1_555
C5 C6 1_555 1_555
C14 C15 1_555 1_555
B1A B2A 1_555 1_555
C1A B2A 1_555 1_555
C5A C6A 1_555 1_555
C10A C15A 1_555 1_555
C14A C15A 1_555 1_555

#END
