
#######################################################################
#
#                 Cambridge Crystallographic Data Centre
#                                CCDC 
#
#######################################################################
#
# If this CIF has been generated from an entry in the Cambridge 
# Structural Database, then it will include bibliographic, chemical, 
# crystal, experimental, refinement or atomic coordinate data resulting 
# from the CCDC's data processing and validation procedures.
#
#######################################################################

data_CUNPOS
_chemical_formula_moiety         'C12 H10 Br2 N2'
_chemical_name_systematic        1,2-bis(2-Bromophenyl)hydrazine
_symmetry_cell_setting           monoclinic
_symmetry_space_group_name_H-M   'P 21/c'
_symmetry_Int_Tables_number      14
_space_group_name_Hall           '-P 2ybc'
loop_
_symmetry_equiv_pos_site_id
_symmetry_equiv_pos_as_xyz
1 x,y,z
2 -x,1/2+y,1/2-z
3 -x,-y,-z
4 x,1/2-y,1/2+z
_cell_length_a                   14.6340(5)
_cell_length_b                   20.4371(6)
_cell_length_c                   8.1543(3)
_cell_angle_alpha                90
_cell_angle_beta                 96.873(3)
_cell_angle_gamma                90
_cell_volume                     2421.23
_exptl_crystal_colour            colorless
_exptl_crystal_description       block
_cell_formula_units_Z            8
loop_
_atom_site_label
_atom_site_type_symbol
_atom_site_fract_x
_atom_site_fract_y
_atom_site_fract_z
Br1 Br 0.65519(3) 0.31888(2) 0.87454(7)
Br2 Br 0.35158(3) 0.60693(2) 0.69646(7)
C1 C 0.5321(3) 0.3164(2) 0.9273(6)
C2 C 0.4785(3) 0.37306(19) 0.9122(5)
C3 C 0.3881(3) 0.3680(2) 0.9464(5)
H1 H 0.3493 0.4054 0.9352
C4 C 0.3538(3) 0.3093(2) 0.9964(6)
H2 H 0.2918 0.3068 1.0194
C5 C 0.4081(3) 0.2547(2) 1.0133(7)
H3 H 0.3841 0.2147 1.0493
C6 C 0.4979(3) 0.2577(2) 0.9778(7)
H4 H 0.5358 0.2198 0.9880
N1 N 0.5159(2) 0.43345(16) 0.8723(5)
H5 H 0.560(3) 0.429(2) 0.818(6)
N2 N 0.4524(3) 0.48041(18) 0.8057(5)
H6 H 0.460(3) 0.515(3) 0.853(7)
C7 C 0.4162(2) 0.47816(19) 0.6417(5)
C8 C 0.3630(3) 0.5298(2) 0.5695(6)
C9 C 0.3220(3) 0.5275(2) 0.4097(6)
H7 H 0.2860 0.5633 0.3646
C10 C 0.3333(3) 0.4728(2) 0.3142(6)
H8 H 0.3044 0.4705 0.2036
C11 C 0.3871(3) 0.4215(2) 0.3815(6)
H9 H 0.3961 0.3842 0.3157
C12 C 0.4277(3) 0.4239(2) 0.5430(5)
H10 H 0.4640 0.3881 0.5875
Br3 Br -0.11732(3) 0.30964(2) 0.34788(7)
Br4 Br 0.11129(3) 0.62291(2) 0.21998(6)
C13 C 0.0056(3) 0.31740(19) 0.4500(6)
C14 C 0.0526(3) 0.3764(2) 0.4401(5)
C15 C 0.1443(3) 0.3792(2) 0.5102(5)
H11 H 0.1792 0.4179 0.5004
C16 C 0.1848(3) 0.3252(2) 0.5947(6)
H12 H 0.2472 0.3275 0.6423
C17 C 0.1350(3) 0.2685(2) 0.6098(6)
H13 H 0.1623 0.2326 0.6715
C18 C 0.0462(3) 0.2642(2) 0.5353(6)
H14 H 0.0124 0.2248 0.5422
N3 N 0.0069(2) 0.43167(16) 0.3711(5)
H15 H -0.035(3) 0.425(2) 0.304(6)
N4 N 0.0603(2) 0.48430(17) 0.3279(5)
H16 H 0.051(3) 0.521(3) 0.370(6)
C19 C 0.0926(2) 0.48499(18) 0.1731(5)
C20 C 0.1245(2) 0.54261(19) 0.1085(5)
C21 C 0.1643(3) 0.5432(2) -0.0364(6)
H17 H 0.1869 0.5830 -0.0765
C22 C 0.1710(3) 0.4852(2) -0.1238(6)
H18 H 0.1987 0.4849 -0.2234
C23 C 0.1369(3) 0.4282(2) -0.0637(6)
H19 H 0.1393 0.3888 -0.1247
C24 C 0.0993(3) 0.4277(2) 0.0840(5)
H20 H 0.0778 0.3878 0.1248
loop_
_geom_bond_atom_site_label_1
_geom_bond_atom_site_label_2
_geom_bond_site_symmetry_1
_geom_bond_site_symmetry_2
Br1 C1 1_555 1_555
Br2 C8 1_555 1_555
C1 C2 1_555 1_555
C2 C3 1_555 1_555
C3 H1 1_555 1_555
C4 C3 1_555 1_555
H2 C4 1_555 1_555
C5 C4 1_555 1_555
H3 C5 1_555 1_555
C6 C1 1_555 1_555
H4 C6 1_555 1_555
N1 C2 1_555 1_555
H5 N1 1_555 1_555
N2 N1 1_555 1_555
H6 N2 1_555 1_555
C7 N2 1_555 1_555
C8 C7 1_555 1_555
C9 C8 1_555 1_555
H7 C9 1_555 1_555
C10 C9 1_555 1_555
H8 C10 1_555 1_555
C11 C10 1_555 1_555
H9 C11 1_555 1_555
C12 C7 1_555 1_555
H10 C12 1_555 1_555
Br3 C13 1_555 1_555
Br4 C20 1_555 1_555
C13 C14 1_555 1_555
C14 C15 1_555 1_555
C15 H11 1_555 1_555
C16 C15 1_555 1_555
H12 C16 1_555 1_555
C17 C16 1_555 1_555
H13 C17 1_555 1_555
C18 C13 1_555 1_555
H14 C18 1_555 1_555
N3 C14 1_555 1_555
H15 N3 1_555 1_555
N4 N3 1_555 1_555
H16 N4 1_555 1_555
C19 N4 1_555 1_555
C20 C19 1_555 1_555
C21 C20 1_555 1_555
H17 C21 1_555 1_555
C22 C21 1_555 1_555
H18 C22 1_555 1_555
C23 C22 1_555 1_555
H19 C23 1_555 1_555
C24 C19 1_555 1_555
H20 C24 1_555 1_555
C5 C6 1_555 1_555
C11 C12 1_555 1_555
C17 C18 1_555 1_555
C23 C24 1_555 1_555

#END
