
#######################################################################
#
#                 Cambridge Crystallographic Data Centre
#                                CCDC 
#
#######################################################################
#
# If this CIF has been generated from an entry in the Cambridge 
# Structural Database, then it will include bibliographic, chemical, 
# crystal, experimental, refinement or atomic coordinate data resulting 
# from the CCDC's data processing and validation procedures.
#
#######################################################################

data_CUNPOR
_chemical_formula_moiety         'C20 H23 N1 O2'
_chemical_name_systematic        
(4S,5S)-1-Benzyl-4-(benzyloxy)-5-ethylpyrrolidin-2-one
_symmetry_cell_setting           orthorhombic
_symmetry_space_group_name_H-M   'P 21 21 21'
_symmetry_Int_Tables_number      19
_space_group_name_Hall           'P 2ac 2ab'
loop_
_symmetry_equiv_pos_site_id
_symmetry_equiv_pos_as_xyz
1 x,y,z
2 1/2-x,-y,1/2+z
3 -x,1/2+y,1/2-z
4 1/2+x,1/2-y,-z
_cell_length_a                   8.0746(19)
_cell_length_b                   9.619(2)
_cell_length_c                   22.657(5)
_cell_angle_alpha                90
_cell_angle_beta                 90
_cell_angle_gamma                90
_cell_volume                     1759.76
_exptl_crystal_colour            colorless
_exptl_crystal_description       rod
_chemical_melting_point          '80-82 deg.C'
_cell_formula_units_Z            4
loop_
_atom_site_label
_atom_site_type_symbol
_atom_site_fract_x
_atom_site_fract_y
_atom_site_fract_z
O1 O 0.4553(2) 0.5359(2) 0.21021(7)
O2 O 0.1992(2) 0.4226(2) 0.06205(9)
N1 N 0.4404(3) 0.5418(2) 0.07878(9)
C1 C 0.5264(3) 0.4432(3) 0.16813(11)
H1 H 0.6147 0.3866 0.1856
C2 C 0.3663(3) 0.7804(3) 0.04366(11)
C3 C 0.4168(3) 0.8931(3) 0.00985(11)
H2 H 0.4929 0.8798 -0.0204
C4 C 0.3111(3) 0.5606(3) 0.30226(11)
C5 C 0.3291(3) 0.4401(3) 0.08946(12)
C6 C 0.5894(3) 0.5289(3) 0.11569(11)
H3 H 0.6710 0.4730 0.0942
C7 C 0.3215(4) 0.5605(3) 0.36331(12)
H4 H 0.3993 0.5042 0.3819
C8 C 0.3551(3) 1.0253(3) 0.02069(12)
H5 H 0.3905 1.0997 -0.0023
C9 C 0.2547(3) 0.8044(3) 0.08963(11)
H6 H 0.2210 0.7307 0.1134
C10 C 0.4278(4) 0.6349(3) 0.02855(11)
H7 H 0.3531 0.5941 -0.0002
H8 H 0.5359 0.6426 0.0102
C11 C 0.2423(3) 1.0469(3) 0.06496(12)
H9 H 0.1987 1.1352 0.0713
C12 C 0.1923(4) 0.6425(3) 0.27534(13)
H10 H 0.1821 0.6423 0.2345
C13 C 0.1935(3) 0.9365(3) 0.10030(12)
H11 H 0.1196 0.9513 0.1312
C14 C 0.3925(3) 0.3533(3) 0.14014(12)
H12 H 0.4382 0.2661 0.1261
H13 H 0.3046 0.3336 0.1681
C15 C 0.2174(4) 0.6433(3) 0.39702(13)
H14 H 0.2267 0.6431 0.4379
C16 C 0.0999(4) 0.7261(4) 0.36990(14)
H15 H 0.0298 0.7815 0.3924
C17 C 0.6692(3) 0.6684(3) 0.13137(12)
H16 H 0.6958 0.7180 0.0953
H17 H 0.5906 0.7241 0.1535
C18 C 0.0875(4) 0.7256(4) 0.30937(14)
H18 H 0.0086 0.7811 0.2910
C19 C 0.4260(4) 0.4719(3) 0.26572(11)
H19 H 0.5301 0.4597 0.2864
H20 H 0.3770 0.3809 0.2598
C20 C 0.8267(4) 0.6500(4) 0.16792(15)
H21 H 0.8719 0.7396 0.1774
H22 H 0.9064 0.5977 0.1457
H23 H 0.8008 0.6012 0.2037
loop_
_geom_bond_atom_site_label_1
_geom_bond_atom_site_label_2
_geom_bond_site_symmetry_1
_geom_bond_site_symmetry_2
O1 C1 1_555 1_555
O2 C5 1_555 1_555
N1 C5 1_555 1_555
C1 H1 1_555 1_555
C2 C3 1_555 1_555
C3 H2 1_555 1_555
C4 C7 1_555 1_555
C5 C14 1_555 1_555
C6 N1 1_555 1_555
H3 C6 1_555 1_555
C7 H4 1_555 1_555
C8 C3 1_555 1_555
H5 C8 1_555 1_555
C9 C2 1_555 1_555
H6 C9 1_555 1_555
C10 N1 1_555 1_555
H7 C10 1_555 1_555
H8 C10 1_555 1_555
C11 C8 1_555 1_555
H9 C11 1_555 1_555
C12 C4 1_555 1_555
H10 C12 1_555 1_555
C13 C9 1_555 1_555
H11 C13 1_555 1_555
C14 C1 1_555 1_555
H12 C14 1_555 1_555
H13 C14 1_555 1_555
C15 C7 1_555 1_555
H14 C15 1_555 1_555
C16 C15 1_555 1_555
H15 C16 1_555 1_555
C17 C6 1_555 1_555
H16 C17 1_555 1_555
H17 C17 1_555 1_555
C18 C12 1_555 1_555
H18 C18 1_555 1_555
C19 O1 1_555 1_555
H19 C19 1_555 1_555
H20 C19 1_555 1_555
C20 C17 1_555 1_555
H21 C20 1_555 1_555
H22 C20 1_555 1_555
H23 C20 1_555 1_555
C1 C6 1_555 1_555
C2 C10 1_555 1_555
C4 C19 1_555 1_555
C11 C13 1_555 1_555
C16 C18 1_555 1_555

#END
