
#######################################################################
#
#                 Cambridge Crystallographic Data Centre
#                                CCDC 
#
#######################################################################
#
# If this CIF has been generated from an entry in the Cambridge 
# Structural Database, then it will include bibliographic, chemical, 
# crystal, experimental, refinement or atomic coordinate data resulting 
# from the CCDC's data processing and validation procedures.
#
#######################################################################

data_CUNPEI
_chemical_formula_moiety         'C30 H30 B2 N2'
_chemical_name_systematic        
6,12-Dimesityl-6H,12H-[1,2,3]benzodiazaborolo[2,1-a][1,2,3]benzodiazaborole
_symmetry_cell_setting           triclinic
_symmetry_space_group_name_H-M   'P 1'
_symmetry_Int_Tables_number      1
_space_group_name_Hall           'P 1'
loop_
_symmetry_equiv_pos_site_id
_symmetry_equiv_pos_as_xyz
1 x,y,z
_cell_length_a                   7.8679(4)
_cell_length_b                   12.1091(6)
_cell_length_c                   14.4027(8)
_cell_angle_alpha                100.757(4)
_cell_angle_beta                 96.057(5)
_cell_angle_gamma                107.155(4)
_cell_volume                     1269.12
_exptl_crystal_colour            colorless
_exptl_crystal_description       plate
_cell_formula_units_Z            2
loop_
_atom_site_label
_atom_site_type_symbol
_atom_site_fract_x
_atom_site_fract_y
_atom_site_fract_z
B1 B 0.8104(8) 0.3104(5) 0.2270(5)
C1 C 0.6945(7) 0.2950(5) 0.1314(4)
C2 C 0.6294(8) 0.2074(5) 0.0480(5)
H1 H 0.6555 0.1350 0.0440
C3 C 0.5266(8) 0.2225(5) -0.0303(5)
H2 H 0.4853 0.1623 -0.0879
C4 C 0.4840(8) 0.3304(5) -0.0226(5)
H3 H 0.4120 0.3410 -0.0754
C5 C 0.5448(8) 0.4180(5) 0.0587(4)
H4 H 0.5159 0.4894 0.0636
C6 C 0.6501(7) 0.4005(5) 0.1346(4)
N1 N 0.7263(6) 0.4822(4) 0.2235(3)
B2 B 0.7356(8) 0.5965(5) 0.2717(4)
C7 C 0.8563(7) 0.6107(5) 0.3709(4)
C8 C 0.9192(8) 0.7008(5) 0.4550(5)
H5 H 0.8899 0.7722 0.4600
C9 C 1.0241(9) 0.6836(5) 0.5299(5)
H6 H 1.0688 0.7447 0.5869
C10 C 1.0656(8) 0.5823(6) 0.5249(4)
H7 H 1.1385 0.5741 0.5785
C11 C 1.0046(7) 0.4889(5) 0.4431(4)
H8 H 1.0326 0.4173 0.4400
C12 C 0.9011(7) 0.5070(5) 0.3670(4)
N2 N 0.8228(6) 0.4269(4) 0.2784(3)
C13 C 0.8991(7) 0.2242(4) 0.2675(4)
C14 C 1.0498(7) 0.2052(4) 0.2352(4)
C15 C 1.1196(7) 0.1211(4) 0.2674(4)
H9 H 1.2232 0.1084 0.2450
C16 C 1.0417(7) 0.0576(4) 0.3299(4)
C17 C 0.8907(8) 0.0765(5) 0.3629(4)
H10 H 0.8359 0.0335 0.4067
C18 C 0.8185(7) 0.1596(5) 0.3313(4)
C19 C 1.1181(9) -0.0298(5) 0.3678(6)
H11 H 1.0888 -0.0338 0.4318
H12 H 1.2495 -0.0034 0.3717
H13 H 1.0654 -0.1085 0.3245
C20 C 1.1473(8) 0.2768(6) 0.1691(5)
H14 H 1.0726 0.2524 0.1053
H15 H 1.2627 0.2624 0.1643
H16 H 1.1695 0.3615 0.1951
C21 C 0.6547(9) 0.1767(7) 0.3698(5)
H17 H 0.5739 0.0999 0.3748
H18 H 0.5911 0.2104 0.3262
H19 H 0.6927 0.2309 0.4333
C22 C 0.6519(7) 0.6843(4) 0.2324(4)
C23 C 0.4961(7) 0.7048(4) 0.2644(4)
C24 C 0.4327(8) 0.7875(5) 0.2341(4)
H20 H 0.3318 0.8026 0.2580
C25 C 0.5100(8) 0.8507(4) 0.1695(4)
C26 C 0.6607(8) 0.8292(5) 0.1386(4)
H21 H 0.7168 0.8724 0.0953
C27 C 0.7320(7) 0.7490(5) 0.1676(4)
C28 C 0.4009(9) 0.6340(6) 0.3292(5)
H22 H 0.3403 0.6806 0.3684
H23 H 0.4888 0.6145 0.3712
H24 H 0.3112 0.5606 0.2906
C29 C 0.4291(10) 0.9367(6) 0.1348(6)
H25 H 0.3338 0.9460 0.1711
H26 H 0.3778 0.9063 0.0664
H27 H 0.5231 1.0137 0.1441
C30 C 0.8958(9) 0.7275(6) 0.1315(6)
H28 H 0.8640 0.6445 0.0969
H29 H 0.9926 0.7445 0.1860
H30 H 0.9369 0.7797 0.0882
B5 B 0.4699(13) 0.5842(9) 0.7515(7)
C61 C 0.4516(18) 0.5063(13) 0.6470(8)
C62 C 0.5490(14) 0.5266(8) 0.5751(13)
H61 H 0.6486 0.5969 0.5834
C63 C 0.497(2) 0.4401(15) 0.4891(11)
H62 H 0.5604 0.4525 0.4374
C64 C 0.351(2) 0.3345(12) 0.4780(9)
H63 H 0.3200 0.2763 0.4193
C65 C 0.2542(16) 0.3143(10) 0.5503(12)
H64 H 0.1550 0.2439 0.5431
C66 C 0.3082(18) 0.4018(12) 0.6342(10)
N5 N 0.2228(11) 0.3972(7) 0.7151(6)
B6 B 0.0861(13) 0.3282(7) 0.7533(8)
C67 C 0.0955(19) 0.3997(10) 0.8520(8)
C68 C 0.0037(15) 0.3867(10) 0.9305(12)
H65 H -0.0952 0.3167 0.9248
C69 C 0.0528(18) 0.4722(15) 1.0150(9)
H66 H -0.0120 0.4616 1.0665
C70 C 0.197(2) 0.5728(12) 1.0237(11)
H67 H 0.2304 0.6317 1.0821
C71 C 0.2949(14) 0.5917(9) 0.9501(11)
H68 H 0.3946 0.6617 0.9571
C72 C 0.2406(15) 0.5036(12) 0.8657(9)
N6 N 0.3210(9) 0.5058(7) 0.7825(7)
C73 C -0.0504(9) 0.2031(5) 0.6968(5)
C74 C 0.0049(10) 0.1032(7) 0.6839(7)
C75 C -0.1163(13) -0.0068(5) 0.6355(8)
H69 H -0.0785 -0.0751 0.6267
C76 C -0.2928(12) -0.0168(6) 0.5999(8)
C77 C -0.3481(7) 0.0831(8) 0.6128(7)
H70 H -0.4687 0.0763 0.5885
C78 C -0.2269(9) 0.1931(6) 0.6612(6)
C79 C 0.1932(18) 0.1087(10) 0.7201(10)
H71 H 0.2011 0.0281 0.7093
H72 H 0.2245 0.1455 0.7889
H73 H 0.2773 0.1560 0.6858
C80 C -0.439(3) -0.1398(14) 0.5472(14)
H74 H -0.4461 -0.1965 0.5883
H75 H -0.4042 -0.1705 0.4867
H76 H -0.5567 -0.1287 0.5340
C81 C -0.2840(17) 0.2975(11) 0.6690(13)
H77 H -0.4150 0.2730 0.6484
H78 H -0.2232 0.3472 0.6281
H79 H -0.2524 0.3428 0.7358
C82 C 0.5983(9) 0.7066(5) 0.8074(6)
C83 C 0.5514(11) 0.8128(7) 0.8193(7)
C84 C 0.6813(13) 0.9200(6) 0.8632(10)
H80 H 0.6457 0.9889 0.8664
C85 C 0.8583(14) 0.9379(8) 0.9030(9)
C86 C 0.8928(11) 0.8326(11) 0.8915(11)
H81 H 1.0100 0.8368 0.9196
C87 C 0.7799(11) 0.7210(7) 0.8444(8)
C88 C 0.346(2) 0.8040(16) 0.801(2)
H82 H 0.2810 0.7360 0.7475
H83 H 0.3361 0.8770 0.7843
H84 H 0.2946 0.7935 0.8586
C89 C 0.981(2) 1.0457(11) 0.9517(16)
H85 H 0.9315 1.1095 0.9438
H86 H 1.0937 1.0580 0.9259
H87 H 1.0046 1.0463 1.0200
C90 C 0.8436(17) 0.6094(10) 0.8291(11)
H88 H 0.7404 0.5382 0.8242
H89 H 0.9357 0.6175 0.8836
H90 H 0.8946 0.6026 0.7699
B3? B 0.1420(15) 0.3156(9) 0.6692(8)
C31? C 0.272(2) 0.3620(15) 0.6038(12)
C32? C 0.2937(18) 0.3234(11) 0.5081(15)
H31? H 0.2102 0.2515 0.4696
C33? C 0.431(3) 0.387(2) 0.4699(11)
H32? H 0.4463 0.3586 0.4061
C34? C 0.5497(15) 0.4942(16) 0.5263(12)
H33? H 0.6470 0.5380 0.5004
C35? C 0.530(2) 0.5398(12) 0.6201(11)
H34? H 0.6083 0.6146 0.6566
C36? C 0.393(2) 0.4723(13) 0.6567(10)
N3? N 0.3561(13) 0.5049(8) 0.7474(8)
B4? B 0.4131(16) 0.5953(10) 0.8316(9)
C37? C 0.2745(17) 0.5456(14) 0.8980(12)
C38? C 0.260(2) 0.5914(11) 0.9901(13)
H35? H 0.3369 0.6670 1.0258
C39? C 0.123(2) 0.5195(16) 1.0286(9)
H36? H 0.1113 0.5461 1.0934
C40? C 0.0023(18) 0.4106(12) 0.9757(12)
H37? H -0.0895 0.3656 1.0043
C41? C 0.016(2) 0.3684(11) 0.8824(13)
H38? H -0.0657 0.2956 0.8445
C42? C 0.1562(18) 0.4371(13) 0.8466(8)
N4? N 0.2035(11) 0.4098(7) 0.7550(7)
C43? C -0.0293(9) 0.1940(6) 0.6533(7)
C44? C 0.0013(12) 0.0868(7) 0.6541(8)
C45? C -0.1435(17) -0.0179(6) 0.6347(10)
H39? H -0.1226 -0.0911 0.6353
C46? C -0.3188(14) -0.0155(8) 0.6145(11)
C47? C -0.3495(9) 0.0917(11) 0.6136(9)
H40? H -0.4693 0.0934 0.5998
C48? C -0.2047(11) 0.1964(8) 0.6330(7)
C49? C 0.2001(17) 0.0835(11) 0.6716(13)
H41? H 0.1983 0.0008 0.6610
H42? H 0.2575 0.1251 0.7378
H43? H 0.2684 0.1225 0.6271
C50? C -0.464(4) -0.136(2) 0.5925(15)
H44? H -0.4867 -0.1600 0.6526
H45? H -0.4246 -0.1946 0.5519
H46? H -0.5759 -0.1309 0.5589
C51? C -0.235(2) 0.3201(16) 0.6380(16)
H47? H -0.3627 0.3107 0.6383
H48? H -0.1981 0.3501 0.5821
H49? H -0.1621 0.3764 0.6968
C52? C 0.5691(9) 0.7076(6) 0.8486(7)
C53? C 0.5402(12) 0.8162(8) 0.8533(8)
C54? C 0.6863(18) 0.9202(6) 0.8725(11)
H50? H 0.6665 0.9944 0.8757
C55? C 0.8613(15) 0.9155(8) 0.8870(12)
C56? C 0.8902(9) 0.8069(11) 0.8823(11)
H51? H 1.0099 0.8038 0.8922
C57? C 0.7442(10) 0.7030(8) 0.8631(9)
C58? C 0.371(3) 0.827(2) 0.806(4)
H52? H 0.3971 0.8695 0.7546
H53? H 0.3197 0.8715 0.8531
H54? H 0.2838 0.7479 0.7784
C59? C 1.030(3) 1.0361(14) 0.9187(18)
H55? H 0.9945 1.1013 0.9006
H56? H 1.1300 1.0259 0.8864
H57? H 1.0691 1.0548 0.9883
C60? C 0.7911(17) 0.5953(11) 0.8625(10)
H58? H 0.7035 0.5417 0.8910
H59? H 0.9122 0.6157 0.8998
H60? H 0.7892 0.5559 0.7963
loop_
_geom_bond_atom_site_label_1
_geom_bond_atom_site_label_2
_geom_bond_site_symmetry_1
_geom_bond_site_symmetry_2
B1 C1 1_555 1_555
C1 C2 1_555 1_555
C2 H1 1_555 1_555
C3 C2 1_555 1_555
H2 C3 1_555 1_555
C4 C3 1_555 1_555
H3 C4 1_555 1_555
C5 C4 1_555 1_555
H4 C5 1_555 1_555
C6 C1 1_555 1_555
N1 C6 1_555 1_555
B2 N1 1_555 1_555
C7 B2 1_555 1_555
C8 C7 1_555 1_555
H5 C8 1_555 1_555
C9 C8 1_555 1_555
H6 C9 1_555 1_555
C10 C9 1_555 1_555
H7 C10 1_555 1_555
C11 C10 1_555 1_555
H8 C11 1_555 1_555
C12 C7 1_555 1_555
N2 B1 1_555 1_555
C13 B1 1_555 1_555
C14 C13 1_555 1_555
C15 C14 1_555 1_555
H9 C15 1_555 1_555
C16 C15 1_555 1_555
C17 C16 1_555 1_555
H10 C17 1_555 1_555
C18 C13 1_555 1_555
C19 C16 1_555 1_555
H11 C19 1_555 1_555
H12 C19 1_555 1_555
H13 C19 1_555 1_555
C20 C14 1_555 1_555
H14 C20 1_555 1_555
H15 C20 1_555 1_555
H16 C20 1_555 1_555
C21 C18 1_555 1_555
H17 C21 1_555 1_555
H18 C21 1_555 1_555
H19 C21 1_555 1_555
C22 B2 1_555 1_555
C23 C22 1_555 1_555
C24 C23 1_555 1_555
H20 C24 1_555 1_555
C25 C24 1_555 1_555
C26 C25 1_555 1_555
H21 C26 1_555 1_555
C27 C22 1_555 1_555
C28 C23 1_555 1_555
H22 C28 1_555 1_555
H23 C28 1_555 1_555
H24 C28 1_555 1_555
C29 C25 1_555 1_555
H25 C29 1_555 1_555
H26 C29 1_555 1_555
H27 C29 1_555 1_555
C30 C27 1_555 1_555
H28 C30 1_555 1_555
H29 C30 1_555 1_555
H30 C30 1_555 1_555
B5 C61 1_555 1_555
C61 C62 1_555 1_555
C62 H61 1_555 1_555
C63 C62 1_555 1_555
H62 C63 1_555 1_555
C64 C63 1_555 1_555
H63 C64 1_555 1_555
C65 C64 1_555 1_555
H64 C65 1_555 1_555
C66 C61 1_555 1_555
N5 C66 1_555 1_555
B6 N5 1_555 1_555
C67 B6 1_555 1_555
C68 C67 1_555 1_555
H65 C68 1_555 1_555
C69 C68 1_555 1_555
H66 C69 1_555 1_555
C70 C69 1_555 1_555
H67 C70 1_555 1_555
C71 C70 1_555 1_555
H68 C71 1_555 1_555
C72 C67 1_555 1_555
N6 B5 1_555 1_555
C73 B6 1_555 1_555
C74 C73 1_555 1_555
C75 C74 1_555 1_555
H69 C75 1_555 1_555
C76 C75 1_555 1_555
C77 C76 1_555 1_555
H70 C77 1_555 1_555
C78 C73 1_555 1_555
C79 C74 1_555 1_555
H71 C79 1_555 1_555
H72 C79 1_555 1_555
H73 C79 1_555 1_555
C80 C76 1_555 1_555
H74 C80 1_555 1_555
H75 C80 1_555 1_555
H76 C80 1_555 1_555
C81 C78 1_555 1_555
H77 C81 1_555 1_555
H78 C81 1_555 1_555
H79 C81 1_555 1_555
C82 B5 1_555 1_555
C83 C82 1_555 1_555
C84 C83 1_555 1_555
H80 C84 1_555 1_555
C85 C84 1_555 1_555
C86 C85 1_555 1_555
H81 C86 1_555 1_555
C87 C82 1_555 1_555
C88 C83 1_555 1_555
H82 C88 1_555 1_555
H83 C88 1_555 1_555
H84 C88 1_555 1_555
C89 C85 1_555 1_555
H85 C89 1_555 1_555
H86 C89 1_555 1_555
H87 C89 1_555 1_555
C90 C87 1_555 1_555
H88 C90 1_555 1_555
H89 C90 1_555 1_555
H90 C90 1_555 1_555
C5 C6 1_555 1_555
N1 N2 1_555 1_555
C11 C12 1_555 1_555
C12 N2 1_555 1_555
C17 C18 1_555 1_555
C26 C27 1_555 1_555
C65 C66 1_555 1_555
N5 N6 1_555 1_555
C71 C72 1_555 1_555
C72 N6 1_555 1_555
C77 C78 1_555 1_555
C86 C87 1_555 1_555

#END
