
#######################################################################
#
#                 Cambridge Crystallographic Data Centre
#                                CCDC 
#
#######################################################################
#
# If this CIF has been generated from an entry in the Cambridge 
# Structural Database, then it will include bibliographic, chemical, 
# crystal, experimental, refinement or atomic coordinate data resulting 
# from the CCDC's data processing and validation procedures.
#
#######################################################################

data_CUNWOZ
_chemical_formula_moiety         'C14 H18 N2 O5 S1'
_chemical_name_systematic        
2-methyl-1-((4-nitrophenyl)sulfonyl)-5-vinylpiperidin-4-ol
_symmetry_cell_setting           monoclinic
_symmetry_space_group_name_H-M   'P 21'
_symmetry_Int_Tables_number      4
_space_group_name_Hall           'P 2yb'
loop_
_symmetry_equiv_pos_site_id
_symmetry_equiv_pos_as_xyz
1 x,y,z
2 -x,1/2+y,-z
_cell_length_a                   8.10640(10)
_cell_length_b                   7.84280(10)
_cell_length_c                   12.2165(2)
_cell_angle_alpha                90
_cell_angle_beta                 100.670(2)
_cell_angle_gamma                90
_cell_volume                     763.258
_exptl_crystal_colour            colorless
_exptl_crystal_description       needle
_cell_formula_units_Z            2
loop_
_atom_site_label
_atom_site_type_symbol
_atom_site_fract_x
_atom_site_fract_y
_atom_site_fract_z
C1 C 0.7232(2) 0.5833(2) 0.90672(15)
H1 H 0.7803 0.5458 0.9825
C2 C 0.6023(2) 0.7278(2) 0.92142(16)
H2 H 0.5085 0.6803 0.9535
H3 H 0.6620 0.8115 0.9752
C3 C 0.5305(2) 0.8197(2) 0.81313(16)
H4 H 0.4595 0.7384 0.7616
C4 C 0.6696(2) 0.8893(2) 0.75630(15)
H5 H 0.7332 0.9795 0.8044
C5 C 0.7893(2) 0.7429(2) 0.74180(14)
H6 H 0.7295 0.6578 0.6890
H7 H 0.8848 0.7877 0.7104
C6 C 0.6368(3) 0.4279(3) 0.84602(18)
H8 H 0.5473 0.3887 0.8840
H9 H 0.7191 0.3364 0.8461
H10 H 0.5885 0.4589 0.7690
C7 C 0.6001(3) 0.9636(3) 0.64365(17)
H11 H 0.5179 0.8985 0.5958
C8 C 0.6433(3) 1.1110(3) 0.60557(16)
H12 H 0.7251 1.1803 0.6506
H13 H 0.5928 1.1480 0.5331
C9 C 1.0888(2) 0.4472(2) 0.79161(15)
C10 C 1.0603(2) 0.2798(2) 0.82153(14)
H14 H 1.0244 0.2568 0.8898
C11 C 1.0845(2) 0.1477(2) 0.75172(15)
H15 H 1.0644 0.0329 0.7704
C12 C 1.1388(2) 0.1868(3) 0.65340(15)
C13 C 1.1685(2) 0.3523(3) 0.62229(16)
H16 H 1.2059 0.3745 0.5544
C14 C 1.1423(2) 0.4849(2) 0.69236(15)
H17 H 1.1607 0.5997 0.6729
N1 N 0.85255(18) 0.66059(19) 0.84983(12)
N2 N 1.1654(2) 0.0460(2) 0.57906(13)
O1 O 0.43016(18) 0.96096(19) 0.83415(14)
O2 O 1.07914(16) 0.54605(18) 0.99309(10)
O3 O 1.14308(16) 0.75783(17) 0.85555(11)
O4 O 1.1279(2) -0.09935(18) 0.60380(12)
O5 O 1.22362(19) 0.07914(18) 0.49597(11)
S1 S 1.04849(5) 0.61321(5) 0.88187(3)
H18 H 0.344(4) 0.916(4) 0.851(3)
loop_
_geom_bond_atom_site_label_1
_geom_bond_atom_site_label_2
_geom_bond_site_symmetry_1
_geom_bond_site_symmetry_2
C1 H1 1_555 1_555
C2 C1 1_555 1_555
H2 C2 1_555 1_555
H3 C2 1_555 1_555
C3 C2 1_555 1_555
H4 C3 1_555 1_555
C4 C3 1_555 1_555
H5 C4 1_555 1_555
C5 C4 1_555 1_555
H6 C5 1_555 1_555
H7 C5 1_555 1_555
C6 C1 1_555 1_555
H8 C6 1_555 1_555
H9 C6 1_555 1_555
H10 C6 1_555 1_555
C7 C4 1_555 1_555
H11 C7 1_555 1_555
C8 C7 1_555 1_555
H12 C8 1_555 1_555
H13 C8 1_555 1_555
C9 C10 1_555 1_555
C10 H14 1_555 1_555
C11 C10 1_555 1_555
H15 C11 1_555 1_555
C12 C11 1_555 1_555
C13 C12 1_555 1_555
H16 C13 1_555 1_555
C14 C9 1_555 1_555
H17 C14 1_555 1_555
N1 C1 1_555 1_555
N2 C12 1_555 1_555
O1 C3 1_555 1_555
O2 S1 1_555 1_555
O3 S1 1_555 1_555
O4 N2 1_555 1_555
O5 N2 1_555 1_555
S1 C9 1_555 1_555
H18 O1 1_555 1_555
C5 N1 1_555 1_555
C13 C14 1_555 1_555
N1 S1 1_555 1_555

#END
