
#######################################################################
#
#                 Cambridge Crystallographic Data Centre
#                                CCDC 
#
#######################################################################
#
# If this CIF has been generated from an entry in the Cambridge 
# Structural Database, then it will include bibliographic, chemical, 
# crystal, experimental, refinement or atomic coordinate data resulting 
# from the CCDC's data processing and validation procedures.
#
#######################################################################

data_CUPZUK
_chemical_formula_moiety         'C20 H36 N4 P2'
_chemical_name_systematic        
3,3',5,5'-tetra-t-butyl-1,4'-bi-1,2,4-diazaphosphole
_symmetry_cell_setting           orthorhombic
_symmetry_space_group_name_H-M   'P n m a'
_symmetry_Int_Tables_number      62
_space_group_name_Hall           '-P 2ac 2n'
loop_
_symmetry_equiv_pos_site_id
_symmetry_equiv_pos_as_xyz
1 x,y,z
2 1/2-x,-y,1/2+z
3 1/2+x,1/2-y,1/2-z
4 -x,1/2+y,-z
5 -x,-y,-z
6 1/2+x,y,1/2-z
7 1/2-x,1/2+y,1/2+z
8 x,1/2-y,z
_cell_length_a                   9.2644(8)
_cell_length_b                   14.3849(12)
_cell_length_c                   17.7198(12)
_cell_angle_alpha                90
_cell_angle_beta                 90
_cell_angle_gamma                90
_cell_volume                     2361.47
_exptl_crystal_colour            colorless
_exptl_crystal_description       prismatic
_cell_formula_units_Z            4
loop_
_atom_site_label
_atom_site_type_symbol
_atom_site_fract_x
_atom_site_fract_y
_atom_site_fract_z
P1 P 1.08504(10) 0.2500 0.58241(5)
P2 P 0.89967(9) 0.2500 0.36135(4)
N1 N 0.9552(3) 0.2500 0.45551(14)
N2 N 0.8430(3) 0.2500 0.50650(14)
N3 N 0.6313(2) 0.19964(14) 0.34342(12)
C1 C 0.8942(3) 0.2500 0.57513(17)
C2 C 1.0919(3) 0.2500 0.48517(18)
C3 C 0.7537(2) 0.16336(16) 0.35954(12)
C4 C 0.7855(4) 0.2500 0.63952(19)
C5 C 0.6891(4) 0.1642(3) 0.6326(2)
H1 H 0.7469 0.1091 0.6370
H2 H 0.6417 0.1646 0.5844
H3 H 0.6179 0.1650 0.6720
C6 C 0.8617(6) 0.2500 0.7145(2)
C7 C 1.2303(4) 0.2500 0.4380(2)
C8 C 1.3603(4) 0.2500 0.4920(2)
H4 H 1.3558 0.1962 0.5240
H5 H 1.4481 0.2487 0.4633
C9 C 1.2414(3) 0.1627(2) 0.38864(19)
H6 H 1.2331 0.1083 0.4198
H7 H 1.3330 0.1621 0.3633
H8 H 1.1651 0.1629 0.3520
C10 C 0.7725(3) 0.05898(17) 0.36491(15)
C11 C 0.8422(15) 0.0341(14) 0.4400(8)
H9 H 0.7804 0.0535 0.4805
H10 H 0.9336 0.0652 0.4442
H11 H 0.8566 -0.0319 0.4426
C12 C 0.8826(10) 0.0280(9) 0.2991(7)
H12 H 0.9008 -0.0375 0.3027
H13 H 0.9718 0.0614 0.3046
H14 H 0.8410 0.0418 0.2508
C13 C 0.6376(14) 0.0077(10) 0.3538(6)
H15 H 0.6040 0.0170 0.3031
H16 H 0.5662 0.0300 0.3887
H17 H 0.6541 -0.0573 0.3623
N3G N 0.6313(2) 0.30036(14) 0.34342(12)
C3G C 0.7537(2) 0.33664(16) 0.35954(12)
C5G C 0.6891(4) 0.3358(3) 0.6326(2)
H1G H 0.7469 0.3909 0.6370
H2G H 0.6417 0.3354 0.5844
H3G H 0.6179 0.3350 0.6720
H4G H 1.3558 0.3038 0.5240
C9G C 1.2414(3) 0.3373(2) 0.38864(19)
H6G H 1.2331 0.3917 0.4198
H7G H 1.3330 0.3379 0.3633
H8G H 1.1651 0.3371 0.3520
C10G C 0.7725(3) 0.44102(17) 0.36491(15)
C11G C 0.8422(15) 0.4659(14) 0.4400(8)
H9G H 0.7804 0.4465 0.4805
H10G H 0.9336 0.4348 0.4442
H11G H 0.8566 0.5319 0.4426
C12G C 0.8826(10) 0.4720(9) 0.2991(7)
H12G H 0.9008 0.5375 0.3027
H13G H 0.9718 0.4386 0.3046
H14G H 0.8410 0.4582 0.2508
C13G C 0.6376(14) 0.4923(10) 0.3538(6)
H15G H 0.6040 0.4830 0.3031
H16G H 0.5662 0.4700 0.3887
H17G H 0.6541 0.5573 0.3623
C14? C 0.8884(14) 0.0344(13) 0.4223(8)
H18? H 0.8620 0.0589 0.4708
H19? H 0.9789 0.0608 0.4068
H20? H 0.8975 -0.0319 0.4256
C15? C 0.8087(11) 0.0226(10) 0.2910(8)
H21? H 0.8343 -0.0418 0.2953
H22? H 0.8887 0.0568 0.2706
H23? H 0.7270 0.0288 0.2580
C16? C 0.6238(14) 0.0158(9) 0.3916(6)
H24? H 0.5480 0.0364 0.3587
H25? H 0.6036 0.0355 0.4423
H26? H 0.6297 -0.0508 0.3900
H27? H 1.3580 0.1949 0.5225
H28? H 0.9192 0.3052 0.7190
H29? H 0.9228 0.1963 0.7179
H30? H 0.7917 0.2485 0.7544
loop_
_geom_bond_atom_site_label_1
_geom_bond_atom_site_label_2
_geom_bond_site_symmetry_1
_geom_bond_site_symmetry_2
P1 C1 1_555 1_555
P2 N1 1_555 1_555
N1 N2 1_555 1_555
N2 C1 1_555 1_555
N3 C3 1_555 1_555
C1 C4 1_555 1_555
C2 P1 1_555 1_555
C3 P2 1_555 1_555
C4 C5 1_555 1_555
C5 H1 1_555 1_555
H2 C5 1_555 1_555
H3 C5 1_555 1_555
C6 C4 1_555 1_555
C7 C2 1_555 1_555
C8 C7 1_555 1_555
H4 C8 1_555 1_555
H5 C8 1_555 1_555
C9 C7 1_555 1_555
H6 C9 1_555 1_555
H7 C9 1_555 1_555
H8 C9 1_555 1_555
C10 C3 1_555 1_555
C11 C10 1_555 1_555
H9 C11 1_555 1_555
H10 C11 1_555 1_555
H11 C11 1_555 1_555
C12 C10 1_555 1_555
H12 C12 1_555 1_555
H13 C12 1_555 1_555
H14 C12 1_555 1_555
C13 C10 1_555 1_555
H15 C13 1_555 1_555
H16 C13 1_555 1_555
H17 C13 1_555 1_555
N3G N3 1_555 1_555
C3G P2 1_555 1_555
C5G C4 1_555 1_555
H1G C5G 1_555 1_555
H2G C5G 1_555 1_555
H3G C5G 1_555 1_555
H4G C8 1_555 1_555
C9G C7 1_555 1_555
H6G C9G 1_555 1_555
H7G C9G 1_555 1_555
H8G C9G 1_555 1_555
C10G C3G 1_555 1_555
C11G C10G 1_555 1_555
H9G C11G 1_555 1_555
H10G C11G 1_555 1_555
H11G C11G 1_555 1_555
C12G C10G 1_555 1_555
H12G C12G 1_555 1_555
H13G C12G 1_555 1_555
H14G C12G 1_555 1_555
C13G C10G 1_555 1_555
H15G C13G 1_555 1_555
H16G C13G 1_555 1_555
H17G C13G 1_555 1_555
N1 C2 1_555 1_555
N3G C3G 1_555 1_555

#END
