
#######################################################################
#
#                 Cambridge Crystallographic Data Centre
#                                CCDC 
#
#######################################################################
#
# If this CIF has been generated from an entry in the Cambridge 
# Structural Database, then it will include bibliographic, chemical, 
# crystal, experimental, refinement or atomic coordinate data resulting 
# from the CCDC's data processing and validation procedures.
#
#######################################################################

data_CUQBIB
_chemical_formula_moiety         'C40 H80 N4 O6 Sr2'
_chemical_name_systematic        
bis(\m-3-(((2-(dimethylamino)ethyl)(methyl)amino)methyl)pentan-3-olato)-bis(2,6-dimethyl-5-oxohept-3-en-3-olato)-di-strontium
_symmetry_cell_setting           triclinic
_symmetry_space_group_name_H-M   'P -1'
_symmetry_Int_Tables_number      2
_space_group_name_Hall           '-P 1'
loop_
_symmetry_equiv_pos_site_id
_symmetry_equiv_pos_as_xyz
1 x,y,z
2 -x,-y,-z
_cell_length_a                   10.7509(4)
_cell_length_b                   15.1148(6)
_cell_length_c                   16.3750(7)
_cell_angle_alpha                93.525(2)
_cell_angle_beta                 105.381(2)
_cell_angle_gamma                108.420(2)
_cell_volume                     2403.25
_exptl_crystal_colour            silver
_exptl_crystal_description       Block
_cell_formula_units_Z            2
_chemical_properties_physical    
'Air-sensitive, Moisture-sensitive, Hygroscopic, Oxygen-sensitive'
_exptl_crystal_recrystallization_method hexane
loop_
_atom_site_label
_atom_site_type_symbol
_atom_site_fract_x
_atom_site_fract_y
_atom_site_fract_z
Sr1 Sr 0.37734(4) 0.92144(2) 0.04797(2)
O1 O 0.1653(3) 0.8009(2) 0.0564(2)
O2 O 0.3992(3) 0.7658(2) 0.0286(2)
O3 O 0.6197(3) 1.0173(2) 0.08222(18)
N1 N 0.5078(4) 0.9650(3) 0.2187(2)
C1 C 0.1157(4) 0.7118(3) 0.0404(3)
C2 C 0.1866(4) 0.6523(3) 0.0252(3)
H1 H 0.1394 0.5862 0.0179
C3 C 0.3207(4) 0.6815(3) 0.0198(3)
C4 C -0.0342(5) 0.6670(3) 0.0372(4)
H2 H -0.0636 0.5972 0.0191
C5 C -0.1239(6) 0.7062(5) -0.0284(4)
H3 H -0.2210 0.6716 -0.0354
H4 H -0.1059 0.6990 -0.0835
H5 H -0.1026 0.7733 -0.0083
C6 C -0.0508(6) 0.6848(6) 0.1245(5)
H6 H 0.0052 0.6574 0.1654
H7 H -0.1476 0.6557 0.1215
H8 H -0.0208 0.7530 0.1434
C7 C 0.3760(5) 0.6052(3) -0.0044(3)
H9 H 0.3333 0.5470 0.0185
C8 C 0.5310(5) 0.6361(3) 0.0330(4)
H10 H 0.5740 0.6952 0.0139
H11 H 0.5631 0.5871 0.0135
H12 H 0.5560 0.6459 0.0958
C9 C 0.3334(7) 0.5822(4) -0.1020(3)
H13 H 0.3695 0.6397 -0.1255
H14 H 0.2328 0.5575 -0.1247
H15 H 0.3703 0.5347 -0.1185
N2 N 0.2862(6) 1.0392(4) 0.1318(4)
C10 C 0.329(2) 1.1265(17) 0.1152(14)
H16 H 0.2884 1.1268 0.0541
H17 H 0.4290 1.1501 0.1298
H18 H 0.2996 1.1671 0.1495
C11 C 0.1646(11) 1.0008(10) 0.1492(10)
H19 H 0.1432 1.0507 0.1776
H20 H 0.1722 0.9537 0.1870
H21 H 0.0911 0.9704 0.0955
C12 C 0.4051(9) 1.0813(6) 0.2248(6)
H22 H 0.4881 1.1268 0.2162
H23 H 0.3715 1.1156 0.2626
C13 C 0.4386(6) 1.0126(5) 0.2632(4)
H24 H 0.3539 0.9648 0.2675
H25 H 0.4995 1.0400 0.3223
C14 C 0.4930(7) 0.8724(4) 0.2445(4)
H26 H 0.5391 0.8407 0.2148
H27 H 0.5347 0.8801 0.3066
H28 H 0.3952 0.8342 0.2293
C15 C 0.6541(5) 1.0253(3) 0.2344(3)
H29 H 0.7111 1.0096 0.2856
H30 H 0.6627 1.0922 0.2476
C16 C 0.7129(4) 1.0154(3) 0.1592(3)
C17 C 0.8478(5) 1.1015(4) 0.1768(3)
H31 H 0.9108 1.1011 0.2331
H32 H 0.8924 1.0931 0.1326
C18 C 0.8317(6) 1.1984(3) 0.1773(3)
H33 H 0.7504 1.1946 0.1306
H34 H 0.9135 1.2444 0.1694
H35 H 0.8207 1.2182 0.2323
C19 C 0.7454(5) 0.9239(4) 0.1496(3)
H36 H 0.6572 0.8703 0.1318
H37 H 0.7866 0.9252 0.1022
C20 C 0.8408(7) 0.9031(4) 0.2278(4)
H38 H 0.9308 0.9536 0.2449
H39 H 0.8516 0.8427 0.2132
H40 H 0.8010 0.8998 0.2754
Sr1A Sr 0.62266(4) 1.07856(2) -0.04797(2)
O1A O 0.8347(3) 1.1991(2) -0.0564(2)
O2A O 0.6008(3) 1.2342(2) -0.0286(2)
O3A O 0.3803(3) 0.9827(2) -0.08222(18)
N1A N 0.4922(4) 1.0350(3) -0.2187(2)
C1A C 0.8843(4) 1.2882(3) -0.0404(3)
C2A C 0.8134(4) 1.3477(3) -0.0252(3)
H1A H 0.8606 1.4138 -0.0179
C3A C 0.6793(4) 1.3185(3) -0.0198(3)
C4A C 1.0342(5) 1.3330(3) -0.0372(4)
H2A H 1.0636 1.4028 -0.0191
C5A C 1.1239(6) 1.2938(5) 0.0284(4)
H3A H 1.2210 1.3284 0.0354
H4A H 1.1059 1.3010 0.0835
H5A H 1.1026 1.2267 0.0083
C6A C 1.0508(6) 1.3152(6) -0.1245(5)
H6A H 0.9948 1.3426 -0.1654
H7A H 1.1476 1.3443 -0.1215
H8A H 1.0208 1.2470 -0.1434
C7A C 0.6240(5) 1.3948(3) 0.0044(3)
H9A H 0.6667 1.4530 -0.0185
C8A C 0.4690(5) 1.3639(3) -0.0330(4)
H10A H 0.4260 1.3048 -0.0139
H11A H 0.4369 1.4129 -0.0135
H12A H 0.4440 1.3541 -0.0958
C9A C 0.6666(7) 1.4178(4) 0.1020(3)
H13A H 0.6305 1.3603 0.1255
H14A H 0.7672 1.4425 0.1247
H15A H 0.6297 1.4653 0.1185
N2A N 0.7138(6) 0.9608(4) -0.1318(4)
C10A C 0.671(2) 0.8735(17) -0.1152(14)
H16A H 0.7116 0.8732 -0.0541
H17A H 0.5710 0.8499 -0.1298
H18A H 0.7004 0.8329 -0.1495
C11A C 0.8354(11) 0.9992(10) -0.1492(10)
H19A H 0.8568 0.9493 -0.1776
H20A H 0.8278 1.0463 -0.1870
H21A H 0.9089 1.0296 -0.0955
C12A C 0.5949(9) 0.9187(6) -0.2248(6)
H22A H 0.5119 0.8732 -0.2162
H23A H 0.6285 0.8844 -0.2626
C13A C 0.5614(6) 0.9874(5) -0.2632(4)
H24A H 0.6461 1.0352 -0.2675
H25A H 0.5005 0.9600 -0.3223
C14A C 0.5070(7) 1.1276(4) -0.2445(4)
H26A H 0.4609 1.1593 -0.2148
H27A H 0.4653 1.1199 -0.3066
H28A H 0.6048 1.1658 -0.2293
C15A C 0.3459(5) 0.9747(3) -0.2344(3)
H29A H 0.2889 0.9904 -0.2856
H30A H 0.3373 0.9078 -0.2476
C16A C 0.2871(4) 0.9846(3) -0.1592(3)
C17A C 0.1522(5) 0.8985(4) -0.1768(3)
H31A H 0.0892 0.8989 -0.2331
H32A H 0.1076 0.9069 -0.1326
C18A C 0.1683(6) 0.8016(3) -0.1773(3)
H33A H 0.2496 0.8054 -0.1306
H34A H 0.0865 0.7556 -0.1694
H35A H 0.1793 0.7818 -0.2323
C19A C 0.2546(5) 1.0761(4) -0.1496(3)
H36A H 0.3428 1.1297 -0.1318
H37A H 0.2134 1.0748 -0.1022
C20A C 0.1592(7) 1.0969(4) -0.2278(4)
H38A H 0.0692 1.0464 -0.2449
H39A H 0.1484 1.1573 -0.2132
H40A H 0.1990 1.1002 -0.2754
Sr2 Sr 0.41422(4) 0.58262(2) 0.45599(2)
O4 O 0.5945(3) 0.7384(2) 0.4991(2)
O5 O 0.3039(3) 0.7031(2) 0.4520(2)
O6 O 0.5565(3) 0.4961(2) 0.42312(18)
C24 C 0.5987(4) 0.8220(3) 0.5161(3)
C25 C 0.4847(5) 0.8503(3) 0.5071(3)
H51 H 0.5025 0.9156 0.5233
C26 C 0.3466(5) 0.7915(3) 0.4766(3)
C27 C 0.7421(5) 0.8972(3) 0.5478(3)
H52 H 0.7355 0.9549 0.5770
C28 C 0.7919(6) 0.9226(4) 0.4710(4)
H53 H 0.8809 0.9742 0.4902
H54 H 0.7250 0.9428 0.4305
H55 H 0.8020 0.8674 0.4427
C29 C 0.8423(6) 0.8645(4) 0.6112(4)
H56 H 0.8518 0.8088 0.5832
H57 H 0.8080 0.8482 0.6600
H58 H 0.9321 0.9152 0.6315
C30 C 0.2368(5) 0.8367(3) 0.4717(4)
H59 H 0.2836 0.9050 0.4969
C31 C 0.1568(6) 0.8295(4) 0.3781(4)
H60 H 0.2194 0.8638 0.3476
H61 H 0.0849 0.8572 0.3750
H62 H 0.1145 0.7630 0.3514
C32 C 0.1423(7) 0.7905(5) 0.5228(5)
H63 H 0.0930 0.7239 0.4975
H64 H 0.0761 0.8228 0.5216
H65 H 0.1968 0.7949 0.5822
N3 N 0.1557(4) 0.4729(3) 0.3593(3)
C33 C 0.0532(9) 0.4898(8) 0.4024(8)
H66 H 0.0655 0.5572 0.4093
H67 H 0.0694 0.4697 0.4589
H68 H -0.0407 0.4535 0.3668
C34 C 0.1524(11) 0.3755(7) 0.3680(7)
H69 H 0.0646 0.3305 0.3312
H70 H 0.1627 0.3664 0.4278
H71 H 0.2279 0.3650 0.3508
C35 C 0.1336(9) 0.4983(7) 0.2793(6)
H72 H 0.1272 0.5622 0.2841
H73 H 0.0435 0.4544 0.2423
C36 C 0.2427(6) 0.4992(6) 0.2339(4)
H74 H 0.2333 0.4330 0.2161
H75 H 0.2226 0.5275 0.1812
C37 C 0.4298(7) 0.6474(5) 0.2651(4)
H76 H 0.5254 0.6815 0.2992
H77 H 0.4222 0.6447 0.2039
H78 H 0.3707 0.6802 0.2787
C38 C 0.4771(5) 0.4992(3) 0.2721(3)
H79 H 0.5121 0.5210 0.2241
H80 H 0.4214 0.4312 0.2545
C39 C 0.6014(4) 0.5099(3) 0.3507(3)
C40 C 0.6643(5) 0.4353(4) 0.3326(3)
H81 H 0.6967 0.4478 0.2818
H82 H 0.7460 0.4438 0.3819
C41 C 0.5708(7) 0.3328(4) 0.3166(4)
H83 H 0.5193 0.3230 0.3584
H84 H 0.6264 0.2918 0.3225
H85 H 0.5064 0.3174 0.2585
C42 C 0.7156(5) 0.6079(3) 0.3696(3)
H86 H 0.6791 0.6551 0.3891
H87 H 0.7928 0.6073 0.4183
C43 C 0.7740(6) 0.6426(4) 0.2974(3)
H88 H 0.8102 0.5968 0.2765
H89 H 0.8481 0.7038 0.3190
H90 H 0.7011 0.6495 0.2503
N4 N 0.3863(4) 0.5507(3) 0.2851(2)
Sr2A Sr 0.58578(4) 0.41738(2) 0.54401(2)
O4A O 0.4055(3) 0.2616(2) 0.5009(2)
O5A O 0.6961(3) 0.2969(2) 0.5480(2)
O6A O 0.4435(3) 0.5039(2) 0.57688(18)
C24A C 0.4013(4) 0.1780(3) 0.4839(3)
C25A C 0.5153(5) 0.1497(3) 0.4929(3)
H51A H 0.4975 0.0844 0.4767
C26A C 0.6534(5) 0.2085(3) 0.5234(3)
C27A C 0.2579(5) 0.1028(3) 0.4522(3)
H52A H 0.2645 0.0451 0.4230
C28A C 0.2081(6) 0.0774(4) 0.5290(4)
H53A H 0.1191 0.0258 0.5098
H54A H 0.2750 0.0572 0.5695
H55A H 0.1980 0.1326 0.5573
C29A C 0.1577(6) 0.1355(4) 0.3888(4)
H56A H 0.1482 0.1912 0.4168
H57A H 0.1920 0.1518 0.3400
H58A H 0.0679 0.0848 0.3685
C30A C 0.7632(5) 0.1633(3) 0.5283(4)
H59A H 0.7164 0.0950 0.5031
C31A C 0.8432(6) 0.1705(4) 0.6219(4)
H60A H 0.7806 0.1362 0.6524
H61A H 0.9151 0.1428 0.6250
H62A H 0.8855 0.2370 0.6486
C32A C 0.8577(7) 0.2095(5) 0.4772(5)
H63A H 0.9070 0.2761 0.5025
H64A H 0.9239 0.1772 0.4784
H65A H 0.8032 0.2051 0.4178
N3A N 0.8443(4) 0.5271(3) 0.6407(3)
C33A C 0.9468(9) 0.5102(8) 0.5976(8)
H66A H 0.9345 0.4428 0.5907
H67A H 0.9306 0.5303 0.5411
H68A H 1.0407 0.5465 0.6332
C34A C 0.8476(11) 0.6245(7) 0.6320(7)
H69A H 0.9354 0.6695 0.6688
H70A H 0.8373 0.6336 0.5722
H71A H 0.7721 0.6350 0.6492
C35A C 0.8664(9) 0.5017(7) 0.7207(6)
H72A H 0.8728 0.4378 0.7159
H73A H 0.9565 0.5456 0.7577
C36A C 0.7573(6) 0.5008(6) 0.7661(4)
H74A H 0.7667 0.5670 0.7839
H75A H 0.7774 0.4725 0.8188
C37A C 0.5702(7) 0.3526(5) 0.7349(4)
H76A H 0.4746 0.3185 0.7008
H77A H 0.5778 0.3553 0.7961
H78A H 0.6293 0.3198 0.7213
C38A C 0.5229(5) 0.5008(3) 0.7279(3)
H79A H 0.4879 0.4790 0.7759
H80A H 0.5786 0.5688 0.7455
C39A C 0.3986(4) 0.4901(3) 0.6493(3)
C40A C 0.3357(5) 0.5647(4) 0.6674(3)
H81A H 0.3033 0.5522 0.7182
H82A H 0.2540 0.5562 0.6181
C41A C 0.4292(7) 0.6672(4) 0.6834(4)
H83A H 0.4807 0.6770 0.6416
H84A H 0.3736 0.7082 0.6775
H85A H 0.4936 0.6826 0.7415
C42A C 0.2844(5) 0.3921(3) 0.6304(3)
H86A H 0.3209 0.3449 0.6109
H87A H 0.2072 0.3927 0.5817
C43A C 0.2260(6) 0.3574(4) 0.7026(3)
H88A H 0.1898 0.4032 0.7235
H89A H 0.1519 0.2962 0.6810
H90A H 0.2989 0.3505 0.7497
N4A N 0.6137(4) 0.4493(3) 0.7149(2)
C21? C 0.303(5) 1.133(3) 0.091(2)
H41? H 0.2979 1.1816 0.1304
H42? H 0.2299 1.1199 0.0366
H43? H 0.3927 1.1541 0.0801
C22? C 0.1187(12) 1.0036(9) 0.0770(9)
H44? H 0.0793 0.9345 0.0697
H45? H 0.1078 1.0237 0.0206
H46? H 0.0711 1.0316 0.1087
C23? C 0.2846(14) 1.0042(10) 0.2074(8)
H47? H 0.2238 0.9372 0.1945
H48? H 0.2472 1.0399 0.2413
H49? H 0.4958 1.0803 0.2803
H50? H 0.4333 0.9856 0.3163
C44? C 0.0540(12) 0.5228(10) 0.3351(9)
H91? H -0.0285 0.4811 0.2907
H92? H 0.0950 0.5803 0.3130
H93? H 0.0290 0.5397 0.3857
C45? C 0.0994(19) 0.3903(11) 0.3914(10)
H94? H 0.0804 0.4071 0.4445
H95? H 0.1648 0.3566 0.4034
H96? H 0.0137 0.3498 0.3489
C46? C 0.1688(10) 0.4389(8) 0.2684(7)
H97? H 0.2054 0.3865 0.2751
H98? H 0.0749 0.4125 0.2276
H99? H 0.1976 0.5462 0.2181
H100? H 0.2432 0.4661 0.1800
loop_
_geom_bond_atom_site_label_1
_geom_bond_atom_site_label_2
_geom_bond_site_symmetry_1
_geom_bond_site_symmetry_2
Sr1 O1 1_555 1_555
O1 C1 1_555 1_555
O2 Sr1 1_555 1_555
O3 Sr1 1_555 1_555
N1 Sr1 1_555 1_555
C1 C2 1_555 1_555
C2 H1 1_555 1_555
C3 O2 1_555 1_555
C4 C1 1_555 1_555
H2 C4 1_555 1_555
C5 C4 1_555 1_555
H3 C5 1_555 1_555
H4 C5 1_555 1_555
H5 C5 1_555 1_555
C6 C4 1_555 1_555
H6 C6 1_555 1_555
H7 C6 1_555 1_555
H8 C6 1_555 1_555
C7 C3 1_555 1_555
H9 C7 1_555 1_555
C8 C7 1_555 1_555
H10 C8 1_555 1_555
H11 C8 1_555 1_555
H12 C8 1_555 1_555
C9 C7 1_555 1_555
H13 C9 1_555 1_555
H14 C9 1_555 1_555
H15 C9 1_555 1_555
N2 Sr1 1_555 1_555
C10 N2 1_555 1_555
H16 C10 1_555 1_555
H17 C10 1_555 1_555
H18 C10 1_555 1_555
C11 N2 1_555 1_555
H19 C11 1_555 1_555
H20 C11 1_555 1_555
H21 C11 1_555 1_555
C12 N2 1_555 1_555
H22 C12 1_555 1_555
H23 C12 1_555 1_555
C13 N1 1_555 1_555
H24 C13 1_555 1_555
H25 C13 1_555 1_555
C14 N1 1_555 1_555
H26 C14 1_555 1_555
H27 C14 1_555 1_555
H28 C14 1_555 1_555
C15 N1 1_555 1_555
H29 C15 1_555 1_555
H30 C15 1_555 1_555
C16 O3 1_555 1_555
C17 C16 1_555 1_555
H31 C17 1_555 1_555
H32 C17 1_555 1_555
C18 C17 1_555 1_555
H33 C18 1_555 1_555
H34 C18 1_555 1_555
H35 C18 1_555 1_555
C19 C16 1_555 1_555
H36 C19 1_555 1_555
H37 C19 1_555 1_555
C20 C19 1_555 1_555
H38 C20 1_555 1_555
H39 C20 1_555 1_555
H40 C20 1_555 1_555
Sr2 O4 1_555 1_555
O4 C24 1_555 1_555
O5 Sr2 1_555 1_555
O6 Sr2 1_555 1_555
C24 C25 1_555 1_555
C25 H51 1_555 1_555
C26 O5 1_555 1_555
C27 C24 1_555 1_555
H52 C27 1_555 1_555
C28 C27 1_555 1_555
H53 C28 1_555 1_555
H54 C28 1_555 1_555
H55 C28 1_555 1_555
C29 C27 1_555 1_555
H56 C29 1_555 1_555
H57 C29 1_555 1_555
H58 C29 1_555 1_555
C30 C26 1_555 1_555
H59 C30 1_555 1_555
C31 C30 1_555 1_555
H60 C31 1_555 1_555
H61 C31 1_555 1_555
H62 C31 1_555 1_555
C32 C30 1_555 1_555
H63 C32 1_555 1_555
H64 C32 1_555 1_555
H65 C32 1_555 1_555
N3 Sr2 1_555 1_555
C33 N3 1_555 1_555
H66 C33 1_555 1_555
H67 C33 1_555 1_555
H68 C33 1_555 1_555
C34 N3 1_555 1_555
H69 C34 1_555 1_555
H70 C34 1_555 1_555
H71 C34 1_555 1_555
C35 N3 1_555 1_555
H72 C35 1_555 1_555
H73 C35 1_555 1_555
C36 C35 1_555 1_555
H74 C36 1_555 1_555
H75 C36 1_555 1_555
C37 H76 1_555 1_555
H77 C37 1_555 1_555
H78 C37 1_555 1_555
C38 H79 1_555 1_555
H80 C38 1_555 1_555
C39 O6 1_555 1_555
C40 C39 1_555 1_555
H81 C40 1_555 1_555
H82 C40 1_555 1_555
C41 C40 1_555 1_555
H83 C41 1_555 1_555
H84 C41 1_555 1_555
H85 C41 1_555 1_555
C42 C39 1_555 1_555
H86 C42 1_555 1_555
H87 C42 1_555 1_555
C43 C42 1_555 1_555
H88 C43 1_555 1_555
H89 C43 1_555 1_555
H90 C43 1_555 1_555
N4 Sr2 1_555 1_555
Sr1A O3 1_555 1_555
O1A Sr1A 1_555 1_555
O2A Sr1A 1_555 1_555
O3A Sr1 1_555 1_555
N1A Sr1A 1_555 1_555
C1A O1A 1_555 1_555
C2A C1A 1_555 1_555
H1A C2A 1_555 1_555
C3A O2A 1_555 1_555
C4A C1A 1_555 1_555
H2A C4A 1_555 1_555
C5A C4A 1_555 1_555
H3A C5A 1_555 1_555
H4A C5A 1_555 1_555
H5A C5A 1_555 1_555
C6A C4A 1_555 1_555
H6A C6A 1_555 1_555
H7A C6A 1_555 1_555
H8A C6A 1_555 1_555
C7A C3A 1_555 1_555
H9A C7A 1_555 1_555
C8A C7A 1_555 1_555
H10A C8A 1_555 1_555
H11A C8A 1_555 1_555
H12A C8A 1_555 1_555
C9A C7A 1_555 1_555
H13A C9A 1_555 1_555
H14A C9A 1_555 1_555
H15A C9A 1_555 1_555
N2A Sr1A 1_555 1_555
C10A N2A 1_555 1_555
H16A C10A 1_555 1_555
H17A C10A 1_555 1_555
H18A C10A 1_555 1_555
C11A N2A 1_555 1_555
H19A C11A 1_555 1_555
H20A C11A 1_555 1_555
H21A C11A 1_555 1_555
C12A N2A 1_555 1_555
H22A C12A 1_555 1_555
H23A C12A 1_555 1_555
C13A N1A 1_555 1_555
H24A C13A 1_555 1_555
H25A C13A 1_555 1_555
C14A N1A 1_555 1_555
H26A C14A 1_555 1_555
H27A C14A 1_555 1_555
H28A C14A 1_555 1_555
C15A N1A 1_555 1_555
H29A C15A 1_555 1_555
H30A C15A 1_555 1_555
C16A O3A 1_555 1_555
C17A C16A 1_555 1_555
H31A C17A 1_555 1_555
H32A C17A 1_555 1_555
C18A C17A 1_555 1_555
H33A C18A 1_555 1_555
H34A C18A 1_555 1_555
H35A C18A 1_555 1_555
C19A C16A 1_555 1_555
H36A C19A 1_555 1_555
H37A C19A 1_555 1_555
C20A C19A 1_555 1_555
H38A C20A 1_555 1_555
H39A C20A 1_555 1_555
H40A C20A 1_555 1_555
Sr2A O6 1_555 1_555
O4A Sr2A 1_555 1_555
O5A Sr2A 1_555 1_555
O6A Sr2 1_555 1_555
C24A O4A 1_555 1_555
C25A C24A 1_555 1_555
H51A C25A 1_555 1_555
C26A O5A 1_555 1_555
C27A C24A 1_555 1_555
H52A C27A 1_555 1_555
C28A C27A 1_555 1_555
H53A C28A 1_555 1_555
H54A C28A 1_555 1_555
H55A C28A 1_555 1_555
C29A C27A 1_555 1_555
H56A C29A 1_555 1_555
H57A C29A 1_555 1_555
H58A C29A 1_555 1_555
C30A C26A 1_555 1_555
H59A C30A 1_555 1_555
C31A C30A 1_555 1_555
H60A C31A 1_555 1_555
H61A C31A 1_555 1_555
H62A C31A 1_555 1_555
C32A C30A 1_555 1_555
H63A C32A 1_555 1_555
H64A C32A 1_555 1_555
H65A C32A 1_555 1_555
N3A Sr2A 1_555 1_555
C33A N3A 1_555 1_555
H66A C33A 1_555 1_555
H67A C33A 1_555 1_555
H68A C33A 1_555 1_555
C34A N3A 1_555 1_555
H69A C34A 1_555 1_555
H70A C34A 1_555 1_555
H71A C34A 1_555 1_555
C35A N3A 1_555 1_555
H72A C35A 1_555 1_555
H73A C35A 1_555 1_555
C36A C35A 1_555 1_555
H74A C36A 1_555 1_555
H75A C36A 1_555 1_555
C37A H76A 1_555 1_555
H77A C37A 1_555 1_555
H78A C37A 1_555 1_555
C38A H79A 1_555 1_555
H80A C38A 1_555 1_555
C39A O6A 1_555 1_555
C40A C39A 1_555 1_555
H81A C40A 1_555 1_555
H82A C40A 1_555 1_555
C41A C40A 1_555 1_555
H83A C41A 1_555 1_555
H84A C41A 1_555 1_555
H85A C41A 1_555 1_555
C42A C39A 1_555 1_555
H86A C42A 1_555 1_555
H87A C42A 1_555 1_555
C43A C42A 1_555 1_555
H88A C43A 1_555 1_555
H89A C43A 1_555 1_555
H90A C43A 1_555 1_555
N4A Sr2A 1_555 1_555
C2 C3 1_555 1_555
C12 C13 1_555 1_555
C15 C16 1_555 1_555
C25 C26 1_555 1_555
C36 N4 1_555 1_555
C37 N4 1_555 1_555
C38 C39 1_555 1_555
C38 N4 1_555 1_555
Sr1A O3A 1_555 1_555
C2A C3A 1_555 1_555
C12A C13A 1_555 1_555
C15A C16A 1_555 1_555
Sr2A O6A 1_555 1_555
C25A C26A 1_555 1_555
C36A N4A 1_555 1_555
C37A N4A 1_555 1_555
C38A C39A 1_555 1_555
C38A N4A 1_555 1_555

#END
