
#######################################################################
#
#                 Cambridge Crystallographic Data Centre
#                                CCDC 
#
#######################################################################
#
# If this CIF has been generated from an entry in the Cambridge 
# Structural Database, then it will include bibliographic, chemical, 
# crystal, experimental, refinement or atomic coordinate data resulting 
# from the CCDC's data processing and validation procedures.
#
#######################################################################

data_CUQBAT
_chemical_formula_moiety         'C60 H117 N3 O12 Sr3'
_chemical_name_systematic        
tris(\m-1-(ethyl(2-methoxyethyl)amino)-2-methylpropan-2-olato)-(\m-2,2,6,6-tetramethyl-5-oxohept-3-en-3-olato)-bis(2,2,6,6-tetramethyl-5-oxohept-3-en-3-olato)-tri-strontium
_symmetry_cell_setting           triclinic
_symmetry_space_group_name_H-M   'P -1'
_symmetry_Int_Tables_number      2
_space_group_name_Hall           '-P 1'
loop_
_symmetry_equiv_pos_site_id
_symmetry_equiv_pos_as_xyz
1 x,y,z
2 -x,-y,-z
_cell_length_a                   14.9083(2)
_cell_length_b                   15.5225(2)
_cell_length_c                   17.1464(2)
_cell_angle_alpha                78.9340(10)
_cell_angle_beta                 85.2550(10)
_cell_angle_gamma                63.5860(10)
_cell_volume                     3487.59
_exptl_crystal_colour            silver
_exptl_crystal_description       block
_cell_formula_units_Z            2
_chemical_properties_physical    
'Air-sensitive, Moisture-sensitive, Hygroscopic, Oxygen-sensitive'
_exptl_crystal_recrystallization_method hexane
loop_
_atom_site_label
_atom_site_type_symbol
_atom_site_fract_x
_atom_site_fract_y
_atom_site_fract_z
Sr1 Sr 0.45317(2) 0.80636(2) 0.27706(2)
Sr2 Sr 0.26580(2) 0.71324(2) 0.20322(2)
Sr3 Sr 0.18613(2) 0.95093(2) 0.24324(2)
O1 O 0.58933(14) 0.79090(14) 0.18131(11)
O2 O 0.58971(14) 0.63667(14) 0.29735(12)
C1 C 0.6769(2) 0.7286(2) 0.16829(16)
C2 C 0.7206(2) 0.6319(2) 0.20759(17)
H1 H 0.7840 0.5912 0.1911
C3 C 0.6767(2) 0.5908(2) 0.27010(17)
C4 C 0.7353(2) 0.7675(2) 0.10407(17)
C5 C 0.7247(2) 0.8649(2) 0.12136(18)
H2 H 0.7555 0.8541 0.1716
H3 H 0.6550 0.9093 0.1231
H4 H 0.7571 0.8922 0.0802
C6 C 0.8464(2) 0.6984(2) 0.1001(2)
H5 H 0.8768 0.6844 0.1510
H6 H 0.8784 0.7286 0.0610
H7 H 0.8539 0.6388 0.0857
C7 C 0.6852(2) 0.7861(2) 0.02346(17)
H8 H 0.7185 0.8122 -0.0178
H9 H 0.6160 0.8319 0.0253
H10 H 0.6900 0.7257 0.0127
C8 C 0.7368(2) 0.4845(2) 0.31289(18)
C9 C 0.7809(2) 0.4912(2) 0.38761(19)
H11 H 0.7276 0.5262 0.4213
H12 H 0.8219 0.5250 0.3729
H13 H 0.8209 0.4266 0.4156
C10 C 0.8215(3) 0.4217(2) 0.2624(2)
H14 H 0.8717 0.4454 0.2541
H15 H 0.7952 0.4253 0.2120
H16 H 0.8508 0.3552 0.2894
C11 C 0.6661(2) 0.4368(2) 0.3374(2)
H17 H 0.7018 0.3740 0.3699
H18 H 0.6411 0.4288 0.2908
H19 H 0.6112 0.4774 0.3670
O3 O 0.22267(14) 0.61454(14) 0.12549(11)
O4 O 0.20101(16) 0.60380(15) 0.29191(12)
C12 C 0.1835(2) 0.5556(2) 0.13841(18)
C13 C 0.1523(2) 0.5229(2) 0.21264(18)
H20 H 0.1237 0.4802 0.2145
C14 C 0.1606(2) 0.5493(2) 0.28449(19)
C15 C 0.1736(2) 0.5169(2) 0.06401(17)
C16 C 0.2789(2) 0.4630(2) 0.03149(19)
H21 H 0.2743 0.4441 -0.0176
H22 H 0.3169 0.4058 0.0693
H23 H 0.3115 0.5052 0.0224
C17 C 0.1236(2) 0.4483(2) 0.08074(19)
H24 H 0.0576 0.4817 0.1014
H25 H 0.1626 0.3921 0.1190
H26 H 0.1191 0.4278 0.0324
C18 C 0.1122(2) 0.6048(2) 0.00169(18)
H27 H 0.1080 0.5828 -0.0459
H28 H 0.1439 0.6477 -0.0099
H29 H 0.0460 0.6391 0.0217
C19 C 0.1218(3) 0.5073(3) 0.36172(19)
C20 C 0.2133(3) 0.4339(3) 0.4117(2)
H30 H 0.2523 0.4658 0.4219
H31 H 0.2533 0.3816 0.3834
H32 H 0.1918 0.4080 0.4611
C21 C 0.0611(3) 0.4545(3) 0.3480(2)
H33 H 0.0382 0.4317 0.3981
H34 H 0.1023 0.4000 0.3225
H35 H 0.0045 0.4987 0.3148
C22 C 0.0598(4) 0.5892(3) 0.4066(3)
H36 H 0.0004 0.6340 0.3767
H37 H 0.0981 0.6228 0.4144
H38 H 0.0414 0.5628 0.4573
O5 O 0.16083(16) 1.03233(16) 0.35820(13)
O6 O 0.34029(14) 0.99343(14) 0.26810(11)
C23 C 0.1879(2) 1.0865(2) 0.38526(18)
C24 C 0.2679(2) 1.1078(2) 0.35416(18)
H39 H 0.2752 1.1560 0.3740
C25 C 0.3373(2) 1.0647(2) 0.29699(18)
C26 C 0.4132(2) 1.1064(2) 0.26692(19)
C27 C 0.4866(3) 1.0484(3) 0.2086(2)
H40 H 0.5326 1.0759 0.1912
H41 H 0.4506 1.0509 0.1636
H42 H 0.5229 0.9818 0.2340
C28 C 0.1265(2) 1.1336(2) 0.4553(2)
C29 C 0.0973(4) 1.0609(3) 0.5087(2)
H43 H 0.1559 1.0082 0.5348
H44 H 0.0669 1.0358 0.4775
H45 H 0.0505 1.0926 0.5478
C30 C 0.0282(3) 1.2196(3) 0.4197(2)
H46 H -0.0117 1.2522 0.4614
H47 H -0.0084 1.1952 0.3942
H48 H 0.0439 1.2649 0.3814
C31 C 0.1765(3) 1.1757(4) 0.4998(3)
H49 H 0.1340 1.2033 0.5424
H50 H 0.1879 1.2256 0.4641
H51 H 0.2393 1.1249 0.5211
C32 C 0.3581(3) 1.2127(2) 0.2246(2)
H52 H 0.4053 1.2395 0.2101
H53 H 0.3088 1.2503 0.2597
H54 H 0.3257 1.2148 0.1777
C33 C 0.4720(3) 1.1042(3) 0.3366(2)
H55 H 0.5063 1.0383 0.3642
H56 H 0.4268 1.1443 0.3723
H57 H 0.5201 1.1287 0.3171
O7 O 0.11107(14) 0.85870(14) 0.19858(12)
O8 O 0.10697(19) 1.12971(16) 0.15879(16)
N1 N -0.0269(2) 1.0470(2) 0.2200(2)
C34 C 0.0108(8) 0.8721(8) 0.1940(8)
C35 C -0.0591(4) 0.9621(4) 0.2326(4)
H58 H -0.0623 0.9403 0.2893
H59 H -0.1261 0.9878 0.2112
C36 C -0.0425(6) 1.0982(6) 0.1479(5)
H60 H -0.1135 1.1294 0.1358
H61 H -0.0078 1.0554 0.1098
C37 C -0.0046(6) 1.1750(5) 0.1417(5)
H62 H -0.0407 1.2184 0.1792
H63 H -0.0180 1.2137 0.0887
C38 C -0.0104(6) 0.7884(5) 0.2371(5)
H64 H 0.0265 0.7319 0.2126
H65 H -0.0808 0.8066 0.2343
H66 H 0.0095 0.7736 0.2917
C39 C -0.0106(12) 0.8871(8) 0.1049(9)
H67 H 0.0091 0.9353 0.0761
H68 H -0.0809 0.9087 0.0971
H69 H 0.0265 0.8265 0.0859
C40 C -0.0699(7) 1.0973(7) 0.2906(7)
H70 H -0.0408 1.1416 0.2925
H71 H -0.0491 1.0482 0.3384
C41 C -0.1855(8) 1.1556(8) 0.2921(9)
H72 H -0.2079 1.2019 0.2437
H73 H -0.2047 1.1895 0.3364
H74 H -0.2155 1.1114 0.2971
C42 C 0.1411(14) 1.1975(12) 0.1582(11)
H75 H 0.1292 1.2385 0.1069
H76 H 0.2116 1.1653 0.1694
H77 H 0.1066 1.2367 0.1980
O9 O 0.29957(13) 0.78362(13) 0.31921(11)
O10 O 0.57611(16) 0.83238(16) 0.36757(12)
N2 N 0.43490(17) 0.77117(17) 0.44283(14)
C43 C 0.2903(2) 0.7442(2) 0.39933(17)
C44 C 0.3299(2) 0.7867(2) 0.45472(17)
H78 H 0.2875 0.8564 0.4484
H79 H 0.3228 0.7585 0.5091
C45 C 0.4476(2) 0.8529(2) 0.46373(18)
H80 H 0.4322 0.8555 0.5195
H81 H 0.4006 0.9137 0.4331
C46 C 0.5523(2) 0.8431(2) 0.44818(17)
H82 H 0.5564 0.9007 0.4582
H83 H 0.5994 0.7866 0.4831
C47 C 0.1788(2) 0.7768(2) 0.42009(19)
H84 H 0.1454 0.8467 0.4146
H85 H 0.1727 0.7481 0.4739
H86 H 0.1487 0.7560 0.3847
C48 C 0.3435(2) 0.6325(2) 0.41058(18)
H87 H 0.3063 0.6096 0.3839
H88 H 0.3478 0.6057 0.4662
H89 H 0.4097 0.6121 0.3887
C49 C 0.5080(2) 0.6759(2) 0.48607(18)
H90 H 0.5744 0.6651 0.4664
H91 H 0.4943 0.6250 0.4728
C50 C 0.5099(3) 0.6640(2) 0.57659(19)
H92 H 0.5360 0.7052 0.5912
H93 H 0.5518 0.5972 0.5986
H94 H 0.4431 0.6823 0.5968
C51 C 0.6793(3) 0.8078(3) 0.3504(2)
H95 H 0.6929 0.8615 0.3552
H96 H 0.6938 0.7944 0.2972
H97 H 0.7206 0.7511 0.3872
O11 O 0.33156(14) 0.84549(13) 0.16542(11)
O12 O 0.43790(15) 0.56044(14) 0.20818(12)
N3 N 0.37926(18) 0.70702(17) 0.05596(14)
C52 C 0.3426(2) 0.8748(2) 0.08317(17)
C53 C 0.4129(2) 0.7848(2) 0.04701(17)
H98 H 0.4204 0.8058 -0.0092
H99 H 0.4783 0.7575 0.0716
C54 C 0.4633(2) 0.6097(2) 0.06674(19)
H100 H 0.5155 0.6103 0.0293
H101 H 0.4411 0.5638 0.0545
C55 C 0.5064(2) 0.5750(2) 0.14910(18)
H102 H 0.5665 0.5140 0.1501
H103 H 0.5256 0.6225 0.1624
C56 C 0.3915(2) 0.9448(2) 0.06981(17)
H104 H 0.3496 1.0023 0.0917
H105 H 0.3998 0.9628 0.0139
H106 H 0.4558 0.9132 0.0955
C57 C 0.2396(2) 0.9292(2) 0.04265(17)
H107 H 0.2027 0.8911 0.0570
H108 H 0.2480 0.9391 -0.0140
H109 H 0.2035 0.9912 0.0595
C58 C 0.3169(2) 0.7189(2) -0.01355(18)
H110 H 0.2889 0.6722 -0.0005
H111 H 0.2612 0.7836 -0.0195
C59 C 0.3683(3) 0.7064(3) -0.0926(2)
H112 H 0.3888 0.7574 -0.1100
H113 H 0.3228 0.7096 -0.1308
H114 H 0.4260 0.6441 -0.0875
C60 C 0.4340(2) 0.4692(2) 0.2150(2)
H115 H 0.4182 0.4620 0.1642
H116 H 0.3835 0.4670 0.2528
H117 H 0.4979 0.4170 0.2328
C61? C 0.0129(10) 0.8905(10) 0.1751(9)
C62? C -0.0484(5) 1.0015(5) 0.1576(4)
H118? H -0.0313 1.0272 0.1054
H119? H -0.1192 1.0178 0.1577
C63? C -0.0496(7) 1.1534(7) 0.1636(5)
H120? H -0.1106 1.1746 0.1338
H121? H -0.0628 1.2003 0.1982
C64? C 0.0304(7) 1.1583(8) 0.1053(6)
H122? H 0.0469 1.1131 0.0684
H123? H 0.0119 1.2238 0.0759
C65? C -0.0320(7) 0.8413(7) 0.2428(6)
H124? H -0.0004 0.7720 0.2439
H125? H -0.1027 0.8663 0.2340
H126? H -0.0211 0.8548 0.2925
C66? C 0.0066(15) 0.8521(9) 0.1001(10)
H127? H 0.0385 0.8766 0.0566
H128? H -0.0624 0.8739 0.0871
H129? H 0.0397 0.7820 0.1100
C67? C -0.0748(9) 1.0612(10) 0.2894(8)
H130? H -0.0532 1.1004 0.3138
H131? H -0.0534 0.9983 0.3241
C68? C -0.1887(10) 1.1104(10) 0.2863(11)
H132? H -0.2116 1.1757 0.2570
H133? H -0.2148 1.1125 0.3394
H134? H -0.2116 1.0740 0.2606
C69? C 0.1181(14) 1.2092(12) 0.1748(12)
H135? H 0.1180 1.2513 0.1258
H136? H 0.1802 1.1863 0.2023
H137? H 0.0636 1.2448 0.2074
loop_
_geom_bond_atom_site_label_1
_geom_bond_atom_site_label_2
_geom_bond_site_symmetry_1
_geom_bond_site_symmetry_2
Sr1 O1 1_555 1_555
Sr2 O3 1_555 1_555
Sr3 O5 1_555 1_555
O1 C1 1_555 1_555
O2 Sr1 1_555 1_555
C1 C2 1_555 1_555
C2 H1 1_555 1_555
C3 O2 1_555 1_555
C4 C1 1_555 1_555
C5 C4 1_555 1_555
H2 C5 1_555 1_555
H3 C5 1_555 1_555
H4 C5 1_555 1_555
C6 C4 1_555 1_555
H5 C6 1_555 1_555
H6 C6 1_555 1_555
H7 C6 1_555 1_555
C7 C4 1_555 1_555
H8 C7 1_555 1_555
H9 C7 1_555 1_555
H10 C7 1_555 1_555
C8 C3 1_555 1_555
C9 C8 1_555 1_555
H11 C9 1_555 1_555
H12 C9 1_555 1_555
H13 C9 1_555 1_555
C10 C8 1_555 1_555
H14 C10 1_555 1_555
H15 C10 1_555 1_555
H16 C10 1_555 1_555
C11 C8 1_555 1_555
H17 C11 1_555 1_555
H18 C11 1_555 1_555
H19 C11 1_555 1_555
O3 C12 1_555 1_555
O4 Sr2 1_555 1_555
C12 C13 1_555 1_555
C13 H20 1_555 1_555
C14 O4 1_555 1_555
C15 C12 1_555 1_555
C16 C15 1_555 1_555
H21 C16 1_555 1_555
H22 C16 1_555 1_555
H23 C16 1_555 1_555
C17 C15 1_555 1_555
H24 C17 1_555 1_555
H25 C17 1_555 1_555
H26 C17 1_555 1_555
C18 C15 1_555 1_555
H27 C18 1_555 1_555
H28 C18 1_555 1_555
H29 C18 1_555 1_555
C19 C14 1_555 1_555
C20 C19 1_555 1_555
H30 C20 1_555 1_555
H31 C20 1_555 1_555
H32 C20 1_555 1_555
C21 C19 1_555 1_555
H33 C21 1_555 1_555
H34 C21 1_555 1_555
H35 C21 1_555 1_555
C22 C19 1_555 1_555
H36 C22 1_555 1_555
H37 C22 1_555 1_555
H38 C22 1_555 1_555
O5 C23 1_555 1_555
O6 Sr1 1_555 1_555
C23 C24 1_555 1_555
C24 H39 1_555 1_555
C25 O6 1_555 1_555
C26 C25 1_555 1_555
C27 C26 1_555 1_555
H40 C27 1_555 1_555
H41 C27 1_555 1_555
H42 C27 1_555 1_555
C28 C23 1_555 1_555
C29 C28 1_555 1_555
H43 C29 1_555 1_555
H44 C29 1_555 1_555
H45 C29 1_555 1_555
C30 C28 1_555 1_555
H46 C30 1_555 1_555
H47 C30 1_555 1_555
H48 C30 1_555 1_555
C31 C28 1_555 1_555
H49 C31 1_555 1_555
H50 C31 1_555 1_555
H51 C31 1_555 1_555
C32 C26 1_555 1_555
H52 C32 1_555 1_555
H53 C32 1_555 1_555
H54 C32 1_555 1_555
C33 C26 1_555 1_555
H55 C33 1_555 1_555
H56 C33 1_555 1_555
H57 C33 1_555 1_555
O7 Sr2 1_555 1_555
O8 Sr3 1_555 1_555
N1 Sr3 1_555 1_555
C34 O7 1_555 1_555
C35 N1 1_555 1_555
H58 C35 1_555 1_555
H59 C35 1_555 1_555
C36 N1 1_555 1_555
H60 C36 1_555 1_555
H61 C36 1_555 1_555
C37 O8 1_555 1_555
H62 C37 1_555 1_555
H63 C37 1_555 1_555
C38 C34 1_555 1_555
H64 C38 1_555 1_555
H65 C38 1_555 1_555
H66 C38 1_555 1_555
C39 C34 1_555 1_555
H67 C39 1_555 1_555
H68 C39 1_555 1_555
H69 C39 1_555 1_555
C40 N1 1_555 1_555
H70 C40 1_555 1_555
H71 C40 1_555 1_555
C41 C40 1_555 1_555
H72 C41 1_555 1_555
H73 C41 1_555 1_555
H74 C41 1_555 1_555
C42 O8 1_555 1_555
H75 C42 1_555 1_555
H76 C42 1_555 1_555
H77 C42 1_555 1_555
O9 Sr1 1_555 1_555
O10 Sr1 1_555 1_555
N2 Sr1 1_555 1_555
C43 O9 1_555 1_555
C44 N2 1_555 1_555
H78 C44 1_555 1_555
H79 C44 1_555 1_555
C45 N2 1_555 1_555
H80 C45 1_555 1_555
H81 C45 1_555 1_555
C46 O10 1_555 1_555
H82 C46 1_555 1_555
H83 C46 1_555 1_555
C47 C43 1_555 1_555
H84 C47 1_555 1_555
H85 C47 1_555 1_555
H86 C47 1_555 1_555
C48 C43 1_555 1_555
H87 C48 1_555 1_555
H88 C48 1_555 1_555
H89 C48 1_555 1_555
C49 N2 1_555 1_555
H90 C49 1_555 1_555
H91 C49 1_555 1_555
C50 C49 1_555 1_555
H92 C50 1_555 1_555
H93 C50 1_555 1_555
H94 C50 1_555 1_555
C51 O10 1_555 1_555
H95 C51 1_555 1_555
H96 C51 1_555 1_555
H97 C51 1_555 1_555
O11 Sr1 1_555 1_555
O12 Sr2 1_555 1_555
N3 Sr2 1_555 1_555
C52 O11 1_555 1_555
C53 N3 1_555 1_555
H98 C53 1_555 1_555
H99 C53 1_555 1_555
C54 N3 1_555 1_555
H100 C54 1_555 1_555
H101 C54 1_555 1_555
C55 O12 1_555 1_555
H102 C55 1_555 1_555
H103 C55 1_555 1_555
C56 C52 1_555 1_555
H104 C56 1_555 1_555
H105 C56 1_555 1_555
H106 C56 1_555 1_555
C57 C52 1_555 1_555
H107 C57 1_555 1_555
H108 C57 1_555 1_555
H109 C57 1_555 1_555
C58 N3 1_555 1_555
H110 C58 1_555 1_555
H111 C58 1_555 1_555
C59 C58 1_555 1_555
H112 C59 1_555 1_555
H113 C59 1_555 1_555
H114 C59 1_555 1_555
C60 O12 1_555 1_555
H115 C60 1_555 1_555
H116 C60 1_555 1_555
H117 C60 1_555 1_555
Sr2 O9 1_555 1_555
Sr2 O11 1_555 1_555
Sr3 O6 1_555 1_555
Sr3 O7 1_555 1_555
Sr3 O9 1_555 1_555
Sr3 O11 1_555 1_555
C2 C3 1_555 1_555
C13 C14 1_555 1_555
C24 C25 1_555 1_555
C34 C35 1_555 1_555
C36 C37 1_555 1_555
C43 C44 1_555 1_555
C45 C46 1_555 1_555
C52 C53 1_555 1_555
C54 C55 1_555 1_555

#END
