
#######################################################################
#
#                 Cambridge Crystallographic Data Centre
#                                CCDC 
#
#######################################################################
#
# If this CIF has been generated from an entry in the Cambridge 
# Structural Database, then it will include bibliographic, chemical, 
# crystal, experimental, refinement or atomic coordinate data resulting 
# from the CCDC's data processing and validation procedures.
#
#######################################################################

data_CUQFIF
_chemical_formula_moiety         'C42 H84 N4 O6 Sr2'
_chemical_name_systematic        
bis(\m~2~-1-((2-(dimethylamino)ethyl)(ethyl)amino)-2-methylpropan-2-olato)-bis(2,2,6,6-tetramethyl-5-oxohept-3-en-3-olato)-di-strontium
_symmetry_cell_setting           monoclinic
_symmetry_space_group_name_H-M   'P 21/c'
_symmetry_Int_Tables_number      14
_space_group_name_Hall           '-P 2ybc'
loop_
_symmetry_equiv_pos_site_id
_symmetry_equiv_pos_as_xyz
1 x,y,z
2 -x,1/2+y,1/2-z
3 -x,-y,-z
4 x,1/2-y,1/2+z
_cell_length_a                   10.6303(2)
_cell_length_b                   22.0103(4)
_cell_length_c                   11.6362(2)
_cell_angle_alpha                90
_cell_angle_beta                 112.867(1)
_cell_angle_gamma                90
_cell_volume                     2508.62
_exptl_crystal_colour            silver
_exptl_crystal_description       Block
_cell_formula_units_Z            2
_chemical_properties_physical    
'Air-sensitive, Moisture-sensitive, Hygroscopic'
loop_
_atom_site_label
_atom_site_type_symbol
_atom_site_fract_x
_atom_site_fract_y
_atom_site_fract_z
Sr1 Sr 0.64210(2) 0.952818(10) 0.10750(2)
O1 O 0.82891(18) 0.88122(8) 0.14664(18)
O2 O 0.55925(18) 0.84963(8) 0.11155(18)
O3 O 0.43597(17) 1.00517(8) 0.09738(15)
N1 N 0.8393(2) 1.04001(10) 0.20968(19)
N2 N 0.6582(2) 0.99451(9) 0.34210(18)
C1 C 0.8447(3) 0.82425(12) 0.1532(2)
C2 C 0.7425(3) 0.78217(12) 0.1446(3)
H1 H 0.7671 0.7404 0.1537
C3 C 0.6067(3) 0.79661(11) 0.1237(2)
C4 C 0.9896(3) 0.80270(14) 0.1713(3)
C5 C 1.0143(3) 0.73523(14) 0.1931(4)
H2 H 0.9518 0.7129 0.1205
H3 H 0.9984 0.7233 0.2674
H4 H 1.1088 0.7258 0.2054
C6 C 1.0138(5) 0.8236(2) 0.0580(5)
H5 H 0.9499 0.8029 -0.0163
H6 H 1.1077 0.8140 0.0687
H7 H 0.9995 0.8676 0.0480
C7 C 1.0917(3) 0.83578(17) 0.2869(5)
H8 H 1.1849 0.8230 0.3010
H9 H 1.0719 0.8256 0.3601
H10 H 1.0833 0.8798 0.2729
C8 C 0.5062(3) 0.74522(12) 0.1205(3)
C9 C 0.5321(3) 0.68635(13) 0.0660(3)
H11 H 0.6230 0.6710 0.1179
H12 H 0.5268 0.6936 -0.0188
H13 H 0.4631 0.6563 0.0636
C10 C 0.5207(7) 0.7347(2) 0.2528(5)
H14 H 0.6145 0.7222 0.3034
H15 H 0.4573 0.7028 0.2545
H16 H 0.4998 0.7724 0.2867
C11 C 0.3613(4) 0.76527(17) 0.0354(6)
H17 H 0.2962 0.7332 0.0323
H18 H 0.3577 0.7729 -0.0488
H19 H 0.3377 0.8026 0.0685
C12 C 0.8032(3) 1.07464(12) 0.3004(2)
H20 H 0.7201 1.0988 0.2548
H21 H 0.8781 1.1034 0.3444
C13 C 0.7776(3) 1.03549(12) 0.3961(2)
H22 H 0.8599 1.0106 0.4404
H23 H 0.7633 1.0622 0.4583
C14 C 0.5311(3) 1.02974(12) 0.3157(2)
H24 H 0.5487 1.0726 0.3007
H25 H 0.5091 1.0289 0.3909
C15 C 0.4049(3) 1.00751(12) 0.2037(2)
C16 C 0.8411(4) 1.08106(14) 0.1110(3)
H26 H 0.9114 1.1122 0.1472
H27 H 0.7517 1.1006 0.0713
H28 H 0.8615 1.0578 0.0485
C17 C 0.9744(3) 1.01185(15) 0.2693(3)
H29 H 1.0433 1.0436 0.3052
H30 H 0.9957 0.9889 0.2070
H31 H 0.9744 0.9843 0.3355
C18 C 0.6720(3) 0.94529(13) 0.4336(2)
H32 H 0.5809 0.9273 0.4157
H33 H 0.7048 0.9631 0.5184
C19 C 0.7695(3) 0.89520(13) 0.4316(3)
H34 H 0.7740 0.8642 0.4936
H35 H 0.8606 0.9124 0.4515
H36 H 0.7367 0.8767 0.3485
C20 C 0.2914(3) 1.05464(13) 0.1842(2)
H37 H 0.2522 1.0485 0.2469
H38 H 0.2199 1.0498 0.1006
H39 H 0.3299 1.0957 0.1927
C21 C 0.3543(3) 0.94563(13) 0.2278(3)
H40 H 0.414(3) 0.9123(15) 0.229(3)
H41 H 0.268(3) 0.9354(14) 0.162(3)
H42 H 0.340(3) 0.9436(14) 0.310(3)
Sr1B Sr 0.35790(2) 1.047182(10) -0.10750(2)
O1B O 0.17109(18) 1.11878(8) -0.14664(18)
O2B O 0.44075(18) 1.15037(8) -0.11155(18)
O3B O 0.56403(17) 0.99483(8) -0.09738(15)
N1B N 0.1607(2) 0.95999(10) -0.20968(19)
N2B N 0.3418(2) 1.00549(9) -0.34210(18)
C1B C 0.1553(3) 1.17575(12) -0.1532(2)
C2B C 0.2575(3) 1.21783(12) -0.1446(3)
H1B H 0.2329 1.2596 -0.1537
C3B C 0.3933(3) 1.20339(11) -0.1237(2)
C4B C 0.0104(3) 1.19730(14) -0.1713(3)
C5B C -0.0143(3) 1.26477(14) -0.1931(4)
H2B H 0.0482 1.2871 -0.1205
H3B H 0.0016 1.2767 -0.2674
H4B H -0.1088 1.2742 -0.2054
C6B C -0.0138(5) 1.1764(2) -0.0580(5)
H5B H 0.0501 1.1971 0.0163
H6B H -0.1077 1.1860 -0.0687
H7B H 0.0005 1.1324 -0.0480
C7B C -0.0917(3) 1.16422(17) -0.2869(5)
H8B H -0.1849 1.1770 -0.3010
H9B H -0.0719 1.1744 -0.3601
H10B H -0.0833 1.1202 -0.2729
C8B C 0.4938(3) 1.25478(12) -0.1205(3)
C9B C 0.4679(3) 1.31365(13) -0.0660(3)
H11B H 0.3770 1.3290 -0.1179
H12B H 0.4732 1.3064 0.0188
H13B H 0.5369 1.3437 -0.0636
C10B C 0.4793(7) 1.2653(2) -0.2528(5)
H14B H 0.3855 1.2778 -0.3034
H15B H 0.5427 1.2972 -0.2545
H16B H 0.5002 1.2276 -0.2867
C11B C 0.6387(4) 1.23473(17) -0.0354(6)
H17B H 0.7038 1.2668 -0.0323
H18B H 0.6423 1.2271 0.0488
H19B H 0.6623 1.1974 -0.0685
C12B C 0.1968(3) 0.92536(12) -0.3004(2)
H20B H 0.2799 0.9012 -0.2548
H21B H 0.1219 0.8966 -0.3444
C13B C 0.2224(3) 0.96451(12) -0.3961(2)
H22B H 0.1401 0.9894 -0.4404
H23B H 0.2367 0.9378 -0.4583
C14B C 0.4689(3) 0.97026(12) -0.3157(2)
H24B H 0.4513 0.9274 -0.3007
H25B H 0.4909 0.9711 -0.3909
C15B C 0.5951(3) 0.99249(12) -0.2037(2)
C16B C 0.1589(4) 0.91894(14) -0.1110(3)
H26B H 0.0886 0.8878 -0.1472
H27B H 0.2483 0.8994 -0.0713
H28B H 0.1385 0.9422 -0.0485
C17B C 0.0256(3) 0.98815(15) -0.2693(3)
H29B H -0.0433 0.9564 -0.3052
H30B H 0.0043 1.0111 -0.2070
H31B H 0.0256 1.0157 -0.3355
C18B C 0.3280(3) 1.05471(13) -0.4336(2)
H32B H 0.4191 1.0727 -0.4157
H33B H 0.2952 1.0369 -0.5184
C19B C 0.2305(3) 1.10480(13) -0.4316(3)
H34B H 0.2260 1.1358 -0.4936
H35B H 0.1394 1.0876 -0.4515
H36B H 0.2633 1.1233 -0.3485
C20B C 0.7086(3) 0.94536(13) -0.1842(2)
H37B H 0.7478 0.9515 -0.2469
H38B H 0.7801 0.9502 -0.1006
H39B H 0.6701 0.9043 -0.1927
C21B C 0.6457(3) 1.05437(13) -0.2278(3)
H40B H 0.586(3) 1.0877(15) -0.229(3)
H41B H 0.732(3) 1.0646(14) -0.162(3)
H42B H 0.660(3) 1.0564(14) -0.310(3)
loop_
_geom_bond_atom_site_label_1
_geom_bond_atom_site_label_2
_geom_bond_site_symmetry_1
_geom_bond_site_symmetry_2
Sr1 O1 1_555 1_555
O1 C1 1_555 1_555
O2 Sr1 1_555 1_555
O3 Sr1 1_555 1_555
N1 Sr1 1_555 1_555
N2 Sr1 1_555 1_555
C1 C2 1_555 1_555
C2 H1 1_555 1_555
C3 O2 1_555 1_555
C4 C1 1_555 1_555
C5 C4 1_555 1_555
H2 C5 1_555 1_555
H3 C5 1_555 1_555
H4 C5 1_555 1_555
C6 C4 1_555 1_555
H5 C6 1_555 1_555
H6 C6 1_555 1_555
H7 C6 1_555 1_555
C7 C4 1_555 1_555
H8 C7 1_555 1_555
H9 C7 1_555 1_555
H10 C7 1_555 1_555
C8 C3 1_555 1_555
C9 C8 1_555 1_555
H11 C9 1_555 1_555
H12 C9 1_555 1_555
H13 C9 1_555 1_555
C10 C8 1_555 1_555
H14 C10 1_555 1_555
H15 C10 1_555 1_555
H16 C10 1_555 1_555
C11 C8 1_555 1_555
H17 C11 1_555 1_555
H18 C11 1_555 1_555
H19 C11 1_555 1_555
C12 N1 1_555 1_555
H20 C12 1_555 1_555
H21 C12 1_555 1_555
C13 N2 1_555 1_555
H22 C13 1_555 1_555
H23 C13 1_555 1_555
C14 N2 1_555 1_555
H24 C14 1_555 1_555
H25 C14 1_555 1_555
C15 O3 1_555 1_555
C16 N1 1_555 1_555
H26 C16 1_555 1_555
H27 C16 1_555 1_555
H28 C16 1_555 1_555
C17 N1 1_555 1_555
H29 C17 1_555 1_555
H30 C17 1_555 1_555
H31 C17 1_555 1_555
C18 N2 1_555 1_555
H32 C18 1_555 1_555
H33 C18 1_555 1_555
C19 C18 1_555 1_555
H34 C19 1_555 1_555
H35 C19 1_555 1_555
H36 C19 1_555 1_555
C20 C15 1_555 1_555
H37 C20 1_555 1_555
H38 C20 1_555 1_555
H39 C20 1_555 1_555
C21 C15 1_555 1_555
H40 C21 1_555 1_555
H41 C21 1_555 1_555
H42 C21 1_555 1_555
Sr1B O3 1_555 1_555
O1B Sr1B 1_555 1_555
O2B Sr1B 1_555 1_555
O3B Sr1 1_555 1_555
N1B Sr1B 1_555 1_555
N2B Sr1B 1_555 1_555
C1B O1B 1_555 1_555
C2B C1B 1_555 1_555
H1B C2B 1_555 1_555
C3B O2B 1_555 1_555
C4B C1B 1_555 1_555
C5B C4B 1_555 1_555
H2B C5B 1_555 1_555
H3B C5B 1_555 1_555
H4B C5B 1_555 1_555
C6B C4B 1_555 1_555
H5B C6B 1_555 1_555
H6B C6B 1_555 1_555
H7B C6B 1_555 1_555
C7B C4B 1_555 1_555
H8B C7B 1_555 1_555
H9B C7B 1_555 1_555
H10B C7B 1_555 1_555
C8B C3B 1_555 1_555
C9B C8B 1_555 1_555
H11B C9B 1_555 1_555
H12B C9B 1_555 1_555
H13B C9B 1_555 1_555
C10B C8B 1_555 1_555
H14B C10B 1_555 1_555
H15B C10B 1_555 1_555
H16B C10B 1_555 1_555
C11B C8B 1_555 1_555
H17B C11B 1_555 1_555
H18B C11B 1_555 1_555
H19B C11B 1_555 1_555
C12B N1B 1_555 1_555
H20B C12B 1_555 1_555
H21B C12B 1_555 1_555
C13B N2B 1_555 1_555
H22B C13B 1_555 1_555
H23B C13B 1_555 1_555
C14B N2B 1_555 1_555
H24B C14B 1_555 1_555
H25B C14B 1_555 1_555
C15B O3B 1_555 1_555
C16B N1B 1_555 1_555
H26B C16B 1_555 1_555
H27B C16B 1_555 1_555
H28B C16B 1_555 1_555
C17B N1B 1_555 1_555
H29B C17B 1_555 1_555
H30B C17B 1_555 1_555
H31B C17B 1_555 1_555
C18B N2B 1_555 1_555
H32B C18B 1_555 1_555
H33B C18B 1_555 1_555
C19B C18B 1_555 1_555
H34B C19B 1_555 1_555
H35B C19B 1_555 1_555
H36B C19B 1_555 1_555
C20B C15B 1_555 1_555
H37B C20B 1_555 1_555
H38B C20B 1_555 1_555
H39B C20B 1_555 1_555
C21B C15B 1_555 1_555
H40B C21B 1_555 1_555
H41B C21B 1_555 1_555
H42B C21B 1_555 1_555
C2 C3 1_555 1_555
C12 C13 1_555 1_555
C14 C15 1_555 1_555
Sr1B O3B 1_555 1_555
C2B C3B 1_555 1_555
C12B C13B 1_555 1_555
C14B C15B 1_555 1_555

#END
