
#######################################################################
#
#                 Cambridge Crystallographic Data Centre
#                                CCDC 
#
#######################################################################
#
# If this CIF has been generated from an entry in the Cambridge 
# Structural Database, then it will include bibliographic, chemical, 
# crystal, experimental, refinement or atomic coordinate data resulting 
# from the CCDC's data processing and validation procedures.
#
#######################################################################

data_CUQHON
_chemical_formula_moiety         'C35 H29 B1 N2 O1 S1'
_chemical_name_systematic        
N,N-dimethyl-4-(1,1,4-triphenyl-1H-10,1-[1,3,2]oxazaborinino[4,3-b][1,3]benzothiazol-3-yl)aniline
_symmetry_cell_setting           monoclinic
_symmetry_space_group_name_H-M   'C 2/c'
_symmetry_Int_Tables_number      15
_space_group_name_Hall           '-C 2yn'
loop_
_symmetry_equiv_pos_site_id
_symmetry_equiv_pos_as_xyz
1 x,y,z
2 -x,y,1/2-z
3 1/2+x,1/2+y,z
4 1/2-x,1/2+y,1/2-z
5 -x,-y,-z
6 x,-y,1/2+z
7 1/2-x,1/2-y,-z
8 1/2+x,1/2-y,1/2+z
_cell_length_a                   30.53(3)
_cell_length_b                   12.606(11)
_cell_length_c                   16.241(15)
_cell_angle_alpha                90
_cell_angle_beta                 111.74(2)
_cell_angle_gamma                90
_cell_volume                     5805.96
_exptl_crystal_colour            yellow
_exptl_crystal_description       block
_cell_formula_units_Z            8
loop_
_atom_site_label
_atom_site_type_symbol
_atom_site_fract_x
_atom_site_fract_y
_atom_site_fract_z
S1 S 0.21899(3) 0.20202(6) 0.34651(6)
O1 O 0.11959(6) 0.40797(14) 0.41652(12)
N1 N 0.18984(8) 0.38290(17) 0.37715(14)
N2 N -0.06098(10) 0.2169(2) 0.4552(2)
B1 B 0.15293(11) 0.4701(2) 0.3858(2)
C1 C 0.17714(10) 0.2804(2) 0.36464(18)
C2 C 0.23407(10) 0.4022(2) 0.37315(18)
C3 C 0.25598(11) 0.3107(2) 0.35791(19)
C4 C 0.30000(12) 0.3134(3) 0.3519(2)
H1 H 0.3144 0.2513 0.3437
C5 C 0.32205(12) 0.4097(3) 0.3582(2)
H2 H 0.3516 0.4134 0.3540
C6 C 0.30015(13) 0.5018(3) 0.3709(2)
H3 H 0.3152 0.5667 0.3742
C7 C 0.25653(11) 0.4991(2) 0.37866(19)
H4 H 0.2425 0.5613 0.3875
C8 C 0.13374(10) 0.2412(2) 0.36585(18)
C9 C 0.10676(10) 0.3081(2) 0.39509(17)
C10 C 0.06317(10) 0.2798(2) 0.40843(17)
C11 C 0.02606(11) 0.3517(2) 0.38536(19)
H5 H 0.0291 0.4160 0.3598
C12 C -0.01506(11) 0.3310(2) 0.39902(19)
H6 H -0.0395 0.3803 0.3810
C13 C -0.02052(11) 0.2370(2) 0.4396(2)
C14 C 0.01697(12) 0.1646(2) 0.4627(2)
H7 H 0.0144 0.1010 0.4895
C15 C 0.05747(11) 0.1846(2) 0.44708(19)
H8 H 0.0813 0.1341 0.4624
C16 C -0.09962(16) 0.2895(4) 0.4257(4)
H9 H -0.1103 0.2970 0.3625
H10 H -0.0896 0.3573 0.4532
H11 H -0.1249 0.2631 0.4416
C17 C -0.06538(15) 0.1235(3) 0.5018(3)
H12 H -0.0618 0.0617 0.4703
H13 H -0.0959 0.1224 0.5060
H14 H -0.0414 0.1237 0.5602
C18 C 0.11941(12) 0.1305(2) 0.3357(2)
C19 C 0.07733(13) 0.1110(2) 0.2668(2)
H15 H 0.0576 0.1675 0.2399
C20 C 0.06386(15) 0.0086(3) 0.2368(2)
H16 H 0.0353 -0.0036 0.1904
C21 C 0.0933(2) -0.0754(3) 0.2763(3)
H17 H 0.0846 -0.1444 0.2566
C22 C 0.13471(17) -0.0571(3) 0.3435(3)
H18 H 0.1547 -0.1137 0.3688
C23 C 0.14795(12) 0.0445(3) 0.3754(2)
H19 H 0.1760 0.0553 0.4235
C24 C 0.17981(10) 0.5517(2) 0.46444(19)
C25 C 0.18048(11) 0.6599(2) 0.4532(2)
H20 H 0.1649 0.6884 0.3970
C26 C 0.20378(12) 0.7283(2) 0.5235(2)
H21 H 0.2036 0.8009 0.5135
C27 C 0.22679(11) 0.6892(3) 0.6067(2)
H22 H 0.2422 0.7348 0.6535
C28 C 0.22698(12) 0.5830(3) 0.6205(2)
H23 H 0.2429 0.5552 0.6767
C29 C 0.20341(11) 0.5161(2) 0.5506(2)
H24 H 0.2034 0.4437 0.5617
C30 C 0.12369(10) 0.5229(2) 0.29179(18)
C31 C 0.08190(11) 0.5765(2) 0.2806(2)
H25 H 0.0719 0.5794 0.3282
C32 C 0.05462(13) 0.6255(2) 0.2020(3)
H26 H 0.0267 0.6594 0.1969
C33 C 0.06920(14) 0.6235(3) 0.1320(2)
H27 H 0.0514 0.6576 0.0794
C34 C 0.10966(14) 0.5719(3) 0.1387(2)
H28 H 0.1192 0.5700 0.0906
C35 C 0.13642(11) 0.5222(2) 0.2176(2)
H29 H 0.1639 0.4872 0.2212
loop_
_geom_bond_atom_site_label_1
_geom_bond_atom_site_label_2
_geom_bond_site_symmetry_1
_geom_bond_site_symmetry_2
S1 C1 1_555 1_555
O1 B1 1_555 1_555
N1 B1 1_555 1_555
N2 C13 1_555 1_555
B1 C24 1_555 1_555
C1 N1 1_555 1_555
C2 N1 1_555 1_555
C3 S1 1_555 1_555
C4 C3 1_555 1_555
H1 C4 1_555 1_555
C5 C4 1_555 1_555
H2 C5 1_555 1_555
C6 C5 1_555 1_555
H3 C6 1_555 1_555
C7 C2 1_555 1_555
H4 C7 1_555 1_555
C8 C1 1_555 1_555
C9 O1 1_555 1_555
C10 C9 1_555 1_555
C11 C10 1_555 1_555
H5 C11 1_555 1_555
C12 C11 1_555 1_555
H6 C12 1_555 1_555
C13 C12 1_555 1_555
C14 C13 1_555 1_555
H7 C14 1_555 1_555
C15 C10 1_555 1_555
H8 C15 1_555 1_555
C16 N2 1_555 1_555
H9 C16 1_555 1_555
H10 C16 1_555 1_555
H11 C16 1_555 1_555
C17 N2 1_555 1_555
H12 C17 1_555 1_555
H13 C17 1_555 1_555
H14 C17 1_555 1_555
C18 C8 1_555 1_555
C19 C18 1_555 1_555
H15 C19 1_555 1_555
C20 C19 1_555 1_555
H16 C20 1_555 1_555
C21 C20 1_555 1_555
H17 C21 1_555 1_555
C22 C21 1_555 1_555
H18 C22 1_555 1_555
C23 C18 1_555 1_555
H19 C23 1_555 1_555
C24 C25 1_555 1_555
C25 H20 1_555 1_555
C26 C25 1_555 1_555
H21 C26 1_555 1_555
C27 C26 1_555 1_555
H22 C27 1_555 1_555
C28 C27 1_555 1_555
H23 C28 1_555 1_555
C29 C24 1_555 1_555
H24 C29 1_555 1_555
C30 B1 1_555 1_555
C31 C30 1_555 1_555
H25 C31 1_555 1_555
C32 C31 1_555 1_555
H26 C32 1_555 1_555
C33 C32 1_555 1_555
H27 C33 1_555 1_555
C34 C33 1_555 1_555
H28 C34 1_555 1_555
C35 C30 1_555 1_555
H29 C35 1_555 1_555
C2 C3 1_555 1_555
C6 C7 1_555 1_555
C8 C9 1_555 1_555
C14 C15 1_555 1_555
C22 C23 1_555 1_555
C28 C29 1_555 1_555
C34 C35 1_555 1_555

#END
