
#######################################################################
#
#                 Cambridge Crystallographic Data Centre
#                                CCDC 
#
#######################################################################
#
# If this CIF has been generated from an entry in the Cambridge 
# Structural Database, then it will include bibliographic, chemical, 
# crystal, experimental, refinement or atomic coordinate data resulting 
# from the CCDC's data processing and validation procedures.
#
#######################################################################

data_CUQHUT
_chemical_compound_source        'Cephalotaxus sinensis'
_chemical_name_common            'cephanolide A'
_chemical_formula_moiety         'C18 H18 O4'
_chemical_name_systematic        
6-hydroxy-7,18-dimethyl-13,16-dioxahexacyclo[12.3.1.0^1,10^.0^4,9^.0^8,12^.0^11,15^]octadeca-4,6,8-trien-17-one
_symmetry_cell_setting           monoclinic
_symmetry_space_group_name_H-M   'P 21'
_symmetry_Int_Tables_number      4
_space_group_name_Hall           'P 2yb'
loop_
_symmetry_equiv_pos_site_id
_symmetry_equiv_pos_as_xyz
1 x,y,z
2 -x,1/2+y,-z
_cell_length_a                   6.61800(10)
_cell_length_b                   11.04470(10)
_cell_length_c                   9.54630(10)
_cell_angle_alpha                90
_cell_angle_beta                 97.5210(10)
_cell_angle_gamma                90
_cell_volume                     691.773
_exptl_crystal_colour            colorless
_exptl_crystal_description       block
_cell_formula_units_Z            2
loop_
_atom_site_label
_atom_site_type_symbol
_atom_site_fract_x
_atom_site_fract_y
_atom_site_fract_z
O1 O 0.92534(16) 0.53538(11) 1.02512(11)
O2 O 1.18363(16) 0.66379(11) 1.05103(11)
O3 O 0.48584(15) 0.53249(11) 0.75438(11)
O4 O 0.54226(17) 0.68632(12) 0.22325(11)
H1 H 0.4280 0.6524 0.2071
C1 C 0.8194(2) 0.44682(15) 0.78777(17)
H2 H 0.8797 0.3637 0.7931
C2 C 0.7550(2) 0.48972(15) 0.92706(17)
H3 H 0.6826 0.4236 0.9719
C3 C 0.6062(2) 0.59003(15) 0.87285(15)
H4 H 0.5186 0.6125 0.9466
C4 C 0.7306(2) 0.70067(15) 0.83391(15)
H5 H 0.6709 0.7299 0.7382
C5 C 0.9581(2) 0.66225(14) 0.82706(14)
C6 C 1.0844(2) 0.76086(15) 0.76410(16)
H6 H 1.2201 0.7652 0.8214
H7 H 1.0166 0.8399 0.7725
C7 C 1.1151(2) 0.74135(15) 0.60556(16)
H8 H 1.1322 0.8209 0.5608
H9 H 1.2408 0.6937 0.6010
C8 C 0.9361(2) 0.67595(14) 0.52490(15)
C9 C 0.8684(2) 0.57721(14) 0.59358(15)
C10 C 0.9620(2) 0.54329(14) 0.73902(15)
H10 H 1.1038 0.5118 0.7399
C11 C 0.6795(2) 0.52502(15) 0.55677(15)
C12 C 0.5587(2) 0.55765(14) 0.43089(15)
C13 C 0.6397(2) 0.64795(16) 0.35074(15)
C14 C 0.8196(2) 0.71012(16) 0.39914(16)
H11 H 0.8623 0.7759 0.3460
C15 C 0.3521(3) 0.50307(17) 0.38523(18)
H12 H 0.3226 0.4421 0.4543
H13 H 0.3509 0.4648 0.2925
H14 H 0.2482 0.5668 0.3792
C16 C 0.7161(2) 0.80308(16) 0.94022(17)
H15 H 0.5754 0.8327 0.9318
H16 H 0.8067 0.8694 0.9207
H17 H 0.7568 0.7727 1.0362
C17 C 1.0366(2) 0.62462(14) 0.97605(16)
C18 C 0.6203(2) 0.45655(15) 0.68284(16)
H18 H 0.5593 0.3756 0.6563
loop_
_geom_bond_atom_site_label_1
_geom_bond_atom_site_label_2
_geom_bond_site_symmetry_1
_geom_bond_site_symmetry_2
O1 C2 1_555 1_555
O2 C17 1_555 1_555
O3 C3 1_555 1_555
O4 H1 1_555 1_555
C1 H2 1_555 1_555
C2 C1 1_555 1_555
H3 C2 1_555 1_555
C3 C2 1_555 1_555
H4 C3 1_555 1_555
C4 C3 1_555 1_555
H5 C4 1_555 1_555
C5 C4 1_555 1_555
C6 C5 1_555 1_555
H6 C6 1_555 1_555
H7 C6 1_555 1_555
C7 C6 1_555 1_555
H8 C7 1_555 1_555
H9 C7 1_555 1_555
C8 C7 1_555 1_555
C9 C8 1_555 1_555
C10 C1 1_555 1_555
H10 C10 1_555 1_555
C11 C9 1_555 1_555
C12 C11 1_555 1_555
C13 O4 1_555 1_555
C14 C8 1_555 1_555
H11 C14 1_555 1_555
C15 C12 1_555 1_555
H12 C15 1_555 1_555
H13 C15 1_555 1_555
H14 C15 1_555 1_555
C16 C4 1_555 1_555
H15 C16 1_555 1_555
H16 C16 1_555 1_555
H17 C16 1_555 1_555
C17 O1 1_555 1_555
C18 O3 1_555 1_555
H18 C18 1_555 1_555
C1 C18 1_555 1_555
C5 C10 1_555 1_555
C5 C17 1_555 1_555
C9 C10 1_555 1_555
C11 C18 1_555 1_555
C12 C13 1_555 1_555
C13 C14 1_555 1_555

#END
