
#######################################################################
#
#                 Cambridge Crystallographic Data Centre
#                                CCDC 
#
#######################################################################
#
# If this CIF has been generated from an entry in the Cambridge 
# Structural Database, then it will include bibliographic, chemical, 
# crystal, experimental, refinement or atomic coordinate data resulting 
# from the CCDC's data processing and validation procedures.
#
#######################################################################

data_CUQHED
_chemical_formula_moiety         'C23 H19 B1 F2 N2 O1 S1'
_chemical_name_systematic        
4-(1,1-difluoro-4-phenyl-1H-10,1-[1,3,2]oxazaborinino[4,3-b][1,3]benzothiazol-3-yl)-N,N-dimethylaniline
_symmetry_cell_setting           monoclinic
_symmetry_space_group_name_H-M   'P 21/c'
_symmetry_Int_Tables_number      14
_space_group_name_Hall           '-P 2ybc'
loop_
_symmetry_equiv_pos_site_id
_symmetry_equiv_pos_as_xyz
1 x,y,z
2 -x,1/2+y,1/2-z
3 -x,-y,-z
4 x,1/2-y,1/2+z
_cell_length_a                   12.4688(11)
_cell_length_b                   11.0347(9)
_cell_length_c                   14.9694(12)
_cell_angle_alpha                90
_cell_angle_beta                 90.2580(10)
_cell_angle_gamma                90
_cell_volume                     2059.61
_exptl_crystal_colour            yellow
_exptl_crystal_description       block
_cell_formula_units_Z            4
loop_
_atom_site_label
_atom_site_type_symbol
_atom_site_fract_x
_atom_site_fract_y
_atom_site_fract_z
F1 F 0.69667(16) 0.06848(18) -0.01680(13)
F2 F 0.65679(16) 0.18939(18) 0.09976(16)
N1 N 0.7362(2) -0.0050(2) 0.12985(17)
N2 N 1.2875(3) 0.4160(3) 0.0220(2)
O1 O 0.83508(18) 0.16259(19) 0.06033(15)
S1 S 0.81951(8) -0.16766(9) 0.23039(7)
B1 B 0.7288(3) 0.1076(4) 0.0670(3)
C1 C 0.8298(3) -0.0420(3) 0.1628(2)
C2 C 0.6506(3) -0.0774(3) 0.1564(2)
C3 C 0.6818(3) -0.1727(3) 0.2120(2)
C4 C 0.6085(3) -0.2565(4) 0.2453(3)
H1 H 0.6299 -0.3196 0.2825
C5 C 0.5025(3) -0.2413(5) 0.2207(3)
H2 H 0.4514 -0.2955 0.2418
C6 C 0.4708(3) -0.1479(4) 0.1656(3)
H3 H 0.3986 -0.1402 0.1506
C7 C 0.5435(3) -0.0654(4) 0.1322(3)
H4 H 0.5214 -0.0034 0.0943
C8 C 0.9282(2) 0.0176(3) 0.1463(2)
C9 C 0.9265(3) 0.1201(3) 0.0944(2)
C10 C 1.0204(3) 0.1938(3) 0.0722(2)
C11 C 1.0110(3) 0.3185(3) 0.0638(2)
H5 H 0.9436 0.3538 0.0693
C12 C 1.0975(3) 0.3913(3) 0.0476(2)
H6 H 1.0879 0.4747 0.0435
C13 C 1.2003(3) 0.3427(3) 0.0370(2)
C14 C 1.2092(3) 0.2163(3) 0.0410(2)
H7 H 1.2754 0.1801 0.0311
C15 C 1.1220(3) 0.1452(3) 0.0590(2)
H8 H 1.1310 0.0616 0.0627
C16 C 1.2836(4) 0.5447(4) 0.0417(3)
H9 H 1.2183 0.5784 0.0181
H10 H 1.3439 0.5843 0.0149
H11 H 1.2858 0.5564 0.1053
C17 C 1.3930(3) 0.3640(4) 0.0087(3)
H12 H 1.4251 0.3464 0.0656
H13 H 1.4372 0.4205 -0.0231
H14 H 1.3866 0.2905 -0.0253
C18 C 1.0258(3) -0.0283(3) 0.1938(2)
C19 C 1.0727(3) 0.0406(3) 0.2606(2)
H15 H 1.0414 0.1137 0.2772
C20 C 1.1647(3) 0.0023(4) 0.3029(3)
H16 H 1.1963 0.0501 0.3469
C21 C 1.2096(3) -0.1059(4) 0.2801(3)
H17 H 1.2722 -0.1315 0.3085
C22 C 1.1635(3) -0.1770(3) 0.2162(3)
H18 H 1.1934 -0.2518 0.2023
C23 C 1.0716(3) -0.1375(3) 0.1717(2)
H19 H 1.0411 -0.1851 0.1270
loop_
_geom_bond_atom_site_label_1
_geom_bond_atom_site_label_2
_geom_bond_site_symmetry_1
_geom_bond_site_symmetry_2
F1 B1 1_555 1_555
F2 B1 1_555 1_555
N1 B1 1_555 1_555
N2 C13 1_555 1_555
O1 B1 1_555 1_555
S1 C1 1_555 1_555
C1 N1 1_555 1_555
C2 N1 1_555 1_555
C3 S1 1_555 1_555
C4 C3 1_555 1_555
H1 C4 1_555 1_555
C5 C4 1_555 1_555
H2 C5 1_555 1_555
C6 C5 1_555 1_555
H3 C6 1_555 1_555
C7 C2 1_555 1_555
H4 C7 1_555 1_555
C8 C1 1_555 1_555
C9 O1 1_555 1_555
C10 C9 1_555 1_555
C11 C10 1_555 1_555
H5 C11 1_555 1_555
C12 C11 1_555 1_555
H6 C12 1_555 1_555
C13 C12 1_555 1_555
C14 C13 1_555 1_555
H7 C14 1_555 1_555
C15 C10 1_555 1_555
H8 C15 1_555 1_555
C16 N2 1_555 1_555
H9 C16 1_555 1_555
H10 C16 1_555 1_555
H11 C16 1_555 1_555
C17 N2 1_555 1_555
H12 C17 1_555 1_555
H13 C17 1_555 1_555
H14 C17 1_555 1_555
C18 C8 1_555 1_555
C19 C18 1_555 1_555
H15 C19 1_555 1_555
C20 C19 1_555 1_555
H16 C20 1_555 1_555
C21 C20 1_555 1_555
H17 C21 1_555 1_555
C22 C21 1_555 1_555
H18 C22 1_555 1_555
C23 C18 1_555 1_555
H19 C23 1_555 1_555
C2 C3 1_555 1_555
C6 C7 1_555 1_555
C8 C9 1_555 1_555
C14 C15 1_555 1_555
C22 C23 1_555 1_555

#END
