
#######################################################################
#
#                 Cambridge Crystallographic Data Centre
#                                CCDC 
#
#######################################################################
#
# If this CIF has been generated from an entry in the Cambridge 
# Structural Database, then it will include bibliographic, chemical, 
# crystal, experimental, refinement or atomic coordinate data resulting 
# from the CCDC's data processing and validation procedures.
#
#######################################################################

data_CUQHAZ
_chemical_formula_moiety         'C21 H14 B1 F2 N1 O1 S1'
_chemical_name_systematic        
1,1-difluoro-3,4-diphenyl-1H-10,1-[1,3,2]oxazaborinino[4,3-b][1,3]benzothiazole
_symmetry_cell_setting           orthorhombic
_symmetry_space_group_name_H-M   'P b c a'
_symmetry_Int_Tables_number      61
_space_group_name_Hall           '-P 2ac 2ab'
loop_
_symmetry_equiv_pos_site_id
_symmetry_equiv_pos_as_xyz
1 x,y,z
2 1/2-x,-y,1/2+z
3 1/2+x,1/2-y,-z
4 -x,1/2+y,1/2-z
5 -x,-y,-z
6 1/2+x,y,1/2-z
7 1/2-x,1/2+y,z
8 x,1/2-y,1/2+z
_cell_length_a                   13.0567(5)
_cell_length_b                   16.8890(7)
_cell_length_c                   32.3602(12)
_cell_angle_alpha                90
_cell_angle_beta                 90
_cell_angle_gamma                90
_cell_volume                     7135.9
_exptl_crystal_colour            yellow
_exptl_crystal_description       block
_cell_formula_units_Z            16
loop_
_atom_site_label
_atom_site_type_symbol
_atom_site_fract_x
_atom_site_fract_y
_atom_site_fract_z
S1 S 0.46495(6) 0.32427(5) 0.29613(2)
B1 B 0.6095(3) 0.2856(2) 0.18626(10)
F1 F 0.55230(14) 0.24615(12) 0.15758(5)
F2 F 0.65352(15) 0.35153(11) 0.16892(5)
O1 O 0.68704(16) 0.23349(13) 0.20307(6)
N1 N 0.53901(17) 0.31277(13) 0.22307(7)
C1 C 0.3990(2) 0.37003(16) 0.25577(9)
C2 C 0.3089(2) 0.41386(18) 0.25727(11)
H1 H 0.2747 0.4223 0.2821
C3 C 0.2723(3) 0.44425(18) 0.22077(12)
H2 H 0.2123 0.4739 0.2209
C4 C 0.3231(3) 0.43169(18) 0.18353(11)
H3 H 0.2959 0.4526 0.1593
C5 C 0.4125(2) 0.38913(18) 0.18190(10)
H4 H 0.4465 0.3812 0.1570
C6 C 0.4507(2) 0.35825(16) 0.21857(9)
C7 C 0.5576(2) 0.29050(16) 0.26196(8)
C8 C 0.6413(2) 0.24141(16) 0.27359(8)
C9 C 0.7039(2) 0.21520(17) 0.24248(8)
C10 C 0.6553(2) 0.22080(16) 0.31793(8)
C11 C 0.6683(2) 0.27978(19) 0.34759(9)
H5 H 0.6630 0.3327 0.3400
C12 C 0.6892(3) 0.2601(2) 0.38829(10)
H6 H 0.6965 0.2999 0.4079
C13 C 0.6991(3) 0.1825(2) 0.39972(10)
H7 H 0.7166 0.1697 0.4268
C14 C 0.6831(3) 0.1236(2) 0.37127(9)
H8 H 0.6878 0.0708 0.3793
C15 C 0.6600(2) 0.14222(18) 0.33067(8)
H9 H 0.6476 0.1019 0.3118
C16 C 0.7946(2) 0.16280(16) 0.24660(8)
C17 C 0.8614(2) 0.16611(18) 0.28001(10)
H10 H 0.8489 0.2010 0.3017
C18 C 0.9468(2) 0.1171(2) 0.28094(12)
H11 H 0.9912 0.1191 0.3034
C19 C 0.9663(3) 0.0657(2) 0.24891(13)
H12 H 1.0237 0.0331 0.2499
C20 C 0.9015(3) 0.0622(2) 0.21549(11)
H13 H 0.9147 0.0274 0.1939
C21 C 0.8166(2) 0.11083(18) 0.21431(9)
H14 H 0.7733 0.1089 0.1915
S2 S 0.57303(6) 0.67288(4) 0.54110(2)
B2 B 0.3330(3) 0.5208(2) 0.54159(11)
F3 F 0.34439(16) 0.44045(10) 0.53881(7)
F4 F 0.27346(15) 0.54025(12) 0.57525(6)
O2 O 0.28654(16) 0.55019(12) 0.50377(6)
N2 N 0.43951(18) 0.56165(13) 0.54651(7)
C22 C 0.5957(2) 0.59641(17) 0.57599(8)
C23 C 0.6801(3) 0.5861(2) 0.60172(9)
H15 H 0.7333 0.6228 0.6023
C24 C 0.6820(3) 0.5200(2) 0.62618(10)
H16 H 0.7377 0.5115 0.6435
C25 C 0.6031(3) 0.4655(2) 0.62578(10)
H17 H 0.6068 0.4212 0.6428
C26 C 0.5188(3) 0.47557(19) 0.60052(10)
H18 H 0.4654 0.4391 0.6006
C27 C 0.5161(2) 0.54170(17) 0.57499(9)
C28 C 0.4602(2) 0.62864(17) 0.52610(8)
C29 C 0.3935(2) 0.66156(16) 0.49553(8)
C30 C 0.3085(2) 0.61832(17) 0.48497(8)
C31 C 0.4208(2) 0.74049(17) 0.47824(8)
C32 C 0.5088(3) 0.75082(19) 0.45499(9)
H19 H 0.5512 0.7078 0.4496
C33 C 0.5342(3) 0.8251(2) 0.43962(11)
H20 H 0.5936 0.8318 0.4242
C34 C 0.4718(4) 0.8883(2) 0.44714(12)
H21 H 0.4888 0.9378 0.4366
C35 C 0.3838(3) 0.8793(2) 0.47017(11)
H22 H 0.3417 0.9226 0.4753
C36 C 0.3583(3) 0.80586(18) 0.48551(9)
H23 H 0.2987 0.7998 0.5009
C37 C 0.2329(2) 0.63807(17) 0.45242(8)
C38 C 0.2572(2) 0.68175(18) 0.41720(8)
H24 H 0.3230 0.7017 0.4137
C39 C 0.1832(2) 0.69546(19) 0.38736(9)
H25 H 0.1995 0.7251 0.3641
C40 C 0.0859(3) 0.6656(2) 0.39184(10)
H26 H 0.0369 0.6744 0.3715
C41 C 0.0614(2) 0.6226(2) 0.42674(11)
H27 H -0.0047 0.6031 0.4301
C42 C 0.1343(2) 0.60841(18) 0.45655(9)
H28 H 0.1173 0.5786 0.4797
loop_
_geom_bond_atom_site_label_1
_geom_bond_atom_site_label_2
_geom_bond_site_symmetry_1
_geom_bond_site_symmetry_2
S1 C1 1_555 1_555
B1 F1 1_555 1_555
F2 B1 1_555 1_555
O1 B1 1_555 1_555
N1 B1 1_555 1_555
C1 C2 1_555 1_555
C2 H1 1_555 1_555
C3 C2 1_555 1_555
H2 C3 1_555 1_555
C4 C3 1_555 1_555
H3 C4 1_555 1_555
C5 C4 1_555 1_555
H4 C5 1_555 1_555
C6 N1 1_555 1_555
C7 S1 1_555 1_555
C8 C7 1_555 1_555
C9 O1 1_555 1_555
C10 C8 1_555 1_555
C11 C10 1_555 1_555
H5 C11 1_555 1_555
C12 C11 1_555 1_555
H6 C12 1_555 1_555
C13 C12 1_555 1_555
H7 C13 1_555 1_555
C14 C13 1_555 1_555
H8 C14 1_555 1_555
C15 C10 1_555 1_555
H9 C15 1_555 1_555
C16 C9 1_555 1_555
C17 C16 1_555 1_555
H10 C17 1_555 1_555
C18 C17 1_555 1_555
H11 C18 1_555 1_555
C19 C18 1_555 1_555
H12 C19 1_555 1_555
C20 C19 1_555 1_555
H13 C20 1_555 1_555
C21 C16 1_555 1_555
H14 C21 1_555 1_555
S2 C22 1_555 1_555
B2 F3 1_555 1_555
F4 B2 1_555 1_555
O2 B2 1_555 1_555
N2 B2 1_555 1_555
C22 C23 1_555 1_555
C23 H15 1_555 1_555
C24 C23 1_555 1_555
H16 C24 1_555 1_555
C25 C24 1_555 1_555
H17 C25 1_555 1_555
C26 C25 1_555 1_555
H18 C26 1_555 1_555
C27 N2 1_555 1_555
C28 S2 1_555 1_555
C29 C28 1_555 1_555
C30 O2 1_555 1_555
C31 C29 1_555 1_555
C32 C31 1_555 1_555
H19 C32 1_555 1_555
C33 C32 1_555 1_555
H20 C33 1_555 1_555
C34 C33 1_555 1_555
H21 C34 1_555 1_555
C35 C34 1_555 1_555
H22 C35 1_555 1_555
C36 C31 1_555 1_555
H23 C36 1_555 1_555
C37 C30 1_555 1_555
C38 C37 1_555 1_555
H24 C38 1_555 1_555
C39 C38 1_555 1_555
H25 C39 1_555 1_555
C40 C39 1_555 1_555
H26 C40 1_555 1_555
C41 C40 1_555 1_555
H27 C41 1_555 1_555
C42 C37 1_555 1_555
H28 C42 1_555 1_555
N1 C7 1_555 1_555
C1 C6 1_555 1_555
C5 C6 1_555 1_555
C8 C9 1_555 1_555
C14 C15 1_555 1_555
C20 C21 1_555 1_555
N2 C28 1_555 1_555
C22 C27 1_555 1_555
C26 C27 1_555 1_555
C29 C30 1_555 1_555
C35 C36 1_555 1_555
C41 C42 1_555 1_555

#END
