
#######################################################################
#
#                 Cambridge Crystallographic Data Centre
#                                CCDC 
#
#######################################################################
#
# If this CIF has been generated from an entry in the Cambridge 
# Structural Database, then it will include bibliographic, chemical, 
# crystal, experimental, refinement or atomic coordinate data resulting 
# from the CCDC's data processing and validation procedures.
#
#######################################################################

data_CUQJIJ01
_chemical_compound_source        'Cephalotaxus mannii'
_chemical_formula_moiety         'C19 H16 O4'
_chemical_name_systematic        
8,19-dimethyl-14,17-dioxahexacyclo[13.3.1.0^1,11^.0^4,10^.0^9,13^.0^12,16^]nonadeca-2,4,7,9-tetraene-6,18-dione
_chemical_properties_biological  'antitumour activity'
_symmetry_cell_setting           monoclinic
_symmetry_space_group_name_H-M   'C 2'
_symmetry_Int_Tables_number      5
_space_group_name_Hall           'C 2y'
loop_
_symmetry_equiv_pos_site_id
_symmetry_equiv_pos_as_xyz
1 x,y,z
2 -x,y,-z
3 1/2+x,1/2+y,z
4 1/2-x,1/2+y,-z
_cell_length_a                   13.4613(5)
_cell_length_b                   9.1617(4)
_cell_length_c                   23.4678(9)
_cell_angle_alpha                90
_cell_angle_beta                 93.249(2)
_cell_angle_gamma                90
_cell_volume                     2889.59
_exptl_crystal_colour            yellow
_exptl_crystal_description       plate
_cell_formula_units_Z            8
loop_
_atom_site_label
_atom_site_type_symbol
_atom_site_fract_x
_atom_site_fract_y
_atom_site_fract_z
O1 O 0.61412(16) 0.9232(3) 0.98601(8)
O2 O 0.7267(2) 1.0692(4) 1.02721(9)
O3 O 0.52141(13) 0.9225(2) 0.83798(7)
O4 O 0.90725(17) 1.0117(3) 0.68235(10)
C1 C 0.6523(2) 0.8094(4) 0.89412(12)
H1 H 0.6749 0.7087 0.9050
C2 C 0.5727(2) 0.8702(4) 0.93161(12)
H2 H 0.5205 0.7948 0.9375
C3 C 0.5307(2) 0.9918(3) 0.89313(11)
H3 H 0.4642 1.0236 0.9053
C4 C 0.6048(2) 1.1207(4) 0.89591(12)
H4 H 0.6153 1.1522 0.8559
C5 C 0.7073(2) 1.0649(4) 0.92304(12)
C6 C 0.7894(2) 1.1724(4) 0.91619(14)
H5 H 0.8056 1.2413 0.9455
C7 C 0.8405(2) 1.1716(4) 0.86846(14)
H6 H 0.8933 1.2394 0.8656
C8 C 0.8186(2) 1.0715(4) 0.82098(13)
C9 C 0.7511(2) 0.9549(3) 0.83237(12)
C10 C 0.7363(2) 0.9209(4) 0.89399(12)
H7 H 0.7987 0.8799 0.9129
C11 C 0.68206(19) 0.8876(3) 0.79746(12)
C12 C 0.6747(2) 0.8874(3) 0.73577(12)
C13 C 0.7475(2) 0.9372(4) 0.70243(12)
H8 H 0.7346 0.9214 0.6627
C14 C 0.8416(2) 1.0104(4) 0.71729(13)
C15 C 0.8568(2) 1.0957(4) 0.76949(14)
H9 H 0.8988 1.1786 0.7672
C16 C 0.5832(2) 0.8189(4) 0.70724(13)
H10 H 0.5856 0.8283 0.6657
H11 H 0.5238 0.8685 0.7199
H12 H 0.5806 0.7154 0.7175
C17 C 0.6872(2) 1.0238(4) 0.98360(12)
C18 C 0.5671(3) 1.2524(4) 0.92824(13)
H13 H 0.5048 1.2874 0.9094
H14 H 0.6170 1.3304 0.9285
H15 H 0.5554 1.2240 0.9676
C19 C 0.6032(2) 0.8201(3) 0.83342(11)
H16 H 0.5801 0.7230 0.8184
O5 O 0.79596(16) 0.8681(3) 0.49371(8)
O6 O 0.66060(17) 0.9468(3) 0.53355(9)
O7 O 0.81747(15) 0.7712(2) 0.34489(8)
O8 O 0.57963(16) 1.2462(3) 0.18385(10)
C20 C 0.8426(2) 0.9812(4) 0.40275(13)
H17 H 0.8980 1.0492 0.4148
C21 C 0.8398(2) 0.8441(4) 0.43932(12)
H18 H 0.9081 0.8018 0.4454
C22 C 0.7755(2) 0.7473(4) 0.39931(12)
H19 H 0.7829 0.6426 0.4108
C23 C 0.6662(2) 0.7959(4) 0.40202(12)
H20 H 0.6363 0.8030 0.3621
C24 C 0.6645(2) 0.9517(4) 0.42975(12)
C25 C 0.5643(2) 1.0230(4) 0.42226(13)
H21 H 0.5180 1.0128 0.4511
C26 C 0.5398(2) 1.1000(4) 0.37572(14)
H22 H 0.4772 1.1482 0.3732
C27 C 0.6053(2) 1.1144(3) 0.32759(13)
C28 C 0.7067(2) 1.0681(3) 0.34030(12)
C29 C 0.7397(2) 1.0525(4) 0.40210(12)
H23 H 0.7431 1.1498 0.4214
C30 C 0.7722(2) 1.0064(3) 0.30561(12)
C31 C 0.7664(2) 0.9979(3) 0.24389(12)
C32 C 0.6987(2) 1.0707(4) 0.20935(13)
H24 H 0.7072 1.0575 0.1698
C33 C 0.6150(2) 1.1657(3) 0.22185(14)
C34 C 0.5666(2) 1.1556(4) 0.27549(14)
H25 H 0.4982 1.1815 0.2738
C35 C 0.8442(2) 0.9071(4) 0.21720(13)
H26 H 0.8333 0.9098 0.1756
H27 H 0.8398 0.8061 0.2305
H28 H 0.9104 0.9463 0.2281
C36 C 0.7030(2) 0.9266(4) 0.49036(12)
C37 C 0.6051(3) 0.6878(4) 0.43476(14)
H29 H 0.6014 0.5946 0.4143
H30 H 0.5378 0.7266 0.4381
H31 H 0.6367 0.6729 0.4730
C38 C 0.8500(2) 0.9227(4) 0.34237(12)
H32 H 0.9184 0.9326 0.3283
loop_
_geom_bond_atom_site_label_1
_geom_bond_atom_site_label_2
_geom_bond_site_symmetry_1
_geom_bond_site_symmetry_2
O1 C2 1_555 1_555
O2 C17 1_555 1_555
O3 C3 1_555 1_555
O4 C14 1_555 1_555
C1 H1 1_555 1_555
C2 C1 1_555 1_555
H2 C2 1_555 1_555
C3 C2 1_555 1_555
H3 C3 1_555 1_555
C4 C3 1_555 1_555
H4 C4 1_555 1_555
C5 C4 1_555 1_555
C6 C5 1_555 1_555
H5 C6 1_555 1_555
C7 C6 1_555 1_555
H6 C7 1_555 1_555
C8 C7 1_555 1_555
C9 C8 1_555 1_555
C10 C1 1_555 1_555
H7 C10 1_555 1_555
C11 C9 1_555 1_555
C12 C11 1_555 1_555
C13 C12 1_555 1_555
H8 C13 1_555 1_555
C14 C13 1_555 1_555
C15 C8 1_555 1_555
H9 C15 1_555 1_555
C16 C12 1_555 1_555
H10 C16 1_555 1_555
H11 C16 1_555 1_555
H12 C16 1_555 1_555
C17 O1 1_555 1_555
C18 C4 1_555 1_555
H13 C18 1_555 1_555
H14 C18 1_555 1_555
H15 C18 1_555 1_555
C19 O3 1_555 1_555
H16 C19 1_555 1_555
O5 C21 1_555 1_555
O6 C36 1_555 1_555
O7 C22 1_555 1_555
O8 C33 1_555 1_555
C20 H17 1_555 1_555
C21 C20 1_555 1_555
H18 C21 1_555 1_555
C22 C21 1_555 1_555
H19 C22 1_555 1_555
C23 C22 1_555 1_555
H20 C23 1_555 1_555
C24 C23 1_555 1_555
C25 C24 1_555 1_555
H21 C25 1_555 1_555
C26 C25 1_555 1_555
H22 C26 1_555 1_555
C27 C26 1_555 1_555
C28 C27 1_555 1_555
C29 C20 1_555 1_555
H23 C29 1_555 1_555
C30 C28 1_555 1_555
C31 C30 1_555 1_555
C32 C31 1_555 1_555
H24 C32 1_555 1_555
C33 C32 1_555 1_555
C34 C27 1_555 1_555
H25 C34 1_555 1_555
C35 C31 1_555 1_555
H26 C35 1_555 1_555
H27 C35 1_555 1_555
H28 C35 1_555 1_555
C36 O5 1_555 1_555
C37 C23 1_555 1_555
H29 C37 1_555 1_555
H30 C37 1_555 1_555
H31 C37 1_555 1_555
C38 O7 1_555 1_555
H32 C38 1_555 1_555
C1 C19 1_555 1_555
C5 C10 1_555 1_555
C5 C17 1_555 1_555
C9 C10 1_555 1_555
C11 C19 1_555 1_555
C14 C15 1_555 1_555
C20 C38 1_555 1_555
C24 C29 1_555 1_555
C24 C36 1_555 1_555
C28 C29 1_555 1_555
C30 C38 1_555 1_555
C33 C34 1_555 1_555

#END
