
#######################################################################
#
#                 Cambridge Crystallographic Data Centre
#                                CCDC 
#
#######################################################################
#
# If this CIF has been generated from an entry in the Cambridge 
# Structural Database, then it will include bibliographic, chemical, 
# crystal, experimental, refinement or atomic coordinate data resulting 
# from the CCDC's data processing and validation procedures.
#
#######################################################################

data_CUQJAB
_chemical_formula_moiety         'C20 H26 O4,H2 O1'
_chemical_name_systematic        
'4-(hydroxymethyl)-8,16-dimethyl-14-oxapentacyclo[11.2.2.1^9,12^.0^1,11^.0^4,10^]octadec-7-ene-6,15-dione hydrate'
_symmetry_cell_setting           orthorhombic
_symmetry_space_group_name_H-M   'P 21 21 21'
_symmetry_Int_Tables_number      19
_space_group_name_Hall           'P 2ac 2ab'
loop_
_symmetry_equiv_pos_site_id
_symmetry_equiv_pos_as_xyz
1 x,y,z
2 1/2+x,1/2-y,-z
3 -x,1/2+y,1/2-z
4 1/2-x,-y,1/2+z
_cell_length_a                   7.21150(10)
_cell_length_b                   14.1460(2)
_cell_length_c                   17.0257(3)
_cell_angle_alpha                90
_cell_angle_beta                 90
_cell_angle_gamma                90
_cell_volume                     1736.86
_exptl_crystal_colour            colorless
_exptl_crystal_description       prism
_cell_formula_units_Z            4
loop_
_atom_site_label
_atom_site_type_symbol
_atom_site_fract_x
_atom_site_fract_y
_atom_site_fract_z
O1 O 0.16706(13) 0.63506(7) 0.58279(6)
O2 O 0.04532(12) 0.73672(7) 0.66701(5)
O3 O 0.53026(16) 0.67152(8) 0.94741(6)
H1 H 0.4230 0.6788 0.9657
O4 O 0.99270(17) 0.53243(8) 0.91360(6)
C1 C 0.42076(18) 0.53381(9) 0.62304(7)
H2 H 0.3393 0.4770 0.6282
C2 C 0.34677(19) 0.59568(10) 0.55661(7)
H3 H 0.3284 0.5567 0.5083
C3 C 0.4687(2) 0.67968(10) 0.53818(7)
H4 H 0.4067 0.7210 0.4993
H5 H 0.5876 0.6579 0.5155
C4 C 0.50551(19) 0.73554(9) 0.61466(7)
H6 H 0.6364 0.7235 0.6313
C5 C 0.37391(16) 0.69714(8) 0.68009(7)
C6 C 0.38363(17) 0.75316(8) 0.75625(7)
H7 H 0.2911 0.7285 0.7940
H8 H 0.3550 0.8205 0.7459
C7 C 0.57797(19) 0.74431(8) 0.79086(7)
H9 H 0.5853 0.7835 0.8389
H10 H 0.6685 0.7698 0.7526
C8 C 0.63367(16) 0.64172(8) 0.81175(7)
C9 C 0.59041(16) 0.57003(8) 0.74523(7)
H11 H 0.5666 0.5087 0.7727
C10 C 0.41008(16) 0.59134(8) 0.69977(7)
H12 H 0.3031 0.5673 0.7313
C11 C 0.73858(17) 0.54689(8) 0.68197(7)
H13 H 0.7942 0.6072 0.6624
C12 C 0.89263(17) 0.48238(8) 0.71093(8)
C13 C 0.96266(18) 0.48227(9) 0.78408(8)
H14 H 1.0436 0.4313 0.7961
C14 C 0.93130(17) 0.55002(9) 0.84788(8)
C15 C 0.84273(18) 0.64444(8) 0.83133(7)
H15 H 0.9089 0.6741 0.7868
H16 H 0.8608 0.6855 0.8778
C16 C 0.97089(19) 0.41262(9) 0.65245(8)
H17 H 1.0784 0.3806 0.6755
H18 H 1.0091 0.4463 0.6048
H19 H 0.8759 0.3657 0.6391
C17 C 0.52435(19) 0.60666(9) 0.88396(7)
H20 H 0.3935 0.5960 0.8687
H21 H 0.5763 0.5454 0.9014
C18 C 0.4818(2) 0.84202(9) 0.60235(8)
H22 H 0.5455 0.8611 0.5541
H23 H 0.5350 0.8761 0.6471
H24 H 0.3495 0.8571 0.5980
C19 C 0.18083(18) 0.69468(9) 0.64462(7)
C20 C 0.62387(19) 0.50065(10) 0.61494(8)
H25 H 0.6741 0.5198 0.5632
H26 H 0.6306 0.4309 0.6189
O5 O 0.19014(16) 0.65886(8) 1.01081(7)
H27 H 0.106(3) 0.6298(15) 0.9835(13)
H28 H 0.134(3) 0.7113(17) 1.0220(13)
loop_
_geom_bond_atom_site_label_1
_geom_bond_atom_site_label_2
_geom_bond_site_symmetry_1
_geom_bond_site_symmetry_2
O1 C2 1_555 1_555
O2 C19 1_555 1_555
O3 H1 1_555 1_555
O4 C14 1_555 1_555
C1 H2 1_555 1_555
C2 C1 1_555 1_555
H3 C2 1_555 1_555
C3 C2 1_555 1_555
H4 C3 1_555 1_555
H5 C3 1_555 1_555
C4 C3 1_555 1_555
H6 C4 1_555 1_555
C5 C4 1_555 1_555
C6 C5 1_555 1_555
H7 C6 1_555 1_555
H8 C6 1_555 1_555
C7 C6 1_555 1_555
H9 C7 1_555 1_555
H10 C7 1_555 1_555
C8 C7 1_555 1_555
C9 C8 1_555 1_555
H11 C9 1_555 1_555
C10 C1 1_555 1_555
H12 C10 1_555 1_555
C11 C9 1_555 1_555
H13 C11 1_555 1_555
C12 C11 1_555 1_555
C13 C12 1_555 1_555
H14 C13 1_555 1_555
C14 C13 1_555 1_555
C15 C8 1_555 1_555
H15 C15 1_555 1_555
H16 C15 1_555 1_555
C16 C12 1_555 1_555
H17 C16 1_555 1_555
H18 C16 1_555 1_555
H19 C16 1_555 1_555
C17 O3 1_555 1_555
H20 C17 1_555 1_555
H21 C17 1_555 1_555
C18 C4 1_555 1_555
H22 C18 1_555 1_555
H23 C18 1_555 1_555
H24 C18 1_555 1_555
C19 O1 1_555 1_555
C20 C1 1_555 1_555
H25 C20 1_555 1_555
H26 C20 1_555 1_555
O5 H27 1_555 1_555
H28 O5 1_555 1_555
C5 C10 1_555 1_555
C5 C19 1_555 1_555
C8 C17 1_555 1_555
C9 C10 1_555 1_555
C11 C20 1_555 1_555
C14 C15 1_555 1_555

#END
