
#######################################################################
#
#                 Cambridge Crystallographic Data Centre
#                                CCDC 
#
#######################################################################
#
# If this CIF has been generated from an entry in the Cambridge 
# Structural Database, then it will include bibliographic, chemical, 
# crystal, experimental, refinement or atomic coordinate data resulting 
# from the CCDC's data processing and validation procedures.
#
#######################################################################

data_CUQSOW
_chemical_formula_moiety         'C25 H32 N2 O1'
_chemical_name_systematic        
3,7-Di-isopropyl-1,5-diphenyl-3,7-diazabicyclo(3.3.1)nonane-9-one
_symmetry_cell_setting           monoclinic
_symmetry_space_group_name_H-M   'P 21/c'
_symmetry_Int_Tables_number      14
_space_group_name_Hall           '-P 2ybc'
loop_
_symmetry_equiv_pos_site_id
_symmetry_equiv_pos_as_xyz
1 x,y,z
2 x,1/2-y,1/2+z
3 -x,-y,-z
4 -x,1/2+y,1/2-z
_cell_length_a                   11.9515(2)
_cell_length_b                   18.0538(4)
_cell_length_c                   19.5949(1)
_cell_angle_alpha                90
_cell_angle_beta                 91.678(1)
_cell_angle_gamma                90
_cell_volume                     4226.18
_exptl_crystal_colour            colorless
_exptl_crystal_description       block
_cell_formula_units_Z            8
loop_
_atom_site_label
_atom_site_type_symbol
_atom_site_fract_x
_atom_site_fract_y
_atom_site_fract_z
O1 O 0.5352(3) 0.7283(2) 0.1444(2)
N1 N 0.5055(3) 0.5510(2) 0.2140(2)
N2 N 0.2966(3) 0.5936(2) 0.0902(2)
C1 C 0.4831(4) 0.6708(3) 0.1460(2)
C2 C 0.3949(4) 0.5817(3) 0.2275(2)
C3 C 0.3799(4) 0.6579(2) 0.1898(2)
C4 C 0.2806(4) 0.6552(3) 0.1375(3)
C5 C 0.3966(4) 0.6039(3) 0.0502(2)
C6 C 0.5031(4) 0.6055(2) 0.0975(2)
C7 C 0.5131(5) 0.5329(3) 0.1418(3)
C8 C 0.5388(4) 0.4885(3) 0.2596(3)
C9 C 0.1968(4) 0.5742(3) 0.0469(3)
C10 C 0.5767(5) 0.5180(3) 0.3293(3)
C11 C 0.4493(5) 0.4280(3) 0.2652(3)
C12 C 0.1491(5) 0.6390(3) 0.0039(3)
C13 C 0.1062(5) 0.5411(3) 0.0908(3)
C14 C 0.3715(4) 0.7196(3) 0.2435(2)
C15 C 0.4586(4) 0.7275(3) 0.2915(2)
C16 C 0.4554(4) 0.7801(3) 0.3430(3)
C17 C 0.3635(4) 0.8270(3) 0.3462(3)
C18 C 0.2764(5) 0.8203(3) 0.2988(3)
C19 C 0.2797(4) 0.7662(3) 0.2479(2)
C20 C 0.6097(4) 0.6160(2) 0.0570(2)
C21 C 0.7113(4) 0.6246(3) 0.0933(3)
C22 C 0.8114(5) 0.6341(3) 0.0593(3)
C23 C 0.8111(4) 0.6352(3) -0.0116(3)
C24 C 0.7112(4) 0.6257(3) -0.0480(3)
C25 C 0.6129(4) 0.6167(3) -0.0132(3)
H1 H 0.3304(39) 0.5430(25) 0.2108(21)
H2 H 0.3886(39) 0.5886(25) 0.2807(24)
H3 H 0.2797(40) 0.7039(28) 0.1174(23)
H4 H 0.2132(37) 0.6476(22) 0.1617(20)
H5 H 0.4063(34) 0.5611(24) 0.0197(21)
H6 H 0.3931(36) 0.6507(26) 0.0244(21)
H7 H 0.5875(38) 0.5108(23) 0.1327(20)
H8 H 0.4556(40) 0.5014(25) 0.1264(22)
H9 H 0.6071(36) 0.4664(22) 0.2386(19)
H10 H 0.2246(40) 0.5335(27) 0.0132(23)
H11 H 0.6378(55) 0.5538(36) 0.3277(29)
H12 H 0.5165(43) 0.5397(26) 0.3494(22)
H13 H 0.6016(41) 0.4764(28) 0.3637(24)
H14 H 0.3847(49) 0.4447(30) 0.2941(26)
H15 H 0.4808(39) 0.3882(26) 0.2918(22)
H16 H 0.4217(43) 0.4104(27) 0.2189(27)
H17 H 0.1175(47) 0.6773(31) 0.0304(27)
H18 H 0.0945(46) 0.6201(28) -0.0342(26)
H19 H 0.2149(46) 0.6626(29) -0.0275(25)
H20 H 0.1363(42) 0.5013(28) 0.1191(24)
H21 H 0.0725(49) 0.5775(33) 0.1245(28)
H22 H 0.0498(37) 0.5201(23) 0.0593(21)
H23 H 0.5301(41) 0.6949(25) 0.2891(21)
H24 H 0.5168(48) 0.7861(29) 0.3799(26)
H25 H 0.3612(33) 0.8594(22) 0.3848(20)
H26 H 0.2087(45) 0.8526(29) 0.3047(24)
H27 H 0.2252(42) 0.7609(26) 0.2168(23)
H28 H 0.7137(33) 0.6257(21) 0.1478(20)
H29 H 0.8660(46) 0.6445(28) 0.0848(25)
H30 H 0.8794(42) 0.6395(25) -0.0402(23)
H31 H 0.7112(31) 0.6223(20) -0.0981(20)
H32 H 0.5452(41) 0.6136(25) -0.0376(22)
O2 O -0.0448(3) 0.2722(2) 0.3566(2)
N3 N -0.0124(3) 0.4631(2) 0.3259(2)
N4 N 0.1856(3) 0.3903(2) 0.4426(2)
C26 C 0.0051(4) 0.3302(3) 0.3673(2)
C27 C -0.0238(4) 0.4634(2) 0.3996(2)
C28 C -0.0207(4) 0.3819(2) 0.4270(2)
C29 C 0.0832(4) 0.3696(3) 0.4761(3)
C30 C 0.2066(4) 0.3431(3) 0.3841(2)
C31 C 0.1102(4) 0.3527(3) 0.3297(2)
C32 C 0.0983(4) 0.4349(3) 0.3082(3)
C33 C -0.0436(4) 0.5349(3) 0.2928(3)
C34 C 0.2823(4) 0.3984(3) 0.4913(3)
C35 C -0.0994(5) 0.5197(3) 0.2241(3)
C36 C 0.0540(5) 0.5897(3) 0.2861(3)
C37 C 0.3673(5) 0.4517(3) 0.4634(3)
C38 C 0.3383(5) 0.3249(3) 0.5120(3)
C39 C -0.1308(4) 0.3617(2) 0.4599(2)
C40 C -0.2286(4) 0.3624(3) 0.4193(3)
C41 C -0.3310(4) 0.3450(3) 0.4468(3)
C42 C -0.3380(5) 0.3276(3) 0.5153(3)
C43 C -0.2422(5) 0.3280(3) 0.5570(3)
C44 C -0.1387(4) 0.3453(3) 0.5285(2)
C45 C 0.1246(4) 0.3038(2) 0.2671(2)
C46 C 0.0429(4) 0.3073(3) 0.2141(3)
C47 C 0.0498(5) 0.2664(3) 0.1557(3)
C48 C 0.1405(4) 0.2189(3) 0.1486(3)
C49 C 0.2223(5) 0.2149(3) 0.1992(3)
C50 C 0.2159(4) 0.2570(3) 0.2584(3)
H33 H -0.0969(39) 0.4861(24) 0.4113(21)
H34 H 0.0468(40) 0.4958(25) 0.4254(21)
H35 H 0.0877(41) 0.3166(29) 0.4956(23)
H36 H 0.0751(42) 0.4001(28) 0.5226(25)
H37 H 0.2839(38) 0.3611(23) 0.3633(21)
H38 H 0.2104(32) 0.2840(22) 0.3972(18)
H39 H 0.1109(34) 0.4395(22) 0.2587(21)
H40 H 0.1602(39) 0.4691(25) 0.3332(22)
H41 H -0.1086(49) 0.5544(30) 0.3229(26)
H42 H 0.2456(36) 0.4206(23) 0.5358(21)
H43 H -0.1179(51) 0.5723(36) 0.2010(29)
H44 H -0.0367(42) 0.4969(26) 0.1940(23)
H45 H -0.1712(42) 0.4933(25) 0.2299(22)
H46 H 0.0142(55) 0.6356(36) 0.2716(30)
H47 H 0.0892(42) 0.5962(26) 0.3331(26)
H48 H 0.1065(42) 0.5730(27) 0.2490(24)
H49 H 0.4239(54) 0.4608(33) 0.5041(30)
H50 H 0.3945(44) 0.4290(29) 0.4119(27)
H51 H 0.3297(49) 0.4948(34) 0.4520(27)
H52 H 0.2798(56) 0.2842(36) 0.5281(29)
H53 H 0.3913(49) 0.3354(30) 0.5524(27)
H54 H 0.3767(41) 0.3048(25) 0.4717(24)
H55 H -0.2219(40) 0.3720(26) 0.3704(24)
H56 H -0.3977(41) 0.3446(25) 0.4165(22)
H57 H -0.4096(47) 0.3171(28) 0.5389(25)
H58 H -0.2406(39) 0.3154(25) 0.6076(24)
H59 H -0.0738(39) 0.3468(24) 0.5619(22)
H60 H -0.0223(44) 0.3427(28) 0.2239(24)
H61 H -0.0079(51) 0.2734(31) 0.1142(28)
H62 H 0.1508(42) 0.1939(27) 0.1032(25)
H63 H 0.2776(54) 0.1815(34) 0.1935(29)
H64 H 0.2687(55) 0.2536(34) 0.2976(30)
loop_
_geom_bond_atom_site_label_1
_geom_bond_atom_site_label_2
_geom_bond_site_symmetry_1
_geom_bond_site_symmetry_2
O1 C1 1_555 1_555
N1 C2 1_555 1_555
N2 C4 1_555 1_555
C1 C3 1_555 1_555
C2 C3 1_555 1_555
C3 C4 1_555 1_555
C4 H3 1_555 1_555
C5 N2 1_555 1_555
C6 C1 1_555 1_555
C7 N1 1_555 1_555
C8 N1 1_555 1_555
C9 N2 1_555 1_555
C10 C8 1_555 1_555
C11 C8 1_555 1_555
C12 C9 1_555 1_555
C13 C9 1_555 1_555
C14 C3 1_555 1_555
C15 C14 1_555 1_555
C16 C15 1_555 1_555
C17 C16 1_555 1_555
C18 C17 1_555 1_555
C19 C14 1_555 1_555
C20 C6 1_555 1_555
C21 C20 1_555 1_555
C22 C21 1_555 1_555
C23 C22 1_555 1_555
C24 C23 1_555 1_555
C25 C20 1_555 1_555
O2 C26 1_555 1_555
N3 C27 1_555 1_555
N4 C29 1_555 1_555
C26 C28 1_555 1_555
C27 C28 1_555 1_555
C28 C29 1_555 1_555
C29 H35 1_555 1_555
C30 N4 1_555 1_555
C31 C26 1_555 1_555
C32 N3 1_555 1_555
C33 N3 1_555 1_555
C34 N4 1_555 1_555
C35 C33 1_555 1_555
C36 C33 1_555 1_555
C37 C34 1_555 1_555
C38 C34 1_555 1_555
C39 C28 1_555 1_555
C40 C39 1_555 1_555
C41 C40 1_555 1_555
C42 C41 1_555 1_555
C43 C42 1_555 1_555
C44 C39 1_555 1_555
C45 C31 1_555 1_555
C46 C45 1_555 1_555
C47 C46 1_555 1_555
C48 C47 1_555 1_555
C49 C48 1_555 1_555
C50 C45 1_555 1_555
H1 C2 1_555 1_555
H2 C2 1_555 1_555
H4 C4 1_555 1_555
H5 C5 1_555 1_555
H6 C5 1_555 1_555
H7 C7 1_555 1_555
H8 C7 1_555 1_555
H9 C8 1_555 1_555
H10 C9 1_555 1_555
H11 C10 1_555 1_555
H12 C10 1_555 1_555
H13 C10 1_555 1_555
H14 C11 1_555 1_555
H15 C11 1_555 1_555
H16 C11 1_555 1_555
H17 C12 1_555 1_555
H18 C12 1_555 1_555
H19 C12 1_555 1_555
H20 C13 1_555 1_555
H21 C13 1_555 1_555
H22 C13 1_555 1_555
H23 C15 1_555 1_555
H24 C16 1_555 1_555
H25 C17 1_555 1_555
H26 C18 1_555 1_555
H27 C19 1_555 1_555
H28 C21 1_555 1_555
H29 C22 1_555 1_555
H30 C23 1_555 1_555
H31 C24 1_555 1_555
H32 C25 1_555 1_555
H33 C27 1_555 1_555
H34 C27 1_555 1_555
H36 C29 1_555 1_555
H37 C30 1_555 1_555
H38 C30 1_555 1_555
H39 C32 1_555 1_555
H40 C32 1_555 1_555
H41 C33 1_555 1_555
H42 C34 1_555 1_555
H43 C35 1_555 1_555
H44 C35 1_555 1_555
H45 C35 1_555 1_555
H46 C36 1_555 1_555
H47 C36 1_555 1_555
H48 C36 1_555 1_555
H49 C37 1_555 1_555
H50 C37 1_555 1_555
H51 C37 1_555 1_555
H52 C38 1_555 1_555
H53 C38 1_555 1_555
H54 C38 1_555 1_555
H55 C40 1_555 1_555
H56 C41 1_555 1_555
H57 C42 1_555 1_555
H58 C43 1_555 1_555
H59 C44 1_555 1_555
H60 C46 1_555 1_555
H61 C47 1_555 1_555
H62 C48 1_555 1_555
H63 C49 1_555 1_555
H64 C50 1_555 1_555
C5 C6 1_555 1_555
C6 C7 1_555 1_555
C18 C19 1_555 1_555
C24 C25 1_555 1_555
C30 C31 1_555 1_555
C31 C32 1_555 1_555
C43 C44 1_555 1_555
C49 C50 1_555 1_555

#END
