
#######################################################################
#
#                 Cambridge Crystallographic Data Centre
#                                CCDC 
#
#######################################################################
#
# If this CIF has been generated from an entry in the Cambridge 
# Structural Database, then it will include bibliographic, chemical, 
# crystal, experimental, refinement or atomic coordinate data resulting 
# from the CCDC's data processing and validation procedures.
#
#######################################################################

data_CUQWIU
_chemical_formula_moiety         'C14 H11 N1 O1'
_chemical_name_systematic        2-Hydroxy-6-(phenylmethyl)benzenecarbonitrile
_symmetry_cell_setting           monoclinic
_symmetry_space_group_name_H-M   'P 21/n'
_symmetry_Int_Tables_number      14
_space_group_name_Hall           '-P 2yn'
loop_
_symmetry_equiv_pos_site_id
_symmetry_equiv_pos_as_xyz
1 x,y,z
2 1/2+x,1/2-y,1/2+z
3 -x,-y,-z
4 1/2-x,1/2+y,1/2-z
_cell_length_a                   10.496(1)
_cell_length_b                   11.407(1)
_cell_length_c                   18.715(1)
_cell_angle_alpha                90
_cell_angle_beta                 91.53(1)
_cell_angle_gamma                90
_cell_volume                     2239.91
_exptl_crystal_colour            'pale yellow'
_exptl_crystal_description       plates
_cell_formula_units_Z            8
loop_
_atom_site_label
_atom_site_type_symbol
_atom_site_fract_x
_atom_site_fract_y
_atom_site_fract_z
C1 C -0.0061(2) 0.8021(2) 0.66399(10)
C2 C 0.0599(2) 0.8171(2) 0.60064(10)
C3 C 0.0975(2) 0.9271(2) 0.57673(10)
C4 C 0.0696(2) 1.0257(2) 0.61689(12)
H1 H 0.0937(2) 1.0999(2) 0.60176(12)
C5 C 0.0052(2) 1.0114(2) 0.67977(12)
H2 H -0.0134(2) 1.0769(2) 0.70718(12)
C6 C -0.0320(2) 0.9016(2) 0.70276(12)
H3 H -0.0753(2) 0.8948(2) 0.74526(12)
C7 C 0.0937(2) 0.7175(2) 0.55814(11)
N1 N 0.1234(2) 0.6385(2) 0.52524(11)
O1 O 0.1612(2) 0.92996(14) 0.51527(8)
C8 C -0.0482(3) 0.6811(2) 0.68609(12)
H4 H -0.1324(3) 0.6665(2) 0.66545(12)
H5 H 0.0094(3) 0.6241(2) 0.66600(12)
C9 C -0.0523(2) 0.6615(2) 0.76534(11)
C10 C -0.1658(2) 0.6582(2) 0.80027(13)
H6 H -0.2417(2) 0.6679(2) 0.77418(13)
C11 C -0.1696(3) 0.6410(2) 0.87281(15)
H7 H -0.2476(3) 0.6398(2) 0.89523(15)
C12 C -0.0609(4) 0.6259(2) 0.91170(14)
H8 H -0.0638(4) 0.6150(2) 0.96088(14)
C13 C 0.0530(3) 0.6266(2) 0.8786(2)
H9 H 0.1280(3) 0.6152(2) 0.9053(2)
C14 C 0.0584(2) 0.6442(2) 0.80551(14)
H10 H 0.1367(2) 0.6444(2) 0.78343(14)
H21 H 0.1936 1.0111 0.5063
C15 C 0.4955(2) 0.3151(2) 0.39294(11)
C16 C 0.3781(2) 0.3224(2) 0.42735(10)
C17 C 0.3244(2) 0.4305(2) 0.44432(10)
C18 C 0.3870(2) 0.5328(2) 0.42703(11)
H11 H 0.3519(2) 0.6053(2) 0.43791(11)
C19 C 0.5009(2) 0.5260(2) 0.39375(12)
H12 H 0.5430(2) 0.5949(2) 0.38211(12)
C20 C 0.5557(2) 0.4192(2) 0.37681(12)
H13 H 0.6337(2) 0.4176(2) 0.35438(12)
C21 C 0.3092(2) 0.2195(2) 0.44688(11)
N2 N 0.2521(2) 0.1392(2) 0.46376(10)
O2 O 0.21148(15) 0.42677(14) 0.47747(9)
C22 C 0.5529(2) 0.1981(2) 0.37426(12)
H14 H 0.5069(2) 0.1366(2) 0.39839(12)
H15 H 0.6407(2) 0.1960(2) 0.39163(12)
C23 C 0.5489(2) 0.1741(2) 0.29472(12)
C24 C 0.6584(2) 0.1724(2) 0.25550(13)
H16 H 0.7368(2) 0.1844(2) 0.27862(13)
C25 C 0.5408(3) 0.1345(2) 0.14764(15)
H17 H 0.5378(3) 0.1221(2) 0.09851(15)
C26 C 0.6538(3) 0.1534(2) 0.18273(15)
H18 H 0.7289(3) 0.1535(2) 0.15743(15)
C27 C 0.4305(3) 0.1339(2) 0.1859(2)
H19 H 0.3526(3) 0.1204(2) 0.1625(2)
C28 C 0.4348(2) 0.1532(2) 0.25883(14)
H20 H 0.3596(2) 0.1521(2) 0.28403(14)
H22 H 0.1836 0.5055 0.4951
loop_
_geom_bond_atom_site_label_1
_geom_bond_atom_site_label_2
_geom_bond_site_symmetry_1
_geom_bond_site_symmetry_2
C1 C2 1_555 1_555
C2 C3 1_555 1_555
C3 C4 1_555 1_555
C4 H1 1_555 1_555
C5 C4 1_555 1_555
H2 C5 1_555 1_555
C6 C1 1_555 1_555
H3 C6 1_555 1_555
C7 C2 1_555 1_555
N1 C7 1_555 1_555
O1 C3 1_555 1_555
C8 C1 1_555 1_555
H4 C8 1_555 1_555
H5 C8 1_555 1_555
C9 C8 1_555 1_555
C10 C9 1_555 1_555
H6 C10 1_555 1_555
C11 C10 1_555 1_555
H7 C11 1_555 1_555
C12 C11 1_555 1_555
H8 C12 1_555 1_555
C13 C12 1_555 1_555
H9 C13 1_555 1_555
C14 C9 1_555 1_555
H10 C14 1_555 1_555
C15 C16 1_555 1_555
C16 C17 1_555 1_555
C17 C18 1_555 1_555
C18 H11 1_555 1_555
C19 C18 1_555 1_555
H12 C19 1_555 1_555
C20 C15 1_555 1_555
H13 C20 1_555 1_555
C21 C16 1_555 1_555
N2 C21 1_555 1_555
O2 C17 1_555 1_555
C22 C15 1_555 1_555
H14 C22 1_555 1_555
H15 C22 1_555 1_555
C23 C22 1_555 1_555
C24 C23 1_555 1_555
H16 C24 1_555 1_555
C25 H17 1_555 1_555
C26 C24 1_555 1_555
H18 C26 1_555 1_555
C27 C25 1_555 1_555
H19 C27 1_555 1_555
C28 C23 1_555 1_555
H20 C28 1_555 1_555
H21 O1 1_555 1_555
H22 O2 1_555 1_555
C5 C6 1_555 1_555
C13 C14 1_555 1_555
C19 C20 1_555 1_555
C25 C26 1_555 1_555
C27 C28 1_555 1_555

#END
