
#######################################################################
#
#                 Cambridge Crystallographic Data Centre
#                                CCDC 
#
#######################################################################
#
# If this CIF has been generated from an entry in the Cambridge 
# Structural Database, then it will include bibliographic, chemical, 
# crystal, experimental, refinement or atomic coordinate data resulting 
# from the CCDC's data processing and validation procedures.
#
#######################################################################

data_CUQXOB
_chemical_formula_moiety         'C20 H41 F3 O2 Si5'
_chemical_name_systematic        
1-Hydroxy-1-((4'-(trifluoromethyl)phenyl)bis(trimethylsilyl)methyl)-2,2,2-trimethyl-1-trimethylsilyloxydisilane
_symmetry_cell_setting           triclinic
_symmetry_space_group_name_H-M   'P -1'
_symmetry_Int_Tables_number      2
_space_group_name_Hall           '-P 1'
loop_
_symmetry_equiv_pos_site_id
_symmetry_equiv_pos_as_xyz
1 x,y,z
2 -x,-y,-z
_cell_length_a                   10.237(2)
_cell_length_b                   10.977(2)
_cell_length_c                   13.598(3)
_cell_angle_alpha                100.67(3)
_cell_angle_beta                 109.10(3)
_cell_angle_gamma                90.40(3)
_cell_volume                     1415.18
_exptl_crystal_colour            colorless
_exptl_crystal_description       block
_chemical_melting_point          68-69deg.C
_cell_formula_units_Z            2
_exptl_crystal_recrystallization_method ethanol
loop_
_atom_site_label
_atom_site_type_symbol
_atom_site_fract_x
_atom_site_fract_y
_atom_site_fract_z
Si1 Si 0.93547(4) 0.86105(3) 0.29017(3)
Si2 Si 0.78591(4) 0.67972(4) 0.07943(3)
Si3 Si 0.75055(4) 0.62848(3) 0.29215(3)
Si4 Si 0.74219(5) 1.07727(4) 0.22177(3)
Si5 Si 1.15420(4) 0.92787(4) 0.28259(4)
F1 F 1.37282(10) 0.32048(9) 0.25861(8)
F2 F 1.47999(9) 0.46908(10) 0.38916(8)
F3 F 1.36094(11) 0.32307(10) 0.41435(9)
O1 O 0.95056(11) 0.88832(10) 0.41831(8)
H1 H 0.8833 0.8547 0.4255
O2 O 0.81488(11) 0.94476(9) 0.23081(8)
C1 C 0.87681(13) 0.68966(12) 0.23030(10)
C2 C 1.11742(15) 0.65222(13) 0.35301(11)
H2 H 1.1159 0.7276 0.3970
C3 C 1.00188(13) 0.61114(12) 0.26089(10)
C4 C 1.11984(15) 0.42207(13) 0.23137(11)
H3 H 1.1186 0.3432 0.1915
C5 C 1.23594(14) 0.46948(13) 0.31826(11)
C6 C 1.00533(15) 0.49173(13) 0.20351(11)
H4 H 0.9286 0.4581 0.1450
C7 C 1.23318(15) 0.58459(13) 0.38057(11)
H5 H 1.3089 0.6161 0.4406
C8 C 1.36112(16) 0.39602(14) 0.34502(12)
C9 C 0.62065(16) 0.74136(15) 0.31198(13)
H6 H 0.5649 0.7080 0.3467
H7 H 0.5623 0.7554 0.2443
H8 H 0.6682 0.8185 0.3550
C10 C 0.88254(17) 0.78109(15) 0.02517(12)
H9 H 0.8274 0.7856 -0.0462
H10 H 0.9684 0.7465 0.0253
H11 H 0.9012 0.8630 0.0686
C11 C 0.76431(17) 0.52277(14) -0.01109(12)
H12 H 0.7227 0.4628 0.0149
H13 H 0.8534 0.4979 -0.0128
H14 H 0.7059 0.5278 -0.0814
C12 C 0.65435(16) 0.47937(14) 0.20611(13)
H15 H 0.7194 0.4217 0.1926
H16 H 0.5936 0.4958 0.1401
H17 H 0.6008 0.4445 0.2417
C13 C 0.60526(16) 0.73186(15) 0.04904(12)
H18 H 0.6073 0.8125 0.0916
H19 H 0.5482 0.6737 0.0648
H20 H 0.5679 0.7360 -0.0248
C14 C 0.8420(2) 1.20026(16) 0.33690(15)
H21 H 0.8562 1.1708 0.4016
H22 H 0.7910 1.2733 0.3378
H23 H 0.9301 1.2200 0.3307
C15 C 0.84870(16) 0.59111(15) 0.42414(12)
H24 H 0.9045 0.6635 0.4697
H25 H 0.9074 0.5252 0.4148
H26 H 0.7846 0.5654 0.4557
C16 C 0.7392(2) 1.11769(18) 0.09380(15)
H27 H 0.8325 1.1335 0.0957
H28 H 0.6894 1.1906 0.0834
H29 H 0.6943 1.0498 0.0364
C17 C 1.23566(18) 0.81276(18) 0.20417(15)
H30 H 1.1933 0.8127 0.1299
H31 H 1.2222 0.7313 0.2171
H32 H 1.3331 0.8355 0.2255
C18 C 1.2791(2) 0.9738(2) 0.42193(17)
H33 H 1.2969 0.9018 0.4537
H34 H 1.2399 1.0341 0.4628
H35 H 1.3644 1.0091 0.4205
C19 C 0.5624(2) 1.05763(19) 0.22356(19)
H36 H 0.5108 0.9930 0.1654
H37 H 0.5185 1.1341 0.2170
H38 H 0.5650 1.0356 0.2893
C20 C 1.1337(2) 1.06929(19) 0.2209(2)
H39 H 1.2212 1.0958 0.2170
H40 H 1.1029 1.1349 0.2635
H41 H 1.0667 1.0495 0.1507
loop_
_geom_bond_atom_site_label_1
_geom_bond_atom_site_label_2
_geom_bond_site_symmetry_1
_geom_bond_site_symmetry_2
Si1 Si5 1_555 1_555
Si2 C1 1_555 1_555
Si3 C1 1_555 1_555
Si4 O2 1_555 1_555
Si5 C17 1_555 1_555
F1 C8 1_555 1_555
F2 C8 1_555 1_555
F3 C8 1_555 1_555
O1 Si1 1_555 1_555
H1 O1 1_555 1_555
O2 Si1 1_555 1_555
C1 Si1 1_555 1_555
C2 H2 1_555 1_555
C3 C1 1_555 1_555
C4 H3 1_555 1_555
C5 C4 1_555 1_555
C6 C3 1_555 1_555
H4 C6 1_555 1_555
C7 C2 1_555 1_555
H5 C7 1_555 1_555
C8 C5 1_555 1_555
C9 Si3 1_555 1_555
H6 C9 1_555 1_555
H7 C9 1_555 1_555
H8 C9 1_555 1_555
C10 Si2 1_555 1_555
H9 C10 1_555 1_555
H10 C10 1_555 1_555
H11 C10 1_555 1_555
C11 Si2 1_555 1_555
H12 C11 1_555 1_555
H13 C11 1_555 1_555
H14 C11 1_555 1_555
C12 Si3 1_555 1_555
H15 C12 1_555 1_555
H16 C12 1_555 1_555
H17 C12 1_555 1_555
C13 Si2 1_555 1_555
H18 C13 1_555 1_555
H19 C13 1_555 1_555
H20 C13 1_555 1_555
C14 Si4 1_555 1_555
H21 C14 1_555 1_555
H22 C14 1_555 1_555
H23 C14 1_555 1_555
C15 Si3 1_555 1_555
H24 C15 1_555 1_555
H25 C15 1_555 1_555
H26 C15 1_555 1_555
C16 Si4 1_555 1_555
H27 C16 1_555 1_555
H28 C16 1_555 1_555
H29 C16 1_555 1_555
C17 H30 1_555 1_555
H31 C17 1_555 1_555
H32 C17 1_555 1_555
C18 Si5 1_555 1_555
H33 C18 1_555 1_555
H34 C18 1_555 1_555
H35 C18 1_555 1_555
C19 Si4 1_555 1_555
H36 C19 1_555 1_555
H37 C19 1_555 1_555
H38 C19 1_555 1_555
C20 Si5 1_555 1_555
H39 C20 1_555 1_555
H40 C20 1_555 1_555
H41 C20 1_555 1_555
C2 C3 1_555 1_555
C4 C6 1_555 1_555
C5 C7 1_555 1_555

#END
