
#######################################################################
#
#                 Cambridge Crystallographic Data Centre
#                                CCDC 
#
#######################################################################
#
# If this CIF has been generated from an entry in the Cambridge 
# Structural Database, then it will include bibliographic, chemical, 
# crystal, experimental, refinement or atomic coordinate data resulting 
# from the CCDC's data processing and validation procedures.
#
#######################################################################

data_CURFEB
_chemical_formula_moiety         'C33 H43 N1 O9'
_chemical_name_systematic        
'6-((3,5-bis(benzyloxy)-4-hydroxytetrahydro-2H-pyran-2-yl)oxy)-1-(t-butoxycarbonyl)octahydro-1H-indole-2-carboxylic acid'
_symmetry_cell_setting           orthorhombic
_symmetry_space_group_name_H-M   'P 21 21 21'
_symmetry_Int_Tables_number      19
_space_group_name_Hall           'P 2ac 2ab'
loop_
_symmetry_equiv_pos_site_id
_symmetry_equiv_pos_as_xyz
1 x,y,z
2 1/2-x,-y,1/2+z
3 -x,1/2+y,1/2-z
4 1/2+x,1/2-y,-z
_cell_length_a                   10.4333(5)
_cell_length_b                   12.4407(5)
_cell_length_c                   23.9905(10)
_cell_angle_alpha                90
_cell_angle_beta                 90
_cell_angle_gamma                90
_cell_volume                     3113.91
_cell_formula_units_Z            4
loop_
_atom_site_label
_atom_site_type_symbol
_atom_site_fract_x
_atom_site_fract_y
_atom_site_fract_z
O1 O 0.4977(1) -0.0082(1) 0.0566(1)
O2 O 0.4361(1) -0.5982(1) 0.0210(1)
O3 O 0.3168(1) -0.4514(1) 0.0054(1)
O4 O 0.5309(1) -0.2561(1) -0.0946(1)
O5 O 0.5496(1) -0.4379(1) -0.0822(1)
O6 O 0.6259(1) 0.0946(1) -0.0263(1)
O7 O 0.7752(1) 0.2389(1) 0.0412(1)
O8 O 0.4052(1) 0.1522(1) 0.0882(1)
N1 N 0.5406(1) -0.3312(1) -0.0084(1)
C1 C 0.5414(2) -0.2288(1) 0.0222(1)
C2 C 0.4093(2) -0.1734(1) 0.0206(1)
C3 C 0.3978(2) -0.0876(1) 0.0653(1)
C4 C 0.4168(2) -0.1370(1) 0.1223(1)
C5 C 0.5504(2) -0.1865(1) 0.1276(1)
C6 C 0.5841(2) -0.2646(1) 0.0808(1)
C7 C 0.5235(2) -0.3771(1) 0.0862(1)
C8 C 0.5370(2) -0.4258(1) 0.0279(1)
C9 C 0.4260(2) -0.5015(1) 0.0167(1)
C10 C 0.5387(2) -0.3347(1) -0.0648(1)
C11 C 0.5086(2) -0.4682(1) -0.1391(1)
C12 C 0.3677(2) -0.4385(2) -0.1454(1)
C13 C 0.5259(2) -0.5890(2) -0.1384(1)
C14 C 0.5901(2) -0.4169(2) -0.1836(1)
C15 C 0.4562(2) 0.0948(1) 0.0419(1)
C16 C 0.5709(2) 0.1556(1) 0.0190(1)
C17 C 0.6739(2) 0.1745(1) 0.0631(1)
C18 C 0.6369(2) 0.1546(1) -0.0772(1)
C19 C 0.6816(2) 0.0824(1) -0.1238(1)
C20 C 0.6604(2) -0.0275(1) -0.1246(1)
C21 C 0.6997(2) -0.0890(2) -0.1696(1)
C22 C 0.7604(2) -0.0423(2) -0.2143(1)
C23 C 0.7810(2) 0.0681(2) -0.2140(1)
C24 C 0.7417(2) 0.1297(2) -0.1693(1)
O9 O 0.6993(5) 0.2280(4) 0.1596(3)
C25 C 0.6131(9) 0.2298(11) 0.1131(3)
C26 C 0.4972(13) 0.1664(17) 0.1319(5)
C27 C 0.7977(2) 0.3074(2) 0.1625(1)
C28 C 0.7533(2) 0.4171(1) 0.1812(1)
C29 C 0.8306(2) 0.5051(2) 0.1691(1)
C30 C 0.8005(3) 0.6057(2) 0.1907(2)
C31 C 0.6931(4) 0.6183(2) 0.2243(2)
C32 C 0.6158(3) 0.5303(2) 0.2364(1)
C33 C 0.6459(2) 0.4298(2) 0.2148(1)
H1 H 0.2559 -0.4955 0.0070
H2 H 0.8211 0.2014 0.0201
H3 H 0.6075 -0.1799 0.0058
H4 H 0.3964 -0.1402 -0.0165
H5 H 0.3413 -0.2280 0.0261
H6 H 0.3116 -0.0526 0.0632
H7 H 0.3512 -0.1932 0.1285
H8 H 0.4056 -0.0810 0.1512
H9 H 0.6147 -0.1279 0.1282
H10 H 0.5560 -0.2249 0.1637
H11 H 0.6793 -0.2735 0.0803
H12 H 0.5697 -0.4209 0.1142
H13 H 0.4322 -0.3718 0.0971
H14 H 0.6198 -0.4658 0.0251
H15 H 0.3189 -0.4684 -0.1142
H16 H 0.3348 -0.4678 -0.1805
H17 H 0.3589 -0.3601 -0.1456
H18 H 0.6161 -0.6062 -0.1313
H19 H 0.5003 -0.6188 -0.1746
H20 H 0.4725 -0.6202 -0.1090
H21 H 0.5789 -0.3387 -0.1824
H22 H 0.5642 -0.4440 -0.2202
H23 H 0.6804 -0.4346 -0.1770
H24 H 0.3891 0.0890 0.0123
H25 H 0.5413 0.2267 0.0044
H26 H 0.7096 0.1036 0.0752
H27 H 0.6987 0.2141 -0.0721
H28 H 0.5527 0.1861 -0.0870
H29 H 0.6186 -0.0610 -0.0940
H30 H 0.6845 -0.1643 -0.1696
H31 H 0.7880 -0.0848 -0.2449
H32 H 0.8224 0.1014 -0.2448
H33 H 0.7557 0.2052 -0.1697
H34 H 0.5886 0.3053 0.1037
H35 H 0.5253 0.0950 0.1453
H36 H 0.4559 0.2043 0.1634
H37 H 0.8375 0.3143 0.1252
H38 H 0.8647 0.2820 0.1885
H39 H 0.9041 0.4965 0.1461
H40 H 0.8534 0.6658 0.1824
H41 H 0.6725 0.6870 0.2390
H42 H 0.5423 0.5390 0.2593
H43 H 0.5930 0.3696 0.2230
O10? O 0.0850(20) 0.2249(18) 0.1669(11)
C34? C 0.6180(40) 0.2290(50) 0.1146(10)
C35? C 0.4990(50) 0.1680(70) 0.1310(20)
C36? C 0.6446(13) 0.3039(8) 0.2032(5)
C37? C 0.7000(9) 0.4160(6) 0.1925(5)
C38? C 0.7897(8) 0.4325(7) 0.1505(5)
C39? C 0.8438(9) 0.5335(9) 0.1430(5)
C40? C 0.8082(14) 0.6182(6) 0.1775(7)
C41? C 0.7186(16) 0.6018(7) 0.2195(6)
C42? C 0.6645(12) 0.5007(9) 0.2270(4)
H44? H 0.5956 0.3051 0.1056
H45? H 0.5246 0.0968 0.1455
H46? H 0.4571 0.2072 0.1622
H47? H 0.6676 0.2818 0.2415
H48? H 0.5500 0.3084 0.2012
H49? H 0.8140 0.3746 0.1269
H50? H 0.9051 0.5448 0.1143
H51? H 0.8452 0.6873 0.1724
H52? H 0.6943 0.6596 0.2431
H53? H 0.6032 0.4895 0.2557
loop_
_geom_bond_atom_site_label_1
_geom_bond_atom_site_label_2
_geom_bond_site_symmetry_1
_geom_bond_site_symmetry_2
O1 C3 1_555 1_555
O2 C9 1_555 1_555
O3 C9 1_555 1_555
O4 C10 1_555 1_555
O5 C10 1_555 1_555
O6 C16 1_555 1_555
O7 C17 1_555 1_555
O8 C15 1_555 1_555
N1 C1 1_555 1_555
C1 C2 1_555 1_555
C2 C3 1_555 1_555
C3 C4 1_555 1_555
C4 C5 1_555 1_555
C5 C6 1_555 1_555
C6 C1 1_555 1_555
C7 C6 1_555 1_555
C8 N1 1_555 1_555
C9 C8 1_555 1_555
C10 N1 1_555 1_555
C11 O5 1_555 1_555
C12 C11 1_555 1_555
C13 C11 1_555 1_555
C14 C11 1_555 1_555
C15 O1 1_555 1_555
C16 C15 1_555 1_555
C17 C16 1_555 1_555
C18 O6 1_555 1_555
C19 C18 1_555 1_555
C20 C19 1_555 1_555
C21 C20 1_555 1_555
C22 C21 1_555 1_555
C23 C22 1_555 1_555
C24 C19 1_555 1_555
O9 C25 1_555 1_555
C25 C17 1_555 1_555
C26 O8 1_555 1_555
C27 O9 1_555 1_555
C28 C27 1_555 1_555
C29 C28 1_555 1_555
C30 C29 1_555 1_555
C31 C30 1_555 1_555
C32 C31 1_555 1_555
C33 C28 1_555 1_555
H1 O3 1_555 1_555
H2 O7 1_555 1_555
H3 C1 1_555 1_555
H4 C2 1_555 1_555
H5 C2 1_555 1_555
H6 C3 1_555 1_555
H7 C4 1_555 1_555
H8 C4 1_555 1_555
H9 C5 1_555 1_555
H10 C5 1_555 1_555
H11 C6 1_555 1_555
H12 C7 1_555 1_555
H13 C7 1_555 1_555
H14 C8 1_555 1_555
H15 C12 1_555 1_555
H16 C12 1_555 1_555
H17 C12 1_555 1_555
H18 C13 1_555 1_555
H19 C13 1_555 1_555
H20 C13 1_555 1_555
H21 C14 1_555 1_555
H22 C14 1_555 1_555
H23 C14 1_555 1_555
H24 C15 1_555 1_555
H25 C16 1_555 1_555
H26 C17 1_555 1_555
H27 C18 1_555 1_555
H28 C18 1_555 1_555
H29 C20 1_555 1_555
H30 C21 1_555 1_555
H31 C22 1_555 1_555
H32 C23 1_555 1_555
H33 C24 1_555 1_555
H34 C25 1_555 1_555
H35 C26 1_555 1_555
H36 C26 1_555 1_555
H37 C27 1_555 1_555
H38 C27 1_555 1_555
H39 C29 1_555 1_555
H40 C30 1_555 1_555
H41 C31 1_555 1_555
H42 C32 1_555 1_555
H43 C33 1_555 1_555
C7 C8 1_555 1_555
C23 C24 1_555 1_555
C25 C26 1_555 1_555
C32 C33 1_555 1_555

#END
