
#######################################################################
#
#                 Cambridge Crystallographic Data Centre
#                                CCDC 
#
#######################################################################
#
# If this CIF has been generated from an entry in the Cambridge 
# Structural Database, then it will include bibliographic, chemical, 
# crystal, experimental, refinement or atomic coordinate data resulting 
# from the CCDC's data processing and validation procedures.
#
#######################################################################

data_CURFUR
_chemical_formula_moiety         'C5 H9 N1 O2'
_chemical_name_systematic        1-Hydroxypiperidine-2-one
_symmetry_cell_setting           orthorhombic
_symmetry_space_group_name_H-M   'P b c a'
_symmetry_Int_Tables_number      61
_space_group_name_Hall           '-P 2ac 2ab'
loop_
_symmetry_equiv_pos_site_id
_symmetry_equiv_pos_as_xyz
1 x,y,z
2 1/2-x,-y,1/2+z
3 -x,1/2+y,1/2-z
4 1/2+x,1/2-y,-z
5 -x,-y,-z
6 1/2+x,y,1/2-z
7 x,1/2-y,1/2+z
8 1/2-x,1/2+y,z
_cell_length_a                   15.900(3)
_cell_length_b                   7.187(1)
_cell_length_c                   19.995(4)
_cell_angle_alpha                90
_cell_angle_beta                 90
_cell_angle_gamma                90
_cell_volume                     2284.89
_cell_formula_units_Z            16
loop_
_atom_site_label
_atom_site_type_symbol
_atom_site_fract_x
_atom_site_fract_y
_atom_site_fract_z
O1 O 0.0771(1) -0.1432(1) 0.1876(1)
O2 O 0.1634(1) 0.0441(1) 0.0958(1)
N1 N 0.1448(1) 0.1205(1) 0.1583(1)
C1 C 0.1045(1) 0.0131(2) 0.2020(1)
C2 C 0.1867(1) 0.2964(2) 0.1714(1)
C3 C 0.1534(1) 0.3864(2) 0.2342(1)
C4 C 0.1473(1) 0.2487(2) 0.2905(1)
C5 C 0.0899(1) 0.0926(2) 0.2704(1)
H1 H 0.1288(12) 0.0970(30) 0.0672(9)
H2 H 0.1780 0.3812 0.1331
H3 H 0.2479 0.2747 0.1762
H4 H 0.1911 0.4895 0.2475
H5 H 0.0971 0.4394 0.2252
H6 H 0.1251 0.3109 0.3310
H7 H 0.2038 0.1990 0.3010
H8 H 0.0957 -0.0090 0.3035
H9 H 0.0311 0.1379 0.2727
O3 O 0.0656(1) 0.1986(1) 0.0069(1)
O4 O -0.0278(1) 0.3562(1) -0.0876(1)
N2 N -0.0609(1) 0.3080(1) -0.0254(1)
C6 C -0.0095(1) 0.2329(2) 0.0193(1)
C7 C -0.1490(1) 0.3599(2) -0.0171(1)
C8 C -0.1727(1) 0.3574(3) 0.0593(1)
C9 C -0.1378(1) 0.1853(4) 0.0925(1)
C10 C -0.0458(1) 0.1901(2) 0.0872(1)
H10 H -0.0458(11) 0.2720(30) -0.1152(8)
H11 H -0.1852 0.2714 -0.0418
H12 H -0.1585 0.4859 -0.0356
H15 H -0.1497 0.4697 0.0814
H16 H -0.2347 0.3596 0.0642
H17 H -0.1548 0.1820 0.1401
H18 H -0.1600 0.0724 0.0703
H19 H -0.0238 0.0677 0.1017
H20 H -0.0245 0.2843 0.1191
C11? C -0.1920(3) 0.2496(7) 0.0316(2)
C12? C -0.1411(3) 0.2866(10) 0.0928(3)
H13? H -0.1521 0.4923 -0.0036
H14? H -0.1780 0.3471 -0.0606
H21? H -0.0087 0.2405 0.1226
H22? H -0.0501 0.0537 0.0934
H23? H -0.1912 0.1160 0.0196
H24? H -0.2510 0.2908 0.0373
H25? H -0.1707 0.2359 0.1324
H26? H -0.1351 0.4226 0.0991
loop_
_geom_bond_atom_site_label_1
_geom_bond_atom_site_label_2
_geom_bond_site_symmetry_1
_geom_bond_site_symmetry_2
O1 C1 1_555 1_555
O2 N1 1_555 1_555
N1 C1 1_555 1_555
C1 C5 1_555 1_555
C2 N1 1_555 1_555
C3 C2 1_555 1_555
C4 C3 1_555 1_555
C5 C4 1_555 1_555
O3 C6 1_555 1_555
O4 N2 1_555 1_555
N2 C6 1_555 1_555
C6 C10 1_555 1_555
C7 N2 1_555 1_555
C8 C7 1_555 1_555
C9 C8 1_555 1_555
C10 C9 1_555 1_555
H1 O2 1_555 1_555
H2 C2 1_555 1_555
H3 C2 1_555 1_555
H4 C3 1_555 1_555
H5 C3 1_555 1_555
H6 C4 1_555 1_555
H7 C4 1_555 1_555
H8 C5 1_555 1_555
H9 C5 1_555 1_555
H10 O4 1_555 1_555
H11 C7 1_555 1_555
H12 C7 1_555 1_555
H15 C8 1_555 1_555
H16 C8 1_555 1_555
H17 C9 1_555 1_555
H18 C9 1_555 1_555
H19 C10 1_555 1_555
H20 C10 1_555 1_555

#END
