
#######################################################################
#
#                 Cambridge Crystallographic Data Centre
#                                CCDC 
#
#######################################################################
#
# If this CIF has been generated from an entry in the Cambridge 
# Structural Database, then it will include bibliographic, chemical, 
# crystal, experimental, refinement or atomic coordinate data resulting 
# from the CCDC's data processing and validation procedures.
#
#######################################################################

data_CURFIF
_chemical_formula_moiety         'C14 H15 N1 O4'
_chemical_name_systematic        
(+-)-(3R,5R)-3-(4-nitrophenyl)-2-oxaspiro[4.4]nonan-6-one
_symmetry_cell_setting           orthorhombic
_symmetry_space_group_name_H-M   'P 21 21 21'
_symmetry_Int_Tables_number      19
_space_group_name_Hall           'P 2ac 2ab'
loop_
_symmetry_equiv_pos_site_id
_symmetry_equiv_pos_as_xyz
1 x,y,z
2 1/2-x,-y,1/2+z
3 -x,1/2+y,1/2-z
4 1/2+x,1/2-y,-z
_cell_length_a                   6.8958(7)
_cell_length_b                   10.069(1)
_cell_length_c                   18.424(2)
_cell_angle_alpha                90
_cell_angle_beta                 90
_cell_angle_gamma                90
_cell_volume                     1279.25
_exptl_crystal_colour            colorless
_exptl_crystal_description       platelet
_chemical_melting_point          '105-106 deg.C'
_cell_formula_units_Z            4
loop_
_atom_site_label
_atom_site_type_symbol
_atom_site_fract_x
_atom_site_fract_y
_atom_site_fract_z
O1 O 0.7934(3) 0.2324(2) -0.0358(1)
O2 O -0.1191(5) -0.1019(3) 0.3109(2)
O3 O -0.0434(4) 0.0992(3) 0.3413(1)
O4 O 0.8123(3) 0.0551(3) 0.1592(1)
N1 N -0.0123(4) -0.0042(3) 0.3083(1)
C1 C 0.8802(4) 0.1286(3) -0.0314(1)
C2 C 0.1606(4) -0.0104(3) 0.2622(1)
C3 C 0.2120(4) -0.1308(3) 0.2339(2)
C4 C 0.9338(4) 0.0954(5) 0.1016(2)
C5 C 0.4895(4) -0.0270(3) 0.1781(1)
C6 C 0.2672(4) 0.1032(3) 0.2494(1)
C7 C 0.6508(4) -0.0003(3) 0.0529(1)
C8 C 0.3772(4) -0.1369(3) 0.1907(2)
C9 C 0.6711(4) -0.0372(3) 0.1330(2)
C10 C 0.4314(4) 0.0936(3) 0.2069(2)
C11 C 0.8595(4) 0.0300(3) 0.0314(1)
C12 C 1.0227(5) 0.0751(3) -0.0842(1)
C13 C 1.1136(7) -0.0426(4) -0.0472(2)
C14 C 0.9765(7) -0.0892(4) 0.0059(3)
H1 H 0.1386 -0.2064 0.2432
H2 H 0.2293 0.1842 0.2690
H3 H 0.4124 -0.2176 0.1699
H4 H 0.5042 0.1694 0.1975
H5 H 1.0663 0.0681 0.1111
H6 H 0.9311 0.1913 0.0969
H7 H 0.5988 -0.0736 0.0248
H8 H 0.5683 0.0769 0.0466
H9 H 1.1201 0.1414 -0.0958
H10 H 0.9586 0.0482 -0.1287
H11 H 1.1414 -0.1119 -0.0823
H12 H 1.2340 -0.0170 -0.0238
H13 H 1.0440 -0.1294 0.0465
H14 H 0.8914 -0.1553 -0.0155
H15 H 0.7232 -0.1274 0.1369
loop_
_geom_bond_atom_site_label_1
_geom_bond_atom_site_label_2
_geom_bond_site_symmetry_1
_geom_bond_site_symmetry_2
O1 C1 1_555 1_555
O2 N1 1_555 1_555
O3 N1 1_555 1_555
O4 C4 1_555 1_555
N1 C2 1_555 1_555
C1 C11 1_555 1_555
C2 C3 1_555 1_555
C3 C8 1_555 1_555
C4 C11 1_555 1_555
C5 C8 1_555 1_555
C6 C2 1_555 1_555
C7 C9 1_555 1_555
C8 H3 1_555 1_555
C9 O4 1_555 1_555
C10 C5 1_555 1_555
C11 C7 1_555 1_555
C12 C1 1_555 1_555
C13 C12 1_555 1_555
C14 C11 1_555 1_555
H1 C3 1_555 1_555
H2 C6 1_555 1_555
H4 C10 1_555 1_555
H5 C4 1_555 1_555
H6 C4 1_555 1_555
H7 C7 1_555 1_555
H8 C7 1_555 1_555
H9 C12 1_555 1_555
H10 C12 1_555 1_555
H11 C13 1_555 1_555
H12 C13 1_555 1_555
H13 C14 1_555 1_555
H14 C14 1_555 1_555
H15 C9 1_555 1_555
C5 C9 1_555 1_555
C6 C10 1_555 1_555
C13 C14 1_555 1_555

#END
