
#######################################################################
#
#                 Cambridge Crystallographic Data Centre
#                                CCDC 
#
#######################################################################
#
# If this CIF has been generated from an entry in the Cambridge 
# Structural Database, then it will include bibliographic, chemical, 
# crystal, experimental, refinement or atomic coordinate data resulting 
# from the CCDC's data processing and validation procedures.
#
#######################################################################

data_CURJOQ
_chemical_formula_moiety         'C24 H20 O2'
_chemical_name_systematic        
(5-methyl-2,5-diphenyl-4,5-dihydrofuran-3-yl)(phenyl)methanone
_symmetry_cell_setting           triclinic
_symmetry_space_group_name_H-M   'P -1'
_symmetry_Int_Tables_number      2
_space_group_name_Hall           '-P 1'
loop_
_symmetry_equiv_pos_site_id
_symmetry_equiv_pos_as_xyz
1 x,y,z
2 -x,-y,-z
_cell_length_a                   7.1637(4)
_cell_length_b                   11.4472(5)
_cell_length_c                   11.9023(5)
_cell_angle_alpha                79.270(2)
_cell_angle_beta                 77.811(2)
_cell_angle_gamma                87.147(2)
_cell_volume                     937.3
_exptl_crystal_colour            colorless
_cell_formula_units_Z            2
loop_
_atom_site_label
_atom_site_type_symbol
_atom_site_fract_x
_atom_site_fract_y
_atom_site_fract_z
O1 O 0.31415(15) 0.98398(8) 0.16772(8)
O2 O 0.23724(18) 1.03603(9) 0.54408(9)
C1 C 0.1301(3) 1.36971(15) -0.05602(15)
H1 H 0.0763 1.4283 -0.1053
C2 C 0.2528(3) 1.39985(14) 0.00705(15)
H2 H 0.2816 1.4794 0.0013
C3 C 0.3348(2) 1.31291(13) 0.07949(14)
H3 H 0.4185 1.3345 0.1219
C4 C 0.2931(2) 1.19364(12) 0.08942(11)
C5 C 0.3896(2) 1.10121(12) 0.16772(12)
C6 C 0.3418(2) 1.11413(12) 0.29727(11)
H4 H 0.4497 1.1445 0.3199
H5 H 0.2323 1.1663 0.3133
C7 C 0.29786(19) 0.98826(12) 0.35902(11)
C8 C 0.27145(19) 0.95705(12) 0.48580(11)
C9 C 0.29235(19) 0.83231(12) 0.54630(11)
C10 C 0.1787(2) 0.79579(14) 0.65677(13)
H6 H 0.0888 0.8481 0.6892
C11 C 0.1981(3) 0.68308(17) 0.71818(15)
H7 H 0.1195 0.6588 0.7910
C12 C 0.3334(3) 0.60666(16) 0.67203(17)
H8 H 0.3452 0.5301 0.7131
C13 C 0.0863(3) 1.25242(16) -0.04639(15)
H9 H 0.0019 1.2317 -0.0888
C14 C 0.1674(2) 1.16452(14) 0.02640(13)
H10 H 0.1364 1.0853 0.0326
C15 C 0.27894(19) 0.92266(11) 0.27950(11)
C16 C 0.4518(2) 0.64262(14) 0.56508(16)
H11 H 0.5464 0.5913 0.5355
C17 C 0.4309(2) 0.75489(13) 0.50139(12)
H12 H 0.5097 0.7784 0.4285
C18 C 0.2243(2) 0.79815(12) 0.28869(12)
C19 C 0.0626(2) 0.75076(14) 0.36653(13)
H13 H -0.0165 0.7981 0.4127
C20 C 0.0195(3) 0.63292(15) 0.37507(16)
H14 H -0.0893 0.6010 0.4272
C21 C 0.1353(3) 0.56210(14) 0.30757(16)
H15 H 0.1063 0.4823 0.3152
C22 C 0.2940(3) 0.60927(14) 0.22880(15)
H16 H 0.3715 0.5617 0.1822
C23 C 0.3385(2) 0.72690(13) 0.21874(13)
H17 H 0.4454 0.7587 0.1648
C24 C 0.6031(2) 1.09492(15) 0.12104(15)
H18 H 0.6593 1.0352 0.1722
H19 H 0.6585 1.1706 0.1169
H20 H 0.6267 1.0749 0.0444
loop_
_geom_bond_atom_site_label_1
_geom_bond_atom_site_label_2
_geom_bond_site_symmetry_1
_geom_bond_site_symmetry_2
O1 C5 1_555 1_555
O2 C8 1_555 1_555
C1 H1 1_555 1_555
C2 C1 1_555 1_555
H2 C2 1_555 1_555
C3 C2 1_555 1_555
H3 C3 1_555 1_555
C4 C3 1_555 1_555
C5 C4 1_555 1_555
C6 C5 1_555 1_555
H4 C6 1_555 1_555
H5 C6 1_555 1_555
C7 C6 1_555 1_555
C8 C7 1_555 1_555
C9 C8 1_555 1_555
C10 C9 1_555 1_555
H6 C10 1_555 1_555
C11 C10 1_555 1_555
H7 C11 1_555 1_555
C12 C11 1_555 1_555
H8 C12 1_555 1_555
C13 C1 1_555 1_555
H9 C13 1_555 1_555
C14 C4 1_555 1_555
H10 C14 1_555 1_555
C15 O1 1_555 1_555
C16 C12 1_555 1_555
H11 C16 1_555 1_555
C17 C9 1_555 1_555
H12 C17 1_555 1_555
C18 C15 1_555 1_555
C19 C18 1_555 1_555
H13 C19 1_555 1_555
C20 C19 1_555 1_555
H14 C20 1_555 1_555
C21 C20 1_555 1_555
H15 C21 1_555 1_555
C22 C21 1_555 1_555
H16 C22 1_555 1_555
C23 C18 1_555 1_555
H17 C23 1_555 1_555
C24 C5 1_555 1_555
H18 C24 1_555 1_555
H19 C24 1_555 1_555
H20 C24 1_555 1_555
C7 C15 1_555 1_555
C13 C14 1_555 1_555
C16 C17 1_555 1_555
C22 C23 1_555 1_555

#END
