
#######################################################################
#
#                 Cambridge Crystallographic Data Centre
#                                CCDC 
#
#######################################################################
#
# If this CIF has been generated from an entry in the Cambridge 
# Structural Database, then it will include bibliographic, chemical, 
# crystal, experimental, refinement or atomic coordinate data resulting 
# from the CCDC's data processing and validation procedures.
#
#######################################################################

data_CURKIK
_chemical_formula_moiety         'C29 H32 N2 O4'
_chemical_name_systematic        
'ent-Dimethyl 5-benzyl-4-ethyl-2,4a,5,6,7,12-hexahydroindolo[3,2-d][1]benzazepine-2,12b(1H)-dicarboxylate'
_symmetry_cell_setting           monoclinic
_symmetry_space_group_name_H-M   'P 21/c'
_symmetry_Int_Tables_number      14
_space_group_name_Hall           '-P 2ybc'
loop_
_symmetry_equiv_pos_site_id
_symmetry_equiv_pos_as_xyz
1 x,y,z
2 -x,1/2+y,1/2-z
3 -x,-y,-z
4 x,1/2-y,1/2+z
_cell_length_a                   15.934(2)
_cell_length_b                   15.043(4)
_cell_length_c                   10.542(2)
_cell_angle_alpha                90
_cell_angle_beta                 92.17(1)
_cell_angle_gamma                90
_cell_volume                     2525.05
_chemical_melting_point          '205-206 deg.C'
_cell_formula_units_Z            4
_exptl_crystal_recrystallization_method dichloromethane
loop_
_atom_site_label
_atom_site_type_symbol
_atom_site_fract_x
_atom_site_fract_y
_atom_site_fract_z
C1 C 0.0558(1) -0.1408(1) -0.2315(2)
C2 C 0.0398(2) -0.1477(2) -0.3610(2)
C3 C -0.0407(2) -0.1692(2) -0.4077(3)
C4 C -0.1048(2) -0.1823(2) -0.3267(3)
C5 C -0.0897(2) -0.1742(2) -0.1995(3)
C6 C -0.0102(1) -0.1540(2) -0.1524(2)
C7 C 0.1428(1) -0.1208(1) -0.1775(2)
N1 N 0.1426(1) -0.0454(1) -0.0916(1)
C8 C 0.1154(1) 0.0381(1) -0.1494(2)
C9 C 0.1682(1) 0.0716(1) -0.2551(2)
C10 C 0.2607(1) 0.0805(1) -0.2252(2)
C11 C 0.3138(1) 0.0395(1) -0.1369(2)
C12 C 0.3015(1) -0.0273(1) -0.0308(2)
C13 C 0.2085(1) -0.0377(1) 0.0078(2)
C14 C 0.3123(1) 0.1345(1) -0.3025(2)
C15 C 0.3957(1) 0.1242(1) -0.2586(2)
N2 N 0.3952(1) 0.0668(1) -0.1578(1)
C16 C 0.2944(1) 0.1903(1) -0.4067(2)
C17 C 0.3588(1) 0.2333(1) -0.4630(2)
C18 C 0.4414(1) 0.2219(2) -0.4181(2)
C19 C 0.4618(1) 0.1677(1) -0.3160(2)
C20 C 0.3386(1) -0.1184(1) -0.0669(2)
C21 C 0.3349(1) -0.1851(1) 0.0419(2)
C22 C 0.2555(1) -0.1779(1) 0.1140(2)
C23 C 0.1996(1) -0.1133(1) 0.1008(2)
C24 C 0.3545(1) 0.0080(1) 0.0844(2)
O1 O 0.4271(1) -0.0103(1) 0.1046(1)
O2 O 0.3124(1) 0.0625(1) 0.1570(1)
C25 C 0.3570(2) 0.0984(2) 0.2680(2)
C26 C 0.3446(1) -0.2797(1) -0.0039(2)
O3 O 0.3361(1) -0.3050(1) -0.1107(2)
O4 O 0.3676(1) -0.3328(1) 0.0915(1)
C27 C 0.3771(3) -0.4256(2) 0.0622(3)
C28 C 0.1232(1) -0.1093(2) 0.1806(2)
C29 C 0.1385(2) -0.0689(3) 0.3062(3)
loop_
_geom_bond_atom_site_label_1
_geom_bond_atom_site_label_2
_geom_bond_site_symmetry_1
_geom_bond_site_symmetry_2
C1 C2 1_555 1_555
C2 C3 1_555 1_555
C3 C4 1_555 1_555
C4 C5 1_555 1_555
C5 C6 1_555 1_555
C6 C1 1_555 1_555
C7 C1 1_555 1_555
N1 C7 1_555 1_555
C8 N1 1_555 1_555
C9 C8 1_555 1_555
C10 C9 1_555 1_555
C11 C10 1_555 1_555
C12 C11 1_555 1_555
C13 N1 1_555 1_555
C14 C10 1_555 1_555
C15 C14 1_555 1_555
N2 C11 1_555 1_555
C16 C14 1_555 1_555
C17 C16 1_555 1_555
C18 C17 1_555 1_555
C19 C15 1_555 1_555
C20 C12 1_555 1_555
C21 C20 1_555 1_555
C22 C21 1_555 1_555
C23 C13 1_555 1_555
C24 C12 1_555 1_555
O1 C24 1_555 1_555
O2 C24 1_555 1_555
C25 O2 1_555 1_555
C26 C21 1_555 1_555
O3 C26 1_555 1_555
O4 C26 1_555 1_555
C27 O4 1_555 1_555
C28 C23 1_555 1_555
C29 C28 1_555 1_555
C12 C13 1_555 1_555
C15 N2 1_555 1_555
C18 C19 1_555 1_555
C22 C23 1_555 1_555

#END
