
#######################################################################
#
#                 Cambridge Crystallographic Data Centre
#                                CCDC 
#
#######################################################################
#
# If this CIF has been generated from an entry in the Cambridge 
# Structural Database, then it will include bibliographic, chemical, 
# crystal, experimental, refinement or atomic coordinate data resulting 
# from the CCDC's data processing and validation procedures.
#
#######################################################################

data_CURKAD
_chemical_formula_moiety         'C17 H20 F2 N3 O3 1+,C8 H5 O4 1-,H2 O1'
_chemical_name_systematic        
'4-(3-carboxy-1-ethyl-6,8-difluoro-4-oxo-1,4-dihydroquinolin-7-yl)-2-methylpiperazin-1-ium 3-carboxybenzoate hydrate'
_symmetry_cell_setting           triclinic
_symmetry_space_group_name_H-M   'P -1'
_symmetry_Int_Tables_number      2
_space_group_name_Hall           '-P 1'
loop_
_symmetry_equiv_pos_site_id
_symmetry_equiv_pos_as_xyz
1 x,y,z
2 -x,-y,-z
_cell_length_a                   8.6341(15)
_cell_length_b                   10.5326(18)
_cell_length_c                   14.302(2)
_cell_angle_alpha                89.016(4)
_cell_angle_beta                 73.535(4)
_cell_angle_gamma                82.924(4)
_cell_volume                     1237.57
_exptl_crystal_colour            colorless
_exptl_crystal_description       block
_cell_formula_units_Z            2
loop_
_atom_site_label
_atom_site_type_symbol
_atom_site_fract_x
_atom_site_fract_y
_atom_site_fract_z
C1 C 0.2531(10) 1.0517(5) 0.2235(5)
H1 H 0.3684 1.0618 0.1960
C2 C 0.2467(8) 0.9396(5) 0.2799(4)
H2 H 0.1340 0.9329 0.3148
H3 H 0.3048 0.9480 0.3280
C3 C 0.2517(10) 0.8056(5) 0.1433(4)
H4 H 0.3162 0.7330 0.1043
H5 H 0.1408 0.7855 0.1678
C4 C 0.2531(10) 0.9127(5) 0.0836(4)
H6 H 0.1905 0.9002 0.0386
H7 H 0.3643 0.9186 0.0453
C5 C 0.1706(8) 1.1768(5) 0.2756(4)
H8 H 0.2291 1.1997 0.3195
H9 H 0.0608 1.1669 0.3118
H10 H 0.1698 1.2428 0.2286
C6 C 0.3841(5) 0.7195(4) 0.2663(3)
C7 C 0.5200(6) 0.7317(4) 0.2962(3)
C8 C 0.5990(5) 0.6330(4) 0.3405(3)
C9 C 0.5320(5) 0.5168(4) 0.3521(3)
C10 C 0.3958(5) 0.5027(4) 0.3217(3)
H11 H 0.3537 0.4248 0.3288
C11 C 0.3243(5) 0.6027(4) 0.2819(3)
C12 C 0.6052(5) 0.4072(4) 0.3952(3)
C13 C 0.7455(5) 0.4284(4) 0.4230(3)
C14 C 0.8008(5) 0.5431(4) 0.4114(3)
H12 H 0.8910 0.5527 0.4328
C15 C 0.8312(6) 0.3237(5) 0.4694(3)
C16 C 0.8136(6) 0.7646(5) 0.3641(4)
H13 H 0.8189 0.8031 0.3013
H14 H 0.9240 0.7435 0.3681
C17 C 0.7202(8) 0.8605(5) 0.4450(5)
H15 H 0.6156 0.8898 0.4361
H16 H 0.7802 0.9320 0.4428
H17 H 0.7060 0.8201 0.5070
F1 F 0.5805(3) 0.8441(2) 0.2784(2)
F2 F 0.1888(3) 0.5886(3) 0.2559(2)
N1 N 0.1857(6) 1.0363(4) 0.1382(3)
H18 H 0.0767 1.0401 0.1602
H19 H 0.2092 1.1015 0.0972
N2 N 0.3141(5) 0.8240(3) 0.2244(3)
N3 N 0.7355(4) 0.6460(3) 0.3710(2)
O1 O 0.5472(4) 0.3035(3) 0.4034(3)
O2 O 0.7686(5) 0.2138(3) 0.4786(3)
H20 H 0.6954 0.2186 0.4521
O3 O 0.9482(5) 0.3363(3) 0.4957(3)
C18 C 0.2885(5) 0.5878(4) 0.8824(3)
C19 C 0.3060(5) 0.4676(4) 0.9210(3)
H21 H 0.3926 0.4438 0.9468
C20 C 0.1960(5) 0.3821(4) 0.9218(3)
C21 C 0.0678(5) 0.4207(4) 0.8818(3)
H22 H -0.0068 0.3644 0.8809
C22 C 0.0509(6) 0.5406(5) 0.8439(3)
H23 H -0.0365 0.5657 0.8190
C23 C 0.1630(5) 0.6244(4) 0.8424(3)
H24 H 0.1536 0.7045 0.8148
C24 C 0.4080(6) 0.6791(5) 0.8829(3)
C25 C 0.2063(6) 0.2535(4) 0.9668(3)
O4 O 0.3962(5) 0.7902(3) 0.8579(3)
O5 O 0.5308(5) 0.6259(3) 0.9143(3)
H25 H 0.5848 0.6814 0.9225
O6 O 0.2986(4) 0.2319(3) 1.0225(3)
O7 O 0.1247(5) 0.1739(3) 0.9498(3)
O8 O 0.8534(5) 0.0225(4) 0.1788(3)
H26 H 0.8624 -0.0474 0.1522
H27 H 0.7749 0.0763 0.1819
loop_
_geom_bond_atom_site_label_1
_geom_bond_atom_site_label_2
_geom_bond_site_symmetry_1
_geom_bond_site_symmetry_2
C1 H1 1_555 1_555
C2 C1 1_555 1_555
H2 C2 1_555 1_555
H3 C2 1_555 1_555
C3 H4 1_555 1_555
H5 C3 1_555 1_555
C4 C3 1_555 1_555
H6 C4 1_555 1_555
H7 C4 1_555 1_555
C5 C1 1_555 1_555
H8 C5 1_555 1_555
H9 C5 1_555 1_555
H10 C5 1_555 1_555
C6 C7 1_555 1_555
C7 C8 1_555 1_555
C8 C9 1_555 1_555
C9 C10 1_555 1_555
C10 H11 1_555 1_555
C11 C6 1_555 1_555
C12 C9 1_555 1_555
C13 C12 1_555 1_555
C14 C13 1_555 1_555
H12 C14 1_555 1_555
C15 C13 1_555 1_555
C16 H13 1_555 1_555
H14 C16 1_555 1_555
C17 C16 1_555 1_555
H15 C17 1_555 1_555
H16 C17 1_555 1_555
H17 C17 1_555 1_555
F1 C7 1_555 1_555
F2 C11 1_555 1_555
N1 C1 1_555 1_555
H18 N1 1_555 1_555
H19 N1 1_555 1_555
N2 C2 1_555 1_555
N3 C8 1_555 1_555
O1 C12 1_555 1_555
O2 C15 1_555 1_555
H20 O2 1_555 1_555
O3 C15 1_555 1_555
C18 C19 1_555 1_555
C19 H21 1_555 1_555
C20 C19 1_555 1_555
C21 C20 1_555 1_555
H22 C21 1_555 1_555
C22 C21 1_555 1_555
H23 C22 1_555 1_555
C23 C18 1_555 1_555
H24 C23 1_555 1_555
C24 C18 1_555 1_555
C25 C20 1_555 1_555
O4 C24 1_555 1_555
O5 C24 1_555 1_555
H25 O5 1_555 1_555
O6 C25 1_555 1_555
O7 C25 1_555 1_555
O8 H26 1_555 1_555
H27 O8 1_555 1_555
C3 N2 1_555 1_555
C4 N1 1_555 1_555
C6 N2 1_555 1_555
C10 C11 1_555 1_555
C14 N3 1_555 1_555
C16 N3 1_555 1_555
C22 C23 1_555 1_555

#END
