
#######################################################################
#
#                 Cambridge Crystallographic Data Centre
#                                CCDC 
#
#######################################################################
#
# If this CIF has been generated from an entry in the Cambridge 
# Structural Database, then it will include bibliographic, chemical, 
# crystal, experimental, refinement or atomic coordinate data resulting 
# from the CCDC's data processing and validation procedures.
#
#######################################################################

data_CURKEH
_chemical_formula_moiety         
'C17 H20 F2 N3 O3 1+,C4 H4 N2 O3,C4 H3 N2 O3 1-,H2 O1'
_chemical_name_systematic        
'4-(3-carboxy-1-ethyl-6,8-difluoro-4-oxo-1,4-dihydroquinolin-7-yl)-2-methylpiperazin-1-ium 2,6-dioxo-1,2,3,6-tetrahydropyrimidin-4-olate pyrimidine-2,4,6(1H,3H,5H)-trione hydrate'
_symmetry_cell_setting           triclinic
_symmetry_space_group_name_H-M   'P -1'
_symmetry_Int_Tables_number      2
_space_group_name_Hall           '-P 1'
loop_
_symmetry_equiv_pos_site_id
_symmetry_equiv_pos_as_xyz
1 x,y,z
2 -x,-y,-z
_cell_length_a                   9.551(4)
_cell_length_b                   9.701(4)
_cell_length_c                   15.450(7)
_cell_angle_alpha                83.870(11)
_cell_angle_beta                 73.816(11)
_cell_angle_gamma                83.271(11)
_cell_volume                     1361.18
_exptl_crystal_colour            colorless
_exptl_crystal_description       block
_cell_formula_units_Z            2
loop_
_atom_site_label
_atom_site_type_symbol
_atom_site_fract_x
_atom_site_fract_y
_atom_site_fract_z
O1 O 0.2725(5) 0.8205(4) 0.1072(3)
O2 O 0.2273(5) 0.4594(4) -0.0632(3)
O3 O -0.0252(5) 0.8823(4) -0.0806(3)
N1 N 0.1063(5) 0.6729(4) -0.0700(3)
H1 H 0.0737 0.6449 -0.1110
C1 C 0.2000(6) 0.5791(5) -0.0333(4)
C2 C 0.0621(6) 0.8052(5) -0.0465(4)
C3 C 0.2246(6) 0.7651(5) 0.0539(3)
C4 C 0.2589(6) 0.6284(5) 0.0294(4)
H2 H 0.3223 0.5689 0.0553
N2 N 0.1245(5) 0.8469(4) 0.0135(3)
H3 H 0.1008 0.9310 0.0285
O4 O -0.0748(7) 0.2163(5) 0.6444(4)
O5 O 0.2164(5) 0.1320(5) 0.8487(3)
N3 N 0.1143(5) 0.3474(5) 0.8199(3)
H4 H 0.1508 0.3797 0.8577
C5 C 0.1393(7) 0.2050(6) 0.8089(4)
C6 C 0.0336(6) 0.4403(6) 0.7732(4)
C7 C -0.0187(7) 0.2509(6) 0.6968(4)
N4 N -0.0218(6) 0.3884(5) 0.7140(3)
H5 H -0.0649 0.4486 0.6826
C8 C 0.0681(7) 0.1500(6) 0.7481(4)
H6 H 0.0030 0.0830 0.7839
H7 H 0.1437 0.0992 0.7041
O6 O 0.0200(5) 0.5649(4) 0.7828(3)
C9 C 0.2456(8) 0.1785(7) 0.1966(5)
H8 H 0.1581 0.2074 0.1755
C10 C 0.3237(7) 0.3000(6) 0.2031(4)
H9 H 0.3553 0.3493 0.1440
H10 H 0.2579 0.3637 0.2436
C11 C 0.5537(7) 0.1568(6) 0.1796(4)
H11 H 0.6362 0.1275 0.2044
H12 H 0.5903 0.2039 0.1203
C12 C 0.4809(7) 0.0301(6) 0.1709(5)
H13 H 0.5498 -0.0305 0.1285
C13 C 0.4286(14) -0.0527(11) 0.2665(8)
H14 H 0.3972 0.0118 0.3126
H15 H 0.5083 -0.1155 0.2776
H16 H 0.3487 -0.1046 0.2672
C14 C 0.5069(5) 0.3443(5) 0.2801(4)
C15 C 0.4891(7) 0.4899(6) 0.2658(4)
C16 C 0.5403(7) 0.5767(6) 0.3124(4)
H17 H 0.5249 0.6727 0.3017
C17 C 0.6147(6) 0.5212(5) 0.3752(3)
C18 C 0.6377(6) 0.3758(5) 0.3932(4)
C19 C 0.5836(7) 0.2942(6) 0.3445(4)
C20 C 0.6677(6) 0.6183(6) 0.4250(4)
C21 C 0.7445(6) 0.5572(6) 0.4881(4)
C22 C 0.7639(7) 0.4129(6) 0.5021(4)
H18 H 0.8132 0.3752 0.5445
C23 C 0.7982(7) 0.6428(7) 0.5418(4)
C24 C 0.7508(10) 0.1722(7) 0.4820(6)
H19 H 0.7672 0.1593 0.5416
H20 H 0.6698 0.1202 0.4825
C25 C 0.8838(11) 0.1218(10) 0.4139(8)
H21 H 0.8793 0.1609 0.3549
H22 H 0.8902 0.0221 0.4157
H23 H 0.9686 0.1497 0.4269
F1 F 0.4248(5) 0.5489(4) 0.2035(3)
F2 F 0.5955(4) 0.1539(3) 0.3610(2)
N5 N 0.3504(5) 0.0782(5) 0.1367(3)
H24 H 0.3041 0.0040 0.1336
H25 H 0.3801 0.1196 0.0806
N6 N 0.4520(5) 0.2515(5) 0.2374(3)
N7 N 0.7154(5) 0.3252(5) 0.4578(3)
O7 O 0.6445(5) 0.7489(4) 0.4097(3)
O8 O 0.8701(5) 0.5937(4) 0.5940(3)
O9 O 0.7718(6) 0.7778(4) 0.5281(3)
H26 H 0.7278 0.7947 0.4891
O10 O 0.5776(5) 0.7658(5) 0.0262(3)
H30 H 0.4897 0.7721 0.0517
H31 H 0.6362 0.7161 0.0485
C26? C 0.211(3) 0.086(3) 0.2845(15)
H27? H 0.1857 0.1435 0.3347
H28? H 0.2956 0.0236 0.2873
H29? H 0.1307 0.0341 0.2870
loop_
_geom_bond_atom_site_label_1
_geom_bond_atom_site_label_2
_geom_bond_site_symmetry_1
_geom_bond_site_symmetry_2
O1 C3 1_555 1_555
O2 C1 1_555 1_555
O3 C2 1_555 1_555
N1 H1 1_555 1_555
C1 N1 1_555 1_555
C2 N1 1_555 1_555
C3 C4 1_555 1_555
C4 C1 1_555 1_555
H2 C4 1_555 1_555
N2 C2 1_555 1_555
H3 N2 1_555 1_555
O4 C7 1_555 1_555
O5 C5 1_555 1_555
N3 H4 1_555 1_555
C5 N3 1_555 1_555
C6 N3 1_555 1_555
C7 N4 1_555 1_555
N4 C6 1_555 1_555
H5 N4 1_555 1_555
C8 C5 1_555 1_555
H6 C8 1_555 1_555
H7 C8 1_555 1_555
O6 C6 1_555 1_555
C9 H8 1_555 1_555
C10 C9 1_555 1_555
H9 C10 1_555 1_555
H10 C10 1_555 1_555
C11 H11 1_555 1_555
H12 C11 1_555 1_555
C12 C11 1_555 1_555
H13 C12 1_555 1_555
C13 C12 1_555 1_555
H14 C13 1_555 1_555
H15 C13 1_555 1_555
H16 C13 1_555 1_555
C14 C15 1_555 1_555
C15 C16 1_555 1_555
C16 H17 1_555 1_555
C17 C16 1_555 1_555
C18 C17 1_555 1_555
C19 C14 1_555 1_555
C20 C17 1_555 1_555
C21 C20 1_555 1_555
C22 C21 1_555 1_555
H18 C22 1_555 1_555
C23 C21 1_555 1_555
C24 H19 1_555 1_555
H20 C24 1_555 1_555
C25 C24 1_555 1_555
H21 C25 1_555 1_555
H22 C25 1_555 1_555
H23 C25 1_555 1_555
F1 C15 1_555 1_555
F2 C19 1_555 1_555
N5 C9 1_555 1_555
H24 N5 1_555 1_555
H25 N5 1_555 1_555
N6 C10 1_555 1_555
N7 C18 1_555 1_555
O7 C20 1_555 1_555
O8 C23 1_555 1_555
O9 C23 1_555 1_555
H26 O9 1_555 1_555
O10 H30 1_555 1_555
H31 O10 1_555 1_555
C3 N2 1_555 1_555
C7 C8 1_555 1_555
C11 N6 1_555 1_555
C12 N5 1_555 1_555
C14 N6 1_555 1_555
C18 C19 1_555 1_555
C22 N7 1_555 1_555
C24 N7 1_555 1_555

#END
