
#######################################################################
#
#                 Cambridge Crystallographic Data Centre
#                                CCDC 
#
#######################################################################
#
# If this CIF has been generated from an entry in the Cambridge 
# Structural Database, then it will include bibliographic, chemical, 
# crystal, experimental, refinement or atomic coordinate data resulting 
# from the CCDC's data processing and validation procedures.
#
#######################################################################

data_CURLIL
_chemical_formula_moiety         'C15 H16 N4 O3'
_chemical_name_systematic        
4-((2-Methoxy-4-nitrophenylazo)phenyl)dimethylamine
_symmetry_cell_setting           triclinic
_symmetry_space_group_name_H-M   'P -1'
_symmetry_Int_Tables_number      2
_space_group_name_Hall           '-P 1'
loop_
_symmetry_equiv_pos_site_id
_symmetry_equiv_pos_as_xyz
1 x,y,z
2 -x,-y,-z
_cell_length_a                   7.301(4)
_cell_length_b                   13.854(7)
_cell_length_c                   14.575(7)
_cell_angle_alpha                90.842(9)
_cell_angle_beta                 90.334(9)
_cell_angle_gamma                91.935(8)
_cell_volume                     1473.2
_exptl_crystal_colour            red
_exptl_crystal_description       polyhedron
_chemical_melting_point          '167-177 deg.C'
_cell_formula_units_Z            4
_exptl_crystal_recrystallization_method acetone
loop_
_atom_site_label
_atom_site_type_symbol
_atom_site_fract_x
_atom_site_fract_y
_atom_site_fract_z
O1 O 0.6540(3) 0.31797(13) 0.38784(11)
O2 O 0.4116(3) 0.57467(13) 0.18652(11)
O3 O 0.2109(3) 0.64488(13) 0.27030(12)
N1 N 0.4244(3) 0.30316(13) 0.52950(11)
N2 N 0.3443(3) 0.31879(13) 0.60468(12)
N3 N 0.3213(3) 0.5816(1) 0.25721(13)
N4 N 0.3384(3) 0.0283(1) 0.86762(12)
C1 C 0.3975(3) 0.3774(2) 0.4646(1)
C2 C 0.5162(3) 0.3811(2) 0.3885(2)
C3 C 0.4887(3) 0.4479(2) 0.3202(1)
C4 C 0.3473(3) 0.5108(2) 0.3295(1)
C5 C 0.2312(3) 0.5100(2) 0.4031(2)
C6 C 0.2573(3) 0.4422(2) 0.4706(2)
C7 C 0.3559(3) 0.2440(2) 0.66909(13)
C8 C 0.2683(3) 0.2595(2) 0.7527(1)
C9 C 0.2655(3) 0.1894(2) 0.8193(1)
C10 C 0.3468(3) 0.1002(2) 0.80381(13)
C11 C 0.4383(3) 0.0865(2) 0.71971(13)
C12 C 0.4429(3) 0.1572(2) 0.6542(1)
C13 C 0.7784(5) 0.3225(3) 0.3124(2)
C14 C 0.2436(4) 0.0424(2) 0.9540(2)
C15 C 0.3932(4) -0.0685(2) 0.8440(2)
H1 H 0.5660(3) 0.4503(2) 0.2680(1)
H2 H 0.1356(3) 0.5547(2) 0.4078(2)
H3 H 0.1776(3) 0.4401(2) 0.5219(2)
H4 H 0.2100(3) 0.3187(2) 0.7639(1)
H5 H 0.2079(3) 0.2017(2) 0.8764(1)
H6 H 0.4975(3) 0.0276(2) 0.70816(13)
H7 H 0.5061(3) 0.1467(2) 0.5983(1)
H8 H 0.8677(5) 0.2748(3) 0.3192(2)
H9 H 0.7128(5) 0.3110(3) 0.2565(2)
H10 H 0.8373(5) 0.3846(3) 0.3113(2)
H11 H 0.2994(4) 0.0956(2) 0.9867(2)
H12 H 0.1187(4) 0.0550(2) 0.9421(2)
H13 H 0.2510(4) -0.0142(2) 0.9897(2)
H14 H 0.3782(4) -0.1088(2) 0.8958(2)
H15 H 0.3192(4) -0.0935(2) 0.7948(2)
H16 H 0.5181(4) -0.0666(2) 0.8260(2)
O4 O -0.1596(2) 0.21002(12) 0.00005(11)
O5 O 0.0720(3) 0.4960(1) -0.17653(12)
O6 O 0.2932(3) 0.55834(13) -0.09488(12)
N5 N 0.0806(3) 0.18748(13) 0.13651(11)
N6 N 0.1585(3) 0.20078(13) 0.21374(12)
N7 N 0.1718(3) 0.4964(1) -0.10912(13)
N8 N 0.1689(3) -0.10269(13) 0.46200(11)
C16 C 0.1039(3) 0.2692(2) 0.07908(13)
C17 C -0.0211(3) 0.2783(2) 0.0059(1)
C18 C 0.0007(3) 0.3535(2) -0.0551(1)
C19 C 0.1473(3) 0.4181(2) -0.0426(1)
C20 C 0.2718(4) 0.4120(2) 0.0281(2)
C21 C 0.2491(3) 0.3362(2) 0.0885(2)
C22 C 0.1525(3) 0.1209(2) 0.27215(13)
C23 C 0.2271(3) 0.1371(2) 0.3597(1)
C24 C 0.2295(3) 0.0643(2) 0.4237(1)
C25 C 0.1606(3) -0.0296(2) 0.40129(13)
C26 C 0.0849(3) -0.0451(2) 0.3118(2)
C27 C 0.0809(3) 0.0280(2) 0.2493(1)
C28 C -0.2919(4) 0.2197(2) -0.0720(2)
C29 C 0.2560(3) -0.0883(2) 0.5518(1)
C30 C 0.0987(4) -0.1998(2) 0.4404(2)
H17 H -0.0834(3) 0.3606(2) -0.1043(1)
H18 H 0.3702(4) 0.4582(2) 0.0353(2)
H19 H 0.3344(3) 0.3299(2) 0.1374(2)
H20 H 0.2770(3) 0.1994(2) 0.3757(1)
H21 H 0.2781(3) 0.0776(2) 0.4833(1)
H22 H 0.0361(3) -0.1073(2) 0.2950(1)
H23 H 0.0293(3) 0.0158(2) 0.1902(1)
H24 H -0.3502(4) 0.2797(2) -0.0650(2)
H25 H -0.2322(4) 0.2177(2) -0.1297(2)
H26 H -0.3811(4) 0.1683(2) -0.0692(2)
H27 H 0.2489(3) -0.1470(2) 0.5847(1)
H28 H 0.3809(3) -0.0688(2) 0.5441(1)
H29 H 0.1948(3) -0.0397(2) 0.5852(1)
H30 H -0.0288(4) -0.1982(2) 0.4273(2)
H31 H 0.1609(4) -0.2244(2) 0.3884(2)
H32 H 0.1180(4) -0.2403(2) 0.4913(2)
loop_
_geom_bond_atom_site_label_1
_geom_bond_atom_site_label_2
_geom_bond_site_symmetry_1
_geom_bond_site_symmetry_2
O1 C2 1_555 1_555
O2 N3 1_555 1_555
O3 N3 1_555 1_555
O4 C17 1_555 1_555
O5 N7 1_555 1_555
O6 N7 1_555 1_555
N1 N2 1_555 1_555
N2 C7 1_555 1_555
N3 C4 1_555 1_555
N4 C10 1_555 1_555
N5 N6 1_555 1_555
N6 C22 1_555 1_555
N7 C19 1_555 1_555
N8 C25 1_555 1_555
C1 N1 1_555 1_555
C2 C1 1_555 1_555
C3 C2 1_555 1_555
C4 C3 1_555 1_555
C5 C4 1_555 1_555
C6 C1 1_555 1_555
C7 C8 1_555 1_555
C8 C9 1_555 1_555
C9 C10 1_555 1_555
C10 C11 1_555 1_555
C11 C12 1_555 1_555
C12 C7 1_555 1_555
C13 O1 1_555 1_555
C14 N4 1_555 1_555
C15 N4 1_555 1_555
C16 N5 1_555 1_555
C17 C16 1_555 1_555
C18 C17 1_555 1_555
C19 C18 1_555 1_555
C20 C19 1_555 1_555
C21 C16 1_555 1_555
C22 C23 1_555 1_555
C23 C24 1_555 1_555
C24 C25 1_555 1_555
C25 C26 1_555 1_555
C26 C27 1_555 1_555
C27 C22 1_555 1_555
C28 O4 1_555 1_555
C29 N8 1_555 1_555
C30 N8 1_555 1_555
H1 C3 1_555 1_555
H2 C5 1_555 1_555
H3 C6 1_555 1_555
H4 C8 1_555 1_555
H5 C9 1_555 1_555
H6 C11 1_555 1_555
H7 C12 1_555 1_555
H8 C13 1_555 1_555
H9 C13 1_555 1_555
H10 C13 1_555 1_555
H11 C14 1_555 1_555
H12 C14 1_555 1_555
H13 C14 1_555 1_555
H14 C15 1_555 1_555
H15 C15 1_555 1_555
H16 C15 1_555 1_555
H17 C18 1_555 1_555
H18 C20 1_555 1_555
H19 C21 1_555 1_555
H20 C23 1_555 1_555
H21 C24 1_555 1_555
H22 C26 1_555 1_555
H23 C27 1_555 1_555
H24 C28 1_555 1_555
H25 C28 1_555 1_555
H26 C28 1_555 1_555
H27 C29 1_555 1_555
H28 C29 1_555 1_555
H29 C29 1_555 1_555
H30 C30 1_555 1_555
H31 C30 1_555 1_555
H32 C30 1_555 1_555
C5 C6 1_555 1_555
C20 C21 1_555 1_555

#END
