
#######################################################################
#
#                 Cambridge Crystallographic Data Centre
#                                CCDC 
#
#######################################################################
#
# If this CIF has been generated from an entry in the Cambridge 
# Structural Database, then it will include bibliographic, chemical, 
# crystal, experimental, refinement or atomic coordinate data resulting 
# from the CCDC's data processing and validation procedures.
#
#######################################################################

data_CURNOT
_chemical_formula_moiety         'C5 H2 Br2 O2'
_chemical_name_systematic        5-(Dibromomethylene)furan-2(5H)-one
_symmetry_cell_setting           monoclinic
_symmetry_space_group_name_H-M   'P 21/c'
_symmetry_Int_Tables_number      14
_space_group_name_Hall           '-P 2ybc'
loop_
_symmetry_equiv_pos_site_id
_symmetry_equiv_pos_as_xyz
1 x,y,z
2 -x,1/2+y,1/2-z
3 -x,-y,-z
4 x,1/2-y,1/2+z
_cell_length_a                   7.1004(12)
_cell_length_b                   6.4901(11)
_cell_length_c                   14.311(2)
_cell_angle_alpha                90
_cell_angle_beta                 92.645(2)
_cell_angle_gamma                90
_cell_volume                     658.781
_cell_formula_units_Z            4
loop_
_atom_site_label
_atom_site_type_symbol
_atom_site_fract_x
_atom_site_fract_y
_atom_site_fract_z
Br1 Br 0.6778(1) -0.4987(1) -0.1007(1)
Br2 Br 0.6212(1) -0.0383(1) -0.1741(1)
O1 O 0.7706(3) 0.0618(4) 0.0251(2)
C1 C 0.7576(5) -0.1472(5) 0.0075(3)
C2 C 0.8269(5) -0.2569(5) 0.0899(2)
C3 C 0.8807(5) -0.1192(6) 0.1542(3)
C4 C 0.6945(5) -0.2165(5) -0.0759(3)
C5 C 0.8456(5) 0.0850(6) 0.1164(3)
O2 O 0.8687(4) 0.2556(4) 0.1492(2)
loop_
_geom_bond_atom_site_label_1
_geom_bond_atom_site_label_2
_geom_bond_site_symmetry_1
_geom_bond_site_symmetry_2
Br1 C4 1_555 1_555
Br2 C4 1_555 1_555
O1 C1 1_555 1_555
C1 C2 1_555 1_555
C2 C3 1_555 1_555
C3 C5 1_555 1_555
C4 C1 1_555 1_555
C5 O1 1_555 1_555
O2 C5 1_555 1_555

#END
