
#######################################################################
#
#                 Cambridge Crystallographic Data Centre
#                                CCDC 
#
#######################################################################
#
# If this CIF has been generated from an entry in the Cambridge 
# Structural Database, then it will include bibliographic, chemical, 
# crystal, experimental, refinement or atomic coordinate data resulting 
# from the CCDC's data processing and validation procedures.
#
#######################################################################

data_CURPUB
_chemical_formula_moiety         'C15 H13 N1 O1'
_chemical_name_systematic        2-((3-Phenylprop-2-en-1-ylidene)amino)phenol
_symmetry_cell_setting           monoclinic
_symmetry_space_group_name_H-M   'C 2/c'
_symmetry_Int_Tables_number      15
_space_group_name_Hall           '-C 2yc'
loop_
_symmetry_equiv_pos_site_id
_symmetry_equiv_pos_as_xyz
1 x,y,z
2 1/2+x,1/2+y,z
3 1/2-x,1/2+y,1/2-z
4 -x,y,1/2-z
5 -x,-y,-z
6 1/2-x,1/2-y,-z
7 1/2+x,1/2-y,1/2+z
8 x,-y,1/2+z
_cell_length_a                   21.704(8)
_cell_length_b                   6.686(9)
_cell_length_c                   19.701(10)
_cell_angle_alpha                90
_cell_angle_beta                 119.51(3)
_cell_angle_gamma                90
_cell_volume                     2487.99
_cell_formula_units_Z            8
_exptl_crystal_recrystallization_method methanol
loop_
_atom_site_label
_atom_site_type_symbol
_atom_site_fract_x
_atom_site_fract_y
_atom_site_fract_z
C1 C 0.8341(1) -0.6578(3) -0.2142(1)
C2 C 0.8800(1) -0.5058(3) -0.1695(1)
C3 C 0.9514(1) -0.5230(4) -0.1475(1)
C4 C 0.9759(1) -0.6867(4) -0.1693(1)
C5 C 0.9298(1) -0.8350(4) -0.2130(1)
C6 C 0.8589(1) -0.8220(3) -0.2361(1)
C7 C 0.8848(1) -0.2461(3) -0.0880(1)
C8 C 0.8597(1) -0.0659(3) -0.0698(1)
C9 C 0.8909(1) 0.0119(4) 0.0015(1)
C10 C 0.8687(1) 0.1863(4) 0.0286(1)
C11 C 0.8920(1) 0.2094(5) 0.1076(1)
C12 C 0.8700(2) 0.3681(5) 0.1349(2)
C13 C 0.8257(2) 0.5081(5) 0.0847(2)
C14 C 0.8027(2) 0.4898(4) 0.0063(2)
C15 C 0.8236(1) 0.3305(4) -0.0217(1)
N1 N 0.8509(1) -0.3343(2) -0.1537(1)
O1 O 0.7651(1) -0.6356(2) -0.2331(1)
H1 H 0.9829 -0.4228 -0.1177
H2 H 1.0236 -0.6968 -0.1544
H3 H 0.9467 -0.9458 -0.2274
H4 H 0.8279 -0.9229 -0.2661
H5 H 0.9231 0.1160 0.1428
H6 H 0.8856 0.3794 0.1879
H7 H 0.8110 0.6155 0.1032
H8 H 0.7727 0.5863 -0.0282
H9 H 0.8072 0.3196 -0.0749
H10 H 0.7353(16) -0.7320(40) -0.2685(16)
H11 H 0.9294(12) -0.3080(30) -0.0466(13)
H12 H 0.8171(11) -0.0080(30) -0.1109(11)
H13 H 0.9299(12) -0.0570(30) 0.0401(12)
loop_
_geom_bond_atom_site_label_1
_geom_bond_atom_site_label_2
_geom_bond_site_symmetry_1
_geom_bond_site_symmetry_2
C1 C2 1_555 1_555
C2 C3 1_555 1_555
C3 C4 1_555 1_555
C4 C5 1_555 1_555
C5 C6 1_555 1_555
C6 C1 1_555 1_555
C7 C8 1_555 1_555
C8 C9 1_555 1_555
C9 C10 1_555 1_555
C10 C11 1_555 1_555
C11 C12 1_555 1_555
C12 C13 1_555 1_555
C13 C14 1_555 1_555
C14 C15 1_555 1_555
C15 C10 1_555 1_555
N1 C2 1_555 1_555
O1 C1 1_555 1_555
H1 C3 1_555 1_555
H2 C4 1_555 1_555
H3 C5 1_555 1_555
H4 C6 1_555 1_555
H5 C11 1_555 1_555
H6 C12 1_555 1_555
H7 C13 1_555 1_555
H8 C14 1_555 1_555
H9 C15 1_555 1_555
H10 O1 1_555 1_555
H11 C7 1_555 1_555
H12 C8 1_555 1_555
H13 C9 1_555 1_555
C7 N1 1_555 1_555

#END
