
#######################################################################
#
#                 Cambridge Crystallographic Data Centre
#                                CCDC 
#
#######################################################################
#
# If this CIF has been generated from an entry in the Cambridge 
# Structural Database, then it will include bibliographic, chemical, 
# crystal, experimental, refinement or atomic coordinate data resulting 
# from the CCDC's data processing and validation procedures.
#
#######################################################################

data_CURQUC
_chemical_formula_moiety         'C14 H12 Cl1 N3 O3'
_chemical_name_systematic        
2-(4-Chlorophenyl)-4-hydroxy-3-nitrocyclohexane-1,1-dicarbonitrile
_symmetry_cell_setting           monoclinic
_symmetry_space_group_name_H-M   'P 21/c'
_symmetry_Int_Tables_number      14
_space_group_name_Hall           '-P 2ybc'
loop_
_symmetry_equiv_pos_site_id
_symmetry_equiv_pos_as_xyz
1 x,y,z
2 -x,1/2+y,1/2-z
3 -x,-y,-z
4 x,1/2-y,1/2+z
_cell_length_a                   7.9125(16)
_cell_length_b                   21.013(4)
_cell_length_c                   8.3988(17)
_cell_angle_alpha                90
_cell_angle_beta                 91.13(3)
_cell_angle_gamma                90
_cell_volume                     1396.16
_cell_formula_units_Z            4
loop_
_atom_site_label
_atom_site_type_symbol
_atom_site_fract_x
_atom_site_fract_y
_atom_site_fract_z
Cl1 Cl 0.11052(5) 0.313884(19) 0.45576(5)
O1 O 0.81952(14) 0.45752(5) 1.19696(14)
H1 H 0.8247 0.4647 1.2929
O2 O 0.48983(16) 0.34985(6) 1.27314(16)
O3 O 0.43614(14) 0.43149(5) 1.12377(15)
N1 N 0.52106(16) 0.38487(6) 1.16138(16)
N2 N 0.83682(18) 0.44816(6) 0.54775(18)
N3 N 0.84863(16) 0.26302(6) 0.75653(18)
C1 C 0.83093(19) 0.39089(7) 1.17049(19)
H2 H 0.8316 0.3685 1.2729
C2 C 0.99095(19) 0.37494(7) 1.0816(2)
H3 H 1.0885 0.3892 1.1436
H4 H 0.9994 0.3292 1.0694
C3 C 0.99235(19) 0.40606(7) 0.91862(19)
H5 H 1.0944 0.3940 0.8641
H6 H 0.9926 0.4520 0.9308
C4 C 0.83558(18) 0.38556(7) 0.81755(19)
C5 C 0.66601(18) 0.40021(7) 0.90513(18)
H7 H 0.6578 0.4464 0.9195
C6 C 0.67705(18) 0.36955(7) 1.06943(19)
H8 H 0.6830 0.3233 1.0557
C7 C 0.83562(19) 0.42035(7) 0.6643(2)
C8 C 0.84452(18) 0.31631(7) 0.78081(19)
C9 C 0.51590(18) 0.37877(7) 0.80355(19)
C10 C 0.44090(19) 0.42189(7) 0.6975(2)
H9 H 0.4754 0.4642 0.6988
C11 C 0.31578(19) 0.40259(7) 0.59039(19)
H10 H 0.2676 0.4314 0.5188
C12 C 0.26390(18) 0.33984(7) 0.59178(19)
C13 C 0.33121(18) 0.29647(8) 0.6986(2)
H11 H 0.2928 0.2546 0.6995
C14 C 0.45708(19) 0.31622(7) 0.8046(2)
H12 H 0.5029 0.2874 0.8774
loop_
_geom_bond_atom_site_label_1
_geom_bond_atom_site_label_2
_geom_bond_site_symmetry_1
_geom_bond_site_symmetry_2
Cl1 C12 1_555 1_555
O1 H1 1_555 1_555
O2 N1 1_555 1_555
O3 N1 1_555 1_555
N1 C6 1_555 1_555
N2 C7 1_555 1_555
N3 C8 1_555 1_555
C1 O1 1_555 1_555
H2 C1 1_555 1_555
C2 C1 1_555 1_555
H3 C2 1_555 1_555
H4 C2 1_555 1_555
C3 C2 1_555 1_555
H5 C3 1_555 1_555
H6 C3 1_555 1_555
C4 C3 1_555 1_555
C5 C4 1_555 1_555
H7 C5 1_555 1_555
C6 C1 1_555 1_555
H8 C6 1_555 1_555
C7 C4 1_555 1_555
C8 C4 1_555 1_555
C9 C5 1_555 1_555
C10 C9 1_555 1_555
H9 C10 1_555 1_555
C11 C10 1_555 1_555
H10 C11 1_555 1_555
C12 C11 1_555 1_555
C13 C12 1_555 1_555
H11 C13 1_555 1_555
C14 C9 1_555 1_555
H12 C14 1_555 1_555
C5 C6 1_555 1_555
C13 C14 1_555 1_555

#END
