
#######################################################################
#
#                 Cambridge Crystallographic Data Centre
#                                CCDC 
#
#######################################################################
#
# If this CIF has been generated from an entry in the Cambridge 
# Structural Database, then it will include bibliographic, chemical, 
# crystal, experimental, refinement or atomic coordinate data resulting 
# from the CCDC's data processing and validation procedures.
#
#######################################################################

data_CURXIY
_chemical_formula_moiety         'C19 H13 Cl1 N2 O1'
_chemical_name_systematic        
3-(2-chlorophenyl)-8a-(pyridin-2-yl)indolizin-1(8aH)-one
_symmetry_cell_setting           triclinic
_symmetry_space_group_name_H-M   'P -1'
_symmetry_Int_Tables_number      2
_space_group_name_Hall           '-P 1'
loop_
_symmetry_equiv_pos_site_id
_symmetry_equiv_pos_as_xyz
1 x,y,z
2 -x,-y,-z
_cell_length_a                   7.400(3)
_cell_length_b                   10.351(3)
_cell_length_c                   11.137(4)
_cell_angle_alpha                63.632(9)
_cell_angle_beta                 84.599(15)
_cell_angle_gamma                80.315(16)
_cell_volume                     753.237
_exptl_crystal_colour            yellow
_exptl_crystal_description       block
_cell_formula_units_Z            2
loop_
_atom_site_label
_atom_site_type_symbol
_atom_site_fract_x
_atom_site_fract_y
_atom_site_fract_z
Cl1 Cl 0.30638(8) 0.39730(5) 0.40249(5)
O1 O 0.12624(19) 1.06700(14) 0.13179(14)
N1 N 0.3264(2) 0.9583(2) 0.42058(18)
N2 N 0.4100(2) 0.72715(16) 0.24527(16)
C1 C 0.2975(2) 0.8522(2) 0.39031(18)
C2 C 0.2010(3) 0.7394(2) 0.4732(2)
H1 H 0.1852 0.6670 0.4489
C3 C 0.1287(3) 0.7374(3) 0.5938(2)
H2 H 0.0622 0.6639 0.6512
C4 C 0.1572(3) 0.8466(3) 0.6273(2)
H3 H 0.1098 0.8481 0.7071
C5 C 0.2574(3) 0.9524(3) 0.5394(2)
H4 H 0.2788 1.0240 0.5630
C6 C 0.3688(2) 0.86904(19) 0.25016(18)
C7 C 0.5312(3) 0.9497(2) 0.2045(2)
H5 H 0.5144 1.0509 0.1673
C8 C 0.6996(3) 0.8760(2) 0.2173(2)
H6 H 0.8002 0.9260 0.1956
C9 C 0.7292(3) 0.7189(2) 0.2647(2)
H7 H 0.8454 0.6667 0.2898
C10 C 0.5879(3) 0.6498(2) 0.27197(19)
H8 H 0.6077 0.5506 0.2947
C11 C 0.2834(2) 0.71557(19) 0.16990(18)
C12 C 0.1568(2) 0.83774(19) 0.11883(18)
H9 H 0.0576 0.8502 0.0674
C13 C 0.2012(2) 0.9438(2) 0.15709(18)
C14 C 0.2859(2) 0.5902(2) 0.1383(2)
C15 C 0.2638(3) 0.6226(2) 0.0026(2)
H10 H 0.2555 0.7187 -0.0623
C16 C 0.2543(3) 0.5135(2) -0.0349(2)
H11 H 0.2399 0.5365 -0.1245
C17 C 0.2661(3) 0.3703(2) 0.0605(2)
H12 H 0.2597 0.2972 0.0347
C18 C 0.2874(3) 0.3348(2) 0.1942(2)
H13 H 0.2957 0.2383 0.2582
C19 C 0.2965(3) 0.4451(2) 0.2321(2)
loop_
_geom_bond_atom_site_label_1
_geom_bond_atom_site_label_2
_geom_bond_site_symmetry_1
_geom_bond_site_symmetry_2
Cl1 C19 1_555 1_555
O1 C13 1_555 1_555
N1 C1 1_555 1_555
N2 C6 1_555 1_555
C1 C2 1_555 1_555
C2 H1 1_555 1_555
C3 C2 1_555 1_555
H2 C3 1_555 1_555
C4 C3 1_555 1_555
H3 C4 1_555 1_555
C5 N1 1_555 1_555
H4 C5 1_555 1_555
C6 C1 1_555 1_555
C7 C6 1_555 1_555
H5 C7 1_555 1_555
C8 C7 1_555 1_555
H6 C8 1_555 1_555
C9 C8 1_555 1_555
H7 C9 1_555 1_555
C10 N2 1_555 1_555
H8 C10 1_555 1_555
C11 N2 1_555 1_555
C12 C11 1_555 1_555
H9 C12 1_555 1_555
C13 C6 1_555 1_555
C14 C11 1_555 1_555
C15 C14 1_555 1_555
H10 C15 1_555 1_555
C16 C15 1_555 1_555
H11 C16 1_555 1_555
C17 C16 1_555 1_555
H12 C17 1_555 1_555
C18 C17 1_555 1_555
H13 C18 1_555 1_555
C19 C14 1_555 1_555
C4 C5 1_555 1_555
C9 C10 1_555 1_555
C12 C13 1_555 1_555
C18 C19 1_555 1_555

#END
