
#######################################################################
#
#                 Cambridge Crystallographic Data Centre
#                                CCDC 
#
#######################################################################
#
# If this CIF has been generated from an entry in the Cambridge 
# Structural Database, then it will include bibliographic, chemical, 
# crystal, experimental, refinement or atomic coordinate data resulting 
# from the CCDC's data processing and validation procedures.
#
#######################################################################

data_CUSDOL
_chemical_formula_moiety         'C14 H10 O5'
_chemical_name_systematic        '2-(4-carboxyphenoxy)benzoic acid'
_symmetry_cell_setting           monoclinic
_symmetry_space_group_name_H-M   'C 2/c'
_symmetry_Int_Tables_number      15
_space_group_name_Hall           '-C 2yn'
loop_
_symmetry_equiv_pos_site_id
_symmetry_equiv_pos_as_xyz
1 x,y,z
2 -x,y,1/2-z
3 1/2+x,1/2+y,z
4 1/2-x,1/2+y,1/2-z
5 -x,-y,-z
6 x,-y,1/2+z
7 1/2-x,1/2-y,-z
8 1/2+x,1/2-y,1/2+z
_cell_length_a                   29.928(4)
_cell_length_b                   5.3654(7)
_cell_length_c                   16.713(3)
_cell_angle_alpha                90
_cell_angle_beta                 110.698(2)
_cell_angle_gamma                90
_cell_volume                     2510.49
_exptl_crystal_colour            colorless
_exptl_crystal_description       Prism
_cell_formula_units_Z            8
loop_
_atom_site_label
_atom_site_type_symbol
_atom_site_fract_x
_atom_site_fract_y
_atom_site_fract_z
O1 O 0.13764(7) 1.1737(4) 0.04424(13)
C1 C 0.19370(10) 0.9571(6) 0.29756(18)
C2 C 0.15446(10) 1.0914(6) 0.12763(18)
O2 O 0.24871(9) 1.0173(5) 0.43688(15)
C3 C 0.11058(11) 1.0117(6) -0.01920(18)
C4 C 0.15872(11) 0.8125(6) 0.23977(18)
H1 H 0.1486 0.6676 0.2588
C5 C 0.20825(11) 1.1742(6) 0.26848(19)
H2 H 0.2315 1.2744 0.3065
O3 O 0.20616(8) 0.6667(5) 0.40989(13)
O4 O 0.05297(8) 1.3570(5) 0.03718(15)
C6 C 0.21687(11) 0.8719(7) 0.38647(19)
C7 C 0.18856(11) 1.2417(6) 0.1841(2)
H3 H 0.1982 1.3880 0.1650
C8 C 0.06205(11) 1.0536(6) -0.0599(2)
C9 C 0.13857(11) 0.8778(7) 0.15485(19)
H4 H 0.1148 0.7801 0.1168
O5 O -0.00708(9) 1.2921(6) -0.08395(18)
C10 C 0.03533(12) 1.2477(7) -0.0325(2)
C11 C 0.03749(13) 0.9010(7) -0.1290(2)
H5 H 0.0051 0.9276 -0.1581
C12 C 0.13316(12) 0.8223(7) -0.0453(2)
H6 H 0.1657 0.7958 -0.0173
C13 C 0.10811(14) 0.6727(7) -0.1123(2)
H7 H 0.1236 0.5433 -0.1290
C14 C 0.06022(15) 0.7123(7) -0.1552(2)
H8 H 0.0433 0.6123 -0.2014
H9 H 0.2635(16) 0.967(9) 0.4862(14)
H10 H -0.0199(19) 1.408(8) -0.067(3)
loop_
_geom_bond_atom_site_label_1
_geom_bond_atom_site_label_2
_geom_bond_site_symmetry_1
_geom_bond_site_symmetry_2
O1 C2 1_555 1_555
C1 C4 1_555 1_555
C2 C7 1_555 1_555
O2 C6 1_555 1_555
C3 O1 1_555 1_555
C4 H1 1_555 1_555
C5 C1 1_555 1_555
H2 C5 1_555 1_555
O3 C6 1_555 1_555
O4 C10 1_555 1_555
C6 C1 1_555 1_555
C7 C5 1_555 1_555
H3 C7 1_555 1_555
C8 C3 1_555 1_555
C9 C2 1_555 1_555
H4 C9 1_555 1_555
O5 C10 1_555 1_555
C10 C8 1_555 1_555
C11 C8 1_555 1_555
H5 C11 1_555 1_555
C12 C3 1_555 1_555
H6 C12 1_555 1_555
C13 C12 1_555 1_555
H7 C13 1_555 1_555
C14 C11 1_555 1_555
H8 C14 1_555 1_555
H9 O2 1_555 1_555
H10 O5 1_555 1_555
C4 C9 1_555 1_555
C13 C14 1_555 1_555

#END
