
#######################################################################
#
#                 Cambridge Crystallographic Data Centre
#                                CCDC 
#
#######################################################################
#
# If this CIF has been generated from an entry in the Cambridge 
# Structural Database, then it will include bibliographic, chemical, 
# crystal, experimental, refinement or atomic coordinate data resulting 
# from the CCDC's data processing and validation procedures.
#
#######################################################################

data_CUSHII
_chemical_formula_moiety         'C29 H26 Cl1 N1 O4 S1'
_chemical_name_systematic        
N-(4-(2-(4-Chlorophenyl)-2-oxoethyl)-3-(cyclohex-1-en-1-yl)-3,4-dihydro-2H-chromen-2-ylidene)benzenesulfonamide
_symmetry_cell_setting           triclinic
_symmetry_space_group_name_H-M   'P -1'
_symmetry_Int_Tables_number      2
_space_group_name_Hall           '-P 1'
loop_
_symmetry_equiv_pos_site_id
_symmetry_equiv_pos_as_xyz
1 x,y,z
2 -x,-y,-z
_cell_length_a                   9.7833(5)
_cell_length_b                   10.2415(6)
_cell_length_c                   13.1618(9)
_cell_angle_alpha                87.6040(18)
_cell_angle_beta                 73.1290(14)
_cell_angle_gamma                85.7640(14)
_cell_volume                     1258.26
_exptl_crystal_colour            colorless
_exptl_crystal_description       chunk
_cell_formula_units_Z            2
loop_
_atom_site_label
_atom_site_type_symbol
_atom_site_fract_x
_atom_site_fract_y
_atom_site_fract_z
Cl1 Cl 0.52622(8) 1.04742(8) 0.23462(6)
S1 S 0.80463(6) 0.29320(6) 0.69251(6)
O1 O 0.78392(16) 0.53872(13) 0.78624(12)
O2 O 0.72236(16) 0.68152(16) 0.60446(13)
O3 O 0.65397(16) 0.32635(16) 0.72890(16)
O4 O 0.8530(2) 0.19315(16) 0.61496(14)
N1 N 0.90065(18) 0.41788(18) 0.64140(16)
C1 C 0.9919(2) 0.6277(2) 0.65368(19)
C2 C 0.9311(2) 0.7687(2) 0.68740(19)
C3 C 0.8213(2) 0.7695(2) 0.79474(19)
C4 C 0.7818(2) 0.8828(2) 0.8550(2)
C5 C 0.6848(2) 0.8820(2) 0.9547(2)
C6 C 0.6246(2) 0.7671(2) 0.9974(2)
C7 C 0.6590(2) 0.6544(2) 0.9393(2)
C8 C 0.7559(2) 0.6579(2) 0.8392(2)
C9 C 0.8850(2) 0.5252(2) 0.6923(2)
C10 C 1.1231(2) 0.5881(2) 0.6912(2)
C11 C 1.1045(2) 0.5606(2) 0.8047(2)
C12 C 1.2369(2) 0.5034(3) 0.8318(2)
C13 C 1.3685(2) 0.5687(3) 0.7678(2)
C14 C 1.3900(2) 0.5587(2) 0.6517(2)
C15 C 1.2542(2) 0.5840(2) 0.6198(2)
C16 C 0.8791(2) 0.8481(2) 0.6031(2)
C17 C 0.7660(2) 0.7870(2) 0.5678(2)
C18 C 0.7107(2) 0.8562(2) 0.48410(19)
C19 C 0.6361(2) 0.7862(2) 0.4324(2)
C20 C 0.5806(2) 0.8430(2) 0.3554(2)
C21 C 0.5998(2) 0.9738(2) 0.3300(2)
C22 C 0.6737(2) 1.0453(2) 0.3795(2)
C23 C 0.7290(2) 0.9866(2) 0.4564(2)
C24 C 0.8659(2) 0.2437(2) 0.8025(2)
C25 C 1.0061(2) 0.1983(2) 0.7856(2)
C26 C 1.0558(3) 0.1614(3) 0.8707(3)
C27 C 0.9680(4) 0.1664(3) 0.9707(3)
C28 C 0.8278(4) 0.2102(3) 0.9884(2)
C29 C 0.7750(2) 0.2511(2) 0.9041(2)
H1 H 1.0223 0.6268 0.5759
H2 H 1.0116 0.8141 0.6961
H3 H 0.8221 0.9607 0.8271
H4 H 0.6600 0.9587 0.9931
H5 H 0.5608 0.7657 1.0653
H6 H 1.2609 0.5973 0.5482
H7 H 0.6176 0.5769 0.9670
H8 H 0.6231 0.6982 0.4504
H9 H 0.5312 0.7945 0.3211
H10 H 0.6864 1.1332 0.3613
H11 H 0.7792 1.0353 0.4900
H12 H 1.0672 0.1926 0.7169
H13 H 1.1514 0.1325 0.8591
H14 H 1.0027 0.1401 1.0275
H15 H 0.7672 0.2128 1.0575
H16 H 0.6802 0.2827 0.9161
H17 H 1.0739 0.6421 0.8421
H18 H 1.0304 0.4992 0.8293
H19 H 1.2247 0.5154 0.9067
H20 H 1.2492 0.4106 0.8169
H21 H 1.3585 0.6605 0.7858
H22 H 1.4514 0.5269 0.7852
H23 H 1.4299 0.4712 0.6303
H24 H 1.4571 0.6222 0.6150
H25 H 0.8404 0.9331 0.6319
H26 H 0.9608 0.8593 0.5413
loop_
_geom_bond_atom_site_label_1
_geom_bond_atom_site_label_2
_geom_bond_site_symmetry_1
_geom_bond_site_symmetry_2
Cl1 C21 1_555 1_555
S1 O3 1_555 1_555
O1 C8 1_555 1_555
O2 C17 1_555 1_555
O4 S1 1_555 1_555
N1 S1 1_555 1_555
C1 C2 1_555 1_555
C2 C3 1_555 1_555
C3 C4 1_555 1_555
C4 C5 1_555 1_555
C5 C6 1_555 1_555
C6 C7 1_555 1_555
C7 C8 1_555 1_555
C8 C3 1_555 1_555
C9 O1 1_555 1_555
C10 C1 1_555 1_555
C11 C10 1_555 1_555
C12 C11 1_555 1_555
C13 C12 1_555 1_555
C14 C13 1_555 1_555
C15 C10 1_555 1_555
C16 C2 1_555 1_555
C17 C16 1_555 1_555
C18 C17 1_555 1_555
C19 C18 1_555 1_555
C20 C19 1_555 1_555
C21 C20 1_555 1_555
C22 C21 1_555 1_555
C23 C18 1_555 1_555
C24 S1 1_555 1_555
C25 C24 1_555 1_555
C26 C25 1_555 1_555
C27 C26 1_555 1_555
C28 C27 1_555 1_555
C29 C24 1_555 1_555
H1 C1 1_555 1_555
H2 C2 1_555 1_555
H3 C4 1_555 1_555
H4 C5 1_555 1_555
H5 C6 1_555 1_555
H6 C15 1_555 1_555
H7 C7 1_555 1_555
H8 C19 1_555 1_555
H9 C20 1_555 1_555
H10 C22 1_555 1_555
H11 C23 1_555 1_555
H12 C25 1_555 1_555
H13 C26 1_555 1_555
H14 C27 1_555 1_555
H15 C28 1_555 1_555
H16 C29 1_555 1_555
H17 C11 1_555 1_555
H18 C11 1_555 1_555
H19 C12 1_555 1_555
H20 C12 1_555 1_555
H21 C13 1_555 1_555
H22 C13 1_555 1_555
H23 C14 1_555 1_555
H24 C14 1_555 1_555
H25 C16 1_555 1_555
H26 C16 1_555 1_555
N1 C9 1_555 1_555
C1 C9 1_555 1_555
C14 C15 1_555 1_555
C22 C23 1_555 1_555
C28 C29 1_555 1_555

#END
