
#######################################################################
#
#                 Cambridge Crystallographic Data Centre
#                                CCDC 
#
#######################################################################
#
# If this CIF has been generated from an entry in the Cambridge 
# Structural Database, then it will include bibliographic, chemical, 
# crystal, experimental, refinement or atomic coordinate data resulting 
# from the CCDC's data processing and validation procedures.
#
#######################################################################

data_CUSKOS
_chemical_formula_moiety         'C21 H25 N1 O4'
_chemical_name_systematic        
'diisopropyl 1-methyl-1,2-dihydro-3H-benzo[g]indole-3,3-dicarboxylate'
_symmetry_cell_setting           monoclinic
_symmetry_space_group_name_H-M   'P 21/c'
_symmetry_Int_Tables_number      14
_space_group_name_Hall           '-P 2ybc'
loop_
_symmetry_equiv_pos_site_id
_symmetry_equiv_pos_as_xyz
1 x,y,z
2 -x,1/2+y,1/2-z
3 -x,-y,-z
4 x,1/2-y,1/2+z
_cell_length_a                   10.549(3)
_cell_length_b                   20.876(5)
_cell_length_c                   9.334(3)
_cell_angle_alpha                90
_cell_angle_beta                 104.938(13)
_cell_angle_gamma                90
_cell_volume                     1986.08
_exptl_crystal_colour            colorless
_exptl_crystal_description       prism
_cell_formula_units_Z            4
loop_
_atom_site_label
_atom_site_type_symbol
_atom_site_fract_x
_atom_site_fract_y
_atom_site_fract_z
O1 O 0.80501(11) 0.04581(6) 0.33069(15)
O2 O 0.86565(13) 0.11338(6) 0.05664(14)
O3 O 0.83133(16) 0.19966(7) 0.18376(18)
O4 O 0.99537(13) -0.00041(6) 0.32029(18)
C1 C 1.11504(14) 0.12082(7) 0.29721(18)
C2 C 0.6921(4) -0.04414(18) 0.1932(4)
H1 H 0.6234 -0.0171 0.1376
H2 H 0.6577 -0.0862 0.2014
H3 H 0.7610 -0.0468 0.1435
C3 C 0.74551(18) -0.01661(9) 0.3450(2)
H4 H 0.8132 -0.0454 0.4024
C4 C 0.92922(15) 0.04602(8) 0.31943(18)
C5 C 0.97453(15) 0.11526(8) 0.31089(18)
C6 C 1.18551(15) 0.16079(7) 0.40660(18)
C7 C 1.32102(15) 0.17470(8) 0.41546(19)
C8 C 1.4046(2) 0.21353(12) 0.5245(3)
H5 H 1.3715 0.2328 0.5971
C9 C 1.5334(2) 0.22335(14) 0.5253(3)
H6 H 1.5861 0.2489 0.5985
C10 C 1.58612(19) 0.19569(11) 0.4186(3)
H7 H 1.6734 0.2030 0.4200
C11 C 0.6637(4) 0.1030(3) -0.1247(5)
H8 H 0.6770 0.0635 -0.1716
H9 H 0.5978 0.1279 -0.1918
H10 H 0.6357 0.0939 -0.0368
C12 C 0.7865(2) 0.13893(11) -0.0852(2)
H11 H 0.7663 0.1839 -0.0708
C13 C 0.88066(15) 0.14850(8) 0.1784(2)
C14 C 1.17026(17) 0.09305(9) 0.1910(2)
H12 H 1.1204 0.0665 0.1179
C15 C 1.29937(18) 0.10561(10) 0.1960(2)
H13 H 1.3366 0.0873 0.1257
C16 C 1.37606(15) 0.14583(8) 0.3063(2)
C17 C 1.51041(17) 0.15811(10) 0.3124(2)
H14 H 1.5469 0.1398 0.2414
N1 N 1.10927(15) 0.18288(9) 0.49732(19)
C18 C 0.98225(16) 0.15049(9) 0.4584(2)
H15 H 0.9115 0.1813 0.4464
H16 H 0.9760 0.1202 0.5352
C19 C 1.1397(3) 0.22159(19) 0.6222(4)
H17 H 1.2102 0.2027 0.6961
H18 H 1.0640 0.2258 0.6607
H19 H 1.1658 0.2631 0.5961
C20 C 0.6448(3) -0.00544(12) 0.4291(3)
H20 H 0.6859 0.0132 0.5237
H21 H 0.6051 -0.0455 0.4436
H22 H 0.5787 0.0231 0.3741
C21 C 0.8673(4) 0.1360(3) -0.1912(4)
H23 H 0.8812 0.0921 -0.2134
H24 H 0.9503 0.1562 -0.1490
H25 H 0.8233 0.1579 -0.2807
loop_
_geom_bond_atom_site_label_1
_geom_bond_atom_site_label_2
_geom_bond_site_symmetry_1
_geom_bond_site_symmetry_2
O1 C3 1_555 1_555
O2 C12 1_555 1_555
O3 C13 1_555 1_555
O4 C4 1_555 1_555
C1 C5 1_555 1_555
C2 H1 1_555 1_555
H2 C2 1_555 1_555
H3 C2 1_555 1_555
C3 C2 1_555 1_555
H4 C3 1_555 1_555
C4 O1 1_555 1_555
C5 C4 1_555 1_555
C6 C1 1_555 1_555
C7 C6 1_555 1_555
C8 C7 1_555 1_555
H5 C8 1_555 1_555
C9 C8 1_555 1_555
H6 C9 1_555 1_555
C10 C9 1_555 1_555
H7 C10 1_555 1_555
C11 H8 1_555 1_555
H9 C11 1_555 1_555
H10 C11 1_555 1_555
C12 C11 1_555 1_555
H11 C12 1_555 1_555
C13 O2 1_555 1_555
C14 C1 1_555 1_555
H12 C14 1_555 1_555
C15 C14 1_555 1_555
H13 C15 1_555 1_555
C16 C7 1_555 1_555
C17 C10 1_555 1_555
H14 C17 1_555 1_555
N1 C6 1_555 1_555
C18 C5 1_555 1_555
H15 C18 1_555 1_555
H16 C18 1_555 1_555
C19 N1 1_555 1_555
H17 C19 1_555 1_555
H18 C19 1_555 1_555
H19 C19 1_555 1_555
C20 C3 1_555 1_555
H20 C20 1_555 1_555
H21 C20 1_555 1_555
H22 C20 1_555 1_555
C21 C12 1_555 1_555
H23 C21 1_555 1_555
H24 C21 1_555 1_555
H25 C21 1_555 1_555
C5 C13 1_555 1_555
C15 C16 1_555 1_555
C16 C17 1_555 1_555
N1 C18 1_555 1_555

#END
