
#######################################################################
#
#                 Cambridge Crystallographic Data Centre
#                                CCDC 
#
#######################################################################
#
# If this CIF has been generated from an entry in the Cambridge 
# Structural Database, then it will include bibliographic, chemical, 
# crystal, experimental, refinement or atomic coordinate data resulting 
# from the CCDC's data processing and validation procedures.
#
#######################################################################

data_CUSMOT
_chemical_formula_moiety         'C16 H42 Li2 O4 Si2'
_chemical_name_systematic        
bis(\m~2~-Trimethylsilylmethylene)-bis(1,2-dimethoxyethane-O,O')-di-lithium
_symmetry_cell_setting           monoclinic
_symmetry_space_group_name_H-M   'P 21/c'
_symmetry_Int_Tables_number      14
_space_group_name_Hall           '-P 2ybc'
loop_
_symmetry_equiv_pos_site_id
_symmetry_equiv_pos_as_xyz
1 x,y,z
2 -x,1/2+y,1/2-z
3 -x,-y,-z
4 x,1/2-y,1/2+z
_cell_length_a                   10.4667(8)
_cell_length_b                   18.3838(13)
_cell_length_c                   19.2670(14)
_cell_angle_alpha                90
_cell_angle_beta                 92.8900(10)
_cell_angle_gamma                90
_cell_volume                     3702.6
_exptl_crystal_colour            colorless
_exptl_crystal_description       block
_cell_formula_units_Z            6
loop_
_atom_site_label
_atom_site_type_symbol
_atom_site_fract_x
_atom_site_fract_y
_atom_site_fract_z
Si1 Si 0.90378(3) -0.119568(15) 0.182938(15)
Si2 Si 0.42455(3) 0.101647(16) 0.145045(15)
O1 O 0.52455(8) -0.16004(4) 0.20090(4)
O2 O 0.52506(8) -0.06254(4) 0.30470(4)
O3 O 0.80522(8) 0.06688(4) 0.07057(4)
O4 O 0.79395(7) 0.13753(4) 0.19143(4)
Li1 Li 0.60486(18) -0.05934(10) 0.21026(10)
Li2 Li 0.71310(17) 0.03779(10) 0.15433(9)
C1 C 0.81339(10) -0.04685(6) 0.22254(6)
H1 H 0.8087(12) -0.0590(7) 0.2706(7)
H2 H 0.8649(12) -0.0021(7) 0.2223(6)
C2 C 1.08334(11) -0.11695(7) 0.19945(7)
H3 H 1.1164 -0.0704 0.1834
H4 H 1.1224 -0.1568 0.1742
H5 H 1.1042 -0.1223 0.2493
C3 C 0.87987(12) -0.11905(7) 0.08544(6)
H6 H 0.7891 -0.1266 0.0724
H7 H 0.9305 -0.1582 0.0659
H8 H 0.9075 -0.0721 0.0673
C4 C 0.85269(12) -0.21212(6) 0.21335(6)
H9 H 0.8709 -0.2163 0.2636
H10 H 0.8999 -0.2498 0.1894
H11 H 0.7607 -0.2184 0.2029
C5 C 0.50688(10) 0.01546(6) 0.13387(6)
H12 H 0.5128(12) 0.0060(7) 0.0853(7)
H13 H 0.4504(12) -0.0225(7) 0.1496(6)
C6 C 0.49691(11) 0.17575(6) 0.09225(6)
H14 H 0.5866 0.1828 0.1080
H15 H 0.4496 0.2211 0.0982
H16 H 0.4923 0.1619 0.0431
C7 C 0.43658(12) 0.12976(7) 0.23920(6)
H17 H 0.4026 0.0909 0.2678
H18 H 0.3870 0.1743 0.2452
H19 H 0.5264 0.1387 0.2535
C8 C 0.24657(11) 0.10519(7) 0.12205(7)
H20 H 0.2319 0.1020 0.0715
H21 H 0.2115 0.1511 0.1387
H22 H 0.2042 0.0643 0.1441
C9 C 0.47397(16) -0.19042(8) 0.13771(7)
H23 H 0.4654 -0.2432 0.1430
H24 H 0.5318 -0.1800 0.1005
H25 H 0.3898 -0.1691 0.1260
C10 C 0.44334(11) -0.17136(7) 0.25717(7)
H26 H 0.4301 -0.2240 0.2648
H27 H 0.3590 -0.1482 0.2471
C11 C 0.50908(12) -0.13757(6) 0.31971(6)
H28 H 0.4568 -0.1436 0.3607
H29 H 0.5933 -0.1609 0.3297
C12 C 0.58037(14) -0.02362(7) 0.36301(6)
H30 H 0.5202 -0.0230 0.4004
H31 H 0.5989 0.0264 0.3491
H32 H 0.6599 -0.0476 0.3795
C13 C 0.75805(14) 0.05471(8) 0.00082(6)
H33 H 0.7014 0.0948 -0.0141
H34 H 0.7103 0.0088 -0.0017
H35 H 0.8300 0.0521 -0.0297
C14 C 0.87045(12) 0.13467(6) 0.07852(6)
H36 H 0.8139 0.1749 0.0620
H37 H 0.9477 0.1348 0.0509
C15 C 0.90734(11) 0.14428(7) 0.15384(6)
H38 H 0.9703 0.1067 0.1693
H39 H 0.9464 0.1928 0.1620
C16 C 0.81838(12) 0.15354(7) 0.26332(6)
H40 H 0.8861 0.1215 0.2825
H41 H 0.7402 0.1458 0.2883
H42 H 0.8456 0.2043 0.2685
Si3 Si 0.22140(3) 0.634844(15) 0.003401(15)
O5 O -0.17316(7) 0.63883(4) -0.01937(4)
O6 O -0.12577(7) 0.58896(4) 0.10901(4)
Li3 Li -0.05522(17) 0.55552(9) 0.01789(10)
C17 C 0.15269(10) 0.54656(6) 0.02250(6)
H43 H 0.1584(12) 0.5402(7) 0.0727(7)
H44 H 0.2109(12) 0.5120(7) 0.0046(7)
C18 C 0.14279(11) 0.71005(6) 0.05215(6)
H45 H 0.0573 0.7194 0.0309
H46 H 0.1946 0.7543 0.0501
H47 H 0.1355 0.6955 0.1007
C19 C 0.20187(11) 0.65597(7) -0.09239(6)
H48 H 0.2408 0.6171 -0.1190
H49 H 0.2440 0.7023 -0.1019
H50 H 0.1106 0.6595 -0.1061
C20 C 0.39911(10) 0.64559(6) 0.02508(6)
H51 H 0.4157 0.6414 0.0754
H52 H 0.4273 0.6934 0.0095
H53 H 0.4461 0.6075 0.0016
C21 C -0.15806(12) 0.68389(7) -0.07848(7)
H54 H -0.2407 0.7055 -0.0930
H55 H -0.1267 0.6546 -0.1165
H56 H -0.0964 0.7226 -0.0666
C22 C -0.22751(11) 0.67709(6) 0.03660(7)
H57 H -0.3106 0.6988 0.0209
H58 H -0.1695 0.7166 0.0533
C23 C -0.24600(11) 0.62356(6) 0.09357(7)
H59 H -0.2753 0.6488 0.1353
H60 H -0.3112 0.5870 0.0786
C24 C -0.12975(13) 0.54124(7) 0.16730(7)
H61 H -0.1437 0.5697 0.2093
H62 H -0.0485 0.5149 0.1731
H63 H -0.1998 0.5064 0.1595
Si3B Si -0.22140(3) 0.365156(15) -0.003401(15)
O5B O 0.17316(7) 0.36117(4) 0.01937(4)
O6B O 0.12577(7) 0.41104(4) -0.10901(4)
Li3B Li 0.05522(17) 0.44448(9) -0.01789(10)
C17B C -0.15269(10) 0.45344(6) -0.02250(6)
H43B H -0.1584(12) 0.4598(7) -0.0727(7)
H44B H -0.2109(12) 0.4880(7) -0.0046(7)
C18B C -0.14279(11) 0.28995(6) -0.05215(6)
H45B H -0.0573 0.2806 -0.0309
H46B H -0.1946 0.2457 -0.0501
H47B H -0.1355 0.3045 -0.1007
C19B C -0.20187(11) 0.34403(7) 0.09239(6)
H48B H -0.2408 0.3829 0.1190
H49B H -0.2440 0.2977 0.1019
H50B H -0.1106 0.3405 0.1061
C20B C -0.39911(10) 0.35441(6) -0.02508(6)
H51B H -0.4157 0.3586 -0.0754
H52B H -0.4273 0.3066 -0.0095
H53B H -0.4461 0.3925 -0.0016
C21B C 0.15806(12) 0.31611(7) 0.07848(7)
H54B H 0.2407 0.2945 0.0930
H55B H 0.1267 0.3454 0.1165
H56B H 0.0964 0.2774 0.0666
C22B C 0.22751(11) 0.32291(6) -0.03660(7)
H57B H 0.3106 0.3012 -0.0209
H58B H 0.1695 0.2834 -0.0533
C23B C 0.24600(11) 0.37644(6) -0.09357(7)
H59B H 0.2753 0.3512 -0.1353
H60B H 0.3112 0.4130 -0.0786
C24B C 0.12975(13) 0.45876(7) -0.16730(7)
H61B H 0.1437 0.4303 -0.2093
H62B H 0.0485 0.4851 -0.1731
H63B H 0.1998 0.4936 -0.1595
loop_
_geom_bond_atom_site_label_1
_geom_bond_atom_site_label_2
_geom_bond_site_symmetry_1
_geom_bond_site_symmetry_2
Si1 C1 1_555 1_555
Si2 C5 1_555 1_555
Si3 C17 1_555 1_555
O1 Li1 1_555 1_555
O2 Li1 1_555 1_555
O3 Li2 1_555 1_555
O4 Li2 1_555 1_555
O5 Li3 1_555 1_555
O6 Li3 1_555 1_555
Li1 C1 1_555 1_555
Li2 C1 1_555 1_555
Li3 C17 1_555 1_555
C1 H1 1_555 1_555
H2 C1 1_555 1_555
C2 Si1 1_555 1_555
H3 C2 1_555 1_555
H4 C2 1_555 1_555
H5 C2 1_555 1_555
C3 Si1 1_555 1_555
H6 C3 1_555 1_555
H7 C3 1_555 1_555
H8 C3 1_555 1_555
C4 Si1 1_555 1_555
H9 C4 1_555 1_555
H10 C4 1_555 1_555
H11 C4 1_555 1_555
C5 Li1 1_555 1_555
H12 C5 1_555 1_555
H13 C5 1_555 1_555
C6 Si2 1_555 1_555
H14 C6 1_555 1_555
H15 C6 1_555 1_555
H16 C6 1_555 1_555
C7 Si2 1_555 1_555
H17 C7 1_555 1_555
H18 C7 1_555 1_555
H19 C7 1_555 1_555
C8 Si2 1_555 1_555
H20 C8 1_555 1_555
H21 C8 1_555 1_555
H22 C8 1_555 1_555
C9 O1 1_555 1_555
H23 C9 1_555 1_555
H24 C9 1_555 1_555
H25 C9 1_555 1_555
C10 O1 1_555 1_555
H26 C10 1_555 1_555
H27 C10 1_555 1_555
C11 O2 1_555 1_555
H28 C11 1_555 1_555
H29 C11 1_555 1_555
C12 O2 1_555 1_555
H30 C12 1_555 1_555
H31 C12 1_555 1_555
H32 C12 1_555 1_555
C13 O3 1_555 1_555
H33 C13 1_555 1_555
H34 C13 1_555 1_555
H35 C13 1_555 1_555
C14 O3 1_555 1_555
H36 C14 1_555 1_555
H37 C14 1_555 1_555
C15 O4 1_555 1_555
H38 C15 1_555 1_555
H39 C15 1_555 1_555
C16 O4 1_555 1_555
H40 C16 1_555 1_555
H41 C16 1_555 1_555
H42 C16 1_555 1_555
C17 H43 1_555 1_555
H44 C17 1_555 1_555
C18 Si3 1_555 1_555
H45 C18 1_555 1_555
H46 C18 1_555 1_555
H47 C18 1_555 1_555
C19 Si3 1_555 1_555
H48 C19 1_555 1_555
H49 C19 1_555 1_555
H50 C19 1_555 1_555
C20 Si3 1_555 1_555
H51 C20 1_555 1_555
H52 C20 1_555 1_555
H53 C20 1_555 1_555
C21 O5 1_555 1_555
H54 C21 1_555 1_555
H55 C21 1_555 1_555
H56 C21 1_555 1_555
C22 O5 1_555 1_555
H57 C22 1_555 1_555
H58 C22 1_555 1_555
C23 O6 1_555 1_555
H59 C23 1_555 1_555
H60 C23 1_555 1_555
C24 O6 1_555 1_555
H61 C24 1_555 1_555
H62 C24 1_555 1_555
H63 C24 1_555 1_555
Si3B C17B 1_555 1_555
O5B Li3B 1_555 1_555
O6B Li3B 1_555 1_555
Li3B C17 1_555 1_555
C17B Li3 1_555 1_555
H43B C17B 1_555 1_555
H44B C17B 1_555 1_555
C18B Si3B 1_555 1_555
H45B C18B 1_555 1_555
H46B C18B 1_555 1_555
H47B C18B 1_555 1_555
C19B Si3B 1_555 1_555
H48B C19B 1_555 1_555
H49B C19B 1_555 1_555
H50B C19B 1_555 1_555
C20B Si3B 1_555 1_555
H51B C20B 1_555 1_555
H52B C20B 1_555 1_555
H53B C20B 1_555 1_555
C21B O5B 1_555 1_555
H54B C21B 1_555 1_555
H55B C21B 1_555 1_555
H56B C21B 1_555 1_555
C22B O5B 1_555 1_555
H57B C22B 1_555 1_555
H58B C22B 1_555 1_555
C23B O6B 1_555 1_555
H59B C23B 1_555 1_555
H60B C23B 1_555 1_555
C24B O6B 1_555 1_555
H61B C24B 1_555 1_555
H62B C24B 1_555 1_555
H63B C24B 1_555 1_555
Li2 C5 1_555 1_555
C10 C11 1_555 1_555
C14 C15 1_555 1_555
C22 C23 1_555 1_555
Li3B C17B 1_555 1_555
C22B C23B 1_555 1_555

#END
