
#######################################################################
#
#                 Cambridge Crystallographic Data Centre
#                                CCDC 
#
#######################################################################
#
# If this CIF has been generated from an entry in the Cambridge 
# Structural Database, then it will include bibliographic, chemical, 
# crystal, experimental, refinement or atomic coordinate data resulting 
# from the CCDC's data processing and validation procedures.
#
#######################################################################

data_CUSNIO01
_chemical_formula_moiety         'C18 H16 N2'
_chemical_name_systematic        1,1'-Dimethyl-1H,1'H-2,3'-biindole
_symmetry_cell_setting           monoclinic
_symmetry_space_group_name_H-M   'P 21/c'
_symmetry_Int_Tables_number      14
_space_group_name_Hall           '-P 2ybc'
loop_
_symmetry_equiv_pos_site_id
_symmetry_equiv_pos_as_xyz
1 x,y,z
2 -x,1/2+y,1/2-z
3 -x,-y,-z
4 x,1/2-y,1/2+z
_cell_length_a                   11.2936(15)
_cell_length_b                   7.2657(10)
_cell_length_c                   17.145(2)
_cell_angle_alpha                90
_cell_angle_beta                 96.463(7)
_cell_angle_gamma                90
_cell_volume                     1397.91
_exptl_crystal_colour            colorless
_exptl_crystal_description       block
_chemical_melting_point          110-111deg.C
_cell_formula_units_Z            4
loop_
_atom_site_label
_atom_site_type_symbol
_atom_site_fract_x
_atom_site_fract_y
_atom_site_fract_z
C1 C 0.32511(12) 0.29753(18) 0.28972(8)
C2 C 0.54304(12) 0.22637(18) 0.34310(8)
C3 C 0.44567(12) 0.24257(18) 0.28028(8)
C4 C 0.65470(13) 0.18517(19) 0.45997(8)
N1 N 0.66257(10) 0.24491(15) 0.33158(7)
C5 C 0.53710(13) 0.1903(2) 0.42110(8)
H1 H 0.4676 0.1722 0.4445
C6 C 0.25879(13) 0.28481(19) 0.21520(9)
C7 C 0.44482(14) 0.20080(19) 0.20206(8)
H2 H 0.5110 0.1610 0.1790
C8 C 0.73143(13) 0.21869(18) 0.40217(8)
N2 N 0.33413(12) 0.22539(16) 0.16259(7)
C9 C 0.71052(13) 0.3001(2) 0.25999(9)
H3 H 0.7825 0.3690 0.2731
H4 H 0.6532 0.3751 0.2289
H5 H 0.7275 0.1925 0.2307
C10 C 0.26675(13) 0.3579(2) 0.35288(9)
H6 H 0.3082 0.3687 0.4027
C11 C 0.13834(14) 0.3287(2) 0.20263(10)
H7 H 0.0961 0.3196 0.1530
C12 C 0.70465(16) 0.1535(2) 0.53757(9)
H8 H 0.6560 0.1309 0.5768
C13 C 0.14722(14) 0.4011(2) 0.34042(10)
H9 H 0.1081 0.4410 0.3823
C14 C 0.85479(14) 0.2224(2) 0.41995(11)
H10 H 0.9047 0.2449 0.3814
C15 C 0.30220(17) 0.1960(2) 0.07902(9)
H11 H 0.2843 0.3121 0.0537
H12 H 0.2335 0.1174 0.0711
H13 H 0.3676 0.1390 0.0571
C16 C 0.90015(17) 0.1913(3) 0.49672(12)
H14 H 0.9822 0.1937 0.5102
C17 C 0.08419(14) 0.3860(3) 0.26595(12)
H15 H 0.0035 0.4154 0.2591
C18 C 0.82606(18) 0.1564(3) 0.55467(11)
H16 H 0.8596 0.1347 0.6059
loop_
_geom_bond_atom_site_label_1
_geom_bond_atom_site_label_2
_geom_bond_site_symmetry_1
_geom_bond_site_symmetry_2
C1 C3 1_555 1_555
C2 C3 1_555 1_555
C3 C7 1_555 1_555
C4 C5 1_555 1_555
N1 C2 1_555 1_555
C5 C2 1_555 1_555
H1 C5 1_555 1_555
C6 C1 1_555 1_555
C7 H2 1_555 1_555
C8 C4 1_555 1_555
N2 C6 1_555 1_555
C9 N1 1_555 1_555
H3 C9 1_555 1_555
H4 C9 1_555 1_555
H5 C9 1_555 1_555
C10 C1 1_555 1_555
H6 C10 1_555 1_555
C11 C6 1_555 1_555
H7 C11 1_555 1_555
C12 C4 1_555 1_555
H8 C12 1_555 1_555
C13 C10 1_555 1_555
H9 C13 1_555 1_555
C14 C8 1_555 1_555
H10 C14 1_555 1_555
C15 N2 1_555 1_555
H11 C15 1_555 1_555
H12 C15 1_555 1_555
H13 C15 1_555 1_555
C16 C14 1_555 1_555
H14 C16 1_555 1_555
C17 C11 1_555 1_555
H15 C17 1_555 1_555
C18 C12 1_555 1_555
H16 C18 1_555 1_555
N1 C8 1_555 1_555
C7 N2 1_555 1_555
C13 C17 1_555 1_555
C16 C18 1_555 1_555

#END
