
#######################################################################
#
#                 Cambridge Crystallographic Data Centre
#                                CCDC 
#
#######################################################################
#
# If this CIF has been generated from an entry in the Cambridge 
# Structural Database, then it will include bibliographic, chemical, 
# crystal, experimental, refinement or atomic coordinate data resulting 
# from the CCDC's data processing and validation procedures.
#
#######################################################################

data_CUSNOU
_chemical_formula_moiety         'C18 H16 N2'
_chemical_name_systematic        1,1'-Dimethyl-1H,1'H-3,3'-bi-indole
_symmetry_cell_setting           monoclinic
_symmetry_space_group_name_H-M   'P 21/n'
_symmetry_Int_Tables_number      14
_space_group_name_Hall           '-P 2yn'
loop_
_symmetry_equiv_pos_site_id
_symmetry_equiv_pos_as_xyz
1 x,y,z
2 1/2-x,1/2+y,1/2-z
3 -x,-y,-z
4 1/2+x,1/2-y,1/2+z
_cell_length_a                   6.4851(13)
_cell_length_b                   13.409(3)
_cell_length_c                   8.1723(16)
_cell_angle_alpha                90
_cell_angle_beta                 109.73(3)
_cell_angle_gamma                90
_cell_volume                     668.933
_exptl_crystal_colour            colorless
_exptl_crystal_description       plate
_cell_formula_units_Z            2
loop_
_atom_site_label
_atom_site_type_symbol
_atom_site_fract_x
_atom_site_fract_y
_atom_site_fract_z
N1 N -0.2375(2) 0.98855(11) 0.25261(18)
C1 C -0.0721(3) 0.84119(14) 0.4383(2)
H1 H -0.1583 0.8460 0.5117
C2 C 0.0820(3) 0.76746(15) 0.4615(2)
H2 H 0.1041 0.7208 0.5532
C3 C 0.2072(3) 0.75997(14) 0.3520(2)
H3 H 0.3118 0.7079 0.3703
C4 C 0.1818(3) 0.82660(13) 0.2185(2)
H4 H 0.2674 0.8200 0.1450
C5 C 0.0286(3) 0.90432(12) 0.1914(2)
C6 C -0.0402(3) 0.98636(12) 0.0707(2)
C7 C -0.2011(3) 1.03452(14) 0.1148(2)
H5 H -0.2772 1.0921 0.0575
C8 C -0.0977(3) 0.90903(13) 0.3028(2)
C9 C -0.3934(3) 1.02045(15) 0.3345(2)
H6 H -0.4938 0.9655 0.3326
H7 H -0.4770 1.0776 0.2711
H8 H -0.3145 1.0398 0.4552
N1B N 0.2375(2) 1.01145(11) -0.25261(18)
C1B C 0.0721(3) 1.15881(14) -0.4383(2)
H1B H 0.1583 1.1540 -0.5117
C2B C -0.0820(3) 1.23254(15) -0.4615(2)
H2B H -0.1041 1.2792 -0.5532
C3B C -0.2072(3) 1.24003(14) -0.3520(2)
H3B H -0.3118 1.2921 -0.3703
C4B C -0.1818(3) 1.17340(13) -0.2185(2)
H4B H -0.2674 1.1800 -0.1450
C5B C -0.0286(3) 1.09568(12) -0.1914(2)
C6B C 0.0402(3) 1.01364(12) -0.0707(2)
C7B C 0.2011(3) 0.96548(14) -0.1148(2)
H5B H 0.2772 0.9079 -0.0575
C8B C 0.0977(3) 1.09097(13) -0.3028(2)
C9B C 0.3934(3) 0.97955(15) -0.3345(2)
H6B H 0.4938 1.0345 -0.3326
H7B H 0.4770 0.9224 -0.2711
H8B H 0.3145 0.9602 -0.4552
loop_
_geom_bond_atom_site_label_1
_geom_bond_atom_site_label_2
_geom_bond_site_symmetry_1
_geom_bond_site_symmetry_2
N1 C7 1_555 1_555
C1 H1 1_555 1_555
C2 C1 1_555 1_555
H2 C2 1_555 1_555
C3 C2 1_555 1_555
H3 C3 1_555 1_555
C4 C3 1_555 1_555
H4 C4 1_555 1_555
C5 C4 1_555 1_555
C6 C5 1_555 1_555
C7 C6 1_555 1_555
H5 C7 1_555 1_555
C8 N1 1_555 1_555
C9 N1 1_555 1_555
H6 C9 1_555 1_555
H7 C9 1_555 1_555
H8 C9 1_555 1_555
N1B C7B 1_555 1_555
C1B H1B 1_555 1_555
C2B C1B 1_555 1_555
H2B C2B 1_555 1_555
C3B C2B 1_555 1_555
H3B C3B 1_555 1_555
C4B C3B 1_555 1_555
H4B C4B 1_555 1_555
C5B C4B 1_555 1_555
C6B C6 1_555 1_555
C7B C6B 1_555 1_555
H5B C7B 1_555 1_555
C8B N1B 1_555 1_555
C9B N1B 1_555 1_555
H6B C9B 1_555 1_555
H7B C9B 1_555 1_555
H8B C9B 1_555 1_555
C1 C8 1_555 1_555
C5 C8 1_555 1_555
C1B C8B 1_555 1_555
C5B C6B 1_555 1_555
C5B C8B 1_555 1_555

#END
