
#######################################################################
#
#                 Cambridge Crystallographic Data Centre
#                                CCDC 
#
#######################################################################
#
# If this CIF has been generated from an entry in the Cambridge 
# Structural Database, then it will include bibliographic, chemical, 
# crystal, experimental, refinement or atomic coordinate data resulting 
# from the CCDC's data processing and validation procedures.
#
#######################################################################

data_CUSNIO
_chemical_formula_moiety         'C18 H16 N2'
_chemical_name_systematic        1,1'-Dimethyl-1H,1'H-2,3'-bi-indole
_symmetry_cell_setting           monoclinic
_symmetry_space_group_name_H-M   'P 21/c'
_symmetry_Int_Tables_number      14
_space_group_name_Hall           '-P 2ybc'
loop_
_symmetry_equiv_pos_site_id
_symmetry_equiv_pos_as_xyz
1 x,y,z
2 -x,1/2+y,1/2-z
3 -x,-y,-z
4 x,1/2-y,1/2+z
_cell_length_a                   11.290(2)
_cell_length_b                   7.2745(15)
_cell_length_c                   17.151(3)
_cell_angle_alpha                90
_cell_angle_beta                 96.63(3)
_cell_angle_gamma                90
_cell_volume                     1399.18
_exptl_crystal_colour            colorless
_exptl_crystal_description       block
_cell_formula_units_Z            4
loop_
_atom_site_label
_atom_site_type_symbol
_atom_site_fract_x
_atom_site_fract_y
_atom_site_fract_z
C1 C 0.55423(13) 0.2572(2) 0.21975(8)
C2 C 0.67476(13) 0.2022(2) 0.21031(9)
C3 C 0.45700(13) 0.2738(2) 0.15698(9)
C4 C 0.34559(14) 0.3148(2) 0.04009(9)
N1 N 0.33733(11) 0.25479(17) 0.16835(7)
C5 C 0.46271(14) 0.3096(2) 0.07885(9)
H1 H 0.5321 0.3274 0.0554
C6 C 0.26850(14) 0.2810(2) 0.09790(9)
C7 C 0.55532(14) 0.2989(2) 0.29811(9)
H2 H 0.4892 0.3386 0.3211
N2 N 0.66569(12) 0.27451(18) 0.33744(7)
C8 C 0.74139(14) 0.2152(2) 0.28484(10)
C9 C 0.73335(14) 0.1414(2) 0.14719(10)
H3 H 0.6918 0.1298 0.0974
C10 C 0.28946(14) 0.1994(2) 0.24012(9)
H4 H 0.2742 0.3066 0.2700
H5 H 0.3462 0.1222 0.2706
H6 H 0.2165 0.1328 0.2270
C11 C 0.14507(15) 0.2775(3) 0.07995(12)
H7 H 0.0952 0.2551 0.1184
C12 C 0.29506(17) 0.3466(3) -0.03738(10)
H8 H 0.3435 0.3698 -0.0766
C13 C 0.86149(16) 0.1716(3) 0.29754(11)
H9 H 0.9039 0.1808 0.3472
C14 C 0.69806(18) 0.3040(3) 0.42114(9)
H10 H 0.6329 0.3616 0.4430
H11 H 0.7670 0.3819 0.4290
H12 H 0.7156 0.1880 0.4466
C15 C 0.85248(15) 0.0992(3) 0.15971(11)
H13 H 0.8916 0.0600 0.1178
C16 C 0.09992(18) 0.3085(3) 0.00352(13)
H14 H 0.0178 0.3063 -0.0100
C17 C 0.91566(16) 0.1140(3) 0.23385(12)
H15 H 0.9963 0.0844 0.2407
C18 C 0.1738(2) 0.3432(3) -0.05454(12)
H16 H 0.1400 0.3643 -0.1058
loop_
_geom_bond_atom_site_label_1
_geom_bond_atom_site_label_2
_geom_bond_site_symmetry_1
_geom_bond_site_symmetry_2
C1 C2 1_555 1_555
C2 C8 1_555 1_555
C3 C1 1_555 1_555
C4 C5 1_555 1_555
N1 C3 1_555 1_555
C5 C3 1_555 1_555
H1 C5 1_555 1_555
C6 C4 1_555 1_555
C7 C1 1_555 1_555
H2 C7 1_555 1_555
N2 C7 1_555 1_555
C8 N2 1_555 1_555
C9 C2 1_555 1_555
H3 C9 1_555 1_555
C10 N1 1_555 1_555
H4 C10 1_555 1_555
H5 C10 1_555 1_555
H6 C10 1_555 1_555
C11 C6 1_555 1_555
H7 C11 1_555 1_555
C12 C4 1_555 1_555
H8 C12 1_555 1_555
C13 C8 1_555 1_555
H9 C13 1_555 1_555
C14 N2 1_555 1_555
H10 C14 1_555 1_555
H11 C14 1_555 1_555
H12 C14 1_555 1_555
C15 C9 1_555 1_555
H13 C15 1_555 1_555
C16 C11 1_555 1_555
H14 C16 1_555 1_555
C17 C13 1_555 1_555
H15 C17 1_555 1_555
C18 C12 1_555 1_555
H16 C18 1_555 1_555
N1 C6 1_555 1_555
C15 C17 1_555 1_555
C16 C18 1_555 1_555

#END
