
#######################################################################
#
#                 Cambridge Crystallographic Data Centre
#                                CCDC 
#
#######################################################################
#
# If this CIF has been generated from an entry in the Cambridge 
# Structural Database, then it will include bibliographic, chemical, 
# crystal, experimental, refinement or atomic coordinate data resulting 
# from the CCDC's data processing and validation procedures.
#
#######################################################################

data_CUSPIR
_chemical_formula_moiety         'C19 H18 Br1 N1 O2 S1'
_chemical_name_systematic        
7-(4-bromophenyl)-3-((4-methylphenyl)sulfonyl)-3-azabicyclo[4.1.0]hept-4-ene
_symmetry_cell_setting           monoclinic
_symmetry_space_group_name_H-M   'P 21'
_symmetry_Int_Tables_number      4
_space_group_name_Hall           'P 2yb'
loop_
_symmetry_equiv_pos_site_id
_symmetry_equiv_pos_as_xyz
1 x,y,z
2 -x,1/2+y,-z
_cell_length_a                   6.0255(3)
_cell_length_b                   18.7739(15)
_cell_length_c                   7.7687(10)
_cell_angle_alpha                90
_cell_angle_beta                 96.302(6)
_cell_angle_gamma                90
_cell_volume                     873.501
_exptl_crystal_colour            colorless
_exptl_crystal_description       needle
_cell_formula_units_Z            2
loop_
_atom_site_label
_atom_site_type_symbol
_atom_site_fract_x
_atom_site_fract_y
_atom_site_fract_z
Br1 Br 0.68420(6) 0.59663(2) 0.43781(5)
S1 S -0.10130(16) 0.16248(5) 1.04843(12)
O1 O -0.3409(5) 0.15991(15) 1.0361(4)
O2 O 0.0237(5) 0.19004(14) 1.2022(3)
N1 N -0.0367(6) 0.21418(18) 0.8883(4)
C1 C 0.2039(7) 0.2316(2) 0.8940(6)
H1 H 0.2905 0.1867 0.8980
H2 H 0.2506 0.2583 1.0020
C2 C 0.2607(7) 0.27557(19) 0.7406(5)
H3 H 0.4233 0.2762 0.7252
C3 C 0.1080(7) 0.2720(2) 0.5724(5)
H4 H 0.1815 0.2695 0.4633
C4 C -0.0999(7) 0.23049(19) 0.5766(5)
H5 H -0.1924 0.2225 0.4713
C5 C -0.1612(7) 0.20423(19) 0.7214(5)
H6 H -0.2952 0.1772 0.7151
C6 C 0.1361(7) 0.34242(19) 0.6768(5)
H7 H 0.0073 0.3559 0.7410
C7 C 0.2633(6) 0.4029(2) 0.6131(5)
C8 C 0.4621(7) 0.3923(2) 0.5355(5)
H8 H 0.5137 0.3452 0.5200
C9 C 0.5837(7) 0.4492(2) 0.4812(5)
H9 H 0.7169 0.4413 0.4290
C10 C 0.5068(7) 0.5189(2) 0.5047(5)
C11 C 0.3113(6) 0.5311(2) 0.5775(4)
H10 H 0.2594 0.5783 0.5909
C12 C 0.1909(7) 0.4731(2) 0.6313(5)
H11 H 0.0565 0.4816 0.6815
C13 C -0.0022(7) 0.07634(19) 1.0083(5)
C14 C -0.1384(7) 0.0285(2) 0.9067(5)
H12 H -0.2855 0.0418 0.8618
C15 C -0.0568(8) -0.0385(2) 0.8720(6)
H13 H -0.1491 -0.0704 0.8014
C16 C 0.1589(8) -0.0605(2) 0.9386(5)
C17 C 0.2922(7) -0.0109(2) 1.0395(5)
H14 H 0.4390 -0.0242 1.0853
C18 C 0.2162(7) 0.0564(2) 1.0740(5)
H15 H 0.3101 0.0889 1.1414
C19 C 0.2468(9) -0.1339(2) 0.9055(6)
H16 H 0.3941 -0.1299 0.8639
H17 H 0.1439 -0.1581 0.8178
H18 H 0.2595 -0.1615 1.0132
loop_
_geom_bond_atom_site_label_1
_geom_bond_atom_site_label_2
_geom_bond_site_symmetry_1
_geom_bond_site_symmetry_2
Br1 C10 1_555 1_555
S1 O1 1_555 1_555
O2 S1 1_555 1_555
N1 S1 1_555 1_555
C1 N1 1_555 1_555
H1 C1 1_555 1_555
H2 C1 1_555 1_555
C2 C1 1_555 1_555
H3 C2 1_555 1_555
C3 C2 1_555 1_555
H4 C3 1_555 1_555
C4 C3 1_555 1_555
H5 C4 1_555 1_555
C5 N1 1_555 1_555
H6 C5 1_555 1_555
C6 C2 1_555 1_555
H7 C6 1_555 1_555
C7 C6 1_555 1_555
C8 C7 1_555 1_555
H8 C8 1_555 1_555
C9 C8 1_555 1_555
H9 C9 1_555 1_555
C10 C9 1_555 1_555
C11 C10 1_555 1_555
H10 C11 1_555 1_555
C12 C7 1_555 1_555
H11 C12 1_555 1_555
C13 S1 1_555 1_555
C14 C13 1_555 1_555
H12 C14 1_555 1_555
C15 C14 1_555 1_555
H13 C15 1_555 1_555
C16 C15 1_555 1_555
C17 C16 1_555 1_555
H14 C17 1_555 1_555
C18 C13 1_555 1_555
H15 C18 1_555 1_555
C19 C16 1_555 1_555
H16 C19 1_555 1_555
H17 C19 1_555 1_555
H18 C19 1_555 1_555
C3 C6 1_555 1_555
C4 C5 1_555 1_555
C11 C12 1_555 1_555
C17 C18 1_555 1_555

#END
