
#######################################################################
#
#                 Cambridge Crystallographic Data Centre
#                                CCDC 
#
#######################################################################
#
# If this CIF has been generated from an entry in the Cambridge 
# Structural Database, then it will include bibliographic, chemical, 
# crystal, experimental, refinement or atomic coordinate data resulting 
# from the CCDC's data processing and validation procedures.
#
#######################################################################

data_CUSQIR
_chemical_formula_moiety         'C26 H20 N6'
_chemical_name_systematic        
N,N,N',N'-tetrakis(pyridin-4-yl)benzene-1,4-diamine
_symmetry_cell_setting           monoclinic
_symmetry_space_group_name_H-M   'P 21/c'
_symmetry_Int_Tables_number      14
_space_group_name_Hall           '-P 2ybc'
loop_
_symmetry_equiv_pos_site_id
_symmetry_equiv_pos_as_xyz
1 x,y,z
2 -x,1/2+y,1/2-z
3 -x,-y,-z
4 x,1/2-y,1/2+z
_cell_length_a                   5.8975(6)
_cell_length_b                   14.1068(15)
_cell_length_c                   12.6935(13)
_cell_angle_alpha                90
_cell_angle_beta                 96.270(2)
_cell_angle_gamma                90
_cell_volume                     1049.72
_cell_formula_units_Z            2
loop_
_atom_site_label
_atom_site_type_symbol
_atom_site_fract_x
_atom_site_fract_y
_atom_site_fract_z
N1 N 0.3420(3) 0.46157(10) 0.78605(9)
C1 C 0.4022(3) 0.52124(12) 0.70456(11)
N2 N 0.5142(3) 0.64446(11) 0.54387(11)
C2 C 0.4209(3) 0.48126(12) 0.89448(12)
C3 C 0.4831(3) 0.40785(12) 0.96438(12)
H1 H 0.4714 0.3455 0.9406
C4 C 0.4380(3) 0.57380(12) 0.93136(12)
H2 H 0.3959 0.6237 0.8855
C5 C 0.2524(3) 0.53841(13) 0.61456(12)
H3 H 0.1102 0.5092 0.6059
C6 C 0.1892(3) 0.38536(12) 0.76105(12)
C7 C 0.0093(3) 0.36727(13) 0.81982(14)
H4 H -0.0128 0.4041 0.8786
C8 C 0.6122(3) 0.56649(13) 0.71068(13)
H5 H 0.7208 0.5567 0.7684
C9 C 0.3159(4) 0.59870(14) 0.53876(14)
H6 H 0.2126 0.6085 0.4790
C10 C 0.2144(3) 0.32696(12) 0.67552(13)
H7 H 0.3345 0.3357 0.6347
N3 N -0.1173(3) 0.23734(13) 0.70652(14)
C11 C 0.6567(4) 0.62622(14) 0.62965(14)
H8 H 0.7980 0.6561 0.6355
C12 C 0.0578(4) 0.25560(14) 0.65216(15)
H9 H 0.0759 0.2173 0.5940
C13 C -0.1361(3) 0.29350(15) 0.78929(17)
H10 H -0.2561 0.2821 0.8294
N1B N 0.6580(3) 0.53843(10) 1.21395(9)
C1B C 0.5978(3) 0.47876(12) 1.29544(11)
N2B N 0.4858(3) 0.35554(11) 1.45613(11)
C2B C 0.5791(3) 0.51874(12) 1.10552(12)
C3B C 0.5169(3) 0.59215(12) 1.03562(12)
H1B H 0.5286 0.6545 1.0594
C4B C 0.5620(3) 0.42620(12) 1.06864(12)
H2B H 0.6041 0.3763 1.1145
C5B C 0.7476(3) 0.46159(13) 1.38544(12)
H3B H 0.8898 0.4908 1.3941
C6B C 0.8108(3) 0.61464(12) 1.23895(12)
C7B C 0.9907(3) 0.63273(13) 1.18018(14)
H4B H 1.0128 0.5959 1.1214
C8B C 0.3878(3) 0.43351(13) 1.28932(13)
H5B H 0.2792 0.4433 1.2316
C9B C 0.6841(4) 0.40130(14) 1.46124(14)
H6B H 0.7874 0.3915 1.5210
C10B C 0.7856(3) 0.67304(12) 1.32448(13)
H7B H 0.6655 0.6643 1.3653
N3B N 1.1173(3) 0.76266(13) 1.29348(14)
C11B C 0.3433(4) 0.37378(14) 1.37035(14)
H8B H 0.2020 0.3439 1.3645
C12B C 0.9422(4) 0.74440(14) 1.34784(15)
H9B H 0.9241 0.7827 1.4060
C13B C 1.1361(3) 0.70650(15) 1.21071(17)
H10B H 1.2561 0.7179 1.1706
loop_
_geom_bond_atom_site_label_1
_geom_bond_atom_site_label_2
_geom_bond_site_symmetry_1
_geom_bond_site_symmetry_2
N1 C1 1_555 1_555
C1 C5 1_555 1_555
N2 C9 1_555 1_555
C2 N1 1_555 1_555
C3 C2 1_555 1_555
H1 C3 1_555 1_555
C4 C2 1_555 1_555
H2 C4 1_555 1_555
C5 H3 1_555 1_555
C6 N1 1_555 1_555
C7 C6 1_555 1_555
H4 C7 1_555 1_555
C8 C1 1_555 1_555
H5 C8 1_555 1_555
C9 C5 1_555 1_555
H6 C9 1_555 1_555
C10 C6 1_555 1_555
H7 C10 1_555 1_555
N3 C12 1_555 1_555
C11 N2 1_555 1_555
H8 C11 1_555 1_555
C12 C10 1_555 1_555
H9 C12 1_555 1_555
C13 C7 1_555 1_555
H10 C13 1_555 1_555
N1B C1B 1_555 1_555
C1B C5B 1_555 1_555
N2B C9B 1_555 1_555
C2B N1B 1_555 1_555
C3B C4 1_555 1_555
H1B C3B 1_555 1_555
C4B C3 1_555 1_555
H2B C4B 1_555 1_555
C5B H3B 1_555 1_555
C6B N1B 1_555 1_555
C7B C6B 1_555 1_555
H4B C7B 1_555 1_555
C8B C1B 1_555 1_555
H5B C8B 1_555 1_555
C9B C5B 1_555 1_555
H6B C9B 1_555 1_555
C10B C6B 1_555 1_555
H7B C10B 1_555 1_555
N3B C12B 1_555 1_555
C11B N2B 1_555 1_555
H8B C11B 1_555 1_555
C12B C10B 1_555 1_555
H9B C12B 1_555 1_555
C13B C7B 1_555 1_555
H10B C13B 1_555 1_555
C8 C11 1_555 1_555
N3 C13 1_555 1_555
C2B C3B 1_555 1_555
C2B C4B 1_555 1_555
C8B C11B 1_555 1_555
N3B C13B 1_555 1_555

#END
