
#######################################################################
#
#                 Cambridge Crystallographic Data Centre
#                                CCDC 
#
#######################################################################
#
# If this CIF has been generated from an entry in the Cambridge 
# Structural Database, then it will include bibliographic, chemical, 
# crystal, experimental, refinement or atomic coordinate data resulting 
# from the CCDC's data processing and validation procedures.
#
#######################################################################

data_CUSTAN
_chemical_formula_moiety         'C17 H20 O2 S2'
_chemical_name_systematic        
3-(2-(1,3-Dithian-2-yl)-1-phenylvinyl)-4-hydroxypent-3-en-2-one
_symmetry_cell_setting           monoclinic
_symmetry_space_group_name_H-M   'P 21/n'
_symmetry_Int_Tables_number      14
_space_group_name_Hall           '-P 2yn'
loop_
_symmetry_equiv_pos_site_id
_symmetry_equiv_pos_as_xyz
1 x,y,z
2 1/2-x,1/2+y,1/2-z
3 -x,-y,-z
4 1/2+x,1/2-y,1/2+z
_cell_length_a                   9.7971(7)
_cell_length_b                   14.8606(6)
_cell_length_c                   12.2613(7)
_cell_angle_alpha                90
_cell_angle_beta                 111.346(7)
_cell_angle_gamma                90
_cell_volume                     1662.67
_exptl_crystal_colour            colorless
_exptl_crystal_description       block
_cell_formula_units_Z            4
_exptl_crystal_recrystallization_method 'ethyl acetate/petroleum ether'
loop_
_atom_site_label
_atom_site_type_symbol
_atom_site_fract_x
_atom_site_fract_y
_atom_site_fract_z
S1 S 0.48568(9) 0.13646(6) 0.85230(7)
S2 S 0.76470(11) 0.24521(5) 0.92278(8)
O1 O 1.0759(2) -0.03838(14) 0.90755(17)
H1 H 0.982(5) -0.100(3) 0.910(3)
O2 O 0.8568(3) -0.13210(12) 0.87628(18)
C1 C 0.7291(3) 0.15871(17) 0.5147(2)
H2 H 0.7040 0.2111 0.5444
C2 C 0.7395(3) 0.15980(19) 0.4055(2)
H3 H 0.7225 0.2131 0.3629
C3 C 0.7746(4) 0.0834(2) 0.3593(2)
H4 H 0.7808 0.0845 0.2854
C4 C 0.8004(4) 0.0058(2) 0.4227(3)
H5 H 0.8242 -0.0464 0.3918
C5 C 0.7916(4) 0.00408(18) 0.5329(2)
H6 H 0.8102 -0.0494 0.5752
C6 C 0.7557(3) 0.08016(16) 0.5809(2)
C7 C 0.7511(3) 0.07798(15) 0.7010(2)
C8 C 0.6730(3) 0.13659(17) 0.7362(2)
H7 H 0.6144 0.1771 0.6812
C9 C 0.6723(3) 0.14218(16) 0.8578(2)
H8 H 0.7272 0.0910 0.9032
C10 C 0.7501(4) 0.2393(2) 1.0649(3)
H9 H 0.8042 0.1872 1.1060
H10 H 0.7960 0.2923 1.1094
C11 C 0.5953(4) 0.2332(2) 1.0613(3)
H11 H 0.5402 0.2843 1.0179
H12 H 0.5965 0.2372 1.1406
C12 C 0.5179(4) 0.1477(2) 1.0059(3)
H13 H 0.4245 0.1450 1.0162
H14 H 0.5759 0.0968 1.0470
C13 C 0.8419(3) 0.00772(15) 0.7826(2)
C14 C 0.9945(3) 0.02014(17) 0.8388(2)
C15 C 1.0677(4) 0.1047(2) 0.8224(3)
H15 H 1.0579 0.1502 0.8746
H16 H 1.0225 0.1250 0.7430
H17 H 1.1697 0.0930 0.8391
C16 C 0.7784(3) -0.07105(17) 0.8040(2)
C17 C 0.6193(4) -0.0900(2) 0.7483(3)
H18 H 0.6020 -0.1529 0.7557
H19 H 0.5861 -0.0741 0.6669
H20 H 0.5668 -0.0553 0.7863
loop_
_geom_bond_atom_site_label_1
_geom_bond_atom_site_label_2
_geom_bond_site_symmetry_1
_geom_bond_site_symmetry_2
S1 C9 1_555 1_555
S2 C9 1_555 1_555
O1 C14 1_555 1_555
H1 O2 1_555 1_555
O2 C16 1_555 1_555
C1 H2 1_555 1_555
C2 C1 1_555 1_555
H3 C2 1_555 1_555
C3 C2 1_555 1_555
H4 C3 1_555 1_555
C4 C3 1_555 1_555
H5 C4 1_555 1_555
C5 C4 1_555 1_555
H6 C5 1_555 1_555
C6 C1 1_555 1_555
C7 C6 1_555 1_555
C8 C7 1_555 1_555
H7 C8 1_555 1_555
C9 C8 1_555 1_555
H8 C9 1_555 1_555
C10 S2 1_555 1_555
H9 C10 1_555 1_555
H10 C10 1_555 1_555
C11 C10 1_555 1_555
H11 C11 1_555 1_555
H12 C11 1_555 1_555
C12 S1 1_555 1_555
H13 C12 1_555 1_555
H14 C12 1_555 1_555
C13 C7 1_555 1_555
C14 C13 1_555 1_555
C15 C14 1_555 1_555
H15 C15 1_555 1_555
H16 C15 1_555 1_555
H17 C15 1_555 1_555
C16 C13 1_555 1_555
C17 C16 1_555 1_555
H18 C17 1_555 1_555
H19 C17 1_555 1_555
H20 C17 1_555 1_555
C5 C6 1_555 1_555
C11 C12 1_555 1_555

#END
