
#######################################################################
#
#                 Cambridge Crystallographic Data Centre
#                                CCDC 
#
#######################################################################
#
# If this CIF has been generated from an entry in the Cambridge 
# Structural Database, then it will include bibliographic, chemical, 
# crystal, experimental, refinement or atomic coordinate data resulting 
# from the CCDC's data processing and validation procedures.
#
#######################################################################

data_CUTCIE
_chemical_name_common            'Isopropylidine C2 Ceramide'
_chemical_formula_moiety         'C23 H43 N1 O3'
_chemical_name_systematic        
N-(2,2-Dimethyl-4-(pentadec-1-en-1-yl)-1,3-dioxan-5-yl)acetamide
_symmetry_cell_setting           triclinic
_symmetry_space_group_name_H-M   'P 1'
_symmetry_Int_Tables_number      1
_space_group_name_Hall           'P 1'
loop_
_symmetry_equiv_pos_site_id
_symmetry_equiv_pos_as_xyz
1 x,y,z
_cell_length_a                   8.9474(16)
_cell_length_b                   9.1515(16)
_cell_length_c                   29.391(5)
_cell_angle_alpha                87.563(2)
_cell_angle_beta                 82.486(2)
_cell_angle_gamma                88.842(2)
_cell_volume                     2383.51
_exptl_crystal_colour            colorless
_exptl_crystal_description       needle
_cell_formula_units_Z            4
loop_
_atom_site_label
_atom_site_type_symbol
_atom_site_fract_x
_atom_site_fract_y
_atom_site_fract_z
O1 O 0.8466(4) 0.0326(4) 0.63129(13)
O2 O 0.4896(4) 0.1344(4) 0.51912(12)
O3 O 0.3684(3) 0.1599(3) 0.59438(10)
N1 N 0.7736(4) 0.2357(4) 0.59284(14)
H1 H 0.7990 0.3245 0.5824
C1 C 0.6240(6) 0.2016(6) 0.52923(17)
H2 H 0.6189 0.3083 0.5224
H3 H 0.7129 0.1610 0.5100
C2 C 0.6388(5) 0.1721(5) 0.57973(17)
H4 H 0.6455 0.0638 0.5854
C3 C 0.4981(5) 0.2286(5) 0.60920(17)
H5 H 0.4895 0.3370 0.6042
C4 C 0.4979(5) 0.1921(5) 0.65956(16)
H6 H 0.5188 0.0941 0.6690
C5 C 0.4697(6) 0.2908(5) 0.69133(18)
H7 H 0.4469 0.3870 0.6806
C6 C 0.4695(7) 0.2693(5) 0.74200(17)
H8 H 0.3658 0.2890 0.7569
H9 H 0.5349 0.3446 0.7519
C7 C 0.5205(6) 0.1204(5) 0.76084(17)
H10 H 0.4514 0.0439 0.7537
H11 H 0.6229 0.0963 0.7457
C8 C 0.5219(6) 0.1215(5) 0.81274(17)
H12 H 0.5914 0.1984 0.8193
H13 H 0.4196 0.1489 0.8273
C9 C 0.5685(6) -0.0222(5) 0.83534(17)
H14 H 0.6722 -0.0487 0.8218
H15 H 0.5007 -0.1002 0.8286
C10 C 0.5636(6) -0.0150(5) 0.88760(18)
H16 H 0.6292 0.0652 0.8942
H17 H 0.4593 0.0098 0.9010
C11 C 0.6128(5) -0.1549(5) 0.91135(17)
H18 H 0.7179 -0.1790 0.8986
H19 H 0.5483 -0.2358 0.9046
C12 C 0.6038(6) -0.1446(5) 0.96356(17)
H20 H 0.6684 -0.0637 0.9703
H21 H 0.4987 -0.1200 0.9762
C13 C 0.6526(5) -0.2845(5) 0.98790(17)
H22 H 0.7578 -0.3089 0.9753
H23 H 0.5882 -0.3654 0.9811
C14 C 0.6433(5) -0.2747(5) 1.03988(17)
H24 H 0.5381 -0.2505 1.0525
H25 H 0.7077 -0.1938 1.0467
C15 C 0.6925(6) -0.4153(5) 1.06392(17)
H26 H 0.6283 -0.4960 1.0569
H27 H 0.7977 -0.4392 1.0512
C16 C 0.6838(6) -0.4078(5) 1.11562(18)
H28 H 0.5785 -0.3849 1.1285
H29 H 0.7476 -0.3269 1.1228
C17 C 0.7346(6) -0.5496(6) 1.13895(18)
H30 H 0.8402 -0.5717 1.1263
H31 H 0.6717 -0.6306 1.1313
C18 C 0.7243(7) -0.5444(7) 1.19137(19)
H32 H 0.6192 -0.5277 1.2044
H33 H 0.7864 -0.4646 1.1993
H34 H 0.7609 -0.6375 1.2038
C19 C 0.8601(5) 0.1635(5) 0.62034(17)
C20 C 0.9789(6) 0.2548(6) 0.6377(2)
H35 H 1.0761 0.2024 0.6338
H36 H 0.9494 0.2724 0.6704
H37 H 0.9880 0.3486 0.6203
C21 C 0.3546(5) 0.1816(5) 0.54692(17)
C22 C 0.2346(6) 0.0757(6) 0.53795(18)
H38 H 0.1365 0.1075 0.5535
H39 H 0.2594 -0.0224 0.5497
H40 H 0.2305 0.0735 0.5048
C23 C 0.3126(6) 0.3393(5) 0.53466(18)
H41 H 0.3943 0.4039 0.5399
H42 H 0.2197 0.3677 0.5539
H43 H 0.2969 0.3479 0.5023
O4 O 0.8400(4) 0.5421(4) 0.57399(12)
O5 O 0.3313(4) 0.6755(4) 0.61302(12)
O6 O 0.4063(3) 0.6539(3) 0.68685(11)
N2 N 0.7409(4) 0.7514(4) 0.60402(14)
H44 H 0.7561 0.8443 0.6081
C24 C 0.4713(5) 0.7422(6) 0.59451(18)
H45 H 0.4610 0.8499 0.5958
H46 H 0.4978 0.7170 0.5620
C25 C 0.5952(5) 0.6878(5) 0.62227(17)
H47 H 0.6046 0.5794 0.6197
C26 C 0.5511(5) 0.7192(5) 0.67251(17)
H48 H 0.5441 0.8272 0.6765
C27 C 0.6590(6) 0.6514(6) 0.70225(19)
H49 H 0.6889 0.5526 0.6971
C28 C 0.7157(6) 0.7158(6) 0.73463(19)
H50 H 0.6879 0.8153 0.7393
C29 C 0.8221(7) 0.6455(8) 0.76540(19)
H51 H 0.8924 0.7203 0.7729
H52 H 0.8827 0.5687 0.7484
C30 C 0.7421(6) 0.5778(6) 0.80976(18)
H53 H 0.6711 0.6508 0.8248
H54 H 0.6826 0.4937 0.8025
C31 C 0.8502(6) 0.5263(6) 0.84267(19)
H55 H 0.9000 0.6126 0.8528
H56 H 0.9295 0.4643 0.8260
C32 C 0.7780(6) 0.4404(5) 0.88481(18)
H57 H 0.7339 0.3506 0.8749
H58 H 0.6947 0.4998 0.9005
C33 C 0.8869(6) 0.3975(6) 0.91873(18)
H59 H 0.9286 0.4877 0.9292
H60 H 0.9719 0.3412 0.9026
C34 C 0.8184(6) 0.3067(5) 0.96075(19)
H61 H 0.7322 0.3618 0.9768
H62 H 0.7792 0.2150 0.9505
C35 C 0.9302(5) 0.2688(5) 0.99447(17)
H63 H 0.9689 0.3606 1.0049
H64 H 1.0168 0.2145 0.9783
C36 C 0.8630(6) 0.1770(5) 1.03645(18)
H65 H 0.7750 0.2302 1.0522
H66 H 0.8264 0.0842 1.0261
C37 C 0.9739(6) 0.1419(5) 1.07061(17)
H67 H 1.0608 0.0868 1.0550
H68 H 1.0122 0.2347 1.0804
C38 C 0.9064(6) 0.0532(6) 1.11294(18)
H69 H 0.8685 -0.0396 1.1031
H70 H 0.8191 0.1082 1.1284
C39 C 1.0157(6) 0.0180(6) 1.14750(19)
H71 H 1.1045 -0.0347 1.1319
H72 H 1.0515 0.1108 1.1581
C40 C 0.9486(6) -0.0742(6) 1.18911(18)
H73 H 0.8614 -0.0203 1.2050
H74 H 0.9103 -0.1657 1.1784
C41 C 1.0571(8) -0.1138(7) 1.2234(2)
H75 H 1.0844 -0.0250 1.2377
H76 H 1.1481 -0.1596 1.2075
H77 H 1.0088 -0.1822 1.2471
C42 C 0.8514(5) 0.6723(5) 0.58135(16)
C43 C 0.9957(5) 0.7534(6) 0.56389(19)
H78 H 1.0076 0.7617 0.5303
H79 H 1.0821 0.6993 0.5739
H80 H 0.9905 0.8514 0.5763
C44 C 0.2865(5) 0.6998(5) 0.66050(17)
C45 C 0.2358(6) 0.8567(6) 0.6692(2)
H81 H 0.3132 0.9235 0.6543
H82 H 0.2203 0.8713 0.7023
H83 H 0.1410 0.8764 0.6565
C46 C 0.1600(6) 0.5943(6) 0.6758(2)
H84 H 0.1321 0.5981 0.7091
H85 H 0.1935 0.4949 0.6679
H86 H 0.0725 0.6217 0.6602
O7 O 0.1546(4) 0.5729(4) 0.36855(13)
O8 O 0.5139(4) 0.6340(4) 0.47979(12)
O9 O 0.6359(4) 0.6875(3) 0.40506(11)
N3 N 0.2284(5) 0.7650(4) 0.40622(15)
H87 H 0.2022 0.8516 0.4169
C47 C 0.3776(6) 0.7046(6) 0.46977(17)
H88 H 0.3771 0.8084 0.4780
H89 H 0.2899 0.6566 0.4880
C48 C 0.3665(6) 0.6948(5) 0.41828(17)
H90 H 0.3643 0.5891 0.4111
C49 C 0.5075(6) 0.7621(5) 0.39057(17)
H91 H 0.5115 0.8686 0.3967
C50 C 0.5114(6) 0.7426(5) 0.34018(17)
H92 H 0.4752 0.6526 0.3313
C51 C 0.5594(6) 0.8368(5) 0.30723(17)
H93 H 0.5945 0.9274 0.3160
C52 C 0.5643(6) 0.8149(6) 0.25664(18)
H94 H 0.5061 0.7270 0.2521
H95 H 0.6701 0.7976 0.2431
C53 C 0.5002(6) 0.9458(5) 0.23192(17)
H96 H 0.5577 1.0333 0.2373
H97 H 0.3945 0.9620 0.2457
C54 C 0.5030(6) 0.9324(5) 0.18012(18)
H98 H 0.6070 0.9081 0.1664
H99 H 0.4376 0.8507 0.1746
C55 C 0.4502(6) 1.0711(5) 0.15637(17)
H100 H 0.5148 1.1528 0.1624
H101 H 0.3458 1.0945 0.1700
C56 C 0.4534(6) 1.0616(5) 0.10466(17)
H102 H 0.5572 1.0360 0.0911
H103 H 0.3869 0.9814 0.0986
C57 C 0.4040(6) 1.2009(5) 0.08083(18)
H104 H 0.4702 1.2812 0.0869
H105 H 0.3000 1.2263 0.0943
C58 C 0.4080(5) 1.1911(5) 0.02935(17)
H106 H 0.3402 1.1121 0.0232
H107 H 0.5115 1.1637 0.0159
C59 C 0.3612(6) 1.3323(5) 0.00524(18)
H108 H 0.4285 1.4113 0.0117
H109 H 0.2575 1.3592 0.0186
C60 C 0.3653(6) 1.3250(5) -0.04677(18)
H110 H 0.4689 1.2987 -0.0604
H111 H 0.2977 1.2465 -0.0534
C61 C 0.3179(6) 1.4676(5) -0.06961(18)
H112 H 0.3850 1.5460 -0.0626
H113 H 0.2142 1.4934 -0.0559
C62 C 0.3215(6) 1.4650(5) -0.12201(18)
H114 H 0.4253 1.4410 -0.1360
H115 H 0.2547 1.3867 -0.1293
C63 C 0.2720(6) 1.6089(6) -0.14308(18)
H116 H 0.3379 1.6869 -0.1351
H117 H 0.1679 1.6319 -0.1290
C64 C 0.2755(7) 1.6124(7) -0.19511(19)
H118 H 0.2124 1.5342 -0.2036
H119 H 0.3795 1.5979 -0.2096
H120 H 0.2369 1.7072 -0.2056
C65 C 0.1394(6) 0.7012(5) 0.37915(17)
C66 C 0.0195(6) 0.7990(6) 0.3625(2)
H121 H -0.0767 0.7478 0.3667
H122 H 0.0476 0.8249 0.3298
H123 H 0.0095 0.8882 0.3800
C67 C 0.6478(6) 0.6904(5) 0.45303(17)
C68 C 0.6819(6) 0.8440(6) 0.46730(19)
H124 H 0.5927 0.9072 0.4662
H125 H 0.7663 0.8844 0.4462
H126 H 0.7085 0.8386 0.4986
C69 C 0.7717(6) 0.5821(6) 0.46129(18)
H127 H 0.8680 0.6176 0.4453
H128 H 0.7497 0.4873 0.4496
H129 H 0.7779 0.5713 0.4943
O10 O 0.2022(4) 0.0660(4) 0.42178(13)
O11 O 0.6869(4) 0.1829(4) 0.37405(12)
O12 O 0.6147(4) 0.2428(4) 0.30153(12)
N4 N 0.2785(5) 0.2822(4) 0.38790(15)
H130 H 0.2575 0.3758 0.3837
C70 C 0.5460(6) 0.2357(6) 0.39707(18)
H131 H 0.5558 0.3391 0.4047
H132 H 0.5190 0.1778 0.4261
C71 C 0.4220(5) 0.2235(5) 0.36648(17)
H133 H 0.4094 0.1180 0.3604
C72 C 0.4707(6) 0.3068(5) 0.32059(17)
H134 H 0.4851 0.4121 0.3265
C73 C 0.3644(6) 0.2964(5) 0.28528(17)
H135 H 0.3464 0.2028 0.2745
C74 C 0.2955(6) 0.4103(6) 0.26866(17)
H136 H 0.3117 0.5021 0.2810
C75 C 0.1941(6) 0.4100(6) 0.23228(18)
H137 H 0.0961 0.4562 0.2437
H138 H 0.1752 0.3078 0.2251
C76 C 0.2642(6) 0.4934(6) 0.18841(17)
H139 H 0.2999 0.5889 0.1970
H140 H 0.3533 0.4373 0.1746
C77 C 0.1574(6) 0.5205(6) 0.15221(17)
H141 H 0.0660 0.5729 0.1662
H142 H 0.1256 0.4252 0.1423
C78 C 0.2293(6) 0.6100(5) 0.11008(18)
H143 H 0.2679 0.7020 0.1203
H144 H 0.3163 0.5542 0.0949
C79 C 0.1209(5) 0.6471(5) 0.07531(17)
H145 H 0.0857 0.5549 0.0641
H146 H 0.0317 0.6990 0.0909
C80 C 0.1891(6) 0.7412(5) 0.03436(18)
H147 H 0.2773 0.6887 0.0184
H148 H 0.2256 0.8328 0.0456
C81 C 0.0792(5) 0.7801(5) -0.00014(17)
H149 H 0.0421 0.6885 -0.0112
H150 H -0.0087 0.8332 0.0157
C82 C 0.1483(5) 0.8739(5) -0.04147(17)
H151 H 0.2369 0.8212 -0.0571
H152 H 0.1844 0.9658 -0.0304
C83 C 0.0391(6) 0.9115(5) -0.07625(18)
H153 H 0.0002 0.8195 -0.0865
H154 H -0.0477 0.9673 -0.0609
C84 C 0.1098(6) 1.0004(6) -0.11819(18)
H155 H 0.1997 0.9465 -0.1325
H156 H 0.1446 1.0941 -0.1080
C85 C 0.0057(6) 1.0335(6) -0.15442(19)
H157 H -0.0294 0.9400 -0.1647
H158 H -0.0840 1.0880 -0.1403
C86 C 0.0787(7) 1.1217(8) -0.1960(2)
H159 H 0.1675 1.0664 -0.2103
H160 H 0.1152 1.2145 -0.1856
C87 C -0.0259(9) 1.1574(10) -0.2322(3)
H161 H -0.1174 1.2065 -0.2179
H162 H -0.0531 1.0666 -0.2455
H163 H 0.0258 1.2218 -0.2565
C88 C 0.1771(6) 0.1968(5) 0.41392(17)
C89 C 0.0330(6) 0.2691(6) 0.4330(2)
H164 H 0.0194 0.2571 0.4665
H165 H -0.0513 0.2243 0.4208
H166 H 0.0361 0.3735 0.4241
C90 C 0.7323(6) 0.2523(6) 0.33013(18)
C91 C 0.7786(6) 0.4106(6) 0.33359(19)
H167 H 0.7005 0.4622 0.3536
H168 H 0.7910 0.4588 0.3029
H169 H 0.8742 0.4125 0.3465
C92 C 0.8607(6) 0.1606(6) 0.3075(2)
H170 H 0.8916 0.1996 0.2762
H171 H 0.8279 0.0594 0.3065
H172 H 0.9461 0.1632 0.3252
loop_
_geom_bond_atom_site_label_1
_geom_bond_atom_site_label_2
_geom_bond_site_symmetry_1
_geom_bond_site_symmetry_2
O1 C19 1_555 1_555
O2 C1 1_555 1_555
O3 C3 1_555 1_555
N1 H1 1_555 1_555
C1 H2 1_555 1_555
H3 C1 1_555 1_555
C2 N1 1_555 1_555
H4 C2 1_555 1_555
C3 C2 1_555 1_555
H5 C3 1_555 1_555
C4 C3 1_555 1_555
H6 C4 1_555 1_555
C5 C4 1_555 1_555
H7 C5 1_555 1_555
C6 C5 1_555 1_555
H8 C6 1_555 1_555
H9 C6 1_555 1_555
C7 C6 1_555 1_555
H10 C7 1_555 1_555
H11 C7 1_555 1_555
C8 C7 1_555 1_555
H12 C8 1_555 1_555
H13 C8 1_555 1_555
C9 C8 1_555 1_555
H14 C9 1_555 1_555
H15 C9 1_555 1_555
C10 C9 1_555 1_555
H16 C10 1_555 1_555
H17 C10 1_555 1_555
C11 C10 1_555 1_555
H18 C11 1_555 1_555
H19 C11 1_555 1_555
C12 C11 1_555 1_555
H20 C12 1_555 1_555
H21 C12 1_555 1_555
C13 C12 1_555 1_555
H22 C13 1_555 1_555
H23 C13 1_555 1_555
C14 C13 1_555 1_555
H24 C14 1_555 1_555
H25 C14 1_555 1_555
C15 C14 1_555 1_555
H26 C15 1_555 1_555
H27 C15 1_555 1_555
C16 C15 1_555 1_555
H28 C16 1_555 1_555
H29 C16 1_555 1_555
C17 C16 1_555 1_555
H30 C17 1_555 1_555
H31 C17 1_555 1_555
C18 C17 1_555 1_555
H32 C18 1_555 1_555
H33 C18 1_555 1_555
H34 C18 1_555 1_555
C19 N1 1_555 1_555
C20 C19 1_555 1_555
H35 C20 1_555 1_555
H36 C20 1_555 1_555
H37 C20 1_555 1_555
C21 O2 1_555 1_555
C22 C21 1_555 1_555
H38 C22 1_555 1_555
H39 C22 1_555 1_555
H40 C22 1_555 1_555
C23 C21 1_555 1_555
H41 C23 1_555 1_555
H42 C23 1_555 1_555
H43 C23 1_555 1_555
O4 C42 1_555 1_555
O5 C24 1_555 1_555
O6 C26 1_555 1_555
N2 H44 1_555 1_555
C24 H45 1_555 1_555
H46 C24 1_555 1_555
C25 N2 1_555 1_555
H47 C25 1_555 1_555
C26 C25 1_555 1_555
H48 C26 1_555 1_555
C27 C26 1_555 1_555
H49 C27 1_555 1_555
C28 C27 1_555 1_555
H50 C28 1_555 1_555
C29 C28 1_555 1_555
H51 C29 1_555 1_555
H52 C29 1_555 1_555
C30 C29 1_555 1_555
H53 C30 1_555 1_555
H54 C30 1_555 1_555
C31 C30 1_555 1_555
H55 C31 1_555 1_555
H56 C31 1_555 1_555
C32 C31 1_555 1_555
H57 C32 1_555 1_555
H58 C32 1_555 1_555
C33 C32 1_555 1_555
H59 C33 1_555 1_555
H60 C33 1_555 1_555
C34 C33 1_555 1_555
H61 C34 1_555 1_555
H62 C34 1_555 1_555
C35 C34 1_555 1_555
H63 C35 1_555 1_555
H64 C35 1_555 1_555
C36 C35 1_555 1_555
H65 C36 1_555 1_555
H66 C36 1_555 1_555
C37 C36 1_555 1_555
H67 C37 1_555 1_555
H68 C37 1_555 1_555
C38 C37 1_555 1_555
H69 C38 1_555 1_555
H70 C38 1_555 1_555
C39 C38 1_555 1_555
H71 C39 1_555 1_555
H72 C39 1_555 1_555
C40 C39 1_555 1_555
H73 C40 1_555 1_555
H74 C40 1_555 1_555
C41 C40 1_555 1_555
H75 C41 1_555 1_555
H76 C41 1_555 1_555
H77 C41 1_555 1_555
C42 N2 1_555 1_555
C43 C42 1_555 1_555
H78 C43 1_555 1_555
H79 C43 1_555 1_555
H80 C43 1_555 1_555
C44 O5 1_555 1_555
C45 C44 1_555 1_555
H81 C45 1_555 1_555
H82 C45 1_555 1_555
H83 C45 1_555 1_555
C46 C44 1_555 1_555
H84 C46 1_555 1_555
H85 C46 1_555 1_555
H86 C46 1_555 1_555
O7 C65 1_555 1_555
O8 C47 1_555 1_555
O9 C49 1_555 1_555
N3 H87 1_555 1_555
C47 H88 1_555 1_555
H89 C47 1_555 1_555
C48 N3 1_555 1_555
H90 C48 1_555 1_555
C49 C48 1_555 1_555
H91 C49 1_555 1_555
C50 C49 1_555 1_555
H92 C50 1_555 1_555
C51 C50 1_555 1_555
H93 C51 1_555 1_555
C52 C51 1_555 1_555
H94 C52 1_555 1_555
H95 C52 1_555 1_555
C53 C52 1_555 1_555
H96 C53 1_555 1_555
H97 C53 1_555 1_555
C54 C53 1_555 1_555
H98 C54 1_555 1_555
H99 C54 1_555 1_555
C55 C54 1_555 1_555
H100 C55 1_555 1_555
H101 C55 1_555 1_555
C56 C55 1_555 1_555
H102 C56 1_555 1_555
H103 C56 1_555 1_555
C57 C56 1_555 1_555
H104 C57 1_555 1_555
H105 C57 1_555 1_555
C58 C57 1_555 1_555
H106 C58 1_555 1_555
H107 C58 1_555 1_555
C59 C58 1_555 1_555
H108 C59 1_555 1_555
H109 C59 1_555 1_555
C60 C59 1_555 1_555
H110 C60 1_555 1_555
H111 C60 1_555 1_555
C61 C60 1_555 1_555
H112 C61 1_555 1_555
H113 C61 1_555 1_555
C62 C61 1_555 1_555
H114 C62 1_555 1_555
H115 C62 1_555 1_555
C63 C62 1_555 1_555
H116 C63 1_555 1_555
H117 C63 1_555 1_555
C64 C63 1_555 1_555
H118 C64 1_555 1_555
H119 C64 1_555 1_555
H120 C64 1_555 1_555
C65 N3 1_555 1_555
C66 C65 1_555 1_555
H121 C66 1_555 1_555
H122 C66 1_555 1_555
H123 C66 1_555 1_555
C67 O8 1_555 1_555
C68 C67 1_555 1_555
H124 C68 1_555 1_555
H125 C68 1_555 1_555
H126 C68 1_555 1_555
C69 C67 1_555 1_555
H127 C69 1_555 1_555
H128 C69 1_555 1_555
H129 C69 1_555 1_555
O10 C88 1_555 1_555
O11 C70 1_555 1_555
O12 C72 1_555 1_555
N4 H130 1_555 1_555
C70 H131 1_555 1_555
H132 C70 1_555 1_555
C71 N4 1_555 1_555
H133 C71 1_555 1_555
C72 C71 1_555 1_555
H134 C72 1_555 1_555
C73 C72 1_555 1_555
H135 C73 1_555 1_555
C74 C73 1_555 1_555
H136 C74 1_555 1_555
C75 C74 1_555 1_555
H137 C75 1_555 1_555
H138 C75 1_555 1_555
C76 C75 1_555 1_555
H139 C76 1_555 1_555
H140 C76 1_555 1_555
C77 C76 1_555 1_555
H141 C77 1_555 1_555
H142 C77 1_555 1_555
C78 C77 1_555 1_555
H143 C78 1_555 1_555
H144 C78 1_555 1_555
C79 C78 1_555 1_555
H145 C79 1_555 1_555
H146 C79 1_555 1_555
C80 C79 1_555 1_555
H147 C80 1_555 1_555
H148 C80 1_555 1_555
C81 C80 1_555 1_555
H149 C81 1_555 1_555
H150 C81 1_555 1_555
C82 C81 1_555 1_555
H151 C82 1_555 1_555
H152 C82 1_555 1_555
C83 C82 1_555 1_555
H153 C83 1_555 1_555
H154 C83 1_555 1_555
C84 C83 1_555 1_555
H155 C84 1_555 1_555
H156 C84 1_555 1_555
C85 C84 1_555 1_555
H157 C85 1_555 1_555
H158 C85 1_555 1_555
C86 C85 1_555 1_555
H159 C86 1_555 1_555
H160 C86 1_555 1_555
C87 C86 1_555 1_555
H161 C87 1_555 1_555
H162 C87 1_555 1_555
H163 C87 1_555 1_555
C88 N4 1_555 1_555
C89 C88 1_555 1_555
H164 C89 1_555 1_555
H165 C89 1_555 1_555
H166 C89 1_555 1_555
C90 O11 1_555 1_555
C91 C90 1_555 1_555
H167 C91 1_555 1_555
H168 C91 1_555 1_555
H169 C91 1_555 1_555
C92 C90 1_555 1_555
H170 C92 1_555 1_555
H171 C92 1_555 1_555
H172 C92 1_555 1_555
O3 C21 1_555 1_555
C1 C2 1_555 1_555
O6 C44 1_555 1_555
C24 C25 1_555 1_555
O9 C67 1_555 1_555
C47 C48 1_555 1_555
O12 C90 1_555 1_555
C70 C71 1_555 1_555

#END
