
#######################################################################
#
#                 Cambridge Crystallographic Data Centre
#                                CCDC 
#
#######################################################################
#
# If this CIF has been generated from an entry in the Cambridge 
# Structural Database, then it will include bibliographic, chemical, 
# crystal, experimental, refinement or atomic coordinate data resulting 
# from the CCDC's data processing and validation procedures.
#
#######################################################################

data_CUTJOS
_chemical_formula_moiety         'C27 H20 N4'
_chemical_name_systematic        
N,N''-(methylenedi-4,1-phenylene)bis(N'-phenylcarbodiimide)
_symmetry_cell_setting           tetragonal
_symmetry_space_group_name_H-M   'P 43 21 2'
_symmetry_Int_Tables_number      96
_space_group_name_Hall           'P 4nw 2abw'
loop_
_symmetry_equiv_pos_site_id
_symmetry_equiv_pos_as_xyz
1 x,y,z
2 -x,-y,1/2+z
3 1/2-y,1/2+x,3/4+z
4 1/2+y,1/2-x,1/4+z
5 1/2-x,1/2+y,3/4-z
6 1/2+x,1/2-y,1/4-z
7 y,x,-z
8 -y,-x,1/2-z
_cell_length_a                   6.0221(14)
_cell_length_b                   6.0221(14)
_cell_length_c                   57.119(14)
_cell_angle_alpha                90
_cell_angle_beta                 90
_cell_angle_gamma                90
_cell_volume                     2071.46
_exptl_crystal_colour            colorless
_cell_formula_units_Z            4
loop_
_atom_site_label
_atom_site_type_symbol
_atom_site_fract_x
_atom_site_fract_y
_atom_site_fract_z
N1 N 0.6675(3) 1.1708(3) 0.34155(2)
N2 N 0.8609(2) 1.0096(3) 0.30848(3)
C1 C 0.5019(3) 1.3379(3) 0.34281(3)
C2 C 0.3066(3) 1.3209(3) 0.32997(3)
H1 H 0.2815 1.1960 0.3202
C3 C 0.1491(3) 1.4872(3) 0.33157(3)
H2 H 0.0157 1.4770 0.3228
C4 C 0.1851(3) 1.6695(3) 0.34605(3)
H3 H 0.0774 1.7844 0.3470
C5 C 0.3786(3) 1.6829(3) 0.35911(3)
H4 H 0.4024 1.8065 0.3691
C6 C 0.5373(3) 1.5174(3) 0.35763(3)
H5 H 0.6694 1.5263 0.3667
C7 C 0.7464(3) 1.0858(3) 0.32418(3)
C8 C 0.8236(3) 0.8219(3) 0.29416(3)
C9 C 0.9926(3) 0.7625(3) 0.27882(3)
H6 H 1.1260 0.8465 0.2783
C10 C 0.9652(3) 0.5803(3) 0.26434(3)
H7 H 1.0811 0.5408 0.2538
C11 C 0.7731(3) 0.4543(3) 0.26480(3)
C12 C 0.6039(3) 0.5177(3) 0.28020(3)
H8 H 0.4698 0.4348 0.2806
C13 C 0.6283(3) 0.6990(3) 0.29490(3)
H9 H 0.5126 0.7390 0.3054
C14 C 0.7525(3) 0.2475(3) 0.2500
H10 H 0.8829 0.2402 0.2395
H10G H 0.7598 0.1171 0.2605
N1G N -0.1708(3) 0.3325(3) 0.15845(2)
N2G N -0.0096(3) 0.1391(2) 0.19152(3)
C1G C -0.3379(3) 0.4981(3) 0.15719(3)
C2G C -0.3209(3) 0.6934(3) 0.17003(3)
H1G H -0.1960 0.7185 0.1798
C3G C -0.4872(3) 0.8509(3) 0.16843(3)
H2G H -0.4770 0.9843 0.1772
C4G C -0.6695(3) 0.8149(3) 0.15395(3)
H3G H -0.7844 0.9226 0.1530
C5G C -0.6829(3) 0.6214(3) 0.14089(3)
H4G H -0.8065 0.5976 0.1309
C6G C -0.5174(3) 0.4627(3) 0.14237(3)
H5G H -0.5263 0.3306 0.1333
C7G C -0.0858(3) 0.2536(3) 0.17582(3)
C8G C 0.1781(3) 0.1764(3) 0.20584(3)
C9G C 0.2375(3) 0.0074(3) 0.22118(3)
H6G H 0.1535 -0.1260 0.2217
C10G C 0.4197(3) 0.0348(3) 0.23566(3)
H7G H 0.4592 -0.0811 0.2462
C11G C 0.5457(3) 0.2269(3) 0.23520(3)
C12G C 0.4823(3) 0.3961(3) 0.21980(3)
H8G H 0.5652 0.5302 0.2194
C13G C 0.3010(3) 0.3717(3) 0.20510(3)
H9G H 0.2610 0.4874 0.1946
H11? H 0.8829 0.2402 0.2395
loop_
_geom_bond_atom_site_label_1
_geom_bond_atom_site_label_2
_geom_bond_site_symmetry_1
_geom_bond_site_symmetry_2
N1 C1 1_555 1_555
N2 C7 1_555 1_555
C1 C2 1_555 1_555
C2 H1 1_555 1_555
C3 C2 1_555 1_555
H2 C3 1_555 1_555
C4 C3 1_555 1_555
H3 C4 1_555 1_555
C5 C4 1_555 1_555
H4 C5 1_555 1_555
C6 C1 1_555 1_555
H5 C6 1_555 1_555
C7 N1 1_555 1_555
C8 N2 1_555 1_555
C9 C8 1_555 1_555
H6 C9 1_555 1_555
C10 C9 1_555 1_555
H7 C10 1_555 1_555
C11 C10 1_555 1_555
C12 C11 1_555 1_555
H8 C12 1_555 1_555
C13 C8 1_555 1_555
H9 C13 1_555 1_555
C14 C11 1_555 1_555
H10 C14 1_555 1_555
H10G C14 1_555 1_555
N1G C1G 1_555 1_555
N2G C7G 1_555 1_555
C1G C2G 1_555 1_555
C2G H1G 1_555 1_555
C3G C2G 1_555 1_555
H2G C3G 1_555 1_555
C4G C3G 1_555 1_555
H3G C4G 1_555 1_555
C5G C4G 1_555 1_555
H4G C5G 1_555 1_555
C6G C1G 1_555 1_555
H5G C6G 1_555 1_555
C7G N1G 1_555 1_555
C8G N2G 1_555 1_555
C9G C8G 1_555 1_555
H6G C9G 1_555 1_555
C10G C9G 1_555 1_555
H7G C10G 1_555 1_555
C11G C14 1_555 1_555
C12G C11G 1_555 1_555
H8G C12G 1_555 1_555
C13G C8G 1_555 1_555
H9G C13G 1_555 1_555
C5 C6 1_555 1_555
C12 C13 1_555 1_555
C5G C6G 1_555 1_555
C10G C11G 1_555 1_555
C12G C13G 1_555 1_555

#END
