
#######################################################################
#
#                 Cambridge Crystallographic Data Centre
#                                CCDC 
#
#######################################################################
#
# If this CIF has been generated from an entry in the Cambridge 
# Structural Database, then it will include bibliographic, chemical, 
# crystal, experimental, refinement or atomic coordinate data resulting 
# from the CCDC's data processing and validation procedures.
#
#######################################################################

data_CUTKAF
_chemical_name_common            
1-(2-isopropyl-6-methylphenyl)-3-methylthiourea
_chemical_formula_moiety         'C12 H18 N2 S1'
_chemical_name_systematic        
N-methyl-N'-[2-methyl-6-(1-methylethyl)phenyl]thiourea
_symmetry_cell_setting           orthorhombic
_symmetry_space_group_name_H-M   'P 21 21 21'
_symmetry_Int_Tables_number      19
_space_group_name_Hall           'P 2ac 2ab'
loop_
_symmetry_equiv_pos_site_id
_symmetry_equiv_pos_as_xyz
1 x,y,z
2 1/2-x,-y,1/2+z
3 -x,1/2+y,1/2-z
4 1/2+x,1/2-y,-z
_cell_length_a                   5.9449(4)
_cell_length_b                   13.0967(8)
_cell_length_c                   16.0052(10)
_cell_angle_alpha                90
_cell_angle_beta                 90
_cell_angle_gamma                90
_cell_volume                     1246.14
_exptl_crystal_colour            colorless
_exptl_crystal_description       needle
_cell_formula_units_Z            4
loop_
_atom_site_label
_atom_site_type_symbol
_atom_site_fract_x
_atom_site_fract_y
_atom_site_fract_z
C1 C 0.1768(3) 0.77252(13) 0.66338(10)
C2 C 0.3279(3) 0.84781(13) 0.63725(10)
C3 C 0.5092(3) 0.81758(14) 0.58758(10)
H1 H 0.6135 0.8673 0.5684
C4 C 0.5390(3) 0.71582(14) 0.56588(10)
H2 H 0.6624 0.6965 0.5316
C5 C 0.3895(3) 0.64238(14) 0.59398(11)
H3 H 0.4130 0.5728 0.5796
C6 C 0.2055(3) 0.66903(13) 0.64299(10)
N1 N -0.0175(2) 0.79992(11) 0.71205(9)
H4 H -0.1400 0.8185 0.6852
C7 C -0.0235(3) 0.79890(13) 0.79666(10)
S1 S -0.27188(7) 0.81037(3) 0.84725(3)
N2 N 0.1715(3) 0.78971(13) 0.83612(9)
H5 H 0.2946 0.7850 0.8058
C8 C 0.1939(4) 0.7869(2) 0.92646(11)
H6 H 0.3529 0.7795 0.9414
H7 H 0.1087 0.7289 0.9487
H8 H 0.1350 0.8504 0.9503
C9 C 0.2894(3) 0.95960(12) 0.65883(11)
H9 H 0.2017 0.9621 0.7121
C10 C 0.5072(4) 1.01874(16) 0.67258(17)
H10 H 0.4718 1.0900 0.6858
H11 H 0.5987 1.0161 0.6217
H12 H 0.5909 0.9882 0.7190
C11 C 0.1470(4) 1.00966(15) 0.59111(14)
H13 H 0.1232 1.0817 0.6050
H14 H 0.0014 0.9749 0.5875
H15 H 0.2249 1.0046 0.5373
C12 C 0.0426(3) 0.59007(14) 0.67347(13)
H16 H 0.0888 0.5226 0.6533
H17 H -0.1082 0.6059 0.6524
H18 H 0.0406 0.5901 0.7347
loop_
_geom_bond_atom_site_label_1
_geom_bond_atom_site_label_2
_geom_bond_site_symmetry_1
_geom_bond_site_symmetry_2
C1 C2 1_555 1_555
C2 C3 1_555 1_555
C3 H1 1_555 1_555
C4 C3 1_555 1_555
H2 C4 1_555 1_555
C5 C4 1_555 1_555
H3 C5 1_555 1_555
C6 C1 1_555 1_555
N1 C1 1_555 1_555
H4 N1 1_555 1_555
C7 N1 1_555 1_555
S1 C7 1_555 1_555
N2 C7 1_555 1_555
H5 N2 1_555 1_555
C8 N2 1_555 1_555
H6 C8 1_555 1_555
H7 C8 1_555 1_555
H8 C8 1_555 1_555
C9 C2 1_555 1_555
H9 C9 1_555 1_555
C10 C9 1_555 1_555
H10 C10 1_555 1_555
H11 C10 1_555 1_555
H12 C10 1_555 1_555
C11 C9 1_555 1_555
H13 C11 1_555 1_555
H14 C11 1_555 1_555
H15 C11 1_555 1_555
C12 C6 1_555 1_555
H16 C12 1_555 1_555
H17 C12 1_555 1_555
H18 C12 1_555 1_555
C5 C6 1_555 1_555

#END
