
#######################################################################
#
#                 Cambridge Crystallographic Data Centre
#                                CCDC 
#
#######################################################################
#
# If this CIF has been generated from an entry in the Cambridge 
# Structural Database, then it will include bibliographic, chemical, 
# crystal, experimental, refinement or atomic coordinate data resulting 
# from the CCDC's data processing and validation procedures.
#
#######################################################################

data_CUTKEJ
_chemical_name_common            
1-methyl-3-(2,3,5,6,8,9,11,12-octahydro-1,4,7,10,13-benzopentaoxacyclopentadecin-15-yl)thiourea
_chemical_formula_moiety         'C16 H24 N2 O5 S1'
_chemical_name_systematic        
"N-methyl-N'-(2,3,5,6,8,9,11,12-octahydro-1,4,7,10,13- benzopentaoxacyclopentadecin-15-yl)thiourea"
_symmetry_cell_setting           triclinic
_symmetry_space_group_name_H-M   'P -1'
_symmetry_Int_Tables_number      2
_space_group_name_Hall           '-P 1'
loop_
_symmetry_equiv_pos_site_id
_symmetry_equiv_pos_as_xyz
1 x,y,z
2 -x,-y,-z
_cell_length_a                   8.6949(6)
_cell_length_b                   8.8272(6)
_cell_length_c                   11.9348(9)
_cell_angle_alpha                83.628(2)
_cell_angle_beta                 74.582(2)
_cell_angle_gamma                78.961(2)
_cell_volume                     864.962
_exptl_crystal_colour            colorless
_exptl_crystal_description       plate
_cell_formula_units_Z            2
loop_
_atom_site_label
_atom_site_type_symbol
_atom_site_fract_x
_atom_site_fract_y
_atom_site_fract_z
C1 C 0.1889(3) 0.5502(2) 0.21898(17)
H1 H 0.300(3) 0.512(2) 0.1758(18)
H2 H 0.139(2) 0.636(2) 0.1747(18)
H3 H 0.125(3) 0.468(3) 0.233(2)
N1 N 0.19127(18) 0.60513(17) 0.32857(13)
H4 H 0.1120 0.6784 0.3591
C2 C 0.3042(2) 0.55317(19) 0.38649(15)
S1 S 0.45577(6) 0.40221(5) 0.34493(4)
N2 N 0.29675(18) 0.62664(17) 0.48146(13)
H5 H 0.3808 0.6018 0.5117
C3 C 0.1686(2) 0.7395(2) 0.53819(15)
C4 C 0.0112(2) 0.7127(2) 0.57285(15)
H6 H -0.0144 0.6205 0.5537
C5 C -0.1101(2) 0.8203(2) 0.63583(15)
H7 H -0.2189 0.8028 0.6581
C6 C -0.0725(2) 0.95245(19) 0.66590(14)
C7 C 0.0858(2) 0.98143(19) 0.62945(14)
C8 C 0.2066(2) 0.8747(2) 0.56527(15)
H8 H 0.3147 0.8940 0.5400
O1 O -0.18093(15) 1.06387(14) 0.72921(11)
C9 C -0.3330(2) 1.0244(2) 0.79515(16)
H9 H -0.3175 0.9165 0.8286
H10 H -0.4083 1.0338 0.7444
C10 C -0.4006(2) 1.1336(2) 0.89027(16)
H11 H -0.4102 1.2419 0.8572
H12 H -0.5092 1.1145 0.9352
O2 O -0.29250(16) 1.10689(15) 0.96270(11)
C11 C -0.3325(3) 1.2062(2) 1.05582(17)
H13 H -0.4174 1.1701 1.1208
H14 H -0.3742 1.3127 1.0293
C12 C -0.1831(3) 1.2043(2) 1.09544(16)
H15 H -0.2111 1.2533 1.1706
H16 H -0.1287 1.0964 1.1064
O3 O -0.07970(16) 1.28704(15) 1.00920(11)
C13 C 0.0798(2) 1.2717(2) 1.02416(18)
H17 H 0.1222 1.1616 1.0413
H18 H 0.0786 1.3311 1.0901
C14 C 0.1845(2) 1.3321(2) 0.91422(19)
H19 H 0.1268 1.4296 0.8846
H20 H 0.2851 1.3532 0.9289
O4 O 0.22232(16) 1.21841(15) 0.83146(12)
C15 C 0.2664(2) 1.2745(2) 0.71334(18)
H21 H 0.3737 1.3069 0.6951
H22 H 0.1859 1.3647 0.6979
C16 C 0.2716(2) 1.1449(2) 0.64045(16)
H23 H 0.3153 1.1735 0.5570
H24 H 0.3418 1.0505 0.6629
O5 O 0.10970(14) 1.11780(14) 0.66057(11)
loop_
_geom_bond_atom_site_label_1
_geom_bond_atom_site_label_2
_geom_bond_site_symmetry_1
_geom_bond_site_symmetry_2
C1 H1 1_555 1_555
H2 C1 1_555 1_555
H3 C1 1_555 1_555
N1 C1 1_555 1_555
H4 N1 1_555 1_555
C2 N1 1_555 1_555
S1 C2 1_555 1_555
N2 C2 1_555 1_555
H5 N2 1_555 1_555
C3 N2 1_555 1_555
C4 C3 1_555 1_555
H6 C4 1_555 1_555
C5 C4 1_555 1_555
H7 C5 1_555 1_555
C6 C5 1_555 1_555
C7 C6 1_555 1_555
C8 C3 1_555 1_555
H8 C8 1_555 1_555
O1 C6 1_555 1_555
C9 O1 1_555 1_555
H9 C9 1_555 1_555
H10 C9 1_555 1_555
C10 C9 1_555 1_555
H11 C10 1_555 1_555
H12 C10 1_555 1_555
O2 C10 1_555 1_555
C11 O2 1_555 1_555
H13 C11 1_555 1_555
H14 C11 1_555 1_555
C12 C11 1_555 1_555
H15 C12 1_555 1_555
H16 C12 1_555 1_555
O3 C12 1_555 1_555
C13 O3 1_555 1_555
H17 C13 1_555 1_555
H18 C13 1_555 1_555
C14 C13 1_555 1_555
H19 C14 1_555 1_555
H20 C14 1_555 1_555
O4 C14 1_555 1_555
C15 O4 1_555 1_555
H21 C15 1_555 1_555
H22 C15 1_555 1_555
C16 C15 1_555 1_555
H23 C16 1_555 1_555
H24 C16 1_555 1_555
O5 C7 1_555 1_555
C7 C8 1_555 1_555
C16 O5 1_555 1_555

#END
