
#######################################################################
#
#                 Cambridge Crystallographic Data Centre
#                                CCDC 
#
#######################################################################
#
# If this CIF has been generated from an entry in the Cambridge 
# Structural Database, then it will include bibliographic, chemical, 
# crystal, experimental, refinement or atomic coordinate data resulting 
# from the CCDC's data processing and validation procedures.
#
#######################################################################

data_CUTKOT
_chemical_formula_moiety         'C18 H15 N3 O3'
_chemical_name_systematic        1-(1-naphthyl)-3-(2-nitrobenzyl)urea
_symmetry_cell_setting           orthorhombic
_symmetry_space_group_name_H-M   'P 21 21 21'
_symmetry_Int_Tables_number      19
_space_group_name_Hall           'P 2ac 2ab'
loop_
_symmetry_equiv_pos_site_id
_symmetry_equiv_pos_as_xyz
1 x,y,z
2 1/2-x,-y,1/2+z
3 -x,1/2+y,1/2-z
4 1/2+x,1/2-y,-z
_cell_length_a                   8.341(4)
_cell_length_b                   12.933(6)
_cell_length_c                   14.005(7)
_cell_angle_alpha                90
_cell_angle_beta                 90
_cell_angle_gamma                90
_cell_volume                     1510.78
_exptl_crystal_colour            colorless
_cell_formula_units_Z            4
_exptl_crystal_recrystallization_method N,N-dimethylformamide
loop_
_atom_site_label
_atom_site_type_symbol
_atom_site_fract_x
_atom_site_fract_y
_atom_site_fract_z
O1 O 0.3031(2) 0.19014(15) 0.45257(12)
O2 O 0.4823(4) 0.4359(2) 0.06131(14)
O3 O 0.4912(3) 0.2919(2) 0.13818(14)
N1 N 0.5361(3) 0.2747(2) 0.42734(15)
H1 H 0.625(3) 0.296(2) 0.452(2)
N2 N 0.4951(3) 0.19364(18) 0.57027(15)
H2 H 0.590(3) 0.219(2) 0.580(2)
N3 N 0.4597(3) 0.3835(3) 0.13295(16)
C1 C 0.3914(3) 0.4358(2) 0.21717(19)
C2 C 0.3112(4) 0.5276(3) 0.2008(2)
H3 H 0.3039 0.5547 0.1379
C3 C 0.2428(4) 0.5789(3) 0.2752(3)
H4 H 0.1862 0.6415 0.2644
C4 C 0.2563(4) 0.5393(3) 0.3667(3)
H5 H 0.2078 0.5744 0.4188
C5 C 0.3407(3) 0.4481(2) 0.3823(2)
H6 H 0.3510 0.4229 0.4457
C6 C 0.4103(3) 0.3929(2) 0.30815(18)
C7 C 0.5027(3) 0.2946(2) 0.32748(17)
H7 H 0.4411 0.2355 0.3015
H8 H 0.6057 0.2979 0.2925
C8 C 0.4372(3) 0.2172(2) 0.48098(18)
C9 C 0.4238(3) 0.1252(2) 0.63684(19)
C10 C 0.3275(3) 0.0459(2) 0.60826(19)
H9 H 0.3080 0.0356 0.5421
C11 C 0.2566(3) -0.0210(2) 0.6751(2)
H10 H 0.1858 -0.0738 0.6539
C12 C 0.2885(3) -0.0107(2) 0.7703(2)
H11 H 0.2419 -0.0571 0.8150
C13 C 0.3907(3) 0.0689(2) 0.80211(19)
C14 C 0.4262(4) 0.0810(2) 0.90069(19)
H12 H 0.3846 0.0325 0.9452
C15 C 0.5182(4) 0.1603(2) 0.9326(2)
H13 H 0.5398 0.1673 0.9989
C16 C 0.5814(4) 0.2320(2) 0.8678(2)
H14 H 0.6439 0.2882 0.8906
C17 C 0.5539(3) 0.2220(2) 0.77158(18)
H15 H 0.5999 0.2703 0.7284
C18 C 0.4580(3) 0.1405(2) 0.73612(18)
loop_
_geom_bond_atom_site_label_1
_geom_bond_atom_site_label_2
_geom_bond_site_symmetry_1
_geom_bond_site_symmetry_2
O1 C8 1_555 1_555
O2 N3 1_555 1_555
O3 N3 1_555 1_555
N1 H1 1_555 1_555
N2 H2 1_555 1_555
N3 C1 1_555 1_555
C1 C2 1_555 1_555
C2 H3 1_555 1_555
C3 C2 1_555 1_555
H4 C3 1_555 1_555
C4 C3 1_555 1_555
H5 C4 1_555 1_555
C5 C4 1_555 1_555
H6 C5 1_555 1_555
C6 C1 1_555 1_555
C7 N1 1_555 1_555
H7 C7 1_555 1_555
H8 C7 1_555 1_555
C8 N1 1_555 1_555
C9 N2 1_555 1_555
C10 C9 1_555 1_555
H9 C10 1_555 1_555
C11 C10 1_555 1_555
H10 C11 1_555 1_555
C12 C11 1_555 1_555
H11 C12 1_555 1_555
C13 C12 1_555 1_555
C14 C13 1_555 1_555
H12 C14 1_555 1_555
C15 C14 1_555 1_555
H13 C15 1_555 1_555
C16 C15 1_555 1_555
H14 C16 1_555 1_555
C17 C16 1_555 1_555
H15 C17 1_555 1_555
C18 C9 1_555 1_555
N2 C8 1_555 1_555
C5 C6 1_555 1_555
C6 C7 1_555 1_555
C13 C18 1_555 1_555
C17 C18 1_555 1_555

#END
