
#######################################################################
#
#                 Cambridge Crystallographic Data Centre
#                                CCDC 
#
#######################################################################
#
# If this CIF has been generated from an entry in the Cambridge 
# Structural Database, then it will include bibliographic, chemical, 
# crystal, experimental, refinement or atomic coordinate data resulting 
# from the CCDC's data processing and validation procedures.
#
#######################################################################

data_CUTPIR
_chemical_name_common            'N-o-vanillylidene-L-histidine monohydrate'
_chemical_formula_moiety         'C14 H15 N3 O4,H2 O1'
_chemical_name_systematic        
'3-(1H-Imidazol-3-ium-5-yl)-2-((3-methoxy-2-oxidobenzylidene)ammonio)propanoate monohydrate'
_symmetry_cell_setting           orthorhombic
_symmetry_space_group_name_H-M   'P 21 21 21'
_symmetry_Int_Tables_number      19
_space_group_name_Hall           'P 2ac 2ab'
loop_
_symmetry_equiv_pos_site_id
_symmetry_equiv_pos_as_xyz
1 x,y,z
2 1/2-x,-y,1/2+z
3 -x,1/2+y,1/2-z
4 1/2+x,1/2-y,-z
_cell_length_a                   8.6155(3)
_cell_length_b                   11.6223(4)
_cell_length_c                   14.8504(6)
_cell_angle_alpha                90
_cell_angle_beta                 90
_cell_angle_gamma                90
_cell_volume                     1487
_exptl_crystal_colour            orange
_exptl_crystal_description       columns
_cell_formula_units_Z            4
loop_
_atom_site_label
_atom_site_type_symbol
_atom_site_fract_x
_atom_site_fract_y
_atom_site_fract_z
N1 N 0.01763(17) 0.69175(13) 0.12461(9)
H1 H -0.075(3) 0.713(2) 0.1402(16)
N2 N 0.27661(18) 0.80982(14) 0.24187(11)
N3 N 0.50348(19) 0.80039(15) 0.18095(12)
H2 H 0.602(4) 0.820(2) 0.1589(18)
H3 H 0.189(4) 0.841(2) 0.2635(18)
O1 O -0.35111(19) 1.01871(13) 0.06649(10)
O2 O -0.21841(15) 0.82501(12) 0.11763(10)
O3 O -0.17870(16) 0.55255(11) 0.20475(11)
O4 O -0.02161(17) 0.40071(12) 0.19118(11)
C1 C -0.4204(4) 1.1276(2) 0.04609(17)
H4 H -0.5264 1.1288 0.0682
H5 H -0.4204 1.1393 -0.0186
H6 H -0.3615 1.1885 0.0749
C2 C -0.2001(2) 1.00323(16) 0.04045(12)
C3 C -0.1366(2) 0.89610(15) 0.07121(11)
C4 C 0.0189(2) 0.87129(14) 0.04611(11)
C5 C 0.1079(3) 0.95057(17) -0.00549(13)
H7 H 0.2110 0.9333 -0.0210
C6 C 0.0425(3) 1.05147(18) -0.03220(15)
H8 H 0.1011 1.1041 -0.0661
C7 C -0.1128(3) 1.07795(17) -0.00954(13)
H9 H -0.1565 1.1477 -0.0290
C8 C 0.0873(2) 0.76585(15) 0.07320(11)
H10 H 0.1880 0.7488 0.0529
C9 C 0.0823(2) 0.58471(14) 0.15856(11)
H11 H 0.1441 0.5469 0.1108
C10 C -0.0528(2) 0.50635(16) 0.18653(12)
C11 C 0.1855(2) 0.60592(16) 0.24261(12)
H12 H 0.1196 0.6302 0.2930
H13 H 0.2362 0.5337 0.2597
C12 C 0.3055(2) 0.69471(15) 0.22642(11)
C13 C 0.4498(2) 0.68952(17) 0.18850(13)
H14 H 0.5027 0.6225 0.1708
C14 C 0.3972(2) 0.87117(17) 0.21420(14)
H15 H 0.4060 0.9517 0.2176
O5 O 0.2274(3) 0.23665(19) 0.16007(13)
H16 H 0.210(5) 0.172(3) 0.200(2)
H17 H 0.164(5) 0.302(3) 0.181(2)
loop_
_geom_bond_atom_site_label_1
_geom_bond_atom_site_label_2
_geom_bond_site_symmetry_1
_geom_bond_site_symmetry_2
N1 H1 1_555 1_555
N2 H3 1_555 1_555
N3 H2 1_555 1_555
O1 C1 1_555 1_555
O2 C3 1_555 1_555
O3 C10 1_555 1_555
O4 C10 1_555 1_555
C1 H4 1_555 1_555
H5 C1 1_555 1_555
H6 C1 1_555 1_555
C2 O1 1_555 1_555
C3 C2 1_555 1_555
C4 C3 1_555 1_555
C5 C4 1_555 1_555
H7 C5 1_555 1_555
C6 C5 1_555 1_555
H8 C6 1_555 1_555
C7 C2 1_555 1_555
H9 C7 1_555 1_555
C8 N1 1_555 1_555
H10 C8 1_555 1_555
C9 N1 1_555 1_555
H11 C9 1_555 1_555
C10 C9 1_555 1_555
C11 C9 1_555 1_555
H12 C11 1_555 1_555
H13 C11 1_555 1_555
C12 N2 1_555 1_555
C13 N3 1_555 1_555
H14 C13 1_555 1_555
C14 N2 1_555 1_555
H15 C14 1_555 1_555
O5 H16 1_555 1_555
H17 O5 1_555 1_555
N3 C14 1_555 1_555
C4 C8 1_555 1_555
C6 C7 1_555 1_555
C11 C12 1_555 1_555
C12 C13 1_555 1_555

#END
