
#######################################################################
#
#                 Cambridge Crystallographic Data Centre
#                                CCDC 
#
#######################################################################
#
# If this CIF has been generated from an entry in the Cambridge 
# Structural Database, then it will include bibliographic, chemical, 
# crystal, experimental, refinement or atomic coordinate data resulting 
# from the CCDC's data processing and validation procedures.
#
#######################################################################

data_CUTQEP
_chemical_formula_moiety         'C29 H24 O6'
_chemical_name_systematic        
3,3'-((4-t-butylphenyl)methylene)bis(4-hydroxy-2H-chromen-2-one)
_chemical_properties_biological  'antibacterial activity; antitumour activity'
_symmetry_cell_setting           monoclinic
_symmetry_space_group_name_H-M   'P 21/c'
_symmetry_Int_Tables_number      14
_space_group_name_Hall           '-P 2ybc'
loop_
_symmetry_equiv_pos_site_id
_symmetry_equiv_pos_as_xyz
1 x,y,z
2 -x,1/2+y,1/2-z
3 -x,-y,-z
4 x,1/2-y,1/2+z
_cell_length_a                   10.5287(8)
_cell_length_b                   10.8855(6)
_cell_length_c                   20.8114(17)
_cell_angle_alpha                90
_cell_angle_beta                 94.279(7)
_cell_angle_gamma                90
_cell_volume                     2378.55
_cell_formula_units_Z            4
loop_
_atom_site_label
_atom_site_type_symbol
_atom_site_fract_x
_atom_site_fract_y
_atom_site_fract_z
C1 C -0.0638(3) 0.5673(3) 0.23102(17)
H1 H -0.1178 0.4955 0.2371
C2 C -0.0221(3) 0.6090(3) 0.29864(17)
C3 C -0.1053(4) 0.5633(4) 0.3480(2)
C4 C 0.0739(4) 0.6820(3) 0.3169(2)
C5 C 0.1102(4) 0.7044(4) 0.38578(19)
C6 C 0.0340(4) 0.6542(4) 0.4284(2)
C7 C 0.0567(5) 0.6675(5) 0.4950(2)
H2 H 0.0026 0.6335 0.5235
C8 C 0.1643(6) 0.7340(6) 0.5167(3)
H3 H 0.1829 0.7471 0.5605
C9 C 0.2429(6) 0.7805(6) 0.4725(3)
H4 H 0.3166 0.8222 0.4870
C10 C 0.2150(5) 0.7666(5) 0.4084(3)
H5 H 0.2687 0.8004 0.3796
C11 C 0.0431(3) 0.5186(3) 0.19152(16)
C12 C 0.1574(4) 0.4787(3) 0.22072(18)
H6 H 0.1725 0.4856 0.2652
C13 C 0.2503(4) 0.4284(4) 0.1850(2)
H7 H 0.3266 0.4028 0.2062
C14 C 0.2333(4) 0.4152(3) 0.11856(18)
C15 C 0.1170(4) 0.4526(4) 0.09049(19)
H8 H 0.1007 0.4441 0.0462
C16 C 0.0240(4) 0.5022(3) 0.12600(19)
H9 H -0.0536 0.5250 0.1051
C17 C 0.3421(4) 0.3678(3) 0.0806(2)
C18 C 0.4492(4) 0.4619(4) 0.0870(2)
H10 H 0.4773 0.4719 0.1316
H11 H 0.4190 0.5391 0.0697
H12 H 0.5191 0.4339 0.0637
C19 C 0.3011(5) 0.3552(6) 0.0084(3)
H13 H 0.2707 0.4330 -0.0081
H14 H 0.2343 0.2953 0.0026
H15 H 0.3726 0.3295 -0.0143
C20 C 0.3918(6) 0.2459(4) 0.1081(4)
H16 H 0.4173 0.2557 0.1531
H17 H 0.4637 0.2202 0.0857
H18 H 0.3259 0.1850 0.1029
C21 C -0.1519(4) 0.6596(3) 0.19624(19)
C22 C -0.0932(6) 0.7634(4) 0.1626(2)
C23 C -0.2776(5) 0.6576(5) 0.1982(3)
C24 C -0.3565(4) 0.7523(4) 0.16311(19)
C25 C -0.2943(4) 0.8384(4) 0.1274(2)
C26 C -0.3638(6) 0.9287(4) 0.0932(2)
H19 H -0.3222 0.9863 0.0693
C27 C -0.4955(6) 0.9329(4) 0.0946(3)
H20 H -0.5420 0.9933 0.0717
C28 C -0.5577(4) 0.8468(5) 0.1303(3)
H21 H -0.6459 0.8496 0.1313
C29 C -0.4883(4) 0.7565(5) 0.1646(2)
H22 H -0.5299 0.6989 0.1884
O1 O -0.0744(3) 0.5874(3) 0.40967(15)
O2 O -0.2050(3) 0.5090(3) 0.33509(16)
O3 O 0.1462(3) 0.7401(3) 0.27724(15)
H23 H 0.1299 0.7308 0.2345
O4 O -0.1669(4) 0.8415(3) 0.12775(18)
O5 O 0.0208(4) 0.7837(3) 0.16598(16)
O6 O -0.3404(3) 0.5763(5) 0.2312(2)
H24 H -0.2968 0.5170 0.2534
loop_
_geom_bond_atom_site_label_1
_geom_bond_atom_site_label_2
_geom_bond_site_symmetry_1
_geom_bond_site_symmetry_2
C1 H1 1_555 1_555
C2 C1 1_555 1_555
C3 C2 1_555 1_555
C4 C2 1_555 1_555
C5 C4 1_555 1_555
C6 C5 1_555 1_555
C7 C6 1_555 1_555
H2 C7 1_555 1_555
C8 C7 1_555 1_555
H3 C8 1_555 1_555
C9 C8 1_555 1_555
H4 C9 1_555 1_555
C10 C5 1_555 1_555
H5 C10 1_555 1_555
C11 C1 1_555 1_555
C12 C11 1_555 1_555
H6 C12 1_555 1_555
C13 C12 1_555 1_555
H7 C13 1_555 1_555
C14 C13 1_555 1_555
C15 C14 1_555 1_555
H8 C15 1_555 1_555
C16 C11 1_555 1_555
H9 C16 1_555 1_555
C17 C14 1_555 1_555
C18 C17 1_555 1_555
H10 C18 1_555 1_555
H11 C18 1_555 1_555
H12 C18 1_555 1_555
C19 C17 1_555 1_555
H13 C19 1_555 1_555
H14 C19 1_555 1_555
H15 C19 1_555 1_555
C20 C17 1_555 1_555
H16 C20 1_555 1_555
H17 C20 1_555 1_555
H18 C20 1_555 1_555
C21 C1 1_555 1_555
C22 C21 1_555 1_555
C23 C21 1_555 1_555
C24 C23 1_555 1_555
C25 C24 1_555 1_555
C26 C25 1_555 1_555
H19 C26 1_555 1_555
C27 C26 1_555 1_555
H20 C27 1_555 1_555
C28 C27 1_555 1_555
H21 C28 1_555 1_555
C29 C24 1_555 1_555
H22 C29 1_555 1_555
O1 C3 1_555 1_555
O2 C3 1_555 1_555
O3 C4 1_555 1_555
H23 O3 1_555 1_555
O4 C22 1_555 1_555
O5 C22 1_555 1_555
O6 C23 1_555 1_555
H24 O6 1_555 1_555
C6 O1 1_555 1_555
C9 C10 1_555 1_555
C15 C16 1_555 1_555
C25 O4 1_555 1_555
C28 C29 1_555 1_555

#END
