
#######################################################################
#
#                 Cambridge Crystallographic Data Centre
#                                CCDC 
#
#######################################################################
#
# If this CIF has been generated from an entry in the Cambridge 
# Structural Database, then it will include bibliographic, chemical, 
# crystal, experimental, refinement or atomic coordinate data resulting 
# from the CCDC's data processing and validation procedures.
#
#######################################################################

data_CUTROZ
_chemical_formula_moiety         'C84 H96 O6,0.5(C4 H8 O2)'
_chemical_name_systematic        
'6,7,20,21,34,35-hexakis(hexyloxy)heptacyclo-[38.2.2.2^12,15^.2^26,29^.0^4,9^.0^18,23^.0^32,37^]octatetraconta-1(42),4,6,8,12,14,18,20,22,26,28,32,34,36,40,43,45,47-octadecaene-2,10,16,24,30,38-hexayne 1,4-dioxane solvate'
_symmetry_cell_setting           triclinic
_symmetry_space_group_name_H-M   'P -1'
_symmetry_Int_Tables_number      2
_space_group_name_Hall           '-P 1'
loop_
_symmetry_equiv_pos_site_id
_symmetry_equiv_pos_as_xyz
1 x,y,z
2 -x,-y,-z
_cell_length_a                   13.4266(6)
_cell_length_b                   14.7760(7)
_cell_length_c                   20.1053(9)
_cell_angle_alpha                84.8020(10)
_cell_angle_beta                 71.9290(10)
_cell_angle_gamma                76.2150(10)
_cell_volume                     3682.14
_exptl_crystal_colour            'light yellow'
_exptl_crystal_description       block
_cell_formula_units_Z            2
loop_
_atom_site_label
_atom_site_type_symbol
_atom_site_fract_x
_atom_site_fract_y
_atom_site_fract_z
C1 C -0.22864(19) 0.55811(16) 0.22728(13)
C2 C -0.3307(2) 0.60829(16) 0.22760(13)
H1 H -0.3912 0.5826 0.2509
C3 C -0.34591(19) 0.69430(16) 0.19494(13)
C4 C -0.2572(2) 0.73209(16) 0.15916(13)
C5 C -0.1560(2) 0.68390(16) 0.15812(13)
H2 H -0.0960 0.7098 0.1338
C6 C -0.13952(19) 0.59704(16) 0.19233(13)
C7 C -0.0331(2) 0.55111(16) 0.19204(13)
C8 C 0.0571(2) 0.51573(17) 0.19192(13)
C9 C 0.16434(19) 0.47198(17) 0.19175(13)
C10 C 0.2514(2) 0.50354(18) 0.14642(14)
H3 H 0.2391 0.5559 0.1165
C11 C 0.3547(2) 0.46013(19) 0.14427(14)
H4 H 0.4131 0.4822 0.1125
C12 C 0.37513(19) 0.38423(17) 0.18804(13)
C13 C 0.2873(2) 0.35431(18) 0.23501(14)
H5 H 0.2993 0.3034 0.2662
C14 C 0.1842(2) 0.39747(17) 0.23666(14)
H6 H 0.1257 0.3762 0.2689
C15 C 0.4818(2) 0.33533(18) 0.18575(13)
C16 C 0.5684(2) 0.29026(17) 0.18545(13)
C17 C 0.66853(19) 0.23074(17) 0.18682(13)
C18 C 0.76596(19) 0.26077(17) 0.15906(13)
H7 H 0.7653 0.3218 0.1394
C19 C 0.86193(19) 0.20189(17) 0.16037(13)
C20 C 0.86352(19) 0.11188(17) 0.19001(13)
C21 C 0.76857(19) 0.08235(18) 0.21719(13)
H8 H 0.7697 0.0216 0.2374
C22 C 0.67098(19) 0.14053(17) 0.21543(13)
C23 C 0.57560(19) 0.10545(17) 0.24207(13)
C24 C 0.4990(2) 0.07156(18) 0.26453(13)
C25 C 0.40957(19) 0.02876(17) 0.29533(12)
C26 C 0.4259(2) -0.06742(18) 0.30417(14)
H9 H 0.4961 -0.1050 0.2863
C27 C 0.3420(2) -0.10896(18) 0.33836(14)
H10 H 0.3550 -0.1748 0.3440
C28 C 0.2382(2) -0.05533(17) 0.36479(12)
C29 C 0.2208(2) 0.04115(17) 0.35417(13)
H11 H 0.1503 0.0787 0.3707
C30 C 0.3057(2) 0.08222(17) 0.31973(13)
H12 H 0.2928 0.1479 0.3126
C31 C 0.1515(2) -0.09778(17) 0.40271(13)
C32 C 0.0793(2) -0.13280(17) 0.43472(13)
C33 C -0.00830(19) -0.17552(16) 0.47277(12)
C34 C 0.01399(19) -0.26377(17) 0.50378(12)
H13 H 0.0863 -0.2942 0.5000
C35 C -0.06825(19) -0.30681(16) 0.53973(12)
C36 C -0.17496(19) -0.26148(16) 0.54475(12)
C37 C -0.1977(2) -0.17498(16) 0.51413(12)
H14 H -0.2700 -0.1450 0.5176
C38 C -0.1133(2) -0.13071(16) 0.47753(12)
C39 C -0.1369(2) -0.03986(17) 0.44675(13)
C40 C -0.1501(2) 0.03662(17) 0.42149(14)
C41 C -0.1624(2) 0.12876(17) 0.39012(14)
C42 C -0.2609(2) 0.1913(2) 0.40733(18)
H15 H -0.3213 0.1741 0.4407
C43 C -0.2712(2) 0.27866(19) 0.37588(18)
H16 H -0.3388 0.3216 0.3889
C44 C -0.1859(2) 0.30530(17) 0.32597(14)
C45 C -0.0872(2) 0.24342(17) 0.30975(15)
H17 H -0.0267 0.2610 0.2767
C46 C -0.0758(2) 0.15634(17) 0.34128(14)
H18 H -0.0075 0.1144 0.3294
C47 C -0.1998(2) 0.39532(17) 0.29140(14)
C48 C -0.2133(2) 0.46906(17) 0.26213(14)
C49 C -0.4850(2) 0.74760(19) 0.14055(15)
H19 H -0.5172 0.6933 0.1425
H20 H -0.4233 0.7434 0.0975
C50 C -0.5673(2) 0.83656(19) 0.13865(16)
H21 H -0.6059 0.8294 0.1054
H22 H -0.6206 0.8464 0.1856
C51 C -0.5205(2) 0.92174(18) 0.11751(15)
H23 H -0.4649 0.9109 0.0715
H24 H -0.4849 0.9307 0.1520
C52 C -0.6040(2) 1.0107(2) 0.11259(16)
H25 H -0.6405 1.0014 0.0787
H26 H -0.6588 1.0223 0.1588
C53 C -0.5564(3) 1.0957(2) 0.09012(18)
H27 H -0.4996 1.0831 0.0448
H28 H -0.5222 1.1063 0.1249
C54 C -0.6379(4) 1.1837(2) 0.0825(2)
H29 H -0.6670 1.1762 0.0448
H30 H -0.6028 1.2366 0.0713
H31 H -0.6964 1.1952 0.1265
C55 C -0.1933(2) 0.86165(17) 0.09341(14)
H32 H -0.1408 0.8224 0.0549
H33 H -0.1559 0.8711 0.1268
C56 C -0.2402(2) 0.95399(17) 0.06482(14)
H34 H -0.2940 0.9916 0.1037
H35 H -0.2776 0.9434 0.0318
C57 C -0.1544(2) 1.00809(17) 0.02716(15)
H36 H -0.1131 1.0140 0.0591
H37 H -0.1039 0.9725 -0.0139
C58 C -0.2011(2) 1.10438(17) 0.00300(14)
H38 H -0.2551 1.1383 0.0437
H39 H -0.2388 1.0980 -0.0310
C59 C -0.1181(2) 1.16196(18) -0.03078(15)
H40 H -0.0803 1.1686 0.0031
H41 H -0.0641 1.1284 -0.0717
C60 C -0.1669(3) 1.25824(19) -0.05440(17)
H42 H -0.2010 1.2522 -0.0899
H43 H -0.1103 1.2930 -0.0744
H44 H -0.2208 1.2917 -0.0142
C61 C 0.96553(19) 0.31138(17) 0.09902(14)
H45 H 0.9244 0.3630 0.1315
H46 H 0.9353 0.3172 0.0593
C62 C 1.08228(19) 0.31476(17) 0.07298(13)
H47 H 1.1235 0.2581 0.0458
H48 H 1.1093 0.3147 0.1135
C63 C 1.10120(19) 0.40026(17) 0.02737(13)
H49 H 1.0732 0.4006 -0.0128
H50 H 1.0605 0.4568 0.0548
C64 C 1.2185(2) 0.40401(17) 0.00010(14)
H51 H 1.2578 0.3510 -0.0315
H52 H 1.2485 0.3965 0.0400
C65 C 1.2374(2) 0.49404(18) -0.03906(15)
H53 H 1.1925 0.5472 -0.0090
H54 H 1.2139 0.4985 -0.0815
C66 C 1.3541(2) 0.5021(2) -0.06058(17)
H55 H 1.3792 0.4950 -0.0191
H56 H 1.3600 0.5633 -0.0826
H57 H 1.3984 0.4532 -0.0939
C67 C 0.9632(2) -0.03066(17) 0.22260(14)
H58 H 0.9330 -0.0685 0.1989
H59 H 0.9179 -0.0233 0.2719
C68 C 1.07642(19) -0.07962(17) 0.21987(14)
H60 H 1.1059 -0.0435 0.2453
H61 H 1.1227 -0.0855 0.1707
C69 C 1.0741(2) -0.17598(17) 0.25377(14)
H62 H 1.0264 -0.1682 0.3025
H63 H 1.0418 -0.2098 0.2285
C70 C 1.1820(2) -0.23563(17) 0.25496(14)
H64 H 1.2177 -0.2003 0.2766
H65 H 1.2278 -0.2494 0.2063
C71 C 1.1724(3) -0.32670(18) 0.29530(17)
H66 H 1.1248 -0.3128 0.3435
H67 H 1.1384 -0.3626 0.2728
C72 C 1.2795(3) -0.3861(2) 0.2987(2)
H68 H 1.3288 -0.3966 0.2512
H69 H 1.2692 -0.4461 0.3214
H70 H 1.3098 -0.3540 0.3257
C73 C 0.05152(19) -0.44368(16) 0.56581(14)
H71 H 0.0882 -0.4087 0.5869
H72 H 0.0933 -0.4544 0.5160
C74 C 0.0428(2) -0.53563(16) 0.60427(13)
H73 H 0.0058 -0.5696 0.5826
H74 H -0.0013 -0.5236 0.6535
C75 C 0.1524(2) -0.59622(16) 0.60274(14)
H75 H 0.1896 -0.5620 0.6241
H76 H 0.1963 -0.6085 0.5535
C76 C 0.14422(19) -0.68877(16) 0.64190(13)
H77 H 0.0958 -0.6762 0.6901
H78 H 0.1115 -0.7246 0.6185
C77 C 0.2518(2) -0.74763(17) 0.64552(14)
H79 H 0.2847 -0.7119 0.6689
H80 H 0.3002 -0.7606 0.5974
C78 C 0.2422(2) -0.83966(17) 0.68493(14)
H81 H 0.1923 -0.8274 0.7321
H82 H 0.3129 -0.8732 0.6881
H83 H 0.2150 -0.8775 0.6599
C79 C -0.35978(19) -0.27168(18) 0.58344(15)
H84 H -0.3646 -0.2554 0.5355
H85 H -0.3891 -0.2146 0.6118
C80 C -0.4221(2) -0.34567(18) 0.61586(15)
H86 H -0.4123 -0.3638 0.6624
H87 H -0.4996 -0.3190 0.6228
C81 C -0.3879(2) -0.43177(19) 0.57175(14)
H88 H -0.3120 -0.4610 0.5679
H89 H -0.3921 -0.4127 0.5240
C82 C -0.4558(2) -0.50419(18) 0.60073(15)
H90 H -0.4542 -0.5216 0.6492
H91 H -0.5313 -0.4761 0.6025
C83 C -0.4171(3) -0.5911(2) 0.55739(16)
H92 H -0.3423 -0.6202 0.5568
H93 H -0.4165 -0.5734 0.5086
C84 C -0.4868(3) -0.6628(2) 0.58488(19)
H94 H -0.4841 -0.6836 0.6321
H95 H -0.4597 -0.7163 0.5538
H96 H -0.5612 -0.6342 0.5863
O1 O -0.44852(13) 0.74611(11) 0.20125(9)
O2 O -0.28064(13) 0.81736(11) 0.12827(9)
O3 O 0.95957(13) 0.22336(12) 0.13443(9)
O4 O 0.96226(13) 0.05909(11) 0.18891(9)
O5 O -0.05573(13) -0.39243(11) 0.57170(9)
O6 O -0.25057(13) -0.30968(11) 0.58162(9)
C85 C 0.4921(3) 0.9413(2) 0.45327(16)
H97 H 0.4166 0.9654 0.4534
H98 H 0.5251 0.8903 0.4192
C86 C 0.5527(3) 1.0187(2) 0.43159(15)
H99 H 0.6287 0.9943 0.4301
H100 H 0.5510 1.0421 0.3841
O7 O 0.49462(17) 0.90681(14) 0.52013(11)
C85A C 0.5079(3) 1.0587(2) 0.54673(16)
H97A H 0.5834 1.0346 0.5466
H98A H 0.4749 1.1097 0.5808
C86A C 0.4473(3) 0.9813(2) 0.56841(15)
H99A H 0.3713 1.0057 0.5699
H100A H 0.4490 0.9579 0.6159
O7A O 0.50538(17) 1.09319(14) 0.47987(11)
loop_
_geom_bond_atom_site_label_1
_geom_bond_atom_site_label_2
_geom_bond_site_symmetry_1
_geom_bond_site_symmetry_2
C1 C2 1_555 1_555
C2 H1 1_555 1_555
C3 C2 1_555 1_555
C4 C3 1_555 1_555
C5 C4 1_555 1_555
H2 C5 1_555 1_555
C6 C1 1_555 1_555
C7 C6 1_555 1_555
C8 C7 1_555 1_555
C9 C8 1_555 1_555
C10 C9 1_555 1_555
H3 C10 1_555 1_555
C11 C10 1_555 1_555
H4 C11 1_555 1_555
C12 C11 1_555 1_555
C13 C12 1_555 1_555
H5 C13 1_555 1_555
C14 C9 1_555 1_555
H6 C14 1_555 1_555
C15 C12 1_555 1_555
C16 C15 1_555 1_555
C17 C16 1_555 1_555
C18 C17 1_555 1_555
H7 C18 1_555 1_555
C19 C18 1_555 1_555
C20 C19 1_555 1_555
C21 C20 1_555 1_555
H8 C21 1_555 1_555
C22 C17 1_555 1_555
C23 C22 1_555 1_555
C24 C23 1_555 1_555
C25 C24 1_555 1_555
C26 C25 1_555 1_555
H9 C26 1_555 1_555
C27 C26 1_555 1_555
H10 C27 1_555 1_555
C28 C27 1_555 1_555
C29 C28 1_555 1_555
H11 C29 1_555 1_555
C30 C25 1_555 1_555
H12 C30 1_555 1_555
C31 C28 1_555 1_555
C32 C31 1_555 1_555
C33 C32 1_555 1_555
C34 C33 1_555 1_555
H13 C34 1_555 1_555
C35 C34 1_555 1_555
C36 C35 1_555 1_555
C37 C36 1_555 1_555
H14 C37 1_555 1_555
C38 C33 1_555 1_555
C39 C38 1_555 1_555
C40 C39 1_555 1_555
C41 C40 1_555 1_555
C42 C41 1_555 1_555
H15 C42 1_555 1_555
C43 C42 1_555 1_555
H16 C43 1_555 1_555
C44 C43 1_555 1_555
C45 C44 1_555 1_555
H17 C45 1_555 1_555
C46 C41 1_555 1_555
H18 C46 1_555 1_555
C47 C44 1_555 1_555
C48 C1 1_555 1_555
C49 H19 1_555 1_555
H20 C49 1_555 1_555
C50 C49 1_555 1_555
H21 C50 1_555 1_555
H22 C50 1_555 1_555
C51 C50 1_555 1_555
H23 C51 1_555 1_555
H24 C51 1_555 1_555
C52 C51 1_555 1_555
H25 C52 1_555 1_555
H26 C52 1_555 1_555
C53 C52 1_555 1_555
H27 C53 1_555 1_555
H28 C53 1_555 1_555
C54 C53 1_555 1_555
H29 C54 1_555 1_555
H30 C54 1_555 1_555
H31 C54 1_555 1_555
C55 H32 1_555 1_555
H33 C55 1_555 1_555
C56 C55 1_555 1_555
H34 C56 1_555 1_555
H35 C56 1_555 1_555
C57 C56 1_555 1_555
H36 C57 1_555 1_555
H37 C57 1_555 1_555
C58 C57 1_555 1_555
H38 C58 1_555 1_555
H39 C58 1_555 1_555
C59 C58 1_555 1_555
H40 C59 1_555 1_555
H41 C59 1_555 1_555
C60 C59 1_555 1_555
H42 C60 1_555 1_555
H43 C60 1_555 1_555
H44 C60 1_555 1_555
C61 H45 1_555 1_555
H46 C61 1_555 1_555
C62 C61 1_555 1_555
H47 C62 1_555 1_555
H48 C62 1_555 1_555
C63 C62 1_555 1_555
H49 C63 1_555 1_555
H50 C63 1_555 1_555
C64 C63 1_555 1_555
H51 C64 1_555 1_555
H52 C64 1_555 1_555
C65 C64 1_555 1_555
H53 C65 1_555 1_555
H54 C65 1_555 1_555
C66 C65 1_555 1_555
H55 C66 1_555 1_555
H56 C66 1_555 1_555
H57 C66 1_555 1_555
C67 H58 1_555 1_555
H59 C67 1_555 1_555
C68 C67 1_555 1_555
H60 C68 1_555 1_555
H61 C68 1_555 1_555
C69 C68 1_555 1_555
H62 C69 1_555 1_555
H63 C69 1_555 1_555
C70 C69 1_555 1_555
H64 C70 1_555 1_555
H65 C70 1_555 1_555
C71 C70 1_555 1_555
H66 C71 1_555 1_555
H67 C71 1_555 1_555
C72 C71 1_555 1_555
H68 C72 1_555 1_555
H69 C72 1_555 1_555
H70 C72 1_555 1_555
C73 H71 1_555 1_555
H72 C73 1_555 1_555
C74 C73 1_555 1_555
H73 C74 1_555 1_555
H74 C74 1_555 1_555
C75 C74 1_555 1_555
H75 C75 1_555 1_555
H76 C75 1_555 1_555
C76 C75 1_555 1_555
H77 C76 1_555 1_555
H78 C76 1_555 1_555
C77 C76 1_555 1_555
H79 C77 1_555 1_555
H80 C77 1_555 1_555
C78 C77 1_555 1_555
H81 C78 1_555 1_555
H82 C78 1_555 1_555
H83 C78 1_555 1_555
C79 H84 1_555 1_555
H85 C79 1_555 1_555
C80 C79 1_555 1_555
H86 C80 1_555 1_555
H87 C80 1_555 1_555
C81 C80 1_555 1_555
H88 C81 1_555 1_555
H89 C81 1_555 1_555
C82 C81 1_555 1_555
H90 C82 1_555 1_555
H91 C82 1_555 1_555
C83 C82 1_555 1_555
H92 C83 1_555 1_555
H93 C83 1_555 1_555
C84 C83 1_555 1_555
H94 C84 1_555 1_555
H95 C84 1_555 1_555
H96 C84 1_555 1_555
O1 C3 1_555 1_555
O2 C4 1_555 1_555
O3 C19 1_555 1_555
O4 C20 1_555 1_555
O5 C35 1_555 1_555
O6 C36 1_555 1_555
C85 H97 1_555 1_555
H98 C85 1_555 1_555
C86 C85 1_555 1_555
H99 C86 1_555 1_555
H100 C86 1_555 1_555
O7 C85 1_555 1_555
C85A H97A 1_555 1_555
H98A C85A 1_555 1_555
C86A O7 1_555 1_555
H99A C86A 1_555 1_555
H100A C86A 1_555 1_555
O7A C86 1_555 1_555
C5 C6 1_555 1_555
C13 C14 1_555 1_555
C21 C22 1_555 1_555
C29 C30 1_555 1_555
C37 C38 1_555 1_555
C45 C46 1_555 1_555
C47 C48 1_555 1_555
C49 O1 1_555 1_555
C55 O2 1_555 1_555
C61 O3 1_555 1_555
C67 O4 1_555 1_555
C73 O5 1_555 1_555
C79 O6 1_555 1_555
C85A C86A 1_555 1_555
C85A O7A 1_555 1_555

#END
