
#######################################################################
#
#                 Cambridge Crystallographic Data Centre
#                                CCDC 
#
#######################################################################
#
# If this CIF has been generated from an entry in the Cambridge 
# Structural Database, then it will include bibliographic, chemical, 
# crystal, experimental, refinement or atomic coordinate data resulting 
# from the CCDC's data processing and validation procedures.
#
#######################################################################

data_CUTRAM
_chemical_formula_moiety         'C26 H21 Cl1 N2 O2 S1'
_chemical_name_systematic        
2'-((3-chlorophenyl)imino)-5'-(hydroxyimino)-4'-(4-methylphenyl)-3,4,4',5'-tetrahydro-1H-spiro[naphthalene-2,3'-thiophen]-1-one
_symmetry_cell_setting           monoclinic
_symmetry_space_group_name_H-M   'P 21'
_symmetry_Int_Tables_number      4
_space_group_name_Hall           'P 2yb'
loop_
_symmetry_equiv_pos_site_id
_symmetry_equiv_pos_as_xyz
1 x,y,z
2 -x,1/2+y,-z
_cell_length_a                   10.0744(3)
_cell_length_b                   10.4491(3)
_cell_length_c                   21.6791(6)
_cell_angle_alpha                90
_cell_angle_beta                 95.102(2)
_cell_angle_gamma                90
_cell_volume                     2273.08
_exptl_crystal_colour            colorless
_exptl_crystal_description       block
_cell_formula_units_Z            4
loop_
_atom_site_label
_atom_site_type_symbol
_atom_site_fract_x
_atom_site_fract_y
_atom_site_fract_z
S1 S 0.81909(7) 0.73213(8) 0.40486(3)
Cl1 Cl 0.75807(13) 1.14795(15) 0.25240(6)
N1 N 0.6098(2) 0.8786(2) 0.43458(11)
O1 O 0.7420(2) 0.9109(2) 0.58649(10)
C1 C 0.6626(3) 0.8350(3) 0.56218(12)
O2 O 1.0308(3) 0.5657(3) 0.40424(11)
H1 H 1.0962 0.5194 0.4029
C2 C 0.8784(3) 0.6020(3) 0.58302(14)
C3 C 0.6118(3) 0.6203(3) 0.51216(14)
H2 H 0.6358 0.5625 0.4799
H3 H 0.6227 0.5746 0.5512
C4 C 0.7069(2) 0.7364(3) 0.51526(11)
C5 C 0.8549(3) 0.6971(3) 0.53036(13)
H4 H 0.9036 0.7751 0.5434
N2 N 1.0027(3) 0.5814(3) 0.46628(13)
C6 C 0.6991(3) 0.7985(3) 0.45126(12)
C7 C 0.4833(4) 0.9215(4) 0.62120(14)
H5 H 0.5461 0.9749 0.6421
C8 C 0.4668(3) 0.6590(3) 0.49898(15)
H6 H 0.4533 0.6958 0.4578
H7 H 0.4107 0.5838 0.5000
C9 C 0.9046(3) 0.6569(3) 0.46963(14)
C10 C 0.5887(3) 0.9274(3) 0.37302(13)
C11 C 0.4270(3) 0.7544(3) 0.54551(14)
C12 C 0.9070(3) 0.6471(4) 0.64286(15)
H8 H 0.9154 0.7347 0.6498
C13 C 0.5217(3) 0.8351(3) 0.57638(12)
C14 C 0.2947(3) 0.7638(4) 0.55935(18)
H9 H 0.2305 0.7114 0.5388
C15 C 0.6810(3) 1.0009(3) 0.34539(14)
H10 H 0.7652 1.0156 0.3654
C16 C 0.4643(4) 0.9087(5) 0.34271(17)
H11 H 0.4008 0.8620 0.3618
C17 C 0.8833(4) 0.3886(4) 0.6246(2)
H12 H 0.8745 0.3010 0.6180
C18 C 0.8678(3) 0.4706(3) 0.57463(17)
H13 H 0.8501 0.4376 0.5349
C19 C 0.6456(4) 1.0523(4) 0.28749(15)
C20 C 0.3511(4) 0.9265(5) 0.63403(17)
H14 H 0.3252 0.9826 0.6641
C21 C 0.5232(4) 1.0314(5) 0.25685(17)
H15 H 0.5016 1.0662 0.2178
C22 C 0.9233(4) 0.5633(6) 0.69259(19)
H16 H 0.9424 0.5957 0.7323
C23 C 0.2580(4) 0.8488(5) 0.6025(2)
H17 H 0.1691 0.8543 0.6107
C24 C 0.4331(4) 0.9584(6) 0.2847(2)
H18 H 0.3498 0.9423 0.2640
C25 C 0.9117(4) 0.4338(6) 0.6842(2)
C26 C 0.9309(6) 0.3408(7) 0.7389(3)
H19 H 0.9006 0.2572 0.7258
H20 H 0.8805 0.3700 0.7718
H21 H 1.0236 0.3369 0.7535
S2 S 0.63724(8) 0.31871(8) 0.89543(3)
Cl2 Cl 1.02926(11) -0.06227(16) 0.74158(6)
O3 O 0.7868(2) 0.1395(2) 1.07759(10)
N3 N 0.8347(2) 0.1434(2) 0.92683(10)
N4 N 0.4900(3) 0.4788(3) 0.95864(12)
C27 C 1.0028(3) 0.2190(3) 1.07120(13)
O4 O 0.4340(2) 0.4973(3) 0.89729(10)
H22 H 0.3616 0.5330 0.8977
C28 C 0.6586(3) 0.3561(3) 1.02081(12)
H23 H 0.6110 0.2810 1.0345
C29 C 0.8088(3) 0.0798(3) 0.86890(13)
C30 C 0.8581(3) 0.2149(3) 1.05317(12)
C31 C 0.7681(3) 0.2386(3) 0.94186(12)
C32 C 0.7974(3) 0.3082(3) 1.00358(12)
C33 C 0.5852(3) 0.3997(3) 0.96031(13)
C34 C 0.6786(3) 0.5825(3) 1.06417(16)
H24 H 0.6824 0.6140 1.0242
C35 C 0.8948(3) 0.4190(3) 0.99431(14)
H25 H 0.8603 0.4703 0.9592
H26 H 0.9010 0.4734 1.0307
C36 C 0.6638(3) 0.4520(3) 1.07327(13)
C37 C 0.8946(3) -0.0189(4) 0.78168(15)
C38 C 1.0884(3) 0.2912(3) 1.03724(14)
C39 C 0.6878(4) 0.6662(4) 1.11365(18)
H27 H 0.6968 0.7533 1.1063
C40 C 1.0530(3) 0.1493(4) 1.12310(15)
H28 H 0.9955 0.1028 1.1459
C41 C 0.6837(4) 0.6235(4) 1.17390(16)
C42 C 1.0329(3) 0.3705(3) 0.98330(15)
H29 H 1.0279 0.3193 0.9458
H30 H 1.0914 0.4425 0.9778
C43 C 0.7697(4) -0.0539(4) 0.75785(16)
H31 H 0.7572 -0.0967 0.7202
C44 C 0.6811(3) 0.0411(4) 0.84597(16)
H32 H 0.6082 0.0596 0.8679
C45 C 0.9162(3) 0.0476(3) 0.83695(13)
H33 H 1.0022 0.0703 0.8523
C46 C 0.6592(3) 0.4086(3) 1.13348(14)
H34 H 0.6486 0.3216 1.1408
C47 C 1.2242(3) 0.2884(4) 1.05567(18)
H35 H 1.2830 0.3344 1.0335
C48 C 0.6700(3) 0.4927(4) 1.18257(15)
H36 H 0.6681 0.4611 1.2226
C49 C 1.2724(4) 0.2179(5) 1.1067(2)
H37 H 1.3635 0.2167 1.1183
C50 C 1.1878(4) 0.1495(4) 1.14041(18)
H38 H 1.2215 0.1033 1.1750
C51 C 0.6635(4) -0.0247(4) 0.79046(18)
H39 H 0.5783 -0.0495 0.7751
C52 C 0.6906(5) 0.7153(6) 1.2276(2)
H40 H 0.7050 0.8005 1.2131
H41 H 0.7628 0.6915 1.2573
H42 H 0.6083 0.7125 1.2468
loop_
_geom_bond_atom_site_label_1
_geom_bond_atom_site_label_2
_geom_bond_site_symmetry_1
_geom_bond_site_symmetry_2
S1 C6 1_555 1_555
Cl1 C19 1_555 1_555
N1 C6 1_555 1_555
O1 C1 1_555 1_555
C1 C4 1_555 1_555
O2 H1 1_555 1_555
C2 C5 1_555 1_555
C3 H2 1_555 1_555
H3 C3 1_555 1_555
C4 C3 1_555 1_555
C5 C4 1_555 1_555
H4 C5 1_555 1_555
N2 O2 1_555 1_555
C6 C4 1_555 1_555
C7 H5 1_555 1_555
C8 C3 1_555 1_555
H6 C8 1_555 1_555
H7 C8 1_555 1_555
C9 S1 1_555 1_555
C10 N1 1_555 1_555
C11 C8 1_555 1_555
C12 C2 1_555 1_555
H8 C12 1_555 1_555
C13 C1 1_555 1_555
C14 C11 1_555 1_555
H9 C14 1_555 1_555
C15 C10 1_555 1_555
H10 C15 1_555 1_555
C16 C10 1_555 1_555
H11 C16 1_555 1_555
C17 H12 1_555 1_555
C18 C2 1_555 1_555
H13 C18 1_555 1_555
C19 C15 1_555 1_555
C20 C7 1_555 1_555
H14 C20 1_555 1_555
C21 C19 1_555 1_555
H15 C21 1_555 1_555
C22 C12 1_555 1_555
H16 C22 1_555 1_555
C23 C14 1_555 1_555
H17 C23 1_555 1_555
C24 C16 1_555 1_555
H18 C24 1_555 1_555
C25 C17 1_555 1_555
C26 C25 1_555 1_555
H19 C26 1_555 1_555
H20 C26 1_555 1_555
H21 C26 1_555 1_555
S2 C31 1_555 1_555
Cl2 C37 1_555 1_555
O3 C30 1_555 1_555
N3 C29 1_555 1_555
N4 O4 1_555 1_555
C27 C30 1_555 1_555
O4 H22 1_555 1_555
C28 H23 1_555 1_555
C29 C44 1_555 1_555
C30 C32 1_555 1_555
C31 N3 1_555 1_555
C32 C28 1_555 1_555
C33 S2 1_555 1_555
C34 H24 1_555 1_555
C35 C32 1_555 1_555
H25 C35 1_555 1_555
H26 C35 1_555 1_555
C36 C28 1_555 1_555
C37 C43 1_555 1_555
C38 C27 1_555 1_555
C39 C34 1_555 1_555
H27 C39 1_555 1_555
C40 C27 1_555 1_555
H28 C40 1_555 1_555
C41 C39 1_555 1_555
C42 C35 1_555 1_555
H29 C42 1_555 1_555
H30 C42 1_555 1_555
C43 H31 1_555 1_555
C44 H32 1_555 1_555
C45 C29 1_555 1_555
H33 C45 1_555 1_555
C46 C36 1_555 1_555
H34 C46 1_555 1_555
C47 C38 1_555 1_555
H35 C47 1_555 1_555
C48 C41 1_555 1_555
H36 C48 1_555 1_555
C49 C47 1_555 1_555
H37 C49 1_555 1_555
C50 C40 1_555 1_555
H38 C50 1_555 1_555
C51 C43 1_555 1_555
H39 C51 1_555 1_555
C52 C41 1_555 1_555
H40 C52 1_555 1_555
H41 C52 1_555 1_555
H42 C52 1_555 1_555
C5 C9 1_555 1_555
N2 C9 1_555 1_555
C7 C13 1_555 1_555
C11 C13 1_555 1_555
C17 C18 1_555 1_555
C20 C23 1_555 1_555
C21 C24 1_555 1_555
C22 C25 1_555 1_555
N4 C33 1_555 1_555
C28 C33 1_555 1_555
C31 C32 1_555 1_555
C34 C36 1_555 1_555
C37 C45 1_555 1_555
C38 C42 1_555 1_555
C44 C51 1_555 1_555
C46 C48 1_555 1_555
C49 C50 1_555 1_555

#END
