
#######################################################################
#
#                 Cambridge Crystallographic Data Centre
#                                CCDC 
#
#######################################################################
#
# If this CIF has been generated from an entry in the Cambridge 
# Structural Database, then it will include bibliographic, chemical, 
# crystal, experimental, refinement or atomic coordinate data resulting 
# from the CCDC's data processing and validation procedures.
#
#######################################################################

data_CUTXUL
_chemical_formula_moiety         'C14 H14 N2 O5'
_chemical_name_systematic        
3-(1,3-Dioxo-1,3-dihydro-2H-isoindol-2-yl)-2-ethyl-4-nitrobutanal
_symmetry_cell_setting           orthorhombic
_symmetry_space_group_name_H-M   'P 21 21 21'
_symmetry_Int_Tables_number      19
_space_group_name_Hall           'P 2ac 2ab'
loop_
_symmetry_equiv_pos_site_id
_symmetry_equiv_pos_as_xyz
1 x,y,z
2 1/2-x,-y,1/2+z
3 -x,1/2+y,1/2-z
4 1/2+x,1/2-y,-z
_cell_length_a                   8.8129(9)
_cell_length_b                   12.7204(13)
_cell_length_c                   12.9190(13)
_cell_angle_alpha                90
_cell_angle_beta                 90
_cell_angle_gamma                90
_cell_volume                     1448.27
_exptl_crystal_colour            yellow
_exptl_crystal_description       prismatic
_cell_formula_units_Z            4
loop_
_atom_site_label
_atom_site_type_symbol
_atom_site_fract_x
_atom_site_fract_y
_atom_site_fract_z
O1 O 1.1147(2) 0.1927(2) 0.39988(13)
O2 O 0.8118(2) 0.14000(18) 0.12001(13)
O3 O 0.5216(2) 0.13408(17) 0.43998(16)
O4 O 0.6538(4) 0.3690(3) 0.2332(2)
O5 O 0.8869(4) 0.4073(2) 0.2559(3)
N1 N 0.93060(19) 0.16734(14) 0.27640(12)
N2 N 0.7714(3) 0.36336(16) 0.28081(18)
C1 C 1.0796(2) 0.1755(2) 0.31185(17)
C2 C 0.9265(3) 0.14978(18) 0.16952(16)
C3 C 1.0862(3) 0.14515(18) 0.13561(16)
C4 C 1.1777(3) 0.15912(18) 0.22045(16)
C5 C 1.3334(3) 0.1580(3) 0.2132(2)
H1 H 1.3947 0.1671 0.2710
C6 C 1.3942(3) 0.1429(3) 0.1157(2)
H2 H 1.4991 0.1425 0.1076
C7 C 1.3037(4) 0.1284(3) 0.0310(2)
H3 H 1.3486 0.1174 -0.0333
C8 C 1.1471(3) 0.1296(3) 0.0382(2)
H4 H 1.0858 0.1203 -0.0197
C9 C 0.7943(2) 0.18117(17) 0.33847(16)
H5 H 0.7070 0.1639 0.2946
C10 C 0.7897(3) 0.1079(2) 0.4326(2)
H6 H 0.8615 0.1340 0.4845
C11 C 0.6345(4) 0.1043(2) 0.4799(2)
H7 H 0.6263 0.0764 0.5461
C12 C 0.8323(6) -0.0076(4) 0.4050(4)
H8 H 0.9372 -0.0095 0.3824
H9 H 0.8243 -0.0503 0.4670
C13 C 0.7339(8) -0.0553(3) 0.3217(5)
H10 H 0.7528 -0.0202 0.2571
H11 H 0.6290 -0.0473 0.3401
H12 H 0.7574 -0.1286 0.3148
C14 C 0.7766(3) 0.29537(17) 0.37305(16)
H13 H 0.6839 0.3034 0.4128
H14 H 0.8614 0.3153 0.4167
loop_
_geom_bond_atom_site_label_1
_geom_bond_atom_site_label_2
_geom_bond_site_symmetry_1
_geom_bond_site_symmetry_2
O1 C1 1_555 1_555
O2 C2 1_555 1_555
O3 C11 1_555 1_555
O4 N2 1_555 1_555
O5 N2 1_555 1_555
N1 C1 1_555 1_555
N2 C14 1_555 1_555
C1 C4 1_555 1_555
C2 N1 1_555 1_555
C3 C2 1_555 1_555
C4 C3 1_555 1_555
C5 C4 1_555 1_555
H1 C5 1_555 1_555
C6 C5 1_555 1_555
H2 C6 1_555 1_555
C7 C6 1_555 1_555
H3 C7 1_555 1_555
C8 C3 1_555 1_555
H4 C8 1_555 1_555
C9 N1 1_555 1_555
H5 C9 1_555 1_555
C10 C9 1_555 1_555
H6 C10 1_555 1_555
C11 C10 1_555 1_555
H7 C11 1_555 1_555
C12 C10 1_555 1_555
H8 C12 1_555 1_555
H9 C12 1_555 1_555
C13 C12 1_555 1_555
H10 C13 1_555 1_555
H11 C13 1_555 1_555
H12 C13 1_555 1_555
C14 C9 1_555 1_555
H13 C14 1_555 1_555
H14 C14 1_555 1_555
C7 C8 1_555 1_555

#END
