
#######################################################################
#
#                 Cambridge Crystallographic Data Centre
#                                CCDC 
#
#######################################################################
#
# If this CIF has been generated from an entry in the Cambridge 
# Structural Database, then it will include bibliographic, chemical, 
# crystal, experimental, refinement or atomic coordinate data resulting 
# from the CCDC's data processing and validation procedures.
#
#######################################################################

data_CUTYAS
_chemical_formula_moiety         'C19 H16 N2 O5'
_chemical_name_systematic        
2-Benzyl-3-(1,3-dioxo-1,3-dihydro-2H-isoindol-2-yl)-4-nitrobutanal
_symmetry_cell_setting           orthorhombic
_symmetry_space_group_name_H-M   'P 21 21 21'
_symmetry_Int_Tables_number      19
_space_group_name_Hall           'P 2ac 2ab'
loop_
_symmetry_equiv_pos_site_id
_symmetry_equiv_pos_as_xyz
1 x,y,z
2 1/2-x,-y,1/2+z
3 -x,1/2+y,1/2-z
4 1/2+x,1/2-y,-z
_cell_length_a                   10.855(4)
_cell_length_b                   11.464(5)
_cell_length_c                   13.728(5)
_cell_angle_alpha                90
_cell_angle_beta                 90
_cell_angle_gamma                90
_cell_volume                     1708.34
_exptl_crystal_colour            colorless
_exptl_crystal_description       prismatic
_cell_formula_units_Z            4
loop_
_atom_site_label
_atom_site_type_symbol
_atom_site_fract_x
_atom_site_fract_y
_atom_site_fract_z
N1 N 0.7531(2) 0.64247(15) 0.12780(13)
N2 N 0.7496(3) 0.39405(19) 0.09227(17)
O1 O 0.54433(17) 0.64556(19) 0.15458(14)
O2 O 0.96258(18) 0.6677(2) 0.14607(15)
O3 O 0.7571(3) 0.5519(2) -0.17223(15)
O4 O 0.6851(3) 0.3236(2) 0.13241(19)
O5 O 0.8586(3) 0.3962(2) 0.1002(2)
C1 C 0.7539(3) 0.59597(19) 0.02896(16)
H1 H 0.8399 0.5828 0.0104
C2 C 0.6885(3) 0.4786(2) 0.0273(2)
H2 H 0.6036 0.4888 0.0477
H3 H 0.6881 0.4484 -0.0387
C3 C 0.6985(3) 0.6830(2) -0.04364(18)
H4 H 0.6115 0.6939 -0.0270
C4 C 0.7053(3) 0.6384(3) -0.1467(2)
H5 H 0.6658 0.6820 -0.1945
C5 C 0.7611(3) 0.8039(2) -0.0436(2)
H6 H 0.8494 0.7920 -0.0476
H7 H 0.7362 0.8445 -0.1024
C6 C 0.7359(3) 0.8825(2) 0.04140(19)
C7 C 0.8308(3) 0.9347(3) 0.0929(3)
H8 H 0.9122 0.9188 0.0764
C8 C 0.8049(4) 1.0110(3) 0.1693(3)
H9 H 0.8690 1.0464 0.2031
C9 C 0.6867(4) 1.0337(3) 0.1945(3)
H10 H 0.6699 1.0837 0.2462
C10 C 0.5936(3) 0.9842(3) 0.1449(2)
H11 H 0.5126 1.0005 0.1622
C11 C 0.6174(3) 0.9096(2) 0.0690(2)
H12 H 0.5518 0.8766 0.0353
C12 C 0.6476(3) 0.6663(2) 0.18197(19)
C13 C 0.8598(3) 0.6755(2) 0.17702(19)
C14 C 0.8171(3) 0.7246(2) 0.27068(19)
C15 C 0.6914(3) 0.7194(2) 0.27327(19)
C16 C 0.6243(4) 0.7622(3) 0.3505(2)
H13 H 0.5388 0.7577 0.3525
C17 C 0.6922(5) 0.8127(3) 0.4252(3)
H14 H 0.6510 0.8433 0.4788
C18 C 0.8175(5) 0.8185(3) 0.4220(3)
H15 H 0.8594 0.8534 0.4734
C19 C 0.8838(3) 0.7741(3) 0.3451(2)
H16 H 0.9694 0.7775 0.3435
loop_
_geom_bond_atom_site_label_1
_geom_bond_atom_site_label_2
_geom_bond_site_symmetry_1
_geom_bond_site_symmetry_2
N1 C1 1_555 1_555
N2 O4 1_555 1_555
O1 C12 1_555 1_555
O2 C13 1_555 1_555
O3 C4 1_555 1_555
O5 N2 1_555 1_555
C1 H1 1_555 1_555
C2 N2 1_555 1_555
H2 C2 1_555 1_555
H3 C2 1_555 1_555
C3 C1 1_555 1_555
H4 C3 1_555 1_555
C4 C3 1_555 1_555
H5 C4 1_555 1_555
C5 C3 1_555 1_555
H6 C5 1_555 1_555
H7 C5 1_555 1_555
C6 C5 1_555 1_555
C7 C6 1_555 1_555
H8 C7 1_555 1_555
C8 C7 1_555 1_555
H9 C8 1_555 1_555
C9 C8 1_555 1_555
H10 C9 1_555 1_555
C10 C9 1_555 1_555
H11 C10 1_555 1_555
C11 C6 1_555 1_555
H12 C11 1_555 1_555
C12 N1 1_555 1_555
C13 N1 1_555 1_555
C14 C13 1_555 1_555
C15 C12 1_555 1_555
C16 C15 1_555 1_555
H13 C16 1_555 1_555
C17 C16 1_555 1_555
H14 C17 1_555 1_555
C18 C17 1_555 1_555
H15 C18 1_555 1_555
C19 C14 1_555 1_555
H16 C19 1_555 1_555
C1 C2 1_555 1_555
C10 C11 1_555 1_555
C14 C15 1_555 1_555
C18 C19 1_555 1_555

#END
