
#######################################################################
#
#                 Cambridge Crystallographic Data Centre
#                                CCDC 
#
#######################################################################
#
# If this CIF has been generated from an entry in the Cambridge 
# Structural Database, then it will include bibliographic, chemical, 
# crystal, experimental, refinement or atomic coordinate data resulting 
# from the CCDC's data processing and validation procedures.
#
#######################################################################

data_CUTZUN
_chemical_formula_moiety         'C22 H21 Cl1 O2'
_chemical_name_systematic        
(5-(4-Chloro-2-methylphenyl)-1,3,3a,4,5,7a-hexahydro-2-benzofuran-4-yl)(phenyl)methanone
_symmetry_cell_setting           monoclinic
_symmetry_space_group_name_H-M   'P 21'
_symmetry_Int_Tables_number      4
_space_group_name_Hall           'P 2yb'
loop_
_symmetry_equiv_pos_site_id
_symmetry_equiv_pos_as_xyz
1 x,y,z
2 -x,1/2+y,-z
_cell_length_a                   5.8635(3)
_cell_length_b                   15.2439(8)
_cell_length_c                   10.0957(6)
_cell_angle_alpha                90
_cell_angle_beta                 96.173(2)
_cell_angle_gamma                90
_cell_volume                     897.148
_exptl_crystal_colour            colorless
_exptl_crystal_description       plate
_cell_formula_units_Z            2
loop_
_atom_site_label
_atom_site_type_symbol
_atom_site_fract_x
_atom_site_fract_y
_atom_site_fract_z
Cl1 Cl 0.56183(14) 0.68430(5) 0.72350(9)
O1 O 0.2946(5) 0.08076(17) 0.6453(3)
O2 O 0.5283(4) 0.30464(18) 0.9140(3)
C1 C 0.3227(5) 0.3068(2) 0.9238(3)
C2 C 0.1496(5) 0.2779(2) 0.8076(3)
C3 C 0.2746(6) 0.2333(2) 0.7003(3)
C4 C 0.3769(7) 0.1430(3) 0.7442(4)
C5 C 0.0773(7) 0.1123(3) 0.5877(5)
C6 C 0.1134(6) 0.2105(2) 0.5737(4)
C7 C -0.1002(6) 0.2652(2) 0.5506(3)
C8 C -0.1485(5) 0.3312(2) 0.6290(3)
C9 C -0.0084(5) 0.3561(2) 0.7574(3)
C10 C 0.1207(5) 0.4425(2) 0.7444(3)
C11 C 0.0884(6) 0.5151(2) 0.8263(3)
C12 C 0.2259(6) 0.5895(2) 0.8163(3)
C13 C 0.3862(6) 0.5921(2) 0.7256(3)
C14 C 0.4109(6) 0.5236(2) 0.6390(3)
C15 C 0.2762(5) 0.4495(2) 0.6493(3)
C16 C -0.0887(6) 0.5180(3) 0.9257(4)
C17 C 0.2378(5) 0.3395(2) 1.0483(3)
C18 C 0.3729(6) 0.3983(2) 1.1290(4)
C19 C 0.3011(6) 0.4278(2) 1.2476(4)
C20 C 0.0947(6) 0.3990(2) 1.2886(4)
C21 C -0.0416(6) 0.3406(2) 1.2098(3)
C22 C 0.0277(6) 0.3119(2) 1.0883(3)
H1 H 0.049(6) 0.233(2) 0.834(3)
H2 H 0.393(6) 0.273(2) 0.673(3)
H3 H 0.567(9) 0.139(4) 0.760(5)
H4 H 0.328(8) 0.128(3) 0.835(5)
H5 H -0.043(8) 0.099(3) 0.654(5)
H6 H 0.002(10) 0.077(4) 0.502(6)
H7 H 0.216(7) 0.215(3) 0.491(4)
H8 H -0.201(7) 0.247(3) 0.464(4)
H9 H -0.286(8) 0.367(3) 0.611(5)
H10 H -0.119(6) 0.368(2) 0.821(4)
H11 H 0.209(8) 0.639(3) 0.883(5)
H12 H 0.519(8) 0.528(3) 0.570(4)
H13 H 0.284(6) 0.399(3) 0.589(4)
H14 H -0.124(8) 0.581(4) 0.939(5)
H15 H -0.244(7) 0.492(3) 0.893(4)
H16 H -0.031(9) 0.487(3) 1.014(5)
H17 H 0.505(8) 0.415(3) 1.101(4)
H18 H 0.407(7) 0.467(3) 1.307(4)
H19 H 0.039(10) 0.419(4) 1.384(6)
H20 H -0.191(6) 0.320(2) 1.236(3)
H21 H -0.076(7) 0.278(3) 1.018(4)
loop_
_geom_bond_atom_site_label_1
_geom_bond_atom_site_label_2
_geom_bond_site_symmetry_1
_geom_bond_site_symmetry_2
Cl1 C13 1_555 1_555
O1 C4 1_555 1_555
O2 C1 1_555 1_555
C1 C2 1_555 1_555
C2 C3 1_555 1_555
C3 C4 1_555 1_555
C4 H3 1_555 1_555
C5 O1 1_555 1_555
C6 C3 1_555 1_555
C7 C6 1_555 1_555
C8 C7 1_555 1_555
C9 C2 1_555 1_555
C10 C9 1_555 1_555
C11 C10 1_555 1_555
C12 C11 1_555 1_555
C13 C12 1_555 1_555
C14 C13 1_555 1_555
C15 C10 1_555 1_555
C16 C11 1_555 1_555
C17 C1 1_555 1_555
C18 C17 1_555 1_555
C19 C18 1_555 1_555
C20 C19 1_555 1_555
C21 C20 1_555 1_555
C22 C17 1_555 1_555
H1 C2 1_555 1_555
H2 C3 1_555 1_555
H4 C4 1_555 1_555
H5 C5 1_555 1_555
H6 C5 1_555 1_555
H7 C6 1_555 1_555
H8 C7 1_555 1_555
H9 C8 1_555 1_555
H10 C9 1_555 1_555
H11 C12 1_555 1_555
H12 C14 1_555 1_555
H13 C15 1_555 1_555
H14 C16 1_555 1_555
H15 C16 1_555 1_555
H16 C16 1_555 1_555
H17 C18 1_555 1_555
H18 C19 1_555 1_555
H19 C20 1_555 1_555
H20 C21 1_555 1_555
H21 C22 1_555 1_555
C5 C6 1_555 1_555
C8 C9 1_555 1_555
C14 C15 1_555 1_555
C21 C22 1_555 1_555

#END
