
#######################################################################
#
#                 Cambridge Crystallographic Data Centre
#                                CCDC 
#
#######################################################################
#
# If this CIF has been generated from an entry in the Cambridge 
# Structural Database, then it will include bibliographic, chemical, 
# crystal, experimental, refinement or atomic coordinate data resulting 
# from the CCDC's data processing and validation procedures.
#
#######################################################################

data_CUVBEC
_chemical_formula_moiety         'C24 H23 Br1 N4 O5'
_chemical_name_systematic        
1-(6-bromo-2-naphthyl)-3-(3,3-dinitroazetidin-1-yl)-N-hydroxy-5-phenylpentan-1-imine
_symmetry_cell_setting           orthorhombic
_symmetry_space_group_name_H-M   'P 21 21 21'
_symmetry_Int_Tables_number      19
_space_group_name_Hall           'P 2ac 2ab'
loop_
_symmetry_equiv_pos_site_id
_symmetry_equiv_pos_as_xyz
1 x,y,z
2 1/2-x,-y,1/2+z
3 -x,1/2+y,1/2-z
4 1/2+x,1/2-y,-z
_cell_length_a                   6.3582(4)
_cell_length_b                   8.2725(5)
_cell_length_c                   46.165(3)
_cell_angle_alpha                90
_cell_angle_beta                 90
_cell_angle_gamma                90
_cell_volume                     2428.2
_exptl_crystal_colour            colorless
_exptl_crystal_description       Block
_cell_formula_units_Z            4
loop_
_atom_site_label
_atom_site_type_symbol
_atom_site_fract_x
_atom_site_fract_y
_atom_site_fract_z
C1 C 0.6762(5) 0.6547(4) 0.12820(6)
C2 C 0.6488(5) 0.7378(4) 0.09975(6)
C3 C 0.8068(5) 0.8451(4) 0.08952(7)
H1 H 0.9306 0.8595 0.1003
C4 C 0.7806(6) 0.9271(5) 0.06420(8)
H2 H 0.8866 0.9982 0.0579
C5 C 0.5978(6) 0.9080(4) 0.04710(7)
C6 C 0.5620(8) 0.9951(5) 0.02099(8)
H3 H 0.6625 1.0694 0.0142
C7 C 0.3834(8) 0.9705(4) 0.00604(7)
Br1 Br 0.33680(13) 1.08607(7) -0.029176(11)
C8 C 0.2304(7) 0.8629(5) 0.01453(8)
H4 H 0.1086 0.8484 0.0033
C9 C 0.2584(6) 0.7768(5) 0.03975(8)
H5 H 0.1553 0.7024 0.0457
C10 C 0.4419(5) 0.7995(4) 0.05676(7)
C11 C 0.4723(5) 0.7158(4) 0.08337(6)
H6 H 0.3683 0.6436 0.0898
N1 N 0.8660(4) 0.6502(4) 0.13779(6)
O1 O 0.8745(3) 0.5754(4) 0.16497(5)
H7 H 0.9989 0.5679 0.1703
C12 C 0.4947(5) 0.5843(4) 0.14470(6)
H8 H 0.5360 0.4792 0.1527
H9 H 0.3769 0.5665 0.1314
C13 C 0.4218(4) 0.6952(4) 0.16962(6)
H10 H 0.5447 0.7289 0.1813
C14 C 0.3036(5) 0.8441(4) 0.15899(8)
H11 H 0.1976 0.8729 0.1735
H12 H 0.2290 0.8157 0.1411
C15 C 0.4389(6) 0.9927(4) 0.15305(8)
H13 H 0.4798 1.0428 0.1714
H14 H 0.5673 0.9601 0.1429
C16 C 0.3190(7) 1.1146(4) 0.13476(8)
C17 C 0.3903(10) 1.1625(5) 0.10827(10)
H15 H 0.5213 1.1246 0.1017
C18 C 0.2739(14) 1.2662(6) 0.09060(11)
H16 H 0.3252 1.2989 0.0724
C19 C 0.0826(14) 1.3192(7) 0.10050(15)
H17 H 0.0026 1.3899 0.0890
C20 C 0.0071(10) 1.2718(6) 0.12649(15)
H18 H -0.1248 1.3089 0.1328
C21 C 0.1227(7) 1.1693(5) 0.14366(11)
H19 H 0.0684 1.1358 0.1616
N2 N 0.2784(4) 0.5980(3) 0.18746(5)
C22 C 0.3714(5) 0.4600(4) 0.20367(6)
H20 H 0.5222 0.4713 0.2076
H21 H 0.3391 0.3538 0.1954
C23 C 0.2306(5) 0.5080(5) 0.22890(7)
N3 N 0.3230(5) 0.4991(5) 0.25901(6)
O2 O 0.4608(5) 0.5931(6) 0.26427(7)
O3 O 0.2551(6) 0.3976(6) 0.27530(7)
N4 N 0.0268(5) 0.4115(5) 0.22999(7)
O4 O -0.1226(5) 0.4789(5) 0.23999(9)
O5 O 0.0278(6) 0.2757(6) 0.22092(10)
C24 C 0.2062(5) 0.6712(4) 0.21523(7)
H22 H 0.0609 0.7106 0.2148
H23 H 0.3017 0.7534 0.2230
loop_
_geom_bond_atom_site_label_1
_geom_bond_atom_site_label_2
_geom_bond_site_symmetry_1
_geom_bond_site_symmetry_2
C1 C2 1_555 1_555
C2 C3 1_555 1_555
C3 H1 1_555 1_555
C4 C3 1_555 1_555
H2 C4 1_555 1_555
C5 C4 1_555 1_555
C6 C5 1_555 1_555
H3 C6 1_555 1_555
C7 C6 1_555 1_555
Br1 C7 1_555 1_555
C8 C7 1_555 1_555
H4 C8 1_555 1_555
C9 C8 1_555 1_555
H5 C9 1_555 1_555
C10 C5 1_555 1_555
C11 C2 1_555 1_555
H6 C11 1_555 1_555
N1 C1 1_555 1_555
O1 N1 1_555 1_555
H7 O1 1_555 1_555
C12 C1 1_555 1_555
H8 C12 1_555 1_555
H9 C12 1_555 1_555
C13 C12 1_555 1_555
H10 C13 1_555 1_555
C14 C13 1_555 1_555
H11 C14 1_555 1_555
H12 C14 1_555 1_555
C15 C14 1_555 1_555
H13 C15 1_555 1_555
H14 C15 1_555 1_555
C16 C15 1_555 1_555
C17 C16 1_555 1_555
H15 C17 1_555 1_555
C18 C17 1_555 1_555
H16 C18 1_555 1_555
C19 C18 1_555 1_555
H17 C19 1_555 1_555
C20 C19 1_555 1_555
H18 C20 1_555 1_555
C21 C16 1_555 1_555
H19 C21 1_555 1_555
N2 C13 1_555 1_555
C22 N2 1_555 1_555
H20 C22 1_555 1_555
H21 C22 1_555 1_555
C23 C22 1_555 1_555
N3 C23 1_555 1_555
O2 N3 1_555 1_555
O3 N3 1_555 1_555
N4 C23 1_555 1_555
O4 N4 1_555 1_555
O5 N4 1_555 1_555
C24 N2 1_555 1_555
H22 C24 1_555 1_555
H23 C24 1_555 1_555
C9 C10 1_555 1_555
C10 C11 1_555 1_555
C20 C21 1_555 1_555
C23 C24 1_555 1_555

#END
