
#######################################################################
#
#                 Cambridge Crystallographic Data Centre
#                                CCDC 
#
#######################################################################
#
# If this CIF has been generated from an entry in the Cambridge 
# Structural Database, then it will include bibliographic, chemical, 
# crystal, experimental, refinement or atomic coordinate data resulting 
# from the CCDC's data processing and validation procedures.
#
#######################################################################

data_CUVDON
_chemical_name_common            'cytosine malonic acid'
_chemical_formula_moiety         'C4 H5 N3 O1,0.5(C3 H4 O4)'
_chemical_name_systematic        'Malonic acid 4-aminopyrimidin-2(1H)-one'
_symmetry_cell_setting           triclinic
_symmetry_space_group_name_H-M   'P -1'
_symmetry_Int_Tables_number      2
_space_group_name_Hall           '-P 1'
loop_
_symmetry_equiv_pos_site_id
_symmetry_equiv_pos_as_xyz
1 x,y,z
2 -x,-y,-z
_cell_length_a                   8.7680(3)
_cell_length_b                   8.8946(3)
_cell_length_c                   9.0259(3)
_cell_angle_alpha                95.739(2)
_cell_angle_beta                 96.267(2)
_cell_angle_gamma                99.075(2)
_cell_volume                     686.002
_exptl_crystal_colour            colorless
_exptl_crystal_description       lamellar
_cell_formula_units_Z            4
loop_
_atom_site_label
_atom_site_type_symbol
_atom_site_fract_x
_atom_site_fract_y
_atom_site_fract_z
C1 C 0.6338(3) 0.9773(3) 0.7895(3)
C2 C 0.5445(3) 0.7753(3) 0.5909(3)
H1 H 0.5556 0.7298 0.4962
C3 C 0.4370(3) 0.7086(3) 0.6670(3)
H2 H 0.3765 0.6140 0.6298
C4 C 0.4173(2) 0.7860(2) 0.8065(2)
N1 N 0.5169(2) 0.9154(2) 0.8656(2)
N2 N 0.6387(2) 0.9090(2) 0.6491(2)
H3 H 0.7038 0.9520 0.5951
N3 N 0.3043(2) 0.7364(2) 0.8821(2)
H4 H 0.2950 0.7857 0.9666
H5 H 0.2393 0.6544 0.8472
O1 O 0.73130(18) 1.08983(19) 0.8454(2)
C5 C 0.3612(2) 0.2805(3) 0.8572(2)
C6 C 0.1155(3) 0.1577(3) 0.9109(3)
H6 H 0.0330 0.0760 0.8881
C7 C 0.1130(3) 0.2651(3) 1.0238(3)
H7 H 0.0305 0.2599 1.0806
C8 C 0.2410(3) 0.3880(3) 1.0545(3)
N4 N 0.3626(2) 0.3901(2) 0.9748(2)
N5 N 0.2353(2) 0.1653(2) 0.8289(2)
H8 H 0.2324 0.0947 0.7558
N6 N 0.2444(2) 0.5018(2) 1.1600(2)
H9 H 0.3229 0.5753 1.1769
H10 H 0.1681 0.5028 1.2122
O2 O 0.46821(18) 0.28459(19) 0.78003(19)
C9 C 0.0894(3) 0.8519(3) 0.5520(3)
C10 C 0.0848(3) 0.7343(3) 0.4192(3)
H11 H 0.1743 0.6837 0.4362
H12 H 0.0975 0.7881 0.3319
C11 C -0.0582(3) 0.6116(3) 0.3809(3)
O3 O -0.0158(2) 0.8313(2) 0.6374(2)
O4 O 0.1971(2) 0.9622(2) 0.5752(2)
H13 H 0.2502 0.9601 0.5059
O5 O -0.06891(19) 0.51800(19) 0.2700(2)
O6 O -0.16233(19) 0.6103(2) 0.4703(2)
H14 H -0.1336 0.6790 0.5400
loop_
_geom_bond_atom_site_label_1
_geom_bond_atom_site_label_2
_geom_bond_site_symmetry_1
_geom_bond_site_symmetry_2
C1 N1 1_555 1_555
C2 H1 1_555 1_555
C3 C2 1_555 1_555
H2 C3 1_555 1_555
C4 C3 1_555 1_555
N1 C4 1_555 1_555
N2 C1 1_555 1_555
H3 N2 1_555 1_555
N3 C4 1_555 1_555
H4 N3 1_555 1_555
H5 N3 1_555 1_555
O1 C1 1_555 1_555
C5 N4 1_555 1_555
C6 H6 1_555 1_555
C7 C6 1_555 1_555
H7 C7 1_555 1_555
C8 C7 1_555 1_555
N4 C8 1_555 1_555
N5 C5 1_555 1_555
H8 N5 1_555 1_555
N6 C8 1_555 1_555
H9 N6 1_555 1_555
H10 N6 1_555 1_555
O2 C5 1_555 1_555
C9 C10 1_555 1_555
C10 H11 1_555 1_555
H12 C10 1_555 1_555
C11 C10 1_555 1_555
O3 C9 1_555 1_555
O4 C9 1_555 1_555
H13 O4 1_555 1_555
O5 C11 1_555 1_555
O6 C11 1_555 1_555
H14 O6 1_555 1_555
C2 N2 1_555 1_555
C6 N5 1_555 1_555

#END
