
#######################################################################
#
#                 Cambridge Crystallographic Data Centre
#                                CCDC 
#
#######################################################################
#
# If this CIF has been generated from an entry in the Cambridge 
# Structural Database, then it will include bibliographic, chemical, 
# crystal, experimental, refinement or atomic coordinate data resulting 
# from the CCDC's data processing and validation procedures.
#
#######################################################################

data_CUVDUT
_chemical_name_common            'cytosine succinic acid'
_chemical_formula_moiety         'C4 H5 N3 O1,0.5(C4 H6 O4)'
_chemical_name_systematic        '4-Aminopyrimidin-2(1H)-one succinic acid'
_symmetry_cell_setting           triclinic
_symmetry_space_group_name_H-M   'P -1'
_symmetry_Int_Tables_number      2
_space_group_name_Hall           '-P 1'
loop_
_symmetry_equiv_pos_site_id
_symmetry_equiv_pos_as_xyz
1 x,y,z
2 -x,-y,-z
_cell_length_a                   3.82680(10)
_cell_length_b                   6.5350(2)
_cell_length_c                   14.2940(4)
_cell_angle_alpha                90.5350(10)
_cell_angle_beta                 91.6000(10)
_cell_angle_gamma                92.7030(10)
_cell_volume                     356.909
_exptl_crystal_colour            colorless
_exptl_crystal_description       columnar
_cell_formula_units_Z            2
loop_
_atom_site_label
_atom_site_type_symbol
_atom_site_fract_x
_atom_site_fract_y
_atom_site_fract_z
C1 C 0.6552(5) 0.7369(3) 0.57608(12)
C2 C 0.5270(5) 0.6120(3) 0.49111(12)
H1 H 0.3075 0.6643 0.4684
H2 H 0.6952 0.6309 0.4420
O1 O 0.7765(4) 0.6523(2) 0.64538(10)
H3 H 0.7571 0.7255 0.6917
O2 O 0.6389(4) 0.9322(2) 0.57093(10)
C1A C 0.3448(5) 0.2631(3) 0.42392(12)
C2A C 0.4730(5) 0.3880(3) 0.50889(12)
H1A H 0.6925 0.3357 0.5316
H2A H 0.3048 0.3691 0.5580
O1A O 0.2235(4) 0.3477(2) 0.35462(10)
H3A H 0.2429 0.2745 0.3083
O2A O 0.3611(4) 0.0678(2) 0.42907(10)
C3 C 0.1893(5) -0.1025(3) 0.85955(12)
C4 C 0.4765(4) 0.2275(3) 0.86851(12)
C5 C 0.3652(5) 0.2690(3) 0.77490(13)
H4 H 0.4212 0.3939 0.7471
C6 C 0.1762(5) 0.1204(3) 0.72853(13)
H5 H 0.1014 0.1426 0.6672
N1 N 0.3852(4) 0.0461(2) 0.90780(10)
N2 N 0.0919(4) -0.0616(2) 0.76914(10)
H6 H -0.0266 -0.1541 0.7370
N3 N 0.6711(4) 0.3604(2) 0.91919(11)
H7 H 0.7359 0.3305 0.9753
H8 H 0.7336 0.4772 0.8962
O3 O 0.1043(4) -0.2681(2) 0.89556(10)
loop_
_geom_bond_atom_site_label_1
_geom_bond_atom_site_label_2
_geom_bond_site_symmetry_1
_geom_bond_site_symmetry_2
C1 C2 1_555 1_555
C2 H1 1_555 1_555
H2 C2 1_555 1_555
O1 C1 1_555 1_555
H3 O1 1_555 1_555
O2 C1 1_555 1_555
C3 N1 1_555 1_555
C4 C5 1_555 1_555
C5 H4 1_555 1_555
C6 C5 1_555 1_555
H5 C6 1_555 1_555
N1 C4 1_555 1_555
N2 C3 1_555 1_555
H6 N2 1_555 1_555
N3 C4 1_555 1_555
H7 N3 1_555 1_555
H8 N3 1_555 1_555
O3 C3 1_555 1_555
C1A C2A 1_555 1_555
C2A C2 1_555 1_555
H1A C2A 1_555 1_555
H2A C2A 1_555 1_555
O1A C1A 1_555 1_555
H3A O1A 1_555 1_555
O2A C1A 1_555 1_555
C6 N2 1_555 1_555

#END
