
#######################################################################
#
#                 Cambridge Crystallographic Data Centre
#                                CCDC 
#
#######################################################################
#
# If this CIF has been generated from an entry in the Cambridge 
# Structural Database, then it will include bibliographic, chemical, 
# crystal, experimental, refinement or atomic coordinate data resulting 
# from the CCDC's data processing and validation procedures.
#
#######################################################################

data_CUVFUU
_chemical_formula_moiety         'C13 H9 N1 O3 S1'
_chemical_name_systematic        'S-(2-Nitrophenyl) benzenecarbothiolate'
_symmetry_cell_setting           monoclinic
_symmetry_space_group_name_H-M   'P 21/a'
_symmetry_Int_Tables_number      14
_space_group_name_Hall           '-P 2yab'
loop_
_symmetry_equiv_pos_site_id
_symmetry_equiv_pos_as_xyz
1 x,y,z
2 1/2+x,1/2-y,z
3 -x,-y,-z
4 1/2-x,1/2+y,-z
_cell_length_a                   7.51(5)
_cell_length_b                   21.16(5)
_cell_length_c                   7.66(5)
_cell_angle_alpha                90
_cell_angle_beta                 92.043(10)
_cell_angle_gamma                90
_cell_volume                     1216.49
_exptl_crystal_colour            yellow
_exptl_crystal_description       block
_cell_formula_units_Z            4
loop_
_atom_site_label
_atom_site_type_symbol
_atom_site_fract_x
_atom_site_fract_y
_atom_site_fract_z
S1 S 0.94979(10) 0.44016(3) 0.23216(13)
C1 C 0.9948(3) 0.36247(12) 0.1614(4)
C2 C 0.9660(3) 0.30717(12) 0.2548(4)
N1 N 0.9052(3) 0.30818(11) 0.4359(3)
O1 O 0.9520(3) 0.35152(10) 0.5304(3)
O2 O 0.8108(3) 0.26460(9) 0.4848(3)
C3 C 0.9962(4) 0.24843(13) 0.1855(4)
C4 C 1.0613(4) 0.24343(16) 0.0212(5)
C5 C 1.0942(5) 0.29693(18) -0.0758(5)
C6 C 1.0589(4) 0.35540(16) -0.0052(5)
C7 C 0.7118(3) 0.43836(11) 0.2364(4)
O3 O 0.6316(3) 0.39058(9) 0.2062(3)
C8 C 0.6264(3) 0.49974(11) 0.2761(3)
C9 C 0.4514(4) 0.50777(14) 0.2278(4)
C10 C 0.3663(5) 0.56457(16) 0.2607(5)
C11 C 0.4597(5) 0.61290(14) 0.3407(5)
C12 C 0.6320(5) 0.60466(13) 0.3908(5)
C13 C 0.7179(4) 0.54840(12) 0.3574(4)
H1 H 0.9726 0.2123 0.2497
H2 H 1.0835 0.2037 -0.0253
H3 H 1.1394 0.2936 -0.1868
H4 H 1.0788 0.3914 -0.0715
H5 H 0.3887 0.4751 0.1726
H6 H 0.2465 0.5698 0.2286
H7 H 0.4040 0.6514 0.3604
H8 H 0.6937 0.6371 0.4482
H9 H 0.8376 0.5435 0.3900
loop_
_geom_bond_atom_site_label_1
_geom_bond_atom_site_label_2
_geom_bond_site_symmetry_1
_geom_bond_site_symmetry_2
S1 C1 1_555 1_555
C1 C2 1_555 1_555
C2 N1 1_555 1_555
N1 O1 1_555 1_555
O2 N1 1_555 1_555
C3 C2 1_555 1_555
C4 C3 1_555 1_555
C5 C4 1_555 1_555
C6 C1 1_555 1_555
C7 S1 1_555 1_555
O3 C7 1_555 1_555
C8 C7 1_555 1_555
C9 C8 1_555 1_555
C10 C9 1_555 1_555
C11 C10 1_555 1_555
C12 C11 1_555 1_555
C13 C8 1_555 1_555
H1 C3 1_555 1_555
H2 C4 1_555 1_555
H3 C5 1_555 1_555
H4 C6 1_555 1_555
H5 C9 1_555 1_555
H6 C10 1_555 1_555
H7 C11 1_555 1_555
H8 C12 1_555 1_555
H9 C13 1_555 1_555
C5 C6 1_555 1_555
C12 C13 1_555 1_555

#END
