
#######################################################################
#
#                 Cambridge Crystallographic Data Centre
#                                CCDC 
#
#######################################################################
#
# If this CIF has been generated from an entry in the Cambridge 
# Structural Database, then it will include bibliographic, chemical, 
# crystal, experimental, refinement or atomic coordinate data resulting 
# from the CCDC's data processing and validation procedures.
#
#######################################################################

data_CUVHAC01
_chemical_formula_moiety         'C27 H30 O6'
_chemical_name_systematic        Cyclotriveratrylene
_symmetry_cell_setting           monoclinic
_symmetry_space_group_name_H-M   'P 21/n'
_symmetry_Int_Tables_number      14
_space_group_name_Hall           '-P 2yn'
loop_
_symmetry_equiv_pos_site_id
_symmetry_equiv_pos_as_xyz
1 x,y,z
2 1/2-x,1/2+y,1/2-z
3 -x,-y,-z
4 1/2+x,1/2-y,1/2+z
_cell_length_a                   12.582(3)
_cell_length_b                   9.575(5)
_cell_length_c                   19.738(5)
_cell_angle_alpha                90
_cell_angle_beta                 95.15(2)
_cell_angle_gamma                90
_cell_volume                     2368.29
_exptl_crystal_colour            colorless
_chemical_melting_point          222deg.C
_cell_formula_units_Z            4
loop_
_atom_site_label
_atom_site_type_symbol
_atom_site_fract_x
_atom_site_fract_y
_atom_site_fract_z
C1 C 0.8234(4) -0.1200(5) 0.3391(2)
C2 C 0.8422(4) -0.0257(6) 0.3934(2)
C3 C 0.7604(4) 0.0272(6) 0.4275(2)
C4 C 0.6553(4) -0.0090(6) 0.4067(2)
C5 C 0.6359(4) -0.1039(6) 0.3537(3)
C6 C 0.7192(4) -0.1565(5) 0.3187(2)
C7 C 0.6868(5) -0.2505(6) 0.2574(3)
C8 C 0.6618(4) -0.1573(5) 0.1945(2)
C9 C 0.5591(4) -0.1007(6) 0.1847(3)
C10 C 0.5323(4) -0.0033(6) 0.1337(2)
C11 C 0.6085(4) 0.0329(6) 0.0896(2)
C12 C 0.7087(4) -0.0256(6) 0.0980(2)
C13 C 0.7366(4) -0.1230(5) 0.1505(2)
C14 C 0.8490(4) -0.1830(6) 0.1548(3)
C15 C 0.9352(4) -0.0864(6) 0.1863(2)
C16 C 0.9849(4) 0.0047(6) 0.1431(3)
C17 C 1.0635(4) 0.0968(6) 0.1665(2)
C18 C 1.0968(4) 0.0991(6) 0.2362(3)
C19 C 1.0491(4) 0.0096(6) 0.2793(3)
C20 C 0.9678(4) -0.0832(6) 0.2559(2)
C21 C 0.9202(4) -0.1768(6) 0.3071(3)
C22 C 0.8776(5) 0.1732(8) 0.4997(3)
C23 C 0.4726(4) 0.0552(8) 0.4086(3)
C24 C 0.3684(5) 0.0638(9) 0.1771(4)
C25 C 0.6544(5) 0.1757(8) -0.0019(3)
C26 C 1.0909(6) 0.1767(9) 0.0547(3)
C27 C 1.2279(6) 0.179(1) 0.3225(4)
O1 O 0.7729(3) 0.1201(4) 0.4811(2)
O2 O 0.5773(3) 0.0485(4) 0.4422(2)
O3 O 0.4342(3) 0.0581(4) 0.1222(2)
O4 O 0.5767(3) 0.1315(4) 0.0412(2)
O5 O 1.1137(3) 0.1893(4) 0.1267(2)
O6 O 1.1754(3) 0.1939(4) 0.2560(2)
H1 H 0.917(4) -0.002(6) 0.408(3)
H2 H 0.555(4) -0.141(6) 0.340(3)
H3 H 0.733(5) -0.319(7) 0.251(3)
H4 H 0.616(4) -0.301(6) 0.268(3)
H5 H 0.502(4) -0.135(6) 0.215(3)
H6 H 0.763(4) 0.004(6) 0.066(3)
H7 H 0.868(4) -0.211(6) 0.107(3)
H8 H 0.854(4) -0.288(6) 0.178(3)
H9 H 0.963(4) 0.002(6) 0.095(3)
H10 H 1.073(4) 0.005(6) 0.330(3)
H11 H 0.909(5) -0.273(6) 0.286(3)
H12 H 0.977(5) -0.193(6) 0.343(3)
H13 H 0.871(4) 0.259(6) 0.537(3)
H14 H 0.913(4) 0.229(6) 0.459(3)
H15 H 0.925(5) 0.102(6) 0.516(3)
H16 H 0.429(5) 0.102(6) 0.438(3)
H17 H 0.440(5) -0.039(7) 0.403(3)
H18 H 0.476(4) 0.126(6) 0.364(3)
H19 H 0.299(5) 0.102(6) 0.161(3)
H20 H 0.409(5) 0.116(6) 0.219(3)
H21 H 0.346(5) -0.031(7) 0.188(3)
H22 H 0.617(4) 0.258(6) -0.032(3)
H23 H 0.681(5) 0.106(6) -0.030(3)
H24 H 0.722(5) 0.224(6) 0.023(3)
H25 H 1.142(5) 0.237(6) 0.036(3)
H26 H 1.002(5) 0.202(6) 0.042(3)
H27 H 1.105(4) 0.063(6) 0.042(3)
H28 H 1.294(5) 0.237(6) 0.323(3)
H29 H 1.253(5) 0.069(7) 0.329(3)
H30 H 1.175(5) 0.206(7) 0.355(3)
loop_
_geom_bond_atom_site_label_1
_geom_bond_atom_site_label_2
_geom_bond_site_symmetry_1
_geom_bond_site_symmetry_2
C1 C2 1_555 1_555
C2 C3 1_555 1_555
C3 C4 1_555 1_555
C4 C5 1_555 1_555
C5 C6 1_555 1_555
C6 C1 1_555 1_555
C7 C6 1_555 1_555
C8 C7 1_555 1_555
C9 C8 1_555 1_555
C10 C9 1_555 1_555
C11 C10 1_555 1_555
C12 C11 1_555 1_555
C13 C8 1_555 1_555
C14 C13 1_555 1_555
C15 C14 1_555 1_555
C16 C15 1_555 1_555
C17 C16 1_555 1_555
C18 C17 1_555 1_555
C19 C18 1_555 1_555
C20 C15 1_555 1_555
C21 C1 1_555 1_555
C22 O1 1_555 1_555
C23 O2 1_555 1_555
C24 O3 1_555 1_555
C25 O4 1_555 1_555
C26 O5 1_555 1_555
C27 O6 1_555 1_555
O1 C3 1_555 1_555
O2 C4 1_555 1_555
O3 C10 1_555 1_555
O4 C11 1_555 1_555
O5 C17 1_555 1_555
O6 C18 1_555 1_555
H1 C2 1_555 1_555
H2 C5 1_555 1_555
H3 C7 1_555 1_555
H4 C7 1_555 1_555
H5 C9 1_555 1_555
H6 C12 1_555 1_555
H7 C14 1_555 1_555
H8 C14 1_555 1_555
H9 C16 1_555 1_555
H10 C19 1_555 1_555
H11 C21 1_555 1_555
H12 C21 1_555 1_555
H13 C22 1_555 1_555
H14 C22 1_555 1_555
H15 C22 1_555 1_555
H16 C23 1_555 1_555
H17 C23 1_555 1_555
H18 C23 1_555 1_555
H19 C24 1_555 1_555
H20 C24 1_555 1_555
H21 C24 1_555 1_555
H22 C25 1_555 1_555
H23 C25 1_555 1_555
H24 C25 1_555 1_555
H25 C26 1_555 1_555
H26 C26 1_555 1_555
H27 C26 1_555 1_555
H28 C27 1_555 1_555
H29 C27 1_555 1_555
H30 C27 1_555 1_555
C12 C13 1_555 1_555
C19 C20 1_555 1_555
C20 C21 1_555 1_555

#END
