
#######################################################################
#
#                 Cambridge Crystallographic Data Centre
#                                CCDC 
#
#######################################################################
#
# If this CIF has been generated from an entry in the Cambridge 
# Structural Database, then it will include bibliographic, chemical, 
# crystal, experimental, refinement or atomic coordinate data resulting 
# from the CCDC's data processing and validation procedures.
#
#######################################################################

data_CUVJEK
_chemical_formula_moiety         'C32 H37 Br1 Cl1 N3 O6 S2'
_chemical_name_systematic        
'Ethyl ((R)-3-((3-bromophenyl)thio)-2-(4-chlorophenyl)-2-((S)-3-methyl-2-((4-methylphenyl)sulfonamido)butanamido)propanoyl)-L-alaninate'
_symmetry_cell_setting           triclinic
_symmetry_space_group_name_H-M   'P 1'
_symmetry_Int_Tables_number      1
_space_group_name_Hall           'P 1'
loop_
_symmetry_equiv_pos_site_id
_symmetry_equiv_pos_as_xyz
1 x,y,z
_cell_length_a                   9.9554(3)
_cell_length_b                   13.0776(4)
_cell_length_c                   14.9103(4)
_cell_angle_alpha                75.0450(10)
_cell_angle_beta                 78.8930(10)
_cell_angle_gamma                69.6590(10)
_cell_volume                     1747.12
_exptl_crystal_colour            colorless
_exptl_crystal_description       prism
_cell_formula_units_Z            2
loop_
_atom_site_label
_atom_site_type_symbol
_atom_site_fract_x
_atom_site_fract_y
_atom_site_fract_z
Br1 Br 0.26236(14) -0.09792(6) 0.89231(6)
S1 S 0.80226(10) 0.44392(8) 0.64717(6)
S2 S 0.28585(12) 0.32902(10) 0.77721(8)
Cl1 Cl -0.16077(14) 0.99664(10) 0.51395(9)
O1 O 0.9032(3) 0.4413(3) 0.5645(2)
O2 O 0.8483(3) 0.4470(3) 0.7317(2)
O3 O 0.4004(3) 0.5767(3) 0.5918(2)
O4 O 0.1508(3) 0.5462(3) 0.9046(2)
N1 N 0.3141(4) 0.5598(3) 0.7464(2)
H1 H 0.3347 0.5551 0.8024
O5 O -0.1648(5) 0.6791(3) 0.9589(3)
O6 O -0.0898(4) 0.5457(4) 1.0833(2)
N2 N -0.0311(4) 0.5238(3) 0.8502(2)
H2 H -0.0714 0.5305 0.8005
N3 N 0.6667(4) 0.5559(3) 0.6235(3)
H3 H 0.639(6) 0.560(5) 0.573(4)
C1 C 0.4138(4) 0.5709(4) 0.6740(3)
C2 C 0.0844(4) 0.6649(4) 0.6803(3)
C3 C -0.1151(5) 0.5742(5) 1.0032(3)
C4 C 0.0961(5) 0.5410(4) 0.8401(3)
C5 C 0.0609(5) 0.7633(4) 0.7093(3)
H4 H 0.0985 0.7605 0.7641
C6 C -0.0494(5) 0.7713(4) 0.5508(3)
H5 H -0.0875 0.7744 0.4961
C7 C 0.1721(6) 0.2352(4) 0.6739(3)
H6 H 0.1548 0.3028 0.6283
C8 C 0.0268(5) 0.6698(4) 0.6014(3)
H7 H 0.0396 0.6031 0.5818
C9 C 0.5492(4) 0.5817(4) 0.6998(3)
H8 H 0.5774 0.5264 0.7587
C10 C 0.1719(4) 0.5551(4) 0.7380(3)
C11 C -0.1040(5) 0.4940(4) 0.9434(3)
H9 H -0.2043 0.5001 0.9358
C12 C 0.6299(6) 0.2157(5) 0.6274(4)
H10 H 0.5807 0.2049 0.5837
C13 C -0.0158(6) 0.8647(4) 0.6599(4)
H11 H -0.0315 0.9314 0.6802
C14 C -0.0699(5) 0.8678(4) 0.5799(3)
C15 C 0.6568(6) 0.1368(5) 0.7092(4)
C16 C 0.2286(5) 0.2256(4) 0.7548(3)
C17 C 0.7433(5) 0.3262(4) 0.6720(3)
C18 C 0.7707(7) 0.2495(5) 0.7547(3)
H12 H 0.8184 0.2608 0.7989
C19 C -0.0307(6) 0.3742(5) 0.9897(4)
H13 H -0.0239 0.3246 0.9486
H14 H -0.0873 0.3542 1.0491
H15 H 0.0662 0.3665 1.0013
C20 C 0.6726(5) 0.3103(4) 0.6071(3)
H16 H 0.6540 0.3631 0.5501
C21 C 0.5178(5) 0.7006(4) 0.7157(3)
H17 H 0.4307 0.7155 0.7628
C22 C 0.2500(7) 0.1273(5) 0.8220(4)
H18 H 0.2828 0.1211 0.8795
C23 C 0.1899(5) 0.4530(4) 0.6986(3)
H19 H 0.2448 0.4586 0.6356
H20 H 0.0941 0.4492 0.6933
C24 C 0.7269(7) 0.1547(5) 0.7723(4)
H21 H 0.7460 0.1013 0.8290
C25 C 0.4825(7) 0.7900(4) 0.6267(4)
H22 H 0.5696 0.7839 0.5819
H23 H 0.4475 0.8640 0.6421
H24 H 0.4079 0.7793 0.5991
C26 C 0.6412(6) 0.7088(4) 0.7563(4)
H25 H 0.6588 0.6532 0.8146
H26 H 0.6162 0.7836 0.7689
H27 H 0.7284 0.6951 0.7115
C27 C 0.1408(7) 0.1450(5) 0.6599(4)
H28 H 0.1015 0.1520 0.6046
C28 C 0.6086(7) 0.0354(5) 0.7290(5)
H29 H 0.5441 0.0446 0.6834
H30 H 0.5574 0.0261 0.7921
H31 H 0.6930 -0.0307 0.7242
C29 C 0.1653(7) 0.0472(5) 0.7238(5)
H32 H 0.1437 -0.0142 0.7141
C30 C 0.2229(8) 0.0400(5) 0.8037(5)
C31 C -0.1811(13) 0.7646(8) 1.0095(7)
H33 H -0.2453 0.7537 1.0684
H34 H -0.0859 0.7567 1.0261
C32 C -0.236(4) 0.8664(11) 0.9600(10)
H35 H -0.2201 0.8642 0.8935
H36 H -0.1878 0.9158 0.9703
H37 H -0.3392 0.8945 0.9796
Br2 Br 0.05917(13) 1.09792(8) 0.09783(8)
S3 S 1.04366(11) 0.59036(9) 0.33349(7)
S4 S 0.48980(12) 0.70462(9) 0.20352(7)
Cl2 Cl 0.45828(17) 0.05244(12) 0.48559(10)
O7 O 0.7210(3) 0.4677(3) 0.3985(2)
O8 O 1.1343(3) 0.5873(3) 0.2459(2)
O9 O 1.1005(3) 0.5958(3) 0.4129(2)
O10 O 0.6333(3) 0.4727(3) 0.0901(2)
O11 O 0.4908(4) 0.4565(3) -0.0852(2)
N4 N 0.7140(4) 0.4703(3) 0.2463(2)
H43 H 0.7641 0.4705 0.1907
N5 N 0.3991(4) 0.4955(3) 0.1443(2)
H44 H 0.3375 0.4880 0.1945
O12 O 0.4563(4) 0.3323(3) 0.0445(3)
N6 N 0.9966(4) 0.4790(3) 0.3630(2)
H45 H 0.945(6) 0.468(4) 0.427(4)
C34 C 0.5358(5) 0.4819(4) 0.1539(3)
C35 C 0.6291(5) 0.2683(4) 0.3023(3)
H46 H 0.7079 0.2656 0.2546
C36 C 0.5380(5) 0.3715(4) 0.3189(3)
C37 C 0.3506(5) 0.5224(4) 0.0525(3)
H47 H 0.2504 0.5179 0.0625
C38 C 0.7815(4) 0.4634(4) 0.3193(3)
C39 C 0.6077(6) 0.1694(4) 0.3539(3)
H48 H 0.6718 0.0995 0.3429
C40 C 0.5635(4) 0.4772(4) 0.2548(3)
C41 C 1.1779(5) 0.3017(4) 0.2480(4)
H49 H 1.1778 0.3454 0.1838
H50 H 1.2256 0.2225 0.2473
H51 H 1.2298 0.3262 0.2836
C42 C 0.4234(5) 0.3741(4) 0.3890(3)
H52 H 0.3606 0.4436 0.4020
C43 C 0.9440(5) 0.4433(4) 0.2951(3)
H53 H 0.9619 0.4888 0.2316
C44 C 0.4000(6) 0.2755(5) 0.4403(3)
H54 H 0.3213 0.2776 0.4881
C45 C 0.4437(5) 0.4357(4) -0.0050(3)
C46 C 0.7635(5) 0.7180(4) 0.3695(3)
H55 H 0.7574 0.6608 0.4229
C47 C 0.2676(7) 0.8938(5) 0.1669(4)
H56 H 0.3046 0.8948 0.1031
C48 C 0.3436(6) 0.6388(4) 0.0006(4)
H57 H 0.2793 0.6924 0.0379
H58 H 0.3067 0.6537 -0.0594
H59 H 0.4404 0.6463 -0.0105
C49 C 1.0226(5) 0.3190(4) 0.2937(3)
H60 H 0.9715 0.2965 0.2542
C50 C 0.6449(6) 0.8120(5) 0.3496(4)
H61 H 0.5575 0.8186 0.3902
C51 C 0.4907(5) 0.1751(4) 0.4219(3)
C52 C 0.1477(8) 0.9784(5) 0.1928(5)
C53 C 0.3316(5) 0.8075(4) 0.2372(4)
C54 C 1.0165(6) 0.2447(5) 0.3909(4)
H62 H 1.0658 0.1666 0.3867
H63 H 0.9157 0.2541 0.4167
H64 H 1.0643 0.2655 0.4318
C55 C 0.1554(7) 0.8946(5) 0.3527(5)
H65 H 0.1178 0.8943 0.4163
C56 C 0.2756(6) 0.8078(5) 0.3295(4)
H66 H 0.3195 0.7485 0.3775
C57 C 0.9011(7) 0.7934(5) 0.2347(4)
H67 H 0.9895 0.7876 0.1954
C58 C 0.8903(5) 0.7090(4) 0.3104(3)
C59 C 0.0904(7) 0.9813(5) 0.2833(5)
H68 H 0.0085 1.0410 0.2983
C60 C 0.6512(7) 0.8966(5) 0.2720(4)
C61 C 0.4659(5) 0.5835(4) 0.2887(3)
H69 H 0.4911 0.5833 0.3498
H70 H 0.3638 0.5859 0.2968
C62 C 0.7815(7) 0.8870(5) 0.2163(4)
H71 H 0.7894 0.9455 0.1645
C63 C 0.5404(8) 0.2403(6) -0.0005(5)
H72 H 0.5339 0.2635 -0.0686
H73 H 0.5015 0.1770 0.0242
C64 C 0.5182(8) 0.9952(5) 0.2478(5)
H74 H 0.4722 0.9815 0.2015
H75 H 0.5462 1.0627 0.2219
H76 H 0.4503 1.0052 0.3043
C65 C 0.6910(10) 0.2053(8) 0.0170(6)
H77 H 0.7345 0.2628 -0.0177
H78 H 0.7437 0.1351 -0.0036
H79 H 0.6957 0.1944 0.0840
H38? H -0.2808 0.8167 1.0086
H39? H -0.1652 0.7293 1.0755
C33? C -0.086(3) 0.822(2) 0.9716(15)
H40? H 0.0122 0.7724 0.9784
H41? H -0.1059 0.8833 1.0039
H42? H -0.0975 0.8531 0.9052
loop_
_geom_bond_atom_site_label_1
_geom_bond_atom_site_label_2
_geom_bond_site_symmetry_1
_geom_bond_site_symmetry_2
Br1 C30 1_555 1_555
S1 O1 1_555 1_555
S2 C16 1_555 1_555
Cl1 C14 1_555 1_555
O2 S1 1_555 1_555
O3 C1 1_555 1_555
O4 C4 1_555 1_555
N1 H1 1_555 1_555
O5 C3 1_555 1_555
O6 C3 1_555 1_555
N2 H2 1_555 1_555
N3 S1 1_555 1_555
H3 N3 1_555 1_555
C1 N1 1_555 1_555
C2 C5 1_555 1_555
C3 C11 1_555 1_555
C4 N2 1_555 1_555
C5 H4 1_555 1_555
C6 H5 1_555 1_555
C7 H6 1_555 1_555
C8 C2 1_555 1_555
H7 C8 1_555 1_555
C9 N3 1_555 1_555
H8 C9 1_555 1_555
C10 N1 1_555 1_555
C11 N2 1_555 1_555
H9 C11 1_555 1_555
C12 H10 1_555 1_555
C13 C5 1_555 1_555
H11 C13 1_555 1_555
C14 C6 1_555 1_555
C15 C12 1_555 1_555
C16 C7 1_555 1_555
C17 S1 1_555 1_555
C18 C17 1_555 1_555
H12 C18 1_555 1_555
C19 C11 1_555 1_555
H13 C19 1_555 1_555
H14 C19 1_555 1_555
H15 C19 1_555 1_555
C20 C12 1_555 1_555
H16 C20 1_555 1_555
C21 C9 1_555 1_555
H17 C21 1_555 1_555
C22 C16 1_555 1_555
H18 C22 1_555 1_555
C23 S2 1_555 1_555
H19 C23 1_555 1_555
H20 C23 1_555 1_555
C24 C15 1_555 1_555
H21 C24 1_555 1_555
C25 C21 1_555 1_555
H22 C25 1_555 1_555
H23 C25 1_555 1_555
H24 C25 1_555 1_555
C26 C21 1_555 1_555
H25 C26 1_555 1_555
H26 C26 1_555 1_555
H27 C26 1_555 1_555
C27 C7 1_555 1_555
H28 C27 1_555 1_555
C28 C15 1_555 1_555
H29 C28 1_555 1_555
H30 C28 1_555 1_555
H31 C28 1_555 1_555
C29 C27 1_555 1_555
H32 C29 1_555 1_555
C30 C22 1_555 1_555
C31 O5 1_555 1_555
H33 C31 1_555 1_555
H34 C31 1_555 1_555
C32 C31 1_555 1_555
H35 C32 1_555 1_555
H36 C32 1_555 1_555
H37 C32 1_555 1_555
Br2 C52 1_555 1_555
S3 O8 1_555 1_555
S4 C53 1_555 1_555
Cl2 C51 1_555 1_555
O7 C38 1_555 1_555
O9 S3 1_555 1_555
O10 C34 1_555 1_555
O11 C45 1_555 1_555
N4 H43 1_555 1_555
N5 H44 1_555 1_555
O12 C45 1_555 1_555
N6 S3 1_555 1_555
H45 N6 1_555 1_555
C34 N5 1_555 1_555
C35 H46 1_555 1_555
C36 C35 1_555 1_555
C37 N5 1_555 1_555
H47 C37 1_555 1_555
C38 N4 1_555 1_555
C39 C35 1_555 1_555
H48 C39 1_555 1_555
C40 N4 1_555 1_555
C41 H49 1_555 1_555
H50 C41 1_555 1_555
H51 C41 1_555 1_555
C42 C36 1_555 1_555
H52 C42 1_555 1_555
C43 N6 1_555 1_555
H53 C43 1_555 1_555
C44 C42 1_555 1_555
H54 C44 1_555 1_555
C45 C37 1_555 1_555
C46 H55 1_555 1_555
C47 H56 1_555 1_555
C48 C37 1_555 1_555
H57 C48 1_555 1_555
H58 C48 1_555 1_555
H59 C48 1_555 1_555
C49 C41 1_555 1_555
H60 C49 1_555 1_555
C50 C46 1_555 1_555
H61 C50 1_555 1_555
C51 C39 1_555 1_555
C52 C47 1_555 1_555
C53 C47 1_555 1_555
C54 C49 1_555 1_555
H62 C54 1_555 1_555
H63 C54 1_555 1_555
H64 C54 1_555 1_555
C55 H65 1_555 1_555
C56 C53 1_555 1_555
H66 C56 1_555 1_555
C57 H67 1_555 1_555
C58 S3 1_555 1_555
C59 C52 1_555 1_555
H68 C59 1_555 1_555
C60 C50 1_555 1_555
C61 S4 1_555 1_555
H69 C61 1_555 1_555
H70 C61 1_555 1_555
C62 C57 1_555 1_555
H71 C62 1_555 1_555
C63 O12 1_555 1_555
H72 C63 1_555 1_555
H73 C63 1_555 1_555
C64 C60 1_555 1_555
H74 C64 1_555 1_555
H75 C64 1_555 1_555
H76 C64 1_555 1_555
C65 C63 1_555 1_555
H77 C65 1_555 1_555
H78 C65 1_555 1_555
H79 C65 1_555 1_555
C1 C9 1_555 1_555
C2 C10 1_555 1_555
C4 C10 1_555 1_555
C6 C8 1_555 1_555
C10 C23 1_555 1_555
C13 C14 1_555 1_555
C17 C20 1_555 1_555
C18 C24 1_555 1_555
C29 C30 1_555 1_555
C34 C40 1_555 1_555
C36 C40 1_555 1_555
C38 C43 1_555 1_555
C40 C61 1_555 1_555
C43 C49 1_555 1_555
C44 C51 1_555 1_555
C46 C58 1_555 1_555
C55 C56 1_555 1_555
C55 C59 1_555 1_555
C57 C58 1_555 1_555
C60 C62 1_555 1_555

#END
