
#######################################################################
#
#                 Cambridge Crystallographic Data Centre
#                                CCDC 
#
#######################################################################
#
# If this CIF has been generated from an entry in the Cambridge 
# Structural Database, then it will include bibliographic, chemical, 
# crystal, experimental, refinement or atomic coordinate data resulting 
# from the CCDC's data processing and validation procedures.
#
#######################################################################

data_CUVKAF
_chemical_formula_moiety         
'C4 H15 N3 2+,2(C20 H17 O3 1-),2(C20 H18 O3),C1 H4 O1'
_chemical_name_systematic        
'bis(2-Aminoethyl)amine tetrakis(1,1,1-tris(4-hydroxyphenyl)ethane) methanol solvate'
_symmetry_cell_setting           triclinic
_symmetry_space_group_name_H-M   'P -1'
_symmetry_Int_Tables_number      2
_space_group_name_Hall           '-P 1'
loop_
_symmetry_equiv_pos_site_id
_symmetry_equiv_pos_as_xyz
1 x,y,z
2 -x,-y,-z
_cell_length_a                   10.7171(9)
_cell_length_b                   11.2112(11)
_cell_length_c                   15.5547(19)
_cell_angle_alpha                101.069(9)
_cell_angle_beta                 92.924(9)
_cell_angle_gamma                97.291(9)
_cell_volume                     1813.86
_exptl_crystal_colour            colorless
_exptl_crystal_description       plate
_cell_formula_units_Z            1
loop_
_atom_site_label
_atom_site_type_symbol
_atom_site_fract_x
_atom_site_fract_y
_atom_site_fract_z
C6 C 0.1131(2) 0.29781(19) -0.02624(13)
C7 C 0.2283(2) 0.3478(2) -0.05040(15)
C8 C 0.3349(2) 0.3753(2) 0.00653(16)
C9 C 0.3300(2) 0.3552(2) 0.09101(14)
O2 O 0.44019(15) 0.38146(19) 0.14380(11)
C10 C 0.2170(2) 0.3086(2) 0.11735(15)
C11 C 0.1098(2) 0.2797(2) 0.05919(14)
C12 C -0.1221(2) 0.2277(2) -0.05111(14)
C13 C -0.1894(2) 0.3196(3) -0.01243(18)
C14 C -0.2966(3) 0.2966(4) 0.0281(2)
C15 C -0.3416(3) 0.1793(4) 0.0321(2)
O3 O -0.4501(2) 0.1467(3) 0.0709(2)
C16 C -0.2790(3) 0.0829(3) -0.0057(2)
C17 C -0.1690(2) 0.1090(3) -0.04661(16)
C18 C 0.0219(2) 0.1469(2) -0.16311(13)
C19 C -0.0515(2) 0.1128(2) -0.24231(15)
C20 C -0.0381(2) 0.0092(3) -0.30218(16)
C21 C 0.0494(3) -0.0634(3) -0.28507(17)
O4 O 0.0667(3) -0.1664(2) -0.34510(16)
C22 C 0.1233(3) -0.0332(3) -0.20746(19)
C23 C 0.1092(2) 0.0714(2) -0.14760(16)
C24 C -0.0010(2) 0.2593(2) -0.09505(14)
C25 C -0.0144(3) 0.3670(2) -0.14262(17)
H14 H 0.2334 0.3631 -0.1069
H15 H 0.4107 0.4077 -0.0120
H16 H 0.4276 0.3622 0.1912
H17 H 0.2121 0.2963 0.1746
H18 H 0.0341 0.2474 0.0781
H19 H -0.1596 0.4005 -0.0144
H20 H -0.3388 0.3607 0.0528
H21 H -0.4887 0.2058 0.0818
H22 H -0.3102 0.0023 -0.0036
H23 H -0.1264 0.0451 -0.0714
H24 H -0.1113 0.1615 -0.2551
H25 H -0.0888 -0.0118 -0.3546
H26 H 0.0050 -0.2190 -0.3485
H27 H 0.1825 -0.0828 -0.1952
H28 H 0.1600 0.0916 -0.0952
H29 H 0.0617 0.3864 -0.1700
H30 H -0.0294 0.4376 -0.1007
H31 H -0.0840 0.3437 -0.1866
C26 C 0.4893(2) -0.0528(3) 0.29823(15)
C27 C 0.3913(3) -0.0194(3) 0.25005(19)
C28 C 0.3781(3) 0.1004(3) 0.2502(2)
C29 C 0.4632(2) 0.1936(3) 0.29955(16)
O5 O 0.44549(18) 0.3129(2) 0.29876(13)
C30 C 0.5623(3) 0.1642(3) 0.34770(17)
C31 C 0.5750(3) 0.0425(3) 0.34637(17)
C32 C 0.3770(2) -0.2499(3) 0.32807(14)
C33 C 0.3294(3) -0.3728(3) 0.29705(16)
C34 C 0.2232(3) -0.4280(3) 0.32789(17)
C35 C 0.1613(2) -0.3623(2) 0.39225(16)
O6 O 0.05536(17) -0.41414(17) 0.42540(13)
C36 C 0.2075(2) -0.2406(2) 0.42512(16)
C37 C 0.3124(2) -0.1856(2) 0.39303(15)
C38 C 0.6121(2) -0.2043(2) 0.35381(15)
C39 C 0.7230(2) -0.2327(2) 0.32009(15)
C40 C 0.8241(2) -0.2501(2) 0.37246(15)
C41 C 0.8167(2) -0.2380(2) 0.46162(14)
O7 O 0.91283(17) -0.26131(18) 0.51478(12)
C42 C 0.7099(2) -0.2042(3) 0.49766(15)
C43 C 0.6099(2) -0.1887(3) 0.44487(16)
C44 C 0.4974(2) -0.1887(3) 0.29538(15)
C45 C 0.5102(3) -0.2486(4) 0.19793(17)
H32 H 0.3325 -0.0809 0.2164
H33 H 0.3113 0.1188 0.2169
H34 H 0.5025 0.3600 0.3295
H35 H 0.6208 0.2263 0.3811
H36 H 0.6429 0.0242 0.3787
H37 H 0.3706 -0.4193 0.2542
H38 H 0.1932 -0.5101 0.3051
H39 H 0.0211 -0.4742 0.3894
H40 H 0.1674 -0.1954 0.4693
H41 H 0.3410 -0.1030 0.4154
H42 H 0.7301 -0.2404 0.2600
H43 H 0.8976 -0.2700 0.3474
H44 H 0.9580 -0.3038 0.4850
H45 H 0.7052 -0.1917 0.5582
H46 H 0.5375 -0.1669 0.4706
H47 H 0.4379 -0.2387 0.1622
H48 H 0.5153 -0.3344 0.1934
H49 H 0.5852 -0.2096 0.1780
O1 O 0.1194(6) 0.6062(4) 0.6642(4)
C1 C 0.1704(12) 0.6105(9) 0.7512(6)
N1 N 0.0875(7) 0.5921(7) 0.7104(6)
C2 C 0.2217(6) 0.5787(6) 0.7042(5)
C3 C 0.2542(4) 0.5628(4) 0.6092(3)
N2 N 0.3864(9) 0.5426(7) 0.6020(6)
C4 C 0.4255(9) 0.5348(8) 0.5116(6)
C5 C 0.4398(9) 0.4928(8) 0.4935(6)
N3 N 0.3999(10) 0.5010(7) 0.5831(6)
H1 H 0.0696 0.6018 0.7663
H2 H 0.0715 0.6575 0.6893
H3 H 0.2733 0.6509 0.7390
H4 H 0.2396 0.5080 0.7276
H5 H 0.2406 0.6355 0.5868
H6 H 0.1993 0.4933 0.5739
H7 H 0.3972 0.4725 0.6198
H8 H 0.3695 0.4706 0.4719
H9 H 0.4188 0.6119 0.4933
H10 H 0.4333 0.5697 0.4750
H11 H 0.3840 0.4285 0.4538
H12 H 0.3210 0.5177 0.5843
H13 H 0.4040 0.4298 0.5997
C5A C 0.5602(9) 0.5072(8) 0.5065(6)
C4A C 0.5745(9) 0.4652(8) 0.4884(6)
N2A N 0.6136(9) 0.4574(7) 0.3980(6)
C3A C 0.7458(4) 0.4372(4) 0.3908(3)
C2A C 0.7783(6) 0.4213(6) 0.2958(5)
O1A O 0.8806(6) 0.3938(4) 0.3358(4)
C1A C 0.8296(12) 0.3895(9) 0.2488(6)
N1A N 0.9125(7) 0.4079(7) 0.2896(6)
H2A H 0.9285 0.3425 0.3107
H1A H 0.9304 0.3982 0.2337
H3A H 0.7267 0.3491 0.2610
H4A H 0.7604 0.4920 0.2724
H5A H 0.7594 0.3645 0.4132
H6A H 0.8007 0.5067 0.4261
H12A H 0.6790 0.4823 0.4157
N3A N 0.6001(10) 0.4990(7) 0.4169(6)
H7A H 0.6028 0.5275 0.3802
H13A H 0.5960 0.5702 0.4003
H8A H 0.6305 0.5294 0.5281
H9A H 0.5812 0.3881 0.5067
H10A H 0.5667 0.4303 0.5250
H11A H 0.6160 0.5715 0.5462
loop_
_geom_bond_atom_site_label_1
_geom_bond_atom_site_label_2
_geom_bond_site_symmetry_1
_geom_bond_site_symmetry_2
O1 C1 1_555 1_555
C1 N1 1_555 1_555
N1 O1 1_555 1_555
C2 O1 1_555 1_555
C3 C2 1_555 1_555
N2 C3 1_555 1_555
C4 N2 1_555 1_555
C5 C4 1_555 1_555
N3 N2 1_555 1_555
C6 C7 1_555 1_555
C7 C8 1_555 1_555
C8 C9 1_555 1_555
C9 O2 1_555 1_555
O2 H16 1_555 1_555
C10 C9 1_555 1_555
C11 C6 1_555 1_555
C12 C13 1_555 1_555
C13 C14 1_555 1_555
C14 C15 1_555 1_555
C15 O3 1_555 1_555
O3 H21 1_555 1_555
C16 C15 1_555 1_555
C17 C12 1_555 1_555
C18 C19 1_555 1_555
C19 C20 1_555 1_555
C20 C21 1_555 1_555
C21 O4 1_555 1_555
O4 H26 1_555 1_555
C22 C21 1_555 1_555
C23 C18 1_555 1_555
C24 C6 1_555 1_555
C25 C24 1_555 1_555
C26 C27 1_555 1_555
C27 C28 1_555 1_555
C28 C29 1_555 1_555
C29 O5 1_555 1_555
O5 H34 1_555 1_555
C30 C29 1_555 1_555
C31 C26 1_555 1_555
C32 C33 1_555 1_555
C33 C34 1_555 1_555
C34 C35 1_555 1_555
C35 O6 1_555 1_555
O6 H39 1_555 1_555
C36 C35 1_555 1_555
C37 C32 1_555 1_555
C38 C39 1_555 1_555
C39 C40 1_555 1_555
C40 C41 1_555 1_555
C41 O7 1_555 1_555
O7 H44 1_555 1_555
C42 C41 1_555 1_555
C43 C38 1_555 1_555
C44 C26 1_555 1_555
C45 C44 1_555 1_555
H1 C1 1_555 1_555
H2 O1 1_555 1_555
H3 C1 1_555 1_555
H4 C2 1_555 1_555
H5 C3 1_555 1_555
H6 C3 1_555 1_555
H7 N2 1_555 1_555
H8 C4 1_555 1_555
H9 C4 1_555 1_555
H10 C4 1_555 1_555
H11 C5 1_555 1_555
H12 C3 1_555 1_555
H13 N2 1_555 1_555
H14 C7 1_555 1_555
H15 C8 1_555 1_555
H17 C10 1_555 1_555
H18 C11 1_555 1_555
H19 C13 1_555 1_555
H20 C14 1_555 1_555
H22 C16 1_555 1_555
H23 C17 1_555 1_555
H24 C19 1_555 1_555
H25 C20 1_555 1_555
H27 C22 1_555 1_555
H28 C23 1_555 1_555
H29 C25 1_555 1_555
H30 C25 1_555 1_555
H31 C25 1_555 1_555
H32 C27 1_555 1_555
H33 C28 1_555 1_555
H35 C30 1_555 1_555
H36 C31 1_555 1_555
H37 C33 1_555 1_555
H38 C34 1_555 1_555
H40 C36 1_555 1_555
H41 C37 1_555 1_555
H42 C39 1_555 1_555
H43 C40 1_555 1_555
H45 C42 1_555 1_555
H46 C43 1_555 1_555
H47 C45 1_555 1_555
H48 C45 1_555 1_555
H49 C45 1_555 1_555
C5A C4 1_555 1_555
C4A C5 1_555 1_555
N2A C4A 1_555 1_555
C3A N2A 1_555 1_555
C2A C3A 1_555 1_555
O1A C2A 1_555 1_555
C1A C2A 1_555 1_555
N1A C2A 1_555 1_555
H2A O1A 1_555 1_555
H1A C1A 1_555 1_555
H3A C2A 1_555 1_555
H4A C2A 1_555 1_555
H5A C3A 1_555 1_555
H6A C3A 1_555 1_555
H12A N2A 1_555 1_555
N3A C5A 1_555 1_555
H7A N2A 1_555 1_555
H13A N2A 1_555 1_555
H8A C5A 1_555 1_555
H9A C4A 1_555 1_555
H10A C5A 1_555 1_555
H11A C5A 1_555 1_555
C1 C2 1_555 1_555
N1 H2 1_555 1_555
N1 H1 1_555 1_555
N1 C2 1_555 1_555
C2 H3 1_555 1_555
N2 H12 1_555 1_555
C4 N3 1_555 1_555
C5 H8 1_555 1_555
C5 N3 1_555 1_555
C5 C5A 1_555 1_555
C5 H10 1_555 1_555
N3 H12 1_555 1_555
N3 H7 1_555 1_555
N3 H13 1_555 1_555
C10 C11 1_555 1_555
C12 C24 1_555 1_555
C16 C17 1_555 1_555
C18 C24 1_555 1_555
C22 C23 1_555 1_555
C30 C31 1_555 1_555
C32 C44 1_555 1_555
C36 C37 1_555 1_555
C38 C44 1_555 1_555
C42 C43 1_555 1_555
H7 H13 1_555 1_555
H8 H11 1_555 1_555
H9 H10 1_555 1_555
C5A C4A 1_555 1_555
C4A N3A 1_555 1_555
C4A H8A 1_555 1_555
C4A H10A 1_555 1_555
N2A N3A 1_555 1_555
C3A H12A 1_555 1_555
O1A C1A 1_555 1_555
O1A N1A 1_555 1_555
C1A N1A 1_555 1_555
C1A H3A 1_555 1_555
N1A H2A 1_555 1_555
N1A H1A 1_555 1_555
H12A N3A 1_555 1_555
N3A H7A 1_555 1_555
N3A H13A 1_555 1_555
H7A H13A 1_555 1_555
H8A H11A 1_555 1_555
H9A H10A 1_555 1_555

#END
