
#######################################################################
#
#                 Cambridge Crystallographic Data Centre
#                                CCDC 
#
#######################################################################
#
# If this CIF has been generated from an entry in the Cambridge 
# Structural Database, then it will include bibliographic, chemical, 
# crystal, experimental, refinement or atomic coordinate data resulting 
# from the CCDC's data processing and validation procedures.
#
#######################################################################

data_CUVKOT
_chemical_formula_moiety         'C4 H15 N3 2+,2(C7 H5 O4 1-)'
_chemical_name_systematic        
'bis(2-Aminoethyl)amine bis(3,5-dihydroxybenzoate)'
_symmetry_cell_setting           monoclinic
_symmetry_space_group_name_H-M   'P 21/c'
_symmetry_Int_Tables_number      14
_space_group_name_Hall           '-P 2ybc'
loop_
_symmetry_equiv_pos_site_id
_symmetry_equiv_pos_as_xyz
1 x,y,z
2 x,1/2-y,1/2+z
3 -x,-y,-z
4 -x,1/2+y,1/2-z
_cell_length_a                   8.2469(7)
_cell_length_b                   10.527(2)
_cell_length_c                   23.052(3)
_cell_angle_alpha                90
_cell_angle_beta                 98.144(9)
_cell_angle_gamma                90
_cell_volume                     1981.08
_exptl_crystal_colour            colorless
_exptl_crystal_description       plate
_cell_formula_units_Z            4
loop_
_atom_site_label
_atom_site_type_symbol
_atom_site_fract_x
_atom_site_fract_y
_atom_site_fract_z
O1 O -0.0306(3) 0.5856(2) 0.12453(10)
O2 O 0.0594(3) 0.4307(2) 0.07225(10)
O3 O -0.4668(3) 0.2424(2) -0.03663(10)
O4 O -0.6295(3) 0.4914(3) 0.11708(11)
C1 C -0.2280(4) 0.4454(3) 0.07282(15)
C2 C -0.2646(4) 0.3650(3) 0.02457(14)
C3 C -0.4230(4) 0.3241(3) 0.00992(14)
C4 C -0.5478(4) 0.3630(3) 0.04053(14)
C5 C -0.5117(4) 0.4448(3) 0.08674(14)
C6 C -0.3515(4) 0.4846(3) 0.10452(15)
C7 C -0.0542(4) 0.4907(4) 0.09100(14)
H1 H -0.3946 0.2420 -0.0577
H2 H -0.7195 0.4650 0.1023
H3 H -0.1834 0.3397 0.0028
H4 H -0.6543 0.3338 0.0298
H5 H -0.3269 0.5368 0.1371
O5 O 0.2617(3) 0.3125(2) 0.26003(9)
O6 O 0.4824(3) 0.1924(2) 0.28350(9)
O7 O 0.3522(3) -0.1750(2) 0.13473(9)
O8 O 0.0873(3) 0.1855(2) 0.04779(9)
C8 C 0.3086(4) 0.1428(3) 0.19602(14)
C9 C 0.3563(4) 0.0170(3) 0.19337(14)
C10 C 0.3136(4) -0.0494(3) 0.14158(15)
C11 C 0.2261(4) 0.0082(3) 0.09256(14)
C12 C 0.1767(4) 0.1324(3) 0.09611(14)
C13 C 0.2147(4) 0.1995(3) 0.14824(13)
C14 C 0.3524(5) 0.2221(3) 0.25015(15)
H6 H 0.4026 -0.2021 0.1654
H7 H 0.0692 0.2603 0.0544
H8 H 0.4159 -0.0222 0.2258
H9 H 0.2011 -0.0368 0.0577
H10 H 0.1773 0.2822 0.1511
N1 N -0.7850(3) -0.0774(3) -0.27863(11)
C15 C -0.8502(5) -0.1813(4) -0.24454(15)
C16 C -0.7809(5) -0.1697(4) -0.18110(16)
N2 N -0.8333(4) -0.0508(3) -0.15883(13)
C17 C -0.7592(5) -0.0222(4) -0.09821(16)
C18 C -0.8209(5) 0.1057(4) -0.08249(17)
N3 N -0.7617(3) 0.2066(3) -0.11871(11)
H11 H -0.7925 -0.0038 -0.2602
H12 H -0.8431 -0.0734 -0.3142
H13 H -0.6806 -0.0931 -0.2818
H14 H -0.8207 -0.2630 -0.2594
H15 H -0.9687 -0.1762 -0.2489
H16 H -0.8188 -0.2398 -0.1592
H17 H -0.6623 -0.1728 -0.1767
H18 H -0.9430 -0.0523 -0.1604
H20 H -0.6407 -0.0210 -0.0954
H21 H -0.7900 -0.0865 -0.0717
H22 H -0.9397 0.1053 -0.0884
H23 H -0.7838 0.1229 -0.0414
H24 H -0.6597 0.2278 -0.1039
H25 H -0.8262 0.2744 -0.1188
H26 H -0.7634 0.1786 -0.1552
H19? H -0.8084 0.0123 -0.1824
loop_
_geom_bond_atom_site_label_1
_geom_bond_atom_site_label_2
_geom_bond_site_symmetry_1
_geom_bond_site_symmetry_2
O1 C7 1_555 1_555
O2 C7 1_555 1_555
O3 C3 1_555 1_555
O4 C5 1_555 1_555
C1 C2 1_555 1_555
C2 C3 1_555 1_555
C3 C4 1_555 1_555
C4 C5 1_555 1_555
C5 C6 1_555 1_555
C6 C1 1_555 1_555
C7 C1 1_555 1_555
O5 C14 1_555 1_555
O6 C14 1_555 1_555
O7 C10 1_555 1_555
O8 C12 1_555 1_555
C8 C9 1_555 1_555
C9 C10 1_555 1_555
C10 C11 1_555 1_555
C11 C12 1_555 1_555
C12 C13 1_555 1_555
C13 C8 1_555 1_555
C14 C8 1_555 1_555
N1 C15 1_555 1_555
C15 C16 1_555 1_555
C16 N2 1_555 1_555
N2 C17 1_555 1_555
C17 C18 1_555 1_555
C18 N3 1_555 1_555
N3 H24 1_555 1_555
H1 O3 1_555 1_555
H2 O4 1_555 1_555
H3 C2 1_555 1_555
H4 C4 1_555 1_555
H5 C6 1_555 1_555
H6 O7 1_555 1_555
H7 O8 1_555 1_555
H8 C9 1_555 1_555
H9 C11 1_555 1_555
H10 C13 1_555 1_555
H11 N1 1_555 1_555
H12 N1 1_555 1_555
H13 N1 1_555 1_555
H14 C15 1_555 1_555
H15 C15 1_555 1_555
H16 C16 1_555 1_555
H17 C16 1_555 1_555
H18 N2 1_555 1_555
H20 C17 1_555 1_555
H21 C17 1_555 1_555
H22 C18 1_555 1_555
H23 C18 1_555 1_555
H25 N3 1_555 1_555
H26 N3 1_555 1_555

#END
