
#######################################################################
#
#                 Cambridge Crystallographic Data Centre
#                                CCDC 
#
#######################################################################
#
# If this CIF has been generated from an entry in the Cambridge 
# Structural Database, then it will include bibliographic, chemical, 
# crystal, experimental, refinement or atomic coordinate data resulting 
# from the CCDC's data processing and validation procedures.
#
#######################################################################

data_CUVNAJ
_chemical_formula_moiety         'C50 H70 Li2 O2 Si4'
_chemical_name_systematic        
'bis(\m~2~-(1,1-dimethyl-3,4-diphenyl-5-(trimethylsilyl)-1H-silol-2-yl))-bis(diethyl ether)-di-lithium'
_symmetry_cell_setting           monoclinic
_symmetry_space_group_name_H-M   'C 2'
_symmetry_Int_Tables_number      5
_space_group_name_Hall           'C 2y'
loop_
_symmetry_equiv_pos_site_id
_symmetry_equiv_pos_as_xyz
1 x,y,z
2 -x,y,-z
3 1/2+x,1/2+y,z
4 1/2-x,1/2+y,-z
_cell_length_a                   20.451(4)
_cell_length_b                   11.942(2)
_cell_length_c                   11.760(2)
_cell_angle_alpha                90
_cell_angle_beta                 114.90(3)
_cell_angle_gamma                90
_cell_volume                     2605.12
_exptl_crystal_description       block
_cell_formula_units_Z            2
loop_
_atom_site_label
_atom_site_type_symbol
_atom_site_fract_x
_atom_site_fract_y
_atom_site_fract_z
C1 C 0.25842(15) 0.3742(3) 0.2348(3)
C2 C 0.30706(16) 0.3557(3) 0.1851(3)
C3 C 0.38599(14) 0.3641(3) 0.2754(3)
C4 C 0.40492(14) 0.3875(3) 0.3993(3)
C5 C 0.2986(2) 0.2889(4) 0.5029(4)
H1 H 0.3037 0.2148 0.4718
H2 H 0.2495 0.2975 0.4966
H3 H 0.3333 0.2966 0.5906
C6 C 0.3020(2) 0.5379(4) 0.4658(4)
H4 H 0.3412 0.5522 0.5485
H5 H 0.2558 0.5376 0.4726
H6 H 0.3015 0.5969 0.4074
C7 C 0.1213(2) 0.4401(5) 0.2522(4)
H7 H 0.1370 0.4008 0.3326
H8 H 0.0685 0.4398 0.2098
H9 H 0.1386 0.5176 0.2671
C8 C 0.1213(2) 0.4404(4) -0.0034(4)
H10 H 0.1327 0.5205 0.0088
H11 H 0.0689 0.4305 -0.0441
H12 H 0.1428 0.4083 -0.0565
C9 C 0.1261(2) 0.2217(4) 0.1324(5)
H13 H 0.1323 0.1872 0.0620
H14 H 0.0749 0.2208 0.1155
H15 H 0.1537 0.1795 0.2092
C10 C 0.28722(16) 0.3307(3) 0.0499(3)
C11 C 0.26125(18) 0.2269(3) -0.0015(3)
H16 H 0.2564 0.1694 0.0503
C12 C 0.2423(2) 0.2056(4) -0.1271(3)
H17 H 0.2247 0.1337 -0.1608
C13 C 0.24867(19) 0.2878(4) -0.2029(3)
H18 H 0.2351 0.2733 -0.2893
C14 C 0.27453(17) 0.3906(4) -0.1542(3)
H19 H 0.2786 0.4478 -0.2070
C15 C 0.29498(16) 0.4122(3) -0.0277(3)
H20 H 0.3144 0.4832 0.0060
C16 C 0.44176(16) 0.3421(3) 0.2276(3)
C17 C 0.45163(19) 0.2361(3) 0.1894(3)
H21 H 0.4197 0.1776 0.1874
C18 C 0.5069(2) 0.2135(4) 0.1540(3)
H22 H 0.5131 0.1398 0.1298
C19 C 0.5523(2) 0.2966(5) 0.1539(4)
H23 H 0.5898 0.2812 0.1286
C20 C 0.5441(2) 0.4003(6) 0.1894(4)
H24 H 0.5758 0.4583 0.1893
C21 C 0.4886(2) 0.4238(4) 0.2271(4)
H25 H 0.4836 0.4976 0.2526
C22 C 0.5491(3) 0.7009(5) 0.6070(6)
H26 H 0.5713 0.7616 0.5779
H27 H 0.5882 0.6495 0.6593
C23 C 0.5169(4) 0.7495(6) 0.6846(6)
H28 H 0.4752 0.7951 0.6323
H29 H 0.5525 0.7968 0.7493
H30 H 0.5013 0.6896 0.7245
C24 C 0.5533(2) 0.0704(4) 0.4798(4)
H31 H 0.5724 0.1159 0.4302
H32 H 0.5307 0.0026 0.4304
C25 C 0.6145(2) 0.0358(4) 0.6002(4)
H33 H 0.6359 0.1023 0.6511
H34 H 0.6512 -0.0029 0.5817
H35 H 0.5966 -0.0146 0.6464
Li1 Li 0.5000 0.4809(8) 0.5000
Li2 Li 0.5000 0.2920(8) 0.5000
O1 O 0.5000 0.6407(3) 0.5000
O2 O 0.5000 0.1333(3) 0.5000
Si1 Si 0.31619(5) 0.39917(7) 0.40655(8)
Si2 Si 0.15864(5) 0.36810(9) 0.15192(9)
C1A C 0.74158(15) 0.3742(3) 0.7652(3)
C2A C 0.69294(16) 0.3557(3) 0.8149(3)
C3A C 0.61401(14) 0.3641(3) 0.7246(3)
C4A C 0.59508(14) 0.3875(3) 0.6007(3)
C5A C 0.7014(2) 0.2889(4) 0.4971(4)
H1A H 0.6963 0.2148 0.5282
H2A H 0.7505 0.2975 0.5034
H3A H 0.6667 0.2966 0.4094
C6A C 0.6980(2) 0.5379(4) 0.5342(4)
H4A H 0.6588 0.5522 0.4515
H5A H 0.7442 0.5376 0.5274
H6A H 0.6985 0.5969 0.5926
C7A C 0.8787(2) 0.4401(5) 0.7478(4)
H7A H 0.8630 0.4008 0.6674
H8A H 0.9315 0.4398 0.7902
H9A H 0.8614 0.5176 0.7329
C8A C 0.8787(2) 0.4404(4) 1.0034(4)
H10A H 0.8673 0.5205 0.9912
H11A H 0.9311 0.4305 1.0441
H12A H 0.8572 0.4083 1.0565
C9A C 0.8739(2) 0.2217(4) 0.8676(5)
H13A H 0.8677 0.1872 0.9380
H14A H 0.9251 0.2208 0.8845
H15A H 0.8463 0.1795 0.7908
C10A C 0.71278(16) 0.3307(3) 0.9501(3)
C11A C 0.73875(18) 0.2269(3) 1.0015(3)
H16A H 0.7436 0.1694 0.9497
C12A C 0.7577(2) 0.2056(4) 1.1271(3)
H17A H 0.7753 0.1337 1.1608
C13A C 0.75133(19) 0.2878(4) 1.2029(3)
H18A H 0.7649 0.2733 1.2893
C14A C 0.72547(17) 0.3906(4) 1.1542(3)
H19A H 0.7214 0.4478 1.2070
C15A C 0.70502(16) 0.4122(3) 1.0277(3)
H20A H 0.6856 0.4832 0.9940
C16A C 0.55824(16) 0.3421(3) 0.7724(3)
C17A C 0.54837(19) 0.2361(3) 0.8106(3)
H21A H 0.5803 0.1776 0.8126
C18A C 0.4931(2) 0.2135(4) 0.8460(3)
H22A H 0.4869 0.1398 0.8702
C19A C 0.4477(2) 0.2966(5) 0.8461(4)
H23A H 0.4102 0.2812 0.8714
C20A C 0.4559(2) 0.4003(6) 0.8106(4)
H24A H 0.4242 0.4583 0.8107
C21A C 0.5114(2) 0.4238(4) 0.7729(4)
H25A H 0.5164 0.4976 0.7474
C22A C 0.4509(3) 0.7009(5) 0.3930(6)
H26A H 0.4287 0.7616 0.4221
H27A H 0.4118 0.6495 0.3407
C23A C 0.4831(4) 0.7495(6) 0.3154(6)
H28A H 0.5248 0.7951 0.3677
H29A H 0.4475 0.7968 0.2507
H30A H 0.4987 0.6896 0.2755
C24A C 0.4467(2) 0.0704(4) 0.5202(4)
H31A H 0.4276 0.1159 0.5698
H32A H 0.4693 0.0026 0.5696
C25A C 0.3855(2) 0.0358(4) 0.3998(4)
H33A H 0.3641 0.1023 0.3489
H34A H 0.3488 -0.0029 0.4183
H35A H 0.4034 -0.0146 0.3536
Si1A Si 0.68381(5) 0.39917(7) 0.59345(8)
Si2A Si 0.84136(5) 0.36810(9) 0.84808(9)
loop_
_geom_bond_atom_site_label_1
_geom_bond_atom_site_label_2
_geom_bond_site_symmetry_1
_geom_bond_site_symmetry_2
C1 C2 1_555 1_555
C2 C3 1_555 1_555
C3 C4 1_555 1_555
C4 Li1 1_555 1_555
C5 H1 1_555 1_555
H2 C5 1_555 1_555
H3 C5 1_555 1_555
C6 H4 1_555 1_555
H5 C6 1_555 1_555
H6 C6 1_555 1_555
C7 H7 1_555 1_555
H8 C7 1_555 1_555
H9 C7 1_555 1_555
C8 H10 1_555 1_555
H11 C8 1_555 1_555
H12 C8 1_555 1_555
C9 H13 1_555 1_555
H14 C9 1_555 1_555
H15 C9 1_555 1_555
C10 C2 1_555 1_555
C11 C10 1_555 1_555
H16 C11 1_555 1_555
C12 C11 1_555 1_555
H17 C12 1_555 1_555
C13 C12 1_555 1_555
H18 C13 1_555 1_555
C14 C13 1_555 1_555
H19 C14 1_555 1_555
C15 C10 1_555 1_555
H20 C15 1_555 1_555
C16 C3 1_555 1_555
C17 C16 1_555 1_555
H21 C17 1_555 1_555
C18 C17 1_555 1_555
H22 C18 1_555 1_555
C19 C18 1_555 1_555
H23 C19 1_555 1_555
C20 C19 1_555 1_555
H24 C20 1_555 1_555
C21 C16 1_555 1_555
H25 C21 1_555 1_555
C22 H26 1_555 1_555
H27 C22 1_555 1_555
C23 C22 1_555 1_555
H28 C23 1_555 1_555
H29 C23 1_555 1_555
H30 C23 1_555 1_555
C24 H31 1_555 1_555
H32 C24 1_555 1_555
C25 C24 1_555 1_555
H33 C25 1_555 1_555
H34 C25 1_555 1_555
H35 C25 1_555 1_555
Li1 Li2 1_555 1_555
Li2 C4 1_555 1_555
O1 C22 1_555 1_555
O2 C24 1_555 1_555
Si1 C1 1_555 1_555
Si2 C1 1_555 1_555
C1A C2A 1_555 1_555
C2A C3A 1_555 1_555
C3A C4A 1_555 1_555
C4A Li1 1_555 1_555
C5A H1A 1_555 1_555
H2A C5A 1_555 1_555
H3A C5A 1_555 1_555
C6A H4A 1_555 1_555
H5A C6A 1_555 1_555
H6A C6A 1_555 1_555
C7A H7A 1_555 1_555
H8A C7A 1_555 1_555
H9A C7A 1_555 1_555
C8A H10A 1_555 1_555
H11A C8A 1_555 1_555
H12A C8A 1_555 1_555
C9A H13A 1_555 1_555
H14A C9A 1_555 1_555
H15A C9A 1_555 1_555
C10A C2A 1_555 1_555
C11A C10A 1_555 1_555
H16A C11A 1_555 1_555
C12A C11A 1_555 1_555
H17A C12A 1_555 1_555
C13A C12A 1_555 1_555
H18A C13A 1_555 1_555
C14A C13A 1_555 1_555
H19A C14A 1_555 1_555
C15A C10A 1_555 1_555
H20A C15A 1_555 1_555
C16A C3A 1_555 1_555
C17A C16A 1_555 1_555
H21A C17A 1_555 1_555
C18A C17A 1_555 1_555
H22A C18A 1_555 1_555
C19A C18A 1_555 1_555
H23A C19A 1_555 1_555
C20A C19A 1_555 1_555
H24A C20A 1_555 1_555
C21A C16A 1_555 1_555
H25A C21A 1_555 1_555
C22A O1 1_555 1_555
H26A C22A 1_555 1_555
H27A C22A 1_555 1_555
C23A C22A 1_555 1_555
H28A C23A 1_555 1_555
H29A C23A 1_555 1_555
H30A C23A 1_555 1_555
C24A O2 1_555 1_555
H31A C24A 1_555 1_555
H32A C24A 1_555 1_555
C25A C24A 1_555 1_555
H33A C25A 1_555 1_555
H34A C25A 1_555 1_555
H35A C25A 1_555 1_555
Si1A C1A 1_555 1_555
Si2A C1A 1_555 1_555
C4 Si1 1_555 1_555
C5 Si1 1_555 1_555
C6 Si1 1_555 1_555
C7 Si2 1_555 1_555
C8 Si2 1_555 1_555
C9 Si2 1_555 1_555
C14 C15 1_555 1_555
C20 C21 1_555 1_555
Li1 O1 1_555 1_555
Li2 O2 1_555 1_555
Li2 C4A 1_555 1_555
C4A Si1A 1_555 1_555
C5A Si1A 1_555 1_555
C6A Si1A 1_555 1_555
C7A Si2A 1_555 1_555
C8A Si2A 1_555 1_555
C9A Si2A 1_555 1_555
C14A C15A 1_555 1_555
C20A C21A 1_555 1_555

#END
