
#######################################################################
#
#                 Cambridge Crystallographic Data Centre
#                                CCDC 
#
#######################################################################
#
# If this CIF has been generated from an entry in the Cambridge 
# Structural Database, then it will include bibliographic, chemical, 
# crystal, experimental, refinement or atomic coordinate data resulting 
# from the CCDC's data processing and validation procedures.
#
#######################################################################

data_CUVNIQ
_chemical_formula_moiety         'C19 H27 N1 O4 S2'
_chemical_name_systematic        
3,6-Dihydro-4,5-dimethyl-2-(2-(methoxymethyl)-pyrrolidine-sulfonyl)-2-phenyl-2H-thiapyran-1-oxide
_symmetry_cell_setting           orthorhombic
_symmetry_space_group_name_H-M   'P 21 21 21'
_symmetry_Int_Tables_number      19
_space_group_name_Hall           'P 2ac 2ab'
loop_
_symmetry_equiv_pos_site_id
_symmetry_equiv_pos_as_xyz
1 x,y,z
2 1/2+x,1/2-y,-z
3 -x,1/2+y,1/2-z
4 1/2-x,-y,1/2+z
_cell_length_a                   8.9604(10)
_cell_length_b                   13.5928(15)
_cell_length_c                   16.5621(19)
_cell_angle_alpha                90
_cell_angle_beta                 90
_cell_angle_gamma                90
_cell_volume                     2017.21
_cell_formula_units_Z            4
loop_
_atom_site_label
_atom_site_type_symbol
_atom_site_fract_x
_atom_site_fract_y
_atom_site_fract_z
S1 S -0.43196(13) 0.19943(6) 0.23713(5)
S2 S -0.36867(10) 0.04280(6) 0.11637(5)
O1 O -0.5069(4) 0.2682(2) 0.17983(16)
O2 O -0.2413(3) 0.1061(2) 0.11784(17)
O3 O -0.3492(3) -0.0616(2) 0.11692(15)
O4 O -0.5811(4) -0.1387(2) -0.08869(19)
N1 N -0.4641(3) 0.0697(2) 0.03801(16)
C1 C -0.4718(4) 0.0693(2) 0.21073(18)
C2 C -0.3857(4) 0.0141(3) 0.27810(19)
C3 C -0.4329(4) 0.0378(3) 0.36363(19)
C4 C -0.5019(5) 0.1188(3) 0.38588(22)
C5 C -0.5457(6) 0.1986(3) 0.32678(23)
C6 C -0.5685(4) 0.0003(3) -0.00263(20)
C7 C -0.6694(5) 0.0704(3) -0.04899(23)
C8 C -0.5682(6) 0.1571(3) -0.07108(23)
C9 C -0.4705(5) 0.1700(3) 0.00336(22)
C10 C -0.6342(4) 0.0426(2) 0.20265(18)
C11 C -0.6890(4) -0.0461(3) 0.23415(20)
C12 C -0.8337(4) -0.0744(3) 0.22294(21)
C13 C -0.9321(4) -0.0138(3) 0.18149(24)
C14 C -0.8830(4) 0.0746(3) 0.15191(24)
C15 C -0.7344(4) 0.1027(3) 0.16180(22)
C16 C -0.3903(5) -0.0425(3) 0.42232(23)
C17 C -0.5457(7) 0.1441(4) 0.47174(25)
C18 C -0.4796(5) -0.0682(3) -0.05865(23)
C19 C -0.5139(7) -0.2006(4) -0.14706(29)
H1 H -0.2688(4) 0.0320(3) 0.2722(2)
H2 H -0.4012(4) -0.0639(3) 0.2687(2)
H3 H -0.6605(6) 0.1872(3) 0.3093(2)
H4 H -0.5350(6) 0.2690(3) 0.3564(2)
H5 H -0.6302(4) -0.0478(3) 0.0371(2)
H6 H -0.7126(5) 0.0355(3) -0.1027(3)
H7 H -0.7611(5) 0.0946(3) -0.0116(3)
H8 H -0.6332(6) 0.2226(3) -0.0825(3)
H9 H -0.5013(6) 0.1402(3) -0.1235(3)
H10 H -0.5204(5) 0.2211(3) 0.0454(2)
H11 H -0.3605(5) 0.1956(3) -0.0131(2)
H12 H -0.6122(4) -0.0931(3) 0.2677(2)
H13 H -0.8720(4) -0.1440(3) 0.2465(2)
H14 H -1.0466(5) -0.0361(3) 0.1726(3)
H15 H -0.9597(5) 0.1227(3) 0.1207(3)
H16 H -0.6968(4) 0.1721(3) 0.1374(2)
H17 H -0.3159(5) -0.0969(3) 0.3970(3)
H18 H -0.4965(5) -0.0763(3) 0.4359(3)
H19 H -0.3423(5) -0.0132(3) 0.4771(3)
H20 H -0.5163(7) 0.0854(4) 0.5126(3)
H21 H -0.6628(7) 0.1613(4) 0.4784(3)
H22 H -0.4799(7) 0.2085(4) 0.4855(3)
H23 H -0.3916(5) -0.1042(3) -0.0253(3)
H24 H -0.4318(5) -0.0267(3) -0.1079(3)
H25 H -0.5941(7) -0.2508(4) -0.1729(3)
H26 H -0.4203(7) -0.2417(4) -0.1236(3)
H27 H -0.4755(7) -0.1503(4) -0.1930(3)
loop_
_geom_bond_atom_site_label_1
_geom_bond_atom_site_label_2
_geom_bond_site_symmetry_1
_geom_bond_site_symmetry_2
S1 O1 1_555 1_555
S2 O2 1_555 1_555
O3 S2 1_555 1_555
O4 C18 1_555 1_555
N1 S2 1_555 1_555
C1 S1 1_555 1_555
C2 C1 1_555 1_555
C3 C2 1_555 1_555
C4 C3 1_555 1_555
C5 S1 1_555 1_555
C6 N1 1_555 1_555
C7 C6 1_555 1_555
C8 C7 1_555 1_555
C9 N1 1_555 1_555
C10 C1 1_555 1_555
C11 C10 1_555 1_555
C12 C11 1_555 1_555
C13 C12 1_555 1_555
C14 C13 1_555 1_555
C15 C10 1_555 1_555
C16 C3 1_555 1_555
C17 C4 1_555 1_555
C18 C6 1_555 1_555
C19 O4 1_555 1_555
H1 C2 1_555 1_555
H2 C2 1_555 1_555
H3 C5 1_555 1_555
H4 C5 1_555 1_555
H5 C6 1_555 1_555
H6 C7 1_555 1_555
H7 C7 1_555 1_555
H8 C8 1_555 1_555
H9 C8 1_555 1_555
H10 C9 1_555 1_555
H11 C9 1_555 1_555
H12 C11 1_555 1_555
H13 C12 1_555 1_555
H14 C13 1_555 1_555
H15 C14 1_555 1_555
H16 C15 1_555 1_555
H17 C16 1_555 1_555
H18 C16 1_555 1_555
H19 C16 1_555 1_555
H20 C17 1_555 1_555
H21 C17 1_555 1_555
H22 C17 1_555 1_555
H23 C18 1_555 1_555
H24 C18 1_555 1_555
H25 C19 1_555 1_555
H26 C19 1_555 1_555
H27 C19 1_555 1_555
S2 C1 1_555 1_555
C4 C5 1_555 1_555
C8 C9 1_555 1_555
C14 C15 1_555 1_555

#END
