
#######################################################################
#
#                 Cambridge Crystallographic Data Centre
#                                CCDC 
#
#######################################################################
#
# If this CIF has been generated from an entry in the Cambridge 
# Structural Database, then it will include bibliographic, chemical, 
# crystal, experimental, refinement or atomic coordinate data resulting 
# from the CCDC's data processing and validation procedures.
#
#######################################################################

data_CUVNAI
_chemical_formula_moiety         
'2(C6 H19 N4 1+),5(C12 H10 O2),C12 H8 O2 2-,2(C1 H4 O1)'
_chemical_name_systematic        
"bis(tris(2-Aminoethyl)amine) pentakis(4,4'-biphenol) 4,4'-biphenolate methanol solvate"
_symmetry_cell_setting           monoclinic
_symmetry_space_group_name_H-M   'P 21'
_symmetry_Int_Tables_number      4
_space_group_name_Hall           'P 2yb'
loop_
_symmetry_equiv_pos_site_id
_symmetry_equiv_pos_as_xyz
1 x,y,z
2 -x,1/2+y,-z
_cell_length_a                   10.0041(2)
_cell_length_b                   41.5502(7)
_cell_length_c                   10.27150(10)
_cell_angle_alpha                90
_cell_angle_beta                 112.7460(10)
_cell_angle_gamma                90
_cell_volume                     3937.52
_exptl_crystal_colour            colorless
_exptl_crystal_description       block
_cell_formula_units_Z            2
loop_
_atom_site_label
_atom_site_type_symbol
_atom_site_fract_x
_atom_site_fract_y
_atom_site_fract_z
N1 N 0.0279(4) 0.00022(8) 0.7058(3)
N2 N 0.1619(4) 0.04716(9) 0.5602(4)
N3 N 0.0407(5) 0.05512(9) 0.9008(4)
N4 N -0.2670(4) 0.01894(9) 0.5029(4)
C1 C 0.1308(5) -0.00833(11) 0.6410(5)
C2 C 0.2316(5) 0.01885(11) 0.6434(5)
C3 C 0.0987(5) -0.00054(12) 0.8603(5)
C4 C 0.0283(6) 0.02108(13) 0.9328(5)
C5 C -0.0974(5) -0.02128(11) 0.6577(5)
C6 C -0.2057(5) -0.01375(10) 0.5123(5)
H1 H 0.1019 0.0559 0.5955
H2 H 0.1122 0.0413 0.4710
H3 H 0.0303 0.0674 0.9673
H4 H 0.1274 0.0587 0.8982
H5 H -0.3309 0.0224 0.4154
H6 H -0.1960 0.0334 0.5243
H7 H -0.3109 0.0207 0.5632
H8 H 0.0770 -0.0148 0.5439
H9 H 0.1879 -0.0266 0.6908
H10 H 0.2832 0.0255 0.7406
H11 H 0.3028 0.0108 0.6089
H12 H 0.1992 0.0058 0.8879
H13 H 0.0975 -0.0225 0.8923
H14 H -0.0733 0.0154 0.9027
H15 H 0.0739 0.0178 1.0340
H16 H -0.1452 -0.0201 0.7236
H17 H -0.0637 -0.0432 0.6589
H18 H -0.1593 -0.0156 0.4455
H19 H -0.2837 -0.0294 0.4865
N5 N -0.6380(3) 0.85650(8) 0.8524(4)
N6 N -0.6586(4) 0.80779(10) 0.6273(4)
N7 N -0.7560(4) 0.80628(9) 1.0061(4)
N8 N -0.3388(4) 0.83617(9) 1.0421(4)
C7 C -0.7158(5) 0.86022(11) 0.6979(5)
C8 C -0.6492(5) 0.84236(13) 0.6120(5)
C9 C -0.7344(5) 0.86235(10) 0.9259(5)
C10 C -0.8309(5) 0.83349(11) 0.9217(5)
C11 C -0.5127(5) 0.87777(11) 0.9008(6)
C12 C -0.4001(5) 0.86933(11) 1.0400(5)
H20 H -0.6141 0.7978 0.5787
H21 H -0.7513 0.8019 0.5946
H22 H -0.7068 0.8127 1.0945
H23 H -0.6950 0.7981 0.9708
H24 H -0.2743 0.8318 1.1284
H25 H -0.2957 0.8353 0.9808
H26 H -0.4101 0.8218 1.0182
H27 H -0.7196 0.8829 0.6746
H28 H -0.8148 0.8528 0.6719
H29 H -0.6984 0.8482 0.5134
H30 H -0.5482 0.8485 0.6417
H31 H -0.7954 0.8807 0.8833
H32 H -0.6767 0.8677 1.0235
H33 H -0.9057 0.8404 0.9537
H34 H -0.8787 0.8265 0.8244
H35 H -0.5457 0.8995 0.9057
H36 H -0.4691 0.8777 0.8314
H37 H -0.4416 0.8705 1.1110
H38 H -0.3222 0.8850 1.0644
O1 O -0.0947(4) 0.07435(7) 0.6341(3)
O2 O 0.0129(4) 0.30467(7) 0.4607(3)
C13 C -0.0816(4) 0.10668(10) 0.6160(4)
C14 C -0.0199(6) 0.12773(11) 0.7251(5)
C15 C -0.0076(6) 0.15998(11) 0.7003(5)
C16 C -0.0552(4) 0.17265(9) 0.5639(4)
C17 C -0.1189(5) 0.15078(11) 0.4545(5)
C18 C -0.1311(5) 0.11845(11) 0.4808(5)
C19 C -0.0018(4) 0.27303(9) 0.4889(5)
C20 C -0.0390(5) 0.25130(11) 0.3813(5)
C21 C -0.0568(5) 0.21922(11) 0.4053(4)
C22 C -0.0380(4) 0.20722(9) 0.5387(4)
C23 C 0.0000(5) 0.23025(10) 0.6446(5)
C24 C 0.0171(5) 0.26233(10) 0.6225(5)
H39 H -0.0466 0.0695 0.7163
H40 H 0.0423 0.3149 0.5347
H41 H 0.0142 0.1202 0.8175
H42 H 0.0338 0.1737 0.7768
H43 H -0.1541 0.1581 0.3617
H44 H -0.1735 0.1045 0.4053
H45 H -0.0526 0.2582 0.2909
H46 H -0.0822 0.2050 0.3297
H47 H 0.0146 0.2236 0.7356
H48 H 0.0414 0.2768 0.6971
O3 O 0.1353(3) 0.34186(6) 0.6819(3)
O4 O -0.5161(3) 0.51324(6) 0.7652(3)
C25 C 0.0453(4) 0.36533(9) 0.6919(4)
C26 C -0.0368(5) 0.36124(11) 0.7702(6)
C27 C -0.1277(6) 0.38507(11) 0.7808(6)
C28 C -0.1400(4) 0.41478(8) 0.7175(4)
C29 C -0.0581(6) 0.41819(11) 0.6377(6)
C30 C 0.0322(6) 0.39458(11) 0.6255(6)
C31 C -0.4241(4) 0.49001(9) 0.7560(4)
C32 C -0.3412(5) 0.49447(11) 0.6797(6)
C33 C -0.2500(6) 0.47051(11) 0.6691(6)
C34 C -0.2360(4) 0.44092(9) 0.7339(4)
C35 C -0.3165(6) 0.43739(10) 0.8142(5)
C36 C -0.4097(6) 0.46058(12) 0.8246(6)
H49 H -0.0313 0.3419 0.8176
H50 H -0.1835 0.3809 0.8333
H51 H -0.0641 0.4374 0.5896
H52 H 0.0861 0.3985 0.5709
H53 H -0.3458 0.5140 0.6338
H54 H -0.1952 0.4746 0.6155
H55 H -0.3078 0.4183 0.8643
H56 H -0.4641 0.4565 0.8785
O5 O -0.3939(4) 0.54994(7) 0.9872(3)
O6 O -0.5259(3) 0.78530(7) 0.8895(3)
C37 C -0.4095(4) 0.58244(10) 0.9660(4)
C38 C -0.3817(6) 0.60179(12) 1.0831(5)
C39 C -0.3967(6) 0.63505(11) 1.0684(5)
C40 C -0.4391(4) 0.65018(9) 0.9380(4)
C41 C -0.4662(5) 0.62986(10) 0.8235(5)
C42 C -0.4530(5) 0.59675(10) 0.8353(5)
C43 C -0.5012(4) 0.75285(9) 0.8973(4)
C44 C -0.5390(6) 0.73324(11) 0.7787(5)
C45 C -0.5161(6) 0.70054(11) 0.7930(5)
C46 C -0.4569(4) 0.68566(9) 0.9243(4)
C47 C -0.4198(5) 0.70564(11) 1.0400(5)
C48 C -0.4403(5) 0.73852(11) 1.0269(5)
H57 H -0.4308 0.5406 0.9112
H58 H -0.5637 0.7907 0.8065
H59 H -0.3529 0.5925 1.1722
H60 H -0.3776 0.6476 1.1486
H61 H -0.4947 0.6390 0.7342
H62 H -0.4734 0.5842 0.7550
H63 H -0.5801 0.7423 0.6891
H64 H -0.5412 0.6880 0.7121
H65 H -0.3796 0.6967 1.1299
H66 H -0.4122 0.7512 1.1077
O7 O 0.0393(3) 0.76579(8) 1.0143(4)
O8 O 0.0372(3) 0.53720(8) 0.7526(4)
C49 C 0.0461(5) 0.73364(11) 0.9865(5)
C50 C 0.1725(5) 0.71882(12) 0.9936(5)
C51 C 0.1731(5) 0.68650(11) 0.9648(5)
C52 C 0.0498(4) 0.66731(11) 0.9270(4)
C53 C -0.0748(5) 0.68300(12) 0.9231(6)
C54 C -0.0774(5) 0.71537(12) 0.9518(6)
C55 C 0.0472(5) 0.56811(11) 0.8018(4)
C56 C -0.0804(5) 0.58481(12) 0.7743(5)
C57 C -0.0792(5) 0.61633(11) 0.8164(5)
C58 C 0.0502(4) 0.63284(11) 0.8896(4)
C59 C 0.1770(5) 0.61499(12) 0.9205(6)
C60 C 0.1761(5) 0.58348(12) 0.8777(5)
H67 H 0.1126 0.7748 1.0156
H68 H 0.1188 0.5301 0.7698
H69 H 0.2573 0.7307 1.0180
H70 H 0.2596 0.6771 0.9708
H71 H -0.1597 0.6711 0.9003
H72 H -0.1631 0.7249 0.9476
H73 H -0.1686 0.5746 0.7266
H74 H -0.1669 0.6269 0.7956
H75 H 0.2656 0.6247 0.9719
H76 H 0.2632 0.5725 0.9004
O9 O 0.2761(3) 0.50093(7) 0.8353(3)
O10 O 0.3438(3) 0.35431(7) 1.6140(3)
C61 C 0.2905(4) 0.48082(9) 0.9445(4)
C62 C 0.4136(4) 0.47882(11) 1.0646(5)
C63 C 0.4200(4) 0.45827(10) 1.1728(5)
C64 C 0.3038(4) 0.43918(9) 1.1661(4)
C65 C 0.1790(5) 0.44230(11) 1.0450(5)
C66 C 0.1720(5) 0.46232(13) 0.9367(5)
C67 C 0.3289(4) 0.37458(9) 1.5044(4)
C68 C 0.2100(5) 0.37429(11) 1.3781(5)
C69 C 0.2025(5) 0.39488(11) 1.2702(5)
C70 C 0.3117(4) 0.41688(9) 1.2830(4)
C71 C 0.4284(5) 0.41684(12) 1.4108(5)
C72 C 0.4372(5) 0.39590(13) 1.5186(5)
H77 H 0.3532 0.5019 0.8248
H78 H 0.2670 0.3533 1.6249
H79 H 0.4937 0.4914 1.0737
H80 H 0.5053 0.4572 1.2530
H81 H 0.0974 0.4304 1.0371
H82 H 0.0866 0.4635 0.8567
H83 H 0.1342 0.3601 1.3657
H84 H 0.1216 0.3940 1.1859
H85 H 0.5036 0.4313 1.4250
H86 H 0.5187 0.3964 1.6025
O11 O 0.5664(3) 0.31267(7) 1.6663(4)
O12 O 0.3808(4) 0.07904(8) 1.5392(4)
C73 C 0.5330(5) 0.28061(10) 1.6405(4)
C74 C 0.3930(5) 0.26881(11) 1.5947(5)
C75 C 0.3676(5) 0.23649(12) 1.5729(5)
C76 C 0.4781(4) 0.21414(10) 1.5962(4)
C77 C 0.6165(4) 0.22684(11) 1.6400(5)
C78 C 0.6456(5) 0.25915(11) 1.6611(5)
C79 C 0.3991(5) 0.11176(11) 1.5510(5)
C80 C 0.5331(6) 0.12433(12) 1.5704(7)
C81 C 0.5578(5) 0.15692(12) 1.5839(7)
C82 C 0.4502(4) 0.17880(10) 1.5789(4)
C83 C 0.3155(4) 0.16538(11) 1.5544(5)
C84 C 0.2905(4) 0.13292(12) 1.5422(5)
H87 H 0.4915 0.3231 1.6462
H88 H 0.3085 0.0740 1.5538
H89 H 0.3159 0.2829 1.5788
H90 H 0.2725 0.2292 1.5412
H91 H 0.6936 0.2128 1.6560
H92 H 0.7402 0.2666 1.6890
H93 H 0.6079 0.1105 1.5745
H94 H 0.6493 0.1647 1.5968
H95 H 0.2390 0.1790 1.5459
H96 H 0.1987 0.1251 1.5277
O13 O -0.1857(4) 0.80849(10) 0.8921(4)
C85 C -0.2518(6) 0.79664(15) 0.7534(6)
H97 H -0.1388 0.7941 0.9444
H98 H -0.2357 0.7739 0.7532
H99 H -0.2108 0.8072 0.6943
H100 H -0.3541 0.8008 0.7182
O14 O -0.4093(5) 0.03723(10) 0.6722(5)
C86 C -0.3511(8) 0.0525(2) 0.7991(8)
H101 H -0.4739 0.0484 0.6166
H102 H -0.2781 0.0391 0.8653
H103 H -0.4259 0.0568 0.8336
H104 H -0.3082 0.0725 0.7879
loop_
_geom_bond_atom_site_label_1
_geom_bond_atom_site_label_2
_geom_bond_site_symmetry_1
_geom_bond_site_symmetry_2
N1 C1 1_555 1_555
N2 C2 1_555 1_555
N3 C4 1_555 1_555
N4 C6 1_555 1_555
C1 C2 1_555 1_555
C2 H10 1_555 1_555
C3 N1 1_555 1_555
C4 C3 1_555 1_555
C5 N1 1_555 1_555
C6 C5 1_555 1_555
N5 C7 1_555 1_555
N6 C8 1_555 1_555
N7 C10 1_555 1_555
N8 C12 1_555 1_555
C7 C8 1_555 1_555
C8 H29 1_555 1_555
C9 N5 1_555 1_555
C10 C9 1_555 1_555
C11 N5 1_555 1_555
C12 C11 1_555 1_555
O1 C13 1_555 1_555
O2 C19 1_555 1_555
C13 C14 1_555 1_555
C14 C15 1_555 1_555
C15 C16 1_555 1_555
C16 C17 1_555 1_555
C17 C18 1_555 1_555
C18 C13 1_555 1_555
C19 C20 1_555 1_555
C20 C21 1_555 1_555
C21 C22 1_555 1_555
C22 C16 1_555 1_555
C23 C22 1_555 1_555
C24 C19 1_555 1_555
O3 C25 1_555 1_555
O4 C31 1_555 1_555
C25 C26 1_555 1_555
C26 C27 1_555 1_555
C27 C28 1_555 1_555
C28 C29 1_555 1_555
C29 C30 1_555 1_555
C30 C25 1_555 1_555
C31 C32 1_555 1_555
C32 C33 1_555 1_555
C33 C34 1_555 1_555
C34 C28 1_555 1_555
C35 C34 1_555 1_555
C36 C31 1_555 1_555
O5 C37 1_555 1_555
O6 C43 1_555 1_555
C37 C38 1_555 1_555
C38 C39 1_555 1_555
C39 C40 1_555 1_555
C40 C41 1_555 1_555
C41 C42 1_555 1_555
C42 C37 1_555 1_555
C43 C44 1_555 1_555
C44 C45 1_555 1_555
C45 C46 1_555 1_555
C46 C40 1_555 1_555
C47 C46 1_555 1_555
C48 C43 1_555 1_555
O7 C49 1_555 1_555
O8 C55 1_555 1_555
C49 C50 1_555 1_555
C50 C51 1_555 1_555
C51 C52 1_555 1_555
C52 C53 1_555 1_555
C53 C54 1_555 1_555
C54 C49 1_555 1_555
C55 C56 1_555 1_555
C56 C57 1_555 1_555
C57 C58 1_555 1_555
C58 C52 1_555 1_555
C59 C58 1_555 1_555
C60 C55 1_555 1_555
O9 C61 1_555 1_555
O10 C67 1_555 1_555
C61 C62 1_555 1_555
C62 C63 1_555 1_555
C63 C64 1_555 1_555
C64 C65 1_555 1_555
C65 C66 1_555 1_555
C66 C61 1_555 1_555
C67 C68 1_555 1_555
C68 C69 1_555 1_555
C69 C70 1_555 1_555
C70 C64 1_555 1_555
C71 C70 1_555 1_555
C72 C67 1_555 1_555
O11 C73 1_555 1_555
O12 C79 1_555 1_555
C73 C74 1_555 1_555
C74 C75 1_555 1_555
C75 C76 1_555 1_555
C76 C77 1_555 1_555
C77 C78 1_555 1_555
C78 C73 1_555 1_555
C79 C80 1_555 1_555
C80 C81 1_555 1_555
C81 C82 1_555 1_555
C82 C76 1_555 1_555
C83 C82 1_555 1_555
C84 C79 1_555 1_555
O13 C85 1_555 1_555
C85 H98 1_555 1_555
O14 C86 1_555 1_555
C86 H102 1_555 1_555
H1 N2 1_555 1_555
H2 N2 1_555 1_555
H3 N3 1_555 1_555
H4 N3 1_555 1_555
H5 N4 1_555 1_555
H6 N4 1_555 1_555
H7 N4 1_555 1_555
H8 C1 1_555 1_555
H9 C1 1_555 1_555
H11 C2 1_555 1_555
H12 C3 1_555 1_555
H13 C3 1_555 1_555
H14 C4 1_555 1_555
H15 C4 1_555 1_555
H16 C5 1_555 1_555
H17 C5 1_555 1_555
H18 C6 1_555 1_555
H19 C6 1_555 1_555
H20 N6 1_555 1_555
H21 N6 1_555 1_555
H22 N7 1_555 1_555
H23 N7 1_555 1_555
H24 N8 1_555 1_555
H25 N8 1_555 1_555
H26 N8 1_555 1_555
H27 C7 1_555 1_555
H28 C7 1_555 1_555
H30 C8 1_555 1_555
H31 C9 1_555 1_555
H32 C9 1_555 1_555
H33 C10 1_555 1_555
H34 C10 1_555 1_555
H35 C11 1_555 1_555
H36 C11 1_555 1_555
H37 C12 1_555 1_555
H38 C12 1_555 1_555
H39 O1 1_555 1_555
H40 O2 1_555 1_555
H41 C14 1_555 1_555
H42 C15 1_555 1_555
H43 C17 1_555 1_555
H44 C18 1_555 1_555
H45 C20 1_555 1_555
H46 C21 1_555 1_555
H47 C23 1_555 1_555
H48 C24 1_555 1_555
H49 C26 1_555 1_555
H50 C27 1_555 1_555
H51 C29 1_555 1_555
H52 C30 1_555 1_555
H53 C32 1_555 1_555
H54 C33 1_555 1_555
H55 C35 1_555 1_555
H56 C36 1_555 1_555
H57 O5 1_555 1_555
H58 O6 1_555 1_555
H59 C38 1_555 1_555
H60 C39 1_555 1_555
H61 C41 1_555 1_555
H62 C42 1_555 1_555
H63 C44 1_555 1_555
H64 C45 1_555 1_555
H65 C47 1_555 1_555
H66 C48 1_555 1_555
H67 O7 1_555 1_555
H68 O8 1_555 1_555
H69 C50 1_555 1_555
H70 C51 1_555 1_555
H71 C53 1_555 1_555
H72 C54 1_555 1_555
H73 C56 1_555 1_555
H74 C57 1_555 1_555
H75 C59 1_555 1_555
H76 C60 1_555 1_555
H77 O9 1_555 1_555
H78 O10 1_555 1_555
H79 C62 1_555 1_555
H80 C63 1_555 1_555
H81 C65 1_555 1_555
H82 C66 1_555 1_555
H83 C68 1_555 1_555
H84 C69 1_555 1_555
H85 C71 1_555 1_555
H86 C72 1_555 1_555
H87 O11 1_555 1_555
H88 O12 1_555 1_555
H89 C74 1_555 1_555
H90 C75 1_555 1_555
H91 C77 1_555 1_555
H92 C78 1_555 1_555
H93 C80 1_555 1_555
H94 C81 1_555 1_555
H95 C83 1_555 1_555
H96 C84 1_555 1_555
H97 O13 1_555 1_555
H99 C85 1_555 1_555
H100 C85 1_555 1_555
H101 O14 1_555 1_555
H103 C86 1_555 1_555
H104 C86 1_555 1_555
C23 C24 1_555 1_555
C35 C36 1_555 1_555
C47 C48 1_555 1_555
C59 C60 1_555 1_555
C71 C72 1_555 1_555
C83 C84 1_555 1_555

#END
