
#######################################################################
#
#                 Cambridge Crystallographic Data Centre
#                                CCDC 
#
#######################################################################
#
# If this CIF has been generated from an entry in the Cambridge 
# Structural Database, then it will include bibliographic, chemical, 
# crystal, experimental, refinement or atomic coordinate data resulting 
# from the CCDC's data processing and validation procedures.
#
#######################################################################

data_CUVQIV
_chemical_formula_moiety         'C27 H20 Cl1 F3 N2 O3'
_chemical_name_systematic        
'(R)-6-Chloro-4-(1-hydroxy-2-naphthyl)-1-(4-methoxybenzyl)-4-(trifluoromethyl)-3,4-dihydroquinazolin-2(1H)-one unknown solvate'
_symmetry_cell_setting           monoclinic
_symmetry_space_group_name_H-M   'C 2'
_symmetry_Int_Tables_number      5
_space_group_name_Hall           'C 2y'
loop_
_symmetry_equiv_pos_site_id
_symmetry_equiv_pos_as_xyz
1 x,y,z
2 -x,y,-z
3 1/2+x,1/2+y,z
4 1/2-x,1/2+y,-z
_cell_length_a                   19.9301(18)
_cell_length_b                   11.6169(10)
_cell_length_c                   12.0116(11)
_cell_angle_alpha                90
_cell_angle_beta                 106.035(2)
_cell_angle_gamma                90
_cell_volume                     2672.8
_exptl_crystal_colour            colorless
_exptl_crystal_description       block
_cell_formula_units_Z            4
loop_
_atom_site_label
_atom_site_type_symbol
_atom_site_fract_x
_atom_site_fract_y
_atom_site_fract_z
Cl1 Cl -0.28092(3) 0.77709(5) 0.70011(6)
F1 F -0.06425(8) 0.54255(14) 0.54714(13)
F2 F -0.17125(7) 0.48623(13) 0.50072(12)
F3 F -0.08780(8) 0.36222(13) 0.52483(12)
O1 O 0.08090(8) 0.44252(16) 0.85408(15)
O2 O -0.10909(9) 0.42282(15) 0.91552(15)
H1 H -0.1137 0.4100 0.9818
O3 O 0.16339(10) 0.96612(17) 0.58139(17)
N1 N 0.00836(10) 0.59858(17) 0.82603(17)
N2 N -0.03059(10) 0.41837(18) 0.75177(19)
H2 H -0.0205 0.3455 0.7446
C1 C 0.02221(12) 0.4841(2) 0.81291(19)
C2 C -0.06000(12) 0.6425(2) 0.79221(19)
C3 C -0.07404(13) 0.7562(2) 0.8176(2)
H3 H -0.0365 0.8057 0.8543
C4 C -0.14139(13) 0.7974(2) 0.7902(2)
H4 H -0.1503 0.8746 0.8081
C5 C -0.19577(13) 0.7255(2) 0.7366(2)
C6 C -0.18363(12) 0.6131(2) 0.70789(19)
H5 H -0.2215 0.5645 0.6705
C7 C -0.11575(11) 0.57264(19) 0.73427(19)
C8 C -0.10239(11) 0.45225(19) 0.69584(19)
C9 C -0.10674(12) 0.4599(2) 0.5662(2)
C10 C -0.15058(11) 0.36095(19) 0.72335(19)
C11 C -0.14957(11) 0.34842(19) 0.83854(19)
C12 C -0.18754(11) 0.25826(19) 0.8746(2)
C13 C -0.18654(13) 0.2416(2) 0.9916(2)
H6 H -0.1615 0.2936 1.0491
C14 C -0.22155(13) 0.1507(2) 1.0225(2)
H7 H -0.2211 0.1408 1.1012
C15 C -0.25836(13) 0.0717(2) 0.9379(3)
H8 H -0.2808 0.0072 0.9604
C16 C -0.26157(12) 0.0882(2) 0.8245(2)
H9 H -0.2877 0.0362 0.7679
C17 C -0.22656(11) 0.18173(19) 0.7895(2)
C18 C -0.22888(13) 0.1988(2) 0.6722(2)
H10 H -0.2566 0.1495 0.6145
C19 C -0.19173(11) 0.2850(2) 0.6411(2)
H11 H -0.1936 0.2943 0.5618
C20 C 0.06719(12) 0.6733(2) 0.8814(2)
H12 H 0.1076 0.6249 0.9209
H13 H 0.0545 0.7205 0.9412
C21 C 0.08847(11) 0.7524(2) 0.7972(2)
C22 C 0.13181(14) 0.8453(2) 0.8391(2)
H14 H 0.1445 0.8620 0.9196
C23 C 0.15659(16) 0.9134(2) 0.7662(3)
H15 H 0.1875 0.9751 0.7968
C24 C 0.13660(13) 0.8928(2) 0.6468(2)
C25 C 0.09409(13) 0.7996(2) 0.6041(2)
H16 H 0.0813 0.7829 0.5235
C26 C 0.07025(14) 0.7310(2) 0.6789(2)
H17 H 0.0407 0.6676 0.6488
C27 C 0.14914(17) 0.9392(3) 0.4608(3)
H18 H 0.1709 0.9972 0.4227
H19 H 0.0986 0.9389 0.4253
H20 H 0.1682 0.8631 0.4518
loop_
_geom_bond_atom_site_label_1
_geom_bond_atom_site_label_2
_geom_bond_site_symmetry_1
_geom_bond_site_symmetry_2
Cl1 C5 1_555 1_555
F1 C9 1_555 1_555
F2 C9 1_555 1_555
F3 C9 1_555 1_555
O1 C1 1_555 1_555
O2 H1 1_555 1_555
O3 C24 1_555 1_555
N1 C1 1_555 1_555
N2 H2 1_555 1_555
C1 N2 1_555 1_555
C2 N1 1_555 1_555
C3 C2 1_555 1_555
H3 C3 1_555 1_555
C4 C3 1_555 1_555
H4 C4 1_555 1_555
C5 C4 1_555 1_555
C6 C5 1_555 1_555
H5 C6 1_555 1_555
C7 C2 1_555 1_555
C8 N2 1_555 1_555
C9 C8 1_555 1_555
C10 C8 1_555 1_555
C11 O2 1_555 1_555
C12 C11 1_555 1_555
C13 C12 1_555 1_555
H6 C13 1_555 1_555
C14 C13 1_555 1_555
H7 C14 1_555 1_555
C15 C14 1_555 1_555
H8 C15 1_555 1_555
C16 C15 1_555 1_555
H9 C16 1_555 1_555
C17 C12 1_555 1_555
C18 C17 1_555 1_555
H10 C18 1_555 1_555
C19 C10 1_555 1_555
H11 C19 1_555 1_555
C20 N1 1_555 1_555
H12 C20 1_555 1_555
H13 C20 1_555 1_555
C21 C20 1_555 1_555
C22 C21 1_555 1_555
H14 C22 1_555 1_555
C23 C22 1_555 1_555
H15 C23 1_555 1_555
C24 C23 1_555 1_555
C25 C24 1_555 1_555
H16 C25 1_555 1_555
C26 C21 1_555 1_555
H17 C26 1_555 1_555
C27 O3 1_555 1_555
H18 C27 1_555 1_555
H19 C27 1_555 1_555
H20 C27 1_555 1_555
C6 C7 1_555 1_555
C7 C8 1_555 1_555
C10 C11 1_555 1_555
C16 C17 1_555 1_555
C18 C19 1_555 1_555
C25 C26 1_555 1_555

#END
