
#######################################################################
#
#                 Cambridge Crystallographic Data Centre
#                                CCDC 
#
#######################################################################
#
# If this CIF has been generated from an entry in the Cambridge 
# Structural Database, then it will include bibliographic, chemical, 
# crystal, experimental, refinement or atomic coordinate data resulting 
# from the CCDC's data processing and validation procedures.
#
#######################################################################

data_CUVROB
_chemical_formula_moiety         'C18 H18 O3 S1'
_chemical_name_systematic        
'Methyl ((3-oxo-1,3-diphenylpropyl)sulfanyl)acetate'
_symmetry_cell_setting           orthorhombic
_symmetry_space_group_name_H-M   'P 21 21 21'
_symmetry_Int_Tables_number      19
_space_group_name_Hall           'P 2ac 2ab'
loop_
_symmetry_equiv_pos_site_id
_symmetry_equiv_pos_as_xyz
1 x,y,z
2 1/2-x,-y,1/2+z
3 -x,1/2+y,1/2-z
4 1/2+x,1/2-y,-z
_cell_length_a                   9.2498(13)
_cell_length_b                   11.0346(16)
_cell_length_c                   15.825(2)
_cell_angle_alpha                90
_cell_angle_beta                 90
_cell_angle_gamma                90
_cell_volume                     1615.22
_exptl_crystal_colour            colorless
_exptl_crystal_description       block
_cell_formula_units_Z            4
loop_
_atom_site_label
_atom_site_type_symbol
_atom_site_fract_x
_atom_site_fract_y
_atom_site_fract_z
S1 S 0.39869(6) 0.18907(6) 0.31780(4)
O1 O 0.73384(17) 0.39391(14) 0.16771(10)
O2 O 0.46280(18) 0.44606(15) 0.42950(11)
O3 O 0.24357(16) 0.37046(14) 0.45938(10)
C1 C 0.6380(2) 0.34068(18) 0.03445(14)
C2 C 0.7310(2) 0.41970(19) -0.00809(15)
H1 H 0.7967 0.4687 0.0229
C3 C 0.7274(2) 0.4266(2) -0.09540(15)
H2 H 0.7910 0.4802 -0.1242
C4 C 0.6318(2) 0.3558(2) -0.14085(16)
H3 H 0.6293 0.3614 -0.2007
C5 C 0.5403(3) 0.2774(2) -0.09982(15)
H4 H 0.4745 0.2291 -0.1313
C6 C 0.5439(2) 0.2686(2) -0.01249(15)
H5 H 0.4818 0.2131 0.0156
C7 C 0.6440(2) 0.33556(18) 0.12896(15)
C8 C 0.5335(2) 0.2589(2) 0.17475(14)
H6 H 0.5356 0.1756 0.1515
H7 H 0.4359 0.2927 0.1646
C9 C 0.5617(2) 0.2538(2) 0.27009(14)
H8 H 0.5743 0.3384 0.2915
C10 C 0.6956(2) 0.1817(2) 0.29182(12)
C11 C 0.8128(2) 0.2357(2) 0.33127(14)
H9 H 0.8083 0.3191 0.3459
C12 C 0.9367(2) 0.1699(3) 0.34973(14)
H10 H 1.0160 0.2085 0.3768
C13 C 0.9451(3) 0.0489(2) 0.32899(15)
H11 H 1.0298 0.0037 0.3415
C14 C 0.8292(3) -0.0062(2) 0.28984(17)
H12 H 0.8346 -0.0896 0.2753
C15 C 0.7056(3) 0.0587(2) 0.27157(15)
H13 H 0.6265 0.0194 0.2449
C16 C 0.4269(2) 0.2311(2) 0.42704(14)
H14 H 0.3686 0.1782 0.4643
H15 H 0.5301 0.2207 0.4421
C17 C 0.3835(2) 0.3602(2) 0.43919(13)
C18 C 0.1906(3) 0.4931(2) 0.46846(18)
H16 H 0.0877 0.4913 0.4832
H17 H 0.2036 0.5368 0.4151
H18 H 0.2447 0.5343 0.5133
loop_
_geom_bond_atom_site_label_1
_geom_bond_atom_site_label_2
_geom_bond_site_symmetry_1
_geom_bond_site_symmetry_2
S1 C9 1_555 1_555
O1 C7 1_555 1_555
O2 C17 1_555 1_555
O3 C17 1_555 1_555
C1 C2 1_555 1_555
C2 H1 1_555 1_555
C3 C2 1_555 1_555
H2 C3 1_555 1_555
C4 C3 1_555 1_555
H3 C4 1_555 1_555
C5 C4 1_555 1_555
H4 C5 1_555 1_555
C6 C1 1_555 1_555
H5 C6 1_555 1_555
C7 C1 1_555 1_555
C8 C7 1_555 1_555
H6 C8 1_555 1_555
H7 C8 1_555 1_555
C9 C8 1_555 1_555
H8 C9 1_555 1_555
C10 C9 1_555 1_555
C11 C10 1_555 1_555
H9 C11 1_555 1_555
C12 C11 1_555 1_555
H10 C12 1_555 1_555
C13 C12 1_555 1_555
H11 C13 1_555 1_555
C14 C13 1_555 1_555
H12 C14 1_555 1_555
C15 C10 1_555 1_555
H13 C15 1_555 1_555
C16 S1 1_555 1_555
H14 C16 1_555 1_555
H15 C16 1_555 1_555
C17 C16 1_555 1_555
C18 O3 1_555 1_555
H16 C18 1_555 1_555
H17 C18 1_555 1_555
H18 C18 1_555 1_555
C5 C6 1_555 1_555
C14 C15 1_555 1_555

#END
