
#######################################################################
#
#                 Cambridge Crystallographic Data Centre
#                                CCDC 
#
#######################################################################
#
# If this CIF has been generated from an entry in the Cambridge 
# Structural Database, then it will include bibliographic, chemical, 
# crystal, experimental, refinement or atomic coordinate data resulting 
# from the CCDC's data processing and validation procedures.
#
#######################################################################

data_CUVXEY
_chemical_formula_moiety         'C15 H7 F1 O2'
_chemical_name_systematic        4-fluoro-2H-indeno[1,2,3-de]chromen-2-one
_symmetry_cell_setting           triclinic
_symmetry_space_group_name_H-M   'P -1'
_symmetry_Int_Tables_number      2
_space_group_name_Hall           '-P 1'
loop_
_symmetry_equiv_pos_site_id
_symmetry_equiv_pos_as_xyz
1 x,y,z
2 -x,-y,-z
_cell_length_a                   7.2431(2)
_cell_length_b                   9.1369(3)
_cell_length_c                   9.4709(3)
_cell_angle_alpha                67.2450(10)
_cell_angle_beta                 89.0960(10)
_cell_angle_gamma                67.7670(10)
_cell_volume                     528.726
_exptl_crystal_colour            yellow
_exptl_crystal_description       needle
_cell_formula_units_Z            2
loop_
_atom_site_label
_atom_site_type_symbol
_atom_site_fract_x
_atom_site_fract_y
_atom_site_fract_z
F1 F 0.15765(15) 0.85403(12) 0.95553(10)
O1 O 0.25247(14) 0.71302(11) 0.73515(11)
O2 O 0.33684(19) 0.49935(13) 0.66074(15)
C1 C 0.23068(17) 0.98783(16) 0.55795(15)
C2 C 0.21757(19) 0.88151(16) 0.70235(15)
C3 C 0.1694(2) 0.95336(19) 0.81009(16)
C4 C 0.1376(2) 1.1238(2) 0.76993(18)
H1 H 0.1044 1.1696 0.8436
C5 C 0.1539(2) 1.22955(18) 0.62211(17)
H2 H 0.1337 1.3439 0.5974
C6 C 0.20069(18) 1.16046(16) 0.51303(15)
C7 C 0.23379(19) 1.22131(17) 0.35014(16)
C8 C 0.2247(2) 1.38080(19) 0.24595(19)
H3 H 0.1925 1.4729 0.2749
C9 C 0.2645(3) 1.4003(2) 0.0977(2)
H4 H 0.2588 1.5069 0.0269
C10 C 0.3124(3) 1.2653(2) 0.05226(19)
H5 H 0.3382 1.2823 -0.0481
C11 C 0.3225(2) 1.1046(2) 0.15496(17)
H6 H 0.3547 1.0136 0.1246
C12 C 0.28352(19) 1.08296(17) 0.30344(15)
C13 C 0.28391(18) 0.93050(16) 0.43637(15)
C14 C 0.3229(2) 0.76386(18) 0.46851(17)
H7 H 0.3602 0.7217 0.3928
C15 C 0.3069(2) 0.64910(18) 0.62151(18)
loop_
_geom_bond_atom_site_label_1
_geom_bond_atom_site_label_2
_geom_bond_site_symmetry_1
_geom_bond_site_symmetry_2
F1 C3 1_555 1_555
O1 C2 1_555 1_555
O2 C15 1_555 1_555
C1 C2 1_555 1_555
C2 C3 1_555 1_555
C3 C4 1_555 1_555
C4 H1 1_555 1_555
C5 C4 1_555 1_555
H2 C5 1_555 1_555
C6 C1 1_555 1_555
C7 C6 1_555 1_555
C8 C7 1_555 1_555
H3 C8 1_555 1_555
C9 C8 1_555 1_555
H4 C9 1_555 1_555
C10 C9 1_555 1_555
H5 C10 1_555 1_555
C11 C10 1_555 1_555
H6 C11 1_555 1_555
C12 C7 1_555 1_555
C13 C1 1_555 1_555
C14 C13 1_555 1_555
H7 C14 1_555 1_555
C15 O1 1_555 1_555
C5 C6 1_555 1_555
C11 C12 1_555 1_555
C12 C13 1_555 1_555
C14 C15 1_555 1_555

#END
