
#######################################################################
#
#                 Cambridge Crystallographic Data Centre
#                                CCDC 
#
#######################################################################
#
# If this CIF has been generated from an entry in the Cambridge 
# Structural Database, then it will include bibliographic, chemical, 
# crystal, experimental, refinement or atomic coordinate data resulting 
# from the CCDC's data processing and validation procedures.
#
#######################################################################

data_CUVYAV
_chemical_formula_moiety         'C29 H18 Cl1 N1 O1'
_chemical_name_systematic        
2-(4-chlorophenyl)-5,6-diphenylpyrano[2,3,4-de]quinoline
_symmetry_cell_setting           triclinic
_symmetry_space_group_name_H-M   'P -1'
_symmetry_Int_Tables_number      2
_space_group_name_Hall           '-P 1'
loop_
_symmetry_equiv_pos_site_id
_symmetry_equiv_pos_as_xyz
1 x,y,z
2 -x,-y,-z
_cell_length_a                   9.6188(4)
_cell_length_b                   10.5071(4)
_cell_length_c                   11.1216(4)
_cell_angle_alpha                94.256(2)
_cell_angle_beta                 104.939(2)
_cell_angle_gamma                102.615(2)
_cell_volume                     1049.6
_exptl_crystal_colour            yellow
_exptl_crystal_description       needle
_cell_formula_units_Z            2
loop_
_atom_site_label
_atom_site_type_symbol
_atom_site_fract_x
_atom_site_fract_y
_atom_site_fract_z
Cl1 Cl 0.23945(6) 1.15252(4) 0.20626(5)
O1 O 0.45559(11) 0.51580(9) 0.68215(9)
N1 N 0.12269(14) 0.54517(12) 0.36866(11)
C1 C 0.22361(16) 0.41536(13) 0.52765(12)
C2 C 0.21197(16) 0.29663(14) 0.58162(13)
C3 C 0.33105(16) 0.29499(14) 0.69484(13)
C4 C 0.35375(17) 0.63904(14) 0.52936(14)
H1 H 0.4339 0.7112 0.5636
C5 C 0.23775(17) 0.64543(14) 0.42401(13)
C6 C 0.44482(17) 0.40263(13) 0.74111(13)
C7 C 0.34487(16) 0.52352(14) 0.57974(13)
C8 C 0.11430(16) 0.42989(14) 0.41923(13)
C9 C 0.31958(16) 0.17338(13) 0.75683(13)
C10 C 0.24061(16) 0.77115(14) 0.36964(13)
C11 C -0.00553(17) 0.31966(15) 0.36429(14)
H2 H -0.0784 0.3249 0.2926
C12 C 0.09185(17) 0.19240(14) 0.52485(14)
H3 H 0.0814 0.1136 0.5585
C13 C 0.57211(17) 0.42729(13) 0.85596(13)
C14 C 0.20618(18) 0.13600(15) 0.81299(14)
H4 H 0.1367 0.1859 0.8097
C15 C 0.4092(2) -0.01467(15) 0.82214(15)
H5 H 0.4774 -0.0657 0.8247
C16 C 0.17882(17) 0.77033(15) 0.24137(14)
H6 H 0.1373 0.6903 0.1892
C17 C 0.17829(18) 0.88622(15) 0.19052(15)
H7 H 0.1380 0.8844 0.1047
C18 C 0.42017(17) 0.09571(14) 0.76058(14)
H8 H 0.4952 0.1178 0.7216
C19 C 0.29960(19) 1.00918(15) 0.39625(16)
H9 H 0.3395 1.0895 0.4482
C20 C 0.23840(18) 1.00530(15) 0.26871(16)
C21 C -0.01490(18) 0.20516(15) 0.41611(14)
H10 H -0.0944 0.1334 0.3783
C22 C 0.30079(18) 0.89258(15) 0.44556(14)
H11 H 0.3426 0.8951 0.5313
C23 C 0.70389(17) 0.51743(14) 0.86010(15)
H12 H 0.7130 0.5570 0.7895
C24 C 0.2982(2) -0.04905(16) 0.87936(15)
H13 H 0.2923 -0.1222 0.9218
C25 C 0.6805(2) 0.40171(16) 1.07159(15)
H14 H 0.6727 0.3622 1.1425
C26 C 0.56150(19) 0.36980(15) 0.96381(14)
H15 H 0.4743 0.3100 0.9633
C27 C 0.1956(2) 0.02582(16) 0.87344(15)
H16 H 0.1190 0.0018 0.9104
C28 C 0.8103(2) 0.49122(17) 1.07500(17)
H17 H 0.8893 0.5128 1.1478
C29 C 0.82151(19) 0.54842(17) 0.96895(17)
H18 H 0.9090 0.6085 0.9705
loop_
_geom_bond_atom_site_label_1
_geom_bond_atom_site_label_2
_geom_bond_site_symmetry_1
_geom_bond_site_symmetry_2
Cl1 C20 1_555 1_555
O1 C6 1_555 1_555
N1 C5 1_555 1_555
C1 C2 1_555 1_555
C2 C3 1_555 1_555
C3 C6 1_555 1_555
C4 H1 1_555 1_555
C5 C4 1_555 1_555
C6 C13 1_555 1_555
C7 O1 1_555 1_555
C8 N1 1_555 1_555
C9 C3 1_555 1_555
C10 C5 1_555 1_555
C11 C8 1_555 1_555
H2 C11 1_555 1_555
C12 C2 1_555 1_555
H3 C12 1_555 1_555
C13 C23 1_555 1_555
C14 C9 1_555 1_555
H4 C14 1_555 1_555
C15 H5 1_555 1_555
C16 C10 1_555 1_555
H6 C16 1_555 1_555
C17 C16 1_555 1_555
H7 C17 1_555 1_555
C18 C9 1_555 1_555
H8 C18 1_555 1_555
C19 H9 1_555 1_555
C20 C17 1_555 1_555
C21 C11 1_555 1_555
H10 C21 1_555 1_555
C22 C10 1_555 1_555
H11 C22 1_555 1_555
C23 H12 1_555 1_555
C24 C15 1_555 1_555
H13 C24 1_555 1_555
C25 H14 1_555 1_555
C26 C13 1_555 1_555
H15 C26 1_555 1_555
C27 C14 1_555 1_555
H16 C27 1_555 1_555
C28 C25 1_555 1_555
H17 C28 1_555 1_555
C29 C23 1_555 1_555
H18 C29 1_555 1_555
C1 C7 1_555 1_555
C1 C8 1_555 1_555
C4 C7 1_555 1_555
C12 C21 1_555 1_555
C15 C18 1_555 1_555
C19 C20 1_555 1_555
C19 C22 1_555 1_555
C24 C27 1_555 1_555
C25 C26 1_555 1_555
C28 C29 1_555 1_555

#END
