
#######################################################################
#
#                 Cambridge Crystallographic Data Centre
#                                CCDC 
#
#######################################################################
#
# If this CIF has been generated from an entry in the Cambridge 
# Structural Database, then it will include bibliographic, chemical, 
# crystal, experimental, refinement or atomic coordinate data resulting 
# from the CCDC's data processing and validation procedures.
#
#######################################################################

data_CUVZOK
_chemical_formula_moiety         'C8 H10 Cl1 N5'
_chemical_name_systematic        
'6-chloro-9-propyl-9H-purin-2-amine unknown solvate'
_symmetry_cell_setting           triclinic
_symmetry_space_group_name_H-M   'P -1'
_symmetry_Int_Tables_number      2
_space_group_name_Hall           '-P 1'
loop_
_symmetry_equiv_pos_site_id
_symmetry_equiv_pos_as_xyz
1 x,y,z
2 -x,-y,-z
_cell_length_a                   14.916(7)
_cell_length_b                   14.964(7)
_cell_length_c                   15.309(7)
_cell_angle_alpha                64.365(8)
_cell_angle_beta                 89.997(8)
_cell_angle_gamma                62.904(9)
_cell_volume                     2658.65
_exptl_crystal_colour            colorless
_exptl_crystal_description       block
_cell_formula_units_Z            8
_chemical_properties_physical    
'Guests escape when exposed to air or dried, and crystals transform to other unknown phase'
_exptl_crystal_recrystallization_method 'Re-crystallisation from solvent:'
loop_
_atom_site_label
_atom_site_type_symbol
_atom_site_fract_x
_atom_site_fract_y
_atom_site_fract_z
C1 C 0.2840(4) 0.6308(5) 0.4368(3)
C2 C 0.2203(4) 0.6315(5) 0.3005(3)
C3 C 0.3637(3) 0.6410(4) 0.3066(3)
C4 C 0.3635(3) 0.6386(5) 0.3977(3)
C5 C 0.4963(4) 0.6469(5) 0.3565(4)
H1 H 0.5587 0.6496 0.3572
C6 C 0.4808(4) 0.6568(6) 0.1870(4)
H2 H 0.4685 0.6068 0.1688
H3 H 0.5562 0.6290 0.1985
C7 C 0.4245(5) 0.7753(6) 0.1030(5)
H4 H 0.3490 0.8053 0.0959
H5 H 0.4404 0.7737 0.0407
C8 C 0.4509(5) 0.8575(6) 0.1145(6)
H6 H 0.4102 0.9343 0.0564
H7 H 0.5251 0.8302 0.1192
H8 H 0.4343 0.8609 0.1754
Cl1 Cl 0.26937(10) 0.62698(15) 0.54960(9)
N1 N 0.2111(3) 0.6282(4) 0.3903(3)
N2 N 0.2951(3) 0.6379(4) 0.2531(3)
N3 N 0.1458(3) 0.6272(4) 0.2555(3)
H9 H 0.1473 0.6285 0.1975
H10 H 0.0957 0.6230 0.2842
N4 N 0.4489(3) 0.6427(4) 0.4285(3)
N5 N 0.4492(3) 0.6470(4) 0.2800(3)
C9 C 0.7792(3) 0.6376(5) 0.3703(3)
C10 C 0.7117(3) 0.6467(5) 0.5027(3)
C11 C 0.8599(3) 0.6464(4) 0.4924(3)
C12 C 0.8621(3) 0.6404(5) 0.4042(3)
C13 C 0.9972(4) 0.6426(5) 0.4417(4)
H11 H 1.0602 0.6440 0.4392
C14 C 0.9810(4) 0.6540(5) 0.6008(3)
H12 H 1.0566 0.6251 0.6122
H13 H 0.9689 0.6028 0.6608
C15 C 0.9264(4) 0.7721(6) 0.5884(4)
H14 H 0.9437 0.7681 0.6529
H15 H 0.8504 0.8047 0.5696
C16 C 0.9561(5) 0.8505(6) 0.5096(5)
H16 H 0.9181 0.9272 0.5032
H17 H 0.9385 0.8553 0.4454
H18 H 1.0310 0.8198 0.5289
Cl2 Cl 0.76666(10) 0.63034(15) 0.26226(10)
N6 N 0.7035(3) 0.6426(4) 0.4167(3)
N7 N 0.7872(3) 0.6516(4) 0.5435(3)
N8 N 0.6343(3) 0.6507(4) 0.5478(3)
H19 H 0.6342 0.6563 0.6026
H20 H 0.5834 0.6476 0.5226
N9 N 0.9511(3) 0.6347(4) 0.3744(3)
N10 N 0.9473(3) 0.6488(4) 0.5156(3)
C17 C 0.6559(4) 0.6483(5) -0.0704(3)
C18 C 0.7218(3) 0.6441(5) -0.2044(3)
C19 C 0.5752(3) 0.6409(4) -0.1944(3)
C20 C 0.5741(3) 0.6424(5) -0.1043(3)
C21 C 0.4405(4) 0.6371(5) -0.1399(4)
H21 H 0.3786 0.6333 -0.1365
C22 C 0.4494(4) 0.6448(5) -0.3089(4)
H22 H 0.3997 0.6166 -0.2971
H23 H 0.5084 0.5938 -0.3257
C23 C 0.3975(4) 0.7630(6) -0.3945(4)
H24 H 0.3848 0.7597 -0.4563
H25 H 0.4453 0.7934 -0.4016
C24 C 0.2955(5) 0.8459(6) -0.3861(5)
H26 H 0.2667 0.9219 -0.4452
H27 H 0.3072 0.8513 -0.3260
H28 H 0.2465 0.8182 -0.3816
Cl3 Cl 0.66864(11) 0.65123(16) 0.03935(10)
N11 N 0.7302(3) 0.6471(4) -0.1178(3)
N12 N 0.6451(3) 0.6423(4) -0.2484(3)
N13 N 0.7982(3) 0.6424(4) -0.2503(3)
H29 H 0.7968 0.6402 -0.3068
H30 H 0.8500 0.6435 -0.2241
N14 N 0.4881(3) 0.6411(4) -0.0713(3)
N15 N 0.4877(3) 0.6387(4) -0.2175(3)
C25 C 0.1587(4) 0.6390(5) 0.8684(3)
C26 C 0.2239(3) 0.6393(5) 1.0040(3)
C27 C 0.0772(3) 0.6370(4) 0.9963(3)
C28 C 0.0772(3) 0.6365(5) 0.9061(3)
C29 C -0.0579(4) 0.6351(5) 0.9453(4)
H31 H -0.1211 0.6342 0.9441
C30 C -0.0476(4) 0.6406(5) 1.1078(4)
H32 H 0.0118 0.5874 1.1674
H33 H -0.0979 0.6133 1.1191
C31 C -0.0975(4) 0.7555(6) 1.0989(4)
H34 H -0.0489 0.7850 1.0832
H35 H -0.1106 0.7487 1.1642
C32 C -0.2007(5) 0.8432(6) 1.0184(5)
H36 H -0.2289 0.9175 1.0165
H37 H -0.2503 0.8161 1.0344
H38 H -0.1884 0.8518 0.9531
Cl4 Cl 0.17326(11) 0.64052(17) 0.75654(10)
N16 N 0.2327(3) 0.6403(4) 0.9162(3)
N17 N 0.1472(3) 0.6388(4) 1.0485(2)
N18 N 0.2998(3) 0.6411(4) 1.0493(3)
H39 H 0.2977 0.6418 1.1064
H40 H 0.3515 0.6415 1.0218
N19 N -0.0097(3) 0.6366(4) 0.8742(3)
N20 N -0.0104(3) 0.6351(4) 1.0218(3)
loop_
_geom_bond_atom_site_label_1
_geom_bond_atom_site_label_2
_geom_bond_site_symmetry_1
_geom_bond_site_symmetry_2
C1 C4 1_555 1_555
C2 N1 1_555 1_555
C3 C4 1_555 1_555
C4 N4 1_555 1_555
C5 H1 1_555 1_555
C6 H2 1_555 1_555
H3 C6 1_555 1_555
C7 C6 1_555 1_555
H4 C7 1_555 1_555
H5 C7 1_555 1_555
C8 C7 1_555 1_555
H6 C8 1_555 1_555
H7 C8 1_555 1_555
H8 C8 1_555 1_555
Cl1 C1 1_555 1_555
N1 C1 1_555 1_555
N2 C2 1_555 1_555
N3 C2 1_555 1_555
H9 N3 1_555 1_555
H10 N3 1_555 1_555
N4 C5 1_555 1_555
N5 C3 1_555 1_555
C9 C12 1_555 1_555
C10 N6 1_555 1_555
C11 C12 1_555 1_555
C12 N9 1_555 1_555
C13 H11 1_555 1_555
C14 H12 1_555 1_555
H13 C14 1_555 1_555
C15 C14 1_555 1_555
H14 C15 1_555 1_555
H15 C15 1_555 1_555
C16 C15 1_555 1_555
H16 C16 1_555 1_555
H17 C16 1_555 1_555
H18 C16 1_555 1_555
Cl2 C9 1_555 1_555
N6 C9 1_555 1_555
N7 C10 1_555 1_555
N8 C10 1_555 1_555
H19 N8 1_555 1_555
H20 N8 1_555 1_555
N9 C13 1_555 1_555
N10 C11 1_555 1_555
C17 C20 1_555 1_555
C18 N11 1_555 1_555
C19 C20 1_555 1_555
C20 N14 1_555 1_555
C21 H21 1_555 1_555
C22 H22 1_555 1_555
H23 C22 1_555 1_555
C23 C22 1_555 1_555
H24 C23 1_555 1_555
H25 C23 1_555 1_555
C24 C23 1_555 1_555
H26 C24 1_555 1_555
H27 C24 1_555 1_555
H28 C24 1_555 1_555
Cl3 C17 1_555 1_555
N11 C17 1_555 1_555
N12 C18 1_555 1_555
N13 C18 1_555 1_555
H29 N13 1_555 1_555
H30 N13 1_555 1_555
N14 C21 1_555 1_555
N15 C19 1_555 1_555
C25 C28 1_555 1_555
C26 N16 1_555 1_555
C27 C28 1_555 1_555
C28 N19 1_555 1_555
C29 H31 1_555 1_555
C30 H32 1_555 1_555
H33 C30 1_555 1_555
C31 C30 1_555 1_555
H34 C31 1_555 1_555
H35 C31 1_555 1_555
C32 C31 1_555 1_555
H36 C32 1_555 1_555
H37 C32 1_555 1_555
H38 C32 1_555 1_555
Cl4 C25 1_555 1_555
N16 C25 1_555 1_555
N17 C26 1_555 1_555
N18 C26 1_555 1_555
H39 N18 1_555 1_555
H40 N18 1_555 1_555
N19 C29 1_555 1_555
N20 C27 1_555 1_555
C3 N2 1_555 1_555
C5 N5 1_555 1_555
C6 N5 1_555 1_555
C11 N7 1_555 1_555
C13 N10 1_555 1_555
C14 N10 1_555 1_555
C19 N12 1_555 1_555
C21 N15 1_555 1_555
C22 N15 1_555 1_555
C27 N17 1_555 1_555
C29 N20 1_555 1_555
C30 N20 1_555 1_555

#END
