
#######################################################################
#
#                 Cambridge Crystallographic Data Centre
#                                CCDC 
#
#######################################################################
#
# If this CIF has been generated from an entry in the Cambridge 
# Structural Database, then it will include bibliographic, chemical, 
# crystal, experimental, refinement or atomic coordinate data resulting 
# from the CCDC's data processing and validation procedures.
#
#######################################################################

data_CUWDAA
_chemical_formula_moiety         'C28 H21 Br1 O3'
_chemical_name_systematic        
'Methyl 2-((2S*,3S*)-5-(4-bromophenyl)-3-phenyl-4-(phenylethynyl)-2,3-dihydrofuran-2-yl)acrylate'
_symmetry_cell_setting           triclinic
_symmetry_space_group_name_H-M   'P -1'
_symmetry_Int_Tables_number      2
_space_group_name_Hall           '-P 1'
loop_
_symmetry_equiv_pos_site_id
_symmetry_equiv_pos_as_xyz
1 x,y,z
2 -x,-y,-z
_cell_length_a                   4.7839(3)
_cell_length_b                   15.0490(8)
_cell_length_c                   15.9719(9)
_cell_angle_alpha                99.461(2)
_cell_angle_beta                 93.128(2)
_cell_angle_gamma                93.729(2)
_cell_volume                     1129.33
_exptl_crystal_colour            colorless
_exptl_crystal_description       block
_chemical_melting_point          '112-114 deg.C'
_cell_formula_units_Z            2
loop_
_atom_site_label
_atom_site_type_symbol
_atom_site_fract_x
_atom_site_fract_y
_atom_site_fract_z
Br1 Br 1.38781(6) 0.890722(16) -0.087042(16)
O1 O 1.0684(3) 0.61088(9) 0.19389(9)
O2 O 0.3180(3) 0.38209(10) 0.16820(10)
O3 O 0.5278(4) 0.43134(12) 0.29713(11)
C1 C 0.7968(5) 0.60269(16) 0.45267(15)
H1 H 0.6413 0.5592 0.4384
C2 C 0.9315(6) 0.61487(17) 0.53296(15)
H2 H 0.8677 0.5799 0.5735
C3 C 1.1574(6) 0.67736(17) 0.55449(14)
H3 H 1.2516 0.6850 0.6094
C4 C 1.2461(5) 0.72882(18) 0.49580(16)
H4 H 1.4000 0.7729 0.5105
C5 C 1.1108(5) 0.71637(15) 0.41509(14)
H5 H 1.1737 0.7518 0.3748
C6 C 0.8858(4) 0.65314(13) 0.39282(12)
C7 C 0.2261(9) 0.9651(3) 0.3800(3)
H6 H 0.1575 0.9165 0.4062
C8 C 0.1193(9) 1.0492(4) 0.3992(3)
H7 H -0.0224 1.0581 0.4385
C9 C 0.2197(10) 1.1203(3) 0.3608(3)
H8 H 0.1467 1.1778 0.3739
C10 C 0.4270(11) 1.1073(2) 0.3032(3)
H9 H 0.4956 1.1558 0.2770
C11 C 0.5338(10) 1.0231(3) 0.2841(3)
H10 H 0.6755 1.0142 0.2447
C12 C 0.4334(8) 0.9520(2) 0.3224(3)
C13 C 0.8868(4) 0.56190(13) 0.24267(12)
H11 H 1.0022 0.5262 0.2772
C14 C 0.7464(4) 0.63512(12) 0.30320(12)
H12 H 0.5422 0.6170 0.3049
C15 C 0.7831(4) 0.71414(12) 0.25535(12)
C16 C 0.9668(4) 0.69515(12) 0.19494(12)
C17 C 1.0744(4) 0.74425(13) 0.13053(12)
C18 C 0.9926(5) 0.82962(15) 0.12216(16)
H13 H 0.8691 0.8582 0.1609
C19 C 1.0873(5) 0.87351(16) 0.05873(17)
H14 H 1.0299 0.9318 0.0538
C20 C 1.2658(5) 0.83202(14) 0.00259(14)
C21 C 1.3556(5) 0.74898(16) 0.01034(15)
H15 H 1.4832 0.7216 -0.0277
C22 C 1.2589(5) 0.70544(15) 0.07393(14)
H16 H 1.3202 0.6477 0.0790
C23 C 0.5437(4) 0.86447(13) 0.30060(13)
C24 C 0.6530(4) 0.79565(13) 0.27815(12)
C25 C 0.6650(6) 0.49579(16) 0.09898(15)
C26 C 0.6823(4) 0.49835(12) 0.18180(13)
C27 C 0.5044(4) 0.43526(13) 0.22270(13)
C28 C 0.1502(6) 0.31642(17) 0.20410(18)
H17 H 0.0209 0.2809 0.1595
H18 H 0.0426 0.3476 0.2490
H19 H 0.2733 0.2762 0.2282
H20 H 0.532(5) 0.4561(17) 0.0626(17)
H21 H 0.786(6) 0.537(2) 0.0751(19)
C29? C 0.2482(12) 1.0824(3) 0.2850(3)
C30? C 0.3631(9) 1.0000(3) 0.2626(2)
C31? C 0.4128(9) 0.9458(2) 0.3237(3)
C32? C 0.3476(10) 0.9741(3) 0.4071(3)
C33? C 0.2327(11) 1.0565(4) 0.4296(3)
C34? C 0.1830(12) 1.1106(3) 0.3685(4)
H22? H 0.2143 1.1193 0.2433
H23? H 0.4077 0.9806 0.2056
H24? H 0.3815 0.9371 0.4489
H25? H 0.1881 1.0758 0.4866
H26? H 0.1045 1.1669 0.3838
loop_
_geom_bond_atom_site_label_1
_geom_bond_atom_site_label_2
_geom_bond_site_symmetry_1
_geom_bond_site_symmetry_2
Br1 C20 1_555 1_555
O1 C13 1_555 1_555
O2 C27 1_555 1_555
O3 C27 1_555 1_555
C1 H1 1_555 1_555
C2 C1 1_555 1_555
H2 C2 1_555 1_555
C3 C2 1_555 1_555
H3 C3 1_555 1_555
C4 C3 1_555 1_555
H4 C4 1_555 1_555
C5 C4 1_555 1_555
H5 C5 1_555 1_555
C6 C1 1_555 1_555
C7 H6 1_555 1_555
C8 C7 1_555 1_555
H7 C8 1_555 1_555
C9 C8 1_555 1_555
H8 C9 1_555 1_555
C10 C9 1_555 1_555
H9 C10 1_555 1_555
C11 C10 1_555 1_555
H10 C11 1_555 1_555
C12 C7 1_555 1_555
C13 H11 1_555 1_555
C14 C6 1_555 1_555
H12 C14 1_555 1_555
C15 C14 1_555 1_555
C16 O1 1_555 1_555
C17 C16 1_555 1_555
C18 C17 1_555 1_555
H13 C18 1_555 1_555
C19 C18 1_555 1_555
H14 C19 1_555 1_555
C20 C19 1_555 1_555
C21 C20 1_555 1_555
H15 C21 1_555 1_555
C22 C17 1_555 1_555
H16 C22 1_555 1_555
C23 C12 1_555 1_555
C24 C15 1_555 1_555
C25 C26 1_555 1_555
C26 C13 1_555 1_555
C27 C26 1_555 1_555
C28 O2 1_555 1_555
H17 C28 1_555 1_555
H18 C28 1_555 1_555
H19 C28 1_555 1_555
H20 C25 1_555 1_555
H21 C25 1_555 1_555
C5 C6 1_555 1_555
C11 C12 1_555 1_555
C13 C14 1_555 1_555
C15 C16 1_555 1_555
C21 C22 1_555 1_555
C23 C24 1_555 1_555

#END
