
#######################################################################
#
#                 Cambridge Crystallographic Data Centre
#                                CCDC 
#
#######################################################################
#
# If this CIF has been generated from an entry in the Cambridge 
# Structural Database, then it will include bibliographic, chemical, 
# crystal, experimental, refinement or atomic coordinate data resulting 
# from the CCDC's data processing and validation procedures.
#
#######################################################################

data_CUWKUC
_chemical_formula_moiety         'C22 H15 Cl1 F3 N1 O3 S1'
_chemical_name_systematic        
4-(4-chlorophenyl)-1,3-diphenyl-3-((trifluoromethyl)sulfonyl)azetidin-2-one
_symmetry_cell_setting           monoclinic
_symmetry_space_group_name_H-M   'P 21/n'
_symmetry_Int_Tables_number      14
_space_group_name_Hall           '-P 2yn'
loop_
_symmetry_equiv_pos_site_id
_symmetry_equiv_pos_as_xyz
1 x,y,z
2 1/2-x,1/2+y,1/2-z
3 -x,-y,-z
4 1/2+x,1/2-y,1/2+z
_cell_length_a                   10.3902(5)
_cell_length_b                   11.1304(4)
_cell_length_c                   17.5579(7)
_cell_angle_alpha                90
_cell_angle_beta                 95.9749(16)
_cell_angle_gamma                90
_cell_volume                     2019.49
_exptl_crystal_colour            colorless
_exptl_crystal_description       block
_cell_formula_units_Z            4
loop_
_atom_site_label
_atom_site_type_symbol
_atom_site_fract_x
_atom_site_fract_y
_atom_site_fract_z
Cl1 Cl -0.33200(8) 0.43109(7) 0.29459(5)
S1 S 0.20752(6) 0.48528(5) 0.11680(3)
F1 F 0.36433(16) 0.52553(16) 0.01055(10)
F2 F 0.46257(15) 0.52018(16) 0.12480(11)
F3 F 0.34278(17) 0.67126(14) 0.08924(11)
O1 O 0.10321(17) 0.54376(16) 0.07209(10)
O2 O 0.2254(2) 0.49716(17) 0.19822(10)
O3 O 0.18911(19) 0.32638(18) -0.05611(10)
N1 N 0.0518(2) 0.24424(18) 0.02919(11)
C1 C -0.0646(3) 0.1718(3) -0.08917(14)
C2 C -0.1615(3) 0.1008(3) -0.12562(16)
C3 C -0.2402(3) 0.0313(3) -0.08390(17)
C4 C -0.2189(3) 0.0299(3) -0.00485(17)
C5 C -0.1216(3) 0.1002(3) 0.03286(15)
C6 C -0.0459(3) 0.1718(2) -0.00952(14)
C7 C 0.3416(3) 0.2717(2) 0.11441(15)
C8 C 0.4318(3) 0.2574(3) 0.06197(17)
C9 C 0.5501(3) 0.2041(3) 0.0850(2)
C10 C 0.5782(3) 0.1646(3) 0.1593(2)
C11 C 0.4886(3) 0.1771(3) 0.21147(18)
C12 C 0.3703(3) 0.2311(3) 0.18939(16)
C13 C -0.0129(3) 0.3074(3) 0.15812(13)
C14 C -0.1062(3) 0.3876(3) 0.12662(14)
C15 C -0.2034(3) 0.4276(3) 0.16919(15)
C16 C -0.2063(3) 0.3857(3) 0.24293(15)
C17 C -0.1149(3) 0.3065(3) 0.27566(16)
C18 C -0.0180(3) 0.2673(3) 0.23285(15)
C19 C 0.1543(3) 0.3049(3) 0.00565(14)
C20 C 0.2115(3) 0.3284(2) 0.08991(13)
C21 C 0.0891(3) 0.2557(3) 0.11221(13)
C22 C 0.3553(3) 0.5528(3) 0.08288(16)
H1 H -0.0117 0.2198 -0.1180
H2 H -0.1743 0.0995 -0.1800
H3 H -0.3083 -0.0150 -0.1095
H4 H -0.2710 -0.0193 0.0238
H5 H -0.1071 0.0992 0.0872
H6 H 0.4125 0.2840 0.0106
H7 H 0.6122 0.1948 0.0493
H8 H 0.6597 0.1287 0.1747
H9 H 0.5078 0.1487 0.2624
H10 H 0.3088 0.2405 0.2254
H11 H -0.1036 0.4152 0.0756
H12 H -0.2667 0.4830 0.1478
H13 H -0.1181 0.2792 0.3267
H14 H 0.0454 0.2124 0.2548
H15 H 0.1175 0.1757 0.1338
loop_
_geom_bond_atom_site_label_1
_geom_bond_atom_site_label_2
_geom_bond_site_symmetry_1
_geom_bond_site_symmetry_2
Cl1 C16 1_555 1_555
S1 O1 1_555 1_555
F1 C22 1_555 1_555
F2 C22 1_555 1_555
F3 C22 1_555 1_555
O2 S1 1_555 1_555
O3 C19 1_555 1_555
N1 C6 1_555 1_555
C1 C2 1_555 1_555
C2 C3 1_555 1_555
C3 C4 1_555 1_555
C4 C5 1_555 1_555
C5 C6 1_555 1_555
C6 C1 1_555 1_555
C7 C8 1_555 1_555
C8 C9 1_555 1_555
C9 C10 1_555 1_555
C10 C11 1_555 1_555
C11 C12 1_555 1_555
C12 C7 1_555 1_555
C13 C14 1_555 1_555
C14 C15 1_555 1_555
C15 C16 1_555 1_555
C16 C17 1_555 1_555
C17 C18 1_555 1_555
C18 C13 1_555 1_555
C19 N1 1_555 1_555
C20 S1 1_555 1_555
C21 N1 1_555 1_555
C22 S1 1_555 1_555
H1 C1 1_555 1_555
H2 C2 1_555 1_555
H3 C3 1_555 1_555
H4 C4 1_555 1_555
H5 C5 1_555 1_555
H6 C8 1_555 1_555
H7 C9 1_555 1_555
H8 C10 1_555 1_555
H9 C11 1_555 1_555
H10 C12 1_555 1_555
H11 C14 1_555 1_555
H12 C15 1_555 1_555
H13 C17 1_555 1_555
H14 C18 1_555 1_555
H15 C21 1_555 1_555
C7 C20 1_555 1_555
C13 C21 1_555 1_555
C19 C20 1_555 1_555
C20 C21 1_555 1_555

#END
