
#######################################################################
#
#                 Cambridge Crystallographic Data Centre
#                                CCDC 
#
#######################################################################
#
# If this CIF has been generated from an entry in the Cambridge 
# Structural Database, then it will include bibliographic, chemical, 
# crystal, experimental, refinement or atomic coordinate data resulting 
# from the CCDC's data processing and validation procedures.
#
#######################################################################

data_CUWLIR
_chemical_formula_moiety         'C37 H31 N4 P2 1+,C1 H2 Cl2,I1 1-'
_chemical_name_systematic        
'(1-(3-(2-(diphenylphosphino)-1H-imidazol-1-yl)phenyl)-1H-imidazol-2-yl)(methyl)diphenylphosphonium iodide dichloromethane solvate'
_symmetry_cell_setting           monoclinic
_symmetry_space_group_name_H-M   'P 21/c'
_symmetry_Int_Tables_number      14
_space_group_name_Hall           '-P 2ybc'
loop_
_symmetry_equiv_pos_site_id
_symmetry_equiv_pos_as_xyz
1 x,y,z
2 -x,1/2+y,1/2-z
3 -x,-y,-z
4 x,1/2-y,1/2+z
_cell_length_a                   9.5438(7)
_cell_length_b                   39.836(3)
_cell_length_c                   10.6814(11)
_cell_angle_alpha                90
_cell_angle_beta                 116.464(3)
_cell_angle_gamma                90
_cell_volume                     3635.4
_exptl_crystal_colour            colorless
_exptl_crystal_description       block
_cell_formula_units_Z            4
loop_
_atom_site_label
_atom_site_type_symbol
_atom_site_fract_x
_atom_site_fract_y
_atom_site_fract_z
P1 P 1.51826(19) 0.11116(4) 0.42006(16)
P2 P 1.69302(18) 0.17136(4) -0.05409(16)
N1 N 1.8169(6) 0.10752(13) 0.6504(5)
N2 N 1.7857(5) 0.15242(13) 0.5172(5)
N3 N 1.8014(5) 0.22245(12) 0.1518(5)
N4 N 1.8906(6) 0.22367(13) -0.0090(5)
C1 C 1.8121(7) 0.13528(16) 0.0204(6)
C2 C 1.9553(7) 0.13802(17) 0.1393(6)
H1 H 1.9886 0.1590 0.1855
C3 C 2.0482(8) 0.10968(19) 0.1892(7)
H2 H 2.1456 0.1112 0.2706
C4 C 2.0008(9) 0.0794(2) 0.1221(8)
H3 H 2.0656 0.0602 0.1578
C5 C 1.8590(9) 0.07649(18) 0.0023(8)
H4 H 1.8274 0.0555 -0.0442
C6 C 1.7647(8) 0.10446(17) -0.0481(7)
H5 H 1.6674 0.1027 -0.1295
C7 C 1.5106(7) 0.16993(15) -0.0447(6)
C8 C 1.4034(7) 0.19525(17) -0.1131(6)
H6 H 1.4230 0.2109 -0.1705
C9 C 1.2677(7) 0.19741(19) -0.0967(6)
H7 H 1.1947 0.2149 -0.1420
C10 C 1.2379(8) 0.17457(19) -0.0155(7)
H8 H 1.1456 0.1765 -0.0031
C11 C 1.3414(8) 0.14881(18) 0.0481(7)
H9 H 1.3184 0.1326 0.1015
C12 C 1.4789(7) 0.14629(16) 0.0350(6)
H10 H 1.5507 0.1286 0.0798
C13 C 1.5652(7) 0.07960(16) 0.3190(6)
C14 C 1.4406(8) 0.06454(17) 0.2088(7)
H11 H 1.3369 0.0692 0.1946
C15 C 1.4643(9) 0.04308(18) 0.1200(7)
H12 H 1.3773 0.0330 0.0446
C16 C 1.6150(10) 0.03596(19) 0.1399(8)
H13 H 1.6316 0.0210 0.0786
C17 C 1.7383(9) 0.0505(2) 0.2472(7)
H14 H 1.8416 0.0456 0.2610
C18 C 1.7158(8) 0.07256(17) 0.3373(7)
H15 H 1.8032 0.0828 0.4115
C19 C 1.4724(7) 0.08608(16) 0.5394(6)
C20 C 1.3765(7) 0.10020(18) 0.5915(7)
H16 H 1.3345 0.1220 0.5614
C21 C 1.3405(9) 0.0831(2) 0.6868(8)
H17 H 1.2775 0.0934 0.7241
C22 C 1.3974(9) 0.0509(2) 0.7266(8)
H18 H 1.3718 0.0389 0.7903
C23 C 1.4913(9) 0.0363(2) 0.6742(8)
H19 H 1.5307 0.0142 0.7029
C24 C 1.5281(8) 0.05327(18) 0.5811(7)
H20 H 1.5916 0.0428 0.5446
C25 C 1.7979(7) 0.20761(14) 0.0339(5)
C26 C 1.9545(7) 0.24928(16) 0.0827(6)
H21 H 2.0258 0.2653 0.0783
C27 C 1.9015(7) 0.24869(15) 0.1825(6)
H22 H 1.9296 0.2638 0.2588
C28 C 1.7229(7) 0.21187(14) 0.2334(5)
C29 C 1.5815(7) 0.22734(15) 0.2089(6)
H23 H 1.5363 0.2442 0.1394
C30 C 1.5102(7) 0.21695(16) 0.2906(6)
H24 H 1.4136 0.2268 0.2762
C31 C 1.5754(7) 0.19295(15) 0.3908(6)
H25 H 1.5251 0.1866 0.4465
C32 C 1.7136(7) 0.17781(15) 0.4117(6)
C33 C 1.7891(7) 0.18735(15) 0.3313(6)
H26 H 1.8844 0.1770 0.3445
C34 C 1.9366(7) 0.15300(16) 0.6183(6)
H27 H 2.0143 0.1692 0.6293
C35 C 1.9536(7) 0.12564(16) 0.7004(6)
H28 H 2.0469 0.1199 0.7810
C36 C 1.7165(7) 0.12438(15) 0.5400(6)
C37 C 1.6612(7) 0.17536(16) -0.2302(6)
H29 H 1.7622 0.1761 -0.2334
H30 H 1.6033 0.1961 -0.2701
H31 H 1.6006 0.1561 -0.2844
I1 I 1.23632(5) 0.198523(12) 0.47988(4)
C38 C 1.0357(10) -0.0281(2) 0.3181(9)
H32 H 1.0995 -0.0487 0.3358
H33 H 0.9536 -0.0322 0.3491
Cl1 Cl 0.9477(3) -0.01949(7) 0.1405(3)
Cl2 Cl 1.1554(3) 0.00508(6) 0.4158(3)
loop_
_geom_bond_atom_site_label_1
_geom_bond_atom_site_label_2
_geom_bond_site_symmetry_1
_geom_bond_site_symmetry_2
P1 C13 1_555 1_555
P2 C1 1_555 1_555
N1 C35 1_555 1_555
N2 C32 1_555 1_555
N3 C25 1_555 1_555
N4 C25 1_555 1_555
C1 C2 1_555 1_555
C2 H1 1_555 1_555
C3 C2 1_555 1_555
H2 C3 1_555 1_555
C4 C3 1_555 1_555
H3 C4 1_555 1_555
C5 C4 1_555 1_555
H4 C5 1_555 1_555
C6 C1 1_555 1_555
H5 C6 1_555 1_555
C7 P2 1_555 1_555
C8 C7 1_555 1_555
H6 C8 1_555 1_555
C9 C8 1_555 1_555
H7 C9 1_555 1_555
C10 C9 1_555 1_555
H8 C10 1_555 1_555
C11 C10 1_555 1_555
H9 C11 1_555 1_555
C12 C7 1_555 1_555
H10 C12 1_555 1_555
C13 C14 1_555 1_555
C14 H11 1_555 1_555
C15 C14 1_555 1_555
H12 C15 1_555 1_555
C16 C15 1_555 1_555
H13 C16 1_555 1_555
C17 C16 1_555 1_555
H14 C17 1_555 1_555
C18 C13 1_555 1_555
H15 C18 1_555 1_555
C19 P1 1_555 1_555
C20 C19 1_555 1_555
H16 C20 1_555 1_555
C21 C20 1_555 1_555
H17 C21 1_555 1_555
C22 C21 1_555 1_555
H18 C22 1_555 1_555
C23 C22 1_555 1_555
H19 C23 1_555 1_555
C24 C19 1_555 1_555
H20 C24 1_555 1_555
C25 P2 1_555 1_555
C26 N4 1_555 1_555
H21 C26 1_555 1_555
C27 N3 1_555 1_555
H22 C27 1_555 1_555
C28 N3 1_555 1_555
C29 C28 1_555 1_555
H23 C29 1_555 1_555
C30 C29 1_555 1_555
H24 C30 1_555 1_555
C31 C30 1_555 1_555
H25 C31 1_555 1_555
C32 C31 1_555 1_555
C33 C28 1_555 1_555
H26 C33 1_555 1_555
C34 N2 1_555 1_555
H27 C34 1_555 1_555
C35 C34 1_555 1_555
H28 C35 1_555 1_555
C36 P1 1_555 1_555
C37 P2 1_555 1_555
H29 C37 1_555 1_555
H30 C37 1_555 1_555
H31 C37 1_555 1_555
C38 H32 1_555 1_555
H33 C38 1_555 1_555
Cl1 C38 1_555 1_555
Cl2 C38 1_555 1_555
N1 C36 1_555 1_555
N2 C36 1_555 1_555
C5 C6 1_555 1_555
C11 C12 1_555 1_555
C17 C18 1_555 1_555
C23 C24 1_555 1_555
C26 C27 1_555 1_555
C32 C33 1_555 1_555

#END
