
#######################################################################
#
#                 Cambridge Crystallographic Data Centre
#                                CCDC 
#
#######################################################################
#
# If this CIF has been generated from an entry in the Cambridge 
# Structural Database, then it will include bibliographic, chemical, 
# crystal, experimental, refinement or atomic coordinate data resulting 
# from the CCDC's data processing and validation procedures.
#
#######################################################################

data_CUWPAN
_chemical_compound_source        'Penicillium brocae MA-231'
_chemical_formula_moiety         'C19 H24 N2 O6 S1'
_chemical_name_systematic        
4,11-dihydroxy-6a-(methylsulfanyl)dodecahydro-1H,6H-indolo[1',2':4,5]pyrazino[1,2-a]indole-1,6,8,13(2H,6aH)-tetrone
_symmetry_cell_setting           orthorhombic
_symmetry_space_group_name_H-M   'P 21 21 21'
_symmetry_Int_Tables_number      19
_space_group_name_Hall           'P 2ac 2ab'
loop_
_symmetry_equiv_pos_site_id
_symmetry_equiv_pos_as_xyz
1 x,y,z
2 1/2-x,-y,1/2+z
3 -x,1/2+y,1/2-z
4 1/2+x,1/2-y,-z
_cell_length_a                   6.4278(12)
_cell_length_b                   13.001(3)
_cell_length_c                   23.565(4)
_cell_angle_alpha                90
_cell_angle_beta                 90
_cell_angle_gamma                90
_cell_volume                     1969.28
_cell_formula_units_Z            4
loop_
_atom_site_label
_atom_site_type_symbol
_atom_site_fract_x
_atom_site_fract_y
_atom_site_fract_z
N1 N 0.6507(19) 0.1015(9) 0.1007(5)
N2 N 0.7226(18) 0.3146(8) 0.1018(5)
O1 O 1.0544(16) 0.2842(9) 0.1289(5)
O2 O 0.3958(16) 0.1280(8) 0.0370(4)
O3 O 0.953(3) -0.0776(11) 0.2207(7)
O4 O 0.540(4) -0.1719(17) 0.0745(11)
H1 H 0.4359 -0.1941 0.0585
O5 O 0.2366(18) 0.5397(9) 0.0650(5)
O6 O 0.8541(18) 0.5912(8) 0.1173(5)
H2 H 0.9657 0.5898 0.1004
S1 S 0.6950(7) 0.1519(3) 0.20940(16)
C1 C 0.879(3) 0.2561(13) 0.1221(7)
C2 C 0.820(2) 0.1460(13) 0.1379(6)
C3 C 0.993(3) 0.0671(12) 0.1326(7)
H3 H 1.1361 0.0779 0.1339
C4 C 0.877(2) -0.0334(13) 0.1248(8)
H4 H 0.9648 -0.0789 0.1019
C5 C 0.837(3) -0.0871(14) 0.1816(8)
C6 C 0.656(3) -0.1536(16) 0.1850(8)
H5 H 0.6349 -0.1742 0.2241
H6 H 0.6810 -0.2152 0.1628
C7 C 0.462(5) -0.100(2) 0.1632(13)
H7 H 0.3427 -0.1451 0.1671
H8 H 0.4357 -0.0383 0.1854
C8 C 0.490(3) -0.0712(13) 0.1021(8)
H9 H 0.3631 -0.0407 0.0862
C9 C 0.686(3) -0.0042(12) 0.0887(7)
H10 H 0.7214 -0.0116 0.0485
C10 C 0.519(2) 0.1622(11) 0.0727(6)
C11 C 0.511(2) 0.2765(11) 0.0870(7)
H11 H 0.4161 0.2882 0.1188
C12 C 0.454(2) 0.3457(12) 0.0378(6)
H12 H 0.3039 0.3504 0.0335
H13 H 0.5138 0.3209 0.0026
C13 C 0.547(2) 0.4496(12) 0.0548(7)
H14 H 0.5814 0.4868 0.0199
C14 C 0.398(3) 0.5140(12) 0.0878(8)
C15 C 0.434(3) 0.5440(15) 0.1471(8)
H15 H 0.3098 0.5280 0.1687
H16 H 0.4533 0.6179 0.1484
C16 C 0.623(2) 0.4923(15) 0.1769(7)
H17 H 0.6589 0.5303 0.2109
H18 H 0.5876 0.4226 0.1878
C17 C 0.805(2) 0.4912(11) 0.1369(6)
H19 H 0.9259 0.4630 0.1568
C18 C 0.759(2) 0.4250(12) 0.0867(6)
H20 H 0.8744 0.4296 0.0597
C19 C 0.924(3) 0.1781(16) 0.2520(9)
H21 H 1.0240 0.2151 0.2297
H22 H 0.9840 0.1143 0.2645
H23 H 0.8856 0.2186 0.2844
O7? O 0.347(4) -0.070(2) 0.0547(13)
H24? H 0.3380 -0.0108 0.0423
H25? H 0.5586 -0.1256 0.2123
H26? H 0.7026 -0.2193 0.1998
C20? C 0.535(7) -0.172(4) 0.130(2)
H27? H 0.6169 -0.2149 0.1044
H28? H 0.4062 -0.2078 0.1380
H29? H 0.4160 -0.0339 0.1321
loop_
_geom_bond_atom_site_label_1
_geom_bond_atom_site_label_2
_geom_bond_site_symmetry_1
_geom_bond_site_symmetry_2
N1 C2 1_555 1_555
N2 C1 1_555 1_555
O1 C1 1_555 1_555
O2 C10 1_555 1_555
O3 C5 1_555 1_555
O4 H1 1_555 1_555
O5 C14 1_555 1_555
O6 H2 1_555 1_555
S1 C2 1_555 1_555
C1 C2 1_555 1_555
C2 C3 1_555 1_555
C3 H3 1_555 1_555
C4 C3 1_555 1_555
H4 C4 1_555 1_555
C5 C4 1_555 1_555
C6 C5 1_555 1_555
H5 C6 1_555 1_555
H6 C6 1_555 1_555
C7 C6 1_555 1_555
H7 C7 1_555 1_555
H8 C7 1_555 1_555
C8 O4 1_555 1_555
H9 C8 1_555 1_555
C9 N1 1_555 1_555
H10 C9 1_555 1_555
C10 N1 1_555 1_555
C11 N2 1_555 1_555
H11 C11 1_555 1_555
C12 C11 1_555 1_555
H12 C12 1_555 1_555
H13 C12 1_555 1_555
C13 C12 1_555 1_555
H14 C13 1_555 1_555
C14 C13 1_555 1_555
C15 C14 1_555 1_555
H15 C15 1_555 1_555
H16 C15 1_555 1_555
C16 C15 1_555 1_555
H17 C16 1_555 1_555
H18 C16 1_555 1_555
C17 O6 1_555 1_555
H19 C17 1_555 1_555
C18 N2 1_555 1_555
H20 C18 1_555 1_555
C19 S1 1_555 1_555
H21 C19 1_555 1_555
H22 C19 1_555 1_555
H23 C19 1_555 1_555
C4 C9 1_555 1_555
C7 C8 1_555 1_555
C8 C9 1_555 1_555
C10 C11 1_555 1_555
C13 C18 1_555 1_555
C16 C17 1_555 1_555
C17 C18 1_555 1_555

#END
