
#######################################################################
#
#                 Cambridge Crystallographic Data Centre
#                                CCDC 
#
#######################################################################
#
# If this CIF has been generated from an entry in the Cambridge 
# Structural Database, then it will include bibliographic, chemical, 
# crystal, experimental, refinement or atomic coordinate data resulting 
# from the CCDC's data processing and validation procedures.
#
#######################################################################

data_CUXHAG
_chemical_formula_moiety         'C10 H6 O4'
_chemical_name_systematic        
3-hydroxy-1a,7a-dihydronaphtho[2,3-b]oxirene-2,7-dione
_symmetry_cell_setting           triclinic
_symmetry_space_group_name_H-M   'P -1'
_symmetry_Int_Tables_number      2
_space_group_name_Hall           '-P 1'
loop_
_symmetry_equiv_pos_site_id
_symmetry_equiv_pos_as_xyz
1 x,y,z
2 -x,-y,-z
_cell_length_a                   6.327(2)
_cell_length_b                   11.341(3)
_cell_length_c                   22.813(7)
_cell_angle_alpha                75.717(7)
_cell_angle_beta                 83.819(7)
_cell_angle_gamma                89.985(7)
_cell_volume                     1576.53
_cell_formula_units_Z            8
loop_
_atom_site_label
_atom_site_type_symbol
_atom_site_fract_x
_atom_site_fract_y
_atom_site_fract_z
C1 C 0.9258(12) 0.8230(6) 0.1394(4)
C2 C 0.9286(11) 0.7745(6) 0.0848(3)
H1 H 1.0074 0.7001 0.0848
C3 C 0.7464(11) 0.7961(6) 0.0493(3)
H2 H 0.7144 0.7347 0.0277
C4 C 0.5679(12) 0.8676(6) 0.0671(3)
C5 C 0.4335(11) 1.0174(6) 0.1246(3)
C6 C 0.4601(12) 1.0829(6) 0.1686(3)
H3 H 0.3633 1.1416 0.1747
C7 C 0.6268(12) 1.0599(6) 0.2020(3)
H4 H 0.6383 1.0999 0.2325
C8 C 0.7831(11) 0.9769(6) 0.1915(3)
H5 H 0.8984 0.9643 0.2141
C9 C 0.7647(11) 0.9151(6) 0.1480(3)
C10 C 0.5906(10) 0.9350(5) 0.1135(3)
O1 O 1.0493(10) 0.7857(5) 0.1767(3)
O2 O 0.9383(7) 0.8650(4) 0.0288(2)
O3 O 0.4049(8) 0.8711(5) 0.0411(2)
O4 O 0.2666(8) 1.0406(5) 0.0937(3)
H6 H 0.2655 0.9957 0.0706
C11 C 0.0757(11) 0.4632(7) 0.3592(3)
C12 C 0.0766(11) 0.3583(6) 0.4146(3)
H7 H -0.0027 0.2840 0.4148
C13 C 0.2535(11) 0.3450(6) 0.4497(3)
H8 H 0.2830 0.2621 0.4719
C14 C 0.4353(10) 0.4328(6) 0.4332(3)
C15 C 0.5671(11) 0.6414(6) 0.3763(3)
C16 C 0.5390(13) 0.7475(7) 0.3296(4)
H9 H 0.6415 0.8099 0.3215
C17 C 0.3739(12) 0.7631(6) 0.2964(4)
H10 H 0.3628 0.8346 0.2666
C18 C 0.2192(12) 0.6704(7) 0.3074(4)
H11 H 0.1029 0.6804 0.2851
C19 C 0.2383(10) 0.5625(6) 0.3517(3)
C20 C 0.4089(10) 0.5473(6) 0.3870(3)
O5 O -0.0484(9) 0.4638(5) 0.3225(3)
O6 O 0.0623(7) 0.3961(4) 0.4705(2)
O7 O 0.5933(7) 0.4141(4) 0.4588(2)
O8 O 0.7349(8) 0.6320(4) 0.4075(2)
H12 H 0.7696 0.6994 0.4108
C21 C 0.0775(12) -0.0404(6) 0.3597(3)
C22 C 0.0696(11) -0.1430(6) 0.4146(3)
H13 H -0.0119 -0.2165 0.4147
C23 C 0.2516(12) -0.1578(7) 0.4519(3)
H14 H 0.2831 -0.2402 0.4744
C24 C 0.4299(12) -0.0656(6) 0.4329(3)
C25 C 0.5660(11) 0.1410(7) 0.3752(3)
C26 C 0.5478(11) 0.2508(6) 0.3316(3)
H15 H 0.6483 0.3138 0.3251
C27 C 0.3744(13) 0.2616(7) 0.2987(3)
H16 H 0.3600 0.3334 0.2693
C28 C 0.2193(11) 0.1685(6) 0.3079(3)
H17 H 0.1066 0.1784 0.2843
C29 C 0.2345(11) 0.0620(6) 0.3523(3)
C30 C 0.4100(11) 0.0460(6) 0.3868(3)
O9 O -0.0481(9) -0.0385(5) 0.3227(3)
O10 O 0.0598(7) -0.1061(4) 0.4705(2)
O11 O 0.5951(9) -0.0875(4) 0.4587(2)
O12 O 0.7351(8) 0.1327(4) 0.4064(3)
H18 H 0.7365 0.0645 0.4293
C31 C 0.9194(12) 0.3196(6) 0.1408(3)
C32 C 0.9255(11) 0.2715(6) 0.0865(3)
H19 H 1.0078 0.1983 0.0864
C33 C 0.7479(10) 0.2927(6) 0.0496(3)
H20 H 0.7184 0.2325 0.0270
C34 C 0.5663(10) 0.3668(6) 0.0675(3)
C35 C 0.4346(11) 0.5161(6) 0.1247(3)
C36 C 0.4534(12) 0.5773(7) 0.1696(4)
H21 H 0.3479 0.6299 0.1779
C37 C 0.6283(12) 0.5608(7) 0.2022(4)
H22 H 0.6433 0.6055 0.2307
C38 C 0.7798(12) 0.4786(6) 0.1925(3)
H23 H 0.8944 0.4657 0.2155
C39 C 0.7617(11) 0.4142(6) 0.1481(3)
C40 C 0.5908(11) 0.4332(6) 0.1132(3)
O13 O 1.0466(9) 0.2852(5) 0.1782(2)
O14 O 0.9402(7) 0.3668(4) 0.0301(2)
O15 O 0.4067(8) 0.3734(4) 0.0409(2)
O16 O 0.2650(8) 0.5392(5) 0.0927(2)
H24 H 0.2519 0.4861 0.0745
loop_
_geom_bond_atom_site_label_1
_geom_bond_atom_site_label_2
_geom_bond_site_symmetry_1
_geom_bond_site_symmetry_2
C1 C2 1_555 1_555
C2 H1 1_555 1_555
C3 C2 1_555 1_555
H2 C3 1_555 1_555
C4 C3 1_555 1_555
C5 C6 1_555 1_555
C6 H3 1_555 1_555
C7 C6 1_555 1_555
H4 C7 1_555 1_555
C8 C7 1_555 1_555
H5 C8 1_555 1_555
C9 C1 1_555 1_555
C10 C4 1_555 1_555
O1 C1 1_555 1_555
O2 C2 1_555 1_555
O3 C4 1_555 1_555
O4 C5 1_555 1_555
H6 O4 1_555 1_555
C11 C12 1_555 1_555
C12 H7 1_555 1_555
C13 C12 1_555 1_555
H8 C13 1_555 1_555
C14 C13 1_555 1_555
C15 C16 1_555 1_555
C16 H9 1_555 1_555
C17 C16 1_555 1_555
H10 C17 1_555 1_555
C18 C17 1_555 1_555
H11 C18 1_555 1_555
C19 C11 1_555 1_555
C20 C14 1_555 1_555
O5 C11 1_555 1_555
O6 C12 1_555 1_555
O7 C14 1_555 1_555
O8 C15 1_555 1_555
H12 O8 1_555 1_555
C21 C22 1_555 1_555
C22 H13 1_555 1_555
C23 C22 1_555 1_555
H14 C23 1_555 1_555
C24 C23 1_555 1_555
C25 C26 1_555 1_555
C26 H15 1_555 1_555
C27 C26 1_555 1_555
H16 C27 1_555 1_555
C28 C27 1_555 1_555
H17 C28 1_555 1_555
C29 C21 1_555 1_555
C30 C24 1_555 1_555
O9 C21 1_555 1_555
O10 C22 1_555 1_555
O11 C24 1_555 1_555
O12 C25 1_555 1_555
H18 O12 1_555 1_555
C31 C32 1_555 1_555
C32 H19 1_555 1_555
C33 C32 1_555 1_555
H20 C33 1_555 1_555
C34 C33 1_555 1_555
C35 C36 1_555 1_555
C36 H21 1_555 1_555
C37 C36 1_555 1_555
H22 C37 1_555 1_555
C38 C37 1_555 1_555
H23 C38 1_555 1_555
C39 C31 1_555 1_555
C40 C34 1_555 1_555
O13 C31 1_555 1_555
O14 C32 1_555 1_555
O15 C34 1_555 1_555
O16 C35 1_555 1_555
H24 O16 1_555 1_555
C3 O2 1_555 1_555
C5 C10 1_555 1_555
C8 C9 1_555 1_555
C9 C10 1_555 1_555
C13 O6 1_555 1_555
C15 C20 1_555 1_555
C18 C19 1_555 1_555
C19 C20 1_555 1_555
C23 O10 1_555 1_555
C25 C30 1_555 1_555
C28 C29 1_555 1_555
C29 C30 1_555 1_555
C33 O14 1_555 1_555
C35 C40 1_555 1_555
C38 C39 1_555 1_555
C39 C40 1_555 1_555

#END
