
#######################################################################
#
#                 Cambridge Crystallographic Data Centre
#                                CCDC 
#
#######################################################################
#
# If this CIF has been generated from an entry in the Cambridge 
# Structural Database, then it will include bibliographic, chemical, 
# crystal, experimental, refinement or atomic coordinate data resulting 
# from the CCDC's data processing and validation procedures.
#
#######################################################################

data_CUXRIY
_chemical_formula_moiety         'C14 H11 N1 O4,H2 O1'
_chemical_name_systematic        
'4-((4-carboxypyridinium-1-yl)methyl)benzoate monohydrate'
_symmetry_cell_setting           monoclinic
_symmetry_space_group_name_H-M   'P 21/c'
_symmetry_Int_Tables_number      14
_space_group_name_Hall           '-P 2ybc'
loop_
_symmetry_equiv_pos_site_id
_symmetry_equiv_pos_as_xyz
1 x,y,z
2 -x,1/2+y,1/2-z
3 -x,-y,-z
4 x,1/2-y,1/2+z
_cell_length_a                   7.2105(12)
_cell_length_b                   26.848(4)
_cell_length_c                   6.7298(11)
_cell_angle_alpha                90
_cell_angle_beta                 104.655(2)
_cell_angle_gamma                90
_cell_volume                     1260.42
_exptl_crystal_colour            colorless
_exptl_crystal_description       diamond
_cell_formula_units_Z            4
loop_
_atom_site_label
_atom_site_type_symbol
_atom_site_fract_x
_atom_site_fract_y
_atom_site_fract_z
N1 N 0.1193(3) 0.40981(8) 0.9855(4)
C1 C 0.1547(3) 0.31654(8) 0.9821(4)
O1 O 0.3652(3) 0.58399(7) 0.9862(3)
C2 C 0.3748(4) 0.23129(9) 1.0507(4)
O2 O 0.4075(3) 0.14448(7) 1.0850(3)
C3 C 0.4595(4) 0.27804(9) 1.0650(4)
C4 C 0.1774(4) 0.22792(10) 0.9996(4)
O3 O 0.4194(3) 0.56438(7) 1.3168(3)
C5 C 0.2792(3) 0.50321(9) 1.0768(4)
C6 C 0.2703(4) 0.47001(10) 1.2312(5)
C7 C 0.1899(4) 0.42382(10) 1.1849(5)
C8 C 0.4988(4) 0.18530(10) 1.0867(4)
O4 O 0.6732(3) 0.18952(8) 1.1123(4)
C9 C 0.0679(4) 0.27079(9) 0.9667(4)
C10 C 0.3479(4) 0.32035(9) 1.0312(4)
C11 C 0.0215(4) 0.36082(10) 0.9354(6)
C12 C 0.2082(4) 0.48841(10) 0.8737(4)
C13 C 0.1297(4) 0.44199(10) 0.8298(5)
C14 C 0.3607(4) 0.55476(9) 1.1248(5)
H1 H -0.072(4) 0.2696(9) 0.936(4)
H2 H 0.598(4) 0.2792(9) 1.095(4)
H3 H 0.235(4) 0.5129(11) 0.770(5)
H4 H 0.406(4) 0.3510(11) 1.038(4)
H5 H 0.083(4) 0.4290(12) 0.695(5)
H6 H 0.311(4) 0.4798(10) 1.361(5)
H7 H 0.115(4) 0.1941(12) 0.983(5)
H8 H 0.185(4) 0.3997(12) 1.291(5)
H9 H -0.053(6) 0.3587(14) 0.786(7)
H10 H -0.088(6) 0.3562(13) 1.007(6)
O5 O 0.157(2) 0.6356(7) 0.626(3)
H11 H 0.203(7) 0.6071(13) 0.670(9)
H12 H 0.19(8) 0.656(6) 0.72(3)
O6? O 0.1383(17) 0.6208(6) 0.6094(13)
H13? H 0.495(5) 0.6065(14) 1.368(5)
loop_
_geom_bond_atom_site_label_1
_geom_bond_atom_site_label_2
_geom_bond_site_symmetry_1
_geom_bond_site_symmetry_2
N1 C7 1_555 1_555
C1 C9 1_555 1_555
O1 C14 1_555 1_555
C2 C3 1_555 1_555
O2 C8 1_555 1_555
C3 C10 1_555 1_555
C4 C2 1_555 1_555
O3 C14 1_555 1_555
C5 C6 1_555 1_555
C6 C7 1_555 1_555
C7 H8 1_555 1_555
C8 C2 1_555 1_555
O4 C8 1_555 1_555
C9 C4 1_555 1_555
C10 C1 1_555 1_555
C11 N1 1_555 1_555
C12 C5 1_555 1_555
C13 N1 1_555 1_555
C14 C5 1_555 1_555
H1 C9 1_555 1_555
H2 C3 1_555 1_555
H3 C12 1_555 1_555
H4 C10 1_555 1_555
H5 C13 1_555 1_555
H6 C6 1_555 1_555
H7 C4 1_555 1_555
H9 C11 1_555 1_555
H10 C11 1_555 1_555
O5 H11 1_555 1_555
H12 O5 1_555 1_555
C1 C11 1_555 1_555
C12 C13 1_555 1_555

#END
