
#######################################################################
#
#                 Cambridge Crystallographic Data Centre
#                                CCDC 
#
#######################################################################
#
# If this CIF has been generated from an entry in the Cambridge 
# Structural Database, then it will include bibliographic, chemical, 
# crystal, experimental, refinement or atomic coordinate data resulting 
# from the CCDC's data processing and validation procedures.
#
#######################################################################

data_CUYJEN
_chemical_formula_moiety         'C42 H40 F4 N2 O6'
_chemical_name_systematic        
3,7-bis(1-(2-Ethylhexyl)-5,7-difluoro-2-oxo-1,2-dihydro-3H-indol-3-ylidene)-3,7-dihydrofuro[2,3-f][1]benzofuran-2,6-dione
_symmetry_cell_setting           triclinic
_symmetry_space_group_name_H-M   'P -1'
_symmetry_Int_Tables_number      2
_space_group_name_Hall           '-P 1'
loop_
_symmetry_equiv_pos_site_id
_symmetry_equiv_pos_as_xyz
1 x,y,z
2 -x,-y,-z
_cell_length_a                   7.2121(2)
_cell_length_b                   14.4102(7)
_cell_length_c                   18.5578(8)
_cell_angle_alpha                108.180(4)
_cell_angle_beta                 98.418(3)
_cell_angle_gamma                94.465(3)
_cell_volume                     1796.93
_exptl_crystal_colour            black
_exptl_crystal_description       needle
_cell_formula_units_Z            2
_exptl_crystal_recrystallization_method chloroform
loop_
_atom_site_label
_atom_site_type_symbol
_atom_site_fract_x
_atom_site_fract_y
_atom_site_fract_z
O1 O 0.3064(4) 0.5005(2) 0.36366(17)
O2 O 0.1528(5) 0.3819(3) 0.2594(2)
O3 O 0.4705(6) 0.2009(3) 0.4471(2)
N1 N 0.4048(6) 0.0839(3) 0.3284(2)
F1 F 0.3505(5) -0.0864(2) 0.18505(18)
F2 F 0.0979(5) 0.1137(3) 0.04984(17)
C1 C 0.4083(6) 0.5051(4) 0.4345(3)
C2 C 0.4252(6) 0.4111(4) 0.4396(3)
C3 C 0.5247(6) 0.4065(4) 0.5098(3)
H1 H 0.5432 0.3469 0.5175
C4 C 0.3399(6) 0.3402(4) 0.3643(3)
C5 C 0.2558(6) 0.4045(4) 0.3213(3)
C6 C 0.3341(6) 0.2407(4) 0.3330(3)
C7 C 0.4128(7) 0.1770(4) 0.3782(3)
C8 C 0.2778(6) 0.1726(4) 0.2531(3)
C9 C 0.1989(6) 0.1845(4) 0.1836(3)
H2 H 0.1647 0.2447 0.1817
C10 C 0.1740(8) 0.1027(4) 0.1176(3)
C11 C 0.2220(8) 0.0123(4) 0.1167(3)
H3 H 0.2028 -0.0404 0.0710
C12 C 0.2998(7) 0.0020(4) 0.1858(3)
C13 C 0.3273(6) 0.0806(4) 0.2539(3)
C14 C 0.4729(7) 0.0034(4) 0.3528(3)
H4 H 0.5563 0.0313 0.4025
H5 H 0.5468 -0.0321 0.3162
C15 C 0.3172(10) -0.0691(6) 0.3595(5)
H6 H 0.2400 -0.0974 0.3078
C16 C 0.4088(11) -0.1552(6) 0.3769(5)
H7 H 0.5123 -0.1281 0.4203
H8 H 0.3158 -0.1941 0.3922
C17 C 0.4815(17) -0.2211(6) 0.3119(6)
H9 H 0.5619 -0.1813 0.2921
H10 H 0.3756 -0.2551 0.2709
C18 C 0.596(2) -0.2988(11) 0.3332(9)
H11 H 0.6870 -0.2659 0.3801
H12 H 0.5097 -0.3459 0.3440
C19 C 0.698(3) -0.3536(16) 0.2723(12)
H13 H 0.7605 -0.4020 0.2886
H14 H 0.7902 -0.3082 0.2637
H15 H 0.6095 -0.3857 0.2253
C20 C 0.1895(12) -0.0286(7) 0.4098(5)
H16 H 0.1603 0.0331 0.4030
H17 H 0.2526 -0.0139 0.4627
C21 C 0.0017(11) -0.0968(7) 0.3964(5)
H18 H -0.0742 -0.0656 0.4331
H19 H 0.0288 -0.1582 0.4028
H20 H -0.0657 -0.1087 0.3451
O1A O 0.6936(4) 0.4995(2) 0.63634(17)
O2A O 0.8472(5) 0.6181(3) 0.7406(2)
O3A O 0.5295(6) 0.7991(3) 0.5529(2)
N1A N 0.5952(6) 0.9161(3) 0.6716(2)
F1A F 0.6495(5) 1.0864(2) 0.81495(18)
F2A F 0.9021(5) 0.8863(3) 0.95016(17)
C1A C 0.5917(6) 0.4949(4) 0.5655(3)
C2A C 0.5748(6) 0.5889(4) 0.5604(3)
C3A C 0.4753(6) 0.5935(4) 0.4902(3)
H1A H 0.4568 0.6531 0.4825
C4A C 0.6601(6) 0.6598(4) 0.6357(3)
C5A C 0.7442(6) 0.5955(4) 0.6787(3)
C6A C 0.6659(6) 0.7593(4) 0.6670(3)
C7A C 0.5872(7) 0.8230(4) 0.6218(3)
C8A C 0.7222(6) 0.8274(4) 0.7469(3)
C9A C 0.8011(6) 0.8155(4) 0.8164(3)
H2A H 0.8353 0.7553 0.8183
C10A C 0.8260(8) 0.8973(4) 0.8824(3)
C11A C 0.7780(8) 0.9877(4) 0.8833(3)
H3A H 0.7972 1.0404 0.9290
C12A C 0.7002(7) 0.9980(4) 0.8142(3)
C13A C 0.6727(6) 0.9194(4) 0.7461(3)
C14A C 0.5271(7) 0.9966(4) 0.6472(3)
H4A H 0.4437 0.9687 0.5975
H5A H 0.4532 1.0321 0.6838
C15A C 0.6828(10) 1.0691(6) 0.6405(5)
H6A H 0.7600 1.0974 0.6922
C16A C 0.5912(11) 1.1552(6) 0.6231(5)
H7A H 0.4877 1.1281 0.5797
H8A H 0.6842 1.1941 0.6078
C17A C 0.5185(17) 1.2211(6) 0.6881(6)
H9A H 0.4381 1.1813 0.7079
H10A H 0.6244 1.2551 0.7291
C18A C 0.404(2) 1.2988(11) 0.6668(9)
H11A H 0.3130 1.2659 0.6199
H12A H 0.4903 1.3459 0.6560
C19A C 0.302(3) 1.3536(16) 0.7277(12)
H13A H 0.2395 1.4020 0.7114
H14A H 0.2098 1.3082 0.7363
H15A H 0.3905 1.3857 0.7747
C20A C 0.8105(12) 1.0286(7) 0.5902(5)
H16A H 0.8397 0.9669 0.5970
H17A H 0.7474 1.0139 0.5373
C21A C 0.9983(11) 1.0968(7) 0.6036(5)
H18A H 1.0742 1.0656 0.5669
H19A H 0.9712 1.1582 0.5972
H20A H 1.0657 1.1087 0.6549
O4 O -0.3473(5) 0.4177(3) 0.28910(18)
O5 O 0.0116(5) 0.3156(3) 0.50772(19)
O6 O -0.0848(6) 0.1668(3) 0.4219(2)
N2 N -0.3460(5) 0.2778(3) 0.1878(2)
F3 F -0.3981(5) 0.1066(3) 0.04542(17)
F4 F -0.1491(5) -0.0794(2) 0.1942(2)
C22 C 0.0097(6) 0.4120(4) 0.5082(3)
C23 C 0.0873(6) 0.4903(4) 0.5708(3)
H21 H 0.1423 0.4823 0.6167
C24 C -0.0808(6) 0.4159(4) 0.4366(3)
C25 C -0.1308(6) 0.3146(4) 0.3858(3)
C26 C -0.0691(7) 0.2537(4) 0.4352(3)
C27 C -0.2122(6) 0.2744(4) 0.3089(3)
C28 C -0.3028(6) 0.3345(4) 0.2644(3)
C29 C -0.2252(6) 0.1759(4) 0.2531(3)
C30 C -0.1725(7) 0.0866(4) 0.2575(3)
H22 H -0.1214 0.0804 0.3045
C31 C -0.1985(8) 0.0079(4) 0.1904(3)
C32 C -0.2722(8) 0.0128(4) 0.1194(3)
H23 H -0.2865 -0.0421 0.0752
C33 C -0.3247(8) 0.1016(4) 0.1153(3)
C34 C -0.3016(6) 0.1833(4) 0.1808(3)
C35 C -0.4442(7) 0.3118(4) 0.1286(3)
H24 H -0.5088 0.3666 0.1530
H25 H -0.5395 0.2591 0.0946
C36 C -0.3138(11) 0.3446(6) 0.0803(4)
H26 H -0.2510 0.2880 0.0560
C37 C -0.1644(13) 0.4267(11) 0.1251(6)
H27 H -0.1216 0.4128 0.1723
H28 H -0.2305 0.4839 0.1401
C38 C 0.012(2) 0.4633(13) 0.1035(11)
H29 H -0.0231 0.4679 0.0524
H30 H 0.0939 0.4121 0.0987
C39 C 0.135(3) 0.5612(15) 0.1536(14)
H31 H 0.1778 0.5574 0.2045
H32 H 0.2453 0.5694 0.1311
C40 C 0.031(4) 0.6524(19) 0.1621(19)
H33 H 0.1118 0.7099 0.1966
H34 H -0.0820 0.6438 0.1823
H35 H -0.0021 0.6605 0.1125
C41 C -0.4363(15) 0.3691(7) 0.0152(5)
H36 H -0.5428 0.3998 0.0338
H37 H -0.3622 0.4151 -0.0015
C42 C -0.508(3) 0.2739(11) -0.0530(9)
H38 H -0.5849 0.2891 -0.0936
H39 H -0.5818 0.2288 -0.0363
H40 H -0.4021 0.2443 -0.0718
O4A O 0.3473(5) 0.5823(3) 0.71090(18)
O5A O -0.0116(5) 0.6844(3) 0.49228(19)
O6A O 0.0848(6) 0.8332(3) 0.5781(2)
N2A N 0.3460(5) 0.7222(3) 0.8122(2)
F3A F 0.3981(5) 0.8934(3) 0.95458(17)
F4A F 0.1491(5) 1.0794(2) 0.8058(2)
C22A C -0.0097(6) 0.5880(4) 0.4918(3)
C23A C -0.0873(6) 0.5097(4) 0.4292(3)
H21A H -0.1423 0.5177 0.3833
C24A C 0.0808(6) 0.5841(4) 0.5634(3)
C25A C 0.1308(6) 0.6854(4) 0.6142(3)
C26A C 0.0691(7) 0.7463(4) 0.5648(3)
C27A C 0.2122(6) 0.7256(4) 0.6911(3)
C28A C 0.3028(6) 0.6655(4) 0.7356(3)
C29A C 0.2252(6) 0.8241(4) 0.7469(3)
C30A C 0.1725(7) 0.9134(4) 0.7425(3)
H22A H 0.1214 0.9196 0.6955
C31A C 0.1985(8) 0.9921(4) 0.8096(3)
C32A C 0.2722(8) 0.9872(4) 0.8806(3)
H23A H 0.2865 1.0421 0.9248
C33A C 0.3247(8) 0.8984(4) 0.8847(3)
C34A C 0.3016(6) 0.8167(4) 0.8192(3)
C35A C 0.4442(7) 0.6882(4) 0.8714(3)
H24A H 0.5088 0.6334 0.8470
H25A H 0.5395 0.7409 0.9054
C36A C 0.3138(11) 0.6554(6) 0.9197(4)
H26A H 0.2510 0.7120 0.9440
C37A C 0.1644(13) 0.5733(11) 0.8749(6)
H27A H 0.1216 0.5872 0.8277
H28A H 0.2305 0.5161 0.8599
C38A C -0.012(2) 0.5367(13) 0.8965(11)
H29A H 0.0231 0.5321 0.9476
H30A H -0.0939 0.5879 0.9013
C39A C -0.135(3) 0.4388(15) 0.8464(14)
H31A H -0.1778 0.4426 0.7955
H32A H -0.2453 0.4306 0.8689
C40A C -0.031(4) 0.3476(19) 0.8379(19)
H33A H -0.1118 0.2901 0.8034
H34A H 0.0820 0.3562 0.8177
H35A H 0.0021 0.3395 0.8875
C41A C 0.4363(15) 0.6309(7) 0.9848(5)
H36A H 0.5428 0.6002 0.9662
H37A H 0.3622 0.5849 1.0015
C42A C 0.508(3) 0.7261(11) 1.0530(9)
H38A H 0.5849 0.7109 1.0936
H39A H 0.5818 0.7712 1.0363
H40A H 0.4021 0.7557 1.0718
C43? C 0.448(5) -0.3254(14) 0.3042(19)
H41? H 0.3414 -0.3368 0.3279
H42? H 0.5586 -0.3434 0.3310
C44? C 0.409(6) -0.390(3) 0.218(2)
H43? H 0.2936 -0.4341 0.2077
H44? H 0.5115 -0.4280 0.2075
H45? H 0.3971 -0.3490 0.1866
C45? C -0.036(3) 0.3981(17) 0.0586(12)
H46? H 0.0783 0.4436 0.0739
H47? H -0.1051 0.4011 0.0112
H48? H -0.0051 0.3325 0.0511
C46? C -0.616(3) 0.2984(15) -0.0343(12)
H49? H -0.5738 0.2412 -0.0682
H50? H -0.6810 0.2757 0.0006
C47? C -0.763(4) 0.334(2) -0.0841(17)
H51? H -0.7578 0.4050 -0.0625
H52? H -0.7348 0.3186 -0.1357
C48? C -0.955(6) 0.287(3) -0.088(2)
H53? H -1.0446 0.3125 -0.1183
H54? H -0.9823 0.3016 -0.0371
H55? H -0.9620 0.2173 -0.1119
loop_
_geom_bond_atom_site_label_1
_geom_bond_atom_site_label_2
_geom_bond_site_symmetry_1
_geom_bond_site_symmetry_2
O1 C1 1_555 1_555
O2 C5 1_555 1_555
O3 C7 1_555 1_555
N1 C7 1_555 1_555
F1 C12 1_555 1_555
F2 C10 1_555 1_555
C1 C2 1_555 1_555
C2 C3 1_555 1_555
C3 H1 1_555 1_555
C4 C2 1_555 1_555
C5 O1 1_555 1_555
C6 C4 1_555 1_555
C7 C6 1_555 1_555
C8 C6 1_555 1_555
C9 C8 1_555 1_555
H2 C9 1_555 1_555
C10 C9 1_555 1_555
C11 C10 1_555 1_555
H3 C11 1_555 1_555
C12 C11 1_555 1_555
C13 N1 1_555 1_555
C14 N1 1_555 1_555
H4 C14 1_555 1_555
H5 C14 1_555 1_555
C15 C14 1_555 1_555
H6 C15 1_555 1_555
C16 C15 1_555 1_555
H7 C16 1_555 1_555
H8 C16 1_555 1_555
C17 C16 1_555 1_555
H9 C17 1_555 1_555
H10 C17 1_555 1_555
C18 C17 1_555 1_555
H11 C18 1_555 1_555
H12 C18 1_555 1_555
C19 C18 1_555 1_555
H13 C19 1_555 1_555
H14 C19 1_555 1_555
H15 C19 1_555 1_555
C20 C15 1_555 1_555
H16 C20 1_555 1_555
H17 C20 1_555 1_555
C21 C20 1_555 1_555
H18 C21 1_555 1_555
H19 C21 1_555 1_555
H20 C21 1_555 1_555
O4 C28 1_555 1_555
O5 C22 1_555 1_555
O6 C26 1_555 1_555
N2 C28 1_555 1_555
F3 C33 1_555 1_555
F4 C31 1_555 1_555
C22 C23 1_555 1_555
C23 H21 1_555 1_555
C24 C22 1_555 1_555
C25 C24 1_555 1_555
C26 O5 1_555 1_555
C27 C25 1_555 1_555
C28 C27 1_555 1_555
C29 C27 1_555 1_555
C30 C29 1_555 1_555
H22 C30 1_555 1_555
C31 C30 1_555 1_555
C32 C31 1_555 1_555
H23 C32 1_555 1_555
C33 C32 1_555 1_555
C34 N2 1_555 1_555
C35 N2 1_555 1_555
H24 C35 1_555 1_555
H25 C35 1_555 1_555
C36 C35 1_555 1_555
H26 C36 1_555 1_555
C37 C36 1_555 1_555
H27 C37 1_555 1_555
H28 C37 1_555 1_555
C38 C37 1_555 1_555
H29 C38 1_555 1_555
H30 C38 1_555 1_555
C39 C38 1_555 1_555
H31 C39 1_555 1_555
H32 C39 1_555 1_555
C40 C39 1_555 1_555
H33 C40 1_555 1_555
H34 C40 1_555 1_555
H35 C40 1_555 1_555
C41 C36 1_555 1_555
H36 C41 1_555 1_555
H37 C41 1_555 1_555
C42 C41 1_555 1_555
H38 C42 1_555 1_555
H39 C42 1_555 1_555
H40 C42 1_555 1_555
O1A C1A 1_555 1_555
O2A C5A 1_555 1_555
O3A C7A 1_555 1_555
N1A C7A 1_555 1_555
F1A C12A 1_555 1_555
F2A C10A 1_555 1_555
C1A C3 1_555 1_555
C2A C1A 1_555 1_555
C3A C1 1_555 1_555
H1A C3A 1_555 1_555
C4A C2A 1_555 1_555
C5A O1A 1_555 1_555
C6A C4A 1_555 1_555
C7A C6A 1_555 1_555
C8A C6A 1_555 1_555
C9A C8A 1_555 1_555
H2A C9A 1_555 1_555
C10A C9A 1_555 1_555
C11A C10A 1_555 1_555
H3A C11A 1_555 1_555
C12A C11A 1_555 1_555
C13A N1A 1_555 1_555
C14A N1A 1_555 1_555
H4A C14A 1_555 1_555
H5A C14A 1_555 1_555
C15A C14A 1_555 1_555
H6A C15A 1_555 1_555
C16A C15A 1_555 1_555
H7A C16A 1_555 1_555
H8A C16A 1_555 1_555
C17A C16A 1_555 1_555
H9A C17A 1_555 1_555
H10A C17A 1_555 1_555
C18A C17A 1_555 1_555
H11A C18A 1_555 1_555
H12A C18A 1_555 1_555
C19A C18A 1_555 1_555
H13A C19A 1_555 1_555
H14A C19A 1_555 1_555
H15A C19A 1_555 1_555
C20A C15A 1_555 1_555
H16A C20A 1_555 1_555
H17A C20A 1_555 1_555
C21A C20A 1_555 1_555
H18A C21A 1_555 1_555
H19A C21A 1_555 1_555
H20A C21A 1_555 1_555
O4A C28A 1_555 1_555
O5A C22A 1_555 1_555
O6A C26A 1_555 1_555
N2A C28A 1_555 1_555
F3A C33A 1_555 1_555
F4A C31A 1_555 1_555
C22A C23A 1_555 1_555
C23A C24 1_555 1_555
H21A C23A 1_555 1_555
C24A C23 1_555 1_555
C25A C24A 1_555 1_555
C26A O5A 1_555 1_555
C27A C25A 1_555 1_555
C28A C27A 1_555 1_555
C29A C27A 1_555 1_555
C30A C29A 1_555 1_555
H22A C30A 1_555 1_555
C31A C30A 1_555 1_555
C32A C31A 1_555 1_555
H23A C32A 1_555 1_555
C33A C32A 1_555 1_555
C34A N2A 1_555 1_555
C35A N2A 1_555 1_555
H24A C35A 1_555 1_555
H25A C35A 1_555 1_555
C36A C35A 1_555 1_555
H26A C36A 1_555 1_555
C37A C36A 1_555 1_555
H27A C37A 1_555 1_555
H28A C37A 1_555 1_555
C38A C37A 1_555 1_555
H29A C38A 1_555 1_555
H30A C38A 1_555 1_555
C39A C38A 1_555 1_555
H31A C39A 1_555 1_555
H32A C39A 1_555 1_555
C40A C39A 1_555 1_555
H33A C40A 1_555 1_555
H34A C40A 1_555 1_555
H35A C40A 1_555 1_555
C41A C36A 1_555 1_555
H36A C41A 1_555 1_555
H37A C41A 1_555 1_555
C42A C41A 1_555 1_555
H38A C42A 1_555 1_555
H39A C42A 1_555 1_555
H40A C42A 1_555 1_555
C4 C5 1_555 1_555
C8 C13 1_555 1_555
C12 C13 1_555 1_555
C25 C26 1_555 1_555
C29 C34 1_555 1_555
C33 C34 1_555 1_555
C2A C3A 1_555 1_555
C4A C5A 1_555 1_555
C8A C13A 1_555 1_555
C12A C13A 1_555 1_555
C22A C24A 1_555 1_555
C25A C26A 1_555 1_555
C29A C34A 1_555 1_555
C33A C34A 1_555 1_555

#END
