
#######################################################################
#
#                 Cambridge Crystallographic Data Centre
#                                CCDC 
#
#######################################################################
#
# If this CIF has been generated from an entry in the Cambridge 
# Structural Database, then it will include bibliographic, chemical, 
# crystal, experimental, refinement or atomic coordinate data resulting 
# from the CCDC's data processing and validation procedures.
#
#######################################################################

data_CUYQES
_chemical_compound_source        'dried bark of silk trees albizzia julibrissin'
_chemical_name_common            'Tylophorine-B benzene solvate'
_chemical_formula_moiety         'C23 H25 N1 O3,C6 H6'
_chemical_name_systematic        
"2,3,6-Trimethoxyphenanthro(9,10:6',7')indolizidine benzene solvate"
_chemical_properties_biological  
'reported to have antitumour and antibiotic activity; in traditional Chinese medicine, used for pain relief, invigorating the circulation of the blood, treating insomnia and asthma, and the removal of strains'
_symmetry_cell_setting           triclinic
_symmetry_space_group_name_H-M   'P 1'
_symmetry_Int_Tables_number      1
_space_group_name_Hall           'P 1'
loop_
_symmetry_equiv_pos_site_id
_symmetry_equiv_pos_as_xyz
1 x,y,z
_cell_length_a                   5.3930(10)
_cell_length_b                   9.130(2)
_cell_length_c                   11.963(2)
_cell_angle_alpha                92.67(3)
_cell_angle_beta                 95.02(3)
_cell_angle_gamma                100.45(3)
_cell_volume                     575.869
_exptl_crystal_colour            'pale yellow'
_exptl_crystal_description       block
_cell_formula_units_Z            1
_exptl_crystal_recrystallization_method benzene/acetone
loop_
_atom_site_label
_atom_site_type_symbol
_atom_site_fract_x
_atom_site_fract_y
_atom_site_fract_z
O1 O 0.0884(6) 0.9618(4) 0.2243(2)
O2 O -0.3198(6) 0.8107(3) 0.1176(2)
O3 O -0.4947(6) 0.8094(4) -0.4897(3)
N1 N 0.6663(6) 1.4005(3) -0.2286(3)
C1 C 0.1242(6) 1.0782(4) -0.3012(3)
C2 C 0.0864(7) 1.0732(5) -0.4199(3)
H1 H 0.2087 1.1382 -0.4733
C3 C -0.1181(8) 0.9848(5) -0.4798(3)
H2 H -0.1238 0.9707 -0.5563
C4 C -0.2998(7) 0.8934(4) -0.4224(3)
C5 C -0.2660(7) 0.8914(4) -0.3081(3)
H3 H -0.3754 0.8328 -0.2787
C6 C -0.0535(7) 0.9817(4) -0.2456(3)
C7 C -0.0160(6) 0.9817(4) -0.1238(3)
C8 C -0.1953(7) 0.8936(4) -0.0623(3)
H4 H -0.3342 0.8323 -0.1118
C9 C -0.1579(7) 0.8929(4) 0.0520(3)
C10 C 0.0664(7) 0.9794(4) 0.1118(3)
C11 C 0.2314(7) 1.0672(4) 0.0527(3)
H5 H 0.3717 1.1390 0.1093
C12 C 0.1976(6) 1.0718(4) -0.0656(3)
C13 C 0.3750(7) 1.1698(4) -0.1244(3)
C14 C 0.6031(7) 1.2683(4) -0.0584(3)
H6 H 0.5432 1.3594 -0.0003
H7 H 0.6682 1.2207 -0.0003
C15 C 0.7922(6) 1.3379(4) -0.1342(3)
H8 H 0.8994 1.2683 -0.1574
C16 C 0.9925(7) 1.4726(4) -0.0826(4)
H9 H 0.9165 1.5272 -0.0291
H10 H 1.1255 1.4159 -0.0291
C17 C 1.0685(8) 1.5581(5) -0.1848(5)
H11 H 1.2515 1.5267 -0.1943
H12 H 1.0425 1.6654 -0.1670
C18 C 0.8754(8) 1.4872(5) -0.2824(4)
H13 H 0.9556 1.4151 -0.3349
H14 H 0.8306 1.5538 -0.3349
C19 C 0.5085(7) 1.2830(5) -0.3023(4)
H15 H 0.4175 1.3316 -0.3614
H16 H 0.5836 1.2203 -0.3614
C20 C 0.3342(6) 1.1751(4) -0.2383(3)
C21 C 0.3250(10) 1.0213(8) 0.2835(4)
H17 H 0.4992 0.9707 0.2498
H18 H 0.3312 1.0273 0.3592
H19 H 0.3494 1.1252 0.2697
C22 C -0.5297(9) 0.7136(5) 0.0623(4)
H20 H -0.6232 0.7503 0.0002
H21 H -0.4982 0.6390 0.0002
H22 H -0.6293 0.6596 0.1133
C23 C -0.6888(9) 0.7183(6) -0.4352(5)
H23 H -0.5871 0.6380 -0.3910
H24 H -0.7961 0.7767 -0.3910
H25 H -0.8371 0.6927 -0.4731
C24 C 0.9273(12) 0.3092(5) 0.3246(5)
H26 H 0.9819 0.2183 0.3249
C25 C 0.7650(12) 0.3429(6) 0.4021(5)
H27 H 0.7111 0.2745 0.4542
C26 C 0.6834(10) 0.4788(6) 0.4017(4)
H28 H 0.5749 0.5014 0.4536
C27 C 0.7640(11) 0.5811(5) 0.3239(5)
H29 H 0.7094 0.6720 0.3236
C28 C 0.9263(13) 0.5474(6) 0.2464(5)
H30 H 0.9802 0.6158 0.1943
C29 C 1.0079(12) 0.4115(7) 0.2468(5)
H31 H 1.1165 0.3890 0.1949
loop_
_geom_bond_atom_site_label_1
_geom_bond_atom_site_label_2
_geom_bond_site_symmetry_1
_geom_bond_site_symmetry_2
O1 C10 1_555 1_555
O2 C9 1_555 1_555
O3 C4 1_555 1_555
N1 C15 1_555 1_555
C1 C2 1_555 1_555
C2 H1 1_555 1_555
C3 C2 1_555 1_555
H2 C3 1_555 1_555
C4 C3 1_555 1_555
C5 C4 1_555 1_555
H3 C5 1_555 1_555
C6 C1 1_555 1_555
C7 C6 1_555 1_555
C8 C7 1_555 1_555
H4 C8 1_555 1_555
C9 C8 1_555 1_555
C10 C9 1_555 1_555
C11 C10 1_555 1_555
H5 C11 1_555 1_555
C12 C7 1_555 1_555
C13 C12 1_555 1_555
C14 C13 1_555 1_555
H6 C14 1_555 1_555
H7 C14 1_555 1_555
C15 C14 1_555 1_555
H8 C15 1_555 1_555
C16 C15 1_555 1_555
H9 C16 1_555 1_555
H10 C16 1_555 1_555
C17 C16 1_555 1_555
H11 C17 1_555 1_555
H12 C17 1_555 1_555
C18 N1 1_555 1_555
H13 C18 1_555 1_555
H14 C18 1_555 1_555
C19 N1 1_555 1_555
H15 C19 1_555 1_555
H16 C19 1_555 1_555
C20 C1 1_555 1_555
C21 O1 1_555 1_555
H17 C21 1_555 1_555
H18 C21 1_555 1_555
H19 C21 1_555 1_555
C22 O2 1_555 1_555
H20 C22 1_555 1_555
H21 C22 1_555 1_555
H22 C22 1_555 1_555
C23 O3 1_555 1_555
H23 C23 1_555 1_555
H24 C23 1_555 1_555
H25 C23 1_555 1_555
C24 H26 1_555 1_555
C25 C24 1_555 1_555
H27 C25 1_555 1_555
C26 C25 1_555 1_555
H28 C26 1_555 1_555
C27 C26 1_555 1_555
H29 C27 1_555 1_555
C28 C27 1_555 1_555
H30 C28 1_555 1_555
C29 C24 1_555 1_555
H31 C29 1_555 1_555
C5 C6 1_555 1_555
C11 C12 1_555 1_555
C13 C20 1_555 1_555
C17 C18 1_555 1_555
C19 C20 1_555 1_555
C28 C29 1_555 1_555

#END
