
#######################################################################
#
#                 Cambridge Crystallographic Data Centre
#                                CCDC 
#
#######################################################################
#
# If this CIF has been generated from an entry in the Cambridge 
# Structural Database, then it will include bibliographic, chemical, 
# crystal, experimental, refinement or atomic coordinate data resulting 
# from the CCDC's data processing and validation procedures.
#
#######################################################################

data_CUYXAW
_chemical_formula_moiety         '2(C4 H12 N2 2+),C16 H6 O8 4-,6(H2 O1)'
_chemical_name_systematic        
"bis(Piperazinediium) biphenyl-3,3',4,4'-tetracarboxylate hexahydrate"
_symmetry_cell_setting           triclinic
_symmetry_space_group_name_H-M   'P -1'
_symmetry_Int_Tables_number      2
_space_group_name_Hall           '-P 1'
loop_
_symmetry_equiv_pos_site_id
_symmetry_equiv_pos_as_xyz
1 x,y,z
2 -x,-y,-z
_cell_length_a                   7.260(3)
_cell_length_b                   12.744(6)
_cell_length_c                   16.409(8)
_cell_angle_alpha                75.833(7)
_cell_angle_beta                 88.378(7)
_cell_angle_gamma                87.605(7)
_cell_volume                     1470.47
_exptl_crystal_colour            colorless
_exptl_crystal_description       block
_cell_formula_units_Z            2
loop_
_atom_site_label
_atom_site_type_symbol
_atom_site_fract_x
_atom_site_fract_y
_atom_site_fract_z
C1 C 0.9820(5) -0.1650(3) 0.4025(2)
C2 C 0.8503(5) -0.2026(3) 0.3573(2)
C3 C 0.7106(5) -0.1311(3) 0.3183(2)
H1 H 0.6245 -0.1559 0.2872
C4 C 0.6951(5) -0.0238(3) 0.3241(2)
C5 C 0.5452(5) 0.0504(3) 0.2821(2)
C6 C 0.3687(5) 0.0150(3) 0.2787(3)
H2 H 0.3429 -0.0569 0.3031
C7 C 0.2306(5) 0.0852(3) 0.2395(3)
H3 H 0.1137 0.0592 0.2368
C8 C 0.2611(5) 0.1930(3) 0.2043(2)
C9 C 0.4400(5) 0.2302(3) 0.2061(2)
C10 C 0.5789(5) 0.1586(3) 0.2445(2)
H4 H 0.6974 0.1834 0.2452
C11 C 0.8275(5) 0.0115(3) 0.3703(3)
H5 H 0.8211 0.0826 0.3754
C12 C 0.9680(5) -0.0580(3) 0.4087(2)
H6 H 1.0548 -0.0328 0.4393
C13 C 1.1439(5) -0.2327(3) 0.4443(3)
C14 C 0.8461(5) -0.3186(3) 0.3540(2)
C15 C 0.1022(5) 0.2693(4) 0.1708(3)
C16 C 0.4880(5) 0.3463(3) 0.1686(2)
O1 O 0.8084(4) -0.3390(2) 0.28523(18)
O2 O 0.8752(4) -0.3899(2) 0.41937(18)
O3 O 1.2575(4) -0.2719(3) 0.4013(2)
O4 O 1.1556(4) -0.2392(3) 0.52161(18)
O5 O -0.0157(4) 0.2395(3) 0.1282(2)
O6 O 0.0953(4) 0.3586(3) 0.1882(2)
O7 O 0.4808(4) 0.3825(2) 0.09055(16)
O8 O 0.5408(4) 0.3985(2) 0.21808(18)
C17 C 0.2275(5) 0.2827(4) 0.3952(3)
H7 H 0.2293 0.2937 0.3346
H8 H 0.1392 0.2277 0.4186
C18 C 0.4158(5) 0.2440(3) 0.4284(3)
H9 H 0.4112 0.2250 0.4894
H10 H 0.4547 0.1799 0.4097
C19 C 0.4914(6) 0.4302(4) 0.4212(3)
H11 H 0.5810 0.4850 0.3996
H12 H 0.4870 0.4174 0.4819
C20 C 0.3049(6) 0.4711(3) 0.3870(3)
H13 H 0.2673 0.5356 0.4054
H14 H 0.3107 0.4898 0.3260
N1 N 0.5501(4) 0.3300(3) 0.3981(2)
H23 H 0.6610 0.3072 0.4203
H24 H 0.5622 0.3429 0.3418
N2 N 0.1686(4) 0.3857(3) 0.4173(2)
H25 H 0.0585 0.4088 0.3943
H26 H 0.1550 0.3737 0.4735
C21 C 0.5979(7) -0.0169(4) 0.0770(3)
H15 H 0.6344 0.0092 0.1248
H16 H 0.6519 -0.0892 0.0828
C22 C 0.6668(6) 0.0554(4) -0.0015(3)
H17 H 0.8004 0.0555 -0.0008
H18 H 0.6201 0.1288 -0.0049
N3 N 0.6091(7) 0.0207(5) -0.0763(3)
H27 H 0.6596 -0.0452 -0.0755
H28 H 0.6493 0.0674 -0.1232
C21A C 0.4021(7) 0.0169(4) -0.0770(3)
H15A H 0.3656 -0.0092 -0.1248
H16A H 0.3481 0.0892 -0.0828
C22A C 0.3332(6) -0.0554(4) 0.0015(3)
H17A H 0.1996 -0.0555 0.0008
H18A H 0.3799 -0.1288 0.0049
N3A N 0.3909(7) -0.0207(5) 0.0763(3)
H27A H 0.3404 0.0452 0.0755
H28A H 0.3507 -0.0674 0.1232
C23 C 0.8421(5) 0.4555(3) 0.0479(2)
H19 H 0.7096 0.4543 0.0574
H20 H 0.8985 0.4000 0.0924
C24 C 0.8870(6) 0.4306(4) -0.0343(3)
H21 H 0.8202 0.4811 -0.0785
H22 H 0.8500 0.3580 -0.0332
N4 N 0.9065(6) 0.5607(4) 0.0519(3)
H29 H 0.8806 0.5715 0.1032
H30 H 0.8460 0.6129 0.0140
C23A C 1.1579(5) 0.5445(3) -0.0479(2)
H19A H 1.2904 0.5457 -0.0574
H20A H 1.1015 0.6000 -0.0924
C24A C 1.1130(6) 0.5694(4) 0.0343(3)
H21A H 1.1798 0.5189 0.0785
H22A H 1.1500 0.6420 0.0332
N4A N 1.0935(6) 0.4393(4) -0.0519(3)
H29A H 1.1194 0.4285 -0.1032
H30A H 1.1540 0.3871 -0.0140
O9 O 0.8861(4) 0.4405(2) 0.30822(18)
H35 H 0.9297 0.4358 0.2571
H36 H 0.8635 0.5103 0.2955
O10 O 0.5439(4) 0.6161(2) 0.18228(19)
H39 H 0.5498 0.5457 0.1919
H40 H 0.6318 0.6325 0.2225
O11 O 0.2947(5) 0.7649(3) 0.2307(2)
H33 H 0.2612 0.7435 0.2904
H34 H 0.3678 0.6990 0.2245
O12 O 0.0189(5) 0.1098(3) 0.0196(2)
H31 H 0.0410 0.1602 -0.0360
H32 H 0.0025 0.1758 0.0525
O13 O 0.4931(6) 0.2535(3) 0.9802(2)
H41 H 0.4814 0.3031 0.9252
H42 H 0.4750 0.3034 1.0216
O14 O -0.0265(7) 0.7774(4) 0.1417(3)
H37 H -0.0021 0.8248 0.1552
H38 H 0.0508 0.7273 0.1527
loop_
_geom_bond_atom_site_label_1
_geom_bond_atom_site_label_2
_geom_bond_site_symmetry_1
_geom_bond_site_symmetry_2
C1 C2 1_555 1_555
C2 C3 1_555 1_555
C3 H1 1_555 1_555
C4 C3 1_555 1_555
C5 C4 1_555 1_555
C6 C5 1_555 1_555
H2 C6 1_555 1_555
C7 C6 1_555 1_555
H3 C7 1_555 1_555
C8 C7 1_555 1_555
C9 C8 1_555 1_555
C10 C5 1_555 1_555
H4 C10 1_555 1_555
C11 C4 1_555 1_555
H5 C11 1_555 1_555
C12 C1 1_555 1_555
H6 C12 1_555 1_555
C13 C1 1_555 1_555
C14 C2 1_555 1_555
C15 C8 1_555 1_555
C16 C9 1_555 1_555
C17 H7 1_555 1_555
H8 C17 1_555 1_555
C18 C17 1_555 1_555
H9 C18 1_555 1_555
H10 C18 1_555 1_555
C19 H11 1_555 1_555
H12 C19 1_555 1_555
C20 C19 1_555 1_555
H13 C20 1_555 1_555
H14 C20 1_555 1_555
C21 H15 1_555 1_555
H16 C21 1_555 1_555
C22 C21 1_555 1_555
H17 C22 1_555 1_555
H18 C22 1_555 1_555
C23 H19 1_555 1_555
H20 C23 1_555 1_555
C24 C23 1_555 1_555
H21 C24 1_555 1_555
H22 C24 1_555 1_555
N1 C18 1_555 1_555
H23 N1 1_555 1_555
H24 N1 1_555 1_555
N2 C17 1_555 1_555
H25 N2 1_555 1_555
H26 N2 1_555 1_555
O1 C14 1_555 1_555
O2 C14 1_555 1_555
O3 C13 1_555 1_555
O4 C13 1_555 1_555
O5 C15 1_555 1_555
O6 C15 1_555 1_555
O7 C16 1_555 1_555
O8 C16 1_555 1_555
O9 H35 1_555 1_555
O10 H39 1_555 1_555
O11 H33 1_555 1_555
O12 H31 1_555 1_555
O13 H41 1_555 1_555
O14 H37 1_555 1_555
N3 C22 1_555 1_555
H27 N3 1_555 1_555
H28 N3 1_555 1_555
N4 C23 1_555 1_555
H29 N4 1_555 1_555
H30 N4 1_555 1_555
H32 O12 1_555 1_555
H34 O11 1_555 1_555
H36 O9 1_555 1_555
H38 O14 1_555 1_555
H40 O10 1_555 1_555
H42 O13 1_555 1_555
C21A N3 1_555 1_555
H15A C21A 1_555 1_555
H16A C21A 1_555 1_555
C22A C21A 1_555 1_555
H17A C22A 1_555 1_555
H18A C22A 1_555 1_555
C23A H19A 1_555 1_555
H20A C23A 1_555 1_555
C24A N4 1_555 1_555
H21A C24A 1_555 1_555
H22A C24A 1_555 1_555
N3A C21 1_555 1_555
H27A N3A 1_555 1_555
H28A N3A 1_555 1_555
N4A C24 1_555 1_555
H29A N4A 1_555 1_555
H30A N4A 1_555 1_555
C9 C10 1_555 1_555
C11 C12 1_555 1_555
C19 N1 1_555 1_555
C20 N2 1_555 1_555
C22A N3A 1_555 1_555
C23A C24A 1_555 1_555
C23A N4A 1_555 1_555

#END
