
#######################################################################
#
#                 Cambridge Crystallographic Data Centre
#                                CCDC 
#
#######################################################################
#
# If this CIF has been generated from an entry in the Cambridge 
# Structural Database, then it will include bibliographic, chemical, 
# crystal, experimental, refinement or atomic coordinate data resulting 
# from the CCDC's data processing and validation procedures.
#
#######################################################################

data_CUYXEA
_chemical_formula_moiety         'C4 H12 N2 2+,C16 H8 O8 2-,2(H2 O1)'
_chemical_name_systematic        
"Piperazinediium biphenyl-3,3',4,4'-tetracarboxylate dihydrate"
_symmetry_cell_setting           triclinic
_symmetry_space_group_name_H-M   'P -1'
_symmetry_Int_Tables_number      2
_space_group_name_Hall           '-P 1'
loop_
_symmetry_equiv_pos_site_id
_symmetry_equiv_pos_as_xyz
1 x,y,z
2 -x,-y,-z
_cell_length_a                   6.2017(9)
_cell_length_b                   8.3441(13)
_cell_length_c                   9.6508(14)
_cell_angle_alpha                91.155(2)
_cell_angle_beta                 93.378(2)
_cell_angle_gamma                94.221(2)
_cell_volume                     497.035
_exptl_crystal_colour            colorless
_exptl_crystal_description       plate
_cell_formula_units_Z            1
loop_
_atom_site_label
_atom_site_type_symbol
_atom_site_fract_x
_atom_site_fract_y
_atom_site_fract_z
C1 C 0.7433(5) 0.1346(4) 0.5675(3)
C2 C 0.5989(5) 0.0442(4) 0.4760(3)
C3 C 0.6501(5) 0.0378(4) 0.3374(3)
C4 C 0.8370(5) 0.1194(4) 0.2961(3)
C5 C 0.9797(5) 0.2123(3) 0.3876(3)
C6 C 0.9313(5) 0.2203(3) 0.5285(3)
C7 C 1.0578(5) 0.3113(4) 0.6480(3)
C8 C 1.1718(5) 0.2930(4) 0.3190(3)
H1 H 0.874(6) 0.109(5) 0.198(4)
H2 H 0.559(6) -0.031(5) 0.266(4)
H3 H 0.706(5) 0.139(4) 0.661(4)
H4 H 1.249(9) 0.413(6) 0.513(3)
O1 O 1.2108(4) 0.4160(3) 0.6220(3)
O2 O 1.0121(4) 0.2876(3) 0.7674(3)
O3 O 1.2027(4) 0.2567(3) 0.1978(3)
O4 O 1.2984(4) 0.4001(3) 0.3852(3)
C1A C 0.2567(5) -0.1346(4) 0.4325(3)
C2A C 0.4011(5) -0.0442(4) 0.5240(3)
C3A C 0.3499(5) -0.0378(4) 0.6626(3)
C4A C 0.1630(5) -0.1194(4) 0.7039(3)
C5A C 0.0203(5) -0.2123(3) 0.6124(3)
C6A C 0.0687(5) -0.2203(3) 0.4715(3)
C7A C -0.0578(5) -0.3113(4) 0.3520(3)
C8A C -0.1718(5) -0.2930(4) 0.6810(3)
H1A H 0.126(6) -0.109(5) 0.802(4)
H2A H 0.441(6) 0.031(5) 0.734(4)
H3A H 0.294(5) -0.139(4) 0.339(4)
H4A H -0.249(9) -0.413(6) 0.487(3)
O1A O -0.2108(4) -0.4160(3) 0.3780(3)
O2A O -0.0121(4) -0.2876(3) 0.2326(3)
O3A O -0.2027(4) -0.2567(3) 0.8022(3)
O4A O -0.2984(4) -0.4001(3) 0.6148(3)
C9 C 0.5571(6) 0.3898(4) 0.8952(4)
C10 C 0.6949(6) 0.4209(5) 1.0274(4)
H5 H 0.768(7) 0.327(5) 1.048(4)
H6 H 0.791(7) 0.519(5) 1.025(4)
H7 H 0.643(7) 0.370(5) 0.824(5)
H8 H 0.447(6) 0.297(4) 0.903(4)
H11 H 0.535(7) 0.623(5) 0.840(4)
H12 H 0.341(8) 0.506(6) 0.771(5)
N1 N 0.4388(5) 0.5332(4) 0.8589(3)
C9A C 0.4429(6) 0.6102(4) 1.1048(4)
C10A C 0.3051(6) 0.5791(5) 0.9726(4)
H5A H 0.232(7) 0.673(5) 0.952(4)
H6A H 0.209(7) 0.481(5) 0.975(4)
H7A H 0.357(7) 0.630(5) 1.176(5)
H8A H 0.553(6) 0.703(4) 1.097(4)
H11A H 0.465(7) 0.377(5) 1.160(4)
H12A H 0.659(8) 0.494(6) 1.229(5)
N1A N 0.5612(5) 0.4668(4) 1.1411(3)
H9 H 0.354(5) 0.987(5) 0.017(4)
H10 H 0.196(6) 1.059(5) 0.107(4)
O5 O 0.2295(10) 0.9471(6) 0.0632(5)
loop_
_geom_bond_atom_site_label_1
_geom_bond_atom_site_label_2
_geom_bond_site_symmetry_1
_geom_bond_site_symmetry_2
C1 C2 1_555 1_555
C2 C3 1_555 1_555
C3 C4 1_555 1_555
C4 C5 1_555 1_555
C5 C6 1_555 1_555
C6 C1 1_555 1_555
C7 C6 1_555 1_555
C8 C5 1_555 1_555
C9 C10 1_555 1_555
C10 H5 1_555 1_555
H1 C4 1_555 1_555
H2 C3 1_555 1_555
H3 C1 1_555 1_555
H4 O1 1_555 1_555
H6 C10 1_555 1_555
H7 C9 1_555 1_555
H8 C9 1_555 1_555
H9 O5 1_555 1_555
H10 O5 1_555 1_555
H11 N1 1_555 1_555
H12 N1 1_555 1_555
N1 C9 1_555 1_555
O1 C7 1_555 1_555
O2 C7 1_555 1_555
O3 C8 1_555 1_555
O4 C8 1_555 1_555
C1A C2A 1_555 1_555
C2A C2 1_555 1_555
C3A C2A 1_555 1_555
C4A C3A 1_555 1_555
C5A C4A 1_555 1_555
C6A C1A 1_555 1_555
C7A C6A 1_555 1_555
C8A C5A 1_555 1_555
C9A C10A 1_555 1_555
C10A N1 1_555 1_555
H1A C4A 1_555 1_555
H2A C3A 1_555 1_555
H3A C1A 1_555 1_555
H4A O1A 1_555 1_555
H5A C10A 1_555 1_555
H6A C10A 1_555 1_555
H7A C9A 1_555 1_555
H8A C9A 1_555 1_555
H11A N1A 1_555 1_555
H12A N1A 1_555 1_555
N1A C10 1_555 1_555
O1A C7A 1_555 1_555
O2A C7A 1_555 1_555
O3A C8A 1_555 1_555
O4A C8A 1_555 1_555
C5A C6A 1_555 1_555
C9A N1A 1_555 1_555

#END
