
#######################################################################
#
#                 Cambridge Crystallographic Data Centre
#                                CCDC 
#
#######################################################################
#
# If this CIF has been generated from an entry in the Cambridge 
# Structural Database, then it will include bibliographic, chemical, 
# crystal, experimental, refinement or atomic coordinate data resulting 
# from the CCDC's data processing and validation procedures.
#
#######################################################################

data_CUZJAK
_chemical_name_common            
'1-ethoxy-N,N-dimethylethaniminium tetraphenylborate'
_chemical_formula_moiety         'C24 H20 B1 1-,C6 H14 N1 O1 1+'
_chemical_name_systematic        
'(ethoxyethylidene)dimethylazanium tetraphenylborate'
_symmetry_cell_setting           orthorhombic
_symmetry_space_group_name_H-M   'P 21 21 21'
_symmetry_Int_Tables_number      19
_space_group_name_Hall           'P 2ac 2ab'
loop_
_symmetry_equiv_pos_site_id
_symmetry_equiv_pos_as_xyz
1 x,y,z
2 1/2-x,-y,1/2+z
3 -x,1/2+y,1/2-z
4 1/2+x,1/2-y,-z
_cell_length_a                   9.9849(6)
_cell_length_b                   11.5293(7)
_cell_length_c                   21.1980(12)
_cell_angle_alpha                90
_cell_angle_beta                 90
_cell_angle_gamma                90
_cell_volume                     2440.29
_exptl_crystal_colour            colorless
_exptl_crystal_description       block
_cell_formula_units_Z            4
loop_
_atom_site_label
_atom_site_type_symbol
_atom_site_fract_x
_atom_site_fract_y
_atom_site_fract_z
O1 O 0.30998(11) 0.52467(9) 0.12549(5)
C1 C 0.21195(15) 0.59672(13) 0.11353(7)
N1 N 0.21207(12) 0.69225(11) 0.14580(6)
C2 C 0.10847(17) 0.57082(16) 0.06546(7)
H1 H 0.0346 0.5281 0.0851
H2 H 0.1479 0.5237 0.0318
H3 H 0.0745 0.6436 0.0477
C3 C 0.31599(17) 0.41096(13) 0.09413(7)
H4 H 0.3350 0.4204 0.0486
H5 H 0.2299 0.3693 0.0989
C4 C 0.42626(19) 0.34548(14) 0.12555(9)
H6 H 0.5109 0.3873 0.1200
H7 H 0.4337 0.2682 0.1066
H8 H 0.4067 0.3379 0.1707
C5 C 0.10603(17) 0.77963(15) 0.13914(8)
H9 H 0.1223 0.8259 0.1011
H10 H 0.1060 0.8305 0.1762
H11 H 0.0190 0.7408 0.1357
C6 C 0.31634(16) 0.72012(13) 0.19196(7)
H12 H 0.2801 0.7118 0.2347
H13 H 0.3466 0.8001 0.1856
H14 H 0.3922 0.6671 0.1865
B1 B 0.74360(16) 0.96058(13) 0.13424(7)
C7 C 0.81051(14) 1.07099(12) 0.09675(6)
C8 C 0.74193(16) 1.17297(13) 0.08187(7)
H15 H 0.6496 1.1784 0.0923
C9 C 0.80315(18) 1.26719(13) 0.05239(7)
H16 H 0.7524 1.3349 0.0435
C10 C 0.93698(18) 1.26280(14) 0.03606(7)
H17 H 0.9785 1.3261 0.0151
C11 C 1.00906(16) 1.16413(14) 0.05094(7)
H18 H 1.1016 1.1600 0.0408
C12 C 0.94734(15) 1.07112(13) 0.08062(7)
H19 H 0.9996 1.0047 0.0905
C13 C 0.83345(14) 0.93481(12) 0.19804(6)
C14 C 0.91903(14) 1.01811(13) 0.22415(7)
H20 H 0.9228 1.0927 0.2052
C15 C 0.99888(15) 0.99624(15) 0.27663(7)
H21 H 1.0568 1.0550 0.2922
C16 C 0.99417(16) 0.88928(15) 0.30619(7)
H22 H 1.0504 0.8729 0.3412
C17 C 0.90577(16) 0.80661(14) 0.28360(7)
H23 H 0.8984 0.7340 0.3044
C18 C 0.82782(15) 0.82896(13) 0.23073(7)
H24 H 0.7684 0.7704 0.2161
C19 C 0.74159(14) 0.84278(12) 0.09026(6)
C20 C 0.82655(15) 0.82106(13) 0.03890(6)
H25 H 0.8890 0.8791 0.0268
C21 C 0.82289(18) 0.71751(14) 0.00481(7)
H26 H 0.8823 0.7065 -0.0297
C22 C 0.73336(19) 0.63092(15) 0.02089(8)
H27 H 0.7312 0.5601 -0.0020
C23 C 0.64692(18) 0.64933(14) 0.07098(8)
H28 H 0.5842 0.5911 0.0825
C24 C 0.65189(16) 0.75297(13) 0.10442(7)
H29 H 0.5915 0.7634 0.1386
C25 C 0.58849(14) 0.98927(12) 0.15445(6)
C26 C 0.54660(14) 1.00130(13) 0.21695(7)
H30 H 0.6106 0.9916 0.2497
C27 C 0.41480(16) 1.02689(14) 0.23328(7)
H31 H 0.3906 1.0341 0.2765
C28 C 0.31913(15) 1.04184(13) 0.18703(8)
H32 H 0.2293 1.0601 0.1979
C29 C 0.35655(15) 1.02972(13) 0.12432(8)
H33 H 0.2919 1.0395 0.0919
C30 C 0.48800(14) 1.00335(13) 0.10890(7)
H34 H 0.5109 0.9944 0.0657
loop_
_geom_bond_atom_site_label_1
_geom_bond_atom_site_label_2
_geom_bond_site_symmetry_1
_geom_bond_site_symmetry_2
O1 C1 1_555 1_555
C1 N1 1_555 1_555
N1 C5 1_555 1_555
C2 C1 1_555 1_555
H1 C2 1_555 1_555
H2 C2 1_555 1_555
H3 C2 1_555 1_555
C3 O1 1_555 1_555
H4 C3 1_555 1_555
H5 C3 1_555 1_555
C4 C3 1_555 1_555
H6 C4 1_555 1_555
H7 C4 1_555 1_555
H8 C4 1_555 1_555
C5 H9 1_555 1_555
H10 C5 1_555 1_555
H11 C5 1_555 1_555
C6 N1 1_555 1_555
H12 C6 1_555 1_555
H13 C6 1_555 1_555
H14 C6 1_555 1_555
B1 C7 1_555 1_555
C7 C8 1_555 1_555
C8 H15 1_555 1_555
C9 C8 1_555 1_555
H16 C9 1_555 1_555
C10 C9 1_555 1_555
H17 C10 1_555 1_555
C11 C10 1_555 1_555
H18 C11 1_555 1_555
C12 C7 1_555 1_555
H19 C12 1_555 1_555
C13 B1 1_555 1_555
C14 C13 1_555 1_555
H20 C14 1_555 1_555
C15 C14 1_555 1_555
H21 C15 1_555 1_555
C16 C15 1_555 1_555
H22 C16 1_555 1_555
C17 C16 1_555 1_555
H23 C17 1_555 1_555
C18 C13 1_555 1_555
H24 C18 1_555 1_555
C19 B1 1_555 1_555
C20 C19 1_555 1_555
H25 C20 1_555 1_555
C21 C20 1_555 1_555
H26 C21 1_555 1_555
C22 C21 1_555 1_555
H27 C22 1_555 1_555
C23 C22 1_555 1_555
H28 C23 1_555 1_555
C24 C19 1_555 1_555
H29 C24 1_555 1_555
C25 B1 1_555 1_555
C26 C25 1_555 1_555
H30 C26 1_555 1_555
C27 C26 1_555 1_555
H31 C27 1_555 1_555
C28 C27 1_555 1_555
H32 C28 1_555 1_555
C29 C28 1_555 1_555
H33 C29 1_555 1_555
C30 C25 1_555 1_555
H34 C30 1_555 1_555
C11 C12 1_555 1_555
C17 C18 1_555 1_555
C23 C24 1_555 1_555
C29 C30 1_555 1_555

#END
