
#######################################################################
#
#                 Cambridge Crystallographic Data Centre
#                                CCDC 
#
#######################################################################
#
# If this CIF has been generated from an entry in the Cambridge 
# Structural Database, then it will include bibliographic, chemical, 
# crystal, experimental, refinement or atomic coordinate data resulting 
# from the CCDC's data processing and validation procedures.
#
#######################################################################

data_CUZJIS
_chemical_formula_moiety         'C5 H6 N6'
_chemical_name_systematic        6,7-dimethyltetrazolo[1,5-b][1,2,4]triazine
_symmetry_cell_setting           triclinic
_symmetry_space_group_name_H-M   'P 1'
_symmetry_Int_Tables_number      1
_space_group_name_Hall           'P 1'
loop_
_symmetry_equiv_pos_site_id
_symmetry_equiv_pos_as_xyz
1 x,y,z
_cell_length_a                   10.8059(4)
_cell_length_b                   5.8869(3)
_cell_length_c                   21.7315(8)
_cell_angle_alpha                90.000
_cell_angle_beta                 101.079(4)
_cell_angle_gamma                90.000
_cell_volume                     1356.65
_cell_formula_units_Z            8
loop_
_atom_site_label
_atom_site_type_symbol
_atom_site_fract_x
_atom_site_fract_y
_atom_site_fract_z
N1 N 0.3386(1) 0.1351(2) 0.1573
N2 N 0.4761(1) -0.2757(2) 0.1935
N3 N 0.3849(1) -0.1908(2) 0.2222
C1 C 0.4973(1) -0.1483(2) 0.1476(1)
N4 N 0.2565(1) -0.1446(2) 0.2828
C2 C 0.4277(1) 0.0625(2) 0.1294(1)
N5 N 0.3459(1) -0.2837(2) 0.2714
C3 C 0.3199(1) -0.0001(2) 0.2053
N6 N 0.2373(1) 0.0310(2) 0.2429
C4 C 0.4570(1) 0.1985(2) 0.0764(1)
H1 H 0.4243 0.1203 0.0368
H2 H 0.5485 0.2165 0.0814
H3 H 0.4174 0.3483 0.0761
C5 C 0.5968(1) -0.2233(3) 0.1132(1)
H4 H 0.6632 -0.1077 0.1174
H5 H 0.5597 -0.2442 0.0687
H6 H 0.6331 -0.3673 0.1308
N8 N 0.1581(1) 0.6301(2) 0.1176
C7 C 0.0837(1) 0.4744(2) 0.1334(1)
C8 C 0.1914(1) 0.5921(2) 0.0615(1)
N9 N 0.0732(1) 0.2479(2) 0.0390
N10 N 0.1504(1) 0.4139(2) 0.0247
N11 N 0.2662(1) 0.7188(2) 0.0328
C9 C 0.0415(1) 0.2775(2) 0.0935(1)
N12 N 0.2673(1) 0.6109(2) -0.0216
C10 C 0.0405(1) 0.5011(2) 0.1939(1)
H7 H 0.0726 0.3748 0.2218
H8 H -0.0519 0.5011 0.1862
H9 H 0.0722 0.6449 0.2135
N13 N 0.1971(1) 0.4248(2) -0.0282
C11 C -0.0408(1) 0.1021(2) 0.1145(1)
H10 H 0.0049 0.0276 0.1524
H11 H -0.0646 -0.0112 0.0813
H12 H -0.1170 0.1746 0.1236
N7? N 0.3199(1) -0.0001(2) 0.2053
C6? C 0.3849(1) -0.1908(2) 0.2222
N14? N 0.1914(1) 0.5921(2) 0.0615(1)
C12? C 0.1504(1) 0.4139(2) 0.0247
loop_
_geom_bond_atom_site_label_1
_geom_bond_atom_site_label_2
_geom_bond_site_symmetry_1
_geom_bond_site_symmetry_2
N1 C2 1_555 1_555
N2 N3 1_555 1_555
N3 N5 1_555 1_555
C1 N2 1_555 1_555
N4 N5 1_555 1_555
C2 C1 1_555 1_555
C3 N1 1_555 1_555
N6 N4 1_555 1_555
C4 C2 1_555 1_555
H1 C4 1_555 1_555
H2 C4 1_555 1_555
H3 C4 1_555 1_555
C5 C1 1_555 1_555
H4 C5 1_555 1_555
H5 C5 1_555 1_555
H6 C5 1_555 1_555
N8 C7 1_555 1_555
C7 C9 1_555 1_555
C8 N8 1_555 1_555
N9 N10 1_555 1_555
N10 C8 1_555 1_555
N11 C8 1_555 1_555
C9 N9 1_555 1_555
N12 N11 1_555 1_555
C10 C7 1_555 1_555
H7 C10 1_555 1_555
H8 C10 1_555 1_555
H9 C10 1_555 1_555
N13 N10 1_555 1_555
C11 C9 1_555 1_555
H10 C11 1_555 1_555
H11 C11 1_555 1_555
H12 C11 1_555 1_555
N3 C3 1_555 1_555
C3 N6 1_555 1_555
N12 N13 1_555 1_555

#END
