
#######################################################################
#
#                 Cambridge Crystallographic Data Centre
#                                CCDC 
#
#######################################################################
#
# If this CIF has been generated from an entry in the Cambridge 
# Structural Database, then it will include bibliographic, chemical, 
# crystal, experimental, refinement or atomic coordinate data resulting 
# from the CCDC's data processing and validation procedures.
#
#######################################################################

data_CUZPUK
_chemical_formula_moiety         'C27 H36 Cl4 N2 Si1,C4 H8 O1'
_chemical_name_systematic        
'(1,3-bis(2,6-diisopropylphenyl)-1H-imidazol-3-ium-5-yl)(tetrachloro)silicate tetrahydrofuran solvate'
_symmetry_cell_setting           monoclinic
_symmetry_space_group_name_H-M   'P 21/c'
_symmetry_Int_Tables_number      14
_space_group_name_Hall           '-P 2ybc'
loop_
_symmetry_equiv_pos_site_id
_symmetry_equiv_pos_as_xyz
1 x,y,z
2 -x,1/2+y,1/2-z
3 -x,-y,-z
4 x,1/2-y,1/2+z
_cell_length_a                   11.770(2)
_cell_length_b                   18.000(3)
_cell_length_c                   17.322(3)
_cell_angle_alpha                90
_cell_angle_beta                 109.493(2)
_cell_angle_gamma                90
_cell_volume                     3459.49
_exptl_crystal_colour            colorless
_exptl_crystal_description       plate
_cell_formula_units_Z            4
loop_
_atom_site_label
_atom_site_type_symbol
_atom_site_fract_x
_atom_site_fract_y
_atom_site_fract_z
Si1 Si 1.10787(10) 0.59986(8) 0.36920(8)
Cl1 Cl 1.10404(13) 0.53321(9) 0.26255(10)
Cl2 Cl 1.21023(12) 0.67870(9) 0.33706(11)
Cl3 Cl 1.18451(14) 0.51214(12) 0.44556(11)
Cl4 Cl 1.10954(14) 0.66653(13) 0.47608(10)
N1 N 0.7483(3) 0.5774(2) 0.3220(2)
N2 N 0.8568(3) 0.63911(19) 0.2653(2)
C1 C 0.7449(4) 0.6233(3) 0.2620(3)
H1 H 0.675(4) 0.640(2) 0.220(3)
C2 C 0.8678(3) 0.5640(2) 0.3670(3)
H2 H 0.8954 0.5338 0.4130
C3 C 0.9381(3) 0.6021(2) 0.3329(2)
C4 C 0.8864(4) 0.6904(3) 0.2097(3)
C5 C 0.9123(4) 0.7637(3) 0.2356(3)
C6 C 0.9406(5) 0.8117(3) 0.1816(3)
H3 H 0.9582 0.8611 0.1963
C7 C 0.9429(5) 0.7872(4) 0.1074(4)
H4 H 0.9636 0.8199 0.0727
C8 C 0.9149(5) 0.7150(4) 0.0837(3)
H5 H 0.9162 0.6998 0.0327
C9 C 0.8846(4) 0.6638(3) 0.1341(3)
C10 C 0.8435(5) 0.5855(3) 0.1037(3)
H6 H 0.8500 0.5543 0.1513
C11 C 0.7101(5) 0.5872(3) 0.0484(4)
H7 H 0.6844 0.5379 0.0293
H8 H 0.6617 0.6056 0.0792
H9 H 0.7012 0.6192 0.0024
C12 C 0.9202(6) 0.5497(3) 0.0566(4)
H10 H 0.8903 0.5008 0.0390
H11 H 0.9153 0.5796 0.0097
H12 H 1.0026 0.5466 0.0918
C13 C 0.9040(4) 0.7929(3) 0.3161(3)
H13 H 0.9055 0.7505 0.3519
C14 C 1.0073(5) 0.8448(3) 0.3600(4)
H14 H 0.9980 0.8616 0.4102
H15 H 1.0824 0.8188 0.3720
H16 H 1.0067 0.8867 0.3257
C15 C 0.7845(5) 0.8332(4) 0.2985(4)
H17 H 0.7781 0.8519 0.3488
H18 H 0.7806 0.8739 0.2618
H19 H 0.7194 0.7994 0.2739
C16 C 0.6436(4) 0.5433(3) 0.3351(3)
C17 C 0.5884(4) 0.5821(3) 0.3830(3)
C18 C 0.4864(4) 0.5479(4) 0.3910(4)
H20 H 0.4455 0.5712 0.4219
C19 C 0.4453(5) 0.4819(4) 0.3554(4)
H21 H 0.3768 0.4611 0.3620
C20 C 0.5032(5) 0.4447(4) 0.3091(4)
H22 H 0.4735 0.3993 0.2852
C21 C 0.6068(4) 0.4755(3) 0.2980(3)
C22 C 0.6693(6) 0.4353(4) 0.2467(4)
H23 H 0.7389 0.4653 0.2472
C23 C 0.5887(8) 0.4274(5) 0.1581(5)
H24 H 0.6315 0.4017 0.1278
H25 H 0.5179 0.3997 0.1557
H26 H 0.5656 0.4757 0.1348
C24 C 0.7166(8) 0.3595(5) 0.2829(5)
H27 H 0.7556 0.3355 0.2489
H28 H 0.7734 0.3659 0.3370
H29 H 0.6506 0.3294 0.2854
C25 C 0.6316(5) 0.6565(3) 0.4219(4)
H30 H 0.7154 0.6627 0.4242
C26 C 0.5579(6) 0.7196(3) 0.3694(4)
H31 H 0.5866 0.7664 0.3950
H32 H 0.5662 0.7182 0.3161
H33 H 0.4745 0.7136 0.3641
C27 C 0.6289(7) 0.6632(4) 0.5098(4)
H34 H 0.6572 0.7115 0.5312
H35 H 0.5478 0.6565 0.5095
H36 H 0.6799 0.6259 0.5436
O1 O 0.4785(4) 0.6577(4) 0.1526(4)
C28 C 0.3854(8) 0.6215(8) 0.1709(7)
H37 H 0.4008 0.5685 0.1766
H38 H 0.3789 0.6404 0.2217
C29 C 0.2742(7) 0.6363(8) 0.1027(7)
H39 H 0.2257 0.6739 0.1171
H40 H 0.2267 0.5915 0.0857
C30 C 0.3202(13) 0.6631(9) 0.0385(6)
H41 H 0.2644 0.6975 0.0019
H42 H 0.3356 0.6222 0.0069
C31 C 0.4343(9) 0.7010(6) 0.0873(7)
H43 H 0.4896 0.7042 0.0565
H44 H 0.4184 0.7506 0.1029
loop_
_geom_bond_atom_site_label_1
_geom_bond_atom_site_label_2
_geom_bond_site_symmetry_1
_geom_bond_site_symmetry_2
Si1 Cl1 1_555 1_555
Cl2 Si1 1_555 1_555
Cl3 Si1 1_555 1_555
Cl4 Si1 1_555 1_555
N1 C1 1_555 1_555
N2 C1 1_555 1_555
C1 H1 1_555 1_555
C2 N1 1_555 1_555
H2 C2 1_555 1_555
C3 Si1 1_555 1_555
C4 N2 1_555 1_555
C5 C4 1_555 1_555
C6 C5 1_555 1_555
H3 C6 1_555 1_555
C7 C6 1_555 1_555
H4 C7 1_555 1_555
C8 C7 1_555 1_555
H5 C8 1_555 1_555
C9 C4 1_555 1_555
C10 C9 1_555 1_555
H6 C10 1_555 1_555
C11 C10 1_555 1_555
H7 C11 1_555 1_555
H8 C11 1_555 1_555
H9 C11 1_555 1_555
C12 C10 1_555 1_555
H10 C12 1_555 1_555
H11 C12 1_555 1_555
H12 C12 1_555 1_555
C13 C5 1_555 1_555
H13 C13 1_555 1_555
C14 C13 1_555 1_555
H14 C14 1_555 1_555
H15 C14 1_555 1_555
H16 C14 1_555 1_555
C15 C13 1_555 1_555
H17 C15 1_555 1_555
H18 C15 1_555 1_555
H19 C15 1_555 1_555
C16 N1 1_555 1_555
C17 C16 1_555 1_555
C18 C17 1_555 1_555
H20 C18 1_555 1_555
C19 C18 1_555 1_555
H21 C19 1_555 1_555
C20 C19 1_555 1_555
H22 C20 1_555 1_555
C21 C16 1_555 1_555
C22 C21 1_555 1_555
H23 C22 1_555 1_555
C23 C22 1_555 1_555
H24 C23 1_555 1_555
H25 C23 1_555 1_555
H26 C23 1_555 1_555
C24 C22 1_555 1_555
H27 C24 1_555 1_555
H28 C24 1_555 1_555
H29 C24 1_555 1_555
C25 C17 1_555 1_555
H30 C25 1_555 1_555
C26 C25 1_555 1_555
H31 C26 1_555 1_555
H32 C26 1_555 1_555
H33 C26 1_555 1_555
C27 C25 1_555 1_555
H34 C27 1_555 1_555
H35 C27 1_555 1_555
H36 C27 1_555 1_555
O1 C28 1_555 1_555
C28 H37 1_555 1_555
H38 C28 1_555 1_555
C29 C28 1_555 1_555
H39 C29 1_555 1_555
H40 C29 1_555 1_555
C30 C29 1_555 1_555
H41 C30 1_555 1_555
H42 C30 1_555 1_555
C31 O1 1_555 1_555
H43 C31 1_555 1_555
H44 C31 1_555 1_555
N2 C3 1_555 1_555
C2 C3 1_555 1_555
C8 C9 1_555 1_555
C20 C21 1_555 1_555
C30 C31 1_555 1_555

#END
