
#######################################################################
#
#                 Cambridge Crystallographic Data Centre
#                                CCDC 
#
#######################################################################
#
# If this CIF has been generated from an entry in the Cambridge 
# Structural Database, then it will include bibliographic, chemical, 
# crystal, experimental, refinement or atomic coordinate data resulting 
# from the CCDC's data processing and validation procedures.
#
#######################################################################

data_CUZPAP
_chemical_formula_moiety         'C16 H11 N3 O2'
_chemical_name_systematic        
2-(1H-Benzimidazol-1-ylmethyl)-1H-isoindole-1,3(2H)-dione
_symmetry_cell_setting           orthorhombic
_symmetry_space_group_name_H-M   'P n a 21'
_symmetry_Int_Tables_number      33
_space_group_name_Hall           'P 2c -2n'
loop_
_symmetry_equiv_pos_site_id
_symmetry_equiv_pos_as_xyz
1 x,y,z
2 -x,-y,1/2+z
3 1/2+x,1/2-y,z
4 1/2-x,1/2+y,1/2+z
_cell_length_a                   10.5682(11)
_cell_length_b                   23.030(2)
_cell_length_c                   5.1985(5)
_cell_angle_alpha                90
_cell_angle_beta                 90
_cell_angle_gamma                90
_cell_volume                     1265.24
_exptl_crystal_colour            colorless
_exptl_crystal_description       block
_cell_formula_units_Z            4
loop_
_atom_site_label
_atom_site_type_symbol
_atom_site_fract_x
_atom_site_fract_y
_atom_site_fract_z
O1 O 1.11431(13) 0.78082(6) 0.3782(3)
O2 O 0.78430(13) 0.81468(6) -0.1680(3)
N1 N 0.90235(14) 0.68437(6) 0.0170(3)
N2 N 0.74352(14) 0.61977(7) 0.0072(4)
N3 N 0.95735(14) 0.78566(6) 0.0693(3)
C1 C 1.02773(17) 0.80639(8) 0.2793(4)
C2 C 0.97062(16) 0.86333(7) 0.3453(4)
C3 C 1.00210(18) 0.90263(8) 0.5350(4)
H1 H 1.0690 0.8959 0.6474
C4 C 0.92919(19) 0.95274(8) 0.5505(5)
H2 H 0.9473 0.9799 0.6775
C5 C 0.83059(18) 0.96330(9) 0.3826(4)
H3 H 0.7845 0.9975 0.3970
C6 C 0.79946(18) 0.92346(8) 0.1927(4)
H4 H 0.7331 0.9303 0.0792
C7 C 0.87054(16) 0.87337(7) 0.1786(4)
C8 C 0.85972(16) 0.82347(8) 0.0019(4)
C9 C 0.98181(19) 0.73192(8) -0.0676(4)
H5 H 0.9682 0.7383 -0.2500
H6 H 1.0698 0.7212 -0.0437
C10 C 0.79242(18) 0.66649(8) -0.0952(4)
H7 H 0.7554 0.6859 -0.2328
C11 C 0.92779(16) 0.64517(7) 0.2120(4)
C12 C 1.02613(17) 0.64043(8) 0.3855(4)
H8 H 1.0916 0.6674 0.3901
C13 C 1.02253(19) 0.59376(9) 0.5515(5)
H9 H 1.0871 0.5891 0.6712
C14 C 0.92396(19) 0.55333(8) 0.5439(4)
H10 H 0.9249 0.5221 0.6573
C15 C 0.82588(19) 0.55872(8) 0.3727(4)
H11 H 0.7600 0.5320 0.3706
C16 C 0.82758(16) 0.60515(7) 0.2027(4)
loop_
_geom_bond_atom_site_label_1
_geom_bond_atom_site_label_2
_geom_bond_site_symmetry_1
_geom_bond_site_symmetry_2
O1 C1 1_555 1_555
O2 C8 1_555 1_555
N1 C9 1_555 1_555
N2 C10 1_555 1_555
N3 C1 1_555 1_555
C1 C2 1_555 1_555
C2 C3 1_555 1_555
C3 H1 1_555 1_555
C4 C3 1_555 1_555
H2 C4 1_555 1_555
C5 C4 1_555 1_555
H3 C5 1_555 1_555
C6 C5 1_555 1_555
H4 C6 1_555 1_555
C7 C2 1_555 1_555
C8 N3 1_555 1_555
C9 N3 1_555 1_555
H5 C9 1_555 1_555
H6 C9 1_555 1_555
C10 N1 1_555 1_555
H7 C10 1_555 1_555
C11 N1 1_555 1_555
C12 C11 1_555 1_555
H8 C12 1_555 1_555
C13 C12 1_555 1_555
H9 C13 1_555 1_555
C14 C13 1_555 1_555
H10 C14 1_555 1_555
C15 C14 1_555 1_555
H11 C15 1_555 1_555
C16 N2 1_555 1_555
C6 C7 1_555 1_555
C7 C8 1_555 1_555
C11 C16 1_555 1_555
C15 C16 1_555 1_555

#END
