
#######################################################################
#
#                 Cambridge Crystallographic Data Centre
#                                CCDC 
#
#######################################################################
#
# If this CIF has been generated from an entry in the Cambridge 
# Structural Database, then it will include bibliographic, chemical, 
# crystal, experimental, refinement or atomic coordinate data resulting 
# from the CCDC's data processing and validation procedures.
#
#######################################################################

data_CUZQEV
_chemical_formula_moiety         'C26 H19 Cl3 N4 O1'
_chemical_name_systematic        
5-chloro-3-(2,4-dichlorophenyl)-N-(3-methoxyphenyl)-2-methyl-6-phenylpyrazolo[1,5-a]pyrimidin-7-amine
_symmetry_cell_setting           triclinic
_symmetry_space_group_name_H-M   'P -1'
_symmetry_Int_Tables_number      2
_space_group_name_Hall           '-P 1'
loop_
_symmetry_equiv_pos_site_id
_symmetry_equiv_pos_as_xyz
1 x,y,z
2 -x,-y,-z
_cell_length_a                   10.979(2)
_cell_length_b                   11.339(2)
_cell_length_c                   11.646(2)
_cell_angle_alpha                98.58(3)
_cell_angle_beta                 110.21(3)
_cell_angle_gamma                111.61(3)
_cell_volume                     1199.77
_exptl_crystal_colour            colorless
_exptl_crystal_description       prism
_cell_formula_units_Z            2
loop_
_atom_site_label
_atom_site_type_symbol
_atom_site_fract_x
_atom_site_fract_y
_atom_site_fract_z
Cl1 Cl -0.29339(6) -0.01082(5) 0.07399(5)
Cl2 Cl 0.37527(6) -0.24171(6) 0.53454(6)
Cl3 Cl 0.23332(7) 0.03148(6) 0.21854(5)
O1 O -0.1002(2) 0.64530(18) -0.01870(15)
N1 N 0.24071(18) 0.41441(16) 0.46920(14)
N2 N 0.10923(17) 0.32277(15) 0.37078(14)
N3 N -0.03451(18) 0.08991(15) 0.25807(15)
N4 N 0.0517(2) 0.49135(16) 0.33968(16)
H1 H 0.1341(16) 0.533(2) 0.4108(14)
C1 C 0.4535(3) 0.4067(2) 0.6219(2)
H2 H 0.5009 0.4984 0.6262
H3 H 0.5095 0.3623 0.6093
H4 H 0.4456 0.4032 0.7010
C2 C 0.3044(2) 0.3385(2) 0.51143(18)
C3 C 0.2174(2) 0.20105(19) 0.44215(17)
C4 C 0.2537(2) 0.0907(2) 0.46196(18)
C5 C 0.2865(2) 0.0671(2) 0.58096(19)
H5 H 0.2820 0.1209 0.6464
C6 C 0.3251(2) -0.0323(2) 0.6052(2)
H6 H 0.3476 -0.0445 0.6858
C7 C 0.3299(2) -0.11372(19) 0.5073(2)
C8 C 0.2999(2) -0.0945(2) 0.38871(19)
H7 H 0.3046 -0.1489 0.3239
C9 C 0.2627(2) 0.00728(19) 0.36717(18)
C10 C 0.0896(2) 0.19237(19) 0.35004(18)
C11 C -0.1320(2) 0.12375(19) 0.18982(18)
C12 C -0.1210(2) 0.25511(19) 0.20241(17)
C13 C -0.2417(2) 0.27933(19) 0.11947(18)
C14 C -0.3167(2) 0.3256(2) 0.1708(2)
H8 H -0.2965 0.3371 0.2572
C15 C -0.4235(3) 0.3555(3) 0.0934(3)
H9 H -0.4733 0.3881 0.1289
C16 C -0.4550(3) 0.3368(3) -0.0344(3)
H10 H -0.5253 0.3577 -0.0855
C17 C -0.3830(3) 0.2877(3) -0.0863(2)
H11 H -0.4059 0.2732 -0.1736
C18 C -0.2764(2) 0.2593(2) -0.0109(2)
H12 H -0.2274 0.2265 -0.0472
C19 C 0.0079(2) 0.35838(18) 0.29949(17)
C20 C -0.0060(2) 0.57312(18) 0.28106(18)
C21 C -0.0302(2) 0.6605(2) 0.3561(2)
H13 H -0.0156 0.6607 0.4397
C22 C -0.0758(3) 0.7468(2) 0.3061(2)
H14 H -0.0890 0.8076 0.3575
C23 C -0.1026(2) 0.7454(2) 0.1812(2)
H15 H -0.1362 0.8027 0.1474
C24 C -0.0786(2) 0.6566(2) 0.1065(2)
C25 C -0.0269(2) 0.5722(2) 0.15785(19)
H16 H -0.0066 0.5157 0.1091
C26 C -0.1621(4) 0.7234(4) -0.0789(3)
H17 H -0.2501 0.7077 -0.0702
H18 H -0.1836 0.6986 -0.1687
H19 H -0.0942 0.8165 -0.0382
loop_
_geom_bond_atom_site_label_1
_geom_bond_atom_site_label_2
_geom_bond_site_symmetry_1
_geom_bond_site_symmetry_2
Cl1 C11 1_555 1_555
Cl2 C7 1_555 1_555
Cl3 C9 1_555 1_555
O1 C24 1_555 1_555
N1 N2 1_555 1_555
N2 C10 1_555 1_555
N3 C10 1_555 1_555
N4 H1 1_555 1_555
C1 H2 1_555 1_555
H3 C1 1_555 1_555
H4 C1 1_555 1_555
C2 N1 1_555 1_555
C3 C2 1_555 1_555
C4 C3 1_555 1_555
C5 C4 1_555 1_555
H5 C5 1_555 1_555
C6 C5 1_555 1_555
H6 C6 1_555 1_555
C7 C6 1_555 1_555
C8 C7 1_555 1_555
H7 C8 1_555 1_555
C9 C4 1_555 1_555
C10 C3 1_555 1_555
C11 N3 1_555 1_555
C12 C11 1_555 1_555
C13 C12 1_555 1_555
C14 C13 1_555 1_555
H8 C14 1_555 1_555
C15 C14 1_555 1_555
H9 C15 1_555 1_555
C16 C15 1_555 1_555
H10 C16 1_555 1_555
C17 C16 1_555 1_555
H11 C17 1_555 1_555
C18 C13 1_555 1_555
H12 C18 1_555 1_555
C19 N2 1_555 1_555
C20 N4 1_555 1_555
C21 C20 1_555 1_555
H13 C21 1_555 1_555
C22 C21 1_555 1_555
H14 C22 1_555 1_555
C23 C22 1_555 1_555
H15 C23 1_555 1_555
C24 C23 1_555 1_555
C25 C20 1_555 1_555
H16 C25 1_555 1_555
C26 O1 1_555 1_555
H17 C26 1_555 1_555
H18 C26 1_555 1_555
H19 C26 1_555 1_555
N4 C19 1_555 1_555
C1 C2 1_555 1_555
C8 C9 1_555 1_555
C12 C19 1_555 1_555
C17 C18 1_555 1_555
C24 C25 1_555 1_555

#END
