
#######################################################################
#
#                 Cambridge Crystallographic Data Centre
#                                CCDC 
#
#######################################################################
#
# If this CIF has been generated from an entry in the Cambridge 
# Structural Database, then it will include bibliographic, chemical, 
# crystal, experimental, refinement or atomic coordinate data resulting 
# from the CCDC's data processing and validation procedures.
#
#######################################################################

data_CUZTUO
_chemical_formula_moiety         'C17 H19 N3 O3'
_chemical_name_systematic        
'6-benzyl-4-t-butyl-3,4-dihydro-1H-pyrrolo[3,4-d]pyrimidine-2,5,7(6H)-trione unknown solvate'
_symmetry_cell_setting           triclinic
_symmetry_space_group_name_H-M   'P -1'
_symmetry_Int_Tables_number      2
_space_group_name_Hall           '-P 1'
loop_
_symmetry_equiv_pos_site_id
_symmetry_equiv_pos_as_xyz
1 x,y,z
2 -x,-y,-z
_cell_length_a                   12.3136(4)
_cell_length_b                   14.8274(4)
_cell_length_c                   16.6958(5)
_cell_angle_alpha                105.355(3)
_cell_angle_beta                 105.257(3)
_cell_angle_gamma                92.393(2)
_cell_volume                     2815.46
_cell_formula_units_Z            6
loop_
_atom_site_label
_atom_site_type_symbol
_atom_site_fract_x
_atom_site_fract_y
_atom_site_fract_z
O1 O 0.00341(16) 0.89289(13) 0.38170(10)
O2 O -0.07794(14) 1.11133(10) 0.23500(10)
O3 O -0.35039(11) 0.83055(9) 0.00868(8)
N1 N -0.01433(14) 1.02029(12) 0.32632(10)
N2 N -0.20588(13) 0.92856(10) 0.11336(9)
H1 H -0.2126 0.9720 0.0875
N3 N -0.25013(12) 0.77595(10) 0.11670(9)
H2 H -0.3000 0.7272 0.0980
C1 C 0.2213(2) 1.14134(17) 0.35842(16)
H3 H 0.1725 1.1666 0.3196
C2 C 0.3350(3) 1.1473(2) 0.3643(2)
H4 H 0.3623 1.1762 0.3292
C3 C 0.4086(2) 1.1109(2) 0.4219(2)
H5 H 0.4854 1.1143 0.4255
C4 C 0.3680(3) 1.0701(2) 0.4731(2)
H6 H 0.4176 1.0463 0.5127
C5 C 0.2531(2) 1.06308(16) 0.46749(16)
H7 H 0.2265 1.0345 0.5031
C6 C 0.17867(17) 1.09822(12) 0.40942(12)
C7 C 0.05470(18) 1.09296(16) 0.40351(13)
H8 H 0.0438 1.0795 0.4548
H9 H 0.0290 1.1537 0.4022
C8 C -0.03166(16) 0.92424(15) 0.32169(12)
C9 C -0.10190(14) 0.87609(13) 0.23168(11)
C10 C -0.12940(14) 0.94264(13) 0.19291(10)
C11 C -0.07230(15) 1.03722(13) 0.25110(12)
C12 C -0.27189(14) 0.84232(12) 0.07585(10)
C13 C -0.15139(14) 0.77520(13) 0.19000(11)
H10 H -0.1795 0.7527 0.2319
C14 C -0.06823(19) 0.70787(16) 0.15936(14)
C15 C 0.0301(3) 0.7078(2) 0.2378(2)
H11 H 0.0698 0.7702 0.2641
H12 H 0.0812 0.6652 0.2193
H13 H 0.0010 0.6879 0.2791
C16 C -0.1313(3) 0.6084(2) 0.1185(3)
H14 H -0.1655 0.5912 0.1587
H15 H -0.0789 0.5649 0.1046
H16 H -0.1892 0.6067 0.0666
C17 C -0.0211(3) 0.7392(3) 0.09362(19)
H17 H 0.0109 0.8041 0.1175
H18 H -0.0812 0.7322 0.0415
H19 H 0.0366 0.7011 0.0805
O4 O 0.69613(13) -0.02072(12) 0.30733(10)
O5 O 0.55805(16) 0.21008(10) 0.19086(10)
O6 O 0.31518(14) -0.07560(10) -0.05193(9)
N4 N 0.64636(14) 0.11278(12) 0.26848(10)
N5 N 0.41400(15) 0.02953(11) 0.07567(10)
H20 H 0.3852 0.0768 0.0613
N6 N 0.41382(15) -0.13056(11) 0.05633(10)
H21 H 0.4002 -0.1861 0.0204
C18 C 0.73586(17) 0.18381(16) 0.48690(14)
H22 H 0.7761 0.1319 0.4818
C19 C 0.7082(2) 0.2225(2) 0.56305(15)
H23 H 0.7297 0.1966 0.6090
C20 C 0.6485(3) 0.2999(2) 0.57052(16)
H24 H 0.6298 0.3259 0.6216
C21 C 0.6168(2) 0.33837(18) 0.50302(17)
H25 H 0.5769 0.3905 0.5082
C22 C 0.6445(2) 0.29927(16) 0.42695(14)
H26 H 0.6227 0.3254 0.3811
C23 C 0.70388(14) 0.22220(13) 0.41831(11)
C24 C 0.73608(17) 0.18097(16) 0.33634(13)
H27 H 0.7548 0.2318 0.3139
H28 H 0.8035 0.1500 0.3501
C25 C 0.63245(16) 0.01589(14) 0.26091(11)
C26 C 0.53195(15) -0.02577(13) 0.18650(11)
C27 C 0.49746(15) 0.04238(12) 0.15103(11)
C28 C 0.56828(17) 0.13437(13) 0.20335(12)
C29 C 0.37647(16) -0.06132(13) 0.02265(11)
C30 C 0.47519(16) -0.12482(12) 0.14676(11)
H29 H 0.5342 -0.1671 0.1456
C31 C 0.39563(18) -0.15632(14) 0.19546(13)
C32 C 0.2985(2) -0.0959(2) 0.19620(18)
H30 H 0.2560 -0.1112 0.2325
H31 H 0.2497 -0.1079 0.1383
H32 H 0.3286 -0.0305 0.2183
C33 C 0.4671(2) -0.14613(19) 0.28874(15)
H33 H 0.4847 -0.0806 0.3205
H34 H 0.5361 -0.1736 0.2877
H35 H 0.4250 -0.1778 0.3163
C34 C 0.3478(3) -0.25945(18) 0.15004(19)
H36 H 0.3076 -0.2823 0.1842
H37 H 0.4089 -0.2963 0.1433
H38 H 0.2970 -0.2646 0.0941
O7 O 0.45625(14) 0.49536(10) 0.60163(8)
O8 O 0.36123(12) 0.32128(9) 0.76623(8)
O9 O 0.56785(12) 0.61454(9) 1.01540(7)
N7 N 0.39703(14) 0.38732(11) 0.66325(9)
N8 N 0.51141(13) 0.49331(10) 0.89204(8)
H39 H 0.5020 0.4530 0.9190
N9 N 0.58162(13) 0.64020(9) 0.89046(8)
H40 H 0.5972 0.6994 0.9171
C35 C 0.1885(2) 0.3864(2) 0.48953(16)
H41 H 0.2465 0.4106 0.4722
C36 C 0.0769(3) 0.4015(3) 0.4554(2)
H42 H 0.0606 0.4351 0.4148
C37 C -0.0076(3) 0.3676(2) 0.4810(2)
H43 H -0.0820 0.3775 0.4578
C38 C 0.0163(2) 0.3190(2) 0.54060(18)
H44 H -0.0418 0.2970 0.5591
C39 C 0.1266(2) 0.30167(18) 0.57436(14)
H45 H 0.1417 0.2671 0.6142
C40 C 0.21282(17) 0.33572(13) 0.54870(10)
C41 C 0.33217(18) 0.31583(14) 0.58332(11)
H46 H 0.3298 0.2550 0.5946
H47 H 0.3713 0.3121 0.5394
C42 C 0.45645(16) 0.47122(12) 0.66502(10)
C43 C 0.51454(14) 0.51968(11) 0.75765(9)
C44 C 0.48314(14) 0.46841(11) 0.80375(10)
C45 C 0.40604(14) 0.38171(11) 0.74556(10)
C46 C 0.55556(14) 0.58518(11) 0.93635(10)
C47 C 0.58712(16) 0.61250(11) 0.80012(10)
H48 H 0.5521 0.6586 0.7720
C48 C 0.71102(19) 0.61261(15) 0.79546(13)
C49 C 0.7707(2) 0.5422(2) 0.8370(2)
H49 H 0.7696 0.5570 0.8963
H50 H 0.8479 0.5450 0.8347
H51 H 0.7327 0.4799 0.8064
C50 C 0.7723(2) 0.7122(2) 0.84240(17)
H52 H 0.7294 0.7569 0.8195
H53 H 0.8462 0.7163 0.8339
H54 H 0.7795 0.7258 0.9032
C51 C 0.7108(3) 0.5910(2) 0.70014(16)
H55 H 0.6841 0.5257 0.6711
H56 H 0.7864 0.6045 0.6973
H57 H 0.6617 0.6294 0.6726
loop_
_geom_bond_atom_site_label_1
_geom_bond_atom_site_label_2
_geom_bond_site_symmetry_1
_geom_bond_site_symmetry_2
O1 C8 1_555 1_555
O2 C11 1_555 1_555
O3 C12 1_555 1_555
N1 C7 1_555 1_555
N2 H1 1_555 1_555
N3 H2 1_555 1_555
C1 H3 1_555 1_555
C2 C1 1_555 1_555
H4 C2 1_555 1_555
C3 C2 1_555 1_555
H5 C3 1_555 1_555
C4 C3 1_555 1_555
H6 C4 1_555 1_555
C5 C4 1_555 1_555
H7 C5 1_555 1_555
C6 C1 1_555 1_555
C7 C6 1_555 1_555
H8 C7 1_555 1_555
H9 C7 1_555 1_555
C8 N1 1_555 1_555
C9 C8 1_555 1_555
C10 N2 1_555 1_555
C11 N1 1_555 1_555
C12 N2 1_555 1_555
C13 N3 1_555 1_555
H10 C13 1_555 1_555
C14 C13 1_555 1_555
C15 C14 1_555 1_555
H11 C15 1_555 1_555
H12 C15 1_555 1_555
H13 C15 1_555 1_555
C16 C14 1_555 1_555
H14 C16 1_555 1_555
H15 C16 1_555 1_555
H16 C16 1_555 1_555
C17 C14 1_555 1_555
H17 C17 1_555 1_555
H18 C17 1_555 1_555
H19 C17 1_555 1_555
O4 C25 1_555 1_555
O5 C28 1_555 1_555
O6 C29 1_555 1_555
N4 C24 1_555 1_555
N5 H20 1_555 1_555
N6 H21 1_555 1_555
C18 H22 1_555 1_555
C19 C18 1_555 1_555
H23 C19 1_555 1_555
C20 C19 1_555 1_555
H24 C20 1_555 1_555
C21 C20 1_555 1_555
H25 C21 1_555 1_555
C22 C21 1_555 1_555
H26 C22 1_555 1_555
C23 C18 1_555 1_555
C24 C23 1_555 1_555
H27 C24 1_555 1_555
H28 C24 1_555 1_555
C25 N4 1_555 1_555
C26 C25 1_555 1_555
C27 N5 1_555 1_555
C28 N4 1_555 1_555
C29 N5 1_555 1_555
C30 N6 1_555 1_555
H29 C30 1_555 1_555
C31 C30 1_555 1_555
C32 C31 1_555 1_555
H30 C32 1_555 1_555
H31 C32 1_555 1_555
H32 C32 1_555 1_555
C33 C31 1_555 1_555
H33 C33 1_555 1_555
H34 C33 1_555 1_555
H35 C33 1_555 1_555
C34 C31 1_555 1_555
H36 C34 1_555 1_555
H37 C34 1_555 1_555
H38 C34 1_555 1_555
O7 C42 1_555 1_555
O8 C45 1_555 1_555
O9 C46 1_555 1_555
N7 C41 1_555 1_555
N8 H39 1_555 1_555
N9 H40 1_555 1_555
C35 H41 1_555 1_555
C36 C35 1_555 1_555
H42 C36 1_555 1_555
C37 C36 1_555 1_555
H43 C37 1_555 1_555
C38 C37 1_555 1_555
H44 C38 1_555 1_555
C39 C38 1_555 1_555
H45 C39 1_555 1_555
C40 C35 1_555 1_555
C41 C40 1_555 1_555
H46 C41 1_555 1_555
H47 C41 1_555 1_555
C42 N7 1_555 1_555
C43 C42 1_555 1_555
C44 N8 1_555 1_555
C45 N7 1_555 1_555
C46 N8 1_555 1_555
C47 N9 1_555 1_555
H48 C47 1_555 1_555
C48 C47 1_555 1_555
C49 C48 1_555 1_555
H49 C49 1_555 1_555
H50 C49 1_555 1_555
H51 C49 1_555 1_555
C50 C48 1_555 1_555
H52 C50 1_555 1_555
H53 C50 1_555 1_555
H54 C50 1_555 1_555
C51 C48 1_555 1_555
H55 C51 1_555 1_555
H56 C51 1_555 1_555
H57 C51 1_555 1_555
N3 C12 1_555 1_555
C5 C6 1_555 1_555
C9 C10 1_555 1_555
C9 C13 1_555 1_555
C10 C11 1_555 1_555
N6 C29 1_555 1_555
C22 C23 1_555 1_555
C26 C27 1_555 1_555
C26 C30 1_555 1_555
C27 C28 1_555 1_555
N9 C46 1_555 1_555
C39 C40 1_555 1_555
C43 C44 1_555 1_555
C43 C47 1_555 1_555
C44 C45 1_555 1_555

#END
