
#######################################################################
#
#                 Cambridge Crystallographic Data Centre
#                                CCDC 
#
#######################################################################
#
# If this CIF has been generated from an entry in the Cambridge 
# Structural Database, then it will include bibliographic, chemical, 
# crystal, experimental, refinement or atomic coordinate data resulting 
# from the CCDC's data processing and validation procedures.
#
#######################################################################

data_CUZVID
_chemical_formula_moiety         'C27 H25 F6 N2 P1 S1'
_chemical_name_systematic        
1-(3,5-bis(Trifluoromethyl)phenyl)-3-(2-(diphenylphosphanyl)cyclohexyl)thiourea
_symmetry_cell_setting           orthorhombic
_symmetry_space_group_name_H-M   'P 21 21 21'
_symmetry_Int_Tables_number      19
_space_group_name_Hall           'P 2ac 2ab'
loop_
_symmetry_equiv_pos_site_id
_symmetry_equiv_pos_as_xyz
1 x,y,z
2 1/2-x,-y,1/2+z
3 -x,1/2+y,1/2-z
4 1/2+x,1/2-y,-z
_cell_length_a                   10.0915(11)
_cell_length_b                   16.0606(17)
_cell_length_c                   16.8904(18)
_cell_angle_alpha                90
_cell_angle_beta                 90
_cell_angle_gamma                90
_cell_volume                     2737.52
_exptl_crystal_colour            colorless
_exptl_crystal_description       prismatic
_cell_formula_units_Z            4
loop_
_atom_site_label
_atom_site_type_symbol
_atom_site_fract_x
_atom_site_fract_y
_atom_site_fract_z
P1 P 0.41315(9) 0.27469(6) 0.17281(5)
S1 S 0.39265(9) 0.29460(6) -0.07334(5)
N1 N 0.6008(3) 0.29891(17) 0.02193(15)
N2 N 0.6003(3) 0.19206(18) -0.06347(16)
C1 C 0.5380(3) 0.25998(19) -0.03640(16)
C2 C 0.5579(3) 0.37169(18) 0.06617(17)
H1 H 0.4702 0.3879 0.0466
C3 C 0.6533(4) 0.4429(2) 0.0496(2)
H2 H 0.7420 0.4268 0.0656
H3 H 0.6548 0.4544 -0.0068
C4 C 0.6129(6) 0.5210(2) 0.0939(3)
H4 H 0.6771 0.5647 0.0840
H5 H 0.5274 0.5399 0.0747
C5 C 0.6047(6) 0.5043(2) 0.1811(3)
H6 H 0.5750 0.5541 0.2083
H7 H 0.6919 0.4900 0.2011
C6 C 0.5093(4) 0.4334(2) 0.1978(2)
H8 H 0.4209 0.4502 0.1820
H9 H 0.5078 0.4228 0.2543
C7 C 0.5456(4) 0.35307(19) 0.15472(17)
H10 H 0.6303 0.3320 0.1749
C8 C 0.5650(3) 0.1345(2) -0.12203(17)
C9 C 0.5084(4) 0.1569(2) -0.19353(17)
H11 H 0.4885 0.2123 -0.2040
C10 C 0.4818(4) 0.0962(2) -0.24915(19)
C11 C 0.5115(4) 0.0141(2) -0.2349(2)
H12 H 0.4932 -0.0263 -0.2729
C12 C 0.5676(5) -0.0075(2) -0.1651(2)
C13 C 0.5950(4) 0.0518(2) -0.1085(2)
H13 H 0.6340 0.0361 -0.0609
C14 C 0.6010(10) -0.0952(3) -0.1490(3)
C15 C 0.4216(7) 0.1197(3) -0.3276(3)
C16 C 0.4835(4) 0.1728(2) 0.14649(17)
C17 C 0.4002(4) 0.1166(2) 0.10931(19)
H14 H 0.3138 0.1325 0.0973
C18 C 0.4420(5) 0.0382(3) 0.0898(2)
H15 H 0.3837 0.0019 0.0647
C19 C 0.5677(5) 0.0122(2) 0.1066(2)
H16 H 0.5953 -0.0414 0.0941
C20 C 0.6521(4) 0.0673(3) 0.1424(2)
H17 H 0.7385 0.0509 0.1537
C21 C 0.6109(4) 0.1470(2) 0.1622(2)
H18 H 0.6701 0.1834 0.1863
C22 C 0.4156(4) 0.2663(2) 0.28074(19)
C23 C 0.5254(5) 0.2595(3) 0.3268(2)
H19 H 0.6083 0.2584 0.3027
C24 C 0.5177(6) 0.2544(3) 0.4082(3)
H20 H 0.5950 0.2519 0.4381
C25 C 0.3980(7) 0.2529(3) 0.4448(2)
H21 H 0.3917 0.2477 0.4995
C26 C 0.2909(6) 0.2589(4) 0.4004(3)
H22 H 0.2081 0.2585 0.4245
C27 C 0.2988(5) 0.2660(3) 0.3189(3)
H23 H 0.2210 0.2706 0.2897
F1 F 0.5143(6) -0.1285(2) -0.1019(3)
F2 F 0.7033(6) -0.1084(2) -0.1094(5)
F3 F 0.6078(8) -0.14194(19) -0.2062(2)
F4 F 0.3158(18) 0.0802(11) -0.3429(12)
F5 F 0.406(3) 0.1955(4) -0.3397(8)
F6 F 0.5016(19) 0.0909(14) -0.3858(4)
H24 H 0.673(2) 0.2786(17) 0.0333(16)
H25 H 0.670(2) 0.179(2) -0.0423(18)
F7? F 0.309(2) 0.159(2) -0.3145(6)
F8? F 0.4952(18) 0.165(2) -0.3698(11)
F9? F 0.381(3) 0.0581(10) -0.3668(12)
loop_
_geom_bond_atom_site_label_1
_geom_bond_atom_site_label_2
_geom_bond_site_symmetry_1
_geom_bond_site_symmetry_2
P1 C7 1_555 1_555
S1 C1 1_555 1_555
N1 C1 1_555 1_555
N2 C1 1_555 1_555
C2 N1 1_555 1_555
H1 C2 1_555 1_555
C3 C2 1_555 1_555
H2 C3 1_555 1_555
H3 C3 1_555 1_555
C4 C3 1_555 1_555
H4 C4 1_555 1_555
H5 C4 1_555 1_555
C5 C4 1_555 1_555
H6 C5 1_555 1_555
H7 C5 1_555 1_555
C6 C5 1_555 1_555
H8 C6 1_555 1_555
H9 C6 1_555 1_555
C7 C2 1_555 1_555
H10 C7 1_555 1_555
C8 N2 1_555 1_555
C9 C8 1_555 1_555
H11 C9 1_555 1_555
C10 C9 1_555 1_555
C11 C10 1_555 1_555
H12 C11 1_555 1_555
C12 C11 1_555 1_555
C13 C8 1_555 1_555
H13 C13 1_555 1_555
C14 C12 1_555 1_555
C15 C10 1_555 1_555
C16 P1 1_555 1_555
C17 C16 1_555 1_555
H14 C17 1_555 1_555
C18 C17 1_555 1_555
H15 C18 1_555 1_555
C19 C18 1_555 1_555
H16 C19 1_555 1_555
C20 C19 1_555 1_555
H17 C20 1_555 1_555
C21 C16 1_555 1_555
H18 C21 1_555 1_555
C22 P1 1_555 1_555
C23 C22 1_555 1_555
H19 C23 1_555 1_555
C24 C23 1_555 1_555
H20 C24 1_555 1_555
C25 C24 1_555 1_555
H21 C25 1_555 1_555
C26 C25 1_555 1_555
H22 C26 1_555 1_555
C27 C22 1_555 1_555
H23 C27 1_555 1_555
F1 C14 1_555 1_555
F2 C14 1_555 1_555
F3 C14 1_555 1_555
F4 C15 1_555 1_555
F5 C15 1_555 1_555
F6 C15 1_555 1_555
H24 N1 1_555 1_555
H25 N2 1_555 1_555
C6 C7 1_555 1_555
C12 C13 1_555 1_555
C20 C21 1_555 1_555
C26 C27 1_555 1_555

#END
