
#######################################################################
#
#                 Cambridge Crystallographic Data Centre
#                                CCDC 
#
#######################################################################
#
# If this CIF has been generated from an entry in the Cambridge 
# Structural Database, then it will include bibliographic, chemical, 
# crystal, experimental, refinement or atomic coordinate data resulting 
# from the CCDC's data processing and validation procedures.
#
#######################################################################

data_CUZVUP
_chemical_formula_moiety         'C27 H26 N2 O2'
_chemical_name_systematic        
1-((E)-(2-Benzyl-2-((1S,2S)-1-hydroxy-1-phenyl-2-propyl)hydrazono)methyl)-2-naphthol
_symmetry_cell_setting           monoclinic
_symmetry_space_group_name_H-M   'P 21'
_symmetry_Int_Tables_number      4
_space_group_name_Hall           'P 2yb'
loop_
_symmetry_equiv_pos_site_id
_symmetry_equiv_pos_as_xyz
1 x,y,z
2 -x,1/2+y,-z
_cell_length_a                   19.182(2)
_cell_length_b                   5.6232(7)
_cell_length_c                   20.062(2)
_cell_angle_alpha                90
_cell_angle_beta                 103.229(2)
_cell_angle_gamma                90
_cell_volume                     2106.55
_exptl_crystal_colour            colorless
_exptl_crystal_description       block
_chemical_melting_point          '128-131 deg.C'
_cell_formula_units_Z            4
loop_
_atom_site_label
_atom_site_type_symbol
_atom_site_fract_x
_atom_site_fract_y
_atom_site_fract_z
C1 C 0.12468(14) 0.4531(5) 0.62230(13)
C2 C 0.08346(14) 0.6314(5) 0.64247(13)
C3 C 0.05084(14) 0.8129(5) 0.59727(14)
H1 H 0.0222 0.9301 0.6123
C4 C 0.06061(15) 0.8197(6) 0.53211(14)
H2 H 0.0396 0.9444 0.5023
C5 C 0.11055(16) 0.6514(6) 0.44008(14)
H3 H 0.0909 0.78 0.4111
C6 C 0.14719(16) 0.4759(6) 0.41561(14)
H4 H 0.1528 0.4822 0.3698
C7 C 0.17655(16) 0.2864(6) 0.45832(15)
H5 H 0.2014 0.1636 0.4409
C8 C 0.16994(15) 0.2756(6) 0.52479(14)
H6 H 0.1905 0.1459 0.5528
C9 C 0.13286(14) 0.4550(5) 0.55257(13)
C10 C 0.10155(14) 0.6437(6) 0.50835(13)
C11 C 0.16074(14) 0.2737(5) 0.67034(13)
H7 H 0.1879 0.1525 0.6552
N1 N 0.15593(12) 0.2787(5) 0.73396(11)
N2 N 0.18949(12) 0.1147(5) 0.77913(11)
C12 C 0.18373(14) 0.1479(6) 0.85008(13)
H8 H 0.2132 0.0213 0.8783
C13 C 0.10597(14) 0.1152(5) 0.85663(13)
H9 H 0.0754 0.2417 0.8295
C14 C 0.10084(14) 0.1325(5) 0.93043(13)
C15 C 0.12863(15) -0.0477(5) 0.97626(13)
H10 H 0.1499 -0.1834 0.9609
C16 C 0.12528(17) -0.0294(6) 1.04455(15)
H11 H 0.1444 -0.1527 1.0757
C17 C 0.09430(16) 0.1669(6) 1.06728(14)
H12 H 0.0921 0.1781 1.114
C18 C 0.06637(16) 0.3481(6) 1.02200(15)
H13 H 0.0451 0.4837 1.0376
C19 C 0.06973(15) 0.3293(5) 0.95345(14)
H14 H 0.0505 0.4526 0.9223
O1 O 0.07929(11) -0.1123(4) 0.83149(10)
H15 H 0.0846 -0.13 0.7914
C20 C 0.21321(16) 0.3876(6) 0.87923(15)
H16 H 0.2619 0.4082 0.8725
H17 H 0.2142 0.3931 0.9283
H18 H 0.1825 0.5154 0.8556
C21 C 0.23053(14) -0.0757(5) 0.75840(14)
H19 H 0.2003 -0.1541 0.7177
H20 H 0.2408 -0.195 0.7956
C22 C 0.30109(15) -0.0052(5) 0.74125(13)
C23 C 0.33262(16) -0.1641(6) 0.70427(15)
H21 H 0.3081 -0.3062 0.6873
C24 C 0.39954(16) -0.1181(6) 0.69179(17)
H22 H 0.4211 -0.23 0.6672
C25 C 0.43502(16) 0.0915(6) 0.71524(16)
H23 H 0.4809 0.1234 0.7068
C26 C 0.40340(16) 0.2532(6) 0.75078(15)
H24 H 0.4274 0.3975 0.7665
C27 C 0.33639(15) 0.2058(6) 0.76376(14)
H25 H 0.3148 0.3183 0.7881
O2 O 0.07277(10) 0.6429(4) 0.70725(9)
H26 H 0.099 0.5424 0.7321
C28 C 0.62798(15) -0.0736(6) 0.64981(16)
C29 C 0.58490(16) -0.2502(7) 0.66845(18)
C30 C 0.55060(17) -0.4210(7) 0.62121(19)
H27 H 0.5207 -0.5375 0.6348
C31 C 0.55986(17) -0.4204(7) 0.5568(2)
H28 H 0.5376 -0.5406 0.5259
C32 C 0.61097(18) -0.2425(8) 0.46615(18)
H29 H 0.5898 -0.3649 0.4355
C33 C 0.64930(19) -0.0688(7) 0.44336(17)
H30 H 0.6555 -0.0723 0.3977
C34 C 0.67965(18) 0.1155(7) 0.48800(16)
H31 H 0.7048 0.2406 0.4719
C35 C 0.67324(16) 0.1158(6) 0.55437(15)
H32 H 0.6948 0.2404 0.584
C36 C 0.63533(15) -0.0646(6) 0.58006(16)
C37 C 0.60184(17) -0.2455(7) 0.53382(17)
C38 C 0.66710(15) 0.0910(6) 0.70113(15)
H33 H 0.6976 0.2072 0.6884
N3 N 0.66071(13) 0.0804(5) 0.76403(13)
N4 N 0.70024(14) 0.2260(6) 0.81414(13)
C39 C 0.66532(17) 0.2679(7) 0.87219(15)
H34 H 0.6913 0.4013 0.9002
C40 C 0.67395(19) 0.0465(7) 0.91765(17)
H35 H 0.6486 -0.0899 0.8905
C41 C 0.64226(18) 0.0877(7) 0.97951(16)
C42 C 0.5936(2) -0.0711(8) 0.9945(2)
H36 H 0.5799 -0.2064 0.9661
C43 C 0.5645(2) -0.0347(8) 1.0504(2)
H37 H 0.5311 -0.1461 1.0603
C44 C 0.58290(19) 0.1576(8) 1.09164(17)
H38 H 0.5625 0.1789 1.1301
C45 C 0.63084(19) 0.3216(8) 1.07791(16)
H39 H 0.6433 0.4567 1.1066
C46 C 0.66103(19) 0.2890(8) 1.02172(15)
H40 H 0.6941 0.4018 1.0119
O3 O 0.74680(14) -0.0116(6) 0.94117(13)
H41 H 0.7682 0.0087 0.9094
C47 C 0.58449(17) 0.3405(7) 0.84903(16)
H42 H 0.5785 0.4553 0.8114
H43 H 0.5689 0.4127 0.8877
H44 H 0.5555 0.1989 0.8336
C48 C 0.73547(15) 0.4307(6) 0.79254(15)
H45 H 0.7457 0.5475 0.8305
H46 H 0.7022 0.5067 0.7533
C49 C 0.80504(15) 0.3724(6) 0.77177(14)
C50 C 0.84401(15) 0.1683(6) 0.79380(14)
H47 H 0.8255 0.0533 0.8199
C51 C 0.91006(15) 0.1309(6) 0.77794(14)
H48 H 0.9366 -0.0091 0.7932
C52 C 0.93685(15) 0.2976(6) 0.73997(14)
H49 H 0.9821 0.2726 0.7295
C53 C 0.89802(16) 0.5019(6) 0.71701(15)
H50 H 0.9165 0.6163 0.6908
C54 C 0.83208(16) 0.5377(6) 0.73266(15)
H51 H 0.8051 0.6762 0.7165
O4 O 0.57387(12) -0.2656(5) 0.73250(12)
H52 H 0.6011 -0.17 0.7583
loop_
_geom_bond_atom_site_label_1
_geom_bond_atom_site_label_2
_geom_bond_site_symmetry_1
_geom_bond_site_symmetry_2
C1 C2 1_555 1_555
C2 C3 1_555 1_555
C3 H1 1_555 1_555
C4 C3 1_555 1_555
H2 C4 1_555 1_555
C5 H3 1_555 1_555
C6 C5 1_555 1_555
H4 C6 1_555 1_555
C7 C6 1_555 1_555
H5 C7 1_555 1_555
C8 C7 1_555 1_555
H6 C8 1_555 1_555
C9 C1 1_555 1_555
C10 C4 1_555 1_555
C11 C1 1_555 1_555
H7 C11 1_555 1_555
N1 C11 1_555 1_555
N2 N1 1_555 1_555
C12 N2 1_555 1_555
H8 C12 1_555 1_555
C13 C12 1_555 1_555
H9 C13 1_555 1_555
C14 C13 1_555 1_555
C15 C14 1_555 1_555
H10 C15 1_555 1_555
C16 C15 1_555 1_555
H11 C16 1_555 1_555
C17 C16 1_555 1_555
H12 C17 1_555 1_555
C18 C17 1_555 1_555
H13 C18 1_555 1_555
C19 C14 1_555 1_555
H14 C19 1_555 1_555
O1 C13 1_555 1_555
H15 O1 1_555 1_555
C20 C12 1_555 1_555
H16 C20 1_555 1_555
H17 C20 1_555 1_555
H18 C20 1_555 1_555
C21 N2 1_555 1_555
H19 C21 1_555 1_555
H20 C21 1_555 1_555
C22 C21 1_555 1_555
C23 C22 1_555 1_555
H21 C23 1_555 1_555
C24 C23 1_555 1_555
H22 C24 1_555 1_555
C25 C24 1_555 1_555
H23 C25 1_555 1_555
C26 C25 1_555 1_555
H24 C26 1_555 1_555
C27 C22 1_555 1_555
H25 C27 1_555 1_555
O2 C2 1_555 1_555
H26 O2 1_555 1_555
C28 C29 1_555 1_555
C29 C30 1_555 1_555
C30 H27 1_555 1_555
C31 C30 1_555 1_555
H28 C31 1_555 1_555
C32 H29 1_555 1_555
C33 C32 1_555 1_555
H30 C33 1_555 1_555
C34 C33 1_555 1_555
H31 C34 1_555 1_555
C35 C34 1_555 1_555
H32 C35 1_555 1_555
C36 C28 1_555 1_555
C37 C31 1_555 1_555
C38 C28 1_555 1_555
H33 C38 1_555 1_555
N3 C38 1_555 1_555
N4 N3 1_555 1_555
C39 N4 1_555 1_555
H34 C39 1_555 1_555
C40 C39 1_555 1_555
H35 C40 1_555 1_555
C41 C40 1_555 1_555
C42 C41 1_555 1_555
H36 C42 1_555 1_555
C43 C42 1_555 1_555
H37 C43 1_555 1_555
C44 C43 1_555 1_555
H38 C44 1_555 1_555
C45 C44 1_555 1_555
H39 C45 1_555 1_555
C46 C41 1_555 1_555
H40 C46 1_555 1_555
O3 C40 1_555 1_555
H41 O3 1_555 1_555
C47 C39 1_555 1_555
H42 C47 1_555 1_555
H43 C47 1_555 1_555
H44 C47 1_555 1_555
C48 N4 1_555 1_555
H45 C48 1_555 1_555
H46 C48 1_555 1_555
C49 C48 1_555 1_555
C50 C49 1_555 1_555
H47 C50 1_555 1_555
C51 C50 1_555 1_555
H48 C51 1_555 1_555
C52 C51 1_555 1_555
H49 C52 1_555 1_555
C53 C52 1_555 1_555
H50 C53 1_555 1_555
C54 C49 1_555 1_555
H51 C54 1_555 1_555
O4 C29 1_555 1_555
H52 O4 1_555 1_555
C5 C10 1_555 1_555
C8 C9 1_555 1_555
C9 C10 1_555 1_555
C18 C19 1_555 1_555
C26 C27 1_555 1_555
C32 C37 1_555 1_555
C35 C36 1_555 1_555
C36 C37 1_555 1_555
C45 C46 1_555 1_555
C53 C54 1_555 1_555

#END
