
#######################################################################
#
#                 Cambridge Crystallographic Data Centre
#                                CCDC 
#
#######################################################################
#
# If this CIF has been generated from an entry in the Cambridge 
# Structural Database, then it will include bibliographic, chemical, 
# crystal, experimental, refinement or atomic coordinate data resulting 
# from the CCDC's data processing and validation procedures.
#
#######################################################################

data_CUZWOL
_chemical_name_common            
1-benzyl-3-(furan-2-yl)-3-(1H-indol-3-yl)indolin-2-one
_chemical_formula_moiety         'C27 H20 N2 O2'
_chemical_name_systematic        
1'-benzyl-3'-(2-furyl)-1',3'-dihydro-1H,2'H-3,3'-biindol-2'-one
_symmetry_cell_setting           triclinic
_symmetry_space_group_name_H-M   'P -1'
_symmetry_Int_Tables_number      2
_space_group_name_Hall           '-P 1'
loop_
_symmetry_equiv_pos_site_id
_symmetry_equiv_pos_as_xyz
1 x,y,z
2 -x,-y,-z
_cell_length_a                   9.1713(12)
_cell_length_b                   10.4692(14)
_cell_length_c                   11.6564(16)
_cell_angle_alpha                87.145(4)
_cell_angle_beta                 75.225(4)
_cell_angle_gamma                84.729(4)
_cell_volume                     1077.22
_exptl_crystal_colour            white
_exptl_crystal_description       prism
_cell_formula_units_Z            2
_exptl_crystal_recrystallization_method 'Ethyl acetate/petroleum ether'
loop_
_atom_site_label
_atom_site_type_symbol
_atom_site_fract_x
_atom_site_fract_y
_atom_site_fract_z
C1 C 0.19201(17) 0.71164(15) 0.00875(14)
C2 C 0.03425(18) 0.76595(16) 0.07232(14)
C3 C -0.10124(19) 0.71261(18) 0.09618(17)
H1 H -0.1074 0.6307 0.0713
C4 C -0.2298(2) 0.7842(2) 0.15875(19)
H2 H -0.3231 0.7498 0.1760
C5 C -0.2200(2) 0.9056(2) 0.19529(19)
H3 H -0.3074 0.9523 0.2361
C6 C -0.0831(2) 0.95940(18) 0.17266(16)
H4 H -0.0764 1.0410 0.1980
C7 C 0.04310(18) 0.88713(16) 0.11110(14)
C8 C 0.2462(2) 1.03475(17) 0.11529(17)
H5 H 0.1777 1.1081 0.1047
H6 H 0.3458 1.0489 0.0652
C9 C 0.2534(2) 1.02412(18) 0.24300(17)
C10 C 0.3568(3) 0.9361(3) 0.2766(2)
H7 H 0.4221 0.8844 0.2197
C11 C 0.3653(4) 0.9233(4) 0.3921(3)
H8 H 0.4357 0.8630 0.4130
C12 C 0.2720(5) 0.9976(5) 0.4761(3)
H9 H 0.2799 0.9897 0.5542
C13 C 0.1670(5) 1.0838(4) 0.4468(3)
H10 H 0.1006 1.1331 0.5051
C14 C 0.1585(3) 1.0985(3) 0.3291(2)
H11 H 0.0880 1.1592 0.3088
C15 C 0.28848(18) 0.82244(16) 0.01996(14)
C16 C 0.24444(17) 0.59094(15) 0.06896(14)
C17 C 0.22517(19) 0.56876(17) 0.19431(16)
C18 C 0.1554(2) 0.6380(2) 0.29567(17)
H12 H 0.1068 0.7190 0.2892
C19 C 0.1594(3) 0.5853(3) 0.4045(2)
H13 H 0.1125 0.6311 0.4722
C20 C 0.2324(3) 0.4642(3) 0.4163(2)
H14 H 0.2336 0.4309 0.4915
C21 C 0.3019(3) 0.3940(2) 0.3193(2)
H15 H 0.3510 0.3135 0.3272
C22 C 0.29744(19) 0.44625(18) 0.20819(17)
C23 C 0.32373(18) 0.48524(16) 0.01539(16)
H16 H 0.3530 0.4747 -0.0663
C24 C 0.2054(2) 0.69232(16) -0.12068(15)
C25 C 0.3016(2) 0.7270(2) -0.22074(18)
H17 H 0.3832 0.7761 -0.2280
C26 C 0.2552(3) 0.6743(3) -0.3145(2)
H18 H 0.3013 0.6820 -0.3951
C27 C 0.1357(3) 0.6131(3) -0.26630(18)
H19 H 0.0823 0.5696 -0.3078
N1 N 0.19455(15) 0.91896(13) 0.07888(12)
N2 N 0.35501(16) 0.39608(14) 0.09727(14)
O1 O 0.42536(13) 0.82317(12) -0.01600(12)
O2 O 0.10129(18) 0.62265(15) -0.14597(12)
loop_
_geom_bond_atom_site_label_1
_geom_bond_atom_site_label_2
_geom_bond_site_symmetry_1
_geom_bond_site_symmetry_2
C1 C2 1_555 1_555
C2 C3 1_555 1_555
C3 H1 1_555 1_555
C4 C3 1_555 1_555
H2 C4 1_555 1_555
C5 C4 1_555 1_555
H3 C5 1_555 1_555
C6 C5 1_555 1_555
H4 C6 1_555 1_555
C7 C2 1_555 1_555
C8 H5 1_555 1_555
H6 C8 1_555 1_555
C9 C8 1_555 1_555
C10 C9 1_555 1_555
H7 C10 1_555 1_555
C11 C10 1_555 1_555
H8 C11 1_555 1_555
C12 C11 1_555 1_555
H9 C12 1_555 1_555
C13 C12 1_555 1_555
H10 C13 1_555 1_555
C14 C9 1_555 1_555
H11 C14 1_555 1_555
C15 C1 1_555 1_555
C16 C1 1_555 1_555
C17 C16 1_555 1_555
C18 C17 1_555 1_555
H12 C18 1_555 1_555
C19 C18 1_555 1_555
H13 C19 1_555 1_555
C20 C19 1_555 1_555
H14 C20 1_555 1_555
C21 C20 1_555 1_555
H15 C21 1_555 1_555
C22 C17 1_555 1_555
C23 C16 1_555 1_555
H16 C23 1_555 1_555
C24 C1 1_555 1_555
C25 C24 1_555 1_555
H17 C25 1_555 1_555
C26 C25 1_555 1_555
H18 C26 1_555 1_555
C27 C26 1_555 1_555
H19 C27 1_555 1_555
N1 C7 1_555 1_555
N2 C22 1_555 1_555
O1 C15 1_555 1_555
O2 C24 1_555 1_555
C6 C7 1_555 1_555
C8 N1 1_555 1_555
C13 C14 1_555 1_555
C15 N1 1_555 1_555
C21 C22 1_555 1_555
C23 N2 1_555 1_555
C27 O2 1_555 1_555

#END
