
#######################################################################
#
#                 Cambridge Crystallographic Data Centre
#                                CCDC 
#
#######################################################################
#
# If this CIF has been generated from an entry in the Cambridge 
# Structural Database, then it will include bibliographic, chemical, 
# crystal, experimental, refinement or atomic coordinate data resulting 
# from the CCDC's data processing and validation procedures.
#
#######################################################################

data_CUZZED
_chemical_formula_moiety         'C62 H54 N2 O4'
_chemical_name_systematic        
3,3'-(Cyclohexane-1,2-diylbis(iminomethylene))bis(2'-(benzyloxy)-1,1'-binaphthalen-2-ol)
_symmetry_cell_setting           triclinic
_symmetry_space_group_name_H-M   'P 1'
_symmetry_Int_Tables_number      1
_space_group_name_Hall           'P 1'
loop_
_symmetry_equiv_pos_site_id
_symmetry_equiv_pos_as_xyz
1 x,y,z
_cell_length_a                   10.6129(14)
_cell_length_b                   10.7329(15)
_cell_length_c                   12.5667(11)
_cell_angle_alpha                95.1440(10)
_cell_angle_beta                 108.538(2)
_cell_angle_gamma                112.916(2)
_cell_volume                     1212.13
_chemical_melting_point          '184-188 deg.C'
_cell_formula_units_Z            1
loop_
_atom_site_label
_atom_site_type_symbol
_atom_site_fract_x
_atom_site_fract_y
_atom_site_fract_z
N1 N 0.0057(4) 0.3634(4) 0.5682(3)
H1 H 0.0616 0.3885 0.5259
N2 N -0.0236(4) 0.6004(4) 0.4778(4)
H2 H -0.0638 0.6369 0.5171
O1 O 0.0792(3) 0.1887(3) 0.6885(3)
H3 H 0.0201 0.2162 0.6528
O2 O 0.3535(4) 0.0851(4) 0.6720(3)
O3 O 0.2559(3) 0.6516(3) 0.5485(3)
H4 H 0.1923 0.6715 0.5577
O4 O 0.2465(3) 0.3643(3) 0.4660(3)
C1 C -0.1369(5) 0.3639(5) 0.5051(4)
H5 H -0.1665 0.4011 0.5621
C2 C -0.1309(5) 0.4544(6) 0.4177(4)
H6 H -0.0948 0.4211 0.3639
C3 C -0.2849(6) 0.4391(7) 0.3472(5)
H7 H -0.3202 0.4775 0.3979
H8 H -0.2786 0.4924 0.2891
C4 C -0.3944(7) 0.2889(8) 0.2884(6)
H9 H -0.4911 0.2835 0.2463
H10 H -0.3633 0.2520 0.2334
C5 C -0.4045(6) 0.2028(7) 0.3764(6)
H11 H -0.4724 0.1059 0.3373
H12 H -0.4428 0.2351 0.4279
C6 C -0.2527(6) 0.2143(6) 0.4463(5)
H13 H -0.2607 0.1619 0.5048
H14 H -0.2201 0.1725 0.3954
C7 C 0.0923(5) 0.4556(5) 0.6849(4)
H15 H 0.0315 0.4357 0.7306
H16 H 0.1213 0.5518 0.6801
C8 C 0.2128(5) 0.2998(5) 0.7497(4)
C9 C 0.2287(5) 0.4360(5) 0.7436(4)
C10 C 0.3649(5) 0.5460(5) 0.7993(4)
H17 H 0.3772 0.6348 0.7914
C11 C 0.4881(5) 0.5288(5) 0.8689(4)
C12 C 0.6267(6) 0.6416(6) 0.9303(5)
H18 H 0.6404 0.7309 0.9227
C13 C 0.7413(7) 0.6237(6) 1.0006(5)
H19 H 0.8334 0.6998 1.0397
C14 C 0.7205(6) 0.4908(6) 1.0140(6)
H20 H 0.7986 0.4793 1.0645
C15 C 0.5899(5) 0.3788(5) 0.9554(5)
H21 H 0.5798 0.2907 0.9642
C16 C 0.4679(5) 0.3930(5) 0.8808(4)
C17 C 0.3271(5) 0.2769(5) 0.8175(4)
C18 C 0.3033(5) 0.1349(5) 0.8351(4)
C19 C 0.3224(5) 0.0446(5) 0.7640(4)
C20 C 0.3051(6) -0.0871(5) 0.7850(5)
H22 H 0.3173 -0.1481 0.7363
C21 C 0.2709(6) -0.1242(6) 0.8755(5)
H23 H 0.2615 -0.2106 0.8890
C22 C 0.2489(6) -0.0367(5) 0.9501(5)
C23 C 0.2650(5) 0.0948(5) 0.9291(4)
C24 C 0.2404(5) 0.1811(6) 1.0029(4)
H24 H 0.2489 0.2673 0.9896
C25 C 0.2044(6) 0.1414(6) 1.0935(5)
H25 H 0.1892 0.2006 1.1414
C26 C 0.1904(7) 0.0127(7) 1.1142(6)
H26 H 0.1658 -0.0139 1.1761
C27 C 0.2121(7) -0.0739(7) 1.0455(6)
H27 H 0.2027 -0.1596 1.0607
C28 C 0.4338(6) 0.0280(6) 0.6261(5)
H28 H 0.4434 0.0633 0.5593
H29 H 0.3772 -0.0727 0.6004
C29 C 0.5821(7) 0.0629(7) 0.7111(5)
C30 C 0.6787(8) 0.1998(8) 0.7665(6)
H30 H 0.6481 0.2684 0.7493
C31 C 0.8208(10) 0.2397(12) 0.8476(8)
H31 H 0.8862 0.3326 0.8848
C32 C 0.8587(9) 0.1317(14) 0.8694(8)
H32 H 0.9529 0.1541 0.9229
C33 C 0.7649(12) -0.0058(13) 0.8164(8)
H33 H 0.7941 -0.0753 0.8335
C34 C 0.6266(8) -0.0379(8) 0.7375(6)
H34 H 0.5613 -0.1309 0.7008
C35 C 0.0201(6) 0.6904(6) 0.4020(5)
H35 H 0.0699 0.7873 0.4446
H36 H -0.0675 0.6770 0.3373
C36 C 0.2404(5) 0.6391(4) 0.4357(4)
C37 C 0.1221(5) 0.6569(5) 0.3573(4)
C38 C 0.1046(6) 0.6398(5) 0.2439(5)
H37 H 0.0269 0.6500 0.1914
C39 C 0.2003(5) 0.6072(5) 0.2037(4)
C40 C 0.1795(7) 0.5850(5) 0.0851(5)
H38 H 0.0997 0.5909 0.0311
C41 C 0.2745(7) 0.5554(6) 0.0500(5)
H39 H 0.2599 0.5422 -0.0279
C42 C 0.3942(7) 0.5443(6) 0.1286(5)
H40 H 0.4602 0.5258 0.1036
C43 C 0.4134(6) 0.5604(5) 0.2409(5)
H41 H 0.4918 0.5501 0.2924
C44 C 0.3188(5) 0.5922(5) 0.2831(4)
C45 C 0.3360(5) 0.6069(4) 0.4010(4)
C46 C 0.4462(5) 0.5744(5) 0.4858(4)
C47 C 0.3965(5) 0.4507(5) 0.5180(4)
C48 C 0.4921(5) 0.4161(5) 0.6020(4)
H42 H 0.4560 0.3317 0.6223
C49 C 0.6382(5) 0.5074(5) 0.6535(4)
H43 H 0.7010 0.4854 0.7107
C50 C 0.6964(5) 0.6332(5) 0.6229(4)
C51 C 0.5993(5) 0.6669(5) 0.5373(4)
C52 C 0.6602(5) 0.7925(5) 0.5060(4)
H44 H 0.5985 0.8156 0.4488
C53 C 0.8082(6) 0.8820(6) 0.5576(5)
H45 H 0.8454 0.9654 0.5362
C54 C 0.9035(6) 0.8486(6) 0.6423(5)
H46 H 1.0041 0.9092 0.6767
C55 C 0.8482(5) 0.7263(6) 0.6745(5)
H47 H 0.9119 0.7045 0.7312
C56 C 0.2019(6) 0.2193(5) 0.4352(5)
H48 H 0.2018 0.1813 0.5024
H49 H 0.2711 0.2024 0.4081
C57 C 0.0493(6) 0.1487(6) 0.3415(5)
C58 C 0.0002(7) 0.2152(7) 0.2603(5)
H50 H 0.0612 0.3070 0.2645
C59 C -0.1385(9) 0.1466(9) 0.1731(6)
H51 H -0.1710 0.1918 0.1185
C60 C -0.2282(9) 0.0116(11) 0.1672(8)
H52 H -0.3203 -0.0366 0.1066
C61 C -0.1820(10) -0.0517(10) 0.2502(9)
H53 H -0.2453 -0.1415 0.2486
C62 C -0.0441(7) 0.0151(7) 0.3356(7)
H54 H -0.0130 -0.0306 0.3904
loop_
_geom_bond_atom_site_label_1
_geom_bond_atom_site_label_2
_geom_bond_site_symmetry_1
_geom_bond_site_symmetry_2
N1 H1 1_555 1_555
N2 H2 1_555 1_555
O1 H3 1_555 1_555
O2 C19 1_555 1_555
O3 H4 1_555 1_555
O4 C47 1_555 1_555
C1 N1 1_555 1_555
H5 C1 1_555 1_555
C2 N2 1_555 1_555
H6 C2 1_555 1_555
C3 C2 1_555 1_555
H7 C3 1_555 1_555
H8 C3 1_555 1_555
C4 C3 1_555 1_555
H9 C4 1_555 1_555
H10 C4 1_555 1_555
C5 C4 1_555 1_555
H11 C5 1_555 1_555
H12 C5 1_555 1_555
C6 C1 1_555 1_555
H13 C6 1_555 1_555
H14 C6 1_555 1_555
C7 N1 1_555 1_555
H15 C7 1_555 1_555
H16 C7 1_555 1_555
C8 O1 1_555 1_555
C9 C7 1_555 1_555
C10 C9 1_555 1_555
H17 C10 1_555 1_555
C11 C10 1_555 1_555
C12 C11 1_555 1_555
H18 C12 1_555 1_555
C13 C12 1_555 1_555
H19 C13 1_555 1_555
C14 C13 1_555 1_555
H20 C14 1_555 1_555
C15 C14 1_555 1_555
H21 C15 1_555 1_555
C16 C11 1_555 1_555
C17 C8 1_555 1_555
C18 C17 1_555 1_555
C19 C18 1_555 1_555
C20 C19 1_555 1_555
H22 C20 1_555 1_555
C21 C20 1_555 1_555
H23 C21 1_555 1_555
C22 C21 1_555 1_555
C23 C18 1_555 1_555
C24 C23 1_555 1_555
H24 C24 1_555 1_555
C25 C24 1_555 1_555
H25 C25 1_555 1_555
C26 C25 1_555 1_555
H26 C26 1_555 1_555
C27 C22 1_555 1_555
H27 C27 1_555 1_555
C28 O2 1_555 1_555
H28 C28 1_555 1_555
H29 C28 1_555 1_555
C29 C28 1_555 1_555
C30 C29 1_555 1_555
H30 C30 1_555 1_555
C31 C30 1_555 1_555
H31 C31 1_555 1_555
C32 C31 1_555 1_555
H32 C32 1_555 1_555
C33 C32 1_555 1_555
H33 C33 1_555 1_555
C34 C29 1_555 1_555
H34 C34 1_555 1_555
C35 N2 1_555 1_555
H35 C35 1_555 1_555
H36 C35 1_555 1_555
C36 O3 1_555 1_555
C37 C35 1_555 1_555
C38 C37 1_555 1_555
H37 C38 1_555 1_555
C39 C38 1_555 1_555
C40 C39 1_555 1_555
H38 C40 1_555 1_555
C41 C40 1_555 1_555
H39 C41 1_555 1_555
C42 C41 1_555 1_555
H40 C42 1_555 1_555
C43 C42 1_555 1_555
H41 C43 1_555 1_555
C44 C39 1_555 1_555
C45 C36 1_555 1_555
C46 C45 1_555 1_555
C47 C46 1_555 1_555
C48 C47 1_555 1_555
H42 C48 1_555 1_555
C49 C48 1_555 1_555
H43 C49 1_555 1_555
C50 C49 1_555 1_555
C51 C46 1_555 1_555
C52 C51 1_555 1_555
H44 C52 1_555 1_555
C53 C52 1_555 1_555
H45 C53 1_555 1_555
C54 C53 1_555 1_555
H46 C54 1_555 1_555
C55 C50 1_555 1_555
H47 C55 1_555 1_555
C56 O4 1_555 1_555
H48 C56 1_555 1_555
H49 C56 1_555 1_555
C57 C56 1_555 1_555
C58 C57 1_555 1_555
H50 C58 1_555 1_555
C59 C58 1_555 1_555
H51 C59 1_555 1_555
C60 C59 1_555 1_555
H52 C60 1_555 1_555
C61 C60 1_555 1_555
H53 C61 1_555 1_555
C62 C57 1_555 1_555
H54 C62 1_555 1_555
C1 C2 1_555 1_555
C5 C6 1_555 1_555
C8 C9 1_555 1_555
C15 C16 1_555 1_555
C16 C17 1_555 1_555
C22 C23 1_555 1_555
C26 C27 1_555 1_555
C33 C34 1_555 1_555
C36 C37 1_555 1_555
C43 C44 1_555 1_555
C44 C45 1_555 1_555
C50 C51 1_555 1_555
C54 C55 1_555 1_555
C61 C62 1_555 1_555

#END
