
#######################################################################
#
#                 Cambridge Crystallographic Data Centre
#                                CCDC 
#
#######################################################################
#
# If this CIF has been generated from an entry in the Cambridge 
# Structural Database, then it will include bibliographic, chemical, 
# crystal, experimental, refinement or atomic coordinate data resulting 
# from the CCDC's data processing and validation procedures.
#
#######################################################################

data_CYBUTB10
_chemical_formula_moiety         'C31 H35 Br1 O10'
_chemical_name_systematic        'Cyclobutatusin p-bromobenzoyl ester'
_symmetry_cell_setting           orthorhombic
_symmetry_space_group_name_H-M   'P 21 21 21'
_symmetry_Int_Tables_number      19
_space_group_name_Hall           'P 2ac 2ab'
loop_
_symmetry_equiv_pos_site_id
_symmetry_equiv_pos_as_xyz
1 x,y,z
2 1/2+x,1/2-y,-z
3 -x,1/2+y,1/2-z
4 1/2-x,-y,1/2+z
_cell_length_a                   14.091(3)
_cell_length_b                   15.268(3)
_cell_length_c                   14.018(3)
_cell_angle_alpha                90
_cell_angle_beta                 90
_cell_angle_gamma                90
_cell_volume                     3015.85
_chemical_melting_point          286deg.C
_cell_formula_units_Z            4
loop_
_atom_site_label
_atom_site_type_symbol
_atom_site_fract_x
_atom_site_fract_y
_atom_site_fract_z
Br1 Br -0.31280 -0.42420 0.05170
C1 C 0.28180 -0.43260 -0.57820
C2 C 0.37000 -0.48730 -0.57050
C3 C 0.37740 -0.54960 -0.48810
C4 C 0.28740 -0.59050 -0.44500
C5 C 0.21140 -0.51510 -0.44210
C6 C 0.12340 -0.53000 -0.37970
C7 C 0.05590 -0.45520 -0.39690
C8 C 0.10910 -0.36890 -0.41230
C9 C 0.15610 -0.37850 -0.51300
C10 C 0.18940 -0.47260 -0.53770
C11 C 0.25780 -0.34200 -0.52990
C12 C 0.31460 -0.30990 -0.44200
C13 C 0.24790 -0.27470 -0.36720
C14 C 0.17420 -0.33930 -0.33410
O1 O 0.45430 -0.57240 -0.45900
C15 C 0.26360 -0.66910 -0.50970
C16 C 0.30850 -0.62320 -0.34460
O2 O 0.07430 -0.60990 -0.40780
C17 C 0.04350 -0.66550 -0.33720
O3 O 0.05700 -0.65140 -0.25540
C18 C 0.00030 -0.74470 -0.38250
O4 O -0.00690 -0.45260 -0.31510
C19 C -0.08560 -0.40530 -0.31930
O5 O -0.10760 -0.36190 -0.38810
C20 C -0.14340 -0.41390 -0.23200
C21 C -0.10910 -0.46450 -0.15520
C22 C -0.16110 -0.46810 -0.07230
C23 C -0.24300 -0.42180 -0.06490
C24 C -0.28200 -0.37520 -0.13950
C25 C -0.22810 -0.36980 -0.22480
C26 C 0.12700 -0.52370 -0.60780
O6 O 0.25420 -0.27060 -0.59200
O7 O 0.37120 -0.37510 -0.39320
C27 C 0.46670 -0.36410 -0.39950
O8 O 0.50540 -0.31990 -0.45920
C28 C 0.51880 -0.41780 -0.32720
C29 C 0.21690 -0.17930 -0.37000
C30 C 0.28390 -0.20880 -0.29120
C31 C 0.38150 -0.17140 -0.28690
O9 O 0.16520 -0.36230 -0.25240
O10 O 0.09220 -0.34710 -0.58360
H1 H 0.26300 -0.42100 -0.63200
H2 H 0.39500 -0.52600 -0.63200
H3 H 0.42100 -0.43400 -0.60000
H4 H 0.25500 -0.47400 -0.39500
H5 H 0.17100 -0.52600 -0.31600
H6 H 0.01300 -0.47400 -0.46000
H7 H 0.06600 -0.31000 -0.44200
H8 H 0.36100 -0.24500 -0.47400
H9 H 0.31600 -0.72900 -0.48700
H10 H 0.21100 -0.71600 -0.47400
H11 H 0.26300 -0.67100 -0.57100
H12 H 0.26300 -0.65000 -0.31600
H13 H 0.31100 -0.56600 -0.31600
H14 H 0.36800 -0.65800 -0.34200
H15 H -0.02600 -0.80300 -0.32900
H16 H -0.05300 -0.72400 -0.44200
H17 H 0.06800 -0.76800 -0.33900
H18 H -0.05300 -0.52100 -0.16300
H19 H -0.14200 -0.51000 -0.01300
H20 H -0.33200 -0.31000 -0.15800
H21 H -0.27600 -0.32900 -0.27400
H22 H 0.06900 -0.56600 -0.56600
H23 H 0.09200 -0.48700 -0.67100
H24 H 0.18400 -0.56600 -0.64500
H25 H 0.30300 -0.29000 -0.64700
H26 H 0.48700 -0.46000 -0.32900
H27 H 0.50500 -0.38200 -0.25500
H28 H 0.18400 -0.15800 -0.31600
H29 H 0.25300 -0.17100 -0.44700
H30 H 0.26300 -0.23700 -0.21600
H31 H 0.40800 -0.14500 -0.21000
H32 H 0.42100 -0.24500 -0.27600
H33 H 0.40800 -0.17100 -0.36000
H34 H 0.07900 -0.27600 -0.60500
loop_
_geom_bond_atom_site_label_1
_geom_bond_atom_site_label_2
_geom_bond_site_symmetry_1
_geom_bond_site_symmetry_2
Br1 C23 1_555 1_555
C1 C2 1_555 1_555
C2 C3 1_555 1_555
C3 C4 1_555 1_555
C4 C5 1_555 1_555
C5 C6 1_555 1_555
C6 C7 1_555 1_555
C7 C8 1_555 1_555
C8 C9 1_555 1_555
C9 C10 1_555 1_555
C10 C1 1_555 1_555
C11 C1 1_555 1_555
C12 C11 1_555 1_555
C13 C12 1_555 1_555
C14 C8 1_555 1_555
O1 C3 1_555 1_555
C15 C4 1_555 1_555
C16 C4 1_555 1_555
O2 C6 1_555 1_555
C17 O2 1_555 1_555
O3 C17 1_555 1_555
C18 C17 1_555 1_555
O4 C7 1_555 1_555
C19 O4 1_555 1_555
O5 C19 1_555 1_555
C20 C19 1_555 1_555
C21 C20 1_555 1_555
C22 C21 1_555 1_555
C23 C22 1_555 1_555
C24 C23 1_555 1_555
C25 C20 1_555 1_555
C26 C10 1_555 1_555
O6 C11 1_555 1_555
O7 C12 1_555 1_555
C27 O7 1_555 1_555
O8 C27 1_555 1_555
C28 C27 1_555 1_555
C29 C13 1_555 1_555
C30 C13 1_555 1_555
C31 C30 1_555 1_555
O9 C14 1_555 1_555
O10 C9 1_555 1_555
H1 C1 1_555 1_555
H2 C2 1_555 1_555
H3 C2 1_555 1_555
H4 C5 1_555 1_555
H5 C6 1_555 1_555
H6 C7 1_555 1_555
H7 C8 1_555 1_555
H8 C12 1_555 1_555
H9 C15 1_555 1_555
H10 C15 1_555 1_555
H11 C15 1_555 1_555
H12 C16 1_555 1_555
H13 C16 1_555 1_555
H14 C16 1_555 1_555
H15 C18 1_555 1_555
H16 C18 1_555 1_555
H17 C18 1_555 1_555
H18 C21 1_555 1_555
H19 C22 1_555 1_555
H20 C24 1_555 1_555
H21 C25 1_555 1_555
H22 C26 1_555 1_555
H23 C26 1_555 1_555
H24 C26 1_555 1_555
H25 O6 1_555 1_555
H26 C28 1_555 1_555
H27 C28 1_555 1_555
H28 C29 1_555 1_555
H29 C29 1_555 1_555
H30 C30 1_555 1_555
H31 C31 1_555 1_555
H32 C31 1_555 1_555
H33 C31 1_555 1_555
H34 O10 1_555 1_555
C5 C10 1_555 1_555
C9 C11 1_555 1_555
C13 C14 1_555 1_555
C24 C25 1_555 1_555
C29 C30 1_555 1_555

#END
