
#######################################################################
#
#                 Cambridge Crystallographic Data Centre
#                                CCDC 
#
#######################################################################
#
# If this CIF has been generated from an entry in the Cambridge 
# Structural Database, then it will include bibliographic, chemical, 
# crystal, experimental, refinement or atomic coordinate data resulting 
# from the CCDC's data processing and validation procedures.
#
#######################################################################

data_CYPDBE02
_chemical_name_common            Beryllocene
_chemical_formula_moiety         'C10 H10 Be1'
_chemical_name_systematic        bis(Cyclopentadienyl)-beryllium
_symmetry_cell_setting           monoclinic
_symmetry_space_group_name_H-M   'P 21/n'
_symmetry_Int_Tables_number      14
_space_group_name_Hall           '-P 2yn'
loop_
_symmetry_equiv_pos_site_id
_symmetry_equiv_pos_as_xyz
1 x,y,z
2 1/2-x,1/2+y,1/2-z
3 -x,-y,-z
4 1/2+x,1/2-y,1/2+z
_cell_length_a                   5.893(6)
_cell_length_b                   7.683(6)
_cell_length_c                   9.343(6)
_cell_angle_alpha                90
_cell_angle_beta                 87.73(10)
_cell_angle_gamma                90
_cell_volume                     422.681
_cell_formula_units_Z            2
loop_
_atom_site_label
_atom_site_type_symbol
_atom_site_fract_x
_atom_site_fract_y
_atom_site_fract_z
C1 C -0.45400 -0.42000 0.26100
C2 C -0.26500 -0.42900 0.33500
C3 C -0.29900 -0.32700 0.44800
C4 C -0.51200 -0.25000 0.45300
C5 C -0.59600 -0.31200 0.33000
H1 H -0.47900 -0.48300 0.16900
H2 H -0.12900 -0.49900 0.30800
H3 H -0.18300 -0.30800 0.52500
H4 H -0.58400 -0.17000 0.52500
H5 H -0.75200 -0.27900 0.29800
loop_
_geom_bond_atom_site_label_1
_geom_bond_atom_site_label_2
_geom_bond_site_symmetry_1
_geom_bond_site_symmetry_2
C1 C2 1_555 1_555
C2 C3 1_555 1_555
C3 C4 1_555 1_555
C4 C5 1_555 1_555
C5 C1 1_555 1_555
H1 C1 1_555 1_555
H2 C2 1_555 1_555
H3 C3 1_555 1_555
H4 C4 1_555 1_555
H5 C5 1_555 1_555

#END
