
#######################################################################
#
#                 Cambridge Crystallographic Data Centre
#                                CCDC 
#
#######################################################################
#
# If this CIF has been generated from an entry in the Cambridge 
# Structural Database, then it will include bibliographic, chemical, 
# crystal, experimental, refinement or atomic coordinate data resulting 
# from the CCDC's data processing and validation procedures.
#
#######################################################################

data_DABBIU
_chemical_compound_source        'twigs and leaves of Walsura cochinchinensis'
_chemical_name_common            'Cochinchinoid K methanol solvate'
_chemical_formula_moiety         'C30 H48 O5,C1 H4 O1'
_chemical_name_systematic        
'(3S,5R,9R,10R,13S,14S,17S,20S,23R,24S)-3,24,25-Trihydroxy-21,23-epoxylanost-7-en-21-one methanol solvate'
_chemical_properties_biological  'inhibitory activity against mouse 11beta-HSD1'
_symmetry_cell_setting           monoclinic
_symmetry_space_group_name_H-M   'P 21'
_symmetry_Int_Tables_number      4
_space_group_name_Hall           'P 2yb'
loop_
_symmetry_equiv_pos_site_id
_symmetry_equiv_pos_as_xyz
1 x,y,z
2 -x,1/2+y,-z
_cell_length_a                   12.6796(2)
_cell_length_b                   7.24910(10)
_cell_length_c                   16.0859(2)
_cell_angle_alpha                90
_cell_angle_beta                 105.1790(10)
_cell_angle_gamma                90
_cell_volume                     1426.96
_exptl_crystal_colour            colorless
_exptl_crystal_description       block
_chemical_melting_point          '224-226 deg.C'
_cell_formula_units_Z            2
_chemical_properties_physical    Deliquescent
_exptl_crystal_recrystallization_method n-hexane/acetone/methanol
loop_
_atom_site_label
_atom_site_type_symbol
_atom_site_fract_x
_atom_site_fract_y
_atom_site_fract_z
O1 O 0.00503(8) 0.95338(17) 0.10164(6)
H1 H 0.0289 0.8850 0.0686
O2 O 0.59172(10) 1.3038(2) 0.69452(7)
O3 O 0.67422(9) 1.25032(18) 0.83184(6)
O4 O 0.60468(8) 1.18978(19) 0.98714(7)
H2 H 0.5813 1.1048 1.0130
O5 O 0.89740(8) 1.25753(17) 1.00980(6)
H3 H 0.9266 1.1721 1.0432
C1 C 0.17212(11) 1.1480(2) 0.31236(9)
H4 H 0.1765 1.2757 0.3348
H5 H 0.2450 1.1146 0.3054
C2 C 0.08863(12) 1.1418(2) 0.22388(9)
H6 H 0.0164 1.1825 0.2297
H7 H 0.1115 1.2277 0.1841
C3 C 0.07928(10) 0.9486(2) 0.18689(8)
H8 H 0.1529 0.9105 0.1813
C4 C 0.04213(11) 0.8073(2) 0.24525(8)
C5 C 0.12272(10) 0.8212(2) 0.33785(8)
H9 H 0.1952 0.7811 0.3304
C6 C 0.09566(12) 0.6816(2) 0.40040(9)
H10 H 0.0196 0.7017 0.4037
H11 H 0.1004 0.5555 0.3781
C7 C 0.17148(11) 0.6969(2) 0.48908(8)
H12 H 0.1717 0.5993 0.5285
C8 C 0.23849(11) 0.8386(2) 0.51600(8)
C9 C 0.24653(10) 0.9993(2) 0.45712(8)
H13 H 0.3093 0.9708 0.4324
C10 C 0.14337(10) 1.0170(2) 0.37860(8)
C11 C 0.27645(12) 1.1799(2) 0.50883(9)
H14 H 0.2134 1.2183 0.5302
H15 H 0.2889 1.2775 0.4694
C12 C 0.37913(11) 1.1670(2) 0.58674(8)
H16 H 0.4418 1.2238 0.5703
H17 H 0.3657 1.2397 0.6351
C13 C 0.41012(10) 0.9691(2) 0.61803(8)
C14 C 0.30427(11) 0.8537(2) 0.60981(8)
C15 C 0.34806(14) 0.6739(2) 0.65615(10)
H18 H 0.3731 0.5887 0.6171
H19 H 0.2913 0.6115 0.6781
C16 C 0.44521(14) 0.7364(2) 0.73155(10)
H20 H 0.5110 0.6620 0.7327
H21 H 0.4268 0.7210 0.7873
C17 C 0.46639(11) 0.9430(2) 0.71585(8)
H22 H 0.4241 1.0175 0.7484
C18 C 0.48385(12) 0.8818(3) 0.56651(9)
H23 H 0.4423 0.8666 0.5063
H24 H 0.5094 0.7611 0.5911
H25 H 0.5468 0.9623 0.5693
C19 C 0.04566(11) 1.0896(2) 0.40907(9)
H26 H 0.0592 1.2180 0.4280
H27 H 0.0364 1.0140 0.4572
H28 H -0.0208 1.0830 0.3615
C20 C 0.58872(12) 0.9911(2) 0.75300(9)
H29 H 0.6331 0.9225 0.7201
C21 C 0.61455(11) 1.1952(3) 0.75244(9)
C22 C 0.62864(13) 0.9402(3) 0.84930(9)
H30 H 0.5669 0.9368 0.8763
H31 H 0.6652 0.8184 0.8568
C23 C 0.70907(12) 1.0931(3) 0.88854(9)
H32 H 0.7842 1.0556 0.8863
C24 C 0.71140(11) 1.1444(2) 0.98063(9)
H33 H 0.7343 1.0311 1.0163
C25 C 0.79157(11) 1.2988(2) 1.02252(8)
C26 C 0.79770(12) 1.3033(3) 1.11881(9)
H34 H 0.8161 1.1801 1.1434
H35 H 0.7268 1.3413 1.1268
H36 H 0.8540 1.3912 1.1478
C27 C 0.76049(12) 1.4902(2) 0.98420(10)
H37 H 0.8120 1.5816 1.0167
H38 H 0.6864 1.5206 0.9874
H39 H 0.7632 1.4910 0.9239
C28 C 0.05438(12) 0.6129(2) 0.21066(9)
H40 H 0.0182 0.5231 0.2395
H41 H 0.1321 0.5821 0.2220
H42 H 0.0206 0.6095 0.1485
C29 C -0.08009(11) 0.8326(2) 0.24028(9)
H43 H -0.1239 0.8013 0.1822
H44 H -0.0938 0.9612 0.2531
H45 H -0.1003 0.7515 0.2823
C30 C 0.22726(11) 0.9411(3) 0.65959(9)
H46 H 0.2082 1.0668 0.6386
H47 H 0.2643 0.9448 0.7212
H48 H 0.1606 0.8669 0.6505
O6 O 0.54823(10) 0.9368(2) 0.08345(8)
H49 H 0.4994 0.8614 0.0596
C31 C 0.61960(14) 0.8530(3) 0.15442(12)
H50 H 0.6837 0.9321 0.1759
H51 H 0.6430 0.7333 0.1372
H52 H 0.5823 0.8349 0.2000
loop_
_geom_bond_atom_site_label_1
_geom_bond_atom_site_label_2
_geom_bond_site_symmetry_1
_geom_bond_site_symmetry_2
O1 H1 1_555 1_555
O2 C21 1_555 1_555
O3 C21 1_555 1_555
O4 H2 1_555 1_555
O5 H3 1_555 1_555
C1 H4 1_555 1_555
H5 C1 1_555 1_555
C2 C1 1_555 1_555
H6 C2 1_555 1_555
H7 C2 1_555 1_555
C3 O1 1_555 1_555
H8 C3 1_555 1_555
C4 C3 1_555 1_555
C5 C4 1_555 1_555
H9 C5 1_555 1_555
C6 C5 1_555 1_555
H10 C6 1_555 1_555
H11 C6 1_555 1_555
C7 C6 1_555 1_555
H12 C7 1_555 1_555
C8 C7 1_555 1_555
C9 C8 1_555 1_555
H13 C9 1_555 1_555
C10 C1 1_555 1_555
C11 C9 1_555 1_555
H14 C11 1_555 1_555
H15 C11 1_555 1_555
C12 C11 1_555 1_555
H16 C12 1_555 1_555
H17 C12 1_555 1_555
C13 C12 1_555 1_555
C14 C8 1_555 1_555
C15 C14 1_555 1_555
H18 C15 1_555 1_555
H19 C15 1_555 1_555
C16 C15 1_555 1_555
H20 C16 1_555 1_555
H21 C16 1_555 1_555
C17 C13 1_555 1_555
H22 C17 1_555 1_555
C18 C13 1_555 1_555
H23 C18 1_555 1_555
H24 C18 1_555 1_555
H25 C18 1_555 1_555
C19 C10 1_555 1_555
H26 C19 1_555 1_555
H27 C19 1_555 1_555
H28 C19 1_555 1_555
C20 C17 1_555 1_555
H29 C20 1_555 1_555
C21 C20 1_555 1_555
C22 C20 1_555 1_555
H30 C22 1_555 1_555
H31 C22 1_555 1_555
C23 O3 1_555 1_555
H32 C23 1_555 1_555
C24 O4 1_555 1_555
H33 C24 1_555 1_555
C25 O5 1_555 1_555
C26 C25 1_555 1_555
H34 C26 1_555 1_555
H35 C26 1_555 1_555
H36 C26 1_555 1_555
C27 C25 1_555 1_555
H37 C27 1_555 1_555
H38 C27 1_555 1_555
H39 C27 1_555 1_555
C28 C4 1_555 1_555
H40 C28 1_555 1_555
H41 C28 1_555 1_555
H42 C28 1_555 1_555
C29 C4 1_555 1_555
H43 C29 1_555 1_555
H44 C29 1_555 1_555
H45 C29 1_555 1_555
C30 C14 1_555 1_555
H46 C30 1_555 1_555
H47 C30 1_555 1_555
H48 C30 1_555 1_555
O6 H49 1_555 1_555
C31 O6 1_555 1_555
H50 C31 1_555 1_555
H51 C31 1_555 1_555
H52 C31 1_555 1_555
C2 C3 1_555 1_555
C5 C10 1_555 1_555
C9 C10 1_555 1_555
C13 C14 1_555 1_555
C16 C17 1_555 1_555
C22 C23 1_555 1_555
C23 C24 1_555 1_555
C24 C25 1_555 1_555

#END
