
#######################################################################
#
#                 Cambridge Crystallographic Data Centre
#                                CCDC 
#
#######################################################################
#
# If this CIF has been generated from an entry in the Cambridge 
# Structural Database, then it will include bibliographic, chemical, 
# crystal, experimental, refinement or atomic coordinate data resulting 
# from the CCDC's data processing and validation procedures.
#
#######################################################################

data_DABCOA
_chemical_formula_moiety         'C16 H12 N4'
_chemical_name_systematic        
4-((3-(Pyridin-2-yl)-1H-pyrazol-1-yl)methyl)benzonitrile
_symmetry_cell_setting           monoclinic
_symmetry_space_group_name_H-M   'P 21/c'
_symmetry_Int_Tables_number      14
_space_group_name_Hall           '-P 2ybc'
loop_
_symmetry_equiv_pos_site_id
_symmetry_equiv_pos_as_xyz
1 x,y,z
2 -x,1/2+y,1/2-z
3 -x,-y,-z
4 x,1/2-y,1/2+z
_cell_length_a                   9.804(2)
_cell_length_b                   10.805(3)
_cell_length_c                   12.268(3)
_cell_angle_alpha                90
_cell_angle_beta                 99.515(9)
_cell_angle_gamma                90
_cell_volume                     1281.7
_exptl_crystal_colour            colorless
_exptl_crystal_description       block
_cell_formula_units_Z            4
_exptl_crystal_recrystallization_method 'diethyl ether/dichloromethane'
loop_
_atom_site_label
_atom_site_type_symbol
_atom_site_fract_x
_atom_site_fract_y
_atom_site_fract_z
N1 N -0.24336(10) 0.12758(9) 0.53273(8)
C1 C -0.10536(11) 0.12577(10) 0.56099(8)
C2 C -0.01745(12) 0.17868(10) 0.49551(9)
H1 H 0.0800 0.1754 0.5178
C3 C -0.07398(12) 0.23604(10) 0.39760(9)
H2 H -0.0160 0.2729 0.3518
C4 C -0.21636(12) 0.23890(10) 0.36734(9)
H3 H -0.2584 0.2777 0.3007
C5 C -0.29550(12) 0.18361(11) 0.43690(10)
H4 H -0.3932 0.1852 0.4157
N2 N 0.10337(10) -0.00493(8) 0.79611(7)
N3 N 0.08771(10) 0.06177(8) 0.70160(7)
C6 C -0.04881(11) 0.06300(10) 0.66563(9)
C7 C -0.12018(12) -0.00278(10) 0.73783(9)
H5 H -0.2171 -0.0154 0.7309
C8 C -0.01895(12) -0.04454(11) 0.82025(9)
H6 H -0.0323 -0.0924 0.8826
C9 C 0.24104(12) -0.02328(10) 0.85984(9)
H7 H 0.3069 -0.0382 0.8082
H8 H 0.2400 -0.0982 0.9062
C10 C 0.29213(11) 0.08544(10) 0.93384(9)
C11 C 0.28952(11) 0.20597(10) 0.89197(9)
H9 H 0.2527 0.2206 0.8165
C12 C 0.33995(11) 0.30413(10) 0.95929(9)
H10 H 0.3366 0.3859 0.9306
C13 C 0.39596(11) 0.28159(10) 1.07016(9)
C14 C 0.39910(12) 0.16220(11) 1.11292(9)
H11 H 0.4367 0.1474 1.1882
C15 C 0.34698(12) 0.06495(11) 1.04472(9)
H12 H 0.3486 -0.0166 1.0739
C16 C 0.45307(12) 0.38126(11) 1.14161(9)
N4 N 0.50059(11) 0.45813(10) 1.20035(9)
loop_
_geom_bond_atom_site_label_1
_geom_bond_atom_site_label_2
_geom_bond_site_symmetry_1
_geom_bond_site_symmetry_2
N1 C1 1_555 1_555
C1 C2 1_555 1_555
C2 H1 1_555 1_555
C3 C2 1_555 1_555
H2 C3 1_555 1_555
C4 C3 1_555 1_555
H3 C4 1_555 1_555
C5 N1 1_555 1_555
H4 C5 1_555 1_555
N2 N3 1_555 1_555
N3 C6 1_555 1_555
C6 C1 1_555 1_555
C7 C6 1_555 1_555
H5 C7 1_555 1_555
C8 N2 1_555 1_555
H6 C8 1_555 1_555
C9 N2 1_555 1_555
H7 C9 1_555 1_555
H8 C9 1_555 1_555
C10 C9 1_555 1_555
C11 C10 1_555 1_555
H9 C11 1_555 1_555
C12 C11 1_555 1_555
H10 C12 1_555 1_555
C13 C12 1_555 1_555
C14 C13 1_555 1_555
H11 C14 1_555 1_555
C15 C10 1_555 1_555
H12 C15 1_555 1_555
C16 C13 1_555 1_555
N4 C16 1_555 1_555
C4 C5 1_555 1_555
C7 C8 1_555 1_555
C14 C15 1_555 1_555

#END
