
#######################################################################
#
#                 Cambridge Crystallographic Data Centre
#                                CCDC 
#
#######################################################################
#
# If this CIF has been generated from an entry in the Cambridge 
# Structural Database, then it will include bibliographic, chemical, 
# crystal, experimental, refinement or atomic coordinate data resulting 
# from the CCDC's data processing and validation procedures.
#
#######################################################################

data_DABKEY
_chemical_formula_moiety         'C34 H22,C6 H12,C4 H8 O1'
_chemical_name_systematic        
'anti-9,10-bis(1-naphthyl)anthracene cyclohexane tetrahydrofuran solvate'
_symmetry_cell_setting           monoclinic
_symmetry_space_group_name_H-M   'C 2/c'
_symmetry_Int_Tables_number      15
_space_group_name_Hall           '-C 2yn'
loop_
_symmetry_equiv_pos_site_id
_symmetry_equiv_pos_as_xyz
1 x,y,z
2 -x,y,1/2-z
3 1/2+x,1/2+y,z
4 1/2-x,1/2+y,1/2-z
5 -x,-y,-z
6 x,-y,1/2+z
7 1/2-x,1/2-y,-z
8 1/2+x,1/2-y,1/2+z
_cell_length_a                   14.671(3)
_cell_length_b                   10.131(2)
_cell_length_c                   21.231(4)
_cell_angle_alpha                90
_cell_angle_beta                 101.27(3)
_cell_angle_gamma                90
_cell_volume                     3094.75
_exptl_crystal_colour            colorless
_exptl_crystal_description       block
_cell_formula_units_Z            4
_exptl_crystal_recrystallization_method tetrahydrofuran/hexane
loop_
_atom_site_label
_atom_site_type_symbol
_atom_site_fract_x
_atom_site_fract_y
_atom_site_fract_z
C1 C 0.09085(14) 0.44733(19) 0.00967(10)
C2 C 0.18253(15) 0.3925(2) 0.02193(11)
H1 H 0.2137 0.382 -0.0119
C3 C 0.22489(16) 0.3554(3) 0.08212(11)
H2 H 0.2846 0.3204 0.089
C4 C 0.17861(17) 0.3697(3) 0.13423(11)
H3 H 0.2079 0.3429 0.1751
C5 C 0.09193(16) 0.4222(2) 0.12518(10)
H4 H 0.0628 0.4316 0.1601
C6 C 0.04438(14) 0.4634(2) 0.06287(10)
C7 C 0.04593(14) 0.48400(19) -0.05255(10)
C8 C 0.09420(14) 0.4664(2) -0.10802(10)
C9 C 0.16286(14) 0.5587(2) -0.11905(10)
C10 C 0.18474(17) 0.6742(2) -0.08166(11)
H5 H 0.1533 0.692 -0.0486
C11 C 0.25167(19) 0.7606(3) -0.09340(12)
H6 H 0.2643 0.8369 -0.0689
C12 C 0.30116(18) 0.7339(3) -0.14233(12)
H7 H 0.3473 0.7918 -0.1494
C13 C 0.28204(17) 0.6235(3) -0.17957(11)
H8 H 0.3158 0.6064 -0.2115
C14 C 0.21128(15) 0.5348(2) -0.17001(10)
C15 C 0.18704(16) 0.4233(2) -0.21014(11)
H9 H 0.2183 0.4072 -0.2435
C16 C 0.11857(16) 0.3398(2) -0.20042(11)
H10 H 0.1018 0.2689 -0.228
C17 C 0.07277(15) 0.3603(2) -0.14859(10)
H11 H 0.0273 0.3009 -0.1418
C1D C -0.09085(14) 0.55267(19) -0.00967(10)
C2D C -0.18253(15) 0.6075(2) -0.02193(11)
H1D H -0.2137 0.618 0.0119
C3D C -0.22489(16) 0.6446(3) -0.08212(11)
H2D H -0.2846 0.6796 -0.089
C4D C -0.17861(17) 0.6303(3) -0.13423(11)
H3D H -0.2079 0.6571 -0.1751
C5D C -0.09193(16) 0.5778(2) -0.12518(10)
H4D H -0.0628 0.5684 -0.1601
C6D C -0.04438(14) 0.5366(2) -0.06287(10)
C7D C -0.04593(14) 0.51600(19) 0.05255(10)
C8D C -0.09420(14) 0.5336(2) 0.10802(10)
C9D C -0.16286(14) 0.4413(2) 0.11905(10)
C10D C -0.18474(17) 0.3258(2) 0.08166(11)
H5D H -0.1533 0.308 0.0486
C11D C -0.25167(19) 0.2394(3) 0.09340(12)
H6D H -0.2643 0.1631 0.0689
C12D C -0.30116(18) 0.2661(3) 0.14233(12)
H7D H -0.3473 0.2082 0.1494
C13D C -0.28204(17) 0.3765(3) 0.17957(11)
H8D H -0.3158 0.3936 0.2115
C14D C -0.21128(15) 0.4652(2) 0.17001(10)
C15D C -0.18704(16) 0.5767(2) 0.21014(11)
H9D H -0.2183 0.5928 0.2435
C16D C -0.11857(16) 0.6602(2) 0.20042(11)
H10D H -0.1018 0.7311 0.228
C17D C -0.07277(15) 0.6397(2) 0.14859(10)
H11D H -0.0273 0.6991 0.1418
O1 O 0.00000 0.0509(3) -0.25
C18 C -0.0399(4) -0.0254(5) -0.3018(2)
H12 H -0.0115 -0.0073 -0.3385
H13 H -0.106 -0.0079 -0.3137
C19 C -0.0236(6) -0.1589(6) -0.2813(4)
H14 H -0.0823 -0.205 -0.2846
H15 H 0.0127 -0.2038 -0.3084
C18A C 0.0399(4) -0.0254(5) -0.1982(2)
H12A H 0.0115 -0.0073 -0.1615
H13A H 0.106 -0.0079 -0.1863
C19A C 0.0236(6) -0.1589(6) -0.2187(4)
H14A H 0.0823 -0.205 -0.2154
H15A H -0.0127 -0.2038 -0.1916
C20 C 0.4232(4) 0.5250(6) 0.0062(4)
H16 H 0.3823 0.5649 0.0316
H17 H 0.3878 0.5169 -0.0372
C21 C 0.5049(5) 0.3849(5) -0.0044(4)
H18 H 0.4753 0.3658 -0.0484
H19 H 0.5331 0.3034 0.0139
C22 C 0.4402(5) 0.4153(8) 0.0263(4)
H20 H 0.3868 0.3574 0.0153
H21 H 0.4624 0.4145 0.0725
C20D C 0.5768(4) 0.4750(6) -0.0062(4)
H16D H 0.6177 0.4351 -0.0316
H17D H 0.6122 0.4831 0.0372
C21D C 0.4951(5) 0.6151(5) 0.0044(4)
H18D H 0.5247 0.6342 0.0484
H19D H 0.4669 0.6966 -0.0139
C22D C 0.5598(5) 0.5847(8) -0.0263(4)
H20D H 0.6132 0.6426 -0.0153
H21D H 0.5376 0.5855 -0.0725
loop_
_geom_bond_atom_site_label_1
_geom_bond_atom_site_label_2
_geom_bond_site_symmetry_1
_geom_bond_site_symmetry_2
C1 C2 1_555 1_555
C2 H1 1_555 1_555
C3 C2 1_555 1_555
H2 C3 1_555 1_555
C4 C3 1_555 1_555
H3 C4 1_555 1_555
C5 C4 1_555 1_555
H4 C5 1_555 1_555
C6 C1 1_555 1_555
C7 C1 1_555 1_555
C8 C7 1_555 1_555
C9 C8 1_555 1_555
C10 C9 1_555 1_555
H5 C10 1_555 1_555
C11 C10 1_555 1_555
H6 C11 1_555 1_555
C12 C11 1_555 1_555
H7 C12 1_555 1_555
C13 C12 1_555 1_555
H8 C13 1_555 1_555
C14 C9 1_555 1_555
C15 C14 1_555 1_555
H9 C15 1_555 1_555
C16 C15 1_555 1_555
H10 C16 1_555 1_555
C17 C8 1_555 1_555
H11 C17 1_555 1_555
O1 C18 1_555 1_555
C18 H12 1_555 1_555
H13 C18 1_555 1_555
C19 C18 1_555 1_555
H14 C19 1_555 1_555
H15 C19 1_555 1_555
C20 H16 1_555 1_555
H17 C20 1_555 1_555
C21 H18 1_555 1_555
H19 C21 1_555 1_555
C22 C20 1_555 1_555
H20 C22 1_555 1_555
H21 C22 1_555 1_555
C1D C2D 1_555 1_555
C2D H1D 1_555 1_555
C3D C2D 1_555 1_555
H2D C3D 1_555 1_555
C4D C3D 1_555 1_555
H3D C4D 1_555 1_555
C5D C4D 1_555 1_555
H4D C5D 1_555 1_555
C6D C7 1_555 1_555
C7D C6 1_555 1_555
C8D C7D 1_555 1_555
C9D C8D 1_555 1_555
C10D C9D 1_555 1_555
H5D C10D 1_555 1_555
C11D C10D 1_555 1_555
H6D C11D 1_555 1_555
C12D C11D 1_555 1_555
H7D C12D 1_555 1_555
C13D C12D 1_555 1_555
H8D C13D 1_555 1_555
C14D C9D 1_555 1_555
C15D C14D 1_555 1_555
H9D C15D 1_555 1_555
C16D C15D 1_555 1_555
H10D C16D 1_555 1_555
C17D C8D 1_555 1_555
H11D C17D 1_555 1_555
C18A O1 1_555 1_555
H12A C18A 1_555 1_555
H13A C18A 1_555 1_555
C19A C19 1_555 1_555
H14A C19A 1_555 1_555
H15A C19A 1_555 1_555
C20D C21 1_555 1_555
H16D C20D 1_555 1_555
H17D C20D 1_555 1_555
C21D C20 1_555 1_555
H18D C21D 1_555 1_555
H19D C21D 1_555 1_555
C22D C20D 1_555 1_555
H20D C22D 1_555 1_555
H21D C22D 1_555 1_555
C5 C6 1_555 1_555
C13 C14 1_555 1_555
C16 C17 1_555 1_555
C21 C22 1_555 1_555
C1D C6D 1_555 1_555
C1D C7D 1_555 1_555
C5D C6D 1_555 1_555
C13D C14D 1_555 1_555
C16D C17D 1_555 1_555
C18A C19A 1_555 1_555
C21D C22D 1_555 1_555

#END
