
#######################################################################
#
#                 Cambridge Crystallographic Data Centre
#                                CCDC 
#
#######################################################################
#
# If this CIF has been generated from an entry in the Cambridge 
# Structural Database, then it will include bibliographic, chemical, 
# crystal, experimental, refinement or atomic coordinate data resulting 
# from the CCDC's data processing and validation procedures.
#
#######################################################################

data_DABMAW
_chemical_formula_moiety         'C12 H8 F2 N2 O3'
_chemical_name_systematic        
'Ethyl 4-cyano-5,6-difluoro-2-methylfuro[2,3-b]pyridine-3-carboxylate'
_symmetry_cell_setting           monoclinic
_symmetry_space_group_name_H-M   'P 21/c'
_symmetry_Int_Tables_number      14
_space_group_name_Hall           '-P 2ybc'
loop_
_symmetry_equiv_pos_site_id
_symmetry_equiv_pos_as_xyz
1 x,y,z
2 -x,1/2+y,1/2-z
3 -x,-y,-z
4 x,1/2-y,1/2+z
_cell_length_a                   12.7367(6)
_cell_length_b                   4.9712(2)
_cell_length_c                   18.2403(8)
_cell_angle_alpha                90
_cell_angle_beta                 105.90(4)
_cell_angle_gamma                90
_cell_volume                     1110.73
_exptl_crystal_colour            colorless
_exptl_crystal_description       plate
_chemical_melting_point          '91.8-93.3 deg.C'
_cell_formula_units_Z            4
loop_
_atom_site_label
_atom_site_type_symbol
_atom_site_fract_x
_atom_site_fract_y
_atom_site_fract_z
F1 F 0.00017(10) 0.7433(2) 0.41783(6)
F2 F 0.13109(10) 0.3301(2) 0.47355(6)
O1 O 0.11986(11) 0.7488(2) 0.20376(7)
O2 O 0.36080(12) 0.0510(3) 0.28017(7)
O3 O 0.35988(11) 0.2303(3) 0.16716(7)
N1 N 0.05636(14) 0.7616(3) 0.31111(9)
N2 N 0.31386(15) -0.0704(3) 0.43687(9)
C1 C 0.06374(17) 0.6456(4) 0.37682(11)
C2 C 0.13177(17) 0.4339(4) 0.40582(10)
C3 C 0.20041(15) 0.3246(4) 0.36651(10)
C4 C 0.24195(16) 0.4084(4) 0.23217(10)
C5 C 0.19317(16) 0.5954(4) 0.17916(10)
C6 C 0.12064(16) 0.6528(4) 0.27410(10)
C7 C 0.19414(15) 0.4426(4) 0.29493(10)
C8 C 0.26764(17) 0.1048(4) 0.40192(10)
C9 C 0.2000(2) 0.6664(5) 0.10167(12)
C10 C 0.32564(16) 0.2116(4) 0.23003(10)
C11 C 0.44789(18) 0.0482(4) 0.16288(11)
C12 C 0.4599(2) 0.0690(5) 0.08359(13)
H1 H 0.130(2) 0.636(5) 0.0651(13)
H2 H 0.2179(17) 0.849(4) 0.0986(11)
H3 H 0.257(2) 0.566(5) 0.0923(14)
H4 H 0.5177(19) 0.110(4) 0.2006(12)
H5 H 0.4254(17) -0.135(4) 0.1746(11)
H6 H 0.518(2) -0.047(5) 0.0788(13)
H7 H 0.391(2) 0.013(4) 0.0451(13)
H8 H 0.477(2) 0.253(5) 0.0732(13)
loop_
_geom_bond_atom_site_label_1
_geom_bond_atom_site_label_2
_geom_bond_site_symmetry_1
_geom_bond_site_symmetry_2
F1 C1 1_555 1_555
F2 C2 1_555 1_555
O1 C5 1_555 1_555
O2 C10 1_555 1_555
O3 C10 1_555 1_555
N1 C1 1_555 1_555
N2 C8 1_555 1_555
C1 C2 1_555 1_555
C2 C3 1_555 1_555
C3 C7 1_555 1_555
C4 C5 1_555 1_555
C5 C9 1_555 1_555
C6 O1 1_555 1_555
C7 C4 1_555 1_555
C8 C3 1_555 1_555
C9 H1 1_555 1_555
C10 C4 1_555 1_555
C11 O3 1_555 1_555
C12 C11 1_555 1_555
H2 C9 1_555 1_555
H3 C9 1_555 1_555
H4 C11 1_555 1_555
H5 C11 1_555 1_555
H6 C12 1_555 1_555
H7 C12 1_555 1_555
H8 C12 1_555 1_555
N1 C6 1_555 1_555
C6 C7 1_555 1_555

#END
