
#######################################################################
#
#                 Cambridge Crystallographic Data Centre
#                                CCDC 
#
#######################################################################
#
# If this CIF has been generated from an entry in the Cambridge 
# Structural Database, then it will include bibliographic, chemical, 
# crystal, experimental, refinement or atomic coordinate data resulting 
# from the CCDC's data processing and validation procedures.
#
#######################################################################

data_DABMUQ
_chemical_formula_moiety         'C27 H24 N2 O3'
_chemical_name_systematic        
2-(1-Benzoyl-3-methyltetrahydropyrimidin-2(1H)-ylidene)-1,3-diphenylpropane-1,3-dione
_symmetry_cell_setting           monoclinic
_symmetry_space_group_name_H-M   'P 21/n'
_symmetry_Int_Tables_number      14
_space_group_name_Hall           '-P 2yn'
loop_
_symmetry_equiv_pos_site_id
_symmetry_equiv_pos_as_xyz
1 x,y,z
2 1/2-x,1/2+y,1/2-z
3 -x,-y,-z
4 1/2+x,1/2-y,1/2+z
_cell_length_a                   8.016(2)
_cell_length_b                   14.368(4)
_cell_length_c                   18.248(5)
_cell_angle_alpha                90
_cell_angle_beta                 95.736(5)
_cell_angle_gamma                90
_cell_volume                     2091.17
_exptl_crystal_colour            yellow
_exptl_crystal_description       block
_chemical_melting_point          '228-230 deg.C'
_cell_formula_units_Z            4
loop_
_atom_site_label
_atom_site_type_symbol
_atom_site_fract_x
_atom_site_fract_y
_atom_site_fract_z
O1 O 0.0332(2) 0.70329(11) 0.20644(8)
O2 O 0.4548(2) 0.52852(11) 0.34088(8)
O3 O -0.0604(2) 0.50556(12) 0.10524(9)
N1 N 0.4698(2) 0.59011(13) 0.18851(9)
N2 N 0.2015(2) 0.55369(13) 0.14532(9)
C1 C 0.3771(3) 0.60579(19) 0.47397(12)
H1 H 0.3883 0.5407 0.4747
C2 C 0.3857(3) 0.6544(2) 0.53909(13)
H2 H 0.4036 0.6225 0.5842
C3 C 0.3683(3) 0.7496(2) 0.53843(14)
H3 H 0.3733 0.7827 0.5830
C4 C 0.3435(3) 0.79638(19) 0.47217(14)
H4 H 0.3323 0.8615 0.4717
C5 C 0.3349(3) 0.74769(16) 0.40653(12)
H5 H 0.3175 0.7797 0.3615
C6 C 0.3519(3) 0.65213(15) 0.40712(11)
C7 C 0.3564(3) 0.59531(15) 0.33826(11)
C8 C 0.2549(3) 0.61939(14) 0.27052(11)
C9 C 0.0950(3) 0.66865(15) 0.26535(11)
C10 C -0.0046(3) 0.67715(15) 0.33005(11)
C11 C -0.0187(3) 0.60507(16) 0.37959(12)
H6 H 0.0437 0.5502 0.3756
C12 C -0.1244(3) 0.61349(19) 0.43492(13)
H7 H -0.1354 0.5640 0.4678
C13 C -0.2140(3) 0.6951(2) 0.44161(14)
H8 H -0.2851 0.7010 0.4793
C14 C -0.1992(3) 0.76741(19) 0.39353(14)
H9 H -0.2587 0.8230 0.3988
C15 C -0.0968(3) 0.75852(17) 0.33738(12)
H10 H -0.0892 0.8076 0.3038
C16 C 0.3117(3) 0.58766(15) 0.20354(11)
C17 C 0.5107(3) 0.54728(18) 0.11941(12)
H11 H 0.4867 0.4804 0.1197
H12 H 0.6299 0.5558 0.1135
C18 C 0.4036(3) 0.5944(2) 0.05662(13)
H13 H 0.4373 0.6596 0.0530
H14 H 0.4201 0.5635 0.0100
C19 C 0.2212(3) 0.58898(18) 0.07038(12)
H15 H 0.1707 0.6510 0.0645
H16 H 0.1617 0.5477 0.0338
C20 C 0.6015(3) 0.63892(17) 0.23456(13)
H17 H 0.5560 0.6633 0.2780
H18 H 0.6439 0.6899 0.2069
H19 H 0.6921 0.5960 0.2494
C21 C 0.0540(3) 0.50546(15) 0.15458(12)
C22 C 0.0439(3) 0.44986(15) 0.22271(12)
C23 C 0.1795(3) 0.40693(15) 0.26226(13)
H20 H 0.2872 0.4126 0.2465
C24 C 0.1569(4) 0.35573(16) 0.32495(14)
H21 H 0.2490 0.3266 0.3515
C25 C -0.0016(4) 0.34762(18) 0.34826(15)
H22 H -0.0162 0.3155 0.3920
C26 C -0.1376(4) 0.38638(19) 0.30762(14)
H23 H -0.2456 0.3787 0.3226
C27 C -0.1157(3) 0.43638(16) 0.24495(13)
H24 H -0.2094 0.4617 0.2168
loop_
_geom_bond_atom_site_label_1
_geom_bond_atom_site_label_2
_geom_bond_site_symmetry_1
_geom_bond_site_symmetry_2
O1 C9 1_555 1_555
O2 C7 1_555 1_555
O3 C21 1_555 1_555
N1 C16 1_555 1_555
N2 C16 1_555 1_555
C1 H1 1_555 1_555
C2 C1 1_555 1_555
H2 C2 1_555 1_555
C3 C2 1_555 1_555
H3 C3 1_555 1_555
C4 C3 1_555 1_555
H4 C4 1_555 1_555
C5 C4 1_555 1_555
H5 C5 1_555 1_555
C6 C1 1_555 1_555
C7 C6 1_555 1_555
C8 C7 1_555 1_555
C9 C8 1_555 1_555
C10 C9 1_555 1_555
C11 C10 1_555 1_555
H6 C11 1_555 1_555
C12 C11 1_555 1_555
H7 C12 1_555 1_555
C13 C12 1_555 1_555
H8 C13 1_555 1_555
C14 C13 1_555 1_555
H9 C14 1_555 1_555
C15 C10 1_555 1_555
H10 C15 1_555 1_555
C16 C8 1_555 1_555
C17 N1 1_555 1_555
H11 C17 1_555 1_555
H12 C17 1_555 1_555
C18 C17 1_555 1_555
H13 C18 1_555 1_555
H14 C18 1_555 1_555
C19 N2 1_555 1_555
H15 C19 1_555 1_555
H16 C19 1_555 1_555
C20 N1 1_555 1_555
H17 C20 1_555 1_555
H18 C20 1_555 1_555
H19 C20 1_555 1_555
C21 N2 1_555 1_555
C22 C21 1_555 1_555
C23 C22 1_555 1_555
H20 C23 1_555 1_555
C24 C23 1_555 1_555
H21 C24 1_555 1_555
C25 C24 1_555 1_555
H22 C25 1_555 1_555
C26 C25 1_555 1_555
H23 C26 1_555 1_555
C27 C22 1_555 1_555
H24 C27 1_555 1_555
C5 C6 1_555 1_555
C14 C15 1_555 1_555
C18 C19 1_555 1_555
C26 C27 1_555 1_555

#END
