
#######################################################################
#
#                 Cambridge Crystallographic Data Centre
#                                CCDC 
#
#######################################################################
#
# If this CIF has been generated from an entry in the Cambridge 
# Structural Database, then it will include bibliographic, chemical, 
# crystal, experimental, refinement or atomic coordinate data resulting 
# from the CCDC's data processing and validation procedures.
#
#######################################################################

data_DABNIG
_chemical_formula_moiety         'C18 H26 Br1 N3 O1,H2 O1'
_chemical_name_systematic        
'(S,S)-N-(3-bromo-4-methylphenyl)-3-((4-methylpiperazin-1-yl)methyl)cyclobutanecarboxamide monohydrate'
_chemical_properties_biological  'cytotoxic activity'
_symmetry_cell_setting           monoclinic
_symmetry_space_group_name_H-M   'P 21/c'
_symmetry_Int_Tables_number      14
_space_group_name_Hall           '-P 2ybc'
loop_
_symmetry_equiv_pos_site_id
_symmetry_equiv_pos_as_xyz
1 x,y,z
2 -x,1/2+y,1/2-z
3 -x,-y,-z
4 x,1/2-y,1/2+z
_cell_length_a                   19.1473(13)
_cell_length_b                   11.2295(8)
_cell_length_c                   18.7909(14)
_cell_angle_alpha                90
_cell_angle_beta                 104.382(3)
_cell_angle_gamma                90
_cell_volume                     3913.7
_exptl_crystal_colour            colorless
_exptl_crystal_description       block
_chemical_melting_point          '175-177 deg.C'
_cell_formula_units_Z            8
_exptl_crystal_recrystallization_method 
'Re-crystallisation from solvent: acetonitrile'
loop_
_atom_site_label
_atom_site_type_symbol
_atom_site_fract_x
_atom_site_fract_y
_atom_site_fract_z
Br1 Br 1.001733(13) 0.25096(2) 0.720802(13)
O1 O 0.71206(8) 0.55073(13) 0.80846(9)
N1 N 0.75433(9) 0.39454(14) 0.75419(9)
H1 H 0.7415(12) 0.3331(15) 0.7239(10)
N2 N 0.39220(9) 0.37657(14) 0.74790(9)
N3 N 0.25446(9) 0.49102(15) 0.73335(9)
C1 C 0.94656(11) 0.34570(17) 0.77126(11)
C2 C 0.98199(11) 0.42184(17) 0.82743(11)
C3 C 0.93693(12) 0.49151(18) 0.85869(12)
H2 H 0.9586 0.5447 0.8972
C4 C 0.86247(11) 0.48706(17) 0.83653(11)
H3 H 0.8341 0.5376 0.8587
C5 C 0.82933(10) 0.40763(16) 0.78125(10)
C6 C 0.87264(11) 0.33600(17) 0.74891(10)
H4 H 0.8511 0.2808 0.7116
C7 C 1.06252(12) 0.4322(2) 0.85354(14)
H5 H 1.0840 0.3526 0.8585
H6 H 1.0751 0.4726 0.9013
H7 H 1.0810 0.4784 0.8179
C8 C 0.70091(11) 0.46346(17) 0.76754(11)
C9 C 0.62646(11) 0.42080(18) 0.72922(11)
H8 H 0.6249 0.4004 0.6771
C10 C 0.55837(11) 0.49174(19) 0.73222(12)
H9 H 0.5370 0.5369 0.6868
H10 H 0.5645 0.5430 0.7762
C11 C 0.52025(11) 0.37213(17) 0.73807(11)
H11 H 0.4975 0.3419 0.6876
C12 C 0.59540(11) 0.31675(18) 0.76519(13)
H12 H 0.6005 0.2381 0.7432
H13 H 0.6129 0.3141 0.8194
C13 C 0.46761(11) 0.35633(18) 0.78635(11)
H14 H 0.4725 0.2745 0.8065
H15 H 0.4809 0.4123 0.8283
C14 C 0.37971(11) 0.50102(17) 0.72520(11)
H16 H 0.4109 0.5224 0.6923
H17 H 0.3927 0.5531 0.7690
C15 C 0.30164(11) 0.52121(18) 0.68561(11)
H18 H 0.2945 0.6057 0.6705
H19 H 0.2891 0.4714 0.6408
C16 C 0.26614(12) 0.3663(2) 0.75595(13)
H20 H 0.2530 0.3143 0.7121
H21 H 0.2347 0.3455 0.7887
C17 C 0.34414(12) 0.3452(2) 0.79566(12)
H22 H 0.3566 0.3941 0.8409
H23 H 0.3511 0.2604 0.8101
C18 C 0.17916(11) 0.5134(2) 0.69507(13)
H24 H 0.1730 0.5979 0.6819
H25 H 0.1479 0.4926 0.7273
H26 H 0.1662 0.4649 0.6504
Br2 Br 0.074193(11) 0.28705(2) 0.544175(12)
O2 O 0.37834(7) 0.40148(13) 0.40720(7)
N4 N 0.32536(8) 0.30522(15) 0.48773(9)
H27 H 0.3368(12) 0.2720(18) 0.5318(7)
N5 N 0.67968(8) 0.18077(14) 0.51720(8)
N6 N 0.80646(9) 0.24916(17) 0.47141(10)
C19 C 0.13352(10) 0.32951(16) 0.48027(10)
C20 C 0.10294(10) 0.38592(16) 0.41407(11)
C21 C 0.14999(10) 0.40929(17) 0.36976(11)
H28 H 0.1311 0.4451 0.3231
C22 C 0.22299(10) 0.38290(17) 0.39043(10)
H29 H 0.2530 0.4003 0.3584
C23 C 0.25176(9) 0.33062(16) 0.45866(10)
C24 C 0.20589(10) 0.30152(17) 0.50341(10)
H30 H 0.2243 0.2629 0.5492
C25 C 0.02448(11) 0.4208(2) 0.39066(12)
H31 H -0.0056 0.3498 0.3890
H32 H 0.0143 0.4573 0.3418
H33 H 0.0138 0.4780 0.4259
C26 C 0.38272(9) 0.34571(16) 0.46393(10)
C27 C 0.45389(9) 0.31435(17) 0.51614(10)
H34 H 0.4558 0.3489 0.5656
C28 C 0.52437(9) 0.34265(17) 0.49479(12)
H35 H 0.5489 0.4153 0.5184
H36 H 0.5197 0.3436 0.4411
C29 C 0.55624(10) 0.22528(17) 0.53289(10)
H37 H 0.5800 0.2406 0.5858
C30 C 0.47787(10) 0.18216(18) 0.52478(11)
H38 H 0.4698 0.1433 0.5693
H39 H 0.4586 0.1331 0.4805
C31 C 0.60334(10) 0.14636(17) 0.49952(10)
H40 H 0.5997 0.0637 0.5166
H41 H 0.5845 0.1470 0.4455
C32 C 0.68960(10) 0.30228(17) 0.49226(10)
H42 H 0.6650 0.3596 0.5179
H43 H 0.6674 0.3086 0.4389
C33 C 0.76895(10) 0.33345(19) 0.50759(11)
H44 H 0.7744 0.4149 0.4896
H45 H 0.7905 0.3319 0.5612
C34 C 0.79911(11) 0.1308(2) 0.49954(12)
H46 H 0.8205 0.1292 0.5532
H47 H 0.8255 0.0729 0.4762
C35 C 0.72034(11) 0.09548(19) 0.48383(11)
H48 H 0.6996 0.0929 0.4301
H49 H 0.7162 0.0149 0.5038
C36 C 0.88265(12) 0.2815(3) 0.48437(14)
H50 H 0.9069 0.2253 0.4587
H51 H 0.9053 0.2787 0.5372
H52 H 0.8867 0.3622 0.4660
O3 O 0.71967(9) 0.18759(13) 0.67076(8)
H53 H 0.7043 0.1775 0.6190
H54 H 0.7278 0.1144 0.6968
O4 O 0.36263(7) 0.21179(13) 0.63105(7)
H55 H 0.3755 0.2726 0.6671
H56 H 0.3397 0.1456 0.6471
loop_
_geom_bond_atom_site_label_1
_geom_bond_atom_site_label_2
_geom_bond_site_symmetry_1
_geom_bond_site_symmetry_2
Br1 C1 1_555 1_555
O1 C8 1_555 1_555
N1 H1 1_555 1_555
N2 C13 1_555 1_555
N3 C15 1_555 1_555
C1 C2 1_555 1_555
C2 C3 1_555 1_555
C3 H2 1_555 1_555
C4 C3 1_555 1_555
H3 C4 1_555 1_555
C5 N1 1_555 1_555
C6 C1 1_555 1_555
H4 C6 1_555 1_555
C7 C2 1_555 1_555
H5 C7 1_555 1_555
H6 C7 1_555 1_555
H7 C7 1_555 1_555
C8 N1 1_555 1_555
C9 C8 1_555 1_555
H8 C9 1_555 1_555
C10 C9 1_555 1_555
H9 C10 1_555 1_555
H10 C10 1_555 1_555
C11 C10 1_555 1_555
H11 C11 1_555 1_555
C12 C9 1_555 1_555
H12 C12 1_555 1_555
H13 C12 1_555 1_555
C13 C11 1_555 1_555
H14 C13 1_555 1_555
H15 C13 1_555 1_555
C14 N2 1_555 1_555
H16 C14 1_555 1_555
H17 C14 1_555 1_555
C15 C14 1_555 1_555
H18 C15 1_555 1_555
H19 C15 1_555 1_555
C16 N3 1_555 1_555
H20 C16 1_555 1_555
H21 C16 1_555 1_555
C17 N2 1_555 1_555
H22 C17 1_555 1_555
H23 C17 1_555 1_555
C18 N3 1_555 1_555
H24 C18 1_555 1_555
H25 C18 1_555 1_555
H26 C18 1_555 1_555
Br2 C19 1_555 1_555
O2 C26 1_555 1_555
N4 H27 1_555 1_555
N5 C31 1_555 1_555
N6 C33 1_555 1_555
C19 C20 1_555 1_555
C20 C21 1_555 1_555
C21 H28 1_555 1_555
C22 C21 1_555 1_555
H29 C22 1_555 1_555
C23 N4 1_555 1_555
C24 C19 1_555 1_555
H30 C24 1_555 1_555
C25 C20 1_555 1_555
H31 C25 1_555 1_555
H32 C25 1_555 1_555
H33 C25 1_555 1_555
C26 N4 1_555 1_555
C27 C26 1_555 1_555
H34 C27 1_555 1_555
C28 C27 1_555 1_555
H35 C28 1_555 1_555
H36 C28 1_555 1_555
C29 C28 1_555 1_555
H37 C29 1_555 1_555
C30 C27 1_555 1_555
H38 C30 1_555 1_555
H39 C30 1_555 1_555
C31 C29 1_555 1_555
H40 C31 1_555 1_555
H41 C31 1_555 1_555
C32 N5 1_555 1_555
H42 C32 1_555 1_555
H43 C32 1_555 1_555
C33 C32 1_555 1_555
H44 C33 1_555 1_555
H45 C33 1_555 1_555
C34 N6 1_555 1_555
H46 C34 1_555 1_555
H47 C34 1_555 1_555
C35 N5 1_555 1_555
H48 C35 1_555 1_555
H49 C35 1_555 1_555
C36 N6 1_555 1_555
H50 C36 1_555 1_555
H51 C36 1_555 1_555
H52 C36 1_555 1_555
O3 H53 1_555 1_555
H54 O3 1_555 1_555
O4 H55 1_555 1_555
H56 O4 1_555 1_555
C4 C5 1_555 1_555
C5 C6 1_555 1_555
C11 C12 1_555 1_555
C16 C17 1_555 1_555
C22 C23 1_555 1_555
C23 C24 1_555 1_555
C29 C30 1_555 1_555
C34 C35 1_555 1_555

#END
