
#######################################################################
#
#                 Cambridge Crystallographic Data Centre
#                                CCDC 
#
#######################################################################
#
# If this CIF has been generated from an entry in the Cambridge 
# Structural Database, then it will include bibliographic, chemical, 
# crystal, experimental, refinement or atomic coordinate data resulting 
# from the CCDC's data processing and validation procedures.
#
#######################################################################

data_DABNAY
_chemical_formula_moiety         'C12 H8 Cl1 N3 S1'
_chemical_name_systematic        
6-chloro-N-(pyridin-2-yl)-1,3-benzothiazol-2-amine
_symmetry_cell_setting           monoclinic
_symmetry_space_group_name_H-M   'P 21/n'
_symmetry_Int_Tables_number      14
_space_group_name_Hall           '-P 2yn'
loop_
_symmetry_equiv_pos_site_id
_symmetry_equiv_pos_as_xyz
1 x,y,z
2 1/2-x,1/2+y,1/2-z
3 -x,-y,-z
4 1/2+x,1/2-y,1/2+z
_cell_length_a                   13.8074(9)
_cell_length_b                   4.6530(3)
_cell_length_c                   17.7242(11)
_cell_angle_alpha                90
_cell_angle_beta                 91.819(3)
_cell_angle_gamma                90
_cell_volume                     1138.13
_exptl_crystal_colour            colorless
_exptl_crystal_description       needle
_cell_formula_units_Z            4
loop_
_atom_site_label
_atom_site_type_symbol
_atom_site_fract_x
_atom_site_fract_y
_atom_site_fract_z
Cl1 Cl 0.11429(4) -0.25274(11) 0.61975(3)
S1 S 0.33976(3) 0.48997(10) 0.45748(2)
N1 N 0.23810(11) 0.3034(3) 0.34014(9)
N2 N 0.34953(11) 0.6551(3) 0.30898(8)
H1 H 0.3246 0.6495 0.2627
N3 N 0.46273(11) 0.8627(4) 0.39229(8)
C1 C 0.24976(13) 0.2360(4) 0.47191(11)
C2 C 0.22257(13) 0.1130(4) 0.53977(10)
H2 H 0.2532 0.1658 0.5865
C3 C 0.14916(14) -0.0888(5) 0.53614(11)
C4 C 0.10230(14) -0.1688(4) 0.46826(11)
H3 H 0.0521 -0.3084 0.4679
C5 C 0.12978(14) -0.0425(4) 0.40151(11)
H4 H 0.0983 -0.0940 0.3550
C6 C 0.20396(13) 0.1606(4) 0.40305(10)
C7 C 0.30741(13) 0.4817(4) 0.36098(10)
C8 C 0.42761(13) 0.8390(4) 0.32184(10)
C9 C 0.46572(14) 0.9868(4) 0.26080(11)
H5 H 0.4386 0.9637 0.2112
C10 C 0.54341(14) 1.1664(5) 0.27442(11)
H6 H 0.5711 1.2696 0.2342
C11 C 0.58101(14) 1.1954(4) 0.34786(11)
H7 H 0.6344 1.3190 0.3588
C12 C 0.53863(14) 1.0395(4) 0.40436(11)
H8 H 0.5645 1.0582 0.4544
loop_
_geom_bond_atom_site_label_1
_geom_bond_atom_site_label_2
_geom_bond_site_symmetry_1
_geom_bond_site_symmetry_2
Cl1 C3 1_555 1_555
S1 C1 1_555 1_555
N1 C6 1_555 1_555
N2 H1 1_555 1_555
N3 C8 1_555 1_555
C1 C2 1_555 1_555
C2 H2 1_555 1_555
C3 C2 1_555 1_555
C4 C3 1_555 1_555
H3 C4 1_555 1_555
C5 C4 1_555 1_555
H4 C5 1_555 1_555
C6 C1 1_555 1_555
C7 S1 1_555 1_555
C8 N2 1_555 1_555
C9 C8 1_555 1_555
H5 C9 1_555 1_555
C10 C9 1_555 1_555
H6 C10 1_555 1_555
C11 C10 1_555 1_555
H7 C11 1_555 1_555
C12 N3 1_555 1_555
H8 C12 1_555 1_555
N1 C7 1_555 1_555
N2 C7 1_555 1_555
C5 C6 1_555 1_555
C11 C12 1_555 1_555

#END
