
#######################################################################
#
#                 Cambridge Crystallographic Data Centre
#                                CCDC 
#
#######################################################################
#
# If this CIF has been generated from an entry in the Cambridge 
# Structural Database, then it will include bibliographic, chemical, 
# crystal, experimental, refinement or atomic coordinate data resulting 
# from the CCDC's data processing and validation procedures.
#
#######################################################################

data_DABPED
_chemical_formula_moiety         'C21 H22 N2 O4'
_chemical_name_systematic        
(2-Methylenedihydropyrimidine-1,3(2H,4H)-diyl)bis((3-methoxyphenyl)methanone)
_symmetry_cell_setting           monoclinic
_symmetry_space_group_name_H-M   'P 21/c'
_symmetry_Int_Tables_number      14
_space_group_name_Hall           '-P 2ybc'
loop_
_symmetry_equiv_pos_site_id
_symmetry_equiv_pos_as_xyz
1 x,y,z
2 -x,1/2+y,1/2-z
3 -x,-y,-z
4 x,1/2-y,1/2+z
_cell_length_a                   7.8467(2)
_cell_length_b                   15.2039(4)
_cell_length_c                   15.2400(4)
_cell_angle_alpha                90
_cell_angle_beta                 91.0370(10)
_cell_angle_gamma                90
_cell_volume                     1817.84
_chemical_melting_point          '98-100 deg.C'
_cell_formula_units_Z            4
loop_
_atom_site_label
_atom_site_type_symbol
_atom_site_fract_x
_atom_site_fract_y
_atom_site_fract_z
O1 O 0.84613(9) 0.68063(4) 0.02855(4)
O2 O 0.69767(9) 1.33157(5) 0.02990(5)
O3 O 0.79441(9) 0.95204(5) 0.29210(5)
O4 O 0.20988(8) 1.09476(4) 0.05772(4)
N1 N 0.54195(10) 0.91818(5) 0.22329(5)
N2 N 0.33392(10) 1.01571(5) 0.16779(5)
C1 C 0.90964(13) 0.59513(7) 0.00736(7)
H1 H 1.0329 0.5933 0.0187
H2 H 0.8860 0.5826 -0.0548
H3 H 0.8535 0.5509 0.0437
C2 C 0.85788(12) 0.70482(6) 0.11540(6)
C3 C 0.77959(12) 0.78419(6) 0.13655(6)
H4 H 0.7261 0.8186 0.0919
C4 C 0.78027(12) 0.81273(6) 0.22347(6)
C5 C 0.70690(12) 0.90001(6) 0.24951(6)
C6 C 0.46930(12) 1.00398(6) 0.23035(6)
C7 C 0.33774(12) 1.07616(6) 0.10143(6)
C8 C 0.50776(12) 1.11605(6) 0.08078(6)
C9 C 0.51665(12) 1.20666(6) 0.06580(6)
H5 H 0.4179 1.2424 0.0705
C10 C 0.67227(12) 1.24360(7) 0.04386(6)
C11 C 0.55331(14) 1.38797(7) 0.03474(8)
H6 H 0.4667 1.3693 -0.0085
H7 H 0.5878 1.4486 0.0223
H8 H 0.5060 1.3849 0.0937
C12 C 0.94028(12) 0.65496(6) 0.18008(7)
H9 H 0.9959 0.6016 0.1654
C13 C 0.93996(12) 0.68446(7) 0.26640(7)
H10 H 0.9947 0.6504 0.3109
C14 C 0.86149(12) 0.76247(7) 0.28862(6)
H11 H 0.8627 0.7819 0.3479
C15 C 0.81615(12) 1.19063(7) 0.03458(6)
H12 H 0.9222 1.2163 0.0197
C16 C 0.80399(12) 1.10106(7) 0.04702(6)
H13 H 0.9015 1.0650 0.0395
C17 C 0.65022(12) 1.06309(7) 0.07046(6)
H14 H 0.6426 1.0014 0.0793
C18 C 0.18338(12) 0.95869(6) 0.17808(7)
H15 H 0.1264 0.9489 0.1204
H16 H 0.1009 0.9869 0.2176
C19 C 0.24389(12) 0.87125(6) 0.21679(7)
H17 H 0.2429 0.8744 0.2817
H18 H 0.1655 0.8237 0.1978
C20 C 0.42328(12) 0.85080(6) 0.18663(7)
H19 H 0.4580 0.7916 0.2072
H20 H 0.4266 0.8515 0.1217
C21 C 0.51325(13) 1.06746(7) 0.28603(7)
H21 H 0.4542 1.1220 0.2847
H22 H 0.6038 1.0584 0.3272
loop_
_geom_bond_atom_site_label_1
_geom_bond_atom_site_label_2
_geom_bond_site_symmetry_1
_geom_bond_site_symmetry_2
O1 C1 1_555 1_555
O2 C10 1_555 1_555
O3 C5 1_555 1_555
O4 C7 1_555 1_555
N1 C5 1_555 1_555
N2 C6 1_555 1_555
C1 H1 1_555 1_555
H2 C1 1_555 1_555
H3 C1 1_555 1_555
C2 O1 1_555 1_555
C3 C2 1_555 1_555
H4 C3 1_555 1_555
C4 C3 1_555 1_555
C5 C4 1_555 1_555
C6 N1 1_555 1_555
C7 N2 1_555 1_555
C8 C7 1_555 1_555
C9 C8 1_555 1_555
H5 C9 1_555 1_555
C10 C9 1_555 1_555
C11 O2 1_555 1_555
H6 C11 1_555 1_555
H7 C11 1_555 1_555
H8 C11 1_555 1_555
C12 C2 1_555 1_555
H9 C12 1_555 1_555
C13 C12 1_555 1_555
H10 C13 1_555 1_555
C14 C4 1_555 1_555
H11 C14 1_555 1_555
C15 C10 1_555 1_555
H12 C15 1_555 1_555
C16 C15 1_555 1_555
H13 C16 1_555 1_555
C17 C8 1_555 1_555
H14 C17 1_555 1_555
C18 N2 1_555 1_555
H15 C18 1_555 1_555
H16 C18 1_555 1_555
C19 C18 1_555 1_555
H17 C19 1_555 1_555
H18 C19 1_555 1_555
C20 N1 1_555 1_555
H19 C20 1_555 1_555
H20 C20 1_555 1_555
C21 C6 1_555 1_555
H21 C21 1_555 1_555
H22 C21 1_555 1_555
C13 C14 1_555 1_555
C16 C17 1_555 1_555
C19 C20 1_555 1_555

#END
