
#######################################################################
#
#                 Cambridge Crystallographic Data Centre
#                                CCDC 
#
#######################################################################
#
# If this CIF has been generated from an entry in the Cambridge 
# Structural Database, then it will include bibliographic, chemical, 
# crystal, experimental, refinement or atomic coordinate data resulting 
# from the CCDC's data processing and validation procedures.
#
#######################################################################

data_DABPIH
_chemical_formula_moiety         'C21 H20 N4 O3'
_chemical_name_systematic        
1-Methyl-6,8-dioxo-N,7-diphenyl-1,3,4,6,7,8-hexahydro-2H-pyrimido[1,6-a]pyrimidine-9-carboxamide
_symmetry_cell_setting           monoclinic
_symmetry_space_group_name_H-M   'P 21/n'
_symmetry_Int_Tables_number      14
_space_group_name_Hall           '-P 2yn'
loop_
_symmetry_equiv_pos_site_id
_symmetry_equiv_pos_as_xyz
1 x,y,z
2 1/2-x,1/2+y,1/2-z
3 -x,-y,-z
4 1/2+x,1/2-y,1/2+z
_cell_length_a                   8.420(2)
_cell_length_b                   12.950(3)
_cell_length_c                   17.408(5)
_cell_angle_alpha                90
_cell_angle_beta                 100.429(5)
_cell_angle_gamma                90
_cell_volume                     1866.79
_cell_formula_units_Z            4
_exptl_crystal_recrystallization_method pentane/chloroform
loop_
_atom_site_label
_atom_site_type_symbol
_atom_site_fract_x
_atom_site_fract_y
_atom_site_fract_z
O1 O 0.16693(16) 0.36058(9) 0.53804(7)
N1 N 0.23621(17) 0.34682(10) 0.41935(8)
O2 O 0.36661(17) 0.64778(10) 0.56556(8)
C1 C 0.2470(2) 0.51376(13) 0.48069(10)
N2 N 0.32012(18) 0.48996(11) 0.35490(8)
O3 O 0.31381(17) 0.32971(10) 0.30139(8)
C2 C 0.2938(2) 0.38468(15) 0.35537(12)
N3 N 0.1826(2) 0.54374(14) 0.60769(9)
C3 C 0.2131(2) 0.40613(14) 0.48339(11)
C4 C 0.2864(2) 0.55510(14) 0.41263(11)
C5 C 0.2715(2) 0.57507(14) 0.55390(11)
N4 N 0.28793(19) 0.65659(12) 0.39596(9)
C6 C 0.2037(2) 0.23732(14) 0.42057(10)
C7 C 0.1977(2) 0.57320(16) 0.68675(12)
C8 C 0.3684(4) 0.5325(2) 0.28386(13)
C9 C 0.0474(3) 0.20405(17) 0.41125(12)
C10 C 0.3877(4) 0.7022(2) 0.34412(18)
C11 C 0.3288(3) 0.16798(18) 0.43194(13)
C12 C 0.4769(3) 0.6231(2) 0.30712(16)
C13 C 0.0147(4) 0.09993(19) 0.41353(15)
C14 C 0.2840(3) 0.65845(19) 0.72007(15)
C15 C 0.1939(3) 0.7320(2) 0.43104(17)
C16 C 0.1196(3) 0.5116(2) 0.73292(14)
C17 C 0.2936(4) 0.0636(2) 0.43364(14)
C18 C 0.2908(4) 0.6804(3) 0.79756(18)
C19 C 0.1380(5) 0.0307(2) 0.42466(14)
C20 C 0.1279(4) 0.5353(3) 0.81122(17)
C21 C 0.2155(5) 0.6193(3) 0.8432(2)
H1 H 0.265(3) 0.7725(16) 0.4700(13)
H2 H 0.340(2) 0.6993(15) 0.6873(13)
H3 H 0.104(2) 0.7001(15) 0.4527(12)
H4 H 0.131(2) 0.4834(15) 0.5966(12)
H5 H 0.142(2) 0.7797(15) 0.3859(12)
H6 H 0.224(3) 0.6331(17) 0.8961(17)
H7 H 0.060(2) 0.4509(14) 0.7095(12)
H8 H 0.356(3) 0.7421(18) 0.8216(14)
H9 H 0.384(3) 0.0183(16) 0.4401(12)
H10 H -0.040(2) 0.2520(14) 0.4041(11)
H11 H 0.113(3) -0.040(2) 0.4233(13)
H12 H 0.435(2) 0.1965(13) 0.4333(11)
H13 H -0.097(3) 0.0802(15) 0.4060(13)
H14 H 0.067(3) 0.4872(17) 0.8362(16)
H15 H 0.269(3) 0.5550(16) 0.2479(14)
H16 H 0.307(3) 0.7399(19) 0.3035(16)
H17 H 0.518(2) 0.6508(13) 0.2615(13)
H18 H 0.420(2) 0.4748(15) 0.2610(13)
H19 H 0.581(3) 0.5988(15) 0.3433(14)
H20 H 0.457(3) 0.747(2) 0.3745(15)
loop_
_geom_bond_atom_site_label_1
_geom_bond_atom_site_label_2
_geom_bond_site_symmetry_1
_geom_bond_site_symmetry_2
O1 C3 1_555 1_555
N1 C2 1_555 1_555
O2 C5 1_555 1_555
C1 C3 1_555 1_555
N2 C2 1_555 1_555
O3 C2 1_555 1_555
N3 C5 1_555 1_555
C3 N1 1_555 1_555
C4 C1 1_555 1_555
C5 C1 1_555 1_555
N4 C4 1_555 1_555
C6 N1 1_555 1_555
C7 N3 1_555 1_555
C8 N2 1_555 1_555
C9 C6 1_555 1_555
C10 N4 1_555 1_555
C11 C6 1_555 1_555
C12 C8 1_555 1_555
C13 C9 1_555 1_555
C14 C7 1_555 1_555
C15 N4 1_555 1_555
C16 C7 1_555 1_555
C17 C11 1_555 1_555
C18 C14 1_555 1_555
C19 C13 1_555 1_555
C20 C16 1_555 1_555
C21 C18 1_555 1_555
H1 C15 1_555 1_555
H2 C14 1_555 1_555
H3 C15 1_555 1_555
H4 N3 1_555 1_555
H5 C15 1_555 1_555
H6 C21 1_555 1_555
H7 C16 1_555 1_555
H8 C18 1_555 1_555
H9 C17 1_555 1_555
H10 C9 1_555 1_555
H11 C19 1_555 1_555
H12 C11 1_555 1_555
H13 C13 1_555 1_555
H14 C20 1_555 1_555
H15 C8 1_555 1_555
H16 C10 1_555 1_555
H17 C12 1_555 1_555
H18 C8 1_555 1_555
H19 C12 1_555 1_555
H20 C10 1_555 1_555
N2 C4 1_555 1_555
C10 C12 1_555 1_555
C17 C19 1_555 1_555
C20 C21 1_555 1_555

#END
