
#######################################################################
#
#                 Cambridge Crystallographic Data Centre
#                                CCDC 
#
#######################################################################
#
# If this CIF has been generated from an entry in the Cambridge 
# Structural Database, then it will include bibliographic, chemical, 
# crystal, experimental, refinement or atomic coordinate data resulting 
# from the CCDC's data processing and validation procedures.
#
#######################################################################

data_DABRIK
_chemical_formula_moiety         'C13 H10 N2 O4'
_chemical_name_systematic        'phenyl (4-nitrophenyl)carbamate'
_symmetry_cell_setting           triclinic
_symmetry_space_group_name_H-M   'P -1'
_symmetry_Int_Tables_number      2
_space_group_name_Hall           '-P 1'
loop_
_symmetry_equiv_pos_site_id
_symmetry_equiv_pos_as_xyz
1 x,y,z
2 -x,-y,-z
_cell_length_a                   9.6722(3)
_cell_length_b                   10.2543(5)
_cell_length_c                   12.4787(6)
_cell_angle_alpha                84.625(3)
_cell_angle_beta                 79.386(3)
_cell_angle_gamma                77.955(3)
_cell_volume                     1187.73
_exptl_crystal_colour            yellow
_exptl_crystal_description       block
_cell_formula_units_Z            4
loop_
_atom_site_label
_atom_site_type_symbol
_atom_site_fract_x
_atom_site_fract_y
_atom_site_fract_z
O1 O 0.1987(3) 1.4653(3) 0.2962(2)
O2 O 0.4178(3) 1.3760(3) 0.2866(2)
O3 O 0.14804(16) 0.94691(18) 0.85885(14)
O4 O 0.36223(17) 0.98269(19) 0.76845(16)
N1 N 0.2949(3) 1.3872(3) 0.3303(2)
N2 N 0.15095(19) 1.0939(2) 0.72024(16)
H1 H 0.0601 1.1063 0.7436
C1 C 0.3347(2) 1.1489(3) 0.5694(2)
H2 H 0.4065 1.0882 0.5980
C2 C 0.3674(3) 1.2201(3) 0.4728(2)
H3 H 0.4612 1.2078 0.4353
C3 C 0.2609(3) 1.3093(3) 0.4319(2)
C4 C 0.1224(3) 1.3294(3) 0.4854(2)
H4 H 0.0513 1.3904 0.4565
C5 C 0.0896(3) 1.2587(3) 0.5818(2)
H5 H -0.0044 1.2722 0.6189
C6 C 0.1948(2) 1.1675(2) 0.62459(19)
C7 C 0.2340(3) 1.0057(3) 0.7803(2)
C8 C 0.2096(2) 0.8366(3) 0.9213(2)
C9 C 0.1760(3) 0.8419(3) 1.0324(2)
H6 H 0.1232 0.9194 1.0641
C10 C 0.2220(3) 0.7299(3) 1.0962(2)
H7 H 0.1989 0.7312 1.1719
C11 C 0.3018(3) 0.6165(3) 1.0489(2)
H8 H 0.3318 0.5408 1.0922
C12 C 0.3366(3) 0.6156(3) 0.9380(2)
H9 H 0.3931 0.5395 0.9061
C13 C 0.2898(3) 0.7250(3) 0.8724(2)
H10 H 0.3121 0.7233 0.7968
O5 O 0.6977(2) 0.6060(2) 1.24825(17)
O6 O 0.9181(3) 0.5613(3) 1.1749(2)
O7 O 0.64969(17) 1.0924(2) 0.67313(15)
O8 O 0.86028(16) 1.01542(18) 0.73187(14)
N3 N 0.7953(3) 0.6162(2) 1.1734(2)
N4 N 0.6566(2) 0.9385(2) 0.80607(17)
H11 H 0.5708 0.9423 0.7947
C14 C 0.5899(2) 0.8313(3) 0.9790(2)
H12 H 0.4949 0.8680 0.9737
C15 C 0.6218(3) 0.7541(3) 1.0701(2)
H13 H 0.5492 0.7392 1.1273
C16 C 0.7617(3) 0.6991(3) 1.0757(2)
C17 C 0.8703(3) 0.7182(3) 0.9922(2)
H14 H 0.9647 0.6782 0.9970
C18 C 0.8386(3) 0.7970(3) 0.9014(2)
H15 H 0.9117 0.8111 0.8444
C19 C 0.6979(2) 0.8553(3) 0.8949(2)
C20 C 0.7362(3) 1.0130(3) 0.7368(2)
C21 C 0.7079(2) 1.1696(3) 0.5852(2)
C22 C 0.6464(3) 1.3018(3) 0.5788(2)
H16 H 0.5761 1.3390 0.6350
C23 C 0.6904(3) 1.3792(3) 0.4876(3)
H17 H 0.6487 1.4693 0.4817
C24 C 0.7946(3) 1.3247(3) 0.4059(2)
H18 H 0.8240 1.3774 0.3445
C25 C 0.8553(3) 1.1925(3) 0.4147(2)
H19 H 0.9269 1.1554 0.3593
C26 C 0.8121(3) 1.1135(3) 0.5045(2)
H20 H 0.8533 1.0232 0.5101
loop_
_geom_bond_atom_site_label_1
_geom_bond_atom_site_label_2
_geom_bond_site_symmetry_1
_geom_bond_site_symmetry_2
O1 N1 1_555 1_555
O2 N1 1_555 1_555
O3 C7 1_555 1_555
O4 C7 1_555 1_555
N1 C3 1_555 1_555
N2 H1 1_555 1_555
C1 H2 1_555 1_555
C2 C1 1_555 1_555
H3 C2 1_555 1_555
C3 C2 1_555 1_555
C4 C3 1_555 1_555
H4 C4 1_555 1_555
C5 C4 1_555 1_555
H5 C5 1_555 1_555
C6 N2 1_555 1_555
C7 N2 1_555 1_555
C8 O3 1_555 1_555
C9 C8 1_555 1_555
H6 C9 1_555 1_555
C10 C9 1_555 1_555
H7 C10 1_555 1_555
C11 C10 1_555 1_555
H8 C11 1_555 1_555
C12 C11 1_555 1_555
H9 C12 1_555 1_555
C13 C8 1_555 1_555
H10 C13 1_555 1_555
O5 N3 1_555 1_555
O6 N3 1_555 1_555
O7 C20 1_555 1_555
O8 C20 1_555 1_555
N3 C16 1_555 1_555
N4 H11 1_555 1_555
C14 H12 1_555 1_555
C15 C14 1_555 1_555
H13 C15 1_555 1_555
C16 C15 1_555 1_555
C17 C16 1_555 1_555
H14 C17 1_555 1_555
C18 C17 1_555 1_555
H15 C18 1_555 1_555
C19 N4 1_555 1_555
C20 N4 1_555 1_555
C21 O7 1_555 1_555
C22 C21 1_555 1_555
H16 C22 1_555 1_555
C23 C22 1_555 1_555
H17 C23 1_555 1_555
C24 C23 1_555 1_555
H18 C24 1_555 1_555
C25 C24 1_555 1_555
H19 C25 1_555 1_555
C26 C21 1_555 1_555
H20 C26 1_555 1_555
C1 C6 1_555 1_555
C5 C6 1_555 1_555
C12 C13 1_555 1_555
C14 C19 1_555 1_555
C18 C19 1_555 1_555
C25 C26 1_555 1_555

#END
