
#######################################################################
#
#                 Cambridge Crystallographic Data Centre
#                                CCDC 
#
#######################################################################
#
# If this CIF has been generated from an entry in the Cambridge 
# Structural Database, then it will include bibliographic, chemical, 
# crystal, experimental, refinement or atomic coordinate data resulting 
# from the CCDC's data processing and validation procedures.
#
#######################################################################

data_DABZOX
_chemical_formula_moiety         'C28 H40 N2 O4 S1'
_chemical_name_systematic        
5-(1-Hydroxy-4-methylpentan-2-yl)-8-methoxy-6-oxo-N-(2,4,4-trimethylpentan-2-yl)-5,6-dihydro-4H-thieno[2,3-d][2]benzazepine-4-carboxamide
_symmetry_cell_setting           monoclinic
_symmetry_space_group_name_H-M   'P 21'
_symmetry_Int_Tables_number      4
_space_group_name_Hall           'P 2yb'
loop_
_symmetry_equiv_pos_site_id
_symmetry_equiv_pos_as_xyz
1 x,y,z
2 -x,1/2+y,-z
_cell_length_a                   11.710(2)
_cell_length_b                   18.933(3)
_cell_length_c                   13.1103(19)
_cell_angle_alpha                90
_cell_angle_beta                 110.071(11)
_cell_angle_gamma                90
_cell_volume                     2730.1
_exptl_crystal_colour            colorless
_exptl_crystal_description       plate
_cell_formula_units_Z            4
loop_
_atom_site_label
_atom_site_type_symbol
_atom_site_fract_x
_atom_site_fract_y
_atom_site_fract_z
C1 C 0.4623(3) 0.33796(16) 0.4840(3)
C2 C 0.3855(3) 0.28014(16) 0.4569(3)
C3 C 0.4433(3) 0.21782(17) 0.5125(3)
H1 H 0.4052 0.1728 0.5032
C4 C 0.5590(3) 0.22996(16) 0.5803(3)
H2 H 0.6105 0.1946 0.6239
C5 C 0.2628(3) 0.28446(16) 0.3759(3)
C6 C 0.1899(3) 0.34530(16) 0.3617(3)
C7 C 0.0744(3) 0.34685(17) 0.2809(3)
H3 H 0.0256 0.3880 0.2719
C8 C 0.0308(3) 0.28925(17) 0.2144(3)
C9 C 0.1012(3) 0.22770(18) 0.2299(3)
H4 H 0.0707 0.1874 0.1857
C10 C 0.2147(3) 0.22556(17) 0.3094(3)
H5 H 0.2614 0.1835 0.3195
C11 C -0.1515(3) 0.3479(2) 0.1079(3)
H6 H -0.1650 0.3655 0.1731
H7 H -0.2300 0.3375 0.0518
H8 H -0.1086 0.3838 0.0810
C12 C 0.4279(2) 0.41134(15) 0.4405(3)
H9 H 0.4999 0.4421 0.4765
C13 C 0.2169(3) 0.40666(16) 0.4394(3)
C14 C 0.3983(3) 0.41925(16) 0.3161(3)
C15 C 0.4462(3) 0.37054(19) 0.1564(3)
C16 C 0.4935(4) 0.4413(2) 0.1274(3)
H10 H 0.4409 0.4799 0.1345
H11 H 0.4929 0.4394 0.0525
H12 H 0.5767 0.4496 0.1769
C17 C 0.3169(4) 0.3584(2) 0.0864(3)
H13 H 0.2846 0.3176 0.1136
H14 H 0.3128 0.3494 0.0116
H15 H 0.2686 0.4004 0.0880
C18 C 0.5405(3) 0.3141(2) 0.1464(3)
H16 H 0.5437 0.3191 0.0723
H17 H 0.6209 0.3291 0.1971
C19 C 0.5303(3) 0.23402(18) 0.1652(3)
C20 C 0.5399(4) 0.2178(2) 0.2824(4)
H18 H 0.4637 0.2308 0.2929
H19 H 0.6070 0.2449 0.3326
H20 H 0.5551 0.1672 0.2967
C21 C 0.6448(4) 0.2022(2) 0.1504(4)
H21 H 0.6480 0.1514 0.1655
H22 H 0.7174 0.2250 0.2008
H23 H 0.6418 0.2099 0.0757
C22 C 0.4198(4) 0.1992(2) 0.0834(4)
H24 H 0.4283 0.1477 0.0901
H25 H 0.4136 0.2134 0.0098
H26 H 0.3464 0.2139 0.0975
C23 C 0.3496(3) 0.50151(16) 0.5438(3)
H27 H 0.2744 0.5102 0.5618
C24 C 0.3700(3) 0.56613(16) 0.4813(3)
H28 H 0.3800 0.6086 0.5276
H29 H 0.4460 0.5595 0.4654
C25 C 0.4558(3) 0.49164(16) 0.6512(3)
H30 H 0.5304 0.4821 0.6340
H31 H 0.4685 0.5367 0.6920
C26 C 0.4409(3) 0.43286(18) 0.7250(3)
H32 H 0.4276 0.3875 0.6835
C27 C 0.5577(3) 0.4256(2) 0.8246(3)
H33 H 0.5733 0.4699 0.8656
H34 H 0.6263 0.4150 0.8005
H35 H 0.5478 0.3872 0.8711
C28 C 0.3311(4) 0.4457(2) 0.7609(3)
H36 H 0.3404 0.4912 0.7985
H37 H 0.3260 0.4078 0.8102
H38 H 0.2567 0.4462 0.6971
N1 N 0.3282(2) 0.43813(13) 0.4735(2)
N2 N 0.4548(3) 0.37393(15) 0.2724(2)
H77 H 0.5023 0.3426 0.3166
O1 O -0.0803(2) 0.28527(13) 0.1337(2)
O2 O 0.13451(19) 0.42772(12) 0.47096(19)
O3 O 0.3337(2) 0.46851(12) 0.26677(19)
O4 O 0.2720(2) 0.57734(12) 0.3821(2)
H79 H 0.2641 0.5418 0.3420
S1 S 0.60099(6) 0.31647(4) 0.57819(6)
C29 C 0.9816(3) 0.62445(16) 0.4787(2)
C30 C 0.9078(3) 0.68281(17) 0.4557(3)
C31 C 0.9678(3) 0.74376(17) 0.5140(3)
H39 H 0.9310 0.7891 0.5071
C32 C 1.0839(3) 0.72971(18) 0.5807(3)
H40 H 1.1369 0.7637 0.6263
C33 C 0.7840(3) 0.68153(17) 0.3738(3)
C34 C 0.7097(3) 0.62163(16) 0.3529(3)
C35 C 0.5937(3) 0.62352(17) 0.2718(3)
H41 H 0.5437 0.5826 0.2575
C36 C 0.5523(3) 0.68458(18) 0.2129(3)
C37 C 0.6252(3) 0.74467(18) 0.2331(3)
H42 H 0.5976 0.7865 0.1920
C38 C 0.7382(3) 0.74269(18) 0.3135(3)
H43 H 0.7866 0.7843 0.3285
C39 C 0.3662(3) 0.6300(2) 0.1064(3)
H44 H 0.4095 0.5933 0.0816
H45 H 0.2897 0.6412 0.0482
H46 H 0.3489 0.6131 0.1702
C40 C 0.9449(3) 0.55225(16) 0.4285(3)
H47 H 1.0155 0.5201 0.4622
C41 C 0.7316(3) 0.55487(16) 0.4215(3)
C42 C 0.9171(3) 0.54980(16) 0.3039(3)
C43 C 0.9767(3) 0.59965(17) 0.1524(3)
C44 C 1.0213(3) 0.53071(19) 0.1171(3)
H48 H 1.1063 0.5225 0.1622
H49 H 1.0148 0.5343 0.0407
H50 H 0.9712 0.4913 0.1259
C45 C 0.8445(3) 0.61357(19) 0.0804(3)
H51 H 0.7972 0.5700 0.0729
H52 H 0.8422 0.6294 0.0085
H53 H 0.8097 0.6502 0.1137
C46 C 1.0658(3) 0.65859(17) 0.1448(3)
H54 H 1.1476 0.6437 0.1931
H55 H 1.0674 0.6566 0.0699
C47 C 1.0539(3) 0.73789(18) 0.1697(3)
C48 C 1.1656(3) 0.7735(2) 0.1556(3)
H56 H 1.1624 0.8245 0.1674
H57 H 1.1657 0.7648 0.0820
H58 H 1.2398 0.7539 0.2086
C49 C 1.0560(4) 0.75052(19) 0.2850(3)
H59 H 1.1257 0.7259 0.3364
H60 H 0.9807 0.7326 0.2922
H61 H 1.0630 0.8013 0.3006
C50 C 0.9409(3) 0.7735(2) 0.0887(4)
H62 H 0.8676 0.7550 0.0992
H63 H 0.9376 0.7637 0.0144
H64 H 0.9456 0.8247 0.1010
C51 C 0.8614(3) 0.45688(16) 0.5202(3)
H65 H 0.9493 0.4441 0.5411
C52 C 0.7881(3) 0.39691(16) 0.4491(3)
H66 H 0.8052 0.3525 0.4915
H67 H 0.7003 0.4073 0.4298
C53 C 0.8329(3) 0.46328(16) 0.6250(3)
H68 H 0.8550 0.4182 0.6651
H69 H 0.7439 0.4694 0.6054
C54 C 0.8963(3) 0.52344(18) 0.7019(3)
H70 H 0.8810 0.5684 0.6593
C55 C 1.0325(3) 0.5127(2) 0.7510(3)
H71 H 1.0693 0.5531 0.7975
H72 H 1.0669 0.5088 0.6929
H73 H 1.0495 0.4693 0.7945
C56 C 0.8403(4) 0.5306(2) 0.7916(3)
H74 H 0.7525 0.5382 0.7586
H75 H 0.8773 0.5707 0.8384
H76 H 0.8553 0.4872 0.8351
N3 N 0.8432(2) 0.52443(14) 0.4570(2)
N4 N 0.9839(2) 0.59308(14) 0.2671(2)
H78 H 1.0369 0.6201 0.3151
O5 O 0.4394(2) 0.69163(14) 0.1342(2)
O6 O 0.64483(19) 0.52955(12) 0.44127(19)
O7 O 0.8395(2) 0.50877(12) 0.24631(18)
O8 O 0.8144(2) 0.38672(12) 0.35221(19)
H80 H 0.7979 0.4238 0.3147
S2 S 1.12211(6) 0.64275(4) 0.57205(6)
loop_
_geom_bond_atom_site_label_1
_geom_bond_atom_site_label_2
_geom_bond_site_symmetry_1
_geom_bond_site_symmetry_2
C1 C2 1_555 1_555
C2 C3 1_555 1_555
C3 H1 1_555 1_555
C4 C3 1_555 1_555
H2 C4 1_555 1_555
C5 C2 1_555 1_555
C6 C5 1_555 1_555
C7 C6 1_555 1_555
H3 C7 1_555 1_555
C8 C7 1_555 1_555
C9 C8 1_555 1_555
H4 C9 1_555 1_555
C10 C5 1_555 1_555
H5 C10 1_555 1_555
C11 H6 1_555 1_555
H7 C11 1_555 1_555
H8 C11 1_555 1_555
C12 C1 1_555 1_555
H9 C12 1_555 1_555
C13 C6 1_555 1_555
C14 C12 1_555 1_555
C15 C16 1_555 1_555
C16 H10 1_555 1_555
H11 C16 1_555 1_555
H12 C16 1_555 1_555
C17 C15 1_555 1_555
H13 C17 1_555 1_555
H14 C17 1_555 1_555
H15 C17 1_555 1_555
C18 C15 1_555 1_555
H16 C18 1_555 1_555
H17 C18 1_555 1_555
C19 C18 1_555 1_555
C20 C19 1_555 1_555
H18 C20 1_555 1_555
H19 C20 1_555 1_555
H20 C20 1_555 1_555
C21 C19 1_555 1_555
H21 C21 1_555 1_555
H22 C21 1_555 1_555
H23 C21 1_555 1_555
C22 C19 1_555 1_555
H24 C22 1_555 1_555
H25 C22 1_555 1_555
H26 C22 1_555 1_555
C23 H27 1_555 1_555
C24 C23 1_555 1_555
H28 C24 1_555 1_555
H29 C24 1_555 1_555
C25 C23 1_555 1_555
H30 C25 1_555 1_555
H31 C25 1_555 1_555
C26 C25 1_555 1_555
H32 C26 1_555 1_555
C27 C26 1_555 1_555
H33 C27 1_555 1_555
H34 C27 1_555 1_555
H35 C27 1_555 1_555
C28 C26 1_555 1_555
H36 C28 1_555 1_555
H37 C28 1_555 1_555
H38 C28 1_555 1_555
C29 C30 1_555 1_555
C30 C31 1_555 1_555
C31 H39 1_555 1_555
C32 C31 1_555 1_555
H40 C32 1_555 1_555
C33 C30 1_555 1_555
C34 C33 1_555 1_555
C35 C34 1_555 1_555
H41 C35 1_555 1_555
C36 C35 1_555 1_555
C37 C36 1_555 1_555
H42 C37 1_555 1_555
C38 C33 1_555 1_555
H43 C38 1_555 1_555
C39 H44 1_555 1_555
H45 C39 1_555 1_555
H46 C39 1_555 1_555
C40 C29 1_555 1_555
H47 C40 1_555 1_555
C41 C34 1_555 1_555
C42 C40 1_555 1_555
C43 C44 1_555 1_555
C44 H48 1_555 1_555
H49 C44 1_555 1_555
H50 C44 1_555 1_555
C45 C43 1_555 1_555
H51 C45 1_555 1_555
H52 C45 1_555 1_555
H53 C45 1_555 1_555
C46 C43 1_555 1_555
H54 C46 1_555 1_555
H55 C46 1_555 1_555
C47 C46 1_555 1_555
C48 C47 1_555 1_555
H56 C48 1_555 1_555
H57 C48 1_555 1_555
H58 C48 1_555 1_555
C49 C47 1_555 1_555
H59 C49 1_555 1_555
H60 C49 1_555 1_555
H61 C49 1_555 1_555
C50 C47 1_555 1_555
H62 C50 1_555 1_555
H63 C50 1_555 1_555
H64 C50 1_555 1_555
C51 H65 1_555 1_555
C52 C51 1_555 1_555
H66 C52 1_555 1_555
H67 C52 1_555 1_555
C53 C51 1_555 1_555
H68 C53 1_555 1_555
H69 C53 1_555 1_555
C54 C53 1_555 1_555
H70 C54 1_555 1_555
C55 C54 1_555 1_555
H71 C55 1_555 1_555
H72 C55 1_555 1_555
H73 C55 1_555 1_555
C56 C54 1_555 1_555
H74 C56 1_555 1_555
H75 C56 1_555 1_555
H76 C56 1_555 1_555
N1 C12 1_555 1_555
N2 C14 1_555 1_555
H77 N2 1_555 1_555
N3 C40 1_555 1_555
N4 C42 1_555 1_555
H78 N4 1_555 1_555
O1 C8 1_555 1_555
O2 C13 1_555 1_555
O3 C14 1_555 1_555
O4 C24 1_555 1_555
H79 O4 1_555 1_555
O5 C36 1_555 1_555
O6 C41 1_555 1_555
O7 C42 1_555 1_555
O8 C52 1_555 1_555
H80 O8 1_555 1_555
S1 C1 1_555 1_555
S2 C29 1_555 1_555
C4 S1 1_555 1_555
C9 C10 1_555 1_555
C11 O1 1_555 1_555
C13 N1 1_555 1_555
C15 N2 1_555 1_555
C23 N1 1_555 1_555
C32 S2 1_555 1_555
C37 C38 1_555 1_555
C39 O5 1_555 1_555
C41 N3 1_555 1_555
C43 N4 1_555 1_555
C51 N3 1_555 1_555

#END
