
#######################################################################
#
#                 Cambridge Crystallographic Data Centre
#                                CCDC 
#
#######################################################################
#
# If this CIF has been generated from an entry in the Cambridge 
# Structural Database, then it will include bibliographic, chemical, 
# crystal, experimental, refinement or atomic coordinate data resulting 
# from the CCDC's data processing and validation procedures.
#
#######################################################################

data_DABZIR
_chemical_formula_moiety         'C28 H28 N2 O4'
_chemical_name_systematic        
'Methyl (5-(t-butylcarbamoyl)-7-oxo-5,7-dihydro-6H-dibenzo[c,e]azepin-6-yl)(phenyl)acetate'
_symmetry_cell_setting           orthorhombic
_symmetry_space_group_name_H-M   'P 21 21 21'
_symmetry_Int_Tables_number      19
_space_group_name_Hall           'P 2ac 2ab'
loop_
_symmetry_equiv_pos_site_id
_symmetry_equiv_pos_as_xyz
1 x,y,z
2 1/2-x,-y,1/2+z
3 -x,1/2+y,1/2-z
4 1/2+x,1/2-y,-z
_cell_length_a                   10.0656(3)
_cell_length_b                   14.6380(3)
_cell_length_c                   16.2287(4)
_cell_angle_alpha                90
_cell_angle_beta                 90
_cell_angle_gamma                90
_cell_volume                     2391.14
_exptl_crystal_colour            colorless
_exptl_crystal_description       block
_cell_formula_units_Z            4
loop_
_atom_site_label
_atom_site_type_symbol
_atom_site_fract_x
_atom_site_fract_y
_atom_site_fract_z
C1 C 0.34732(16) 0.10460(11) 0.04604(9)
C2 C 0.44553(16) 0.16494(11) 0.07414(10)
H1 H 0.5358 0.1461 0.0736
C3 C 0.41394(18) 0.25131(12) 0.10266(10)
H2 H 0.4822 0.2910 0.1213
C4 C 0.28248(19) 0.27994(11) 0.10404(10)
H3 H 0.2604 0.3392 0.1236
C5 C 0.18357(16) 0.22121(11) 0.07654(9)
H4 H 0.0935 0.2405 0.0775
C6 C 0.21518(16) 0.13434(10) 0.04752(9)
C7 C 0.38539(16) 0.01262(11) 0.01528(9)
C8 C 0.31417(15) -0.06775(11) 0.03130(9)
C9 C 0.36455(16) -0.15238(11) 0.00525(10)
H5 H 0.3169 -0.2066 0.0179
C10 C 0.48245(17) -0.15833(12) -0.03848(11)
H6 H 0.5155 -0.2160 -0.0559
C11 C 0.55158(17) -0.07872(13) -0.05653(10)
H7 H 0.6318 -0.0817 -0.0872
C12 C 0.50407(16) 0.00466(13) -0.03002(10)
H8 H 0.5530 0.0584 -0.0427
C13 C 0.18917(15) -0.07545(10) 0.08224(9)
C14 C 0.10628(15) 0.06978(10) 0.02181(8)
H9 H 0.0215 0.1047 0.0281
C15 C 0.11341(15) 0.04206(10) -0.07043(9)
C16 C 0.03055(16) -0.06801(11) -0.17593(9)
C17 C -0.0444(2) 0.00021(13) -0.23006(11)
H10 H -0.1330 0.0110 -0.2069
H11 H -0.0531 -0.0246 -0.2859
H12 H 0.0047 0.0580 -0.2321
C18 C -0.04823(18) -0.15699(12) -0.16902(11)
H13 H -0.0028 -0.1986 -0.1310
H14 H -0.0548 -0.1856 -0.2234
H15 H -0.1376 -0.1438 -0.1482
C19 C 0.16880(17) -0.08629(12) -0.21165(10)
H16 H 0.2154 -0.0282 -0.2196
H17 H 0.1601 -0.1177 -0.2647
H18 H 0.2194 -0.1247 -0.1735
C20 C -0.01214(15) -0.01445(10) 0.14017(9)
H19 H 0.0266 -0.0411 0.1916
C21 C -0.06982(15) 0.07805(10) 0.16282(9)
C22 C -0.01705(16) 0.12420(11) 0.22983(9)
H20 H 0.0487 0.0956 0.2630
C23 C -0.05961(18) 0.21193(12) 0.24882(10)
H21 H -0.0237 0.2428 0.2953
C24 C -0.15451(17) 0.25469(11) 0.20010(10)
H22 H -0.1822 0.3152 0.2123
C25 C -0.20847(16) 0.20843(11) 0.13354(10)
H23 H -0.2735 0.2374 0.1001
C26 C -0.16799(15) 0.12009(11) 0.11553(9)
H24 H -0.2073 0.0881 0.0708
C27 C -0.11829(15) -0.08046(10) 0.11002(9)
C28 C -0.30240(19) -0.16748(12) 0.15267(11)
H25 H -0.3694 -0.1339 0.1210
H26 H -0.3424 -0.1909 0.2035
H27 H -0.2690 -0.2186 0.1197
N1 N 0.09667(12) -0.00744(9) 0.07938(7)
N2 N 0.04330(13) -0.03227(9) -0.09097(8)
H28 H 0.0021 -0.0619 -0.0513
O1 O 0.16983(11) -0.14319(8) 0.12499(7)
O2 O 0.17272(11) 0.09175(7) -0.11851(6)
O3 O -0.13357(12) -0.10533(8) 0.03988(7)
O4 O -0.19371(12) -0.10692(8) 0.17306(7)
loop_
_geom_bond_atom_site_label_1
_geom_bond_atom_site_label_2
_geom_bond_site_symmetry_1
_geom_bond_site_symmetry_2
C1 C2 1_555 1_555
C2 H1 1_555 1_555
C3 C2 1_555 1_555
H2 C3 1_555 1_555
C4 C3 1_555 1_555
H3 C4 1_555 1_555
C5 C4 1_555 1_555
H4 C5 1_555 1_555
C6 C1 1_555 1_555
C7 C1 1_555 1_555
C8 C7 1_555 1_555
C9 C8 1_555 1_555
H5 C9 1_555 1_555
C10 C9 1_555 1_555
H6 C10 1_555 1_555
C11 C10 1_555 1_555
H7 C11 1_555 1_555
C12 C7 1_555 1_555
H8 C12 1_555 1_555
C13 C8 1_555 1_555
C14 C6 1_555 1_555
H9 C14 1_555 1_555
C15 C14 1_555 1_555
C16 C17 1_555 1_555
C17 H10 1_555 1_555
H11 C17 1_555 1_555
H12 C17 1_555 1_555
C18 C16 1_555 1_555
H13 C18 1_555 1_555
H14 C18 1_555 1_555
H15 C18 1_555 1_555
C19 C16 1_555 1_555
H16 C19 1_555 1_555
H17 C19 1_555 1_555
H18 C19 1_555 1_555
C20 H19 1_555 1_555
C21 C20 1_555 1_555
C22 C21 1_555 1_555
H20 C22 1_555 1_555
C23 C22 1_555 1_555
H21 C23 1_555 1_555
C24 C23 1_555 1_555
H22 C24 1_555 1_555
C25 C24 1_555 1_555
H23 C25 1_555 1_555
C26 C21 1_555 1_555
H24 C26 1_555 1_555
C27 C20 1_555 1_555
C28 H25 1_555 1_555
H26 C28 1_555 1_555
H27 C28 1_555 1_555
N1 C13 1_555 1_555
N2 C15 1_555 1_555
H28 N2 1_555 1_555
O1 C13 1_555 1_555
O2 C15 1_555 1_555
O3 C27 1_555 1_555
O4 C27 1_555 1_555
C5 C6 1_555 1_555
C11 C12 1_555 1_555
C14 N1 1_555 1_555
C16 N2 1_555 1_555
C20 N1 1_555 1_555
C25 C26 1_555 1_555
C28 O4 1_555 1_555

#END
