
#######################################################################
#
#                 Cambridge Crystallographic Data Centre
#                                CCDC 
#
#######################################################################
#
# If this CIF has been generated from an entry in the Cambridge 
# Structural Database, then it will include bibliographic, chemical, 
# crystal, experimental, refinement or atomic coordinate data resulting 
# from the CCDC's data processing and validation procedures.
#
#######################################################################

data_DACDUJ
_chemical_formula_moiety         'C30 H34 B2 F4 N4'
_chemical_name_systematic        
3,12-di-t-butyl-5,5,10,10-tetrafluoro-16,17-dimethyl-5,7,8,10-tetrahydro-5,10-pyrrolo[2',1':5,6][1,2,6]borondiazino[2,3-a]pyrrolo[2'',1'':5',6'][1,2,6]borondiazino[2',3':1,5]pyrrolo[3,2-e]indole-6,9-diium
_symmetry_cell_setting           monoclinic
_symmetry_space_group_name_H-M   'P 21/n'
_symmetry_Int_Tables_number      14
_space_group_name_Hall           '-P 2yn'
loop_
_symmetry_equiv_pos_site_id
_symmetry_equiv_pos_as_xyz
1 x,y,z
2 1/2-x,1/2+y,1/2-z
3 -x,-y,-z
4 1/2+x,1/2-y,1/2+z
_cell_length_a                   17.6404(15)
_cell_length_b                   8.5702(8)
_cell_length_c                   20.1377(17)
_cell_angle_alpha                90
_cell_angle_beta                 114.5680(10)
_cell_angle_gamma                90
_cell_volume                     2768.83
_exptl_crystal_colour            green
_exptl_crystal_description       block
_cell_formula_units_Z            4
loop_
_atom_site_label
_atom_site_type_symbol
_atom_site_fract_x
_atom_site_fract_y
_atom_site_fract_z
B1 B 0.86412(15) 0.8440(3) 0.18845(13)
B2 B 0.85364(15) 0.7999(3) 0.56096(12)
C1 C 0.89628(12) 0.8670(3) 0.07038(11)
C2 C 0.91274(16) 0.9924(3) 0.03344(13)
H1 H 0.9220 0.9852 -0.0086
C3 C 0.91271(15) 1.1253(3) 0.06962(12)
H2 H 0.9217 1.2255 0.0567
C4 C 0.89694(12) 1.0858(2) 0.12934(11)
C5 C 0.89458(12) 1.1816(2) 0.18415(11)
H3 H 0.9001 1.2887 0.1802
C6 C 0.88448(11) 1.1254(2) 0.24361(10)
C7 C 0.88625(11) 1.1997(2) 0.30727(11)
C8 C 0.87965(11) 1.0816(2) 0.35179(10)
C9 C 0.88336(11) 1.0715(2) 0.42528(10)
C10 C 0.90838(12) 1.1681(2) 0.48576(10)
C11 C 0.90082(11) 1.0805(2) 0.54220(10)
C12 C 0.91545(12) 1.1168(2) 0.61292(11)
H4 H 0.9364 1.2152 0.6306
C13 C 0.90053(12) 1.0136(2) 0.65926(11)
C14 C 0.91114(13) 1.0373(3) 0.73091(11)
H5 H 0.9321 1.1267 0.7587
C15 C 0.88506(13) 0.9049(3) 0.75289(11)
H6 H 0.8854 0.8883 0.7987
C16 C 0.85765(12) 0.7982(2) 0.69477(11)
C17 C 0.86036(11) 0.9270(2) 0.44679(10)
C18 C 0.82447(14) 0.7937(2) 0.39656(11)
H7 H 0.7644 0.8051 0.3728
H8 H 0.8368 0.6976 0.4246
C19 C 0.85874(14) 0.7826(2) 0.33867(11)
H9 H 0.9118 0.7285 0.3589
H10 H 0.8207 0.7220 0.2977
C20 C 0.87032(11) 0.9395(2) 0.31237(10)
C21 C 0.89312(14) 0.6981(3) 0.04821(12)
C22 C 0.8251(2) 0.6035(4) 0.05486(19)
H11 H 0.8337 0.5993 0.1051
H12 H 0.8260 0.4997 0.0373
H13 H 0.7722 0.6510 0.0264
C23 C 0.97730(19) 0.6226(4) 0.09715(19)
H14 H 1.0218 0.6812 0.0935
H15 H 0.9786 0.5173 0.0815
H16 H 0.9838 0.6225 0.1469
C24 C 0.8854(3) 0.6875(4) -0.02967(17)
H17 H 0.8350 0.7380 -0.0620
H18 H 0.8840 0.5798 -0.0433
H19 H 0.9324 0.7379 -0.0329
C25 C 0.89029(15) 1.3725(2) 0.31693(12)
H20 H 0.8475 1.4057 0.3315
H21 H 0.8821 1.4218 0.2717
H22 H 0.9438 1.4011 0.3538
C26 C 0.93631(15) 1.3345(2) 0.49478(13)
H23 H 0.9826 1.3452 0.4818
H24 H 0.9530 1.3655 0.5447
H25 H 0.8913 1.3996 0.4636
C27 C 0.81815(17) 0.6428(3) 0.69536(13)
C28 C 0.8570(3) 0.5102(3) 0.6719(2)
H26 H 0.8488 0.5255 0.6221
H27 H 0.8316 0.4138 0.6760
H28 H 0.9157 0.5064 0.7027
C29 C 0.8251(2) 0.6098(4) 0.77296(14)
H29 H 0.8828 0.6052 0.8064
H30 H 0.7988 0.5120 0.7733
H31 H 0.7980 0.6918 0.7874
C30 C 0.7214(2) 0.6553(5) 0.64553(15)
H32 H 0.6972 0.7333 0.6650
H33 H 0.6954 0.5564 0.6446
H34 H 0.7129 0.6837 0.5968
F1 F 0.91651(9) 0.71996(14) 0.22069(7)
F2 F 0.78262(9) 0.79521(19) 0.15838(8)
F3 F 0.90922(9) 0.68009(15) 0.56843(7)
F4 F 0.77388(8) 0.74770(16) 0.52283(7)
N1 N 0.88686(9) 0.92509(19) 0.12970(8)
N2 N 0.87414(9) 0.96575(18) 0.24865(8)
N3 N 0.86723(9) 0.86568(19) 0.63695(8)
N4 N 0.87086(9) 0.93229(17) 0.51624(8)
loop_
_geom_bond_atom_site_label_1
_geom_bond_atom_site_label_2
_geom_bond_site_symmetry_1
_geom_bond_site_symmetry_2
B1 F1 1_555 1_555
B2 F3 1_555 1_555
C1 C2 1_555 1_555
C2 H1 1_555 1_555
C3 C2 1_555 1_555
H2 C3 1_555 1_555
C4 C3 1_555 1_555
C5 C4 1_555 1_555
H3 C5 1_555 1_555
C6 C5 1_555 1_555
C7 C6 1_555 1_555
C8 C7 1_555 1_555
C9 C8 1_555 1_555
C10 C9 1_555 1_555
C11 C10 1_555 1_555
C12 C11 1_555 1_555
H4 C12 1_555 1_555
C13 C12 1_555 1_555
C14 C13 1_555 1_555
H5 C14 1_555 1_555
C15 C14 1_555 1_555
H6 C15 1_555 1_555
C16 C15 1_555 1_555
C17 C9 1_555 1_555
C18 C17 1_555 1_555
H7 C18 1_555 1_555
H8 C18 1_555 1_555
C19 C18 1_555 1_555
H9 C19 1_555 1_555
H10 C19 1_555 1_555
C20 C8 1_555 1_555
C21 C1 1_555 1_555
C22 C21 1_555 1_555
H11 C22 1_555 1_555
H12 C22 1_555 1_555
H13 C22 1_555 1_555
C23 C21 1_555 1_555
H14 C23 1_555 1_555
H15 C23 1_555 1_555
H16 C23 1_555 1_555
C24 C21 1_555 1_555
H17 C24 1_555 1_555
H18 C24 1_555 1_555
H19 C24 1_555 1_555
C25 C7 1_555 1_555
H20 C25 1_555 1_555
H21 C25 1_555 1_555
H22 C25 1_555 1_555
C26 C10 1_555 1_555
H23 C26 1_555 1_555
H24 C26 1_555 1_555
H25 C26 1_555 1_555
C27 C16 1_555 1_555
C28 C27 1_555 1_555
H26 C28 1_555 1_555
H27 C28 1_555 1_555
H28 C28 1_555 1_555
C29 C27 1_555 1_555
H29 C29 1_555 1_555
H30 C29 1_555 1_555
H31 C29 1_555 1_555
C30 C27 1_555 1_555
H32 C30 1_555 1_555
H33 C30 1_555 1_555
H34 C30 1_555 1_555
F2 B1 1_555 1_555
F4 B2 1_555 1_555
N1 B1 1_555 1_555
N2 B1 1_555 1_555
N3 B2 1_555 1_555
N4 B2 1_555 1_555
C1 N1 1_555 1_555
C4 N1 1_555 1_555
C6 N2 1_555 1_555
C11 N4 1_555 1_555
C13 N3 1_555 1_555
C16 N3 1_555 1_555
C17 N4 1_555 1_555
C19 C20 1_555 1_555
C20 N2 1_555 1_555

#END
