
#######################################################################
#
#                 Cambridge Crystallographic Data Centre
#                                CCDC 
#
#######################################################################
#
# If this CIF has been generated from an entry in the Cambridge 
# Structural Database, then it will include bibliographic, chemical, 
# crystal, experimental, refinement or atomic coordinate data resulting 
# from the CCDC's data processing and validation procedures.
#
#######################################################################

data_DACJAS10
_chemical_name_common            alpha-Ethanedione-di-1-naphthalenyl
_chemical_formula_moiety         'C22 H14 O2'
_chemical_name_systematic        \a-Naphthil
_symmetry_cell_setting           triclinic
_symmetry_space_group_name_H-M   'P -1'
_symmetry_Int_Tables_number      2
_space_group_name_Hall           '-P 1'
loop_
_symmetry_equiv_pos_site_id
_symmetry_equiv_pos_as_xyz
1 x,y,z
2 -x,-y,-z
_cell_length_a                   12.455(1)
_cell_length_b                   7.832(1)
_cell_length_c                   8.806(2)
_cell_angle_alpha                115.72(1)
_cell_angle_beta                 94.96(1)
_cell_angle_gamma                94.82(1)
_cell_volume                     763.898
_cell_formula_units_Z            2
loop_
_atom_site_label
_atom_site_type_symbol
_atom_site_fract_x
_atom_site_fract_y
_atom_site_fract_z
O1 O -0.2876(1) 0.1523(2) -0.1922(2)
O2 O -0.3052(1) -0.2256(2) -0.5060(2)
C1 C -0.3561(1) 0.0039(2) 0.0508(2)
C2 C -0.3641(1) 0.2022(2) 0.1237(2)
C3 C -0.4005(1) 0.2913(3) 0.2780(2)
C4 C -0.4315(1) 0.1898(3) 0.3676(2)
C5 C -0.4257(1) -0.0005(2) 0.3020(2)
C6 C -0.3880(1) -0.0986(2) 0.1427(2)
C7 C -0.3807(2) -0.2962(3) 0.0768(3)
C8 C -0.3425(2) -0.3918(2) -0.0741(3)
C9 C -0.3106(1) -0.2929(2) -0.1660(2)
C10 C -0.3169(1) -0.1000(2) -0.1085(2)
C11 C -0.2808(1) -0.0117(2) -0.2166(2)
C12 C -0.2364(1) -0.1381(2) -0.3814(2)
C13 C -0.1182(1) -0.1387(2) -0.3780(2)
C14 C -0.0526(1) -0.0133(2) -0.2291(2)
C15 C 0.0609(1) 0.0002(2) -0.2145(2)
C16 C 0.1087(1) -0.1149(2) -0.3489(2)
C17 C 0.0459(1) -0.2481(2) -0.5031(2)
C18 C 0.0976(1) -0.3677(3) -0.6407(2)
C19 C 0.0380(2) -0.4977(3) -0.7889(2)
C20 C -0.0751(2) -0.5136(3) -0.8063(2)
C21 C -0.1285(2) -0.4002(2) -0.6778(2)
C22 C -0.0694(1) -0.2628(2) -0.5211(2)
H1 H -0.344(1) 0.272(2) 0.056(2)
H2 H -0.405(1) 0.433(2) 0.328(2)
H3 H -0.460(1) 0.253(2) 0.477(2)
H4 H -0.447(2) -0.078(2) 0.363(2)
H5 H -0.406(2) -0.367(2) 0.143(2)
H6 H -0.336(2) -0.529(2) -0.117(2)
H7 H -0.284(1) -0.366(2) -0.277(2)
H8 H -0.086(1) 0.072(2) -0.133(2)
H9 H 0.104(1) 0.094(2) -0.107(2)
H10 H 0.191(1) -0.108(2) -0.340(2)
H11 H 0.182(2) -0.349(2) -0.623(2)
H12 H 0.077(2) -0.582(2) -0.886(2)
H13 H -0.121(1) -0.610(2) -0.917(2)
H14 H -0.209(1) -0.409(2) -0.692(2)
loop_
_geom_bond_atom_site_label_1
_geom_bond_atom_site_label_2
_geom_bond_site_symmetry_1
_geom_bond_site_symmetry_2
O1 C11 1_555 1_555
O2 C12 1_555 1_555
C1 C2 1_555 1_555
C2 C3 1_555 1_555
C3 C4 1_555 1_555
C4 C5 1_555 1_555
C5 C6 1_555 1_555
C6 C1 1_555 1_555
C7 C6 1_555 1_555
C8 C7 1_555 1_555
C9 C8 1_555 1_555
C10 C1 1_555 1_555
C11 C10 1_555 1_555
C12 C11 1_555 1_555
C13 C12 1_555 1_555
C14 C13 1_555 1_555
C15 C14 1_555 1_555
C16 C15 1_555 1_555
C17 C16 1_555 1_555
C18 C17 1_555 1_555
C19 C18 1_555 1_555
C20 C19 1_555 1_555
C21 C20 1_555 1_555
C22 C13 1_555 1_555
H1 C2 1_555 1_555
H2 C3 1_555 1_555
H3 C4 1_555 1_555
H4 C5 1_555 1_555
H5 C7 1_555 1_555
H6 C8 1_555 1_555
H7 C9 1_555 1_555
H8 C14 1_555 1_555
H9 C15 1_555 1_555
H10 C16 1_555 1_555
H11 C18 1_555 1_555
H12 C19 1_555 1_555
H13 C20 1_555 1_555
H14 C21 1_555 1_555
C9 C10 1_555 1_555
C17 C22 1_555 1_555
C21 C22 1_555 1_555

#END
