
#######################################################################
#
#                 Cambridge Crystallographic Data Centre
#                                CCDC 
#
#######################################################################
#
# If this CIF has been generated from an entry in the Cambridge 
# Structural Database, then it will include bibliographic, chemical, 
# crystal, experimental, refinement or atomic coordinate data resulting 
# from the CCDC's data processing and validation procedures.
#
#######################################################################

data_DACKEA
_chemical_formula_moiety         'C21 H19 N1 O4'
_chemical_name_systematic        
5-(ethoxymethyl)-3-(4-methoxyphenyl)[1,3]oxazino[3,4-a]indol-1-one
_symmetry_cell_setting           monoclinic
_symmetry_space_group_name_H-M   'P 21/n'
_symmetry_Int_Tables_number      14
_space_group_name_Hall           '-P 2yn'
loop_
_symmetry_equiv_pos_site_id
_symmetry_equiv_pos_as_xyz
1 x,y,z
2 1/2-x,1/2+y,1/2-z
3 -x,-y,-z
4 1/2+x,1/2-y,1/2+z
_cell_length_a                   5.197(3)
_cell_length_b                   14.855(9)
_cell_length_c                   22.937(14)
_cell_angle_alpha                90
_cell_angle_beta                 95.436(11)
_cell_angle_gamma                90
_cell_volume                     1762.81
_exptl_crystal_colour            colorless
_exptl_crystal_description       block
_cell_formula_units_Z            4
loop_
_atom_site_label
_atom_site_type_symbol
_atom_site_fract_x
_atom_site_fract_y
_atom_site_fract_z
C1 C 1.5341(5) 0.35934(18) 0.38443(11)
H1 H 1.5997 0.4147 0.3977
C2 C 1.6489(6) 0.2804(2) 0.40485(13)
H2 H 1.7940 0.2828 0.4318
C3 C 1.5517(6) 0.19724(19) 0.38587(12)
H3 H 1.6345 0.1451 0.4001
C4 C 1.3354(5) 0.18998(17) 0.34643(11)
H4 H 1.2693 0.1343 0.3341
C5 C 1.2212(4) 0.26976(15) 0.32610(9)
C6 C 1.3181(4) 0.35490(15) 0.34362(10)
C7 C 1.1622(5) 0.42272(15) 0.31220(10)
C8 C 0.9738(4) 0.37913(14) 0.27748(9)
C9 C 1.2141(6) 0.52227(16) 0.31321(11)
H5 H 1.3635 0.5341 0.2921
H6 H 1.0673 0.5528 0.2927
C10 C 1.0369(9) 0.5592(3) 0.40026(17)
H7 H 0.9763 0.4980 0.4045
H8 H 0.9012 0.5930 0.3781
C11 C 1.0924(13) 0.5997(3) 0.45804(19)
H9 H 1.2242 0.5655 0.4803
H10 H 0.9383 0.6000 0.4780
H11 H 1.1513 0.6604 0.4538
C12 C 0.8471(4) 0.22110(14) 0.25794(9)
C13 C 0.6134(4) 0.34526(14) 0.20822(9)
C14 C 0.7671(4) 0.40669(14) 0.23628(9)
H12 H 0.7388 0.4676 0.2288
C15 C 0.3977(4) 0.36004(14) 0.16341(9)
C16 C 0.2269(5) 0.29175(15) 0.14432(10)
H13 H 0.2479 0.2348 0.1610
C17 C 0.0264(5) 0.30644(17) 0.10113(11)
H14 H -0.0864 0.2599 0.0893
C18 C -0.0053(5) 0.39026(18) 0.07568(10)
C19 C 0.1649(5) 0.45907(18) 0.09387(12)
H15 H 0.1447 0.5157 0.0767
C20 C 0.3625(5) 0.44432(16) 0.13691(11)
H16 H 0.4744 0.4911 0.1486
C21 C -0.3685(6) 0.3453(2) 0.01010(13)
H17 H -0.2750 0.2976 -0.0066
H18 H -0.4903 0.3708 -0.0194
H19 H -0.4591 0.3219 0.0414
N1 N 1.0061(4) 0.28496(11) 0.28537(8)
O1 O 1.2591(4) 0.55871(12) 0.36993(8)
O2 O 0.8689(3) 0.14133(10) 0.26488(8)
O3 O 0.6516(3) 0.25338(9) 0.21991(7)
O4 O -0.1920(4) 0.41325(14) 0.03240(8)
loop_
_geom_bond_atom_site_label_1
_geom_bond_atom_site_label_2
_geom_bond_site_symmetry_1
_geom_bond_site_symmetry_2
C1 H1 1_555 1_555
C2 C1 1_555 1_555
H2 C2 1_555 1_555
C3 C2 1_555 1_555
H3 C3 1_555 1_555
C4 C3 1_555 1_555
H4 C4 1_555 1_555
C5 C4 1_555 1_555
C6 C1 1_555 1_555
C7 C6 1_555 1_555
C8 C7 1_555 1_555
C9 C7 1_555 1_555
H5 C9 1_555 1_555
H6 C9 1_555 1_555
C10 H7 1_555 1_555
H8 C10 1_555 1_555
C11 C10 1_555 1_555
H9 C11 1_555 1_555
H10 C11 1_555 1_555
H11 C11 1_555 1_555
C12 N1 1_555 1_555
C13 C14 1_555 1_555
C14 C8 1_555 1_555
H12 C14 1_555 1_555
C15 C13 1_555 1_555
C16 C15 1_555 1_555
H13 C16 1_555 1_555
C17 C16 1_555 1_555
H14 C17 1_555 1_555
C18 C17 1_555 1_555
C19 C18 1_555 1_555
H15 C19 1_555 1_555
C20 C15 1_555 1_555
H16 C20 1_555 1_555
C21 H17 1_555 1_555
H18 C21 1_555 1_555
H19 C21 1_555 1_555
N1 C5 1_555 1_555
O1 C9 1_555 1_555
O2 C12 1_555 1_555
O3 C12 1_555 1_555
O4 C18 1_555 1_555
C5 C6 1_555 1_555
C8 N1 1_555 1_555
C10 O1 1_555 1_555
C13 O3 1_555 1_555
C19 C20 1_555 1_555
C21 O4 1_555 1_555

#END
