
#######################################################################
#
#                 Cambridge Crystallographic Data Centre
#                                CCDC 
#
#######################################################################
#
# If this CIF has been generated from an entry in the Cambridge 
# Structural Database, then it will include bibliographic, chemical, 
# crystal, experimental, refinement or atomic coordinate data resulting 
# from the CCDC's data processing and validation procedures.
#
#######################################################################

data_DACLIF
_chemical_formula_moiety         'C22 H18 O8'
_chemical_name_systematic        
"9-(1,3-benzodioxol-5-yl)-8-oxo-5,5a,6,8,8a,9-hexahydrofuro[3',4':6,7]naphtho[2,3-d][1,3]dioxol-5-yl acetate"
_chemical_properties_biological  'anticancer activity'
_symmetry_cell_setting           triclinic
_symmetry_space_group_name_H-M   'P -1'
_symmetry_Int_Tables_number      2
_space_group_name_Hall           '-P 1'
loop_
_symmetry_equiv_pos_site_id
_symmetry_equiv_pos_as_xyz
1 x,y,z
2 -x,-y,-z
_cell_length_a                   9.4301(6)
_cell_length_b                   9.8683(6)
_cell_length_c                   11.5227(8)
_cell_angle_alpha                81.308(2)
_cell_angle_beta                 68.130(2)
_cell_angle_gamma                68.113(2)
_cell_volume                     923.299
_exptl_crystal_colour            colorless
_exptl_crystal_description       block
_cell_formula_units_Z            2
loop_
_atom_site_label
_atom_site_type_symbol
_atom_site_fract_x
_atom_site_fract_y
_atom_site_fract_z
O1 O 0.8533(2) 0.55238(16) 0.15936(15)
O2 O 0.84383(16) 0.78215(15) 0.10053(13)
O3 O 1.53544(19) 0.68483(19) 0.00350(15)
O4 O 1.33044(19) 0.62850(18) 0.15007(14)
O5 O 0.97036(17) 1.11042(16) -0.40486(14)
O6 O 0.74764(18) 1.04095(16) -0.29066(15)
O7 O 1.86539(18) 0.58565(17) -0.56631(14)
O8 O 1.67635(17) 0.47006(15) -0.50115(13)
C1 C 0.8005(3) 1.1425(2) -0.3828(2)
H1 H 0.7366 1.2436 -0.3527
H2 H 0.7850 1.1329 -0.4611
C2 C 1.0028(2) 1.0142(2) -0.31005(19)
C3 C 1.1431(2) 0.9605(2) -0.28275(19)
H3 H 1.2355 0.9865 -0.3325
C4 C 1.1469(2) 0.8650(2) -0.17819(18)
C5 C 1.3038(2) 0.8123(2) -0.14708(19)
H4 H 1.3099 0.8980 -0.1152
C6 C 1.2951(2) 0.6989(2) -0.04275(18)
H5 H 1.3203 0.6038 -0.0800
C7 C 1.4045(3) 0.6727(2) 0.0331(2)
C8 C 1.1719(3) 0.6260(3) 0.1607(2)
H6 H 1.0903 0.6577 0.2445
H7 H 1.1796 0.5273 0.1448
C9 C 1.1294(2) 0.7346(2) 0.05957(19)
H8 H 1.0954 0.8358 0.0892
C10 C 1.0071(2) 0.7287(2) 0.00787(19)
H9 H 1.0331 0.6260 -0.0145
C11 C 1.0100(2) 0.8274(2) -0.10745(18)
C12 C 0.8694(2) 0.8808(2) -0.1412(2)
H10 H 0.7773 0.8528 -0.0954
C13 C 0.8696(2) 0.9735(2) -0.24142(19)
C14 C 0.7817(3) 0.6818(2) 0.17031(19)
C15 C 0.6158(3) 0.7514(3) 0.2597(2)
H11 H 0.5741 0.6757 0.3090
H12 H 0.5439 0.8100 0.2135
H13 H 0.6196 0.8146 0.3156
C16 C 1.4558(2) 0.7564(2) -0.26106(19)
C17 C 1.5724(3) 0.8235(2) -0.3003(2)
H14 H 1.5539 0.9056 -0.2558
C18 C 1.7157(3) 0.7745(2) -0.4028(2)
H15 H 1.7937 0.8222 -0.4300
C19 C 1.7375(2) 0.6545(2) -0.4618(2)
C20 C 1.6234(2) 0.5862(2) -0.42322(19)
C21 C 1.4800(2) 0.6356(2) -0.32552(19)
H16 H 1.4005 0.5900 -0.3024
C22 C 1.8460(3) 0.4491(2) -0.5662(2)
H17 H 1.9136 0.3732 -0.5232
H18 H 1.8797 0.4178 -0.6530
loop_
_geom_bond_atom_site_label_1
_geom_bond_atom_site_label_2
_geom_bond_site_symmetry_1
_geom_bond_site_symmetry_2
O1 C14 1_555 1_555
O2 C10 1_555 1_555
O3 C7 1_555 1_555
O4 C7 1_555 1_555
O5 C1 1_555 1_555
O6 C1 1_555 1_555
O7 C19 1_555 1_555
O8 C20 1_555 1_555
C1 H1 1_555 1_555
H2 C1 1_555 1_555
C2 O5 1_555 1_555
C3 C2 1_555 1_555
H3 C3 1_555 1_555
C4 C3 1_555 1_555
C5 C4 1_555 1_555
H4 C5 1_555 1_555
C6 C5 1_555 1_555
H5 C6 1_555 1_555
C7 C6 1_555 1_555
C8 O4 1_555 1_555
H6 C8 1_555 1_555
H7 C8 1_555 1_555
C9 C6 1_555 1_555
H8 C9 1_555 1_555
C10 C9 1_555 1_555
H9 C10 1_555 1_555
C11 C4 1_555 1_555
C12 C11 1_555 1_555
H10 C12 1_555 1_555
C13 O6 1_555 1_555
C14 O2 1_555 1_555
C15 C14 1_555 1_555
H11 C15 1_555 1_555
H12 C15 1_555 1_555
H13 C15 1_555 1_555
C16 C5 1_555 1_555
C17 C16 1_555 1_555
H14 C17 1_555 1_555
C18 C17 1_555 1_555
H15 C18 1_555 1_555
C19 C18 1_555 1_555
C20 C19 1_555 1_555
C21 C16 1_555 1_555
H16 C21 1_555 1_555
C22 O7 1_555 1_555
H17 C22 1_555 1_555
H18 C22 1_555 1_555
O8 C22 1_555 1_555
C2 C13 1_555 1_555
C8 C9 1_555 1_555
C10 C11 1_555 1_555
C12 C13 1_555 1_555
C20 C21 1_555 1_555

#END
