
#######################################################################
#
#                 Cambridge Crystallographic Data Centre
#                                CCDC 
#
#######################################################################
#
# If this CIF has been generated from an entry in the Cambridge 
# Structural Database, then it will include bibliographic, chemical, 
# crystal, experimental, refinement or atomic coordinate data resulting 
# from the CCDC's data processing and validation procedures.
#
#######################################################################

data_DACMEB
_chemical_formula_moiety         'C13 H17 N1 O1'
_chemical_name_systematic        
2-Ethyl-3,3-dimethyl-2,3-dihydroquinolin-4(1H)-one
_symmetry_cell_setting           monoclinic
_symmetry_space_group_name_H-M   'P 21/c'
_symmetry_Int_Tables_number      14
_space_group_name_Hall           '-P 2ybc'
loop_
_symmetry_equiv_pos_site_id
_symmetry_equiv_pos_as_xyz
1 x,y,z
2 -x,1/2+y,1/2-z
3 -x,-y,-z
4 x,1/2-y,1/2+z
_cell_length_a                   8.9443(4)
_cell_length_b                   14.1986(9)
_cell_length_c                   18.1557(8)
_cell_angle_alpha                90
_cell_angle_beta                 99.139(4)
_cell_angle_gamma                90
_cell_volume                     2276.44
_exptl_crystal_colour            colorless
_exptl_crystal_description       prism
_cell_formula_units_Z            8
loop_
_atom_site_label
_atom_site_type_symbol
_atom_site_fract_x
_atom_site_fract_y
_atom_site_fract_z
C1 C 0.85150(15) 0.26113(11) 0.42895(8)
C2 C 0.77180(16) 0.16773(11) 0.40704(7)
C3 C 0.61457(15) 0.17046(10) 0.43199(7)
H1 H 0.5564 0.2238 0.4052
C4 C 0.71570(14) 0.26852(9) 0.53785(7)
C5 C 0.69857(16) 0.31106(11) 0.60600(8)
H2 H 0.6322 0.2838 0.6361
C6 C 0.77646(17) 0.39108(11) 0.62922(8)
H3 H 0.7613 0.4197 0.6747
C7 C 0.87790(17) 0.43177(11) 0.58756(8)
H4 H 0.9315 0.4875 0.6043
C8 C 0.89855(16) 0.38976(10) 0.52228(8)
H5 H 0.9680 0.4167 0.4938
C9 C 0.81995(14) 0.30796(10) 0.49631(7)
C10 C 0.87312(19) 0.09007(12) 0.44726(9)
H6 H 0.9744 0.0942 0.4333
H7 H 0.8291 0.0283 0.4328
H8 H 0.8805 0.0981 0.5013
C11 C 0.7553(2) 0.15523(14) 0.32246(9)
H9 H 0.6883 0.2043 0.2977
H10 H 0.7119 0.0931 0.3086
H11 H 0.8550 0.1603 0.3069
C12 C 0.52076(18) 0.08155(11) 0.41531(9)
H12 H 0.5674 0.0304 0.4483
H13 H 0.5236 0.0623 0.3631
C13 C 0.35646(18) 0.09273(12) 0.42591(10)
H14 H 0.3523 0.1107 0.4777
H15 H 0.3029 0.0329 0.4147
H16 H 0.3082 0.1417 0.3922
N1 N 0.63423(14) 0.19086(9) 0.51179(6)
O1 O 0.94518(13) 0.29308(9) 0.39319(6)
H33 H 0.5599(19) 0.1742(12) 0.5365(9)
C14 C 0.37958(15) 0.33407(10) 0.19559(8)
C15 C 0.25182(16) 0.26483(11) 0.17012(8)
C16 C 0.11434(15) 0.29077(11) 0.20757(7)
H17 H 0.0364 0.2404 0.1948
C17 C 0.28965(14) 0.33734(9) 0.31827(7)
C18 C 0.31665(17) 0.35931(10) 0.39483(8)
H18 H 0.2457 0.3409 0.4259
C19 C 0.44487(19) 0.40718(11) 0.42464(9)
H19 H 0.4620 0.4212 0.4765
C20 C 0.55075(18) 0.43579(11) 0.38067(9)
H20 H 0.6382 0.4701 0.4020
C21 C 0.52737(16) 0.41393(10) 0.30617(9)
H21 H 0.5994 0.4332 0.2760
C22 C 0.39861(14) 0.36350(10) 0.27390(8)
C23 C 0.30919(19) 0.16634(11) 0.19648(10)
H22 H 0.3962 0.1494 0.1725
H23 H 0.2281 0.1201 0.1829
H24 H 0.3398 0.1667 0.2508
C24 C 0.2121(2) 0.26578(15) 0.08508(9)
H25 H 0.1947 0.3308 0.0677
H26 H 0.1202 0.2285 0.0697
H27 H 0.2959 0.2386 0.0633
C25 C 0.04066(17) 0.38492(13) 0.18174(9)
H28 H 0.1169 0.4356 0.1928
H29 H 0.0090 0.3829 0.1270
C26 C -0.0957(2) 0.40908(15) 0.21819(11)
H30 H -0.1718 0.3592 0.2077
H31 H -0.1391 0.4689 0.1982
H32 H -0.0643 0.4148 0.2722
N2 N 0.16190(13) 0.28931(9) 0.28823(6)
O2 O 0.46601(11) 0.35949(8) 0.15327(6)
H34 H 0.0920(19) 0.2877(12) 0.3171(9)
loop_
_geom_bond_atom_site_label_1
_geom_bond_atom_site_label_2
_geom_bond_site_symmetry_1
_geom_bond_site_symmetry_2
C1 C2 1_555 1_555
C2 C3 1_555 1_555
C3 H1 1_555 1_555
C4 C5 1_555 1_555
C5 H2 1_555 1_555
C6 C5 1_555 1_555
H3 C6 1_555 1_555
C7 C6 1_555 1_555
H4 C7 1_555 1_555
C8 C7 1_555 1_555
H5 C8 1_555 1_555
C9 C1 1_555 1_555
C10 C2 1_555 1_555
H6 C10 1_555 1_555
H7 C10 1_555 1_555
H8 C10 1_555 1_555
C11 C2 1_555 1_555
H9 C11 1_555 1_555
H10 C11 1_555 1_555
H11 C11 1_555 1_555
C12 C3 1_555 1_555
H12 C12 1_555 1_555
H13 C12 1_555 1_555
C13 C12 1_555 1_555
H14 C13 1_555 1_555
H15 C13 1_555 1_555
H16 C13 1_555 1_555
C14 C15 1_555 1_555
C15 C16 1_555 1_555
C16 H17 1_555 1_555
C17 C18 1_555 1_555
C18 H18 1_555 1_555
C19 C18 1_555 1_555
H19 C19 1_555 1_555
C20 C19 1_555 1_555
H20 C20 1_555 1_555
C21 C20 1_555 1_555
H21 C21 1_555 1_555
C22 C14 1_555 1_555
C23 C15 1_555 1_555
H22 C23 1_555 1_555
H23 C23 1_555 1_555
H24 C23 1_555 1_555
C24 C15 1_555 1_555
H25 C24 1_555 1_555
H26 C24 1_555 1_555
H27 C24 1_555 1_555
C25 C16 1_555 1_555
H28 C25 1_555 1_555
H29 C25 1_555 1_555
C26 C25 1_555 1_555
H30 C26 1_555 1_555
H31 C26 1_555 1_555
H32 C26 1_555 1_555
N1 C3 1_555 1_555
N2 C16 1_555 1_555
O1 C1 1_555 1_555
O2 C14 1_555 1_555
H33 N1 1_555 1_555
H34 N2 1_555 1_555
C4 C9 1_555 1_555
C4 N1 1_555 1_555
C8 C9 1_555 1_555
C17 C22 1_555 1_555
C17 N2 1_555 1_555
C21 C22 1_555 1_555

#END
