
#######################################################################
#
#                 Cambridge Crystallographic Data Centre
#                                CCDC 
#
#######################################################################
#
# If this CIF has been generated from an entry in the Cambridge 
# Structural Database, then it will include bibliographic, chemical, 
# crystal, experimental, refinement or atomic coordinate data resulting 
# from the CCDC's data processing and validation procedures.
#
#######################################################################

data_DACMAX
_chemical_formula_moiety         'C18 H10 Cl1 F3 N2 O1'
_chemical_name_systematic        
5-(3-Chlorophenyl)-1-phenyl-3-(trifluoromethyl)-1H-furo[2,3-c]pyrazole
_symmetry_cell_setting           orthorhombic
_symmetry_space_group_name_H-M   'P 21 21 21'
_symmetry_Int_Tables_number      19
_space_group_name_Hall           'P 2ac 2ab'
loop_
_symmetry_equiv_pos_site_id
_symmetry_equiv_pos_as_xyz
1 x,y,z
2 1/2-x,-y,1/2+z
3 -x,1/2+y,1/2-z
4 1/2+x,1/2-y,-z
_cell_length_a                   4.7199(4)
_cell_length_b                   15.3676(14)
_cell_length_c                   21.928(2)
_cell_angle_alpha                90
_cell_angle_beta                 90
_cell_angle_gamma                90
_cell_volume                     1590.52
_exptl_crystal_colour            colorless
_exptl_crystal_description       prismatic
_cell_formula_units_Z            4
loop_
_atom_site_label
_atom_site_type_symbol
_atom_site_fract_x
_atom_site_fract_y
_atom_site_fract_z
N1 N 0.7638(5) 0.52365(14) 0.68164(11)
N2 N 0.7277(6) 0.57970(15) 0.63355(11)
O1 O 0.5317(5) 0.51865(12) 0.78280(8)
C1 C 0.5323(8) 0.63678(19) 0.65109(14)
C2 C 0.4360(7) 0.62006(17) 0.71074(13)
C3 C 0.5871(6) 0.54924(17) 0.72702(12)
C4 C 0.3145(7) 0.57473(17) 0.80376(13)
C5 C 0.2537(7) 0.63651(19) 0.76156(14)
H1 H 0.1201 0.6807 0.7650
C6 C 0.4443(10) 0.7073(2) 0.60956(18)
F1 F 0.338(3) 0.6845(5) 0.5598(4)
F2 F 0.2266(19) 0.7535(6) 0.6368(4)
F3 F 0.6459(15) 0.7661(4) 0.6038(5)
C7 C 0.9606(7) 0.45462(18) 0.67859(14)
C8 C 1.1026(7) 0.4385(2) 0.62451(14)
H2 H 1.0688 0.4726 0.5903
C9 C 1.2954(8) 0.3708(2) 0.62219(16)
H3 H 1.3906 0.3592 0.5860
C10 C 1.3478(9) 0.3207(2) 0.67254(17)
H4 H 1.4790 0.2756 0.6705
C11 C 1.2065(8) 0.33697(19) 0.72609(17)
H5 H 1.2418 0.3026 0.7602
C12 C 1.0111(7) 0.40438(19) 0.72967(14)
H6 H 0.9156 0.4155 0.7659
C13 C 0.1992(8) 0.55398(18) 0.86337(13)
C14 C 0.0129(7) 0.6114(2) 0.89137(14)
H7 H -0.0345 0.6636 0.8725
C15 C -0.1007(7) 0.5906(2) 0.94699(15)
Cl1 Cl -0.3357(2) 0.66325(6) 0.98101(4)
C16 C -0.0379(10) 0.5140(3) 0.97574(17)
H8 H -0.1206 0.5001 1.0130
C17 C 0.1505(12) 0.4578(2) 0.94826(17)
H9 H 0.1974 0.4059 0.9676
C18 C 0.2702(10) 0.4772(2) 0.89282(16)
H10 H 0.3987 0.4389 0.8751
F4? F 0.6339(19) 0.7201(9) 0.5617(5)
F5? F 0.378(4) 0.7792(5) 0.6346(5)
F6? F 0.2184(18) 0.6821(8) 0.5752(5)
loop_
_geom_bond_atom_site_label_1
_geom_bond_atom_site_label_2
_geom_bond_site_symmetry_1
_geom_bond_site_symmetry_2
N1 N2 1_555 1_555
N2 C1 1_555 1_555
O1 C3 1_555 1_555
C1 C2 1_555 1_555
C2 C3 1_555 1_555
C3 N1 1_555 1_555
C4 O1 1_555 1_555
C5 C2 1_555 1_555
H1 C5 1_555 1_555
C6 C1 1_555 1_555
F1 C6 1_555 1_555
F2 C6 1_555 1_555
F3 C6 1_555 1_555
C7 N1 1_555 1_555
C8 C7 1_555 1_555
H2 C8 1_555 1_555
C9 C8 1_555 1_555
H3 C9 1_555 1_555
C10 C9 1_555 1_555
H4 C10 1_555 1_555
C11 C10 1_555 1_555
H5 C11 1_555 1_555
C12 C7 1_555 1_555
H6 C12 1_555 1_555
C13 C4 1_555 1_555
C14 C13 1_555 1_555
H7 C14 1_555 1_555
C15 C14 1_555 1_555
Cl1 C15 1_555 1_555
C16 C15 1_555 1_555
H8 C16 1_555 1_555
C17 C16 1_555 1_555
H9 C17 1_555 1_555
C18 C13 1_555 1_555
H10 C18 1_555 1_555
C4 C5 1_555 1_555
C11 C12 1_555 1_555
C17 C18 1_555 1_555

#END
