
#######################################################################
#
#                 Cambridge Crystallographic Data Centre
#                                CCDC 
#
#######################################################################
#
# If this CIF has been generated from an entry in the Cambridge 
# Structural Database, then it will include bibliographic, chemical, 
# crystal, experimental, refinement or atomic coordinate data resulting 
# from the CCDC's data processing and validation procedures.
#
#######################################################################

data_DACNIG
_chemical_formula_moiety         'C19 H14 Cl1 N5 O1 S1'
_chemical_name_systematic        
((6-Amino-1-(4-chlorophenyl)-5-cyano-4-methyl-2-oxo-1,2-dihydropyridin-3-yl)(ethylsulfanyl)methylene)malononitrile
_symmetry_cell_setting           orthorhombic
_symmetry_space_group_name_H-M   'P b c a'
_symmetry_Int_Tables_number      61
_space_group_name_Hall           '-P 2ac 2ab'
loop_
_symmetry_equiv_pos_site_id
_symmetry_equiv_pos_as_xyz
1 x,y,z
2 1/2-x,-y,1/2+z
3 -x,1/2+y,1/2-z
4 1/2+x,1/2-y,-z
5 -x,-y,-z
6 1/2+x,y,1/2-z
7 x,1/2-y,1/2+z
8 1/2-x,1/2+y,z
_cell_length_a                   16.3624(17)
_cell_length_b                   10.6610(11)
_cell_length_c                   22.235(2)
_cell_angle_alpha                90
_cell_angle_beta                 90
_cell_angle_gamma                90
_cell_volume                     3878.66
_exptl_crystal_colour            'light yellow'
_exptl_crystal_description       block
_cell_formula_units_Z            8
loop_
_atom_site_label
_atom_site_type_symbol
_atom_site_fract_x
_atom_site_fract_y
_atom_site_fract_z
Cl1 Cl 0.30896(6) 0.42525(6) 0.69191(3)
N1 N 0.35237(11) 0.80419(15) 0.49983(7)
N2 N 0.39332(12) 0.94272(17) 0.57481(7)
H1 H 0.3862 0.8840 0.6008
H2 H 0.4099 1.0155 0.5862
N3 N 0.43357(15) 1.2330(2) 0.50545(10)
N4 N 0.55421(15) 0.8184(3) 0.34694(11)
N5 N 0.40716(14) 0.6999(2) 0.19321(9)
O1 O 0.31052(13) 0.66548(15) 0.42839(7)
S1 S 0.24941(4) 0.81725(6) 0.29876(3)
C1 C 0.27083(14) 0.7106(2) 0.58028(9)
H3 H 0.2309 0.7711 0.5736
C2 C 0.26123(14) 0.6228(2) 0.62564(10)
H4 H 0.2156 0.6251 0.6506
C3 C 0.31980(15) 0.5328(2) 0.63319(9)
C4 C 0.38723(16) 0.5251(2) 0.59633(11)
H5 H 0.4250 0.4606 0.6011
C5 C 0.39779(15) 0.6146(2) 0.55226(11)
H6 H 0.4436 0.6124 0.5275
C6 C 0.34003(13) 0.70736(19) 0.54514(9)
C7 C 0.33653(14) 0.7703(2) 0.43933(9)
C8 C 0.35375(13) 0.8653(2) 0.39544(8)
C9 C 0.37896(12) 0.98290(19) 0.41105(9)
C10 C 0.38978(13) 1.01240(18) 0.47261(9)
C11 C 0.37866(13) 0.92090(19) 0.51676(8)
C12 C 0.41406(14) 1.1348(2) 0.49064(9)
C13 C 0.39396(16) 1.0826(2) 0.36484(10)
H7 H 0.3860 1.0482 0.3254
H8 H 0.4490 1.1128 0.3685
H9 H 0.3565 1.1507 0.3710
C14 C 0.34434(13) 0.82398(19) 0.33203(9)
C15 C 0.18518(16) 0.9058(3) 0.34953(15)
H10 H 0.1786 0.8607 0.3871
H11 H 0.2100 0.9864 0.3582
C16 C 0.1033(2) 0.9243(3) 0.31985(18)
H12 H 0.1105 0.9673 0.2823
H13 H 0.0687 0.9732 0.3457
H14 H 0.0784 0.8441 0.3127
C17 C 0.41178(14) 0.7887(2) 0.30052(9)
C18 C 0.49128(16) 0.8018(2) 0.32678(10)
C19 C 0.40880(14) 0.7408(2) 0.24032(10)
loop_
_geom_bond_atom_site_label_1
_geom_bond_atom_site_label_2
_geom_bond_site_symmetry_1
_geom_bond_site_symmetry_2
Cl1 C3 1_555 1_555
N1 C6 1_555 1_555
N2 H1 1_555 1_555
H2 N2 1_555 1_555
N3 C12 1_555 1_555
N4 C18 1_555 1_555
N5 C19 1_555 1_555
O1 C7 1_555 1_555
S1 C14 1_555 1_555
C1 H3 1_555 1_555
C2 C1 1_555 1_555
H4 C2 1_555 1_555
C3 C2 1_555 1_555
C4 C3 1_555 1_555
H5 C4 1_555 1_555
C5 C4 1_555 1_555
H6 C5 1_555 1_555
C6 C1 1_555 1_555
C7 N1 1_555 1_555
C8 C7 1_555 1_555
C9 C8 1_555 1_555
C10 C9 1_555 1_555
C11 N1 1_555 1_555
C12 C10 1_555 1_555
C13 C9 1_555 1_555
H7 C13 1_555 1_555
H8 C13 1_555 1_555
H9 C13 1_555 1_555
C14 C8 1_555 1_555
C15 S1 1_555 1_555
H10 C15 1_555 1_555
H11 C15 1_555 1_555
C16 C15 1_555 1_555
H12 C16 1_555 1_555
H13 C16 1_555 1_555
H14 C16 1_555 1_555
C17 C14 1_555 1_555
C18 C17 1_555 1_555
C19 C17 1_555 1_555
N2 C11 1_555 1_555
C5 C6 1_555 1_555
C10 C11 1_555 1_555

#END
