
#######################################################################
#
#                 Cambridge Crystallographic Data Centre
#                                CCDC 
#
#######################################################################
#
# If this CIF has been generated from an entry in the Cambridge 
# Structural Database, then it will include bibliographic, chemical, 
# crystal, experimental, refinement or atomic coordinate data resulting 
# from the CCDC's data processing and validation procedures.
#
#######################################################################

data_DACPUT
_chemical_formula_moiety         'C19 H14 O1 S1'
_chemical_name_systematic        
trans-4,5-Diphenyl-4,5-dihydro-6H-cyclopenta(b)thiophen-6-one
_symmetry_cell_setting           monoclinic
_symmetry_space_group_name_H-M   'P 21/n'
_symmetry_Int_Tables_number      14
_space_group_name_Hall           '-P 2yn'
loop_
_symmetry_equiv_pos_site_id
_symmetry_equiv_pos_as_xyz
1 x,y,z
2 1/2+x,1/2-y,1/2+z
3 -x,-y,-z
4 1/2-x,1/2+y,1/2-z
_cell_length_a                   9.8869(16)
_cell_length_b                   10.2778(16)
_cell_length_c                   15.520(3)
_cell_angle_alpha                90
_cell_angle_beta                 105.827(3)
_cell_angle_gamma                90
_cell_volume                     1517.29
_exptl_crystal_colour            yellow
_cell_formula_units_Z            4
loop_
_atom_site_label
_atom_site_type_symbol
_atom_site_fract_x
_atom_site_fract_y
_atom_site_fract_z
S1 S 0.83338(7) 0.47325(6) 0.08373(4)
O1 O 0.92797(18) 0.56862(16) 0.30438(11)
C1 C 0.8008(3) 0.3200(3) 0.03828(17)
C2 C 0.8195(2) 0.2235(2) 0.09928(16)
C3 C 0.8608(2) 0.2729(2) 0.18708(14)
C4 C 0.8723(2) 0.4059(2) 0.18915(14)
C5 C 0.9091(2) 0.4565(2) 0.27954(15)
C6 C 0.9189(2) 0.33698(19) 0.34156(14)
C7 C 0.8963(2) 0.2148(2) 0.27923(14)
C8 C 1.0234(2) 0.1250(2) 0.29980(14)
C9 C 1.0238(3) 0.0120(2) 0.34730(19)
C10 C 1.1407(3) -0.0693(3) 0.3697(2)
C11 C 1.2583(3) -0.0362(3) 0.3449(2)
C12 C 1.2607(3) 0.0747(3) 0.29813(19)
C13 C 1.1439(3) 0.1560(2) 0.27523(17)
C14 C 0.8135(2) 0.34927(19) 0.39630(15)
C15 C 0.6718(2) 0.3361(2) 0.35633(18)
C16 C 0.5763(3) 0.3499(3) 0.4070(2)
C17 C 0.6224(3) 0.3750(3) 0.4970(2)
C18 C 0.7638(3) 0.3890(2) 0.53733(18)
C19 C 0.8589(3) 0.3759(2) 0.48781(16)
H1 H 0.7721 0.3098 -0.0230
H2 H 0.8028 0.1398 0.0826
H3 H 1.0157 0.3366 0.3845
H4 H 0.8161 0.1656 0.2919
H5 H 0.9465 -0.0094 0.3609
H6 H 1.1388 -0.1430 0.4095
H7 H 1.3340 -0.0962 0.3617
H8 H 1.3380 0.1023 0.2829
H9 H 1.1464 0.2358 0.2435
H10 H 0.6431 0.3213 0.2966
H11 H 0.4880 0.3408 0.3713
H12 H 0.5559 0.3777 0.5321
H13 H 0.7961 0.4055 0.6005
H14 H 0.9559 0.3827 0.5155
loop_
_geom_bond_atom_site_label_1
_geom_bond_atom_site_label_2
_geom_bond_site_symmetry_1
_geom_bond_site_symmetry_2
S1 C1 1_555 1_555
O1 C5 1_555 1_555
C1 C2 1_555 1_555
C2 C3 1_555 1_555
C3 C4 1_555 1_555
C4 S1 1_555 1_555
C5 C4 1_555 1_555
C6 C5 1_555 1_555
C7 C3 1_555 1_555
C8 C7 1_555 1_555
C9 C8 1_555 1_555
C10 C9 1_555 1_555
C11 C10 1_555 1_555
C12 C11 1_555 1_555
C13 C8 1_555 1_555
C14 C6 1_555 1_555
C15 C14 1_555 1_555
C16 C15 1_555 1_555
C17 C16 1_555 1_555
C18 C17 1_555 1_555
C19 C14 1_555 1_555
H1 C1 1_555 1_555
H2 C2 1_555 1_555
H3 C6 1_555 1_555
H4 C7 1_555 1_555
H5 C9 1_555 1_555
H6 C10 1_555 1_555
H7 C11 1_555 1_555
H8 C12 1_555 1_555
H9 C13 1_555 1_555
H10 C15 1_555 1_555
H11 C16 1_555 1_555
H12 C17 1_555 1_555
H13 C18 1_555 1_555
H14 C19 1_555 1_555
C6 C7 1_555 1_555
C12 C13 1_555 1_555
C18 C19 1_555 1_555

#END
