
#######################################################################
#
#                 Cambridge Crystallographic Data Centre
#                                CCDC 
#
#######################################################################
#
# If this CIF has been generated from an entry in the Cambridge 
# Structural Database, then it will include bibliographic, chemical, 
# crystal, experimental, refinement or atomic coordinate data resulting 
# from the CCDC's data processing and validation procedures.
#
#######################################################################

data_DACSUX
_chemical_formula_moiety         'C16 H16 N4'
_chemical_name_systematic        
2-Amino-5-butylpyrazolo[5,1-a]isoquinoline-1-carbonitrile
_symmetry_cell_setting           triclinic
_symmetry_space_group_name_H-M   'P -1'
_symmetry_Int_Tables_number      2
_space_group_name_Hall           '-P 1'
loop_
_symmetry_equiv_pos_site_id
_symmetry_equiv_pos_as_xyz
1 x,y,z
2 -x,-y,-z
_cell_length_a                   9.636(2)
_cell_length_b                   9.930(2)
_cell_length_c                   14.630(3)
_cell_angle_alpha                88.480(2)
_cell_angle_beta                 85.747(2)
_cell_angle_gamma                80.272(2)
_cell_volume                     1375.81
_exptl_crystal_colour            colorless
_exptl_crystal_description       block
_cell_formula_units_Z            4
loop_
_atom_site_label
_atom_site_type_symbol
_atom_site_fract_x
_atom_site_fract_y
_atom_site_fract_z
C1 C 0.78533(15) 0.66325(14) 0.24719(10)
C3 C 0.55267(15) 0.59229(14) 0.25317(10)
H1 H 0.4904 0.5383 0.2801
C4 C 0.74068(14) 0.75026(14) 0.17165(10)
C5 C 0.51278(15) 0.67367(14) 0.18103(10)
C6 C 0.68688(16) 0.58638(14) 0.28933(10)
C8 C 0.37844(15) 0.68394(15) 0.13435(11)
H2 H 0.4009 0.6840 0.0686
H3 H 0.3199 0.7709 0.1496
C10 C 0.91961(16) 0.65295(16) 0.28041(11)
H4 H 0.9847 0.7031 0.2524
N1 N 0.69992(14) 1.00115(15) -0.00667(10)
H5 H 0.6277 1.0313 -0.0370
H6 H 0.7766 1.0342 -0.0173
C11 C 0.80019(15) 0.84323(15) 0.11446(10)
C12 C 0.69298(15) 0.90205(15) 0.05759(10)
C15 C 0.72657(18) 0.50338(15) 0.36552(10)
H8 H 0.6627 0.4532 0.3949
C16 C 0.95514(18) 0.56951(18) 0.35371(12)
H9 H 1.0448 0.5621 0.3749
C20 C 0.93609(15) 0.87808(16) 0.11319(11)
C22 C 0.29332(16) 0.57076(16) 0.15862(11)
H14 H 0.2820 0.5619 0.2248
H15 H 0.2000 0.5968 0.1364
C25 C 0.85780(19) 0.49546(17) 0.39687(11)
H18 H 0.8823 0.4402 0.4474
C30 C 0.3594(2) 0.43343(18) 0.11942(14)
H23 H 0.3740 0.4425 0.0534
H24 H 0.4509 0.4050 0.1437
C31 C 0.2695(3) 0.3250(3) 0.14165(19)
H25 H 0.2499 0.3193 0.2068
H26 H 0.3189 0.2384 0.1198
H27 H 0.1823 0.3480 0.1125
N3 N 1.04512(15) 0.90936(18) 0.11106(12)
N5 N 0.60745(12) 0.75563(12) 0.14516(8)
N7 N 0.57598(12) 0.84918(12) 0.07539(8)
C2 C 0.63842(16) -0.12205(14) 0.43393(10)
C7 C 0.68747(16) 0.04933(14) 0.31920(10)
C9 C 0.50284(16) -0.12292(16) 0.40068(11)
C13 C 0.56037(17) 0.04844(16) 0.28694(11)
H7 H 0.5341 0.1049 0.2372
C14 C 0.46413(17) -0.03577(16) 0.32595(11)
C17 C 0.84176(16) -0.13607(15) 0.50012(10)
C18 C 0.33071(18) -0.03428(19) 0.29265(13)
H10 H 0.3035 0.0223 0.2432
C19 C 0.79592(18) 0.13235(16) 0.28398(11)
H11 H 0.8843 0.0710 0.2708
H12 H 0.8104 0.1925 0.3323
C21 C 0.40855(18) -0.20509(19) 0.43992(13)
H13 H 0.4339 -0.2627 0.4893
C23 C 0.76155(18) 0.21848(16) 0.19886(11)
H16 H 0.7387 0.1607 0.1517
H17 H 0.6791 0.2872 0.2132
C24 C 0.71503(17) -0.18899(15) 0.50397(10)
C26 C 0.24057(19) -0.1149(2) 0.33202(14)
H19 H 0.1525 -0.1125 0.3094
C27 C 0.2796(2) -0.2006(2) 0.40576(14)
H20 H 0.2175 -0.2553 0.4320
C28 C 0.67750(19) -0.29100(18) 0.56569(12)
C29 C 0.8824(2) 0.28807(18) 0.16255(12)
H21 H 0.9644 0.2191 0.1475
H22 H 0.9061 0.3446 0.2102
C32 C 0.8487(3) 0.3765(2) 0.07790(14)
H28 H 0.8263 0.3209 0.0302
H29 H 0.9291 0.4175 0.0573
H30 H 0.7695 0.4468 0.0928
N2 N 0.95094(15) -0.17263(14) 0.55511(10)
H31 H 1.0256 -0.1359 0.5466
H32 H 0.9450 -0.2324 0.5982
N4 N 0.6516(2) -0.37482(19) 0.61608(12)
N6 N 0.72237(13) -0.03690(12) 0.39318(8)
N8 N 0.84862(13) -0.04424(12) 0.43321(9)
loop_
_geom_bond_atom_site_label_1
_geom_bond_atom_site_label_2
_geom_bond_site_symmetry_1
_geom_bond_site_symmetry_2
C1 C4 1_555 1_555
C2 C9 1_555 1_555
C3 H1 1_555 1_555
C4 C11 1_555 1_555
C5 C3 1_555 1_555
C6 C1 1_555 1_555
C7 C13 1_555 1_555
C8 C5 1_555 1_555
H2 C8 1_555 1_555
H3 C8 1_555 1_555
C9 C14 1_555 1_555
C10 C1 1_555 1_555
H4 C10 1_555 1_555
N1 H5 1_555 1_555
H6 N1 1_555 1_555
C11 C12 1_555 1_555
C12 N1 1_555 1_555
C13 H7 1_555 1_555
C14 C13 1_555 1_555
C15 C6 1_555 1_555
H8 C15 1_555 1_555
C16 C10 1_555 1_555
H9 C16 1_555 1_555
C17 C24 1_555 1_555
C18 C14 1_555 1_555
H10 C18 1_555 1_555
C19 C7 1_555 1_555
H11 C19 1_555 1_555
H12 C19 1_555 1_555
C20 C11 1_555 1_555
C21 C9 1_555 1_555
H13 C21 1_555 1_555
C22 C8 1_555 1_555
H14 C22 1_555 1_555
H15 C22 1_555 1_555
C23 C19 1_555 1_555
H16 C23 1_555 1_555
H17 C23 1_555 1_555
C24 C2 1_555 1_555
C25 C15 1_555 1_555
H18 C25 1_555 1_555
C26 C18 1_555 1_555
H19 C26 1_555 1_555
C27 C21 1_555 1_555
H20 C27 1_555 1_555
C28 C24 1_555 1_555
C29 C23 1_555 1_555
H21 C29 1_555 1_555
H22 C29 1_555 1_555
C30 C22 1_555 1_555
H23 C30 1_555 1_555
H24 C30 1_555 1_555
C31 C30 1_555 1_555
H25 C31 1_555 1_555
H26 C31 1_555 1_555
H27 C31 1_555 1_555
C32 C29 1_555 1_555
H28 C32 1_555 1_555
H29 C32 1_555 1_555
H30 C32 1_555 1_555
N2 C17 1_555 1_555
H31 N2 1_555 1_555
H32 N2 1_555 1_555
N3 C20 1_555 1_555
N4 C28 1_555 1_555
N5 C4 1_555 1_555
N6 C2 1_555 1_555
N7 C12 1_555 1_555
N8 C17 1_555 1_555
C3 C6 1_555 1_555
C5 N5 1_555 1_555
C7 N6 1_555 1_555
C16 C25 1_555 1_555
C26 C27 1_555 1_555
N5 N7 1_555 1_555
N6 N8 1_555 1_555

#END
