
#######################################################################
#
#                 Cambridge Crystallographic Data Centre
#                                CCDC 
#
#######################################################################
#
# If this CIF has been generated from an entry in the Cambridge 
# Structural Database, then it will include bibliographic, chemical, 
# crystal, experimental, refinement or atomic coordinate data resulting 
# from the CCDC's data processing and validation procedures.
#
#######################################################################

data_DACTEJ
_chemical_name_common            
4-Fluoro-1-morpholin-4-yl-5,6,7,8-tetrahydro-2,3,4b,9-tetraazafluorene
_chemical_formula_moiety         'C13 H16 F1 N5 O1'
_chemical_name_systematic        
1-fluoro-4-(morpholin-4-yl)-6,7,8,9-tetrahydropyrido[1',2':1,2]imidazo[4,5-d]pyridazine
_symmetry_cell_setting           orthorhombic
_symmetry_space_group_name_H-M   'P b c n'
_symmetry_Int_Tables_number      60
_space_group_name_Hall           '-P 2n 2ab'
loop_
_symmetry_equiv_pos_site_id
_symmetry_equiv_pos_as_xyz
1 x,y,z
2 1/2-x,1/2-y,1/2+z
3 1/2+x,1/2-y,-z
4 -x,y,1/2-z
5 -x,-y,-z
6 1/2+x,1/2+y,1/2-z
7 1/2-x,1/2+y,z
8 x,-y,1/2+z
_cell_length_a                   16.7598(9)
_cell_length_b                   7.3062(4)
_cell_length_c                   20.4845(11)
_cell_angle_alpha                90
_cell_angle_beta                 90
_cell_angle_gamma                90
_cell_volume                     2508.34
_exptl_crystal_colour            colorless
_exptl_crystal_description       prism
_chemical_melting_point          '179-181 deg.C'
_cell_formula_units_Z            8
loop_
_atom_site_label
_atom_site_type_symbol
_atom_site_fract_x
_atom_site_fract_y
_atom_site_fract_z
F1 F 0.19745(6) 0.77973(16) 0.01432(5)
O1 O 0.12949(8) 0.52935(17) 0.40248(6)
N1 N 0.11583(9) 0.66523(19) 0.16759(7)
N2 N 0.12394(9) 0.71486(19) 0.10312(7)
N3 N 0.16740(9) 0.60872(19) 0.27058(6)
N4 N 0.34436(9) 0.69123(18) 0.09754(6)
N5 N 0.33307(9) 0.60775(19) 0.20291(7)
C1 C 0.19423(11) 0.7250(2) 0.07750(8)
C2 C 0.26433(11) 0.6857(2) 0.11143(8)
C3 C 0.25801(10) 0.6348(2) 0.17656(8)
C4 C 0.17995(11) 0.6312(2) 0.20446(8)
C5 C 0.38264(11) 0.6413(2) 0.15412(8)
C6 C 0.47146(11) 0.6309(3) 0.15739(9)
C7 C 0.50975(12) 0.6317(3) 0.08956(9)
C8 C 0.47087(12) 0.7775(3) 0.04694(10)
C9 C 0.38352(12) 0.7334(3) 0.03474(9)
C10 C 0.08659(11) 0.6335(3) 0.29514(9)
C11 C 0.08901(12) 0.6719(3) 0.36773(9)
C12 C 0.20950(12) 0.5149(3) 0.37903(8)
C13 C 0.21208(12) 0.4693(2) 0.30695(8)
H1 H 0.4922(12) 0.731(3) 0.1821(9)
H2 H 0.4846(11) 0.523(3) 0.1822(10)
H3 H 0.5015(10) 0.507(3) 0.0696(9)
H4 H 0.5675(13) 0.651(2) 0.0935(9)
H5 H 0.4959(13) 0.790(3) 0.0059(10)
H6 H 0.4740(12) 0.903(3) 0.0681(9)
H7 H 0.3775(11) 0.625(3) 0.0069(9)
H8 H 0.3558(11) 0.836(3) 0.0159(9)
H9 H 0.0545(12) 0.522(3) 0.2872(9)
H10 H 0.0602(12) 0.744(3) 0.2727(9)
H11 H 0.1172(12) 0.794(3) 0.3778(9)
H12 H 0.0351(13) 0.680(2) 0.3860(9)
H13 H 0.2384(11) 0.632(3) 0.3867(9)
H14 H 0.2346(12) 0.417(3) 0.4056(9)
H15 H 0.1875(11) 0.350(3) 0.2986(9)
H16 H 0.2678(11) 0.463(2) 0.2924(8)
loop_
_geom_bond_atom_site_label_1
_geom_bond_atom_site_label_2
_geom_bond_site_symmetry_1
_geom_bond_site_symmetry_2
F1 C1 1_555 1_555
O1 C11 1_555 1_555
N1 N2 1_555 1_555
N2 C1 1_555 1_555
N3 C4 1_555 1_555
N4 C2 1_555 1_555
N5 C3 1_555 1_555
C1 C2 1_555 1_555
C2 C3 1_555 1_555
C3 C4 1_555 1_555
C4 N1 1_555 1_555
C5 N4 1_555 1_555
C6 C5 1_555 1_555
C7 C6 1_555 1_555
C8 C7 1_555 1_555
C9 N4 1_555 1_555
C10 N3 1_555 1_555
C11 C10 1_555 1_555
C12 O1 1_555 1_555
C13 N3 1_555 1_555
H1 C6 1_555 1_555
H2 C6 1_555 1_555
H3 C7 1_555 1_555
H4 C7 1_555 1_555
H5 C8 1_555 1_555
H6 C8 1_555 1_555
H7 C9 1_555 1_555
H8 C9 1_555 1_555
H9 C10 1_555 1_555
H10 C10 1_555 1_555
H11 C11 1_555 1_555
H12 C11 1_555 1_555
H13 C12 1_555 1_555
H14 C12 1_555 1_555
H15 C13 1_555 1_555
H16 C13 1_555 1_555
N5 C5 1_555 1_555
C8 C9 1_555 1_555
C12 C13 1_555 1_555

#END
