
#######################################################################
#
#                 Cambridge Crystallographic Data Centre
#                                CCDC 
#
#######################################################################
#
# If this CIF has been generated from an entry in the Cambridge 
# Structural Database, then it will include bibliographic, chemical, 
# crystal, experimental, refinement or atomic coordinate data resulting 
# from the CCDC's data processing and validation procedures.
#
#######################################################################

data_DACVAH
_chemical_formula_moiety         'C6 H2 N3 O8 1-,C2 H5 N4 1+'
_chemical_name_systematic        
'4-amino-4H-1,2,4-triazol-1-ium 3-hydroxy-2,4,6-trinitrophenolate'
_symmetry_cell_setting           triclinic
_symmetry_space_group_name_H-M   'P -1'
_symmetry_Int_Tables_number      2
_space_group_name_Hall           '-P 1'
loop_
_symmetry_equiv_pos_site_id
_symmetry_equiv_pos_as_xyz
1 x,y,z
2 -x,-y,-z
_cell_length_a                   7.8000(16)
_cell_length_b                   8.9000(18)
_cell_length_c                   9.932(2)
_cell_angle_alpha                87.22(3)
_cell_angle_beta                 75.97(3)
_cell_angle_gamma                66.30(3)
_cell_volume                     611.567
_exptl_crystal_colour            yellow
_exptl_crystal_description       block
_cell_formula_units_Z            2
loop_
_atom_site_label
_atom_site_type_symbol
_atom_site_fract_x
_atom_site_fract_y
_atom_site_fract_z
N1 N 0.6805(2) 0.64793(19) 0.03341(16)
N2 N 0.8232(3) 0.5351(2) 0.18808(18)
H1 H 0.8554 0.4740 0.2552
N3 N 0.5546(3) 0.6841(2) -0.05415(19)
H2 H 0.4785 0.6344 -0.0468
H3 H 0.5532 0.7561 -0.1154
N4 N 0.9058(3) 0.6389(2) 0.1309(2)
C1 C 0.6901(3) 0.5388(3) 0.1297(2)
H4 H 0.6161 0.4770 0.1511
C2 C 0.8132(3) 0.7074(3) 0.0375(2)
H5 H 0.8352 0.7871 -0.0194
C3 C 0.3015(3) -0.0560(2) 0.4861(2)
N5 N 0.3605(2) -0.0034(2) 0.24341(17)
N6 N -0.1777(2) 0.4030(2) 0.58358(18)
C4 C -0.0103(3) 0.2502(2) 0.54479(19)
C5 C 0.0969(3) 0.2091(2) 0.40271(19)
O1 O -0.2263(3) 0.4991(2) 0.49526(18)
O2 O 0.1316(3) -0.0619(2) 0.85126(17)
C6 C 0.1882(3) -0.0047(2) 0.6225(2)
N7 N 0.2245(3) -0.1095(2) 0.73366(18)
O3 O 0.3543(3) -0.2498(2) 0.70631(19)
C7 C 0.2507(3) 0.0512(2) 0.38516(19)
O4 O -0.2651(3) 0.4304(2) 0.70466(18)
C8 C 0.0361(3) 0.1471(2) 0.6488(2)
H6 H -0.0367 0.1801 0.7396
O5 O 0.2845(3) -0.0373(3) 0.16433(18)
O6 O 0.5221(3) -0.0085(3) 0.2085(2)
O7 O 0.0675(2) 0.29501(19) 0.30103(15)
H7 H 0.1439 0.2434 0.2299
O8 O 0.4495(2) -0.20016(18) 0.44916(16)
loop_
_geom_bond_atom_site_label_1
_geom_bond_atom_site_label_2
_geom_bond_site_symmetry_1
_geom_bond_site_symmetry_2
N1 N3 1_555 1_555
N2 H1 1_555 1_555
N3 H2 1_555 1_555
H3 N3 1_555 1_555
N4 N2 1_555 1_555
C1 N1 1_555 1_555
H4 C1 1_555 1_555
C2 N1 1_555 1_555
H5 C2 1_555 1_555
C3 C6 1_555 1_555
N5 C7 1_555 1_555
N6 C4 1_555 1_555
C4 C5 1_555 1_555
C5 C7 1_555 1_555
O1 N6 1_555 1_555
O2 N7 1_555 1_555
C6 N7 1_555 1_555
N7 O3 1_555 1_555
C7 C3 1_555 1_555
O4 N6 1_555 1_555
C8 C4 1_555 1_555
H6 C8 1_555 1_555
O5 N5 1_555 1_555
O6 N5 1_555 1_555
O7 C5 1_555 1_555
H7 O7 1_555 1_555
O8 C3 1_555 1_555
N2 C1 1_555 1_555
N4 C2 1_555 1_555
C6 C8 1_555 1_555

#END
