
#######################################################################
#
#                 Cambridge Crystallographic Data Centre
#                                CCDC 
#
#######################################################################
#
# If this CIF has been generated from an entry in the Cambridge 
# Structural Database, then it will include bibliographic, chemical, 
# crystal, experimental, refinement or atomic coordinate data resulting 
# from the CCDC's data processing and validation procedures.
#
#######################################################################

data_DACVUA
_chemical_formula_moiety         'C18 H25 N1 O5'
_chemical_name_systematic        'Dimethyl 3-acetamido-4,6-diisopropylphthalate'
_symmetry_cell_setting           monoclinic
_symmetry_space_group_name_H-M   'P 21/c'
_symmetry_Int_Tables_number      14
_space_group_name_Hall           '-P 2ybc'
loop_
_symmetry_equiv_pos_site_id
_symmetry_equiv_pos_as_xyz
1 x,y,z
2 -x,1/2+y,1/2-z
3 -x,-y,-z
4 x,1/2-y,1/2+z
_cell_length_a                   8.3411(13)
_cell_length_b                   17.2794(17)
_cell_length_c                   12.2343(19)
_cell_angle_alpha                90
_cell_angle_beta                 98.713(5)
_cell_angle_gamma                90
_cell_volume                     1742.97
_exptl_crystal_colour            colorless
_exptl_crystal_description       prism
_cell_formula_units_Z            4
loop_
_atom_site_label
_atom_site_type_symbol
_atom_site_fract_x
_atom_site_fract_y
_atom_site_fract_z
O1 O 0.62482(16) -0.04655(7) 0.17854(11)
O2 O 0.68640(16) 0.01400(7) 0.34211(11)
O3 O 0.37473(17) 0.07311(7) 0.21963(12)
O4 O 1.01769(16) 0.00528(7) 0.28482(11)
O5 O 1.03546(17) 0.10597(8) 0.40349(12)
N1 N 0.4652(2) 0.08696(9) 0.05457(16)
C1 C 0.6701(2) 0.01077(12) 0.23188(17)
C2 C 0.6354(3) -0.05516(11) 0.39474(18)
H1 H 0.5282 -0.0712 0.3574
H2 H 0.6298 -0.0442 0.4727
H3 H 0.7137 -0.0968 0.3897
C3 C 0.7207(2) 0.08478(11) 0.18351(17)
C4 C 0.6199(2) 0.11927(10) 0.09536(17)
C5 C 0.3529(3) 0.06539(10) 0.11833(19)
C6 C 0.2014(2) 0.02993(11) 0.05679(18)
H4 H 0.2074 -0.0265 0.0641
H5 H 0.1908 0.0441 -0.0215
H6 H 0.1071 0.0490 0.0876
C7 C 0.6727(2) 0.18565(11) 0.04404(17)
C8 C 0.8267(3) 0.21415(11) 0.08435(18)
C9 C 0.9294(2) 0.18209(11) 0.17270(17)
C10 C 0.8725(2) 0.11658(11) 0.22307(16)
C11 C 0.9824(2) 0.07724(11) 0.31550(18)
C12 C 1.1336(3) -0.03665(12) 0.36304(19)
H7 H 1.2363 -0.0081 0.3758
H8 H 1.1520 -0.0880 0.3332
H9 H 1.0911 -0.0423 0.4330
C13 C 1.0982(3) 0.21530(12) 0.21113(18)
C14 C 1.0921(3) 0.28052(12) 0.29463(19)
H10 H 1.0225 0.3223 0.2602
H11 H 1.2018 0.3005 0.3183
H12 H 1.0480 0.2607 0.3590
C15 C 1.1804(3) 0.24307(12) 0.11416(18)
H13 H 1.1753 0.2020 0.0585
H14 H 1.2941 0.2557 0.1410
H15 H 1.1244 0.2892 0.0810
C16 C 0.5705(3) 0.22445(11) -0.05386(17)
C17 C 0.6289(3) 0.20247(13) -0.16201(18)
H16 H 0.7405 0.2206 -0.1607
H17 H 0.5585 0.2266 -0.2241
H18 H 0.6253 0.1461 -0.1707
C18 C 0.5671(3) 0.31260(12) -0.0420(2)
H19 H 0.5363 0.3261 0.0298
H20 H 0.4880 0.3345 -0.1013
H21 H 0.6749 0.3337 -0.0468
H22 H 0.868(2) 0.2593(10) 0.0487(14)
H23 H 0.457(3) 0.2049(10) -0.0553(16)
H24 H 1.162(2) 0.1730(10) 0.2471(15)
H25 H 0.443(3) 0.0777(11) -0.0162(19)
loop_
_geom_bond_atom_site_label_1
_geom_bond_atom_site_label_2
_geom_bond_site_symmetry_1
_geom_bond_site_symmetry_2
O1 C1 1_555 1_555
O2 C1 1_555 1_555
O3 C5 1_555 1_555
O4 C11 1_555 1_555
O5 C11 1_555 1_555
N1 C4 1_555 1_555
C1 C3 1_555 1_555
C2 O2 1_555 1_555
H1 C2 1_555 1_555
H2 C2 1_555 1_555
H3 C2 1_555 1_555
C3 C4 1_555 1_555
C4 C7 1_555 1_555
C5 N1 1_555 1_555
C6 C5 1_555 1_555
H4 C6 1_555 1_555
H5 C6 1_555 1_555
H6 C6 1_555 1_555
C7 C8 1_555 1_555
C8 C9 1_555 1_555
C9 C10 1_555 1_555
C10 C3 1_555 1_555
C11 C10 1_555 1_555
C12 O4 1_555 1_555
H7 C12 1_555 1_555
H8 C12 1_555 1_555
H9 C12 1_555 1_555
C13 C9 1_555 1_555
C14 C13 1_555 1_555
H10 C14 1_555 1_555
H11 C14 1_555 1_555
H12 C14 1_555 1_555
C15 C13 1_555 1_555
H13 C15 1_555 1_555
H14 C15 1_555 1_555
H15 C15 1_555 1_555
C16 C7 1_555 1_555
C17 C16 1_555 1_555
H16 C17 1_555 1_555
H17 C17 1_555 1_555
H18 C17 1_555 1_555
C18 C16 1_555 1_555
H19 C18 1_555 1_555
H20 C18 1_555 1_555
H21 C18 1_555 1_555
H22 C8 1_555 1_555
H23 C16 1_555 1_555
H24 C13 1_555 1_555
H25 N1 1_555 1_555

#END
