
#######################################################################
#
#                 Cambridge Crystallographic Data Centre
#                                CCDC 
#
#######################################################################
#
# If this CIF has been generated from an entry in the Cambridge 
# Structural Database, then it will include bibliographic, chemical, 
# crystal, experimental, refinement or atomic coordinate data resulting 
# from the CCDC's data processing and validation procedures.
#
#######################################################################

data_DACXAI
_chemical_formula_moiety         'C16 H14'
_chemical_name_systematic        1,9-Dimethylphenanthrene
_symmetry_cell_setting           orthorhombic
_symmetry_space_group_name_H-M   'P n a 21'
_symmetry_Int_Tables_number      33
_space_group_name_Hall           'P 2c -2n'
loop_
_symmetry_equiv_pos_site_id
_symmetry_equiv_pos_as_xyz
1 x,y,z
2 -x,-y,1/2+z
3 1/2+x,1/2-y,z
4 1/2-x,1/2+y,1/2+z
_cell_length_a                   9.301(4)
_cell_length_b                   18.549(9)
_cell_length_c                   6.560(3)
_cell_angle_alpha                90
_cell_angle_beta                 90
_cell_angle_gamma                90
_cell_volume                     1131.76
_exptl_crystal_colour            colorless
_exptl_crystal_description       plate
_cell_formula_units_Z            4
loop_
_atom_site_label
_atom_site_type_symbol
_atom_site_fract_x
_atom_site_fract_y
_atom_site_fract_z
C1 C 0.33902(18) 0.45164(11) 0.7952(3)
C2 C 0.31469(19) 0.40410(11) 0.9519(3)
H1 H 0.3630 0.3596 0.9526
C3 C 0.2202(2) 0.42030(12) 1.1095(3)
H2 H 0.2052 0.3867 1.2147
C4 C 0.1492(2) 0.48442(12) 1.1126(3)
H3 H 0.0855 0.4946 1.2201
C5 C -0.0084(2) 0.62271(12) 1.1007(3)
H4 H -0.0294 0.5900 1.2060
C6 C -0.0791(2) 0.68714(13) 1.0940(3)
H5 H -0.1497 0.6976 1.1921
C7 C -0.0477(2) 0.73734(12) 0.9438(4)
H6 H -0.0949 0.7822 0.9418
C8 C 0.0524(2) 0.72093(12) 0.7988(3)
H7 H 0.0735 0.7552 0.6975
C9 C 0.22551(19) 0.63598(11) 0.6371(3)
C10 C 0.29056(19) 0.57122(11) 0.6406(3)
H8 H 0.3548 0.5597 0.5348
C11 C 0.26668(17) 0.51900(10) 0.7976(3)
C12 C 0.16990(17) 0.53573(10) 0.9570(3)
C13 C 0.09547(17) 0.60418(11) 0.9530(3)
C14 C 0.12479(18) 0.65458(11) 0.7962(3)
C15 C 0.4418(3) 0.43263(15) 0.6270(4)
C16 C 0.2574(3) 0.68886(14) 0.4704(4)
H9 H 0.397(2) 0.4368(13) 0.487(4)
H10 H 0.474(2) 0.3860(18) 0.648(3)
H11 H 0.536(3) 0.4635(15) 0.619(4)
H12 H 0.170(3) 0.7015(13) 0.395(4)
H13 H 0.302(2) 0.7348(16) 0.531(3)
H14 H 0.324(3) 0.6709(16) 0.379(4)
loop_
_geom_bond_atom_site_label_1
_geom_bond_atom_site_label_2
_geom_bond_site_symmetry_1
_geom_bond_site_symmetry_2
C1 C2 1_555 1_555
C2 H1 1_555 1_555
C3 C2 1_555 1_555
H2 C3 1_555 1_555
C4 C3 1_555 1_555
H3 C4 1_555 1_555
C5 H4 1_555 1_555
C6 C5 1_555 1_555
H5 C6 1_555 1_555
C7 C6 1_555 1_555
H6 C7 1_555 1_555
C8 C7 1_555 1_555
H7 C8 1_555 1_555
C9 C10 1_555 1_555
C10 H8 1_555 1_555
C11 C1 1_555 1_555
C12 C4 1_555 1_555
C13 C5 1_555 1_555
C14 C8 1_555 1_555
C15 C1 1_555 1_555
C16 C9 1_555 1_555
H9 C15 1_555 1_555
H10 C15 1_555 1_555
H11 C15 1_555 1_555
H12 C16 1_555 1_555
H13 C16 1_555 1_555
H14 C16 1_555 1_555
C9 C14 1_555 1_555
C10 C11 1_555 1_555
C11 C12 1_555 1_555
C12 C13 1_555 1_555
C13 C14 1_555 1_555

#END
