
#######################################################################
#
#                 Cambridge Crystallographic Data Centre
#                                CCDC 
#
#######################################################################
#
# If this CIF has been generated from an entry in the Cambridge 
# Structural Database, then it will include bibliographic, chemical, 
# crystal, experimental, refinement or atomic coordinate data resulting 
# from the CCDC's data processing and validation procedures.
#
#######################################################################

data_DACZIT
_chemical_formula_moiety         'C15 H14 N2 O3'
_chemical_name_systematic        
(S)-4-nitro-3-phenyl-1-(pyridin-2-yl)butan-1-one
_symmetry_cell_setting           monoclinic
_symmetry_space_group_name_H-M   'P 21'
_symmetry_Int_Tables_number      4
_space_group_name_Hall           'P 2yb'
loop_
_symmetry_equiv_pos_site_id
_symmetry_equiv_pos_as_xyz
1 x,y,z
2 -x,1/2+y,-z
_cell_length_a                   5.99140(10)
_cell_length_b                   23.6681(6)
_cell_length_c                   9.8280(2)
_cell_angle_alpha                90
_cell_angle_beta                 95.615(2)
_cell_angle_gamma                90
_cell_volume                     1386.97
_exptl_crystal_description       block
_chemical_melting_point          '72-74 deg.C'
_cell_formula_units_Z            4
loop_
_atom_site_label
_atom_site_type_symbol
_atom_site_fract_x
_atom_site_fract_y
_atom_site_fract_z
N1 N 1.3597(5) 0.48232(13) 1.4252(3)
O1 O 1.6346(4) 0.40906(11) 1.1790(2)
N2 N 0.9667(5) 0.27221(11) 1.0400(3)
C1 C 1.1916(5) 0.37594(12) 0.9799(3)
C2 C 1.0027(5) 0.40760(13) 0.9398(3)
H1 H 0.8988 0.4146 1.0021
O2 O 0.7744(4) 0.27288(13) 0.9883(3)
O3 O 1.1068(5) 0.24077(12) 1.0034(3)
C3 C 0.9650(6) 0.42906(14) 0.8089(3)
H2 H 0.8356 0.4497 0.7835
C4 C 1.4875(4) 0.42247(12) 1.2488(3)
C5 C 1.2297(5) 0.35000(12) 1.1216(3)
H3 H 1.3639 0.3262 1.1250
C6 C 1.0308(5) 0.31289(13) 1.1532(3)
H4 H 1.0706 0.2921 1.2372
H5 H 0.9035 0.3368 1.1669
C7 C 1.3451(5) 0.36698(15) 0.8845(3)
H6 H 1.4737 0.3458 0.9086
C8 C 1.5278(5) 0.46912(12) 1.3519(3)
C9 C 1.2635(5) 0.39369(13) 1.2373(3)
H7 H 1.1473 0.4222 1.2229
H8 H 1.2449 0.3750 1.3232
C10 C 1.1193(6) 0.41992(14) 0.7156(3)
H9 H 1.0950 0.4345 0.6275
C11 C 1.7306(5) 0.49691(16) 1.3650(4)
H10 H 1.8451 0.4864 1.3128
C12 C 1.5912(7) 0.55437(16) 1.5335(4)
H11 H 1.6074 0.5837 1.5967
C13 C 1.3079(6) 0.38925(16) 0.7544(3)
H12 H 1.4129 0.3833 0.6922
C14 C 1.3972(7) 0.52422(17) 1.5156(4)
H13 H 1.2836 0.5334 1.5698
C15 C 1.7595(7) 0.54087(19) 1.4578(5)
H14 H 1.8936 0.5609 1.4679
N3 N 0.6788(4) 0.08230(11) 0.8712(3)
C16 C 0.4883(5) 0.11172(12) 0.8506(3)
C17 C 0.5246(6) 0.21332(15) 0.3693(3)
H15 H 0.3977 0.2329 0.3899
O4 O 0.3084(4) 0.17688(11) 0.6977(3)
C18 C 0.8807(6) 0.27194(13) 0.6468(3)
H16 H 0.8604 0.2902 0.7331
H17 H 1.0236 0.2523 0.6564
N4 N 0.8807(7) 0.31518(13) 0.5370(3)
C19 C 0.8868(5) 0.17638(14) 0.4340(3)
H18 H 1.0079 0.1708 0.4993
C20 C 0.6994(5) 0.20546(11) 0.4692(3)
C21 C 0.6906(5) 0.22948(12) 0.6111(3)
H19 H 0.5475 0.2493 0.6136
C22 C 0.3015(6) 0.10096(17) 0.9185(4)
H20 H 0.1718 0.1225 0.9019
O5 O 0.7146(7) 0.34410(13) 0.5129(4)
O6 O 1.0486(7) 0.31861(15) 0.4785(3)
C23 C 0.4854(4) 0.15933(12) 0.7499(3)
C24 C 0.7059(4) 0.18368(13) 0.7224(3)
H21 H 0.8012 0.1534 0.6952
H22 H 0.7771 0.1998 0.8065
C25 C 0.3139(7) 0.05687(19) 1.0127(4)
H23 H 0.1935 0.0490 1.0626
C26 C 0.6793(6) 0.03928(15) 0.9592(4)
H24 H 0.8083 0.0173 0.9723
C27 C 0.8957(7) 0.15563(17) 0.3028(4)
H25 H 1.0220 0.1363 0.2802
C28 C 0.5048(7) 0.02539(16) 1.0306(4)
H26 H 0.5153 -0.0051 1.0907
C29 C 0.5352(7) 0.19251(19) 0.2392(4)
H27 H 0.4156 0.1982 0.1730
C30 C 0.7182(7) 0.16377(16) 0.2068(3)
H28 H 0.7228 0.1496 0.1189
loop_
_geom_bond_atom_site_label_1
_geom_bond_atom_site_label_2
_geom_bond_site_symmetry_1
_geom_bond_site_symmetry_2
N1 C8 1_555 1_555
O1 C4 1_555 1_555
N2 O2 1_555 1_555
C1 C2 1_555 1_555
C2 H1 1_555 1_555
O3 N2 1_555 1_555
C3 C2 1_555 1_555
H2 C3 1_555 1_555
C4 C8 1_555 1_555
C5 C1 1_555 1_555
H3 C5 1_555 1_555
C6 N2 1_555 1_555
H4 C6 1_555 1_555
H5 C6 1_555 1_555
C7 C1 1_555 1_555
H6 C7 1_555 1_555
C8 C11 1_555 1_555
C9 C4 1_555 1_555
H7 C9 1_555 1_555
H8 C9 1_555 1_555
C10 C3 1_555 1_555
H9 C10 1_555 1_555
C11 H10 1_555 1_555
C12 H11 1_555 1_555
C13 C7 1_555 1_555
H12 C13 1_555 1_555
C14 N1 1_555 1_555
H13 C14 1_555 1_555
C15 C11 1_555 1_555
H14 C15 1_555 1_555
N3 C16 1_555 1_555
C16 C22 1_555 1_555
C17 H15 1_555 1_555
O4 C23 1_555 1_555
C18 H16 1_555 1_555
H17 C18 1_555 1_555
N4 C18 1_555 1_555
C19 H18 1_555 1_555
C20 C17 1_555 1_555
C21 C18 1_555 1_555
H19 C21 1_555 1_555
C22 H20 1_555 1_555
O5 N4 1_555 1_555
O6 N4 1_555 1_555
C23 C16 1_555 1_555
C24 C21 1_555 1_555
H21 C24 1_555 1_555
H22 C24 1_555 1_555
C25 C22 1_555 1_555
H23 C25 1_555 1_555
C26 N3 1_555 1_555
H24 C26 1_555 1_555
C27 C19 1_555 1_555
H25 C27 1_555 1_555
C28 C25 1_555 1_555
H26 C28 1_555 1_555
C29 C17 1_555 1_555
H27 C29 1_555 1_555
C30 C27 1_555 1_555
H28 C30 1_555 1_555
C5 C6 1_555 1_555
C5 C9 1_555 1_555
C10 C13 1_555 1_555
C12 C14 1_555 1_555
C12 C15 1_555 1_555
C19 C20 1_555 1_555
C20 C21 1_555 1_555
C23 C24 1_555 1_555
C26 C28 1_555 1_555
C29 C30 1_555 1_555

#END
