
#######################################################################
#
#                 Cambridge Crystallographic Data Centre
#                                CCDC 
#
#######################################################################
#
# If this CIF has been generated from an entry in the Cambridge 
# Structural Database, then it will include bibliographic, chemical, 
# crystal, experimental, refinement or atomic coordinate data resulting 
# from the CCDC's data processing and validation procedures.
#
#######################################################################

data_DACZAL
_chemical_compound_source        'tunicate Pseudodistoma antinboja'
_chemical_name_common            'cadiolide H'
_chemical_formula_moiety         'C26 H18 Br4 O6'
_chemical_name_systematic        
(S,Z)-4-(3,5-dibromo-4-methoxyphenyl)-3-((3,5-dibromo-4-methoxyphenyl)(hydroxy)methyl)-5-(4-methoxybenzylidene)furan-2(5H)-one
_chemical_properties_biological  'antibacterial activity'
_symmetry_cell_setting           triclinic
_symmetry_space_group_name_H-M   'P 1'
_symmetry_Int_Tables_number      1
_space_group_name_Hall           'P 1'
loop_
_symmetry_equiv_pos_site_id
_symmetry_equiv_pos_as_xyz
1 x,y,z
_cell_length_a                   8.7126(3)
_cell_length_b                   10.8944(4)
_cell_length_c                   14.0607(4)
_cell_angle_alpha                107.549(2)
_cell_angle_beta                 94.993(2)
_cell_angle_gamma                93.599(2)
_cell_volume                     1262.1
_exptl_crystal_colour            yellow
_exptl_crystal_description       plate
_cell_formula_units_Z            2
_exptl_crystal_recrystallization_method methanol
loop_
_atom_site_label
_atom_site_type_symbol
_atom_site_fract_x
_atom_site_fract_y
_atom_site_fract_z
O1 O 0.6245(3) -0.0690(2) 0.3813(2)
O2 O 0.5015(4) -0.2250(2) 0.2490(2)
O3 O 0.2534(3) -0.1104(2) 0.1579(2)
H1 H 0.2795 -0.1848 0.1482
O4 O 0.4176(3) 0.6146(2) 0.3579(2)
H2 H 0.4903 0.6527 0.3404
O5 O 1.1454(4) 0.0127(3) 0.7689(2)
O6 O 0.1924(4) 0.4038(3) 0.0483(2)
C1 C 0.5305(5) -0.1112(3) 0.2920(3)
C2 C 0.4796(5) 0.0018(3) 0.2660(3)
C3 C 0.5400(5) 0.1075(3) 0.3400(3)
C4 C 0.6330(5) 0.0658(3) 0.4137(3)
C5 C 0.7165(5) 0.1383(3) 0.4987(3)
H3 H 0.7067 0.2275 0.5148
C6 C 0.3844(5) -0.0250(3) 0.1655(3)
H4 H 0.4491 -0.0687 0.1132
C7 C 0.5182(5) 0.2451(3) 0.3531(3)
C8 C 0.3705(5) 0.2844(3) 0.3655(3)
H5 H 0.2903 0.2261 0.3713
C9 C 0.3415(4) 0.4085(3) 0.3692(3)
C10 C 0.4552(5) 0.4973(3) 0.3585(3)
C11 C 0.6046(5) 0.4572(3) 0.3509(3)
C12 C 0.6366(5) 0.3335(3) 0.3475(3)
H6 H 0.7378 0.3091 0.3414
C13 C 0.8200(5) 0.1014(3) 0.5704(3)
C14 C 0.8928(5) 0.1981(4) 0.6525(3)
H7 H 0.8686 0.2835 0.6620
C15 C 1.0026(5) 0.1734(4) 0.7229(3)
H8 H 1.0495 0.2408 0.7789
C16 C 1.0390(5) 0.0488(4) 0.7076(3)
C17 C 0.9653(5) -0.0518(4) 0.6257(3)
H9 H 0.9897 -0.1371 0.6166
C18 C 0.8572(5) -0.0262(3) 0.5586(3)
H10 H 0.8075 -0.0945 0.5043
C19 C 1.2005(6) 0.1065(5) 0.8632(4)
H11 H 1.2552 0.1802 0.8518
H12 H 1.2702 0.0684 0.9015
H13 H 1.1136 0.1346 0.9003
C20 C 0.3321(5) 0.0936(3) 0.1406(3)
C21 C 0.1785(5) 0.1168(4) 0.1352(3)
H14 H 0.1045 0.0610 0.1503
C22 C 0.1323(5) 0.2214(4) 0.1077(3)
C23 C 0.2375(6) 0.3081(4) 0.0863(3)
C24 C 0.3922(5) 0.2846(4) 0.0955(3)
C25 C 0.4400(5) 0.1783(3) 0.1199(3)
H15 H 0.5452 0.1635 0.1226
C26 C 0.1705(7) 0.5241(4) 0.1207(4)
H16 H 0.0982 0.5090 0.1655
H17 H 0.1295 0.5821 0.0864
H18 H 0.2689 0.5628 0.1591
Br1 Br 0.13803(5) 0.45736(4) 0.38355(3)
Br2 Br 0.76438(5) 0.57830(4) 0.34280(3)
Br3 Br -0.08082(6) 0.24401(6) 0.08975(5)
Br4 Br 0.54324(6) 0.40063(4) 0.06992(4)
O7 O 0.3747(3) 1.0669(2) 0.6144(2)
O8 O 0.5064(4) 1.2237(2) 0.7435(2)
O9 O 0.5951(3) 1.1109(2) 0.8996(2)
H19 H 0.5115 1.0792 0.9101
O10 O 0.5835(4) 0.3843(2) 0.6366(3)
H20 H 0.5180 0.3511 0.6632
O11 O -0.1410(4) 0.9903(3) 0.2255(2)
O12 O 0.7970(4) 0.5973(3) 0.9497(2)
C27 C 0.4766(5) 1.1099(3) 0.7000(3)
C28 C 0.5344(5) 0.9982(3) 0.7240(3)
C29 C 0.4644(5) 0.8912(3) 0.6514(3)
C30 C 0.3643(5) 0.9317(3) 0.5813(3)
C31 C 0.2776(5) 0.8601(3) 0.4983(3)
H21 H 0.2844 0.7705 0.4828
C32 C 0.6513(5) 1.0228(3) 0.8152(3)
H22 H 0.7490 1.0632 0.8022
C33 C 0.4873(5) 0.7535(3) 0.6392(3)
C34 C 0.6331(5) 0.7122(3) 0.6243(3)
H23 H 0.7128 0.7683 0.6150
C35 C 0.6609(4) 0.5884(3) 0.6230(3)
C36 C 0.5446(5) 0.5013(3) 0.6353(3)
C37 C 0.3985(5) 0.5430(3) 0.6450(3)
C38 C 0.3674(5) 0.6684(3) 0.6484(3)
H24 H 0.2674 0.6949 0.6566
C39 C 0.1735(5) 0.8983(3) 0.4272(3)
C40 C 0.0944(5) 0.7999(4) 0.3471(3)
H25 H 0.1142 0.7138 0.3394
C41 C -0.0130(5) 0.8254(4) 0.2783(3)
H26 H -0.0665 0.7575 0.2254
C42 C -0.0401(5) 0.9533(4) 0.2890(3)
C43 C 0.0360(5) 1.0514(4) 0.3685(3)
H27 H 0.0154 1.1374 0.3763
C44 C 0.1427(5) 1.0254(3) 0.4372(3)
H28 H 0.1944 1.0936 0.4907
C45 C -0.1898(6) 0.8968(5) 0.1297(4)
H29 H -0.1001 0.8610 0.0995
H30 H -0.2446 0.9381 0.0865
H31 H -0.2580 0.8280 0.1383
C46 C 0.6871(5) 0.9046(4) 0.8459(3)
C47 C 0.8384(5) 0.8717(4) 0.8499(3)
H32 H 0.9171 0.9202 0.8315
C48 C 0.8719(5) 0.7661(4) 0.8815(3)
C49 C 0.7596(5) 0.6929(4) 0.9090(3)
C50 C 0.6078(5) 0.7271(4) 0.9033(3)
C51 C 0.5719(5) 0.8332(4) 0.8732(3)
H33 H 0.4698 0.8563 0.8714
C52 C 0.8069(7) 0.4733(4) 0.8805(4)
H34 H 0.7048 0.4374 0.8468
H35 H 0.8478 0.4167 0.9161
H36 H 0.8751 0.4811 0.8312
Br5 Br 0.86332(5) 0.53742(4) 0.60852(3)
Br6 Br 0.23818(5) 0.42427(4) 0.65659(4)
Br7 Br 1.08064(5) 0.72858(5) 0.89319(4)
Br8 Br 0.45165(5) 0.63071(5) 0.94128(4)
loop_
_geom_bond_atom_site_label_1
_geom_bond_atom_site_label_2
_geom_bond_site_symmetry_1
_geom_bond_site_symmetry_2
O1 C1 1_555 1_555
O2 C1 1_555 1_555
O3 H1 1_555 1_555
O4 H2 1_555 1_555
O5 C16 1_555 1_555
O6 C23 1_555 1_555
C1 C2 1_555 1_555
C2 C3 1_555 1_555
C3 C4 1_555 1_555
C4 O1 1_555 1_555
C5 C4 1_555 1_555
H3 C5 1_555 1_555
C6 O3 1_555 1_555
H4 C6 1_555 1_555
C7 C3 1_555 1_555
C8 C7 1_555 1_555
H5 C8 1_555 1_555
C9 C8 1_555 1_555
C10 O4 1_555 1_555
C11 C10 1_555 1_555
C12 C7 1_555 1_555
H6 C12 1_555 1_555
C13 C5 1_555 1_555
C14 C13 1_555 1_555
H7 C14 1_555 1_555
C15 C14 1_555 1_555
H8 C15 1_555 1_555
C16 C15 1_555 1_555
C17 C16 1_555 1_555
H9 C17 1_555 1_555
C18 C13 1_555 1_555
H10 C18 1_555 1_555
C19 O5 1_555 1_555
H11 C19 1_555 1_555
H12 C19 1_555 1_555
H13 C19 1_555 1_555
C20 C6 1_555 1_555
C21 C20 1_555 1_555
H14 C21 1_555 1_555
C22 C21 1_555 1_555
C23 C22 1_555 1_555
C24 C23 1_555 1_555
C25 C20 1_555 1_555
H15 C25 1_555 1_555
C26 O6 1_555 1_555
H16 C26 1_555 1_555
H17 C26 1_555 1_555
H18 C26 1_555 1_555
Br1 C9 1_555 1_555
Br2 C11 1_555 1_555
Br3 C22 1_555 1_555
Br4 C24 1_555 1_555
O7 C27 1_555 1_555
O8 C27 1_555 1_555
O9 H19 1_555 1_555
O10 H20 1_555 1_555
O11 C42 1_555 1_555
O12 C49 1_555 1_555
C27 C28 1_555 1_555
C28 C29 1_555 1_555
C29 C30 1_555 1_555
C30 O7 1_555 1_555
C31 C30 1_555 1_555
H21 C31 1_555 1_555
C32 O9 1_555 1_555
H22 C32 1_555 1_555
C33 C29 1_555 1_555
C34 C33 1_555 1_555
H23 C34 1_555 1_555
C35 C34 1_555 1_555
C36 O10 1_555 1_555
C37 C36 1_555 1_555
C38 C33 1_555 1_555
H24 C38 1_555 1_555
C39 C31 1_555 1_555
C40 C39 1_555 1_555
H25 C40 1_555 1_555
C41 C40 1_555 1_555
H26 C41 1_555 1_555
C42 C41 1_555 1_555
C43 C42 1_555 1_555
H27 C43 1_555 1_555
C44 C39 1_555 1_555
H28 C44 1_555 1_555
C45 O11 1_555 1_555
H29 C45 1_555 1_555
H30 C45 1_555 1_555
H31 C45 1_555 1_555
C46 C32 1_555 1_555
C47 C46 1_555 1_555
H32 C47 1_555 1_555
C48 C47 1_555 1_555
C49 C48 1_555 1_555
C50 C49 1_555 1_555
C51 C46 1_555 1_555
H33 C51 1_555 1_555
C52 O12 1_555 1_555
H34 C52 1_555 1_555
H35 C52 1_555 1_555
H36 C52 1_555 1_555
Br5 C35 1_555 1_555
Br6 C37 1_555 1_555
Br7 C48 1_555 1_555
Br8 C50 1_555 1_555
C2 C6 1_555 1_555
C9 C10 1_555 1_555
C11 C12 1_555 1_555
C17 C18 1_555 1_555
C24 C25 1_555 1_555
C28 C32 1_555 1_555
C35 C36 1_555 1_555
C37 C38 1_555 1_555
C43 C44 1_555 1_555
C50 C51 1_555 1_555

#END
