
#######################################################################
#
#                 Cambridge Crystallographic Data Centre
#                                CCDC 
#
#######################################################################
#
# If this CIF has been generated from an entry in the Cambridge 
# Structural Database, then it will include bibliographic, chemical, 
# crystal, experimental, refinement or atomic coordinate data resulting 
# from the CCDC's data processing and validation procedures.
#
#######################################################################

data_DACZUE
_chemical_formula_moiety         'C33 H24 O1'
_chemical_name_systematic        
3-(3-Benzylidene-2,5-diphenylcyclopenta-1,4-dien-1-yl)-1-phenylprop-2-en-1-one
_symmetry_cell_setting           triclinic
_symmetry_space_group_name_H-M   'P -1'
_symmetry_Int_Tables_number      2
_space_group_name_Hall           '-P 1'
loop_
_symmetry_equiv_pos_site_id
_symmetry_equiv_pos_as_xyz
1 x,y,z
2 -x,-y,-z
_cell_length_a                   10.2048(15)
_cell_length_b                   10.4242(16)
_cell_length_c                   12.0507(18)
_cell_angle_alpha                76.208(3)
_cell_angle_beta                 72.247(3)
_cell_angle_gamma                89.803(3)
_cell_volume                     1182.34
_exptl_crystal_colour            red
_exptl_crystal_description       prismatic
_cell_formula_units_Z            2
loop_
_atom_site_label
_atom_site_type_symbol
_atom_site_fract_x
_atom_site_fract_y
_atom_site_fract_z
O1 O 0.36814(13) 0.57329(15) 0.27807(13)
C1 C -0.09392(19) 0.25264(19) 0.49305(17)
C2 C -0.15533(19) 0.14395(19) 0.57886(16)
H1 H -0.2454 0.1106 0.5950
C3 C -0.06202(19) 0.08592(19) 0.64281(17)
C4 C 0.06594(18) 0.17338(18) 0.58882(16)
C5 C 0.04761(18) 0.27445(19) 0.49874(16)
C6 C 0.15219(19) 0.37867(19) 0.42375(16)
H2 H 0.2418 0.3649 0.4252
C7 C 0.13468(19) 0.49254(19) 0.35268(17)
H3 H 0.0455 0.5141 0.3550
C8 C 0.25113(19) 0.58464(19) 0.27116(17)
C9 C 0.2252(2) 0.6937(2) 0.17650(17)
C10 C 0.1060(2) 0.6973(2) 0.1475(2)
H4 H 0.0353 0.6314 0.1901
C11 C 0.0883(3) 0.7976(3) 0.0555(2)
H5 H 0.0059 0.7994 0.0375
C12 C 0.1920(3) 0.8936(3) -0.0085(2)
H6 H 0.1817 0.9594 -0.0719
C13 C 0.3100(3) 0.8927(3) 0.0205(2)
H7 H 0.3797 0.9596 -0.0217
C14 C 0.3276(2) 0.7934(2) 0.1119(2)
H8 H 0.4097 0.7936 0.1305
C15 C -0.1594(2) 0.32363(19) 0.40444(18)
C16 C -0.2947(2) 0.3559(2) 0.4436(2)
H9 H -0.3395 0.3419 0.5257
C17 C -0.3640(3) 0.4082(2) 0.3640(3)
H10 H -0.4548 0.4292 0.3924
C18 C -0.2999(3) 0.4295(3) 0.2431(3)
H11 H -0.3470 0.4650 0.1892
C19 C -0.1653(3) 0.3985(3) 0.2010(2)
H12 H -0.1217 0.4125 0.1187
C20 C -0.0945(2) 0.3462(2) 0.28167(19)
H13 H -0.0033 0.3263 0.2531
C21 C -0.0830(2) -0.0234(2) 0.73475(17)
H14 H -0.0119 -0.0383 0.7685
C22 C -0.2005(2) -0.12127(19) 0.78863(18)
C23 C -0.2258(3) -0.1959(3) 0.9058(2)
H15 H -0.1681 -0.1814 0.9490
C24 C -0.3344(3) -0.2912(3) 0.9599(2)
H16 H -0.3503 -0.3389 1.0391
C25 C -0.4185(3) -0.3155(3) 0.8977(3)
H17 H -0.4922 -0.3793 0.9344
C26 C -0.3946(2) -0.2460(2) 0.7814(2)
H18 H -0.4513 -0.2635 0.7384
C27 C -0.2871(2) -0.1502(2) 0.72741(19)
H19 H -0.2721 -0.1037 0.6480
C28 C 0.19091(18) 0.15035(19) 0.62529(16)
C29 C 0.2550(2) 0.2473(2) 0.65663(18)
H20 H 0.2189 0.3296 0.6540
C30 C 0.3714(2) 0.2233(3) 0.69153(19)
H21 H 0.4129 0.2892 0.7125
C31 C 0.4261(2) 0.1032(3) 0.6955(2)
H22 H 0.5041 0.0870 0.7197
C32 C 0.3652(2) 0.0060(2) 0.6634(2)
H23 H 0.4028 -0.0755 0.6651
C33 C 0.2492(2) 0.0294(2) 0.62899(17)
H24 H 0.2088 -0.0369 0.6077
loop_
_geom_bond_atom_site_label_1
_geom_bond_atom_site_label_2
_geom_bond_site_symmetry_1
_geom_bond_site_symmetry_2
O1 C8 1_555 1_555
C1 C2 1_555 1_555
C2 H1 1_555 1_555
C3 C2 1_555 1_555
C4 C3 1_555 1_555
C5 C1 1_555 1_555
C6 C5 1_555 1_555
H2 C6 1_555 1_555
C7 C6 1_555 1_555
H3 C7 1_555 1_555
C8 C7 1_555 1_555
C9 C8 1_555 1_555
C10 C9 1_555 1_555
H4 C10 1_555 1_555
C11 C10 1_555 1_555
H5 C11 1_555 1_555
C12 C11 1_555 1_555
H6 C12 1_555 1_555
C13 C12 1_555 1_555
H7 C13 1_555 1_555
C14 C9 1_555 1_555
H8 C14 1_555 1_555
C15 C1 1_555 1_555
C16 C15 1_555 1_555
H9 C16 1_555 1_555
C17 C16 1_555 1_555
H10 C17 1_555 1_555
C18 C17 1_555 1_555
H11 C18 1_555 1_555
C19 C18 1_555 1_555
H12 C19 1_555 1_555
C20 C15 1_555 1_555
H13 C20 1_555 1_555
C21 C3 1_555 1_555
H14 C21 1_555 1_555
C22 C21 1_555 1_555
C23 C22 1_555 1_555
H15 C23 1_555 1_555
C24 C23 1_555 1_555
H16 C24 1_555 1_555
C25 C24 1_555 1_555
H17 C25 1_555 1_555
C26 C25 1_555 1_555
H18 C26 1_555 1_555
C27 C22 1_555 1_555
H19 C27 1_555 1_555
C28 C4 1_555 1_555
C29 C28 1_555 1_555
H20 C29 1_555 1_555
C30 C29 1_555 1_555
H21 C30 1_555 1_555
C31 C30 1_555 1_555
H22 C31 1_555 1_555
C32 C31 1_555 1_555
H23 C32 1_555 1_555
C33 C28 1_555 1_555
H24 C33 1_555 1_555
C4 C5 1_555 1_555
C13 C14 1_555 1_555
C19 C20 1_555 1_555
C26 C27 1_555 1_555
C32 C33 1_555 1_555

#END
