
#######################################################################
#
#                 Cambridge Crystallographic Data Centre
#                                CCDC 
#
#######################################################################
#
# If this CIF has been generated from an entry in the Cambridge 
# Structural Database, then it will include bibliographic, chemical, 
# crystal, experimental, refinement or atomic coordinate data resulting 
# from the CCDC's data processing and validation procedures.
#
#######################################################################

data_DACZEO
_chemical_formula_moiety         'C23 H27 N1 O3'
_chemical_name_systematic        
3-(2,2-Dimethylcyclopentyl)-4-hydroxy-N-(2-hydroxy-2,3-dihydro-1H-inden-1-yl)benzamide
_symmetry_cell_setting           orthorhombic
_symmetry_space_group_name_H-M   'P 21 21 21'
_symmetry_Int_Tables_number      19
_space_group_name_Hall           'P 2ac 2ab'
loop_
_symmetry_equiv_pos_site_id
_symmetry_equiv_pos_as_xyz
1 x,y,z
2 1/2+x,1/2-y,-z
3 -x,1/2+y,1/2-z
4 1/2-x,-y,1/2+z
_cell_length_a                   7.24080(10)
_cell_length_b                   8.32250(10)
_cell_length_c                   34.4966(5)
_cell_angle_alpha                90
_cell_angle_beta                 90
_cell_angle_gamma                90
_cell_volume                     2078.82
_exptl_crystal_colour            colorless
_exptl_crystal_description       'needle plate'
_cell_formula_units_Z            4
loop_
_atom_site_label
_atom_site_type_symbol
_atom_site_fract_x
_atom_site_fract_y
_atom_site_fract_z
O1 O 0.53548(15) 0.57692(13) 0.12710(4)
O2 O 0.64965(18) 1.31161(13) 0.08979(4)
H1 H 0.5965 1.3812 0.1035
O3 O -0.10722(17) 0.63897(15) 0.15260(4)
H2 H -0.2150 0.6404 0.1436
N1 N 0.24854(18) 0.66169(17) 0.14116(4)
H3 H 0.1712 0.7432 0.1417
C1 C 0.4211(2) 0.68792(18) 0.12989(4)
C2 C 0.4752(2) 0.85602(19) 0.12061(4)
C3 C 0.5882(2) 0.88126(18) 0.08841(4)
H4 H 0.6270 0.7910 0.0736
C4 C 0.6459(2) 1.03256(19) 0.07719(4)
C5 C 0.5928(2) 1.16341(19) 0.10069(4)
C6 C 0.4854(2) 1.13862(19) 0.13367(5)
H5 H 0.4548 1.2272 0.1498
C7 C 0.4228(2) 0.9870(2) 0.14322(4)
H6 H 0.3445 0.9721 0.1650
C8 C 0.7586(2) 1.05979(19) 0.04095(4)
H7 H 0.7468 1.1764 0.0344
C9 C 0.9698(2) 1.0233(2) 0.04376(5)
C10 C 1.0234(3) 1.0344(3) 0.00051(5)
H8 H 1.0445 1.1477 -0.0070
H9 H 1.1377 0.9725 -0.0045
C11 C 0.8622(3) 0.9639(3) -0.02229(5)
H10 H 0.8904 0.8527 -0.0305
H11 H 0.8369 1.0295 -0.0457
C12 C 0.6954(3) 0.9659(2) 0.00504(5)
H12 H 0.6591 0.8551 0.0122
H13 H 0.5888 1.0196 -0.0074
C13 C 1.0087(3) 0.8549(3) 0.05940(6)
H14 H 1.1420 0.8348 0.0590
H15 H 0.9457 0.7753 0.0432
H16 H 0.9633 0.8468 0.0861
C14 C 1.0704(3) 1.1468(3) 0.06834(6)
H17 H 1.0251 1.1413 0.0951
H18 H 1.0478 1.2545 0.0579
H19 H 1.2032 1.1242 0.0679
C15 C 0.1821(2) 0.5046(2) 0.15254(5)
H20 H 0.2484 0.4213 0.1370
C16 C -0.0268(2) 0.4860(2) 0.14579(5)
H21 H -0.0537 0.4469 0.1190
C17 C -0.0857(3) 0.3622(3) 0.17644(8)
H22 H -0.2122 0.3845 0.1859
H23 H -0.0813 0.2518 0.1658
C18 C 0.0534(4) 0.3835(3) 0.20821(8)
C19 C 0.0493(5) 0.3350(5) 0.24682(10)
H24 H -0.0526 0.2754 0.2565
C20 C 0.1949(7) 0.3742(7) 0.27076(10)
H25 H 0.1911 0.3435 0.2973
C21 C 0.3441(6) 0.4564(6) 0.25714(9)
H26 H 0.4436 0.4804 0.2741
C22 C 0.3524(4) 0.5049(4) 0.21897(7)
H27 H 0.4559 0.5629 0.2094
C23 C 0.2062(3) 0.4669(2) 0.19500(6)
loop_
_geom_bond_atom_site_label_1
_geom_bond_atom_site_label_2
_geom_bond_site_symmetry_1
_geom_bond_site_symmetry_2
O1 C1 1_555 1_555
O2 H1 1_555 1_555
O3 H2 1_555 1_555
N1 H3 1_555 1_555
C1 N1 1_555 1_555
C2 C1 1_555 1_555
C3 C2 1_555 1_555
H4 C3 1_555 1_555
C4 C3 1_555 1_555
C5 O2 1_555 1_555
C6 C5 1_555 1_555
H5 C6 1_555 1_555
C7 C2 1_555 1_555
H6 C7 1_555 1_555
C8 C4 1_555 1_555
H7 C8 1_555 1_555
C9 C8 1_555 1_555
C10 C9 1_555 1_555
H8 C10 1_555 1_555
H9 C10 1_555 1_555
C11 C10 1_555 1_555
H10 C11 1_555 1_555
H11 C11 1_555 1_555
C12 C8 1_555 1_555
H12 C12 1_555 1_555
H13 C12 1_555 1_555
C13 C9 1_555 1_555
H14 C13 1_555 1_555
H15 C13 1_555 1_555
H16 C13 1_555 1_555
C14 C9 1_555 1_555
H17 C14 1_555 1_555
H18 C14 1_555 1_555
H19 C14 1_555 1_555
C15 N1 1_555 1_555
H20 C15 1_555 1_555
C16 O3 1_555 1_555
H21 C16 1_555 1_555
C17 C16 1_555 1_555
H22 C17 1_555 1_555
H23 C17 1_555 1_555
C18 C17 1_555 1_555
C19 C18 1_555 1_555
H24 C19 1_555 1_555
C20 C19 1_555 1_555
H25 C20 1_555 1_555
C21 C20 1_555 1_555
H26 C21 1_555 1_555
C22 C21 1_555 1_555
H27 C22 1_555 1_555
C23 C15 1_555 1_555
C4 C5 1_555 1_555
C6 C7 1_555 1_555
C11 C12 1_555 1_555
C15 C16 1_555 1_555
C18 C23 1_555 1_555
C22 C23 1_555 1_555

#END
