
#######################################################################
#
#                 Cambridge Crystallographic Data Centre
#                                CCDC 
#
#######################################################################
#
# If this CIF has been generated from an entry in the Cambridge 
# Structural Database, then it will include bibliographic, chemical, 
# crystal, experimental, refinement or atomic coordinate data resulting 
# from the CCDC's data processing and validation procedures.
#
#######################################################################

data_DADBAO
_chemical_name_common            
'lup-20(29)-ene-3beta,28-diol pyridine solvate monohydrate'
_chemical_formula_moiety         'C30 H50 O2,C5 H5 N1,H2 O1'
_chemical_name_systematic        'Betulin pyridine solvate monohydrate'
_chemical_properties_biological  
'Betulin has been shown to possess anti-HIV and anticancer activities'
_symmetry_cell_setting           monoclinic
_symmetry_space_group_name_H-M   'P 21'
_symmetry_Int_Tables_number      4
_space_group_name_Hall           'P 2yb'
loop_
_symmetry_equiv_pos_site_id
_symmetry_equiv_pos_as_xyz
1 x,y,z
2 -x,1/2+y,-z
_cell_length_a                   6.959(3)
_cell_length_b                   12.085(7)
_cell_length_c                   18.599(7)
_cell_angle_alpha                90
_cell_angle_beta                 100.093(8)
_cell_angle_gamma                90
_cell_volume                     1539.96
_exptl_crystal_colour            colorless
_exptl_crystal_description       Prism
_cell_formula_units_Z            2
_exptl_crystal_recrystallization_method pyridine
loop_
_atom_site_label
_atom_site_type_symbol
_atom_site_fract_x
_atom_site_fract_y
_atom_site_fract_z
O1 O 0.3431(3) 0.31413(18) 0.29021(9)
H1 H 0.2512 0.3434 0.3051
O2 O -0.0280(3) -0.07235(17) -0.33246(11)
H2 H 0.0439 -0.1161 -0.3486
C1 C 0.3347(4) 0.2021(2) 0.06741(14)
C2 C 0.1851(4) 0.1942(2) -0.17772(14)
H3 H 0.2562 0.1241 -0.1765
C3 C 0.1019(4) 0.2178(2) -0.25804(14)
H4 H 0.0151 0.2818 -0.2586
C4 C -0.2010(4) 0.1105(2) -0.25543(15)
H5 H -0.2817 0.0489 -0.2761
H6 H -0.2789 0.1774 -0.2636
C5 C 0.0166(4) 0.1760(2) -0.13327(14)
C6 C 0.2544(4) 0.2210(2) -0.01611(14)
H7 H 0.1754 0.2884 -0.0180
C7 C 0.1116(4) 0.1307(2) -0.05490(14)
C8 C 0.1529(4) 0.1873(2) 0.10440(14)
H8 H 0.0702 0.2512 0.0881
C9 C 0.0336(4) 0.0874(2) 0.07208(14)
H9 H 0.1153 0.0219 0.0776
H10 H -0.0735 0.0752 0.0983
C10 C -0.0266(4) 0.1206(2) -0.29374(14)
C11 C 0.1858(4) 0.1930(2) 0.18958(14)
C12 C -0.1370(4) 0.0921(2) -0.17240(15)
H11 H -0.0835 0.0180 -0.1647
H12 H -0.2519 0.0957 -0.1495
C13 C 0.4430(4) 0.3082(3) 0.09812(14)
H13 H 0.5669 0.3121 0.0811
H14 H 0.3664 0.3721 0.0790
C14 C 0.2962(4) 0.3015(3) 0.21214(13)
H15 H 0.2098 0.3628 0.1932
C15 C 0.4132(4) 0.2480(3) -0.06134(14)
H16 H 0.4974 0.1841 -0.0615
H17 H 0.4925 0.3085 -0.0381
C16 C -0.0934(4) 0.2854(2) -0.12816(14)
H18 H -0.0016 0.3429 -0.1109
H19 H -0.1831 0.2768 -0.0948
H20 H -0.1640 0.3048 -0.1755
C17 C -0.0470(4) 0.1066(2) -0.00871(14)
H21 H -0.1373 0.1684 -0.0132
H22 H -0.1198 0.0416 -0.0282
C18 C 0.4809(4) 0.3137(3) 0.18121(14)
H23 H 0.5711 0.2553 0.2005
H24 H 0.5416 0.3840 0.1967
C19 C 0.3302(4) 0.2803(2) -0.14070(14)
H25 H 0.2656 0.3515 -0.1413
H26 H 0.4365 0.2875 -0.1679
C20 C 0.2419(4) 0.2445(2) -0.31091(14)
H27 H 0.3591 0.1988 -0.2977
C21 C 0.0876(4) 0.0108(2) -0.29010(16)
H28 H 0.2079 0.0218 -0.3088
H29 H 0.1210 -0.0134 -0.2397
C22 C 0.2198(4) 0.0200(2) -0.06198(15)
H30 H 0.1447 -0.0244 -0.0996
H31 H 0.2362 -0.0191 -0.0164
H32 H 0.3455 0.0351 -0.0744
C23 C -0.0134(4) 0.2018(3) 0.21361(15)
H33 H -0.0880 0.2600 0.1868
H34 H 0.0051 0.2179 0.2649
H35 H -0.0821 0.1330 0.2042
C24 C 0.3049(4) 0.3638(3) -0.31638(15)
C25 C 0.2928(4) 0.0923(3) 0.22785(15)
H36 H 0.2293 0.0257 0.2080
H37 H 0.2901 0.0959 0.2792
H38 H 0.4257 0.0923 0.2203
C26 C 0.2071(5) 0.4518(3) -0.29826(16)
H39 H 0.2504 0.5227 -0.3062
H40 H 0.0957 0.4420 -0.2777
C27 C 0.1291(4) 0.2045(3) -0.38686(15)
H41 H 0.1096 0.2656 -0.4212
H42 H 0.2020 0.1469 -0.4065
C28 C -0.0675(4) 0.1598(3) -0.37351(16)
H43 H -0.1113 0.0989 -0.4063
H44 H -0.1661 0.2174 -0.3804
C29 C 0.4831(4) 0.1056(3) 0.08141(15)
H45 H 0.4147 0.0375 0.0852
H46 H 0.5727 0.1188 0.1260
H47 H 0.5539 0.1008 0.0416
C30 C 0.4836(5) 0.3787(3) -0.34941(19)
H48 H 0.5954 0.3527 -0.3160
H49 H 0.4999 0.4557 -0.3595
H50 H 0.4704 0.3372 -0.3940
O3 O 0.2607(3) -0.2020(2) -0.37438(13)
H51 H 0.361(6) -0.196(4) -0.341(2)
H52 H 0.262(6) -0.156(4) -0.410(2)
N1 N 0.3040(4) -0.0448(3) -0.48340(14)
C31 C 0.3227(5) 0.1522(3) -0.55912(17)
H53 H 0.3293 0.2179 -0.5847
C32 C 0.4832(5) 0.1115(3) -0.51422(18)
H54 H 0.6015 0.1491 -0.5086
C33 C 0.4681(5) 0.0138(3) -0.47713(19)
H55 H 0.5782 -0.0124 -0.4462
C34 C 0.1479(5) -0.0040(3) -0.52780(18)
H56 H 0.0318 -0.0437 -0.5333
C35 C 0.1502(5) 0.0935(3) -0.56576(17)
H57 H 0.0375 0.1195 -0.5954
loop_
_geom_bond_atom_site_label_1
_geom_bond_atom_site_label_2
_geom_bond_site_symmetry_1
_geom_bond_site_symmetry_2
O1 H1 1_555 1_555
O2 H2 1_555 1_555
C1 C6 1_555 1_555
C2 H3 1_555 1_555
C3 C2 1_555 1_555
H4 C3 1_555 1_555
C4 H5 1_555 1_555
H6 C4 1_555 1_555
C5 C2 1_555 1_555
C6 H7 1_555 1_555
C7 C5 1_555 1_555
C8 C1 1_555 1_555
H8 C8 1_555 1_555
C9 C8 1_555 1_555
H9 C9 1_555 1_555
H10 C9 1_555 1_555
C10 C3 1_555 1_555
C11 C8 1_555 1_555
C12 C4 1_555 1_555
H11 C12 1_555 1_555
H12 C12 1_555 1_555
C13 C1 1_555 1_555
H13 C13 1_555 1_555
H14 C13 1_555 1_555
C14 O1 1_555 1_555
H15 C14 1_555 1_555
C15 C6 1_555 1_555
H16 C15 1_555 1_555
H17 C15 1_555 1_555
C16 C5 1_555 1_555
H18 C16 1_555 1_555
H19 C16 1_555 1_555
H20 C16 1_555 1_555
C17 C7 1_555 1_555
H21 C17 1_555 1_555
H22 C17 1_555 1_555
C18 C13 1_555 1_555
H23 C18 1_555 1_555
H24 C18 1_555 1_555
C19 C2 1_555 1_555
H25 C19 1_555 1_555
H26 C19 1_555 1_555
C20 C3 1_555 1_555
H27 C20 1_555 1_555
C21 O2 1_555 1_555
H28 C21 1_555 1_555
H29 C21 1_555 1_555
C22 C7 1_555 1_555
H30 C22 1_555 1_555
H31 C22 1_555 1_555
H32 C22 1_555 1_555
C23 C11 1_555 1_555
H33 C23 1_555 1_555
H34 C23 1_555 1_555
H35 C23 1_555 1_555
C24 C20 1_555 1_555
C25 C11 1_555 1_555
H36 C25 1_555 1_555
H37 C25 1_555 1_555
H38 C25 1_555 1_555
C26 C24 1_555 1_555
H39 C26 1_555 1_555
H40 C26 1_555 1_555
C27 C20 1_555 1_555
H41 C27 1_555 1_555
H42 C27 1_555 1_555
C28 C10 1_555 1_555
H43 C28 1_555 1_555
H44 C28 1_555 1_555
C29 C1 1_555 1_555
H45 C29 1_555 1_555
H46 C29 1_555 1_555
H47 C29 1_555 1_555
C30 C24 1_555 1_555
H48 C30 1_555 1_555
H49 C30 1_555 1_555
H50 C30 1_555 1_555
O3 H51 1_555 1_555
H52 O3 1_555 1_555
N1 C33 1_555 1_555
C31 H53 1_555 1_555
C32 C31 1_555 1_555
H54 C32 1_555 1_555
C33 C32 1_555 1_555
H55 C33 1_555 1_555
C34 N1 1_555 1_555
H56 C34 1_555 1_555
C35 C31 1_555 1_555
H57 C35 1_555 1_555
C4 C10 1_555 1_555
C5 C12 1_555 1_555
C6 C7 1_555 1_555
C9 C17 1_555 1_555
C10 C21 1_555 1_555
C11 C14 1_555 1_555
C14 C18 1_555 1_555
C15 C19 1_555 1_555
C27 C28 1_555 1_555
C34 C35 1_555 1_555

#END
