
#######################################################################
#
#                 Cambridge Crystallographic Data Centre
#                                CCDC 
#
#######################################################################
#
# If this CIF has been generated from an entry in the Cambridge 
# Structural Database, then it will include bibliographic, chemical, 
# crystal, experimental, refinement or atomic coordinate data resulting 
# from the CCDC's data processing and validation procedures.
#
#######################################################################

data_DADBIW
_chemical_name_common            
'lup-20(29)-ene-3beta,28-diol N,N-dimethylformamide solvate'
_chemical_formula_moiety         'C30 H50 O2,C3 H7 N1 O1'
_chemical_name_systematic        'Betulin N,N-dimethylformamide solvate'
_chemical_properties_biological  
'Betulin has been shown to possess anti-HIV and anticancer activities'
_symmetry_cell_setting           monoclinic
_symmetry_space_group_name_H-M   'P 21'
_symmetry_Int_Tables_number      4
_space_group_name_Hall           'P 2yb'
loop_
_symmetry_equiv_pos_site_id
_symmetry_equiv_pos_as_xyz
1 x,y,z
2 -x,1/2+y,-z
_cell_length_a                   7.021
_cell_length_b                   12.284
_cell_length_c                   34.731
_cell_angle_alpha                90
_cell_angle_beta                 90.42
_cell_angle_gamma                90
_cell_volume                     2995.33
_exptl_crystal_colour            colorless
_exptl_crystal_description       Prism
_cell_formula_units_Z            4
loop_
_atom_site_label
_atom_site_type_symbol
_atom_site_fract_x
_atom_site_fract_y
_atom_site_fract_z
O1 O -0.1934(7) -0.2316(5) -0.15106(13)
H1 H -0.2487 -0.2807 -0.1626
O2 O -0.1132(8) -0.6170(5) 0.18058(13)
H2 H -0.0279 -0.6487 0.1691
C1 C -0.1049(10) -0.3676(6) -0.05493(18)
H3 H -0.0324 -0.3046 -0.0456
C2 C -0.3040(9) -0.3579(6) -0.03571(19)
C3 C 0.0004(10) -0.4693(7) -0.03803(19)
H4 H -0.0785 -0.5335 -0.0414
H5 H 0.1186 -0.4809 -0.0517
C4 C 0.0969(10) -0.4415(7) 0.13373(19)
H6 H 0.1676 -0.5020 0.1447
H7 H 0.1727 -0.3761 0.1371
C5 C -0.1985(10) -0.2522(7) -0.11076(19)
H8 H -0.1267 -0.1933 -0.0984
C6 C -0.0951(10) -0.3611(6) -0.09944(19)
C7 C -0.3995(11) -0.2533(7) -0.0514(2)
H9 H -0.5302 -0.2507 -0.0426
H10 H -0.3335 -0.1904 -0.0410
C8 C -0.2618(10) -0.3392(6) 0.00834(19)
H11 H -0.1861 -0.2723 0.0095
C9 C -0.0909(11) -0.4286(7) 0.15512(19)
C10 C 0.0424(10) -0.4525(6) 0.0042(2)
H12 H 0.1303 -0.3920 0.0069
H13 H 0.1055 -0.5170 0.0141
C11 C -0.2069(11) -0.3361(6) 0.13577(19)
H14 H -0.1227 -0.2725 0.1350
C12 C -0.3989(10) -0.2462(7) -0.09518(19)
H15 H -0.4740 -0.3054 -0.1058
H16 H -0.4572 -0.1782 -0.1032
C13 C 0.1127(10) -0.3468(7) -0.11136(19)
H17 H 0.1644 -0.2830 -0.0992
H18 H 0.1193 -0.3388 -0.1388
H19 H 0.1849 -0.4095 -0.1035
C14 C -0.4405(10) -0.4538(7) -0.0435(2)
H20 H -0.5037 -0.4431 -0.0678
H21 H -0.5335 -0.4575 -0.0234
H22 H -0.3694 -0.5205 -0.0442
C15 C -0.0737(10) -0.3810(6) 0.0699(2)
C16 C -0.3902(11) -0.2824(7) 0.07405(19)
H23 H -0.5070 -0.2765 0.0886
H24 H -0.3304 -0.2112 0.0737
C17 C -0.2568(10) -0.3633(6) 0.09407(19)
H25 H -0.3239 -0.4333 0.0945
C18 C -0.4384(10) -0.3162(6) 0.03283(18)
H26 H -0.5121 -0.2587 0.0207
H27 H -0.5171 -0.3810 0.0335
C19 C -0.2425(11) -0.5367(6) 0.0334(2)
H28 H -0.3716 -0.5220 0.0408
H29 H -0.1817 -0.5803 0.0529
H30 H -0.2421 -0.5752 0.0094
C20 C 0.0643(10) -0.4617(6) 0.09072(19)
H31 H 0.0147 -0.5349 0.0875
H32 H 0.1866 -0.4588 0.0779
C21 C -0.0759(12) -0.3872(7) 0.1964(2)
H33 H 0.0209 -0.3311 0.1987
H34 H -0.0453 -0.4460 0.2141
C22 C -0.1775(11) -0.4619(6) -0.12104(19)
H35 H -0.1253 -0.5272 -0.1100
H36 H -0.1444 -0.4579 -0.1478
H37 H -0.3136 -0.4628 -0.1186
C23 C 0.0359(11) -0.2744(6) 0.0663(2)
H38 H -0.0507 -0.2168 0.0596
H39 H 0.1302 -0.2815 0.0465
H40 H 0.0974 -0.2578 0.0903
C24 C -0.3655(11) -0.3086(6) 0.16484(19)
H41 H -0.4753 -0.3558 0.1597
C25 C -0.1988(11) -0.5391(6) 0.1559(2)
H42 H -0.3286 -0.5265 0.1642
H43 H -0.2041 -0.5684 0.1300
C26 C -0.4313(11) -0.1932(7) 0.1653(2)
C27 C -0.2764(12) -0.3403(7) 0.2046(2)
H44 H -0.2669 -0.2769 0.2212
H45 H -0.3547 -0.3944 0.2173
C28 C -0.6191(13) -0.1730(8) 0.1803(3)
H46 H -0.7130 -0.2018 0.1628
H47 H -0.6379 -0.0960 0.1831
H48 H -0.6313 -0.2076 0.2049
C29 C -0.3196(14) -0.1053(8) 0.1546(3)
H49 H -0.3661 -0.0348 0.1571
H50 H -0.1982 -0.1168 0.1449
C30 C -0.1347(10) -0.4293(6) 0.02902(19)
O3 O -0.1928(8) -0.7141(5) -0.64654(14)
H51 H -0.2710 -0.7538 -0.6572
C31 C -0.1012(10) -0.8485(6) -0.55070(19)
H52 H -0.0259 -0.7865 -0.5415
C32 C 0.0028(10) -0.9503(6) -0.53433(19)
H53 H -0.0780 -1.0139 -0.5372
H54 H 0.1191 -0.9629 -0.5486
O4 O -0.0763(9) -1.0931(6) -0.31513(15)
H55 H 0.0086 -1.1215 -0.3277
C33 C 0.0499(10) -0.9330(7) -0.4921(2)
H56 H 0.1400 -0.8734 -0.4899
H57 H 0.1116 -0.9979 -0.4822
C34 C -0.1941(11) -0.7337(7) -0.6062(2)
H58 H -0.1179 -0.6754 -0.5945
C35 C 0.1208(12) -0.9212(7) -0.3632(2)
H59 H 0.1916 -0.9821 -0.3526
H60 H 0.1990 -0.8565 -0.3605
C36 C -0.3925(10) -0.7227(6) -0.5896(2)
H61 H -0.4724 -0.7808 -0.5996
H62 H -0.4473 -0.6540 -0.5978
C37 C -0.0960(10) -0.8397(6) -0.59532(19)
C38 C -0.0563(10) -0.8599(7) -0.4259(2)
C39 C -0.2972(9) -0.8361(6) -0.53074(19)
C40 C -0.2498(10) -0.8168(6) -0.48682(19)
H63 H -0.1716 -0.7507 -0.4861
C41 C -0.2367(10) -0.8412(7) -0.40098(19)
H64 H -0.3052 -0.9106 -0.4001
C42 C -0.3903(11) -0.7277(6) -0.5459(2)
H65 H -0.5198 -0.7227 -0.5366
H66 H -0.3196 -0.6660 -0.5359
C43 C 0.1099(11) -0.8304(8) -0.6082(2)
H67 H 0.1745 -0.7770 -0.5927
H68 H 0.1133 -0.8088 -0.6347
H69 H 0.1718 -0.8996 -0.6052
C44 C 0.0557(10) -0.7532(6) -0.43015(19)
H70 H -0.0317 -0.6936 -0.4330
H71 H 0.1353 -0.7573 -0.4525
H72 H 0.1335 -0.7420 -0.4077
C45 C -0.1233(10) -0.9076(6) -0.46706(18)
C46 C -0.2352(11) -1.0149(7) -0.4621(2)
H73 H -0.2459 -1.0510 -0.4866
H74 H -0.3601 -0.9991 -0.4526
H75 H -0.1691 -1.0612 -0.4442
C47 C -0.1799(11) -0.8136(7) -0.3594(2)
H76 H -0.0948 -0.7505 -0.3609
C48 C -0.4030(14) -0.6683(7) -0.3303(2)
C49 C -0.1884(12) -0.9387(7) -0.6168(2)
H77 H -0.1310 -1.0050 -0.6079
H78 H -0.1684 -0.9314 -0.6440
H79 H -0.3226 -0.9403 -0.6117
C50 C -0.0619(12) -0.9061(7) -0.3406(2)
C51 C -0.4243(10) -0.7907(7) -0.46166(19)
H80 H -0.5069 -0.8540 -0.4610
H81 H -0.4954 -0.7316 -0.4735
C52 C -0.4378(11) -0.9298(7) -0.5382(2)
H82 H -0.5065 -0.9164 -0.5617
H83 H -0.5258 -0.9345 -0.5172
H84 H -0.3689 -0.9970 -0.5403
C53 C 0.0804(11) -0.9420(6) -0.40615(19)
H85 H 0.0270 -1.0144 -0.4089
H86 H 0.2006 -0.9411 -0.4197
C54 C -0.3711(10) -0.7584(7) -0.4199(2)
H87 H -0.3104 -0.6875 -0.4200
H88 H -0.4864 -0.7529 -0.4048
C55 C -0.3313(12) -0.7847(7) -0.3296(2)
H89 H -0.4400 -0.8339 -0.3328
C56 C -0.1730(13) -1.0136(7) -0.3383(2)
H90 H -0.2977 -0.9997 -0.3275
H91 H -0.1913 -1.0424 -0.3641
C57 C -0.0397(13) -0.8631(9) -0.2992(2)
H92 H -0.0124 -0.9222 -0.2815
H93 H 0.0626 -0.8102 -0.2976
C58 C -0.5889(16) -0.6494(9) -0.3291(2)
H94 H -0.6341 -0.5783 -0.3294
H95 H -0.6740 -0.7073 -0.3280
C59 C -0.2309(13) -0.8102(10) -0.2900(2)
H96 H -0.2115 -0.7437 -0.2754
H97 H -0.3085 -0.8593 -0.2748
C60 C -0.267(2) -0.5787(11) -0.3321(4)
H98 H -0.1758 -0.5857 -0.3116
H99 H -0.3335 -0.5108 -0.3297
H100 H -0.2023 -0.5806 -0.3564
O5 O -0.4237(8) -0.3588(5) -0.19659(16)
C61 C -0.5899(12) -0.3315(8) -0.2041(2)
H101 H -0.6380 -0.2701 -0.1919
N1 N -0.7041(10) -0.3845(6) -0.22861(18)
C62 C -0.6364(16) -0.4789(9) -0.2495(2)
H102 H -0.5051 -0.4918 -0.2431
H103 H -0.6486 -0.4661 -0.2767
H104 H -0.7107 -0.5415 -0.2426
C63 C -0.8981(14) -0.3479(11) -0.2363(3)
H105 H -0.9860 -0.4042 -0.2292
H106 H -0.9125 -0.3318 -0.2632
H107 H -0.9234 -0.2836 -0.2214
N2 N -0.5490(10) -0.6513(6) -0.73479(19)
O6 O -0.5013(9) -0.7797(6) -0.68815(16)
C64 C -0.3660(12) -0.5988(8) -0.7305(2)
H108 H -0.3840 -0.5253 -0.7219
H109 H -0.3018 -0.5986 -0.7548
H110 H -0.2906 -0.6378 -0.7119
C65 C -0.5998(12) -0.7389(8) -0.7131(2)
H111 H -0.7188 -0.7697 -0.7178
C66 C -0.6818(11) -0.6062(9) -0.7628(2)
H112 H -0.7043 -0.5309 -0.7570
H113 H -0.7999 -0.6455 -0.7617
H114 H -0.6293 -0.6125 -0.7881
loop_
_geom_bond_atom_site_label_1
_geom_bond_atom_site_label_2
_geom_bond_site_symmetry_1
_geom_bond_site_symmetry_2
O1 H1 1_555 1_555
O2 H2 1_555 1_555
C1 H3 1_555 1_555
C2 C1 1_555 1_555
C3 C1 1_555 1_555
H4 C3 1_555 1_555
H5 C3 1_555 1_555
C4 H6 1_555 1_555
H7 C4 1_555 1_555
C5 O1 1_555 1_555
H8 C5 1_555 1_555
C6 C1 1_555 1_555
C7 C2 1_555 1_555
H9 C7 1_555 1_555
H10 C7 1_555 1_555
C8 C2 1_555 1_555
H11 C8 1_555 1_555
C9 C4 1_555 1_555
C10 C3 1_555 1_555
H12 C10 1_555 1_555
H13 C10 1_555 1_555
C11 C9 1_555 1_555
H14 C11 1_555 1_555
C12 C5 1_555 1_555
H15 C12 1_555 1_555
H16 C12 1_555 1_555
C13 C6 1_555 1_555
H17 C13 1_555 1_555
H18 C13 1_555 1_555
H19 C13 1_555 1_555
C14 C2 1_555 1_555
H20 C14 1_555 1_555
H21 C14 1_555 1_555
H22 C14 1_555 1_555
C15 C17 1_555 1_555
C16 H23 1_555 1_555
H24 C16 1_555 1_555
C17 C11 1_555 1_555
H25 C17 1_555 1_555
C18 C8 1_555 1_555
H26 C18 1_555 1_555
H27 C18 1_555 1_555
C19 H28 1_555 1_555
H29 C19 1_555 1_555
H30 C19 1_555 1_555
C20 C4 1_555 1_555
H31 C20 1_555 1_555
H32 C20 1_555 1_555
C21 C9 1_555 1_555
H33 C21 1_555 1_555
H34 C21 1_555 1_555
C22 C6 1_555 1_555
H35 C22 1_555 1_555
H36 C22 1_555 1_555
H37 C22 1_555 1_555
C23 C15 1_555 1_555
H38 C23 1_555 1_555
H39 C23 1_555 1_555
H40 C23 1_555 1_555
C24 C11 1_555 1_555
H41 C24 1_555 1_555
C25 O2 1_555 1_555
H42 C25 1_555 1_555
H43 C25 1_555 1_555
C26 C24 1_555 1_555
C27 C21 1_555 1_555
H44 C27 1_555 1_555
H45 C27 1_555 1_555
C28 C26 1_555 1_555
H46 C28 1_555 1_555
H47 C28 1_555 1_555
H48 C28 1_555 1_555
C29 C26 1_555 1_555
H49 C29 1_555 1_555
H50 C29 1_555 1_555
C30 C8 1_555 1_555
O3 H51 1_555 1_555
C31 H52 1_555 1_555
C32 C31 1_555 1_555
H53 C32 1_555 1_555
H54 C32 1_555 1_555
O4 H55 1_555 1_555
C33 C32 1_555 1_555
H56 C33 1_555 1_555
H57 C33 1_555 1_555
C34 O3 1_555 1_555
H58 C34 1_555 1_555
C35 H59 1_555 1_555
H60 C35 1_555 1_555
C36 C34 1_555 1_555
H61 C36 1_555 1_555
H62 C36 1_555 1_555
C37 C31 1_555 1_555
C38 C41 1_555 1_555
C39 C31 1_555 1_555
C40 C39 1_555 1_555
H63 C40 1_555 1_555
C41 H64 1_555 1_555
C42 C36 1_555 1_555
H65 C42 1_555 1_555
H66 C42 1_555 1_555
C43 C37 1_555 1_555
H67 C43 1_555 1_555
H68 C43 1_555 1_555
H69 C43 1_555 1_555
C44 C38 1_555 1_555
H70 C44 1_555 1_555
H71 C44 1_555 1_555
H72 C44 1_555 1_555
C45 C33 1_555 1_555
C46 C45 1_555 1_555
H73 C46 1_555 1_555
H74 C46 1_555 1_555
H75 C46 1_555 1_555
C47 C41 1_555 1_555
H76 C47 1_555 1_555
C48 C55 1_555 1_555
C49 C37 1_555 1_555
H77 C49 1_555 1_555
H78 C49 1_555 1_555
H79 C49 1_555 1_555
C50 C35 1_555 1_555
C51 C40 1_555 1_555
H80 C51 1_555 1_555
H81 C51 1_555 1_555
C52 C39 1_555 1_555
H82 C52 1_555 1_555
H83 C52 1_555 1_555
H84 C52 1_555 1_555
C53 C35 1_555 1_555
H85 C53 1_555 1_555
H86 C53 1_555 1_555
C54 C41 1_555 1_555
H87 C54 1_555 1_555
H88 C54 1_555 1_555
C55 C47 1_555 1_555
H89 C55 1_555 1_555
C56 O4 1_555 1_555
H90 C56 1_555 1_555
H91 C56 1_555 1_555
C57 C50 1_555 1_555
H92 C57 1_555 1_555
H93 C57 1_555 1_555
C58 C48 1_555 1_555
H94 C58 1_555 1_555
H95 C58 1_555 1_555
C59 C55 1_555 1_555
H96 C59 1_555 1_555
H97 C59 1_555 1_555
C60 C48 1_555 1_555
H98 C60 1_555 1_555
H99 C60 1_555 1_555
H100 C60 1_555 1_555
O5 C61 1_555 1_555
C61 H101 1_555 1_555
N1 C61 1_555 1_555
C62 N1 1_555 1_555
H102 C62 1_555 1_555
H103 C62 1_555 1_555
H104 C62 1_555 1_555
C63 N1 1_555 1_555
H105 C63 1_555 1_555
H106 C63 1_555 1_555
H107 C63 1_555 1_555
N2 C64 1_555 1_555
O6 C65 1_555 1_555
C64 H108 1_555 1_555
H109 C64 1_555 1_555
H110 C64 1_555 1_555
C65 N2 1_555 1_555
H111 C65 1_555 1_555
C66 N2 1_555 1_555
H112 C66 1_555 1_555
H113 C66 1_555 1_555
H114 C66 1_555 1_555
C5 C6 1_555 1_555
C7 C12 1_555 1_555
C9 C25 1_555 1_555
C10 C30 1_555 1_555
C15 C20 1_555 1_555
C15 C30 1_555 1_555
C16 C17 1_555 1_555
C16 C18 1_555 1_555
C19 C30 1_555 1_555
C24 C27 1_555 1_555
C34 C37 1_555 1_555
C38 C45 1_555 1_555
C38 C53 1_555 1_555
C39 C42 1_555 1_555
C40 C45 1_555 1_555
C47 C50 1_555 1_555
C50 C56 1_555 1_555
C51 C54 1_555 1_555
C57 C59 1_555 1_555

#END
