
#######################################################################
#
#                 Cambridge Crystallographic Data Centre
#                                CCDC 
#
#######################################################################
#
# If this CIF has been generated from an entry in the Cambridge 
# Structural Database, then it will include bibliographic, chemical, 
# crystal, experimental, refinement or atomic coordinate data resulting 
# from the CCDC's data processing and validation procedures.
#
#######################################################################

data_DADBOA
_chemical_formula_moiety         'C28 H40 S4 Si5'
_chemical_name_systematic        Spirobi(bis(trimethylsilyl)dithienosilole)
_symmetry_cell_setting           tetragonal
_symmetry_space_group_name_H-M   'I 41/a'
_symmetry_Int_Tables_number      88
_space_group_name_Hall           '-I 4ad'
loop_
_symmetry_equiv_pos_site_id
_symmetry_equiv_pos_as_xyz
1 x,y,z
2 1/2+x,1/2+y,1/2+z
3 3/4-y,1/4+x,1/4+z
4 3/4+y,1/4-x,1/4-z
5 1/2+x,y,1/2-z
6 x,1/2+y,-z
7 1/4+y,1/4-x,1/4+z
8 1/4-y,1/4+x,1/4-z
9 -x,-y,-z
10 1/2-x,1/2-y,1/2-z
11 1/4+y,3/4-x,3/4-z
12 1/4-y,3/4+x,3/4+z
13 1/2-x,-y,1/2+z
14 -x,1/2-y,z
15 3/4-y,3/4+x,3/4-z
16 3/4+y,3/4-x,3/4+z
_cell_length_a                   24.5701(3)
_cell_length_b                   24.5701(3)
_cell_length_c                   24.7008(3)
_cell_angle_alpha                90
_cell_angle_beta                 90
_cell_angle_gamma                90
_cell_volume                     14911.6
_exptl_crystal_colour            yellow
_exptl_crystal_description       block
_chemical_melting_point          '158 K'
_cell_formula_units_Z            16
loop_
_atom_site_label
_atom_site_type_symbol
_atom_site_fract_x
_atom_site_fract_y
_atom_site_fract_z
S1 S 0.13387(6) 0.59702(6) 0.08058(6)
S2 S 0.28296(6) 0.60922(6) 0.05561(7)
S3 S 0.17177(6) 0.91035(6) -0.01878(6)
S4 S 0.18322(7) 0.91369(6) 0.13181(6)
Si1 Si 0.19403(7) 0.75759(6) 0.05883(7)
Si2 Si 0.00665(8) 0.60661(8) 0.09758(9)
Si3 Si 0.40692(7) 0.64066(7) 0.03824(8)
Si4 Si 0.15591(8) 0.88657(8) -0.14365(8)
Si5 Si 0.17809(7) 0.89394(7) 0.25794(7)
C1 C 0.1742(2) 0.6528(2) 0.0684(2)
C2 C 0.1445(2) 0.7004(2) 0.0685(2)
C3 C 0.0885(2) 0.6903(2) 0.0782(2)
C4 C 0.0752(2) 0.6365(2) 0.0852(2)
C5 C 0.2329(2) 0.6574(2) 0.0600(2)
C6 C 0.2529(2) 0.7097(2) 0.0537(2)
C7 C 0.3101(2) 0.7089(2) 0.0458(2)
C8 C 0.3332(2) 0.6581(2) 0.0454(3)
C9 C 0.1810(2) 0.8594(2) 0.0279(2)
C10 C 0.1823(2) 0.8086(2) 0.0035(3)
C11 C 0.1753(2) 0.8123(2) -0.0530(3)
C12 C 0.1690(2) 0.8646(2) -0.0723(3)
C13 C 0.1875(2) 0.8609(2) 0.0864(3)
C14 C 0.1950(2) 0.8115(2) 0.1120(3)
C15 C 0.1964(2) 0.8177(2) 0.1689(3)
C16 C 0.1904(3) 0.8703(2) 0.1871(3)
C17 C -0.0355(4) 0.6613(4) 0.1291(5)
C18 C 0.0132(4) 0.5483(3) 0.1439(4)
C19 C -0.0226(4) 0.5840(5) 0.0320(5)
C20 C 0.4452(4) 0.7051(4) 0.0383(7)
C21 C 0.4189(4) 0.6010(5) -0.0233(4)
C22 C 0.4283(4) 0.5993(5) 0.0969(4)
C23 C 0.1720(6) 0.9594(5) -0.1511(5)
C24 C 0.0860(5) 0.8735(9) -0.1614(7)
C25 C 0.2004(9) 0.8456(7) -0.1858(4)
C26 C 0.1797(3) 0.8314(3) 0.3008(3)
C27 C 0.1089(3) 0.9257(3) 0.2576(3)
C28 C 0.2294(3) 0.9449(3) 0.2812(3)
H1 H 0.0623(2) 0.7187(2) 0.0799(2)
H2 H 0.3309(2) 0.7412(2) 0.0412(2)
H3 H 0.1749(2) 0.7814(2) -0.0761(3)
H4 H 0.2011(2) 0.7878(2) 0.1927(3)
H5 H -0.0191(4) 0.6725(4) 0.1620(5)
H6 H -0.0378(4) 0.6914(4) 0.1051(5)
H7 H -0.0710(4) 0.6477(4) 0.1361(5)
H8 H -0.0216(4) 0.5325(3) 0.1503(4)
H9 H 0.0365(4) 0.5219(3) 0.1280(4)
H10 H 0.0283(4) 0.5603(3) 0.1771(4)
H11 H -0.0577(4) 0.5688(5) 0.0375(5)
H12 H -0.0253(4) 0.6143(5) 0.0082(5)
H13 H 0.0007(4) 0.5573(5) 0.0165(5)
H14 H 0.4830(4) 0.6977(4) 0.0346(7)
H15 H 0.4335(4) 0.7274(4) 0.0091(7)
H16 H 0.4389(4) 0.7236(4) 0.0716(7)
H17 H 0.3978(4) 0.5686(5) -0.0221(4)
H18 H 0.4087(4) 0.6220(5) -0.0539(4)
H19 H 0.4564(4) 0.5919(5) -0.0257(4)
H20 H 0.4070(4) 0.5670(5) 0.0978(4)
H21 H 0.4656(4) 0.5900(5) 0.0938(4)
H22 H 0.4227(4) 0.6193(5) 0.1294(4)
H23 H 0.2077(6) 0.9661(5) -0.1381(5)
H24 H 0.1697(6) 0.9699(5) -0.1880(5)
H25 H 0.1466(6) 0.9799(5) -0.1304(5)
H26 H 0.0630(5) 0.8938(9) -0.1381(7)
H27 H 0.0800(5) 0.8845(9) -0.1978(7)
H28 H 0.0781(5) 0.8358(9) -0.1579(7)
H29 H 0.1963(9) 0.8074(7) -0.1816(4)
H30 H 0.1956(9) 0.8551(7) -0.2228(4)
H31 H 0.2359(9) 0.8560(7) -0.1744(4)
H32 H 0.1737(3) 0.8410(3) 0.3376(3)
H33 H 0.1520(3) 0.8071(3) 0.2892(3)
H34 H 0.2142(3) 0.8142(3) 0.2973(3)
H35 H 0.1004(3) 0.9386(3) 0.2929(3)
H36 H 0.1085(3) 0.9552(3) 0.2328(3)
H37 H 0.0827(3) 0.8994(3) 0.2470(3)
H38 H 0.2645(3) 0.9287(3) 0.2815(3)
H39 H 0.2294(3) 0.9751(3) 0.2572(3)
H40 H 0.2204(3) 0.9569(3) 0.3167(3)
loop_
_geom_bond_atom_site_label_1
_geom_bond_atom_site_label_2
_geom_bond_site_symmetry_1
_geom_bond_site_symmetry_2
S1 C1 1_555 1_555
S2 C5 1_555 1_555
S3 C9 1_555 1_555
S4 C13 1_555 1_555
Si1 C2 1_555 1_555
Si2 C4 1_555 1_555
Si3 C8 1_555 1_555
Si4 C12 1_555 1_555
Si5 C16 1_555 1_555
C1 C2 1_555 1_555
C2 C3 1_555 1_555
C3 C4 1_555 1_555
C4 S1 1_555 1_555
C5 C1 1_555 1_555
C6 Si1 1_555 1_555
C7 C6 1_555 1_555
C8 S2 1_555 1_555
C9 C10 1_555 1_555
C10 Si1 1_555 1_555
C11 C10 1_555 1_555
C12 S3 1_555 1_555
C13 C9 1_555 1_555
C14 Si1 1_555 1_555
C15 C14 1_555 1_555
C16 S4 1_555 1_555
C17 Si2 1_555 1_555
C18 Si2 1_555 1_555
C19 Si2 1_555 1_555
C20 Si3 1_555 1_555
C21 Si3 1_555 1_555
C22 Si3 1_555 1_555
C23 Si4 1_555 1_555
C24 Si4 1_555 1_555
C25 Si4 1_555 1_555
C26 Si5 1_555 1_555
C27 Si5 1_555 1_555
C28 Si5 1_555 1_555
H1 C3 1_555 1_555
H2 C7 1_555 1_555
H3 C11 1_555 1_555
H4 C15 1_555 1_555
H5 C17 1_555 1_555
H6 C17 1_555 1_555
H7 C17 1_555 1_555
H8 C18 1_555 1_555
H9 C18 1_555 1_555
H10 C18 1_555 1_555
H11 C19 1_555 1_555
H12 C19 1_555 1_555
H13 C19 1_555 1_555
H14 C20 1_555 1_555
H15 C20 1_555 1_555
H16 C20 1_555 1_555
H17 C21 1_555 1_555
H18 C21 1_555 1_555
H19 C21 1_555 1_555
H20 C22 1_555 1_555
H21 C22 1_555 1_555
H22 C22 1_555 1_555
H23 C23 1_555 1_555
H24 C23 1_555 1_555
H25 C23 1_555 1_555
H26 C24 1_555 1_555
H27 C24 1_555 1_555
H28 C24 1_555 1_555
H29 C25 1_555 1_555
H30 C25 1_555 1_555
H31 C25 1_555 1_555
H32 C26 1_555 1_555
H33 C26 1_555 1_555
H34 C26 1_555 1_555
H35 C27 1_555 1_555
H36 C27 1_555 1_555
H37 C27 1_555 1_555
H38 C28 1_555 1_555
H39 C28 1_555 1_555
H40 C28 1_555 1_555
C5 C6 1_555 1_555
C7 C8 1_555 1_555
C11 C12 1_555 1_555
C13 C14 1_555 1_555
C15 C16 1_555 1_555

#END
