
#######################################################################
#
#                 Cambridge Crystallographic Data Centre
#                                CCDC 
#
#######################################################################
#
# If this CIF has been generated from an entry in the Cambridge 
# Structural Database, then it will include bibliographic, chemical, 
# crystal, experimental, refinement or atomic coordinate data resulting 
# from the CCDC's data processing and validation procedures.
#
#######################################################################

data_DADCOD
_chemical_name_common            dimethylbis(4-methoxycarbonylphenyl)silane
_chemical_formula_moiety         'C18 H20 O4 Si1'
_chemical_name_systematic        
'methyl 4-((4-(methoxycarbonyl)phenyl)(dimethyl)silyl)benzoate'
_symmetry_cell_setting           monoclinic
_symmetry_space_group_name_H-M   'C 2/c'
_symmetry_Int_Tables_number      15
_space_group_name_Hall           '-C 2yn'
loop_
_symmetry_equiv_pos_site_id
_symmetry_equiv_pos_as_xyz
1 x,y,z
2 -x,y,1/2-z
3 1/2+x,1/2+y,z
4 1/2-x,1/2+y,1/2-z
5 -x,-y,-z
6 x,-y,1/2+z
7 1/2-x,1/2-y,-z
8 1/2+x,1/2-y,1/2+z
_cell_length_a                   15.869(3)
_cell_length_b                   9.991(2)
_cell_length_c                   12.328(3)
_cell_angle_alpha                90
_cell_angle_beta                 117.79(3)
_cell_angle_gamma                90
_cell_volume                     1729.13
_exptl_crystal_colour            colorless
_exptl_crystal_description       block
_cell_formula_units_Z            4
loop_
_atom_site_label
_atom_site_type_symbol
_atom_site_fract_x
_atom_site_fract_y
_atom_site_fract_z
C1 C 0.54323(13) 0.86561(16) 1.16029(15)
H1 H 0.4953 0.9300 1.1125
H2 H 0.5560 0.8090 1.1068
H3 H 0.6005 0.9113 1.2155
C2 C 0.40084(10) 0.64788(13) 1.14363(12)
C3 C 0.41296(11) 0.56740(17) 1.05964(16)
H4 H 0.4702 0.5715 1.0562
C4 C 0.34246(11) 0.48152(17) 0.98120(15)
H5 H 0.3521 0.4303 0.9249
C5 C 0.25723(9) 0.47202(14) 0.98686(13)
C6 C 0.24381(11) 0.54968(16) 1.07046(15)
H6 H 0.1871 0.5434 1.0752
C7 C 0.31455(11) 0.63684(16) 1.14723(14)
H7 H 0.3042 0.6891 1.2023
C8 C 0.17949(10) 0.37917(15) 0.90651(13)
C9 C 0.12150(13) 0.23692(19) 0.73424(17)
H8 H 0.1119 0.1643 0.7783
H9 H 0.1401 0.2020 0.6761
H10 H 0.0633 0.2866 0.6918
O1 O 0.19538(8) 0.32396(12) 0.81941(11)
O2 O 0.10978(9) 0.35693(14) 0.91819(12)
Si1 Si 0.5000 0.76151(5) 1.2500
C1A C 0.45677(13) 0.86561(16) 1.33971(15)
H1A H 0.5047 0.9300 1.3875
H2A H 0.4440 0.8090 1.3932
H3A H 0.3995 0.9113 1.2845
C2A C 0.59916(10) 0.64788(13) 1.35637(12)
C3A C 0.58704(11) 0.56740(17) 1.44036(16)
H4A H 0.5298 0.5715 1.4438
C4A C 0.65754(11) 0.48152(17) 1.51880(15)
H5A H 0.6479 0.4303 1.5751
C5A C 0.74277(9) 0.47202(14) 1.51314(13)
C6A C 0.75619(11) 0.54968(16) 1.42954(15)
H6A H 0.8129 0.5434 1.4248
C7A C 0.68545(11) 0.63684(16) 1.35277(14)
H7A H 0.6958 0.6891 1.2977
C8A C 0.82051(10) 0.37917(15) 1.59349(13)
C9A C 0.87850(13) 0.23692(19) 1.76576(17)
H8A H 0.8881 0.1643 1.7217
H9A H 0.8599 0.2020 1.8239
H10A H 0.9367 0.2866 1.8082
O1A O 0.80462(8) 0.32396(12) 1.68059(11)
O2A O 0.89022(9) 0.35693(14) 1.58181(12)
loop_
_geom_bond_atom_site_label_1
_geom_bond_atom_site_label_2
_geom_bond_site_symmetry_1
_geom_bond_site_symmetry_2
C1 H1 1_555 1_555
H2 C1 1_555 1_555
H3 C1 1_555 1_555
C2 C3 1_555 1_555
C3 H4 1_555 1_555
C4 C3 1_555 1_555
H5 C4 1_555 1_555
C5 C4 1_555 1_555
C6 C5 1_555 1_555
H6 C6 1_555 1_555
C7 C2 1_555 1_555
H7 C7 1_555 1_555
C8 C5 1_555 1_555
C9 H8 1_555 1_555
H9 C9 1_555 1_555
H10 C9 1_555 1_555
O1 C8 1_555 1_555
O2 C8 1_555 1_555
Si1 C1 1_555 1_555
C1A Si1 1_555 1_555
H1A C1A 1_555 1_555
H2A C1A 1_555 1_555
H3A C1A 1_555 1_555
C2A Si1 1_555 1_555
C3A C2A 1_555 1_555
H4A C3A 1_555 1_555
C4A C3A 1_555 1_555
H5A C4A 1_555 1_555
C5A C4A 1_555 1_555
C6A C5A 1_555 1_555
H6A C6A 1_555 1_555
C7A C2A 1_555 1_555
H7A C7A 1_555 1_555
C8A C5A 1_555 1_555
C9A H8A 1_555 1_555
H9A C9A 1_555 1_555
H10A C9A 1_555 1_555
O1A C8A 1_555 1_555
O2A C8A 1_555 1_555
C2 Si1 1_555 1_555
C6 C7 1_555 1_555
C9 O1 1_555 1_555
C6A C7A 1_555 1_555
C9A O1A 1_555 1_555

#END
