
#######################################################################
#
#                 Cambridge Crystallographic Data Centre
#                                CCDC 
#
#######################################################################
#
# If this CIF has been generated from an entry in the Cambridge 
# Structural Database, then it will include bibliographic, chemical, 
# crystal, experimental, refinement or atomic coordinate data resulting 
# from the CCDC's data processing and validation procedures.
#
#######################################################################

data_DADDIV01
_chemical_name_common            Prometryn
_chemical_formula_moiety         'C10 H19 N5 S1'
_chemical_name_systematic        
N,N'-di-isopropyl-6-(methylsulfanyl)-1,3,5-triazine-2,4-diamine
_chemical_properties_biological  herbicide
_symmetry_cell_setting           triclinic
_symmetry_space_group_name_H-M   'P -1'
_symmetry_Int_Tables_number      2
_space_group_name_Hall           '-P 1'
loop_
_symmetry_equiv_pos_site_id
_symmetry_equiv_pos_as_xyz
1 x,y,z
2 -x,-y,-z
_cell_length_a                   10.0632(10)
_cell_length_b                   11.8348(11)
_cell_length_c                   12.3951(12)
_cell_angle_alpha                79.063(3)
_cell_angle_beta                 79.667(3)
_cell_angle_gamma                77.130(3)
_cell_volume                     1398.41
_exptl_crystal_colour            colorless
_exptl_crystal_description       block
_cell_formula_units_Z            4
loop_
_atom_site_label
_atom_site_type_symbol
_atom_site_fract_x
_atom_site_fract_y
_atom_site_fract_z
S1 S 0.21214(17) 0.46773(14) 0.00937(15)
N1 N 0.0503(4) 0.5653(3) 0.1749(4)
N2 N 0.0615(4) 0.3635(3) 0.1729(4)
N3 N -0.0946(4) 0.4594(3) 0.3125(4)
N4 N -0.0941(6) 0.6537(4) 0.3108(4)
H1 H -0.0719 0.7176 0.2738
N5 N -0.0791(4) 0.2645(3) 0.3042(4)
H2 H -0.0426 0.2051 0.2709
C1 C 0.0950(5) 0.4668(4) 0.1324(4)
C2 C -0.0458(5) 0.5560(4) 0.2665(4)
C3 C -0.0370(5) 0.3658(4) 0.2626(4)
C4 C -0.1809(11) 0.6604(14) 0.4160(9)
H3 H -0.1847 0.5795 0.4513
C5 C -0.1350(12) 0.7109(14) 0.4882(9)
H4 H -0.2005 0.7141 0.5547
H5 H -0.1240 0.7889 0.4547
H6 H -0.0480 0.6652 0.5062
C6 C -0.3213(11) 0.7188(13) 0.4013(9)
H7 H -0.3774 0.7201 0.4725
H8 H -0.3574 0.6771 0.3576
H9 H -0.3217 0.7978 0.3640
C7 C -0.1812(6) 0.2478(5) 0.4006(5)
H10 H -0.1720 0.2970 0.4530
C8 C -0.1543(11) 0.1214(7) 0.4564(8)
H11 H -0.0616 0.0999 0.4731
H12 H -0.1667 0.0717 0.4077
H13 H -0.2175 0.1123 0.5239
C9 C -0.3239(8) 0.2856(9) 0.3703(8)
H14 H -0.3374 0.3662 0.3356
H15 H -0.3899 0.2771 0.4361
H16 H -0.3358 0.2376 0.3198
C10 C 0.2155(8) 0.6211(6) -0.0338(6)
H17 H 0.2773 0.6313 -0.1020
H18 H 0.2463 0.6505 0.0225
H19 H 0.1246 0.6635 -0.0450
S2 S -0.17586(15) 0.02216(14) 0.12920(18)
N6 N 0.2480(4) -0.0859(3) 0.2123(4)
N7 N 0.0479(4) 0.0602(3) 0.1778(4)
N8 N 0.0421(4) -0.1398(3) 0.1828(4)
N9 N 0.2309(5) -0.2788(4) 0.2237(5)
H20 H 0.1840 -0.3276 0.2138
N10 N 0.2458(4) 0.1111(4) 0.2006(5)
H21 H 0.1988 0.1816 0.1973
C11 C 0.1746(5) -0.1647(4) 0.2053(5)
C12 C 0.1794(5) 0.0257(4) 0.1977(5)
C13 C -0.0101(5) -0.0267(4) 0.1676(5)
C14 C 0.3659(7) -0.3272(5) 0.2592(7)
H22 H 0.3831 -0.2733 0.3039
C15 C 0.3601(11) -0.4416(8) 0.3333(10)
H23 H 0.4476 -0.4731 0.3587
H24 H 0.3391 -0.4956 0.2929
H25 H 0.2899 -0.4298 0.3959
C16 C 0.4741(10) -0.3333(12) 0.1666(9)
H26 H 0.4735 -0.2564 0.1243
H27 H 0.4599 -0.3849 0.1205
H28 H 0.5612 -0.3627 0.1931
C17 C 0.3923(8) 0.0933(7) 0.2087(7)
H29 H 0.4414 0.0341 0.1625
C18 C 0.4256(8) 0.0500(7) 0.3233(7)
H30 H 0.3948 -0.0226 0.3512
H31 H 0.3802 0.1071 0.3703
H32 H 0.5234 0.0376 0.3223
C19 C 0.4428(8) 0.2027(7) 0.1630(7)
H33 H 0.4230 0.2285 0.0883
H34 H 0.5405 0.1890 0.1631
H35 H 0.3979 0.2620 0.2078
C20 C -0.2139(8) -0.1087(7) 0.0984(7)
H36 H -0.3038 -0.0913 0.0761
H37 H -0.2117 -0.1677 0.1633
H38 H -0.1465 -0.1369 0.0393
loop_
_geom_bond_atom_site_label_1
_geom_bond_atom_site_label_2
_geom_bond_site_symmetry_1
_geom_bond_site_symmetry_2
S1 C1 1_555 1_555
N1 C1 1_555 1_555
N2 C1 1_555 1_555
N3 C2 1_555 1_555
N4 H1 1_555 1_555
N5 H2 1_555 1_555
C2 N1 1_555 1_555
C3 N2 1_555 1_555
C4 N4 1_555 1_555
H3 C4 1_555 1_555
C5 C4 1_555 1_555
H4 C5 1_555 1_555
H5 C5 1_555 1_555
H6 C5 1_555 1_555
C6 C4 1_555 1_555
H7 C6 1_555 1_555
H8 C6 1_555 1_555
H9 C6 1_555 1_555
C7 N5 1_555 1_555
H10 C7 1_555 1_555
C8 C7 1_555 1_555
H11 C8 1_555 1_555
H12 C8 1_555 1_555
H13 C8 1_555 1_555
C9 C7 1_555 1_555
H14 C9 1_555 1_555
H15 C9 1_555 1_555
H16 C9 1_555 1_555
C10 S1 1_555 1_555
H17 C10 1_555 1_555
H18 C10 1_555 1_555
H19 C10 1_555 1_555
S2 C13 1_555 1_555
N6 C11 1_555 1_555
N7 C12 1_555 1_555
N8 C11 1_555 1_555
N9 H20 1_555 1_555
N10 H21 1_555 1_555
C11 N9 1_555 1_555
C12 N6 1_555 1_555
C13 N7 1_555 1_555
C14 N9 1_555 1_555
H22 C14 1_555 1_555
C15 C14 1_555 1_555
H23 C15 1_555 1_555
H24 C15 1_555 1_555
H25 C15 1_555 1_555
C16 C14 1_555 1_555
H26 C16 1_555 1_555
H27 C16 1_555 1_555
H28 C16 1_555 1_555
C17 N10 1_555 1_555
H29 C17 1_555 1_555
C18 C17 1_555 1_555
H30 C18 1_555 1_555
H31 C18 1_555 1_555
H32 C18 1_555 1_555
C19 C17 1_555 1_555
H33 C19 1_555 1_555
H34 C19 1_555 1_555
H35 C19 1_555 1_555
C20 S2 1_555 1_555
H36 C20 1_555 1_555
H37 C20 1_555 1_555
H38 C20 1_555 1_555
N3 C3 1_555 1_555
N4 C2 1_555 1_555
N5 C3 1_555 1_555
N8 C13 1_555 1_555
N10 C12 1_555 1_555

#END
