
#######################################################################
#
#                 Cambridge Crystallographic Data Centre
#                                CCDC 
#
#######################################################################
#
# If this CIF has been generated from an entry in the Cambridge 
# Structural Database, then it will include bibliographic, chemical, 
# crystal, experimental, refinement or atomic coordinate data resulting 
# from the CCDC's data processing and validation procedures.
#
#######################################################################

data_DADDER04
_chemical_formula_moiety         'C15 H10 O2'
_chemical_name_systematic        (Z)-3-Benzylidene-2-benzofuran-1(3H)-one
_symmetry_cell_setting           monoclinic
_symmetry_space_group_name_H-M   'P 21'
_symmetry_Int_Tables_number      4
_space_group_name_Hall           'P 2yb'
loop_
_symmetry_equiv_pos_site_id
_symmetry_equiv_pos_as_xyz
1 x,y,z
2 -x,1/2+y,-z
_cell_length_a                   7.3633(8)
_cell_length_b                   14.6658(18)
_cell_length_c                   10.5333(12)
_cell_angle_alpha                90
_cell_angle_beta                 96.857(2)
_cell_angle_gamma                90
_cell_volume                     1129.34
_exptl_crystal_colour            colorless
_cell_formula_units_Z            4
loop_
_atom_site_label
_atom_site_type_symbol
_atom_site_fract_x
_atom_site_fract_y
_atom_site_fract_z
C1 C 0.2077(4) 0.1027(2) 0.6190(3)
C2 C 0.0693(4) 0.0891(2) 0.7037(3)
C3 C -0.1049(4) 0.0518(2) 0.6855(3)
H1 H -0.1529 0.0290 0.6061
C4 C -0.2048(5) 0.0495(2) 0.7875(4)
H2 H -0.3222 0.0251 0.7769
C5 C -0.1332(5) 0.0828(3) 0.9057(3)
H3 H -0.2037 0.0804 0.9733
C6 C 0.0379(5) 0.1190(2) 0.9257(3)
H4 H 0.0853 0.1415 1.0053
C7 C 0.1379(4) 0.1210(2) 0.8236(3)
C8 C 0.3209(4) 0.1562(2) 0.8146(3)
C9 C 0.2072(4) 0.0796(2) 0.4961(3)
H5 H 0.0993 0.0528 0.4589
C10 C 0.3476(5) 0.0893(2) 0.4116(3)
C11 C 0.3122(5) 0.0544(3) 0.2881(4)
H6 H 0.1998 0.0271 0.2624
C12 C 0.4401(6) 0.0597(3) 0.2035(4)
H7 H 0.4140 0.0359 0.1215
C13 C 0.6067(6) 0.1002(3) 0.2401(4)
H8 H 0.6927 0.1047 0.1825
C14 C 0.6451(5) 0.1334(2) 0.3608(3)
H9 H 0.7583 0.1603 0.3854
C15 C 0.5196(4) 0.1279(2) 0.4470(3)
H10 H 0.5493 0.1501 0.5296
O1 O 0.3586(3) 0.14345(15) 0.68893(19)
O2 O 0.4330(3) 0.1923(2) 0.8909(2)
C16 C 0.1049(4) 0.2772(2) 0.2725(3)
C17 C 0.2885(4) 0.3111(2) 0.2640(3)
C18 C 0.3916(5) 0.3100(2) 0.1624(3)
H11 H 0.3463 0.2846 0.0840
C19 C 0.5629(5) 0.3476(3) 0.1815(4)
H12 H 0.6350 0.3488 0.1148
C20 C 0.6296(5) 0.3836(2) 0.2982(4)
H13 H 0.7470 0.4081 0.3089
C21 C 0.5288(4) 0.3846(2) 0.3994(3)
H14 H 0.5757 0.4092 0.4780
C22 C 0.3551(4) 0.3480(2) 0.3806(3)
C23 C 0.2151(5) 0.3379(2) 0.4661(3)
C24 C 0.2141(4) 0.3620(2) 0.5870(3)
H15 H 0.3204 0.3910 0.6227
C25 C 0.0762(5) 0.3512(2) 0.6743(3)
C26 C 0.1166(5) 0.3785(2) 0.8002(4)
H16 H 0.2294 0.4052 0.8267
C27 C -0.0079(6) 0.3669(3) 0.8869(3)
H17 H 0.0217 0.3860 0.9711
C28 C -0.1735(6) 0.3279(3) 0.8505(4)
H18 H -0.2559 0.3194 0.9098
C29 C -0.2186(5) 0.3010(2) 0.7262(3)
H19 H -0.3325 0.2752 0.7009
C30 C -0.0954(5) 0.3122(2) 0.6384(3)
H20 H -0.1270 0.2935 0.5542
O3 O 0.0656(3) 0.29479(15) 0.39589(18)
O4 O -0.0052(3) 0.24070(19) 0.1968(2)
loop_
_geom_bond_atom_site_label_1
_geom_bond_atom_site_label_2
_geom_bond_site_symmetry_1
_geom_bond_site_symmetry_2
C1 C2 1_555 1_555
C2 C3 1_555 1_555
C3 H1 1_555 1_555
C4 C3 1_555 1_555
H2 C4 1_555 1_555
C5 C4 1_555 1_555
H3 C5 1_555 1_555
C6 C5 1_555 1_555
H4 C6 1_555 1_555
C7 C2 1_555 1_555
C8 C7 1_555 1_555
C9 C1 1_555 1_555
H5 C9 1_555 1_555
C10 C9 1_555 1_555
C11 C10 1_555 1_555
H6 C11 1_555 1_555
C12 C11 1_555 1_555
H7 C12 1_555 1_555
C13 C12 1_555 1_555
H8 C13 1_555 1_555
C14 C13 1_555 1_555
H9 C14 1_555 1_555
C15 C10 1_555 1_555
H10 C15 1_555 1_555
O1 C1 1_555 1_555
O2 C8 1_555 1_555
C16 C17 1_555 1_555
C17 C18 1_555 1_555
C18 H11 1_555 1_555
C19 C18 1_555 1_555
H12 C19 1_555 1_555
C20 C19 1_555 1_555
H13 C20 1_555 1_555
C21 C20 1_555 1_555
H14 C21 1_555 1_555
C22 C17 1_555 1_555
C23 C22 1_555 1_555
C24 C23 1_555 1_555
H15 C24 1_555 1_555
C25 C24 1_555 1_555
C26 C25 1_555 1_555
H16 C26 1_555 1_555
C27 C26 1_555 1_555
H17 C27 1_555 1_555
C28 C27 1_555 1_555
H18 C28 1_555 1_555
C29 C28 1_555 1_555
H19 C29 1_555 1_555
C30 C25 1_555 1_555
H20 C30 1_555 1_555
O3 C16 1_555 1_555
O4 C16 1_555 1_555
C6 C7 1_555 1_555
C8 O1 1_555 1_555
C14 C15 1_555 1_555
C21 C22 1_555 1_555
C23 O3 1_555 1_555
C29 C30 1_555 1_555

#END
