
#######################################################################
#
#                 Cambridge Crystallographic Data Centre
#                                CCDC 
#
#######################################################################
#
# If this CIF has been generated from an entry in the Cambridge 
# Structural Database, then it will include bibliographic, chemical, 
# crystal, experimental, refinement or atomic coordinate data resulting 
# from the CCDC's data processing and validation procedures.
#
#######################################################################

data_DADJOJ
_chemical_name_common            'k01prr15 1a'
_chemical_formula_moiety         'C16 H22 O2 S1 Si2'
_chemical_name_systematic        
(2,3-Dihydrothieno[3,4-b][1,4]dioxine-5,7-diyldiethyne-2,1-diyl)bis(trimethylsilane)
_symmetry_cell_setting           monoclinic
_symmetry_space_group_name_H-M   'P 21/a'
_symmetry_Int_Tables_number      14
_space_group_name_Hall           '-P 2yab'
loop_
_symmetry_equiv_pos_site_id
_symmetry_equiv_pos_as_xyz
1 x,y,z
2 1/2-x,1/2+y,-z
3 -x,-y,-z
4 1/2+x,1/2-y,z
_cell_length_a                   7.3848(4)
_cell_length_b                   27.2437(12)
_cell_length_c                   9.4632(6)
_cell_angle_alpha                90
_cell_angle_beta                 99.407(2)
_cell_angle_gamma                90
_cell_volume                     1878.29
_exptl_crystal_colour            yellow
_exptl_crystal_description       block
_cell_formula_units_Z            4
loop_
_atom_site_label
_atom_site_type_symbol
_atom_site_fract_x
_atom_site_fract_y
_atom_site_fract_z
C1 C 0.8807(5) -0.03825(13) 0.3536(4)
C2 C 0.8531(4) -0.05335(14) 0.1998(4)
C3 C 0.6095(4) 0.00524(11) 0.2984(3)
C4 C 0.5500(4) -0.03006(11) 0.1915(3)
C5 C 0.4727(4) 0.03710(12) 0.3227(3)
C6 C 0.3666(4) -0.02679(11) 0.1378(3)
C7 C 0.4878(4) 0.07786(12) 0.4172(4)
C8 C 0.5002(4) 0.11312(12) 0.4947(4)
C9 C 0.7791(6) 0.16890(16) 0.6941(5)
C10 C 0.3731(7) 0.17725(16) 0.7211(5)
C11 C 0.5075(6) 0.22177(16) 0.4626(5)
C12 C 0.2644(4) -0.05959(12) 0.0392(3)
C13 C 0.1822(4) -0.09003(12) -0.0403(4)
C14 C 0.2419(8) -0.19395(19) -0.1128(6)
C15 C 0.0269(6) -0.12685(17) -0.3363(4)
C16 C -0.1431(6) -0.15796(17) -0.0784(5)
O1 O 0.7850(3) 0.00733(8) 0.3703(2)
O2 O 0.6620(3) -0.06436(8) 0.1484(2)
S1 S 0.26706(11) 0.02203(3) 0.21467(9)
Si1 Si 0.53978(13) 0.17089(3) 0.59615(10)
Si2 Si 0.07419(13) -0.14259(3) -0.14363(10)
H1 H 0.995(4) -0.0333(10) 0.387(3)
H2 H 0.832(4) -0.0647(12) 0.409(3)
H3 H 0.888(4) -0.0279(12) 0.141(3)
H4 H 0.911(4) -0.0858(13) 0.188(3)
H5 H -0.238(7) -0.1309(18) -0.082(5)
H6 H 0.390(6) 0.1502(18) 0.793(5)
H7 H 0.810(6) 0.1976(16) 0.736(4)
H8 H 0.130(6) -0.1183(15) -0.368(4)
H9 H 0.592(6) 0.2193(17) 0.393(5)
H10 H 0.531(6) 0.2515(17) 0.507(5)
H11 H 0.261(6) -0.2051(17) -0.023(5)
H12 H 0.794(5) 0.1448(16) 0.762(5)
H13 H 0.387(5) 0.2047(17) 0.767(4)
H14 H -0.026(6) -0.1539(18) -0.390(5)
H15 H -0.053(6) -0.1004(17) -0.362(4)
H16 H 0.881(6) 0.1623(16) 0.625(5)
H17 H 0.369(9) -0.185(2) -0.145(7)
H18 H -0.138(6) -0.1685(16) 0.017(5)
H19 H 0.249(7) 0.1714(16) 0.675(5)
H20 H 0.375(8) 0.218(2) 0.404(6)
H21 H -0.202(7) -0.1864(19) -0.134(5)
H22 H 0.194(7) -0.2219(19) -0.167(5)
loop_
_geom_bond_atom_site_label_1
_geom_bond_atom_site_label_2
_geom_bond_site_symmetry_1
_geom_bond_site_symmetry_2
C1 C2 1_555 1_555
C2 O2 1_555 1_555
C3 C4 1_555 1_555
C4 C6 1_555 1_555
C5 C3 1_555 1_555
C6 C12 1_555 1_555
C7 C5 1_555 1_555
C8 C7 1_555 1_555
C9 Si1 1_555 1_555
C10 Si1 1_555 1_555
C11 Si1 1_555 1_555
C12 C13 1_555 1_555
C13 Si2 1_555 1_555
C14 Si2 1_555 1_555
C15 Si2 1_555 1_555
C16 Si2 1_555 1_555
O1 C1 1_555 1_555
O2 C4 1_555 1_555
S1 C5 1_555 1_555
Si1 C8 1_555 1_555
H1 C1 1_555 1_555
H2 C1 1_555 1_555
H3 C2 1_555 1_555
H4 C2 1_555 1_555
H5 C16 1_555 1_555
H6 C10 1_555 1_555
H7 C9 1_555 1_555
H8 C15 1_555 1_555
H9 C11 1_555 1_555
H10 C11 1_555 1_555
H11 C14 1_555 1_555
H12 C9 1_555 1_555
H13 C10 1_555 1_555
H14 C15 1_555 1_555
H15 C15 1_555 1_555
H16 C9 1_555 1_555
H17 C14 1_555 1_555
H18 C16 1_555 1_555
H19 C10 1_555 1_555
H20 C11 1_555 1_555
H21 C16 1_555 1_555
H22 C14 1_555 1_555
C3 O1 1_555 1_555
C6 S1 1_555 1_555

#END
