
#######################################################################
#
#                 Cambridge Crystallographic Data Centre
#                                CCDC 
#
#######################################################################
#
# If this CIF has been generated from an entry in the Cambridge 
# Structural Database, then it will include bibliographic, chemical, 
# crystal, experimental, refinement or atomic coordinate data resulting 
# from the CCDC's data processing and validation procedures.
#
#######################################################################

data_DADNAZ
_chemical_name_common            
25,27-bis((1-(9-anthrylmethyl)-1H-1,2,3-triazol-4-yl)methoxy)-26,28-bis(4-amino-4-phenylbut-3-en-2-one)calix(4)arene
_chemical_formula_moiety         'C84 H68 N8 O6,3(C1 H1 Cl3)'
_chemical_name_systematic        
"1,1'-((26,28-bis((1-(9-anthrylmethyl)-1H-1,2,3-triazol-4-yl)methoxy)pentacyclo[19.3.1.1^3,7^.1^9,13^.1^15,19^]octacosa-1(25),3(28),4,6,9(27),10,12,15(26),16,18,21,23-dodecaene-25,27-diyl)bis(oxy))bis(4-amino-4-phenylbut-3-en-2-one) chloroform solvate"
_symmetry_cell_setting           monoclinic
_symmetry_space_group_name_H-M   'P 21/n'
_symmetry_Int_Tables_number      14
_space_group_name_Hall           '-P 2yn'
loop_
_symmetry_equiv_pos_site_id
_symmetry_equiv_pos_as_xyz
1 x,y,z
2 1/2-x,1/2+y,1/2-z
3 -x,-y,-z
4 1/2+x,1/2-y,1/2+z
_cell_length_a                   21.0890(5)
_cell_length_b                   16.6481(4)
_cell_length_c                   22.5350(9)
_cell_angle_alpha                90
_cell_angle_beta                 96.398(3)
_cell_angle_gamma                90
_cell_volume                     7862.58
_cell_formula_units_Z            4
loop_
_atom_site_label
_atom_site_type_symbol
_atom_site_fract_x
_atom_site_fract_y
_atom_site_fract_z
O1 O 0.88564(8) -0.06696(10) 0.65695(7)
O2 O 0.87240(8) 0.22454(10) 0.77859(7)
O3 O 0.70463(7) 0.10757(10) 0.64269(7)
O4 O 0.54229(9) 0.11040(13) 0.57810(8)
O5 O 0.97275(7) 0.17747(10) 0.58992(7)
O6 O 1.07823(9) 0.28645(12) 0.50608(8)
N1 N 0.93913(11) -0.25950(13) 0.72159(9)
N2 N 0.95776(11) -0.26923(13) 0.77877(10)
N3 N 0.95261(10) -0.19832(12) 0.80537(9)
N4 N 0.96036(11) 0.37052(15) 0.85172(9)
N5 N 0.98669(11) 0.43531(16) 0.83246(10)
N6 N 0.94752(10) 0.46272(13) 0.78580(9)
N7 N 0.54149(11) 0.17150(18) 0.46946(10)
H1 H 0.5185 0.1501 0.4957
H2 H 0.5234 0.1846 0.4337
N8 N 1.02336(11) 0.31482(13) 0.39857(9)
H3 H 1.0564 0.3254 0.4248
H4 H 1.0225 0.3324 0.3617
C1 C 0.86223(11) -0.02795(13) 0.60431(10)
C2 C 0.90485(11) 0.00640(14) 0.56806(10)
C3 C 0.87956(12) 0.04833(14) 0.51760(10)
H5 H 0.9075 0.0715 0.4921
C4 C 0.81386(13) 0.05697(15) 0.50375(10)
H6 H 0.7973 0.0855 0.4689
C5 C 0.77276(11) 0.02405(15) 0.54078(11)
H7 H 0.7280 0.0306 0.5313
C6 C 0.79611(11) -0.01868(14) 0.59200(10)
C7 C 0.75101(11) -0.05243(14) 0.63336(11)
H8 H 0.7613 -0.1097 0.6413
H9 H 0.7068 -0.0494 0.6135
C8 C 0.75524(10) -0.00721(14) 0.69214(10)
C9 C 0.78199(11) -0.04251(15) 0.74524(11)
H10 H 0.7939 -0.0976 0.7456
C10 C 0.79135(12) 0.00163(18) 0.79727(11)
H11 H 0.8081 -0.0237 0.8334
C11 C 0.77655(12) 0.08246(17) 0.79706(10)
H12 H 0.7855 0.1129 0.8326
C12 C 0.74855(11) 0.11999(15) 0.74517(10)
C13 C 0.73587(10) 0.07287(15) 0.69376(10)
C14 C 0.73670(11) 0.20981(15) 0.74241(11)
H13 H 0.7424 0.2325 0.7833
H14 H 0.6923 0.2204 0.7250
C15 C 0.78274(11) 0.24990(14) 0.70453(11)
C16 C 0.76076(12) 0.28059(16) 0.64888(12)
H15 H 0.7162 0.2831 0.6369
C17 C 0.80320(15) 0.30787(16) 0.61022(12)
H16 H 0.7874 0.3303 0.5727
C18 C 0.86808(14) 0.30242(15) 0.62632(11)
H17 H 0.8967 0.3184 0.5988
C19 C 0.89228(12) 0.27391(13) 0.68228(11)
C20 C 0.84897(11) 0.25030(13) 0.72167(10)
C21 C 0.96402(11) 0.26615(15) 0.69895(10)
H18 H 0.9867 0.2974 0.6705
H19 H 0.9757 0.2885 0.7394
C22 C 0.98452(11) 0.17907(15) 0.69782(10)
C23 C 1.00112(12) 0.13723(17) 0.75089(10)
H20 H 1.0025 0.1648 0.7879
C24 C 1.01563(12) 0.05621(17) 0.75039(11)
H21 H 1.0297 0.0294 0.7867
C25 C 1.00973(11) 0.01419(15) 0.69715(11)
H22 H 1.0179 -0.0419 0.6974
C26 C 0.99205(10) 0.05287(15) 0.64322(10)
C27 C 0.98321(10) 0.13608(15) 0.64392(10)
C28 C 0.97651(11) 0.00588(14) 0.58591(10)
H23 H 0.9917 -0.0501 0.5917
H24 H 0.9985 0.0303 0.5538
C29 C 0.63732(11) 0.09345(15) 0.64004(10)
H25 H 0.6209 0.1202 0.6744
H26 H 0.6298 0.0350 0.6436
C30 C 0.60052(11) 0.12392(14) 0.58270(10)
C31 C 0.63339(11) 0.16388(15) 0.54002(11)
H27 H 0.6770 0.1773 0.5501
C32 C 0.60409(12) 0.18406(16) 0.48405(11)
C33 C 0.64052(13) 0.21997(16) 0.43803(12)
C34 C 0.70076(15) 0.2529(2) 0.45340(14)
H28 H 0.7187 0.2527 0.4940
C35 C 0.73494(16) 0.2859(3) 0.41038(17)
H29 H 0.7760 0.3081 0.4215
C36 C 0.70925(19) 0.2864(2) 0.35120(16)
H30 H 0.7326 0.3094 0.3217
C37 C 0.6497(2) 0.2538(2) 0.33486(14)
H31 H 0.6322 0.2541 0.2941
C38 C 0.61547(17) 0.2206(2) 0.37768(13)
H32 H 0.5746 0.1981 0.3661
C39 C 1.03254(11) 0.20707(16) 0.57456(10)
H33 H 1.0626 0.1614 0.5741
H34 H 1.0504 0.2448 0.6061
C40 C 1.02869(12) 0.24956(14) 0.51479(10)
C41 C 0.97388(11) 0.24347(14) 0.47222(11)
H35 H 0.9362 0.2193 0.4834
C42 C 0.97472(12) 0.27234(14) 0.41466(11)
C43 C 0.92199(13) 0.25717(17) 0.36617(11)
C44 C 0.89069(15) 0.18407(18) 0.36131(13)
H36 H 0.9005 0.1439 0.3909
C45 C 0.84472(18) 0.1690(2) 0.31317(17)
H37 H 0.8233 0.1188 0.3100
C46 C 0.83043(17) 0.2276(2) 0.27003(16)
H38 H 0.7997 0.2171 0.2369
C47 C 0.86072(16) 0.3008(2) 0.27517(14)
H39 H 0.8501 0.3412 0.2460
C48 C 0.90659(15) 0.3158(2) 0.32270(14)
H40 H 0.9277 0.3662 0.3258
C49 C 0.89953(13) -0.14988(14) 0.65069(11)
H41 H 0.9330 -0.1570 0.6237
H42 H 0.8608 -0.1792 0.6338
C50 C 0.92229(11) -0.18133(14) 0.71197(11)
C51 C 0.93052(12) -0.14141(14) 0.76534(11)
H43 H 0.9226 -0.0863 0.7727
C52 C 0.96886(13) -0.19272(15) 0.87110(11)
H44 H 1.0070 -0.2260 0.8832
H45 H 0.9331 -0.2143 0.8912
C53 C 0.98198(12) -0.10698(15) 0.89113(10)
C54 C 0.93590(13) -0.06344(16) 0.91907(10)
C55 C 0.87770(13) -0.09739(18) 0.93447(11)
H46 H 0.8693 -0.1527 0.9269
C56 C 0.83386(15) -0.0522(2) 0.95986(13)
H47 H 0.7957 -0.0766 0.9698
C57 C 0.84466(16) 0.0305(2) 0.97148(13)
H48 H 0.8131 0.0618 0.9877
C58 C 0.89971(17) 0.06468(19) 0.95947(12)
H49 H 0.9066 0.1201 0.9681
C59 C 0.94820(14) 0.02019(16) 0.93416(11)
C60 C 1.00564(15) 0.05387(16) 0.92490(11)
H50 H 1.0134 0.1084 0.9357
C61 C 1.05261(14) 0.01122(17) 0.90036(11)
C62 C 1.11280(16) 0.0471(2) 0.89239(12)
H51 H 1.1216 0.1004 0.9058
C63 C 1.15711(16) 0.0057(2) 0.86601(14)
H52 H 1.1972 0.0296 0.8616
C64 C 1.14383(15) -0.0732(2) 0.84502(14)
H53 H 1.1749 -0.1009 0.8254
C65 C 1.08775(14) -0.11062(19) 0.85210(13)
H54 H 1.0803 -0.1637 0.8374
C66 C 1.04018(13) -0.07078(17) 0.88141(11)
C67 C 0.86504(12) 0.28320(17) 0.82458(10)
H55 H 0.8782 0.2590 0.8642
H56 H 0.8195 0.2983 0.8231
C68 C 0.90378(11) 0.35677(16) 0.81754(10)
C69 C 0.89533(11) 0.41623(15) 0.77551(10)
H57 H 0.8603 0.4232 0.7456
C70 C 0.96696(14) 0.53050(16) 0.74973(13)
H58 H 1.0045 0.5576 0.7711
H59 H 0.9318 0.5700 0.7435
C71 C 0.98335(13) 0.49998(15) 0.68972(12)
C72 C 0.93736(13) 0.50329(15) 0.63965(12)
C73 C 0.87402(15) 0.53417(18) 0.63992(14)
H60 H 0.8616 0.5555 0.6760
C74 C 0.83112(15) 0.5340(2) 0.59025(16)
H61 H 0.7895 0.5547 0.5923
C75 C 0.84775(16) 0.5030(2) 0.53527(15)
H62 H 0.8174 0.5036 0.5008
C76 C 0.90667(16) 0.47291(19) 0.53208(13)
H63 H 0.9172 0.4516 0.4953
C77 C 0.95344(13) 0.47249(16) 0.58306(12)
C78 C 1.01414(14) 0.44105(16) 0.57968(12)
H64 H 1.0248 0.4215 0.5424
C79 C 1.05938(13) 0.43744(16) 0.62898(13)
C80 C 1.12148(14) 0.40359(18) 0.62503(14)
H65 H 1.1326 0.3859 0.5874
C81 C 1.16429(14) 0.3965(2) 0.67407(16)
H66 H 1.2051 0.3741 0.6706
C82 C 1.14867(15) 0.4224(2) 0.73049(16)
H67 H 1.1786 0.4154 0.7649
C83 C 1.09095(14) 0.45732(18) 0.73600(14)
H68 H 1.0819 0.4759 0.7740
C84 C 1.04390(13) 0.46636(15) 0.68568(13)
Cl1 Cl 0.15575(3) 0.03642(4) 0.61963(3)
Cl2 Cl 0.17691(4) 0.19107(4) 0.67794(3)
Cl3 Cl 0.23233(4) 0.04717(5) 0.73315(4)
C85 C 0.16571(13) 0.08779(18) 0.68850(12)
H69 H 0.1267 0.0798 0.7093
Cl4 Cl 0.65168(4) 1.01220(6) 0.40425(4)
Cl5 Cl 0.60152(5) 0.92588(9) 0.49859(4)
Cl6 Cl 0.60517(7) 0.85343(8) 0.38145(8)
C86 C 0.59536(14) 0.9409(2) 0.42164(14)
H70 H 0.5519 0.9628 0.4086
Cl7 Cl 0.73243(5) 0.68643(5) 0.44163(4)
Cl8 Cl 0.74418(6) 0.72894(6) 0.56636(4)
Cl9 Cl 0.78315(7) 0.84069(6) 0.48157(5)
C87 C 0.77814(14) 0.73971(18) 0.49869(14)
H71 H 0.8222 0.7167 0.5040
loop_
_geom_bond_atom_site_label_1
_geom_bond_atom_site_label_2
_geom_bond_site_symmetry_1
_geom_bond_site_symmetry_2
O1 C1 1_555 1_555
O2 C20 1_555 1_555
O3 C13 1_555 1_555
O4 C30 1_555 1_555
O5 C27 1_555 1_555
O6 C40 1_555 1_555
N1 N2 1_555 1_555
N2 N3 1_555 1_555
N3 C51 1_555 1_555
N4 N5 1_555 1_555
N5 N6 1_555 1_555
N6 C69 1_555 1_555
N7 H1 1_555 1_555
H2 N7 1_555 1_555
N8 H3 1_555 1_555
H4 N8 1_555 1_555
C1 C2 1_555 1_555
C2 C3 1_555 1_555
C3 H5 1_555 1_555
C4 C3 1_555 1_555
H6 C4 1_555 1_555
C5 C4 1_555 1_555
H7 C5 1_555 1_555
C6 C1 1_555 1_555
C7 C6 1_555 1_555
H8 C7 1_555 1_555
H9 C7 1_555 1_555
C8 C7 1_555 1_555
C9 C8 1_555 1_555
H10 C9 1_555 1_555
C10 C9 1_555 1_555
H11 C10 1_555 1_555
C11 C10 1_555 1_555
H12 C11 1_555 1_555
C12 C11 1_555 1_555
C13 C8 1_555 1_555
C14 C12 1_555 1_555
H13 C14 1_555 1_555
H14 C14 1_555 1_555
C15 C14 1_555 1_555
C16 C15 1_555 1_555
H15 C16 1_555 1_555
C17 C16 1_555 1_555
H16 C17 1_555 1_555
C18 C17 1_555 1_555
H17 C18 1_555 1_555
C19 C18 1_555 1_555
C20 C15 1_555 1_555
C21 C19 1_555 1_555
H18 C21 1_555 1_555
H19 C21 1_555 1_555
C22 C21 1_555 1_555
C23 C22 1_555 1_555
H20 C23 1_555 1_555
C24 C23 1_555 1_555
H21 C24 1_555 1_555
C25 C24 1_555 1_555
H22 C25 1_555 1_555
C26 C25 1_555 1_555
C27 C22 1_555 1_555
C28 C2 1_555 1_555
H23 C28 1_555 1_555
H24 C28 1_555 1_555
C29 O3 1_555 1_555
H25 C29 1_555 1_555
H26 C29 1_555 1_555
C30 C29 1_555 1_555
C31 C30 1_555 1_555
H27 C31 1_555 1_555
C32 N7 1_555 1_555
C33 C32 1_555 1_555
C34 C33 1_555 1_555
H28 C34 1_555 1_555
C35 C34 1_555 1_555
H29 C35 1_555 1_555
C36 C35 1_555 1_555
H30 C36 1_555 1_555
C37 C36 1_555 1_555
H31 C37 1_555 1_555
C38 C33 1_555 1_555
H32 C38 1_555 1_555
C39 O5 1_555 1_555
H33 C39 1_555 1_555
H34 C39 1_555 1_555
C40 C39 1_555 1_555
C41 C40 1_555 1_555
H35 C41 1_555 1_555
C42 N8 1_555 1_555
C43 C42 1_555 1_555
C44 C43 1_555 1_555
H36 C44 1_555 1_555
C45 C44 1_555 1_555
H37 C45 1_555 1_555
C46 C45 1_555 1_555
H38 C46 1_555 1_555
C47 C46 1_555 1_555
H39 C47 1_555 1_555
C48 C43 1_555 1_555
H40 C48 1_555 1_555
C49 O1 1_555 1_555
H41 C49 1_555 1_555
H42 C49 1_555 1_555
C50 N1 1_555 1_555
C51 C50 1_555 1_555
H43 C51 1_555 1_555
C52 N3 1_555 1_555
H44 C52 1_555 1_555
H45 C52 1_555 1_555
C53 C52 1_555 1_555
C54 C53 1_555 1_555
C55 C54 1_555 1_555
H46 C55 1_555 1_555
C56 C55 1_555 1_555
H47 C56 1_555 1_555
C57 C56 1_555 1_555
H48 C57 1_555 1_555
C58 C57 1_555 1_555
H49 C58 1_555 1_555
C59 C54 1_555 1_555
C60 C59 1_555 1_555
H50 C60 1_555 1_555
C61 C60 1_555 1_555
C62 C61 1_555 1_555
H51 C62 1_555 1_555
C63 C62 1_555 1_555
H52 C63 1_555 1_555
C64 C63 1_555 1_555
H53 C64 1_555 1_555
C65 C64 1_555 1_555
H54 C65 1_555 1_555
C66 C53 1_555 1_555
C67 O2 1_555 1_555
H55 C67 1_555 1_555
H56 C67 1_555 1_555
C68 N4 1_555 1_555
C69 C68 1_555 1_555
H57 C69 1_555 1_555
C70 N6 1_555 1_555
H58 C70 1_555 1_555
H59 C70 1_555 1_555
C71 C70 1_555 1_555
C72 C71 1_555 1_555
C73 C72 1_555 1_555
H60 C73 1_555 1_555
C74 C73 1_555 1_555
H61 C74 1_555 1_555
C75 C74 1_555 1_555
H62 C75 1_555 1_555
C76 C75 1_555 1_555
H63 C76 1_555 1_555
C77 C72 1_555 1_555
C78 C77 1_555 1_555
H64 C78 1_555 1_555
C79 C78 1_555 1_555
C80 C79 1_555 1_555
H65 C80 1_555 1_555
C81 C80 1_555 1_555
H66 C81 1_555 1_555
C82 C81 1_555 1_555
H67 C82 1_555 1_555
C83 C82 1_555 1_555
H68 C83 1_555 1_555
C84 C71 1_555 1_555
Cl1 C85 1_555 1_555
Cl2 C85 1_555 1_555
Cl3 C85 1_555 1_555
C85 H69 1_555 1_555
Cl4 C86 1_555 1_555
Cl5 C86 1_555 1_555
Cl6 C86 1_555 1_555
C86 H70 1_555 1_555
Cl7 C87 1_555 1_555
Cl8 C87 1_555 1_555
Cl9 C87 1_555 1_555
C87 H71 1_555 1_555
C5 C6 1_555 1_555
C12 C13 1_555 1_555
C19 C20 1_555 1_555
C26 C27 1_555 1_555
C26 C28 1_555 1_555
C31 C32 1_555 1_555
C37 C38 1_555 1_555
C41 C42 1_555 1_555
C47 C48 1_555 1_555
C49 C50 1_555 1_555
C58 C59 1_555 1_555
C61 C66 1_555 1_555
C65 C66 1_555 1_555
C67 C68 1_555 1_555
C76 C77 1_555 1_555
C79 C84 1_555 1_555
C83 C84 1_555 1_555

#END
