
#######################################################################
#
#                 Cambridge Crystallographic Data Centre
#                                CCDC 
#
#######################################################################
#
# If this CIF has been generated from an entry in the Cambridge 
# Structural Database, then it will include bibliographic, chemical, 
# crystal, experimental, refinement or atomic coordinate data resulting 
# from the CCDC's data processing and validation procedures.
#
#######################################################################

data_DADQIJ
_chemical_formula_moiety         'C15 H15 N5 O4'
_chemical_name_systematic        
'4-(Dimethylamino)benzaldehyde (2,4-dinitrophenyl)hydrazone'
_symmetry_cell_setting           monoclinic
_symmetry_space_group_name_H-M   'C 2/c'
_symmetry_Int_Tables_number      15
_space_group_name_Hall           '-C 2yn'
loop_
_symmetry_equiv_pos_site_id
_symmetry_equiv_pos_as_xyz
1 x,y,z
2 1/2+x,1/2+y,z
3 x,-y,1/2+z
4 1/2+x,1/2-y,1/2+z
5 -x,-y,-z
6 1/2-x,1/2-y,-z
7 -x,y,1/2-z
8 1/2-x,1/2+y,1/2-z
_cell_length_a                   11.243(6)
_cell_length_b                   10.526(5)
_cell_length_c                   26.029(9)
_cell_angle_alpha                90
_cell_angle_beta                 96.219(9)
_cell_angle_gamma                90
_cell_volume                     3062.24
_exptl_crystal_colour            black
_exptl_crystal_description       block
_cell_formula_units_Z            8
loop_
_atom_site_label
_atom_site_type_symbol
_atom_site_fract_x
_atom_site_fract_y
_atom_site_fract_z
N1 N 0.3590(2) 0.1806(2) 0.47241(10)
N2 N 0.3798(2) 0.2975(2) 0.45050(9)
H1 H 0.4235 0.3530 0.4679
C1 C 0.4128(3) 0.1657(3) 0.51792(12)
H2 H 0.4599 0.2317 0.5326
C2 C 0.3320(2) 0.3244(3) 0.40203(11)
C3 C 0.3344(3) -0.0536(3) 0.52924(11)
H3 H 0.2923 -0.0498 0.4965
C4 C 0.4031(3) 0.0500(3) 0.54767(10)
O1 O 0.4740(2) 0.5242(2) 0.44603(9)
N3 N 0.3829(2) -0.2810(3) 0.63704(9)
C5 C 0.3273(3) -0.1612(3) 0.55843(11)
H4 H 0.2804 -0.2287 0.5450
C6 C 0.3893(3) -0.1720(3) 0.60814(11)
C7 C 0.4637(3) 0.0400(3) 0.59666(11)
H5 H 0.5097 0.1083 0.6100
C8 C 0.3524(3) 0.4408(3) 0.37710(11)
N4 N 0.4294(2) 0.5378(3) 0.40091(11)
C9 C 0.2989(3) 0.4665(3) 0.32767(12)
H6 H 0.3116 0.5441 0.3121
C10 C 0.4581(3) -0.0672(3) 0.62635(10)
H7 H 0.5006 -0.0703 0.6590
N5 N 0.1703(3) 0.4042(3) 0.25054(11)
C11 C 0.2273(3) 0.3766(3) 0.30210(11)
O2 O 0.1799(3) 0.5125(3) 0.23346(9)
C12 C 0.4313(3) -0.2817(3) 0.69085(11)
H8 H 0.5131 -0.2538 0.6938
H9 H 0.4276 -0.3663 0.7044
H10 H 0.3854 -0.2255 0.7100
C13 C 0.2573(3) 0.2354(3) 0.37352(12)
H11 H 0.2428 0.1574 0.3884
O3 O 0.4497(3) 0.6329(2) 0.37594(10)
O4 O 0.1180(3) 0.3194(3) 0.22592(10)
C14 C 0.2063(3) 0.2607(3) 0.32514(12)
H12 H 0.1572 0.2006 0.3073
C15 C 0.2979(3) -0.3792(3) 0.62089(13)
H13 H 0.2188 -0.3435 0.6161
H14 H 0.3010 -0.4442 0.6469
H15 H 0.3170 -0.4153 0.5889
loop_
_geom_bond_atom_site_label_1
_geom_bond_atom_site_label_2
_geom_bond_site_symmetry_1
_geom_bond_site_symmetry_2
N1 N2 1_555 1_555
N2 H1 1_555 1_555
C1 N1 1_555 1_555
H2 C1 1_555 1_555
C2 N2 1_555 1_555
C3 H3 1_555 1_555
C4 C1 1_555 1_555
O1 N4 1_555 1_555
N3 C6 1_555 1_555
C5 C3 1_555 1_555
H4 C5 1_555 1_555
C6 C5 1_555 1_555
C7 C4 1_555 1_555
H5 C7 1_555 1_555
C8 C2 1_555 1_555
N4 C8 1_555 1_555
C9 C8 1_555 1_555
H6 C9 1_555 1_555
C10 C6 1_555 1_555
H7 C10 1_555 1_555
N5 C11 1_555 1_555
C11 C9 1_555 1_555
O2 N5 1_555 1_555
C12 N3 1_555 1_555
H8 C12 1_555 1_555
H9 C12 1_555 1_555
H10 C12 1_555 1_555
C13 C2 1_555 1_555
H11 C13 1_555 1_555
O3 N4 1_555 1_555
O4 N5 1_555 1_555
C14 C11 1_555 1_555
H12 C14 1_555 1_555
C15 N3 1_555 1_555
H13 C15 1_555 1_555
H14 C15 1_555 1_555
H15 C15 1_555 1_555
C3 C4 1_555 1_555
C7 C10 1_555 1_555
C13 C14 1_555 1_555

#END
