
#######################################################################
#
#                 Cambridge Crystallographic Data Centre
#                                CCDC 
#
#######################################################################
#
# If this CIF has been generated from an entry in the Cambridge 
# Structural Database, then it will include bibliographic, chemical, 
# crystal, experimental, refinement or atomic coordinate data resulting 
# from the CCDC's data processing and validation procedures.
#
#######################################################################

data_DADZOZ
_chemical_formula_moiety         'C22 H24 Cl3 N1 O4'
_chemical_name_systematic        
(R,R)-N-Benzyl-3'-(benzyloxy)-N-(trichloroacetyl)isoleucine
_symmetry_cell_setting           orthorhombic
_symmetry_space_group_name_H-M   'P 21 21 21'
_symmetry_Int_Tables_number      19
_space_group_name_Hall           'P 2ac 2ab'
loop_
_symmetry_equiv_pos_site_id
_symmetry_equiv_pos_as_xyz
1 x,y,z
2 1/2-x,-y,1/2+z
3 1/2+x,1/2-y,-z
4 -x,1/2+y,1/2-z
_cell_length_a                   6.4180(2)
_cell_length_b                   17.9496(4)
_cell_length_c                   40.0556(10)
_cell_angle_alpha                90
_cell_angle_beta                 90
_cell_angle_gamma                90
_cell_volume                     4614.43
_exptl_crystal_colour            colorless
_exptl_crystal_description       prism
_cell_formula_units_Z            8
loop_
_atom_site_label
_atom_site_type_symbol
_atom_site_fract_x
_atom_site_fract_y
_atom_site_fract_z
Cl1 Cl 0.03339(15) 0.82548(4) 0.061655(19)
C1 C -0.0141(5) 0.87713(14) 0.02464(6)
Cl2 Cl -0.26949(16) 0.85920(4) 0.009733(19)
O1 O 0.1345(3) 0.99637(9) 0.01256(4)
C2 C 0.0132(4) 0.96304(12) 0.03044(5)
Cl3 Cl 0.16665(18) 0.84737(4) -0.00571(2)
N1 N -0.1009(3) 0.99797(10) 0.05402(4)
C3 C -0.0762(4) 1.07935(12) 0.05482(5)
H1 H -0.1547 1.0972 0.0749
C4 C -0.1708(4) 1.12094(12) 0.02428(5)
H2 H -0.0590 1.1251 0.0070
C5 C -0.2296(4) 1.19990(13) 0.03493(6)
H3 H -0.1077 1.2245 0.0453
H4 H -0.2705 1.2293 0.0151
O2 O -0.3991(3) 1.19797(10) 0.05829(5)
C6 C -0.3994(5) 1.26153(16) 0.08036(8)
H5 H -0.5348 1.2644 0.0921
H6 H -0.3820 1.3077 0.0671
C7 C -0.2255(5) 1.25563(14) 0.10561(6)
C8 C -0.0724(4) 1.30946(14) 0.10858(6)
H7 H -0.0793 1.3528 0.0950
C9 C 0.0902(5) 1.30148(16) 0.13087(7)
H8 H 0.1929 1.3394 0.1329
C10 C 0.1023(7) 1.23813(19) 0.15017(8)
H9 H 0.2149 1.2318 0.1653
C11 C -0.0500(9) 1.18338(18) 0.14754(8)
H10 H -0.0411 1.1396 0.1608
C12 C -0.2116(7) 1.19250(16) 0.12601(7)
H11 H -0.3170 1.1554 0.1248
C13 C -0.2677(4) 0.96705(13) 0.07551(5)
H12 H -0.2855 0.9135 0.0703
H13 H -0.4004 0.9926 0.0702
C14 C -0.2240(4) 0.97531(13) 0.11286(5)
C15 C -0.0296(4) 0.96233(13) 0.12680(6)
H14 H 0.0856 0.9512 0.1128
C16 C -0.0023(4) 0.96548(13) 0.16123(6)
H15 H 0.1319 0.9573 0.1705
C17 C -0.1680(5) 0.98037(14) 0.18184(6)
H16 H -0.1489 0.9811 0.2054
C18 C -0.3646(4) 0.99438(14) 0.16831(6)
H17 H -0.4789 1.0055 0.1825
C19 C -0.3917(4) 0.99193(13) 0.13386(6)
H18 H -0.5251 1.0016 0.1245
C20 C 0.1535(4) 1.09765(13) 0.06128(6)
O3 O 0.2662(3) 1.06029(10) 0.07852(4)
O4 O 0.2128(3) 1.16100(9) 0.04671(5)
H19 H 0.3378 1.1698 0.0515
C21 C -0.3549(4) 1.07910(12) 0.00835(6)
H20 H -0.3074 1.0292 0.0011
H21 H -0.4653 1.0721 0.0253
C22 C -0.4457(5) 1.12010(16) -0.02149(7)
H22 H -0.5079 1.1671 -0.0140
H23 H -0.5530 1.0891 -0.0320
H24 H -0.3349 1.1305 -0.0377
Cl4 Cl 0.52905(15) 0.35530(4) 0.267661(19)
C23 C 0.6668(5) 0.38350(13) 0.23162(6)
Cl5 Cl 0.58826(14) 0.32452(4) 0.198220(19)
O5 O 0.5028(3) 0.50042(9) 0.24356(4)
C24 C 0.6173(4) 0.46772(12) 0.22435(6)
Cl6 Cl 0.93666(12) 0.37227(4) 0.239759(17)
N2 N 0.7113(3) 0.50071(9) 0.19816(4)
C25 C 0.6695(4) 0.58079(11) 0.19452(5)
H25 H 0.7376 0.5960 0.1731
C26 C 0.7664(4) 0.63148(12) 0.22212(5)
H26 H 0.6568 0.6397 0.2395
C27 C 0.8174(4) 0.70749(12) 0.20673(6)
H27 H 0.6927 0.7276 0.1953
H28 H 0.8585 0.7429 0.2245
O6 O 0.9850(3) 0.69923(8) 0.18316(4)
C28 C 1.0247(4) 0.76775(13) 0.16552(6)
H29 H 1.0717 0.8066 0.1814
H30 H 0.8954 0.7853 0.1546
C29 C 1.1907(4) 0.75427(13) 0.13962(6)
C30 C 1.3646(4) 0.79966(14) 0.13782(6)
H31 H 1.3779 0.8404 0.1528
C31 C 1.5192(5) 0.78666(16) 0.11453(7)
H32 H 1.6357 0.8191 0.1132
C32 C 1.5040(6) 0.72643(17) 0.09325(8)
H33 H 1.6121 0.7165 0.0777
C33 C 1.3309(6) 0.68066(16) 0.09465(8)
H34 H 1.3196 0.6394 0.0799
C34 C 1.1731(5) 0.69486(14) 0.11766(7)
H35 H 1.0533 0.6638 0.1183
C35 C 0.8560(4) 0.46806(13) 0.17356(5)
H36 H 0.8675 0.4138 0.1776
H37 H 0.9959 0.4902 0.1767
C36 C 0.7854(4) 0.48100(12) 0.13792(5)
C37 C 0.5867(5) 0.45999(14) 0.12722(6)
H38 H 0.4902 0.4392 0.1426
C38 C 0.5310(6) 0.46964(16) 0.09405(7)
H39 H 0.3963 0.4548 0.0868
C39 C 0.6682(6) 0.50037(16) 0.07164(7)
H40 H 0.6277 0.5070 0.0490
C40 C 0.8650(6) 0.52159(16) 0.08187(7)
H41 H 0.9594 0.5429 0.0663
C41 C 0.9254(5) 0.51163(13) 0.11524(6)
H42 H 1.0611 0.5257 0.1223
C42 C 0.4361(4) 0.59283(12) 0.18931(5)
O7 O 0.3228(3) 0.54750(10) 0.17652(4)
O8 O 0.3748(3) 0.66026(8) 0.19881(4)
H43 H 0.2516 0.6675 0.1925
C43 C 0.9546(4) 0.59597(12) 0.23956(5)
H44 H 0.9078 0.5511 0.2518
H45 H 1.0563 0.5798 0.2224
C44 C 1.0624(5) 0.64843(15) 0.26387(6)
H46 H 1.1251 0.6899 0.2515
H47 H 1.1715 0.6213 0.2759
H48 H 0.9602 0.6679 0.2798
loop_
_geom_bond_atom_site_label_1
_geom_bond_atom_site_label_2
_geom_bond_site_symmetry_1
_geom_bond_site_symmetry_2
Cl1 C1 1_555 1_555
C1 Cl2 1_555 1_555
O1 C2 1_555 1_555
C2 C1 1_555 1_555
Cl3 C1 1_555 1_555
N1 C2 1_555 1_555
C3 N1 1_555 1_555
H1 C3 1_555 1_555
C4 C3 1_555 1_555
H2 C4 1_555 1_555
C5 C4 1_555 1_555
H3 C5 1_555 1_555
H4 C5 1_555 1_555
O2 C5 1_555 1_555
C6 O2 1_555 1_555
H5 C6 1_555 1_555
H6 C6 1_555 1_555
C7 C6 1_555 1_555
C8 C7 1_555 1_555
H7 C8 1_555 1_555
C9 C8 1_555 1_555
H8 C9 1_555 1_555
C10 C9 1_555 1_555
H9 C10 1_555 1_555
C11 C10 1_555 1_555
H10 C11 1_555 1_555
C12 C7 1_555 1_555
H11 C12 1_555 1_555
C13 N1 1_555 1_555
H12 C13 1_555 1_555
H13 C13 1_555 1_555
C14 C13 1_555 1_555
C15 C14 1_555 1_555
H14 C15 1_555 1_555
C16 C15 1_555 1_555
H15 C16 1_555 1_555
C17 C16 1_555 1_555
H16 C17 1_555 1_555
C18 C17 1_555 1_555
H17 C18 1_555 1_555
C19 C14 1_555 1_555
H18 C19 1_555 1_555
C20 C3 1_555 1_555
O3 C20 1_555 1_555
O4 C20 1_555 1_555
H19 O4 1_555 1_555
C21 C4 1_555 1_555
H20 C21 1_555 1_555
H21 C21 1_555 1_555
C22 C21 1_555 1_555
H22 C22 1_555 1_555
H23 C22 1_555 1_555
H24 C22 1_555 1_555
Cl4 C23 1_555 1_555
C23 Cl5 1_555 1_555
O5 C24 1_555 1_555
C24 C23 1_555 1_555
Cl6 C23 1_555 1_555
N2 C24 1_555 1_555
C25 N2 1_555 1_555
H25 C25 1_555 1_555
C26 C25 1_555 1_555
H26 C26 1_555 1_555
C27 C26 1_555 1_555
H27 C27 1_555 1_555
H28 C27 1_555 1_555
O6 C27 1_555 1_555
C28 O6 1_555 1_555
H29 C28 1_555 1_555
H30 C28 1_555 1_555
C29 C28 1_555 1_555
C30 C29 1_555 1_555
H31 C30 1_555 1_555
C31 C30 1_555 1_555
H32 C31 1_555 1_555
C32 C31 1_555 1_555
H33 C32 1_555 1_555
C33 C32 1_555 1_555
H34 C33 1_555 1_555
C34 C29 1_555 1_555
H35 C34 1_555 1_555
C35 N2 1_555 1_555
H36 C35 1_555 1_555
H37 C35 1_555 1_555
C36 C35 1_555 1_555
C37 C36 1_555 1_555
H38 C37 1_555 1_555
C38 C37 1_555 1_555
H39 C38 1_555 1_555
C39 C38 1_555 1_555
H40 C39 1_555 1_555
C40 C39 1_555 1_555
H41 C40 1_555 1_555
C41 C36 1_555 1_555
H42 C41 1_555 1_555
C42 C25 1_555 1_555
O7 C42 1_555 1_555
O8 C42 1_555 1_555
H43 O8 1_555 1_555
C43 C26 1_555 1_555
H44 C43 1_555 1_555
H45 C43 1_555 1_555
C44 C43 1_555 1_555
H46 C44 1_555 1_555
H47 C44 1_555 1_555
H48 C44 1_555 1_555
C11 C12 1_555 1_555
C18 C19 1_555 1_555
C33 C34 1_555 1_555
C40 C41 1_555 1_555

#END
