
#######################################################################
#
#                 Cambridge Crystallographic Data Centre
#                                CCDC 
#
#######################################################################
#
# If this CIF has been generated from an entry in the Cambridge 
# Structural Database, then it will include bibliographic, chemical, 
# crystal, experimental, refinement or atomic coordinate data resulting 
# from the CCDC's data processing and validation procedures.
#
#######################################################################

data_DAFBOD
_chemical_formula_moiety         'C19 H25 N1 O4'
_chemical_name_systematic        
(+-)-3-Acetoxy-7(a)-ethyl-1-(4-methoxyphenyl)-2-oxo-1-azaspiro[3.5]nonane
_symmetry_cell_setting           monoclinic
_symmetry_space_group_name_H-M   'P 21/c'
_symmetry_Int_Tables_number      14
_space_group_name_Hall           '-P 2ybc'
loop_
_symmetry_equiv_pos_site_id
_symmetry_equiv_pos_as_xyz
1 x,y,z
2 -x,1/2+y,1/2-z
3 -x,-y,-z
4 x,1/2-y,1/2+z
_cell_length_a                   9.766(5)
_cell_length_b                   15.452(5)
_cell_length_c                   12.887(5)
_cell_angle_alpha                90
_cell_angle_beta                 110.760(5)
_cell_angle_gamma                90
_cell_volume                     1818.44
_cell_formula_units_Z            4
loop_
_atom_site_label
_atom_site_type_symbol
_atom_site_fract_x
_atom_site_fract_y
_atom_site_fract_z
C1 C -0.1800(3) 0.11756(18) 0.1080(2)
C2 C -0.2958(3) 0.1703(2) 0.1323(2)
H1 H -0.2497 0.2181 0.1809
H2 H -0.3448 0.1344 0.1702
C3 C -0.4086(3) 0.2055(2) 0.0246(3)
H3 H -0.4611 0.1574 -0.0203
H4 H -0.4791 0.241 0.0426
C4 C -0.3392(4) 0.2589(2) -0.0423(3)
H5 H -0.4165 0.2728 -0.1131
C5 C -0.2280(4) 0.2025(2) -0.0682(2)
H6 H -0.1797 0.2369 -0.1082
H7 H -0.2792 0.1557 -0.1167
C6 C -0.1120(3) 0.1640(2) 0.0344(2)
H8 H -0.0521 0.1236 0.0115
H9 H -0.0487 0.2099 0.0765
C7 C -0.2730(4) 0.3453(2) 0.0126(3)
H10 H -0.1952 0.3334 0.0827
H11 H -0.2302 0.3751 -0.0348
C8 C -0.3858(5) 0.4045(3) 0.0334(5)
H12 H -0.3387 0.4566 0.0691
H13 H -0.4288 0.3755 0.0802
H14 H -0.4609 0.4188 -0.0361
C9 C -0.1034(4) -0.0048(2) 0.1781(3)
C10 C -0.2262(3) 0.02204(19) 0.0739(2)
H15 H -0.3226 0.0085 0.0772
C11 C -0.3305(4) -0.0227(2) -0.1142(3)
C12 C -0.2914(4) -0.0623(3) -0.2057(3)
H16 H -0.188 -0.0733 -0.1801
H17 H -0.3175 -0.0233 -0.2677
H18 H -0.3437 -0.1158 -0.2281
C13 C 0.0195(3) 0.11533(19) 0.3124(2)
C14 C 0.0701(4) 0.0641(2) 0.4050(3)
H19 H 0.0449 0.0058 0.3997
C15 C 0.1585(4) 0.0978(2) 0.5068(2)
H20 H 0.1934 0.0621 0.5687
C16 C 0.1941(3) 0.1843(2) 0.5151(2)
C17 C 0.1448(3) 0.2362(2) 0.4225(2)
H21 H 0.1697 0.2945 0.4279
C18 C 0.0589(3) 0.20205(19) 0.3224(2)
H22 H 0.0265 0.2376 0.2601
C19 C 0.3292(5) 0.1711(3) 0.7116(3)
H23 H 0.3873 0.2058 0.7733
H24 H 0.3873 0.1242 0.701
H25 H 0.2464 0.1483 0.7263
N1 N -0.0702(3) 0.07891(15) 0.21010(18)
O1 O -0.0514(3) -0.07278(15) 0.22041(19)
O2 O -0.2085(2) -0.01230(14) -0.02321(16)
O3 O -0.4493(2) -0.00108(17) -0.11859(19)
O4 O 0.2785(3) 0.22414(16) 0.61203(18)
loop_
_geom_bond_atom_site_label_1
_geom_bond_atom_site_label_2
_geom_bond_site_symmetry_1
_geom_bond_site_symmetry_2
C1 C2 1_555 1_555
C2 H1 1_555 1_555
H2 C2 1_555 1_555
C3 C2 1_555 1_555
H3 C3 1_555 1_555
H4 C3 1_555 1_555
C4 C3 1_555 1_555
H5 C4 1_555 1_555
C5 C4 1_555 1_555
H6 C5 1_555 1_555
H7 C5 1_555 1_555
C6 C1 1_555 1_555
H8 C6 1_555 1_555
H9 C6 1_555 1_555
C7 C4 1_555 1_555
H10 C7 1_555 1_555
H11 C7 1_555 1_555
C8 C7 1_555 1_555
H12 C8 1_555 1_555
H13 C8 1_555 1_555
H14 C8 1_555 1_555
C9 C10 1_555 1_555
C10 C1 1_555 1_555
H15 C10 1_555 1_555
C11 C12 1_555 1_555
C12 H16 1_555 1_555
H17 C12 1_555 1_555
H18 C12 1_555 1_555
C13 C14 1_555 1_555
C14 H19 1_555 1_555
C15 C14 1_555 1_555
H20 C15 1_555 1_555
C16 C15 1_555 1_555
C17 C16 1_555 1_555
H21 C17 1_555 1_555
C18 C13 1_555 1_555
H22 C18 1_555 1_555
C19 H23 1_555 1_555
H24 C19 1_555 1_555
H25 C19 1_555 1_555
N1 C1 1_555 1_555
O1 C9 1_555 1_555
O2 C10 1_555 1_555
O3 C11 1_555 1_555
O4 C16 1_555 1_555
C5 C6 1_555 1_555
C9 N1 1_555 1_555
C11 O2 1_555 1_555
C13 N1 1_555 1_555
C17 C18 1_555 1_555
C19 O4 1_555 1_555

#END
