
#######################################################################
#
#                 Cambridge Crystallographic Data Centre
#                                CCDC 
#
#######################################################################
#
# If this CIF has been generated from an entry in the Cambridge 
# Structural Database, then it will include bibliographic, chemical, 
# crystal, experimental, refinement or atomic coordinate data resulting 
# from the CCDC's data processing and validation procedures.
#
#######################################################################

data_DAFJEB
_chemical_formula_moiety         'C74 H24 I1 N1 O10'
_chemical_name_systematic        
'epoxy-([(4-iodophenyl)amino]carbonyl)-bis(t-butylperoxy)-(hydroxy)-(open-cage)-C59fullerene-dione unknown solvate'
_symmetry_cell_setting           triclinic
_symmetry_space_group_name_H-M   'P -1'
_symmetry_Int_Tables_number      2
_space_group_name_Hall           '-P 1'
loop_
_symmetry_equiv_pos_site_id
_symmetry_equiv_pos_as_xyz
1 x,y,z
2 -x,-y,-z
_cell_length_a                   9.6380(10)
_cell_length_b                   17.3500(18)
_cell_length_c                   19.110(2)
_cell_angle_alpha                114.204(12)
_cell_angle_beta                 92.226(13)
_cell_angle_gamma                102.333(14)
_cell_volume                     2818.58
_exptl_crystal_colour            colorless
_exptl_crystal_description       prism
_cell_formula_units_Z            2
loop_
_atom_site_label
_atom_site_type_symbol
_atom_site_fract_x
_atom_site_fract_y
_atom_site_fract_z
I1 I 0.93989(4) 0.58902(2) -0.420613(19)
N1 N 0.8651(5) 0.7008(3) -0.0699(2)
H1 H 0.946(7) 0.725(4) -0.042(4)
O1 O 1.0632(3) 0.98019(19) 0.20380(19)
O2 O 1.1810(3) 1.03965(18) 0.2669(2)
O3 O 1.1912(4) 0.8081(2) 0.0706(2)
O4 O 1.0946(4) 0.6746(2) 0.0607(2)
O5 O 0.7800(3) 0.54392(19) -0.03829(18)
O6 O 0.4322(4) 0.6567(2) 0.0612(2)
H2 H 0.442(8) 0.600(5) 0.008(4)
O7 O 0.9037(3) 0.7965(2) 0.0830(2)
O8 O 0.6242(4) 0.6500(2) -0.06618(19)
O9 O 0.5935(3) 0.9162(2) 0.2125(2)
O10 O 0.6963(4) 0.9871(2) 0.2026(2)
C1 C 0.8182(5) 0.5836(3) 0.3808(3)
C2 C 0.7846(5) 0.6649(3) 0.4329(3)
C3 C 0.9192(5) 0.7326(3) 0.4630(3)
C4 C 1.0321(5) 0.6939(3) 0.4297(3)
C5 C 0.9732(5) 0.6038(3) 0.3804(3)
C6 C 1.0263(5) 0.5631(3) 0.3113(3)
C7 C 0.9307(5) 0.5016(3) 0.2404(3)
C8 C 0.7807(5) 0.4841(3) 0.2412(3)
C9 C 0.7269(5) 0.5283(3) 0.3134(3)
C10 C 0.5977(4) 0.5492(3) 0.2934(3)
C11 C 0.5680(5) 0.6263(3) 0.3430(3)
C12 C 0.6620(5) 0.6849(3) 0.4144(3)
C13 C 0.6621(5) 0.7737(3) 0.4272(3)
C14 C 0.7909(5) 0.8384(3) 0.4569(3)
C15 C 0.9199(5) 0.8166(3) 0.4738(2)
C16 C 1.0379(4) 0.8684(3) 0.4525(2)
C17 C 1.1477(5) 0.8315(3) 0.4199(3)
C18 C 1.1451(5) 0.7429(3) 0.4091(3)
C19 C 1.1969(4) 0.7016(3) 0.3356(3)
C20 C 1.1412(5) 0.6135(3) 0.2884(3)
C21 C 1.1153(4) 0.5839(3) 0.2052(3)
C22 C 0.9883(5) 0.5132(3) 0.1762(3)
C23 C 0.8964(4) 0.5062(3) 0.1151(3)
C24 C 0.7423(5) 0.4922(2) 0.1166(3)
C25 C 0.6876(5) 0.4813(3) 0.1791(3)
C26 C 0.5767(5) 0.5234(3) 0.2104(3)
C27 C 0.5330(4) 0.5753(3) 0.1788(3)
C28 C 0.4954(4) 0.6537(3) 0.2308(3)
C29 C 0.5112(4) 0.6789(3) 0.3105(3)
C30 C 0.5674(5) 0.7685(3) 0.3628(3)
C31 C 0.6033(4) 0.8300(3) 0.3325(3)
C32 C 0.7346(5) 0.8992(3) 0.3648(3)
C33 C 0.8265(5) 0.9023(3) 0.4250(2)
C34 C 0.9780(5) 0.9197(2) 0.4217(3)
C35 C 1.0287(5) 0.9319(3) 0.3583(3)
C36 C 1.1395(5) 0.8897(3) 0.3231(3)
C37 C 1.1981(4) 0.8423(3) 0.3531(3)
C38 C 1.2266(4) 0.7625(3) 0.3009(3)
C39 C 1.2008(4) 0.7354(3) 0.2207(3)
C40 C 1.1462(4) 0.6423(3) 0.1708(3)
C41 C 1.0611(5) 0.6209(3) 0.0983(3)
C42 C 0.9381(5) 0.5564(3) 0.0721(3)
C43 C 0.7989(4) 0.5501(2) 0.0272(3)
C44 C 0.6880(4) 0.5391(3) 0.0795(2)
C45 C 0.5876(5) 0.5870(3) 0.1132(3)
C46 C 0.5535(5) 0.6746(3) 0.1145(3)
C47 C 0.5234(4) 0.7168(3) 0.1992(3)
C48 C 0.5774(4) 0.8030(3) 0.2506(3)
C49 C 0.6794(5) 0.8679(3) 0.2317(3)
C50 C 0.7915(5) 0.9187(2) 0.3038(3)
C51 C 0.9362(5) 0.9346(2) 0.3000(3)
C52 C 1.0068(5) 0.9103(3) 0.2234(3)
C53 C 1.1224(4) 0.8666(3) 0.2409(3)
C54 C 1.1631(4) 0.7936(3) 0.1916(3)
C55 C 1.1527(5) 0.7630(3) 0.1050(3)
C56 C 0.7488(5) 0.6881(3) -0.0348(3)
C57 C 0.7806(5) 0.7322(3) 0.0516(3)
C58 C 0.6863(5) 0.7389(3) 0.1048(3)
C59 C 0.7535(5) 0.8196(3) 0.1681(3)
C60 C 0.8885(5) 0.8474(3) 0.1586(3)
C61 C 1.1701(5) 1.1283(3) 0.2862(3)
C62 C 1.0298(5) 1.1408(3) 0.3166(3)
H3 H 0.9502 1.0940 0.2803
H4 H 1.0169 1.1974 0.3219
H5 H 1.0316 1.1392 0.3673
C63 C 1.1903(6) 1.1486(3) 0.2160(3)
H6 H 1.2737 1.1298 0.1934
H7 H 1.2059 1.2116 0.2323
H8 H 1.1044 1.1175 0.1772
C64 C 1.2953(6) 1.1810(3) 0.3510(3)
H9 H 1.2770 1.1685 0.3958
H10 H 1.3062 1.2434 0.3660
H11 H 1.3834 1.1651 0.3330
C65 C 0.6277(6) 0.9972(3) 0.1389(3)
C66 C 0.4856(7) 1.0160(4) 0.1548(4)
H12 H 0.4144 0.9617 0.1447
H13 H 0.4561 1.0413 0.1211
H14 H 0.4929 1.0575 0.2091
C67 C 0.7378(7) 1.0775(4) 0.1403(5)
H15 H 0.7572 1.1249 0.1928
H16 H 0.6985 1.0969 0.1041
H17 H 0.8271 1.0615 0.1250
C68 C 0.6175(9) 0.9165(4) 0.0626(4)
H18 H 0.7139 0.9146 0.0486
H19 H 0.5581 0.9197 0.0215
H20 H 0.5741 0.8637 0.0689
C69 C 0.8745(5) 0.6738(3) -0.1491(3)
C70 C 1.0048(6) 0.7071(3) -0.1694(3)
H21 H 1.0817 0.7461 -0.1298
C71 C 1.0227(5) 0.6841(3) -0.2461(3)
H22 H 1.1111 0.7071 -0.2593
C72 C 0.9098(6) 0.6271(3) -0.3036(3)
C73 C 0.7797(6) 0.5923(3) -0.2854(3)
H23 H 0.7034 0.5530 -0.3253
C74 C 0.7633(6) 0.6166(3) -0.2070(3)
H24 H 0.6751 0.5935 -0.1937
loop_
_geom_bond_atom_site_label_1
_geom_bond_atom_site_label_2
_geom_bond_site_symmetry_1
_geom_bond_site_symmetry_2
I1 C72 1_555 1_555
N1 H1 1_555 1_555
O1 O2 1_555 1_555
O2 C61 1_555 1_555
O3 C55 1_555 1_555
O4 C41 1_555 1_555
O5 C43 1_555 1_555
O6 H2 1_555 1_555
O7 C57 1_555 1_555
O8 C56 1_555 1_555
O9 O10 1_555 1_555
O10 C65 1_555 1_555
C1 C2 1_555 1_555
C2 C3 1_555 1_555
C3 C4 1_555 1_555
C4 C5 1_555 1_555
C5 C1 1_555 1_555
C6 C5 1_555 1_555
C7 C6 1_555 1_555
C8 C7 1_555 1_555
C9 C1 1_555 1_555
C10 C9 1_555 1_555
C11 C10 1_555 1_555
C12 C2 1_555 1_555
C13 C12 1_555 1_555
C14 C13 1_555 1_555
C15 C3 1_555 1_555
C16 C15 1_555 1_555
C17 C16 1_555 1_555
C18 C4 1_555 1_555
C19 C18 1_555 1_555
C20 C6 1_555 1_555
C21 C20 1_555 1_555
C22 C7 1_555 1_555
C23 C22 1_555 1_555
C24 C23 1_555 1_555
C25 C8 1_555 1_555
C26 C10 1_555 1_555
C27 C26 1_555 1_555
C28 C27 1_555 1_555
C29 C11 1_555 1_555
C30 C13 1_555 1_555
C31 C30 1_555 1_555
C32 C31 1_555 1_555
C33 C14 1_555 1_555
C34 C16 1_555 1_555
C35 C34 1_555 1_555
C36 C35 1_555 1_555
C37 C17 1_555 1_555
C38 C19 1_555 1_555
C39 C38 1_555 1_555
C40 C21 1_555 1_555
C41 C40 1_555 1_555
C42 C23 1_555 1_555
C43 C42 1_555 1_555
C44 C24 1_555 1_555
C45 C27 1_555 1_555
C46 O6 1_555 1_555
C47 C28 1_555 1_555
C48 C31 1_555 1_555
C49 O9 1_555 1_555
C50 C32 1_555 1_555
C51 C35 1_555 1_555
C52 O1 1_555 1_555
C53 C36 1_555 1_555
C54 C39 1_555 1_555
C55 O4 1_555 1_555
C56 N1 1_555 1_555
C57 C56 1_555 1_555
C58 C46 1_555 1_555
C59 C49 1_555 1_555
C60 O7 1_555 1_555
C61 C62 1_555 1_555
C62 H3 1_555 1_555
H4 C62 1_555 1_555
H5 C62 1_555 1_555
C63 C61 1_555 1_555
H6 C63 1_555 1_555
H7 C63 1_555 1_555
H8 C63 1_555 1_555
C64 C61 1_555 1_555
H9 C64 1_555 1_555
H10 C64 1_555 1_555
H11 C64 1_555 1_555
C65 C66 1_555 1_555
C66 H12 1_555 1_555
H13 C66 1_555 1_555
H14 C66 1_555 1_555
C67 C65 1_555 1_555
H15 C67 1_555 1_555
H16 C67 1_555 1_555
H17 C67 1_555 1_555
C68 C65 1_555 1_555
H18 C68 1_555 1_555
H19 C68 1_555 1_555
H20 C68 1_555 1_555
C69 N1 1_555 1_555
C70 C69 1_555 1_555
H21 C70 1_555 1_555
C71 C70 1_555 1_555
H22 C71 1_555 1_555
C72 C71 1_555 1_555
C73 C72 1_555 1_555
H23 C73 1_555 1_555
C74 C69 1_555 1_555
H24 C74 1_555 1_555
C8 C9 1_555 1_555
C11 C12 1_555 1_555
C14 C15 1_555 1_555
C17 C18 1_555 1_555
C19 C20 1_555 1_555
C21 C22 1_555 1_555
C24 C25 1_555 1_555
C25 C26 1_555 1_555
C28 C29 1_555 1_555
C29 C30 1_555 1_555
C32 C33 1_555 1_555
C33 C34 1_555 1_555
C36 C37 1_555 1_555
C37 C38 1_555 1_555
C39 C40 1_555 1_555
C41 C42 1_555 1_555
C43 C44 1_555 1_555
C44 C45 1_555 1_555
C45 C46 1_555 1_555
C46 C47 1_555 1_555
C47 C48 1_555 1_555
C48 C49 1_555 1_555
C49 C50 1_555 1_555
C50 C51 1_555 1_555
C51 C52 1_555 1_555
C52 C53 1_555 1_555
C52 C60 1_555 1_555
C53 C54 1_555 1_555
C54 C55 1_555 1_555
C57 C58 1_555 1_555
C58 C59 1_555 1_555
C59 C60 1_555 1_555
C73 C74 1_555 1_555

#END
