
#######################################################################
#
#                 Cambridge Crystallographic Data Centre
#                                CCDC 
#
#######################################################################
#
# If this CIF has been generated from an entry in the Cambridge 
# Structural Database, then it will include bibliographic, chemical, 
# crystal, experimental, refinement or atomic coordinate data resulting 
# from the CCDC's data processing and validation procedures.
#
#######################################################################

data_DAFJIF
_chemical_formula_moiety         'C17 H17 N1 O3 S1'
_chemical_name_systematic        6-Phenyl-5-(phenylsulfonyl)piperidin-2-one
_symmetry_cell_setting           monoclinic
_symmetry_space_group_name_H-M   'P 21/c'
_symmetry_Int_Tables_number      14
_space_group_name_Hall           '-P 2ybc'
loop_
_symmetry_equiv_pos_site_id
_symmetry_equiv_pos_as_xyz
1 x,y,z
2 -x,1/2+y,1/2-z
3 -x,-y,-z
4 x,1/2-y,1/2+z
_cell_length_a                   15.9096(11)
_cell_length_b                   5.7746(4)
_cell_length_c                   17.2601(12)
_cell_angle_alpha                90
_cell_angle_beta                 106.9920(10)
_cell_angle_gamma                90
_cell_volume                     1516.49
_exptl_crystal_colour            colorless
_exptl_crystal_description       platelet
_cell_formula_units_Z            4
loop_
_atom_site_label
_atom_site_type_symbol
_atom_site_fract_x
_atom_site_fract_y
_atom_site_fract_z
S1 S 0.22692(3) 1.10528(7) 0.29454(3)
O1 O 0.50987(9) 0.4389(3) 0.40073(8)
N1 N 0.43144(9) 0.7267(3) 0.43378(9)
C1 C 0.36796(11) 0.9190(3) 0.41615(10)
C2 C 0.46018(11) 0.6071(3) 0.37984(11)
C3 C 0.31970(11) 0.9207(3) 0.47978(9)
C4 C 0.27001(12) 0.7328(3) 0.48994(11)
H1 H 0.2656 0.6033 0.4570
C5 C 0.32694(13) 1.1102(3) 0.53039(11)
H2 H 0.3609 1.2365 0.5247
C6 C 0.28394(16) 1.1126(4) 0.58945(13)
H3 H 0.2887 1.2410 0.6230
C7 C 0.22671(14) 0.7363(4) 0.54889(12)
H4 H 0.1926 0.6105 0.5548
C8 C 0.23424(16) 0.9260(5) 0.59857(12)
H5 H 0.2056 0.9278 0.6385
O2 O 0.19222(9) 1.0785(2) 0.20839(7)
O3 O 0.26124(9) 1.3282(2) 0.32586(9)
C9 C 0.31112(11) 0.8906(3) 0.32831(10)
C10 C 0.37188(12) 0.8948(3) 0.27407(11)
H6 H 0.3374 0.8949 0.2175
H7 H 0.4079 1.0334 0.2845
C11 C 0.43003(13) 0.6799(4) 0.29277(12)
H8 H 0.3980 0.5520 0.2610
H9 H 0.4815 0.7078 0.2748
C12 C 0.14108(10) 1.0301(3) 0.33568(10)
C13 C 0.11559(12) 1.1842(3) 0.38530(11)
H10 H 0.1467 1.3207 0.4018
C14 C 0.09583(12) 0.8250(3) 0.31165(11)
H11 H 0.1138 0.7223 0.2781
C15 C 0.04211(15) 1.1309(4) 0.41018(14)
H12 H 0.0233 1.2334 0.4432
C16 C -0.00276(14) 0.9274(5) 0.38616(15)
H13 H -0.0518 0.8936 0.4030
C17 C 0.02399(13) 0.7745(4) 0.33783(13)
H14 H -0.0063 0.6363 0.3226
H15 H 0.2825(10) 0.749(2) 0.3222(10)
H16 H 0.3993(10) 1.058(2) 0.4210(10)
H17 H 0.4517(13) 0.680(4) 0.4874(10)
loop_
_geom_bond_atom_site_label_1
_geom_bond_atom_site_label_2
_geom_bond_site_symmetry_1
_geom_bond_site_symmetry_2
S1 O2 1_555 1_555
O1 C2 1_555 1_555
N1 C1 1_555 1_555
C1 C3 1_555 1_555
C2 N1 1_555 1_555
C3 C4 1_555 1_555
C4 H1 1_555 1_555
C5 C3 1_555 1_555
H2 C5 1_555 1_555
C6 C5 1_555 1_555
H3 C6 1_555 1_555
C7 C4 1_555 1_555
H4 C7 1_555 1_555
C8 C6 1_555 1_555
H5 C8 1_555 1_555
O3 S1 1_555 1_555
C9 S1 1_555 1_555
C10 C9 1_555 1_555
H6 C10 1_555 1_555
H7 C10 1_555 1_555
C11 C2 1_555 1_555
H8 C11 1_555 1_555
H9 C11 1_555 1_555
C12 S1 1_555 1_555
C13 C12 1_555 1_555
H10 C13 1_555 1_555
C14 C12 1_555 1_555
H11 C14 1_555 1_555
C15 C13 1_555 1_555
H12 C15 1_555 1_555
C16 C15 1_555 1_555
H13 C16 1_555 1_555
C17 C14 1_555 1_555
H14 C17 1_555 1_555
H15 C9 1_555 1_555
H16 C1 1_555 1_555
H17 N1 1_555 1_555
C1 C9 1_555 1_555
C7 C8 1_555 1_555
C10 C11 1_555 1_555
C16 C17 1_555 1_555

#END
