
#######################################################################
#
#                 Cambridge Crystallographic Data Centre
#                                CCDC 
#
#######################################################################
#
# If this CIF has been generated from an entry in the Cambridge 
# Structural Database, then it will include bibliographic, chemical, 
# crystal, experimental, refinement or atomic coordinate data resulting 
# from the CCDC's data processing and validation procedures.
#
#######################################################################

data_DAFJAX
_chemical_formula_moiety         'C80 H28 Br2 N2 O8'
_chemical_name_systematic        
'bis(t-butylperoxy)-((4-bromophenyl)amino)-([(4-bromophenyl)amino]carbonyl)-dione-C60fullerene unknown solvate'
_symmetry_cell_setting           monoclinic
_symmetry_space_group_name_H-M   'P 21/c'
_symmetry_Int_Tables_number      14
_space_group_name_Hall           '-P 2ybc'
loop_
_symmetry_equiv_pos_site_id
_symmetry_equiv_pos_as_xyz
1 x,y,z
2 -x,1/2+y,1/2-z
3 -x,-y,-z
4 x,1/2-y,1/2+z
_cell_length_a                   27.940(8)
_cell_length_b                   22.795(7)
_cell_length_c                   19.263(6)
_cell_angle_alpha                90
_cell_angle_beta                 91.030(4)
_cell_angle_gamma                90
_cell_volume                     12266.5
_cell_formula_units_Z            8
loop_
_atom_site_label
_atom_site_type_symbol
_atom_site_fract_x
_atom_site_fract_y
_atom_site_fract_z
Br1 Br 0.29533(4) 0.55303(5) 0.06716(10)
Br2 Br 0.21042(7) 0.14855(15) 0.33591(16)
O1 O 0.0907(2) 0.1768(3) -0.0038(4)
O2 O 0.1213(2) 0.1843(3) 0.0592(5)
O3 O 0.0159(4) 0.4654(4) -0.1705(5)
O4 O 0.0419(6) 0.4452(6) -0.2363(8)
O5 O 0.1024(3) 0.3802(3) 0.1441(5)
O6 O 0.0884(2) 0.3013(3) -0.0520(4)
O7 O 0.0877(3) 0.4163(3) -0.0961(5)
O8 O 0.0443(3) 0.4327(3) 0.0379(4)
N1 N 0.1383(3) 0.3712(4) 0.0372(5)
N2 N 0.0521(3) 0.2940(4) 0.1986(5)
C1 C 0.0687(3) 0.3102(4) 0.0707(6)
C2 C 0.0657(3) 0.2796(4) 0.0112(5)
C3 C 0.0504(3) 0.2126(4) -0.0004(6)
C4 C 0.0184(4) 0.1965(4) -0.0655(6)
C5 C 0.0097(3) 0.2258(4) -0.1231(5)
C6 C 0.0270(4) 0.2876(4) -0.1354(5)
C7 C 0.0564(3) 0.3220(4) -0.1017(5)
C8 C 0.0526(4) 0.3856(5) -0.1048(7)
C9 C 0.0069(4) 0.4137(4) -0.1371(6)
C10 C -0.0243(4) 0.3694(4) -0.1843(6)
C11 C -0.0100(3) 0.3109(4) -0.1820(5)
C12 C -0.0462(4) 0.2686(4) -0.2007(6)
C13 C -0.0306(4) 0.2140(5) -0.1633(6)
C14 C -0.0658(4) 0.1774(4) -0.1427(6)
C15 C -0.0585(4) 0.1463(4) -0.0747(7)
C16 C -0.0169(3) 0.1560(3) -0.0374(6)
C17 C -0.0190(3) 0.1598(3) 0.0352(6)
C18 C 0.0169(3) 0.1978(4) 0.0594(6)
C19 C 0.0097(3) 0.2332(4) 0.1156(5)
C20 C 0.0347(4) 0.2933(4) 0.1263(6)
C21 C -0.0114(3) 0.3347(4) 0.1280(6)
C22 C -0.0501(3) 0.2994(4) 0.1549(6)
C23 C -0.0379(3) 0.2359(4) 0.1432(5)
C24 C -0.0749(4) 0.1975(5) 0.1237(7)
C25 C -0.0638(3) 0.1554(3) 0.0690(5)
C26 C -0.1083(3) 0.1495(4) 0.0281(6)
C27 C -0.1064(3) 0.1445(4) -0.0420(6)
C28 C -0.1415(4) 0.1729(5) -0.0891(7)
C29 C -0.1167(4) 0.1916(5) -0.1506(6)
C30 C -0.1293(4) 0.2437(6) -0.1819(7)
C31 C -0.0919(4) 0.2824(5) -0.2073(7)
C32 C -0.1082(3) 0.3424(4) -0.2014(5)
C33 C -0.0702(4) 0.3847(5) -0.1785(6)
C34 C -0.0795(4) 0.4248(5) -0.1218(6)
C35 C -0.1240(5) 0.4217(5) -0.0870(9)
C36 C -0.1583(4) 0.3826(5) -0.1121(7)
C37 C -0.1531(4) 0.3420(5) -0.1607(8)
C38 C -0.1683(3) 0.2819(5) -0.1523(6)
C39 C -0.1877(4) 0.2649(6) -0.0909(7)
C40 C -0.1776(4) 0.2059(5) -0.0630(6)
C41 C -0.1761(3) 0.2111(4) 0.0136(6)
C42 C -0.1446(3) 0.1851(4) 0.0535(6)
C43 C -0.1225(3) 0.2149(4) 0.1166(6)
C44 C -0.1354(3) 0.2712(4) 0.1300(6)
C45 C -0.0985(4) 0.3142(5) 0.1478(6)
C46 C -0.1113(4) 0.3707(5) 0.1142(7)
C47 C -0.1556(4) 0.3648(6) 0.0754(7)
C48 C -0.1690(4) 0.3041(5) 0.0826(6)
C49 C -0.1917(4) 0.2756(6) 0.0311(7)
C50 C -0.1984(3) 0.3028(5) -0.0358(6)
C51 C -0.1829(4) 0.3646(6) -0.0439(9)
C52 C -0.1623(4) 0.3909(5) 0.0130(7)
C53 C -0.1236(4) 0.4282(4) -0.0123(7)
C54 C -0.0808(4) 0.4330(4) 0.0218(6)
C55 C -0.0349(4) 0.4358(4) -0.0157(6)
C56 C -0.0333(4) 0.4331(4) -0.0841(7)
C57 C 0.0045(4) 0.4184(4) 0.0407(6)
C58 C -0.0207(4) 0.3851(4) 0.0949(6)
C59 C -0.0725(4) 0.4031(4) 0.0840(7)
C60 C 0.1027(3) 0.3596(5) 0.0865(6)
C61 C 0.1730(4) 0.4129(5) 0.0455(7)
C62 C 0.1963(4) 0.4252(6) 0.1169(7)
C63 C 0.2315(5) 0.4662(6) 0.1174(10)
C64 C 0.2431(3) 0.4948(5) 0.0587(8)
C65 C 0.2236(4) 0.4856(5) -0.0103(7)
C66 C 0.1883(3) 0.4451(4) -0.0079(6)
C67 C 0.0914(4) 0.2572(7) 0.2227(6)
C68 C 0.0866(4) 0.1939(6) 0.2231(6)
C69 C 0.1245(5) 0.1634(7) 0.2536(8)
C70 C 0.1622(6) 0.1863(12) 0.2852(12)
C71 C 0.1687(8) 0.2505(10) 0.2886(11)
C72 C 0.1281(7) 0.2853(8) 0.2612(11)
C73 C 0.1714(5) 0.1789(7) 0.0402(11)
C74 C 0.1855(7) 0.2252(11) -0.0163(13)
C75 C 0.1717(7) 0.1101(9) 0.0109(11)
C76 C 0.1978(5) 0.1793(10) 0.1082(9)
C77 C 0.0474(7) 0.4892(7) -0.2862(10)
C78 C 0.0248(16) 0.5493(12) -0.2717(16)
C79 C -0.0011(11) 0.4532(18) -0.3238(11)
C80 C 0.0887(9) 0.4598(13) -0.3386(15)
Br3 Br 0.20544(4) 0.55549(5) 0.56198(11)
Br4 Br 0.28779(7) 0.14307(12) 0.82517(17)
O9 O 0.4062(2) 0.1771(3) 0.4905(4)
O10 O 0.3783(3) 0.1817(4) 0.5523(5)
O11 O 0.4821(3) 0.4696(3) 0.3335(5)
O12 O 0.4471(4) 0.4497(4) 0.2772(6)
O13 O 0.3975(3) 0.3804(3) 0.6447(4)
O14 O 0.4091(2) 0.4178(3) 0.4087(4)
O15 O 0.4519(3) 0.4326(3) 0.5408(4)
O16 O 0.4087(2) 0.2993(3) 0.4474(4)
N3 N 0.3610(3) 0.3697(4) 0.5351(6)
N4 N 0.4448(3) 0.2902(4) 0.7003(5)
C81 C 0.4298(3) 0.3064(4) 0.5685(5)
C82 C 0.4333(3) 0.2763(4) 0.5064(5)
C83 C 0.4473(3) 0.2150(4) 0.5020(5)
C84 C 0.4792(3) 0.1964(4) 0.4395(5)
C85 C 0.4864(4) 0.2252(4) 0.3803(7)
C86 C 0.4720(3) 0.2873(4) 0.3667(6)
C87 C 0.4428(3) 0.3223(4) 0.4030(5)
C88 C 0.4459(4) 0.3863(4) 0.3918(6)
C89 C 0.4925(4) 0.4138(4) 0.3681(5)
C90 C 0.5223(4) 0.3726(4) 0.3259(5)
C91 C 0.5086(3) 0.3142(4) 0.3201(5)
C92 C 0.5423(3) 0.2692(4) 0.3052(5)
C93 C 0.5295(3) 0.2156(4) 0.3380(6)
C94 C 0.5641(4) 0.1757(5) 0.3652(7)
C95 C 0.5587(3) 0.1451(4) 0.4279(6)
C96 C 0.5142(3) 0.1556(4) 0.4649(6)
C97 C 0.5181(3) 0.1583(3) 0.5338(5)
C98 C 0.4814(3) 0.1977(4) 0.5607(6)
C99 C 0.4906(3) 0.2328(4) 0.6184(5)
C100 C 0.4644(3) 0.2902(4) 0.6301(6)
C101 C 0.5096(3) 0.3321(4) 0.6353(6)
C102 C 0.5482(3) 0.2951(4) 0.6609(5)
C103 C 0.5358(3) 0.2342(4) 0.6463(5)
C104 C 0.5722(3) 0.1952(4) 0.6303(5)
C105 C 0.5607(4) 0.1538(4) 0.5729(6)
C106 C 0.6037(3) 0.1458(4) 0.5331(6)
C107 C 0.6025(3) 0.1411(3) 0.4653(6)
C108 C 0.6400(4) 0.1703(5) 0.4222(6)
C109 C 0.6120(4) 0.1924(4) 0.3537(6)
C110 C 0.6276(3) 0.2452(4) 0.3286(6)
C111 C 0.5908(3) 0.2844(5) 0.2988(7)
C112 C 0.6045(3) 0.3460(4) 0.3162(5)
C113 C 0.5713(4) 0.3849(4) 0.3307(5)
C114 C 0.5785(4) 0.4242(4) 0.3875(6)
C115 C 0.5326(3) 0.4332(4) 0.4224(6)
C116 C 0.5319(4) 0.4354(4) 0.4966(6)
C117 C 0.4933(4) 0.4188(4) 0.5441(5)
C118 C 0.5217(3) 0.3834(4) 0.6009(5)
C119 C 0.5733(4) 0.4001(4) 0.5971(6)
C120 C 0.6067(4) 0.3686(4) 0.6291(7)
C121 C 0.5955(3) 0.3130(4) 0.6593(6)
C122 C 0.6326(4) 0.2703(5) 0.6426(5)
C123 C 0.6199(3) 0.2115(4) 0.6277(5)
C124 C 0.6416(3) 0.1821(4) 0.5654(6)
C125 C 0.6730(4) 0.2101(5) 0.5257(6)
C126 C 0.6881(4) 0.2715(5) 0.5448(6)
C127 C 0.6688(3) 0.3011(5) 0.5973(6)
C128 C 0.6517(3) 0.3603(4) 0.5924(6)
C129 C 0.6587(4) 0.3901(5) 0.5314(7)
C130 C 0.6205(3) 0.4275(4) 0.4991(5)
C131 C 0.5787(4) 0.4301(4) 0.5299(6)
C132 C 0.6213(3) 0.4236(3) 0.4274(5)
C133 C 0.6586(4) 0.3810(5) 0.4072(7)
C134 C 0.6492(4) 0.3440(5) 0.3517(6)
C135 C 0.6659(4) 0.2825(5) 0.3621(5)
C136 C 0.6878(4) 0.2614(6) 0.4246(7)
C137 C 0.6973(3) 0.3040(6) 0.4776(7)
C138 C 0.6826(3) 0.3593(4) 0.4726(5)
C139 C 0.6734(4) 0.2051(5) 0.4508(8)
C140 C 0.3948(3) 0.3570(4) 0.5881(6)
C141 C 0.3247(3) 0.4139(4) 0.5439(6)
C142 C 0.3109(3) 0.4452(4) 0.4850(6)
C143 C 0.2761(3) 0.4878(4) 0.4942(6)
C144 C 0.2535(4) 0.4973(5) 0.5540(7)
C145 C 0.2671(4) 0.4680(7) 0.6175(8)
C146 C 0.3044(5) 0.4223(7) 0.6071(8)
C147 C 0.4062(4) 0.2533(5) 0.7186(6)
C148 C 0.4080(4) 0.1964(6) 0.7192(7)
C149 C 0.3733(4) 0.1588(7) 0.7525(8)
C150 C 0.3374(5) 0.1906(10) 0.7826(8)
C151 C 0.3353(8) 0.2479(10) 0.7847(10)
C152 C 0.3683(5) 0.2798(7) 0.7528(9)
C153 C 0.3289(4) 0.1719(6) 0.5268(8)
C154 C 0.3039(6) 0.1790(11) 0.6008(11)
C155 C 0.3230(6) 0.1081(9) 0.4990(10)
C156 C 0.3138(5) 0.2253(8) 0.4828(11)
C157 C 0.4574(6) 0.4856(8) 0.2164(10)
C158 C 0.4168(10) 0.4675(10) 0.1761(11)
C159 C 0.5034(8) 0.4523(11) 0.1907(12)
C160 C 0.4701(11) 0.5489(11) 0.2346(16)
loop_
_geom_bond_atom_site_label_1
_geom_bond_atom_site_label_2
_geom_bond_site_symmetry_1
_geom_bond_site_symmetry_2
Br1 C64 1_555 1_555
Br2 C70 1_555 1_555
O1 O2 1_555 1_555
O2 C73 1_555 1_555
O3 O4 1_555 1_555
O4 C77 1_555 1_555
O5 C60 1_555 1_555
O6 C2 1_555 1_555
O7 C8 1_555 1_555
O8 C57 1_555 1_555
N1 C60 1_555 1_555
N2 C20 1_555 1_555
C1 C2 1_555 1_555
C2 C3 1_555 1_555
C3 O1 1_555 1_555
C4 C3 1_555 1_555
C5 C4 1_555 1_555
C6 C5 1_555 1_555
C7 O6 1_555 1_555
C8 C7 1_555 1_555
C9 O3 1_555 1_555
C10 C9 1_555 1_555
C11 C6 1_555 1_555
C12 C11 1_555 1_555
C13 C5 1_555 1_555
C14 C13 1_555 1_555
C15 C14 1_555 1_555
C16 C4 1_555 1_555
C17 C16 1_555 1_555
C18 C3 1_555 1_555
C19 C18 1_555 1_555
C20 C1 1_555 1_555
C21 C20 1_555 1_555
C22 C21 1_555 1_555
C23 C19 1_555 1_555
C24 C23 1_555 1_555
C25 C17 1_555 1_555
C26 C25 1_555 1_555
C27 C15 1_555 1_555
C28 C27 1_555 1_555
C29 C14 1_555 1_555
C30 C29 1_555 1_555
C31 C12 1_555 1_555
C32 C31 1_555 1_555
C33 C10 1_555 1_555
C34 C33 1_555 1_555
C35 C34 1_555 1_555
C36 C35 1_555 1_555
C37 C32 1_555 1_555
C38 C30 1_555 1_555
C39 C38 1_555 1_555
C40 C28 1_555 1_555
C41 C40 1_555 1_555
C42 C26 1_555 1_555
C43 C24 1_555 1_555
C44 C43 1_555 1_555
C45 C22 1_555 1_555
C46 C45 1_555 1_555
C47 C46 1_555 1_555
C48 C44 1_555 1_555
C49 C41 1_555 1_555
C50 C39 1_555 1_555
C51 C36 1_555 1_555
C52 C47 1_555 1_555
C53 C35 1_555 1_555
C54 C53 1_555 1_555
C55 C54 1_555 1_555
C56 C9 1_555 1_555
C57 C55 1_555 1_555
C58 C21 1_555 1_555
C59 C46 1_555 1_555
C60 C1 1_555 1_555
C61 N1 1_555 1_555
C62 C61 1_555 1_555
C63 C62 1_555 1_555
C64 C63 1_555 1_555
C65 C64 1_555 1_555
C66 C61 1_555 1_555
C67 N2 1_555 1_555
C68 C67 1_555 1_555
C69 C68 1_555 1_555
C70 C69 1_555 1_555
C71 C70 1_555 1_555
C72 C67 1_555 1_555
C73 C74 1_555 1_555
C75 C73 1_555 1_555
C76 C73 1_555 1_555
C77 C78 1_555 1_555
C79 C77 1_555 1_555
C80 C77 1_555 1_555
Br3 C144 1_555 1_555
Br4 C150 1_555 1_555
O9 O10 1_555 1_555
O10 C153 1_555 1_555
O11 O12 1_555 1_555
O12 C157 1_555 1_555
O13 C140 1_555 1_555
O14 C88 1_555 1_555
O15 C117 1_555 1_555
O16 C82 1_555 1_555
N3 C140 1_555 1_555
N4 C100 1_555 1_555
C81 C82 1_555 1_555
C82 C83 1_555 1_555
C83 O9 1_555 1_555
C84 C83 1_555 1_555
C85 C84 1_555 1_555
C86 C85 1_555 1_555
C87 O16 1_555 1_555
C88 C87 1_555 1_555
C89 O11 1_555 1_555
C90 C89 1_555 1_555
C91 C86 1_555 1_555
C92 C91 1_555 1_555
C93 C85 1_555 1_555
C94 C93 1_555 1_555
C95 C94 1_555 1_555
C96 C84 1_555 1_555
C97 C96 1_555 1_555
C98 C83 1_555 1_555
C99 C98 1_555 1_555
C100 C81 1_555 1_555
C101 C100 1_555 1_555
C102 C101 1_555 1_555
C103 C99 1_555 1_555
C104 C103 1_555 1_555
C105 C97 1_555 1_555
C106 C105 1_555 1_555
C107 C95 1_555 1_555
C108 C107 1_555 1_555
C109 C94 1_555 1_555
C110 C109 1_555 1_555
C111 C92 1_555 1_555
C112 C111 1_555 1_555
C113 C90 1_555 1_555
C114 C113 1_555 1_555
C115 C89 1_555 1_555
C116 C115 1_555 1_555
C117 C116 1_555 1_555
C118 C101 1_555 1_555
C119 C118 1_555 1_555
C120 C119 1_555 1_555
C121 C102 1_555 1_555
C122 C121 1_555 1_555
C123 C104 1_555 1_555
C124 C106 1_555 1_555
C125 C124 1_555 1_555
C126 C125 1_555 1_555
C127 C122 1_555 1_555
C128 C120 1_555 1_555
C129 C128 1_555 1_555
C130 C129 1_555 1_555
C131 C116 1_555 1_555
C132 C114 1_555 1_555
C133 C132 1_555 1_555
C134 C112 1_555 1_555
C135 C110 1_555 1_555
C136 C135 1_555 1_555
C137 C126 1_555 1_555
C138 C129 1_555 1_555
C139 C108 1_555 1_555
C140 C81 1_555 1_555
C141 N3 1_555 1_555
C142 C141 1_555 1_555
C143 C142 1_555 1_555
C144 C143 1_555 1_555
C145 C144 1_555 1_555
C146 C141 1_555 1_555
C147 N4 1_555 1_555
C148 C147 1_555 1_555
C149 C148 1_555 1_555
C150 C149 1_555 1_555
C151 C150 1_555 1_555
C152 C147 1_555 1_555
C153 C154 1_555 1_555
C155 C153 1_555 1_555
C156 C153 1_555 1_555
C157 C158 1_555 1_555
C159 C157 1_555 1_555
C160 C157 1_555 1_555
C6 C7 1_555 1_555
C8 C9 1_555 1_555
C10 C11 1_555 1_555
C12 C13 1_555 1_555
C15 C16 1_555 1_555
C17 C18 1_555 1_555
C19 C20 1_555 1_555
C22 C23 1_555 1_555
C24 C25 1_555 1_555
C26 C27 1_555 1_555
C28 C29 1_555 1_555
C30 C31 1_555 1_555
C32 C33 1_555 1_555
C34 C56 1_555 1_555
C36 C37 1_555 1_555
C37 C38 1_555 1_555
C39 C40 1_555 1_555
C41 C42 1_555 1_555
C42 C43 1_555 1_555
C44 C45 1_555 1_555
C47 C48 1_555 1_555
C48 C49 1_555 1_555
C49 C50 1_555 1_555
C50 C51 1_555 1_555
C51 C52 1_555 1_555
C52 C53 1_555 1_555
C54 C59 1_555 1_555
C55 C56 1_555 1_555
C57 C58 1_555 1_555
C58 C59 1_555 1_555
C65 C66 1_555 1_555
C71 C72 1_555 1_555
C86 C87 1_555 1_555
C88 C89 1_555 1_555
C90 C91 1_555 1_555
C92 C93 1_555 1_555
C95 C96 1_555 1_555
C97 C98 1_555 1_555
C99 C100 1_555 1_555
C102 C103 1_555 1_555
C104 C105 1_555 1_555
C106 C107 1_555 1_555
C108 C109 1_555 1_555
C110 C111 1_555 1_555
C112 C113 1_555 1_555
C114 C115 1_555 1_555
C117 C118 1_555 1_555
C119 C131 1_555 1_555
C120 C121 1_555 1_555
C122 C123 1_555 1_555
C123 C124 1_555 1_555
C125 C139 1_555 1_555
C126 C127 1_555 1_555
C127 C128 1_555 1_555
C130 C131 1_555 1_555
C130 C132 1_555 1_555
C133 C134 1_555 1_555
C133 C138 1_555 1_555
C134 C135 1_555 1_555
C136 C137 1_555 1_555
C136 C139 1_555 1_555
C137 C138 1_555 1_555
C145 C146 1_555 1_555
C151 C152 1_555 1_555

#END
