
#######################################################################
#
#                 Cambridge Crystallographic Data Centre
#                                CCDC 
#
#######################################################################
#
# If this CIF has been generated from an entry in the Cambridge 
# Structural Database, then it will include bibliographic, chemical, 
# crystal, experimental, refinement or atomic coordinate data resulting 
# from the CCDC's data processing and validation procedures.
#
#######################################################################

data_DAFKUS
_chemical_formula_moiety         'C15 H26 O4'
_chemical_name_systematic        
(3S,4R,9S,10R,E)-4,9-dihydroxy-3-methyl-10-pentyl-3,4,7,8,9,10-hexahydrooxecin-2-one
_symmetry_cell_setting           monoclinic
_symmetry_space_group_name_H-M   'P 21'
_symmetry_Int_Tables_number      4
_space_group_name_Hall           'P 2yb'
loop_
_symmetry_equiv_pos_site_id
_symmetry_equiv_pos_as_xyz
1 x,y,z
2 -x,1/2+y,-z
_cell_length_a                   5.1384(4)
_cell_length_b                   36.752(2)
_cell_length_c                   8.7172(5)
_cell_angle_alpha                90
_cell_angle_beta                 106.756(5)
_cell_angle_gamma                90
_cell_volume                     1576.32
_exptl_crystal_colour            colorless
_exptl_crystal_description       prism
_chemical_melting_point          '124-125 deg.C'
_cell_formula_units_Z            4
loop_
_atom_site_label
_atom_site_type_symbol
_atom_site_fract_x
_atom_site_fract_y
_atom_site_fract_z
O1 O 0.3561(9) 0.11681(15) 0.5318(5)
O2 O -0.0317(13) 0.1096(3) 0.5957(7)
O3 O 0.6384(12) 0.1545(2) 1.0179(6)
H1 H 0.5014 0.1564 1.0476
O4 O 0.1912(10) 0.15872(17) 0.1344(5)
H2 H 0.0276 0.1550 0.0982
C1 C 0.2125(15) 0.1123(3) 0.6380(9)
C2 C 0.3844(15) 0.1150(3) 0.8072(8)
H3 H 0.2617 0.1154 0.8749
C3 C 0.5610(15) 0.1490(3) 0.8463(8)
H4 H 0.7266 0.1446 0.8149
C4 C 0.4188(15) 0.1807(2) 0.7542(8)
H5 H 0.2849 0.1923 0.7890
C5 C 0.473(2) 0.1931(2) 0.6271(9)
H6 H 0.6473 0.1887 0.6208
C6 C 0.291(2) 0.2134(3) 0.4909(10)
H7 H 0.3990 0.2276 0.4375
H8 H 0.1771 0.2300 0.5294
C7 C 0.1157(18) 0.1861(2) 0.3742(9)
H9 H -0.0023 0.1996 0.2854
H10 H 0.0003 0.1738 0.4283
C8 C 0.2666(14) 0.1568(2) 0.3043(7)
H11 H 0.4613 0.1622 0.3436
C9 C 0.2250(14) 0.1178(2) 0.3596(8)
H12 H 0.0305 0.1128 0.3374
C10 C 0.562(3) 0.0795(3) 0.8505(13)
H13 H 0.4460 0.0585 0.8251
H14 H 0.6563 0.0795 0.9629
H15 H 0.6909 0.0789 0.7900
C11 C 0.3536(17) 0.0898(2) 0.2819(9)
H16 H 0.5480 0.0942 0.3120
H17 H 0.2847 0.0926 0.1666
C12 C 0.303(2) 0.0505(3) 0.3260(14)
H18 H 0.3763 0.0474 0.4409
H19 H 0.1087 0.0462 0.2981
C13 C 0.427(3) 0.0232(4) 0.2447(18)
H20 H 0.6215 0.0273 0.2772
H21 H 0.3615 0.0279 0.1304
C14 C 0.378(4) -0.0161(4) 0.272(2)
H22 H 0.1870 -0.0213 0.2229
H23 H 0.4158 -0.0200 0.3860
C15 C 0.542(4) -0.0433(4) 0.208(2)
H24 H 0.4919 -0.0675 0.2302
H25 H 0.7318 -0.0396 0.2599
H26 H 0.5054 -0.0401 0.0949
O5 O 1.0271(9) 0.34793(15) 0.9301(5)
O6 O 0.5782(12) 0.3486(3) 0.8664(7)
O7 O 0.8360(12) 0.3095(2) 0.4427(6)
H27 H 0.6747 0.3040 0.4130
O8 O 1.2732(12) 0.30429(19) 1.3233(6)
H28 H 1.1501 0.2978 1.3597
C16 C 0.7734(14) 0.3483(2) 0.8277(8)
C17 C 0.7762(15) 0.3489(3) 0.6548(8)
H29 H 0.5872 0.3486 0.5872
C18 C 0.9203(17) 0.3145(2) 0.6138(8)
H30 H 1.1155 0.3197 0.6450
C19 C 0.8833(18) 0.2831(3) 0.7066(9)
H31 H 0.7168 0.2711 0.6769
C20 C 1.0757(19) 0.2708(2) 0.8313(9)
H32 H 1.2542 0.2758 0.8337
C21 C 1.036(2) 0.2497(3) 0.9681(10)
H33 H 1.2008 0.2365 1.0210
H34 H 0.8901 0.2323 0.9298
C22 C 0.9667(19) 0.2757(2) 1.0848(9)
H35 H 0.9461 0.2617 1.1749
H36 H 0.7919 0.2867 1.0326
C23 C 1.1722(14) 0.3064(2) 1.1502(7)
H37 H 1.3266 0.3029 1.1069
C24 C 1.0566(14) 0.3442(2) 1.1019(7)
H38 H 0.8804 0.3470 1.1230
C25 C 0.910(2) 0.3819(3) 0.6112(13)
H39 H 0.8210 0.4034 0.6333
H40 H 0.8981 0.3812 0.4993
H41 H 1.0980 0.3824 0.6732
C26 C 1.2524(18) 0.3750(3) 1.1829(9)
H42 H 1.3063 0.3715 1.2981
H43 H 1.4147 0.3739 1.1474
C27 C 1.124(3) 0.4110(4) 1.1439(15)
H44 H 0.9412 0.4101 1.1543
H45 H 1.1108 0.4169 1.0334
C28 C 1.286(5) 0.4411(4) 1.2544(18)
H46 H 1.2400 0.4393 1.3544
H47 H 1.4767 0.4345 1.2782
C29 C 1.068(13) 0.4806(13) 1.204(5)
C30 C 0.979(7) 0.4904(7) 1.294(3)
H48 H 0.8933 0.5129 1.2513
H49 H 1.0464 0.4922 1.4089
H50 H 0.8485 0.4710 1.2666
C31? C 1.267(11) 0.4807(11) 1.210(4)
H51? H 1.2199 0.4846 1.0948
H52? H 1.4307 0.4942 1.2630
loop_
_geom_bond_atom_site_label_1
_geom_bond_atom_site_label_2
_geom_bond_site_symmetry_1
_geom_bond_site_symmetry_2
O1 C1 1_555 1_555
O2 C1 1_555 1_555
O3 H1 1_555 1_555
O4 H2 1_555 1_555
C1 C2 1_555 1_555
C2 H3 1_555 1_555
C3 O3 1_555 1_555
H4 C3 1_555 1_555
C4 C3 1_555 1_555
H5 C4 1_555 1_555
C5 C4 1_555 1_555
H6 C5 1_555 1_555
C6 C5 1_555 1_555
H7 C6 1_555 1_555
H8 C6 1_555 1_555
C7 C6 1_555 1_555
H9 C7 1_555 1_555
H10 C7 1_555 1_555
C8 O4 1_555 1_555
H11 C8 1_555 1_555
C9 O1 1_555 1_555
H12 C9 1_555 1_555
C10 C2 1_555 1_555
H13 C10 1_555 1_555
H14 C10 1_555 1_555
H15 C10 1_555 1_555
C11 C9 1_555 1_555
H16 C11 1_555 1_555
H17 C11 1_555 1_555
C12 C11 1_555 1_555
H18 C12 1_555 1_555
H19 C12 1_555 1_555
C13 C12 1_555 1_555
H20 C13 1_555 1_555
H21 C13 1_555 1_555
C14 C13 1_555 1_555
H22 C14 1_555 1_555
H23 C14 1_555 1_555
C15 C14 1_555 1_555
H24 C15 1_555 1_555
H25 C15 1_555 1_555
H26 C15 1_555 1_555
O5 C16 1_555 1_555
O6 C16 1_555 1_555
O7 H27 1_555 1_555
O8 H28 1_555 1_555
C16 C17 1_555 1_555
C17 H29 1_555 1_555
C18 O7 1_555 1_555
H30 C18 1_555 1_555
C19 C18 1_555 1_555
H31 C19 1_555 1_555
C20 C19 1_555 1_555
H32 C20 1_555 1_555
C21 C20 1_555 1_555
H33 C21 1_555 1_555
H34 C21 1_555 1_555
C22 C21 1_555 1_555
H35 C22 1_555 1_555
H36 C22 1_555 1_555
C23 O8 1_555 1_555
H37 C23 1_555 1_555
C24 O5 1_555 1_555
H38 C24 1_555 1_555
C25 C17 1_555 1_555
H39 C25 1_555 1_555
H40 C25 1_555 1_555
H41 C25 1_555 1_555
C26 C24 1_555 1_555
H42 C26 1_555 1_555
H43 C26 1_555 1_555
C27 C26 1_555 1_555
H44 C27 1_555 1_555
H45 C27 1_555 1_555
C28 C27 1_555 1_555
H46 C28 1_555 1_555
H47 C28 1_555 1_555
C29 C28 1_555 1_555
C30 C29 1_555 1_555
H48 C30 1_555 1_555
H49 C30 1_555 1_555
H50 C30 1_555 1_555
C2 C3 1_555 1_555
C7 C8 1_555 1_555
C8 C9 1_555 1_555
C17 C18 1_555 1_555
C22 C23 1_555 1_555
C23 C24 1_555 1_555

#END
