
#######################################################################
#
#                 Cambridge Crystallographic Data Centre
#                                CCDC 
#
#######################################################################
#
# If this CIF has been generated from an entry in the Cambridge 
# Structural Database, then it will include bibliographic, chemical, 
# crystal, experimental, refinement or atomic coordinate data resulting 
# from the CCDC's data processing and validation procedures.
#
#######################################################################

data_DAFPOS
_chemical_formula_moiety         'C27 H21 N3 O2,C1 H4 O1'
_chemical_name_systematic        
'N-benzyl-5-oxo-4,6-diphenyl-5,6-dihydro-1H-pyrrolo[2,3-c]pyridine-7-carboxamide methanol solvate'
_symmetry_cell_setting           monoclinic
_symmetry_space_group_name_H-M   'P 21/n'
_symmetry_Int_Tables_number      14
_space_group_name_Hall           '-P 2yn'
loop_
_symmetry_equiv_pos_site_id
_symmetry_equiv_pos_as_xyz
1 x,y,z
2 1/2-x,1/2+y,1/2-z
3 -x,-y,-z
4 1/2+x,1/2-y,1/2+z
_cell_length_a                   15.6063(4)
_cell_length_b                   8.6408(2)
_cell_length_c                   17.9878(5)
_cell_angle_alpha                90
_cell_angle_beta                 102.838(3)
_cell_angle_gamma                90
_cell_volume                     2365.03
_exptl_crystal_colour            'yellowish yellow'
_cell_formula_units_Z            4
loop_
_atom_site_label
_atom_site_type_symbol
_atom_site_fract_x
_atom_site_fract_y
_atom_site_fract_z
O1 O 0.35511(8) 0.73518(13) 0.47021(6)
O2 O 0.32648(9) 0.41894(13) 0.22856(6)
N1 N 0.34378(8) 0.53261(14) 0.38781(7)
N2 N 0.18575(9) 0.21030(16) 0.35720(8)
H1 H 0.1945 0.1427 0.3246
N3 N 0.36192(8) 0.19253(14) 0.29080(7)
H2 H 0.3613 0.1398 0.3312
C1 C 0.30566(9) 0.39807(16) 0.35491(8)
C2 C 0.19914(9) 0.42131(17) 0.43467(8)
C3 C 0.23684(9) 0.33886(17) 0.38067(8)
C4 C 0.23499(9) 0.56200(17) 0.46386(8)
C5 C 0.42646(10) 0.57869(17) 0.37067(8)
C6 C 0.31266(9) 0.61874(17) 0.44268(8)
C7 C 0.33368(9) 0.33796(17) 0.28564(8)
C8 C 0.19517(10) 0.65622(19) 0.51599(9)
C9 C 0.49957(10) 0.4881(2) 0.39715(9)
H3 H 0.4964 0.4030 0.4281
C10 C 0.39379(11) 0.12170(19) 0.22897(9)
H4 H 0.3571 0.1549 0.1808
H5 H 0.3885 0.0102 0.2322
C11 C 0.12323(11) 0.3342(2) 0.44114(10)
H6 H 0.0840 0.3585 0.4714
C12 C 0.48836(11) 0.16231(18) 0.23024(9)
C13 C 0.16835(11) 0.5888(2) 0.57734(10)
H7 H 0.1770 0.4834 0.5864
C14 C 0.43036(12) 0.70606(19) 0.32564(10)
H8 H 0.3809 0.7676 0.3090
C15 C 0.11931(11) 0.2092(2) 0.39465(10)
H9 H 0.0765 0.1327 0.3892
C16 C 0.57781(11) 0.5253(2) 0.37709(11)
H10 H 0.6276 0.4653 0.3948
C17 C 0.18205(12) 0.8147(2) 0.50411(11)
H11 H 0.2000 0.8626 0.4638
C18 C 0.12901(13) 0.6763(3) 0.62509(12)
H12 H 0.1111 0.6293 0.6656
C19 C 0.50842(13) 0.7417(2) 0.30545(12)
H13 H 0.5115 0.8269 0.2746
C20 C 0.55269(12) 0.1463(3) 0.29606(11)
H14 H 0.5374 0.1122 0.3404
C21 C 0.58184(13) 0.6508(3) 0.33110(12)
H15 H 0.6342 0.6747 0.3172
C22 C 0.11639(13) 0.8323(3) 0.61258(13)
H16 H 0.0904 0.8914 0.6448
C23 C 0.51248(16) 0.2136(2) 0.16536(12)
H17 H 0.4702 0.2252 0.1203
C24 C 0.14251(15) 0.9008(3) 0.55195(13)
H18 H 0.1334 1.0062 0.5432
C25 C 0.63928(15) 0.1801(3) 0.29736(16)
H19 H 0.6820 0.1678 0.3421
C26 C 0.5996(2) 0.2479(3) 0.16701(17)
H20 H 0.6155 0.2824 0.1230
C27 C 0.66225(18) 0.2315(3) 0.23263(19)
H21 H 0.7205 0.2554 0.2334
O3 O 0.37972(12) 1.03163(15) 0.42987(7)
H22 H 0.3717 0.9387 0.4347
C28 C 0.39116(19) 1.1040(3) 0.50093(12)
H23 H 0.4129 1.2071 0.4976
H24 H 0.4326 1.0462 0.5381
H25 H 0.3359 1.1084 0.5159
loop_
_geom_bond_atom_site_label_1
_geom_bond_atom_site_label_2
_geom_bond_site_symmetry_1
_geom_bond_site_symmetry_2
O1 C6 1_555 1_555
O2 C7 1_555 1_555
N1 C1 1_555 1_555
N2 H1 1_555 1_555
N3 H2 1_555 1_555
C1 C3 1_555 1_555
C2 C3 1_555 1_555
C3 N2 1_555 1_555
C4 C2 1_555 1_555
C5 N1 1_555 1_555
C6 N1 1_555 1_555
C7 N3 1_555 1_555
C8 C4 1_555 1_555
C9 C5 1_555 1_555
H3 C9 1_555 1_555
C10 N3 1_555 1_555
H4 C10 1_555 1_555
H5 C10 1_555 1_555
C11 C2 1_555 1_555
H6 C11 1_555 1_555
C12 C10 1_555 1_555
C13 C8 1_555 1_555
H7 C13 1_555 1_555
C14 C5 1_555 1_555
H8 C14 1_555 1_555
C15 N2 1_555 1_555
H9 C15 1_555 1_555
C16 C9 1_555 1_555
H10 C16 1_555 1_555
C17 C8 1_555 1_555
H11 C17 1_555 1_555
C18 C13 1_555 1_555
H12 C18 1_555 1_555
C19 C14 1_555 1_555
H13 C19 1_555 1_555
C20 C12 1_555 1_555
H14 C20 1_555 1_555
C21 C16 1_555 1_555
H15 C21 1_555 1_555
C22 C18 1_555 1_555
H16 C22 1_555 1_555
C23 C12 1_555 1_555
H17 C23 1_555 1_555
C24 C17 1_555 1_555
H18 C24 1_555 1_555
C25 C20 1_555 1_555
H19 C25 1_555 1_555
C26 C23 1_555 1_555
H20 C26 1_555 1_555
C27 C25 1_555 1_555
H21 C27 1_555 1_555
O3 H22 1_555 1_555
C28 O3 1_555 1_555
H23 C28 1_555 1_555
H24 C28 1_555 1_555
H25 C28 1_555 1_555
C1 C7 1_555 1_555
C4 C6 1_555 1_555
C11 C15 1_555 1_555
C19 C21 1_555 1_555
C22 C24 1_555 1_555
C26 C27 1_555 1_555

#END
