
#######################################################################
#
#                 Cambridge Crystallographic Data Centre
#                                CCDC 
#
#######################################################################
#
# If this CIF has been generated from an entry in the Cambridge 
# Structural Database, then it will include bibliographic, chemical, 
# crystal, experimental, refinement or atomic coordinate data resulting 
# from the CCDC's data processing and validation procedures.
#
#######################################################################

data_DAFQEJ
_chemical_formula_moiety         'C14 H13 N1 O3'
_chemical_name_systematic        
'methyl 4-acetyl-2-phenyl-1H-pyrrole-3-carboxylate'
_symmetry_cell_setting           orthorhombic
_symmetry_space_group_name_H-M   'P 21 21 21'
_symmetry_Int_Tables_number      19
_space_group_name_Hall           'P 2ac 2ab'
loop_
_symmetry_equiv_pos_site_id
_symmetry_equiv_pos_as_xyz
1 x,y,z
2 1/2-x,-y,1/2+z
3 -x,1/2+y,1/2-z
4 1/2+x,1/2-y,-z
_cell_length_a                   5.76485(10)
_cell_length_b                   11.1430(2)
_cell_length_c                   19.8397(4)
_cell_angle_alpha                90
_cell_angle_beta                 90
_cell_angle_gamma                90
_cell_volume                     1274.46
_exptl_crystal_colour            colorless
_exptl_crystal_description       block
_chemical_melting_point          '411 K'
_cell_formula_units_Z            4
_exptl_crystal_recrystallization_method hexanes/dichloromethane
loop_
_atom_site_label
_atom_site_type_symbol
_atom_site_fract_x
_atom_site_fract_y
_atom_site_fract_z
C1 C 0.2323(3) 0.46834(15) 0.77025(9)
C2 C 0.2729(4) 0.44943(17) 0.83897(10)
H1 H 0.4089 0.4120 0.8529
C3 C 0.1107(4) 0.4864(2) 0.88665(11)
H2 H 0.1381 0.4725 0.9322
C4 C -0.0895(4) 0.5431(2) 0.86691(12)
H3 H -0.1973 0.5676 0.8989
C5 C -0.1300(3) 0.5635(2) 0.79946(12)
H4 H -0.2653 0.6023 0.7861
C6 C 0.0295(3) 0.52665(19) 0.75103(10)
H5 H 0.0003 0.5411 0.7056
C7 C 0.3982(3) 0.42752(15) 0.71905(8)
C8 C 0.4570(3) 0.47387(14) 0.65726(8)
C9 C 0.6287(3) 0.39776(16) 0.62768(9)
C10 C 0.6670(4) 0.30698(18) 0.67392(10)
H6 H 0.7704 0.2437 0.6686
C11 C 0.7473(3) 0.41841(19) 0.56383(9)
C12 C 0.9322(4) 0.3314(2) 0.54193(13)
H7 H 0.9689 0.3449 0.4953
H8 H 0.8769 0.2508 0.5476
H9 H 1.0688 0.3431 0.5688
C13 C 0.3760(3) 0.59071(15) 0.63070(8)
C14 C 0.1253(6) 0.6894(3) 0.55477(19)
H10 H 0.0209 0.6704 0.5186
H11 H 0.2493 0.7386 0.5380
H12 H 0.0431 0.7320 0.5894
N1 N 0.5303(3) 0.32524(14) 0.72768(8)
H13 H 0.5256 0.2796 0.7626
O1 O 0.7014(3) 0.50594(16) 0.52922(7)
O2 O 0.4408(4) 0.68531(13) 0.65146(9)
O3 O 0.2200(3) 0.57964(13) 0.58238(9)
loop_
_geom_bond_atom_site_label_1
_geom_bond_atom_site_label_2
_geom_bond_site_symmetry_1
_geom_bond_site_symmetry_2
C1 C2 1_555 1_555
C2 H1 1_555 1_555
C3 C2 1_555 1_555
H2 C3 1_555 1_555
C4 C3 1_555 1_555
H3 C4 1_555 1_555
C5 C4 1_555 1_555
H4 C5 1_555 1_555
C6 C1 1_555 1_555
H5 C6 1_555 1_555
C7 C1 1_555 1_555
C8 C7 1_555 1_555
C9 C8 1_555 1_555
C10 C9 1_555 1_555
H6 C10 1_555 1_555
C11 C9 1_555 1_555
C12 C11 1_555 1_555
H7 C12 1_555 1_555
H8 C12 1_555 1_555
H9 C12 1_555 1_555
C13 C8 1_555 1_555
C14 H10 1_555 1_555
H11 C14 1_555 1_555
H12 C14 1_555 1_555
N1 C7 1_555 1_555
H13 N1 1_555 1_555
O1 C11 1_555 1_555
O2 C13 1_555 1_555
O3 C13 1_555 1_555
C5 C6 1_555 1_555
C10 N1 1_555 1_555
C14 O3 1_555 1_555

#END
