
#######################################################################
#
#                 Cambridge Crystallographic Data Centre
#                                CCDC 
#
#######################################################################
#
# If this CIF has been generated from an entry in the Cambridge 
# Structural Database, then it will include bibliographic, chemical, 
# crystal, experimental, refinement or atomic coordinate data resulting 
# from the CCDC's data processing and validation procedures.
#
#######################################################################

data_DAGBOD
_chemical_formula_moiety         'C22 H18 N4'
_chemical_name_systematic        4,4'-Diphenyl-6,6'-dimethyl-2,2'-bipyrimidine
_symmetry_cell_setting           monoclinic
_symmetry_space_group_name_H-M   'P 21/c'
_symmetry_Int_Tables_number      14
_space_group_name_Hall           '-P 2ybc'
loop_
_symmetry_equiv_pos_site_id
_symmetry_equiv_pos_as_xyz
1 x,y,z
2 x,1/2-y,1/2+z
3 -x,-y,-z
4 -x,1/2+y,1/2-z
_cell_length_a                   9.177(2)
_cell_length_b                   10.508(2)
_cell_length_c                   9.440(2)
_cell_angle_alpha                90
_cell_angle_beta                 107.373(4)
_cell_angle_gamma                90
_cell_volume                     868.79
_exptl_crystal_colour            colorless
_exptl_crystal_description       plate
_chemical_melting_point          230-232deg.C
_cell_formula_units_Z            2
loop_
_atom_site_label
_atom_site_type_symbol
_atom_site_fract_x
_atom_site_fract_y
_atom_site_fract_z
N1 N 0.61391(11) 0.64125(8) 0.05938(11)
N2 N 0.39709(11) 0.60200(9) -0.15199(11)
C1 C 0.50315(12) 0.56784(10) -0.02601(12)
C2 C 0.61858(13) 0.76270(10) 0.01495(12)
C3 C 0.50955(14) 0.80830(11) -0.11085(14)
H1 H 0.5078(15) 0.8953(13) -0.1450(15)
C4 C 0.40008(13) 0.72426(10) -0.19294(13)
C5 C 0.74649(14) 0.84193(10) 0.10719(13)
C6 C 0.82483(15) 0.80431(12) 0.25123(15)
H2 H 0.7925(15) 0.7287(13) 0.2897(15)
C7 C 0.94783(17) 0.87495(13) 0.33641(17)
H3 H 0.9974(19) 0.8472(16) 0.436(2)
C8 C 0.99470(17) 0.98302(13) 0.27875(17)
H4 H 1.0803(18) 1.0296(14) 0.3367(18)
C9 C 0.91654(18) 1.02155(13) 0.13683(17)
H5 H 0.9506(17) 1.0989(15) 0.0954(16)
C10 C 0.79309(16) 0.95211(12) 0.05085(16)
H6 H 0.7413(17) 0.9770(14) -0.0521(18)
C11 C 0.27870(17) 0.76523(14) -0.33069(15)
H7 H 0.180(2) 0.7306(17) -0.331(2)
H8 H 0.2723(18) 0.8556(17) -0.3449(17)
H9 H 0.300(2) 0.7300(18) -0.418(2)
C1B C 0.49685(12) 0.43216(10) 0.02601(12)
N1B N 0.38609(11) 0.35875(8) -0.05938(11)
C2B C 0.38142(13) 0.23730(10) -0.01495(12)
C3B C 0.49045(14) 0.19170(11) 0.11085(14)
H1B H 0.4922(15) 0.1047(13) 0.1450(15)
C4B C 0.59992(13) 0.27574(10) 0.19294(13)
N2B N 0.60291(11) 0.39800(9) 0.15199(11)
C11B C 0.72130(17) 0.23477(14) 0.33069(15)
H7B H 0.820(2) 0.2694(17) 0.331(2)
H8B H 0.7277(18) 0.1444(17) 0.3449(17)
H9B H 0.700(2) 0.2700(18) 0.418(2)
C5B C 0.25351(14) 0.15807(10) -0.10719(13)
C6B C 0.17517(15) 0.19569(12) -0.25123(15)
H2B H 0.2075(15) 0.2713(13) -0.2897(15)
C7B C 0.05217(17) 0.12505(13) -0.33641(17)
H3B H 0.0026(19) 0.1528(16) -0.436(2)
C8B C 0.00530(17) 0.01698(13) -0.27875(17)
H4B H -0.0803(18) -0.0296(14) -0.3367(18)
C9B C 0.08346(18) -0.02155(13) -0.13683(17)
H5B H 0.0494(17) -0.0989(15) -0.0954(16)
C10B C 0.20691(16) 0.04789(12) -0.05085(16)
H6B H 0.2587(17) 0.0230(14) 0.0521(18)
loop_
_geom_bond_atom_site_label_1
_geom_bond_atom_site_label_2
_geom_bond_site_symmetry_1
_geom_bond_site_symmetry_2
N1 C1 1_555 1_555
N2 C1 1_555 1_555
C1 C1B 1_555 1_555
C2 N1 1_555 1_555
C3 C2 1_555 1_555
H1 C3 1_555 1_555
C4 N2 1_555 1_555
C5 C2 1_555 1_555
C6 C5 1_555 1_555
H2 C6 1_555 1_555
C7 C6 1_555 1_555
H3 C7 1_555 1_555
C8 C7 1_555 1_555
H4 C8 1_555 1_555
C9 C8 1_555 1_555
H5 C9 1_555 1_555
C10 C5 1_555 1_555
H6 C10 1_555 1_555
C11 C4 1_555 1_555
H7 C11 1_555 1_555
H8 C11 1_555 1_555
H9 C11 1_555 1_555
C1B N1B 1_555 1_555
N1B C2B 1_555 1_555
C2B C3B 1_555 1_555
C3B H1B 1_555 1_555
C4B C3B 1_555 1_555
N2B C1B 1_555 1_555
C11B C4B 1_555 1_555
H7B C11B 1_555 1_555
H8B C11B 1_555 1_555
H9B C11B 1_555 1_555
C5B C2B 1_555 1_555
C6B C5B 1_555 1_555
H2B C6B 1_555 1_555
C7B C6B 1_555 1_555
H3B C7B 1_555 1_555
C8B C7B 1_555 1_555
H4B C8B 1_555 1_555
C9B C8B 1_555 1_555
H5B C9B 1_555 1_555
C10B C5B 1_555 1_555
H6B C10B 1_555 1_555
C3 C4 1_555 1_555
C9 C10 1_555 1_555
C4B N2B 1_555 1_555
C9B C10B 1_555 1_555

#END
