
#######################################################################
#
#                 Cambridge Crystallographic Data Centre
#                                CCDC 
#
#######################################################################
#
# If this CIF has been generated from an entry in the Cambridge 
# Structural Database, then it will include bibliographic, chemical, 
# crystal, experimental, refinement or atomic coordinate data resulting 
# from the CCDC's data processing and validation procedures.
#
#######################################################################

data_DAGHID
_chemical_formula_moiety         'C21 H22 I1 N1 O1 S1'
_chemical_name_systematic        
8-Iodo-2-phenyl-4-(2-methoxyphenyl)-4a,5,6,7,8,8a-hexahydro-4H-benzo(e)(1,3)thiazine
_symmetry_cell_setting           monoclinic
_symmetry_space_group_name_H-M   'P 21/c'
_symmetry_Int_Tables_number      14
_space_group_name_Hall           '-P 2ybc'
loop_
_symmetry_equiv_pos_site_id
_symmetry_equiv_pos_as_xyz
1 x,y,z
2 x,1/2-y,1/2+z
3 -x,-y,-z
4 -x,1/2+y,1/2-z
_cell_length_a                   11.922(7)
_cell_length_b                   8.198(5)
_cell_length_c                   20.26(1)
_cell_angle_alpha                90
_cell_angle_beta                 101.786(6)
_cell_angle_gamma                90
_cell_volume                     1938.4
_exptl_crystal_colour            colorless
_exptl_crystal_description       block
_cell_formula_units_Z            4
loop_
_atom_site_label
_atom_site_type_symbol
_atom_site_fract_x
_atom_site_fract_y
_atom_site_fract_z
I1 I 0.83611(3) 0.04365(4) 0.08358(2)
S1 S 0.50540(7) -0.2730(1) 0.04524(4)
O1 O 0.9060(2) -0.5346(4) 0.1869(1)
N1 N 0.5549(2) -0.5161(3) 0.1387(1)
C1 C 0.4820(3) -0.4458(4) 0.0931(2)
C2 C 0.6747(3) -0.4651(4) 0.1554(2)
C3 C 0.6926(3) -0.2793(4) 0.1537(2)
C4 C 0.6543(3) -0.2168(4) 0.0814(2)
C5 C 0.6569(3) -0.0314(4) 0.0759(2)
C6 C 0.6039(4) 0.0559(5) 0.1275(3)
C7 C 0.6497(4) -0.0024(5) 0.1987(2)
C8 C 0.6371(3) -0.1866(5) 0.2038(2)
C9 C 0.3627(3) -0.5133(4) 0.0748(2)
C10 C 0.2782(3) -0.4390(5) 0.0265(2)
C11 C 0.1701(3) -0.5099(6) 0.0089(2)
C12 C 0.1461(3) -0.6522(6) 0.0382(2)
C13 C 0.2301(3) -0.7256(6) 0.0871(2)
C14 C 0.3376(3) -0.6559(5) 0.1044(2)
C15 C 0.7309(3) -0.5396(4) 0.2226(2)
C16 C 0.8481(3) -0.5745(4) 0.2363(2)
C17 C 0.8996(3) -0.6460(6) 0.2976(2)
C18 C 0.8340(4) -0.6787(6) 0.3450(2)
C19 C 0.7196(4) -0.6449(6) 0.3325(2)
C20 C 0.6687(3) -0.5746(5) 0.2714(2)
C21 C 1.0216(4) -0.5856(7) 0.1945(3)
H1 H 0.7117 -0.5098 0.1221
H2 H 0.7728 -0.2610 0.1669
H3 H 0.7036 -0.2617 0.0538
H4 H 0.6148 -0.0037 0.0319
H5 H 0.6195 0.1698 0.1246
H6 H 0.5228 0.0402 0.1166
H7 H 0.7293 0.0248 0.2113
H8 H 0.6096 0.0489 0.2287
H9 H 0.6727 -0.2215 0.2484
H10 H 0.5583 -0.2141 0.1958
H11 H 0.2953 -0.3394 0.0046
H12 H 0.1112 -0.4612 -0.0240
H13 H 0.0723 -0.7025 0.0245
H14 H 0.2129 -0.8229 0.1088
H15 H 0.3953 -0.7079 0.1372
H16 H 0.9791 -0.6740 0.3071
H17 H 0.8691 -0.7272 0.3866
H18 H 0.6752 -0.6649 0.3663
H19 H 0.5880 -0.5499 0.2623
H20 H 1.0662 -0.5492 0.2356
H21 H 1.0247 -0.7041 0.1937
H22 H 1.0530 -0.5467 0.1578
loop_
_geom_bond_atom_site_label_1
_geom_bond_atom_site_label_2
_geom_bond_site_symmetry_1
_geom_bond_site_symmetry_2
I1 C5 1_555 1_555
S1 C1 1_555 1_555
O1 C16 1_555 1_555
N1 C1 1_555 1_555
C1 C9 1_555 1_555
C2 N1 1_555 1_555
C3 C2 1_555 1_555
C4 S1 1_555 1_555
C5 C4 1_555 1_555
C6 C5 1_555 1_555
C7 C6 1_555 1_555
C8 C3 1_555 1_555
C9 C10 1_555 1_555
C10 C11 1_555 1_555
C11 C12 1_555 1_555
C12 C13 1_555 1_555
C13 C14 1_555 1_555
C14 C9 1_555 1_555
C15 C2 1_555 1_555
C16 C15 1_555 1_555
C17 C16 1_555 1_555
C18 C17 1_555 1_555
C19 C18 1_555 1_555
C20 C15 1_555 1_555
C21 O1 1_555 1_555
H1 C2 1_555 1_555
H2 C3 1_555 1_555
H3 C4 1_555 1_555
H4 C5 1_555 1_555
H5 C6 1_555 1_555
H6 C6 1_555 1_555
H7 C7 1_555 1_555
H8 C7 1_555 1_555
H9 C8 1_555 1_555
H10 C8 1_555 1_555
H11 C10 1_555 1_555
H12 C11 1_555 1_555
H13 C12 1_555 1_555
H14 C13 1_555 1_555
H15 C14 1_555 1_555
H16 C17 1_555 1_555
H17 C18 1_555 1_555
H18 C19 1_555 1_555
H19 C20 1_555 1_555
H20 C21 1_555 1_555
H21 C21 1_555 1_555
H22 C21 1_555 1_555
C3 C4 1_555 1_555
C7 C8 1_555 1_555
C19 C20 1_555 1_555

#END
