
#######################################################################
#
#                 Cambridge Crystallographic Data Centre
#                                CCDC 
#
#######################################################################
#
# If this CIF has been generated from an entry in the Cambridge 
# Structural Database, then it will include bibliographic, chemical, 
# crystal, experimental, refinement or atomic coordinate data resulting 
# from the CCDC's data processing and validation procedures.
#
#######################################################################

data_DAGWUG
_chemical_formula_moiety         'C21 H18 O4'
_chemical_name_systematic        
3-hydroxy-2-mesityl-9-methyl-4H-furo[2,3-h]chromen-4-one
_symmetry_cell_setting           monoclinic
_symmetry_space_group_name_H-M   'P 21/c'
_symmetry_Int_Tables_number      14
_space_group_name_Hall           '-P 2ybc'
loop_
_symmetry_equiv_pos_site_id
_symmetry_equiv_pos_as_xyz
1 x,y,z
2 -x,1/2+y,1/2-z
3 -x,-y,-z
4 x,1/2-y,1/2+z
_cell_length_a                   14.1228(16)
_cell_length_b                   9.2810(8)
_cell_length_c                   14.8338(16)
_cell_angle_alpha                90
_cell_angle_beta                 114.071(14)
_cell_angle_gamma                90
_cell_volume                     1775.24
_exptl_crystal_colour            colorless
_exptl_crystal_description       block
_cell_formula_units_Z            4
loop_
_atom_site_label
_atom_site_type_symbol
_atom_site_fract_x
_atom_site_fract_y
_atom_site_fract_z
O1 O -0.10943(14) -0.0360(2) 0.32357(16)
O2 O 0.17936(10) 0.24472(14) 0.48042(9)
O3 O 0.45301(11) 0.20097(16) 0.54692(12)
H1 H 0.4844 0.1314 0.5386
O4 O 0.37654(11) -0.04739(15) 0.44567(11)
C1 C -0.1342(2) 0.0927(4) 0.3547(3)
H2 H -0.2015 0.1178 0.3450
C2 C -0.05255(18) 0.1780(3) 0.40013(18)
C3 C 0.03410(16) 0.0969(2) 0.39909(15)
C4 C -0.00435(18) -0.0315(3) 0.35134(19)
C5 C 0.0545(2) -0.1389(3) 0.33453(19)
H3 H 0.0244 -0.2230 0.3010
C6 C 0.1586(2) -0.1156(3) 0.36951(17)
H4 H 0.2008 -0.1857 0.3601
C7 C 0.20404(16) 0.0128(2) 0.41983(14)
C8 C 0.14114(15) 0.1179(2) 0.43374(14)
C9 C 0.28437(14) 0.2708(2) 0.51682(14)
C10 C 0.35026(15) 0.1715(2) 0.50944(14)
C11 C 0.31451(15) 0.0377(2) 0.45696(14)
C12 C -0.0516(2) 0.3247(3) 0.4419(2)
H5 H -0.0037 0.3263 0.5100
H6 H -0.1199 0.3480 0.4368
H7 H -0.0307 0.3943 0.4057
C13 C 0.31330(14) 0.4132(2) 0.56402(13)
C14 C 0.31194(15) 0.4395(2) 0.65636(15)
C15 C 0.34527(16) 0.5728(2) 0.70047(15)
H8 H 0.3437 0.5910 0.7615
C16 C 0.38046(15) 0.6789(2) 0.65710(15)
C17 C 0.37933(17) 0.6509(2) 0.56548(16)
H9 H 0.4012 0.7227 0.5345
C18 C 0.34692(16) 0.5203(2) 0.51756(15)
C19 C 0.2773(2) 0.3252(3) 0.70831(19)
H10 H 0.2030 0.3186 0.6787
H11 H 0.3002 0.3499 0.7768
H12 H 0.3066 0.2341 0.7026
C20 C 0.42005(19) 0.8217(3) 0.70692(18)
H13 H 0.3702 0.8957 0.6745
H14 H 0.4846 0.8443 0.7030
H15 H 0.4305 0.8160 0.7750
C21 C 0.3492(2) 0.4979(3) 0.41788(18)
H16 H 0.3997 0.4255 0.4229
H17 H 0.3674 0.5867 0.3957
H18 H 0.2821 0.4671 0.3715
loop_
_geom_bond_atom_site_label_1
_geom_bond_atom_site_label_2
_geom_bond_site_symmetry_1
_geom_bond_site_symmetry_2
O1 C1 1_555 1_555
O2 C8 1_555 1_555
O3 H1 1_555 1_555
O4 C11 1_555 1_555
C1 H2 1_555 1_555
C2 C1 1_555 1_555
C3 C2 1_555 1_555
C4 O1 1_555 1_555
C5 C4 1_555 1_555
H3 C5 1_555 1_555
C6 C5 1_555 1_555
H4 C6 1_555 1_555
C7 C6 1_555 1_555
C8 C3 1_555 1_555
C9 O2 1_555 1_555
C10 O3 1_555 1_555
C11 C7 1_555 1_555
C12 C2 1_555 1_555
H5 C12 1_555 1_555
H6 C12 1_555 1_555
H7 C12 1_555 1_555
C13 C9 1_555 1_555
C14 C13 1_555 1_555
C15 C14 1_555 1_555
H8 C15 1_555 1_555
C16 C15 1_555 1_555
C17 C16 1_555 1_555
H9 C17 1_555 1_555
C18 C13 1_555 1_555
C19 C14 1_555 1_555
H10 C19 1_555 1_555
H11 C19 1_555 1_555
H12 C19 1_555 1_555
C20 C16 1_555 1_555
H13 C20 1_555 1_555
H14 C20 1_555 1_555
H15 C20 1_555 1_555
C21 C18 1_555 1_555
H16 C21 1_555 1_555
H17 C21 1_555 1_555
H18 C21 1_555 1_555
C3 C4 1_555 1_555
C7 C8 1_555 1_555
C9 C10 1_555 1_555
C10 C11 1_555 1_555
C17 C18 1_555 1_555

#END
