
#######################################################################
#
#                 Cambridge Crystallographic Data Centre
#                                CCDC 
#
#######################################################################
#
# If this CIF has been generated from an entry in the Cambridge 
# Structural Database, then it will include bibliographic, chemical, 
# crystal, experimental, refinement or atomic coordinate data resulting 
# from the CCDC's data processing and validation procedures.
#
#######################################################################

data_DAGWIS
_chemical_formula_moiety         'C21 H26 N6 O2,0.25(C1 H1 Cl3)'
_chemical_name_systematic        
'1,5,7-trimethyl-7-(8-(9-(propyl)adenyl)ethynyl)-3-azabicyclo[3.3.1]nonane-2,4-dione chloroform solvate'
_symmetry_cell_setting           triclinic
_symmetry_space_group_name_H-M   'P -1'
_symmetry_Int_Tables_number      2
_space_group_name_Hall           '-P 1'
loop_
_symmetry_equiv_pos_site_id
_symmetry_equiv_pos_as_xyz
1 x,y,z
2 -x,-y,-z
_cell_length_a                   7.6166(3)
_cell_length_b                   16.8616(8)
_cell_length_c                   17.8082(7)
_cell_angle_alpha                88.088(3)
_cell_angle_beta                 81.177(3)
_cell_angle_gamma                77.664(2)
_cell_volume                     2207.83
_exptl_crystal_colour            colorless
_exptl_crystal_description       plate
_cell_formula_units_Z            4
loop_
_atom_site_label
_atom_site_type_symbol
_atom_site_fract_x
_atom_site_fract_y
_atom_site_fract_z
O3 O 1.1051(4) 0.30273(18) 0.04471(14)
O4 O 0.6253(3) 0.23892(16) 0.19383(14)
N7 N 0.8504(4) 0.28240(19) 0.11809(17)
N8 N 0.9923(4) 0.01804(18) 0.14772(16)
N9 N 0.9125(5) -0.09320(18) 0.08768(16)
N10 N 1.1468(5) -0.15187(19) -0.01377(16)
N11 N 1.2659(4) 0.01942(18) 0.07921(15)
N12 N 1.4178(6) -0.1107(2) -0.04861(18)
C22 C 1.0014(5) 0.3174(2) 0.1038(2)
C23 C 1.0260(5) 0.3738(2) 0.16428(19)
C24 C 1.1611(5) 0.3262(2) 0.2151(2)
C25 C 1.0971(5) 0.2563(2) 0.26199(18)
C26 C 0.8961(5) 0.2854(2) 0.2999(2)
C27 C 0.7639(5) 0.3344(2) 0.2492(2)
C28 C 0.7385(5) 0.2813(2) 0.1865(2)
C29 C 0.8432(5) 0.4060(2) 0.2135(2)
C30 C 1.1055(7) 0.4437(3) 0.1254(2)
C31 C 0.5802(6) 0.3655(3) 0.2977(3)
C32 C 1.2178(6) 0.2305(3) 0.3246(2)
C33 C 1.1183(5) 0.1846(2) 0.21443(18)
C34 C 1.1425(5) 0.1240(2) 0.17665(19)
C35 C 1.1395(5) 0.0543(2) 0.13450(18)
C36 C 1.0254(5) -0.0435(2) 0.09646(19)
C37 C 0.9858(6) -0.1437(2) 0.0306(2)
C38 C 1.2581(6) -0.1015(2) -0.00383(19)
C39 C 1.1948(5) -0.0428(2) 0.05393(18)
C40 C 0.8229(5) 0.0432(2) 0.2013(2)
C41 C 0.8326(7) 0.0049(3) 0.2791(2)
C42 C 0.6526(8) 0.0337(4) 0.3310(3)
H1 H 0.894(5) 0.316(2) 0.347(2)
H6 H 0.852(4) 0.439(2) 0.2562(18)
H7 H 1.162(5) 0.365(2) 0.2565(19)
H8 H 1.025(6) 0.475(3) 0.091(2)
H9 H 1.272(6) 0.307(2) 0.184(2)
H10 H 1.224(7) 0.424(3) 0.098(3)
H12 H 0.849(5) 0.241(2) 0.3224(19)
H14 H 0.599(5) 0.401(2) 0.333(2)
H19 H 0.937(8) 0.020(4) 0.305(3)
H20 H 1.349(6) 0.211(3) 0.303(2)
H22 H 1.130(6) 0.478(3) 0.165(2)
H23 H 0.835(6) 0.251(3) 0.081(3)
H24 H 1.216(7) 0.281(3) 0.358(3)
H28 H 0.742(6) 0.443(3) 0.182(2)
H29 H 0.863(6) -0.056(3) 0.271(2)
H30 H 0.788(6) 0.107(3) 0.205(2)
H34 H 0.520(7) 0.389(3) 0.266(3)
H36 H 0.523(7) 0.312(3) 0.320(3)
H38 H 0.730(6) 0.025(3) 0.174(2)
H43 H 0.928(6) -0.175(3) 0.024(2)
H44 H 0.618(8) 0.093(4) 0.339(3)
H45 H 1.446(5) -0.150(2) -0.085(2)
H46 H 1.184(6) 0.181(3) 0.360(2)
H49 H 1.485(8) -0.081(4) -0.049(3)
H50 H 0.550(10) 0.018(4) 0.305(4)
H52 H 0.687(11) 0.021(5) 0.386(5)
Cl1 Cl 1.0004(18) 0.0739(8) 0.4170(7)
Cl3 Cl 0.8162(17) 0.0787(8) 0.5344(7)
C43 C 1.0000 0.0000 0.5000
Cl1A Cl 0.9996(18) -0.0739(8) 0.5830(7)
Cl3A Cl 1.1838(17) -0.0787(8) 0.4656(7)
O1 O 0.5988(3) 0.44463(16) 0.81189(13)
O2 O 0.6610(4) 0.23537(16) 0.65388(14)
N1 N 0.6449(4) 0.33378(19) 0.73804(17)
N2 N 0.1976(4) 0.39375(17) 0.54375(15)
N3 N 0.1766(4) 0.43403(17) 0.41202(15)
N4 N 0.2472(4) 0.56593(17) 0.38576(15)
N5 N 0.2836(4) 0.50373(17) 0.58440(15)
N6 N 0.3260(4) 0.6437(2) 0.47497(19)
C1 C 0.5841(5) 0.3749(2) 0.80691(19)
C2 C 0.4998(5) 0.3281(2) 0.87212(19)
C3 C 0.2918(5) 0.3443(3) 0.8713(2)
C4 C 0.2284(5) 0.3079(2) 0.8044(2)
C5 C 0.3368(5) 0.2210(2) 0.7864(2)
C6 C 0.5435(5) 0.2082(2) 0.7848(2)
C7 C 0.6216(5) 0.2593(2) 0.7199(2)
C8 C 0.5795(6) 0.2369(2) 0.8601(2)
C9 C 0.5357(6) 0.3571(3) 0.9475(2)
C10 C 0.6314(6) 0.1186(3) 0.7697(3)
C11 C 0.0256(6) 0.3068(3) 0.8266(3)
C12 C 0.2423(5) 0.3578(2) 0.7346(2)
C13 C 0.2424(5) 0.3949(2) 0.67574(19)
C14 C 0.2435(4) 0.4324(2) 0.60320(19)
C15 C 0.2106(4) 0.4452(2) 0.48239(18)
C16 C 0.1983(4) 0.4974(2) 0.36815(18)
C17 C 0.2797(4) 0.5752(2) 0.45665(17)
C18 C 0.2630(4) 0.5118(2) 0.50897(17)
C19 C 0.1490(5) 0.3145(2) 0.5451(2)
C20 C 0.3141(6) 0.2454(2) 0.5338(3)
C21 C 0.2598(9) 0.1634(3) 0.5402(3)
H2 H 0.090(6) 0.316(3) 0.503(2)
H3 H 0.173(4) 0.494(2) 0.3132(18)
H4 H 0.317(6) 0.201(3) 0.742(3)
H5 H 0.396(5) 0.250(2) 0.573(2)
H11 H 0.179(7) 0.159(3) 0.510(3)
H13 H 0.700(6) 0.225(3) 0.862(2)
H15 H 0.079(5) 0.309(2) 0.597(2)
H16 H 0.243(5) 0.410(3) 0.875(2)
H17 H 0.295(6) 0.185(3) 0.826(2)
H18 H 0.772(6) 0.111(3) 0.769(2)
H21 H 0.247(6) 0.321(3) 0.927(3)
H25 H -0.049(6) 0.359(3) 0.835(2)
H26 H 0.382(5) 0.244(2) 0.483(2)
H27 H 0.349(6) 0.650(3) 0.525(3)
H31 H 0.478(6) 0.334(3) 0.994(3)
H32 H 0.356(9) 0.117(4) 0.524(3)
H33 H -0.018(7) 0.287(3) 0.787(3)
H35 H 0.607(6) 0.100(3) 0.724(3)
H37 H 0.573(5) 0.092(3) 0.810(2)
H39 H 0.523(5) 0.206(3) 0.905(2)
H40 H 0.188(7) 0.153(3) 0.596(3)
H41 H 0.016(5) 0.271(2) 0.874(2)
H42 H 0.674(5) 0.364(3) 0.704(2)
H47 H 0.332(6) 0.680(3) 0.443(2)
H48 H 0.499(7) 0.418(4) 0.951(3)
H51 H 0.662(7) 0.347(3) 0.956(2)
Cl2? Cl 0.8142(7) 0.1420(4) 0.4775(3)
Cl4? Cl 0.7449(10) 0.0098(5) 0.5747(4)
loop_
_geom_bond_atom_site_label_1
_geom_bond_atom_site_label_2
_geom_bond_site_symmetry_1
_geom_bond_site_symmetry_2
O1 C1 1_555 1_555
O2 C7 1_555 1_555
O3 C22 1_555 1_555
O4 C28 1_555 1_555
N1 C1 1_555 1_555
N2 C14 1_555 1_555
N3 C15 1_555 1_555
N4 C16 1_555 1_555
N5 C14 1_555 1_555
N6 C17 1_555 1_555
N7 C22 1_555 1_555
N8 C35 1_555 1_555
N9 C36 1_555 1_555
N10 C37 1_555 1_555
N11 C35 1_555 1_555
N12 C38 1_555 1_555
C1 C2 1_555 1_555
C2 C3 1_555 1_555
C3 C4 1_555 1_555
C4 C5 1_555 1_555
C5 C6 1_555 1_555
C6 C7 1_555 1_555
C7 N1 1_555 1_555
C8 C2 1_555 1_555
C9 C2 1_555 1_555
C10 C6 1_555 1_555
C11 C4 1_555 1_555
C12 C4 1_555 1_555
C13 C12 1_555 1_555
C14 C13 1_555 1_555
C15 N2 1_555 1_555
C16 N3 1_555 1_555
C17 N4 1_555 1_555
C18 N5 1_555 1_555
C19 N2 1_555 1_555
C20 C19 1_555 1_555
C21 C20 1_555 1_555
C22 C23 1_555 1_555
C23 C24 1_555 1_555
C24 C25 1_555 1_555
C25 C26 1_555 1_555
C26 C27 1_555 1_555
C27 C28 1_555 1_555
C28 N7 1_555 1_555
C29 C23 1_555 1_555
C30 C23 1_555 1_555
C31 C27 1_555 1_555
C32 C25 1_555 1_555
C33 C25 1_555 1_555
C34 C33 1_555 1_555
C35 C34 1_555 1_555
C36 N8 1_555 1_555
C37 N9 1_555 1_555
C38 N10 1_555 1_555
C39 N11 1_555 1_555
C40 N8 1_555 1_555
C41 C40 1_555 1_555
C42 C41 1_555 1_555
Cl1 Cl3 1_555 1_555
Cl3 C43 1_555 1_555
C43 Cl1 1_555 1_555
H1 C26 1_555 1_555
H2 C19 1_555 1_555
H3 C16 1_555 1_555
H4 C5 1_555 1_555
H5 C20 1_555 1_555
H6 C29 1_555 1_555
H7 C24 1_555 1_555
H8 C30 1_555 1_555
H9 C24 1_555 1_555
H10 C30 1_555 1_555
H11 C21 1_555 1_555
H12 C26 1_555 1_555
H13 C8 1_555 1_555
H14 C31 1_555 1_555
H15 C19 1_555 1_555
H16 C3 1_555 1_555
H17 C5 1_555 1_555
H18 C10 1_555 1_555
H19 C41 1_555 1_555
H20 C32 1_555 1_555
H21 C3 1_555 1_555
H22 C30 1_555 1_555
H23 N7 1_555 1_555
H24 C32 1_555 1_555
H25 C11 1_555 1_555
H26 C20 1_555 1_555
H27 N6 1_555 1_555
H28 C29 1_555 1_555
H29 C41 1_555 1_555
H30 C40 1_555 1_555
H31 C9 1_555 1_555
H32 C21 1_555 1_555
H33 C11 1_555 1_555
H34 C31 1_555 1_555
H35 C10 1_555 1_555
H36 C31 1_555 1_555
H37 C10 1_555 1_555
H38 C40 1_555 1_555
H39 C8 1_555 1_555
H40 C21 1_555 1_555
H41 C11 1_555 1_555
H42 N1 1_555 1_555
H43 C37 1_555 1_555
H44 C42 1_555 1_555
H45 N12 1_555 1_555
H46 C32 1_555 1_555
H47 N6 1_555 1_555
H48 C9 1_555 1_555
H49 N12 1_555 1_555
H50 C42 1_555 1_555
H51 C9 1_555 1_555
H52 C42 1_555 1_555
Cl1A C43 1_555 1_555
Cl3A C43 1_555 1_555
C6 C8 1_555 1_555
C15 C18 1_555 1_555
C17 C18 1_555 1_555
C27 C29 1_555 1_555
C36 C39 1_555 1_555
C38 C39 1_555 1_555
Cl1A Cl3A 1_555 1_555

#END
