
#######################################################################
#
#                 Cambridge Crystallographic Data Centre
#                                CCDC 
#
#######################################################################
#
# If this CIF has been generated from an entry in the Cambridge 
# Structural Database, then it will include bibliographic, chemical, 
# crystal, experimental, refinement or atomic coordinate data resulting 
# from the CCDC's data processing and validation procedures.
#
#######################################################################

data_DAGXAN
_chemical_formula_moiety         'C18 H15 N1 O4'
_chemical_name_systematic        
2-(4-methoxyphenyl)-9-methyl-2,3-dihydro-4H-furo[2,3-h][1,3]benzoxazin-4-one
_symmetry_cell_setting           monoclinic
_symmetry_space_group_name_H-M   'P 21/n'
_symmetry_Int_Tables_number      14
_space_group_name_Hall           '-P 2yn'
loop_
_symmetry_equiv_pos_site_id
_symmetry_equiv_pos_as_xyz
1 x,y,z
2 1/2-x,1/2+y,1/2-z
3 -x,-y,-z
4 1/2+x,1/2-y,1/2+z
_cell_length_a                   14.2605(10)
_cell_length_b                   12.4175(9)
_cell_length_c                   18.3015(14)
_cell_angle_alpha                90
_cell_angle_beta                 110.920(9)
_cell_angle_gamma                90
_cell_volume                     3027.19
_exptl_crystal_colour            colorless
_exptl_crystal_description       plate
_cell_formula_units_Z            8
loop_
_atom_site_label
_atom_site_type_symbol
_atom_site_fract_x
_atom_site_fract_y
_atom_site_fract_z
O1 O 0.71551(16) 0.61219(19) 0.19803(14)
O2 O 0.77932(14) 0.19150(17) 0.03245(12)
O3 O 0.96247(12) 0.43898(15) 0.13153(10)
O4 O 1.37710(14) 0.37104(19) 0.09135(13)
N1 N 0.93441(15) 0.26635(19) 0.07513(13)
H1 H 0.9529 0.2310 0.0421
C1 C 0.7963(3) 0.6791(3) 0.2081(2)
H2 H 0.7990 0.7499 0.2252
C2 C 0.8705(2) 0.6324(3) 0.19082(17)
C3 C 0.8345(2) 0.5250(2) 0.16638(15)
C4 C 0.7397(2) 0.5171(3) 0.17194(16)
C5 C 0.6783(2) 0.4278(3) 0.15159(18)
H3 H 0.6161 0.4259 0.1573
C6 C 0.7143(2) 0.3422(3) 0.12239(17)
H4 H 0.6749 0.2807 0.1068
C7 C 0.80922(19) 0.3446(2) 0.11539(15)
C8 C 0.87013(19) 0.4349(2) 0.13905(15)
C9 C 1.00555(18) 0.3332(2) 0.13312(16)
H5 H 1.0191 0.3013 0.1849
C10 C 0.83909(19) 0.2591(2) 0.07253(16)
C11 C 1.10254(19) 0.3435(2) 0.11917(15)
C12 C 1.1047(2) 0.3714(3) 0.04704(17)
H6 H 1.0447 0.3838 0.0058
C13 C 1.1951(2) 0.3814(3) 0.03473(17)
H7 H 1.1955 0.4000 -0.0144
C14 C 1.28403(19) 0.3635(2) 0.09599(17)
C15 C 1.2821(2) 0.3350(2) 0.16819(17)
H8 H 1.3419 0.3219 0.2095
C16 C 1.19210(19) 0.3260(2) 0.17948(16)
H9 H 1.1918 0.3077 0.2287
C17 C 0.9677(2) 0.6819(3) 0.1954(2)
H10 H 1.0222 0.6374 0.2269
H11 H 0.9737 0.7522 0.2185
H12 H 0.9699 0.6880 0.1437
C18 C 1.3832(3) 0.4003(4) 0.0179(2)
H13 H 1.3495 0.3471 -0.0206
H14 H 1.4524 0.4043 0.0228
H15 H 1.3519 0.4691 0.0021
O5 O 1.45929(15) 0.62134(19) 0.16052(12)
O6 O 1.48412(13) 0.37184(17) 0.46690(11)
O7 O 1.26208(12) 0.53842(15) 0.30655(10)
O8 O 0.8696(2) 0.4464(3) 0.37518(18)
N2 N 1.32970(15) 0.44737(19) 0.42684(13)
H16 H 1.3091 0.4030 0.4539
C19 C 1.3605(2) 0.6486(3) 0.12191(18)
H17 H 1.3375 0.6794 0.0723
C20 C 1.3004(2) 0.6269(2) 0.16171(16)
C21 C 1.36657(18) 0.5804(2) 0.23411(15)
C22 C 1.4616(2) 0.5782(2) 0.23004(16)
C23 C 1.5462(2) 0.5385(3) 0.28797(17)
H18 H 1.6092 0.5410 0.2836
C24 C 1.53224(19) 0.4952(2) 0.35219(16)
H19 H 1.5869 0.4658 0.3919
C25 C 1.43784(18) 0.4943(2) 0.35961(15)
C26 C 1.35521(18) 0.5390(2) 0.30146(15)
C27 C 1.26467(19) 0.5344(2) 0.38590(15)
H20 H 1.2904 0.6027 0.4122
C28 C 1.42140(19) 0.4345(2) 0.42354(15)
C29 C 1.1597(2) 0.5172(3) 0.38338(16)
C30 C 1.1093(3) 0.5942(3) 0.4075(2)
H21 H 1.1397 0.6602 0.4255
C31 C 1.0092(3) 0.5735(4) 0.4050(2)
H22 H 0.9743 0.6256 0.4214
C32 C 0.9662(2) 0.4765(4) 0.3782(2)
C33 C 1.0153(2) 0.4010(4) 0.3538(2)
H23 H 0.9848 0.3352 0.3354
C34 C 1.1100(2) 0.4211(3) 0.35599(19)
H24 H 1.1429 0.3681 0.3384
C35 C 1.1902(2) 0.6466(3) 0.13687(17)
H25 H 1.1567 0.5803 0.1390
H26 H 1.1655 0.6738 0.0843
H27 H 1.1776 0.6983 0.1713
C36 C 0.8177(3) 0.5152(5) 0.3995(3)
H28 H 0.7911 0.5701 0.3606
H29 H 0.8604 0.5477 0.4474
H30 H 0.7634 0.4784 0.4083
loop_
_geom_bond_atom_site_label_1
_geom_bond_atom_site_label_2
_geom_bond_site_symmetry_1
_geom_bond_site_symmetry_2
O1 C1 1_555 1_555
O2 C10 1_555 1_555
O3 C8 1_555 1_555
O4 C14 1_555 1_555
N1 H1 1_555 1_555
C1 H2 1_555 1_555
C2 C1 1_555 1_555
C3 C2 1_555 1_555
C4 O1 1_555 1_555
C5 C4 1_555 1_555
H3 C5 1_555 1_555
C6 C5 1_555 1_555
H4 C6 1_555 1_555
C7 C6 1_555 1_555
C8 C3 1_555 1_555
C9 O3 1_555 1_555
H5 C9 1_555 1_555
C10 N1 1_555 1_555
C11 C9 1_555 1_555
C12 C11 1_555 1_555
H6 C12 1_555 1_555
C13 C12 1_555 1_555
H7 C13 1_555 1_555
C14 C13 1_555 1_555
C15 C14 1_555 1_555
H8 C15 1_555 1_555
C16 C11 1_555 1_555
H9 C16 1_555 1_555
C17 C2 1_555 1_555
H10 C17 1_555 1_555
H11 C17 1_555 1_555
H12 C17 1_555 1_555
C18 O4 1_555 1_555
H13 C18 1_555 1_555
H14 C18 1_555 1_555
H15 C18 1_555 1_555
O5 C19 1_555 1_555
O6 C28 1_555 1_555
O7 C26 1_555 1_555
O8 C32 1_555 1_555
N2 H16 1_555 1_555
C19 H17 1_555 1_555
C20 C19 1_555 1_555
C21 C20 1_555 1_555
C22 O5 1_555 1_555
C23 C22 1_555 1_555
H18 C23 1_555 1_555
C24 C23 1_555 1_555
H19 C24 1_555 1_555
C25 C24 1_555 1_555
C26 C21 1_555 1_555
C27 O7 1_555 1_555
H20 C27 1_555 1_555
C28 N2 1_555 1_555
C29 C27 1_555 1_555
C30 C29 1_555 1_555
H21 C30 1_555 1_555
C31 C30 1_555 1_555
H22 C31 1_555 1_555
C32 C31 1_555 1_555
C33 C32 1_555 1_555
H23 C33 1_555 1_555
C34 C29 1_555 1_555
H24 C34 1_555 1_555
C35 C20 1_555 1_555
H25 C35 1_555 1_555
H26 C35 1_555 1_555
H27 C35 1_555 1_555
C36 O8 1_555 1_555
H28 C36 1_555 1_555
H29 C36 1_555 1_555
H30 C36 1_555 1_555
N1 C9 1_555 1_555
C3 C4 1_555 1_555
C7 C8 1_555 1_555
C7 C10 1_555 1_555
C15 C16 1_555 1_555
N2 C27 1_555 1_555
C21 C22 1_555 1_555
C25 C26 1_555 1_555
C25 C28 1_555 1_555
C33 C34 1_555 1_555

#END
