
#######################################################################
#
#                 Cambridge Crystallographic Data Centre
#                                CCDC 
#
#######################################################################
#
# If this CIF has been generated from an entry in the Cambridge 
# Structural Database, then it will include bibliographic, chemical, 
# crystal, experimental, refinement or atomic coordinate data resulting 
# from the CCDC's data processing and validation procedures.
#
#######################################################################

data_DAGYIW
_chemical_name_common            
'6-((benzyloxy)methyl)-4,5-bis((t-butyl(dimethyl)silyl)oxy)-2-((3,4,5-tris(benzyloxy)-6-methoxytetrahydro-2H-pyran-2-yl)methoxy)tetrahydro-2H-pyran-3-yl benzoate'
_chemical_formula_moiety         'C60 H80 O12 Si2'
_chemical_name_systematic        
'Methyl 6-O-(2-O-benzoyl-6-O-benzyl-3,4-di-O-t-butyldimethylsilyl-\b-D-glucopyranosyl)-2,3,4-tri-O-benzyl-\a-D-glucopyranoside'
_symmetry_cell_setting           monoclinic
_symmetry_space_group_name_H-M   'P 21'
_symmetry_Int_Tables_number      4
_space_group_name_Hall           'P 2yb'
loop_
_symmetry_equiv_pos_site_id
_symmetry_equiv_pos_as_xyz
1 x,y,z
2 -x,1/2+y,-z
_cell_length_a                   10.6177(6)
_cell_length_b                   12.3153(7)
_cell_length_c                   22.9275(13)
_cell_angle_alpha                90
_cell_angle_beta                 91.573(4)
_cell_angle_gamma                90
_cell_volume                     2996.87
_exptl_crystal_colour            colorless
_exptl_crystal_description       plate
_chemical_melting_point          '111-112.5 deg.C'
_cell_formula_units_Z            2
loop_
_atom_site_label
_atom_site_type_symbol
_atom_site_fract_x
_atom_site_fract_y
_atom_site_fract_z
O1 O 0.0864(4) 0.2589(4) 0.9027(2)
O2 O 0.1542(4) 0.3465(4) 0.8183(2)
O3 O 0.4620(4) 0.3987(4) 0.8878(2)
O4 O 0.4610(4) 0.1689(4) 0.8816(2)
O5 O 0.2131(4) 0.0721(4) 0.8720(2)
O6 O 0.3120(4) 0.5009(3) 0.7637(2)
O7 O 0.2414(4) 0.6635(4) 0.7284(2)
O8 O 0.4996(4) 0.7988(4) 0.71170(19)
O9 O 0.3239(9) 0.6668(11) 0.5933(4)
O10 O 0.5420(4) 0.5519(3) 0.69883(18)
O11 O 0.5615(5) 0.4707(6) 0.6120(2)
C1 C 0.1260(6) 0.2462(6) 0.8453(4)
H1 H 0.0578 0.2091 0.8219
C2 C 0.2429(6) 0.1742(6) 0.8468(3)
H2 H 0.2704 0.1621 0.8060
C3 C 0.3471(6) 0.2310(6) 0.8807(4)
H3 H 0.3202 0.2429 0.9217
C4 C 0.3724(6) 0.3400(5) 0.8526(3)
H4 H 0.4052 0.3292 0.8126
C5 C 0.2514(6) 0.4060(5) 0.8496(3)
H5 H 0.2231 0.4181 0.8903
C6 C 0.2636(6) 0.5144(6) 0.8208(4)
H6 H 0.1802 0.5503 0.8181
H7 H 0.3211 0.5612 0.8444
C7 C 0.3494(6) 0.5990(5) 0.7396(3)
H8 H 0.4088 0.6375 0.7672
C8 C 0.4126(6) 0.5776(5) 0.6822(3)
H9 H 0.3722 0.5138 0.6622
C9 C 0.4063(7) 0.6770(6) 0.6421(3)
H10 H 0.4923 0.6833 0.6257
C10 C 0.3877(7) 0.7810(6) 0.6760(4)
H11 H 0.3751 0.8431 0.6484
C11 C 0.2753(7) 0.7739(6) 0.7173(4)
H12 H 0.3067 0.8038 0.7556
O12 O 0.2108(10) 0.9402(7) 0.6686(7)
C12 C 0.1708(16) 0.8331(14) 0.6790(11)
H13 H 0.1574 0.7942 0.6416
H14 H 0.0903 0.8338 0.6997
C13 C 0.1150(14) 1.0013(13) 0.6372(11)
H15 H 0.0416 1.0130 0.6622
H16 H 0.0862 0.9608 0.6020
C14 C 0.1704(10) 1.1091(7) 0.6198(8)
C15 C 0.1861(10) 1.1893(8) 0.6620(7)
H17 H 0.1557 1.1782 0.7002
C16 C 0.2464(10) 1.2859(7) 0.6485(7)
H18 H 0.2571 1.3408 0.6773
C17 C 0.2909(9) 1.3023(7) 0.5927(8)
H19 H 0.3320 1.3683 0.5834
C18 C 0.2751(8) 1.2220(9) 0.5505(7)
H20 H 0.3055 1.2332 0.5124
C19 C 0.2149(9) 1.1254(8) 0.5641(8)
H21 H 0.2041 1.0706 0.5352
C20 C 0.7315(15) 0.8260(13) 0.6365(6)
H22 H 0.8070 0.8712 0.6332
H23 H 0.7565 0.7501 0.6423
H24 H 0.6796 0.8323 0.6006
C21 C 0.7323(16) 0.8526(17) 0.7686(7)
H25 H 0.8126 0.8913 0.7661
H26 H 0.6853 0.8810 0.8015
H27 H 0.7484 0.7750 0.7744
C22 C 0.5998(10) 1.0214(8) 0.6911(5)
C23 C 0.5445(12) 1.0498(12) 0.6308(6)
H28 H 0.6043 1.0292 0.6009
H29 H 0.4652 1.0103 0.6242
H30 H 0.5285 1.1281 0.6286
C24 C 0.7194(11) 1.0905(11) 0.7011(7)
H31 H 0.7571 1.0740 0.7396
H32 H 0.7800 1.0738 0.6709
H33 H 0.6973 1.1677 0.6992
C25 C 0.5025(12) 1.0553(13) 0.7358(7)
H34 H 0.5347 1.0383 0.7752
H35 H 0.4869 1.1336 0.7326
H36 H 0.4236 1.0158 0.7282
C26 C 0.4173(12) 0.8126(9) 0.5076(6)
H37 H 0.4316 0.8200 0.4658
H38 H 0.3595 0.8696 0.5201
H39 H 0.4976 0.8194 0.5294
C27 C 0.4561(12) 0.5714(11) 0.4978(6)
H40 H 0.4691 0.5791 0.4559
H41 H 0.5370 0.5784 0.5191
H42 H 0.4197 0.4999 0.5056
C28 C 0.1868(10) 0.6637(10) 0.4878(5)
C29 C 0.1317(15) 0.5539(12) 0.5056(7)
H43 H 0.1886 0.4955 0.4942
H44 H 0.1218 0.5524 0.5480
H45 H 0.0493 0.5437 0.4860
C30 C 0.1965(14) 0.6658(14) 0.4211(5)
H46 H 0.2525 0.6074 0.4087
H47 H 0.1126 0.6554 0.4031
H48 H 0.2305 0.7360 0.4090
C31 C 0.0990(16) 0.7557(16) 0.5053(8)
H49 H 0.1351 0.8255 0.4937
H50 H 0.0166 0.7460 0.4857
H51 H 0.0891 0.7546 0.5477
C32 C 0.6085(6) 0.4996(6) 0.6575(3)
C33 C 0.7406(3) 0.4841(5) 0.6762(2)
C34 C 0.7854(4) 0.5115(5) 0.73183(19)
H52 H 0.7292 0.5393 0.7597
C35 C 0.9123(4) 0.4983(6) 0.7466(2)
H53 H 0.9429 0.5170 0.7846
C36 C 0.9944(3) 0.4577(6) 0.7057(3)
H54 H 1.0812 0.4487 0.7158
C37 C 0.9496(4) 0.4303(6) 0.6501(3)
H55 H 1.0058 0.4026 0.6222
C38 C 0.8227(5) 0.4435(6) 0.6354(2)
H56 H 0.7921 0.4248 0.5974
C39 C 0.5744(5) 0.4252(6) 0.8580(3)
H57 H 0.5533 0.4648 0.8214
H58 H 0.6204 0.3581 0.8479
C40 C 0.6543(4) 0.4947(4) 0.89764(19)
C41 C 0.7125(4) 0.4500(3) 0.9471(2)
H59 H 0.7027 0.3749 0.9554
C42 C 0.7851(4) 0.5151(4) 0.98438(19)
H60 H 0.8249 0.4845 1.0182
C43 C 0.7995(4) 0.6249(4) 0.9723(2)
H61 H 0.8491 0.6694 0.9978
C44 C 0.7413(5) 0.6696(3) 0.9228(3)
H62 H 0.7511 0.7447 0.9145
C45 C 0.6687(4) 0.6045(4) 0.8855(2)
H63 H 0.6289 0.6351 0.8517
C46 C 0.4886(6) 0.1209(6) 0.9361(4)
H64 H 0.4239 0.0655 0.9443
H65 H 0.4854 0.1770 0.9669
C47 C 0.6175(3) 0.0680(4) 0.9377(2)
C48 C 0.7149(4) 0.1079(4) 0.9045(3)
H66 H 0.6998 0.1663 0.8781
C49 C 0.8344(4) 0.0623(4) 0.9098(3)
H67 H 0.9010 0.0896 0.8872
C50 C 0.8566(3) -0.0231(4) 0.9484(3)
H68 H 0.9383 -0.0542 0.9521
C51 C 0.7592(4) -0.0629(3) 0.9816(2)
H69 H 0.7744 -0.1213 1.0080
C52 C 0.6397(3) -0.0174(4) 0.9762(2)
H70 H 0.5731 -0.0446 0.9989
C53 C 0.2798(13) -0.0208(9) 0.8496(7)
H71 H 0.3713 -0.0119 0.8574
H72 H 0.2653 -0.0256 0.8068
C54 C 0.2351(12) -0.1226(9) 0.8778(6)
C55 C 0.3131(9) -0.1809(11) 0.9161(7)
H73 H 0.3966 -0.1566 0.9244
C56 C 0.2690(16) -0.2748(9) 0.9422(6)
H74 H 0.3223 -0.3146 0.9684
C57 C 0.1468(17) -0.3104(8) 0.9301(5)
H75 H 0.1167 -0.3746 0.9480
C58 C 0.0688(9) -0.2521(11) 0.8918(6)
H76 H -0.0146 -0.2765 0.8835
C59 C 0.1130(11) -0.1582(11) 0.8656(6)
H77 H 0.0597 -0.1184 0.8395
C60 C -0.0257(6) 0.3227(6) 0.9075(4)
H78 H -0.0046 0.3999 0.9040
H79 H -0.0629 0.3095 0.9455
H80 H -0.0862 0.3025 0.8764
Si1 Si 0.6389(6) 0.8727(5) 0.7001(3)
Si2 Si 0.3477(4) 0.6781(4) 0.52209(18)
O13? O 0.1691(12) 0.9344(8) 0.7041(8)
C61? C 0.1406(17) 0.8209(15) 0.7075(10)
H81? H 0.1003 0.7937 0.6709
H82? H 0.0860 0.8045 0.7407
C62? C 0.0822(15) 1.0024(12) 0.6730(9)
H83? H 0.0113 1.0230 0.6979
H84? H 0.0480 0.9651 0.6378
C63? C 0.1565(10) 1.1005(7) 0.6566(7)
C64? C 0.1790(10) 1.1821(8) 0.6974(6)
H85? H 0.1410 1.1787 0.7344
C65? C 0.2569(10) 1.2688(8) 0.6841(7)
H86? H 0.2723 1.3246 0.7121
C66? C 0.3125(10) 1.2739(9) 0.6300(7)
H87? H 0.3658 1.3332 0.6209
C67? C 0.2900(9) 1.1923(10) 0.5892(7)
H88? H 0.3280 1.1958 0.5522
C68? C 0.2120(10) 1.1056(8) 0.6024(7)
H89? H 0.1967 1.0499 0.5745
C69? C 0.194(2) -0.0101(10) 0.8251(6)
H90? H 0.2603 -0.0054 0.7958
H91? H 0.1103 -0.0015 0.8052
C70? C 0.2018(14) -0.1159(9) 0.8585(6)
C71? C 0.0937(9) -0.1712(13) 0.8743(7)
H92? H 0.0132 -0.1459 0.8614
C72? C 0.1035(9) -0.2634(11) 0.9091(7)
H93? H 0.0297 -0.3012 0.9199
C73? C 0.2213(13) -0.3005(9) 0.9281(6)
H94? H 0.2280 -0.3635 0.9518
C74? C 0.3294(9) -0.2452(12) 0.9123(6)
H95? H 0.4099 -0.2705 0.9252
C75? C 0.3196(10) -0.1530(10) 0.8775(6)
H96? H 0.3934 -0.1152 0.8667
Si3? Si 0.5875(6) 0.8968(5) 0.6978(3)
Si4? Si 0.2686(4) 0.6418(3) 0.54157(18)
O14? O 0.2737(10) 0.6620(10) 0.6128(4)
C76? C 0.5075(16) 1.0299(10) 0.6935(9)
H97? H 0.5691 1.0865 0.6847
H98? H 0.4418 1.0280 0.6627
H99? H 0.4693 1.0459 0.7310
C77? C 0.6587(15) 0.8583(15) 0.6271(5)
H100? H 0.7159 0.9159 0.6148
H101? H 0.7057 0.7903 0.6320
H102? H 0.5917 0.8485 0.5972
C78? C 0.7082(12) 0.8892(11) 0.7584(5)
C79? C 0.7797(13) 0.7810(12) 0.7570(7)
H103? H 0.7198 0.7208 0.7600
H104? H 0.8243 0.7751 0.7203
H105? H 0.8406 0.7781 0.7899
C80? C 0.8001(13) 0.9843(12) 0.7537(7)
H106? H 0.8420 0.9808 0.7162
H107? H 0.7537 1.0529 0.7564
H108? H 0.8633 0.9802 0.7856
C81? C 0.6435(12) 0.8960(12) 0.8172(5)
H109? H 0.5843 0.8354 0.8207
H110? H 0.7071 0.8921 0.8489
H111? H 0.5976 0.9648 0.8197
C82? C 0.2665(13) 0.4943(9) 0.5259(6)
H112? H 0.2635 0.4828 0.4836
H113? H 0.3428 0.4606 0.5428
H114? H 0.1921 0.4614 0.5431
C83? C 0.4098(14) 0.7067(17) 0.5090(7)
H115? H 0.4075 0.6950 0.4667
H116? H 0.4092 0.7848 0.5172
H117? H 0.4866 0.6742 0.5261
C84? C 0.1170(11) 0.7037(10) 0.5148(5)
C85? C 0.1228(17) 0.8272(11) 0.5228(8)
H118? H 0.1942 0.8564 0.5016
H119? H 0.0444 0.8599 0.5076
H120? H 0.1335 0.8443 0.5644
C86? C 0.0985(16) 0.6803(15) 0.4494(6)
H121? H 0.1701 0.7093 0.4283
H122? H 0.0930 0.6017 0.4433
H123? H 0.0206 0.7148 0.4350
C87? C 0.0056(11) 0.6586(14) 0.5479(6)
H124? H 0.0017 0.5796 0.5428
H125? H 0.0164 0.6758 0.5895
H126? H -0.0726 0.6914 0.5326
loop_
_geom_bond_atom_site_label_1
_geom_bond_atom_site_label_2
_geom_bond_site_symmetry_1
_geom_bond_site_symmetry_2
O1 C1 1_555 1_555
O2 C1 1_555 1_555
O3 C4 1_555 1_555
O4 C3 1_555 1_555
O5 C2 1_555 1_555
O6 C6 1_555 1_555
O7 C7 1_555 1_555
O8 C10 1_555 1_555
O9 C9 1_555 1_555
O10 C8 1_555 1_555
O11 C32 1_555 1_555
C1 H1 1_555 1_555
C2 C1 1_555 1_555
H2 C2 1_555 1_555
C3 C2 1_555 1_555
H3 C3 1_555 1_555
C4 C3 1_555 1_555
H4 C4 1_555 1_555
C5 O2 1_555 1_555
H5 C5 1_555 1_555
C6 C5 1_555 1_555
H6 C6 1_555 1_555
H7 C6 1_555 1_555
C7 O6 1_555 1_555
H8 C7 1_555 1_555
C8 C7 1_555 1_555
H9 C8 1_555 1_555
C9 C8 1_555 1_555
H10 C9 1_555 1_555
C10 C9 1_555 1_555
H11 C10 1_555 1_555
C11 O7 1_555 1_555
H12 C11 1_555 1_555
O12 C12 1_555 1_555
C12 C11 1_555 1_555
H13 C12 1_555 1_555
H14 C12 1_555 1_555
C13 O12 1_555 1_555
H15 C13 1_555 1_555
H16 C13 1_555 1_555
C14 C13 1_555 1_555
C15 C14 1_555 1_555
H17 C15 1_555 1_555
C16 C15 1_555 1_555
H18 C16 1_555 1_555
C17 C16 1_555 1_555
H19 C17 1_555 1_555
C18 C17 1_555 1_555
H20 C18 1_555 1_555
C19 C14 1_555 1_555
H21 C19 1_555 1_555
C20 H22 1_555 1_555
H23 C20 1_555 1_555
H24 C20 1_555 1_555
C21 H25 1_555 1_555
H26 C21 1_555 1_555
H27 C21 1_555 1_555
C22 C23 1_555 1_555
C23 H28 1_555 1_555
H29 C23 1_555 1_555
H30 C23 1_555 1_555
C24 C22 1_555 1_555
H31 C24 1_555 1_555
H32 C24 1_555 1_555
H33 C24 1_555 1_555
C25 C22 1_555 1_555
H34 C25 1_555 1_555
H35 C25 1_555 1_555
H36 C25 1_555 1_555
C26 H37 1_555 1_555
H38 C26 1_555 1_555
H39 C26 1_555 1_555
C27 H40 1_555 1_555
H41 C27 1_555 1_555
H42 C27 1_555 1_555
C28 C29 1_555 1_555
C29 H43 1_555 1_555
H44 C29 1_555 1_555
H45 C29 1_555 1_555
C30 C28 1_555 1_555
H46 C30 1_555 1_555
H47 C30 1_555 1_555
H48 C30 1_555 1_555
C31 C28 1_555 1_555
H49 C31 1_555 1_555
H50 C31 1_555 1_555
H51 C31 1_555 1_555
C32 O10 1_555 1_555
C33 C32 1_555 1_555
C34 C33 1_555 1_555
H52 C34 1_555 1_555
C35 C34 1_555 1_555
H53 C35 1_555 1_555
C36 C35 1_555 1_555
H54 C36 1_555 1_555
C37 C36 1_555 1_555
H55 C37 1_555 1_555
C38 C33 1_555 1_555
H56 C38 1_555 1_555
C39 O3 1_555 1_555
H57 C39 1_555 1_555
H58 C39 1_555 1_555
C40 C39 1_555 1_555
C41 C40 1_555 1_555
H59 C41 1_555 1_555
C42 C41 1_555 1_555
H60 C42 1_555 1_555
C43 C42 1_555 1_555
H61 C43 1_555 1_555
C44 C43 1_555 1_555
H62 C44 1_555 1_555
C45 C40 1_555 1_555
H63 C45 1_555 1_555
C46 O4 1_555 1_555
H64 C46 1_555 1_555
H65 C46 1_555 1_555
C47 C46 1_555 1_555
C48 C47 1_555 1_555
H66 C48 1_555 1_555
C49 C48 1_555 1_555
H67 C49 1_555 1_555
C50 C49 1_555 1_555
H68 C50 1_555 1_555
C51 C50 1_555 1_555
H69 C51 1_555 1_555
C52 C47 1_555 1_555
H70 C52 1_555 1_555
C53 O5 1_555 1_555
H71 C53 1_555 1_555
H72 C53 1_555 1_555
C54 C53 1_555 1_555
C55 C54 1_555 1_555
H73 C55 1_555 1_555
C56 C55 1_555 1_555
H74 C56 1_555 1_555
C57 C56 1_555 1_555
H75 C57 1_555 1_555
C58 C57 1_555 1_555
H76 C58 1_555 1_555
C59 C54 1_555 1_555
H77 C59 1_555 1_555
C60 O1 1_555 1_555
H78 C60 1_555 1_555
H79 C60 1_555 1_555
H80 C60 1_555 1_555
Si1 O8 1_555 1_555
Si2 O9 1_555 1_555
C4 C5 1_555 1_555
C10 C11 1_555 1_555
C18 C19 1_555 1_555
C20 Si1 1_555 1_555
C21 Si1 1_555 1_555
C22 Si1 1_555 1_555
C26 Si2 1_555 1_555
C27 Si2 1_555 1_555
C28 Si2 1_555 1_555
C37 C38 1_555 1_555
C44 C45 1_555 1_555
C51 C52 1_555 1_555
C58 C59 1_555 1_555

#END
