
#######################################################################
#
#                 Cambridge Crystallographic Data Centre
#                                CCDC 
#
#######################################################################
#
# If this CIF has been generated from an entry in the Cambridge 
# Structural Database, then it will include bibliographic, chemical, 
# crystal, experimental, refinement or atomic coordinate data resulting 
# from the CCDC's data processing and validation procedures.
#
#######################################################################

data_DAHCUN
_chemical_formula_moiety         'C20 H36 O3'
_chemical_name_systematic        
3-(2-hydroxyethyl)-3,4a,7,7,10a-pentamethyldodecahydro-1H-naphtho[2,1-b]pyran-6-ol
_symmetry_cell_setting           monoclinic
_symmetry_space_group_name_H-M   'C 2'
_symmetry_Int_Tables_number      5
_space_group_name_Hall           'C 2y'
loop_
_symmetry_equiv_pos_site_id
_symmetry_equiv_pos_as_xyz
1 x,y,z
2 -x,y,-z
3 1/2+x,1/2+y,z
4 1/2-x,1/2+y,-z
_cell_length_a                   23.2351(4)
_cell_length_b                   6.65510(10)
_cell_length_c                   12.2798(2)
_cell_angle_alpha                90
_cell_angle_beta                 94.5190(10)
_cell_angle_gamma                90
_cell_volume                     1892.95
_exptl_crystal_colour            colorless
_exptl_crystal_description       prism
_cell_formula_units_Z            4
loop_
_atom_site_label
_atom_site_type_symbol
_atom_site_fract_x
_atom_site_fract_y
_atom_site_fract_z
O1 O 0.12310(8) 1.3047(3) 0.80271(13)
H1 H 0.1283 1.3916 0.8521
O2 O 0.29669(6) 1.0104(3) 0.84236(11)
O3 O 0.37149(8) 1.0581(3) 1.01793(13)
H2 H 0.3393 1.0656 0.9820
C1 C 0.13679(10) 0.7235(4) 0.6091(2)
H3 H 0.1568 0.7113 0.5411
H4 H 0.1500 0.6113 0.6578
C2 C 0.07210(11) 0.7028(5) 0.5810(2)
H5 H 0.0593 0.8048 0.5256
H6 H 0.0637 0.5684 0.5491
C3 C 0.03864(10) 0.7299(4) 0.6816(2)
H7 H 0.0486 0.6187 0.7332
H8 H -0.0032 0.7204 0.6595
C4 C 0.05054(10) 0.9304(4) 0.74081(19)
C5 C 0.11742(9) 0.9454(4) 0.76569(17)
H9 H 0.1269 0.8197 0.8080
C6 C 0.13763(10) 1.1110(4) 0.84651(18)
H10 H 0.1160 1.0932 0.9131
C7 C 0.20240(9) 1.0899(4) 0.88280(17)
H11 H 0.2147 1.2077 0.9280
H12 H 0.2080 0.9688 0.9293
C8 C 0.24123(9) 1.0735(4) 0.78853(17)
C9 C 0.21858(9) 0.9024(4) 0.71275(17)
H13 H 0.2187 0.7813 0.7610
C10 C 0.15447(9) 0.9243(4) 0.66549(17)
C11 C 0.26290(10) 0.8549(5) 0.63065(18)
H14 H 0.2696 0.9754 0.5861
H15 H 0.2482 0.7461 0.5810
C12 C 0.31959(10) 0.7893(5) 0.6927(2)
H16 H 0.3133 0.6598 0.7296
H17 H 0.3489 0.7671 0.6396
C13 C 0.34289(10) 0.9420(4) 0.77756(18)
C14 C 0.38482(10) 0.8368(5) 0.8623(2)
H18 H 0.3636 0.7283 0.8972
H19 H 0.4158 0.7728 0.8235
C15 C 0.41268(11) 0.9707(5) 0.9514(2)
H20 H 0.4408 0.8907 0.9981
H21 H 0.4342 1.0794 0.9174
C16 C 0.37347(11) 1.1156(5) 0.7247(2)
H22 H 0.3502 1.1602 0.6592
H23 H 0.4114 1.0706 0.7046
H24 H 0.3785 1.2273 0.7766
C17 C 0.24797(11) 1.2799(4) 0.7362(2)
H25 H 0.2714 1.3666 0.7866
H26 H 0.2098 1.3405 0.7201
H27 H 0.2670 1.2647 0.6682
C18 C 0.02161(11) 0.9228(5) 0.8490(2)
H28 H -0.0189 0.8837 0.8346
H29 H 0.0238 1.0555 0.8835
H30 H 0.0415 0.8241 0.8978
C19 C 0.02142(11) 1.1029(5) 0.6731(2)
H31 H 0.0351 1.1024 0.5996
H32 H 0.0312 1.2316 0.7087
H33 H -0.0206 1.0844 0.6679
C20 C 0.14729(11) 1.0944(5) 0.58040(18)
H34 H 0.1817 1.1008 0.5391
H35 H 0.1424 1.2227 0.6177
H36 H 0.1132 1.0680 0.5302
loop_
_geom_bond_atom_site_label_1
_geom_bond_atom_site_label_2
_geom_bond_site_symmetry_1
_geom_bond_site_symmetry_2
O1 H1 1_555 1_555
O2 C8 1_555 1_555
O3 H2 1_555 1_555
C1 H3 1_555 1_555
H4 C1 1_555 1_555
C2 C1 1_555 1_555
H5 C2 1_555 1_555
H6 C2 1_555 1_555
C3 C2 1_555 1_555
H7 C3 1_555 1_555
H8 C3 1_555 1_555
C4 C3 1_555 1_555
C5 C4 1_555 1_555
H9 C5 1_555 1_555
C6 O1 1_555 1_555
H10 C6 1_555 1_555
C7 C6 1_555 1_555
H11 C7 1_555 1_555
H12 C7 1_555 1_555
C8 C7 1_555 1_555
C9 C8 1_555 1_555
H13 C9 1_555 1_555
C10 C1 1_555 1_555
C11 C9 1_555 1_555
H14 C11 1_555 1_555
H15 C11 1_555 1_555
C12 C11 1_555 1_555
H16 C12 1_555 1_555
H17 C12 1_555 1_555
C13 O2 1_555 1_555
C14 C13 1_555 1_555
H18 C14 1_555 1_555
H19 C14 1_555 1_555
C15 O3 1_555 1_555
H20 C15 1_555 1_555
H21 C15 1_555 1_555
C16 C13 1_555 1_555
H22 C16 1_555 1_555
H23 C16 1_555 1_555
H24 C16 1_555 1_555
C17 C8 1_555 1_555
H25 C17 1_555 1_555
H26 C17 1_555 1_555
H27 C17 1_555 1_555
C18 C4 1_555 1_555
H28 C18 1_555 1_555
H29 C18 1_555 1_555
H30 C18 1_555 1_555
C19 C4 1_555 1_555
H31 C19 1_555 1_555
H32 C19 1_555 1_555
H33 C19 1_555 1_555
C20 C10 1_555 1_555
H34 C20 1_555 1_555
H35 C20 1_555 1_555
H36 C20 1_555 1_555
C5 C6 1_555 1_555
C5 C10 1_555 1_555
C9 C10 1_555 1_555
C12 C13 1_555 1_555
C14 C15 1_555 1_555

#END
