
#######################################################################
#
#                 Cambridge Crystallographic Data Centre
#                                CCDC 
#
#######################################################################
#
# If this CIF has been generated from an entry in the Cambridge 
# Structural Database, then it will include bibliographic, chemical, 
# crystal, experimental, refinement or atomic coordinate data resulting 
# from the CCDC's data processing and validation procedures.
#
#######################################################################

data_DAHDEY
_chemical_formula_moiety         'C24 H38 O6'
_chemical_name_systematic        
"5''-ethoxy-2,5,5,8a-tetramethyl-3-oxooctahydro-2H-dispiro[naphthalene-1,2'-oxolane-5',3''-oxolan]-2-yl acetate"
_symmetry_cell_setting           orthorhombic
_symmetry_space_group_name_H-M   'P 21 21 21'
_symmetry_Int_Tables_number      19
_space_group_name_Hall           'P 2ac 2ab'
loop_
_symmetry_equiv_pos_site_id
_symmetry_equiv_pos_as_xyz
1 x,y,z
2 1/2+x,1/2-y,-z
3 -x,1/2+y,1/2-z
4 1/2-x,-y,1/2+z
_cell_length_a                   7.72220(10)
_cell_length_b                   15.3516(2)
_cell_length_c                   19.2203(2)
_cell_angle_alpha                90
_cell_angle_beta                 90
_cell_angle_gamma                90
_cell_volume                     2278.53
_exptl_crystal_colour            colorless
_exptl_crystal_description       block
_cell_formula_units_Z            4
loop_
_atom_site_label
_atom_site_type_symbol
_atom_site_fract_x
_atom_site_fract_y
_atom_site_fract_z
O1 O 0.37684(16) 0.59926(8) 0.70751(7)
O2 O 0.34859(17) 0.40833(9) 0.75971(8)
O3 O 0.63755(15) 0.42730(7) 0.76124(6)
O4 O 0.78043(15) 0.63210(7) 0.68665(6)
O5 O 1.06817(15) 0.73968(9) 0.57087(6)
O6 O 0.80740(16) 0.81364(8) 0.55184(6)
C1 C 0.9816(2) 0.65113(13) 0.80986(9)
H1 H 1.0887 0.6176 0.8006
H2 H 0.9687 0.6948 0.7723
C2 C 1.0009(2) 0.69878(14) 0.87949(10)
H3 H 1.0249 0.6559 0.9168
H4 H 1.1003 0.7394 0.8769
C3 C 0.8374(2) 0.74936(13) 0.89715(9)
H5 H 0.8206 0.7957 0.8620
H6 H 0.8531 0.7780 0.9429
C4 C 0.6739(2) 0.69262(12) 0.89980(9)
C5 C 0.6628(2) 0.64221(11) 0.82928(8)
H7 H 0.6530 0.6887 0.7930
C6 C 0.4951(2) 0.58827(11) 0.82188(9)
H8 H 0.5016 0.5350 0.8508
H9 H 0.3936 0.6229 0.8369
C7 C 0.4797(2) 0.56482(10) 0.74634(9)
C8 C 0.6236(2) 0.50549(10) 0.71856(8)
C9 C 0.7991(2) 0.55628(10) 0.72995(8)
C10 C 0.8249(2) 0.58827(11) 0.80775(8)
C11 C 0.9559(2) 0.50573(12) 0.70120(9)
H10 H 1.0589 0.5146 0.7310
H11 H 0.9305 0.4426 0.6987
C12 C 0.9862(2) 0.54320(12) 0.62859(9)
H12 H 0.9314 0.5060 0.5927
H13 H 1.1117 0.5476 0.6186
C13 C 0.9027(2) 0.63373(11) 0.62974(9)
C14 C 0.8109(2) 0.65981(12) 0.56141(9)
H14 H 0.8178 0.6120 0.5269
H15 H 0.6875 0.6735 0.5701
C15 C 0.9065(2) 0.73983(12) 0.53532(9)
H16 H 0.9251 0.7360 0.4839
C16 C 1.0299(2) 0.70981(12) 0.63967(9)
H17 H 0.9762 0.7568 0.6676
H18 H 1.1365 0.6899 0.6635
C17 C 0.5904(2) 0.47912(12) 0.64362(9)
H19 H 0.6752 0.4350 0.6295
H20 H 0.6012 0.5303 0.6134
H21 H 0.4733 0.4550 0.6395
C18 C 0.6729(3) 0.63483(13) 0.96504(9)
H22 H 0.6624 0.6715 1.0066
H23 H 0.7811 0.6016 0.9673
H24 H 0.5747 0.5945 0.9629
C19 C 0.5179(3) 0.75410(13) 0.90544(10)
H25 H 0.5385 0.7966 0.9426
H26 H 0.4137 0.7202 0.9161
H27 H 0.5019 0.7848 0.8612
C20 C 0.4895(2) 0.38469(11) 0.77812(9)
C21 C 0.8641(2) 0.50986(12) 0.85557(9)
H28 H 0.9346 0.4673 0.8303
H29 H 0.7551 0.4826 0.8700
H30 H 0.9274 0.5299 0.8967
C22 C 0.8621(2) 0.89010(12) 0.51577(10)
H31 H 0.8538 0.8811 0.4649
H32 H 0.9839 0.9038 0.5275
C23 C 0.5262(3) 0.30784(13) 0.82304(12)
H33 H 0.4198 0.2900 0.8469
H34 H 0.6144 0.3233 0.8576
H35 H 0.5686 0.2597 0.7942
C24 C 0.7454(3) 0.96335(14) 0.53794(12)
H36 H 0.6253 0.9490 0.5261
H37 H 0.7794 1.0169 0.5138
H38 H 0.7554 0.9719 0.5883
loop_
_geom_bond_atom_site_label_1
_geom_bond_atom_site_label_2
_geom_bond_site_symmetry_1
_geom_bond_site_symmetry_2
O1 C7 1_555 1_555
O2 C20 1_555 1_555
O3 C8 1_555 1_555
O4 C9 1_555 1_555
O5 C15 1_555 1_555
O6 C15 1_555 1_555
C1 H1 1_555 1_555
H2 C1 1_555 1_555
C2 C1 1_555 1_555
H3 C2 1_555 1_555
H4 C2 1_555 1_555
C3 C2 1_555 1_555
H5 C3 1_555 1_555
H6 C3 1_555 1_555
C4 C3 1_555 1_555
C5 C4 1_555 1_555
H7 C5 1_555 1_555
C6 C5 1_555 1_555
H8 C6 1_555 1_555
H9 C6 1_555 1_555
C7 C6 1_555 1_555
C8 C7 1_555 1_555
C9 C8 1_555 1_555
C10 C1 1_555 1_555
C11 C9 1_555 1_555
H10 C11 1_555 1_555
H11 C11 1_555 1_555
C12 C11 1_555 1_555
H12 C12 1_555 1_555
H13 C12 1_555 1_555
C13 O4 1_555 1_555
C14 C13 1_555 1_555
H14 C14 1_555 1_555
H15 C14 1_555 1_555
C15 C14 1_555 1_555
H16 C15 1_555 1_555
C16 O5 1_555 1_555
H17 C16 1_555 1_555
H18 C16 1_555 1_555
C17 C8 1_555 1_555
H19 C17 1_555 1_555
H20 C17 1_555 1_555
H21 C17 1_555 1_555
C18 C4 1_555 1_555
H22 C18 1_555 1_555
H23 C18 1_555 1_555
H24 C18 1_555 1_555
C19 C4 1_555 1_555
H25 C19 1_555 1_555
H26 C19 1_555 1_555
H27 C19 1_555 1_555
C20 O3 1_555 1_555
C21 C10 1_555 1_555
H28 C21 1_555 1_555
H29 C21 1_555 1_555
H30 C21 1_555 1_555
C22 O6 1_555 1_555
H31 C22 1_555 1_555
H32 C22 1_555 1_555
C23 C20 1_555 1_555
H33 C23 1_555 1_555
H34 C23 1_555 1_555
H35 C23 1_555 1_555
C24 C22 1_555 1_555
H36 C24 1_555 1_555
H37 C24 1_555 1_555
H38 C24 1_555 1_555
C5 C10 1_555 1_555
C9 C10 1_555 1_555
C12 C13 1_555 1_555
C13 C16 1_555 1_555

#END
