
#######################################################################
#
#                 Cambridge Crystallographic Data Centre
#                                CCDC 
#
#######################################################################
#
# If this CIF has been generated from an entry in the Cambridge 
# Structural Database, then it will include bibliographic, chemical, 
# crystal, experimental, refinement or atomic coordinate data resulting 
# from the CCDC's data processing and validation procedures.
#
#######################################################################

data_DAHDAU
_chemical_formula_moiety         'C20 H36 O2'
_chemical_name_systematic        
1-(5-hydroxy-3-methylpent-3-en-1-yl)-2,5,5,8a-tetramethyldecahydronaphthalen-2-ol
_symmetry_cell_setting           monoclinic
_symmetry_space_group_name_H-M   'C 2'
_symmetry_Int_Tables_number      5
_space_group_name_Hall           'C 2y'
loop_
_symmetry_equiv_pos_site_id
_symmetry_equiv_pos_as_xyz
1 x,y,z
2 -x,y,-z
3 1/2+x,1/2+y,z
4 1/2-x,1/2+y,-z
_cell_length_a                   12.3870(2)
_cell_length_b                   9.81380(10)
_cell_length_c                   15.2728(2)
_cell_angle_alpha                90
_cell_angle_beta                 91.5140(10)
_cell_angle_gamma                90
_cell_volume                     1855.97
_exptl_crystal_colour            colorless
_exptl_crystal_description       plate
_cell_formula_units_Z            4
loop_
_atom_site_label
_atom_site_type_symbol
_atom_site_fract_x
_atom_site_fract_y
_atom_site_fract_z
O1 O 0.09579(12) -0.0867(2) 0.04774(9)
H1 H 0.0950 -0.1692 0.0625
O2 O -0.40610(12) 0.1340(2) 0.04487(11)
H2 H -0.4731 0.1460 0.0339
C1 C 0.08528(14) -0.0244(3) 0.36613(12)
H3 H 0.0162 0.0262 0.3681
H4 H 0.0679 -0.1222 0.3583
C2 C 0.14676(16) -0.0056(3) 0.45364(13)
H5 H 0.1582 0.0928 0.4648
H6 H 0.1033 -0.0428 0.5016
C3 C 0.25583(17) -0.0782(3) 0.45267(12)
H7 H 0.2432 -0.1775 0.4473
H8 H 0.2944 -0.0618 0.5093
C4 C 0.32831(15) -0.0319(2) 0.37775(12)
C5 C 0.26112(13) -0.04718(19) 0.29034(11)
H9 H 0.2439 -0.1466 0.2864
C6 C 0.32464(13) -0.0173(2) 0.20835(11)
H10 H 0.3962 -0.0621 0.2131
H11 H 0.3364 0.0822 0.2032
C7 C 0.26364(14) -0.0692(3) 0.12669(12)
H12 H 0.2572 -0.1696 0.1302
H13 H 0.3058 -0.0472 0.0744
C8 C 0.15061(13) -0.0074(2) 0.11566(11)
C9 C 0.08745(13) -0.0251(2) 0.20139(11)
H14 H 0.0799 -0.1259 0.2090
C10 C 0.14878(13) 0.0252(2) 0.28659(11)
C11 C -0.02991(13) 0.0292(2) 0.19223(13)
H15 H -0.0397 0.1024 0.2359
H16 H -0.0403 0.0701 0.1333
C12 C -0.11695(13) -0.0790(2) 0.20479(13)
H17 H -0.1140 -0.1464 0.1567
H18 H -0.1026 -0.1276 0.2607
C13 C -0.22886(13) -0.0159(2) 0.20576(12)
C14 C -0.28865(14) -0.0095(2) 0.13252(13)
H19 H -0.2568 -0.0452 0.0815
C15 C -0.40002(15) 0.0471(3) 0.12050(15)
H20 H -0.4524 -0.0286 0.1133
H21 H -0.4192 0.0997 0.1732
C16 C -0.26360(16) 0.0352(3) 0.29344(14)
H22 H -0.3257 0.0962 0.2853
H23 H -0.2039 0.0851 0.3221
H24 H -0.2838 -0.0422 0.3301
C17 C 0.15617(15) 0.1370(2) 0.08013(12)
H25 H 0.1892 0.1358 0.0225
H26 H 0.1998 0.1935 0.1204
H27 H 0.0831 0.1748 0.0745
C18 C 0.42460(17) -0.1305(3) 0.37606(13)
H28 H 0.4786 -0.0956 0.3361
H29 H 0.3997 -0.2203 0.3559
H30 H 0.4568 -0.1386 0.4351
C19 C 0.37384(17) 0.1108(3) 0.39534(14)
H31 H 0.4229 0.1081 0.4467
H32 H 0.3144 0.1739 0.4063
H33 H 0.4134 0.1417 0.3443
C20 C 0.15702(14) 0.1818(2) 0.28910(12)
H34 H 0.0961 0.2214 0.2558
H35 H 0.2249 0.2104 0.2632
H36 H 0.1554 0.2131 0.3500
H37? H -0.3412 0.1515 0.0236
loop_
_geom_bond_atom_site_label_1
_geom_bond_atom_site_label_2
_geom_bond_site_symmetry_1
_geom_bond_site_symmetry_2
O1 H1 1_555 1_555
O2 H2 1_555 1_555
C1 H3 1_555 1_555
H4 C1 1_555 1_555
C2 C1 1_555 1_555
H5 C2 1_555 1_555
H6 C2 1_555 1_555
C3 C2 1_555 1_555
H7 C3 1_555 1_555
H8 C3 1_555 1_555
C4 C3 1_555 1_555
C5 C4 1_555 1_555
H9 C5 1_555 1_555
C6 C5 1_555 1_555
H10 C6 1_555 1_555
H11 C6 1_555 1_555
C7 C6 1_555 1_555
H12 C7 1_555 1_555
H13 C7 1_555 1_555
C8 O1 1_555 1_555
C9 C8 1_555 1_555
H14 C9 1_555 1_555
C10 C1 1_555 1_555
C11 C9 1_555 1_555
H15 C11 1_555 1_555
H16 C11 1_555 1_555
C12 C11 1_555 1_555
H17 C12 1_555 1_555
H18 C12 1_555 1_555
C13 C12 1_555 1_555
C14 C13 1_555 1_555
H19 C14 1_555 1_555
C15 O2 1_555 1_555
H20 C15 1_555 1_555
H21 C15 1_555 1_555
C16 C13 1_555 1_555
H22 C16 1_555 1_555
H23 C16 1_555 1_555
H24 C16 1_555 1_555
C17 C8 1_555 1_555
H25 C17 1_555 1_555
H26 C17 1_555 1_555
H27 C17 1_555 1_555
C18 C4 1_555 1_555
H28 C18 1_555 1_555
H29 C18 1_555 1_555
H30 C18 1_555 1_555
C19 C4 1_555 1_555
H31 C19 1_555 1_555
H32 C19 1_555 1_555
H33 C19 1_555 1_555
C20 C10 1_555 1_555
H34 C20 1_555 1_555
H35 C20 1_555 1_555
H36 C20 1_555 1_555
C5 C10 1_555 1_555
C7 C8 1_555 1_555
C9 C10 1_555 1_555
C14 C15 1_555 1_555

#END
