
#######################################################################
#
#                 Cambridge Crystallographic Data Centre
#                                CCDC 
#
#######################################################################
#
# If this CIF has been generated from an entry in the Cambridge 
# Structural Database, then it will include bibliographic, chemical, 
# crystal, experimental, refinement or atomic coordinate data resulting 
# from the CCDC's data processing and validation procedures.
#
#######################################################################

data_DAHJII
_chemical_formula_moiety         'C46 H36 N4 O2,2(C7 H8)'
_chemical_name_systematic        
'7,16-dibenzoyl-8,17-dimethyl-6,15-diphenyl-5,14-dihydrodibenzo[b,i][1,4,8,11]tetraazacyclotetradecine toluene solvate'
_symmetry_cell_setting           orthorhombic
_symmetry_space_group_name_H-M   'P 21 21 21'
_symmetry_Int_Tables_number      19
_space_group_name_Hall           'P 2ac 2ab'
loop_
_symmetry_equiv_pos_site_id
_symmetry_equiv_pos_as_xyz
1 x,y,z
2 1/2-x,-y,1/2+z
3 -x,1/2+y,1/2-z
4 1/2+x,1/2-y,-z
_cell_length_a                   14.5881(10)
_cell_length_b                   15.6281(11)
_cell_length_c                   20.5211(14)
_cell_angle_alpha                90
_cell_angle_beta                 90
_cell_angle_gamma                90
_cell_volume                     4678.49
_exptl_crystal_colour            orange
_exptl_crystal_description       prism
_chemical_melting_point          '229.5 deg.C'
_cell_formula_units_Z            4
_exptl_crystal_recrystallization_method 'chloroform / toluene'
loop_
_atom_site_label
_atom_site_type_symbol
_atom_site_fract_x
_atom_site_fract_y
_atom_site_fract_z
C1 C 0.67792(12) 0.85382(12) 0.28456(9)
C2 C 0.70243(13) 0.93859(12) 0.29704(10)
H1 H 0.6639 0.9731 0.3235
C3 C 0.78199(13) 0.97307(12) 0.27138(10)
H2 H 0.7982 1.0306 0.2808
C4 C 0.83800(13) 0.92370(13) 0.23195(10)
H3 H 0.8935 0.9469 0.2153
C5 C 0.81306(13) 0.84021(12) 0.21669(10)
H4 H 0.8506 0.8071 0.1885
C6 C 0.73325(13) 0.80493(12) 0.24260(9)
C7 C 0.74534(12) 0.65208(12) 0.20644(9)
C8 C 0.69807(13) 0.58422(12) 0.17954(9)
C9 C 0.59855(13) 0.58194(12) 0.17070(9)
C10 C 0.45438(12) 0.65583(12) 0.17607(9)
C11 C 0.41142(13) 0.63250(13) 0.11806(10)
H5 H 0.4460 0.6055 0.0846
C12 C 0.31907(13) 0.64826(14) 0.10857(10)
H6 H 0.2903 0.6312 0.0691
C13 C 0.26855(14) 0.68885(13) 0.15642(11)
H7 H 0.2052 0.6996 0.1497
C14 C 0.30953(13) 0.71379(13) 0.21395(10)
H8 H 0.2745 0.7425 0.2463
C15 C 0.40216(13) 0.69700(11) 0.22480(9)
C16 C 0.42335(13) 0.74010(12) 0.34214(9)
C17 C 0.48037(13) 0.78303(13) 0.38554(9)
C18 C 0.56830(13) 0.82030(12) 0.36739(9)
C19 C 0.84613(12) 0.64697(12) 0.21905(10)
C20 C 0.87681(14) 0.65498(13) 0.28264(11)
H9 H 0.8341 0.6650 0.3168
C21 C 0.96939(15) 0.64844(15) 0.29673(13)
H10 H 0.9900 0.6526 0.3405
C22 C 1.03177(14) 0.63584(15) 0.24700(14)
H11 H 1.0954 0.6323 0.2565
C23 C 1.00171(15) 0.62839(14) 0.18364(13)
H12 H 1.0448 0.6199 0.1495
C24 C 0.90895(14) 0.63317(13) 0.16931(11)
H13 H 0.8885 0.6270 0.1256
C25 C 0.75122(13) 0.50751(13) 0.15587(10)
C26 C 0.80547(13) 0.45604(12) 0.20339(10)
C27 C 0.78208(14) 0.45203(13) 0.26871(10)
H14 H 0.7309 0.4836 0.2843
C28 C 0.83300(15) 0.40210(15) 0.31162(11)
H15 H 0.8165 0.3993 0.3563
C29 C 0.90785(15) 0.35649(14) 0.28890(12)
H16 H 0.9430 0.3227 0.3181
C30 C 0.93126(15) 0.36008(14) 0.22407(12)
H17 H 0.9828 0.3288 0.2088
C31 C 0.88062(14) 0.40866(13) 0.18090(11)
H18 H 0.8967 0.4100 0.1361
C32 C 0.55765(14) 0.49721(13) 0.15113(10)
H19 H 0.4924 0.4963 0.1625
H20 H 0.5894 0.4509 0.1742
H21 H 0.5646 0.4893 0.1040
C33 C 0.33283(13) 0.70659(13) 0.36390(9)
C34 C 0.31289(15) 0.61954(14) 0.35806(10)
H22 H 0.3559 0.5822 0.3381
C35 C 0.23088(16) 0.58761(16) 0.38125(11)
H23 H 0.2184 0.5281 0.3782
C36 C 0.16691(15) 0.64170(17) 0.40877(10)
H24 H 0.1106 0.6194 0.4246
C37 C 0.18480(14) 0.72807(15) 0.41324(10)
H25 H 0.1400 0.7655 0.4310
C38 C 0.26839(14) 0.76068(14) 0.39173(10)
H26 H 0.2813 0.8200 0.3961
C39 C 0.45150(13) 0.79362(13) 0.45528(10)
C40 C 0.43507(13) 0.71666(13) 0.49747(9)
C41 C 0.46587(15) 0.63569(14) 0.48021(11)
H27 H 0.4946 0.6272 0.4392
C42 C 0.45504(18) 0.56734(15) 0.52239(12)
H28 H 0.4763 0.5122 0.5102
C43 C 0.41347(17) 0.57916(15) 0.58199(12)
H29 H 0.4061 0.5322 0.6109
C44 C 0.38249(15) 0.65964(15) 0.59959(11)
H30 H 0.3536 0.6679 0.6406
C45 C 0.39357(14) 0.72770(14) 0.55767(10)
H31 H 0.3725 0.7828 0.5702
C46 C 0.62764(15) 0.85635(15) 0.42148(10)
H32 H 0.6911 0.8610 0.4062
H33 H 0.6251 0.8182 0.4593
H34 H 0.6050 0.9131 0.4338
N1 N 0.59578(10) 0.81642(10) 0.30706(8)
N2 N 0.70027(10) 0.72300(10) 0.22633(8)
H35 H 0.6405 0.7170 0.2297
N3 N 0.55009(10) 0.64924(10) 0.18552(8)
N4 N 0.45051(10) 0.72613(10) 0.28014(8)
H36 H 0.5088 0.7371 0.2729
O1 O 0.74850(10) 0.48709(10) 0.09859(7)
O2 O 0.44748(12) 0.86432(9) 0.47993(7)
C47 C 0.0983(3) 0.8072(3) -0.00090(16)
C48 C 0.0221(3) 0.7629(2) 0.02289(14)
H37 H 0.0192 0.7024 0.0196
C49 C -0.0483(2) 0.8075(2) 0.05106(15)
H38 H -0.1010 0.7777 0.0661
C50 C -0.0438(3) 0.8939(2) 0.05777(14)
H39 H -0.0929 0.9235 0.0782
C51 C 0.0277(3) 0.9373(2) 0.03639(17)
H40 H 0.0293 0.9977 0.0417
C52 C 0.0997(3) 0.8966(3) 0.00667(18)
H41 H 0.1504 0.9288 -0.0088
C53 C 0.1740(4) 0.7610(5) -0.0334(2)
H42 H 0.2277 0.7602 -0.0047
H43 H 0.1897 0.7901 -0.0742
H44 H 0.1549 0.7022 -0.0428
C54 C 0.64442(18) 0.52482(17) 0.40186(12)
C55 C 0.5888(2) 0.5482(2) 0.35012(13)
H45 H 0.5917 0.6053 0.3342
C56 C 0.5311(2) 0.4927(3) 0.32178(16)
H46 H 0.4936 0.5111 0.2866
C57 C 0.5258(2) 0.4096(3) 0.34298(18)
H47 H 0.4841 0.3709 0.3231
C58 C 0.5817(2) 0.3825(2) 0.39387(18)
H48 H 0.5808 0.3245 0.4077
C59 C 0.63918(19) 0.44141(18) 0.42419(14)
H49 H 0.6751 0.4242 0.4605
C60 C 0.7082(2) 0.5873(2) 0.43352(17)
H50 H 0.7018 0.5836 0.4810
H51 H 0.6932 0.6454 0.4191
H52 H 0.7715 0.5737 0.4213
H53? H 0.5612 0.7890 0.2788
H54? H 0.5788 0.6934 0.2025
loop_
_geom_bond_atom_site_label_1
_geom_bond_atom_site_label_2
_geom_bond_site_symmetry_1
_geom_bond_site_symmetry_2
C1 C2 1_555 1_555
C2 H1 1_555 1_555
C3 C2 1_555 1_555
H2 C3 1_555 1_555
C4 C3 1_555 1_555
H3 C4 1_555 1_555
C5 C4 1_555 1_555
H4 C5 1_555 1_555
C6 C1 1_555 1_555
C7 C8 1_555 1_555
C8 C9 1_555 1_555
C9 C32 1_555 1_555
C10 C11 1_555 1_555
C11 H5 1_555 1_555
C12 C11 1_555 1_555
H6 C12 1_555 1_555
C13 C12 1_555 1_555
H7 C13 1_555 1_555
C14 C13 1_555 1_555
H8 C14 1_555 1_555
C15 C10 1_555 1_555
C16 C17 1_555 1_555
C17 C18 1_555 1_555
C18 C46 1_555 1_555
C19 C7 1_555 1_555
C20 C19 1_555 1_555
H9 C20 1_555 1_555
C21 C20 1_555 1_555
H10 C21 1_555 1_555
C22 C21 1_555 1_555
H11 C22 1_555 1_555
C23 C22 1_555 1_555
H12 C23 1_555 1_555
C24 C19 1_555 1_555
H13 C24 1_555 1_555
C25 C8 1_555 1_555
C26 C25 1_555 1_555
C27 C26 1_555 1_555
H14 C27 1_555 1_555
C28 C27 1_555 1_555
H15 C28 1_555 1_555
C29 C28 1_555 1_555
H16 C29 1_555 1_555
C30 C29 1_555 1_555
H17 C30 1_555 1_555
C31 C26 1_555 1_555
H18 C31 1_555 1_555
C32 H19 1_555 1_555
H20 C32 1_555 1_555
H21 C32 1_555 1_555
C33 C16 1_555 1_555
C34 C33 1_555 1_555
H22 C34 1_555 1_555
C35 C34 1_555 1_555
H23 C35 1_555 1_555
C36 C35 1_555 1_555
H24 C36 1_555 1_555
C37 C36 1_555 1_555
H25 C37 1_555 1_555
C38 C33 1_555 1_555
H26 C38 1_555 1_555
C39 C17 1_555 1_555
C40 C39 1_555 1_555
C41 C40 1_555 1_555
H27 C41 1_555 1_555
C42 C41 1_555 1_555
H28 C42 1_555 1_555
C43 C42 1_555 1_555
H29 C43 1_555 1_555
C44 C43 1_555 1_555
H30 C44 1_555 1_555
C45 C40 1_555 1_555
H31 C45 1_555 1_555
C46 H32 1_555 1_555
H33 C46 1_555 1_555
H34 C46 1_555 1_555
N1 C1 1_555 1_555
N2 C6 1_555 1_555
H35 N2 1_555 1_555
N3 C9 1_555 1_555
N4 C15 1_555 1_555
H36 N4 1_555 1_555
O1 C25 1_555 1_555
O2 C39 1_555 1_555
C47 C48 1_555 1_555
C48 H37 1_555 1_555
C49 C48 1_555 1_555
H38 C49 1_555 1_555
C50 C49 1_555 1_555
H39 C50 1_555 1_555
C51 C50 1_555 1_555
H40 C51 1_555 1_555
C52 C47 1_555 1_555
H41 C52 1_555 1_555
C53 C47 1_555 1_555
H42 C53 1_555 1_555
H43 C53 1_555 1_555
H44 C53 1_555 1_555
C54 C55 1_555 1_555
C55 H45 1_555 1_555
C56 C55 1_555 1_555
H46 C56 1_555 1_555
C57 C56 1_555 1_555
H47 C57 1_555 1_555
C58 C57 1_555 1_555
H48 C58 1_555 1_555
C59 C54 1_555 1_555
H49 C59 1_555 1_555
C60 C54 1_555 1_555
H50 C60 1_555 1_555
H51 C60 1_555 1_555
H52 C60 1_555 1_555
C5 C6 1_555 1_555
C7 N2 1_555 1_555
C10 N3 1_555 1_555
C14 C15 1_555 1_555
C16 N4 1_555 1_555
C18 N1 1_555 1_555
C23 C24 1_555 1_555
C30 C31 1_555 1_555
C37 C38 1_555 1_555
C44 C45 1_555 1_555
C51 C52 1_555 1_555
C58 C59 1_555 1_555

#END
