
#######################################################################
#
#                 Cambridge Crystallographic Data Centre
#                                CCDC 
#
#######################################################################
#
# If this CIF has been generated from an entry in the Cambridge 
# Structural Database, then it will include bibliographic, chemical, 
# crystal, experimental, refinement or atomic coordinate data resulting 
# from the CCDC's data processing and validation procedures.
#
#######################################################################

data_DAHKAY
_chemical_formula_moiety         'C19 H20 Cl2 N2 O3,C1 H2 Cl2'
_chemical_name_systematic        
'N-(4-Chlorophenyl)-2-(4-chlorobenzoylamido-oxy)-4-methylpentanamide dichloromethane solvate'
_symmetry_cell_setting           monoclinic
_symmetry_space_group_name_H-M   'P 21'
_symmetry_Int_Tables_number      4
_space_group_name_Hall           'P 2yb'
loop_
_symmetry_equiv_pos_site_id
_symmetry_equiv_pos_as_xyz
1 x,y,z
2 -x,1/2+y,-z
_cell_length_a                   10.591(2)
_cell_length_b                   8.097(2)
_cell_length_c                   13.716(2)
_cell_angle_alpha                90
_cell_angle_beta                 93.28(2)
_cell_angle_gamma                90
_cell_volume                     1174.29
_exptl_crystal_colour            colorless
_chemical_melting_point          92-95deg.C
_cell_formula_units_Z            2
loop_
_atom_site_label
_atom_site_type_symbol
_atom_site_fract_x
_atom_site_fract_y
_atom_site_fract_z
Cl1 Cl 0.5559(2) -0.6469 0.2942(2)
Cl2 Cl -0.2431(3) 0.2017 -0.0786(2)
O1 O 0.1544(5) 0.2289(7) 0.4438(3)
O2 O 0.1473(5) -0.1782(7) 0.5482(4)
O3 O 0.2289(5) 0.1571(8) 0.2669(4)
N1 N 0.2667(7) -0.0741(8) 0.4284(5)
N2 N 0.0681(6) 0.2124(8) 0.3631(4)
C1 C 0.1344(6) 0.1113(10) 0.5172(5)
C2 C 0.2016(7) 0.179(1) 0.6095(5)
C3 C 0.1341(9) 0.319(1) 0.6574(6)
C4 C 0.231(1) 0.417(1) 0.7234(9)
C5 C 0.021(1) 0.257(1) 0.7104(7)
C6 C 0.1828(7) -0.0607(10) 0.4988(5)
C7 C 0.3325(7) -0.2152(9) 0.3990(5)
C8 C 0.3394(9) -0.361(1) 0.4515(7)
C9 C 0.4074(10) -0.493(1) 0.4183(8)
C10 C 0.4680(8) -0.479(1) 0.3351(7)
C11 C 0.4611(8) -0.340(1) 0.2817(6)
C12 C 0.3937(8) -0.204(1) 0.3135(6)
C13 C 0.1178(8) 0.1927(10) 0.2735(5)
C14 C 0.0253(7) 0.2015(10) 0.1879(5)
C15 C -0.0881(8) 0.292(1) 0.1874(5)
C16 C -0.1688(8) 0.293(1) 0.1057(7)
C17 C -0.1410(8) 0.204(1) 0.0256(5)
C18 C -0.0315(10) 0.115(1) 0.0249(6)
C19 C 0.0508(8) 0.116(1) 0.1058(6)
H1 H 0.292(9) 0.00(1) 0.430(7)
H2 H -0.016(7) 0.270(8) 0.356(5)
H3 H 0.0464 0.1052 0.5265
H4 H 0.2113 0.0910 0.6553
H5 H 0.2828 0.2169 0.5934
H6 H 0.1033 0.3919 0.6068
H7 H 0.2679 0.3451 0.7720
H8 H 0.2955 0.4593 0.6850
H9 H 0.1896 0.5052 0.7538
H10 H -0.0194 0.3484 0.7396
H11 H -0.0374 0.2052 0.6649
H12 H 0.0484 0.1809 0.7593
H13 H 0.2967 -0.3723 0.5103
H14 H 0.4118 -0.5918 0.4545
H15 H 0.5024 -0.3340 0.2219
H16 H 0.3901 -0.1041 0.2765
H17 H -0.1088 0.3518 0.2439
H18 H -0.2443 0.3564 0.1050
H19 H -0.0126 0.0532 -0.0311
H20 H 0.1275 0.0559 0.1045
Cl3 Cl 0.5055(4) 0.0647(5) 0.0963(3)
Cl4 Cl 0.3149(4) 0.2157(7) -0.0357(2)
C20 C 0.403(1) 0.234(2) 0.0744(7)
H21 H 0.3466 0.2405 0.1255
H22 H 0.4518 0.3322 0.0729
loop_
_geom_bond_atom_site_label_1
_geom_bond_atom_site_label_2
_geom_bond_site_symmetry_1
_geom_bond_site_symmetry_2
Cl1 C10 1_555 1_555
Cl2 C17 1_555 1_555
Cl3 C20 1_555 1_555
Cl4 C20 1_555 1_555
O1 N2 1_555 1_555
O2 C6 1_555 1_555
O3 C13 1_555 1_555
N1 C6 1_555 1_555
N2 C13 1_555 1_555
C1 O1 1_555 1_555
C2 C1 1_555 1_555
C3 C2 1_555 1_555
C4 C3 1_555 1_555
C5 C3 1_555 1_555
C6 C1 1_555 1_555
C7 N1 1_555 1_555
C8 C7 1_555 1_555
C9 C8 1_555 1_555
C10 C9 1_555 1_555
C11 C10 1_555 1_555
C12 C7 1_555 1_555
C13 C14 1_555 1_555
C14 C15 1_555 1_555
C15 C16 1_555 1_555
C16 C17 1_555 1_555
C17 C18 1_555 1_555
C18 C19 1_555 1_555
C19 C14 1_555 1_555
C20 H21 1_555 1_555
H1 N1 1_555 1_555
H2 N2 1_555 1_555
H3 C1 1_555 1_555
H4 C2 1_555 1_555
H5 C2 1_555 1_555
H6 C3 1_555 1_555
H7 C4 1_555 1_555
H8 C4 1_555 1_555
H9 C4 1_555 1_555
H10 C5 1_555 1_555
H11 C5 1_555 1_555
H12 C5 1_555 1_555
H13 C8 1_555 1_555
H14 C9 1_555 1_555
H15 C11 1_555 1_555
H16 C12 1_555 1_555
H17 C15 1_555 1_555
H18 C16 1_555 1_555
H19 C18 1_555 1_555
H20 C19 1_555 1_555
H22 C20 1_555 1_555
C11 C12 1_555 1_555

#END
