
#######################################################################
#
#                 Cambridge Crystallographic Data Centre
#                                CCDC 
#
#######################################################################
#
# If this CIF has been generated from an entry in the Cambridge 
# Structural Database, then it will include bibliographic, chemical, 
# crystal, experimental, refinement or atomic coordinate data resulting 
# from the CCDC's data processing and validation procedures.
#
#######################################################################

data_DAHKEC
_chemical_formula_moiety         'C27 H36 N2 O6'
_chemical_name_systematic        
2-(Benzyloxyamido)-N-((1-t-butyloxycarbonyl)phenylethoxy)-4-methylpentanamide
_symmetry_cell_setting           orthorhombic
_symmetry_space_group_name_H-M   'P 21 21 21'
_symmetry_Int_Tables_number      19
_space_group_name_Hall           'P 2ac 2ab'
loop_
_symmetry_equiv_pos_site_id
_symmetry_equiv_pos_as_xyz
1 x,y,z
2 1/2-x,-y,1/2+z
3 1/2+x,1/2-y,-z
4 -x,1/2+y,1/2-z
_cell_length_a                   5.222(6)
_cell_length_b                   17.211(6)
_cell_length_c                   30.394(4)
_cell_angle_alpha                90
_cell_angle_beta                 90
_cell_angle_gamma                90
_cell_volume                     2731.69
_exptl_crystal_colour            colorless
_chemical_melting_point          78-80deg.C
_cell_formula_units_Z            4
loop_
_atom_site_label
_atom_site_type_symbol
_atom_site_fract_x
_atom_site_fract_y
_atom_site_fract_z
O1 O 0.2297(7) 0.2778(2) 0.7358(1)
O2 O 0.5467(8) 0.3653(2) 0.7333(1)
O3 O 0.2204(7) 0.4861(2) 0.7408(1)
O4 O -0.1331(8) 0.5233(3) 0.6786(1)
O5 O 0.2235(9) 0.3405(2) 0.5729(1)
O6 O 0.5507(9) 0.4178(3) 0.5930(2)
N1 N 0.2788(10) 0.4992(3) 0.6965(1)
N2 N 0.1360(10) 0.4568(3) 0.5980(2)
C1 C 0.328(1) 0.3496(3) 0.7385(2)
C2 C 0.1202(9) 0.4089(3) 0.7468(2)
C3 C 0.091(1) 0.5181(3) 0.6685(2)
C4 C 0.184(1) 0.5287(3) 0.6218(2)
C5 C 0.323(1) 0.4065(4) 0.5889(2)
C6 C 0.397(1) 0.2100(3) 0.7286(2)
C7 C 0.212(1) 0.1420(4) 0.7257(3)
C8 C 0.542(2) 0.2185(4) 0.6862(3)
C9 C 0.573(1) 0.1987(4) 0.7674(3)
C10 C 0.016(1) 0.4054(3) 0.7939(2)
C11 C 0.216(1) 0.4054(4) 0.8297(2)
C12 C 0.265(2) 0.3389(4) 0.8528(2)
C13 C 0.452(2) 0.3398(5) 0.8863(3)
C14 C 0.577(2) 0.4043(7) 0.8957(3)
C15 C 0.534(2) 0.4707(5) 0.8731(2)
C16 C 0.351(1) 0.4713(4) 0.8404(2)
C17 C 0.057(1) 0.5990(3) 0.6009(2)
C18 C 0.168(2) 0.6274(7) 0.5590(4)
C19 C 0.028(3) 0.7002(7) 0.5428(4)
C20 C 0.319(4) 0.5973(7) 0.5322(4)
C21 C 0.401(1) 0.2801(4) 0.5608(2)
C22 C 0.256(1) 0.2052(3) 0.5571(2)
C23 C 0.053(1) 0.1893(4) 0.5843(2)
C24 C -0.077(2) 0.1199(5) 0.5811(3)
C25 C -0.006(2) 0.0652(4) 0.5512(3)
C26 C 0.195(2) 0.0797(4) 0.5235(3)
C27 C 0.329(2) 0.1505(4) 0.5264(2)
H1 H 0.46(2) 0.484(4) 0.688(2)
H2 H -0.01(2) 0.442(5) 0.598(3)
H3 H -0.0163 0.4006 0.7266
H4 H 0.3629 0.5374 0.6226
H5 H 0.1179 0.1380 0.7523
H6 H 0.0976 0.1502 0.7018
H7 H 0.3057 0.0954 0.7209
H8 H 0.6484 0.1742 0.6821
H9 H 0.4250 0.2226 0.6625
H10 H 0.6454 0.2638 0.6875
H11 H 0.4726 0.1904 0.7933
H12 H 0.6787 0.1549 0.7625
H13 H 0.6750 0.2437 0.7713
H14 H -0.0909 0.4492 0.7983
H15 H -0.0818 0.3592 0.7967
H16 H 0.1755 0.2926 0.8464
H17 H 0.4897 0.2934 0.9022
H18 H 0.6967 0.4040 0.9189
H19 H 0.6289 0.5162 0.8798
H20 H 0.3178 0.5181 0.8250
H21 H -0.1203 0.5882 0.5983
H22 H 0.0819 0.6418 0.6202
H23 H 0.0172 0.5942 0.5430
H24 H 0.1611 0.7385 0.5405
H25 H -0.0516 0.6941 0.5152
H26 H -0.0915 0.7163 0.5642
H27 H 0.3721 0.5487 0.5436
H28 H 0.2332 0.5876 0.5042
H29 H 0.4460 0.6323 0.5293
H30 H 0.4783 0.2927 0.5334
H31 H 0.5297 0.2758 0.5828
H32 H 0.0010 0.2266 0.6054
H33 H -0.2168 0.1099 0.5999
H34 H -0.0963 0.0174 0.5494
H35 H 0.2439 0.0415 0.5025
H36 H 0.4678 0.1606 0.5071
loop_
_geom_bond_atom_site_label_1
_geom_bond_atom_site_label_2
_geom_bond_site_symmetry_1
_geom_bond_site_symmetry_2
O1 C1 1_555 1_555
O2 C1 1_555 1_555
O3 N1 1_555 1_555
O4 C3 1_555 1_555
O5 C5 1_555 1_555
O6 C5 1_555 1_555
N1 C3 1_555 1_555
N2 C4 1_555 1_555
C1 C2 1_555 1_555
C2 O3 1_555 1_555
C3 C4 1_555 1_555
C4 C17 1_555 1_555
C5 N2 1_555 1_555
C6 O1 1_555 1_555
C7 C6 1_555 1_555
C8 C6 1_555 1_555
C9 C6 1_555 1_555
C10 C2 1_555 1_555
C11 C10 1_555 1_555
C12 C11 1_555 1_555
C13 C12 1_555 1_555
C14 C13 1_555 1_555
C15 C14 1_555 1_555
C16 C11 1_555 1_555
C17 C18 1_555 1_555
C18 C19 1_555 1_555
C19 H24 1_555 1_555
C20 C18 1_555 1_555
C21 O5 1_555 1_555
C22 C21 1_555 1_555
C23 C22 1_555 1_555
C24 C23 1_555 1_555
C25 C24 1_555 1_555
C26 C25 1_555 1_555
C27 C22 1_555 1_555
H1 N1 1_555 1_555
H2 N2 1_555 1_555
H3 C2 1_555 1_555
H4 C4 1_555 1_555
H5 C7 1_555 1_555
H6 C7 1_555 1_555
H7 C7 1_555 1_555
H8 C8 1_555 1_555
H9 C8 1_555 1_555
H10 C8 1_555 1_555
H11 C9 1_555 1_555
H12 C9 1_555 1_555
H13 C9 1_555 1_555
H14 C10 1_555 1_555
H15 C10 1_555 1_555
H16 C12 1_555 1_555
H17 C13 1_555 1_555
H18 C14 1_555 1_555
H19 C15 1_555 1_555
H20 C16 1_555 1_555
H21 C17 1_555 1_555
H22 C17 1_555 1_555
H23 C18 1_555 1_555
H25 C19 1_555 1_555
H26 C19 1_555 1_555
H27 C20 1_555 1_555
H28 C20 1_555 1_555
H29 C20 1_555 1_555
H30 C21 1_555 1_555
H31 C21 1_555 1_555
H32 C23 1_555 1_555
H33 C24 1_555 1_555
H34 C25 1_555 1_555
H35 C26 1_555 1_555
H36 C27 1_555 1_555
C15 C16 1_555 1_555
C26 C27 1_555 1_555

#END
