
#######################################################################
#
#                 Cambridge Crystallographic Data Centre
#                                CCDC 
#
#######################################################################
#
# If this CIF has been generated from an entry in the Cambridge 
# Structural Database, then it will include bibliographic, chemical, 
# crystal, experimental, refinement or atomic coordinate data resulting 
# from the CCDC's data processing and validation procedures.
#
#######################################################################

data_DAHMUW
_chemical_name_common            '(+)-Methyl sydowate'
_chemical_formula_moiety         'C16 H22 O4'
_chemical_name_systematic        
'Methyl 3-hydroxy-4-(2,6,6-trimethyltetrahydro-2H-pyran-2-yl)benzoate'
_symmetry_cell_setting           triclinic
_symmetry_space_group_name_H-M   'P -1'
_symmetry_Int_Tables_number      2
_space_group_name_Hall           '-P 1'
loop_
_symmetry_equiv_pos_site_id
_symmetry_equiv_pos_as_xyz
1 x,y,z
2 -x,-y,-z
_cell_length_a                   7.0260(13)
_cell_length_b                   8.1016(15)
_cell_length_c                   13.939(3)
_cell_angle_alpha                87.266(2)
_cell_angle_beta                 77.823(2)
_cell_angle_gamma                76.502(2)
_cell_volume                     754.158
_exptl_crystal_colour            colorless
_exptl_crystal_description       block
_cell_formula_units_Z            2
loop_
_atom_site_label
_atom_site_type_symbol
_atom_site_fract_x
_atom_site_fract_y
_atom_site_fract_z
C1 C 1.1163(3) -0.0427(2) 0.17932(13)
C2 C 1.3128(3) -0.1247(2) 0.20883(16)
H1 H 1.4070 -0.1802 0.1521
H2 H 1.2909 -0.2109 0.2580
C3 C 1.4022(3) 0.0031(3) 0.24969(18)
H3 H 1.5305 -0.0528 0.2647
H4 H 1.3143 0.0525 0.3098
C4 C 1.4289(3) 0.1412(3) 0.17384(18)
H5 H 1.5253 0.0915 0.1162
H6 H 1.4828 0.2247 0.2005
C5 C 1.2337(3) 0.2305(2) 0.14333(14)
C6 C 0.9518(3) 0.0089(2) 0.27003(14)
H7 H 0.9936 0.0786 0.3116
H8 H 0.9257 -0.0909 0.3052
H9 H 0.8322 0.0715 0.2505
C7 C 1.0569(4) -0.1602(3) 0.11551(16)
H10 H 0.9352 -0.1033 0.0958
H11 H 1.0368 -0.2605 0.1519
H12 H 1.1611 -0.1913 0.0583
C8 C 1.2819(3) 0.3320(3) 0.04913(16)
H13 H 1.3609 0.2560 -0.0026
H14 H 1.3553 0.4128 0.0604
H15 H 1.1596 0.3907 0.0307
C9 C 1.0842(3) 0.3504(2) 0.21964(13)
C10 C 0.8837(3) 0.4055(2) 0.21026(12)
C11 C 0.7448(3) 0.5143(2) 0.27807(13)
H16 H 0.6124 0.5467 0.2712
C12 C 0.8016(3) 0.5754(2) 0.35619(13)
C13 C 1.0001(4) 0.5271(2) 0.36453(15)
H17 H 1.0411 0.5702 0.4154
C14 C 1.1373(3) 0.4156(2) 0.29786(15)
H18 H 1.2692 0.3832 0.3056
C15 C 0.6549(4) 0.6869(2) 0.43303(15)
C16 C 0.3150(4) 0.8024(3) 0.50006(19)
H19 H 0.3326 0.7636 0.5645
H20 H 0.1845 0.7958 0.4921
H21 H 0.3279 0.9179 0.4920
O1 O 1.14013(18) 0.10296(15) 0.11471(8)
O2 O 0.81539(19) 0.35246(16) 0.13498(9)
H22 H 0.8966 0.2691 0.1086
O3 O 0.4658(3) 0.69666(18) 0.42702(11)
O4 O 0.7034(3) 0.7602(2) 0.49410(13)
loop_
_geom_bond_atom_site_label_1
_geom_bond_atom_site_label_2
_geom_bond_site_symmetry_1
_geom_bond_site_symmetry_2
C1 C2 1_555 1_555
C2 H1 1_555 1_555
H2 C2 1_555 1_555
C3 C2 1_555 1_555
H3 C3 1_555 1_555
H4 C3 1_555 1_555
C4 C3 1_555 1_555
H5 C4 1_555 1_555
H6 C4 1_555 1_555
C5 C4 1_555 1_555
C6 C1 1_555 1_555
H7 C6 1_555 1_555
H8 C6 1_555 1_555
H9 C6 1_555 1_555
C7 C1 1_555 1_555
H10 C7 1_555 1_555
H11 C7 1_555 1_555
H12 C7 1_555 1_555
C8 C5 1_555 1_555
H13 C8 1_555 1_555
H14 C8 1_555 1_555
H15 C8 1_555 1_555
C9 C5 1_555 1_555
C10 C9 1_555 1_555
C11 C10 1_555 1_555
H16 C11 1_555 1_555
C12 C11 1_555 1_555
C13 C12 1_555 1_555
H17 C13 1_555 1_555
C14 C9 1_555 1_555
H18 C14 1_555 1_555
C15 C12 1_555 1_555
C16 H19 1_555 1_555
H20 C16 1_555 1_555
H21 C16 1_555 1_555
O1 C1 1_555 1_555
O2 C10 1_555 1_555
H22 O2 1_555 1_555
O3 C15 1_555 1_555
O4 C15 1_555 1_555
C5 O1 1_555 1_555
C13 C14 1_555 1_555
C16 O3 1_555 1_555

#END
