
#######################################################################
#
#                 Cambridge Crystallographic Data Centre
#                                CCDC 
#
#######################################################################
#
# If this CIF has been generated from an entry in the Cambridge 
# Structural Database, then it will include bibliographic, chemical, 
# crystal, experimental, refinement or atomic coordinate data resulting 
# from the CCDC's data processing and validation procedures.
#
#######################################################################

data_DAHNOS
_chemical_name_common            
'N-benzyl-N$2!-((3,5-bis(trifluoromethyl)phenyl)carbamothioyl)-N,3-dimethylvalinamide dichloromethane solvate'
_chemical_formula_moiety         'C23 H25 F6 N3 O1 S1,0.5(C1 H2 Cl2)'
_chemical_name_systematic        
"N-(3,5-bis(trifluoromethyl)phenyl)-N'-(1-(benzyl(methyl)amino)-3,3-dimethyl-1-oxobutan-2-yl)thiourea dichloromethane solvate"
_symmetry_cell_setting           monoclinic
_symmetry_space_group_name_H-M   'C 2'
_symmetry_Int_Tables_number      5
_space_group_name_Hall           'C 2y'
loop_
_symmetry_equiv_pos_site_id
_symmetry_equiv_pos_as_xyz
1 x,y,z
2 -x,y,-z
3 1/2+x,1/2+y,z
4 1/2-x,1/2+y,-z
_cell_length_a                   23.4967(8)
_cell_length_b                   11.7870(4)
_cell_length_c                   18.4817(6)
_cell_angle_alpha                90
_cell_angle_beta                 91.069(2)
_cell_angle_gamma                90
_cell_volume                     5117.72
_exptl_crystal_colour            colorless
_exptl_crystal_description       block
_cell_formula_units_Z            8
loop_
_atom_site_label
_atom_site_type_symbol
_atom_site_fract_x
_atom_site_fract_y
_atom_site_fract_z
C24 C -0.81073(18) -0.7556(3) -0.63118(19)
H26 H -0.8474 -0.7846 -0.6207
C25 C -0.7695(2) -0.8278(3) -0.6572(2)
H27 H -0.7784 -0.9053 -0.6657
C26 C -0.71567(19) -0.7881(3) -0.67083(19)
H28 H -0.6874 -0.8383 -0.6882
C27 C -0.70305(17) -0.6756(3) -0.65914(18)
H29 H -0.6658 -0.6483 -0.6681
C28 C -0.74510(14) -0.6004(3) -0.63394(17)
H30 H -0.7363 -0.5226 -0.6265
C29 C -0.79920(14) -0.6408(3) -0.62017(16)
C30 C -0.84670(14) -0.5653(3) -0.59474(19)
H31 H -0.8743 -0.5541 -0.6353
H32 H -0.8669 -0.6045 -0.5554
C31 C -0.83408(11) -0.3633(2) -0.61108(15)
C32 C -0.82373(11) -0.2442(2) -0.58010(14)
H33 H -0.7973 -0.2512 -0.5373
C33 C -0.73899(11) -0.1816(2) -0.64500(14)
C34 C -0.66949(11) -0.0998(2) -0.73149(15)
C35 C -0.62586(12) -0.0634(3) -0.68464(15)
H34 H -0.6315 -0.0614 -0.6339
C36 C -0.57431(12) -0.0303(3) -0.71277(17)
C37 C -0.56519(12) -0.0310(3) -0.78697(17)
H35 H -0.5297 -0.0077 -0.8057
C38 C -0.60838(12) -0.0660(2) -0.83230(16)
C39 C -0.66079(12) -0.1012(2) -0.80555(15)
H36 H -0.6902 -0.1259 -0.8378
C40 C -0.80082(15) -0.4520(3) -0.49623(17)
H37 H -0.8291 -0.4312 -0.4603
H38 H -0.7700 -0.3959 -0.4956
H39 H -0.7852 -0.5271 -0.4847
C41 C -0.87902(12) -0.1839(3) -0.55506(15)
C42 C -0.92199(12) -0.1649(3) -0.61705(16)
H40 H -0.9043 -0.1198 -0.6551
H41 H -0.9552 -0.1243 -0.5989
H42 H -0.9340 -0.2383 -0.6369
C43 C -0.86159(14) -0.0680(3) -0.52302(18)
H43 H -0.8340 -0.0795 -0.4833
H44 H -0.8953 -0.0294 -0.5047
H45 H -0.8444 -0.0215 -0.5607
C44 C -0.90740(13) -0.2537(3) -0.49605(16)
H46 H -0.9178 -0.3285 -0.5154
H47 H -0.9417 -0.2145 -0.4800
H48 H -0.8809 -0.2630 -0.4549
C45 C -0.5294(2) 0.0180(6) -0.6633(3)
F7 F -0.47741(11) 0.0036(4) -0.68640(18)
F8 F -0.53499(19) -0.0131(4) -0.5946(2)
F9 F -0.53292(15) 0.1331(3) -0.6596(2)
C46 C -0.6028(3) -0.0626(5) -0.9132(3)
F10 F -0.6171(2) -0.1613(4) -0.9447(5)
F11 F -0.54980(16) -0.0416(3) -0.9346(2)
F12 F -0.63614(15) 0.0166(3) -0.9447(2)
N4 N -0.82799(11) -0.4547(2) -0.56860(13)
N5 N -0.79565(9) -0.1779(2) -0.63486(12)
H49 H -0.8165 -0.1331 -0.6628
N6 N -0.72395(10) -0.1275(2) -0.70715(12)
H50 H -0.7524 -0.1072 -0.7360
O2 O -0.84868(8) -0.37314(17) -0.67613(10)
S2 S -0.69325(3) -0.24818(6) -0.58868(4)
C1 C -0.82741(12) 0.2797(2) -0.89276(16)
H1 H -0.7991 0.2827 -0.9287
C2 C -0.86137(14) 0.3746(3) -0.88031(18)
H2 H -0.8557 0.4424 -0.9070
C3 C -0.90312(16) 0.3697(3) -0.8292(2)
H3 H -0.9258 0.4346 -0.8200
C4 C -0.91225(16) 0.2693(3) -0.7908(2)
H4 H -0.9417 0.2653 -0.7564
C5 C -0.87835(14) 0.1761(3) -0.80311(19)
H5 H -0.8847 0.1078 -0.7772
C6 C -0.83473(11) 0.1812(2) -0.85316(15)
C7 C -0.79394(12) 0.0831(2) -0.86206(17)
H6 H -0.7635 0.1064 -0.8953
H7 H -0.7758 0.0661 -0.8145
C8 C -0.83676(10) -0.1021(2) -0.84462(15)
C9 C -0.86051(11) -0.2155(2) -0.87327(14)
H8 H -0.8474 -0.2250 -0.9241
C10 C -0.78162(11) -0.3431(2) -0.84165(14)
C11 C -0.70500(11) -0.4600(2) -0.79096(15)
C12 C -0.69853(11) -0.5598(2) -0.82930(15)
H9 H -0.7300 -0.5922 -0.8549
C13 C -0.64564(12) -0.6120(2) -0.83008(15)
C14 C -0.59900(12) -0.5651(3) -0.79332(16)
H10 H -0.5627 -0.6007 -0.7948
C15 C -0.60639(12) -0.4660(3) -0.75468(17)
C16 C -0.65930(12) -0.4125(2) -0.75277(16)
H11 H -0.6641 -0.3447 -0.7258
C17 C -0.82492(15) -0.0259(3) -0.96935(17)
H12 H -0.8506 0.0338 -0.9871
H13 H -0.8397 -0.1002 -0.9843
H14 H -0.7871 -0.0147 -0.9896
C18 C -0.92651(11) -0.2242(2) -0.87434(14)
C19 C -0.95234(12) -0.1205(2) -0.91273(17)
H15 H -0.9426 -0.0518 -0.8854
H16 H -0.9938 -0.1287 -0.9158
H17 H -0.9371 -0.1148 -0.9616
C20 C -0.95047(11) -0.2305(3) -0.79840(15)
H18 H -0.9335 -0.2951 -0.7725
H19 H -0.9919 -0.2403 -0.8016
H20 H -0.9415 -0.1603 -0.7722
C21 C -0.94307(12) -0.3320(2) -0.91601(17)
H21 H -0.9279 -0.3282 -0.9650
H22 H -0.9846 -0.3383 -0.9188
H23 H -0.9272 -0.3984 -0.8909
C22 C -0.6370(4) -0.7220(8) -0.8674(6)
F1 F -0.5949(2) -0.7164(5) -0.9160(3)
F2 F -0.6826(4) -0.7559(9) -0.9039(4)
F3 F -0.6214(3) -0.8007(4) -0.8199(3)
C23 C -0.5584(5) -0.4152(13) -0.7118(7)
F4 F -0.5090(6) -0.4495(14) -0.7390(6)
F5 F -0.5653(4) -0.4320(6) -0.6403(5)
F6 F -0.5560(7) -0.3033(10) -0.7209(5)
N1 N -0.82091(10) -0.0211(2) -0.89043(13)
N2 N -0.83486(9) -0.30570(19) -0.82988(12)
H24 H -0.8546 -0.3367 -0.7951
N3 N -0.75983(9) -0.4075(2) -0.78748(12)
H25 H -0.7801 -0.4176 -0.7485
O1 O -0.83111(8) -0.08934(16) -0.77777(10)
S1 S -0.74457(3) -0.31232(6) -0.91589(4)
C47? C -0.6407(5) -0.7272(9) -0.8657(6)
F13? F -0.5890(3) -0.7451(6) -0.8934(4)
F14? F -0.6781(4) -0.7412(11) -0.9225(4)
F15? F -0.6511(3) -0.8144(5) -0.8203(3)
C48? C -0.5576(6) -0.4211(14) -0.7098(7)
F16? F -0.5056(7) -0.4599(16) -0.7242(7)
F17? F -0.5569(5) -0.4664(7) -0.6423(6)
F18? F -0.5568(8) -0.3091(12) -0.7010(6)
C49? C -0.5259(7) -0.0067(15) -0.6622(10)
F19? F -0.4903(4) -0.0944(13) -0.6477(8)
F20? F -0.5439(9) 0.0325(18) -0.5993(10)
F21? F -0.4927(7) 0.0759(15) -0.6828(9)
C50? C -0.5980(9) -0.0691(19) -0.9110(9)
F22? F -0.6281(10) -0.1509(19) -0.943(2)
F23? F -0.5422(7) -0.0790(16) -0.9238(11)
F24? F -0.6133(7) 0.0286(15) -0.9393(10)
C51? C -0.4841(4) -0.3042(7) -0.9743(6)
H51? H -0.4505 -0.2901 -0.9423
H52? H -0.4982 -0.2295 -0.9913
Cl1? Cl -0.53439(16) -0.3638(3) -0.9253(3)
Cl2? Cl -0.46011(17) -0.3869(4) -1.0548(3)
C52? C -0.5258(5) -0.2440(17) -0.5264(7)
H53? H -0.5220 -0.1609 -0.5325
H54? H -0.5572 -0.2721 -0.5581
Cl3? Cl -0.53680(19) -0.2799(5) -0.4361(3)
Cl4? Cl -0.4546(2) -0.3216(6) -0.5461(3)
loop_
_geom_bond_atom_site_label_1
_geom_bond_atom_site_label_2
_geom_bond_site_symmetry_1
_geom_bond_site_symmetry_2
C1 H1 1_555 1_555
C2 C1 1_555 1_555
H2 C2 1_555 1_555
C3 C2 1_555 1_555
H3 C3 1_555 1_555
C4 C3 1_555 1_555
H4 C4 1_555 1_555
C5 C4 1_555 1_555
H5 C5 1_555 1_555
C6 C1 1_555 1_555
C7 C6 1_555 1_555
H6 C7 1_555 1_555
H7 C7 1_555 1_555
C8 C9 1_555 1_555
C9 H8 1_555 1_555
C10 N2 1_555 1_555
C11 C12 1_555 1_555
C12 H9 1_555 1_555
C13 C12 1_555 1_555
C14 C13 1_555 1_555
H10 C14 1_555 1_555
C15 C14 1_555 1_555
C16 C11 1_555 1_555
H11 C16 1_555 1_555
C17 H12 1_555 1_555
H13 C17 1_555 1_555
H14 C17 1_555 1_555
C18 C9 1_555 1_555
C19 C18 1_555 1_555
H15 C19 1_555 1_555
H16 C19 1_555 1_555
H17 C19 1_555 1_555
C20 C18 1_555 1_555
H18 C20 1_555 1_555
H19 C20 1_555 1_555
H20 C20 1_555 1_555
C21 C18 1_555 1_555
H21 C21 1_555 1_555
H22 C21 1_555 1_555
H23 C21 1_555 1_555
C22 C13 1_555 1_555
F1 C22 1_555 1_555
F2 C22 1_555 1_555
F3 C22 1_555 1_555
C23 C15 1_555 1_555
F4 C23 1_555 1_555
F5 C23 1_555 1_555
F6 C23 1_555 1_555
N1 C7 1_555 1_555
N2 C9 1_555 1_555
H24 N2 1_555 1_555
N3 C10 1_555 1_555
H25 N3 1_555 1_555
O1 C8 1_555 1_555
S1 C10 1_555 1_555
C24 H26 1_555 1_555
C25 C24 1_555 1_555
H27 C25 1_555 1_555
C26 C25 1_555 1_555
H28 C26 1_555 1_555
C27 C26 1_555 1_555
H29 C27 1_555 1_555
C28 C27 1_555 1_555
H30 C28 1_555 1_555
C29 C24 1_555 1_555
C30 C29 1_555 1_555
H31 C30 1_555 1_555
H32 C30 1_555 1_555
C31 C32 1_555 1_555
C32 H33 1_555 1_555
C33 N5 1_555 1_555
C34 C35 1_555 1_555
C35 H34 1_555 1_555
C36 C35 1_555 1_555
C37 C36 1_555 1_555
H35 C37 1_555 1_555
C38 C37 1_555 1_555
C39 C34 1_555 1_555
H36 C39 1_555 1_555
C40 H37 1_555 1_555
H38 C40 1_555 1_555
H39 C40 1_555 1_555
C41 C32 1_555 1_555
C42 C41 1_555 1_555
H40 C42 1_555 1_555
H41 C42 1_555 1_555
H42 C42 1_555 1_555
C43 C41 1_555 1_555
H43 C43 1_555 1_555
H44 C43 1_555 1_555
H45 C43 1_555 1_555
C44 C41 1_555 1_555
H46 C44 1_555 1_555
H47 C44 1_555 1_555
H48 C44 1_555 1_555
C45 C36 1_555 1_555
F7 C45 1_555 1_555
F8 C45 1_555 1_555
F9 C45 1_555 1_555
C46 C38 1_555 1_555
F10 C46 1_555 1_555
F11 C46 1_555 1_555
F12 C46 1_555 1_555
N4 C30 1_555 1_555
N5 C32 1_555 1_555
H49 N5 1_555 1_555
N6 C33 1_555 1_555
H50 N6 1_555 1_555
O2 C31 1_555 1_555
S2 C33 1_555 1_555
C5 C6 1_555 1_555
C8 N1 1_555 1_555
C11 N3 1_555 1_555
C15 C16 1_555 1_555
C17 N1 1_555 1_555
C28 C29 1_555 1_555
C31 N4 1_555 1_555
C34 N6 1_555 1_555
C38 C39 1_555 1_555
C40 N4 1_555 1_555

#END
