
#######################################################################
#
#                 Cambridge Crystallographic Data Centre
#                                CCDC 
#
#######################################################################
#
# If this CIF has been generated from an entry in the Cambridge 
# Structural Database, then it will include bibliographic, chemical, 
# crystal, experimental, refinement or atomic coordinate data resulting 
# from the CCDC's data processing and validation procedures.
#
#######################################################################

data_DAHPIO
_chemical_formula_moiety         'C23 H27 Cl2 N3 O1 S1'
_chemical_name_systematic        
1-(3,5-dichlorophenyl)-3-(3,3-dimethyl-1-oxo-1-(2-phenylpyrrolidin-1-yl)butan-2-yl)thiourea
_symmetry_cell_setting           trigonal
_symmetry_space_group_name_H-M   'P 32 2 1'
_symmetry_Int_Tables_number      154
_space_group_name_Hall           'P 32 2"'
loop_
_symmetry_equiv_pos_site_id
_symmetry_equiv_pos_as_xyz
1 x,y,z
2 -y,x-y,2/3+z
3 -x+y,-x,1/3+z
4 y,x,-z
5 x-y,-y,1/3-z
6 -x,-x+y,2/3-z
_cell_length_a                   12.1213(3)
_cell_length_b                   12.1213(3)
_cell_length_c                   27.5249(7)
_cell_angle_alpha                90
_cell_angle_beta                 90
_cell_angle_gamma                120
_cell_volume                     3502.31
_exptl_crystal_colour            colorless
_exptl_crystal_description       block
_cell_formula_units_Z            6
loop_
_atom_site_label
_atom_site_type_symbol
_atom_site_fract_x
_atom_site_fract_y
_atom_site_fract_z
C1 C 0.43001(15) 0.75725(14) 0.60384(5)
H1 H 0.4040 0.7699 0.5728
C2 C 0.54441(15) 0.85005(14) 0.62336(5)
H2 H 0.5957 0.9264 0.6057
C3 C 0.58487(15) 0.83277(15) 0.66824(5)
H3 H 0.6637 0.8965 0.6814
C4 C 0.50973(17) 0.72243(16) 0.69367(5)
H4 H 0.5367 0.7098 0.7245
C5 C 0.39479(17) 0.62965(15) 0.67442(5)
H5 H 0.3437 0.5538 0.6923
C6 C 0.35301(14) 0.64585(13) 0.62933(5)
C7 C 0.22181(14) 0.54642(14) 0.61163(5)
H6 H 0.2019 0.4598 0.6227
C8 C 0.11775(15) 0.57450(16) 0.62898(6)
H7 H 0.0331 0.4961 0.6291
H8 H 0.1366 0.6119 0.6620
C9 C 0.12301(16) 0.66945(16) 0.59170(6)
H9 H 0.1930 0.7565 0.5991
H10 H 0.0416 0.6699 0.5908
C10 C 0.14695(15) 0.62165(15) 0.54354(6)
H11 H 0.0660 0.5672 0.5261
H12 H 0.2041 0.6937 0.5223
C11 C 0.25438(13) 0.49054(13) 0.53002(5)
C12 C 0.23708(13) 0.49150(14) 0.47455(5)
H13 H 0.2328 0.5695 0.4661
C13 C 0.46156(13) 0.61457(14) 0.45025(5)
C14 C 0.68523(13) 0.70503(13) 0.42517(5)
C15 C 0.69577(15) 0.79061(16) 0.38950(5)
H14 H 0.6221 0.7809 0.3734
C16 C 0.81454(16) 0.88972(16) 0.37780(6)
C17 C 0.92413(15) 0.90576(15) 0.39965(6)
H15 H 1.0056 0.9747 0.3912
C18 C 0.91023(14) 0.81752(15) 0.43428(5)
C19 C 0.79274(14) 0.71715(15) 0.44786(5)
H16 H 0.7860 0.6582 0.4721
C20 C 0.11693(13) 0.37361(14) 0.45280(5)
C21 C 0.11840(14) 0.25055(14) 0.46125(6)
H17 H 0.1949 0.2570 0.4464
H18 H 0.0424 0.1794 0.4466
H19 H 0.1189 0.2358 0.4962
C22 C 0.11392(16) 0.39681(16) 0.39810(5)
H20 H 0.1137 0.4767 0.3930
H21 H 0.0368 0.3262 0.3838
H22 H 0.1893 0.4023 0.3826
C23 C -0.00466(14) 0.35984(15) 0.47583(6)
H23 H -0.0011 0.3518 0.5112
H24 H -0.0791 0.2837 0.4629
H25 H -0.0114 0.4352 0.4682
N1 N 0.20796(11) 0.54736(11) 0.55846(4)
N2 N 0.35162(11) 0.50285(11) 0.45241(4)
N3 N 0.56332(11) 0.60197(13) 0.43750(5)
O1 O 0.31329(10) 0.44061(9) 0.54756(4)
S1 S 0.47237(3) 0.75533(3) 0.463222(12)
Cl1 Cl 0.8151(5) 0.9905(5) 0.33037(19)
Cl2 Cl 1.04638(4) 0.83173(5) 0.461840(17)
H26 H 0.3606(16) 0.4383(17) 0.4533(6)
H27 H 0.5542(17) 0.5292(18) 0.4377(6)
Cl3? Cl 0.8402(6) 1.0108(6) 0.3401(2)
loop_
_geom_bond_atom_site_label_1
_geom_bond_atom_site_label_2
_geom_bond_site_symmetry_1
_geom_bond_site_symmetry_2
C1 H1 1_555 1_555
C2 C1 1_555 1_555
H2 C2 1_555 1_555
C3 C2 1_555 1_555
H3 C3 1_555 1_555
C4 C3 1_555 1_555
H4 C4 1_555 1_555
C5 C4 1_555 1_555
H5 C5 1_555 1_555
C6 C1 1_555 1_555
C7 C6 1_555 1_555
H6 C7 1_555 1_555
C8 C7 1_555 1_555
H7 C8 1_555 1_555
H8 C8 1_555 1_555
C9 C8 1_555 1_555
H9 C9 1_555 1_555
H10 C9 1_555 1_555
C10 C9 1_555 1_555
H11 C10 1_555 1_555
H12 C10 1_555 1_555
C11 C12 1_555 1_555
C12 H13 1_555 1_555
C13 N2 1_555 1_555
C14 C15 1_555 1_555
C15 H14 1_555 1_555
C16 C15 1_555 1_555
C17 C16 1_555 1_555
H15 C17 1_555 1_555
C18 C17 1_555 1_555
C19 C14 1_555 1_555
H16 C19 1_555 1_555
C20 C12 1_555 1_555
C21 C20 1_555 1_555
H17 C21 1_555 1_555
H18 C21 1_555 1_555
H19 C21 1_555 1_555
C22 C20 1_555 1_555
H20 C22 1_555 1_555
H21 C22 1_555 1_555
H22 C22 1_555 1_555
C23 C20 1_555 1_555
H23 C23 1_555 1_555
H24 C23 1_555 1_555
H25 C23 1_555 1_555
N1 C7 1_555 1_555
N2 C12 1_555 1_555
N3 C13 1_555 1_555
O1 C11 1_555 1_555
S1 C13 1_555 1_555
Cl1 C16 1_555 1_555
Cl2 C18 1_555 1_555
H26 N2 1_555 1_555
H27 N3 1_555 1_555
C5 C6 1_555 1_555
C10 N1 1_555 1_555
C11 N1 1_555 1_555
C14 N3 1_555 1_555
C18 C19 1_555 1_555

#END
