
#######################################################################
#
#                 Cambridge Crystallographic Data Centre
#                                CCDC 
#
#######################################################################
#
# If this CIF has been generated from an entry in the Cambridge 
# Structural Database, then it will include bibliographic, chemical, 
# crystal, experimental, refinement or atomic coordinate data resulting 
# from the CCDC's data processing and validation procedures.
#
#######################################################################

data_DAHPEK
_chemical_formula_moiety         'C24 H27 F6 N3 O1 S1'
_chemical_name_systematic        
N^2^-((3,5-bis(trifluoromethyl)phenyl)carbamothioyl)-N,3-dimethyl-N-(1-phenylethyl)valinamide
_symmetry_cell_setting           trigonal
_symmetry_space_group_name_H-M   'P 31'
_symmetry_Int_Tables_number      144
_space_group_name_Hall           'P 31'
loop_
_symmetry_equiv_pos_site_id
_symmetry_equiv_pos_as_xyz
1 x,y,z
2 -y,x-y,1/3+z
3 -x+y,-x,2/3+z
_cell_length_a                   11.8419(3)
_cell_length_b                   11.8419(3)
_cell_length_c                   31.7379(9)
_cell_angle_alpha                90
_cell_angle_beta                 90
_cell_angle_gamma                120
_cell_volume                     3854.35
_exptl_crystal_colour            colorless
_exptl_crystal_description       block
_cell_formula_units_Z            6
loop_
_atom_site_label
_atom_site_type_symbol
_atom_site_fract_x
_atom_site_fract_y
_atom_site_fract_z
C1 C 0.2609(5) 0.8549(7) 0.67729(12)
H1 H 0.1974 0.8140 0.6558
C2 C 0.2242(4) 0.8768(5) 0.71668(14)
H2 H 0.1356 0.8509 0.7221
C3 C 0.3171(6) 0.9366(5) 0.74817(10)
H3 H 0.2920 0.9516 0.7751
C4 C 0.4467(5) 0.9745(5) 0.74027(11)
H4 H 0.5102 1.0154 0.7618
C5 C 0.4835(5) 0.9526(6) 0.70088(14)
H5 H 0.5721 0.9785 0.6955
C6 C 0.3905(6) 0.8928(8) 0.66939(11)
C7 C 0.4277(2) 0.8703(2) 0.62608(6)
H6 H 0.4956 0.9564 0.6146
C8 C 0.61104(19) 0.83123(19) 0.61779(6)
C9 C 0.6768(2) 0.7486(2) 0.62517(6)
H7 H 0.6079 0.6545 0.6241
C10 C 0.73438(19) 0.70286(18) 0.55503(6)
C11 C 0.84866(18) 0.68703(19) 0.49113(6)
C12 C 0.92455(19) 0.76759(19) 0.45815(6)
H8 H 0.9624 0.8595 0.4602
C13 C 0.94411(19) 0.7121(2) 0.42231(6)
C14 C 0.8880(2) 0.5781(2) 0.41826(6)
H9 H 0.9001 0.5407 0.3934
C15 C 0.8139(2) 0.5003(2) 0.45135(7)
C16 C 0.7946(2) 0.5531(2) 0.48804(6)
H10 H 0.7450 0.4979 0.5106
C17 C 0.3153(3) 0.8098(3) 0.59482(10)
H11 H 0.2466 0.7260 0.6058
H12 H 0.3467 0.7960 0.5678
H13 H 0.2803 0.8685 0.5907
C18 C 0.4026(2) 0.6576(2) 0.64934(7)
H14 H 0.4044 0.6660 0.6801
H15 H 0.4339 0.5980 0.6414
H16 H 0.3131 0.6230 0.6392
C19 C 0.7512(2) 0.7742(2) 0.66815(6)
C20 C 0.8134(3) 0.6877(3) 0.66928(8)
H17 H 0.7467 0.5972 0.6634
H18 H 0.8509 0.6930 0.6972
H19 H 0.8822 0.7176 0.6479
C21 C 0.6556(2) 0.7346(2) 0.70510(7)
H20 H 0.6140 0.7883 0.7050
H21 H 0.7028 0.7476 0.7316
H22 H 0.5887 0.6425 0.7023
C22 C 0.8560(2) 0.9158(2) 0.67338(7)
H23 H 0.9218 0.9396 0.6513
H24 H 0.8973 0.9280 0.7010
H25 H 0.8167 0.9713 0.6712
C23 C 1.0213(2) 0.7976(2) 0.38611(6)
F1 F 1.08479(16) 0.74878(16) 0.36498(5)
F2 F 1.11081(15) 0.91685(14) 0.39833(4)
F3 F 0.94621(14) 0.81353(15) 0.35825(4)
C24 C 0.7548(4) 0.3543(3) 0.44932(12)
F4 F 0.6243(4) 0.2950(3) 0.44577(12)
F5 F 0.7773(3) 0.3031(3) 0.48381(13)
F6 F 0.7976(5) 0.3166(2) 0.41610(11)
N1 N 0.48709(17) 0.78605(16) 0.63040(5)
N2 N 0.76637(17) 0.77437(17) 0.59058(5)
N3 N 0.83723(17) 0.74806(17) 0.52768(5)
O1 O 0.67405(14) 0.93876(14) 0.60004(4)
S1 S 0.58489(5) 0.57650(5) 0.545680(17)
H26 H 0.898(2) 0.823(2) 0.5344(7)
H27 H 0.842(3) 0.843(3) 0.5921(8)
C32 C 1.3602(3) 0.1426(3) 0.60360(8)
H34 H 1.2732 0.1078 0.6134
C33 C 1.4623(3) 0.2083(3) 0.63156(10)
H35 H 1.4452 0.2169 0.6603
C34 C 1.5887(3) 0.2611(3) 0.61761(11)
H36 H 1.6594 0.3072 0.6365
C35 C 1.6118(3) 0.2464(4) 0.57590(12)
H37 H 1.6990 0.2833 0.5661
C36 C 1.5088(2) 0.1783(3) 0.54799(9)
H38 H 1.5261 0.1675 0.5195
C37 C 1.3817(2) 0.1264(2) 0.56163(7)
C38 C 1.2648(2) 0.0499(2) 0.53300(6)
H39 H 1.2010 -0.0289 0.5492
C39 C 1.08532(18) 0.09238(18) 0.54341(6)
C40 C 1.02301(17) 0.17890(18) 0.53950(6)
H40 H 1.0533 0.2293 0.5126
C41 C 0.81629(18) 0.04190(18) 0.50160(6)
C42 C 0.58453(18) -0.08717(18) 0.47806(6)
C43 C 0.58719(18) -0.01870(19) 0.44186(6)
H41 H 0.6610 0.0639 0.4358
C44 C 0.48077(19) -0.07273(19) 0.41486(6)
C45 C 0.37069(18) -0.1930(2) 0.42308(6)
H42 H 0.2982 -0.2286 0.4045
C46 C 0.36988(18) -0.25887(18) 0.45909(6)
C47 C 0.47571(19) -0.20818(19) 0.48641(6)
H43 H 0.4738 -0.2560 0.5107
C48 C 1.2934(3) 0.0006(3) 0.49226(8)
H44 H 1.3582 0.0749 0.4758
H45 H 1.2129 -0.0471 0.4759
H46 H 1.3275 -0.0575 0.4990
C49 C 1.2702(2) 0.2400(2) 0.49637(7)
H47 H 1.3576 0.2981 0.5076
H48 H 1.2223 0.2874 0.4942
H49 H 1.2775 0.2093 0.4684
C50 C 1.0589(2) 0.27735(19) 0.57673(6)
C51 C 0.9974(2) 0.3618(2) 0.56797(8)
H50 H 1.0254 0.4027 0.5402
H51 H 1.0252 0.4295 0.5896
H52 H 0.9022 0.3072 0.5684
C52 C 1.2078(2) 0.3664(2) 0.57913(8)
H53 H 1.2490 0.3131 0.5830
H54 H 1.2299 0.4264 0.6030
H55 H 1.2395 0.4166 0.5530
C53 C 1.0099(2) 0.2084(2) 0.61901(6)
H56 H 0.9154 0.1495 0.6176
H57 H 1.0299 0.2734 0.6412
H58 H 1.0531 0.1582 0.6254
C54 C 0.4811(6) 0.0040(6) 0.37713(18)
F10 F 0.4003(4) 0.0535(5) 0.38210(16)
F11 F 0.4329(5) -0.0711(5) 0.34247(13)
F12 F 0.5957(3) 0.1044(5) 0.36710(11)
C55 C 0.2511(4) -0.3878(3) 0.46938(13)
F13 F 0.1561(3) -0.4244(3) 0.44066(9)
F14 F 0.1996(4) -0.3821(4) 0.50613(10)
F15 F 0.2762(2) -0.4838(2) 0.47206(15)
N4 N 1.20006(16) 0.12775(16) 0.52465(5)
N5 N 0.88228(16) 0.09470(17) 0.53752(5)
N6 N 0.68540(16) -0.03500(17) 0.50818(5)
O2 O 1.02782(13) -0.00919(13) 0.56488(4)
S2 S 0.88978(4) 0.06616(5) 0.454640(14)
H59 H 0.845(2) 0.069(2) 0.5575(8)
H60 H 0.662(3) -0.053(3) 0.5332(10)
C25? C 0.2829(6) 0.8719(9) 0.68902(19)
H28? H 0.2048 0.8233 0.6733
C26? C 0.2775(6) 0.9070(6) 0.73044(19)
H29? H 0.1957 0.8824 0.7431
C27? C 0.3918(7) 0.9782(6) 0.75337(13)
H30? H 0.3881 1.0022 0.7817
C28? C 0.5116(6) 1.0143(7) 0.73488(18)
H31? H 0.5897 1.0629 0.7506
C29? C 0.5170(6) 0.9792(9) 0.6935(2)
H32? H 0.5988 1.0038 0.6808
C30? C 0.4027(8) 0.9080(10) 0.67052(15)
H33? H 0.4960 0.9532 0.6129
C31? C 0.7274(19) 0.3575(16) 0.4429(6)
F7? F 0.5984(18) 0.304(2) 0.4483(8)
F8? F 0.767(2) 0.299(2) 0.4705(6)
F9? F 0.747(2) 0.3182(13) 0.4060(5)
C56? C 0.4790(15) -0.0048(14) 0.3752(5)
F16? F 0.4384(11) 0.0791(13) 0.3843(5)
F17? F 0.3940(12) -0.0970(12) 0.3478(4)
F18? F 0.5960(8) 0.0588(10) 0.3585(3)
C57? C 0.2526(17) -0.3806(17) 0.4717(6)
F19? F 0.1839(18) -0.4473(19) 0.4388(6)
F20? F 0.171(2) -0.361(2) 0.4951(7)
F21? F 0.2763(14) -0.4573(15) 0.4950(7)
loop_
_geom_bond_atom_site_label_1
_geom_bond_atom_site_label_2
_geom_bond_site_symmetry_1
_geom_bond_site_symmetry_2
C1 H1 1_555 1_555
C2 C1 1_555 1_555
H2 C2 1_555 1_555
C3 C2 1_555 1_555
H3 C3 1_555 1_555
C4 C3 1_555 1_555
H4 C4 1_555 1_555
C5 C4 1_555 1_555
H5 C5 1_555 1_555
C6 C1 1_555 1_555
C7 C6 1_555 1_555
H6 C7 1_555 1_555
C8 C9 1_555 1_555
C9 H7 1_555 1_555
C10 N2 1_555 1_555
C11 C12 1_555 1_555
C12 H8 1_555 1_555
C13 C12 1_555 1_555
C14 C13 1_555 1_555
H9 C14 1_555 1_555
C15 C14 1_555 1_555
C16 C11 1_555 1_555
H10 C16 1_555 1_555
C17 C7 1_555 1_555
H11 C17 1_555 1_555
H12 C17 1_555 1_555
H13 C17 1_555 1_555
C18 H14 1_555 1_555
H15 C18 1_555 1_555
H16 C18 1_555 1_555
C19 C9 1_555 1_555
C20 C19 1_555 1_555
H17 C20 1_555 1_555
H18 C20 1_555 1_555
H19 C20 1_555 1_555
C21 C19 1_555 1_555
H20 C21 1_555 1_555
H21 C21 1_555 1_555
H22 C21 1_555 1_555
C22 C19 1_555 1_555
H23 C22 1_555 1_555
H24 C22 1_555 1_555
H25 C22 1_555 1_555
C23 C13 1_555 1_555
F1 C23 1_555 1_555
F2 C23 1_555 1_555
F3 C23 1_555 1_555
C24 C15 1_555 1_555
F4 C24 1_555 1_555
F5 C24 1_555 1_555
F6 C24 1_555 1_555
N1 C7 1_555 1_555
N2 C9 1_555 1_555
N3 C10 1_555 1_555
O1 C8 1_555 1_555
S1 C10 1_555 1_555
H26 N3 1_555 1_555
H27 N2 1_555 1_555
C32 H34 1_555 1_555
C33 C32 1_555 1_555
H35 C33 1_555 1_555
C34 C33 1_555 1_555
H36 C34 1_555 1_555
C35 C34 1_555 1_555
H37 C35 1_555 1_555
C36 C35 1_555 1_555
H38 C36 1_555 1_555
C37 C32 1_555 1_555
C38 C37 1_555 1_555
H39 C38 1_555 1_555
C39 C40 1_555 1_555
C40 H40 1_555 1_555
C41 N5 1_555 1_555
C42 C43 1_555 1_555
C43 H41 1_555 1_555
C44 C43 1_555 1_555
C45 C44 1_555 1_555
H42 C45 1_555 1_555
C46 C45 1_555 1_555
C47 C42 1_555 1_555
H43 C47 1_555 1_555
C48 C38 1_555 1_555
H44 C48 1_555 1_555
H45 C48 1_555 1_555
H46 C48 1_555 1_555
C49 H47 1_555 1_555
H48 C49 1_555 1_555
H49 C49 1_555 1_555
C50 C40 1_555 1_555
C51 C50 1_555 1_555
H50 C51 1_555 1_555
H51 C51 1_555 1_555
H52 C51 1_555 1_555
C52 C50 1_555 1_555
H53 C52 1_555 1_555
H54 C52 1_555 1_555
H55 C52 1_555 1_555
C53 C50 1_555 1_555
H56 C53 1_555 1_555
H57 C53 1_555 1_555
H58 C53 1_555 1_555
C54 C44 1_555 1_555
F10 C54 1_555 1_555
F11 C54 1_555 1_555
F12 C54 1_555 1_555
C55 C46 1_555 1_555
F13 C55 1_555 1_555
F14 C55 1_555 1_555
F15 C55 1_555 1_555
N4 C38 1_555 1_555
N5 C40 1_555 1_555
N6 C41 1_555 1_555
O2 C39 1_555 1_555
S2 C41 1_555 1_555
H59 N5 1_555 1_555
H60 N6 1_555 1_555
C5 C6 1_555 1_555
C8 N1 1_555 1_555
C11 N3 1_555 1_555
C15 C16 1_555 1_555
C18 N1 1_555 1_555
C36 C37 1_555 1_555
C39 N4 1_555 1_555
C42 N6 1_555 1_555
C46 C47 1_555 1_555
C49 N4 1_555 1_555

#END
