
#######################################################################
#
#                 Cambridge Crystallographic Data Centre
#                                CCDC 
#
#######################################################################
#
# If this CIF has been generated from an entry in the Cambridge 
# Structural Database, then it will include bibliographic, chemical, 
# crystal, experimental, refinement or atomic coordinate data resulting 
# from the CCDC's data processing and validation procedures.
#
#######################################################################

data_DAHQIP
_chemical_formula_moiety         
'C4 H12 N1 1+,C58 H54 F14 N6 O6 S2,Cl1 1-,2(C6 H14)'
_chemical_name_systematic        
'tetramethylammonium bis(3-(((3,5-bis(trifluoromethyl)phenyl)carbamothioyl)amino)-4-(2-(4-fluorophenyl)pyrrolidin-1-yl)-2,2-dimethyl-4-oxobutyl) terephthalate chloride hexane solvate'
_symmetry_cell_setting           trigonal
_symmetry_space_group_name_H-M   'P 32'
_symmetry_Int_Tables_number      145
_space_group_name_Hall           'P 32'
loop_
_symmetry_equiv_pos_site_id
_symmetry_equiv_pos_as_xyz
1 x,y,z
2 -y,x-y,2/3+z
3 -x+y,-x,1/3+z
_cell_length_a                   25.197(3)
_cell_length_b                   25.197(3)
_cell_length_c                   26.498(3)
_cell_angle_alpha                90
_cell_angle_beta                 90
_cell_angle_gamma                120
_cell_volume                     14569.4
_exptl_crystal_colour            colorless
_exptl_crystal_description       plate
_cell_formula_units_Z            6
loop_
_atom_site_label
_atom_site_type_symbol
_atom_site_fract_x
_atom_site_fract_y
_atom_site_fract_z
C72 C 0.2039(7) 0.1752(6) 1.1151(4)
H65 H 0.1949 0.2045 1.1270
C73 C 0.1964(7) 0.1277(6) 1.1464(4)
H66 H 0.1824 0.1252 1.1793
C74 C 0.2099(7) 0.0839(5) 1.1287(5)
C75 C 0.2309(7) 0.0876(6) 1.0796(6)
H67 H 0.2399 0.0582 1.0677
C76 C 0.2383(8) 0.1351(7) 1.0482(4)
H68 H 0.2524 0.1375 1.0154
C77 C 0.2249(6) 0.1789(6) 1.0660(4)
C78 C 0.2366(6) 0.2334(6) 1.0341(4)
H69 H 0.2066 0.2461 1.0419
F26 F 0.2003(7) 0.0368(6) 1.1588(5)
C79 C 0.3016(4) 0.2880(4) 1.0374(3)
H70 H 0.3023 0.3260 1.0298
H71 H 0.3189 0.2910 1.0707
C80 C 0.3364(4) 0.2739(4) 0.9975(3)
H72 H 0.3746 0.3103 0.9886
H73 H 0.3451 0.2425 1.0090
C81 C 0.2925(3) 0.2515(3) 0.9534(2)
H74 H 0.2956 0.2855 0.9338
H75 H 0.2998 0.2249 0.9315
C82 C 0.1778(3) 0.1622(3) 0.9022(2)
H76 H 0.2198 0.1810 0.8893
C83 C 0.1820(3) 0.0688(3) 0.88770(19)
C84 C 0.1611(3) -0.0340(3) 0.8582(2)
C85 C 0.2090(3) -0.0407(3) 0.8773(2)
H77 H 0.2317 -0.0173 0.9046
C86 C 0.2228(4) -0.0837(4) 0.8546(3)
C87 C 0.1899(4) -0.1189(3) 0.8157(3)
H78 H 0.1996 -0.1462 0.8005
C88 C 0.1407(4) -0.1130(4) 0.7987(3)
C89 C 0.1271(4) -0.0724(3) 0.8189(3)
H79 H 0.0939 -0.0700 0.8063
C90 C 0.1049(6) -0.1504(5) 0.7546(4)
C91 C 0.4344(4) 0.3300(4) 0.4064(2)
C92 C 0.4260(8) 0.2271(7) 0.3890(5)
H80 H 0.4096 0.2150 0.4212
C93 C 0.4325(8) 0.1864(5) 0.3578(6)
H81 H 0.4204 0.1470 0.3691
C94 C 0.4571(7) 0.2046(6) 0.3098(6)
C95 C 0.4751(9) 0.2634(7) 0.2929(4)
H82 H 0.4916 0.2756 0.2607
C96 C 0.4686(9) 0.3041(6) 0.3241(5)
H83 H 0.4807 0.3435 0.3128
C97 C 0.4440(7) 0.2860(6) 0.3722(5)
H84 H 0.4651 0.3724 0.3983
F27 F 0.4643(9) 0.1686(8) 0.2775(9)
C98 C 0.3692(5) 0.3216(4) 0.4019(3)
H85 H 0.3703 0.3602 0.4076
H86 H 0.3520 0.3063 0.3688
C99 C 0.3330(4) 0.2766(5) 0.4416(3)
H87 H 0.3201 0.2351 0.4308
H88 H 0.2972 0.2794 0.4507
C100 C 0.3777(3) 0.2958(4) 0.4844(2)
H89 H 0.3768 0.3276 0.5044
H90 H 0.3684 0.2612 0.5062
C101 C 0.4918(3) 0.3201(3) 0.53787(19)
H91 H 0.4497 0.2999 0.5507
C102 C 0.4853(3) 0.2195(3) 0.55514(19)
C103 C 0.5005(3) 0.1353(3) 0.5858(3)
C104 C 0.5353(3) 0.1312(4) 0.6265(2)
H92 H 0.5686 0.1667 0.6391
C105 C 0.5201(3) 0.0757(4) 0.6471(3)
C106 C 0.4726(4) 0.0221(4) 0.6274(3)
H93 H 0.4626 -0.0157 0.6410
C107 C 0.4397(3) 0.0264(3) 0.5861(3)
C108 C 0.4541(3) 0.0811(3) 0.5671(3)
H94 H 0.4315 0.0824 0.5399
C109 C 0.3900(4) -0.0311(4) 0.5628(4)
F28 F 0.3877(4) -0.0280(4) 0.5162(3)
F29 F 0.3350(3) -0.0335(4) 0.5798(3)
F30 F 0.3850(5) -0.0830(3) 0.5811(4)
C110 C 0.1425(3) 0.1875(3) 0.8704(2)
C111 C 0.0757(3) 0.1613(4) 0.8864(3)
H95 H 0.0556 0.1173 0.8867
H96 H 0.0553 0.1742 0.8631
H97 H 0.0742 0.1757 0.9196
C112 C 0.1749(4) 0.2570(4) 0.8747(3)
H98 H 0.1813 0.2685 0.9097
H99 H 0.1502 0.2717 0.8594
H100 H 0.2138 0.2746 0.8578
C113 C 0.1414(3) 0.1691(4) 0.8170(2)
H101 H 0.1203 0.1247 0.8146
H102 H 0.1194 0.1837 0.7966
C114 C 0.2117(4) 0.1844(3) 0.7503(2)
C115 C 0.2765(3) 0.2136(3) 0.7369(2)
C116 C 0.3240(3) 0.2366(4) 0.7707(2)
H103 H 0.3157 0.2310 0.8050
C117 C 0.3854(3) 0.2685(3) 0.7541(2)
H104 H 0.4168 0.2853 0.7778
C118 C 0.3994(3) 0.2753(3) 0.7039(2)
C119 C 0.3495(4) 0.2478(3) 0.6692(2)
H105 H 0.3584 0.2497 0.6350
C120 C 0.2912(4) 0.2199(3) 0.6830(2)
H106 H 0.2602 0.2045 0.6589
C121 C 0.4617(3) 0.3094(3) 0.6886(2)
C122 C 0.5299(3) 0.3652(3) 0.6212(2)
H107 H 0.5540 0.3453 0.6258
H108 H 0.5492 0.4031 0.6404
C123 C 0.5292(3) 0.3799(3) 0.5649(2)
C124 C 0.4951(4) 0.4179(4) 0.5618(3)
H109 H 0.5003 0.4352 0.5287
H110 H 0.5120 0.4501 0.5864
H111 H 0.4522 0.3914 0.5684
C125 C 0.5925(3) 0.4185(3) 0.5470(3)
H112 H 0.6131 0.3950 0.5471
H113 H 0.6138 0.4532 0.5689
H114 H 0.5921 0.4323 0.5133
N7 N 0.2344(3) 0.2185(3) 0.97808(17)
N8 N 0.1507(2) 0.0976(2) 0.89772(16)
H115 H 0.1117 0.0756 0.9017
N9 N 0.1467(2) 0.0079(2) 0.8772(2)
H116 H 0.1084 -0.0069 0.8837
N10 N 0.4372(3) 0.3188(3) 0.46041(18)
N11 N 0.5180(2) 0.2797(3) 0.54603(18)
H117 H 0.5572 0.2962 0.5448
N12 N 0.5201(2) 0.1941(2) 0.5655(2)
H118 H 0.5585 0.2161 0.5590
C126 C 0.1811(3) 0.1797(4) 0.9593(2)
O9 O 0.1344(6) 0.1424(8) 0.9870(6)
O10 O 0.2046(2) 0.1950(2) 0.79807(15)
O11 O 0.1683(3) 0.1536(2) 0.72361(17)
O12 O 0.4699(2) 0.3267(2) 0.63976(14)
O13 O 0.5065(3) 0.3247(3) 0.71684(18)
C127 C 0.4911(3) 0.3283(3) 0.4806(2)
O14 O 0.5349(10) 0.3520(13) 0.4512(9)
C128 C 0.2728(5) -0.0876(5) 0.8753(4)
F31 F 0.3275(4) -0.0376(5) 0.8589(5)
F32 F 0.2778(8) -0.1372(6) 0.8586(7)
F33 F 0.2818(13) -0.0833(10) 0.9267(4)
F34 F 0.0586(3) -0.1482(4) 0.7442(3)
F35 F 0.0916(3) -0.2079(2) 0.7569(2)
F36 F 0.1415(3) -0.1309(3) 0.7098(2)
C129 C 0.5562(5) 0.0709(6) 0.6918(4)
F37 F 0.5218(3) 0.0557(3) 0.73278(19)
F38 F 0.6010(3) 0.1226(3) 0.7036(2)
F39 F 0.5716(3) 0.0295(3) 0.6840(2)
S3 S 0.25807(8) 0.10460(9) 0.88515(7)
S4 S 0.40833(7) 0.17951(8) 0.55049(6)
N13 N 0.6603(3) 0.3397(3) 0.3930(2)
C142 C 0.7143(7) 0.3396(7) 0.3732(6)
H129 H 0.7163 0.3054 0.3868
H130 H 0.7504 0.3770 0.3825
H131 H 0.7116 0.3364 0.3371
C143 C 0.6069(7) 0.2847(6) 0.3788(5)
H132 H 0.5834 0.2938 0.3556
H133 H 0.5828 0.2652 0.4082
H134 H 0.6186 0.2577 0.3630
C144 C 0.6635(7) 0.3314(7) 0.4538(5)
H135 H 0.6321 0.2911 0.4635
H136 H 0.6575 0.3615 0.4711
H137 H 0.7029 0.3369 0.4625
C145 C 0.6572(7) 0.3910(6) 0.3785(5)
H138 H 0.6928 0.4272 0.3907
H139 H 0.6210 0.3888 0.3925
H140 H 0.6558 0.3924 0.3424
Cl2 Cl 0.65621(10) 0.31134(11) 0.57391(9)
N14 N 0.9875(3) 0.9935(3) 0.7259(2)
C150 C 1.0457(6) 1.0532(6) 0.7094(5)
H153 H 1.0703 1.0733 0.7385
H154 H 1.0341 1.0799 0.6932
H155 H 1.0689 1.0434 0.6863
C151 C 0.9946(6) 0.9410(6) 0.7094(5)
H156 H 1.0097 0.9477 0.6754
H157 H 0.9556 0.9039 0.7110
H158 H 1.0231 0.9375 0.7312
C152 C 0.9334(6) 0.9919(6) 0.7129(5)
H159 H 0.9304 1.0233 0.7310
H160 H 0.8992 0.9526 0.7215
H161 H 0.9332 0.9986 0.6773
C153 C 0.9971(6) 0.9970(6) 0.7866(4)
H162 H 1.0065 0.9661 0.7971
H163 H 0.9603 0.9903 0.8030
H164 H 1.0303 1.0367 0.7957
Cl3 Cl 0.01036(10) 0.02202(11) 0.57382(9)
C1 C 0.4632(7) 0.1587(6) 1.1150(6)
H1 H 0.4723 0.1294 1.1268
C2 C 0.4715(8) 0.2065(7) 1.1463(5)
H2 H 0.4862 0.2093 1.1789
C3 C 0.4579(7) 0.2504(6) 1.1287(6)
C4 C 0.4359(9) 0.2463(8) 1.0799(7)
H3 H 0.4268 0.2756 1.0682
C5 C 0.4276(9) 0.1984(9) 1.0487(5)
H4 H 0.4130 0.1957 1.0160
C6 C 0.4413(8) 0.1546(7) 1.0662(5)
C7 C 0.4300(4) 0.1009(4) 1.0343(2)
H5 H 0.4603 0.0885 1.0422
F1 F 0.4662(8) 0.2975(7) 1.1577(5)
C8 C 0.3646(4) 0.0447(4) 1.0375(3)
H6 H 0.3645 0.0071 1.0298
H7 H 0.3470 0.0413 1.0707
C9 C 0.3296(4) 0.0590(4) 0.9972(3)
H8 H 0.2914 0.0226 0.9883
H9 H 0.3209 0.0904 1.0087
C10 C 0.3743(3) 0.0816(3) 0.9529(2)
H10 H 0.3716 0.0477 0.9335
H11 H 0.3671 0.1080 0.9308
C11 C 0.4863(3) 0.1536(4) 0.9593(2)
O1 O 0.5320(5) 0.1889(7) 0.9880(4)
C12 C 0.4888(3) 0.1710(3) 0.9022(2)
H12 H 0.4467 0.1521 0.8894
C13 C 0.4849(3) 0.2647(3) 0.88735(19)
C14 C 0.5049(3) 0.3664(3) 0.8578(2)
C15 C 0.4576(3) 0.3737(3) 0.8776(2)
H13 H 0.4351 0.3504 0.9051
C16 C 0.4440(3) 0.4168(4) 0.8556(3)
C17 C 0.4767(4) 0.4520(3) 0.8157(3)
H14 H 0.4663 0.4787 0.8002
C18 C 0.5260(4) 0.4469(3) 0.7989(3)
C19 C 0.5395(4) 0.4058(4) 0.8198(3)
H15 H 0.5734 0.4042 0.8079
C20 C 0.2320(4) 0.0031(4) 0.4059(2)
C21 C 0.2420(9) 0.1058(11) 0.3887(7)
H16 H 0.2596 0.1176 0.4206
C22 C 0.2371(10) 0.1476(8) 0.3578(9)
H17 H 0.2513 0.1875 0.3689
C23 C 0.2108(9) 0.1298(8) 0.3102(9)
C24 C 0.1896(11) 0.0702(9) 0.2935(6)
H18 H 0.1720 0.0584 0.2617
C25 C 0.1945(11) 0.0284(8) 0.3245(7)
H19 H 0.1803 -0.0115 0.3134
C26 C 0.2208(8) 0.0462(10) 0.3721(6)
H20 H 0.2014 -0.0395 0.3981
F2 F 0.2016(14) 0.1658(16) 0.2787(17)
C27 C 0.2971(4) 0.0108(4) 0.4025(3)
H21 H 0.2953 -0.0280 0.4088
H22 H 0.3146 0.0253 0.3693
C28 C 0.3346(5) 0.0564(4) 0.4417(3)
H23 H 0.3482 0.0979 0.4307
H24 H 0.3699 0.0529 0.4512
C29 C 0.2882(3) 0.0371(4) 0.4848(2)
H25 H 0.2887 0.0054 0.5052
H26 H 0.2972 0.0718 0.5063
C30 C 0.1757(3) 0.0047(3) 0.4801(2)
O2 O 0.1318(8) -0.0058(18) 0.4537(6)
C31 C 0.1744(3) 0.0133(3) 0.5377(2)
H27 H 0.216(3) 0.037(3) 0.551(2)
C32 C 0.1817(3) 0.1144(3) 0.55500(18)
C33 C 0.1652(3) 0.1980(3) 0.5863(3)
C34 C 0.1318(3) 0.2027(4) 0.6268(3)
H28 H 0.0988 0.1673 0.6399
C35 C 0.1470(3) 0.2579(4) 0.6471(2)
C36 C 0.1936(4) 0.3108(4) 0.6276(3)
H29 H 0.2034 0.3487 0.6412
C37 C 0.2268(3) 0.3066(3) 0.5861(3)
C38 C 0.2127(3) 0.2523(3) 0.5669(2)
H30 H 0.2353 0.2507 0.5398
C39 C 0.1110(5) 0.2628(6) 0.6921(3)
C40 C 0.5242(3) 0.1457(3) 0.8709(2)
C41 C 0.5913(3) 0.1720(4) 0.8863(3)
H31 H 0.6114 0.2160 0.8864
H32 H 0.6113 0.1589 0.8627
H33 H 0.5932 0.1577 0.9194
C42 C 0.4917(4) 0.0765(4) 0.8747(3)
H34 H 0.4833 0.0645 0.9094
H35 H 0.5173 0.0620 0.8608
H36 H 0.4539 0.0591 0.8562
C43 C 0.5253(3) 0.1644(4) 0.8169(2)
H37 H 0.5462 0.2087 0.8145
H38 H 0.5476 0.1500 0.7965
C44 C 0.4557(4) 0.1497(3) 0.7502(2)
C45 C 0.3904(3) 0.1196(3) 0.7375(2)
C46 C 0.3423(3) 0.0975(4) 0.7703(2)
H39 H 0.3502 0.1044 0.8047
C47 C 0.2825(3) 0.0653(4) 0.7542(2)
H40 H 0.2512 0.0481 0.7780
C48 C 0.2677(3) 0.0579(3) 0.7039(2)
C49 C 0.3177(4) 0.0853(3) 0.6690(2)
H41 H 0.3090 0.0833 0.6347
C50 C 0.3752(4) 0.1131(3) 0.6832(2)
H42 H 0.4063 0.1287 0.6592
C51 C 0.2046(4) 0.0238(3) 0.6879(2)
C52 C 0.1380(3) -0.0462(3) 0.5650(2)
C53 C 0.1370(3) -0.0318(3) 0.6216(2)
H43 H 0.1128 -0.0120 0.6262
H44 H 0.1178 -0.0698 0.6406
C54 C 0.1718(4) -0.0844(4) 0.5617(3)
H45 H 0.1789 -0.0896 0.5270
H46 H 0.1468 -0.1238 0.5770
H47 H 0.2103 -0.0630 0.5792
C55 C 0.0731(3) -0.0856(3) 0.5470(3)
H48 H 0.0530 -0.0618 0.5461
H49 H 0.0516 -0.1195 0.5697
H50 H 0.0733 -0.1007 0.5138
N1 N 0.4317(3) 0.1146(3) 0.97802(17)
N2 N 0.5163(2) 0.2362(2) 0.89791(16)
H51 H 0.5552 0.2582 0.9024
N3 N 0.5206(2) 0.3258(2) 0.8777(2)
H52 H 0.5587 0.3412 0.8853
N4 N 0.2294(3) 0.0142(3) 0.46006(17)
N5 N 0.1482(2) 0.0527(3) 0.54563(18)
H53 H 0.1090 0.0361 0.5443
N6 N 0.1464(2) 0.1390(2) 0.5659(2)
H54 H 0.1079 0.1163 0.5598
O3 O 0.4624(2) 0.1383(2) 0.79786(15)
O4 O 0.4990(3) 0.1798(2) 0.72349(17)
O5 O 0.1964(2) 0.0065(2) 0.64014(15)
O6 O 0.1598(3) 0.0089(3) 0.71710(17)
C56 C 0.3944(5) 0.4212(5) 0.8751(4)
F3 F 0.3808(10) 0.4014(7) 0.9261(4)
F4 F 0.3372(8) 0.3827(7) 0.8545(7)
F5 F 0.4053(7) 0.4809(5) 0.8760(7)
C57 C 0.5583(6) 0.4824(5) 0.7516(4)
F6 F 0.5214(4) 0.4630(3) 0.7093(2)
F7 F 0.6063(3) 0.4787(4) 0.7409(3)
F8 F 0.5770(5) 0.5417(4) 0.7544(3)
F9 F 0.0650(3) 0.2107(4) 0.7038(2)
F10 F 0.0949(3) 0.3035(3) 0.6843(2)
F11 F 0.1448(3) 0.2773(3) 0.73289(19)
C58 C 0.2765(5) 0.3643(4) 0.5645(4)
F12 F 0.2777(3) 0.4150(3) 0.5780(3)
F13 F 0.2818(3) 0.3615(3) 0.5163(2)
F14 F 0.3320(3) 0.3709(3) 0.5818(2)
S1 S 0.40859(7) 0.22894(9) 0.88514(7)
S2 S 0.25837(7) 0.15394(8) 0.55037(6)
C59? C 0.4384(11) 0.1434(10) 1.1172(9)
H55? H 0.4381 0.1084 1.1288
C60? C 0.4430(11) 0.1874(11) 1.1513(7)
H56? H 0.4456 0.1818 1.1857
C61? C 0.4435(10) 0.2397(10) 1.1340(10)
C62? C 0.4395(13) 0.2480(11) 1.0826(11)
H57? H 0.4399 0.2831 1.0710
C63? C 0.4350(15) 0.2041(14) 1.0485(8)
H58? H 0.4323 0.2096 1.0141
C64? C 0.4345(12) 0.1517(12) 1.0658(8)
H59? H 0.4612 0.0903 1.0436
F15? F 0.4446(12) 0.2781(10) 1.1692(8)
O7? O 0.5383(5) 0.1678(11) 0.9779(6)
C65? C 0.2324(10) 0.1057(12) 0.3926(7)
H60? H 0.2377 0.1149 0.4269
C66? C 0.2260(11) 0.1447(9) 0.3592(10)
H61? H 0.2272 0.1800 0.3711
C67? C 0.2180(9) 0.1309(9) 0.3080(9)
C68? C 0.2163(11) 0.0782(10) 0.2902(6)
H62? H 0.2110 0.0690 0.2560
C69? C 0.2227(11) 0.0392(9) 0.3237(7)
H63? H 0.2215 0.0039 0.3118
C70? C 0.2307(9) 0.0530(10) 0.3749(6)
H64? H 0.1999 -0.0380 0.3957
F16? F 0.2214(15) 0.1742(17) 0.2770(18)
O8? O 0.1261(13) -0.026(3) 0.4593(15)
F17? F 0.3880(11) 0.4247(8) 0.9261(4)
F18? F 0.3382(9) 0.3687(7) 0.8627(8)
F19? F 0.3834(8) 0.4650(7) 0.8515(7)
C71? C 0.5759(11) 0.4953(11) 0.7632(10)
F20? F 0.5576(13) 0.4742(12) 0.7148(9)
F21? F 0.6325(10) 0.5147(12) 0.7749(9)
F22? F 0.5682(18) 0.5433(16) 0.7672(13)
F23? F 0.3133(14) 0.4058(14) 0.5999(10)
F24? F 0.2559(13) 0.3969(13) 0.5387(12)
F25? F 0.3211(14) 0.3709(16) 0.5296(12)
C130? C 0.2315(12) 0.1912(10) 1.1168(9)
H119? H 0.2336 0.2271 1.1281
C131? C 0.2266(13) 0.1474(12) 1.1512(7)
H120? H 0.2254 0.1540 1.1856
C132? C 0.2234(12) 0.0937(11) 1.1343(10)
C133? C 0.2252(15) 0.0838(11) 1.0828(11)
H121? H 0.2231 0.0479 1.0715
C134? C 0.2301(15) 0.1276(14) 1.0484(8)
H122? H 0.2313 0.1210 1.0140
C135? C 0.2333(12) 0.1813(12) 1.0653(8)
H123? H 0.2055 0.2435 1.0439
F40? F 0.2263(13) 0.0558(11) 1.1687(9)
C136? C 0.4361(13) 0.2288(11) 0.3927(6)
H124? H 0.4336 0.2214 0.4273
C137? C 0.4406(13) 0.1886(9) 0.3595(10)
H125? H 0.4411 0.1542 0.3718
C138? C 0.4445(11) 0.1996(9) 0.3079(9)
C139? C 0.4438(13) 0.2510(11) 0.2895(6)
H126? H 0.4464 0.2584 0.2549
C140? C 0.4393(12) 0.2912(9) 0.3227(8)
H127? H 0.4389 0.3256 0.3104
C141? C 0.4355(11) 0.2802(9) 0.3743(7)
H128? H 0.4664 0.3711 0.3963
F41? F 0.4421(14) 0.1566(13) 0.2786(15)
F42? F 0.3619(12) -0.0315(13) 0.5213(8)
F43? F 0.3331(9) -0.0583(12) 0.5902(9)
F44? F 0.4092(11) -0.0715(10) 0.5576(11)
O15? O 0.1306(7) 0.1672(10) 0.9800(7)
O16? O 0.5369(9) 0.3340(14) 0.4580(9)
F45? F 0.3326(7) -0.0569(10) 0.8563(11)
F46? F 0.2545(13) -0.1497(7) 0.8791(13)
F47? F 0.285(2) -0.0681(19) 0.9255(6)
C146? C 0.7186(7) 0.3779(7) 0.3590(6)
H141? H 0.7080 0.3672 0.3242
H142? H 0.7501 0.3690 0.3686
H143? H 0.7333 0.4209 0.3636
C147? C 0.6085(7) 0.3347(7) 0.3597(6)
H144? H 0.6089 0.3730 0.3600
H145? H 0.5699 0.3029 0.3723
H146? H 0.6142 0.3251 0.3258
C148? C 0.6551(8) 0.2912(7) 0.4099(6)
H147? H 0.6620 0.2695 0.3832
H148? H 0.6146 0.2661 0.4233
H149? H 0.6847 0.3005 0.4361
C149? C 0.6708(8) 0.3937(7) 0.4289(5)
H150? H 0.7138 0.4230 0.4307
H151? H 0.6558 0.3778 0.4621
H152? H 0.6492 0.4132 0.4160
Cl1? Cl 0.6544(2) 0.3111(2) 0.5320(2)
C154? C 1.0168(7) 1.0469(7) 0.6964(6)
H165? H 1.0586 1.0575 0.6905
H166? H 1.0160 1.0799 0.7139
H167? H 0.9959 1.0399 0.6647
C155? C 0.9399(6) 0.9403(7) 0.6931(5)
H168? H 0.9078 0.9484 0.6837
H169? H 0.9228 0.9028 0.7120
H170? H 0.9595 0.9366 0.6633
C156? C 1.0190(7) 0.9741(7) 0.7533(6)
H171? H 1.0569 0.9849 0.7366
H172? H 0.9953 0.9304 0.7571
H173? H 1.0275 0.9930 0.7860
C157? C 0.9415(7) 1.0039(7) 0.7600(5)
H174? H 0.9643 1.0389 0.7814
H175? H 0.9176 0.9683 0.7804
H176? H 0.9147 1.0109 0.7387
Cl4? Cl 0.0120(2) 0.0218(2) 0.5318(2)
loop_
_geom_bond_atom_site_label_1
_geom_bond_atom_site_label_2
_geom_bond_site_symmetry_1
_geom_bond_site_symmetry_2
C1 H1 1_555 1_555
C2 C1 1_555 1_555
H2 C2 1_555 1_555
C3 C2 1_555 1_555
C4 C3 1_555 1_555
H3 C4 1_555 1_555
C5 C4 1_555 1_555
H4 C5 1_555 1_555
C6 C1 1_555 1_555
C7 C6 1_555 1_555
H5 C7 1_555 1_555
F1 C3 1_555 1_555
C8 C7 1_555 1_555
H6 C8 1_555 1_555
H7 C8 1_555 1_555
C9 C8 1_555 1_555
H8 C9 1_555 1_555
H9 C9 1_555 1_555
C10 C9 1_555 1_555
H10 C10 1_555 1_555
H11 C10 1_555 1_555
C11 O1 1_555 1_555
C12 C11 1_555 1_555
H12 C12 1_555 1_555
C13 N2 1_555 1_555
C14 C15 1_555 1_555
C15 H13 1_555 1_555
C16 C15 1_555 1_555
C17 C16 1_555 1_555
H14 C17 1_555 1_555
C18 C17 1_555 1_555
C19 C14 1_555 1_555
H15 C19 1_555 1_555
C20 C26 1_555 1_555
C21 H16 1_555 1_555
C22 C21 1_555 1_555
H17 C22 1_555 1_555
C23 C22 1_555 1_555
C24 C23 1_555 1_555
H18 C24 1_555 1_555
C25 C24 1_555 1_555
H19 C25 1_555 1_555
C26 C21 1_555 1_555
H20 C20 1_555 1_555
F2 C23 1_555 1_555
C27 C20 1_555 1_555
H21 C27 1_555 1_555
H22 C27 1_555 1_555
C28 C27 1_555 1_555
H23 C28 1_555 1_555
H24 C28 1_555 1_555
C29 C28 1_555 1_555
H25 C29 1_555 1_555
H26 C29 1_555 1_555
C30 O2 1_555 1_555
C31 C30 1_555 1_555
H27 C31 1_555 1_555
C32 N5 1_555 1_555
C33 C34 1_555 1_555
C34 H28 1_555 1_555
C35 C34 1_555 1_555
C36 C35 1_555 1_555
H29 C36 1_555 1_555
C37 C36 1_555 1_555
C38 C33 1_555 1_555
H30 C38 1_555 1_555
C39 C35 1_555 1_555
C40 C12 1_555 1_555
C41 C40 1_555 1_555
H31 C41 1_555 1_555
H32 C41 1_555 1_555
H33 C41 1_555 1_555
C42 C40 1_555 1_555
H34 C42 1_555 1_555
H35 C42 1_555 1_555
H36 C42 1_555 1_555
C43 C40 1_555 1_555
H37 C43 1_555 1_555
H38 C43 1_555 1_555
C44 C45 1_555 1_555
C45 C46 1_555 1_555
C46 H39 1_555 1_555
C47 C46 1_555 1_555
H40 C47 1_555 1_555
C48 C47 1_555 1_555
C49 C48 1_555 1_555
H41 C49 1_555 1_555
C50 C45 1_555 1_555
H42 C50 1_555 1_555
C51 C48 1_555 1_555
C52 C31 1_555 1_555
C53 C52 1_555 1_555
H43 C53 1_555 1_555
H44 C53 1_555 1_555
C54 C52 1_555 1_555
H45 C54 1_555 1_555
H46 C54 1_555 1_555
H47 C54 1_555 1_555
C55 C52 1_555 1_555
H48 C55 1_555 1_555
H49 C55 1_555 1_555
H50 C55 1_555 1_555
N1 C7 1_555 1_555
N2 C12 1_555 1_555
H51 N2 1_555 1_555
N3 C13 1_555 1_555
H52 N3 1_555 1_555
N4 C20 1_555 1_555
N5 C31 1_555 1_555
H53 N5 1_555 1_555
N6 C32 1_555 1_555
H54 N6 1_555 1_555
O3 C43 1_555 1_555
O4 C44 1_555 1_555
O5 C51 1_555 1_555
O6 C51 1_555 1_555
C56 C16 1_555 1_555
F3 C56 1_555 1_555
F4 C56 1_555 1_555
F5 C56 1_555 1_555
C57 C18 1_555 1_555
F6 C57 1_555 1_555
F7 C57 1_555 1_555
F8 C57 1_555 1_555
F9 C39 1_555 1_555
F10 C39 1_555 1_555
F11 C39 1_555 1_555
C58 C37 1_555 1_555
F12 C58 1_555 1_555
F13 C58 1_555 1_555
F14 C58 1_555 1_555
S1 C13 1_555 1_555
S2 C32 1_555 1_555
C72 H65 1_555 1_555
C73 C72 1_555 1_555
H66 C73 1_555 1_555
C74 C73 1_555 1_555
C75 C74 1_555 1_555
H67 C75 1_555 1_555
C76 C75 1_555 1_555
H68 C76 1_555 1_555
C77 C72 1_555 1_555
C78 C77 1_555 1_555
H69 C78 1_555 1_555
F26 C74 1_555 1_555
C79 C78 1_555 1_555
H70 C79 1_555 1_555
H71 C79 1_555 1_555
C80 C79 1_555 1_555
H72 C80 1_555 1_555
H73 C80 1_555 1_555
C81 C80 1_555 1_555
H74 C81 1_555 1_555
H75 C81 1_555 1_555
C82 H76 1_555 1_555
C83 N8 1_555 1_555
C84 C85 1_555 1_555
C85 H77 1_555 1_555
C86 C85 1_555 1_555
C87 C86 1_555 1_555
H78 C87 1_555 1_555
C88 C87 1_555 1_555
C89 C84 1_555 1_555
H79 C89 1_555 1_555
C90 C88 1_555 1_555
C91 C97 1_555 1_555
C92 H80 1_555 1_555
C93 C92 1_555 1_555
H81 C93 1_555 1_555
C94 C93 1_555 1_555
C95 C94 1_555 1_555
H82 C95 1_555 1_555
C96 C95 1_555 1_555
H83 C96 1_555 1_555
C97 C92 1_555 1_555
H84 C91 1_555 1_555
F27 C94 1_555 1_555
C98 C91 1_555 1_555
H85 C98 1_555 1_555
H86 C98 1_555 1_555
C99 C98 1_555 1_555
H87 C99 1_555 1_555
H88 C99 1_555 1_555
C100 C99 1_555 1_555
H89 C100 1_555 1_555
H90 C100 1_555 1_555
C101 H91 1_555 1_555
C102 N11 1_555 1_555
C103 C104 1_555 1_555
C104 H92 1_555 1_555
C105 C104 1_555 1_555
C106 C105 1_555 1_555
H93 C106 1_555 1_555
C107 C106 1_555 1_555
C108 C103 1_555 1_555
H94 C108 1_555 1_555
C109 C107 1_555 1_555
F28 C109 1_555 1_555
F29 C109 1_555 1_555
F30 C109 1_555 1_555
C110 C82 1_555 1_555
C111 C110 1_555 1_555
H95 C111 1_555 1_555
H96 C111 1_555 1_555
H97 C111 1_555 1_555
C112 C110 1_555 1_555
H98 C112 1_555 1_555
H99 C112 1_555 1_555
H100 C112 1_555 1_555
C113 C110 1_555 1_555
H101 C113 1_555 1_555
H102 C113 1_555 1_555
C114 C115 1_555 1_555
C115 C116 1_555 1_555
C116 H103 1_555 1_555
C117 C116 1_555 1_555
H104 C117 1_555 1_555
C118 C117 1_555 1_555
C119 C118 1_555 1_555
H105 C119 1_555 1_555
C120 C115 1_555 1_555
H106 C120 1_555 1_555
C121 C118 1_555 1_555
C122 H107 1_555 1_555
H108 C122 1_555 1_555
C123 C101 1_555 1_555
C124 C123 1_555 1_555
H109 C124 1_555 1_555
H110 C124 1_555 1_555
H111 C124 1_555 1_555
C125 C123 1_555 1_555
H112 C125 1_555 1_555
H113 C125 1_555 1_555
H114 C125 1_555 1_555
N7 C78 1_555 1_555
N8 C82 1_555 1_555
H115 N8 1_555 1_555
N9 C83 1_555 1_555
H116 N9 1_555 1_555
N10 C91 1_555 1_555
N11 C101 1_555 1_555
H117 N11 1_555 1_555
N12 C102 1_555 1_555
H118 N12 1_555 1_555
C126 C82 1_555 1_555
O9 C126 1_555 1_555
O10 C113 1_555 1_555
O11 C114 1_555 1_555
O12 C121 1_555 1_555
O13 C121 1_555 1_555
C127 C101 1_555 1_555
O14 C127 1_555 1_555
C128 C86 1_555 1_555
F31 C128 1_555 1_555
F32 C128 1_555 1_555
F33 C128 1_555 1_555
F34 C90 1_555 1_555
F35 C90 1_555 1_555
F36 C90 1_555 1_555
C129 C105 1_555 1_555
F37 C129 1_555 1_555
F38 C129 1_555 1_555
F39 C129 1_555 1_555
S3 C83 1_555 1_555
S4 C102 1_555 1_555
N13 C142 1_555 1_555
C142 H129 1_555 1_555
H130 C142 1_555 1_555
H131 C142 1_555 1_555
C143 N13 1_555 1_555
H132 C143 1_555 1_555
H133 C143 1_555 1_555
H134 C143 1_555 1_555
C144 N13 1_555 1_555
H135 C144 1_555 1_555
H136 C144 1_555 1_555
H137 C144 1_555 1_555
C145 N13 1_555 1_555
H138 C145 1_555 1_555
H139 C145 1_555 1_555
H140 C145 1_555 1_555
N14 C150 1_555 1_555
C150 H153 1_555 1_555
H154 C150 1_555 1_555
H155 C150 1_555 1_555
C151 N14 1_555 1_555
H156 C151 1_555 1_555
H157 C151 1_555 1_555
H158 C151 1_555 1_555
C152 N14 1_555 1_555
H159 C152 1_555 1_555
H160 C152 1_555 1_555
H161 C152 1_555 1_555
C153 N14 1_555 1_555
H162 C153 1_555 1_555
H163 C153 1_555 1_555
H164 C153 1_555 1_555
C5 C6 1_555 1_555
C10 N1 1_555 1_555
C11 N1 1_555 1_555
C14 N3 1_555 1_555
C18 C19 1_555 1_555
C25 C26 1_555 1_555
C29 N4 1_555 1_555
C30 N4 1_555 1_555
C33 N6 1_555 1_555
C37 C38 1_555 1_555
C44 O3 1_555 1_555
C49 C50 1_555 1_555
C53 O5 1_555 1_555
C76 C77 1_555 1_555
C81 N7 1_555 1_555
C84 N9 1_555 1_555
C88 C89 1_555 1_555
C96 C97 1_555 1_555
C100 N10 1_555 1_555
C103 N12 1_555 1_555
C107 C108 1_555 1_555
C114 O10 1_555 1_555
C119 C120 1_555 1_555
C122 C123 1_555 1_555
C122 O12 1_555 1_555
N7 C126 1_555 1_555
N10 C127 1_555 1_555

#END
