
#######################################################################
#
#                 Cambridge Crystallographic Data Centre
#                                CCDC 
#
#######################################################################
#
# If this CIF has been generated from an entry in the Cambridge 
# Structural Database, then it will include bibliographic, chemical, 
# crystal, experimental, refinement or atomic coordinate data resulting 
# from the CCDC's data processing and validation procedures.
#
#######################################################################

data_DAHROW
_chemical_formula_moiety         
'0.5(C4 H12 N1 1+),C25 H27 F6 N3 O1 S1,0.5(Cl1 1-)'
_chemical_name_systematic        
'hemikis(tetramethylammonium) 1-(3,5-bis(trifluoromethyl)phenyl)-3-(3,3-dimethyl-1-oxo-1-(2-phenylpyrrolidin-1-yl)butan-2-yl)thiourea hemichloride'
_symmetry_cell_setting           tetragonal
_symmetry_space_group_name_H-M   'P 41 21 2'
_symmetry_Int_Tables_number      92
_space_group_name_Hall           'P 4abw 2nw'
loop_
_symmetry_equiv_pos_site_id
_symmetry_equiv_pos_as_xyz
1 x,y,z
2 1/2-y,1/2+x,1/4+z
3 1/2+y,1/2-x,3/4+z
4 1/2+x,1/2-y,3/4-z
5 1/2-x,1/2+y,1/4-z
6 -x,-y,1/2+z
7 y,x,-z
8 -y,-x,1/2-z
_cell_length_a                   15.7617(3)
_cell_length_b                   15.7617(3)
_cell_length_c                   23.1201(5)
_cell_angle_alpha                90
_cell_angle_beta                 90
_cell_angle_gamma                90
_cell_volume                     5743.75
_exptl_crystal_colour            colorless
_exptl_crystal_description       block
_cell_formula_units_Z            8
loop_
_atom_site_label
_atom_site_type_symbol
_atom_site_fract_x
_atom_site_fract_y
_atom_site_fract_z
S1 S 0.25487(6) 0.63856(7) 0.51983(3)
O1 O 0.06272(15) 0.71324(14) 0.66000(9)
N1 N 0.02117(16) 0.68339(15) 0.56937(11)
N2 N 0.21308(15) 0.62595(16) 0.62997(10)
H1 H 0.223(2) 0.638(2) 0.6637(15)
N3 N 0.33820(16) 0.69141(16) 0.61526(11)
H2 H 0.336(2) 0.695(2) 0.6513(16)
C1 C 0.0788(2) 0.8557(2) 0.55319(13)
H3 H 0.1157 0.8100 0.5439
C2 C 0.1085(2) 0.9389(2) 0.55132(14)
H4 H 0.1657 0.9499 0.5407
C3 C 0.0555(3) 1.0049(2) 0.56480(15)
H5 H 0.0764 1.0614 0.5637
C4 C -0.0275(3) 0.9904(2) 0.57983(14)
H6 H -0.0640 1.0365 0.5888
C5 C -0.0574(2) 0.9078(2) 0.58178(13)
H7 H -0.1148 0.8974 0.5923
C6 C -0.00433(19) 0.83981(18) 0.56852(12)
C7 C -0.04212(19) 0.75191(19) 0.56965(14)
H8 H -0.0798 0.7459 0.6042
C8 C -0.0925(2) 0.7330(2) 0.51487(16)
H9 H -0.1390 0.6924 0.5228
H10 H -0.1168 0.7856 0.4984
C9 C -0.0279(2) 0.6948(2) 0.47433(14)
H11 H 0.0088 0.7391 0.4571
H12 H -0.0557 0.6623 0.4430
C10 C 0.0224(2) 0.6369(2) 0.51400(12)
H13 H -0.0051 0.5807 0.5178
H14 H 0.0811 0.6292 0.4998
C11 C 0.06780(18) 0.66852(18) 0.61652(12)
C12 C 0.12956(17) 0.59407(18) 0.61559(11)
H15 H 0.1316 0.5714 0.5752
C13 C 0.26922(18) 0.65334(18) 0.59065(12)
C14 C 0.41686(19) 0.71378(17) 0.59217(12)
C15 C 0.4336(2) 0.72370(19) 0.53351(13)
H16 H 0.3892 0.7178 0.5060
C16 C 0.5150(2) 0.74212(19) 0.51548(13)
C17 C 0.5808(2) 0.7532(2) 0.55401(14)
H17 H 0.6367 0.7651 0.5409
C18 C 0.56292(19) 0.74634(19) 0.61254(14)
C19 C 0.48242(19) 0.72682(18) 0.63177(12)
H18 H 0.4716 0.7222 0.6721
C20 C 0.10188(19) 0.52106(19) 0.65615(12)
C21 C 0.1586(2) 0.4444(2) 0.64395(14)
H19 H 0.1433 0.3979 0.6700
H20 H 0.2181 0.4601 0.6502
H21 H 0.1509 0.4262 0.6038
C22 C 0.1076(2) 0.5444(2) 0.71998(13)
H22 H 0.0869 0.4970 0.7435
H23 H 0.0729 0.5948 0.7275
H24 H 0.1668 0.5564 0.7301
C23 C 0.0107(2) 0.4967(2) 0.64169(13)
H25 H -0.0066 0.4486 0.6658
H26 H 0.0070 0.4807 0.6008
H27 H -0.0268 0.5450 0.6492
C24 C 0.6330(2) 0.7581(2) 0.65572(14)
F1 F 0.6067(3) 0.7892(3) 0.70708(19)
F2 F 0.6683(3) 0.6805(4) 0.6711(2)
F3 F 0.6968(3) 0.8036(3) 0.6370(2)
C25 C 0.5306(3) 0.7529(3) 0.45212(17)
F4 F 0.60866(16) 0.73032(16) 0.43720(9)
F5 F 0.52370(16) 0.83365(16) 0.43556(9)
F6 F 0.4861(4) 0.6979(4) 0.4208(2)
Cl1 Cl 0.30875(5) 0.69125(5) 0.7500
N4 N 0.10467(17) 0.89533(17) 0.7500
C26 C 0.0281(2) 0.8971(2) 0.71239(15)
H28 H 0.0288 0.9486 0.6886
H29 H -0.0230 0.8968 0.7366
H30 H 0.0280 0.8471 0.6872
C27 C 0.1046(3) 0.8183(3) 0.78645(16)
H31 H 0.1545 0.8188 0.8117
H32 H 0.1061 0.7679 0.7617
H33 H 0.0530 0.8173 0.8101
C26G C 0.1029(2) 0.9719(2) 0.78761(15)
H28G H 0.0514 0.9712 0.8114
H29G H 0.1032 1.0230 0.7634
H30G H 0.1529 0.9720 0.8128
C27G C 0.1817(3) 0.8954(3) 0.71355(16)
H31G H 0.1812 0.8455 0.6883
H32G H 0.2321 0.8939 0.7383
H33G H 0.1827 0.9470 0.6899
F7? F 0.6148(3) 0.8188(4) 0.6916(2)
F8? F 0.6491(4) 0.6874(4) 0.6837(3)
F9? F 0.7070(4) 0.7775(4) 0.6283(3)
F10? F 0.4683(4) 0.7216(4) 0.4182(2)
loop_
_geom_bond_atom_site_label_1
_geom_bond_atom_site_label_2
_geom_bond_site_symmetry_1
_geom_bond_site_symmetry_2
S1 C13 1_555 1_555
O1 C11 1_555 1_555
N1 C7 1_555 1_555
N2 H1 1_555 1_555
N3 H2 1_555 1_555
C1 H3 1_555 1_555
C2 C1 1_555 1_555
H4 C2 1_555 1_555
C3 C2 1_555 1_555
H5 C3 1_555 1_555
C4 C3 1_555 1_555
H6 C4 1_555 1_555
C5 C4 1_555 1_555
H7 C5 1_555 1_555
C6 C1 1_555 1_555
C7 C6 1_555 1_555
H8 C7 1_555 1_555
C8 C7 1_555 1_555
H9 C8 1_555 1_555
H10 C8 1_555 1_555
C9 C8 1_555 1_555
H11 C9 1_555 1_555
H12 C9 1_555 1_555
C10 N1 1_555 1_555
H13 C10 1_555 1_555
H14 C10 1_555 1_555
C11 N1 1_555 1_555
C12 N2 1_555 1_555
H15 C12 1_555 1_555
C13 N2 1_555 1_555
C14 N3 1_555 1_555
C15 C14 1_555 1_555
H16 C15 1_555 1_555
C16 C15 1_555 1_555
C17 C16 1_555 1_555
H17 C17 1_555 1_555
C18 C17 1_555 1_555
C19 C14 1_555 1_555
H18 C19 1_555 1_555
C20 C12 1_555 1_555
C21 C20 1_555 1_555
H19 C21 1_555 1_555
H20 C21 1_555 1_555
H21 C21 1_555 1_555
C22 C20 1_555 1_555
H22 C22 1_555 1_555
H23 C22 1_555 1_555
H24 C22 1_555 1_555
C23 C20 1_555 1_555
H25 C23 1_555 1_555
H26 C23 1_555 1_555
H27 C23 1_555 1_555
C24 C18 1_555 1_555
F1 C24 1_555 1_555
F2 C24 1_555 1_555
F3 C24 1_555 1_555
C25 C16 1_555 1_555
F4 C25 1_555 1_555
F5 C25 1_555 1_555
F6 C25 1_555 1_555
N4 C26 1_555 1_555
C26 H28 1_555 1_555
H29 C26 1_555 1_555
H30 C26 1_555 1_555
C27 N4 1_555 1_555
H31 C27 1_555 1_555
H32 C27 1_555 1_555
H33 C27 1_555 1_555
C26G N4 1_555 1_555
H28G C26G 1_555 1_555
H29G C26G 1_555 1_555
H30G C26G 1_555 1_555
C27G N4 1_555 1_555
H31G C27G 1_555 1_555
H32G C27G 1_555 1_555
H33G C27G 1_555 1_555
N3 C13 1_555 1_555
C5 C6 1_555 1_555
C9 C10 1_555 1_555
C11 C12 1_555 1_555
C18 C19 1_555 1_555

#END
