
#######################################################################
#
#                 Cambridge Crystallographic Data Centre
#                                CCDC 
#
#######################################################################
#
# If this CIF has been generated from an entry in the Cambridge 
# Structural Database, then it will include bibliographic, chemical, 
# crystal, experimental, refinement or atomic coordinate data resulting 
# from the CCDC's data processing and validation procedures.
#
#######################################################################

data_DAHRIQ
_chemical_formula_moiety         'C4 H12 N1 1+,C60 H58 F14 N6 O6 S2,Cl1 1-'
_chemical_name_systematic        
"tetramethylammonium bis(3-(((3,5-bis(trifluoromethyl)phenyl)carbamothioyl)amino)-4-(2-(4-fluorophenyl)pyrrolidin-1-yl)-2,2-dimethyl-4-oxobutyl) 2,2'-(1,4-phenylene)diacetate chloride"
_symmetry_cell_setting           trigonal
_symmetry_space_group_name_H-M   'P 32 2 1'
_symmetry_Int_Tables_number      154
_space_group_name_Hall           'P 32 2"'
loop_
_symmetry_equiv_pos_site_id
_symmetry_equiv_pos_as_xyz
1 x,y,z
2 -y,x-y,2/3+z
3 -x+y,-x,1/3+z
4 x-y,-y,1/3-z
5 -x,-x+y,2/3-z
6 y,x,-z
_cell_length_a                   14.3464(2)
_cell_length_b                   14.3464(2)
_cell_length_c                   28.5097(4)
_cell_angle_alpha                90
_cell_angle_beta                 90
_cell_angle_gamma                120
_cell_volume                     5081.7
_exptl_crystal_colour            colorless
_exptl_crystal_description       plate
_cell_formula_units_Z            3
loop_
_atom_site_label
_atom_site_type_symbol
_atom_site_fract_x
_atom_site_fract_y
_atom_site_fract_z
C1 C 0.34821(19) 0.32795(18) 0.82048(8)
H1 H 0.3515 0.3536 0.7894
C2 C 0.4137(2) 0.2867(2) 0.83306(10)
H2 H 0.4617 0.2840 0.8109
C3 C 0.4082(2) 0.2499(2) 0.87777(10)
C4 C 0.3417(2) 0.2538(2) 0.91053(9)
H3 H 0.3396 0.2283 0.9415
C5 C 0.27684(18) 0.29580(19) 0.89793(8)
H4 H 0.2306 0.2998 0.9207
C6 C 0.27811(16) 0.33238(16) 0.85244(7)
C7 C 0.20204(18) 0.37404(18) 0.84037(7)
H5 H 0.1276 0.3213 0.8512
C8 C 0.2369(2) 0.48497(19) 0.86115(7)
H6 H 0.1750 0.4970 0.8643
H7 H 0.2710 0.4937 0.8922
C9 C 0.3172(2) 0.56069(18) 0.82529(8)
H8 H 0.3880 0.5654 0.8293
H9 H 0.3267 0.6337 0.8280
C10 C 0.26692(19) 0.50985(17) 0.77818(7)
H10 H 0.2221 0.5390 0.7659
H11 H 0.3229 0.5221 0.7548
C11 C 0.14472(17) 0.31149(16) 0.76074(7)
C12 C 0.14701(16) 0.33323(15) 0.70770(6)
H12 H 0.2083 0.4070 0.7010
C13 C 0.26767(16) 0.27155(16) 0.67801(6)
C14 C 0.35185(17) 0.16664(17) 0.64884(7)
C15 C 0.32987(17) 0.08786(18) 0.61529(8)
H13 H 0.2594 0.0475 0.6026
C16 C 0.4098(2) 0.0679(2) 0.60037(9)
C17 C 0.5126(2) 0.1244(2) 0.61857(9)
H14 H 0.5677 0.1113 0.6078
C18 C 0.53318(18) 0.20021(19) 0.65279(8)
C19 C 0.45501(17) 0.22261(18) 0.66815(7)
H15 H 0.4714 0.2756 0.6916
C20 C 0.04209(17) 0.32560(17) 0.68953(7)
C21 C 0.04086(17) 0.32382(18) 0.63583(7)
H16 H 0.0262 0.2524 0.6246
H17 H -0.0172 0.3360 0.6242
C22 C 0.17677(19) 0.38256(17) 0.57820(7)
C23 C 0.2893(2) 0.46916(18) 0.56543(8)
H18 H 0.3335 0.4953 0.5943
H19 H 0.2866 0.5306 0.5511
C24 C 0.34146(19) 0.42804(17) 0.53149(7)
C25 C 0.39421(18) 0.37656(19) 0.54780(7)
H20 H 0.4014 0.3709 0.5807
C26 C 0.43721(18) 0.3328(2) 0.51706(7)
H21 H 0.4728 0.2969 0.5289
C27 C 0.0356(2) 0.42267(19) 0.70778(8)
H22 H 0.0393 0.4243 0.7421
H23 H -0.0324 0.4168 0.6977
H24 H 0.0959 0.4890 0.6952
C28 C -0.05906(17) 0.22261(18) 0.70461(7)
H25 H -0.0530 0.1601 0.6953
H26 H -0.1221 0.2190 0.6895
H27 H -0.0670 0.2226 0.7388
N1 N 0.20050(14) 0.39462(14) 0.78970(5)
N2 N 0.16728(14) 0.25485(14) 0.68461(6)
N3 N 0.26663(16) 0.18089(15) 0.66274(6)
O1 O 0.09451(13) 0.21850(12) 0.77516(5)
O2 O 0.14334(12) 0.40644(11) 0.61775(5)
O3 O 0.12313(15) 0.30222(15) 0.55614(6)
F1 F 0.47109(15) 0.20756(16) 0.89026(7)
C29 C 0.3865(7) -0.0171(7) 0.5641(3)
F2 F 0.4251(10) 0.0235(9) 0.5221(4)
F3 F 0.4331(4) -0.0743(4) 0.57443(19)
F4 F 0.2807(3) -0.0854(4) 0.5602(2)
C30 C 0.6425(3) 0.2636(3) 0.67437(13)
F5 F 0.69060(19) 0.2049(2) 0.67999(11)
F6 F 0.64278(16) 0.30011(17) 0.71732(8)
F7 F 0.70810(17) 0.3490(2) 0.64956(10)
S1 S 0.37878(4) 0.39100(4) 0.685843(19)
H28 H 0.115(2) 0.189(2) 0.6848(8)
H29 H 0.209(2) 0.128(2) 0.6594(8)
C1E C 0.32795(18) 0.34821(19) 0.17952(8)
H1E H 0.3536 0.3515 0.2106
C2E C 0.2867(2) 0.4137(2) 0.16694(10)
H2E H 0.2840 0.4617 0.1891
C3E C 0.2499(2) 0.4082(2) 0.12223(10)
C4E C 0.2538(2) 0.3417(2) 0.08947(9)
H3E H 0.2283 0.3396 0.0585
C5E C 0.29580(19) 0.27684(18) 0.10207(8)
H4E H 0.2998 0.2306 0.0793
C6E C 0.33238(16) 0.27811(16) 0.14756(7)
C7E C 0.37404(18) 0.20204(18) 0.15963(7)
H5E H 0.3213 0.1276 0.1488
C8E C 0.48497(19) 0.2369(2) 0.13885(7)
H6E H 0.4970 0.1750 0.1357
H7E H 0.4937 0.2710 0.1078
C9E C 0.56069(18) 0.3172(2) 0.17471(8)
H8E H 0.5654 0.3880 0.1707
H9E H 0.6337 0.3267 0.1720
C10E C 0.50985(17) 0.26692(19) 0.22182(7)
H10E H 0.5390 0.2221 0.2341
H11E H 0.5221 0.3229 0.2452
C11E C 0.31149(16) 0.14472(17) 0.23926(7)
C12E C 0.33323(15) 0.14701(16) 0.29230(6)
H12E H 0.4070 0.2083 0.2990
C13E C 0.27155(16) 0.26767(16) 0.32199(6)
C14E C 0.16664(17) 0.35185(17) 0.35116(7)
C15E C 0.08786(18) 0.32987(17) 0.38471(8)
H13E H 0.0475 0.2594 0.3974
C16E C 0.0679(2) 0.4098(2) 0.39963(9)
C17E C 0.1244(2) 0.5126(2) 0.38143(9)
H14E H 0.1113 0.5677 0.3922
C18E C 0.20021(19) 0.53318(18) 0.34721(8)
C19E C 0.22261(18) 0.45501(17) 0.33185(7)
H15E H 0.2756 0.4714 0.3084
C20E C 0.32560(17) 0.04209(17) 0.31047(7)
C21E C 0.32382(18) 0.04086(17) 0.36417(7)
H16E H 0.2524 0.0262 0.3754
H17E H 0.3360 -0.0172 0.3758
C22E C 0.38256(17) 0.17677(19) 0.42180(7)
C23E C 0.46916(18) 0.2893(2) 0.43457(8)
H18E H 0.4953 0.3335 0.4057
H19E H 0.5306 0.2866 0.4489
C24E C 0.42804(17) 0.34146(19) 0.46851(7)
C25E C 0.37656(19) 0.39421(18) 0.45220(7)
H20E H 0.3709 0.4014 0.4193
C26E C 0.3328(2) 0.43721(18) 0.48294(7)
H21E H 0.2969 0.4728 0.4711
C27E C 0.42267(19) 0.0356(2) 0.29222(8)
H22E H 0.4243 0.0393 0.2579
H23E H 0.4168 -0.0324 0.3023
H24E H 0.4890 0.0959 0.3048
C28E C 0.22261(18) -0.05906(17) 0.29539(7)
H25E H 0.1601 -0.0530 0.3047
H26E H 0.2190 -0.1221 0.3105
H27E H 0.2226 -0.0670 0.2612
N1E N 0.39462(14) 0.20050(14) 0.21030(5)
N2E N 0.25485(14) 0.16728(14) 0.31539(6)
N3E N 0.18089(15) 0.26663(16) 0.33726(6)
O1E O 0.21850(12) 0.09451(13) 0.22484(5)
O2E O 0.40644(11) 0.14334(12) 0.38225(5)
O3E O 0.30222(15) 0.12313(15) 0.44386(6)
F1E F 0.20756(16) 0.47109(15) 0.10974(7)
C29E C -0.0171(7) 0.3865(7) 0.4359(3)
F2E F 0.0235(9) 0.4251(10) 0.4779(4)
F3E F -0.0743(4) 0.4331(4) 0.42557(19)
F4E F -0.0854(4) 0.2807(3) 0.4398(2)
C30E C 0.2636(3) 0.6425(3) 0.32563(13)
F5E F 0.2049(2) 0.69060(19) 0.32001(11)
F6E F 0.30011(17) 0.64278(16) 0.28268(8)
F7E F 0.3490(2) 0.70810(17) 0.35044(10)
S1E S 0.39100(4) 0.37878(4) 0.314157(19)
H28E H 0.189(2) 0.115(2) 0.3152(8)
H29E H 0.128(2) 0.209(2) 0.3406(8)
Cl1 Cl 0.01961(5) 0.0000 0.6667
C33 C -0.05355(18) 0.02783(19) 0.52481(8)
H30 H -0.1117 0.0072 0.5020
H31 H -0.0395 0.0941 0.5408
H32 H -0.0748 -0.0299 0.5479
C34 C 0.13458(19) 0.0782(2) 0.53495(8)
H33 H 0.1503 0.1460 0.5499
H34 H 0.1993 0.0875 0.5191
H35 H 0.1121 0.0219 0.5589
N4 N 0.04638(16) 0.04638(16) 0.5000
C33E C 0.02783(19) -0.05355(18) 0.47519(8)
H30E H 0.0072 -0.1117 0.4980
H31E H 0.0941 -0.0395 0.4592
H32E H -0.0299 -0.0748 0.4521
C34E C 0.0782(2) 0.13458(19) 0.46505(8)
H33E H 0.1460 0.1503 0.4501
H34E H 0.0875 0.1993 0.4809
H35E H 0.0219 0.1121 0.4411
C31? C 0.3843(15) -0.0086(14) 0.5598(6)
F8? F 0.447(2) 0.046(2) 0.5239(10)
F9? F 0.3910(8) -0.0958(9) 0.5701(4)
F10? F 0.2897(8) -0.0433(9) 0.5388(4)
C32? C 0.6475(12) 0.2488(14) 0.6670(6)
F11? F 0.7211(8) 0.2943(10) 0.6328(4)
F12? F 0.6620(12) 0.1684(9) 0.6829(6)
F13? F 0.6659(11) 0.3261(11) 0.6966(6)
loop_
_geom_bond_atom_site_label_1
_geom_bond_atom_site_label_2
_geom_bond_site_symmetry_1
_geom_bond_site_symmetry_2
C1 H1 1_555 1_555
C2 C1 1_555 1_555
H2 C2 1_555 1_555
C3 C2 1_555 1_555
C4 C3 1_555 1_555
H3 C4 1_555 1_555
C5 C4 1_555 1_555
H4 C5 1_555 1_555
C6 C1 1_555 1_555
C7 C6 1_555 1_555
H5 C7 1_555 1_555
C8 C7 1_555 1_555
H6 C8 1_555 1_555
H7 C8 1_555 1_555
C9 C8 1_555 1_555
H8 C9 1_555 1_555
H9 C9 1_555 1_555
C10 C9 1_555 1_555
H10 C10 1_555 1_555
H11 C10 1_555 1_555
C11 C12 1_555 1_555
C12 H12 1_555 1_555
C13 N2 1_555 1_555
C14 C15 1_555 1_555
C15 H13 1_555 1_555
C16 C15 1_555 1_555
C17 C16 1_555 1_555
H14 C17 1_555 1_555
C18 C17 1_555 1_555
C19 C14 1_555 1_555
H15 C19 1_555 1_555
C20 C12 1_555 1_555
C21 C20 1_555 1_555
H16 C21 1_555 1_555
H17 C21 1_555 1_555
C22 C23 1_555 1_555
C23 H18 1_555 1_555
H19 C23 1_555 1_555
C24 C23 1_555 1_555
C25 C24 1_555 1_555
H20 C25 1_555 1_555
C26 C25 1_555 1_555
H21 C26 1_555 1_555
C27 C20 1_555 1_555
H22 C27 1_555 1_555
H23 C27 1_555 1_555
H24 C27 1_555 1_555
C28 C20 1_555 1_555
H25 C28 1_555 1_555
H26 C28 1_555 1_555
H27 C28 1_555 1_555
N1 C7 1_555 1_555
N2 C12 1_555 1_555
N3 C13 1_555 1_555
O1 C11 1_555 1_555
O2 C21 1_555 1_555
O3 C22 1_555 1_555
F1 C3 1_555 1_555
C29 C16 1_555 1_555
F2 C29 1_555 1_555
F3 C29 1_555 1_555
F4 C29 1_555 1_555
C30 C18 1_555 1_555
F5 C30 1_555 1_555
F6 C30 1_555 1_555
F7 C30 1_555 1_555
S1 C13 1_555 1_555
H28 N2 1_555 1_555
H29 N3 1_555 1_555
C33 H30 1_555 1_555
H31 C33 1_555 1_555
H32 C33 1_555 1_555
C34 H33 1_555 1_555
H34 C34 1_555 1_555
H35 C34 1_555 1_555
N4 C33 1_555 1_555
C1E H1E 1_555 1_555
C2E C1E 1_555 1_555
H2E C2E 1_555 1_555
C3E C2E 1_555 1_555
C4E C3E 1_555 1_555
H3E C4E 1_555 1_555
C5E C4E 1_555 1_555
H4E C5E 1_555 1_555
C6E C1E 1_555 1_555
C7E C6E 1_555 1_555
H5E C7E 1_555 1_555
C8E C7E 1_555 1_555
H6E C8E 1_555 1_555
H7E C8E 1_555 1_555
C9E C8E 1_555 1_555
H8E C9E 1_555 1_555
H9E C9E 1_555 1_555
C10E C9E 1_555 1_555
H10E C10E 1_555 1_555
H11E C10E 1_555 1_555
C11E C12E 1_555 1_555
C12E H12E 1_555 1_555
C13E N2E 1_555 1_555
C14E C15E 1_555 1_555
C15E H13E 1_555 1_555
C16E C15E 1_555 1_555
C17E C16E 1_555 1_555
H14E C17E 1_555 1_555
C18E C17E 1_555 1_555
C19E C14E 1_555 1_555
H15E C19E 1_555 1_555
C20E C12E 1_555 1_555
C21E C20E 1_555 1_555
H16E C21E 1_555 1_555
H17E C21E 1_555 1_555
C22E C23E 1_555 1_555
C23E H18E 1_555 1_555
H19E C23E 1_555 1_555
C24E C26 1_555 1_555
C25E C24E 1_555 1_555
H20E C25E 1_555 1_555
C26E C24 1_555 1_555
H21E C26E 1_555 1_555
C27E C20E 1_555 1_555
H22E C27E 1_555 1_555
H23E C27E 1_555 1_555
H24E C27E 1_555 1_555
C28E C20E 1_555 1_555
H25E C28E 1_555 1_555
H26E C28E 1_555 1_555
H27E C28E 1_555 1_555
N1E C7E 1_555 1_555
N2E C12E 1_555 1_555
N3E C13E 1_555 1_555
O1E C11E 1_555 1_555
O2E C21E 1_555 1_555
O3E C22E 1_555 1_555
F1E C3E 1_555 1_555
C29E C16E 1_555 1_555
F2E C29E 1_555 1_555
F3E C29E 1_555 1_555
F4E C29E 1_555 1_555
C30E C18E 1_555 1_555
F5E C30E 1_555 1_555
F6E C30E 1_555 1_555
F7E C30E 1_555 1_555
S1E C13E 1_555 1_555
H28E N2E 1_555 1_555
H29E N3E 1_555 1_555
C33E N4 1_555 1_555
H30E C33E 1_555 1_555
H31E C33E 1_555 1_555
H32E C33E 1_555 1_555
C34E N4 1_555 1_555
H33E C34E 1_555 1_555
H34E C34E 1_555 1_555
H35E C34E 1_555 1_555
C5 C6 1_555 1_555
C10 N1 1_555 1_555
C11 N1 1_555 1_555
C14 N3 1_555 1_555
C18 C19 1_555 1_555
C22 O2 1_555 1_555
C34 N4 1_555 1_555
C5E C6E 1_555 1_555
C10E N1E 1_555 1_555
C11E N1E 1_555 1_555
C14E N3E 1_555 1_555
C18E C19E 1_555 1_555
C22E O2E 1_555 1_555
C23E C24E 1_555 1_555
C25E C26E 1_555 1_555

#END
