
#######################################################################
#
#                 Cambridge Crystallographic Data Centre
#                                CCDC 
#
#######################################################################
#
# If this CIF has been generated from an entry in the Cambridge 
# Structural Database, then it will include bibliographic, chemical, 
# crystal, experimental, refinement or atomic coordinate data resulting 
# from the CCDC's data processing and validation procedures.
#
#######################################################################

data_DAHSUD
_chemical_formula_moiety         'C27 H29 N4'
_chemical_name_systematic        
'2-(1,3-dimesityl-1,3-dihydro-2H-imidazol-2-ylidene)-1-phenylhydrazinyl radical'
_symmetry_cell_setting           triclinic
_symmetry_space_group_name_H-M   'P -1'
_symmetry_Int_Tables_number      2
_space_group_name_Hall           '-P 1'
loop_
_symmetry_equiv_pos_site_id
_symmetry_equiv_pos_as_xyz
1 x,y,z
2 -x,-y,-z
_cell_length_a                   9.6841(19)
_cell_length_b                   15.453(2)
_cell_length_c                   15.8836(17)
_cell_angle_alpha                77.416(12)
_cell_angle_beta                 84.584(10)
_cell_angle_gamma                80.701(14)
_cell_volume                     2285.04
_exptl_crystal_colour            black
_exptl_crystal_description       prism
_cell_formula_units_Z            4
loop_
_atom_site_label
_atom_site_type_symbol
_atom_site_fract_x
_atom_site_fract_y
_atom_site_fract_z
N1 N 0.5863(2) 0.22441(14) 0.47089(15)
N2 N 0.4681(2) 0.27691(14) 0.49389(15)
N3 N 0.2560(2) 0.35549(14) 0.43816(15)
N4 N 0.3506(2) 0.24624(14) 0.37418(15)
C1 C 0.3703(3) 0.28959(17) 0.43845(18)
C2 C 0.1675(3) 0.3520(2) 0.3760(2)
H1 H 0.0817 0.3903 0.3632
C3 C 0.2250(3) 0.28470(19) 0.3369(2)
H2 H 0.1866 0.2666 0.2918
C4 C 0.2369(3) 0.42065(17) 0.49303(19)
C5 C 0.1517(3) 0.40577(17) 0.56878(19)
C6 C 0.1375(3) 0.46959(18) 0.62067(19)
H3 H 0.0790 0.4615 0.6724
C7 C 0.2060(3) 0.54399(18) 0.59898(18)
C8 C 0.2869(3) 0.55735(18) 0.52204(19)
H4 H 0.3324 0.6091 0.5061
C9 C 0.3033(3) 0.49632(18) 0.46724(19)
C10 C 0.0777(4) 0.3244(2) 0.5934(2)
H5 H 0.0149 0.3248 0.5484
H6 H 0.0231 0.3253 0.6484
H7 H 0.1472 0.2701 0.5994
C11 C 0.1956(4) 0.6098(2) 0.6586(2)
H8 H 0.2873 0.6067 0.6813
H9 H 0.1268 0.5944 0.7067
H10 H 0.1660 0.6706 0.6263
C12 C 0.3892(4) 0.5138(2) 0.3827(2)
H11 H 0.4551 0.4598 0.3770
H12 H 0.4414 0.5634 0.3812
H13 H 0.3269 0.5295 0.3348
C13 C 0.4318(3) 0.16423(17) 0.35558(18)
C14 C 0.5343(3) 0.17070(18) 0.28805(18)
C15 C 0.6096(3) 0.09106(19) 0.27079(19)
H14 H 0.6809 0.0938 0.2253
C16 C 0.5838(3) 0.00820(19) 0.3178(2)
C17 C 0.4774(3) 0.00476(19) 0.3829(2)
H15 H 0.4576 -0.0519 0.4148
C18 C 0.3987(3) 0.08280(18) 0.40262(19)
C19 C 0.5625(3) 0.2607(2) 0.2374(2)
H16 H 0.4795 0.2912 0.2065
H17 H 0.6425 0.2529 0.1958
H18 H 0.5838 0.2967 0.2770
C20 C 0.6741(3) -0.0774(2) 0.3009(2)
H19 H 0.7639 -0.0850 0.3273
H20 H 0.6908 -0.0735 0.2384
H21 H 0.6255 -0.1289 0.3261
C21 C 0.2799(3) 0.0796(2) 0.4707(2)
H22 H 0.2923 0.1170 0.5111
H23 H 0.2788 0.0176 0.5021
H24 H 0.1910 0.1021 0.4432
C22 C 0.6816(3) 0.19999(17) 0.53422(18)
C23 C 0.8125(3) 0.15307(18) 0.5122(2)
H25 H 0.8313 0.1418 0.4555
C24 C 0.9137(3) 0.12316(19) 0.5714(2)
H26 H 1.0012 0.0916 0.5551
C25 C 0.8891(3) 0.13868(19) 0.6545(2)
H27 H 0.9588 0.1177 0.6953
C26 C 0.7608(3) 0.1853(2) 0.6774(2)
H28 H 0.7435 0.1963 0.7343
C27 C 0.6583(3) 0.21607(18) 0.61886(19)
H29 H 0.5716 0.2482 0.6356
N5 N 0.1661(3) 0.26389(17) 0.04678(17)
N6 N 0.2911(3) 0.23027(17) 0.01741(17)
N7 N 0.4565(2) 0.24737(17) -0.10180(15)
N8 N 0.2547(3) 0.33078(17) -0.12944(16)
C28 C 0.3249(3) 0.27017(19) -0.06572(19)
C29 C 0.4674(3) 0.2947(2) -0.1862(2)
H30 H 0.5483 0.2917 -0.2248
C30 C 0.3439(3) 0.3455(2) -0.2037(2)
H31 H 0.3210 0.3846 -0.2571
C31 C 0.5706(3) 0.1927(2) -0.05493(18)
C32 C 0.6408(3) 0.2326(2) -0.00367(19)
C33 C 0.7517(3) 0.1806(2) 0.0399(2)
H32 H 0.8018 0.2068 0.0740
C34 C 0.7930(3) 0.0912(2) 0.03576(19)
C35 C 0.7213(3) 0.0544(2) -0.0166(2)
H33 H 0.7494 -0.0064 -0.0208
C36 C 0.6094(3) 0.1042(2) -0.0631(2)
C37 C 0.5919(4) 0.3282(2) 0.0053(2)
H34 H 0.5059 0.3308 0.0431
H35 H 0.5731 0.3659 -0.0517
H36 H 0.6649 0.3500 0.0304
C38 C 0.9114(4) 0.0363(3) 0.0877(2)
H37 H 0.9989 0.0603 0.0667
H38 H 0.9210 -0.0261 0.0815
H39 H 0.8913 0.0392 0.1488
C39 C 0.5315(4) 0.0632(2) -0.1187(2)
H40 H 0.4319 0.0881 -0.1158
H41 H 0.5423 -0.0019 -0.0978
H42 H 0.5698 0.0769 -0.1787
C40 C 0.1119(3) 0.3758(2) -0.12795(18)
C41 C 0.0057(3) 0.3329(2) -0.14450(19)
C42 C -0.1285(3) 0.3823(2) -0.15234(19)
H43 H -0.2028 0.3547 -0.1648
C43 C -0.1561(3) 0.4713(2) -0.14233(19)
C44 C -0.0473(3) 0.5098(2) -0.12188(19)
H44 H -0.0658 0.5694 -0.1125
C45 C 0.0880(3) 0.4638(2) -0.11472(19)
C46 C 0.0328(4) 0.2348(2) -0.1510(2)
H45 H 0.1043 0.2267 -0.1977
H46 H -0.0542 0.2165 -0.1633
H47 H 0.0659 0.1981 -0.0962
C47 C -0.3018(3) 0.5239(2) -0.1512(2)
H48 H -0.3437 0.5308 -0.0940
H49 H -0.3600 0.4918 -0.1775
H50 H -0.2962 0.5832 -0.1880
C48 C 0.2046(4) 0.5068(2) -0.0920(2)
H51 H 0.2650 0.5245 -0.1440
H52 H 0.2600 0.4639 -0.0485
H53 H 0.1646 0.5598 -0.0688
C49 C 0.1304(4) 0.21333(19) 0.12882(18)
C50 C 0.0012(3) 0.2402(2) 0.1693(2)
H54 H -0.0554 0.2936 0.1431
C51 C -0.0444(3) 0.1917(2) 0.2446(2)
H55 H -0.1332 0.2113 0.2705
C52 C 0.0346(3) 0.1148(2) 0.2848(2)
H56 H -0.0011 0.0804 0.3370
C53 C 0.1659(3) 0.0871(2) 0.2497(2)
H57 H 0.2219 0.0347 0.2787
C54 C 0.2161(3) 0.1360(2) 0.1717(2)
H58 H 0.3068 0.1178 0.1475
loop_
_geom_bond_atom_site_label_1
_geom_bond_atom_site_label_2
_geom_bond_site_symmetry_1
_geom_bond_site_symmetry_2
N1 N2 1_555 1_555
N2 C1 1_555 1_555
N3 C1 1_555 1_555
N4 C1 1_555 1_555
C2 N3 1_555 1_555
H1 C2 1_555 1_555
C3 N4 1_555 1_555
H2 C3 1_555 1_555
C4 N3 1_555 1_555
C5 C4 1_555 1_555
C6 C5 1_555 1_555
H3 C6 1_555 1_555
C7 C6 1_555 1_555
C8 C7 1_555 1_555
H4 C8 1_555 1_555
C9 C4 1_555 1_555
C10 C5 1_555 1_555
H5 C10 1_555 1_555
H6 C10 1_555 1_555
H7 C10 1_555 1_555
C11 C7 1_555 1_555
H8 C11 1_555 1_555
H9 C11 1_555 1_555
H10 C11 1_555 1_555
C12 C9 1_555 1_555
H11 C12 1_555 1_555
H12 C12 1_555 1_555
H13 C12 1_555 1_555
C13 N4 1_555 1_555
C14 C13 1_555 1_555
C15 C14 1_555 1_555
H14 C15 1_555 1_555
C16 C15 1_555 1_555
C17 C16 1_555 1_555
H15 C17 1_555 1_555
C18 C13 1_555 1_555
C19 C14 1_555 1_555
H16 C19 1_555 1_555
H17 C19 1_555 1_555
H18 C19 1_555 1_555
C20 C16 1_555 1_555
H19 C20 1_555 1_555
H20 C20 1_555 1_555
H21 C20 1_555 1_555
C21 C18 1_555 1_555
H22 C21 1_555 1_555
H23 C21 1_555 1_555
H24 C21 1_555 1_555
C22 N1 1_555 1_555
C23 C22 1_555 1_555
H25 C23 1_555 1_555
C24 C23 1_555 1_555
H26 C24 1_555 1_555
C25 C24 1_555 1_555
H27 C25 1_555 1_555
C26 C25 1_555 1_555
H28 C26 1_555 1_555
C27 C22 1_555 1_555
H29 C27 1_555 1_555
N5 N6 1_555 1_555
N6 C28 1_555 1_555
N7 C28 1_555 1_555
N8 C28 1_555 1_555
C29 N7 1_555 1_555
H30 C29 1_555 1_555
C30 N8 1_555 1_555
H31 C30 1_555 1_555
C31 N7 1_555 1_555
C32 C31 1_555 1_555
C33 C32 1_555 1_555
H32 C33 1_555 1_555
C34 C33 1_555 1_555
C35 C34 1_555 1_555
H33 C35 1_555 1_555
C36 C31 1_555 1_555
C37 C32 1_555 1_555
H34 C37 1_555 1_555
H35 C37 1_555 1_555
H36 C37 1_555 1_555
C38 C34 1_555 1_555
H37 C38 1_555 1_555
H38 C38 1_555 1_555
H39 C38 1_555 1_555
C39 C36 1_555 1_555
H40 C39 1_555 1_555
H41 C39 1_555 1_555
H42 C39 1_555 1_555
C40 N8 1_555 1_555
C41 C40 1_555 1_555
C42 C41 1_555 1_555
H43 C42 1_555 1_555
C43 C42 1_555 1_555
C44 C43 1_555 1_555
H44 C44 1_555 1_555
C45 C40 1_555 1_555
C46 C41 1_555 1_555
H45 C46 1_555 1_555
H46 C46 1_555 1_555
H47 C46 1_555 1_555
C47 C43 1_555 1_555
H48 C47 1_555 1_555
H49 C47 1_555 1_555
H50 C47 1_555 1_555
C48 C45 1_555 1_555
H51 C48 1_555 1_555
H52 C48 1_555 1_555
H53 C48 1_555 1_555
C49 N5 1_555 1_555
C50 C49 1_555 1_555
H54 C50 1_555 1_555
C51 C50 1_555 1_555
H55 C51 1_555 1_555
C52 C51 1_555 1_555
H56 C52 1_555 1_555
C53 C52 1_555 1_555
H57 C53 1_555 1_555
C54 C49 1_555 1_555
H58 C54 1_555 1_555
C2 C3 1_555 1_555
C8 C9 1_555 1_555
C17 C18 1_555 1_555
C26 C27 1_555 1_555
C29 C30 1_555 1_555
C35 C36 1_555 1_555
C44 C45 1_555 1_555
C53 C54 1_555 1_555

#END
