
#######################################################################
#
#                 Cambridge Crystallographic Data Centre
#                                CCDC 
#
#######################################################################
#
# If this CIF has been generated from an entry in the Cambridge 
# Structural Database, then it will include bibliographic, chemical, 
# crystal, experimental, refinement or atomic coordinate data resulting 
# from the CCDC's data processing and validation procedures.
#
#######################################################################

data_DAHTOY
_chemical_formula_moiety         'C31 H37 N4'
_chemical_name_systematic        
'2-(1,3-dimesityl-1,3-dihydro-2H-imidazol-2-ylidene)-1-(2,3,5,6-tetramethylphenyl)hydrazinyl radical unknown solvate'
_symmetry_cell_setting           monoclinic
_symmetry_space_group_name_H-M   'C 2/c'
_symmetry_Int_Tables_number      15
_space_group_name_Hall           '-C 2yn'
loop_
_symmetry_equiv_pos_site_id
_symmetry_equiv_pos_as_xyz
1 x,y,z
2 -x,y,1/2-z
3 1/2+x,1/2+y,z
4 1/2-x,1/2+y,1/2-z
5 -x,-y,-z
6 x,-y,1/2+z
7 1/2-x,1/2-y,-z
8 1/2+x,1/2-y,1/2+z
_cell_length_a                   20.761(4)
_cell_length_b                   14.769(3)
_cell_length_c                   21.005(4)
_cell_angle_alpha                90
_cell_angle_beta                 93.28(3)
_cell_angle_gamma                90
_cell_volume                     6429.99
_exptl_crystal_colour            black
_exptl_crystal_description       prism
_cell_formula_units_Z            8
loop_
_atom_site_label
_atom_site_type_symbol
_atom_site_fract_x
_atom_site_fract_y
_atom_site_fract_z
N1 N 0.20567(8) 0.40522(11) 0.31503(7)
N2 N 0.24406(8) 0.33880(12) 0.34058(7)
N3 N 0.28199(8) 0.19126(12) 0.32597(7)
N4 N 0.22747(9) 0.24635(12) 0.24260(7)
C1 C 0.24878(9) 0.26659(13) 0.30424(9)
C2 C 0.28130(12) 0.12527(16) 0.27908(10)
H1 H 0.3008 0.0672 0.2824
C3 C 0.24774(14) 0.15925(16) 0.22821(11)
H2 H 0.2392 0.1289 0.1888
C4 C 0.31587(10) 0.18777(13) 0.38792(9)
C5 C 0.28261(10) 0.15680(14) 0.43969(9)
C6 C 0.31572(11) 0.15709(14) 0.49974(9)
H3 H 0.2943 0.1363 0.5357
C7 C 0.37907(11) 0.18703(16) 0.50809(10)
C8 C 0.41057(11) 0.21803(17) 0.45531(11)
H4 H 0.4538 0.2388 0.4610
C9 C 0.37969(10) 0.21923(15) 0.39405(10)
C10 C 0.21307(10) 0.12641(16) 0.43152(10)
H5 H 0.1860 0.1774 0.4167
H6 H 0.1987 0.1048 0.4725
H7 H 0.2094 0.0773 0.4001
C11 C 0.41371(12) 0.18416(19) 0.57365(11)
H8 H 0.3823 0.1918 0.6063
H9 H 0.4456 0.2331 0.5773
H10 H 0.4356 0.1257 0.5796
C12 C 0.41302(12) 0.25391(19) 0.33690(12)
H11 H 0.4157 0.2052 0.3055
H12 H 0.4566 0.2744 0.3503
H13 H 0.3884 0.3047 0.3178
C13 C 0.19016(10) 0.30274(14) 0.19734(9)
C14 C 0.22294(10) 0.36252(14) 0.15952(9)
C15 C 0.18617(10) 0.41281(15) 0.11408(10)
H14 H 0.2075 0.4537 0.0875
C16 C 0.11943(10) 0.40482(15) 0.10662(9)
C17 C 0.08951(11) 0.34358(18) 0.14538(11)
H15 H 0.0439 0.3372 0.1409
C18 C 0.12407(12) 0.29093(18) 0.19083(10)
C19 C 0.29536(10) 0.3736(2) 0.16900(12)
H16 H 0.3058 0.4039 0.2098
H17 H 0.3111 0.4102 0.1342
H18 H 0.3160 0.3139 0.1691
C20 C 0.08055(11) 0.46193(18) 0.05765(11)
H19 H 0.0381 0.4341 0.0486
H20 H 0.1035 0.4653 0.0182
H21 H 0.0750 0.5231 0.0746
C21 C 0.09036(16) 0.2244(3) 0.23303(16)
H22 H 0.1110 0.1649 0.2307
H23 H 0.0448 0.2194 0.2184
H24 H 0.0935 0.2460 0.2772
C22 C 0.20438(9) 0.48124(13) 0.35470(9)
C23 C 0.14531(10) 0.53139(15) 0.35046(10)
C24 C 0.13857(12) 0.60571(16) 0.39118(12)
C25 C 0.18996(12) 0.62967(16) 0.43341(11)
H25 H 0.1843 0.6784 0.4621
C26 C 0.24936(11) 0.58527(15) 0.43551(10)
C27 C 0.25833(10) 0.51172(14) 0.39466(9)
C28 C 0.09085(11) 0.50394(17) 0.30384(12)
H26 H 0.0553 0.4792 0.3272
H27 H 0.1062 0.4578 0.2748
H28 H 0.0757 0.5570 0.2793
C29 C 0.07733(13) 0.66051(19) 0.38879(16)
H29 H 0.0810 0.7085 0.4210
H30 H 0.0409 0.6210 0.3974
H31 H 0.0702 0.6876 0.3464
C30 C 0.30475(14) 0.62144(19) 0.47944(12)
H32 H 0.3271 0.5707 0.5012
H33 H 0.2875 0.6621 0.5112
H34 H 0.3352 0.6547 0.4541
C31 C 0.32580(10) 0.47368(16) 0.38941(10)
H35 H 0.3577 0.5207 0.4009
H36 H 0.3311 0.4538 0.3455
H37 H 0.3321 0.4221 0.4184
loop_
_geom_bond_atom_site_label_1
_geom_bond_atom_site_label_2
_geom_bond_site_symmetry_1
_geom_bond_site_symmetry_2
N1 N2 1_555 1_555
N2 C1 1_555 1_555
N3 C1 1_555 1_555
N4 C1 1_555 1_555
C2 N3 1_555 1_555
H1 C2 1_555 1_555
C3 N4 1_555 1_555
H2 C3 1_555 1_555
C4 N3 1_555 1_555
C5 C4 1_555 1_555
C6 C5 1_555 1_555
H3 C6 1_555 1_555
C7 C6 1_555 1_555
C8 C7 1_555 1_555
H4 C8 1_555 1_555
C9 C4 1_555 1_555
C10 C5 1_555 1_555
H5 C10 1_555 1_555
H6 C10 1_555 1_555
H7 C10 1_555 1_555
C11 C7 1_555 1_555
H8 C11 1_555 1_555
H9 C11 1_555 1_555
H10 C11 1_555 1_555
C12 C9 1_555 1_555
H11 C12 1_555 1_555
H12 C12 1_555 1_555
H13 C12 1_555 1_555
C13 N4 1_555 1_555
C14 C13 1_555 1_555
C15 C14 1_555 1_555
H14 C15 1_555 1_555
C16 C15 1_555 1_555
C17 C16 1_555 1_555
H15 C17 1_555 1_555
C18 C13 1_555 1_555
C19 C14 1_555 1_555
H16 C19 1_555 1_555
H17 C19 1_555 1_555
H18 C19 1_555 1_555
C20 C16 1_555 1_555
H19 C20 1_555 1_555
H20 C20 1_555 1_555
H21 C20 1_555 1_555
C21 C18 1_555 1_555
H22 C21 1_555 1_555
H23 C21 1_555 1_555
H24 C21 1_555 1_555
C22 N1 1_555 1_555
C23 C22 1_555 1_555
C24 C23 1_555 1_555
C25 C24 1_555 1_555
H25 C25 1_555 1_555
C26 C25 1_555 1_555
C27 C22 1_555 1_555
C28 C23 1_555 1_555
H26 C28 1_555 1_555
H27 C28 1_555 1_555
H28 C28 1_555 1_555
C29 C24 1_555 1_555
H29 C29 1_555 1_555
H30 C29 1_555 1_555
H31 C29 1_555 1_555
C30 C26 1_555 1_555
H32 C30 1_555 1_555
H33 C30 1_555 1_555
H34 C30 1_555 1_555
C31 C27 1_555 1_555
H35 C31 1_555 1_555
H36 C31 1_555 1_555
H37 C31 1_555 1_555
C2 C3 1_555 1_555
C8 C9 1_555 1_555
C17 C18 1_555 1_555
C26 C27 1_555 1_555

#END
