
#######################################################################
#
#                 Cambridge Crystallographic Data Centre
#                                CCDC 
#
#######################################################################
#
# If this CIF has been generated from an entry in the Cambridge 
# Structural Database, then it will include bibliographic, chemical, 
# crystal, experimental, refinement or atomic coordinate data resulting 
# from the CCDC's data processing and validation procedures.
#
#######################################################################

data_DAHTIS
_chemical_formula_moiety         'C62 H72 N8,C4 H10 O1'
_chemical_name_systematic        
"1,1'-(2,2',3,3',5,5',6,6'-octamethylbiphenyl-4,4'-diyl)bis(2-(1,3-dimesityl-1,3-dihydro-2H-imidazol-2-ylidene)hydrazinyl) diradical diethyl ether solvate"
_symmetry_cell_setting           monoclinic
_symmetry_space_group_name_H-M   'P 21/n'
_symmetry_Int_Tables_number      14
_space_group_name_Hall           '-P 2yn'
loop_
_symmetry_equiv_pos_site_id
_symmetry_equiv_pos_as_xyz
1 x,y,z
2 1/2-x,1/2+y,1/2-z
3 -x,-y,-z
4 1/2+x,1/2-y,1/2+z
_cell_length_a                   19.791(2)
_cell_length_b                   15.4136(13)
_cell_length_c                   19.8040(19)
_cell_angle_alpha                90
_cell_angle_beta                 99.842(10)
_cell_angle_gamma                90
_cell_volume                     5952.31
_exptl_crystal_colour            black
_exptl_crystal_description       prism
_cell_formula_units_Z            4
loop_
_atom_site_label
_atom_site_type_symbol
_atom_site_fract_x
_atom_site_fract_y
_atom_site_fract_z
N1 N 0.19385(14) 0.8674(2) 0.02696(14)
N2 N 0.18809(15) 0.8501(2) 0.13544(15)
N3 N 0.29921(15) 0.8430(3) 0.09677(15)
N4 N 0.33179(15) 0.8262(2) 0.16172(16)
N5 N 0.83740(14) 0.8418(2) 0.22477(14)
N6 N 0.86914(14) 0.8513(2) 0.29030(13)
N7 N 0.97501(14) 0.8478(2) 0.36284(14)
N8 N 0.98145(13) 0.8298(2) 0.25444(14)
C1 C 0.23308(16) 0.8505(2) 0.08989(16)
C2 C 0.12601(19) 0.8758(3) 0.0337(2)
H1 H 0.0887 0.8876 -0.0021
C3 C 0.12226(19) 0.8644(4) 0.0995(2)
H2 H 0.0815 0.8657 0.1188
C4 C 0.22079(17) 0.8697(2) -0.03562(17)
C5 C 0.24124(17) 0.9481(2) -0.06041(17)
C6 C 0.26902(19) 0.9466(3) -0.11984(18)
H3 H 0.2826 0.9996 -0.1380
C7 C 0.2776(2) 0.8699(3) -0.15358(17)
C8 C 0.2574(2) 0.7922(3) -0.12687(19)
H4 H 0.2637 0.7391 -0.1494
C9 C 0.22834(19) 0.7913(3) -0.06811(18)
C10 C 0.2349(2) 1.0323(3) -0.0232(2)
H5 H 0.1886 1.0558 -0.0371
H6 H 0.2686 1.0739 -0.0345
H7 H 0.2432 1.0218 0.0264
C11 C 0.3105(3) 0.8686(3) -0.2172(2)
H8 H 0.3364 0.9223 -0.2197
H9 H 0.2747 0.8638 -0.2579
H10 H 0.3415 0.8188 -0.2153
C12 C 0.2078(3) 0.7064(3) -0.0389(2)
H11 H 0.2372 0.6954 0.0053
H12 H 0.2129 0.6591 -0.0707
H13 H 0.1599 0.7098 -0.0324
C13 C 0.20094(16) 0.8210(2) 0.20509(17)
C14 C 0.21859(19) 0.8804(3) 0.2574(2)
C15 C 0.2289(2) 0.8489(3) 0.3246(2)
H14 H 0.2416 0.8883 0.3615
C16 C 0.2212(2) 0.7621(3) 0.3391(2)
C17 C 0.2030(2) 0.7057(3) 0.2856(2)
H15 H 0.1974 0.6460 0.2952
C18 C 0.19257(18) 0.7330(3) 0.21778(18)
C19 C 0.2274(3) 0.9737(3) 0.2417(3)
H16 H 0.2670 0.9805 0.2184
H17 H 0.2350 1.0071 0.2844
H18 H 0.1861 0.9950 0.2119
C20 C 0.2314(3) 0.7312(5) 0.4120(2)
H19 H 0.1909 0.6984 0.4196
H20 H 0.2379 0.7813 0.4429
H21 H 0.2720 0.6938 0.4210
C21 C 0.1732(3) 0.6699(3) 0.1599(2)
H22 H 0.1688 0.6117 0.1786
H23 H 0.2088 0.6695 0.1311
H24 H 0.1294 0.6873 0.1324
C22 C 0.40350(16) 0.8336(2) 0.16848(16)
C23 C 0.44307(18) 0.7729(2) 0.21099(17)
C24 C 0.51434(17) 0.7753(2) 0.21822(17)
C25 C 0.54611(15) 0.8384(2) 0.18350(16)
C26 C 0.50656(17) 0.9011(2) 0.14306(17)
C27 C 0.43569(17) 0.9008(2) 0.13646(18)
C28 C 0.4082(2) 0.7060(3) 0.2494(2)
H25 H 0.4193 0.6477 0.2348
H26 H 0.3585 0.7147 0.2394
H27 H 0.4244 0.7123 0.2987
C29 C 0.5578(2) 0.7103(3) 0.2640(2)
H28 H 0.5508 0.7182 0.3115
H29 H 0.6062 0.7193 0.2613
H30 H 0.5443 0.6513 0.2489
C30 C 0.5420(2) 0.9701(3) 0.1073(2)
H31 H 0.5148 0.9821 0.0622
H32 H 0.5876 0.9495 0.1019
H33 H 0.5466 1.0233 0.1349
C31 C 0.3950(2) 0.9764(3) 0.1002(2)
H34 H 0.4229 1.0292 0.1067
H35 H 0.3531 0.9849 0.1194
H36 H 0.3830 0.9636 0.0511
C32 C 0.62317(16) 0.8433(2) 0.19301(16)
C33 C 0.65837(16) 0.8897(2) 0.24947(16)
C34 C 0.72981(16) 0.8954(2) 0.26074(15)
C35 C 0.76626(16) 0.8484(2) 0.21678(15)
C36 C 0.73022(16) 0.8044(2) 0.15873(15)
C37 C 0.65906(17) 0.8029(2) 0.14705(16)
C38 C 0.61719(18) 0.9322(3) 0.29862(18)
H37 H 0.6388 0.9197 0.3459
H38 H 0.5703 0.9093 0.2904
H39 H 0.6159 0.9951 0.2912
C39 C 0.76604(18) 0.9547(3) 0.31631(18)
H40 H 0.7341 0.9993 0.3267
H41 H 0.8051 0.9825 0.3005
H42 H 0.7824 0.9207 0.3577
C40 C 0.77068(18) 0.7564(3) 0.11196(16)
H43 H 0.7684 0.6939 0.1202
H44 H 0.8186 0.7754 0.1214
H45 H 0.7512 0.7690 0.0641
C41 C 0.62049(18) 0.7569(3) 0.08455(18)
H46 H 0.6252 0.7898 0.0433
H47 H 0.5719 0.7526 0.0883
H48 H 0.6395 0.6986 0.0816
C42 C 0.93624(16) 0.8438(2) 0.29849(16)
C43 C 1.04276(18) 0.8374(3) 0.35828(19)
H49 H 1.0800 0.8381 0.3956
C44 C 1.04747(18) 0.8260(3) 0.2924(2)
H50 H 1.0885 0.8169 0.2746
C45 C 0.94552(16) 0.8689(2) 0.42283(17)
C46 C 0.92922(19) 0.8019(3) 0.46435(18)
C47 C 0.8979(2) 0.8241(3) 0.51915(19)
H51 H 0.8867 0.7797 0.5486
C48 C 0.8823(2) 0.9100(3) 0.53230(19)
C49 C 0.89942(19) 0.9749(3) 0.48940(19)
H52 H 0.8889 1.0336 0.4979
C50 C 0.93158(18) 0.9553(2) 0.43448(18)
C51 C 0.9437(2) 0.7082(3) 0.4505(2)
H53 H 0.9180 0.6914 0.4056
H54 H 0.9298 0.6717 0.4861
H55 H 0.9929 0.7007 0.4506
C52 C 0.8465(3) 0.9336(4) 0.5918(2)
H56 H 0.8755 0.9735 0.6226
H57 H 0.8384 0.8809 0.6169
H58 H 0.8026 0.9616 0.5742
C53 C 0.9490(2) 1.0264(3) 0.3879(2)
H59 H 0.9116 1.0324 0.3487
H60 H 0.9915 1.0116 0.3714
H61 H 0.9550 1.0812 0.4132
C54 C 0.96806(16) 0.8235(2) 0.18065(17)
C55 C 0.95540(17) 0.8987(3) 0.14158(18)
C56 C 0.94645(19) 0.8910(3) 0.0705(2)
H62 H 0.9382 0.9416 0.0430
C57 C 0.9494(2) 0.8107(3) 0.0389(2)
C58 C 0.9621(2) 0.7378(3) 0.0800(2)
H63 H 0.9648 0.6828 0.0589
C59 C 0.97115(19) 0.7423(3) 0.1510(2)
C60 C 0.9501(2) 0.9858(3) 0.1747(2)
H64 H 0.9442 1.0311 0.1395
H65 H 0.9921 0.9969 0.2077
H66 H 0.9107 0.9860 0.1986
C61 C 0.9399(3) 0.8053(5) -0.0387(2)
H67 H 0.9346 0.8639 -0.0581
H68 H 0.8989 0.7710 -0.0559
H69 H 0.9801 0.7775 -0.0521
C62 C 0.9824(3) 0.6614(3) 0.1943(3)
H70 H 1.0276 0.6642 0.2236
H71 H 0.9803 0.6104 0.1645
H72 H 0.9468 0.6572 0.2229
O1 O 0.1052(4) 0.4336(4) 0.0512(3)
C63 C 0.0733(5) 0.4284(6) 0.1605(4)
H73 H 0.0711 0.3649 0.1595
H74 H 0.0386 0.4511 0.1858
H75 H 0.1189 0.4469 0.1832
C64 C 0.0608(6) 0.4602(6) 0.0939(4)
H76 H 0.0137 0.4431 0.0726
H77 H 0.0620 0.5244 0.0961
C65 C 0.1363(4) 0.4867(5) 0.0153(4)
H78 H 0.1635 0.5284 0.0470
H79 H 0.1011 0.5203 -0.0155
C66 C 0.1813(4) 0.4460(5) -0.0255(3)
H80 H 0.2194 0.4179 0.0047
H81 H 0.1994 0.4901 -0.0533
H82 H 0.1556 0.4025 -0.0557
loop_
_geom_bond_atom_site_label_1
_geom_bond_atom_site_label_2
_geom_bond_site_symmetry_1
_geom_bond_site_symmetry_2
N1 C1 1_555 1_555
N2 C1 1_555 1_555
N3 N4 1_555 1_555
N4 C22 1_555 1_555
N5 N6 1_555 1_555
N6 C42 1_555 1_555
N7 C42 1_555 1_555
N8 C42 1_555 1_555
C1 N3 1_555 1_555
C2 N1 1_555 1_555
H1 C2 1_555 1_555
C3 N2 1_555 1_555
H2 C3 1_555 1_555
C4 N1 1_555 1_555
C5 C4 1_555 1_555
C6 C5 1_555 1_555
H3 C6 1_555 1_555
C7 C6 1_555 1_555
C8 C7 1_555 1_555
H4 C8 1_555 1_555
C9 C4 1_555 1_555
C10 C5 1_555 1_555
H5 C10 1_555 1_555
H6 C10 1_555 1_555
H7 C10 1_555 1_555
C11 C7 1_555 1_555
H8 C11 1_555 1_555
H9 C11 1_555 1_555
H10 C11 1_555 1_555
C12 C9 1_555 1_555
H11 C12 1_555 1_555
H12 C12 1_555 1_555
H13 C12 1_555 1_555
C13 N2 1_555 1_555
C14 C13 1_555 1_555
C15 C14 1_555 1_555
H14 C15 1_555 1_555
C16 C15 1_555 1_555
C17 C16 1_555 1_555
H15 C17 1_555 1_555
C18 C13 1_555 1_555
C19 C14 1_555 1_555
H16 C19 1_555 1_555
H17 C19 1_555 1_555
H18 C19 1_555 1_555
C20 C16 1_555 1_555
H19 C20 1_555 1_555
H20 C20 1_555 1_555
H21 C20 1_555 1_555
C21 C18 1_555 1_555
H22 C21 1_555 1_555
H23 C21 1_555 1_555
H24 C21 1_555 1_555
C22 C23 1_555 1_555
C23 C24 1_555 1_555
C24 C25 1_555 1_555
C25 C26 1_555 1_555
C26 C27 1_555 1_555
C27 C22 1_555 1_555
C28 C23 1_555 1_555
H25 C28 1_555 1_555
H26 C28 1_555 1_555
H27 C28 1_555 1_555
C29 C24 1_555 1_555
H28 C29 1_555 1_555
H29 C29 1_555 1_555
H30 C29 1_555 1_555
C30 C26 1_555 1_555
H31 C30 1_555 1_555
H32 C30 1_555 1_555
H33 C30 1_555 1_555
C31 C27 1_555 1_555
H34 C31 1_555 1_555
H35 C31 1_555 1_555
H36 C31 1_555 1_555
C32 C25 1_555 1_555
C33 C32 1_555 1_555
C34 C33 1_555 1_555
C35 N5 1_555 1_555
C36 C35 1_555 1_555
C37 C32 1_555 1_555
C38 C33 1_555 1_555
H37 C38 1_555 1_555
H38 C38 1_555 1_555
H39 C38 1_555 1_555
C39 C34 1_555 1_555
H40 C39 1_555 1_555
H41 C39 1_555 1_555
H42 C39 1_555 1_555
C40 C36 1_555 1_555
H43 C40 1_555 1_555
H44 C40 1_555 1_555
H45 C40 1_555 1_555
C41 C37 1_555 1_555
H46 C41 1_555 1_555
H47 C41 1_555 1_555
H48 C41 1_555 1_555
C43 N7 1_555 1_555
H49 C43 1_555 1_555
C44 N8 1_555 1_555
H50 C44 1_555 1_555
C45 N7 1_555 1_555
C46 C45 1_555 1_555
C47 C46 1_555 1_555
H51 C47 1_555 1_555
C48 C47 1_555 1_555
C49 C48 1_555 1_555
H52 C49 1_555 1_555
C50 C45 1_555 1_555
C51 C46 1_555 1_555
H53 C51 1_555 1_555
H54 C51 1_555 1_555
H55 C51 1_555 1_555
C52 C48 1_555 1_555
H56 C52 1_555 1_555
H57 C52 1_555 1_555
H58 C52 1_555 1_555
C53 C50 1_555 1_555
H59 C53 1_555 1_555
H60 C53 1_555 1_555
H61 C53 1_555 1_555
C54 N8 1_555 1_555
C55 C54 1_555 1_555
C56 C55 1_555 1_555
H62 C56 1_555 1_555
C57 C56 1_555 1_555
C58 C57 1_555 1_555
H63 C58 1_555 1_555
C59 C54 1_555 1_555
C60 C55 1_555 1_555
H64 C60 1_555 1_555
H65 C60 1_555 1_555
H66 C60 1_555 1_555
C61 C57 1_555 1_555
H67 C61 1_555 1_555
H68 C61 1_555 1_555
H69 C61 1_555 1_555
C62 C59 1_555 1_555
H70 C62 1_555 1_555
H71 C62 1_555 1_555
H72 C62 1_555 1_555
O1 C64 1_555 1_555
C63 H73 1_555 1_555
H74 C63 1_555 1_555
H75 C63 1_555 1_555
C64 C63 1_555 1_555
H76 C64 1_555 1_555
H77 C64 1_555 1_555
C65 O1 1_555 1_555
H78 C65 1_555 1_555
H79 C65 1_555 1_555
C66 C65 1_555 1_555
H80 C66 1_555 1_555
H81 C66 1_555 1_555
H82 C66 1_555 1_555
C2 C3 1_555 1_555
C8 C9 1_555 1_555
C17 C18 1_555 1_555
C34 C35 1_555 1_555
C36 C37 1_555 1_555
C43 C44 1_555 1_555
C49 C50 1_555 1_555
C58 C59 1_555 1_555

#END
