
#######################################################################
#
#                 Cambridge Crystallographic Data Centre
#                                CCDC 
#
#######################################################################
#
# If this CIF has been generated from an entry in the Cambridge 
# Structural Database, then it will include bibliographic, chemical, 
# crystal, experimental, refinement or atomic coordinate data resulting 
# from the CCDC's data processing and validation procedures.
#
#######################################################################

data_DAHTEO
_chemical_formula_moiety         'C62 H72 N8 2+,2(C24 H20 B1 1-)'
_chemical_name_systematic        
"2-((4'-((1,3-dimesityl-1H-imidazol-3-ium-2-yl)diazenyl)-2,2',3,3',5,5',6,6'-octamethylbiphenyl-4-yl)diazenyl)-1,3-dimesityl-1H-imidazol-3-ium bis(tetraphenylborate) unknown solvate"
_symmetry_cell_setting           monoclinic
_symmetry_space_group_name_H-M   'I 2/a'
_symmetry_Int_Tables_number      15
_space_group_name_Hall           '-I 2ya'
loop_
_symmetry_equiv_pos_site_id
_symmetry_equiv_pos_as_xyz
1 x,y,z
2 1/2-x,y,-z
3 1/2+x,1/2+y,1/2+z
4 -x,1/2+y,1/2-z
5 -x,-y,-z
6 1/2+x,-y,z
7 1/2-x,1/2-y,1/2-z
8 x,1/2-y,1/2+z
_cell_length_a                   24.9350(19)
_cell_length_b                   11.6577(5)
_cell_length_c                   34.387(3)
_cell_angle_alpha                90
_cell_angle_beta                 98.459(8)
_cell_angle_gamma                90
_cell_volume                     9887.04
_exptl_crystal_colour            'intense orange'
_exptl_crystal_description       plate
_cell_formula_units_Z            4
_exptl_crystal_recrystallization_method deuterochloroform
loop_
_atom_site_label
_atom_site_type_symbol
_atom_site_fract_x
_atom_site_fract_y
_atom_site_fract_z
N1 N 0.41568(18) 0.4933(3) 0.32736(15)
N2 N 0.4808(2) 0.4509(3) 0.37389(14)
N3 N 0.3772(4) 0.4609(8) 0.3815(3)
N4 N 0.3878(4) 0.4128(13) 0.4147(3)
C1 C 0.4274(2) 0.4635(3) 0.36518(17)
C2 C 0.4632(2) 0.4976(5) 0.3116(2)
H1 H 0.4667 0.5145 0.2850
C3 C 0.5035(3) 0.4737(6) 0.34044(17)
H2 H 0.5411 0.4726 0.3384
C4 C 0.3614(2) 0.5071(4) 0.30492(17)
C5 C 0.3372(2) 0.4118(4) 0.2851(2)
C6 C 0.2860(2) 0.4256(4) 0.2657(2)
H3 H 0.2683 0.3623 0.2519
C7 C 0.2584(2) 0.5314(4) 0.26539(18)
C8 C 0.2853(2) 0.6216(4) 0.28548(16)
H4 H 0.2670 0.6930 0.2859
C9 C 0.3369(2) 0.6135(4) 0.30486(15)
C10 C 0.3664(3) 0.2976(4) 0.2864(3)
H5 H 0.3675 0.2634 0.3125
H6 H 0.4035 0.3095 0.2809
H7 H 0.3471 0.2461 0.2666
C11 C 0.2023(3) 0.5421(5) 0.2436(2)
H8 H 0.1876 0.6177 0.2487
H9 H 0.1793 0.4823 0.2524
H10 H 0.2031 0.5334 0.2153
C12 C 0.3660(3) 0.7160(4) 0.32549(19)
H11 H 0.3955 0.7400 0.3113
H12 H 0.3811 0.6947 0.3525
H13 H 0.3403 0.7793 0.3260
C13 C 0.5107(2) 0.4104(4) 0.41083(16)
C14 C 0.5185(3) 0.2926(5) 0.41493(19)
C15 C 0.5496(3) 0.2547(5) 0.4490(2)
H14 H 0.5551 0.1745 0.4526
C16 C 0.5733(3) 0.3285(5) 0.4784(2)
C17 C 0.5620(3) 0.4417(5) 0.47384(18)
H15 H 0.5760 0.4928 0.4943
C18 C 0.5304(3) 0.4869(4) 0.44002(19)
C19 C 0.4917(4) 0.2111(5) 0.3837(2)
H16 H 0.4530 0.2287 0.3777
H17 H 0.4965 0.1320 0.3932
H18 H 0.5085 0.2197 0.3598
C20 C 0.6079(3) 0.2843(7) 0.5146(2)
H19 H 0.6260 0.3487 0.5294
H20 H 0.6353 0.2317 0.5070
H21 H 0.5852 0.2434 0.5310
C21 C 0.5173(4) 0.6141(4) 0.4363(2)
H22 H 0.5377 0.6488 0.4171
H23 H 0.5274 0.6513 0.4619
H24 H 0.4784 0.6242 0.4276
C22 C 0.3354(2) 0.4357(4) 0.43076(17)
C23 C 0.3464(2) 0.3496(5) 0.4589(3)
C24 C 0.31190(19) 0.3415(4) 0.48910(16)
C25 C 0.26861(17) 0.4182(4) 0.48503(12)
C26 C 0.2590(2) 0.5022(5) 0.45501(14)
C27 C 0.2932(3) 0.5092(5) 0.42776(17)
C28 C 0.3911(4) 0.2636(6) 0.4619(4)
H25 H 0.4043 0.2575 0.4365
H26 H 0.3775 0.1888 0.4690
H27 H 0.4208 0.2879 0.4820
C29 C 0.3195(2) 0.2583(5) 0.5220(2)
H28 H 0.2905 0.2682 0.5382
H29 H 0.3547 0.2715 0.5382
H30 H 0.3182 0.1800 0.5115
C30 C 0.2107(3) 0.5811(5) 0.45236(19)
H31 H 0.2229 0.6584 0.4606
H32 H 0.1856 0.5527 0.4696
H33 H 0.1923 0.5834 0.4252
C31 C 0.2854(4) 0.6065(6) 0.3977(2)
H34 H 0.2768 0.6775 0.4108
H35 H 0.2557 0.5873 0.3769
H36 H 0.3189 0.6172 0.3864
N1A N 0.08432(18) 0.4933(3) 0.67264(15)
N2A N 0.0192(2) 0.4509(3) 0.62611(14)
N3A N 0.1228(4) 0.4609(8) 0.6185(3)
N4A N 0.1122(4) 0.4128(13) 0.5853(3)
C1A C 0.0726(2) 0.4635(3) 0.63482(17)
C2A C 0.0368(2) 0.4976(5) 0.6884(2)
H1A H 0.0333 0.5145 0.7150
C3A C -0.0035(3) 0.4737(6) 0.65956(17)
H2A H -0.0411 0.4726 0.6616
C4A C 0.1386(2) 0.5071(4) 0.69508(17)
C5A C 0.1628(2) 0.4118(4) 0.7149(2)
C6A C 0.2140(2) 0.4256(4) 0.7343(2)
H3A H 0.2317 0.3623 0.7481
C7A C 0.2416(2) 0.5314(4) 0.73461(18)
C8A C 0.2147(2) 0.6216(4) 0.71452(16)
H4A H 0.2330 0.6930 0.7141
C9A C 0.1631(2) 0.6135(4) 0.69514(15)
C10A C 0.1336(3) 0.2976(4) 0.7136(3)
H5A H 0.1325 0.2634 0.6875
H6A H 0.0965 0.3095 0.7191
H7A H 0.1529 0.2461 0.7334
C11A C 0.2977(3) 0.5421(5) 0.7564(2)
H8A H 0.3124 0.6177 0.7513
H9A H 0.3207 0.4823 0.7476
H10A H 0.2969 0.5334 0.7847
C12A C 0.1340(3) 0.7160(4) 0.67451(19)
H11A H 0.1045 0.7400 0.6887
H12A H 0.1189 0.6947 0.6475
H13A H 0.1597 0.7793 0.6740
C13A C -0.0107(2) 0.4104(4) 0.58917(16)
C14A C -0.0185(3) 0.2926(5) 0.58507(19)
C15A C -0.0496(3) 0.2547(5) 0.5510(2)
H14A H -0.0551 0.1745 0.5474
C16A C -0.0733(3) 0.3285(5) 0.5216(2)
C17A C -0.0620(3) 0.4417(5) 0.52616(18)
H15A H -0.0760 0.4928 0.5057
C18A C -0.0304(3) 0.4869(4) 0.55998(19)
C19A C 0.0083(4) 0.2111(5) 0.6163(2)
H16A H 0.0470 0.2287 0.6223
H17A H 0.0035 0.1320 0.6068
H18A H -0.0085 0.2197 0.6402
C20A C -0.1079(3) 0.2843(7) 0.4854(2)
H19A H -0.1260 0.3487 0.4706
H20A H -0.1353 0.2317 0.4930
H21A H -0.0852 0.2434 0.4690
C21A C -0.0173(4) 0.6141(4) 0.5637(2)
H22A H -0.0377 0.6488 0.5829
H23A H -0.0274 0.6513 0.5381
H24A H 0.0216 0.6242 0.5724
C22A C 0.1646(2) 0.4357(4) 0.56924(17)
C23A C 0.1536(2) 0.3496(5) 0.5411(3)
C24A C 0.18810(19) 0.3415(4) 0.51090(16)
C25A C 0.23139(17) 0.4182(4) 0.51497(12)
C26A C 0.2410(2) 0.5022(5) 0.54499(14)
C27A C 0.2068(3) 0.5092(5) 0.57224(17)
C28A C 0.1089(4) 0.2636(6) 0.5381(4)
H25A H 0.0957 0.2575 0.5635
H26A H 0.1225 0.1888 0.5310
H27A H 0.0792 0.2879 0.5180
C29A C 0.1805(2) 0.2583(5) 0.4780(2)
H28A H 0.2095 0.2682 0.4618
H29A H 0.1453 0.2715 0.4618
H30A H 0.1818 0.1800 0.4885
C30A C 0.2893(3) 0.5811(5) 0.54764(19)
H31A H 0.2771 0.6584 0.5394
H32A H 0.3144 0.5527 0.5304
H33A H 0.3077 0.5834 0.5748
C31A C 0.2146(4) 0.6065(6) 0.6023(2)
H34A H 0.2232 0.6775 0.5892
H35A H 0.2443 0.5873 0.6231
H36A H 0.1811 0.6172 0.6136
B1 B 0.42681(19) 0.4151(3) 0.15896(15)
C32 C 0.45771(18) 0.4100(3) 0.12002(13)
C33 C 0.5132(2) 0.4028(4) 0.12159(16)
H37 H 0.5354 0.3966 0.1464
C34 C 0.5377(3) 0.4043(6) 0.0871(2)
H38 H 0.5759 0.3962 0.0888
C35 C 0.5061(3) 0.4177(5) 0.0511(2)
H39 H 0.5229 0.4246 0.0281
C36 C 0.4518(3) 0.4211(4) 0.04811(18)
H40 H 0.4300 0.4271 0.0231
C37 C 0.4278(2) 0.4157(3) 0.08209(15)
H41 H 0.3893 0.4158 0.0795
C38 C 0.3841(2) 0.3072(3) 0.15785(14)
C39 C 0.3934(3) 0.2037(4) 0.1417(2)
H42 H 0.4253 0.1947 0.1299
C40 C 0.3580(3) 0.1091(4) 0.1416(2)
H43 H 0.3671 0.0378 0.1309
C41 C 0.3125(3) 0.1193(6) 0.1563(2)
H44 H 0.2885 0.0559 0.1561
C42 C 0.3001(5) 0.2214(8) 0.1716(4)
H45 H 0.2672 0.2301 0.1821
C43 C 0.3357(4) 0.3135(7) 0.1721(3)
H46 H 0.3260 0.3844 0.1827
C44 C 0.39257(17) 0.5377(3) 0.16037(13)
C45 C 0.37446(19) 0.5743(3) 0.19402(14)
H47 H 0.3825 0.5283 0.2169
C46 C 0.34503(19) 0.6747(4) 0.19664(16)
H48 H 0.3317 0.6929 0.2204
C47 C 0.3354(3) 0.7459(5) 0.16590(17)
H49 H 0.3141 0.8129 0.1671
C48 C 0.3570(4) 0.7201(6) 0.1328(2)
H50 H 0.3543 0.7736 0.1118
C49 C 0.3832(3) 0.6155(5) 0.12976(18)
H51 H 0.3951 0.5968 0.1055
C50 C 0.47277(16) 0.4086(3) 0.19813(12)
C51 C 0.50568(16) 0.5046(3) 0.20942(13)
H52 H 0.4979 0.5747 0.1956
C52 C 0.54888(17) 0.5015(3) 0.23977(14)
H53 H 0.5699 0.5685 0.2463
C53 C 0.56149(18) 0.4011(4) 0.26061(14)
H54 H 0.5915 0.3978 0.2811
C54 C 0.52943(18) 0.3060(3) 0.25101(14)
H55 H 0.5369 0.2370 0.2655
C55 C 0.48640(17) 0.3095(3) 0.22052(13)
H56 H 0.4653 0.2422 0.2146
N5? N 0.4038(4) 0.4367(5) 0.4016(3)
N6? N 0.3564(4) 0.4724(11) 0.3938(3)
loop_
_geom_bond_atom_site_label_1
_geom_bond_atom_site_label_2
_geom_bond_site_symmetry_1
_geom_bond_site_symmetry_2
N1 C1 1_555 1_555
N2 C1 1_555 1_555
N3 N4 1_555 1_555
N4 C22 1_555 1_555
C1 N3 1_555 1_555
C2 N1 1_555 1_555
H1 C2 1_555 1_555
C3 N2 1_555 1_555
H2 C3 1_555 1_555
C4 N1 1_555 1_555
C5 C4 1_555 1_555
C6 C5 1_555 1_555
H3 C6 1_555 1_555
C7 C6 1_555 1_555
C8 C7 1_555 1_555
H4 C8 1_555 1_555
C9 C4 1_555 1_555
C10 C5 1_555 1_555
H5 C10 1_555 1_555
H6 C10 1_555 1_555
H7 C10 1_555 1_555
C11 C7 1_555 1_555
H8 C11 1_555 1_555
H9 C11 1_555 1_555
H10 C11 1_555 1_555
C12 C9 1_555 1_555
H11 C12 1_555 1_555
H12 C12 1_555 1_555
H13 C12 1_555 1_555
C13 N2 1_555 1_555
C14 C13 1_555 1_555
C15 C14 1_555 1_555
H14 C15 1_555 1_555
C16 C15 1_555 1_555
C17 C16 1_555 1_555
H15 C17 1_555 1_555
C18 C13 1_555 1_555
C19 C14 1_555 1_555
H16 C19 1_555 1_555
H17 C19 1_555 1_555
H18 C19 1_555 1_555
C20 C16 1_555 1_555
H19 C20 1_555 1_555
H20 C20 1_555 1_555
H21 C20 1_555 1_555
C21 C18 1_555 1_555
H22 C21 1_555 1_555
H23 C21 1_555 1_555
H24 C21 1_555 1_555
C22 C23 1_555 1_555
C23 C24 1_555 1_555
C24 C25 1_555 1_555
C25 C26 1_555 1_555
C26 C27 1_555 1_555
C27 C22 1_555 1_555
C28 C23 1_555 1_555
H25 C28 1_555 1_555
H26 C28 1_555 1_555
H27 C28 1_555 1_555
C29 C24 1_555 1_555
H28 C29 1_555 1_555
H29 C29 1_555 1_555
H30 C29 1_555 1_555
C30 C26 1_555 1_555
H31 C30 1_555 1_555
H32 C30 1_555 1_555
H33 C30 1_555 1_555
C31 C27 1_555 1_555
H34 C31 1_555 1_555
H35 C31 1_555 1_555
H36 C31 1_555 1_555
B1 C32 1_555 1_555
C32 C33 1_555 1_555
C33 H37 1_555 1_555
C34 C33 1_555 1_555
H38 C34 1_555 1_555
C35 C34 1_555 1_555
H39 C35 1_555 1_555
C36 C35 1_555 1_555
H40 C36 1_555 1_555
C37 C32 1_555 1_555
H41 C37 1_555 1_555
C38 B1 1_555 1_555
C39 C38 1_555 1_555
H42 C39 1_555 1_555
C40 C39 1_555 1_555
H43 C40 1_555 1_555
C41 C40 1_555 1_555
H44 C41 1_555 1_555
C42 C41 1_555 1_555
H45 C42 1_555 1_555
C43 C38 1_555 1_555
H46 C43 1_555 1_555
C44 B1 1_555 1_555
C45 C44 1_555 1_555
H47 C45 1_555 1_555
C46 C45 1_555 1_555
H48 C46 1_555 1_555
C47 C46 1_555 1_555
H49 C47 1_555 1_555
C48 C47 1_555 1_555
H50 C48 1_555 1_555
C49 C44 1_555 1_555
H51 C49 1_555 1_555
C50 B1 1_555 1_555
C51 C50 1_555 1_555
H52 C51 1_555 1_555
C52 C51 1_555 1_555
H53 C52 1_555 1_555
C53 C52 1_555 1_555
H54 C53 1_555 1_555
C54 C53 1_555 1_555
H55 C54 1_555 1_555
C55 C50 1_555 1_555
H56 C55 1_555 1_555
N1A C1A 1_555 1_555
N2A C1A 1_555 1_555
N3A N4A 1_555 1_555
N4A C22A 1_555 1_555
C1A N3A 1_555 1_555
C2A N1A 1_555 1_555
H1A C2A 1_555 1_555
C3A N2A 1_555 1_555
H2A C3A 1_555 1_555
C4A N1A 1_555 1_555
C5A C4A 1_555 1_555
C6A C5A 1_555 1_555
H3A C6A 1_555 1_555
C7A C6A 1_555 1_555
C8A C7A 1_555 1_555
H4A C8A 1_555 1_555
C9A C4A 1_555 1_555
C10A C5A 1_555 1_555
H5A C10A 1_555 1_555
H6A C10A 1_555 1_555
H7A C10A 1_555 1_555
C11A C7A 1_555 1_555
H8A C11A 1_555 1_555
H9A C11A 1_555 1_555
H10A C11A 1_555 1_555
C12A C9A 1_555 1_555
H11A C12A 1_555 1_555
H12A C12A 1_555 1_555
H13A C12A 1_555 1_555
C13A N2A 1_555 1_555
C14A C13A 1_555 1_555
C15A C14A 1_555 1_555
H14A C15A 1_555 1_555
C16A C15A 1_555 1_555
C17A C16A 1_555 1_555
H15A C17A 1_555 1_555
C18A C13A 1_555 1_555
C19A C14A 1_555 1_555
H16A C19A 1_555 1_555
H17A C19A 1_555 1_555
H18A C19A 1_555 1_555
C20A C16A 1_555 1_555
H19A C20A 1_555 1_555
H20A C20A 1_555 1_555
H21A C20A 1_555 1_555
C21A C18A 1_555 1_555
H22A C21A 1_555 1_555
H23A C21A 1_555 1_555
H24A C21A 1_555 1_555
C22A C23A 1_555 1_555
C23A C24A 1_555 1_555
C24A C25A 1_555 1_555
C25A C25 1_555 1_555
C26A C25A 1_555 1_555
C27A C22A 1_555 1_555
C28A C23A 1_555 1_555
H25A C28A 1_555 1_555
H26A C28A 1_555 1_555
H27A C28A 1_555 1_555
C29A C24A 1_555 1_555
H28A C29A 1_555 1_555
H29A C29A 1_555 1_555
H30A C29A 1_555 1_555
C30A C26A 1_555 1_555
H31A C30A 1_555 1_555
H32A C30A 1_555 1_555
H33A C30A 1_555 1_555
C31A C27A 1_555 1_555
H34A C31A 1_555 1_555
H35A C31A 1_555 1_555
H36A C31A 1_555 1_555
C2 C3 1_555 1_555
C8 C9 1_555 1_555
C17 C18 1_555 1_555
C36 C37 1_555 1_555
C42 C43 1_555 1_555
C48 C49 1_555 1_555
C54 C55 1_555 1_555
C2A C3A 1_555 1_555
C8A C9A 1_555 1_555
C17A C18A 1_555 1_555
C26A C27A 1_555 1_555

#END
