
#######################################################################
#
#                 Cambridge Crystallographic Data Centre
#                                CCDC 
#
#######################################################################
#
# If this CIF has been generated from an entry in the Cambridge 
# Structural Database, then it will include bibliographic, chemical, 
# crystal, experimental, refinement or atomic coordinate data resulting 
# from the CCDC's data processing and validation procedures.
#
#######################################################################

data_DAHWOY
_chemical_formula_moiety         'C20 H24 O1'
_chemical_name_systematic        
5,8-Carbonyl-5-methyl-7-phenylbicyclo(6.4.0)dodec-2-ene
_symmetry_cell_setting           monoclinic
_symmetry_space_group_name_H-M   'P 21/n'
_symmetry_Int_Tables_number      14
_space_group_name_Hall           '-P 2yn'
loop_
_symmetry_equiv_pos_site_id
_symmetry_equiv_pos_as_xyz
1 x,y,z
2 1/2-x,1/2+y,1/2-z
3 -x,-y,-z
4 1/2+x,1/2-y,1/2+z
_cell_length_a                   6.986(3)
_cell_length_b                   19.571(5)
_cell_length_c                   11.806(3)
_cell_angle_alpha                90
_cell_angle_beta                 104.43(3)
_cell_angle_gamma                90
_cell_volume                     1563.23
_exptl_crystal_colour            white
_chemical_melting_point          111-112deg.C
_cell_formula_units_Z            4
loop_
_atom_site_label
_atom_site_type_symbol
_atom_site_fract_x
_atom_site_fract_y
_atom_site_fract_z
O1 O 0.1567(3) 0.2195(1) 0.2631(2)
C1 C 0.3320(4) 0.1220(1) 0.2146(2)
C2 C 0.4174(4) 0.0615(1) 0.2990(2)
C3 C 0.4816(5) 0.0939(2) 0.4236(2)
C4 C 0.4083(4) 0.1681(1) 0.4174(2)
C5 C 0.5810(4) 0.2188(2) 0.4277(3)
C6 C 0.7147(4) 0.2074(2) 0.3506(3)
C7 C 0.6807(4) 0.1805(2) 0.2444(3)
C8 C 0.4942(4) 0.1556(1) 0.1619(2)
C9 C 0.5451(5) 0.1097(2) 0.0684(3)
C10 C 0.3659(5) 0.0917(2) -0.0285(3)
C11 C 0.2061(4) 0.0604(2) 0.0187(2)
C12 C 0.1543(4) 0.1050(1) 0.1123(2)
C13 C 0.2789(4) 0.1751(1) 0.2936(2)
C14 C 0.2942(5) 0.1863(2) 0.5075(3)
C15 C 0.2762(4) 0.0024(1) 0.2982(2)
C16 C 0.3226(5) -0.0621(1) 0.2646(2)
C17 C 0.1955(6) -0.1171(2) 0.2670(3)
C18 C 0.0286(6) -0.1085(2) 0.3038(3)
C19 C -0.0191(5) -0.0449(2) 0.3374(3)
C20 C 0.1034(4) 0.0096(2) 0.3348(2)
H1 H 0.5355 0.0439 0.2782
H2 H 0.4257 0.0681 0.4777
H3 H 0.6244 0.0928 0.4515
H4 H 0.5258 0.2643 0.4126
H5 H 0.6597 0.2180 0.5080
H6 H 0.8445 0.2214 0.3817
H7 H 0.7928 0.1764 0.2158
H8 H 0.4320 0.1963 0.1201
H9 H 0.6411 0.1328 0.0351
H10 H 0.6054 0.0679 0.1050
H11 H 0.3155 0.1327 -0.0720
H12 H 0.4041 0.0599 -0.0820
H13 H 0.2494 0.0159 0.0517
H14 H 0.0890 0.0537 -0.0447
H15 H 0.0549 0.0819 0.1427
H16 H 0.0969 0.1473 0.0765
H17 H 0.3794 0.1818 0.5846
H18 H 0.1835 0.1560 0.4992
H19 H 0.2478 0.2326 0.4954
H20 H 0.4382 -0.0689 0.2405
H21 H 0.2262 -0.1600 0.2429
H22 H -0.0534 -0.1456 0.3064
H23 H -0.1345 -0.0387 0.3619
H24 H 0.0698 0.0524 0.3582
loop_
_geom_bond_atom_site_label_1
_geom_bond_atom_site_label_2
_geom_bond_site_symmetry_1
_geom_bond_site_symmetry_2
O1 C13 1_555 1_555
C1 C2 1_555 1_555
C2 C3 1_555 1_555
C3 C4 1_555 1_555
C4 C5 1_555 1_555
C5 C6 1_555 1_555
C6 C7 1_555 1_555
C7 C8 1_555 1_555
C8 C1 1_555 1_555
C9 C8 1_555 1_555
C10 C9 1_555 1_555
C11 C10 1_555 1_555
C12 C1 1_555 1_555
C13 C1 1_555 1_555
C14 C4 1_555 1_555
C15 C2 1_555 1_555
C16 C15 1_555 1_555
C17 C16 1_555 1_555
C18 C17 1_555 1_555
C19 C18 1_555 1_555
C20 C15 1_555 1_555
H1 C2 1_555 1_555
H2 C3 1_555 1_555
H3 C3 1_555 1_555
H4 C5 1_555 1_555
H5 C5 1_555 1_555
H6 C6 1_555 1_555
H7 C7 1_555 1_555
H8 C8 1_555 1_555
H9 C9 1_555 1_555
H10 C9 1_555 1_555
H11 C10 1_555 1_555
H12 C10 1_555 1_555
H13 C11 1_555 1_555
H14 C11 1_555 1_555
H15 C12 1_555 1_555
H16 C12 1_555 1_555
H17 C14 1_555 1_555
H18 C14 1_555 1_555
H19 C14 1_555 1_555
H20 C16 1_555 1_555
H21 C17 1_555 1_555
H22 C18 1_555 1_555
H23 C19 1_555 1_555
H24 C20 1_555 1_555
C4 C13 1_555 1_555
C11 C12 1_555 1_555
C19 C20 1_555 1_555

#END
