
#######################################################################
#
#                 Cambridge Crystallographic Data Centre
#                                CCDC 
#
#######################################################################
#
# If this CIF has been generated from an entry in the Cambridge 
# Structural Database, then it will include bibliographic, chemical, 
# crystal, experimental, refinement or atomic coordinate data resulting 
# from the CCDC's data processing and validation procedures.
#
#######################################################################

data_DAHXAO
_chemical_formula_moiety         'C12 H12 F3 N1'
_chemical_name_systematic        
2-(3,4-dimethylphenyl)-4,4,4-trifluorobutanenitrile
_symmetry_cell_setting           orthorhombic
_symmetry_space_group_name_H-M   'P 21 21 21'
_symmetry_Int_Tables_number      19
_space_group_name_Hall           'P 2ac 2ab'
loop_
_symmetry_equiv_pos_site_id
_symmetry_equiv_pos_as_xyz
1 x,y,z
2 1/2+x,1/2-y,-z
3 -x,1/2+y,1/2-z
4 1/2-x,-y,1/2+z
_cell_length_a                   7.2323(4)
_cell_length_b                   7.7706(4)
_cell_length_c                   20.5683(10)
_cell_angle_alpha                90
_cell_angle_beta                 90
_cell_angle_gamma                90
_cell_volume                     1155.92
_exptl_crystal_colour            colorless
_exptl_crystal_description       block
_cell_formula_units_Z            4
loop_
_atom_site_label
_atom_site_type_symbol
_atom_site_fract_x
_atom_site_fract_y
_atom_site_fract_z
F1 F 0.1032(5) 0.0676(3) 0.32707(11)
F2 F 0.3065(3) 0.2548(5) 0.35121(10)
F3 F 0.0249(3) 0.3237(4) 0.34699(11)
N1 N 0.6545(4) 0.2157(4) 0.25138(14)
C1 C 0.1553(5) 0.2286(4) 0.31814(14)
C2 C 0.1738(4) 0.2722(3) 0.24810(13)
H1 H 0.2069 0.3927 0.2444
H2 H 0.0544 0.2572 0.2274
C3 C 0.3178(3) 0.1645(3) 0.21086(11)
H3 H 0.2892 0.0427 0.2181
C4 C 0.5067(4) 0.1958(3) 0.23455(12)
C5 C 0.3128(3) 0.1970(3) 0.13805(11)
C6 C 0.3097(4) 0.0594(3) 0.09539(12)
H4 H 0.3090 -0.0527 0.1112
C7 C 0.3078(4) 0.0892(3) 0.02900(13)
H5 H 0.3058 -0.0043 0.0008
C8 C 0.3088(3) 0.2540(3) 0.00334(12)
C9 C 0.3132(4) 0.3927(3) 0.04634(11)
C10 C 0.3153(4) 0.3624(3) 0.11259(11)
H6 H 0.3186 0.4556 0.1409
C11 C 0.3145(6) 0.5759(4) 0.02202(15)
H7 H 0.3149 0.6534 0.0584
H8 H 0.2064 0.5961 -0.0039
H9 H 0.4231 0.5949 -0.0039
C12 C 0.3080(4) 0.2801(4) -0.06910(13)
H10 H 0.2864 0.1719 -0.0903
H11 H 0.4254 0.3254 -0.0826
H12 H 0.2118 0.3595 -0.0806
loop_
_geom_bond_atom_site_label_1
_geom_bond_atom_site_label_2
_geom_bond_site_symmetry_1
_geom_bond_site_symmetry_2
F1 C1 1_555 1_555
F2 C1 1_555 1_555
F3 C1 1_555 1_555
N1 C4 1_555 1_555
C1 C2 1_555 1_555
C2 H1 1_555 1_555
H2 C2 1_555 1_555
C3 C2 1_555 1_555
H3 C3 1_555 1_555
C4 C3 1_555 1_555
C5 C3 1_555 1_555
C6 C5 1_555 1_555
H4 C6 1_555 1_555
C7 C6 1_555 1_555
H5 C7 1_555 1_555
C8 C7 1_555 1_555
C9 C8 1_555 1_555
C10 C5 1_555 1_555
H6 C10 1_555 1_555
C11 C9 1_555 1_555
H7 C11 1_555 1_555
H8 C11 1_555 1_555
H9 C11 1_555 1_555
C12 C8 1_555 1_555
H10 C12 1_555 1_555
H11 C12 1_555 1_555
H12 C12 1_555 1_555
C9 C10 1_555 1_555

#END
