
#######################################################################
#
#                 Cambridge Crystallographic Data Centre
#                                CCDC 
#
#######################################################################
#
# If this CIF has been generated from an entry in the Cambridge 
# Structural Database, then it will include bibliographic, chemical, 
# crystal, experimental, refinement or atomic coordinate data resulting 
# from the CCDC's data processing and validation procedures.
#
#######################################################################

data_DAJCAT
_chemical_formula_moiety         'C20 H15 Cl1 N4 O1'
_chemical_name_systematic        
4-(2-Chlorophenyl)-5-cyano-3-methyl-6-oxo-1-phenyl-4,5,6,7-tetrahydropyrazolo(3,4-b)pyridine
_chemical_properties_biological  
'possible antitubercular agent, possible activity against both gram positive and gram negative bacteria'
_symmetry_cell_setting           monoclinic
_symmetry_space_group_name_H-M   'P 21/n'
_symmetry_Int_Tables_number      14
_space_group_name_Hall           '-P 2yn'
loop_
_symmetry_equiv_pos_site_id
_symmetry_equiv_pos_as_xyz
1 x,y,z
2 1/2+x,1/2-y,1/2+z
3 -x,-y,-z
4 1/2-x,1/2+y,1/2-z
_cell_length_a                   8.8192(19)
_cell_length_b                   15.976(3)
_cell_length_c                   13.094(3)
_cell_angle_alpha                90
_cell_angle_beta                 103.074(4)
_cell_angle_gamma                90
_cell_volume                     1797.06
_exptl_crystal_colour            colorless
_exptl_crystal_description       polyhedron
_cell_formula_units_Z            4
_exptl_crystal_recrystallization_method '95% ethanol'
_exptl_crystal_preparation       'microwave irradiated product'
loop_
_atom_site_label
_atom_site_type_symbol
_atom_site_fract_x
_atom_site_fract_y
_atom_site_fract_z
Cl1 Cl 0.57711(8) 0.79268(4) 1.27707(5)
O1 O 0.07916(16) 0.52790(9) 1.12467(11)
N1 N 0.20138(19) 0.53921(10) 0.99086(13)
N2 N 0.36160(18) 0.56138(11) 0.86229(13)
N3 N 0.4898(2) 0.60798(11) 0.85540(14)
N4 N 0.2856(2) 0.61849(12) 1.34886(14)
C1 C 0.1931(2) 0.54833(11) 1.09233(15)
C2 C 0.3409(2) 0.58194(12) 1.16675(14)
H1 H 0.4171 0.5346 1.1797
C3 C 0.4223(2) 0.65526(12) 1.12165(15)
H2 H 0.5303 0.6615 1.1656
C4 C 0.4327(2) 0.62760(12) 1.01369(15)
C5 C 0.3268(2) 0.57332(12) 0.95693(14)
C6 C 0.5328(2) 0.64766(13) 0.94678(17)
C7 C 0.3067(2) 0.60261(12) 1.26829(16)
C8 C 0.3373(2) 0.73808(12) 1.12229(15)
C9 C 0.3979(3) 0.80375(13) 1.18870(16)
C10 C 0.3195(3) 0.87928(14) 1.18768(19)
H3 H 0.3649 0.9238 1.2324
C11 C 0.1756(3) 0.88908(14) 1.1215(2)
H4 H 0.1205 0.9402 1.1215
C12 C 0.1108(3) 0.82527(15) 1.05527(19)
H5 H 0.0110 0.8320 1.0099
C13 C 0.1923(2) 0.75110(13) 1.05525(17)
H6 H 0.1480 0.7078 1.0081
C14 C 0.2836(2) 0.51441(13) 0.77313(15)
C15 C 0.2828(3) 0.54502(17) 0.67378(17)
H7 H 0.3315 0.5968 0.6655
C16 C 0.2102(3) 0.4991(2) 0.5871(2)
H8 H 0.2093 0.5194 0.5188
C17 C 0.1390(3) 0.4239(2) 0.5988(2)
H9 H 0.0899 0.3927 0.5387
C18 C 0.1387(3) 0.39400(17) 0.69722(19)
H10 H 0.0878 0.3428 0.7050
C19 C 0.2134(2) 0.43904(14) 0.78562(17)
H11 H 0.2160 0.4180 0.8539
C20 C 0.6698(3) 0.70540(17) 0.9673(2)
H12 H 0.7197 0.7041 0.9076
H13 H 0.7445 0.6875 1.0308
H14 H 0.6349 0.7625 0.9769
H15 H 0.117(3) 0.5174(15) 0.9493(19)
loop_
_geom_bond_atom_site_label_1
_geom_bond_atom_site_label_2
_geom_bond_site_symmetry_1
_geom_bond_site_symmetry_2
Cl1 C9 1_555 1_555
O1 C1 1_555 1_555
N1 C1 1_555 1_555
N2 N3 1_555 1_555
N3 C6 1_555 1_555
N4 C7 1_555 1_555
C1 C2 1_555 1_555
C2 H1 1_555 1_555
C3 C2 1_555 1_555
H2 C3 1_555 1_555
C4 C3 1_555 1_555
C5 N1 1_555 1_555
C6 C4 1_555 1_555
C7 C2 1_555 1_555
C8 C3 1_555 1_555
C9 C8 1_555 1_555
C10 C9 1_555 1_555
H3 C10 1_555 1_555
C11 C10 1_555 1_555
H4 C11 1_555 1_555
C12 C11 1_555 1_555
H5 C12 1_555 1_555
C13 C8 1_555 1_555
H6 C13 1_555 1_555
C14 N2 1_555 1_555
C15 C14 1_555 1_555
H7 C15 1_555 1_555
C16 C15 1_555 1_555
H8 C16 1_555 1_555
C17 C16 1_555 1_555
H9 C17 1_555 1_555
C18 C17 1_555 1_555
H10 C18 1_555 1_555
C19 C14 1_555 1_555
H11 C19 1_555 1_555
C20 C6 1_555 1_555
H12 C20 1_555 1_555
H13 C20 1_555 1_555
H14 C20 1_555 1_555
H15 N1 1_555 1_555
N2 C5 1_555 1_555
C4 C5 1_555 1_555
C12 C13 1_555 1_555
C18 C19 1_555 1_555

#END
