
#######################################################################
#
#                 Cambridge Crystallographic Data Centre
#                                CCDC 
#
#######################################################################
#
# If this CIF has been generated from an entry in the Cambridge 
# Structural Database, then it will include bibliographic, chemical, 
# crystal, experimental, refinement or atomic coordinate data resulting 
# from the CCDC's data processing and validation procedures.
#
#######################################################################

data_DAJGED
_chemical_formula_moiety         'C46 H32 N4 O10,0.5(C2 H4 Cl2)'
_chemical_name_systematic        
'(SSSS)-3,10,24,31-tetraazaundecacyclo[37.3.1.1^3,42^.1^10,13^.1^12,16^.1^18,22^.1^21,24^.1^31,34^.1^33,37^.0^4,9^.0^25,30^]pentaconta-1(43),12(49),13,15,18(48),19,21,33(45),34,36,39,41-dodecaene-2,11,17,23,32,38,44,46,47,50-decone 1,2-dichloroethane solvate'
_symmetry_cell_setting           tetragonal
_symmetry_space_group_name_H-M   'P 43 2 2'
_symmetry_Int_Tables_number      95
_space_group_name_Hall           'P 4cw 2c'
loop_
_symmetry_equiv_pos_site_id
_symmetry_equiv_pos_as_xyz
1 x,y,z
2 -x,-y,1/2+z
3 -y,x,3/4+z
4 y,-x,1/4+z
5 -x,y,-z
6 x,-y,1/2-z
7 y,x,1/4-z
8 -y,-x,3/4-z
_cell_length_a                   15.4749(5)
_cell_length_b                   15.4749(5)
_cell_length_c                   40.5132(15)
_cell_angle_alpha                90
_cell_angle_beta                 90
_cell_angle_gamma                90
_cell_volume                     9701.8
_exptl_crystal_colour            colorless
_exptl_crystal_description       needle
_cell_formula_units_Z            8
loop_
_atom_site_label
_atom_site_type_symbol
_atom_site_fract_x
_atom_site_fract_y
_atom_site_fract_z
O1 O 0.4395(11) 0.1821(8) 0.4526(3)
O2 O 0.2916(6) 0.4202(7) 0.4833(2)
O3 O 0.7468(8) 0.3724(8) 0.4360(3)
O4 O 0.8961(7) 0.7331(11) 0.3448(4)
O5 O 0.6063(5) 0.7064(6) 0.34723(17)
N1 N 0.3508(11) 0.2873(9) 0.4691(3)
N2 N 0.7507(8) 0.7342(10) 0.3390(3)
C1 C 0.2743(12) 0.2329(12) 0.4719(3)
H1 H 0.2921 0.1714 0.4686
C2 C 0.2099(11) 0.2614(12) 0.4409(4)
H2 H 0.1989 0.3247 0.4432
C3 C 0.1226(11) 0.2170(13) 0.4399(4)
H3 H 0.1293 0.1557 0.4334
H4 H 0.0843 0.2458 0.4238
C4 C 0.0837(15) 0.2233(19) 0.4750(5)
H5 H 0.0265 0.1946 0.4751
H6 H 0.0746 0.2850 0.4805
C5 C 0.1419(19) 0.181(2) 0.5022(6)
H7 H 0.1558 0.1206 0.4966
H8 H 0.1126 0.1825 0.5240
C6 C 0.2276(14) 0.2392(17) 0.5029(4)
H9 H 0.2118 0.3003 0.5070
H10 H 0.2654 0.2199 0.5211
C7 C 0.4244(13) 0.2576(12) 0.4589(4)
C8 C 0.4883(10) 0.3409(9) 0.4541(3)
C9 C 0.5783(9) 0.3448(9) 0.4426(3)
H11 H 0.6117 0.2956 0.4368
C10 C 0.6073(9) 0.4252(9) 0.4414(3)
C11 C 0.5528(7) 0.4942(8) 0.4514(2)
H12 H 0.5772 0.5505 0.4505
C12 C 0.4720(8) 0.4891(9) 0.4616(3)
H13 H 0.4370 0.5376 0.4668
C13 C 0.4460(9) 0.4076(10) 0.4637(3)
C14 C 0.3523(10) 0.3734(11) 0.4738(4)
C15 C 0.6926(9) 0.4319(11) 0.4290(3)
C16 C 0.7272(7) 0.5078(9) 0.4125(3)
C17 C 0.8248(8) 0.5199(13) 0.4113(4)
H14 H 0.8609 0.4800 0.4226
C18 C 0.8586(10) 0.5815(13) 0.3957(4)
H15 H 0.9190 0.5924 0.3961
C19 C 0.8010(8) 0.6331(12) 0.3775(4)
C20 C 0.8220(10) 0.7010(12) 0.3522(4)
C21 C 0.6809(9) 0.6847(10) 0.3547(3)
C22 C 0.7151(7) 0.6251(10) 0.3767(3)
C23 C 0.6704(8) 0.5606(9) 0.3937(3)
H16 H 0.6095 0.5530 0.3928
O1G O 0.8179(8) 0.5605(11) 0.2974(3)
O2G O 0.5798(7) 0.7084(6) 0.2667(2)
O3G O 0.6276(8) 0.2532(8) 0.3140(3)
O4G O 0.2669(11) 0.1039(7) 0.4052(4)
O5G O 0.2936(6) 0.3937(5) 0.40277(17)
N1G N 0.7127(9) 0.6492(11) 0.2809(3)
N2G N 0.2658(10) 0.2493(8) 0.4110(3)
C1G C 0.7671(12) 0.7257(12) 0.2781(3)
H1G H 0.8286 0.7079 0.2814
C2G C 0.7386(12) 0.7901(11) 0.3091(4)
H2G H 0.6753 0.8011 0.3068
C3G C 0.7830(13) 0.8774(11) 0.3101(4)
H3G H 0.8443 0.8707 0.3166
H4G H 0.7542 0.9157 0.3262
C4G C 0.7767(19) 0.9163(15) 0.2750(5)
H5G H 0.8054 0.9735 0.2749
H6G H 0.7150 0.9254 0.2695
C5G C 0.819(2) 0.8581(19) 0.2478(6)
H7G H 0.8794 0.8442 0.2534
H8G H 0.8175 0.8874 0.2260
C6G C 0.7608(17) 0.7724(14) 0.2471(4)
H9G H 0.6997 0.7882 0.2430
H10G H 0.7801 0.7346 0.2289
C7G C 0.7424(12) 0.5756(13) 0.2911(4)
C8G C 0.6591(9) 0.5117(10) 0.2959(3)
C9G C 0.6552(9) 0.4217(9) 0.3074(3)
H11G H 0.7044 0.3883 0.3132
C10G C 0.5748(9) 0.3927(9) 0.3086(3)
C11G C 0.5058(8) 0.4472(7) 0.2986(2)
H12G H 0.4495 0.4228 0.2995
C12G C 0.5109(9) 0.5280(8) 0.2884(3)
H13G H 0.4624 0.5630 0.2832
C13G C 0.5924(10) 0.5540(9) 0.2863(3)
C14G C 0.6266(11) 0.6477(10) 0.2762(4)
C15G C 0.5681(11) 0.3074(9) 0.3210(3)
C16G C 0.4922(9) 0.2728(7) 0.3375(3)
C17G C 0.4801(13) 0.1752(8) 0.3387(4)
H14G H 0.5200 0.1391 0.3274
C18G C 0.4185(13) 0.1414(10) 0.3543(4)
H15G H 0.4076 0.0810 0.3539
C19G C 0.3669(12) 0.1990(8) 0.3725(4)
C20G C 0.2990(12) 0.1780(10) 0.3978(4)
C21G C 0.3153(10) 0.3191(9) 0.3953(3)
C22G C 0.3749(10) 0.2849(7) 0.3733(3)
C23G C 0.4394(9) 0.3296(8) 0.3563(3)
H16G H 0.4470 0.3905 0.3572
O6 O 0.6348(4) 0.6507(5) 0.50217(16)
O7 O 0.9114(6) 0.7147(8) 0.4726(2)
O8 O 0.5900(7) 0.9344(7) 0.3778(3)
O9 O 0.1773(8) 0.8468(9) 0.4579(3)
O10 O 0.3241(5) 0.6132(6) 0.41786(16)
N3 N 0.7820(6) 0.6607(7) 0.4925(2)
N4 N 0.2312(8) 0.7121(8) 0.4396(2)
C24 C 0.8071(7) 0.6033(10) 0.5205(3)
H17 H 0.7560 0.5688 0.5279
C25 C 0.8793(7) 0.5411(9) 0.5067(3)
H18 H 0.9290 0.5751 0.4985
H19 H 0.8561 0.5065 0.4881
C26 C 0.9090(7) 0.4793(11) 0.5357(4)
H20 H 0.8599 0.4444 0.5439
H21 H 0.9555 0.4400 0.5283
C27 C 0.9423(9) 0.5412(11) 0.5628(4)
H22 H 0.9652 0.5068 0.5814
H23 H 0.9903 0.5763 0.5538
C28 C 0.8722(9) 0.6004(10) 0.5753(4)
H24 H 0.8243 0.5664 0.5849
H25 H 0.8954 0.6395 0.5925
C29 C 0.8423(9) 0.6493(10) 0.5476(3)
H26 H 0.8913 0.6854 0.5393
C30 C 0.6991(7) 0.6796(8) 0.4869(3)
C31 C 0.6920(8) 0.7416(9) 0.4595(3)
C32 C 0.6233(8) 0.7758(7) 0.4440(2)
H27 H 0.5661 0.7616 0.4505
C33 C 0.6392(10) 0.8354(9) 0.4169(3)
C34 C 0.7281(10) 0.8493(9) 0.4086(3)
H28 H 0.7400 0.8864 0.3905
C35 C 0.7967(9) 0.8137(9) 0.4245(3)
H29 H 0.8543 0.8267 0.4180
C36 C 0.7806(7) 0.7593(9) 0.4497(3)
C37 C 0.8372(9) 0.7102(9) 0.4728(3)
C38 C 0.5660(11) 0.8801(8) 0.3994(4)
C39 C 0.4789(10) 0.8600(8) 0.4085(3)
C40 C 0.4278(13) 0.9314(10) 0.4177(4)
H30 H 0.4511 0.9880 0.4162
C41 C 0.3508(13) 0.9210(11) 0.4281(4)
H31 H 0.3181 0.9707 0.4339
C42 C 0.3098(10) 0.8345(10) 0.4316(4)
C43 C 0.2252(10) 0.8001(11) 0.4448(4)
C44 C 0.3068(9) 0.6840(9) 0.4253(3)
C45 C 0.3599(9) 0.7658(8) 0.4203(3)
C46 C 0.4418(8) 0.7758(8) 0.4093(3)
H32 H 0.4742 0.7272 0.4021
O6D O 0.3652(4) 0.6507(5) 0.49783(16)
O7D O 0.0886(6) 0.7147(8) 0.5274(2)
O8D O 0.4100(7) 0.9344(7) 0.6222(3)
O9D O 0.8227(8) 0.8468(9) 0.5421(3)
O10D O 0.6759(5) 0.6132(6) 0.58214(16)
N3D N 0.2180(6) 0.6607(7) 0.5075(2)
N4D N 0.7688(8) 0.7121(8) 0.5604(2)
C24D C 0.1929(7) 0.6033(10) 0.4795(3)
H17D H 0.2440 0.5688 0.4721
C25D C 0.1207(7) 0.5411(9) 0.4933(3)
H18D H 0.0710 0.5751 0.5015
H19D H 0.1439 0.5065 0.5119
C26D C 0.0910(7) 0.4793(11) 0.4643(4)
H20D H 0.1401 0.4444 0.4561
H21D H 0.0445 0.4400 0.4717
C27D C 0.0577(9) 0.5412(11) 0.4372(4)
H22D H 0.0348 0.5068 0.4186
H23D H 0.0097 0.5763 0.4462
C28D C 0.1278(9) 0.6004(10) 0.4247(4)
H24D H 0.1757 0.5664 0.4151
H25D H 0.1046 0.6395 0.4075
C29D C 0.1577(9) 0.6493(10) 0.4524(3)
H26D H 0.1087 0.6854 0.4607
C30D C 0.3009(7) 0.6796(8) 0.5131(3)
C31D C 0.3080(8) 0.7416(9) 0.5405(3)
C32D C 0.3767(8) 0.7758(7) 0.5560(2)
H27D H 0.4339 0.7616 0.5495
C33D C 0.3608(10) 0.8354(9) 0.5831(3)
C34D C 0.2719(10) 0.8493(9) 0.5914(3)
H28D H 0.2600 0.8864 0.6095
C35D C 0.2033(9) 0.8137(9) 0.5755(3)
H29D H 0.1457 0.8267 0.5820
C36D C 0.2194(7) 0.7593(9) 0.5503(3)
C37D C 0.1628(9) 0.7102(9) 0.5272(3)
C38D C 0.4340(11) 0.8801(8) 0.6006(4)
C39D C 0.5211(10) 0.8600(8) 0.5915(3)
C40D C 0.5722(13) 0.9314(10) 0.5823(4)
H30D H 0.5489 0.9880 0.5838
C41D C 0.6492(13) 0.9210(11) 0.5719(4)
H31D H 0.6819 0.9707 0.5661
C42D C 0.6902(10) 0.8345(10) 0.5684(4)
C43D C 0.7748(10) 0.8001(11) 0.5552(4)
C44D C 0.6932(9) 0.6840(9) 0.5747(3)
C45D C 0.6401(9) 0.7658(8) 0.5797(3)
C46D C 0.5582(8) 0.7758(8) 0.5907(3)
H32D H 0.5258 0.7272 0.5979
Cl1 Cl 0.8109(4) 0.9473(9) 0.6390(2)
C47 C 0.9050(13) 0.9741(15) 0.6233(5)
H33 H 0.8972 0.9872 0.5995
H34 H 0.9255 1.0274 0.6342
Cl1F Cl 0.9473(9) 0.8109(4) 0.6110(2)
C47F C 0.9741(15) 0.9050(13) 0.6267(5)
H33F H 0.9872 0.8972 0.6505
H34F H 1.0274 0.9255 0.6158
loop_
_geom_bond_atom_site_label_1
_geom_bond_atom_site_label_2
_geom_bond_site_symmetry_1
_geom_bond_site_symmetry_2
O1 C7 1_555 1_555
O2 C14 1_555 1_555
O3 C15 1_555 1_555
O4 C20 1_555 1_555
O5 C21 1_555 1_555
N1 C1 1_555 1_555
N2 C20 1_555 1_555
C1 H1 1_555 1_555
C2 C1 1_555 1_555
H2 C2 1_555 1_555
C3 C2 1_555 1_555
H3 C3 1_555 1_555
H4 C3 1_555 1_555
C4 C3 1_555 1_555
H5 C4 1_555 1_555
H6 C4 1_555 1_555
C5 C4 1_555 1_555
H7 C5 1_555 1_555
H8 C5 1_555 1_555
C6 C1 1_555 1_555
H9 C6 1_555 1_555
H10 C6 1_555 1_555
C7 N1 1_555 1_555
C8 C7 1_555 1_555
C9 C8 1_555 1_555
H11 C9 1_555 1_555
C10 C9 1_555 1_555
C11 C10 1_555 1_555
H12 C11 1_555 1_555
C12 C11 1_555 1_555
H13 C12 1_555 1_555
C13 C8 1_555 1_555
C14 N1 1_555 1_555
C15 C10 1_555 1_555
C16 C15 1_555 1_555
C17 C16 1_555 1_555
H14 C17 1_555 1_555
C18 C17 1_555 1_555
H15 C18 1_555 1_555
C19 C18 1_555 1_555
C20 C19 1_555 1_555
C21 N2 1_555 1_555
C22 C19 1_555 1_555
C23 C16 1_555 1_555
H16 C23 1_555 1_555
O6 C30 1_555 1_555
O7 C37 1_555 1_555
O8 C38 1_555 1_555
O9 C43 1_555 1_555
O10 C44 1_555 1_555
N3 C24 1_555 1_555
N4 C43 1_555 1_555
C24 H17 1_555 1_555
C25 C24 1_555 1_555
H18 C25 1_555 1_555
H19 C25 1_555 1_555
C26 C25 1_555 1_555
H20 C26 1_555 1_555
H21 C26 1_555 1_555
C27 C26 1_555 1_555
H22 C27 1_555 1_555
H23 C27 1_555 1_555
C28 C27 1_555 1_555
H24 C28 1_555 1_555
H25 C28 1_555 1_555
C29 C24 1_555 1_555
H26 C29 1_555 1_555
C30 N3 1_555 1_555
C31 C30 1_555 1_555
C32 C31 1_555 1_555
H27 C32 1_555 1_555
C33 C32 1_555 1_555
C34 C33 1_555 1_555
H28 C34 1_555 1_555
C35 C34 1_555 1_555
H29 C35 1_555 1_555
C36 C31 1_555 1_555
C37 N3 1_555 1_555
C38 C33 1_555 1_555
C39 C38 1_555 1_555
C40 C39 1_555 1_555
H30 C40 1_555 1_555
C41 C40 1_555 1_555
H31 C41 1_555 1_555
C42 C41 1_555 1_555
C43 C42 1_555 1_555
C44 N4 1_555 1_555
C45 C42 1_555 1_555
C46 C39 1_555 1_555
H32 C46 1_555 1_555
Cl1 C47 1_555 1_555
C47 H33 1_555 1_555
H34 C47 1_555 1_555
O1G C7G 1_555 1_555
O2G C14G 1_555 1_555
O3G C15G 1_555 1_555
O4G C20G 1_555 1_555
O5G C21G 1_555 1_555
N1G C1G 1_555 1_555
N2G C2 1_555 1_555
C1G H1G 1_555 1_555
C2G N2 1_555 1_555
H2G C2G 1_555 1_555
C3G C2G 1_555 1_555
H3G C3G 1_555 1_555
H4G C3G 1_555 1_555
C4G C3G 1_555 1_555
H5G C4G 1_555 1_555
H6G C4G 1_555 1_555
C5G C4G 1_555 1_555
H7G C5G 1_555 1_555
H8G C5G 1_555 1_555
C6G C1G 1_555 1_555
H9G C6G 1_555 1_555
H10G C6G 1_555 1_555
C7G N1G 1_555 1_555
C8G C7G 1_555 1_555
C9G C8G 1_555 1_555
H11G C9G 1_555 1_555
C10G C9G 1_555 1_555
C11G C10G 1_555 1_555
H12G C11G 1_555 1_555
C12G C11G 1_555 1_555
H13G C12G 1_555 1_555
C13G C8G 1_555 1_555
C14G N1G 1_555 1_555
C15G C10G 1_555 1_555
C16G C15G 1_555 1_555
C17G C16G 1_555 1_555
H14G C17G 1_555 1_555
C18G C17G 1_555 1_555
H15G C18G 1_555 1_555
C19G C18G 1_555 1_555
C20G N2G 1_555 1_555
C21G N2G 1_555 1_555
C22G C19G 1_555 1_555
C23G C16G 1_555 1_555
H16G C23G 1_555 1_555
O6D C30D 1_555 1_555
O7D C37D 1_555 1_555
O8D C38D 1_555 1_555
O9D C43D 1_555 1_555
O10D C44D 1_555 1_555
N3D C24D 1_555 1_555
N4D C29 1_555 1_555
C24D H17D 1_555 1_555
C25D C24D 1_555 1_555
H18D C25D 1_555 1_555
H19D C25D 1_555 1_555
C26D C25D 1_555 1_555
H20D C26D 1_555 1_555
H21D C26D 1_555 1_555
C27D C26D 1_555 1_555
H22D C27D 1_555 1_555
H23D C27D 1_555 1_555
C28D C27D 1_555 1_555
H24D C28D 1_555 1_555
H25D C28D 1_555 1_555
C29D N4 1_555 1_555
H26D C29D 1_555 1_555
C30D N3D 1_555 1_555
C31D C30D 1_555 1_555
C32D C31D 1_555 1_555
H27D C32D 1_555 1_555
C33D C32D 1_555 1_555
C34D C33D 1_555 1_555
H28D C34D 1_555 1_555
C35D C34D 1_555 1_555
H29D C35D 1_555 1_555
C36D C31D 1_555 1_555
C37D N3D 1_555 1_555
C38D C33D 1_555 1_555
C39D C38D 1_555 1_555
C40D C39D 1_555 1_555
H30D C40D 1_555 1_555
C41D C40D 1_555 1_555
H31D C41D 1_555 1_555
C42D C41D 1_555 1_555
C43D N4D 1_555 1_555
C44D N4D 1_555 1_555
C45D C42D 1_555 1_555
C46D C39D 1_555 1_555
H32D C46D 1_555 1_555
Cl1F C47F 1_555 1_555
C47F C47 1_555 1_555
H33F C47F 1_555 1_555
H34F C47F 1_555 1_555
C5 C6 1_555 1_555
C12 C13 1_555 1_555
C13 C14 1_555 1_555
C21 C22 1_555 1_555
C22 C23 1_555 1_555
C28 C29 1_555 1_555
C35 C36 1_555 1_555
C36 C37 1_555 1_555
C44 C45 1_555 1_555
C45 C46 1_555 1_555
C1G C2G 1_555 1_555
C5G C6G 1_555 1_555
C12G C13G 1_555 1_555
C13G C14G 1_555 1_555
C19G C20G 1_555 1_555
C21G C22G 1_555 1_555
C22G C23G 1_555 1_555
C24D C29D 1_555 1_555
C28D C29D 1_555 1_555
C35D C36D 1_555 1_555
C36D C37D 1_555 1_555
C42D C43D 1_555 1_555
C44D C45D 1_555 1_555
C45D C46D 1_555 1_555

#END
