
#######################################################################
#
#                 Cambridge Crystallographic Data Centre
#                                CCDC 
#
#######################################################################
#
# If this CIF has been generated from an entry in the Cambridge 
# Structural Database, then it will include bibliographic, chemical, 
# crystal, experimental, refinement or atomic coordinate data resulting 
# from the CCDC's data processing and validation procedures.
#
#######################################################################

data_DAJJIJ
_chemical_formula_moiety         'C15 H10 Br1 F3 O5'
_chemical_name_systematic        
'Dimethyl 2-(4-bromophenyl)-5-(trifluoromethyl)furan-3,4-dicarboxylate'
_symmetry_cell_setting           monoclinic
_symmetry_space_group_name_H-M   'P 21/c'
_symmetry_Int_Tables_number      14
_space_group_name_Hall           '-P 2ybc'
loop_
_symmetry_equiv_pos_site_id
_symmetry_equiv_pos_as_xyz
1 x,y,z
2 -x,1/2+y,1/2-z
3 -x,-y,-z
4 x,1/2-y,1/2+z
_cell_length_a                   7.792(4)
_cell_length_b                   18.844(10)
_cell_length_c                   10.982(6)
_cell_angle_alpha                90
_cell_angle_beta                 108.480(6)
_cell_angle_gamma                90
_cell_volume                     1529.36
_exptl_crystal_colour            colorless
_exptl_crystal_description       block
_cell_formula_units_Z            4
loop_
_atom_site_label
_atom_site_type_symbol
_atom_site_fract_x
_atom_site_fract_y
_atom_site_fract_z
Br1 Br 0.07104(9) 0.33167(3) -0.09233(5)
C1 C 0.2734(6) 0.5893(2) 0.5261(4)
C2 C 0.2877(6) 0.5371(2) 0.6135(4)
C3 C 0.2541(6) 0.4719(2) 0.5447(4)
C4 C 0.2220(6) 0.4886(2) 0.4191(4)
C5 C 0.1861(6) 0.4495(2) 0.2981(4)
C6 C 0.1278(6) 0.3797(2) 0.2862(4)
H1 H 0.1100 0.3567 0.3562
C7 C 0.0959(6) 0.3437(2) 0.1714(5)
H2 H 0.0580 0.2966 0.1641
C8 C 0.1210(7) 0.3784(3) 0.0677(4)
C9 C 0.1775(6) 0.4470(2) 0.0777(4)
H3 H 0.1935 0.4699 0.0070
C10 C 0.2111(6) 0.4826(2) 0.1924(4)
H4 H 0.2510 0.5294 0.1989
C11 C 0.2948(7) 0.6679(3) 0.5300(5)
C12 C 0.3208(7) 0.5429(3) 0.7534(5)
C13 C 0.4009(8) 0.6183(3) 0.9340(4)
H5 H 0.2870 0.6134 0.9496
H6 H 0.4480 0.6651 0.9582
H7 H 0.4847 0.5838 0.9839
C14 C 0.4559(7) 0.3155(2) 0.7312(5)
H8 H 0.3874 0.3142 0.7901
H9 H 0.5820 0.3093 0.7776
H10 H 0.4159 0.2781 0.6693
C15 C 0.2611(8) 0.3997(2) 0.6012(4)
F1 F 0.2093(4) 0.69872(13) 0.6024(3)
F2 F 0.2345(4) 0.69587(13) 0.4135(3)
F3 F 0.4700(4) 0.68592(13) 0.5796(3)
O1 O 0.3000(5) 0.49406(17) 0.8173(3)
O2 O 0.1347(5) 0.36198(18) 0.5886(3)
O3 O 0.4291(5) 0.38319(16) 0.6661(3)
O4 O 0.3752(5) 0.60705(16) 0.7985(3)
O5 O 0.2340(4) 0.56092(14) 0.4070(3)
loop_
_geom_bond_atom_site_label_1
_geom_bond_atom_site_label_2
_geom_bond_site_symmetry_1
_geom_bond_site_symmetry_2
Br1 C8 1_555 1_555
C1 C2 1_555 1_555
C2 C3 1_555 1_555
C3 C4 1_555 1_555
C4 C5 1_555 1_555
C5 C6 1_555 1_555
C6 H1 1_555 1_555
C7 C6 1_555 1_555
H2 C7 1_555 1_555
C8 C7 1_555 1_555
C9 C8 1_555 1_555
H3 C9 1_555 1_555
C10 C5 1_555 1_555
H4 C10 1_555 1_555
C11 C1 1_555 1_555
C12 C2 1_555 1_555
C13 H5 1_555 1_555
H6 C13 1_555 1_555
H7 C13 1_555 1_555
C14 H8 1_555 1_555
H9 C14 1_555 1_555
H10 C14 1_555 1_555
C15 C3 1_555 1_555
F1 C11 1_555 1_555
F2 C11 1_555 1_555
F3 C11 1_555 1_555
O1 C12 1_555 1_555
O2 C15 1_555 1_555
O3 C14 1_555 1_555
O4 C12 1_555 1_555
O5 C1 1_555 1_555
C4 O5 1_555 1_555
C9 C10 1_555 1_555
C13 O4 1_555 1_555
C15 O3 1_555 1_555

#END
