
#######################################################################
#
#                 Cambridge Crystallographic Data Centre
#                                CCDC 
#
#######################################################################
#
# If this CIF has been generated from an entry in the Cambridge 
# Structural Database, then it will include bibliographic, chemical, 
# crystal, experimental, refinement or atomic coordinate data resulting 
# from the CCDC's data processing and validation procedures.
#
#######################################################################

data_DAJJIK
_chemical_formula_moiety         'C66 H66 N2 O10,4(C4 H8 O2)'
_chemical_name_systematic        
'10,16,36,42-tetrabutoxy-28,50,54,56-tetraoxa-13,39-diazatridecacyclo[43.7.1.1^3,51^.1^23,27^.1^25,29^.0^2,7^.0^6,11^.0^15,20^.0^19,24^.0^32,37^.0^33,55^.0^41,46^.0^49,53^]hexapentaconta-2,4,6,8,10,15,17,19,21,23,29(55),30,32,34,36,41,43,45,47,49(53)-icosaene-12,40-dione 1,4-dioxane clathrate 1,4-dioxane solvate'
_symmetry_cell_setting           orthorhombic
_symmetry_space_group_name_H-M   'P b c a'
_symmetry_Int_Tables_number      61
_space_group_name_Hall           '-P 2ac 2ab'
loop_
_symmetry_equiv_pos_site_id
_symmetry_equiv_pos_as_xyz
1 x,y,z
2 1/2-x,-y,1/2+z
3 1/2+x,1/2-y,-z
4 -x,1/2+y,1/2-z
5 -x,-y,-z
6 1/2+x,y,1/2-z
7 1/2-x,1/2+y,z
8 x,1/2-y,1/2+z
_cell_length_a                   34.9715(11)
_cell_length_b                   17.7878(6)
_cell_length_c                   23.0905(9)
_cell_angle_alpha                90
_cell_angle_beta                 90
_cell_angle_gamma                90
_cell_volume                     14363.8
_exptl_crystal_colour            colorless
_exptl_crystal_description       Block
_cell_formula_units_Z            8
loop_
_atom_site_label
_atom_site_type_symbol
_atom_site_fract_x
_atom_site_fract_y
_atom_site_fract_z
N1 N 0.36972(9) 0.5179(2) 0.70253(17)
H1 H 0.3795 0.5582 0.6862
N2 N 0.36847(8) 0.98126(18) 0.74284(14)
H2 H 0.3729 0.9418 0.7208
O1 O 0.32356(11) 0.5438(2) 0.56600(19)
O2 O 0.21759(9) 0.65764(19) 0.84917(15)
O3 O 0.22291(9) 0.7844(2) 0.86581(15)
O4 O 0.31620(10) 1.0163(2) 0.61936(14)
O5 O 0.39376(9) 1.05864(14) 0.81027(14)
O6 O 0.44602(7) 0.96893(14) 0.69332(11)
O7 O 0.43833(8) 0.79230(16) 1.00104(11)
O8 O 0.42753(9) 0.66670(17) 0.98573(12)
O9 O 0.45072(8) 0.50812(16) 0.67594(13)
O10 O 0.37780(9) 0.43345(16) 0.77368(14)
C1 C 0.33429(12) 0.4872(3) 0.6779(3)
H3 H 0.3231 0.4505 0.7053
H4 H 0.3402 0.4606 0.6414
C2 C 0.30531(12) 0.5496(3) 0.6660(2)
C3 C 0.28411(12) 0.5795(2) 0.7136(2)
C4 C 0.28697(13) 0.5512(2) 0.7688(3)
H5 H 0.3049 0.5124 0.7763
C5 C 0.26528(14) 0.5766(2) 0.8122(2)
H6 H 0.2670 0.5540 0.8494
C6 C 0.23928(11) 0.6382(2) 0.8026(2)
C7 C 0.23789(11) 0.6736(2) 0.7493(2)
C8 C 0.25901(10) 0.6426(2) 0.70141(19)
C9 C 0.25581(13) 0.6664(3) 0.6449(2)
H7 H 0.2394 0.7075 0.6364
C10 C 0.27509(14) 0.6338(3) 0.6013(3)
H8 H 0.2710 0.6507 0.5628
C11 C 0.30147(15) 0.5747(3) 0.6116(2)
C12 C 0.3045(2) 0.5297(4) 0.5108(3)
H9 H 0.3038 0.5760 0.4869
H10 H 0.2779 0.5122 0.5171
C13 C 0.3275(2) 0.4711(4) 0.4824(4)
H11 H 0.3179 0.4677 0.4421
H12 H 0.3538 0.4914 0.4798
C14 C 0.3313(3) 0.3965(5) 0.5019(5)
H13 H 0.3500 0.4050 0.5335
H14 H 0.3065 0.3913 0.5222
C15 C 0.19709(14) 0.7265(3) 0.8463(3)
H15 H 0.1755 0.7236 0.8745
C16 C 0.18045(13) 0.7409(3) 0.7874(3)
H16 H 0.1657 0.7884 0.7873
H17 H 0.1632 0.6993 0.7759
C17 C 0.21421(12) 0.7461(2) 0.7462(3)
H18 H 0.2048 0.7539 0.7058
C18 C 0.23781(10) 0.8137(2) 0.76540(18)
C19 C 0.24241(13) 0.8256(2) 0.8240(2)
C20 C 0.26831(13) 0.8750(3) 0.8486(2)
H19 H 0.2721 0.8774 0.8893
C21 C 0.28919(12) 0.9224(2) 0.80942(19)
H20 H 0.3075 0.9566 0.8246
C22 C 0.28341(11) 0.9197(2) 0.74994(18)
C23 C 0.25767(11) 0.8641(2) 0.7270(2)
C24 C 0.25142(12) 0.8645(2) 0.6670(2)
H21 H 0.2336 0.8300 0.6508
C25 C 0.27051(14) 0.9140(3) 0.6305(2)
H22 H 0.2661 0.9122 0.5899
C26 C 0.29572(13) 0.9658(3) 0.6530(2)
C27 C 0.30318(10) 0.9683(2) 0.71309(18)
C28 C 0.30529(15) 1.0257(3) 0.5614(2)
H23 H 0.2771 1.0278 0.5587
H24 H 0.3143 0.9823 0.5383
C29 C 0.32214(15) 1.0974(3) 0.5371(2)
H25 H 0.3503 1.0927 0.5360
H26 H 0.3158 1.1397 0.5633
C30 C 0.30755(17) 1.1157(3) 0.4759(2)
H27 H 0.2796 1.1248 0.4777
H28 H 0.3199 1.1627 0.4624
C31 C 0.31527(16) 1.0547(3) 0.4329(2)
H29 H 0.3429 1.0455 0.4308
H30 H 0.3058 1.0701 0.3948
H31 H 0.3022 1.0086 0.4451
C32 C 0.33248(12) 1.0225(2) 0.7347(2)
H32 H 0.3361 1.0636 0.7064
H33 H 0.3241 1.0447 0.7719
C33 C 0.39497(10) 1.0006(2) 0.78212(16)
C34 C 0.42642(10) 0.9436(2) 0.78848(16)
C35 C 0.45009(10) 0.92662(19) 0.74340(15)
C36 C 0.47733(10) 0.8683(2) 0.74937(16)
H34 H 0.4946 0.8580 0.7186
C37 C 0.47896(10) 0.8273(2) 0.79835(17)
H35 H 0.4969 0.7873 0.8009
C38 C 0.45499(10) 0.8418(2) 0.84580(16)
C39 C 0.45857(9) 0.8004(2) 0.89945(14)
C40 C 0.43717(11) 0.8261(2) 0.94533(17)
C41 C 0.41201(12) 0.8871(2) 0.94095(17)
H36 H 0.3980 0.9024 0.9742
C42 C 0.40726(11) 0.9241(2) 0.89184(17)
H37 H 0.3894 0.9642 0.8896
C43 C 0.42912(10) 0.9032(2) 0.84224(16)
C44 C 0.47596(13) 0.9613(2) 0.65121(17)
H38 H 0.4763 0.9094 0.6358
H39 H 0.5010 0.9715 0.6695
C45 C 0.46923(14) 1.0163(2) 0.60249(17)
H40 H 0.4676 1.0676 0.6189
H41 H 0.4915 1.0149 0.5761
C46 C 0.43389(15) 1.0013(3) 0.5681(2)
H42 H 0.4112 1.0075 0.5933
H43 H 0.4343 0.9488 0.5540
C47 C 0.43071(15) 1.0547(3) 0.5163(2)
H44 H 0.4265 1.1061 0.5303
H45 H 0.4092 1.0395 0.4919
H46 H 0.4544 1.0528 0.4937
C48 C 0.48019(10) 0.7266(2) 0.90501(16)
H47 H 0.5033 0.7265 0.8796
C49 C 0.49125(12) 0.7148(3) 0.96755(18)
H48 H 0.5096 0.7540 0.9801
H49 H 0.5034 0.6650 0.9725
C50 C 0.45410(13) 0.7194(2) 1.00389(18)
H50 H 0.4607 0.7085 1.0452
C51 C 0.45353(10) 0.6621(2) 0.88938(17)
C52 C 0.45372(10) 0.6238(2) 0.83350(17)
C53 C 0.48252(10) 0.6327(2) 0.79164(17)
H51 H 0.5027 0.6671 0.7991
C54 C 0.48264(11) 0.5946(2) 0.74164(17)
H52 H 0.5036 0.6004 0.7159
C55 C 0.45209(10) 0.5454(2) 0.72603(17)
C56 C 0.42279(11) 0.5353(2) 0.76562(18)
C57 C 0.42309(11) 0.5721(2) 0.82026(18)
C58 C 0.39570(11) 0.5561(2) 0.86323(18)
H53 H 0.3751 0.5231 0.8547
C59 C 0.39834(13) 0.5870(2) 0.91596(19)
H54 H 0.3804 0.5734 0.9451
C60 C 0.42784(12) 0.6403(2) 0.92908(17)
C61 C 0.48331(12) 0.5112(2) 0.63828(19)
H55 H 0.5067 0.4975 0.6601
H56 H 0.4865 0.5630 0.6233
C62 C 0.47775(13) 0.4573(3) 0.5882(2)
H57 H 0.5021 0.4536 0.5665
H58 H 0.4721 0.4068 0.6041
C63 C 0.44655(15) 0.4782(3) 0.5467(2)
H59 H 0.4220 0.4815 0.5679
H60 H 0.4521 0.5285 0.5303
C64 C 0.4426(2) 0.4236(3) 0.4990(2)
H61 H 0.4664 0.4221 0.4765
H62 H 0.4214 0.4388 0.4737
H63 H 0.4374 0.3736 0.5150
C65 C 0.38745(12) 0.4897(2) 0.74633(19)
C66 C 0.3376(5) 0.3319(8) 0.4928(10)
H64 H 0.3307 0.3022 0.5270
H65 H 0.3649 0.3251 0.4845
H66 H 0.3225 0.3151 0.4596
O11 O 0.37480(10) 0.83037(17) 0.69372(15)
O12 O 0.38648(10) 0.67633(17) 0.68396(17)
C67 C 0.3716(2) 0.7088(3) 0.7345(3)
H67 H 0.3928 0.7180 0.7620
H68 H 0.3538 0.6726 0.7529
C68 C 0.3517(2) 0.7782(3) 0.7247(3)
H69 H 0.3281 0.7681 0.7024
H70 H 0.3443 0.8003 0.7624
C69 C 0.3916(3) 0.7977(3) 0.6453(3)
H71 H 0.4108 0.8331 0.6297
H72 H 0.3716 0.7910 0.6153
C70 C 0.4095(2) 0.7275(4) 0.6548(3)
H73 H 0.4169 0.7057 0.6170
H74 H 0.4332 0.7356 0.6775
O13 O 0.3107(2) 0.6811(5) 0.9164(4)
O14 O 0.3392(3) 0.7704(5) 1.0073(5)
C71 C 0.3132(3) 0.7005(4) 1.0183(4)
H75 H 0.3206 0.6763 1.0553
H76 H 0.2862 0.7168 1.0216
C72 C 0.31652(17) 0.6503(3) 0.9746(3)
H77 H 0.2977 0.6095 0.9809
H78 H 0.3423 0.6276 0.9764
C73 C 0.3347(3) 0.7525(5) 0.9110(4)
H79 H 0.3621 0.7386 0.9099
H80 H 0.3284 0.7776 0.8738
C74 C 0.32898(16) 0.8007(3) 0.9540(2)
H81 H 0.3017 0.8152 0.9549
H82 H 0.3442 0.8467 0.9468
O15 O 0.10304(11) 0.75305(17) 0.86240(17)
O16 O 0.03049(9) 0.80947(17) 0.88612(14)
C75 C 0.09867(14) 0.8253(3) 0.8857(2)
H83 H 0.1197 0.8580 0.8720
H84 H 0.1000 0.8228 0.9285
C76 C 0.06098(13) 0.8583(3) 0.8677(2)
H85 H 0.0578 0.9085 0.8855
H86 H 0.0603 0.8642 0.8251
C77 C 0.07336(16) 0.7054(3) 0.8825(3)
H87 H 0.0745 0.7014 0.9252
H88 H 0.0766 0.6544 0.8661
C78 C 0.03496(17) 0.7372(3) 0.8644(3)
H89 H 0.0333 0.7383 0.8216
H90 H 0.0142 0.7045 0.8791
O17 O 0.43803(8) 0.23497(16) 0.69591(16)
O18 O 0.36382(9) 0.2434(2) 0.65022(17)
C79 C 0.41588(14) 0.3022(2) 0.7004(2)
H91 H 0.4330 0.3466 0.7011
H92 H 0.4008 0.3017 0.7367
C80 C 0.38968(16) 0.3068(3) 0.6494(3)
H93 H 0.3749 0.3542 0.6509
H94 H 0.4048 0.3064 0.6132
C81 C 0.41265(14) 0.1730(3) 0.6978(2)
H95 H 0.3973 0.1747 0.7338
H96 H 0.4273 0.1254 0.6973
C82 C 0.38683(17) 0.1768(3) 0.6461(3)
H97 H 0.4023 0.1782 0.6102
H98 H 0.3702 0.1318 0.6448
C83? C 0.3005(5) 0.3444(11) 0.5080(9)
H99? H 0.3104 0.2965 0.5228
H100? H 0.2884 0.3363 0.4702
H101? H 0.2816 0.3646 0.5352
loop_
_geom_bond_atom_site_label_1
_geom_bond_atom_site_label_2
_geom_bond_site_symmetry_1
_geom_bond_site_symmetry_2
N1 H1 1_555 1_555
N2 H2 1_555 1_555
O1 C11 1_555 1_555
O2 C6 1_555 1_555
O3 C15 1_555 1_555
O4 C26 1_555 1_555
O5 C33 1_555 1_555
O6 C35 1_555 1_555
O7 C40 1_555 1_555
O8 C50 1_555 1_555
O9 C55 1_555 1_555
O10 C65 1_555 1_555
C1 N1 1_555 1_555
H3 C1 1_555 1_555
H4 C1 1_555 1_555
C2 C1 1_555 1_555
C3 C2 1_555 1_555
C4 C3 1_555 1_555
H5 C4 1_555 1_555
C5 C4 1_555 1_555
H6 C5 1_555 1_555
C6 C5 1_555 1_555
C7 C6 1_555 1_555
C8 C3 1_555 1_555
C9 C8 1_555 1_555
H7 C9 1_555 1_555
C10 C9 1_555 1_555
H8 C10 1_555 1_555
C11 C2 1_555 1_555
C12 O1 1_555 1_555
H9 C12 1_555 1_555
H10 C12 1_555 1_555
C13 C12 1_555 1_555
H11 C13 1_555 1_555
H12 C13 1_555 1_555
C14 C13 1_555 1_555
H13 C14 1_555 1_555
H14 C14 1_555 1_555
C15 O2 1_555 1_555
H15 C15 1_555 1_555
C16 C15 1_555 1_555
H16 C16 1_555 1_555
H17 C16 1_555 1_555
C17 C7 1_555 1_555
H18 C17 1_555 1_555
C18 C17 1_555 1_555
C19 O3 1_555 1_555
C20 C19 1_555 1_555
H19 C20 1_555 1_555
C21 C20 1_555 1_555
H20 C21 1_555 1_555
C22 C21 1_555 1_555
C23 C18 1_555 1_555
C24 C23 1_555 1_555
H21 C24 1_555 1_555
C25 C24 1_555 1_555
H22 C25 1_555 1_555
C26 C25 1_555 1_555
C27 C22 1_555 1_555
C28 O4 1_555 1_555
H23 C28 1_555 1_555
H24 C28 1_555 1_555
C29 C28 1_555 1_555
H25 C29 1_555 1_555
H26 C29 1_555 1_555
C30 C29 1_555 1_555
H27 C30 1_555 1_555
H28 C30 1_555 1_555
C31 C30 1_555 1_555
H29 C31 1_555 1_555
H30 C31 1_555 1_555
H31 C31 1_555 1_555
C32 N2 1_555 1_555
H32 C32 1_555 1_555
H33 C32 1_555 1_555
C33 N2 1_555 1_555
C34 C33 1_555 1_555
C35 C34 1_555 1_555
C36 C35 1_555 1_555
H34 C36 1_555 1_555
C37 C36 1_555 1_555
H35 C37 1_555 1_555
C38 C37 1_555 1_555
C39 C38 1_555 1_555
C40 C39 1_555 1_555
C41 C40 1_555 1_555
H36 C41 1_555 1_555
C42 C41 1_555 1_555
H37 C42 1_555 1_555
C43 C34 1_555 1_555
C44 O6 1_555 1_555
H38 C44 1_555 1_555
H39 C44 1_555 1_555
C45 C44 1_555 1_555
H40 C45 1_555 1_555
H41 C45 1_555 1_555
C46 C45 1_555 1_555
H42 C46 1_555 1_555
H43 C46 1_555 1_555
C47 C46 1_555 1_555
H44 C47 1_555 1_555
H45 C47 1_555 1_555
H46 C47 1_555 1_555
C48 C39 1_555 1_555
H47 C48 1_555 1_555
C49 C48 1_555 1_555
H48 C49 1_555 1_555
H49 C49 1_555 1_555
C50 O7 1_555 1_555
H50 C50 1_555 1_555
C51 C48 1_555 1_555
C52 C51 1_555 1_555
C53 C52 1_555 1_555
H51 C53 1_555 1_555
C54 C53 1_555 1_555
H52 C54 1_555 1_555
C55 C54 1_555 1_555
C56 C55 1_555 1_555
C57 C52 1_555 1_555
C58 C57 1_555 1_555
H53 C58 1_555 1_555
C59 C58 1_555 1_555
H54 C59 1_555 1_555
C60 O8 1_555 1_555
C61 O9 1_555 1_555
H55 C61 1_555 1_555
H56 C61 1_555 1_555
C62 C61 1_555 1_555
H57 C62 1_555 1_555
H58 C62 1_555 1_555
C63 C62 1_555 1_555
H59 C63 1_555 1_555
H60 C63 1_555 1_555
C64 C63 1_555 1_555
H61 C64 1_555 1_555
H62 C64 1_555 1_555
H63 C64 1_555 1_555
C65 N1 1_555 1_555
C66 C14 1_555 1_555
H64 C66 1_555 1_555
H65 C66 1_555 1_555
H66 C66 1_555 1_555
O11 C68 1_555 1_555
O12 C67 1_555 1_555
C67 H67 1_555 1_555
H68 C67 1_555 1_555
C68 C67 1_555 1_555
H69 C68 1_555 1_555
H70 C68 1_555 1_555
C69 O11 1_555 1_555
H71 C69 1_555 1_555
H72 C69 1_555 1_555
C70 O12 1_555 1_555
H73 C70 1_555 1_555
H74 C70 1_555 1_555
O13 C72 1_555 1_555
O14 C71 1_555 1_555
C71 H75 1_555 1_555
H76 C71 1_555 1_555
C72 C71 1_555 1_555
H77 C72 1_555 1_555
H78 C72 1_555 1_555
C73 O13 1_555 1_555
H79 C73 1_555 1_555
H80 C73 1_555 1_555
C74 O14 1_555 1_555
H81 C74 1_555 1_555
H82 C74 1_555 1_555
O15 C75 1_555 1_555
O16 C76 1_555 1_555
C75 H83 1_555 1_555
H84 C75 1_555 1_555
C76 C75 1_555 1_555
H85 C76 1_555 1_555
H86 C76 1_555 1_555
C77 O15 1_555 1_555
H87 C77 1_555 1_555
H88 C77 1_555 1_555
C78 O16 1_555 1_555
H89 C78 1_555 1_555
H90 C78 1_555 1_555
O17 C79 1_555 1_555
O18 C80 1_555 1_555
C79 H91 1_555 1_555
H92 C79 1_555 1_555
C80 C79 1_555 1_555
H93 C80 1_555 1_555
H94 C80 1_555 1_555
C81 O17 1_555 1_555
H95 C81 1_555 1_555
H96 C81 1_555 1_555
C82 O18 1_555 1_555
H97 C82 1_555 1_555
H98 C82 1_555 1_555
C7 C8 1_555 1_555
C10 C11 1_555 1_555
C16 C17 1_555 1_555
C18 C19 1_555 1_555
C22 C23 1_555 1_555
C26 C27 1_555 1_555
C27 C32 1_555 1_555
C38 C43 1_555 1_555
C42 C43 1_555 1_555
C49 C50 1_555 1_555
C51 C60 1_555 1_555
C56 C57 1_555 1_555
C56 C65 1_555 1_555
C59 C60 1_555 1_555
C69 C70 1_555 1_555
C73 C74 1_555 1_555
C77 C78 1_555 1_555
C81 C82 1_555 1_555

#END
