
#######################################################################
#
#                 Cambridge Crystallographic Data Centre
#                                CCDC 
#
#######################################################################
#
# If this CIF has been generated from an entry in the Cambridge 
# Structural Database, then it will include bibliographic, chemical, 
# crystal, experimental, refinement or atomic coordinate data resulting 
# from the CCDC's data processing and validation procedures.
#
#######################################################################

data_DAJKEG
_chemical_formula_moiety         'C15 H15 I1'
_chemical_name_systematic        2-Iodo-3-(phenylethynyl)bicyclo[2.2.1]heptane
_symmetry_cell_setting           monoclinic
_symmetry_space_group_name_H-M   'P 21/c'
_symmetry_Int_Tables_number      14
_space_group_name_Hall           '-P 2ybc'
loop_
_symmetry_equiv_pos_site_id
_symmetry_equiv_pos_as_xyz
1 x,y,z
2 -x,1/2+y,1/2-z
3 -x,-y,-z
4 x,1/2-y,1/2+z
_cell_length_a                   8.0942(10)
_cell_length_b                   34.437(4)
_cell_length_c                   9.1647(11)
_cell_angle_alpha                90
_cell_angle_beta                 90.491(2)
_cell_angle_gamma                90
_cell_volume                     2554.47
_exptl_crystal_colour            colorless
_exptl_crystal_description       plate
_cell_formula_units_Z            8
loop_
_atom_site_label
_atom_site_type_symbol
_atom_site_fract_x
_atom_site_fract_y
_atom_site_fract_z
I1 I 0.37177(10) 0.45633(3) 0.11669(10)
C1 C 0.9147(18) 0.4453(4) 0.1638(17)
H1 H 0.9290 0.4627 0.0787
H2 H 0.9906 0.4537 0.2431
C2 C 0.7332(15) 0.4453(4) 0.2157(17)
H3 H 0.7010 0.4685 0.2750
C3 C 0.6250(16) 0.4379(4) 0.0819(16)
H4 H 0.6706 0.4530 -0.0017
C4 C 0.6490(17) 0.3931(4) 0.0496(14)
H5 H 0.6942 0.3894 -0.0507
C5 C 0.7828(16) 0.3828(4) 0.1667(16)
H6 H 0.7938 0.3544 0.1876
C6 C 0.9452(16) 0.4029(4) 0.1223(16)
H7 H 1.0408 0.3921 0.1767
H8 H 0.9649 0.4002 0.0163
C7 C 0.7273(17) 0.4071(4) 0.2960(15)
H9 H 0.6147 0.4004 0.3288
H10 H 0.8060 0.4060 0.3792
C8 C 0.5030(19) 0.3689(4) 0.0697(15)
C9 C 0.3928(17) 0.3474(4) 0.0901(16)
C10 C 0.2491(17) 0.3233(4) 0.1271(15)
C11 C 0.2203(18) 0.3152(5) 0.2746(17)
H11 H 0.2921 0.3253 0.3477
C12 C 0.086(2) 0.2922(5) 0.313(2)
H12 H 0.0654 0.2866 0.4130
C13 C -0.0171(19) 0.2776(5) 0.204(2)
H13 H -0.1077 0.2615 0.2300
C14 C 0.0098(18) 0.2861(4) 0.0591(19)
H14 H -0.0621 0.2763 -0.0146
C15 C 0.1427(19) 0.3090(4) 0.0231(16)
H15 H 0.1612 0.3150 -0.0765
I2 I -0.12437(11) 0.45507(3) 0.68771(11)
C16 C 0.4151(17) 0.4458(4) 0.6218(16)
H16 H 0.4338 0.4634 0.7059
H17 H 0.4857 0.4542 0.5399
C17 C 0.2331(17) 0.4452(4) 0.5767(16)
H18 H 0.1963 0.4684 0.5192
C18 C 0.1305(15) 0.4372(4) 0.7140(15)
H19 H 0.1801 0.4520 0.7973
C19 C 0.1566(16) 0.3928(4) 0.7432(15)
H20 H 0.2053 0.3887 0.8426
C20 C 0.2874(16) 0.3829(4) 0.6227(15)
H21 H 0.2986 0.3545 0.6015
C21 C 0.4499(17) 0.4030(4) 0.6639(16)
H22 H 0.5434 0.3924 0.6077
H23 H 0.4741 0.4005 0.7695
C22 C 0.2208(16) 0.4069(4) 0.4948(15)
H24 H 0.2929 0.4059 0.4082
H25 H 0.1059 0.4000 0.4675
C23 C 0.0119(19) 0.3685(4) 0.7230(15)
C24 C -0.1023(17) 0.3474(4) 0.7029(16)
C25 C -0.2477(17) 0.3234(4) 0.6699(16)
C26 C -0.351(2) 0.3099(4) 0.7754(17)
H26 H -0.3287 0.3160 0.8747
C27 C -0.487(2) 0.2874(5) 0.740(2)
H27 H -0.5594 0.2786 0.8148
C28 C -0.518(2) 0.2779(5) 0.597(2)
H28 H -0.6090 0.2615 0.5737
C29 C -0.418(2) 0.2917(5) 0.487(2)
H29 H -0.4438 0.2860 0.3879
C30 C -0.2823(18) 0.3136(5) 0.5221(18)
H30 H -0.2107 0.3223 0.4473
loop_
_geom_bond_atom_site_label_1
_geom_bond_atom_site_label_2
_geom_bond_site_symmetry_1
_geom_bond_site_symmetry_2
I1 C3 1_555 1_555
I2 C18 1_555 1_555
C1 H1 1_555 1_555
H2 C1 1_555 1_555
C2 C1 1_555 1_555
H3 C2 1_555 1_555
C3 C2 1_555 1_555
H4 C3 1_555 1_555
C4 C3 1_555 1_555
H5 C4 1_555 1_555
C5 C4 1_555 1_555
H6 C5 1_555 1_555
C6 C1 1_555 1_555
H7 C6 1_555 1_555
H8 C6 1_555 1_555
C7 C2 1_555 1_555
H9 C7 1_555 1_555
H10 C7 1_555 1_555
C8 C4 1_555 1_555
C9 C8 1_555 1_555
C10 C9 1_555 1_555
C11 C10 1_555 1_555
H11 C11 1_555 1_555
C12 C11 1_555 1_555
H12 C12 1_555 1_555
C13 C12 1_555 1_555
H13 C13 1_555 1_555
C14 C13 1_555 1_555
H14 C14 1_555 1_555
C15 C10 1_555 1_555
H15 C15 1_555 1_555
C16 H16 1_555 1_555
H17 C16 1_555 1_555
C17 C16 1_555 1_555
H18 C17 1_555 1_555
C18 C17 1_555 1_555
H19 C18 1_555 1_555
C19 C18 1_555 1_555
H20 C19 1_555 1_555
C20 C19 1_555 1_555
H21 C20 1_555 1_555
C21 C16 1_555 1_555
H22 C21 1_555 1_555
H23 C21 1_555 1_555
C22 C17 1_555 1_555
H24 C22 1_555 1_555
H25 C22 1_555 1_555
C23 C19 1_555 1_555
C24 C23 1_555 1_555
C25 C24 1_555 1_555
C26 C25 1_555 1_555
H26 C26 1_555 1_555
C27 C26 1_555 1_555
H27 C27 1_555 1_555
C28 C27 1_555 1_555
H28 C28 1_555 1_555
C29 C28 1_555 1_555
H29 C29 1_555 1_555
C30 C25 1_555 1_555
H30 C30 1_555 1_555
C5 C6 1_555 1_555
C5 C7 1_555 1_555
C14 C15 1_555 1_555
C20 C21 1_555 1_555
C20 C22 1_555 1_555
C29 C30 1_555 1_555

#END
