
#######################################################################
#
#                 Cambridge Crystallographic Data Centre
#                                CCDC 
#
#######################################################################
#
# If this CIF has been generated from an entry in the Cambridge 
# Structural Database, then it will include bibliographic, chemical, 
# crystal, experimental, refinement or atomic coordinate data resulting 
# from the CCDC's data processing and validation procedures.
#
#######################################################################

data_DAJKUW
_chemical_formula_moiety         'C24 H24 N2 O8'
_chemical_name_systematic        
'7-(Acetoxymethyl)-4-(3-nitrophenyl)-2-phenyl-4a,6,7,8a-tetrahydro-4H,5H-pyrano[3,2-e][1,3]oxazin-6-yl acetate'
_symmetry_cell_setting           monoclinic
_symmetry_space_group_name_H-M   'P 21'
_symmetry_Int_Tables_number      4
_space_group_name_Hall           'P 2yb'
loop_
_symmetry_equiv_pos_site_id
_symmetry_equiv_pos_as_xyz
1 x,y,z
2 -x,1/2+y,-z
_cell_length_a                   11.367(2)
_cell_length_b                   9.0168(18)
_cell_length_c                   11.449(2)
_cell_angle_alpha                90
_cell_angle_beta                 94.36(3)
_cell_angle_gamma                90
_cell_volume                     1170.06
_exptl_crystal_colour            colorless
_exptl_crystal_description       block
_cell_formula_units_Z            2
loop_
_atom_site_label
_atom_site_type_symbol
_atom_site_fract_x
_atom_site_fract_y
_atom_site_fract_z
O1 O 0.6663(4) 0.0909(5) 0.9855(3)
O2 O 0.5847(4) -0.1011(5) 1.0595(3)
O3 O 0.3078(3) 0.3703(3) 0.4349(2)
O4 O 0.2545(3) 0.5397(3) 0.5694(2)
O5 O 0.0158(3) 0.3126(3) 0.6689(3)
O6 O 0.0364(3) 0.2463(5) 0.8572(3)
O7 O 0.0896(3) 0.6679(3) 0.7174(3)
O8 O 0.0280(4) 0.8956(4) 0.6728(4)
N1 N 0.5959(4) -0.0113(6) 0.9801(4)
N2 N 0.4006(3) 0.1419(4) 0.4819(3)
C1 C 0.3091(3) 0.1873(5) 0.2897(3)
C2 C 0.2158(4) 0.2441(7) 0.0987(4)
H1 H 0.1715 0.3085 0.0496
C3 C 0.2428(4) 0.2807(5) 0.2148(4)
H2 H 0.2159 0.3701 0.2433
C4 C 0.2550(5) 0.1116(6) 0.0564(4)
H3 H 0.2377 0.0866 -0.0219
C5 C 0.3193(5) 0.0167(6) 0.1290(4)
H4 H 0.3443 -0.0735 0.1002
C6 C 0.3476(4) 0.0536(6) 0.2448(4)
H5 H 0.3926 -0.0111 0.2931
C7 C 0.4461(3) 0.0631(5) 0.6855(3)
C8 C 0.3878(4) -0.0708(5) 0.6637(4)
H6 H 0.3434 -0.0852 0.5929
C9 C 0.3956(4) -0.1834(6) 0.7469(5)
H7 H 0.3557 -0.2723 0.7319
C10 C 0.4621(5) -0.1639(5) 0.8513(4)
H8 H 0.4669 -0.2381 0.9079
C11 C 0.5210(4) -0.0325(5) 0.8698(4)
C12 C 0.5141(3) 0.0808(5) 0.7895(3)
H9 H 0.5550 0.1688 0.8052
C13 C 0.3444(4) 0.2300(5) 0.4108(3)
C14 C 0.4327(4) 0.1929(5) 0.6012(3)
H10 H 0.5096 0.2420 0.6012
C15 C 0.3434(3) 0.3082(5) 0.6409(3)
H11 H 0.3738 0.3496 0.7164
C16 C 0.3388(4) 0.4297(5) 0.5506(3)
H12 H 0.4167 0.4763 0.5513
C17 C 0.1360(4) 0.4847(4) 0.5790(4)
H13 H 0.1080 0.4384 0.5046
C18 C 0.1363(4) 0.3698(4) 0.6748(4)
H14 H 0.1565 0.4157 0.7512
C19 C 0.2211(3) 0.2438(5) 0.6542(3)
H15 H 0.1942 0.1898 0.5840
H16 H 0.2241 0.1755 0.7199
C20 C -0.0239(5) 0.2552(5) 0.7670(5)
C21 C -0.1462(4) 0.2029(6) 0.7457(5)
H17 H -0.1724 0.1618 0.8166
H18 H -0.1500 0.1282 0.6858
H19 H -0.1962 0.2846 0.7208
C22 C 0.0608(4) 0.6187(5) 0.5988(4)
H20 H 0.0769 0.6967 0.5439
H21 H -0.0222 0.5930 0.5877
C23 C 0.0665(4) 0.8079(5) 0.7445(4)
C24 C 0.0977(5) 0.8384(7) 0.8693(5)
H22 H 0.0803 0.9401 0.8859
H23 H 0.1803 0.8203 0.8871
H24 H 0.0528 0.7747 0.9163
loop_
_geom_bond_atom_site_label_1
_geom_bond_atom_site_label_2
_geom_bond_site_symmetry_1
_geom_bond_site_symmetry_2
O1 N1 1_555 1_555
O2 N1 1_555 1_555
O3 C13 1_555 1_555
O4 C16 1_555 1_555
O5 C18 1_555 1_555
O6 C20 1_555 1_555
O7 C22 1_555 1_555
O8 C23 1_555 1_555
N1 C11 1_555 1_555
N2 C13 1_555 1_555
C1 C3 1_555 1_555
C2 H1 1_555 1_555
C3 C2 1_555 1_555
H2 C3 1_555 1_555
C4 C2 1_555 1_555
H3 C4 1_555 1_555
C5 C4 1_555 1_555
H4 C5 1_555 1_555
C6 C1 1_555 1_555
H5 C6 1_555 1_555
C7 C8 1_555 1_555
C8 H6 1_555 1_555
C9 C8 1_555 1_555
H7 C9 1_555 1_555
C10 C9 1_555 1_555
H8 C10 1_555 1_555
C11 C10 1_555 1_555
C12 C7 1_555 1_555
H9 C12 1_555 1_555
C13 C1 1_555 1_555
C14 N2 1_555 1_555
H10 C14 1_555 1_555
C15 C14 1_555 1_555
H11 C15 1_555 1_555
C16 O3 1_555 1_555
H12 C16 1_555 1_555
C17 O4 1_555 1_555
H13 C17 1_555 1_555
C18 C17 1_555 1_555
H14 C18 1_555 1_555
C19 C15 1_555 1_555
H15 C19 1_555 1_555
H16 C19 1_555 1_555
C20 O5 1_555 1_555
C21 C20 1_555 1_555
H17 C21 1_555 1_555
H18 C21 1_555 1_555
H19 C21 1_555 1_555
C22 C17 1_555 1_555
H20 C22 1_555 1_555
H21 C22 1_555 1_555
C23 O7 1_555 1_555
C24 C23 1_555 1_555
H22 C24 1_555 1_555
H23 C24 1_555 1_555
H24 C24 1_555 1_555
C5 C6 1_555 1_555
C7 C14 1_555 1_555
C11 C12 1_555 1_555
C15 C16 1_555 1_555
C18 C19 1_555 1_555

#END
