
#######################################################################
#
#                 Cambridge Crystallographic Data Centre
#                                CCDC 
#
#######################################################################
#
# If this CIF has been generated from an entry in the Cambridge 
# Structural Database, then it will include bibliographic, chemical, 
# crystal, experimental, refinement or atomic coordinate data resulting 
# from the CCDC's data processing and validation procedures.
#
#######################################################################

data_DAJQUC
_chemical_formula_moiety         'C46 H42 N6 O2 2+,4(H2 O1),2(Cl1 1-)'
_chemical_name_systematic        
"3-((1-oxide-pyridin-2-yl)methyl)-1-(2'-(1-((1-oxide-pyridin-2-yl)methyl)-1H-3,1-benzimidazol-3-ium-3-yl)-5,5',6,6',7,7',8,8'-octahydro-1,1'-binaphthalen-2-yl)-1H-benzimidazol-3-ium dichloride tetrahydrate"
_symmetry_cell_setting           orthorhombic
_symmetry_space_group_name_H-M   'P 21 21 21'
_symmetry_Int_Tables_number      19
_space_group_name_Hall           'P 2ac 2ab'
loop_
_symmetry_equiv_pos_site_id
_symmetry_equiv_pos_as_xyz
1 x,y,z
2 1/2+x,1/2-y,-z
3 -x,1/2+y,1/2-z
4 1/2-x,-y,1/2+z
_cell_length_a                   19.1351(18)
_cell_length_b                   19.6674(18)
_cell_length_c                   22.295(2)
_cell_angle_alpha                90
_cell_angle_beta                 90
_cell_angle_gamma                90
_cell_volume                     8390.45
_exptl_crystal_colour            colorless
_exptl_crystal_description       prism
_cell_formula_units_Z            8
loop_
_atom_site_label
_atom_site_type_symbol
_atom_site_fract_x
_atom_site_fract_y
_atom_site_fract_z
Cl1 Cl 0.52992(4) 0.68016(4) 0.44271(3)
Cl2 Cl 0.50987(4) 0.68347(4) 0.20152(3)
Cl3 Cl 0.96367(5) 0.26609(4) 0.36828(4)
Cl4 Cl 0.41954(6) 0.68459(7) 0.66670(5)
O1 O 0.97485(12) 0.49633(11) 0.40656(9)
O2 O 0.53809(13) 0.45851(12) 0.40426(10)
N1 N 0.79054(12) 0.41095(11) 0.36130(10)
N2 N 0.71501(12) 0.56608(11) 0.39454(10)
N3 N 0.88835(13) 0.42308(12) 0.31153(10)
N4 N 0.98410(13) 0.53482(12) 0.35887(10)
N5 N 0.61725(12) 0.57034(11) 0.34420(10)
N6 N 0.52400(14) 0.44500(13) 0.34828(11)
C1 C 0.73228(14) 0.43694(13) 0.45826(12)
C2 C 0.74074(15) 0.39545(13) 0.40798(12)
C3 C 0.69968(16) 0.33792(14) 0.39878(13)
H17 H 0.7080 0.3093 0.3652
C4 C 0.64713(15) 0.32284(14) 0.43852(12)
H18 H 0.6186 0.2840 0.4318
C5 C 0.63491(15) 0.36379(14) 0.48873(12)
C6 C 0.67885(14) 0.41983(13) 0.49955(12)
C7 C 0.66854(16) 0.46201(14) 0.55593(12)
H19 H 0.7148 0.4740 0.5728
H20 H 0.6442 0.5048 0.5454
C8 C 0.6268(2) 0.4248(2) 0.60248(15)
H21 H 0.6568 0.3892 0.6205
H22 H 0.6143 0.4571 0.6347
C9 C 0.5635(2) 0.3931(2) 0.58076(19)
H23 H 0.5302 0.4292 0.5687
H24 H 0.5418 0.3672 0.6140
C10 C 0.57448(17) 0.34660(16) 0.52918(13)
H25 H 0.5313 0.3460 0.5048
H26 H 0.5816 0.3001 0.5449
C11 C 0.77801(14) 0.49790(13) 0.46991(11)
C12 C 0.76579(14) 0.56024(13) 0.44202(12)
C13 C 0.80422(16) 0.61802(14) 0.45464(13)
H27 H 0.7942 0.6598 0.4351
C14 C 0.85759(16) 0.61363(14) 0.49627(12)
H28 H 0.8845 0.6529 0.5054
C15 C 0.87252(14) 0.55247(13) 0.52506(12)
C16 C 0.83306(14) 0.49422(13) 0.51193(11)
C17 C 0.85163(15) 0.42659(14) 0.54078(12)
H29 H 0.8750 0.3974 0.5106
H30 H 0.8081 0.4034 0.5533
C18 C 0.89934(17) 0.43414(16) 0.59510(13)
H31 H 0.8725 0.4532 0.6291
H32 H 0.9172 0.3889 0.6072
C19 C 0.96023(16) 0.48056(15) 0.58056(13)
H33 H 0.9851 0.4638 0.5445
H34 H 0.9936 0.4813 0.6145
C20 C 0.93219(15) 0.55182(14) 0.56920(12)
H35 H 0.9161 0.5716 0.6076
H36 H 0.9705 0.5808 0.5537
C21 C 0.85987(16) 0.41466(14) 0.36570(12)
H37 H 0.8854 0.4117 0.4022
C22 C 0.77220(16) 0.41560(13) 0.30038(12)
C23 C 0.83492(16) 0.42325(13) 0.26893(12)
C24 C 0.83574(18) 0.42816(15) 0.20650(13)
H38 H 0.8780 0.4333 0.1846
C25 C 0.77161(19) 0.42506(16) 0.17837(14)
H39 H 0.7699 0.4278 0.1359
C26 C 0.70891(19) 0.41799(16) 0.21014(14)
H40 H 0.6660 0.4163 0.1887
C27 C 0.70810(18) 0.41336(15) 0.27204(13)
H41 H 0.6657 0.4089 0.2939
C28 C 0.96372(16) 0.43293(14) 0.29921(13)
H42 H 0.9751 0.4154 0.2588
H43 H 0.9918 0.4074 0.3289
C29 C 0.98116(15) 0.50728(14) 0.30272(12)
C30 C 0.99225(16) 0.54805(15) 0.25317(13)
H44 H 0.9907 0.5287 0.2142
C31 C 1.00557(18) 0.61698(15) 0.25976(14)
H45 H 1.0143 0.6450 0.2259
C32 C 1.00570(18) 0.64370(16) 0.31715(15)
H46 H 1.0130 0.6910 0.3229
C33 C 0.99534(17) 0.60218(15) 0.36598(14)
H47 H 0.9961 0.6211 0.4052
C34 C 0.64595(15) 0.55882(13) 0.39753(13)
H48 H 0.6208 0.5471 0.4328
C35 C 0.73274(16) 0.58439(13) 0.33560(12)
C36 C 0.67035(15) 0.58676(13) 0.30367(12)
C37 C 0.66898(17) 0.60295(14) 0.24265(12)
H49 H 0.6265 0.6048 0.2206
C38 C 0.73207(17) 0.61590(16) 0.21637(13)
H50 H 0.7333 0.6261 0.1747
C39 C 0.79532(18) 0.61473(17) 0.24863(13)
H51 H 0.8377 0.6253 0.2286
C40 C 0.79691(17) 0.59838(15) 0.30914(13)
H52 H 0.8394 0.5968 0.3312
C41 C 0.54267(15) 0.56564(15) 0.32936(13)
H53 H 0.5311 0.5998 0.2983
H54 H 0.5145 0.5758 0.3655
C42 C 0.52462(16) 0.49590(15) 0.30677(13)
C43 C 0.50863(19) 0.48202(19) 0.24793(14)
H55 H 0.5077 0.5177 0.2192
C44 C 0.4939(2) 0.4158(2) 0.23052(16)
H56 H 0.4831 0.4059 0.1899
C45 C 0.4950(2) 0.36478(19) 0.27244(17)
H57 H 0.4856 0.3192 0.2609
C46 C 0.50998(19) 0.37998(18) 0.33129(17)
H58 H 0.5105 0.3447 0.3604
O3 O 0.24796(12) 0.72788(11) 0.53892(9)
O4 O 0.25237(13) 0.31200(11) 0.54594(9)
N7 N 0.33484(12) 0.54102(11) 0.53429(10)
N8 N 0.16690(12) 0.48975(11) 0.50005(9)
N9 N 0.35072(12) 0.63261(11) 0.48086(9)
N10 N 0.23395(13) 0.73892(12) 0.48237(10)
N11 N 0.16694(13) 0.38952(11) 0.45704(10)
N12 N 0.28047(14) 0.29032(12) 0.49620(11)
C47 C 0.25656(15) 0.49036(13) 0.60853(11)
C48 C 0.32235(15) 0.49330(13) 0.58237(12)
C49 C 0.37427(16) 0.44650(14) 0.59495(13)
H59 H 0.4193 0.4506 0.5774
C50 C 0.35920(16) 0.39375(14) 0.63350(12)
H60 H 0.3945 0.3614 0.6425
C51 C 0.29351(16) 0.38684(14) 0.65947(11)
C52 C 0.24179(15) 0.43657(13) 0.64895(11)
C53 C 0.17095(16) 0.43218(14) 0.67822(12)
H61 H 0.1357 0.4200 0.6475
H62 H 0.1584 0.4774 0.6946
C54 C 0.16840(17) 0.37988(15) 0.72869(12)
H63 H 0.1946 0.3970 0.7639
H64 H 0.1193 0.3721 0.7410
C55 C 0.20044(18) 0.31352(15) 0.70702(13)
H65 H 0.1937 0.2777 0.7377
H66 H 0.1770 0.2987 0.6697
C56 C 0.27785(17) 0.32345(15) 0.69541(12)
H67 H 0.3026 0.3261 0.7343
H68 H 0.2961 0.2834 0.6735
C57 C 0.34059(15) 0.60851(14) 0.53606(12)
H69 H 0.3379 0.6354 0.5714
C58 C 0.34280(14) 0.51964(14) 0.47484(11)
C59 C 0.35270(14) 0.57844(13) 0.44087(11)
C60 C 0.36224(15) 0.57528(15) 0.37915(12)
H70 H 0.3701 0.6149 0.3558
C61 C 0.35967(16) 0.51102(15) 0.35359(13)
H71 H 0.3651 0.5068 0.3114
C62 C 0.34942(16) 0.45240(15) 0.38757(13)
H72 H 0.3481 0.4095 0.3681
C63 C 0.34113(15) 0.45545(14) 0.44919(13)
H73 H 0.3346 0.4156 0.4727
C64 C 0.35380(15) 0.70493(13) 0.46359(13)
H74 H 0.3901 0.7113 0.4325
H75 H 0.3669 0.7326 0.4989
C65 C 0.28523(15) 0.72829(13) 0.44007(12)
C66 C 0.27053(17) 0.73941(14) 0.38037(13)
H76 H 0.3060 0.7324 0.3512
C67 C 0.20459(18) 0.76075(16) 0.36222(14)
H77 H 0.1944 0.7677 0.3210
C68 C 0.15429(18) 0.77161(17) 0.40553(15)
H78 H 0.1090 0.7865 0.3941
C69 C 0.16944(17) 0.76092(16) 0.46510(15)
H79 H 0.1345 0.7690 0.4946
C70 C 0.20271(14) 0.54448(13) 0.59560(11)
C71 C 0.16014(14) 0.54265(13) 0.54520(11)
C72 C 0.10931(15) 0.59191(14) 0.53471(12)
H80 H 0.0792 0.5886 0.5009
C73 C 0.10343(16) 0.64528(14) 0.57396(12)
H81 H 0.0691 0.6792 0.5669
C74 C 0.14673(15) 0.65087(13) 0.62405(12)
C75 C 0.19579(15) 0.59949(13) 0.63590(12)
C76 C 0.24273(17) 0.60322(14) 0.69021(12)
H82 H 0.2894 0.6139 0.6774
H83 H 0.2439 0.5595 0.7094
C77 C 0.2190(4) 0.6563(3) 0.7356(2)
H84 H 0.2552 0.6626 0.7668
H85 H 0.1753 0.6413 0.7553
C78 C 0.2067(3) 0.7232(2) 0.7020(3)
H86 H 0.2476 0.7343 0.6766
H87 H 0.1994 0.7608 0.7308
C79 C 0.14136(18) 0.71357(14) 0.66288(13)
H88 H 0.1011 0.7098 0.6883
H89 H 0.1354 0.7528 0.6378
C80 C 0.16641(15) 0.42291(14) 0.50916(12)
H90 H 0.1658 0.4018 0.5475
C81 C 0.16730(15) 0.50103(14) 0.43767(11)
C82 C 0.16562(15) 0.43739(14) 0.41058(12)
C83 C 0.16244(16) 0.42885(16) 0.34899(12)
H91 H 0.1604 0.3851 0.3309
C84 C 0.16247(17) 0.48838(17) 0.31522(13)
H92 H 0.1594 0.4854 0.2728
C85 C 0.16689(16) 0.55231(17) 0.34217(13)
H93 H 0.1686 0.5915 0.3173
C86 C 0.16892(15) 0.56066(15) 0.40410(13)
H94 H 0.1712 0.6043 0.4223
C87 C 0.16816(16) 0.31494(14) 0.45038(13)
H95 H 0.1412 0.3017 0.4143
H96 H 0.1459 0.2936 0.4858
C88 C 0.24167(16) 0.28989(14) 0.44459(13)
C89 C 0.27203(18) 0.26849(15) 0.39143(14)
H97 H 0.2450 0.2677 0.3557
C90 C 0.34173(19) 0.24814(15) 0.38973(16)
H98 H 0.3629 0.2338 0.3533
C91 C 0.37931(19) 0.24958(15) 0.44341(17)
H99 H 0.4271 0.2365 0.4436
C92 C 0.34826(18) 0.26959(16) 0.49578(16)
H100 H 0.3742 0.2690 0.5321
O5 O 0.43599(12) 0.67228(12) 0.07374(10)
H1 H 0.4609(18) 0.6727(19) 0.1084(10)
H2 H 0.4623(18) 0.6515(19) 0.0486(11)
O6 O 0.50452(14) 0.54214(13) 0.50504(10)
H3 H 0.505(2) 0.5183(15) 0.4729(14)
H4 H 0.511(2) 0.5864(12) 0.4928(16)
O7 O 0.43924(13) 0.72789(13) 0.32557(10)
H5 H 0.455(2) 0.727(2) 0.2910(10)
H6 H 0.4726(18) 0.725(2) 0.3518(13)
O8 O 0.49425(15) 0.62760(14) 0.96352(10)
H7 H 0.511(2) 0.6622(13) 0.9449(17)
H8 H 0.497(2) 0.5923(13) 0.9431(17)
O9 O 0.51461(18) 0.55896(15) 0.63324(12)
H9 H 0.513(3) 0.564(2) 0.5922(11)
H10 H 0.487(2) 0.6024(19) 0.6404(19)
O10 O 0.92821(14) 0.29142(14) 0.22950(12)
H11 H 0.936(2) 0.276(2) 0.2681(11)
H12 H 0.9725(15) 0.289(2) 0.2151(15)
O11 O 0.38384(14) 0.73345(16) 0.80504(12)
H13 H 0.4222(18) 0.740(3) 0.8237(15)
H14 H 0.392(2) 0.727(3) 0.7676(11)
O12 O 0.47923(18) 0.76936(15) 0.55361(14)
H15 H 0.495(3) 0.746(2) 0.5246(15)
H16 H 0.458(3) 0.740(2) 0.5781(18)
C93? C 0.2464(5) 0.6759(5) 0.7185(5)
C94? C 0.1723(5) 0.7032(5) 0.7269(3)
H101? H 0.2890 0.5896 0.6787
H102? H 0.2263 0.5718 0.7200
H103? H 0.2706 0.6738 0.7577
H104? H 0.2732 0.7066 0.6918
H105? H 0.1733 0.7468 0.7490
H106? H 0.1437 0.6703 0.7499
H107? H 0.0930 0.7261 0.6665
H108? H 0.1655 0.7505 0.6438
loop_
_geom_bond_atom_site_label_1
_geom_bond_atom_site_label_2
_geom_bond_site_symmetry_1
_geom_bond_site_symmetry_2
O1 N4 1_555 1_555
O2 N6 1_555 1_555
O3 N10 1_555 1_555
O4 N12 1_555 1_555
O5 H1 1_555 1_555
H2 O5 1_555 1_555
O6 H3 1_555 1_555
H4 O6 1_555 1_555
O7 H5 1_555 1_555
H6 O7 1_555 1_555
O8 H7 1_555 1_555
H8 O8 1_555 1_555
O9 H9 1_555 1_555
H10 O9 1_555 1_555
O10 H11 1_555 1_555
H12 O10 1_555 1_555
O11 H13 1_555 1_555
H14 O11 1_555 1_555
O12 H15 1_555 1_555
H16 O12 1_555 1_555
N1 C2 1_555 1_555
N2 C12 1_555 1_555
N3 C21 1_555 1_555
N4 C29 1_555 1_555
N5 C34 1_555 1_555
N6 C42 1_555 1_555
N7 C48 1_555 1_555
N8 C71 1_555 1_555
N9 C57 1_555 1_555
N10 C65 1_555 1_555
N11 C80 1_555 1_555
N12 C88 1_555 1_555
C1 C2 1_555 1_555
C2 C3 1_555 1_555
C3 H17 1_555 1_555
C4 C3 1_555 1_555
H18 C4 1_555 1_555
C5 C4 1_555 1_555
C6 C1 1_555 1_555
C7 C6 1_555 1_555
H19 C7 1_555 1_555
H20 C7 1_555 1_555
C8 C7 1_555 1_555
H21 C8 1_555 1_555
H22 C8 1_555 1_555
C9 C8 1_555 1_555
H23 C9 1_555 1_555
H24 C9 1_555 1_555
C10 C5 1_555 1_555
H25 C10 1_555 1_555
H26 C10 1_555 1_555
C11 C1 1_555 1_555
C12 C11 1_555 1_555
C13 C12 1_555 1_555
H27 C13 1_555 1_555
C14 C13 1_555 1_555
H28 C14 1_555 1_555
C15 C14 1_555 1_555
C16 C11 1_555 1_555
C17 C16 1_555 1_555
H29 C17 1_555 1_555
H30 C17 1_555 1_555
C18 C17 1_555 1_555
H31 C18 1_555 1_555
H32 C18 1_555 1_555
C19 C18 1_555 1_555
H33 C19 1_555 1_555
H34 C19 1_555 1_555
C20 C15 1_555 1_555
H35 C20 1_555 1_555
H36 C20 1_555 1_555
C21 N1 1_555 1_555
H37 C21 1_555 1_555
C22 N1 1_555 1_555
C23 N3 1_555 1_555
C24 C23 1_555 1_555
H38 C24 1_555 1_555
C25 C24 1_555 1_555
H39 C25 1_555 1_555
C26 C25 1_555 1_555
H40 C26 1_555 1_555
C27 C22 1_555 1_555
H41 C27 1_555 1_555
C28 N3 1_555 1_555
H42 C28 1_555 1_555
H43 C28 1_555 1_555
C29 C28 1_555 1_555
C30 C29 1_555 1_555
H44 C30 1_555 1_555
C31 C30 1_555 1_555
H45 C31 1_555 1_555
C32 C31 1_555 1_555
H46 C32 1_555 1_555
C33 N4 1_555 1_555
H47 C33 1_555 1_555
C34 N2 1_555 1_555
H48 C34 1_555 1_555
C35 N2 1_555 1_555
C36 N5 1_555 1_555
C37 C36 1_555 1_555
H49 C37 1_555 1_555
C38 C37 1_555 1_555
H50 C38 1_555 1_555
C39 C38 1_555 1_555
H51 C39 1_555 1_555
C40 C35 1_555 1_555
H52 C40 1_555 1_555
C41 N5 1_555 1_555
H53 C41 1_555 1_555
H54 C41 1_555 1_555
C42 C41 1_555 1_555
C43 C42 1_555 1_555
H55 C43 1_555 1_555
C44 C43 1_555 1_555
H56 C44 1_555 1_555
C45 C44 1_555 1_555
H57 C45 1_555 1_555
C46 N6 1_555 1_555
H58 C46 1_555 1_555
C47 C48 1_555 1_555
C48 C49 1_555 1_555
C49 H59 1_555 1_555
C50 C49 1_555 1_555
H60 C50 1_555 1_555
C51 C50 1_555 1_555
C52 C47 1_555 1_555
C53 C52 1_555 1_555
H61 C53 1_555 1_555
H62 C53 1_555 1_555
C54 C53 1_555 1_555
H63 C54 1_555 1_555
H64 C54 1_555 1_555
C55 C54 1_555 1_555
H65 C55 1_555 1_555
H66 C55 1_555 1_555
C56 C51 1_555 1_555
H67 C56 1_555 1_555
H68 C56 1_555 1_555
C57 N7 1_555 1_555
H69 C57 1_555 1_555
C58 N7 1_555 1_555
C59 N9 1_555 1_555
C60 C59 1_555 1_555
H70 C60 1_555 1_555
C61 C60 1_555 1_555
H71 C61 1_555 1_555
C62 C61 1_555 1_555
H72 C62 1_555 1_555
C63 C58 1_555 1_555
H73 C63 1_555 1_555
C64 N9 1_555 1_555
H74 C64 1_555 1_555
H75 C64 1_555 1_555
C65 C64 1_555 1_555
C66 C65 1_555 1_555
H76 C66 1_555 1_555
C67 C66 1_555 1_555
H77 C67 1_555 1_555
C68 C67 1_555 1_555
H78 C68 1_555 1_555
C69 N10 1_555 1_555
H79 C69 1_555 1_555
C70 C47 1_555 1_555
C71 C70 1_555 1_555
C72 C71 1_555 1_555
H80 C72 1_555 1_555
C73 C72 1_555 1_555
H81 C73 1_555 1_555
C74 C73 1_555 1_555
C75 C70 1_555 1_555
C76 C75 1_555 1_555
H82 C76 1_555 1_555
H83 C76 1_555 1_555
C77 C76 1_555 1_555
H84 C77 1_555 1_555
H85 C77 1_555 1_555
C78 C77 1_555 1_555
H86 C78 1_555 1_555
H87 C78 1_555 1_555
C79 C74 1_555 1_555
H88 C79 1_555 1_555
H89 C79 1_555 1_555
C80 N8 1_555 1_555
H90 C80 1_555 1_555
C81 N8 1_555 1_555
C82 N11 1_555 1_555
C83 C82 1_555 1_555
H91 C83 1_555 1_555
C84 C83 1_555 1_555
H92 C84 1_555 1_555
C85 C84 1_555 1_555
H93 C85 1_555 1_555
C86 C81 1_555 1_555
H94 C86 1_555 1_555
C87 N11 1_555 1_555
H95 C87 1_555 1_555
H96 C87 1_555 1_555
C88 C87 1_555 1_555
C89 C88 1_555 1_555
H97 C89 1_555 1_555
C90 C89 1_555 1_555
H98 C90 1_555 1_555
C91 C90 1_555 1_555
H99 C91 1_555 1_555
C92 N12 1_555 1_555
H100 C92 1_555 1_555
C5 C6 1_555 1_555
C9 C10 1_555 1_555
C15 C16 1_555 1_555
C19 C20 1_555 1_555
C22 C23 1_555 1_555
C26 C27 1_555 1_555
C32 C33 1_555 1_555
C35 C36 1_555 1_555
C39 C40 1_555 1_555
C45 C46 1_555 1_555
C51 C52 1_555 1_555
C55 C56 1_555 1_555
C58 C59 1_555 1_555
C62 C63 1_555 1_555
C68 C69 1_555 1_555
C74 C75 1_555 1_555
C78 C79 1_555 1_555
C81 C82 1_555 1_555
C85 C86 1_555 1_555
C91 C92 1_555 1_555

#END
