
#######################################################################
#
#                 Cambridge Crystallographic Data Centre
#                                CCDC 
#
#######################################################################
#
# If this CIF has been generated from an entry in the Cambridge 
# Structural Database, then it will include bibliographic, chemical, 
# crystal, experimental, refinement or atomic coordinate data resulting 
# from the CCDC's data processing and validation procedures.
#
#######################################################################

data_DAJQOW
_chemical_formula_moiety         
'C46 H42 N6 2+,0.5(C2 H3 N1),3.5(H2 O1),2(Cl1 1-)'
_chemical_name_systematic        
"1,1'-(5,5',6,6',7,7',8,8'-Octahydro-1,1'-binaphthalene-2,2'-diyl)bis(3-(pyridin-2-ylmethyl)-1H-benzimidazol-3-ium) dichloride acetonitrile solvate hydrate"
_symmetry_cell_setting           orthorhombic
_symmetry_space_group_name_H-M   'P 21 21 21'
_symmetry_Int_Tables_number      19
_space_group_name_Hall           'P 2ac 2ab'
loop_
_symmetry_equiv_pos_site_id
_symmetry_equiv_pos_as_xyz
1 x,y,z
2 1/2+x,1/2-y,-z
3 -x,1/2+y,1/2-z
4 1/2-x,-y,1/2+z
_cell_length_a                   19.494(2)
_cell_length_b                   20.007(2)
_cell_length_c                   21.366(3)
_cell_angle_alpha                90
_cell_angle_beta                 90
_cell_angle_gamma                90
_cell_volume                     8333.09
_exptl_crystal_colour            colorless
_exptl_crystal_description       prism
_cell_formula_units_Z            8
loop_
_atom_site_label
_atom_site_type_symbol
_atom_site_fract_x
_atom_site_fract_y
_atom_site_fract_z
Cl1 Cl 0.99937(3) 0.51294(3) 0.73547(3)
Cl2 Cl 0.04834(3) 0.71633(3) 0.87980(3)
Cl3 Cl 0.99990(3) 0.23981(3) 0.13855(3)
Cl4 Cl 0.08666(3) 0.72243(2) 0.12562(2)
N1 N 0.25656(8) 0.40821(7) 0.55866(7)
N2 N 0.19217(8) 0.55415(7) 0.61365(7)
N3 N 0.34716(9) 0.42283(8) 0.49994(8)
N4 N 0.43213(10) 0.52722(9) 0.54731(9)
N5 N 0.08660(8) 0.56427(8) 0.57940(8)
N6 N -0.01111(9) 0.49661(9) 0.47698(9)
C1 C 0.21880(9) 0.42331(8) 0.66823(8)
C2 C 0.21426(9) 0.38940(9) 0.61111(8)
C3 C 0.16791(10) 0.33764(9) 0.60184(9)
H1 H 0.1659 0.3151 0.5627
C4 C 0.12459(10) 0.31920(9) 0.65022(10)
H2 H 0.0923 0.2843 0.6439
C5 C 0.12781(9) 0.35131(9) 0.70822(9)
C6 C 0.17555(9) 0.40317(9) 0.71772(9)
C7 C 0.18038(11) 0.43842(10) 0.78038(9)
H3 H 0.1787 0.4872 0.7730
H4 H 0.2256 0.4281 0.7991
C8 C 0.12507(12) 0.42050(11) 0.82752(10)
H5 H 0.1410 0.4324 0.8701
H6 H 0.0833 0.4469 0.8186
C9 C 0.10785(13) 0.34736(11) 0.82547(11)
H7 H 0.0730 0.3370 0.8577
H8 H 0.1494 0.3206 0.8345
C10 C 0.07982(11) 0.32916(10) 0.75980(11)
H9 H 0.0732 0.2802 0.7572
H10 H 0.0346 0.3507 0.7538
C11 C 0.26749(9) 0.48118(9) 0.67691(8)
C12 C 0.25102(9) 0.54434(9) 0.65354(9)
C13 C 0.29199(10) 0.59993(9) 0.66405(9)
H11 H 0.2790 0.6426 0.6485
C14 C 0.35211(10) 0.59207(10) 0.69763(10)
H12 H 0.3800 0.6300 0.7059
C15 C 0.37246(10) 0.52953(9) 0.71948(9)
C16 C 0.33013(9) 0.47354(9) 0.70980(8)
C17 C 0.35219(10) 0.40516(9) 0.73374(9)
H13 H 0.3266 0.3949 0.7726
H14 H 0.3399 0.3709 0.7022
C18 C 0.42876(10) 0.40071(10) 0.74708(10)
H15 H 0.4546 0.4015 0.7072
H16 H 0.4390 0.3581 0.7686
C19 C 0.45123(11) 0.45915(10) 0.78799(10)
H17 H 0.5000 0.4538 0.7998
H18 H 0.4235 0.4601 0.8268
C20 C 0.44169(10) 0.52434(10) 0.75205(10)
H19 H 0.4466 0.5623 0.7815
H20 H 0.4785 0.5282 0.7203
C21 C 0.32515(10) 0.40903(9) 0.55743(9)
H21 H 0.3539 0.4009 0.5925
C22 C 0.23279(10) 0.42168(9) 0.49811(8)
C23 C 0.16632(11) 0.42629(10) 0.47414(9)
H22 H 0.1269 0.4206 0.4997
C24 C 0.16171(12) 0.43971(11) 0.41046(10)
H23 H 0.1176 0.4437 0.3918
C25 C 0.21996(13) 0.44757(11) 0.37297(10)
H24 H 0.2142 0.4559 0.3295
C26 C 0.28551(12) 0.44356(10) 0.39714(10)
H25 H 0.3250 0.4491 0.3717
C27 C 0.29025(10) 0.43095(9) 0.46097(9)
C28 C 0.41923(11) 0.42940(10) 0.48177(10)
H26 H 0.4245 0.4168 0.4372
H27 H 0.4474 0.3984 0.5071
C29 C 0.44504(10) 0.50035(10) 0.49108(10)
C30 C 0.48297(10) 0.53231(12) 0.44506(11)
H28 H 0.4901 0.5120 0.4054
C31 C 0.51016(11) 0.59480(12) 0.45849(13)
H29 H 0.5361 0.6182 0.4279
C32 C 0.49927(12) 0.62254(11) 0.51652(14)
H30 H 0.5186 0.6647 0.5271
C33 C 0.45951(12) 0.58763(12) 0.55917(13)
H31 H 0.4511 0.6074 0.5989
C34 C 0.12575(9) 0.54551(9) 0.62745(9)
H32 H 0.1089 0.5284 0.6660
C35 C 0.19646(10) 0.57960(9) 0.55234(9)
C36 C 0.12928(10) 0.58630(9) 0.53115(9)
C37 C 0.11418(12) 0.61007(10) 0.47129(10)
H33 H 0.0684 0.6155 0.4570
C38 C 0.16997(13) 0.62528(10) 0.43404(10)
H34 H 0.1623 0.6416 0.3929
C39 C 0.23746(13) 0.61730(10) 0.45514(10)
H35 H 0.2742 0.6278 0.4276
C40 C 0.25242(11) 0.59456(10) 0.51471(10)
H36 H 0.2983 0.5895 0.5290
C41 C 0.01204(10) 0.55402(10) 0.57477(11)
H37 H -0.0092 0.5925 0.5530
H38 H -0.0080 0.5510 0.6173
C42 C -0.00288(10) 0.49048(10) 0.53904(10)
C43 C -0.00475(11) 0.42927(10) 0.56987(11)
H39 H 0.0010 0.4269 0.6140
C44 C -0.01518(12) 0.37170(11) 0.53496(12)
H40 H -0.0170 0.3292 0.5547
C45 C -0.02294(13) 0.37736(12) 0.47066(13)
H41 H -0.0296 0.3388 0.4454
C46 C -0.02082(12) 0.44045(12) 0.44420(12)
H42 H -0.0266 0.4441 0.4002
N7 N 0.16995(8) 0.97685(8) 0.78771(7)
N8 N 0.34034(8) 0.95969(7) 0.73664(7)
N9 N 0.15478(8) 1.07285(8) 0.83501(7)
N10 N 0.25496(10) 1.18919(9) 0.87024(9)
N11 N 0.39353(8) 0.87485(7) 0.77933(7)
N12 N 0.30752(9) 0.75104(9) 0.77555(9)
C47 C 0.20374(9) 0.93193(8) 0.68429(8)
C48 C 0.16702(9) 0.92555(9) 0.74027(9)
C49 C 0.12611(10) 0.87036(10) 0.75285(10)
H43 H 0.1007 0.8678 0.7907
C50 C 0.12281(10) 0.81926(10) 0.70948(10)
H44 H 0.0952 0.7812 0.7179
C51 C 0.15926(10) 0.82260(9) 0.65370(10)
C52 C 0.19955(9) 0.87930(9) 0.64028(9)
C53 C 0.23744(10) 0.88390(10) 0.57878(9)
H45 H 0.2853 0.8685 0.5846
H46 H 0.2388 0.9311 0.5649
C54 C 0.20288(12) 0.84140(12) 0.52844(10)
H47 H 0.1567 0.8595 0.5191
H48 H 0.2303 0.8428 0.4895
C55 C 0.19670(14) 0.76936(12) 0.55133(12)
H49 H 0.1770 0.7414 0.5176
H50 H 0.2429 0.7518 0.5612
C56 C 0.15229(13) 0.76476(11) 0.60820(11)
H51 H 0.1634 0.7228 0.6306
H52 H 0.1038 0.7619 0.5946
C57 C 0.24357(9) 0.99419(9) 0.66936(8)
C58 C 0.30965(9) 1.00506(9) 0.69250(8)
C59 C 0.34648(10) 1.06297(9) 0.67972(9)
H53 H 0.3914 1.0688 0.6960
C60 C 0.31695(10) 1.11188(9) 0.64314(9)
H54 H 0.3421 1.1513 0.6337
C61 C 0.25059(9) 1.10416(9) 0.61980(8)
C62 C 0.21391(9) 1.04509(9) 0.63194(8)
C63 C 0.14235(10) 1.03485(10) 0.60508(10)
H55 H 0.1123 1.0168 0.6384
H56 H 0.1449 1.0010 0.5713
C64 C 0.10962(10) 1.09840(11) 0.57875(11)
H57 H 0.0704 1.0862 0.5517
H58 H 0.0919 1.1260 0.6137
C65 C 0.16105(11) 1.13899(11) 0.54101(10)
H59 H 0.1796 1.1114 0.5064
H60 H 0.1381 1.1785 0.5226
C66 C 0.21914(11) 1.16143(9) 0.58349(10)
H61 H 0.2552 1.1830 0.5578
H62 H 0.2015 1.1952 0.6133
C67 C 0.15534(9) 1.04151(9) 0.78003(9)
H63 H 0.1466 1.0623 0.7408
C68 C 0.17723(9) 0.96464(10) 0.85195(9)
C69 C 0.16804(9) 1.02589(9) 0.88184(9)
C70 C 0.17058(11) 1.03241(11) 0.94697(9)
H64 H 0.1650 1.0744 0.9671
C71 C 0.18164(12) 0.97419(12) 0.98021(10)
H65 H 0.1824 0.9758 1.0246
C72 C 0.19180(12) 0.91290(12) 0.95012(11)
H66 H 0.2000 0.8743 0.9749
C73 C 0.19042(10) 0.90618(10) 0.88576(10)
H67 H 0.1980 0.8644 0.8657
C74 C 0.14355(10) 1.14523(9) 0.84309(9)
H68 H 0.1317 1.1549 0.8872
H69 H 0.1049 1.1600 0.8164
C75 C 0.20778(10) 1.18282(9) 0.82524(9)
C76 C 0.21703(11) 1.20566(9) 0.76453(9)
H70 H 0.1818 1.2008 0.7342
C77 C 0.27871(12) 1.23572(11) 0.74913(11)
H71 H 0.2866 1.2519 0.7079
C78 C 0.32816(12) 1.24176(11) 0.79436(12)
H72 H 0.3712 1.2616 0.7849
C79 C 0.31421(12) 1.21826(11) 0.85444(12)
H73 H 0.3485 1.2231 0.8857
C80 C 0.36352(9) 0.89721(9) 0.72754(9)
H74 H 0.3591 0.8726 0.6897
C81 C 0.35594(9) 0.97825(9) 0.79828(8)
C82 C 0.38925(9) 0.92415(9) 0.82559(9)
C83 C 0.41105(10) 0.92600(10) 0.88766(9)
H75 H 0.4340 0.8893 0.9066
C84 C 0.39734(11) 0.98441(11) 0.92001(9)
H76 H 0.4114 0.9878 0.9625
C85 C 0.36342(11) 1.03891(11) 0.89246(10)
H77 H 0.3547 1.0777 0.9168
C86 C 0.34246(10) 1.03715(10) 0.83043(10)
H78 H 0.3202 1.0740 0.8111
C87 C 0.41636(10) 0.80518(9) 0.79049(9)
H79 H 0.4552 0.8044 0.8204
H80 H 0.4315 0.7844 0.7508
C88 C 0.35577(10) 0.76760(9) 0.81710(10)
C89 C 0.34842(11) 0.75785(10) 0.88118(10)
H81 H 0.3848 0.7682 0.9092
C90 C 0.28674(12) 0.73258(11) 0.90325(12)
H82 H 0.2796 0.7265 0.9469
C91 C 0.23601(11) 0.71644(11) 0.86088(12)
H83 H 0.1930 0.6999 0.8749
C92 C 0.24878(11) 0.72478(11) 0.79766(12)
H84 H 0.2146 0.7114 0.7686
O1 O 0.16232(9) 0.24010(9) 0.14529(8)
H85 H 0.1189(6) 0.2435(16) 0.1414(12)
H86 H 0.1725(13) 0.2500(16) 0.1841(7)
O2 O 0.16164(9) 0.73982(10) 0.99481(8)
H87 H 0.1304(11) 0.7386(18) 0.9662(9)
H88 H 0.1421(13) 0.7406(17) 1.0307(6)
O3 O 0.02159(9) 0.20144(9) 0.48142(8)
H89 H -0.0115(11) 0.2127(16) 0.4570(10)
H90 H 0.0088(14) 0.2092(16) 0.5194(5)
O4 O 0.07914(9) 0.10783(10) 0.08738(10)
H91 H 0.0543(13) 0.0772(11) 0.0706(15)
H92 H 0.0525(13) 0.1368(12) 0.1040(15)
O5 O 0.05348(9) 0.15517(10) 0.72210(9)
H93 H 0.0364(14) 0.1162(8) 0.7314(15)
H94 H 0.0239(13) 0.1750(13) 0.6983(13)
O6 O 0.02105(12) 0.82920(9) 0.22612(12)
H95 H 0.035(2) 0.7968(12) 0.2022(12)
H96 H 0.021(2) 0.8144(16) 0.2642(6)
O7 O 0.11976(10) 0.61184(13) 0.77821(14)
H97 H 0.0872(15) 0.5832(16) 0.771(2)
H98 H 0.1020(18) 0.6425(15) 0.8024(18)
N13 N 0.01384(13) 0.21789(12) 0.94063(15)
C93 C 0.06323(14) 0.23233(13) 0.96615(13)
C94 C 0.12755(15) 0.24809(16) 0.99731(14)
H99 H 0.1356 0.2159 1.0311
H100 H 0.1252 0.2933 1.0148
H101 H 0.1652 0.2456 0.9670
loop_
_geom_bond_atom_site_label_1
_geom_bond_atom_site_label_2
_geom_bond_site_symmetry_1
_geom_bond_site_symmetry_2
N1 C2 1_555 1_555
N2 C12 1_555 1_555
N3 C21 1_555 1_555
N4 C29 1_555 1_555
N5 C34 1_555 1_555
N6 C42 1_555 1_555
N7 C48 1_555 1_555
N8 C58 1_555 1_555
N9 C67 1_555 1_555
N10 C75 1_555 1_555
N11 C80 1_555 1_555
N12 C88 1_555 1_555
C1 C2 1_555 1_555
C2 C3 1_555 1_555
C3 H1 1_555 1_555
C4 C3 1_555 1_555
H2 C4 1_555 1_555
C5 C4 1_555 1_555
C6 C1 1_555 1_555
C7 C6 1_555 1_555
H3 C7 1_555 1_555
H4 C7 1_555 1_555
C8 C7 1_555 1_555
H5 C8 1_555 1_555
H6 C8 1_555 1_555
C9 C8 1_555 1_555
H7 C9 1_555 1_555
H8 C9 1_555 1_555
C10 C5 1_555 1_555
H9 C10 1_555 1_555
H10 C10 1_555 1_555
C11 C1 1_555 1_555
C12 C11 1_555 1_555
C13 C12 1_555 1_555
H11 C13 1_555 1_555
C14 C13 1_555 1_555
H12 C14 1_555 1_555
C15 C14 1_555 1_555
C16 C11 1_555 1_555
C17 C16 1_555 1_555
H13 C17 1_555 1_555
H14 C17 1_555 1_555
C18 C17 1_555 1_555
H15 C18 1_555 1_555
H16 C18 1_555 1_555
C19 C18 1_555 1_555
H17 C19 1_555 1_555
H18 C19 1_555 1_555
C20 C15 1_555 1_555
H19 C20 1_555 1_555
H20 C20 1_555 1_555
C21 N1 1_555 1_555
H21 C21 1_555 1_555
C22 N1 1_555 1_555
C23 C22 1_555 1_555
H22 C23 1_555 1_555
C24 C23 1_555 1_555
H23 C24 1_555 1_555
C25 C24 1_555 1_555
H24 C25 1_555 1_555
C26 C25 1_555 1_555
H25 C26 1_555 1_555
C27 N3 1_555 1_555
C28 N3 1_555 1_555
H26 C28 1_555 1_555
H27 C28 1_555 1_555
C29 C28 1_555 1_555
C30 C29 1_555 1_555
H28 C30 1_555 1_555
C31 C30 1_555 1_555
H29 C31 1_555 1_555
C32 C31 1_555 1_555
H30 C32 1_555 1_555
C33 N4 1_555 1_555
H31 C33 1_555 1_555
C34 N2 1_555 1_555
H32 C34 1_555 1_555
C35 N2 1_555 1_555
C36 N5 1_555 1_555
C37 C36 1_555 1_555
H33 C37 1_555 1_555
C38 C37 1_555 1_555
H34 C38 1_555 1_555
C39 C38 1_555 1_555
H35 C39 1_555 1_555
C40 C35 1_555 1_555
H36 C40 1_555 1_555
C41 N5 1_555 1_555
H37 C41 1_555 1_555
H38 C41 1_555 1_555
C42 C41 1_555 1_555
C43 C42 1_555 1_555
H39 C43 1_555 1_555
C44 C43 1_555 1_555
H40 C44 1_555 1_555
C45 C44 1_555 1_555
H41 C45 1_555 1_555
C46 N6 1_555 1_555
H42 C46 1_555 1_555
C47 C48 1_555 1_555
C48 C49 1_555 1_555
C49 H43 1_555 1_555
C50 C49 1_555 1_555
H44 C50 1_555 1_555
C51 C50 1_555 1_555
C52 C47 1_555 1_555
C53 C52 1_555 1_555
H45 C53 1_555 1_555
H46 C53 1_555 1_555
C54 C53 1_555 1_555
H47 C54 1_555 1_555
H48 C54 1_555 1_555
C55 C54 1_555 1_555
H49 C55 1_555 1_555
H50 C55 1_555 1_555
C56 C51 1_555 1_555
H51 C56 1_555 1_555
H52 C56 1_555 1_555
C57 C47 1_555 1_555
C58 C57 1_555 1_555
C59 C58 1_555 1_555
H53 C59 1_555 1_555
C60 C59 1_555 1_555
H54 C60 1_555 1_555
C61 C60 1_555 1_555
C62 C57 1_555 1_555
C63 C62 1_555 1_555
H55 C63 1_555 1_555
H56 C63 1_555 1_555
C64 C63 1_555 1_555
H57 C64 1_555 1_555
H58 C64 1_555 1_555
C65 C64 1_555 1_555
H59 C65 1_555 1_555
H60 C65 1_555 1_555
C66 C61 1_555 1_555
H61 C66 1_555 1_555
H62 C66 1_555 1_555
C67 N7 1_555 1_555
H63 C67 1_555 1_555
C68 N7 1_555 1_555
C69 N9 1_555 1_555
C70 C69 1_555 1_555
H64 C70 1_555 1_555
C71 C70 1_555 1_555
H65 C71 1_555 1_555
C72 C71 1_555 1_555
H66 C72 1_555 1_555
C73 C68 1_555 1_555
H67 C73 1_555 1_555
C74 N9 1_555 1_555
H68 C74 1_555 1_555
H69 C74 1_555 1_555
C75 C74 1_555 1_555
C76 C75 1_555 1_555
H70 C76 1_555 1_555
C77 C76 1_555 1_555
H71 C77 1_555 1_555
C78 C77 1_555 1_555
H72 C78 1_555 1_555
C79 N10 1_555 1_555
H73 C79 1_555 1_555
C80 N8 1_555 1_555
H74 C80 1_555 1_555
C81 N8 1_555 1_555
C82 N11 1_555 1_555
C83 C82 1_555 1_555
H75 C83 1_555 1_555
C84 C83 1_555 1_555
H76 C84 1_555 1_555
C85 C84 1_555 1_555
H77 C85 1_555 1_555
C86 C81 1_555 1_555
H78 C86 1_555 1_555
C87 N11 1_555 1_555
H79 C87 1_555 1_555
H80 C87 1_555 1_555
C88 C87 1_555 1_555
C89 C88 1_555 1_555
H81 C89 1_555 1_555
C90 C89 1_555 1_555
H82 C90 1_555 1_555
C91 C90 1_555 1_555
H83 C91 1_555 1_555
C92 N12 1_555 1_555
H84 C92 1_555 1_555
O1 H85 1_555 1_555
H86 O1 1_555 1_555
O2 H87 1_555 1_555
H88 O2 1_555 1_555
O3 H89 1_555 1_555
H90 O3 1_555 1_555
O4 H91 1_555 1_555
H92 O4 1_555 1_555
O5 H93 1_555 1_555
H94 O5 1_555 1_555
O6 H95 1_555 1_555
H96 O6 1_555 1_555
O7 H97 1_555 1_555
H98 O7 1_555 1_555
N13 C93 1_555 1_555
C93 C94 1_555 1_555
C94 H99 1_555 1_555
H100 C94 1_555 1_555
H101 C94 1_555 1_555
C5 C6 1_555 1_555
C9 C10 1_555 1_555
C15 C16 1_555 1_555
C19 C20 1_555 1_555
C22 C27 1_555 1_555
C26 C27 1_555 1_555
C32 C33 1_555 1_555
C35 C36 1_555 1_555
C39 C40 1_555 1_555
C45 C46 1_555 1_555
C51 C52 1_555 1_555
C55 C56 1_555 1_555
C61 C62 1_555 1_555
C65 C66 1_555 1_555
C68 C69 1_555 1_555
C72 C73 1_555 1_555
C78 C79 1_555 1_555
C81 C82 1_555 1_555
C85 C86 1_555 1_555
C91 C92 1_555 1_555

#END
