
#######################################################################
#
#                 Cambridge Crystallographic Data Centre
#                                CCDC 
#
#######################################################################
#
# If this CIF has been generated from an entry in the Cambridge 
# Structural Database, then it will include bibliographic, chemical, 
# crystal, experimental, refinement or atomic coordinate data resulting 
# from the CCDC's data processing and validation procedures.
#
#######################################################################

data_DAJVAM
_chemical_formula_moiety         'C26 H20 Br2 Si1'
_chemical_name_systematic        
cis-1,2-Dibromo-1-(triphenylsilyl)-2-phenylethylene
_symmetry_cell_setting           triclinic
_symmetry_space_group_name_H-M   'P -1'
_symmetry_Int_Tables_number      2
_space_group_name_Hall           '-P 1'
loop_
_symmetry_equiv_pos_site_id
_symmetry_equiv_pos_as_xyz
1 x,y,z
2 -x,-y,-z
_cell_length_a                   9.968(6)
_cell_length_b                   11.029(6)
_cell_length_c                   21.242(13)
_cell_angle_alpha                95.42(5)
_cell_angle_beta                 98.18(5)
_cell_angle_gamma                96.91(5)
_cell_volume                     2279.89
_exptl_crystal_colour            colorless
_exptl_crystal_description       block
_cell_formula_units_Z            4
_exptl_crystal_recrystallization_method chloroform/hexane
loop_
_atom_site_label
_atom_site_type_symbol
_atom_site_fract_x
_atom_site_fract_y
_atom_site_fract_z
Br1 Br 0.12513(13) 0.28155(12) 0.41895(6)
Br2 Br 0.30536(12) 0.25997(13) 0.55675(6)
Si1 Si 0.0509(3) 0.2314(3) 0.62932(14)
C1 C 0.0406(11) 0.2687(9) 0.4949(4)
C2 C 0.1062(9) 0.2500(9) 0.5479(5)
C3 C -0.1056(12) 0.2821(11) 0.4824(6)
C4 C -0.1946(16) 0.2013(12) 0.4369(6)
H1 H -0.1604(16) 0.1382(12) 0.4147(6)
C5 C -0.3318(17) 0.2109(12) 0.4235(6)
H2 H -0.3886(17) 0.1559(12) 0.3922(6)
C6 C -0.3841(14) 0.3027(16) 0.4568(7)
H3 H -0.4769(14) 0.3097(16) 0.4490(7)
C7 C -0.2968(16) 0.3835(14) 0.5016(6)
H4 H -0.3319(16) 0.4460(14) 0.5239(6)
C8 C -0.1557(13) 0.3756(11) 0.5153(5)
H5 H -0.0983(13) 0.4321(11) 0.5457(5)
C9 C -0.1380(10) 0.1767(9) 0.6192(5)
C10 C -0.1962(12) 0.0737(10) 0.5783(5)
H6 H -0.1410(12) 0.0316(10) 0.5547(5)
C11 C -0.3329(14) 0.0314(10) 0.5712(5)
H7 H -0.3701(14) -0.0373(10) 0.5425(5)
C12 C -0.4163(11) 0.0920(13) 0.6075(6)
H8 H -0.5093(11) 0.0639(13) 0.6030(6)
C13 C -0.3616(13) 0.1906(12) 0.6485(6)
H9 H -0.4169(13) 0.2299(12) 0.6733(6)
C14 C -0.2234(12) 0.2354(9) 0.6549(5)
H10 H -0.1876(12) 0.3051(9) 0.6832(5)
C15 C 0.1403(11) 0.1188(10) 0.6722(5)
C16 C 0.0671(10) 0.0112(10) 0.6872(5)
H11 H -0.0253(10) -0.0074(10) 0.6705(5)
C17 C 0.1267(13) -0.0680(10) 0.7256(6)
H12 H 0.0745(13) -0.1374(10) 0.7354(6)
C18 C 0.2638(15) -0.0432(12) 0.7493(5)
H13 H 0.3054(15) -0.0967(12) 0.7746(5)
C19 C 0.3383(13) 0.0591(12) 0.7359(6)
H14 H 0.4313(13) 0.0756(12) 0.7518(6)
C20 C 0.2774(11) 0.1383(10) 0.6989(5)
H15 H 0.3307(11) 0.2090(10) 0.6913(5)
C21 C 0.0981(9) 0.3826(10) 0.6810(5)
C22 C 0.1354(10) 0.4929(11) 0.6582(5)
H16 H 0.1387(10) 0.4946(11) 0.6148(5)
C23 C 0.1675(11) 0.5987(11) 0.6985(7)
H17 H 0.1922(11) 0.6718(11) 0.6819(7)
C24 C 0.1645(11) 0.6010(12) 0.7632(7)
H18 H 0.1842(11) 0.6745(12) 0.7902(7)
C25 C 0.1312(11) 0.4905(14) 0.7867(5)
H19 H 0.1301(11) 0.4885(14) 0.8303(5)
C26 C 0.0999(11) 0.3835(11) 0.7457(6)
H20 H 0.0795(11) 0.3096(11) 0.7623(6)
Br3 Br -0.73955(14) -0.00234(12) 0.23121(7)
Br4 Br -0.65540(14) -0.02726(11) 0.08633(6)
Si2 Si -0.6046(3) 0.2590(3) 0.08242(15)
C27 C -0.6808(11) 0.1412(10) 0.1899(6)
C28 C -0.6512(11) 0.1304(10) 0.1314(6)
C29 C -0.6721(14) 0.2522(11) 0.2342(5)
C30 C -0.5495(14) 0.3039(12) 0.2714(7)
H21 H -0.4714(14) 0.2669(12) 0.2681(7)
C31 C -0.5409(15) 0.4065(13) 0.3122(6)
H22 H -0.4563(15) 0.4408(13) 0.3354(6)
C32 C -0.6525(20) 0.4606(13) 0.3202(7)
H23 H -0.6454(20) 0.5291(13) 0.3501(7)
C33 C -0.7745(18) 0.4152(14) 0.2847(8)
H24 H -0.8511(18) 0.4542(14) 0.2888(8)
C34 C -0.7849(13) 0.3103(12) 0.2422(6)
H25 H -0.8695(13) 0.2782(12) 0.2185(6)
C35 C -0.7137(12) 0.2178(10) 0.0035(5)
C36 C -0.6668(11) 0.2381(10) -0.0529(6)
H26 H -0.5754(11) 0.2694(10) -0.0514(6)
C37 C -0.7481(16) 0.2143(13) -0.1104(6)
H27 H -0.7139(16) 0.2343(13) -0.1471(6)
C38 C -0.8840(19) 0.1596(12) -0.1147(8)
H28 H -0.9389(19) 0.1363(12) -0.1542(8)
C39 C -0.9334(14) 0.1414(13) -0.0587(9)
H29 H -1.0256(14) 0.1134(13) -0.0597(9)
C40 C -0.8472(15) 0.1643(11) -0.0014(6)
H30 H -0.8801(15) 0.1430(11) 0.0355(6)
C41 C -0.6383(15) 0.4114(11) 0.1156(6)
C42 C -0.5400(15) 0.4942(16) 0.1567(7)
H31 H -0.4547(15) 0.4715(16) 0.1703(7)
C43 C -0.5677(19) 0.6080(19) 0.1770(8)
H32 H -0.4989(19) 0.6625(19) 0.2029(8)
C44 C -0.6909(24) 0.6450(14) 0.1610(9)
H33 H -0.7069(24) 0.7229(14) 0.1765(9)
C45 C -0.7912(18) 0.5678(17) 0.1222(8)
H34 H -0.8776(18) 0.5909(17) 0.1118(8)
C46 C -0.7634(15) 0.4531(12) 0.0979(6)
H35 H -0.8306(15) 0.4026(12) 0.0690(6)
C47 C -0.4173(11) 0.2696(13) 0.0743(5)
C48 C -0.3608(14) 0.3734(15) 0.0535(5)
H36 H -0.4129(14) 0.4362(15) 0.0453(5)
C49 C -0.2259(21) 0.3855(19) 0.0445(8)
H37 H -0.1862(21) 0.4576(19) 0.0313(8)
C50 C -0.1520(21) 0.2943(22) 0.0546(10)
H38 H -0.0622(21) 0.3026(22) 0.0467(10)
C51 C -0.2042(19) 0.1903(18) 0.0760(9)
H39 H -0.1494(19) 0.1294(18) 0.0844(9)
C52 C -0.3413(15) 0.1740(12) 0.0857(6)
H40 H -0.3799(15) 0.1018(12) 0.0992(6)
loop_
_geom_bond_atom_site_label_1
_geom_bond_atom_site_label_2
_geom_bond_site_symmetry_1
_geom_bond_site_symmetry_2
Br1 C1 1_555 1_555
Br2 C2 1_555 1_555
Br3 C27 1_555 1_555
Br4 C28 1_555 1_555
Si1 C2 1_555 1_555
Si2 C28 1_555 1_555
C1 C2 1_555 1_555
C3 C1 1_555 1_555
C4 C3 1_555 1_555
H1 C4 1_555 1_555
C5 C4 1_555 1_555
H2 C5 1_555 1_555
C6 C5 1_555 1_555
H3 C6 1_555 1_555
C7 C6 1_555 1_555
H4 C7 1_555 1_555
C8 C3 1_555 1_555
H5 C8 1_555 1_555
C9 Si1 1_555 1_555
C10 C9 1_555 1_555
H6 C10 1_555 1_555
C11 C10 1_555 1_555
H7 C11 1_555 1_555
C12 C11 1_555 1_555
H8 C12 1_555 1_555
C13 C12 1_555 1_555
H9 C13 1_555 1_555
C14 C9 1_555 1_555
H10 C14 1_555 1_555
C15 Si1 1_555 1_555
C16 C15 1_555 1_555
H11 C16 1_555 1_555
C17 C16 1_555 1_555
H12 C17 1_555 1_555
C18 C17 1_555 1_555
H13 C18 1_555 1_555
C19 C18 1_555 1_555
H14 C19 1_555 1_555
C20 C15 1_555 1_555
H15 C20 1_555 1_555
C21 Si1 1_555 1_555
C22 C21 1_555 1_555
H16 C22 1_555 1_555
C23 C22 1_555 1_555
H17 C23 1_555 1_555
C24 C23 1_555 1_555
H18 C24 1_555 1_555
C25 C24 1_555 1_555
H19 C25 1_555 1_555
C26 C21 1_555 1_555
H20 C26 1_555 1_555
C27 C28 1_555 1_555
C29 C27 1_555 1_555
C30 C29 1_555 1_555
H21 C30 1_555 1_555
C31 C30 1_555 1_555
H22 C31 1_555 1_555
C32 C31 1_555 1_555
H23 C32 1_555 1_555
C33 C32 1_555 1_555
H24 C33 1_555 1_555
C34 C29 1_555 1_555
H25 C34 1_555 1_555
C35 Si2 1_555 1_555
C36 C35 1_555 1_555
H26 C36 1_555 1_555
C37 C36 1_555 1_555
H27 C37 1_555 1_555
C38 C37 1_555 1_555
H28 C38 1_555 1_555
C39 C38 1_555 1_555
H29 C39 1_555 1_555
C40 C35 1_555 1_555
H30 C40 1_555 1_555
C41 Si2 1_555 1_555
C42 C41 1_555 1_555
H31 C42 1_555 1_555
C43 C42 1_555 1_555
H32 C43 1_555 1_555
C44 C43 1_555 1_555
H33 C44 1_555 1_555
C45 C44 1_555 1_555
H34 C45 1_555 1_555
C46 C41 1_555 1_555
H35 C46 1_555 1_555
C47 Si2 1_555 1_555
C48 C47 1_555 1_555
H36 C48 1_555 1_555
C49 C48 1_555 1_555
H37 C49 1_555 1_555
C50 C49 1_555 1_555
H38 C50 1_555 1_555
C51 C50 1_555 1_555
H39 C51 1_555 1_555
C52 C47 1_555 1_555
H40 C52 1_555 1_555
C7 C8 1_555 1_555
C13 C14 1_555 1_555
C19 C20 1_555 1_555
C25 C26 1_555 1_555
C33 C34 1_555 1_555
C39 C40 1_555 1_555
C45 C46 1_555 1_555
C51 C52 1_555 1_555

#END
