
#######################################################################
#
#                 Cambridge Crystallographic Data Centre
#                                CCDC 
#
#######################################################################
#
# If this CIF has been generated from an entry in the Cambridge 
# Structural Database, then it will include bibliographic, chemical, 
# crystal, experimental, refinement or atomic coordinate data resulting 
# from the CCDC's data processing and validation procedures.
#
#######################################################################

data_DAJXUK
_chemical_formula_moiety         'C82 H78 O4'
_chemical_name_systematic        
13,15,28,30-tetrakis(hexyloxy)dibenzo[cd,lm]tetranaphtho[2,1-a:1',2'-f:2'',1''-j:1''',2'''-o]perylene
_symmetry_cell_setting           triclinic
_symmetry_space_group_name_H-M   'P -1'
_symmetry_Int_Tables_number      2
_space_group_name_Hall           '-P 1'
loop_
_symmetry_equiv_pos_site_id
_symmetry_equiv_pos_as_xyz
1 x,y,z
2 -x,-y,-z
_cell_length_a                   10.6080(4)
_cell_length_b                   11.1761(4)
_cell_length_c                   14.3687(5)
_cell_angle_alpha                91.9560(14)
_cell_angle_beta                 101.2890(14)
_cell_angle_gamma                111.6286(13)
_cell_volume                     1542.33
_exptl_crystal_colour            colorless
_exptl_crystal_description       block
_cell_formula_units_Z            1
loop_
_atom_site_label
_atom_site_type_symbol
_atom_site_fract_x
_atom_site_fract_y
_atom_site_fract_z
O1 O 0.06592(13) 0.21323(12) 0.46131(9)
O2 O 0.15271(14) 0.03696(14) 0.75816(9)
C1 C 0.3342(2) -0.0641(2) 0.13772(14)
H1 H 0.2606 -0.0530 0.0970
C2 C 0.3597(2) -0.02905(19) 0.23260(13)
H2 H 0.2991 -0.0004 0.2565
C3 C 0.47718(18) -0.03501(16) 0.29687(12)
C4 C 0.49661(16) -0.00423(15) 0.40039(11)
C5 C 0.55744(16) -0.07685(15) 0.45938(11)
C6 C 0.44717(16) 0.08069(15) 0.44261(11)
C7 C 0.41647(17) 0.18632(16) 0.39712(12)
C8 C 0.48092(19) 0.24325(18) 0.32275(13)
H3 H 0.5324 0.2052 0.2963
C9 C 0.4691(2) 0.3511(2) 0.28967(15)
H4 H 0.5057 0.3816 0.2374
C10 C 0.40179(19) 0.41864(17) 0.33309(14)
C11 C 0.4040(2) 0.53966(19) 0.30624(16)
H5 H 0.4406 0.5710 0.2541
C12 C 0.3535(2) 0.61118(19) 0.35540(17)
H6 H 0.3520 0.6891 0.3355
C13 C 0.3039(2) 0.56667(18) 0.43587(16)
H7 H 0.2752 0.6182 0.4720
C14 C 0.29688(19) 0.44838(17) 0.46235(14)
H8 H 0.2628 0.4205 0.5160
C15 C 0.34050(17) 0.36788(16) 0.40956(12)
C16 C 0.33935(17) 0.24390(15) 0.43615(12)
C17 C 0.27710(17) 0.18577(15) 0.51420(12)
C18 C 0.14877(18) 0.17867(16) 0.53116(12)
C19 C 0.10638(19) 0.12824(17) 0.61161(13)
H9 H 0.0184 0.1183 0.6199
C20 C 0.19377(19) 0.09213(17) 0.68032(12)
C21 C 0.32508(18) 0.10181(15) 0.66788(12)
C22 C 0.35286(17) 0.12918(15) 0.57693(12)
C23 C 0.43568(18) 0.08439(16) 0.73797(12)
C24 C 0.4703(2) 0.13426(18) 0.83793(13)
C25 C 0.4056(2) 0.2083(2) 0.87650(15)
H10 H 0.3371 0.2274 0.8364
C26 C 0.4420(3) 0.2522(3) 0.97172(17)
H11 H 0.3980 0.3010 0.9952
C27 C 0.5438(3) 0.2252(3) 1.03406(17)
H12 H 0.5635 0.2508 1.0993
C28 C 0.6138(3) 0.1613(3) 0.99902(15)
H13 H 0.6840 0.1459 1.0403
C29 C 0.5820(2) 0.1176(2) 0.90058(13)
C30 C -0.06847(19) 0.2025(2) 0.47360(14)
H14 H -0.0587 0.2599 0.5290
H15 H -0.1220 0.1144 0.4834
C31 C -0.1417(2) 0.2389(2) 0.38512(15)
H16 H -0.1449 0.1838 0.3303
H17 H -0.2369 0.2207 0.3896
C32 C -0.0768(2) 0.3778(2) 0.36740(17)
H18 H -0.0687 0.4332 0.4235
H19 H 0.0165 0.3948 0.3589
C33 C -0.1561(3) 0.4135(2) 0.2820(2)
H20 H -0.1555 0.3639 0.2256
H21 H -0.2522 0.3864 0.2875
C34 C -0.1061(4) 0.5525(3) 0.2662(3)
H22 H -0.0991 0.6025 0.3249
H23 H -0.0127 0.5774 0.2557
C35 C -0.1845(7) 0.5900(6) 0.1911(4)
H24 H -0.1403 0.6814 0.1886
H25 H -0.2763 0.5705 0.2016
H26 H -0.1907 0.5436 0.1318
C36 C 0.0142(3) 0.0129(3) 0.7690(2)
H27 H -0.0529 -0.0403 0.7129
H28 H 0.0017 0.0942 0.7759
C37 C -0.0080(4) -0.0543(4) 0.8547(3)
H29 H 0.0678 -0.0055 0.9082
H30 H -0.0933 -0.0541 0.8695
C38 C -0.0167(5) -0.1842(5) 0.8461(3)
H31 H 0.0762 -0.1834 0.8514
H32 H -0.0712 -0.2262 0.7831
C39 C -0.0829(9) -0.2652(6) 0.9223(5)
H33 H -0.0200 -0.2382 0.9847
H34 H -0.1694 -0.2564 0.9261
C40 C -0.1904(9) -0.4941(8) 0.9455(6)
H35 H -0.2087 -0.5812 0.9207
H36 H -0.2769 -0.4837 0.9428
H37 H -0.1388 -0.4771 1.0106
C41 C -0.1083(11) -0.4020(8) 0.8875(6)
H38 H -0.1582 -0.4221 0.8211
H39 H -0.0200 -0.4110 0.8915
O1A O 0.93408(13) -0.21323(12) 0.53869(9)
O2A O 0.84729(14) -0.03696(14) 0.24184(9)
C1A C 0.6658(2) 0.0641(2) 0.86228(14)
H1A H 0.7394 0.0530 0.9030
C2A C 0.6403(2) 0.02905(19) 0.76740(13)
H2A H 0.7009 0.0004 0.7435
C3A C 0.52282(18) 0.03501(16) 0.70313(12)
C4A C 0.50339(16) 0.00423(15) 0.59961(11)
C5A C 0.44256(16) 0.07685(15) 0.54062(11)
C6A C 0.55283(16) -0.08069(15) 0.55739(11)
C7A C 0.58353(17) -0.18632(16) 0.60288(12)
C8A C 0.51908(19) -0.24325(18) 0.67725(13)
H3A H 0.4676 -0.2052 0.7037
C9A C 0.5309(2) -0.3511(2) 0.71033(15)
H4A H 0.4943 -0.3816 0.7626
C10A C 0.59821(19) -0.41864(17) 0.66691(14)
C11A C 0.5960(2) -0.53966(19) 0.69376(16)
H5A H 0.5594 -0.5710 0.7459
C12A C 0.6465(2) -0.61118(19) 0.64460(17)
H6A H 0.6480 -0.6891 0.6645
C13A C 0.6961(2) -0.56667(18) 0.56413(16)
H7A H 0.7248 -0.6182 0.5280
C14A C 0.70312(19) -0.44838(17) 0.53765(14)
H8A H 0.7372 -0.4205 0.4840
C15A C 0.65950(17) -0.36788(16) 0.59044(12)
C16A C 0.66065(17) -0.24390(15) 0.56385(12)
C17A C 0.72290(17) -0.18577(15) 0.48580(12)
C18A C 0.85123(18) -0.17867(16) 0.46884(12)
C19A C 0.89362(19) -0.12824(17) 0.38839(13)
H9A H 0.9816 -0.1183 0.3801
C20A C 0.80623(19) -0.09213(17) 0.31968(12)
C21A C 0.67492(18) -0.10181(15) 0.33212(12)
C22A C 0.64714(17) -0.12918(15) 0.42307(12)
C23A C 0.56432(18) -0.08439(16) 0.26203(12)
C24A C 0.5297(2) -0.13426(18) 0.16207(13)
C25A C 0.5944(2) -0.2083(2) 0.12350(15)
H10A H 0.6629 -0.2274 0.1636
C26A C 0.5580(3) -0.2522(3) 0.02828(17)
H11A H 0.6020 -0.3010 0.0048
C27A C 0.4562(3) -0.2252(3) -0.03406(17)
H12A H 0.4365 -0.2508 -0.0993
C28A C 0.3862(3) -0.1613(3) 0.00098(15)
H13A H 0.3160 -0.1459 -0.0403
C29A C 0.4180(2) -0.1176(2) 0.09942(13)
C30A C 1.06847(19) -0.2025(2) 0.52640(14)
H14A H 1.0587 -0.2599 0.4710
H15A H 1.1220 -0.1144 0.5166
C31A C 1.1417(2) -0.2389(2) 0.61488(15)
H16A H 1.1449 -0.1838 0.6697
H17A H 1.2369 -0.2207 0.6104
C32A C 1.0768(2) -0.3778(2) 0.63260(17)
H18A H 1.0687 -0.4332 0.5765
H19A H 0.9835 -0.3948 0.6411
C33A C 1.1561(3) -0.4135(2) 0.7180(2)
H20A H 1.1555 -0.3639 0.7744
H21A H 1.2522 -0.3864 0.7125
C34A C 1.1061(4) -0.5525(3) 0.7338(3)
H22A H 1.0991 -0.6025 0.6751
H23A H 1.0127 -0.5774 0.7443
C35A C 1.1845(7) -0.5900(6) 0.8089(4)
H24A H 1.1403 -0.6814 0.8114
H25A H 1.2763 -0.5705 0.7984
H26A H 1.1907 -0.5436 0.8682
C36A C 0.9858(3) -0.0129(3) 0.2310(2)
H27A H 1.0529 0.0403 0.2871
H28A H 0.9983 -0.0942 0.2241
C37A C 1.0080(4) 0.0543(4) 0.1453(3)
H29A H 0.9322 0.0055 0.0918
H30A H 1.0933 0.0541 0.1305
C38A C 1.0167(5) 0.1842(5) 0.1539(3)
H31A H 0.9238 0.1834 0.1486
H32A H 1.0712 0.2262 0.2169
C39A C 1.0829(9) 0.2652(6) 0.0777(5)
H33A H 1.0200 0.2382 0.0153
H34A H 1.1694 0.2564 0.0739
C40A C 1.1904(9) 0.4941(8) 0.0545(6)
H35A H 1.2087 0.5812 0.0793
H36A H 1.2769 0.4837 0.0572
H37A H 1.1388 0.4771 -0.0106
C41A C 1.1083(11) 0.4020(8) 0.1125(6)
H38A H 1.1582 0.4221 0.1789
H39A H 1.0200 0.4110 0.1085
C42? C 0.0315(9) 0.6354(9) 0.2569(9)
H40? H 0.0349 0.7216 0.2502
H41? H 0.0520 0.6026 0.2016
H42? H 0.0989 0.6370 0.3128
C43? C -0.1305(12) -0.1791(12) 0.8547(12)
H43? H -0.1679 -0.2243 0.7905
H44? H -0.2032 -0.1596 0.8754
C44? C -0.2193(15) -0.3780(13) 0.9093(18)
H45? H -0.2664 -0.3981 0.8422
H46? H -0.2788 -0.3570 0.9449
C45? C -0.0526(15) -0.3848(12) 0.9417(18)
H47? H 0.0143 -0.3689 1.0019
H48? H -0.0141 -0.4083 0.8913
loop_
_geom_bond_atom_site_label_1
_geom_bond_atom_site_label_2
_geom_bond_site_symmetry_1
_geom_bond_site_symmetry_2
O1 C18 1_555 1_555
O2 C20 1_555 1_555
C1 H1 1_555 1_555
C2 C1 1_555 1_555
H2 C2 1_555 1_555
C3 C2 1_555 1_555
C4 C3 1_555 1_555
C5 C4 1_555 1_555
C6 C4 1_555 1_555
C7 C6 1_555 1_555
C8 C7 1_555 1_555
H3 C8 1_555 1_555
C9 C8 1_555 1_555
H4 C9 1_555 1_555
C10 C9 1_555 1_555
C11 C10 1_555 1_555
H5 C11 1_555 1_555
C12 C11 1_555 1_555
H6 C12 1_555 1_555
C13 C12 1_555 1_555
H7 C13 1_555 1_555
C14 C13 1_555 1_555
H8 C14 1_555 1_555
C15 C10 1_555 1_555
C16 C7 1_555 1_555
C17 C16 1_555 1_555
C18 C17 1_555 1_555
C19 C18 1_555 1_555
H9 C19 1_555 1_555
C20 C19 1_555 1_555
C21 C20 1_555 1_555
C22 C17 1_555 1_555
C23 C21 1_555 1_555
C24 C23 1_555 1_555
C25 C24 1_555 1_555
H10 C25 1_555 1_555
C26 C25 1_555 1_555
H11 C26 1_555 1_555
C27 C26 1_555 1_555
H12 C27 1_555 1_555
C28 C27 1_555 1_555
H13 C28 1_555 1_555
C29 C24 1_555 1_555
C30 O1 1_555 1_555
H14 C30 1_555 1_555
H15 C30 1_555 1_555
C31 C30 1_555 1_555
H16 C31 1_555 1_555
H17 C31 1_555 1_555
C32 C31 1_555 1_555
H18 C32 1_555 1_555
H19 C32 1_555 1_555
C33 C32 1_555 1_555
H20 C33 1_555 1_555
H21 C33 1_555 1_555
C34 C33 1_555 1_555
H22 C34 1_555 1_555
H23 C34 1_555 1_555
C35 C34 1_555 1_555
H24 C35 1_555 1_555
H25 C35 1_555 1_555
H26 C35 1_555 1_555
C36 O2 1_555 1_555
H27 C36 1_555 1_555
H28 C36 1_555 1_555
C37 C36 1_555 1_555
H29 C37 1_555 1_555
H30 C37 1_555 1_555
C38 C37 1_555 1_555
H31 C38 1_555 1_555
H32 C38 1_555 1_555
C39 C38 1_555 1_555
H33 C39 1_555 1_555
H34 C39 1_555 1_555
C40 H35 1_555 1_555
H36 C40 1_555 1_555
H37 C40 1_555 1_555
C41 C39 1_555 1_555
H38 C41 1_555 1_555
H39 C41 1_555 1_555
O1A C18A 1_555 1_555
O2A C20A 1_555 1_555
C1A C29 1_555 1_555
H1A C1A 1_555 1_555
C2A C1A 1_555 1_555
H2A C2A 1_555 1_555
C3A C23 1_555 1_555
C4A C3A 1_555 1_555
C5A C6 1_555 1_555
C6A C5 1_555 1_555
C7A C6A 1_555 1_555
C8A C7A 1_555 1_555
H3A C8A 1_555 1_555
C9A C8A 1_555 1_555
H4A C9A 1_555 1_555
C10A C9A 1_555 1_555
C11A C10A 1_555 1_555
H5A C11A 1_555 1_555
C12A C11A 1_555 1_555
H6A C12A 1_555 1_555
C13A C12A 1_555 1_555
H7A C13A 1_555 1_555
C14A C13A 1_555 1_555
H8A C14A 1_555 1_555
C15A C10A 1_555 1_555
C16A C7A 1_555 1_555
C17A C16A 1_555 1_555
C18A C17A 1_555 1_555
C19A C18A 1_555 1_555
H9A C19A 1_555 1_555
C20A C19A 1_555 1_555
C21A C20A 1_555 1_555
C22A C5 1_555 1_555
C23A C3 1_555 1_555
C24A C23A 1_555 1_555
C25A C24A 1_555 1_555
H10A C25A 1_555 1_555
C26A C25A 1_555 1_555
H11A C26A 1_555 1_555
C27A C26A 1_555 1_555
H12A C27A 1_555 1_555
C28A C27A 1_555 1_555
H13A C28A 1_555 1_555
C29A C1 1_555 1_555
C30A O1A 1_555 1_555
H14A C30A 1_555 1_555
H15A C30A 1_555 1_555
C31A C30A 1_555 1_555
H16A C31A 1_555 1_555
H17A C31A 1_555 1_555
C32A C31A 1_555 1_555
H18A C32A 1_555 1_555
H19A C32A 1_555 1_555
C33A C32A 1_555 1_555
H20A C33A 1_555 1_555
H21A C33A 1_555 1_555
C34A C33A 1_555 1_555
H22A C34A 1_555 1_555
H23A C34A 1_555 1_555
C35A C34A 1_555 1_555
H24A C35A 1_555 1_555
H25A C35A 1_555 1_555
H26A C35A 1_555 1_555
C36A O2A 1_555 1_555
H27A C36A 1_555 1_555
H28A C36A 1_555 1_555
C37A C36A 1_555 1_555
H29A C37A 1_555 1_555
H30A C37A 1_555 1_555
C38A C37A 1_555 1_555
H31A C38A 1_555 1_555
H32A C38A 1_555 1_555
C39A C38A 1_555 1_555
H33A C39A 1_555 1_555
H34A C39A 1_555 1_555
C40A H35A 1_555 1_555
H36A C40A 1_555 1_555
H37A C40A 1_555 1_555
C41A C39A 1_555 1_555
H38A C41A 1_555 1_555
H39A C41A 1_555 1_555
C14 C15 1_555 1_555
C15 C16 1_555 1_555
C21 C22 1_555 1_555
C22 C5A 1_555 1_555
C28 C29 1_555 1_555
C40 C41 1_555 1_555
C2A C3A 1_555 1_555
C4A C5A 1_555 1_555
C4A C6A 1_555 1_555
C14A C15A 1_555 1_555
C15A C16A 1_555 1_555
C17A C22A 1_555 1_555
C21A C22A 1_555 1_555
C21A C23A 1_555 1_555
C24A C29A 1_555 1_555
C28A C29A 1_555 1_555
C40A C41A 1_555 1_555

#END
