
#######################################################################
#
#                 Cambridge Crystallographic Data Centre
#                                CCDC 
#
#######################################################################
#
# If this CIF has been generated from an entry in the Cambridge 
# Structural Database, then it will include bibliographic, chemical, 
# crystal, experimental, refinement or atomic coordinate data resulting 
# from the CCDC's data processing and validation procedures.
#
#######################################################################

data_DAJXOE
_chemical_formula_moiety         'C70 H54 O4'
_chemical_name_systematic        
"13,15,28,30-tetrapropoxydibenzo[cd,lm]tetranaphtho[2,1-a:1',2'-f:2'',1''-j:1''',2'''-o]perylene unknown solvate"
_symmetry_cell_setting           monoclinic
_symmetry_space_group_name_H-M   'P 21/c'
_symmetry_Int_Tables_number      14
_space_group_name_Hall           '-P 2ybc'
loop_
_symmetry_equiv_pos_site_id
_symmetry_equiv_pos_as_xyz
1 x,y,z
2 -x,1/2+y,1/2-z
3 -x,-y,-z
4 x,1/2-y,1/2+z
_cell_length_a                   11.7593(4)
_cell_length_b                   33.7529(11)
_cell_length_c                   14.3542(4)
_cell_angle_alpha                90
_cell_angle_beta                 101.5164(16)
_cell_angle_gamma                90
_cell_volume                     5582.63
_exptl_crystal_colour            red
_exptl_crystal_description       block
_cell_formula_units_Z            4
loop_
_atom_site_label
_atom_site_type_symbol
_atom_site_fract_x
_atom_site_fract_y
_atom_site_fract_z
O1 O 0.31619(18) 1.03557(6) 0.65283(15)
O2 O 0.43291(17) 1.02136(6) 0.35365(14)
O3 O 0.3059(2) 0.71719(7) 0.46786(17)
O4 O -0.01108(19) 0.74343(7) 0.62563(16)
C1 C 0.3007(2) 1.02022(8) 0.5640(2)
C2 C 0.2185(2) 0.98921(8) 0.5418(2)
C3 C 0.1454(2) 0.97523(9) 0.60569(19)
C4 C 0.1057(2) 1.00068(9) 0.6743(2)
C5 C 0.0957(3) 1.04183(10) 0.6633(2)
H1 H 0.1143 1.0538 0.6099
C6 C 0.0592(3) 1.06463(12) 0.7301(3)
H2 H 0.0520 1.0919 0.7210
C7 C 0.0326(3) 1.04797(13) 0.8109(3)
H3 H 0.0132 1.0642 0.8578
C8 C 0.0346(3) 1.00826(13) 0.8220(2)
H4 H 0.0143 0.9972 0.8757
C9 C 0.0677(3) 0.98312(11) 0.7522(2)
C10 C 0.0602(3) 0.94126(12) 0.7564(2)
H5 H 0.0445 0.9293 0.8108
C11 C 0.0755(3) 0.91882(10) 0.6830(2)
H6 H 0.0618 0.8917 0.6847
C12 C 0.1121(2) 0.93507(9) 0.6023(2)
C13 C 0.1249(2) 0.91071(8) 0.52182(19)
C14 C 0.0801(2) 0.87190(8) 0.50652(19)
C15 C -0.0292(2) 0.85772(9) 0.52885(19)
C16 C -0.1188(3) 0.88530(9) 0.5380(2)
H7 H -0.1025 0.9123 0.5411
C17 C -0.2268(3) 0.87267(10) 0.5422(2)
H8 H -0.2814 0.8910 0.5538
C18 C -0.2586(3) 0.83249(9) 0.5293(2)
C19 C -0.3747(3) 0.81998(11) 0.5213(2)
H9 H -0.4301 0.8379 0.5332
C20 C -0.4070(3) 0.78213(12) 0.4965(3)
H10 H -0.4839 0.7743 0.4914
C21 C -0.3243(3) 0.75508(11) 0.4788(2)
H11 H -0.3470 0.7296 0.4586
C22 C -0.2099(3) 0.76568(10) 0.4907(2)
H12 H -0.1559 0.7470 0.4800
C23 C -0.1719(2) 0.80439(9) 0.5190(2)
C24 C -0.0539(2) 0.81730(9) 0.5268(2)
C25 C 0.0399(2) 0.79004(9) 0.5193(2)
C26 C 0.0560(3) 0.75241(9) 0.5615(2)
C27 C 0.1437(3) 0.72757(10) 0.5432(2)
H13 H 0.1555 0.7030 0.5730
C28 C 0.2131(3) 0.73927(9) 0.4811(2)
C29 C 0.1998(2) 0.77635(9) 0.4361(2)
C30 C 0.1239(2) 0.80326(8) 0.4675(2)
C31 C 0.1383(2) 0.84512(8) 0.45486(19)
C32 C 0.2183(2) 0.85919(8) 0.40101(19)
C33 C 0.2205(2) 0.90076(8) 0.38540(19)
C34 C 0.1859(2) 0.92601(8) 0.45375(19)
C35 C 0.2258(2) 0.96630(8) 0.45999(19)
C36 C 0.2846(2) 0.98069(8) 0.38958(19)
C37 C 0.3616(2) 1.01255(8) 0.4150(2)
C38 C 0.3705(2) 1.03099(8) 0.5015(2)
H14 H 0.4247 1.0511 0.5182
C39 C 0.2658(2) 0.96017(8) 0.29887(19)
C40 C 0.2581(2) 0.98074(9) 0.2100(2)
C41 C 0.2501(3) 1.02213(10) 0.2010(2)
H15 H 0.2512 1.0374 0.2552
C42 C 0.2407(3) 1.04072(13) 0.1150(3)
H16 H 0.2351 1.0682 0.1110
C43 C 0.2395(4) 1.01788(15) 0.0326(3)
H17 H 0.2392 1.0304 -0.0251
C44 C 0.2388(3) 0.97808(13) 0.0371(2)
H18 H 0.2346 0.9635 -0.0184
C45 C 0.2443(3) 0.95802(11) 0.1243(2)
C46 C 0.2299(3) 0.91672(11) 0.1287(2)
H19 H 0.2246 0.9017 0.0737
C47 C 0.2236(3) 0.89840(9) 0.2114(2)
H20 H 0.2061 0.8715 0.2108
C48 C 0.2433(2) 0.91936(9) 0.29922(19)
C49 C 0.2905(2) 0.83064(9) 0.3632(2)
C50 C 0.3876(3) 0.84261(10) 0.3230(2)
H21 H 0.4106 0.8690 0.3273
C51 C 0.4461(3) 0.81653(11) 0.2795(2)
H22 H 0.5135 0.8245 0.2602
C52 C 0.4069(3) 0.77741(11) 0.2627(2)
C53 C 0.4493(4) 0.75097(13) 0.2002(3)
H23 H 0.5135 0.7584 0.1755
C54 C 0.3999(4) 0.71601(13) 0.1760(3)
H24 H 0.4299 0.6994 0.1351
C55 C 0.3029(4) 0.70404(11) 0.2119(3)
H25 H 0.2655 0.6804 0.1917
C56 C 0.2635(3) 0.72725(10) 0.2767(2)
H26 H 0.2010 0.7186 0.3021
C57 C 0.3154(3) 0.76396(9) 0.3060(2)
C58 C 0.2709(2) 0.79035(9) 0.3699(2)
C59 C 0.4072(3) 1.06358(11) 0.6840(3)
H27 H 0.3946 1.0872 0.6449
H28 H 0.4815 1.0523 0.6789
C60 C 0.4061(4) 1.07353(16) 0.7839(3)
H29 H 0.3322 1.0857 0.7870
H30 H 0.4664 1.0929 0.8058
C61 C 0.4245(5) 1.0389(2) 0.8492(4)
H31 H 0.4219 1.0475 0.9125
H32 H 0.4988 1.0273 0.8485
H33 H 0.3646 1.0197 0.8287
C62 C 0.4938(3) 1.05862(10) 0.3654(2)
H34 H 0.5502 1.0587 0.4248
H35 H 0.4395 1.0801 0.3671
C63 C 0.5540(3) 1.06416(11) 0.2832(3)
H36 H 0.4983 1.0618 0.2238
H37 H 0.6126 1.0438 0.2847
C64 C 0.6105(4) 1.10485(13) 0.2900(4)
H38 H 0.6495 1.1084 0.2379
H39 H 0.6656 1.1070 0.3489
H40 H 0.5520 1.1249 0.2876
C65 C 0.3184(4) 0.67774(12) 0.4993(3)
H41 H 0.2521 0.6620 0.4694
H42 H 0.3257 0.6764 0.5678
C66 C 0.4337(6) 0.66241(16) 0.4690(4)
H43 H 0.4280 0.6677 0.4018
H44 H 0.4989 0.6775 0.5035
C67 C 0.4553(10) 0.6238(3) 0.4847(7)
H45 H 0.5256 0.6169 0.4643
H46 H 0.3921 0.6086 0.4498
H47 H 0.4638 0.6184 0.5514
C68 C -0.0025(4) 0.70546(11) 0.6693(3)
H48 H 0.0767 0.7006 0.7021
H49 H -0.0241 0.6851 0.6214
C69 C -0.0825(6) 0.70441(16) 0.7386(4)
H50 H -0.0483 0.6871 0.7908
H51 H -0.0852 0.7308 0.7647
C70 C -0.1982(8) 0.6918(4) 0.7046(8)
H52 H -0.2400 0.6923 0.7556
H53 H -0.1979 0.6653 0.6803
H54 H -0.2351 0.7091 0.6547
loop_
_geom_bond_atom_site_label_1
_geom_bond_atom_site_label_2
_geom_bond_site_symmetry_1
_geom_bond_site_symmetry_2
O1 C1 1_555 1_555
O2 C37 1_555 1_555
O3 C28 1_555 1_555
O4 C26 1_555 1_555
C1 C2 1_555 1_555
C2 C3 1_555 1_555
C3 C4 1_555 1_555
C4 C5 1_555 1_555
C5 H1 1_555 1_555
C6 C5 1_555 1_555
H2 C6 1_555 1_555
C7 C6 1_555 1_555
H3 C7 1_555 1_555
C8 C7 1_555 1_555
H4 C8 1_555 1_555
C9 C4 1_555 1_555
C10 C9 1_555 1_555
H5 C10 1_555 1_555
C11 C10 1_555 1_555
H6 C11 1_555 1_555
C12 C3 1_555 1_555
C13 C12 1_555 1_555
C14 C13 1_555 1_555
C15 C14 1_555 1_555
C16 C15 1_555 1_555
H7 C16 1_555 1_555
C17 C16 1_555 1_555
H8 C17 1_555 1_555
C18 C17 1_555 1_555
C19 C18 1_555 1_555
H9 C19 1_555 1_555
C20 C19 1_555 1_555
H10 C20 1_555 1_555
C21 C20 1_555 1_555
H11 C21 1_555 1_555
C22 C21 1_555 1_555
H12 C22 1_555 1_555
C23 C18 1_555 1_555
C24 C15 1_555 1_555
C25 C24 1_555 1_555
C26 C25 1_555 1_555
C27 C26 1_555 1_555
H13 C27 1_555 1_555
C28 C27 1_555 1_555
C29 C28 1_555 1_555
C30 C25 1_555 1_555
C31 C14 1_555 1_555
C32 C31 1_555 1_555
C33 C32 1_555 1_555
C34 C13 1_555 1_555
C35 C2 1_555 1_555
C36 C35 1_555 1_555
C37 C36 1_555 1_555
C38 C1 1_555 1_555
H14 C38 1_555 1_555
C39 C36 1_555 1_555
C40 C39 1_555 1_555
C41 C40 1_555 1_555
H15 C41 1_555 1_555
C42 C41 1_555 1_555
H16 C42 1_555 1_555
C43 C42 1_555 1_555
H17 C43 1_555 1_555
C44 C43 1_555 1_555
H18 C44 1_555 1_555
C45 C40 1_555 1_555
C46 C45 1_555 1_555
H19 C46 1_555 1_555
C47 C46 1_555 1_555
H20 C47 1_555 1_555
C48 C33 1_555 1_555
C49 C32 1_555 1_555
C50 C49 1_555 1_555
H21 C50 1_555 1_555
C51 C50 1_555 1_555
H22 C51 1_555 1_555
C52 C51 1_555 1_555
C53 C52 1_555 1_555
H23 C53 1_555 1_555
C54 C53 1_555 1_555
H24 C54 1_555 1_555
C55 C54 1_555 1_555
H25 C55 1_555 1_555
C56 C55 1_555 1_555
H26 C56 1_555 1_555
C57 C52 1_555 1_555
C58 C29 1_555 1_555
C59 O1 1_555 1_555
H27 C59 1_555 1_555
H28 C59 1_555 1_555
C60 C59 1_555 1_555
H29 C60 1_555 1_555
H30 C60 1_555 1_555
C61 C60 1_555 1_555
H31 C61 1_555 1_555
H32 C61 1_555 1_555
H33 C61 1_555 1_555
C62 O2 1_555 1_555
H34 C62 1_555 1_555
H35 C62 1_555 1_555
C63 C62 1_555 1_555
H36 C63 1_555 1_555
H37 C63 1_555 1_555
C64 C63 1_555 1_555
H38 C64 1_555 1_555
H39 C64 1_555 1_555
H40 C64 1_555 1_555
C65 O3 1_555 1_555
H41 C65 1_555 1_555
H42 C65 1_555 1_555
C66 C65 1_555 1_555
H43 C66 1_555 1_555
H44 C66 1_555 1_555
C67 C66 1_555 1_555
H45 C67 1_555 1_555
H46 C67 1_555 1_555
H47 C67 1_555 1_555
C68 O4 1_555 1_555
H48 C68 1_555 1_555
H49 C68 1_555 1_555
C69 C68 1_555 1_555
H50 C69 1_555 1_555
H51 C69 1_555 1_555
C70 C69 1_555 1_555
H52 C70 1_555 1_555
H53 C70 1_555 1_555
H54 C70 1_555 1_555
C8 C9 1_555 1_555
C11 C12 1_555 1_555
C22 C23 1_555 1_555
C23 C24 1_555 1_555
C29 C30 1_555 1_555
C30 C31 1_555 1_555
C33 C34 1_555 1_555
C34 C35 1_555 1_555
C37 C38 1_555 1_555
C39 C48 1_555 1_555
C44 C45 1_555 1_555
C47 C48 1_555 1_555
C49 C58 1_555 1_555
C56 C57 1_555 1_555
C57 C58 1_555 1_555

#END
