
#######################################################################
#
#                 Cambridge Crystallographic Data Centre
#                                CCDC 
#
#######################################################################
#
# If this CIF has been generated from an entry in the Cambridge 
# Structural Database, then it will include bibliographic, chemical, 
# crystal, experimental, refinement or atomic coordinate data resulting 
# from the CCDC's data processing and validation procedures.
#
#######################################################################

data_DAJYAR
_chemical_formula_moiety         'C98 H78 O4,0.5(C6 H5 Cl1)'
_chemical_name_systematic        
"1,6,12,17-tetrakis(4-methoxyphenyl)-9,20-diphenyl-2,5,13,16-tetrapropyltetranaphtho[8,1,2-cde:2',1',8'-jkl:8'',1'',2''-nop:2''',1''',8'''-uva]pentacene chlorobenzene unknown solvate"
_symmetry_cell_setting           triclinic
_symmetry_space_group_name_H-M   'P -1'
_symmetry_Int_Tables_number      2
_space_group_name_Hall           '-P 1'
loop_
_symmetry_equiv_pos_site_id
_symmetry_equiv_pos_as_xyz
1 x,y,z
2 -x,-y,-z
_cell_length_a                   15.9662(3)
_cell_length_b                   22.2732(4)
_cell_length_c                   27.9930(6)
_cell_angle_alpha                67.9234(11)
_cell_angle_beta                 89.1446(11)
_cell_angle_gamma                89.0489(10)
_cell_volume                     9223.28
_exptl_crystal_colour            orange
_exptl_crystal_description       block
_cell_formula_units_Z            4
loop_
_atom_site_label
_atom_site_type_symbol
_atom_site_fract_x
_atom_site_fract_y
_atom_site_fract_z
O1 O 0.0195(2) 0.35744(16) 0.56241(12)
O2 O 0.49147(18) -0.17509(14) 1.17349(11)
O3 O 0.7045(2) 0.71357(16) 0.79495(12)
O4 O -0.2033(2) 0.36054(15) 1.21851(12)
C1 C -0.0733(10) 0.0827(9) 0.7988(6)
H1 H -0.1223 0.0564 0.8038
H2 H -0.0482 0.0749 0.8316
H3 H -0.0890 0.1276 0.7829
C2 C -0.0146(5) 0.0664(5) 0.7663(4)
H4 H -0.0474 0.0717 0.7361
H5 H -0.0074 0.0200 0.7839
C3 C 0.0733(3) 0.0883(2) 0.74342(17)
H6 H 0.1052 0.0509 0.7432
H7 H 0.0678 0.1184 0.7080
C4 C 0.2295(4) -0.2256(3) 0.9932(3)
H8 H 0.1747 -0.2442 1.0007
H9 H 0.2551 -0.2364 0.9662
H10 H 0.2633 -0.2425 1.0235
C5 C 0.2220(4) -0.1519(2) 0.9759(2)
H11 H 0.1948 -0.1415 1.0031
H12 H 0.1866 -0.1354 0.9458
C6 C 0.3068(3) -0.1172(2) 0.96285(18)
H13 H 0.3457 -0.1383 0.9906
H14 H 0.3297 -0.1209 0.9318
C7 C 0.1199(3) 0.1202(2) 0.77351(15)
C8 C 0.1577(2) 0.0798(2) 0.81920(16)
H15 H 0.1556 0.0353 0.8276
C9 C 0.1983(2) 0.10220(18) 0.85296(14)
C10 C 0.2415(2) 0.05876(18) 0.89921(14)
C11 C 0.2589(2) -0.00508(18) 0.90871(15)
H16 H 0.2443 -0.0221 0.8843
C12 C 0.2985(2) -0.04606(18) 0.95484(17)
C13 C 0.3223(2) -0.02263(17) 0.99087(14)
C14 C 0.3058(2) 0.04383(17) 0.98250(14)
C15 C 0.2672(2) 0.08552(17) 0.93607(13)
C16 C 0.2530(2) 0.15242(16) 0.92709(13)
C17 C 0.2250(2) 0.19531(17) 0.87706(13)
C18 C 0.1962(2) 0.16945(17) 0.84105(13)
C19 C 0.1633(2) 0.21135(19) 0.79336(14)
C20 C 0.1254(2) 0.1854(2) 0.75939(14)
C21 C 0.0955(3) 0.23089(19) 0.70807(15)
C22 C 0.1491(3) 0.2548(3) 0.6664(2)
H17 H 0.2051 0.2421 0.6705
C23 C 0.1231(3) 0.2964(3) 0.61947(19)
H18 H 0.1613 0.3115 0.5923
C24 C 0.0426(3) 0.3160(2) 0.61193(18)
C25 C -0.0137(3) 0.2936(2) 0.65291(18)
H19 H -0.0695 0.3069 0.6488
C26 C 0.0149(3) 0.2512(2) 0.69961(16)
H20 H -0.0232 0.2357 0.7268
C27 C -0.0648(3) 0.3707(3) 0.55244(18)
H21 H -0.0717 0.3995 0.5172
H22 H -0.0937 0.3310 0.5582
H23 H -0.0874 0.3906 0.5749
C28 C 0.1629(2) 0.27859(19) 0.78266(14)
H24 H 0.1411 0.3068 0.7515
C29 C 0.1933(2) 0.30352(17) 0.81637(14)
H25 H 0.1926 0.3482 0.8076
C30 C 0.2259(2) 0.26264(17) 0.86454(13)
C31 C 0.2520(2) 0.28810(17) 0.90401(13)
C32 C 0.2519(2) 0.24358(16) 0.95621(13)
C33 C 0.2683(2) 0.17610(16) 0.96513(13)
C34 C 0.3062(2) 0.13270(18) 1.01185(13)
H26 H 0.3173 0.1479 1.0378
C35 C 0.3265(2) 0.07073(18) 1.01942(14)
H27 H 0.3544 0.0452 1.0493
C36 C 0.3678(2) -0.06399(17) 1.03937(16)
C37 C 0.4497(3) -0.08121(17) 1.03697(15)
H28 H 0.4768 -0.0680 1.0051
C38 C 0.4935(2) -0.11802(19) 1.08101(17)
H29 H 0.5497 -0.1282 1.0788
C39 C 0.4534(3) -0.13889(18) 1.12718(16)
C40 C 0.3725(3) -0.12167(19) 1.13072(16)
H30 H 0.3462 -0.1348 1.1628
C41 C 0.3294(3) -0.08553(19) 1.08805(18)
H31 H 0.2736 -0.0749 1.0911
C42 C 0.5779(3) -0.1940(2) 1.17156(17)
H32 H 0.5969 -0.2187 1.2058
H33 H 0.5828 -0.2200 1.1509
H34 H 0.6115 -0.1560 1.1566
C43 C 0.2753(2) 0.35283(17) 0.89345(14)
C44 C 0.2953(3) 0.39746(18) 0.83996(15)
C45 C 0.2500(3) 0.45300(19) 0.81734(16)
H35 H 0.2078 0.4640 0.8360
C46 C 0.2665(4) 0.4939(2) 0.7661(2)
H36 H 0.2357 0.5320 0.7506
C47 C 0.3288(5) 0.4765(3) 0.7394(2)
H37 H 0.3408 0.5033 0.7055
C48 C 0.3727(4) 0.4211(3) 0.7617(2)
H38 H 0.4141 0.4098 0.7428
C49 C 0.3574(3) 0.3808(2) 0.81187(17)
H39 H 0.3884 0.3428 0.8269
C50 C 0.2360(2) 0.26837(17) 0.99505(14)
C51 C 0.2173(3) 0.22385(17) 1.04908(14)
C52 C 0.1530(3) 0.17840(18) 1.05969(16)
H40 H 0.1218 0.1749 1.0331
C53 C 0.1366(3) 0.1391(2) 1.1101(2)
H41 H 0.0932 0.1096 1.1172
C54 C 0.1817(5) 0.1421(3) 1.1496(2)
H42 H 0.1697 0.1147 1.1832
C55 C 0.2455(4) 0.1859(3) 1.13958(19)
H43 H 0.2772 0.1882 1.1665
C56 C 0.2622(3) 0.2262(2) 1.08992(17)
H44 H 0.3050 0.2561 1.0835
C57 C 0.2761(2) 0.37453(16) 0.93503(13)
C58 C 0.3149(2) 0.43542(17) 0.93135(14)
C59 C 0.3832(2) 0.46376(17) 0.89815(13)
H45 H 0.4019 0.4454 0.8750
C60 C 0.4220(2) 0.51659(18) 0.89919(15)
H46 H 0.4683 0.5326 0.8779
C61 C 0.3932(3) 0.54867(18) 0.93251(15)
C62 C 0.4346(3) 0.60465(19) 0.93296(16)
C63 C 0.4036(3) 0.63418(19) 0.96548(19)
C64 C 0.3323(3) 0.6084(2) 0.99606(16)
H47 H 0.3112 0.6293 1.0170
C65 C 0.2926(3) 0.55449(18) 0.99656(15)
C66 C 0.3261(2) 0.52279(17) 0.96554(15)
C67 C 0.2886(2) 0.46362(17) 0.96703(14)
C68 C 0.2245(2) 0.43295(18) 1.00495(13)
C69 C 0.1854(3) 0.46891(18) 1.03293(14)
C70 C 0.2180(3) 0.53029(18) 1.02780(15)
C71 C 0.1737(3) 0.56283(19) 1.05548(17)
H48 H 0.1930 0.6032 1.0527
C72 C 0.1045(3) 0.5393(2) 1.08601(16)
C73 C 0.0750(3) 0.4798(2) 1.09123(15)
C74 C 0.1165(3) 0.44192(19) 1.06554(14)
C75 C 0.0902(3) 0.37862(19) 1.07138(15)
H49 H 0.0438 0.3608 1.0920
C76 C 0.1313(3) 0.34397(18) 1.04759(14)
H50 H 0.1145 0.3018 1.0540
C77 C 0.1990(2) 0.36979(18) 1.01327(13)
C78 C 0.2375(2) 0.33674(17) 0.98206(13)
C79 C 0.5076(3) 0.63243(19) 0.89757(16)
C80 C 0.4982(3) 0.6858(2) 0.85335(19)
H51 H 0.4454 0.7049 0.8452
C81 C 0.5637(3) 0.7122(2) 0.82060(18)
H52 H 0.5553 0.7496 0.7915
C82 C 0.6425(3) 0.6835(2) 0.83056(18)
C83 C 0.6540(3) 0.6305(2) 0.87397(19)
H53 H 0.7065 0.6107 0.8814
C84 C 0.5872(3) 0.6056(2) 0.90732(17)
H54 H 0.5963 0.5696 0.9374
C85 C 0.7879(3) 0.6871(3) 0.8056(2)
H55 H 0.8250 0.7120 0.7783
H56 H 0.8063 0.6888 0.8376
H57 H 0.7882 0.6429 0.8081
C86 C 0.4457(3) 0.6930(2) 0.97046(19)
H58 H 0.4882 0.7091 0.9437
H59 H 0.4041 0.7272 0.9649
C87 C 0.4853(4) 0.6784(3) 1.0215(3)
H60 H 0.5284 0.6455 1.0263
H61 H 0.4433 0.6604 1.0483
C88 C 0.5240(4) 0.7360(3) 1.0282(3)
H62 H 0.5481 0.7227 1.0619
H63 H 0.5669 0.7535 1.0025
H64 H 0.4816 0.7685 1.0245
C89 C 0.0616(3) 0.5784(2) 1.11236(18)
H65 H 0.1027 0.6060 1.1189
H66 H 0.0406 0.5492 1.1455
C90 C -0.0119(4) 0.6214(3) 1.0821(3)
H67 H -0.0481 0.5953 1.0703
H68 H -0.0444 0.6360 1.1053
C91 C 0.0126(5) 0.6745(4) 1.0404(4)
H69 H -0.0360 0.6988 1.0236
H70 H 0.0473 0.7013 1.0517
H71 H 0.0436 0.6606 1.0167
C92 C -0.0014(3) 0.44902(19) 1.12462(16)
C93 C -0.0777(3) 0.4540(2) 1.10426(17)
H72 H -0.0839 0.4773 1.0691
C94 C -0.1478(3) 0.4261(2) 1.13314(19)
H73 H -0.1999 0.4305 1.1177
C95 C -0.1387(3) 0.3918(2) 1.1850(2)
C96 C -0.0615(3) 0.3855(3) 1.20756(18)
H74 H -0.0553 0.3629 1.2428
C97 C 0.0059(3) 0.4133(2) 1.17714(18)
H75 H 0.0585 0.4082 1.1921
C98 C -0.2864(3) 0.3642(2) 1.1982(2)
H76 H -0.3243 0.3406 1.2255
H77 H -0.3043 0.4087 1.1832
H78 H -0.2860 0.3457 1.1722
O5 O 0.2893(2) -0.20994(14) 0.71133(11)
O6 O 1.1967(2) 0.12510(16) 0.28294(11)
O7 O 0.9359(2) 0.17624(15) 0.92912(12)
O8 O 0.5283(2) 0.68578(15) 0.29183(12)
C100 C 0.4696(3) -0.2374(2) 0.4870(2)
H82 H 0.4352 -0.2230 0.4569
H83 H 0.5176 -0.2605 0.4814
H84 H 0.4379 -0.2655 0.5160
C101 C 0.4985(3) -0.1788(2) 0.4980(2)
H85 H 0.5288 -0.1503 0.4680
H86 H 0.4493 -0.1553 0.5025
C102 C 0.5517(3) -0.1935(2) 0.54307(17)
H87 H 0.5957 -0.2236 0.5421
H88 H 0.5185 -0.2143 0.5741
C103 C 1.0389(3) -0.1738(3) 0.4119(2)
H89 H 1.0780 -0.2012 0.4366
H90 H 0.9986 -0.2001 0.4039
H91 H 1.0684 -0.1480 0.3811
C104 C 0.9945(3) -0.1302(3) 0.4342(2)
H92 H 1.0361 -0.1049 0.4431
H93 H 0.9665 -0.1569 0.4659
C105 C 0.9311(3) -0.0846(2) 0.39927(17)
H94 H 0.8886 -0.1097 0.3910
H95 H 0.9587 -0.0582 0.3673
C106 C 0.5914(3) -0.13260(19) 0.54530(17)
C107 C 0.6618(3) -0.10904(19) 0.51436(16)
H96 H 0.6827 -0.1324 0.4953
C108 C 0.7033(2) -0.05192(18) 0.51019(14)
C109 C 0.7775(2) -0.02760(18) 0.47920(14)
C110 C 0.8191(3) -0.06346(19) 0.45417(15)
H97 H 0.7995 -0.1043 0.4586
C111 C 0.8885(3) -0.0397(2) 0.42299(15)
C112 C 0.9191(2) 0.02081(19) 0.41523(14)
C113 C 0.8775(2) 0.05804(17) 0.44020(14)
C114 C 0.9056(2) 0.12096(17) 0.43367(13)
H98 H 0.9521 0.1380 0.4128
C115 C 0.8656(2) 0.15659(17) 0.45737(14)
H99 H 0.8850 0.1979 0.4517
C116 C 0.7954(2) 0.13338(17) 0.49039(13)
C117 C 0.7709(2) 0.06930(17) 0.50031(13)
C118 C 0.8092(2) 0.03309(16) 0.47364(13)
C119 C 0.7055(2) 0.04144(16) 0.53774(13)
C120 C 0.6791(2) 0.07209(16) 0.57100(13)
C121 C 0.6097(2) 0.04502(18) 0.60431(13)
H100 H 0.5902 0.0652 0.6261
C122 C 0.5711(2) -0.00909(18) 0.60525(14)
H101 H 0.5247 -0.0241 0.6266
C123 C 0.5999(2) -0.04350(17) 0.57444(14)
C124 C 0.6687(2) -0.01776(16) 0.54076(13)
C125 C 0.5594(2) -0.10199(18) 0.57618(15)
C126 C 0.4869(3) -0.12822(18) 0.61139(15)
C127 C 0.4982(3) -0.1766(2) 0.65869(17)
H102 H 0.5519 -0.1922 0.6694
C128 C 0.4306(3) -0.2022(2) 0.69045(17)
H103 H 0.4393 -0.2351 0.7224
C129 C 0.3504(3) -0.1803(2) 0.67595(17)
C130 C 0.3384(3) -0.1325(2) 0.62925(17)
H104 H 0.2847 -0.1168 0.6187
C131 C 0.4064(3) -0.10701(19) 0.59725(16)
H105 H 0.3973 -0.0745 0.5651
C132 C 0.2061(3) -0.1881(2) 0.6997(2)
H106 H 0.1699 -0.2128 0.7276
H107 H 0.2021 -0.1431 0.6948
H108 H 0.1896 -0.1934 0.6687
C133 C 0.9941(3) 0.04665(18) 0.38129(16)
C134 C 0.9865(3) 0.0772(2) 0.32811(18)
H109 H 0.9340 0.0809 0.3133
C135 C 1.0550(3) 0.1021(3) 0.29705(17)
H110 H 1.0478 0.1224 0.2616
C136 C 1.1330(3) 0.0977(2) 0.31684(18)
C137 C 1.1416(3) 0.0674(2) 0.36926(19)
H111 H 1.1944 0.0638 0.3838
C138 C 1.0720(3) 0.0419(2) 0.40123(16)
H112 H 1.0793 0.0214 0.4366
C139 C 1.2777(3) 0.1235(2) 0.30198(19)
H113 H 1.3155 0.1445 0.2738
H114 H 1.2778 0.1457 0.3255
H115 H 1.2953 0.0793 0.3196
C140 C 0.7167(2) 0.13402(16) 0.56604(14)
C141 C 0.7145(2) 0.15920(17) 0.60536(13)
C142 C 0.7336(2) 0.22499(17) 0.59275(13)
C143 C 0.7371(2) 0.26704(17) 0.53920(13)
C144 C 0.7586(2) 0.23772(17) 0.50369(13)
C145 C 0.7573(2) 0.16964(16) 0.51929(13)
C146 C 0.6928(2) 0.11729(18) 0.65951(14)
C147 C 0.7379(3) 0.0608(2) 0.68465(16)
H116 H 0.7806 0.0485 0.6672
C148 C 0.7201(4) 0.0223(2) 0.7355(2)
H117 H 0.7500 -0.0160 0.7520
C149 C 0.6577(5) 0.0417(3) 0.7613(2)
H118 H 0.6478 0.0174 0.7960
C150 C 0.6100(3) 0.0958(3) 0.7369(2)
H119 H 0.5662 0.1072 0.7542
C151 C 0.6285(3) 0.1336(2) 0.68565(16)
H120 H 0.5967 0.1707 0.6688
C152 C 0.7817(2) 0.27890(17) 0.44917(14)
C153 C 0.7381(3) 0.27372(18) 0.40812(16)
H121 H 0.6940 0.2450 0.4142
C154 C 0.7612(4) 0.3117(2) 0.35874(18)
H122 H 0.7319 0.3087 0.3313
C155 C 0.8257(4) 0.3534(3) 0.3490(2)
H123 H 0.8399 0.3785 0.3151
C156 C 0.8709(3) 0.3592(2) 0.3887(2)
H124 H 0.9156 0.3875 0.3820
C157 C 0.8474(3) 0.32119(18) 0.43886(16)
H125 H 0.8768 0.3245 0.4662
C158 C 0.7486(2) 0.25503(17) 0.63047(13)
C159 C 0.7796(2) 0.21761(18) 0.68040(14)
H126 H 0.7903 0.1736 0.6892
C160 C 0.7941(2) 0.2450(2) 0.71544(14)
H127 H 0.8147 0.2194 0.7477
C161 C 0.7783(2) 0.31096(19) 0.70376(15)
C162 C 0.7516(2) 0.35004(18) 0.65418(15)
C163 C 0.7408(2) 0.32129(17) 0.61635(13)
C164 C 0.7184(2) 0.36186(16) 0.56492(14)
C165 C 0.7170(2) 0.33539(16) 0.52580(13)
C166 C 0.6869(2) 0.37555(17) 0.47699(14)
H128 H 0.6811 0.3581 0.4518
C167 C 0.6663(2) 0.43787(18) 0.46553(14)
H129 H 0.6461 0.4622 0.4328
C168 C 0.6742(2) 0.46832(18) 0.50216(15)
C169 C 0.7016(2) 0.42881(17) 0.55182(14)
C170 C 0.7898(3) 0.3395(2) 0.74189(16)
C171 C 0.7700(3) 0.4032(2) 0.73046(19)
C172 C 0.7433(3) 0.4407(2) 0.68018(18)
H130 H 0.7294 0.4840 0.6726
C173 C 0.7367(2) 0.4168(2) 0.64171(16)
C174 C 0.7108(2) 0.45723(19) 0.58969(15)
C175 C 0.6965(3) 0.5235(2) 0.57414(17)
H131 H 0.7051 0.5429 0.5978
C176 C 0.6704(3) 0.5619(2) 0.52560(19)
C177 C 0.6571(2) 0.53623(18) 0.48877(17)
C178 C 0.8284(3) 0.2988(2) 0.79223(17)
C179 C 0.9116(3) 0.2982(2) 0.79848(17)
H132 H 0.9443 0.3254 0.7715
C180 C 0.9514(3) 0.2586(2) 0.84365(18)
H133 H 1.0092 0.2602 0.8466
C181 C 0.9053(3) 0.2178(2) 0.88308(18)
C182 C 0.8202(3) 0.2173(3) 0.87815(18)
H134 H 0.7877 0.1901 0.9052
C183 C 0.7821(3) 0.2575(3) 0.8328(2)
H135 H 0.7243 0.2565 0.8298
C184 C 1.0225(3) 0.1675(2) 0.93375(18)
H136 H 1.0356 0.1373 0.9677
H137 H 1.0430 0.1508 0.9087
H138 H 1.0484 0.2082 0.9280
C185 C 0.7738(4) 0.4335(3) 0.7707(2)
H139 H 0.7813 0.4798 0.7534
H140 H 0.8222 0.4161 0.7923
C186 C 0.6951(6) 0.4214(4) 0.8053(3)
H141 H 0.6942 0.3762 0.8282
H142 H 0.6457 0.4300 0.7838
C187 C 0.6908(8) 0.4644(6) 0.8383(4)
H143 H 0.6407 0.4549 0.8591
H144 H 0.7388 0.4555 0.8603
H145 H 0.6903 0.5093 0.8159
C188 C 0.6624(4) 0.6354(2) 0.5127(2)
H146 H 0.6343 0.6432 0.5408
H147 H 0.6294 0.6555 0.4818
C189 C 0.7561(5) 0.6664(3) 0.5037(3)
H148 H 0.7869 0.6483 0.5357
H149 H 0.7856 0.6541 0.4782
C190 C 0.7554(7) 0.7373(4) 0.4865(4)
H150 H 0.8119 0.7527 0.4819
H151 H 0.7263 0.7557 0.4544
H152 H 0.7275 0.7500 0.5119
C191 C 0.6216(3) 0.57523(17) 0.43660(16)
C192 C 0.5378(3) 0.5871(2) 0.43007(18)
H153 H 0.5020 0.5691 0.4582
C193 C 0.5041(3) 0.6253(2) 0.38279(19)
H154 H 0.4469 0.6344 0.3797
C194 C 0.5558(3) 0.64912(19) 0.34089(18)
C195 C 0.6393(3) 0.6370(2) 0.34636(18)
H155 H 0.6745 0.6528 0.3177
C196 C 0.6726(3) 0.6016(2) 0.39365(19)
H156 H 0.7303 0.5953 0.3969
C197 C 0.4410(3) 0.6985(2) 0.28382(18)
H157 H 0.4313 0.7243 0.2482
H158 H 0.4118 0.6583 0.2932
H159 H 0.4210 0.7215 0.3047
Cl1 Cl 0.4785(2) 0.88948(14) 0.75506(10)
C198 C 0.4823(5) 0.9198(4) 0.8029(3)
C199 C 0.5151(5) 0.8818(4) 0.8485(4)
H160 H 0.5359 0.8404 0.8543
C200 C 0.5160(5) 0.9077(5) 0.8860(4)
H161 H 0.5379 0.8824 0.9179
C201 C 0.4843(5) 0.9735(5) 0.8788(3)
H162 H 0.4881 0.9914 0.9038
C202 C 0.4513(6) 1.0031(5) 0.8348(4)
H163 H 0.4273 1.0437 0.8284
C203 C 0.4483(5) 0.9785(4) 0.7948(3)
H164 H 0.4233 1.0026 0.7635
C99? C -0.0664(16) 0.0207(10) 0.7510(10)
H79? H -0.1188 0.0133 0.7696
H80? H -0.0769 0.0395 0.7147
H81? H -0.0367 -0.0197 0.7591
loop_
_geom_bond_atom_site_label_1
_geom_bond_atom_site_label_2
_geom_bond_site_symmetry_1
_geom_bond_site_symmetry_2
O1 C24 1_555 1_555
O2 C39 1_555 1_555
O3 C82 1_555 1_555
O4 C95 1_555 1_555
C1 H1 1_555 1_555
H2 C1 1_555 1_555
H3 C1 1_555 1_555
C2 C1 1_555 1_555
H4 C2 1_555 1_555
H5 C2 1_555 1_555
C3 C2 1_555 1_555
H6 C3 1_555 1_555
H7 C3 1_555 1_555
C4 H8 1_555 1_555
H9 C4 1_555 1_555
H10 C4 1_555 1_555
C5 C4 1_555 1_555
H11 C5 1_555 1_555
H12 C5 1_555 1_555
C6 C5 1_555 1_555
H13 C6 1_555 1_555
H14 C6 1_555 1_555
C7 C3 1_555 1_555
C8 C7 1_555 1_555
H15 C8 1_555 1_555
C9 C8 1_555 1_555
C10 C9 1_555 1_555
C11 C10 1_555 1_555
H16 C11 1_555 1_555
C12 C6 1_555 1_555
C13 C12 1_555 1_555
C14 C13 1_555 1_555
C15 C10 1_555 1_555
C16 C15 1_555 1_555
C17 C16 1_555 1_555
C18 C9 1_555 1_555
C19 C18 1_555 1_555
C20 C7 1_555 1_555
C21 C20 1_555 1_555
C22 C21 1_555 1_555
H17 C22 1_555 1_555
C23 C22 1_555 1_555
H18 C23 1_555 1_555
C24 C23 1_555 1_555
C25 C24 1_555 1_555
H19 C25 1_555 1_555
C26 C21 1_555 1_555
H20 C26 1_555 1_555
C27 O1 1_555 1_555
H21 C27 1_555 1_555
H22 C27 1_555 1_555
H23 C27 1_555 1_555
C28 C19 1_555 1_555
H24 C28 1_555 1_555
C29 C28 1_555 1_555
H25 C29 1_555 1_555
C30 C17 1_555 1_555
C31 C30 1_555 1_555
C32 C31 1_555 1_555
C33 C16 1_555 1_555
C34 C33 1_555 1_555
H26 C34 1_555 1_555
C35 C14 1_555 1_555
H27 C35 1_555 1_555
C36 C13 1_555 1_555
C37 C36 1_555 1_555
H28 C37 1_555 1_555
C38 C37 1_555 1_555
H29 C38 1_555 1_555
C39 C38 1_555 1_555
C40 C39 1_555 1_555
H30 C40 1_555 1_555
C41 C36 1_555 1_555
H31 C41 1_555 1_555
C42 O2 1_555 1_555
H32 C42 1_555 1_555
H33 C42 1_555 1_555
H34 C42 1_555 1_555
C43 C31 1_555 1_555
C44 C43 1_555 1_555
C45 C44 1_555 1_555
H35 C45 1_555 1_555
C46 C45 1_555 1_555
H36 C46 1_555 1_555
C47 C46 1_555 1_555
H37 C47 1_555 1_555
C48 C47 1_555 1_555
H38 C48 1_555 1_555
C49 C44 1_555 1_555
H39 C49 1_555 1_555
C50 C32 1_555 1_555
C51 C50 1_555 1_555
C52 C51 1_555 1_555
H40 C52 1_555 1_555
C53 C52 1_555 1_555
H41 C53 1_555 1_555
C54 C53 1_555 1_555
H42 C54 1_555 1_555
C55 C54 1_555 1_555
H43 C55 1_555 1_555
C56 C51 1_555 1_555
H44 C56 1_555 1_555
C57 C43 1_555 1_555
C58 C57 1_555 1_555
C59 C58 1_555 1_555
H45 C59 1_555 1_555
C60 C59 1_555 1_555
H46 C60 1_555 1_555
C61 C60 1_555 1_555
C62 C61 1_555 1_555
C63 C62 1_555 1_555
C64 C63 1_555 1_555
H47 C64 1_555 1_555
C65 C64 1_555 1_555
C66 C61 1_555 1_555
C67 C58 1_555 1_555
C68 C67 1_555 1_555
C69 C68 1_555 1_555
C70 C65 1_555 1_555
C71 C70 1_555 1_555
H48 C71 1_555 1_555
C72 C71 1_555 1_555
C73 C72 1_555 1_555
C74 C69 1_555 1_555
C75 C74 1_555 1_555
H49 C75 1_555 1_555
C76 C75 1_555 1_555
H50 C76 1_555 1_555
C77 C68 1_555 1_555
C78 C50 1_555 1_555
C79 C62 1_555 1_555
C80 C79 1_555 1_555
H51 C80 1_555 1_555
C81 C80 1_555 1_555
H52 C81 1_555 1_555
C82 C81 1_555 1_555
C83 C82 1_555 1_555
H53 C83 1_555 1_555
C84 C79 1_555 1_555
H54 C84 1_555 1_555
C85 O3 1_555 1_555
H55 C85 1_555 1_555
H56 C85 1_555 1_555
H57 C85 1_555 1_555
C86 C63 1_555 1_555
H58 C86 1_555 1_555
H59 C86 1_555 1_555
C87 C86 1_555 1_555
H60 C87 1_555 1_555
H61 C87 1_555 1_555
C88 C87 1_555 1_555
H62 C88 1_555 1_555
H63 C88 1_555 1_555
H64 C88 1_555 1_555
C89 C72 1_555 1_555
H65 C89 1_555 1_555
H66 C89 1_555 1_555
C90 C89 1_555 1_555
H67 C90 1_555 1_555
H68 C90 1_555 1_555
C91 C90 1_555 1_555
H69 C91 1_555 1_555
H70 C91 1_555 1_555
H71 C91 1_555 1_555
C92 C73 1_555 1_555
C93 C92 1_555 1_555
H72 C93 1_555 1_555
C94 C93 1_555 1_555
H73 C94 1_555 1_555
C95 C94 1_555 1_555
C96 C95 1_555 1_555
H74 C96 1_555 1_555
C97 C92 1_555 1_555
H75 C97 1_555 1_555
C98 O4 1_555 1_555
H76 C98 1_555 1_555
H77 C98 1_555 1_555
H78 C98 1_555 1_555
O5 C129 1_555 1_555
O6 C136 1_555 1_555
O7 C181 1_555 1_555
O8 C194 1_555 1_555
C100 H82 1_555 1_555
H83 C100 1_555 1_555
H84 C100 1_555 1_555
C101 C100 1_555 1_555
H85 C101 1_555 1_555
H86 C101 1_555 1_555
C102 C101 1_555 1_555
H87 C102 1_555 1_555
H88 C102 1_555 1_555
C103 H89 1_555 1_555
H90 C103 1_555 1_555
H91 C103 1_555 1_555
C104 C103 1_555 1_555
H92 C104 1_555 1_555
H93 C104 1_555 1_555
C105 C104 1_555 1_555
H94 C105 1_555 1_555
H95 C105 1_555 1_555
C106 C102 1_555 1_555
C107 C106 1_555 1_555
H96 C107 1_555 1_555
C108 C107 1_555 1_555
C109 C108 1_555 1_555
C110 C109 1_555 1_555
H97 C110 1_555 1_555
C111 C105 1_555 1_555
C112 C111 1_555 1_555
C113 C112 1_555 1_555
C114 C113 1_555 1_555
H98 C114 1_555 1_555
C115 C114 1_555 1_555
H99 C115 1_555 1_555
C116 C115 1_555 1_555
C117 C116 1_555 1_555
C118 C109 1_555 1_555
C119 C117 1_555 1_555
C120 C119 1_555 1_555
C121 C120 1_555 1_555
H100 C121 1_555 1_555
C122 C121 1_555 1_555
H101 C122 1_555 1_555
C123 C122 1_555 1_555
C124 C108 1_555 1_555
C125 C106 1_555 1_555
C126 C125 1_555 1_555
C127 C126 1_555 1_555
H102 C127 1_555 1_555
C128 C127 1_555 1_555
H103 C128 1_555 1_555
C129 C128 1_555 1_555
C130 C129 1_555 1_555
H104 C130 1_555 1_555
C131 C126 1_555 1_555
H105 C131 1_555 1_555
C132 O5 1_555 1_555
H106 C132 1_555 1_555
H107 C132 1_555 1_555
H108 C132 1_555 1_555
C133 C112 1_555 1_555
C134 C133 1_555 1_555
H109 C134 1_555 1_555
C135 C134 1_555 1_555
H110 C135 1_555 1_555
C136 C135 1_555 1_555
C137 C136 1_555 1_555
H111 C137 1_555 1_555
C138 C133 1_555 1_555
H112 C138 1_555 1_555
C139 O6 1_555 1_555
H113 C139 1_555 1_555
H114 C139 1_555 1_555
H115 C139 1_555 1_555
C140 C120 1_555 1_555
C141 C140 1_555 1_555
C142 C141 1_555 1_555
C143 C142 1_555 1_555
C144 C143 1_555 1_555
C145 C116 1_555 1_555
C146 C141 1_555 1_555
C147 C146 1_555 1_555
H116 C147 1_555 1_555
C148 C147 1_555 1_555
H117 C148 1_555 1_555
C149 C148 1_555 1_555
H118 C149 1_555 1_555
C150 C149 1_555 1_555
H119 C150 1_555 1_555
C151 C146 1_555 1_555
H120 C151 1_555 1_555
C152 C144 1_555 1_555
C153 C152 1_555 1_555
H121 C153 1_555 1_555
C154 C153 1_555 1_555
H122 C154 1_555 1_555
C155 C154 1_555 1_555
H123 C155 1_555 1_555
C156 C155 1_555 1_555
H124 C156 1_555 1_555
C157 C152 1_555 1_555
H125 C157 1_555 1_555
C158 C142 1_555 1_555
C159 C158 1_555 1_555
H126 C159 1_555 1_555
C160 C159 1_555 1_555
H127 C160 1_555 1_555
C161 C160 1_555 1_555
C162 C161 1_555 1_555
C163 C158 1_555 1_555
C164 C163 1_555 1_555
C165 C143 1_555 1_555
C166 C165 1_555 1_555
H128 C166 1_555 1_555
C167 C166 1_555 1_555
H129 C167 1_555 1_555
C168 C167 1_555 1_555
C169 C164 1_555 1_555
C170 C161 1_555 1_555
C171 C170 1_555 1_555
C172 C171 1_555 1_555
H130 C172 1_555 1_555
C173 C162 1_555 1_555
C174 C169 1_555 1_555
C175 C174 1_555 1_555
H131 C175 1_555 1_555
C176 C175 1_555 1_555
C177 C168 1_555 1_555
C178 C170 1_555 1_555
C179 C178 1_555 1_555
H132 C179 1_555 1_555
C180 C179 1_555 1_555
H133 C180 1_555 1_555
C181 C180 1_555 1_555
C182 C181 1_555 1_555
H134 C182 1_555 1_555
C183 C178 1_555 1_555
H135 C183 1_555 1_555
C184 O7 1_555 1_555
H136 C184 1_555 1_555
H137 C184 1_555 1_555
H138 C184 1_555 1_555
C185 C171 1_555 1_555
H139 C185 1_555 1_555
H140 C185 1_555 1_555
C186 C185 1_555 1_555
H141 C186 1_555 1_555
H142 C186 1_555 1_555
C187 C186 1_555 1_555
H143 C187 1_555 1_555
H144 C187 1_555 1_555
H145 C187 1_555 1_555
C188 C176 1_555 1_555
H146 C188 1_555 1_555
H147 C188 1_555 1_555
C189 C188 1_555 1_555
H148 C189 1_555 1_555
H149 C189 1_555 1_555
C190 C189 1_555 1_555
H150 C190 1_555 1_555
H151 C190 1_555 1_555
H152 C190 1_555 1_555
C191 C177 1_555 1_555
C192 C191 1_555 1_555
H153 C192 1_555 1_555
C193 C192 1_555 1_555
H154 C193 1_555 1_555
C194 C193 1_555 1_555
C195 C194 1_555 1_555
H155 C195 1_555 1_555
C196 C191 1_555 1_555
H156 C196 1_555 1_555
C197 O8 1_555 1_555
H157 C197 1_555 1_555
H158 C197 1_555 1_555
H159 C197 1_555 1_555
Cl1 C198 1_555 1_555
C198 C199 1_555 1_555
C199 H160 1_555 1_555
C200 C199 1_555 1_555
H161 C200 1_555 1_555
C201 C200 1_555 1_555
H162 C201 1_555 1_555
C202 C201 1_555 1_555
H163 C202 1_555 1_555
C203 C198 1_555 1_555
H164 C203 1_555 1_555
C11 C12 1_555 1_555
C14 C15 1_555 1_555
C17 C18 1_555 1_555
C19 C20 1_555 1_555
C25 C26 1_555 1_555
C29 C30 1_555 1_555
C32 C33 1_555 1_555
C34 C35 1_555 1_555
C40 C41 1_555 1_555
C48 C49 1_555 1_555
C55 C56 1_555 1_555
C57 C78 1_555 1_555
C65 C66 1_555 1_555
C66 C67 1_555 1_555
C69 C70 1_555 1_555
C73 C74 1_555 1_555
C76 C77 1_555 1_555
C77 C78 1_555 1_555
C83 C84 1_555 1_555
C96 C97 1_555 1_555
C110 C111 1_555 1_555
C113 C118 1_555 1_555
C117 C118 1_555 1_555
C119 C124 1_555 1_555
C123 C124 1_555 1_555
C123 C125 1_555 1_555
C130 C131 1_555 1_555
C137 C138 1_555 1_555
C140 C145 1_555 1_555
C144 C145 1_555 1_555
C150 C151 1_555 1_555
C156 C157 1_555 1_555
C162 C163 1_555 1_555
C164 C165 1_555 1_555
C168 C169 1_555 1_555
C172 C173 1_555 1_555
C173 C174 1_555 1_555
C176 C177 1_555 1_555
C182 C183 1_555 1_555
C195 C196 1_555 1_555
C202 C203 1_555 1_555

#END
