
#######################################################################
#
#                 Cambridge Crystallographic Data Centre
#                                CCDC 
#
#######################################################################
#
# If this CIF has been generated from an entry in the Cambridge 
# Structural Database, then it will include bibliographic, chemical, 
# crystal, experimental, refinement or atomic coordinate data resulting 
# from the CCDC's data processing and validation procedures.
#
#######################################################################

data_DAJZAQ
_chemical_formula_moiety         'C36 H37 N3 O6,C1 H4 O1'
_chemical_name_systematic        
'25,27-(2,10-Dioxo-3,6,9-triazaundecane-1,11-diolato)-26,28-dihydroxycalix(4)arene methanol solvate'
_symmetry_cell_setting           triclinic
_symmetry_space_group_name_H-M   'P -1'
_symmetry_Int_Tables_number      2
_space_group_name_Hall           '-P 1'
loop_
_symmetry_equiv_pos_site_id
_symmetry_equiv_pos_as_xyz
1 x,y,z
2 -x,-y,-z
_cell_length_a                   10.4342(18)
_cell_length_b                   11.608(2)
_cell_length_c                   15.156(3)
_cell_angle_alpha                75.571(3)
_cell_angle_beta                 77.305(3)
_cell_angle_gamma                70.390(3)
_cell_volume                     1655.93
_exptl_crystal_colour            colorless
_exptl_crystal_description       block
_cell_formula_units_Z            2
loop_
_atom_site_label
_atom_site_type_symbol
_atom_site_fract_x
_atom_site_fract_y
_atom_site_fract_z
O1 O 1.00100(11) 0.23943(11) 0.16564(8)
O2 O 1.14837(13) 0.37840(13) 0.28678(9)
O3 O 0.57045(11) 0.18356(11) 0.30307(7)
O4 O 0.39457(16) 0.38554(16) 0.45959(11)
O5 O 0.72023(12) 0.30502(12) 0.14480(8)
H1 H 0.8056 0.2856 0.1438
O6 O 0.86718(12) 0.07486(11) 0.29336(9)
H2 H 0.7885 0.0944 0.3244
N1 N 1.00950(15) 0.25310(14) 0.33779(10)
H3 H 0.9730 0.1978 0.3220
N2 N 0.74906(16) 0.40649(15) 0.43525(10)
H4 H 0.6906 0.4577 0.4758
N3 N 0.54247(16) 0.40519(14) 0.32479(11)
H5 H 0.5953 0.3570 0.2776
C1 C 1.05128(16) 0.16459(15) 0.09790(11)
C2 C 1.02299(16) 0.22017(15) 0.00817(11)
C3 C 1.07838(17) 0.14739(17) -0.05959(11)
H6 H 1.0612 0.1827 -0.1218
C4 C 1.15795(17) 0.02458(17) -0.03803(12)
H7 H 1.1980 -0.0237 -0.0857
C5 C 1.18004(17) -0.02899(16) 0.05227(12)
H8 H 1.2332 -0.1148 0.0666
C6 C 1.12623(16) 0.03994(16) 0.12252(11)
C7 C 0.69217(16) 0.32903(15) 0.05630(11)
C8 C 0.56167(16) 0.32604(15) 0.04819(11)
C9 C 0.52504(18) 0.35734(16) -0.03963(12)
H9 H 0.4369 0.3547 -0.0468
C10 C 0.61277(19) 0.39208(17) -0.11674(12)
H10 H 0.5845 0.4159 -0.1765
C11 C 0.74234(18) 0.39233(16) -0.10726(11)
H11 H 0.8034 0.4159 -0.1610
C12 C 0.78479(17) 0.35907(15) -0.02140(11)
C13 C 0.55437(16) 0.10336(16) 0.25395(11)
C14 C 0.60219(16) -0.02426(16) 0.28651(11)
C15 C 0.58518(18) -0.10390(17) 0.23728(12)
H12 H 0.6164 -0.1924 0.2585
C16 C 0.52373(18) -0.05659(17) 0.15824(12)
H13 H 0.5094 -0.1121 0.1264
C17 C 0.48298(17) 0.07065(17) 0.12508(12)
H14 H 0.4432 0.1023 0.0692
C18 C 0.49888(16) 0.15365(16) 0.17161(11)
C19 C 0.91614(17) -0.05149(15) 0.30227(11)
C20 C 1.05592(17) -0.10212(15) 0.26886(11)
C21 C 1.10986(18) -0.23053(16) 0.27888(11)
H15 H 1.2056 -0.2661 0.2574
C22 C 1.0287(2) -0.30893(16) 0.31926(12)
H16 H 1.0677 -0.3976 0.3254
C23 C 0.89076(19) -0.25730(16) 0.35043(11)
H17 H 0.8347 -0.3114 0.3788
C24 C 0.83135(17) -0.12924(16) 0.34165(11)
C25 C 0.93021(17) 0.35343(16) -0.01386(11)
H18 H 0.9695 0.3953 -0.0710
H19 H 0.9259 0.3967 0.0336
C26 C 0.46201(17) 0.29229(16) 0.13227(12)
H20 H 0.4603 0.3357 0.1790
H21 H 0.3712 0.3199 0.1159
C27 C 0.67693(17) -0.07644(16) 0.37032(11)
H22 H 0.6600 -0.0116 0.4040
H23 H 0.6418 -0.1409 0.4102
C28 C 1.14747(17) -0.01959(16) 0.22188(11)
H24 H 1.2420 -0.0686 0.2229
H25 H 1.1291 0.0450 0.2561
C29 C 1.09976(18) 0.29473(17) 0.17524(12)
H26 H 1.0879 0.3739 0.1341
H27 H 1.1907 0.2424 0.1579
C30 C 1.08614(17) 0.31300(16) 0.27228(12)
C31 C 0.99115(19) 0.26446(19) 0.43409(12)
H28 H 1.0785 0.2569 0.4494
H29 H 0.9597 0.1971 0.4728
C32 C 0.8893(2) 0.38706(19) 0.45423(13)
H30 H 0.8840 0.3896 0.5178
H31 H 0.9229 0.4542 0.4175
C33 C 0.7224(2) 0.48504(18) 0.34569(14)
H32 H 0.7815 0.4432 0.2978
H33 H 0.7431 0.5613 0.3402
C34 C 0.5733(2) 0.51445(18) 0.33365(16)
H34 H 0.5143 0.5466 0.3858
H35 H 0.5547 0.5778 0.2797
C35 C 0.46212(19) 0.34747(18) 0.38946(13)
C36 C 0.45380(18) 0.22918(18) 0.36920(12)
H36 H 0.4534 0.1677 0.4249
H37 H 0.3703 0.2458 0.3451
O7 O 0.71471(15) 0.16651(14) 0.46266(9)
H38 H 0.7161 0.2404 0.4547
C37 C 0.7090(4) 0.1139(3) 0.55605(17)
H39 H 0.7777 0.1296 0.5805
H40 H 0.7258 0.0256 0.5641
H41 H 0.6196 0.1501 0.5880
loop_
_geom_bond_atom_site_label_1
_geom_bond_atom_site_label_2
_geom_bond_site_symmetry_1
_geom_bond_site_symmetry_2
O1 C1 1_555 1_555
O2 C30 1_555 1_555
O3 C13 1_555 1_555
O4 C35 1_555 1_555
O5 H1 1_555 1_555
O6 H2 1_555 1_555
N1 H3 1_555 1_555
N2 H4 1_555 1_555
N3 H5 1_555 1_555
C1 C2 1_555 1_555
C2 C3 1_555 1_555
C3 H6 1_555 1_555
C4 C3 1_555 1_555
H7 C4 1_555 1_555
C5 C4 1_555 1_555
H8 C5 1_555 1_555
C6 C1 1_555 1_555
C7 O5 1_555 1_555
C8 C7 1_555 1_555
C9 C8 1_555 1_555
H9 C9 1_555 1_555
C10 C9 1_555 1_555
H10 C10 1_555 1_555
C11 C10 1_555 1_555
H11 C11 1_555 1_555
C12 C7 1_555 1_555
C13 C14 1_555 1_555
C14 C15 1_555 1_555
C15 H12 1_555 1_555
C16 C15 1_555 1_555
H13 C16 1_555 1_555
C17 C16 1_555 1_555
H14 C17 1_555 1_555
C18 C13 1_555 1_555
C19 O6 1_555 1_555
C20 C19 1_555 1_555
C21 C20 1_555 1_555
H15 C21 1_555 1_555
C22 C21 1_555 1_555
H16 C22 1_555 1_555
C23 C22 1_555 1_555
H17 C23 1_555 1_555
C24 C19 1_555 1_555
C25 C2 1_555 1_555
H18 C25 1_555 1_555
H19 C25 1_555 1_555
C26 C8 1_555 1_555
H20 C26 1_555 1_555
H21 C26 1_555 1_555
C27 C14 1_555 1_555
H22 C27 1_555 1_555
H23 C27 1_555 1_555
C28 C6 1_555 1_555
H24 C28 1_555 1_555
H25 C28 1_555 1_555
C29 O1 1_555 1_555
H26 C29 1_555 1_555
H27 C29 1_555 1_555
C30 N1 1_555 1_555
C31 N1 1_555 1_555
H28 C31 1_555 1_555
H29 C31 1_555 1_555
C32 N2 1_555 1_555
H30 C32 1_555 1_555
H31 C32 1_555 1_555
C33 N2 1_555 1_555
H32 C33 1_555 1_555
H33 C33 1_555 1_555
C34 N3 1_555 1_555
H34 C34 1_555 1_555
H35 C34 1_555 1_555
C35 N3 1_555 1_555
C36 O3 1_555 1_555
H36 C36 1_555 1_555
H37 C36 1_555 1_555
O7 H38 1_555 1_555
C37 O7 1_555 1_555
H39 C37 1_555 1_555
H40 C37 1_555 1_555
H41 C37 1_555 1_555
C5 C6 1_555 1_555
C11 C12 1_555 1_555
C12 C25 1_555 1_555
C17 C18 1_555 1_555
C18 C26 1_555 1_555
C20 C28 1_555 1_555
C23 C24 1_555 1_555
C24 C27 1_555 1_555
C29 C30 1_555 1_555
C31 C32 1_555 1_555
C33 C34 1_555 1_555
C35 C36 1_555 1_555

#END
