
#######################################################################
#
#                 Cambridge Crystallographic Data Centre
#                                CCDC 
#
#######################################################################
#
# If this CIF has been generated from an entry in the Cambridge 
# Structural Database, then it will include bibliographic, chemical, 
# crystal, experimental, refinement or atomic coordinate data resulting 
# from the CCDC's data processing and validation procedures.
#
#######################################################################

data_DAJZIY
_chemical_formula_moiety         'C42 H49 N3 O6'
_chemical_name_systematic        
25,27-(2,10-Dioxo-3,6,9-triazaundecane-1,11-diolato)-26,28-di-n-propoxycalix(4)arene
_symmetry_cell_setting           trigonal
_symmetry_space_group_name_H-M   'P 32 2 1'
_symmetry_Int_Tables_number      154
_space_group_name_Hall           'P 32 2"'
loop_
_symmetry_equiv_pos_site_id
_symmetry_equiv_pos_as_xyz
1 x,y,z
2 -y,x-y,2/3+z
3 -x+y,-x,1/3+z
4 y,x,-z
5 x-y,-y,1/3-z
6 -x,-x+y,2/3-z
_cell_length_a                   11.8723(7)
_cell_length_b                   11.8723(7)
_cell_length_c                   23.5356(19)
_cell_angle_alpha                90
_cell_angle_beta                 90
_cell_angle_gamma                120
_cell_volume                     2872.93
_exptl_crystal_colour            colorless
_exptl_crystal_description       block
_cell_formula_units_Z            3
loop_
_atom_site_label
_atom_site_type_symbol
_atom_site_fract_x
_atom_site_fract_y
_atom_site_fract_z
O1 O 0.42198(17) 0.20242(16) 0.05457(7)
O2 O 0.2860(2) -0.1232(2) 0.10280(9)
O3 O 0.60308(19) 0.4673(2) -0.09487(7)
N1 N 0.2029(3) -0.0201(2) 0.05315(12)
H1 H 0.2175 0.0525 0.0387
N2 N -0.0235(3) -0.0235(3) 0.0000
H2 H 0.0489 0.0489 0.0000
C1 C 0.5453(3) 0.3156(3) 0.05405(11)
C2 C 0.6291(3) 0.3313(3) 0.00971(11)
C3 C 0.7545(3) 0.4355(3) 0.01361(14)
H3 H 0.8146 0.4473 -0.0145
C4 C 0.7921(3) 0.5216(3) 0.05780(16)
H4 H 0.8778 0.5889 0.0602
C5 C 0.7043(4) 0.5094(3) 0.09850(14)
H5 H 0.7300 0.5717 0.1270
C6 C 0.5770(3) 0.4052(3) 0.09787(11)
C7 C 0.4840(3) 0.3524(3) -0.09682(10)
C8 C 0.3789(3) 0.3552(3) -0.12223(10)
C9 C 0.2637(3) 0.2391(4) -0.12666(12)
H6 H 0.1927 0.2378 -0.1441
C10 C 0.2512(3) 0.1251(4) -0.10589(13)
H7 H 0.1732 0.0474 -0.1104
C11 C 0.3548(3) 0.1260(3) -0.07816(11)
H8 H 0.3447 0.0493 -0.0628
C12 C 0.4726(3) 0.2396(3) -0.07313(11)
C13 C 0.5850(3) 0.2413(3) -0.04087(11)
H9 H 0.5582 0.1539 -0.0280
H10 H 0.6578 0.2680 -0.0666
C14 C 0.4805(3) 0.3890(3) 0.14369(11)
H11 H 0.5222 0.4625 0.1694
H12 H 0.4590 0.3113 0.1653
C15 C 0.4256(3) 0.0988(3) 0.08372(12)
H13 H 0.4480 0.1226 0.1232
H14 H 0.4925 0.0850 0.0671
C16 C 0.2972(3) -0.0249(3) 0.08040(12)
C17 C 0.0737(4) -0.1351(4) 0.04680(18)
H15 H 0.0703 -0.1765 0.0108
H16 H 0.0614 -0.1964 0.0767
C18 C -0.0274(7) -0.1099(7) 0.0487(5)
H17 H -0.0241 -0.0678 0.0845
H18 H -0.1090 -0.1916 0.0473
C19 C 0.6852(4) 0.4822(5) -0.14319(17)
H19 H 0.7088 0.4150 -0.1416
H20 H 0.6357 0.4693 -0.1778
C20 C 0.7958(6) 0.6001(6) -0.1458(2)
H21 H 0.7797 0.6465 -0.1757
H22 H 0.8611 0.5818 -0.1606
C21 C 0.8599(10) 0.6931(9) -0.1034(4)
H23 H 0.9318 0.7692 -0.1198
H24 H 0.8913 0.6580 -0.0748
H25 H 0.8005 0.7161 -0.0865
C8C C 0.3552(3) 0.3789(3) 0.12223(10)
C7C C 0.3524(3) 0.4840(3) 0.09682(10)
O3C O 0.4673(2) 0.60308(19) 0.09487(7)
C19C C 0.4822(5) 0.6852(4) 0.14319(17)
H19C H 0.4150 0.7088 0.1416
H20C H 0.4693 0.6357 0.1778
C20C C 0.6001(6) 0.7958(6) 0.1458(2)
H21C H 0.6465 0.7797 0.1757
H22C H 0.5818 0.8611 0.1606
C21C C 0.6931(9) 0.8599(10) 0.1034(4)
H23C H 0.7692 0.9318 0.1198
H24C H 0.6580 0.8913 0.0748
H25C H 0.7161 0.8005 0.0865
C12C C 0.2396(3) 0.4726(3) 0.07313(11)
C11C C 0.1260(3) 0.3548(3) 0.07816(11)
C10C C 0.1251(4) 0.2512(3) 0.10589(13)
C9C C 0.2391(4) 0.2637(3) 0.12666(12)
H6C H 0.2378 0.1927 0.1441
H7C H 0.0474 0.1732 0.1104
H8C H 0.0493 0.3447 0.0628
C13C C 0.2413(3) 0.5850(3) 0.04087(11)
C2C C 0.3313(3) 0.6291(3) -0.00971(11)
C1C C 0.3156(3) 0.5453(3) -0.05405(11)
O1C O 0.20242(16) 0.42198(17) -0.05457(7)
C15C C 0.0988(3) 0.4256(3) -0.08372(12)
H13C H 0.1226 0.4480 -0.1232
H14C H 0.0850 0.4925 -0.0671
C16C C -0.0249(3) 0.2972(3) -0.08040(12)
O2C O -0.1232(2) 0.2860(2) -0.10280(9)
N1C N -0.0201(2) 0.2029(3) -0.05315(12)
H1C H 0.0525 0.2175 -0.0387
C17C C -0.1351(4) 0.0737(4) -0.04680(18)
H15C H -0.1765 0.0703 -0.0108
H16C H -0.1964 0.0614 -0.0767
C18C C -0.1099(7) -0.0274(7) -0.0487(5)
H17C H -0.0678 -0.0241 -0.0845
H18C H -0.1916 -0.1090 -0.0473
C6C C 0.4052(3) 0.5770(3) -0.09787(11)
C5C C 0.5094(3) 0.7043(4) -0.09850(14)
C4C C 0.5216(3) 0.7921(3) -0.05780(16)
C3C C 0.4355(3) 0.7545(3) -0.01361(14)
H3C H 0.4473 0.8146 0.0145
H4C H 0.5889 0.8778 -0.0602
H5C H 0.5717 0.7300 -0.1270
C14C C 0.3890(3) 0.4805(3) -0.14369(11)
H11C H 0.4625 0.5222 -0.1694
H12C H 0.3113 0.4590 -0.1653
H9C H 0.1539 0.5582 0.0280
H10C H 0.2680 0.6578 0.0666
H26? H 0.0256 -0.1475 0.0818
H27? H 0.0839 -0.2107 0.0417
C22? C -0.0058(8) -0.1293(7) -0.0020(5)
H28? H 0.0371 -0.1271 -0.0374
H29? H -0.0902 -0.2080 -0.0019
H30? H 0.8571 0.6058 -0.1171
H31? H 0.7761 0.6691 -0.1390
C23? C 0.8538(10) 0.6138(11) -0.2052(4)
H32? H 0.9297 0.6982 -0.2090
H33? H 0.7906 0.6036 -0.2333
H34? H 0.8774 0.5481 -0.2106
loop_
_geom_bond_atom_site_label_1
_geom_bond_atom_site_label_2
_geom_bond_site_symmetry_1
_geom_bond_site_symmetry_2
O1 C1 1_555 1_555
O2 C16 1_555 1_555
O3 C7 1_555 1_555
N1 H1 1_555 1_555
N2 H2 1_555 1_555
C1 C2 1_555 1_555
C2 C3 1_555 1_555
C3 H3 1_555 1_555
C4 C3 1_555 1_555
H4 C4 1_555 1_555
C5 C4 1_555 1_555
H5 C5 1_555 1_555
C6 C1 1_555 1_555
C7 C8 1_555 1_555
C8 C9 1_555 1_555
C9 H6 1_555 1_555
C10 C9 1_555 1_555
H7 C10 1_555 1_555
C11 C10 1_555 1_555
H8 C11 1_555 1_555
C12 C7 1_555 1_555
C13 C2 1_555 1_555
H9 C13 1_555 1_555
H10 C13 1_555 1_555
C14 C6 1_555 1_555
H11 C14 1_555 1_555
H12 C14 1_555 1_555
C15 O1 1_555 1_555
H13 C15 1_555 1_555
H14 C15 1_555 1_555
C16 N1 1_555 1_555
C17 N1 1_555 1_555
H15 C17 1_555 1_555
H16 C17 1_555 1_555
C18 N2 1_555 1_555
H17 C18 1_555 1_555
H18 C18 1_555 1_555
C19 O3 1_555 1_555
H19 C19 1_555 1_555
H20 C19 1_555 1_555
C20 C19 1_555 1_555
H21 C20 1_555 1_555
H22 C20 1_555 1_555
C21 C20 1_555 1_555
H23 C21 1_555 1_555
H24 C21 1_555 1_555
H25 C21 1_555 1_555
C8C C14 1_555 1_555
C7C C8C 1_555 1_555
O3C C7C 1_555 1_555
C19C O3C 1_555 1_555
H19C C19C 1_555 1_555
H20C C19C 1_555 1_555
C20C C19C 1_555 1_555
H21C C20C 1_555 1_555
H22C C20C 1_555 1_555
C21C C20C 1_555 1_555
H23C C21C 1_555 1_555
H24C C21C 1_555 1_555
H25C C21C 1_555 1_555
C12C C7C 1_555 1_555
C11C C12C 1_555 1_555
C10C C11C 1_555 1_555
C9C C8C 1_555 1_555
H6C C9C 1_555 1_555
H7C C10C 1_555 1_555
H8C C11C 1_555 1_555
C13C C12C 1_555 1_555
C2C C13C 1_555 1_555
C1C C2C 1_555 1_555
O1C C1C 1_555 1_555
C15C O1C 1_555 1_555
H13C C15C 1_555 1_555
H14C C15C 1_555 1_555
C16C C15C 1_555 1_555
O2C C16C 1_555 1_555
N1C C16C 1_555 1_555
H1C N1C 1_555 1_555
C17C N1C 1_555 1_555
H15C C17C 1_555 1_555
H16C C17C 1_555 1_555
C18C N2 1_555 1_555
H17C C18C 1_555 1_555
H18C C18C 1_555 1_555
C6C C1C 1_555 1_555
C5C C6C 1_555 1_555
C4C C5C 1_555 1_555
C3C C2C 1_555 1_555
H3C C3C 1_555 1_555
H4C C4C 1_555 1_555
H5C C5C 1_555 1_555
C14C C8 1_555 1_555
H11C C14C 1_555 1_555
H12C C14C 1_555 1_555
H9C C13C 1_555 1_555
H10C C13C 1_555 1_555
C5 C6 1_555 1_555
C11 C12 1_555 1_555
C12 C13 1_555 1_555
C15 C16 1_555 1_555
C17 C18 1_555 1_555
C10C C9C 1_555 1_555
C17C C18C 1_555 1_555
C6C C14C 1_555 1_555
C4C C3C 1_555 1_555

#END
