
#######################################################################
#
#                 Cambridge Crystallographic Data Centre
#                                CCDC 
#
#######################################################################
#
# If this CIF has been generated from an entry in the Cambridge 
# Structural Database, then it will include bibliographic, chemical, 
# crystal, experimental, refinement or atomic coordinate data resulting 
# from the CCDC's data processing and validation procedures.
#
#######################################################################

data_DAKBEZ
_chemical_formula_moiety         'C17 H17 Cl1 N2 O1'
_chemical_name_systematic        
8-chloro-2-methyl-1-phenyl-1,4,5,6-tetrahydrobenzo[e][1,3]diazocin-3(2H)-one
_symmetry_cell_setting           monoclinic
_symmetry_space_group_name_H-M   'P 21/n'
_symmetry_Int_Tables_number      14
_space_group_name_Hall           '-P 2yn'
loop_
_symmetry_equiv_pos_site_id
_symmetry_equiv_pos_as_xyz
1 x,y,z
2 1/2-x,1/2+y,1/2-z
3 -x,-y,-z
4 1/2+x,1/2-y,1/2+z
_cell_length_a                   6.7936(2)
_cell_length_b                   28.5203(8)
_cell_length_c                   7.6673(2)
_cell_angle_alpha                90
_cell_angle_beta                 103.0208(16)
_cell_angle_gamma                90
_cell_volume                     1447.38
_exptl_crystal_colour            colorless
_exptl_crystal_description       block
_chemical_melting_point          '492-493 K'
_cell_formula_units_Z            4
loop_
_atom_site_label
_atom_site_type_symbol
_atom_site_fract_x
_atom_site_fract_y
_atom_site_fract_z
Cl1 Cl 0.45406(5) 0.74591(2) 1.19928(4)
O1 O 0.64064(13) 0.51887(3) 0.83276(11)
N1 N 0.34036(15) 0.54623(4) 0.86856(13)
H1 H 0.3732 0.5409 0.9818
N2 N 0.46155(15) 0.56641(3) 0.61406(13)
C1 C 0.48777(17) 0.54321(4) 0.77618(15)
C2 C 0.13013(18) 0.55792(4) 0.79050(16)
H2 H 0.0436 0.5367 0.8380
H3 H 0.1039 0.5531 0.6621
C3 C 0.07471(18) 0.60854(4) 0.82729(16)
H4 H -0.0331 0.6189 0.7293
H5 H 0.0228 0.6089 0.9352
C4 C 0.24647(17) 0.64292(4) 0.84928(15)
C5 C 0.37963(17) 0.64507(4) 0.73346(15)
C6 C 0.36749(17) 0.61322(4) 0.57181(15)
H6 H 0.4556 0.6286 0.5042
C7 C 0.27242(18) 0.67433(4) 0.99263(15)
H7 H 0.1869 0.6729 1.0717
C8 C 0.42430(19) 0.70759(4) 1.01776(16)
C9 C 0.55538(19) 0.71077(4) 0.90447(16)
H8 H 0.6568 0.7333 0.9221
C10 C 0.53097(18) 0.67919(4) 0.76305(16)
H9 H 0.6183 0.6808 0.6856
C11 C 0.16123(18) 0.61238(4) 0.44004(15)
C12 C 0.04447(19) 0.65299(4) 0.41603(16)
H10 H 0.0897 0.6794 0.4844
C13 C -0.1389(2) 0.65449(5) 0.29114(17)
H11 H -0.2156 0.6818 0.2770
C14 C -0.20778(19) 0.61547(5) 0.18775(16)
H12 H -0.3308 0.6164 0.1047
C15 C -0.09140(19) 0.57493(5) 0.20925(16)
H13 H -0.1368 0.5486 0.1402
C16 C 0.09285(18) 0.57346(4) 0.33368(15)
H14 H 0.1707 0.5463 0.3459
C17 C 0.60839(18) 0.55567(4) 0.50654(16)
H15 H 0.7201 0.5770 0.5368
H16 H 0.5452 0.5588 0.3818
H17 H 0.6562 0.5241 0.5304
loop_
_geom_bond_atom_site_label_1
_geom_bond_atom_site_label_2
_geom_bond_site_symmetry_1
_geom_bond_site_symmetry_2
Cl1 C8 1_555 1_555
O1 C1 1_555 1_555
N1 H1 1_555 1_555
N2 C1 1_555 1_555
C1 N1 1_555 1_555
C2 N1 1_555 1_555
H2 C2 1_555 1_555
H3 C2 1_555 1_555
C3 C2 1_555 1_555
H4 C3 1_555 1_555
H5 C3 1_555 1_555
C4 C3 1_555 1_555
C5 C4 1_555 1_555
C6 N2 1_555 1_555
H6 C6 1_555 1_555
C7 C4 1_555 1_555
H7 C7 1_555 1_555
C8 C7 1_555 1_555
C9 C8 1_555 1_555
H8 C9 1_555 1_555
C10 C5 1_555 1_555
H9 C10 1_555 1_555
C11 C6 1_555 1_555
C12 C11 1_555 1_555
H10 C12 1_555 1_555
C13 C12 1_555 1_555
H11 C13 1_555 1_555
C14 C13 1_555 1_555
H12 C14 1_555 1_555
C15 C14 1_555 1_555
H13 C15 1_555 1_555
C16 C11 1_555 1_555
H14 C16 1_555 1_555
C17 N2 1_555 1_555
H15 C17 1_555 1_555
H16 C17 1_555 1_555
H17 C17 1_555 1_555
C5 C6 1_555 1_555
C9 C10 1_555 1_555
C15 C16 1_555 1_555

#END
