
#######################################################################
#
#                 Cambridge Crystallographic Data Centre
#                                CCDC 
#
#######################################################################
#
# If this CIF has been generated from an entry in the Cambridge 
# Structural Database, then it will include bibliographic, chemical, 
# crystal, experimental, refinement or atomic coordinate data resulting 
# from the CCDC's data processing and validation procedures.
#
#######################################################################

data_DAKBOJ
_chemical_formula_moiety         'C21 H24 N2 O1'
_chemical_name_systematic        
7-methyl-8-phenyl-1,3,4,4a,5,7,8,12b-octahydrodibenzo[d,f][1,3]diazocin-6(2H)-one
_symmetry_cell_setting           monoclinic
_symmetry_space_group_name_H-M   'P 21/n'
_symmetry_Int_Tables_number      14
_space_group_name_Hall           '-P 2yn'
loop_
_symmetry_equiv_pos_site_id
_symmetry_equiv_pos_as_xyz
1 x,y,z
2 1/2-x,1/2+y,1/2-z
3 -x,-y,-z
4 1/2+x,1/2-y,1/2+z
_cell_length_a                   10.1371(2)
_cell_length_b                   17.5580(4)
_cell_length_c                   10.4771(2)
_cell_angle_alpha                90
_cell_angle_beta                 115.8648(13)
_cell_angle_gamma                90
_cell_volume                     1677.99
_exptl_crystal_colour            colorless
_exptl_crystal_description       irregular
_chemical_melting_point          '449-450 K'
_cell_formula_units_Z            4
loop_
_atom_site_label
_atom_site_type_symbol
_atom_site_fract_x
_atom_site_fract_y
_atom_site_fract_z
C1 C 1.08445(14) 0.58211(7) 0.41203(14)
C2 C 1.29969(15) 0.62887(9) 0.39339(15)
H1 H 1.3273(18) 0.6492(9) 0.3174(18)
H2 H 1.3494(18) 0.5806(10) 0.4275(18)
H3 H 1.3320(19) 0.6655(10) 0.4697(19)
C3 C 1.04639(14) 0.65183(7) 0.19505(14)
H4 H 0.9498(17) 0.6312(8) 0.1735(16)
C4 C 1.08429(14) 0.62543(7) 0.07666(14)
C5 C 1.16134(15) 0.55826(8) 0.08705(15)
H5 H 1.2011(18) 0.5299(9) 0.1762(17)
C6 C 1.18204(16) 0.53135(9) -0.02782(16)
H6 H 1.2367(18) 0.4833(10) -0.0179(17)
C7 C 1.12395(16) 0.57006(9) -0.15524(16)
H7 H 1.1377(18) 0.5514(9) -0.2351(18)
C8 C 1.04537(17) 0.63633(9) -0.16747(15)
H8 H 0.9984(18) 0.6642(9) -0.2576(18)
C9 C 1.02626(16) 0.66392(8) -0.05216(15)
H9 H 0.9694(18) 0.7115(9) -0.0624(16)
C10 C 1.03849(14) 0.73743(7) 0.21110(13)
C11 C 1.14136(15) 0.78555(8) 0.19885(14)
H10 H 1.2148(17) 0.7650(9) 0.1730(16)
C12 C 1.14173(15) 0.86328(8) 0.22384(15)
H11 H 1.2143(18) 0.8956(9) 0.2183(17)
C13 C 1.03626(15) 0.89350(8) 0.25972(15)
H12 H 1.0319(17) 0.9479(9) 0.2726(17)
C14 C 0.93353(15) 0.84596(8) 0.27212(14)
H13 H 0.8561(17) 0.8671(9) 0.2945(16)
C15 C 0.93280(14) 0.76748(7) 0.25003(13)
C16 C 0.81639(14) 0.72040(8) 0.26900(14)
H14 H 0.7672(17) 0.7586(9) 0.3055(16)
C17 C 0.69491(15) 0.68845(9) 0.13089(15)
H15 H 0.6624(17) 0.7283(9) 0.0577(17)
H16 H 0.7314(18) 0.6442(9) 0.0923(17)
C18 C 0.56545(16) 0.65983(9) 0.15587(17)
H17 H 0.5168(18) 0.7045(10) 0.1788(18)
H18 H 0.4897(19) 0.6363(9) 0.0668(18)
C19 C 0.61524(16) 0.60347(9) 0.27875(17)
H19 H 0.6520(18) 0.5564(10) 0.2538(18)
H20 H 0.5294(19) 0.5885(9) 0.2964(18)
C20 C 0.73628(16) 0.63692(9) 0.41322(16)
H21 H 0.7678(18) 0.6001(10) 0.4919(18)
H22 H 0.6993(18) 0.6833(9) 0.4399(17)
C21 C 0.86952(15) 0.66038(8) 0.38935(14)
H23 H 0.9457(17) 0.6853(8) 0.4782(17)
N1 N 1.14140(12) 0.61825(6) 0.33292(12)
N2 N 0.93272(12) 0.58803(7) 0.36543(12)
H24 H 0.9071(18) 0.5512(10) 0.4065(18)
O1 O 1.16258(11) 0.54368(6) 0.51627(10)
loop_
_geom_bond_atom_site_label_1
_geom_bond_atom_site_label_2
_geom_bond_site_symmetry_1
_geom_bond_site_symmetry_2
C1 N1 1_555 1_555
C2 H1 1_555 1_555
H2 C2 1_555 1_555
H3 C2 1_555 1_555
C3 H4 1_555 1_555
C4 C3 1_555 1_555
C5 C4 1_555 1_555
H5 C5 1_555 1_555
C6 C5 1_555 1_555
H6 C6 1_555 1_555
C7 C6 1_555 1_555
H7 C7 1_555 1_555
C8 C7 1_555 1_555
H8 C8 1_555 1_555
C9 C4 1_555 1_555
H9 C9 1_555 1_555
C10 C3 1_555 1_555
C11 C10 1_555 1_555
H10 C11 1_555 1_555
C12 C11 1_555 1_555
H11 C12 1_555 1_555
C13 C12 1_555 1_555
H12 C13 1_555 1_555
C14 C13 1_555 1_555
H13 C14 1_555 1_555
C15 C10 1_555 1_555
C16 C15 1_555 1_555
H14 C16 1_555 1_555
C17 C16 1_555 1_555
H15 C17 1_555 1_555
H16 C17 1_555 1_555
C18 C17 1_555 1_555
H17 C18 1_555 1_555
H18 C18 1_555 1_555
C19 C18 1_555 1_555
H19 C19 1_555 1_555
H20 C19 1_555 1_555
C20 C19 1_555 1_555
H21 C20 1_555 1_555
H22 C20 1_555 1_555
C21 C16 1_555 1_555
H23 C21 1_555 1_555
N1 C2 1_555 1_555
N2 C1 1_555 1_555
H24 N2 1_555 1_555
O1 C1 1_555 1_555
C3 N1 1_555 1_555
C8 C9 1_555 1_555
C14 C15 1_555 1_555
C20 C21 1_555 1_555
C21 N2 1_555 1_555

#END
