
#######################################################################
#
#                 Cambridge Crystallographic Data Centre
#                                CCDC 
#
#######################################################################
#
# If this CIF has been generated from an entry in the Cambridge 
# Structural Database, then it will include bibliographic, chemical, 
# crystal, experimental, refinement or atomic coordinate data resulting 
# from the CCDC's data processing and validation procedures.
#
#######################################################################

data_DAKCUQ
_chemical_formula_moiety         'C29 H24 N2 O1'
_chemical_name_systematic        
bis(2-phenyl-2,3-dihydro-1H-indol-1-yl)methanone
_symmetry_cell_setting           monoclinic
_symmetry_space_group_name_H-M   'P 21/n'
_symmetry_Int_Tables_number      14
_space_group_name_Hall           '-P 2yn'
loop_
_symmetry_equiv_pos_site_id
_symmetry_equiv_pos_as_xyz
1 x,y,z
2 1/2-x,1/2+y,1/2-z
3 -x,-y,-z
4 1/2+x,1/2-y,1/2+z
_cell_length_a                   7.84120(10)
_cell_length_b                   24.8501(4)
_cell_length_c                   11.1484(2)
_cell_angle_alpha                90
_cell_angle_beta                 105.9213(8)
_cell_angle_gamma                90
_cell_volume                     2088.99
_exptl_crystal_colour            colorless
_exptl_crystal_description       needle
_chemical_melting_point          '417-418 K'
_cell_formula_units_Z            4
loop_
_atom_site_label
_atom_site_type_symbol
_atom_site_fract_x
_atom_site_fract_y
_atom_site_fract_z
C1 C 0.36361(15) 0.34740(5) 0.07783(10)
C2 C 0.59820(15) 0.41030(5) 0.20418(11)
C3 C 0.57884(15) 0.45809(5) 0.13794(11)
H1 H 0.4963 0.4613 0.0604
C4 C 0.68712(16) 0.50127(5) 0.19126(12)
H2 H 0.6736 0.5341 0.1498
C5 C 0.81430(16) 0.49614(5) 0.30480(12)
H3 H 0.8874 0.5251 0.3376
C6 C 0.83290(16) 0.44758(5) 0.37008(12)
H4 H 0.9181 0.4440 0.4463
C7 C 0.72337(15) 0.40503(5) 0.32009(11)
C8 C 0.70925(16) 0.34931(5) 0.36932(11)
H5 H 0.6376 0.3492 0.4277
H6 H 0.8254 0.3346 0.4099
C9 C 0.61828(15) 0.31749(5) 0.24958(10)
H7 H 0.5386 0.2902 0.2679
C10 C 0.75381(15) 0.29099(5) 0.19358(11)
C11 C 0.76876(15) 0.30317(5) 0.07508(11)
H8 H 0.6905 0.3275 0.0251
C12 C 0.90005(16) 0.27915(5) 0.03090(12)
H9 H 0.9099 0.2878 -0.0481
C13 C 1.01617(17) 0.24243(5) 0.10391(13)
H10 H 1.1045 0.2267 0.0745
C14 C 0.99993(17) 0.22928(5) 0.22128(12)
H11 H 1.0763 0.2042 0.2700
C15 C 0.87038(16) 0.25345(5) 0.26610(11)
H12 H 0.8609 0.2446 0.3451
C16 C 0.10303(15) 0.38485(5) -0.07193(11)
C17 C 0.10928(16) 0.35971(5) -0.18190(11)
H13 H 0.2106 0.3416 -0.1877
C18 C -0.04114(17) 0.36243(5) -0.28328(11)
H14 H -0.0404 0.3456 -0.3576
C19 C -0.19232(17) 0.38984(5) -0.27539(12)
H15 H -0.2912 0.3913 -0.3442
C20 C -0.19562(16) 0.41505(5) -0.16425(11)
H16 H -0.2967 0.4332 -0.1582
C21 C -0.04670(15) 0.41282(5) -0.06297(11)
C22 C -0.01661(15) 0.43381(5) 0.06763(11)
H17 H -0.0819 0.4127 0.1135
H18 H -0.0527 0.4712 0.0670
C23 C 0.18566(15) 0.42791(5) 0.12562(10)
H19 H 0.2420 0.4626 0.1189
C24 C 0.23133(15) 0.41215(5) 0.26147(11)
C25 C 0.31291(16) 0.44952(5) 0.35191(11)
H20 H 0.3458 0.4829 0.3278
C26 C 0.34584(16) 0.43746(5) 0.47793(11)
H21 H 0.3997 0.4628 0.5377
C27 C 0.29851(16) 0.38771(5) 0.51444(11)
H22 H 0.3211 0.3795 0.5987
C28 C 0.21705(16) 0.35001(5) 0.42481(11)
H23 H 0.1854 0.3165 0.4492
C29 C 0.18287(15) 0.36230(5) 0.29899(11)
H24 H 0.1273 0.3371 0.2394
N1 N 0.51408(13) 0.36024(4) 0.16991(9)
N2 N 0.23969(13) 0.38835(4) 0.04113(9)
O1 O 0.34163(11) 0.30241(3) 0.03229(8)
loop_
_geom_bond_atom_site_label_1
_geom_bond_atom_site_label_2
_geom_bond_site_symmetry_1
_geom_bond_site_symmetry_2
C1 N1 1_555 1_555
C2 C3 1_555 1_555
C3 H1 1_555 1_555
C4 C3 1_555 1_555
H2 C4 1_555 1_555
C5 C4 1_555 1_555
H3 C5 1_555 1_555
C6 C5 1_555 1_555
H4 C6 1_555 1_555
C7 C2 1_555 1_555
C8 C7 1_555 1_555
H5 C8 1_555 1_555
H6 C8 1_555 1_555
C9 C8 1_555 1_555
H7 C9 1_555 1_555
C10 C9 1_555 1_555
C11 C10 1_555 1_555
H8 C11 1_555 1_555
C12 C11 1_555 1_555
H9 C12 1_555 1_555
C13 C12 1_555 1_555
H10 C13 1_555 1_555
C14 C13 1_555 1_555
H11 C14 1_555 1_555
C15 C10 1_555 1_555
H12 C15 1_555 1_555
C16 C17 1_555 1_555
C17 H13 1_555 1_555
C18 C17 1_555 1_555
H14 C18 1_555 1_555
C19 C18 1_555 1_555
H15 C19 1_555 1_555
C20 C19 1_555 1_555
H16 C20 1_555 1_555
C21 C16 1_555 1_555
C22 C21 1_555 1_555
H17 C22 1_555 1_555
H18 C22 1_555 1_555
C23 C22 1_555 1_555
H19 C23 1_555 1_555
C24 C23 1_555 1_555
C25 C24 1_555 1_555
H20 C25 1_555 1_555
C26 C25 1_555 1_555
H21 C26 1_555 1_555
C27 C26 1_555 1_555
H22 C27 1_555 1_555
C28 C27 1_555 1_555
H23 C28 1_555 1_555
C29 C24 1_555 1_555
H24 C29 1_555 1_555
N1 C2 1_555 1_555
N2 C1 1_555 1_555
O1 C1 1_555 1_555
C6 C7 1_555 1_555
C9 N1 1_555 1_555
C14 C15 1_555 1_555
C16 N2 1_555 1_555
C20 C21 1_555 1_555
C23 N2 1_555 1_555
C28 C29 1_555 1_555

#END
