
#######################################################################
#
#                 Cambridge Crystallographic Data Centre
#                                CCDC 
#
#######################################################################
#
# If this CIF has been generated from an entry in the Cambridge 
# Structural Database, then it will include bibliographic, chemical, 
# crystal, experimental, refinement or atomic coordinate data resulting 
# from the CCDC's data processing and validation procedures.
#
#######################################################################

data_DAKCUO
_chemical_formula_moiety         'C32 H26 O2,2(C7 H6 O1)'
_chemical_name_systematic        
'2,5-bis(Diphenylmethyl)hydroquinone bis(benzaldehyde) clathrate'
_symmetry_cell_setting           triclinic
_symmetry_space_group_name_H-M   'P -1'
_symmetry_Int_Tables_number      2
_space_group_name_Hall           '-P 1'
loop_
_symmetry_equiv_pos_site_id
_symmetry_equiv_pos_as_xyz
1 x,y,z
2 -x,-y,-z
_cell_length_a                   9.394(8)
_cell_length_b                   10.099(8)
_cell_length_c                   10.838(9)
_cell_angle_alpha                106.62(4)
_cell_angle_beta                 112.48(5)
_cell_angle_gamma                94.09(5)
_cell_volume                     891.222
_exptl_crystal_colour            yellow
_exptl_crystal_description       block
_chemical_melting_point          258-259deg.C
_cell_formula_units_Z            1
loop_
_atom_site_label
_atom_site_type_symbol
_atom_site_fract_x
_atom_site_fract_y
_atom_site_fract_z
O1 O 0.24183(18) 0.06570(17) -0.18289(18)
C1 C 0.3700(2) 0.0322(2) -0.0922(2)
C2 C 0.4612(2) 0.13438(19) 0.0407(2)
C3 C 0.4083(2) -0.0995(2) -0.1315(2)
H1 H 0.342(2) -0.169(2) -0.221(2)
C4 C 0.4169(2) 0.27815(19) 0.0793(2)
C5 C 0.2703(2) 0.2745(2) 0.1089(2)
C6 C 0.2089(3) 0.1654(3) 0.1389(3)
C7 C 0.0778(3) 0.1708(3) 0.1696(3)
C8 C 0.0070(3) 0.2833(3) 0.1700(3)
C9 C 0.0664(3) 0.3928(3) 0.1400(3)
C10 C 0.1960(3) 0.3882(3) 0.1092(3)
C11 C 0.5553(2) 0.39138(19) 0.1983(2)
C12 C 0.5851(3) 0.4193(2) 0.3399(3)
C13 C 0.7163(4) 0.5170(3) 0.4473(3)
C14 C 0.8187(4) 0.5904(3) 0.4152(4)
C15 C 0.7885(3) 0.5669(3) 0.2755(4)
C16 C 0.6591(3) 0.4673(2) 0.1677(3)
H2 H 0.205(3) 0.002(3) -0.269(3)
H3 H 0.391(2) 0.3075(19) -0.003(2)
H4 H 0.257(3) 0.087(3) 0.140(2)
H5 H 0.034(3) 0.094(3) 0.182(3)
H6 H -0.081(3) 0.282(3) 0.189(3)
H7 H 0.016(3) 0.476(3) 0.145(3)
H8 H 0.239(3) 0.468(3) 0.088(3)
H9 H 0.514(3) 0.371(2) 0.362(2)
H10 H 0.742(3) 0.525(3) 0.539(3)
H11 H 0.908(4) 0.665(3) 0.487(3)
H12 H 0.849(3) 0.615(3) 0.243(3)
H13 H 0.631(3) 0.451(3) 0.063(3)
C3A C 0.5917(2) 0.0995(2) 0.1315(2)
C1A C 0.6300(2) -0.0322(2) 0.0922(2)
O1A O 0.75817(18) -0.06570(17) 0.18289(18)
H2A H 0.795(3) -0.002(3) 0.269(3)
C2A C 0.5388(2) -0.13438(19) -0.0407(2)
C4A C 0.5831(2) -0.27815(19) -0.0793(2)
C5A C 0.7297(2) -0.2745(2) -0.1089(2)
C6A C 0.7911(3) -0.1654(3) -0.1389(3)
C7A C 0.9222(3) -0.1708(3) -0.1696(3)
C8A C 0.9930(3) -0.2833(3) -0.1700(3)
C9A C 0.9336(3) -0.3928(3) -0.1400(3)
C10A C 0.8040(3) -0.3882(3) -0.1092(3)
H8A H 0.761(3) -0.468(3) -0.088(3)
H7A H 0.984(3) -0.476(3) -0.145(3)
H6A H 1.081(3) -0.282(3) -0.189(3)
H5A H 0.966(3) -0.094(3) -0.182(3)
H4A H 0.743(3) -0.087(3) -0.140(2)
C11A C 0.4447(2) -0.39138(19) -0.1983(2)
C12A C 0.4149(3) -0.4193(2) -0.3399(3)
C13A C 0.2837(4) -0.5170(3) -0.4473(3)
C14A C 0.1813(4) -0.5904(3) -0.4152(4)
C15A C 0.2115(3) -0.5669(3) -0.2755(4)
C16A C 0.3409(3) -0.4673(2) -0.1677(3)
H13A H 0.369(3) -0.451(3) -0.063(3)
H12A H 0.151(3) -0.615(3) -0.243(3)
H11A H 0.092(4) -0.665(3) -0.487(3)
H10A H 0.258(3) -0.525(3) -0.539(3)
H9A H 0.486(3) -0.371(2) -0.362(2)
H3A H 0.609(2) -0.3075(19) 0.003(2)
H1A H 0.658(2) 0.169(2) 0.221(2)
O2 O 0.1247(3) 0.8891(2) 0.5352(2)
C17 C 0.1166(4) 0.8750(3) 0.4170(3)
C18 C 0.2419(3) 0.8429(2) 0.3714(2)
C19 C 0.2165(4) 0.8289(3) 0.2329(3)
C20 C 0.3335(5) 0.8026(3) 0.1884(4)
C21 C 0.4746(5) 0.7878(3) 0.2804(5)
C22 C 0.4998(5) 0.8014(3) 0.4179(5)
C23 C 0.3849(4) 0.8292(3) 0.4642(3)
H14 H 0.023(3) 0.895(3) 0.334(3)
H15 H 0.122(3) 0.837(3) 0.170(3)
H16 H 0.314(5) 0.792(4) 0.098(4)
H17 H 0.556(4) 0.773(4) 0.244(4)
H18 H 0.604(4) 0.795(4) 0.487(4)
H19 H 0.396(3) 0.842(3) 0.568(3)
loop_
_geom_bond_atom_site_label_1
_geom_bond_atom_site_label_2
_geom_bond_site_symmetry_1
_geom_bond_site_symmetry_2
O1 C1 1_555 1_555
C1 C2 1_555 1_555
C2 C4 1_555 1_555
C3 C1 1_555 1_555
H1 C3 1_555 1_555
C4 C5 1_555 1_555
C5 C6 1_555 1_555
C6 C7 1_555 1_555
C7 C8 1_555 1_555
C8 C9 1_555 1_555
C9 C10 1_555 1_555
C10 C5 1_555 1_555
C11 C4 1_555 1_555
C12 C11 1_555 1_555
C13 C12 1_555 1_555
C14 C13 1_555 1_555
C15 C14 1_555 1_555
C16 C11 1_555 1_555
H2 O1 1_555 1_555
H3 C4 1_555 1_555
H4 C6 1_555 1_555
H5 C7 1_555 1_555
H6 C8 1_555 1_555
H7 C9 1_555 1_555
H8 C10 1_555 1_555
H9 C12 1_555 1_555
H10 C13 1_555 1_555
H11 C14 1_555 1_555
H12 C15 1_555 1_555
H13 C16 1_555 1_555
O2 C17 1_555 1_555
C17 C18 1_555 1_555
C18 C19 1_555 1_555
C19 C20 1_555 1_555
C20 C21 1_555 1_555
C21 C22 1_555 1_555
C22 C23 1_555 1_555
C23 C18 1_555 1_555
H14 C17 1_555 1_555
H15 C19 1_555 1_555
H16 C20 1_555 1_555
H17 C21 1_555 1_555
H18 C22 1_555 1_555
H19 C23 1_555 1_555
C3A C2 1_555 1_555
C1A C3A 1_555 1_555
O1A C1A 1_555 1_555
H2A O1A 1_555 1_555
C2A C3 1_555 1_555
C4A C2A 1_555 1_555
C5A C4A 1_555 1_555
C6A C5A 1_555 1_555
C7A C6A 1_555 1_555
C8A C7A 1_555 1_555
C9A C8A 1_555 1_555
C10A C5A 1_555 1_555
H8A C10A 1_555 1_555
H7A C9A 1_555 1_555
H6A C8A 1_555 1_555
H5A C7A 1_555 1_555
H4A C6A 1_555 1_555
C11A C4A 1_555 1_555
C12A C11A 1_555 1_555
C13A C12A 1_555 1_555
C14A C13A 1_555 1_555
C15A C14A 1_555 1_555
C16A C11A 1_555 1_555
H13A C16A 1_555 1_555
H12A C15A 1_555 1_555
H11A C14A 1_555 1_555
H10A C13A 1_555 1_555
H9A C12A 1_555 1_555
H3A C4A 1_555 1_555
H1A C3A 1_555 1_555
C15 C16 1_555 1_555
C1A C2A 1_555 1_555
C9A C10A 1_555 1_555
C15A C16A 1_555 1_555

#END
