
#######################################################################
#
#                 Cambridge Crystallographic Data Centre
#                                CCDC 
#
#######################################################################
#
# If this CIF has been generated from an entry in the Cambridge 
# Structural Database, then it will include bibliographic, chemical, 
# crystal, experimental, refinement or atomic coordinate data resulting 
# from the CCDC's data processing and validation procedures.
#
#######################################################################

data_DAKCEA
_chemical_formula_moiety         'C17 H19 N3 O1'
_chemical_name_systematic        
2-methyl-1-(pyridin-2-yl)-1,2,4,5,6,7-hexahydro-3H-benzo[e][1,3]diazonin-3-one
_symmetry_cell_setting           triclinic
_symmetry_space_group_name_H-M   'P -1'
_symmetry_Int_Tables_number      2
_space_group_name_Hall           '-P 1'
loop_
_symmetry_equiv_pos_site_id
_symmetry_equiv_pos_as_xyz
1 x,y,z
2 -x,-y,-z
_cell_length_a                   8.3495(3)
_cell_length_b                   8.6136(3)
_cell_length_c                   11.0355(4)
_cell_angle_alpha                88.6597(17)
_cell_angle_beta                 84.7720(17)
_cell_angle_gamma                66.4171(16)
_cell_volume                     724.28
_exptl_crystal_colour            colorless
_exptl_crystal_description       block
_chemical_melting_point          '448-449 K'
_cell_formula_units_Z            2
loop_
_atom_site_label
_atom_site_type_symbol
_atom_site_fract_x
_atom_site_fract_y
_atom_site_fract_z
O1 O 0.61523(10) 0.38651(10) 0.13342(7)
N1 N 0.36931(11) 0.37798(11) 0.05956(7)
N2 N 0.48439(11) 0.22527(11) 0.23106(7)
N3 N 0.33911(12) 0.41106(11) 0.44321(8)
C1 C 0.49742(13) 0.33401(12) 0.14118(9)
C2 C 0.35796(13) 0.23775(12) -0.00925(9)
H1 H 0.4201 0.1323 0.0313
H2 H 0.4178 0.2311 -0.0897
C3 C 0.17245(14) 0.25330(13) -0.02307(9)
H3 H 0.1790 0.1637 -0.0775
H4 H 0.1090 0.3605 -0.0612
C4 C 0.06722(13) 0.24361(12) 0.09662(9)
H5 H 0.0430 0.3437 0.1458
H6 H -0.0443 0.2440 0.0782
C5 C 0.16161(13) 0.08749(12) 0.16973(8)
C6 C 0.27489(13) 0.08267(12) 0.25805(8)
C7 C 0.31012(13) 0.23873(12) 0.28282(8)
H7 H 0.2257 0.3306 0.2385
C8 C 0.13846(14) -0.06061(13) 0.14579(9)
H8 H 0.0645 -0.0589 0.0872
C9 C 0.22252(14) -0.20989(13) 0.20692(10)
H9 H 0.2064 -0.3071 0.1883
C10 C 0.33085(14) -0.21329(13) 0.29604(10)
H10 H 0.3860 -0.3121 0.3387
C11 C 0.35628(14) -0.06800(13) 0.32104(9)
H11 H 0.4289 -0.0706 0.3809
C12 C 0.27351(13) 0.29837(12) 0.41614(9)
C13 C 0.16652(14) 0.25176(13) 0.50025(9)
H12 H 0.1193 0.1764 0.4784
C14 C 0.13140(14) 0.31993(14) 0.61766(10)
H13 H 0.0603 0.2908 0.6754
C15 C 0.20371(14) 0.43153(14) 0.64714(10)
H14 H 0.1853 0.4765 0.7255
C16 C 0.30430(14) 0.47452(14) 0.55674(10)
H15 H 0.3503 0.5520 0.5760
C17 C 0.63802(13) 0.13219(13) 0.29601(9)
H16 H 0.7403 0.1366 0.2514
H17 H 0.6522 0.0163 0.3041
H18 H 0.6229 0.1823 0.3753
H19 H 0.3773(19) 0.4553(19) 0.0109(13)
loop_
_geom_bond_atom_site_label_1
_geom_bond_atom_site_label_2
_geom_bond_site_symmetry_1
_geom_bond_site_symmetry_2
O1 C1 1_555 1_555
N1 C1 1_555 1_555
N2 C1 1_555 1_555
N3 C12 1_555 1_555
C2 N1 1_555 1_555
H1 C2 1_555 1_555
H2 C2 1_555 1_555
C3 C2 1_555 1_555
H3 C3 1_555 1_555
H4 C3 1_555 1_555
C4 C3 1_555 1_555
H5 C4 1_555 1_555
H6 C4 1_555 1_555
C5 C4 1_555 1_555
C6 C5 1_555 1_555
C7 N2 1_555 1_555
H7 C7 1_555 1_555
C8 C5 1_555 1_555
H8 C8 1_555 1_555
C9 C8 1_555 1_555
H9 C9 1_555 1_555
C10 C9 1_555 1_555
H10 C10 1_555 1_555
C11 C6 1_555 1_555
H11 C11 1_555 1_555
C12 C7 1_555 1_555
C13 C12 1_555 1_555
H12 C13 1_555 1_555
C14 C13 1_555 1_555
H13 C14 1_555 1_555
C15 C14 1_555 1_555
H14 C15 1_555 1_555
C16 N3 1_555 1_555
H15 C16 1_555 1_555
C17 N2 1_555 1_555
H16 C17 1_555 1_555
H17 C17 1_555 1_555
H18 C17 1_555 1_555
H19 N1 1_555 1_555
C6 C7 1_555 1_555
C10 C11 1_555 1_555
C15 C16 1_555 1_555

#END
