
#######################################################################
#
#                 Cambridge Crystallographic Data Centre
#                                CCDC 
#
#######################################################################
#
# If this CIF has been generated from an entry in the Cambridge 
# Structural Database, then it will include bibliographic, chemical, 
# crystal, experimental, refinement or atomic coordinate data resulting 
# from the CCDC's data processing and validation procedures.
#
#######################################################################

data_DAKCAW
_chemical_formula_moiety         'C19 H20 N2 O1'
_chemical_name_systematic        
5,9,10,11,12,16b-hexahydrobenzo[7,8][1,3]diazonino[9,1-a]isoquinolin-8(6H)-one
_symmetry_cell_setting           monoclinic
_symmetry_space_group_name_H-M   'P 21/n'
_symmetry_Int_Tables_number      14
_space_group_name_Hall           '-P 2yn'
loop_
_symmetry_equiv_pos_site_id
_symmetry_equiv_pos_as_xyz
1 x,y,z
2 1/2-x,1/2+y,1/2-z
3 -x,-y,-z
4 1/2+x,1/2-y,1/2+z
_cell_length_a                   9.5685(6)
_cell_length_b                   10.9199(6)
_cell_length_c                   14.9312(9)
_cell_angle_alpha                90
_cell_angle_beta                 104.051(3)
_cell_angle_gamma                90
_cell_volume                     1513.44
_exptl_crystal_colour            colorless
_exptl_crystal_description       block
_chemical_melting_point          '470-472 K'
_cell_formula_units_Z            4
loop_
_atom_site_label
_atom_site_type_symbol
_atom_site_fract_x
_atom_site_fract_y
_atom_site_fract_z
O1 O 0.84079(11) 0.89955(9) 0.45868(7)
N1 N 1.04117(13) 0.91440(11) 0.40104(9)
N2 N 0.86659(12) 0.76676(10) 0.34490(8)
C1 C 0.91232(15) 0.86286(12) 0.40513(10)
C2 C 1.06741(16) 0.95403(12) 0.31223(10)
H1 H 1.0571 1.0423 0.3076
H2 H 0.9941 0.9183 0.2626
C3 C 1.21452(17) 0.91933(13) 0.29879(11)
H3 H 1.2879 0.9535 0.3491
H4 H 1.2264 0.9560 0.2419
C4 C 1.23873(16) 0.78070(13) 0.29472(11)
H5 H 1.3317 0.7659 0.2816
H6 H 1.2407 0.7452 0.3546
C5 C 1.12267(15) 0.71776(12) 0.22181(10)
C6 C 0.99977(14) 0.66243(11) 0.24052(9)
C7 C 0.96944(14) 0.66835(11) 0.33640(9)
H7 H 1.0610 0.6886 0.3797
C8 C 1.13844(16) 0.71672(13) 0.13119(10)
H8 H 1.2179 0.7552 0.1181
C9 C 1.03909(16) 0.65994(13) 0.06014(10)
H9 H 1.0510 0.6617 0.0002
C10 C 0.92155(15) 0.60036(12) 0.07959(10)
H10 H 0.8556 0.5598 0.0330
C11 C 0.90322(14) 0.60185(12) 0.16920(10)
H11 H 0.8246 0.5615 0.1819
C12 C 0.92213(14) 0.54455(12) 0.36683(9)
C13 C 1.01797(15) 0.44659(12) 0.37250(10)
H12 H 1.1046 0.4583 0.3559
C14 C 0.98573(16) 0.33208(13) 0.40257(10)
H13 H 1.0513 0.2681 0.4073
C15 C 0.85503(16) 0.31353(13) 0.42556(10)
H14 H 0.8321 0.2367 0.4448
C16 C 0.75902(15) 0.40988(13) 0.41972(10)
H15 H 0.6714 0.3969 0.4347
C17 C 0.79188(15) 0.52674(12) 0.39156(9)
C18 C 0.68983(15) 0.63194(13) 0.39084(10)
H16 H 0.7041 0.6648 0.4528
H17 H 0.5913 0.6030 0.3712
C19 C 0.71500(15) 0.73217(13) 0.32588(10)
H18 H 0.6836 0.7037 0.2626
H19 H 0.6579 0.8034 0.3326
H20 H 1.076(2) 0.967(2) 0.4491(15)
loop_
_geom_bond_atom_site_label_1
_geom_bond_atom_site_label_2
_geom_bond_site_symmetry_1
_geom_bond_site_symmetry_2
O1 C1 1_555 1_555
N1 C1 1_555 1_555
N2 C1 1_555 1_555
C2 N1 1_555 1_555
H1 C2 1_555 1_555
H2 C2 1_555 1_555
C3 C2 1_555 1_555
H3 C3 1_555 1_555
H4 C3 1_555 1_555
C4 C3 1_555 1_555
H5 C4 1_555 1_555
H6 C4 1_555 1_555
C5 C4 1_555 1_555
C6 C5 1_555 1_555
C7 N2 1_555 1_555
H7 C7 1_555 1_555
C8 C5 1_555 1_555
H8 C8 1_555 1_555
C9 C8 1_555 1_555
H9 C9 1_555 1_555
C10 C9 1_555 1_555
H10 C10 1_555 1_555
C11 C6 1_555 1_555
H11 C11 1_555 1_555
C12 C7 1_555 1_555
C13 C12 1_555 1_555
H12 C13 1_555 1_555
C14 C13 1_555 1_555
H13 C14 1_555 1_555
C15 C14 1_555 1_555
H14 C15 1_555 1_555
C16 C15 1_555 1_555
H15 C16 1_555 1_555
C17 C12 1_555 1_555
C18 C17 1_555 1_555
H16 C18 1_555 1_555
H17 C18 1_555 1_555
C19 N2 1_555 1_555
H18 C19 1_555 1_555
H19 C19 1_555 1_555
H20 N1 1_555 1_555
C6 C7 1_555 1_555
C10 C11 1_555 1_555
C16 C17 1_555 1_555
C18 C19 1_555 1_555

#END
