
#######################################################################
#
#                 Cambridge Crystallographic Data Centre
#                                CCDC 
#
#######################################################################
#
# If this CIF has been generated from an entry in the Cambridge 
# Structural Database, then it will include bibliographic, chemical, 
# crystal, experimental, refinement or atomic coordinate data resulting 
# from the CCDC's data processing and validation procedures.
#
#######################################################################

data_DAKDAU
_chemical_compound_source        'Diospyros morrisiana(Ebenaceae)'
_chemical_name_common            3,3'-Dimethoxy-isodiospyrin
_chemical_formula_moiety         'C24 H18 O8'
_chemical_name_systematic        
1',4-Dihydroxy-6,7'-dimethoxy-2,3'-dimethyl-(1,2'-binaphthalene)-5,5',8,8'-tetrone
_chemical_properties_biological  'antibacterial activity'
_symmetry_cell_setting           orthorhombic
_symmetry_space_group_name_H-M   'P 21 21 21'
_symmetry_Int_Tables_number      19
_space_group_name_Hall           'P 2ac 2ab'
loop_
_symmetry_equiv_pos_site_id
_symmetry_equiv_pos_as_xyz
1 x,y,z
2 1/2+x,1/2-y,-z
3 -x,1/2+y,1/2-z
4 1/2-x,-y,1/2+z
_cell_length_a                   9.1422(5)
_cell_length_b                   10.370(3)
_cell_length_c                   21.494(3)
_cell_angle_alpha                90
_cell_angle_beta                 90
_cell_angle_gamma                90
_cell_volume                     2037.73
_exptl_crystal_colour            golden-yellow
_cell_formula_units_Z            4
loop_
_atom_site_label
_atom_site_type_symbol
_atom_site_fract_x
_atom_site_fract_y
_atom_site_fract_z
C1 C 0.8120(5) 0.0797(4) 0.1497(2)
C2 C 0.9007(5) 0.0661(4) 0.0982(2)
C3 C 1.0080(5) 0.1551(4) 0.0855(2)
C4 C 1.0278(4) 0.2599(4) 0.1251(2)
C5 C 0.9435(4) 0.2715(4) 0.1781(2)
C6 C 0.8313(4) 0.1820(4) 0.1912(2)
C7 C 0.7349(5) 0.1956(4) 0.2447(2)
C8 C 0.7599(5) 0.3074(4) 0.2860(2)
C9 C 0.8703(5) 0.3901(4) 0.2770(2)
C10 C 0.9653(4) 0.3801(4) 0.2234(2)
C11 C 1.1373(4) 0.3598(4) 0.1067(2)
C12 C 1.1019(4) 0.4547(4) 0.0627(2)
C13 C 1.2021(5) 0.5483(4) 0.0467(2)
C14 C 1.3399(5) 0.5501(4) 0.0728(2)
C15 C 1.3791(4) 0.4560(4) 0.1167(2)
C16 C 1.2766(4) 0.3610(4) 0.1329(2)
C17 C 1.4453(5) 0.6500(4) 0.0537(2)
C18 C 1.5836(5) 0.6591(4) 0.0884(2)
C19 C 1.6158(4) 0.5734(4) 0.1320(2)
C20 C 1.5196(4) 0.4634(4) 0.1479(2)
C21 C 1.1017(5) 0.1380(5) 0.0290(2)
C22 C 0.6658(7) 0.4249(5) 0.3705(2)
C23 C 0.9504(5) 0.4564(5) 0.0339(2)
C24 C 1.8357(6) 0.6807(5) 0.1620(2)
O1 O 0.6356(3) 0.1194(3) 0.2552(1)
O2 O 1.0612(3) 0.4603(3) 0.2159(1)
O3 O 1.4204(4) 0.7234(3) 0.0107(1)
O4 O 1.5574(3) 0.3810(3) 0.1857(1)
O5 O 0.7065(3) -0.0100(3) 0.1583(1)
O6 O 0.6599(3) 0.3140(3) 0.3313(1)
O7 O 1.3078(3) 0.2669(3) 0.1738(1)
O8 O 1.7370(3) 0.5712(3) 0.1674(2)
H1 H 0.6635 0.0167 0.1899
H2 H 0.8900 -0.0094 0.0724
H3 H 1.2099 0.1299 0.0412
H4 H 1.0598 0.0548 0.0087
H5 H 1.0779 0.1948 -0.0058
H6 H 0.7744 0.4307 0.3949
H7 H 0.5930 0.4187 0.4092
H8 H 0.6327 0.4982 0.3364
H9 H 0.8841 0.4621 0.3031
H10 H 0.9662 0.3844 0.0014
H11 H 0.9277 0.5569 0.0221
H12 H 0.8632 0.4175 0.0595
H13 H 1.1669 0.6087 0.0156
H14 H 1.3769 0.2852 0.1886
H15 H 1.6543 0.7217 0.0752
H16 H 1.9110 0.6846 0.1190
H17 H 1.7686 0.7676 0.1589
H18 H 1.8712 0.6844 0.2014
loop_
_geom_bond_atom_site_label_1
_geom_bond_atom_site_label_2
_geom_bond_site_symmetry_1
_geom_bond_site_symmetry_2
C1 C2 1_555 1_555
C2 C3 1_555 1_555
C3 C4 1_555 1_555
C4 C5 1_555 1_555
C5 C6 1_555 1_555
C6 C1 1_555 1_555
C7 C6 1_555 1_555
C8 C7 1_555 1_555
C9 C8 1_555 1_555
C10 C5 1_555 1_555
C11 C4 1_555 1_555
C12 C11 1_555 1_555
C13 C12 1_555 1_555
C14 C13 1_555 1_555
C15 C14 1_555 1_555
C16 C11 1_555 1_555
C17 C14 1_555 1_555
C18 C17 1_555 1_555
C19 C18 1_555 1_555
C20 C15 1_555 1_555
C21 C3 1_555 1_555
C22 O6 1_555 1_555
C23 C12 1_555 1_555
C24 O8 1_555 1_555
O1 C7 1_555 1_555
O2 C10 1_555 1_555
O3 C17 1_555 1_555
O4 C20 1_555 1_555
O5 C1 1_555 1_555
O6 C8 1_555 1_555
O7 C16 1_555 1_555
O8 C19 1_555 1_555
H1 O5 1_555 1_555
H2 C2 1_555 1_555
H3 C21 1_555 1_555
H4 C21 1_555 1_555
H5 C21 1_555 1_555
H6 C22 1_555 1_555
H7 C22 1_555 1_555
H8 C22 1_555 1_555
H9 C9 1_555 1_555
H10 C23 1_555 1_555
H11 C23 1_555 1_555
H12 C23 1_555 1_555
H13 C13 1_555 1_555
H14 O7 1_555 1_555
H15 C18 1_555 1_555
H16 C24 1_555 1_555
H17 C24 1_555 1_555
H18 C24 1_555 1_555
C9 C10 1_555 1_555
C15 C16 1_555 1_555
C19 C20 1_555 1_555

#END
