
#######################################################################
#
#                 Cambridge Crystallographic Data Centre
#                                CCDC 
#
#######################################################################
#
# If this CIF has been generated from an entry in the Cambridge 
# Structural Database, then it will include bibliographic, chemical, 
# crystal, experimental, refinement or atomic coordinate data resulting 
# from the CCDC's data processing and validation procedures.
#
#######################################################################

data_DAKDAX
_chemical_formula_moiety         'C29 H24 N2 O1'
_chemical_name_systematic        
6,14a-diphenyl-6,7,14,14a-tetrahydroindolo[2,1-a][2,4]benzodiazocin-8(5H)-one
_symmetry_cell_setting           triclinic
_symmetry_space_group_name_H-M   'P -1'
_symmetry_Int_Tables_number      2
_space_group_name_Hall           '-P 1'
loop_
_symmetry_equiv_pos_site_id
_symmetry_equiv_pos_as_xyz
1 x,y,z
2 -x,-y,-z
_cell_length_a                   9.5382(7)
_cell_length_b                   11.1419(9)
_cell_length_c                   11.6182(9)
_cell_angle_alpha                78.600(4)
_cell_angle_beta                 66.774(4)
_cell_angle_gamma                67.592(4)
_cell_volume                     1047.34
_exptl_crystal_colour            colorless
_exptl_crystal_description       block
_chemical_melting_point          '515-517 K'
_cell_formula_units_Z            2
loop_
_atom_site_label
_atom_site_type_symbol
_atom_site_fract_x
_atom_site_fract_y
_atom_site_fract_z
O1 O 0.60535(10) 0.01627(7) 0.09826(8)
N1 N 0.52260(10) 0.22369(8) 0.15908(8)
N2 N 0.41051(11) 0.17588(9) 0.03502(8)
C1 C 0.51828(12) 0.13049(10) 0.09673(9)
C2 C 0.39702(12) 0.29239(10) -0.05265(9)
H1 H 0.2998 0.3099 -0.0722
C3 C 0.37585(12) 0.41550(10) 0.00115(9)
H2 H 0.4725 0.4024 0.0183
H3 H 0.3656 0.4869 -0.0615
C4 C 0.23128(12) 0.45255(10) 0.11919(10)
C5 C 0.22961(12) 0.39167(10) 0.23731(9)
C6 C 0.38036(12) 0.29950(10) 0.26605(9)
C7 C 0.53879(13) 0.27324(10) -0.17665(10)
C8 C 0.69648(13) 0.24486(11) -0.18104(11)
H4 H 0.7177 0.2274 -0.1068
C9 C 0.82214(14) 0.24245(12) -0.29522(12)
H5 H 0.9268 0.2230 -0.2970
C10 C 0.79168(15) 0.26899(12) -0.40643(11)
H6 H 0.8754 0.2686 -0.4828
C11 C 0.63621(15) 0.29606(13) -0.40333(11)
H7 H 0.6155 0.3133 -0.4778
C12 C 0.51066(14) 0.29765(12) -0.28903(10)
H8 H 0.4066 0.3153 -0.2878
C13 C 0.09252(13) 0.55279(11) 0.10867(10)
H9 H 0.0935 0.5920 0.0300
C14 C -0.04611(13) 0.59496(11) 0.21249(11)
H10 H -0.1359 0.6637 0.2042
C15 C -0.04928(13) 0.53315(11) 0.32922(10)
H11 H -0.1425 0.5590 0.3994
C16 C 0.08675(12) 0.43273(10) 0.34110(10)
H12 H 0.0831 0.3918 0.4197
C17 C 0.33526(12) 0.20069(10) 0.37409(10)
C18 C 0.25694(13) 0.12380(11) 0.36069(11)
H13 H 0.2372 0.1317 0.2868
C19 C 0.20831(14) 0.03573(11) 0.45648(12)
H14 H 0.1558 -0.0146 0.4465
C20 C 0.23749(14) 0.02227(11) 0.56699(12)
H15 H 0.2035 -0.0361 0.6314
C21 C 0.31721(14) 0.09604(11) 0.58100(11)
H16 H 0.3382 0.0867 0.6546
C22 C 0.36635(13) 0.18463(10) 0.48470(10)
H17 H 0.4206 0.2336 0.4945
C23 C 0.45736(12) 0.38588(10) 0.29356(9)
H18 H 0.4341 0.4701 0.2487
H19 H 0.4168 0.3985 0.3826
C24 C 0.63595(12) 0.31130(10) 0.24800(9)
C25 C 0.76211(13) 0.33204(10) 0.26225(10)
H20 H 0.7410 0.3974 0.3118
C26 C 0.92129(13) 0.25417(11) 0.20172(10)
H21 H 1.0068 0.2673 0.2109
C27 C 0.95159(13) 0.15695(11) 0.12775(11)
H22 H 1.0579 0.1050 0.0883
C28 C 0.82578(13) 0.13565(10) 0.11140(10)
H23 H 0.8468 0.0703 0.0619
C29 C 0.66777(12) 0.21510(10) 0.17142(9)
H24 H 0.4048(18) 0.1108(15) 0.0037(14)
loop_
_geom_bond_atom_site_label_1
_geom_bond_atom_site_label_2
_geom_bond_site_symmetry_1
_geom_bond_site_symmetry_2
O1 C1 1_555 1_555
N1 C1 1_555 1_555
N2 C1 1_555 1_555
C2 N2 1_555 1_555
H1 C2 1_555 1_555
C3 C2 1_555 1_555
H2 C3 1_555 1_555
H3 C3 1_555 1_555
C4 C3 1_555 1_555
C5 C4 1_555 1_555
C6 N1 1_555 1_555
C7 C2 1_555 1_555
C8 C7 1_555 1_555
H4 C8 1_555 1_555
C9 C8 1_555 1_555
H5 C9 1_555 1_555
C10 C9 1_555 1_555
H6 C10 1_555 1_555
C11 C10 1_555 1_555
H7 C11 1_555 1_555
C12 C7 1_555 1_555
H8 C12 1_555 1_555
C13 C4 1_555 1_555
H9 C13 1_555 1_555
C14 C13 1_555 1_555
H10 C14 1_555 1_555
C15 C14 1_555 1_555
H11 C15 1_555 1_555
C16 C5 1_555 1_555
H12 C16 1_555 1_555
C17 C6 1_555 1_555
C18 C17 1_555 1_555
H13 C18 1_555 1_555
C19 C18 1_555 1_555
H14 C19 1_555 1_555
C20 C19 1_555 1_555
H15 C20 1_555 1_555
C21 C20 1_555 1_555
H16 C21 1_555 1_555
C22 C17 1_555 1_555
H17 C22 1_555 1_555
C23 C6 1_555 1_555
H18 C23 1_555 1_555
H19 C23 1_555 1_555
C24 C23 1_555 1_555
C25 C24 1_555 1_555
H20 C25 1_555 1_555
C26 C25 1_555 1_555
H21 C26 1_555 1_555
C27 C26 1_555 1_555
H22 C27 1_555 1_555
C28 C27 1_555 1_555
H23 C28 1_555 1_555
C29 N1 1_555 1_555
H24 N2 1_555 1_555
C5 C6 1_555 1_555
C11 C12 1_555 1_555
C15 C16 1_555 1_555
C21 C22 1_555 1_555
C24 C29 1_555 1_555
C28 C29 1_555 1_555

#END
