
#######################################################################
#
#                 Cambridge Crystallographic Data Centre
#                                CCDC 
#
#######################################################################
#
# If this CIF has been generated from an entry in the Cambridge 
# Structural Database, then it will include bibliographic, chemical, 
# crystal, experimental, refinement or atomic coordinate data resulting 
# from the CCDC's data processing and validation procedures.
#
#######################################################################

data_DAKHOM
_chemical_formula_moiety         'C11 H14 O4'
_chemical_name_systematic        
'trans-Bicyclo(6.1.0)non-2-ene-9,9-dicarboxylic acid'
_symmetry_cell_setting           monoclinic
_symmetry_space_group_name_H-M   'C 2/c'
_symmetry_Int_Tables_number      15
_space_group_name_Hall           '-C 2yn'
loop_
_symmetry_equiv_pos_site_id
_symmetry_equiv_pos_as_xyz
1 x,y,z
2 -x,y,1/2-z
3 1/2+x,1/2+y,z
4 1/2-x,1/2+y,1/2-z
5 -x,-y,-z
6 x,-y,1/2+z
7 1/2-x,1/2-y,-z
8 1/2+x,1/2-y,1/2+z
_cell_length_a                   9.516(2)
_cell_length_b                   9.616(2)
_cell_length_c                   11.647(2)
_cell_angle_alpha                90
_cell_angle_beta                 90.99(2)
_cell_angle_gamma                90
_cell_volume                     1065.61
_exptl_crystal_colour            colorless
_exptl_crystal_description       Chunk
_cell_formula_units_Z            4
loop_
_atom_site_label
_atom_site_type_symbol
_atom_site_fract_x
_atom_site_fract_y
_atom_site_fract_z
O1 O 0.4321(2) 1.0136(1) 0.6428(1)
H1 H 0.4399(26) 1.0592(26) 0.5752(22)
O2 O 0.5573(2) 0.8521(1) 0.5546(1)
C1 C 0.5021(2) 0.8974(2) 0.6408(1)
C2 C 0.5000 0.8180(2) 0.7500
C3 C 0.4228(2) 0.6789(2) 0.7469(1)
H2 H 0.3807(2) 0.6559(2) 0.8207(1)
C4 C 0.3292(12) 0.6338(13) 0.6436(10)
H4 H 0.2637(12) 0.6931(13) 0.6092(10)
C5 C 0.3487(6) 0.5065(7) 0.6083(4)
H5 H 0.3025(6) 0.4830(7) 0.5400(4)
C6 C 0.4361(12) 0.3915(9) 0.6630(10)
C7 C 0.4664(7) 0.3866(5) 0.7895(5)
H8 H 0.4566(7) 0.2909(5) 0.8144(5)
H9 H 0.3944(7) 0.4402(5) 0.8274(5)
C8 C 0.3875(10) 0.4406(8) 0.6666(10)
C9 C 0.3768(12) 0.5981(12) 0.6448(10)
H12 H 0.4348(12) 0.6227(12) 0.5802(10)
C1A C 0.4979(2) 0.8974(2) 0.8592(1)
O1A O 0.5679(2) 1.0136(1) 0.8572(1)
H1A H 0.5601(26) 1.0592(26) 0.9248(22)
O2A O 0.4427(2) 0.8521(1) 0.9454(1)
C3A C 0.5772(2) 0.6789(2) 0.7531(1)
H2A H 0.6193(2) 0.6559(2) 0.6793(1)
C4A C 0.6708(12) 0.6338(13) 0.8564(10)
H4A H 0.7363(12) 0.6931(13) 0.8908(10)
C5A C 0.6513(6) 0.5065(7) 0.8917(4)
H5A H 0.6975(6) 0.4830(7) 0.9600(4)
C6A C 0.5639(12) 0.3915(9) 0.8370(10)
C7A C 0.5336(7) 0.3866(5) 0.7105(5)
C8A C 0.6125(10) 0.4406(8) 0.8334(10)
C9A C 0.6232(12) 0.5981(12) 0.8552(10)
H8A H 0.5434(7) 0.2909(5) 0.6856(5)
H9A H 0.6056(7) 0.4402(5) 0.6726(5)
H12A H 0.5652(12) 0.6227(12) 0.9198(10)
H3? H 0.6235(2) 0.6535(2) 0.6816(1)
H6? H 0.3906(12) 0.3044(9) 0.6428(10)
H7? H 0.5261(12) 0.3919(9) 0.6252(10)
H10? H 0.6362(10) 0.3925(8) 0.9044(10)
H11? H 0.6825(10) 0.4151(8) 0.7776(10)
H13? H 0.7197(12) 0.6219(12) 0.8748(10)
loop_
_geom_bond_atom_site_label_1
_geom_bond_atom_site_label_2
_geom_bond_site_symmetry_1
_geom_bond_site_symmetry_2
O1 H1 1_555 1_555
O2 C1 1_555 1_555
C1 O1 1_555 1_555
C2 C1 1_555 1_555
C3 C2 1_555 1_555
H2 C3 1_555 1_555
C4 C3 1_555 1_555
H4 C4 1_555 1_555
C5 C4 1_555 1_555
H5 C5 1_555 1_555
C6 C5 1_555 1_555
C7 C6 1_555 1_555
H8 C7 1_555 1_555
H9 C7 1_555 1_555
C8 C5 1_555 1_555
C9 C3 1_555 1_555
H12 C9 1_555 1_555
C1A C2 1_555 1_555
O1A C1A 1_555 1_555
H1A O1A 1_555 1_555
O2A C1A 1_555 1_555
C3A C2 1_555 1_555
H2A C3A 1_555 1_555
C4A C3A 1_555 1_555
H4A C4A 1_555 1_555
C5A C4A 1_555 1_555
H5A C5A 1_555 1_555
C6A C7 1_555 1_555
C7A C6 1_555 1_555
C8A C7 1_555 1_555
C9A C3A 1_555 1_555
H8A C7A 1_555 1_555
H9A C7A 1_555 1_555
H12A C9A 1_555 1_555
C3 C3A 1_555 1_555
C4 C9 1_555 1_555
C5 C9 1_555 1_555
C6 C8 1_555 1_555
C7 C7A 1_555 1_555
C8 C7A 1_555 1_555
C8 C9 1_555 1_555
C4A C9A 1_555 1_555
C5A C6A 1_555 1_555
C5A C9A 1_555 1_555
C5A C8A 1_555 1_555
C6A C7A 1_555 1_555
C6A C8A 1_555 1_555
C8A C9A 1_555 1_555

#END
