
#######################################################################
#
#                 Cambridge Crystallographic Data Centre
#                                CCDC 
#
#######################################################################
#
# If this CIF has been generated from an entry in the Cambridge 
# Structural Database, then it will include bibliographic, chemical, 
# crystal, experimental, refinement or atomic coordinate data resulting 
# from the CCDC's data processing and validation procedures.
#
#######################################################################

data_DAKKIM
_chemical_formula_moiety         'C19 H21 B1 N2'
_chemical_name_systematic        
2-cyano-1-(2-phenylethyl)-3-phenyl-1-azonia-2-boratacyclohex-3-ene
_symmetry_cell_setting           monoclinic
_symmetry_space_group_name_H-M   'C c'
_symmetry_Int_Tables_number      9
_space_group_name_Hall           'C -2yc'
loop_
_symmetry_equiv_pos_site_id
_symmetry_equiv_pos_as_xyz
1 x,y,z
2 x,-y,1/2+z
3 1/2+x,1/2+y,z
4 1/2+x,1/2-y,1/2+z
_cell_length_a                   7.4599(2)
_cell_length_b                   24.0907(7)
_cell_length_c                   9.5537(3)
_cell_angle_alpha                90
_cell_angle_beta                 105.0420(10)
_cell_angle_gamma                90
_cell_volume                     1658.11
_exptl_crystal_colour            colorless
_exptl_crystal_description       plate
_cell_formula_units_Z            4
loop_
_atom_site_label
_atom_site_type_symbol
_atom_site_fract_x
_atom_site_fract_y
_atom_site_fract_z
N1 N 0.5953(3) 0.20632(8) 0.5225(2)
N2 N 0.3222(3) 0.31497(9) 0.3187(2)
C1 C 0.7537(3) 0.38960(10) 0.5793(2)
H1 H 0.6323 0.3789 0.5825
C2 C 0.8706(3) 0.35010(10) 0.5432(2)
C3 C 0.4402(3) 0.29680(10) 0.4088(2)
C4 C 0.8053(3) 0.29198(10) 0.5052(2)
C5 C 0.2412(10) 0.0945(6) 0.5591(10)
C6 C 0.1232(12) 0.0716(5) 0.4356(8)
H2 H 0.1594 0.0706 0.3474
C7 C -0.0477(9) 0.0501(4) 0.4413(7)
H3 H -0.1283 0.0344 0.3569
C8 C -0.1006(7) 0.0516(3) 0.5705(7)
H4 H -0.2174 0.0369 0.5743
C9 C 0.0174(9) 0.0745(4) 0.6939(6)
H5 H -0.0188 0.0755 0.7822
C10 C 0.1883(9) 0.0960(5) 0.6882(8)
H6 H 0.2689 0.1117 0.7726
C11 C 0.4111(3) 0.18334(11) 0.5307(3)
H7 H 0.3168 0.1915 0.4391
H8 H 0.3720 0.2018 0.6106
C12 C 0.8097(4) 0.44422(10) 0.6106(3)
H9 H 0.7263 0.4704 0.6334
C13 C 0.9050(3) 0.25716(10) 0.4475(3)
H10 H 1.0186 0.2705 0.4329
C14 C 1.0481(3) 0.36786(11) 0.5413(3)
H11 H 1.1317 0.3420 0.5174
C15 C 0.6483(4) 0.18616(11) 0.3909(3)
H12 H 0.5707 0.2048 0.3037
H13 H 0.6259 0.1457 0.3798
C16 C 0.8507(4) 0.19821(11) 0.4038(3)
H14 H 0.9276 0.1728 0.4765
H15 H 0.8776 0.1906 0.3095
C17 C 0.9866(4) 0.46044(12) 0.6087(3)
H16 H 1.0263 0.4976 0.6313
C18 C 1.1056(4) 0.42190(11) 0.5733(3)
H17 H 1.2273 0.4327 0.5711
B1 B 0.6096(4) 0.27242(11) 0.5327(3)
C19 C 0.421(2) 0.12003(19) 0.5565(13)
H18 H 0.4669 0.1022 0.4791
H19 H 0.5124 0.1124 0.6500
H20 H 0.679(4) 0.1939(11) 0.599(3)
H21 H 0.590(4) 0.2844(11) 0.637(3)
H22? H 0.3278 0.1810 0.4316
H23? H 0.3540 0.2091 0.5874
C20? C 0.428(2) 0.1253(2) 0.6014(11)
H24? H 0.5091 0.1014 0.5593
H25? H 0.4853 0.1285 0.7069
C21? C 0.2337(10) 0.0993(6) 0.5741(10)
C22? C 0.1627(12) 0.0764(6) 0.4373(9)
H26? H 0.2334 0.0777 0.3677
C23? C -0.0116(10) 0.0517(4) 0.4023(6)
H27? H -0.0600 0.0360 0.3088
C24? C -0.1150(7) 0.0498(3) 0.5041(6)
H28? H -0.2341 0.0329 0.4802
C25? C -0.0441(7) 0.0727(3) 0.6409(6)
H29? H -0.1148 0.0714 0.7104
C26? C 0.1302(9) 0.0974(5) 0.6759(7)
H30? H 0.1787 0.1130 0.7693
loop_
_geom_bond_atom_site_label_1
_geom_bond_atom_site_label_2
_geom_bond_site_symmetry_1
_geom_bond_site_symmetry_2
N1 C11 1_555 1_555
N2 C3 1_555 1_555
C1 H1 1_555 1_555
C2 C1 1_555 1_555
C3 B1 1_555 1_555
C4 C2 1_555 1_555
C5 C6 1_555 1_555
C6 H2 1_555 1_555
C7 C6 1_555 1_555
H3 C7 1_555 1_555
C8 C7 1_555 1_555
H4 C8 1_555 1_555
C9 C8 1_555 1_555
H5 C9 1_555 1_555
C10 C5 1_555 1_555
H6 C10 1_555 1_555
C11 H7 1_555 1_555
H8 C11 1_555 1_555
C12 C1 1_555 1_555
H9 C12 1_555 1_555
C13 C4 1_555 1_555
H10 C13 1_555 1_555
C14 C2 1_555 1_555
H11 C14 1_555 1_555
C15 N1 1_555 1_555
H12 C15 1_555 1_555
H13 C15 1_555 1_555
C16 C13 1_555 1_555
H14 C16 1_555 1_555
H15 C16 1_555 1_555
C17 C12 1_555 1_555
H16 C17 1_555 1_555
C18 C14 1_555 1_555
H17 C18 1_555 1_555
B1 N1 1_555 1_555
C19 C5 1_555 1_555
H18 C19 1_555 1_555
H19 C19 1_555 1_555
H20 N1 1_555 1_555
H21 B1 1_555 1_555
C4 B1 1_555 1_555
C9 C10 1_555 1_555
C11 C19 1_555 1_555
C15 C16 1_555 1_555
C17 C18 1_555 1_555

#END
