
#######################################################################
#
#                 Cambridge Crystallographic Data Centre
#                                CCDC 
#
#######################################################################
#
# If this CIF has been generated from an entry in the Cambridge 
# Structural Database, then it will include bibliographic, chemical, 
# crystal, experimental, refinement or atomic coordinate data resulting 
# from the CCDC's data processing and validation procedures.
#
#######################################################################

data_DAKKAE
_chemical_formula_moiety         'C13 H17 B1 N2'
_chemical_name_systematic        
2-cyano-1-(2-phenylethyl)-1-azonia-2-boratacyclohex-3-ene
_symmetry_cell_setting           monoclinic
_symmetry_space_group_name_H-M   'C 2/c'
_symmetry_Int_Tables_number      15
_space_group_name_Hall           '-C 2yn'
loop_
_symmetry_equiv_pos_site_id
_symmetry_equiv_pos_as_xyz
1 x,y,z
2 -x,y,1/2-z
3 1/2+x,1/2+y,z
4 1/2-x,1/2+y,1/2-z
5 -x,-y,-z
6 x,-y,1/2+z
7 1/2-x,1/2-y,-z
8 1/2+x,1/2-y,1/2+z
_cell_length_a                   11.6606(3)
_cell_length_b                   5.5139(2)
_cell_length_c                   38.6973(11)
_cell_angle_alpha                90
_cell_angle_beta                 96.0810(10)
_cell_angle_gamma                90
_cell_volume                     2474.06
_exptl_crystal_colour            colorless
_exptl_crystal_description       plate
_cell_formula_units_Z            8
loop_
_atom_site_label
_atom_site_type_symbol
_atom_site_fract_x
_atom_site_fract_y
_atom_site_fract_z
C1 C 0.32379(12) 0.3356(3) 0.44785(4)
H1 H 0.3906 0.2274 0.4539
H2 H 0.2527 0.2369 0.4473
C2 C 0.32193(12) 0.5324(3) 0.47525(4)
H3 H 0.2473 0.6193 0.4717
H4 H 0.3276 0.4559 0.4985
C3 C 0.41845(13) 0.7126(3) 0.47426(4)
H5 H 0.4371 0.8151 0.4938
C4 C 0.47865(12) 0.7337(3) 0.44708(4)
H6 H 0.5412 0.8448 0.4487
B1 B 0.45216(13) 0.5834(3) 0.41176(4)
H7 H 0.4460(15) 0.703(3) 0.3879(5)
N1 N 0.33181(10) 0.4446(2) 0.41270(3)
H8 H 0.2755(16) 0.558(3) 0.4092(4)
C5 C 0.30276(12) 0.2576(2) 0.38521(4)
H9 H 0.2262 0.1880 0.3882
H10 H 0.3601 0.1249 0.3883
C6 C 0.30086(13) 0.3582(3) 0.34846(4)
H11 H 0.2548 0.5093 0.3463
H12 H 0.3804 0.3968 0.3435
C7 C 0.24854(13) 0.1716(3) 0.32284(4)
C8 C 0.12913(14) 0.1468(3) 0.31686(4)
H13 H 0.0810 0.2535 0.3281
C9 C 0.07949(14) -0.0308(3) 0.29482(4)
H14 H -0.0021 -0.0450 0.2910
C10 C 0.14878(15) -0.1879(3) 0.27829(4)
H15 H 0.1149 -0.3106 0.2633
C11 C 0.26749(15) -0.1654(3) 0.28371(4)
H16 H 0.3152 -0.2719 0.2723
C12 C 0.31696(13) 0.0131(3) 0.30588(4)
H17 H 0.3985 0.0272 0.3095
C13 C 0.55001(12) 0.3827(3) 0.40805(4)
N2 N 0.62325(10) 0.2468(2) 0.40582(4)
loop_
_geom_bond_atom_site_label_1
_geom_bond_atom_site_label_2
_geom_bond_site_symmetry_1
_geom_bond_site_symmetry_2
C1 H1 1_555 1_555
H2 C1 1_555 1_555
C2 C1 1_555 1_555
H3 C2 1_555 1_555
H4 C2 1_555 1_555
C3 C2 1_555 1_555
H5 C3 1_555 1_555
C4 C3 1_555 1_555
H6 C4 1_555 1_555
B1 C4 1_555 1_555
H7 B1 1_555 1_555
N1 C1 1_555 1_555
H8 N1 1_555 1_555
C5 N1 1_555 1_555
H9 C5 1_555 1_555
H10 C5 1_555 1_555
C6 C5 1_555 1_555
H11 C6 1_555 1_555
H12 C6 1_555 1_555
C7 C6 1_555 1_555
C8 C7 1_555 1_555
H13 C8 1_555 1_555
C9 C8 1_555 1_555
H14 C9 1_555 1_555
C10 C9 1_555 1_555
H15 C10 1_555 1_555
C11 C10 1_555 1_555
H16 C11 1_555 1_555
C12 C7 1_555 1_555
H17 C12 1_555 1_555
C13 B1 1_555 1_555
N2 C13 1_555 1_555
B1 N1 1_555 1_555
C11 C12 1_555 1_555

#END
