
#######################################################################
#
#                 Cambridge Crystallographic Data Centre
#                                CCDC 
#
#######################################################################
#
# If this CIF has been generated from an entry in the Cambridge 
# Structural Database, then it will include bibliographic, chemical, 
# crystal, experimental, refinement or atomic coordinate data resulting 
# from the CCDC's data processing and validation procedures.
#
#######################################################################

data_DAKPOX
_chemical_formula_moiety         'C18 H20 N2 O1'
_chemical_name_systematic        
2-methyl-1-phenyl-1,2,4,5,6,7-hexahydro-3H-benzo[e][1,3]diazonin-3-one
_symmetry_cell_setting           triclinic
_symmetry_space_group_name_H-M   'P -1'
_symmetry_Int_Tables_number      2
_space_group_name_Hall           '-P 1'
loop_
_symmetry_equiv_pos_site_id
_symmetry_equiv_pos_as_xyz
1 x,y,z
2 -x,-y,-z
_cell_length_a                   8.2085(6)
_cell_length_b                   8.9895(6)
_cell_length_c                   11.0786(7)
_cell_angle_alpha                87.681(5)
_cell_angle_beta                 83.866(5)
_cell_angle_gamma                67.212(5)
_cell_volume                     749.368
_exptl_crystal_colour            colorless
_exptl_crystal_description       block
_chemical_melting_point          '424-425 K'
_cell_formula_units_Z            2
loop_
_atom_site_label
_atom_site_type_symbol
_atom_site_fract_x
_atom_site_fract_y
_atom_site_fract_z
O1 O 1.09944(12) 0.39990(10) 0.63462(8)
N1 N 0.97803(14) 0.23229(12) 0.73047(9)
N2 N 0.86067(15) 0.37679(13) 0.55891(9)
C1 C 0.77964(17) 0.07769(14) 0.75496(11)
C2 C 0.80454(16) 0.23149(14) 0.78178(11)
H1 H 0.7139 0.3190 0.7380
C3 C 0.76484(17) 0.28281(14) 0.91548(11)
C4 C 0.66094(16) 0.07976(14) 0.67185(11)
C5 C 0.98647(17) 0.33987(14) 0.64032(11)
C6 C 0.55468(17) 0.23077(14) 0.60462(11)
H2 H 0.5238 0.3256 0.6578
H3 H 0.4425 0.2238 0.5862
C7 C 0.84414(18) 0.24376(15) 0.49394(11)
H4 H 0.9099 0.1411 0.5348
H5 H 0.9028 0.2385 0.4105
C8 C 0.65603(18) 0.25537(15) 0.48575(11)
H6 H 0.6608 0.1741 0.4263
H7 H 0.5868 0.3630 0.4530
C9 C 0.87486(18) -0.06804(15) 0.81097(12)
H8 H 0.9534 -0.0698 0.8686
C10 C 1.13404(18) 0.15181(16) 0.79536(12)
H9 H 1.1140 0.2002 0.8761
H10 H 1.2373 0.1641 0.7500
H11 H 1.1559 0.0369 0.8038
C11 C 0.67673(19) 0.21634(16) 1.00127(12)
H12 H 0.6458 0.1304 0.9791
C12 C 0.64489(18) -0.06461(16) 0.64674(12)
H13 H 0.5651 -0.0643 0.5905
C13 C 0.85699(19) -0.20975(16) 0.78413(13)
H14 H 0.9238 -0.3077 0.8225
C14 C 0.8038(2) 0.41156(16) 0.95000(12)
H15 H 0.8615 0.4603 0.8919
C15 C 0.74227(19) -0.20838(16) 0.70171(13)
H16 H 0.7299 -0.3053 0.6826
C16 C 0.6334(2) 0.27520(19) 1.11975(13)
H17 H 0.5738 0.2285 1.1780
C17 C 0.7596(2) 0.46957(18) 1.06780(14)
H18 H 0.7869 0.5576 1.0901
C18 C 0.6759(2) 0.39970(19) 1.15312(13)
H19 H 0.6480 0.4378 1.2345
H20 H 0.875(2) 0.4503(19) 0.5065(14)
loop_
_geom_bond_atom_site_label_1
_geom_bond_atom_site_label_2
_geom_bond_site_symmetry_1
_geom_bond_site_symmetry_2
O1 C5 1_555 1_555
N1 C2 1_555 1_555
N2 C5 1_555 1_555
C1 C2 1_555 1_555
C2 H1 1_555 1_555
C3 C2 1_555 1_555
C4 C1 1_555 1_555
C5 N1 1_555 1_555
C6 C4 1_555 1_555
H2 C6 1_555 1_555
H3 C6 1_555 1_555
C7 N2 1_555 1_555
H4 C7 1_555 1_555
H5 C7 1_555 1_555
C8 C6 1_555 1_555
H6 C8 1_555 1_555
H7 C8 1_555 1_555
C9 C1 1_555 1_555
H8 C9 1_555 1_555
C10 N1 1_555 1_555
H9 C10 1_555 1_555
H10 C10 1_555 1_555
H11 C10 1_555 1_555
C11 C3 1_555 1_555
H12 C11 1_555 1_555
C12 C4 1_555 1_555
H13 C12 1_555 1_555
C13 C9 1_555 1_555
H14 C13 1_555 1_555
C14 C3 1_555 1_555
H15 C14 1_555 1_555
C15 C12 1_555 1_555
H16 C15 1_555 1_555
C16 C11 1_555 1_555
H17 C16 1_555 1_555
C17 C14 1_555 1_555
H18 C17 1_555 1_555
C18 C16 1_555 1_555
H19 C18 1_555 1_555
H20 N2 1_555 1_555
C7 C8 1_555 1_555
C13 C15 1_555 1_555
C17 C18 1_555 1_555

#END
