
#######################################################################
#
#                 Cambridge Crystallographic Data Centre
#                                CCDC 
#
#######################################################################
#
# If this CIF has been generated from an entry in the Cambridge 
# Structural Database, then it will include bibliographic, chemical, 
# crystal, experimental, refinement or atomic coordinate data resulting 
# from the CCDC's data processing and validation procedures.
#
#######################################################################

data_DAKSEN
_chemical_name_common            
'5,11,17,23-Tetra-t-butyl-25,26,27,28-tetrakis(ethoxycarbonylmethoxy)calix(4)arene hemihydrate'
_chemical_formula_moiety         'C60 H80 O12,0.56(H2 O1)'
_chemical_name_systematic        
'25,26,27,28-tetrakis(Ethoxycarbonylmethoxy)-5,11,17,23-tetra-t-butyl-pentacyclo(19.3.1^3,7^.1^9,13^.1^15,19^)octacosa-1(25),3,5,7(26),9,11,13(27),15,17,19(28),21,23-dodecaene hydrate'
_symmetry_cell_setting           triclinic
_symmetry_space_group_name_H-M   'P -1'
_symmetry_Int_Tables_number      2
_space_group_name_Hall           '-P 1'
loop_
_symmetry_equiv_pos_site_id
_symmetry_equiv_pos_as_xyz
1 x,y,z
2 -x,-y,-z
_cell_length_a                   12.434(2)
_cell_length_b                   15.003(3)
_cell_length_c                   17.286(4)
_cell_angle_alpha                103.01(2)
_cell_angle_beta                 102.97(1)
_cell_angle_gamma                94.68(1)
_cell_volume                     3031.94
_chemical_melting_point          154-155deg.C
_cell_formula_units_Z            2
loop_
_atom_site_label
_atom_site_type_symbol
_atom_site_fract_x
_atom_site_fract_y
_atom_site_fract_z
C1 C -0.1758(6) 0.2188(5) 0.8830(4)
C2 C -0.2872(6) 0.1919(5) 0.8781(4)
C3 C -0.3361(6) 0.2439(5) 0.9340(5)
C4 C -0.2730(7) 0.3245(5) 0.9930(4)
C5 C -0.1645(6) 0.3505(5) 0.9923(5)
C6 C -0.1152(6) 0.2989(5) 0.9375(4)
C7 C -0.3608(6) 0.1137(5) 0.8080(4)
C8 C -0.3302(7) 0.3851(7) 1.0535(5)
C9 C -0.2451(8) 0.4234(8) 1.1369(6)
C10 C -0.4343(9) 0.3380(9) 1.0597(8)
C11 C -0.3564(11) 0.4721(8) 1.0152(8)
C12 C -0.1045(6) 0.0764(5) 0.8311(5)
C13 C 0.0039(7) 0.0730(6) 0.8855(5)
C14 C 0.1207(8) -0.0311(7) 0.9345(7)
C15 C 0.1192(10) -0.1312(8) 0.9107(8)
O1 O -0.1218(4) 0.1686(4) 0.8263(3)
O2 O 0.0706(6) 0.1345(5) 0.9325(5)
O3 O 0.0200(5) -0.0158(4) 0.8791(4)
C16 C -0.3516(6) 0.1038(5) 0.6605(5)
C17 C -0.3721(6) 0.1378(5) 0.5905(4)
C18 C -0.4357(5) 0.2067(5) 0.5856(5)
C19 C -0.4770(6) 0.2466(5) 0.6519(5)
C20 C -0.4535(6) 0.2179(5) 0.7228(5)
C21 C -0.3873(6) 0.1463(5) 0.7282(4)
C22 C -0.3172(6) 0.1006(5) 0.5186(4)
C23 C -0.5561(7) 0.3194(6) 0.6409(5)
C24 C -0.5695(10) 0.3772(8) 0.7214(7)
C25 C -0.5117(10) 0.3862(8) 0.5955(8)
C26 C -0.6690(7) 0.2719(8) 0.5940(9)
C27 C -0.3530(7) -0.0579(5) 0.6132(5)
C28 C -0.3796(7) -0.1224(6) 0.6607(6)
C29 C -0.3479(11) -0.1801(8) 0.7805(8)
C30 C -0.2837(13) -0.1402(10) 0.8671(9)
O4 O -0.2929(4) 0.0281(3) 0.6645(3)
O5 O -0.4412(8) -0.1917(6) 0.6274(5)
O6 O -0.3255(6) -0.1086(4) 0.7365(4)
C31 C -0.1299(6) 0.2043(5) 0.5703(4)
C32 C -0.0582(6) 0.2792(5) 0.5720(4)
C33 C -0.0862(7) 0.3282(5) 0.5146(5)
C34 C -0.1900(6) 0.3061(5) 0.4544(4)
C35 C -0.2623(6) 0.2300(5) 0.4565(5)
C36 C -0.2337(6) 0.1780(5) 0.5146(4)
C37 C 0.0494(6) 0.3165(5) 0.6439(5)
C38 C -0.2223(5) 0.3645(5) 0.3937(4)
C39 C -0.3375(7) 0.3346(8) 0.3395(7)
C40 C -0.1320(8) 0.3731(9) 0.3472(7)
C41 C -0.2183(10) 0.4663(6) 0.4492(7)
C42 C -0.0171(6) 0.1029(5) 0.6325(5)
C43 C -0.0583(7) 0.0013(6) 0.5909(5)
C44 C -0.0195(10) -0.1508(6) 0.6009(7)
C45 C -0.0806(10) -0.1933(8) 0.6469(9)
O7 O -0.1075(4) 0.1539(3) 0.6305(3)
O8 O -0.1234(5) -0.0304(4) 0.5270(4)
O9 O -0.0051(6) -0.0497(4) 0.6371(4)
C46 C 0.0336(6) 0.3327(5) 0.7910(4)
C47 C -0.0083(6) 0.3724(5) 0.8564(5)
C48 C -0.0699(6) 0.4468(5) 0.8523(5)
C49 C -0.0900(6) 0.4794(5) 0.7816(5)
C50 C -0.0487(6) 0.4380(5) 0.7153(5)
C51 C 0.0118(6) 0.3656(5) 0.7207(5)
C52 C 0.0032(6) 0.3332(5) 0.9327(5)
C53 C -0.1541(7) 0.5622(6) 0.7759(6)
C54 C -0.2402(8) 0.5621(7) 0.8300(7)
C55 C -0.2089(9) 0.5611(7) 0.6877(6)
C56 C -0.0702(9) 0.6525(6) 0.8165(7)
C57 C 0.2070(6) 0.2861(6) 0.8382(6)
C58 C 0.2698(7) 0.2043(6) 0.8266(6)
C59 C 0.2771(10) 0.0474(9) 0.7640(9)
C60 C 0.2959(10) 0.0362(10) 0.6880(8)
O10 O 0.0927(4) 0.2580(3) 0.7926(3)
O11 O 0.3608(6) 0.2074(5) 0.8682(6)
O12 O 0.2205(6) 0.1348(5) 0.7697(5)
loop_
_geom_bond_atom_site_label_1
_geom_bond_atom_site_label_2
_geom_bond_site_symmetry_1
_geom_bond_site_symmetry_2
C1 C2 1_555 1_555
C2 C3 1_555 1_555
C3 C4 1_555 1_555
C4 C5 1_555 1_555
C5 C6 1_555 1_555
C6 C1 1_555 1_555
C7 C2 1_555 1_555
C8 C4 1_555 1_555
C9 C8 1_555 1_555
C10 C8 1_555 1_555
C11 C8 1_555 1_555
C12 C13 1_555 1_555
C13 O2 1_555 1_555
C14 C15 1_555 1_555
O1 C1 1_555 1_555
O3 C13 1_555 1_555
C16 C17 1_555 1_555
C17 C18 1_555 1_555
C18 C19 1_555 1_555
C19 C20 1_555 1_555
C20 C21 1_555 1_555
C21 C7 1_555 1_555
C22 C17 1_555 1_555
C23 C19 1_555 1_555
C24 C23 1_555 1_555
C25 C23 1_555 1_555
C26 C23 1_555 1_555
C27 C28 1_555 1_555
C28 O5 1_555 1_555
C29 C30 1_555 1_555
O4 C16 1_555 1_555
O6 C28 1_555 1_555
C31 C32 1_555 1_555
C32 C33 1_555 1_555
C33 C34 1_555 1_555
C34 C35 1_555 1_555
C35 C36 1_555 1_555
C36 C22 1_555 1_555
C37 C32 1_555 1_555
C38 C34 1_555 1_555
C39 C38 1_555 1_555
C40 C38 1_555 1_555
C41 C38 1_555 1_555
C42 C43 1_555 1_555
C43 O8 1_555 1_555
C44 C45 1_555 1_555
O7 C31 1_555 1_555
O9 C43 1_555 1_555
C46 C47 1_555 1_555
C47 C48 1_555 1_555
C48 C49 1_555 1_555
C49 C50 1_555 1_555
C50 C51 1_555 1_555
C51 C37 1_555 1_555
C52 C6 1_555 1_555
C53 C49 1_555 1_555
C54 C53 1_555 1_555
C55 C53 1_555 1_555
C56 C53 1_555 1_555
C57 C58 1_555 1_555
C58 O11 1_555 1_555
C59 C60 1_555 1_555
O10 C46 1_555 1_555
O12 C58 1_555 1_555
C12 O1 1_555 1_555
C14 O3 1_555 1_555
C16 C21 1_555 1_555
C27 O4 1_555 1_555
C29 O6 1_555 1_555
C31 C36 1_555 1_555
C42 O7 1_555 1_555
C44 O9 1_555 1_555
C46 C51 1_555 1_555
C47 C52 1_555 1_555
C57 O10 1_555 1_555
C59 O12 1_555 1_555

#END
