
#######################################################################
#
#                 Cambridge Crystallographic Data Centre
#                                CCDC 
#
#######################################################################
#
# If this CIF has been generated from an entry in the Cambridge 
# Structural Database, then it will include bibliographic, chemical, 
# crystal, experimental, refinement or atomic coordinate data resulting 
# from the CCDC's data processing and validation procedures.
#
#######################################################################

data_DALBAW
_chemical_formula_moiety         'C21 H29 N3 O7'
_chemical_name_systematic        
15-(3-azido-1-(methoxymethoxy)propyl)spiro[2,4-dioxapentacyclo[9.3.2.0^1,5^.0^8,13^.0^8,15^]hexadecane-9,2'-[1,3]dioxolan]-3-one
_symmetry_cell_setting           triclinic
_symmetry_space_group_name_H-M   'P -1'
_symmetry_Int_Tables_number      2
_space_group_name_Hall           '-P 1'
loop_
_symmetry_equiv_pos_site_id
_symmetry_equiv_pos_as_xyz
1 x,y,z
2 -x,-y,-z
_cell_length_a                   8.3587(9)
_cell_length_b                   9.7983(16)
_cell_length_c                   13.778(2)
_cell_angle_alpha                77.881(13)
_cell_angle_beta                 88.726(11)
_cell_angle_gamma                72.432(12)
_cell_volume                     1050.8
_exptl_crystal_colour            colorless
_exptl_crystal_description       block
_chemical_melting_point          '423-425 K'
_cell_formula_units_Z            2
_exptl_crystal_recrystallization_method 'petroleum ether/ethyl acetate'
loop_
_atom_site_label
_atom_site_type_symbol
_atom_site_fract_x
_atom_site_fract_y
_atom_site_fract_z
O1 O 0.0902(2) 0.84176(18) 0.60207(12)
O2 O 0.0565(2) 0.61925(17) 0.67011(12)
O3 O 0.26302(19) 0.87562(18) 0.99263(11)
O4 O 0.52202(19) 0.7263(2) 0.98596(12)
O5 O 0.4583(3) 0.8448(3) 1.11157(16)
O6 O 0.3219(2) 0.98396(18) 0.71419(12)
O7 O 0.3158(3) 1.1884(2) 0.58889(16)
N1 N -0.1217(4) 1.3029(3) 0.7412(3)
N2 N -0.2033(4) 1.4061(3) 0.6837(2)
N3 N -0.2955(4) 1.5008(4) 0.6321(3)
C1 C 0.0435(3) 0.7595(2) 0.69069(16)
C2 C -0.1357(3) 0.8382(3) 0.71331(19)
H1 H -0.1655 0.9408 0.6804
H2 H -0.2128 0.7953 0.6886
C3 C -0.1494(3) 0.8243(3) 0.82501(19)
H3 H -0.2675 0.8587 0.8415
C4 C -0.0524(3) 0.9186(3) 0.85653(18)
H4 H -0.0545 0.9083 0.9281
H5 H -0.1067 1.0207 0.8262
C5 C 0.1352(2) 0.8730(2) 0.82505(15)
C6 C 0.1651(2) 0.7325(2) 0.77922(15)
C7 C -0.0717(3) 0.6633(3) 0.8758(2)
H6 H -0.1107 0.6011 0.8419
H7 H -0.1036 0.6467 0.9443
C8 C 0.1199(3) 0.6279(2) 0.87109(16)
H8 H 0.1717 0.5252 0.8674
C9 C 0.1960(3) 0.6626(3) 0.96017(16)
H9 H 0.1125 0.6858 1.0091
H10 H 0.2896 0.5799 0.9916
C10 C 0.2554(3) 0.7954(2) 0.91618(15)
C11 C 0.4371(3) 0.7524(3) 0.88905(16)
H11 H 0.4596 0.8362 0.8446
C12 C 0.4786(3) 0.6255(3) 0.83881(18)
H12 H 0.4735 0.5376 0.8852
H13 H 0.5909 0.6079 0.8140
C13 C 0.3480(3) 0.6652(3) 0.75230(17)
H14 H 0.3555 0.5774 0.7282
H15 H 0.3762 0.7342 0.6984
C14 C 0.1386(4) 0.7506(4) 0.5321(2)
H16 H 0.2597 0.7078 0.5339
H17 H 0.1000 0.8052 0.4652
C15 C 0.0543(4) 0.6350(3) 0.5651(2)
H18 H -0.0597 0.6664 0.5371
H19 H 0.1163 0.5440 0.5464
C16 C 0.4183(3) 0.8182(3) 1.0368(2)
C17 C 0.1615(3) 1.0129(2) 0.75934(17)
H20 H 0.0741 1.0503 0.7058
C18 C 0.1431(3) 1.1339(3) 0.8178(2)
H21 H 0.0788 1.1150 0.8758
H22 H 0.2538 1.1290 0.8410
C19 C 0.0584(4) 1.2869(3) 0.7587(3)
H23 H 0.0687 1.3586 0.7952
H24 H 0.1114 1.3030 0.6958
C20 C 0.3244(4) 1.0408(3) 0.6119(2)
H25 H 0.4267 0.9846 0.5864
H26 H 0.2303 1.0286 0.5784
C21 C 0.4599(4) 1.2159(4) 0.6219(3)
H27 H 0.5575 1.1607 0.5933
H28 H 0.4720 1.1871 0.6930
H29 H 0.4479 1.3185 0.6016
loop_
_geom_bond_atom_site_label_1
_geom_bond_atom_site_label_2
_geom_bond_site_symmetry_1
_geom_bond_site_symmetry_2
O1 C1 1_555 1_555
O2 C1 1_555 1_555
O3 C10 1_555 1_555
O4 C11 1_555 1_555
O5 C16 1_555 1_555
O6 C17 1_555 1_555
O7 C20 1_555 1_555
N1 N2 1_555 1_555
N2 N3 1_555 1_555
C1 C2 1_555 1_555
C2 H1 1_555 1_555
H2 C2 1_555 1_555
C3 C2 1_555 1_555
H3 C3 1_555 1_555
C4 C3 1_555 1_555
H4 C4 1_555 1_555
H5 C4 1_555 1_555
C5 C4 1_555 1_555
C6 C1 1_555 1_555
C7 C3 1_555 1_555
H6 C7 1_555 1_555
H7 C7 1_555 1_555
C8 C6 1_555 1_555
H8 C8 1_555 1_555
C9 C8 1_555 1_555
H9 C9 1_555 1_555
H10 C9 1_555 1_555
C10 C5 1_555 1_555
C11 C10 1_555 1_555
H11 C11 1_555 1_555
C12 C11 1_555 1_555
H12 C12 1_555 1_555
H13 C12 1_555 1_555
C13 C6 1_555 1_555
H14 C13 1_555 1_555
H15 C13 1_555 1_555
C14 O1 1_555 1_555
H16 C14 1_555 1_555
H17 C14 1_555 1_555
C15 O2 1_555 1_555
H18 C15 1_555 1_555
H19 C15 1_555 1_555
C16 O3 1_555 1_555
C17 C5 1_555 1_555
H20 C17 1_555 1_555
C18 C17 1_555 1_555
H21 C18 1_555 1_555
H22 C18 1_555 1_555
C19 N1 1_555 1_555
H23 C19 1_555 1_555
H24 C19 1_555 1_555
C20 O6 1_555 1_555
H25 C20 1_555 1_555
H26 C20 1_555 1_555
C21 O7 1_555 1_555
H27 C21 1_555 1_555
H28 C21 1_555 1_555
H29 C21 1_555 1_555
O4 C16 1_555 1_555
C5 C6 1_555 1_555
C7 C8 1_555 1_555
C9 C10 1_555 1_555
C12 C13 1_555 1_555
C14 C15 1_555 1_555
C18 C19 1_555 1_555

#END
