
#######################################################################
#
#                 Cambridge Crystallographic Data Centre
#                                CCDC 
#
#######################################################################
#
# If this CIF has been generated from an entry in the Cambridge 
# Structural Database, then it will include bibliographic, chemical, 
# crystal, experimental, refinement or atomic coordinate data resulting 
# from the CCDC's data processing and validation procedures.
#
#######################################################################

data_DALDAY
_chemical_formula_moiety         'C18 H12 F3 N1'
_chemical_name_systematic        
6-(trifluoromethyl)-7,8-dihydrobenzo[k]phenanthridine
_symmetry_cell_setting           monoclinic
_symmetry_space_group_name_H-M   'P 21/c'
_symmetry_Int_Tables_number      14
_space_group_name_Hall           '-P 2ybc'
loop_
_symmetry_equiv_pos_site_id
_symmetry_equiv_pos_as_xyz
1 x,y,z
2 -x,1/2+y,1/2-z
3 -x,-y,-z
4 x,1/2-y,1/2+z
_cell_length_a                   14.497(2)
_cell_length_b                   11.8943(18)
_cell_length_c                   8.2937(12)
_cell_angle_alpha                90
_cell_angle_beta                 100.691(3)
_cell_angle_gamma                90
_cell_volume                     1405.27
_exptl_crystal_colour            colorless
_exptl_crystal_description       prismatic
_cell_formula_units_Z            4
loop_
_atom_site_label
_atom_site_type_symbol
_atom_site_fract_x
_atom_site_fract_y
_atom_site_fract_z
F1 F 0.16099(12) 1.15959(13) -0.0024(2)
F2 F 0.18947(12) 1.11332(12) -0.23447(17)
F3 F 0.29056(11) 1.20396(11) -0.0675(2)
N1 N 0.35547(10) 1.02266(12) 0.0793(2)
C1 C 0.21552(12) 0.70414(15) -0.01365(19)
C2 C 0.26489(14) 0.60586(15) -0.0340(2)
H1 H 0.3302 0.6070 -0.0134
C3 C 0.21802(17) 0.50668(17) -0.0844(2)
H2 H 0.2517 0.4417 -0.0970
C4 C 0.12127(18) 0.5049(2) -0.1159(3)
H3 H 0.0896 0.4380 -0.1464
C5 C 0.07146(16) 0.6015(2) -0.1023(2)
H4 H 0.0062 0.5996 -0.1260
C6 C 0.11718(13) 0.70228(17) -0.0536(2)
C7 C 0.06593(13) 0.81084(19) -0.0477(2)
H5 H 0.0617 0.8282 0.0650
H6 H 0.0027 0.8040 -0.1104
C8 C 0.11706(13) 0.90527(17) -0.1181(2)
H7 H 0.1157 0.8919 -0.2339
H8 H 0.0858 0.9762 -0.1071
C9 C 0.21783(11) 0.91138(14) -0.02815(19)
C10 C 0.26251(11) 0.81329(14) 0.03476(18)
C11 C 0.35255(11) 0.82189(13) 0.14004(19)
C12 C 0.39888(12) 0.73339(14) 0.2372(2)
H9 H 0.3705 0.6631 0.2333
C13 C 0.48402(13) 0.74904(16) 0.3360(2)
H10 H 0.5127 0.6897 0.3990
C14 C 0.52851(14) 0.85350(18) 0.3433(3)
H11 H 0.5878 0.8627 0.4076
C15 C 0.48542(14) 0.94160(17) 0.2567(3)
H12 H 0.5148 1.0114 0.2640
C16 C 0.39652(12) 0.92863(15) 0.1557(2)
C17 C 0.26967(12) 1.01288(15) -0.0040(2)
C18 C 0.22863(16) 1.12218(18) -0.0771(3)
loop_
_geom_bond_atom_site_label_1
_geom_bond_atom_site_label_2
_geom_bond_site_symmetry_1
_geom_bond_site_symmetry_2
F1 C18 1_555 1_555
F2 C18 1_555 1_555
F3 C18 1_555 1_555
N1 C16 1_555 1_555
C1 C2 1_555 1_555
C2 H1 1_555 1_555
C3 C2 1_555 1_555
H2 C3 1_555 1_555
C4 C3 1_555 1_555
H3 C4 1_555 1_555
C5 C4 1_555 1_555
H4 C5 1_555 1_555
C6 C1 1_555 1_555
C7 C6 1_555 1_555
H5 C7 1_555 1_555
H6 C7 1_555 1_555
C8 C7 1_555 1_555
H7 C8 1_555 1_555
H8 C8 1_555 1_555
C9 C8 1_555 1_555
C10 C1 1_555 1_555
C11 C10 1_555 1_555
C12 C11 1_555 1_555
H9 C12 1_555 1_555
C13 C12 1_555 1_555
H10 C13 1_555 1_555
C14 C13 1_555 1_555
H11 C14 1_555 1_555
C15 C14 1_555 1_555
H12 C15 1_555 1_555
C16 C11 1_555 1_555
C17 N1 1_555 1_555
C18 C17 1_555 1_555
C5 C6 1_555 1_555
C9 C10 1_555 1_555
C9 C17 1_555 1_555
C15 C16 1_555 1_555

#END
