
#######################################################################
#
#                 Cambridge Crystallographic Data Centre
#                                CCDC 
#
#######################################################################
#
# If this CIF has been generated from an entry in the Cambridge 
# Structural Database, then it will include bibliographic, chemical, 
# crystal, experimental, refinement or atomic coordinate data resulting 
# from the CCDC's data processing and validation procedures.
#
#######################################################################

data_DALKIM
_chemical_formula_moiety         'C36 H22 Cl2 O1'
_chemical_name_systematic        
(4-Chlorophenyl)(1-(4-chlorophenyl)-3-phenyl-1-(phenylethynyl)-1H-inden-2-yl)methanone
_symmetry_cell_setting           monoclinic
_symmetry_space_group_name_H-M   'P 21/n'
_symmetry_Int_Tables_number      14
_space_group_name_Hall           '-P 2yn'
loop_
_symmetry_equiv_pos_site_id
_symmetry_equiv_pos_as_xyz
1 x,y,z
2 1/2-x,1/2+y,1/2-z
3 -x,-y,-z
4 1/2+x,1/2-y,1/2+z
_cell_length_a                   11.785(3)
_cell_length_b                   17.267(4)
_cell_length_c                   13.713(3)
_cell_angle_alpha                90
_cell_angle_beta                 103.215(3)
_cell_angle_gamma                90
_cell_volume                     2716.59
_exptl_crystal_colour            colorless
_cell_formula_units_Z            4
loop_
_atom_site_label
_atom_site_type_symbol
_atom_site_fract_x
_atom_site_fract_y
_atom_site_fract_z
C1 C 0.64006(18) 0.40269(10) 0.63181(14)
H1 H 0.7192 0.3912 0.6501
Cl1 Cl 0.92906(6) 0.39731(4) -0.14501(4)
O1 O 0.72383(13) 0.41615(7) 0.26673(11)
C2 C 0.5893(2) 0.44422(12) 0.69634(17)
H2 H 0.6341 0.4602 0.7580
Cl2 Cl 0.40861(4) 0.07882(3) 0.03149(3)
C3 C 0.4728(3) 0.46215(13) 0.6700(2)
H3 H 0.4386 0.4901 0.7137
C4 C 0.4069(2) 0.43853(14) 0.5786(2)
H4 H 0.3281 0.4511 0.5606
C5 C 0.45646(17) 0.39621(12) 0.51308(18)
H5 H 0.4111 0.3803 0.4517
C6 C 0.57430(15) 0.37777(9) 0.53967(13)
C7 C 0.62882(14) 0.33443(9) 0.47309(13)
C8 C 0.67730(13) 0.30001(9) 0.41943(12)
C9 C 0.74141(13) 0.25372(8) 0.35888(12)
C10 C 0.82395(13) 0.19784(9) 0.42597(11)
C11 C 0.79834(15) 0.14144(10) 0.48910(13)
H6 H 0.7224 0.1342 0.4962
C12 C 0.88882(17) 0.09584(11) 0.54162(14)
H7 H 0.8731 0.0572 0.5839
C13 C 1.00188(17) 0.10699(11) 0.53210(15)
H8 H 1.0611 0.0757 0.5680
C14 C 1.02823(15) 0.16411(10) 0.46998(14)
H9 H 1.1045 0.1719 0.4642
C15 C 0.93778(13) 0.20960(9) 0.41637(12)
C16 C 0.93786(13) 0.27464(9) 0.34660(12)
C17 C 0.82806(13) 0.30132(8) 0.31429(12)
C18 C 1.04421(13) 0.30582(9) 0.32114(12)
C19 C 1.11968(18) 0.25739(12) 0.28662(18)
H10 H 1.1050 0.2044 0.2821
C20 C 1.2164(2) 0.28654(14) 0.2588(2)
H11 H 1.2658 0.2533 0.2347
C21 C 1.24016(18) 0.36378(14) 0.26625(18)
H12 H 1.3053 0.3834 0.2470
C22 C 1.16741(18) 0.41251(12) 0.30230(17)
H13 H 1.1838 0.4652 0.3082
C23 C 1.07026(15) 0.38389(10) 0.32971(15)
H14 H 1.0217 0.4174 0.3543
C24 C 0.78839(14) 0.36716(9) 0.24572(13)
C25 C 0.82683(13) 0.37267(9) 0.14986(12)
C26 C 0.85964(16) 0.30830(10) 0.10220(13)
H15 H 0.8611 0.2598 0.1319
C27 C 0.89011(18) 0.31557(11) 0.01121(14)
H16 H 0.9112 0.2722 -0.0208
C28 C 0.88897(16) 0.38741(11) -0.03147(13)
C29 C 0.85747(17) 0.45221(10) 0.01406(14)
H17 H 0.8578 0.5007 -0.0155
C30 C 0.82537(16) 0.44448(9) 0.10390(14)
H18 H 0.8023 0.4880 0.1344
C31 C 0.65760(13) 0.21079(9) 0.27318(11)
C32 C 0.54996(13) 0.24184(9) 0.22714(12)
H19 H 0.5282 0.2899 0.2476
C33 C 0.47485(14) 0.20253(9) 0.15149(12)
H20 H 0.4032 0.2240 0.1210
C34 C 0.50676(13) 0.13116(9) 0.12140(11)
C35 C 0.61466(15) 0.09980(10) 0.16366(13)
H21 H 0.6365 0.0523 0.1418
C36 C 0.68960(14) 0.14005(10) 0.23885(13)
H22 H 0.7627 0.1195 0.2670
loop_
_geom_bond_atom_site_label_1
_geom_bond_atom_site_label_2
_geom_bond_site_symmetry_1
_geom_bond_site_symmetry_2
C1 H1 1_555 1_555
Cl1 C28 1_555 1_555
O1 C24 1_555 1_555
C2 C1 1_555 1_555
H2 C2 1_555 1_555
Cl2 C34 1_555 1_555
C3 C2 1_555 1_555
H3 C3 1_555 1_555
C4 C3 1_555 1_555
H4 C4 1_555 1_555
C5 C4 1_555 1_555
H5 C5 1_555 1_555
C6 C1 1_555 1_555
C7 C6 1_555 1_555
C8 C7 1_555 1_555
C9 C8 1_555 1_555
C10 C9 1_555 1_555
C11 C10 1_555 1_555
H6 C11 1_555 1_555
C12 C11 1_555 1_555
H7 C12 1_555 1_555
C13 C12 1_555 1_555
H8 C13 1_555 1_555
C14 C13 1_555 1_555
H9 C14 1_555 1_555
C15 C10 1_555 1_555
C16 C15 1_555 1_555
C17 C9 1_555 1_555
C18 C16 1_555 1_555
C19 C18 1_555 1_555
H10 C19 1_555 1_555
C20 C19 1_555 1_555
H11 C20 1_555 1_555
C21 C20 1_555 1_555
H12 C21 1_555 1_555
C22 C21 1_555 1_555
H13 C22 1_555 1_555
C23 C18 1_555 1_555
H14 C23 1_555 1_555
C24 C17 1_555 1_555
C25 C24 1_555 1_555
C26 C25 1_555 1_555
H15 C26 1_555 1_555
C27 C26 1_555 1_555
H16 C27 1_555 1_555
C28 C27 1_555 1_555
C29 C28 1_555 1_555
H17 C29 1_555 1_555
C30 C25 1_555 1_555
H18 C30 1_555 1_555
C31 C9 1_555 1_555
C32 C31 1_555 1_555
H19 C32 1_555 1_555
C33 C32 1_555 1_555
H20 C33 1_555 1_555
C34 C33 1_555 1_555
C35 C34 1_555 1_555
H21 C35 1_555 1_555
C36 C31 1_555 1_555
H22 C36 1_555 1_555
C5 C6 1_555 1_555
C14 C15 1_555 1_555
C16 C17 1_555 1_555
C22 C23 1_555 1_555
C29 C30 1_555 1_555
C35 C36 1_555 1_555

#END
