
#######################################################################
#
#                 Cambridge Crystallographic Data Centre
#                                CCDC 
#
#######################################################################
#
# If this CIF has been generated from an entry in the Cambridge 
# Structural Database, then it will include bibliographic, chemical, 
# crystal, experimental, refinement or atomic coordinate data resulting 
# from the CCDC's data processing and validation procedures.
#
#######################################################################

data_DALMEJ
_chemical_formula_moiety         'C8 H20 N1 1+,C12 H8 As1 S4 1-'
_chemical_name_systematic        
"Tetraethylammonium bis(benzene-1,2-dithiolato-S,S')-arsenic(iii)"
_symmetry_cell_setting           monoclinic
_symmetry_space_group_name_H-M   'P 21/c'
_symmetry_Int_Tables_number      14
_space_group_name_Hall           '-P 2ybc'
loop_
_symmetry_equiv_pos_site_id
_symmetry_equiv_pos_as_xyz
1 x,y,z
2 x,1/2-y,1/2+z
3 -x,-y,-z
4 -x,1/2+y,1/2-z
_cell_length_a                   10.462(8)
_cell_length_b                   14.103(10)
_cell_length_c                   15.730(11)
_cell_angle_alpha                90
_cell_angle_beta                 106.914(13)
_cell_angle_gamma                90
_cell_volume                     2220.5
_exptl_crystal_colour            colorless
_cell_formula_units_Z            4
_exptl_crystal_recrystallization_method ether/acetonitrile
loop_
_atom_site_label
_atom_site_type_symbol
_atom_site_fract_x
_atom_site_fract_y
_atom_site_fract_z
As1 As 0.27500(6) 0.78312(4) 0.04728(4)
S1 S 0.08394(14) 0.86820(8) 0.00081(8)
S2 S 0.12857(15) 0.63876(9) 0.02702(9)
S3 S 0.31160(14) 0.75833(9) 0.19414(9)
S4 S 0.38733(14) 0.93955(9) 0.08998(9)
C1 C 0.3595(5) 0.8689(3) 0.2467(3)
C2 C -0.0492(5) 0.7887(3) -0.0089(3)
C4 C -0.0271(5) 0.6909(3) 0.0110(3)
C6 C 0.3880(5) 0.9480(3) 0.2006(3)
C7 C 0.3666(5) 0.8765(4) 0.3367(3)
H5 H 0.3484 0.8238 0.3667
C9 C 0.4199(5) 1.0331(4) 0.2488(4)
H8 H 0.4362 1.0873 0.2199
C10 C -0.1765(6) 0.8253(4) -0.0318(3)
H9 H -0.1899 0.8890 -0.0473
C13 C -0.1387(6) 0.6364(4) 0.0124(3)
H16 H -0.1271 0.5726 0.0276
C15 C -0.2845(6) 0.7696(4) -0.0321(3)
H19 H -0.3702 0.7950 -0.0482
C17 C 0.4003(6) 0.9609(4) 0.3813(4)
H23 H 0.4045 0.9653 0.4410
C18 C -0.2637(7) 0.6746(5) -0.0079(3)
H24 H -0.3356 0.6369 -0.0055
C20 C 0.4276(6) 1.0386(4) 0.3370(4)
H28 H 0.4516 1.0955 0.3673
N1 N 0.8618(4) 0.9164(2) 0.2291(2)
C3 C 0.7820(5) 0.9663(3) 0.1450(3)
H1 H 0.8412 0.9801 0.1092
H2 H 0.7138 0.9231 0.1113
C5 C 0.9582(5) 0.9847(3) 0.2892(3)
H3 H 0.9072 1.0356 0.3050
H4 H 1.0046 0.9517 0.3435
C8 C 0.7712(5) 0.8780(4) 0.2804(3)
H6 H 0.7166 0.9296 0.2912
H7 H 0.8262 0.8556 0.3377
C11 C 0.7155(5) 1.0571(3) 0.1591(3)
H10 H 0.6682 1.0469 0.2023
H11 H 0.6537 1.0769 0.1040
H12 H 0.7819 1.1053 0.1800
C12 C 1.0198(5) 0.7757(3) 0.2764(3)
H13 H 1.0848 0.8147 0.3171
H14 H 1.0646 0.7271 0.2531
H15 H 0.9625 0.7468 0.3068
C14 C 0.9372(5) 0.8361(3) 0.2009(3)
H17 H 0.8733 0.7956 0.1596
H18 H 0.9958 0.8628 0.1693
C16 C 1.0605(6) 1.0275(4) 0.2505(4)
H20 H 1.1166 0.9783 0.2389
H21 H 1.1141 1.0721 0.2918
H22 H 1.0161 1.0594 0.1960
C19 C 0.6798(5) 0.7982(4) 0.2351(4)
H25 H 0.6302 0.8175 0.1762
H26 H 0.6191 0.7832 0.2686
H27 H 0.7323 0.7432 0.2317
loop_
_geom_bond_atom_site_label_1
_geom_bond_atom_site_label_2
_geom_bond_site_symmetry_1
_geom_bond_site_symmetry_2
As1 S1 1_555 1_555
S1 C2 1_555 1_555
S2 As1 1_555 1_555
S3 As1 1_555 1_555
S4 As1 1_555 1_555
N1 C3 1_555 1_555
C1 S3 1_555 1_555
C2 C4 1_555 1_555
C3 H1 1_555 1_555
H2 C3 1_555 1_555
C4 S2 1_555 1_555
C5 N1 1_555 1_555
H3 C5 1_555 1_555
H4 C5 1_555 1_555
C6 S4 1_555 1_555
C7 C1 1_555 1_555
H5 C7 1_555 1_555
C8 N1 1_555 1_555
H6 C8 1_555 1_555
H7 C8 1_555 1_555
C9 C6 1_555 1_555
H8 C9 1_555 1_555
C10 C2 1_555 1_555
H9 C10 1_555 1_555
C11 C3 1_555 1_555
H10 C11 1_555 1_555
H11 C11 1_555 1_555
H12 C11 1_555 1_555
C12 H13 1_555 1_555
H14 C12 1_555 1_555
H15 C12 1_555 1_555
C13 C4 1_555 1_555
H16 C13 1_555 1_555
C14 N1 1_555 1_555
H17 C14 1_555 1_555
H18 C14 1_555 1_555
C15 C10 1_555 1_555
H19 C15 1_555 1_555
C16 C5 1_555 1_555
H20 C16 1_555 1_555
H21 C16 1_555 1_555
H22 C16 1_555 1_555
C17 C7 1_555 1_555
H23 C17 1_555 1_555
C18 C13 1_555 1_555
H24 C18 1_555 1_555
C19 C8 1_555 1_555
H25 C19 1_555 1_555
H26 C19 1_555 1_555
H27 C19 1_555 1_555
C20 C9 1_555 1_555
H28 C20 1_555 1_555
C1 C6 1_555 1_555
C12 C14 1_555 1_555
C15 C18 1_555 1_555
C17 C20 1_555 1_555

#END
