
#######################################################################
#
#                 Cambridge Crystallographic Data Centre
#                                CCDC 
#
#######################################################################
#
# If this CIF has been generated from an entry in the Cambridge 
# Structural Database, then it will include bibliographic, chemical, 
# crystal, experimental, refinement or atomic coordinate data resulting 
# from the CCDC's data processing and validation procedures.
#
#######################################################################

data_DALQEN
_chemical_name_common            
'Cyclohexane-1,4-diammonium tetrahydroxypentaoxotetraborate'
_chemical_formula_moiety         'C6 H16 N2 2+,H4 B4 O9 2-'
_chemical_name_systematic        
'Cyclohexane-1,4-diammonium 1,3,5,7-tetrahydroxy-1,3,5,7-tetraboryl-2,4,6,8,9-pentaoxy-[08.1^1,5^]dicyclate'
_symmetry_cell_setting           monoclinic
_symmetry_space_group_name_H-M   'C 2/c'
_symmetry_Int_Tables_number      15
_space_group_name_Hall           '-C 2yn'
loop_
_symmetry_equiv_pos_site_id
_symmetry_equiv_pos_as_xyz
1 x,y,z
2 1/2+x,1/2+y,z
3 x,-y,1/2+z
4 1/2+x,1/2-y,1/2+z
5 -x,-y,-z
6 1/2-x,1/2-y,-z
7 -x,y,1/2-z
8 1/2-x,1/2+y,1/2-z
_cell_length_a                   9.1325(3)
_cell_length_b                   11.4869(3)
_cell_length_c                   12.2756(5)
_cell_angle_alpha                90
_cell_angle_beta                 105.258(6)
_cell_angle_gamma                90
_cell_volume                     1242.37
_exptl_crystal_colour            colorless
_exptl_crystal_description       prism
_cell_formula_units_Z            4
loop_
_atom_site_label
_atom_site_type_symbol
_atom_site_fract_x
_atom_site_fract_y
_atom_site_fract_z
B1 B 0.19315(16) 0.74106(12) 0.32855(12)
B2 B -0.03487(15) 0.84785(13) 0.33731(11)
O1 O 0.32169(11) 0.67595(9) 0.37428(8)
H1 H 0.3482 0.6857 0.4428
O2 O 0.10420(10) 0.78119(8) 0.39495(7)
O3 O 0.0000 0.92214(11) 0.2500
O4 O 0.15843(10) 0.76306(8) 0.21494(8)
O5 O -0.08114(11) 0.91361(9) 0.42181(8)
H2 H -0.0119 0.9568 0.4542
B2F B 0.03487(15) 0.84785(13) 0.16269(11)
O2F O -0.10420(10) 0.78119(8) 0.10505(7)
B1F B -0.19315(16) 0.74106(12) 0.17145(12)
O1F O -0.32169(11) 0.67595(9) 0.12572(8)
H1F H -0.3482 0.6857 0.0572
O4F O -0.15843(10) 0.76306(8) 0.28506(8)
O5F O 0.08114(11) 0.91361(9) 0.07819(8)
H2F H 0.0119 0.9568 0.0458
C1 C 0.16255(15) 0.51913(11) 0.04409(11)
H3 H 0.2002 0.4504 0.0126
C2 C 0.06642(15) 0.47826(11) 0.12125(10)
H4 H 0.0307 0.5451 0.1552
H5 H 0.1276 0.4305 0.1814
C3 C 0.06951(15) 0.59232(11) -0.05339(11)
H6 H 0.0339 0.6622 -0.0241
H7 H 0.1325 0.6155 -0.1021
N1 N 0.29659(13) 0.58794(10) 0.11026(9)
H8 H 0.3517 0.6114 0.0644
H9 H 0.3533 0.5435 0.1646
H10 H 0.2641 0.6497 0.1409
C3D C -0.06951(15) 0.40768(11) 0.05339(11)
C1D C -0.16255(15) 0.48087(11) -0.04409(11)
H3D H -0.2002 0.5496 -0.0126
C2D C -0.06642(15) 0.52174(11) -0.12125(10)
H4D H -0.0307 0.4549 -0.1552
H5D H -0.1276 0.5695 -0.1814
N1D N -0.29659(13) 0.41206(10) -0.11026(9)
H8D H -0.3517 0.3886 -0.0644
H9D H -0.3533 0.4565 -0.1646
H10D H -0.2641 0.3503 -0.1409
H6D H -0.0339 0.3378 0.0241
H7D H -0.1325 0.3845 0.1021
loop_
_geom_bond_atom_site_label_1
_geom_bond_atom_site_label_2
_geom_bond_site_symmetry_1
_geom_bond_site_symmetry_2
B1 O1 1_555 1_555
B2 O2 1_555 1_555
O1 H1 1_555 1_555
O2 B1 1_555 1_555
O3 B2 1_555 1_555
O4 B1 1_555 1_555
O5 B2 1_555 1_555
H2 O5 1_555 1_555
C1 H3 1_555 1_555
C2 C1 1_555 1_555
H4 C2 1_555 1_555
H5 C2 1_555 1_555
C3 C1 1_555 1_555
H6 C3 1_555 1_555
H7 C3 1_555 1_555
N1 C1 1_555 1_555
H8 N1 1_555 1_555
H9 N1 1_555 1_555
H10 N1 1_555 1_555
B2F O3 1_555 1_555
O2F B2F 1_555 1_555
B1F O2F 1_555 1_555
O1F B1F 1_555 1_555
H1F O1F 1_555 1_555
O4F B2 1_555 1_555
O5F B2F 1_555 1_555
H2F O5F 1_555 1_555
C3D C2 1_555 1_555
C1D C3D 1_555 1_555
H3D C1D 1_555 1_555
C2D C3 1_555 1_555
H4D C2D 1_555 1_555
H5D C2D 1_555 1_555
N1D C1D 1_555 1_555
H8D N1D 1_555 1_555
H9D N1D 1_555 1_555
H10D N1D 1_555 1_555
H6D C3D 1_555 1_555
H7D C3D 1_555 1_555
O4 B2F 1_555 1_555
B1F O4F 1_555 1_555
C1D C2D 1_555 1_555

#END
