
#######################################################################
#
#                 Cambridge Crystallographic Data Centre
#                                CCDC 
#
#######################################################################
#
# If this CIF has been generated from an entry in the Cambridge 
# Structural Database, then it will include bibliographic, chemical, 
# crystal, experimental, refinement or atomic coordinate data resulting 
# from the CCDC's data processing and validation procedures.
#
#######################################################################

data_DALREO
_chemical_formula_moiety         'C29 H39 N3 O8'
_chemical_name_systematic        
't-Butoxycarbonyltyrosyl-valyl-tyrosine methyl ester'
_symmetry_cell_setting           monoclinic
_symmetry_space_group_name_H-M   'C 2'
_symmetry_Int_Tables_number      5
_space_group_name_Hall           'C 2y'
loop_
_symmetry_equiv_pos_site_id
_symmetry_equiv_pos_as_xyz
1 x,y,z
2 -x,y,-z
3 1/2+x,1/2+y,z
4 1/2-x,1/2+y,-z
_cell_length_a                   24.30(3)
_cell_length_b                   5.062(6)
_cell_length_c                   25.97(3)
_cell_angle_alpha                90
_cell_angle_beta                 102.882(10)
_cell_angle_gamma                90
_cell_volume                     3114.08
_exptl_crystal_colour            white
_exptl_crystal_description       needle
_cell_formula_units_Z            4
_exptl_crystal_recrystallization_method methanol/water
loop_
_atom_site_label
_atom_site_type_symbol
_atom_site_fract_x
_atom_site_fract_y
_atom_site_fract_z
C1 C 0.19881(15) 0.6327(7) 0.12879(13)
H1 H 0.2174 0.7905 0.1189
C2 C 0.13587(17) 0.6880(8) 0.12128(15)
O1 O 0.11819(12) 0.8474(6) 0.08046(12)
O2 O 0.10615(14) 0.5949(8) 0.14786(14)
C3 C 0.0576(2) 0.9001(14) 0.0654(2)
H2 H 0.0379 0.7403 0.0526
H3 H 0.0503 1.0316 0.0380
H4 H 0.0447 0.9630 0.0955
C4 C 0.20653(17) 0.4044(8) 0.09217(16)
H5 H 0.1924 0.2441 0.1051
H6 H 0.1833 0.4395 0.0573
C5 C 0.26644(16) 0.3537(8) 0.08657(15)
C6 C 0.2871(2) 0.4732(9) 0.04715(18)
H7 H 0.2650 0.5975 0.0256
C7 C 0.3402(2) 0.4135(12) 0.03867(19)
H8 H 0.3533 0.4984 0.0120
C8 C 0.37372(18) 0.2264(10) 0.07023(17)
C9 C 0.35476(17) 0.1124(9) 0.11107(18)
H9 H 0.3775 -0.0081 0.1332
C10 C 0.30184(18) 0.1762(9) 0.11953(17)
H10 H 0.2898 0.0993 0.1476
O3 O 0.42518(15) 0.1714(10) 0.05925(15)
H11 H 0.4405 0.0519 0.0786
N1 N 0.22347(14) 0.5696(6) 0.18383(12)
H12 H 0.2322 0.4086 0.1927
C11 C 0.23279(15) 0.7585(7) 0.22079(15)
O4 O 0.22543(14) 0.9951(5) 0.20965(11)
C12 C 0.25296(16) 0.6670(7) 0.27770(14)
H13 H 0.2482 0.4750 0.2785
C13 C 0.21751(19) 0.7912(12) 0.31342(18)
H14 H 0.2214 0.9836 0.3119
C14 C 0.1557(2) 0.7230(18) 0.2938(2)
H15 H 0.1428 0.7856 0.2583
H16 H 0.1341 0.8052 0.3161
H17 H 0.1509 0.5348 0.2946
C15 C 0.2388(3) 0.7047(18) 0.3704(2)
H18 H 0.2366 0.5158 0.3726
H19 H 0.2160 0.7839 0.3920
H20 H 0.2773 0.7597 0.3826
N2 N 0.31305(13) 0.7258(6) 0.29687(12)
H21 H 0.3240 0.8873 0.2971
O5 O 0.34139(13) 0.2992(5) 0.30692(13)
C16 C 0.35179(16) 0.5367(7) 0.31423(13)
C17 C 0.40877(16) 0.6310(7) 0.34677(14)
H22 H 0.4129 0.8205 0.3409
C18 C 0.45824(18) 0.4826(8) 0.33254(17)
H23 H 0.4916 0.5052 0.3607
H24 H 0.4495 0.2955 0.3295
C19 C 0.47080(17) 0.5797(8) 0.28102(16)
C20 C 0.4419(2) 0.4879(9) 0.23265(19)
H25 H 0.4150 0.3563 0.2314
C21 C 0.4521(2) 0.5867(10) 0.18556(18)
H26 H 0.4318 0.5221 0.1534
C22 C 0.49239(17) 0.7815(9) 0.18684(18)
C23 C 0.5210(2) 0.8793(12) 0.2343(2)
H27 H 0.5472 1.0146 0.2355
C24 C 0.5108(2) 0.7754(12) 0.28078(19)
H28 H 0.5314 0.8392 0.3129
O6 O 0.50016(14) 0.8747(8) 0.13889(13)
H29 H 0.5284 0.9680 0.1438
N3 N 0.40660(15) 0.5856(6) 0.40216(12)
H30 H 0.4090 0.4268 0.4142
C25 C 0.40088(19) 0.7861(8) 0.43436(17)
O7 O 0.40298(17) 1.0177(6) 0.42292(12)
O8 O 0.39265(16) 0.6950(5) 0.48079(11)
C26 C 0.3839(2) 0.8852(10) 0.52208(19)
C27 C 0.3317(2) 1.0495(12) 0.5009(2)
H31 H 0.3392 1.1715 0.4750
H32 H 0.3217 1.1457 0.5293
H33 H 0.3011 0.9356 0.4849
C28 C 0.4369(2) 1.0436(13) 0.5408(2)
H34 H 0.4688 0.9268 0.5486
H35 H 0.4344 1.1397 0.5721
H36 H 0.4413 1.1653 0.5137
C29 C 0.3743(4) 0.7019(13) 0.5657(2)
H37 H 0.3398 0.6052 0.5535
H38 H 0.3716 0.8044 0.5962
H39 H 0.4052 0.5805 0.5749
loop_
_geom_bond_atom_site_label_1
_geom_bond_atom_site_label_2
_geom_bond_site_symmetry_1
_geom_bond_site_symmetry_2
C1 H1 1_555 1_555
C2 C1 1_555 1_555
O1 C2 1_555 1_555
O2 C2 1_555 1_555
C3 O1 1_555 1_555
H2 C3 1_555 1_555
H3 C3 1_555 1_555
H4 C3 1_555 1_555
C4 C1 1_555 1_555
H5 C4 1_555 1_555
H6 C4 1_555 1_555
C5 C4 1_555 1_555
C6 C5 1_555 1_555
H7 C6 1_555 1_555
C7 C6 1_555 1_555
H8 C7 1_555 1_555
C8 C7 1_555 1_555
C9 C8 1_555 1_555
H9 C9 1_555 1_555
C10 C5 1_555 1_555
H10 C10 1_555 1_555
O3 C8 1_555 1_555
H11 O3 1_555 1_555
N1 C1 1_555 1_555
H12 N1 1_555 1_555
C11 N1 1_555 1_555
O4 C11 1_555 1_555
C12 C11 1_555 1_555
H13 C12 1_555 1_555
C13 C12 1_555 1_555
H14 C13 1_555 1_555
C14 C13 1_555 1_555
H15 C14 1_555 1_555
H16 C14 1_555 1_555
H17 C14 1_555 1_555
C15 C13 1_555 1_555
H18 C15 1_555 1_555
H19 C15 1_555 1_555
H20 C15 1_555 1_555
N2 C12 1_555 1_555
H21 N2 1_555 1_555
O5 C16 1_555 1_555
C16 N2 1_555 1_555
C17 C16 1_555 1_555
H22 C17 1_555 1_555
C18 C17 1_555 1_555
H23 C18 1_555 1_555
H24 C18 1_555 1_555
C19 C18 1_555 1_555
C20 C19 1_555 1_555
H25 C20 1_555 1_555
C21 C20 1_555 1_555
H26 C21 1_555 1_555
C22 C21 1_555 1_555
C23 C22 1_555 1_555
H27 C23 1_555 1_555
C24 C19 1_555 1_555
H28 C24 1_555 1_555
O6 C22 1_555 1_555
H29 O6 1_555 1_555
N3 C17 1_555 1_555
H30 N3 1_555 1_555
C25 N3 1_555 1_555
O7 C25 1_555 1_555
O8 C25 1_555 1_555
C26 O8 1_555 1_555
C27 C26 1_555 1_555
H31 C27 1_555 1_555
H32 C27 1_555 1_555
H33 C27 1_555 1_555
C28 C26 1_555 1_555
H34 C28 1_555 1_555
H35 C28 1_555 1_555
H36 C28 1_555 1_555
C29 C26 1_555 1_555
H37 C29 1_555 1_555
H38 C29 1_555 1_555
H39 C29 1_555 1_555
C9 C10 1_555 1_555
C23 C24 1_555 1_555

#END
