
#######################################################################
#
#                 Cambridge Crystallographic Data Centre
#                                CCDC 
#
#######################################################################
#
# If this CIF has been generated from an entry in the Cambridge 
# Structural Database, then it will include bibliographic, chemical, 
# crystal, experimental, refinement or atomic coordinate data resulting 
# from the CCDC's data processing and validation procedures.
#
#######################################################################

data_DALXIA
_chemical_formula_moiety         'C12 H11 N1 O4'
_chemical_name_systematic        
'methyl 5-methyl-2-phenoxy-1,3-oxazole-4-carboxylate'
_symmetry_cell_setting           monoclinic
_symmetry_space_group_name_H-M   'P 21/c'
_symmetry_Int_Tables_number      14
_space_group_name_Hall           '-P 2ybc'
loop_
_symmetry_equiv_pos_site_id
_symmetry_equiv_pos_as_xyz
1 x,y,z
2 -x,1/2+y,1/2-z
3 -x,-y,-z
4 x,1/2-y,1/2+z
_cell_length_a                   9.884(19)
_cell_length_b                   5.495(10)
_cell_length_c                   21.06(3)
_cell_angle_alpha                90
_cell_angle_beta                 93.88(3)
_cell_angle_gamma                90
_cell_volume                     1141.2
_exptl_crystal_colour            white
_exptl_crystal_description       Prism
_cell_formula_units_Z            4
loop_
_atom_site_label
_atom_site_type_symbol
_atom_site_fract_x
_atom_site_fract_y
_atom_site_fract_z
C1 C 0.0795(5) 0.4729(9) 0.07375(18)
H1 H 0.1167 0.6017 0.0495
H2 H -0.0176 0.4840 0.0706
H3 H 0.1067 0.3187 0.0574
C2 C 0.1294(4) 0.4947(7) 0.14035(17)
C3 C 0.1478(4) 0.3806(7) 0.23796(16)
C4 C 0.1951(4) 0.2557(7) 0.34239(18)
C5 C 0.2875(5) 0.0830(9) 0.3582(2)
H4 H 0.3037 -0.0426 0.3301
C6 C 0.3567(6) 0.0953(10) 0.4159(2)
H5 H 0.4217 -0.0223 0.4271
C7 C 0.3329(5) 0.2764(9) 0.4575(2)
H6 H 0.3804 0.2825 0.4971
C8 C 0.2389(5) 0.4481(9) 0.4406(2)
H7 H 0.2218 0.5734 0.4687
C9 C 0.1690(5) 0.4371(8) 0.38219(19)
H8 H 0.1043 0.5544 0.3703
C10 C 0.2128(4) 0.6409(7) 0.17501(17)
C11 C 0.2891(4) 0.8446(7) 0.15091(18)
C12 C 0.4585(4) 1.1345(8) 0.1750(2)
H9 H 0.5148 1.1923 0.2108
H10 H 0.4035 1.2657 0.1576
H11 H 0.5146 1.0738 0.1430
O1 O 0.0849(3) 0.3209(5) 0.18208(11)
O2 O 0.1185(3) 0.2298(5) 0.28390(12)
O3 O 0.2771(3) 0.9137(6) 0.09690(14)
O4 O 0.3724(3) 0.9420(5) 0.19524(12)
N1 N 0.2250(3) 0.5662(6) 0.23884(13)
loop_
_geom_bond_atom_site_label_1
_geom_bond_atom_site_label_2
_geom_bond_site_symmetry_1
_geom_bond_site_symmetry_2
C1 H1 1_555 1_555
H2 C1 1_555 1_555
H3 C1 1_555 1_555
C2 C1 1_555 1_555
C3 O1 1_555 1_555
C4 C5 1_555 1_555
C5 H4 1_555 1_555
C6 C5 1_555 1_555
H5 C6 1_555 1_555
C7 C6 1_555 1_555
H6 C7 1_555 1_555
C8 C7 1_555 1_555
H7 C8 1_555 1_555
C9 C4 1_555 1_555
H8 C9 1_555 1_555
C10 C2 1_555 1_555
C11 C10 1_555 1_555
C12 H9 1_555 1_555
H10 C12 1_555 1_555
H11 C12 1_555 1_555
O1 C2 1_555 1_555
O2 C3 1_555 1_555
O3 C11 1_555 1_555
O4 C11 1_555 1_555
N1 C3 1_555 1_555
C4 O2 1_555 1_555
C8 C9 1_555 1_555
C10 N1 1_555 1_555
C12 O4 1_555 1_555

#END
