
#######################################################################
#
#                 Cambridge Crystallographic Data Centre
#                                CCDC 
#
#######################################################################
#
# If this CIF has been generated from an entry in the Cambridge 
# Structural Database, then it will include bibliographic, chemical, 
# crystal, experimental, refinement or atomic coordinate data resulting 
# from the CCDC's data processing and validation procedures.
#
#######################################################################

data_DAMHUV
_chemical_formula_moiety         'C23 H32 O4 S5'
_chemical_name_systematic        
'(4S,7S,9S,10R,13S,14S,17R)-17\a-Hydroxy-3-methoxy-3-oxo-4\a,7\a-(pentathiapentano)pregn-(2,3)-seco-5-ene-21-carboxylic acid \g-lactone'
_symmetry_cell_setting           orthorhombic
_symmetry_space_group_name_H-M   'P 21 21 21'
_symmetry_Int_Tables_number      19
_space_group_name_Hall           'P 2ac 2ab'
loop_
_symmetry_equiv_pos_site_id
_symmetry_equiv_pos_as_xyz
1 x,y,z
2 1/2-x,-y,1/2+z
3 -x,1/2+y,1/2-z
4 1/2+x,1/2-y,-z
_cell_length_a                   8.0455(6)
_cell_length_b                   12.3830(10)
_cell_length_c                   24.8443(19)
_cell_angle_alpha                90
_cell_angle_beta                 90
_cell_angle_gamma                90
_cell_volume                     2475.17
_exptl_crystal_colour            colorless
_chemical_melting_point          202-204deg.C
_cell_formula_units_Z            4
loop_
_atom_site_label
_atom_site_type_symbol
_atom_site_fract_x
_atom_site_fract_y
_atom_site_fract_z
S1 S 0.83510(10) 0.49466(6) 0.73798(3)
S2 S 0.62285(10) 0.40931(6) 0.72966(3)
S3 S 0.68207(12) 0.25053(7) 0.71182(3)
S4 S 0.59815(10) 0.15697(6) 0.77440(3)
S5 S 0.79308(11) 0.11358(6) 0.82109(3)
O1 O 0.6221(3) 0.54761(19) 0.84760(12)
O2 O 0.8344(3) 0.66180(17) 0.85462(9)
O3 O 1.5138(4) -0.1602(2) 1.01172(11)
O4 O 1.2715(3) -0.07561(17) 1.00634(8)
C1 C 1.2213(4) 0.3914(3) 0.80353(12)
C2 C 1.1975(6) 0.3236(3) 0.75351(14)
C3 C 0.7631(4) 0.5701(2) 0.83968(12)
C4 C 0.8904(4) 0.5010(2) 0.81040(12)
C5 C 0.9240(4) 0.3931(2) 0.83619(10)
C6 C 0.7969(4) 0.3297(2) 0.84749(11)
C7 C 0.8109(4) 0.2220(2) 0.87336(11)
C8 C 0.9772(4) 0.2083(2) 0.90308(11)
C9 C 1.1203(4) 0.2471(2) 0.86822(11)
C10 C 1.1032(3) 0.3682(2) 0.85093(11)
C11 C 1.2911(5) 0.2224(3) 0.89283(14)
C12 C 1.3078(5) 0.1044(3) 0.91143(14)
C13 C 1.1686(4) 0.0746(2) 0.95029(11)
C14 C 1.0034(4) 0.0927(2) 0.92253(11)
C15 C 0.8770(5) 0.0407(3) 0.96009(15)
C16 C 0.9740(5) -0.0510(3) 0.98835(15)
C17 C 1.1494(4) -0.0451(2) 0.96563(12)
C18 C 1.1828(6) 0.1413(3) 1.00227(14)
C19 C 1.1512(6) 0.4448(3) 0.89703(16)
C20 C 1.1821(5) -0.1269(3) 0.92031(14)
C21 C 1.3556(6) -0.1635(4) 0.92882(16)
C22 C 1.3947(5) -0.1363(3) 0.98576(14)
C23 C 0.7278(6) 0.7364(4) 0.88293(18)
H1 H 1.212(4) 0.464(2) 0.7937(10)
H2 H 1.338(4) 0.385(2) 0.8165(12)
H3 H 1.237(6) 0.354(3) 0.7209(19)
H4 H 1.243(4) 0.249(3) 0.7578(11)
H5 H 1.086(5) 0.311(3) 0.7429(13)
H6 H 0.992(3) 0.5372(18) 0.8072(9)
H7 H 0.683(3) 0.352(2) 0.8387(10)
H8 H 0.718(3) 0.2043(19) 0.8955(9)
H9 H 0.968(3) 0.2532(19) 0.9354(10)
H10 H 1.110(3) 0.2033(17) 0.8365(9)
H11 H 1.316(4) 0.2739(18) 0.9222(9)
H12 H 1.377(4) 0.240(2) 0.8666(11)
H13 H 1.419(4) 0.099(2) 0.9263(12)
H14 H 1.310(3) 0.0617(19) 0.8780(8)
H15 H 1.009(3) 0.0491(18) 0.8927(9)
H16 H 0.832(4) 0.096(2) 0.9846(12)
H17 H 0.779(3) 0.015(2) 0.9403(9)
H18 H 0.987(4) -0.044(3) 1.0263(8)
H19 H 0.918(4) -0.115(3) 0.9830(13)
H20 H 1.287(3) 0.125(3) 1.0176(13)
H21 H 1.185(4) 0.216(3) 0.9945(12)
H22 H 1.099(4) 0.120(3) 1.0285(13)
H23 H 1.267(4) 0.447(2) 0.9053(11)
H24 H 1.119(4) 0.514(2) 0.8892(11)
H25 H 1.101(4) 0.422(2) 0.9293(10)
H26 H 1.156(3) -0.096(2) 0.8869(8)
H27 H 1.122(5) -0.190(3) 0.9279(15)
H28 H 1.444(4) -0.127(3) 0.9083(16)
H29 H 1.370(4) -0.239(3) 0.9216(12)
H30 H 0.782(7) 0.801(4) 0.8843(19)
H31 H 0.624(3) 0.741(3) 0.8611(11)
H32 H 0.686(6) 0.712(3) 0.9161(18)
loop_
_geom_bond_atom_site_label_1
_geom_bond_atom_site_label_2
_geom_bond_site_symmetry_1
_geom_bond_site_symmetry_2
S1 S2 1_555 1_555
S2 S3 1_555 1_555
S3 S4 1_555 1_555
S4 S5 1_555 1_555
S5 C7 1_555 1_555
O1 C3 1_555 1_555
O2 C3 1_555 1_555
O3 C22 1_555 1_555
O4 C17 1_555 1_555
C1 C2 1_555 1_555
C2 H3 1_555 1_555
C3 C4 1_555 1_555
C4 S1 1_555 1_555
C5 C4 1_555 1_555
C6 C5 1_555 1_555
C7 C6 1_555 1_555
C8 C7 1_555 1_555
C9 C8 1_555 1_555
C10 C1 1_555 1_555
C11 C9 1_555 1_555
C12 C11 1_555 1_555
C13 C12 1_555 1_555
C14 C8 1_555 1_555
C15 C14 1_555 1_555
C16 C15 1_555 1_555
C17 C13 1_555 1_555
C18 C13 1_555 1_555
C19 C10 1_555 1_555
C20 C17 1_555 1_555
C21 C20 1_555 1_555
C22 O4 1_555 1_555
C23 O2 1_555 1_555
H1 C1 1_555 1_555
H2 C1 1_555 1_555
H4 C2 1_555 1_555
H5 C2 1_555 1_555
H6 C4 1_555 1_555
H7 C6 1_555 1_555
H8 C7 1_555 1_555
H9 C8 1_555 1_555
H10 C9 1_555 1_555
H11 C11 1_555 1_555
H12 C11 1_555 1_555
H13 C12 1_555 1_555
H14 C12 1_555 1_555
H15 C14 1_555 1_555
H16 C15 1_555 1_555
H17 C15 1_555 1_555
H18 C16 1_555 1_555
H19 C16 1_555 1_555
H20 C18 1_555 1_555
H21 C18 1_555 1_555
H22 C18 1_555 1_555
H23 C19 1_555 1_555
H24 C19 1_555 1_555
H25 C19 1_555 1_555
H26 C20 1_555 1_555
H27 C20 1_555 1_555
H28 C21 1_555 1_555
H29 C21 1_555 1_555
H30 C23 1_555 1_555
H31 C23 1_555 1_555
H32 C23 1_555 1_555
C5 C10 1_555 1_555
C9 C10 1_555 1_555
C13 C14 1_555 1_555
C16 C17 1_555 1_555
C21 C22 1_555 1_555

#END
