
#######################################################################
#
#                 Cambridge Crystallographic Data Centre
#                                CCDC 
#
#######################################################################
#
# If this CIF has been generated from an entry in the Cambridge 
# Structural Database, then it will include bibliographic, chemical, 
# crystal, experimental, refinement or atomic coordinate data resulting 
# from the CCDC's data processing and validation procedures.
#
#######################################################################

data_DAMSAM
_chemical_formula_moiety         'C11 H4 Br2 N2 O1,C4 H1 Br2 N1 O2'
_chemical_name_systematic        
'2,7-Dibromo-4,5-diazafluoren-9-one 3,4-dibromomaleimide'
_symmetry_cell_setting           tetragonal
_symmetry_space_group_name_H-M   'I 41 m d'
_symmetry_Int_Tables_number      109
_space_group_name_Hall           'I 4bw -2'
loop_
_symmetry_equiv_pos_site_id
_symmetry_equiv_pos_as_xyz
1 x,y,z
2 1/2-x,1/2-y,1/2+z
3 -y,1/2+x,1/4+z
4 1/2+y,-x,3/4+z
5 x,-y,z
6 1/2-x,1/2+y,1/2+z
7 -y,1/2-x,1/4+z
8 1/2+y,x,3/4+z
9 1/2+x,1/2+y,1/2+z
10 -x,-y,z
11 1/2-y,x,3/4+z
12 y,1/2-x,1/4+z
13 1/2+x,1/2-y,1/2+z
14 -x,y,z
15 1/2-y,-x,3/4+z
16 y,1/2+x,1/4+z
_cell_length_a                   29.3027(14)
_cell_length_b                   29.3027(14)
_cell_length_c                   4.0462(5)
_cell_angle_alpha                90
_cell_angle_beta                 90
_cell_angle_gamma                90
_cell_volume                     3474.26
_exptl_crystal_colour            yellow
_exptl_crystal_description       plate
_cell_formula_units_Z            8
loop_
_atom_site_label
_atom_site_type_symbol
_atom_site_fract_x
_atom_site_fract_y
_atom_site_fract_z
C1 C 0.2477(6) 0.0932(8) 0.912(7)
H1 H 0.2695 0.1126 1.0032
C2 C 0.2099(6) 0.1140(5) 0.760(6)
C3 C 0.1785(6) 0.0858(7) 0.617(6)
H2 H 0.1537 0.0976 0.5024
C4 C 0.1846(5) 0.0402(6) 0.648(5)
C5 C 0.2244(6) 0.0244(6) 0.806(6)
C6 C 0.1614(9) 0.0000 0.543(10)
N1 N 0.2552(5) 0.0499(5) 0.938(6)
O1 O 0.1256(7) 0.0000 0.369(6)
Br1 Br 0.20292(8) 0.17850(7) 0.7459(9)
C5D C 0.2244(6) -0.0244(6) 0.806(6)
C4D C 0.1846(5) -0.0402(6) 0.648(5)
C3D C 0.1785(6) -0.0858(7) 0.617(6)
C2D C 0.2099(6) -0.1140(5) 0.760(6)
C1D C 0.2477(6) -0.0932(8) 0.912(7)
H1D H 0.2695 -0.1126 1.0032
N1D N 0.2552(5) -0.0499(5) 0.938(6)
Br1D Br 0.20292(8) -0.17850(7) 0.7459(9)
H2D H 0.1537 -0.0976 0.5024
C7 C 0.0228(6) 0.1099(7) 0.877(6)
C8 C 0.0367(6) 0.1509(7) 0.686(7)
N2 N 0.0000 0.1726(7) 0.610(7)
H3 H 0.0000 0.2009 0.5056
O2 O 0.0767(5) 0.1605(4) 0.651(5)
Br2 Br 0.06223(7) 0.06574(7) 1.0593(10)
C7M C -0.0228(6) 0.1099(7) 0.877(6)
C8M C -0.0367(6) 0.1509(7) 0.686(7)
O2M O -0.0767(5) 0.1605(4) 0.651(5)
Br2M Br -0.06223(7) 0.06574(7) 1.0593(10)
loop_
_geom_bond_atom_site_label_1
_geom_bond_atom_site_label_2
_geom_bond_site_symmetry_1
_geom_bond_site_symmetry_2
C1 H1 1_555 1_555
C2 C1 1_555 1_555
C3 C2 1_555 1_555
H2 C3 1_555 1_555
C4 C3 1_555 1_555
C5 C4 1_555 1_555
C6 C4 1_555 1_555
N1 C1 1_555 1_555
O1 C6 1_555 1_555
Br1 C2 1_555 1_555
C7 C8 1_555 1_555
C8 N2 1_555 1_555
N2 H3 1_555 1_555
O2 C8 1_555 1_555
Br2 C7 1_555 1_555
C5D C5 1_555 1_555
C4D C6 1_555 1_555
C3D C4D 1_555 1_555
C2D C3D 1_555 1_555
C1D C2D 1_555 1_555
H1D C1D 1_555 1_555
N1D C5D 1_555 1_555
Br1D C2D 1_555 1_555
H2D C3D 1_555 1_555
C7M C7 1_555 1_555
C8M N2 1_555 1_555
O2M C8M 1_555 1_555
Br2M C7M 1_555 1_555
C5 N1 1_555 1_555
C5D C4D 1_555 1_555
C1D N1D 1_555 1_555
C7M C8M 1_555 1_555

#END
