
#######################################################################
#
#                 Cambridge Crystallographic Data Centre
#                                CCDC 
#
#######################################################################
#
# If this CIF has been generated from an entry in the Cambridge 
# Structural Database, then it will include bibliographic, chemical, 
# crystal, experimental, refinement or atomic coordinate data resulting 
# from the CCDC's data processing and validation procedures.
#
#######################################################################

data_DAMTAN
_chemical_formula_moiety         'C14 H12 O4'
_chemical_name_systematic        
1-(2-Furyl)-3-(p-methoxyphenyl)-1,3-propanedione
_symmetry_cell_setting           orthorhombic
_symmetry_space_group_name_H-M   'P b c a'
_symmetry_Int_Tables_number      61
_space_group_name_Hall           '-P 2ac 2ab'
loop_
_symmetry_equiv_pos_site_id
_symmetry_equiv_pos_as_xyz
1 x,y,z
2 1/2-x,-y,1/2+z
3 -x,1/2+y,1/2-z
4 1/2+x,1/2-y,-z
5 -x,-y,-z
6 1/2+x,y,1/2-z
7 x,1/2-y,1/2+z
8 1/2-x,1/2+y,z
_cell_length_a                   10.871(3)
_cell_length_b                   7.564(2)
_cell_length_c                   29.083(9)
_cell_angle_alpha                90
_cell_angle_beta                 90
_cell_angle_gamma                90
_cell_volume                     2391.44
_exptl_crystal_colour            yellow
_exptl_crystal_description       prism
_cell_formula_units_Z            8
_exptl_crystal_recrystallization_method THF/acetone
loop_
_atom_site_label
_atom_site_type_symbol
_atom_site_fract_x
_atom_site_fract_y
_atom_site_fract_z
O1 O 0.37644(16) 0.2333(3) 0.33345(6)
O2 O 0.67033(17) 0.0322(3) 0.33876(6)
H1 H 0.7152 0.0079 0.3605
O3 O 0.74172(15) 0.0256(2) 0.42027(6)
O4 O 0.59961(15) 0.2454(2) 0.62132(5)
C1 C 0.4793(2) 0.1471(3) 0.31916(8)
C2 C 0.4702(3) 0.1093(5) 0.27448(9)
H2 H 0.5281 0.0507 0.2566
C3 C 0.3557(3) 0.1755(5) 0.25976(10)
H3 H 0.3235 0.1686 0.2302
C4 C 0.3027(3) 0.2496(4) 0.29601(10)
H4 H 0.2262 0.3046 0.2958
C5 C 0.5719(2) 0.1105(3) 0.35370(8)
C6 C 0.5552(2) 0.1523(3) 0.39933(7)
H5 H 0.4843 0.2116 0.4083
C7 C 0.64321(18) 0.1072(3) 0.43248(7)
C8 C 0.62797(17) 0.1458(2) 0.48170(7)
C9 C 0.71122(19) 0.0791(3) 0.51347(8)
H6 H 0.7763 0.0094 0.5033
C10 C 0.69942(19) 0.1139(3) 0.55950(8)
H7 H 0.7561 0.0677 0.5802
C11 C 0.60327(19) 0.2177(3) 0.57528(7)
C12 C 0.51803(19) 0.2841(3) 0.54440(7)
H8 H 0.4527 0.3528 0.5547
C13 C 0.53112(18) 0.2470(3) 0.49817(8)
H9 H 0.4735 0.2912 0.4775
C14 C 0.5012(3) 0.3477(4) 0.63938(9)
H10 H 0.5023 0.4632 0.6258
H11 H 0.5103 0.3581 0.6721
H12 H 0.4244 0.2907 0.6325
loop_
_geom_bond_atom_site_label_1
_geom_bond_atom_site_label_2
_geom_bond_site_symmetry_1
_geom_bond_site_symmetry_2
O1 C1 1_555 1_555
O2 H1 1_555 1_555
O3 C7 1_555 1_555
O4 C11 1_555 1_555
C1 C2 1_555 1_555
C2 H2 1_555 1_555
C3 C2 1_555 1_555
H3 C3 1_555 1_555
C4 O1 1_555 1_555
H4 C4 1_555 1_555
C5 O2 1_555 1_555
C6 C5 1_555 1_555
H5 C6 1_555 1_555
C7 C6 1_555 1_555
C8 C7 1_555 1_555
C9 C8 1_555 1_555
H6 C9 1_555 1_555
C10 C9 1_555 1_555
H7 C10 1_555 1_555
C11 C10 1_555 1_555
C12 C11 1_555 1_555
H8 C12 1_555 1_555
C13 C8 1_555 1_555
H9 C13 1_555 1_555
C14 O4 1_555 1_555
H10 C14 1_555 1_555
H11 C14 1_555 1_555
H12 C14 1_555 1_555
C1 C5 1_555 1_555
C3 C4 1_555 1_555
C12 C13 1_555 1_555

#END
