
#######################################################################
#
#                 Cambridge Crystallographic Data Centre
#                                CCDC 
#
#######################################################################
#
# If this CIF has been generated from an entry in the Cambridge 
# Structural Database, then it will include bibliographic, chemical, 
# crystal, experimental, refinement or atomic coordinate data resulting 
# from the CCDC's data processing and validation procedures.
#
#######################################################################

data_DAMZAT
_chemical_formula_moiety         'H12 Mg1 O6 2+,2(C18 H13 O4 1-),4(H2 O1)'
_chemical_name_systematic        
'Hexaaqua-magnesium(ii) bis(cis-9,10-dihydro-9,10-ethanoanthracene-11-carboxylate-12-carboxylic acid) tetrahydrate'
_symmetry_cell_setting           monoclinic
_symmetry_space_group_name_H-M   'P 21/c'
_symmetry_Int_Tables_number      14
_space_group_name_Hall           '-P 2ybc'
loop_
_symmetry_equiv_pos_site_id
_symmetry_equiv_pos_as_xyz
1 x,y,z
2 -x,1/2+y,1/2-z
3 -x,-y,-z
4 x,1/2-y,1/2+z
_cell_length_a                   18.3358(7)
_cell_length_b                   12.1644(5)
_cell_length_c                   8.5208(2)
_cell_angle_alpha                90
_cell_angle_beta                 96.087(2)
_cell_angle_gamma                90
_cell_volume                     1889.8
_exptl_crystal_colour            colorless
_exptl_crystal_description       cube
_cell_formula_units_Z            2
loop_
_atom_site_label
_atom_site_type_symbol
_atom_site_fract_x
_atom_site_fract_y
_atom_site_fract_z
O1 O 0.29200(7) 0.23395(11) 0.62228(17)
O2 O 0.20067(6) 0.35262(10) 0.62842(15)
O3 O 0.19285(6) 0.38221(10) 0.96763(14)
O4 O 0.15491(6) 0.53627(10) 0.84818(13)
C1 C 0.26395(8) 0.32631(13) 0.66696(18)
C2 C 0.20419(8) 0.46801(13) 0.88989(16)
C3 C 0.31881(8) 0.39718(13) 0.76495(18)
C4 C 0.28395(8) 0.48866(12) 0.86086(16)
C5 C 0.36817(9) 0.45473(15) 0.6478(2)
C6 C 0.29940(8) 0.60322(13) 0.78976(17)
C7 C 0.41918(9) 0.53398(15) 0.7422(2)
C8 C 0.49518(10) 0.53192(19) 0.7585(3)
C9 C 0.53315(11) 0.6126(2) 0.8495(3)
C10 C 0.49623(12) 0.6927(2) 0.9234(3)
C11 C 0.42028(11) 0.69497(17) 0.9081(2)
C12 C 0.38198(9) 0.61548(14) 0.81592(19)
C13 C 0.27764(9) 0.59975(13) 0.61369(17)
C14 C 0.22482(9) 0.66397(15) 0.53012(19)
C15 C 0.20782(11) 0.64624(18) 0.3699(2)
C16 C 0.24443(13) 0.5678(2) 0.2935(2)
C17 C 0.29888(12) 0.50435(18) 0.3755(2)
C18 C 0.31569(9) 0.52032(14) 0.53655(19)
H1 H 0.2587(16) 0.193(2) 0.565(3)
H2 H 0.3498 0.3502 0.8379
H3 H 0.3118 0.4877 0.9656
H4 H 0.3953 0.4009 0.5913
H5 H 0.2743 0.6624 0.8406
H6 H 0.5203 0.4776 0.7095
H7 H 0.5842 0.6123 0.8607
H8 H 0.5225 0.7459 0.9840
H9 H 0.3954 0.7488 0.9587
H10 H 0.2009 0.7187 0.5811
H11 H 0.1713 0.6878 0.3137
H12 H 0.2328 0.5570 0.1857
H13 H 0.3238 0.4516 0.3229
Mg1 Mg 0.0000 0.0000 0.0000
O5 O 0.02828(8) 0.08705(11) 0.21295(14)
O6 O 0.08986(7) 0.06526(13) -0.08482(16)
O7 O -0.06054(7) 0.12753(12) -0.10765(15)
H14 H -0.0058(14) 0.0986(19) 0.277(3)
H15 H 0.0681(18) 0.056(3) 0.270(4)
H16 H 0.0882(15) 0.105(2) -0.184(3)
H17 H 0.1321(17) 0.082(2) -0.027(3)
H18 H -0.0622(14) 0.201(3) -0.079(3)
H19 H -0.1015(17) 0.106(2) -0.170(3)
O5B O -0.02828(8) -0.08705(11) -0.21295(14)
H14B H 0.0058(14) -0.0986(19) -0.277(3)
H15B H -0.0681(18) -0.056(3) -0.270(4)
O6B O -0.08986(7) -0.06526(13) 0.08482(16)
H16B H -0.0882(15) -0.105(2) 0.184(3)
H17B H -0.1321(17) -0.082(2) 0.027(3)
O7B O 0.06054(7) -0.12753(12) 0.10765(15)
H18B H 0.0622(14) -0.201(3) 0.079(3)
H19B H 0.1015(17) -0.106(2) 0.170(3)
O8 O 0.07957(8) 0.32476(13) 0.13295(17)
H20 H 0.1156(17) 0.343(3) 0.078(4)
H21 H 0.0836(17) 0.255(3) 0.154(3)
O9 O 0.05495(8) 0.64634(12) 0.03632(16)
H22 H 0.0873(15) 0.609(2) -0.011(3)
H23 H 0.0145(14) 0.6510(19) -0.031(3)
loop_
_geom_bond_atom_site_label_1
_geom_bond_atom_site_label_2
_geom_bond_site_symmetry_1
_geom_bond_site_symmetry_2
O1 C1 1_555 1_555
O2 C1 1_555 1_555
O3 C2 1_555 1_555
O4 C2 1_555 1_555
C1 C3 1_555 1_555
C2 C4 1_555 1_555
C3 C4 1_555 1_555
C4 C6 1_555 1_555
C5 C3 1_555 1_555
C6 C12 1_555 1_555
C7 C5 1_555 1_555
C8 C7 1_555 1_555
C9 C8 1_555 1_555
C10 C9 1_555 1_555
C11 C10 1_555 1_555
C12 C7 1_555 1_555
C13 C6 1_555 1_555
C14 C13 1_555 1_555
C15 C14 1_555 1_555
C16 C15 1_555 1_555
C17 C16 1_555 1_555
C18 C5 1_555 1_555
H1 O1 1_555 1_555
H2 C3 1_555 1_555
H3 C4 1_555 1_555
H4 C5 1_555 1_555
H5 C6 1_555 1_555
H6 C8 1_555 1_555
H7 C9 1_555 1_555
H8 C10 1_555 1_555
H9 C11 1_555 1_555
H10 C14 1_555 1_555
H11 C15 1_555 1_555
H12 C16 1_555 1_555
H13 C17 1_555 1_555
Mg1 O5 1_555 1_555
O5 H14 1_555 1_555
O6 Mg1 1_555 1_555
O7 Mg1 1_555 1_555
H15 O5 1_555 1_555
H16 O6 1_555 1_555
H17 O6 1_555 1_555
H18 O7 1_555 1_555
H19 O7 1_555 1_555
O8 H20 1_555 1_555
H21 O8 1_555 1_555
O9 H22 1_555 1_555
H23 O9 1_555 1_555
O5B Mg1 1_555 1_555
H14B O5B 1_555 1_555
H15B O5B 1_555 1_555
O6B Mg1 1_555 1_555
H16B O6B 1_555 1_555
H17B O6B 1_555 1_555
O7B Mg1 1_555 1_555
H18B O7B 1_555 1_555
H19B O7B 1_555 1_555
C11 C12 1_555 1_555
C13 C18 1_555 1_555
C17 C18 1_555 1_555

#END
