
#######################################################################
#
#                 Cambridge Crystallographic Data Centre
#                                CCDC 
#
#######################################################################
#
# If this CIF has been generated from an entry in the Cambridge 
# Structural Database, then it will include bibliographic, chemical, 
# crystal, experimental, refinement or atomic coordinate data resulting 
# from the CCDC's data processing and validation procedures.
#
#######################################################################

data_DAMZOI
_chemical_formula_moiety         'C50 H32 B1 F10 N3 P2'
_chemical_name_systematic        
(N-((2-anilino-1-(diphenylphosphino)-2-iminoethylidene)(diphenyl)phosphoranyl)anilinato)-bis(pentafluorophenyl)-boron
_symmetry_cell_setting           triclinic
_symmetry_space_group_name_H-M   'P -1'
_symmetry_Int_Tables_number      2
_space_group_name_Hall           '-P 1'
loop_
_symmetry_equiv_pos_site_id
_symmetry_equiv_pos_as_xyz
1 x,y,z
2 -x,-y,-z
_cell_length_a                   10.4591(4)
_cell_length_b                   11.6827(4)
_cell_length_c                   19.1693(9)
_cell_angle_alpha                101.833(2)
_cell_angle_beta                 105.781(4)
_cell_angle_gamma                99.151(3)
_cell_volume                     2147.98
_exptl_crystal_colour            colorless
_exptl_crystal_description       plate
_cell_formula_units_Z            2
loop_
_atom_site_label
_atom_site_type_symbol
_atom_site_fract_x
_atom_site_fract_y
_atom_site_fract_z
P1 P 0.93134(5) 0.62264(4) 0.29342(3)
P2 P 1.07041(5) 0.42529(4) 0.27525(3)
N1 N 0.93028(16) 0.75788(13) 0.28198(9)
N2 N 1.1370(2) 0.55034(16) 0.15073(11)
H1 H 1.136(3) 0.482(2) 0.1523(14)
N3 N 1.03048(17) 0.70637(14) 0.17688(9)
H2 H 1.045(2) 0.721(2) 0.1382(13)
B1 B 1.0022(2) 0.81160(19) 0.23005(12)
C1 C 1.04351(19) 0.56364(16) 0.25206(11)
C2 C 1.07087(19) 0.60929(16) 0.19396(11)
C3 C 0.8470(2) 0.81980(17) 0.31975(11)
C4 C 0.8965(2) 0.8725(2) 0.39641(12)
H3 H 0.9861 0.8725 0.4236
C5 C 0.8152(3) 0.9253(2) 0.43329(15)
H4 H 0.8495 0.9593 0.4855
C6 C 0.6848(3) 0.9283(2) 0.39449(16)
H5 H 0.6306 0.9655 0.4196
C7 C 0.6348(3) 0.8763(2) 0.31846(15)
H6 H 0.5457 0.8776 0.2915
C8 C 0.7150(2) 0.82157(19) 0.28104(13)
H7 H 0.6793 0.7856 0.2291
C9 C 1.2142(2) 0.59619(18) 0.10866(11)
C10 C 1.2027(2) 0.5246(2) 0.03913(12)
H8 H 1.1385 0.4506 0.0192
C11 C 1.2854(3) 0.5619(2) -0.00092(14)
H9 H 1.2783 0.5127 -0.0479
C12 C 1.3783(3) 0.6707(2) 0.02749(15)
H10 H 1.4341 0.6959 0.0000
C13 C 1.3892(2) 0.7427(2) 0.09639(15)
H11 H 1.4519 0.8174 0.1156
C14 C 1.3080(2) 0.7053(2) 0.13760(13)
H12 H 1.3168 0.7540 0.1850
C15 C 0.9830(2) 0.62907(18) 0.39207(11)
C16 C 1.1209(2) 0.66181(19) 0.43267(12)
H13 H 1.1864 0.6665 0.4075
C17 C 1.1621(3) 0.6877(2) 0.51048(14)
H14 H 1.2556 0.7104 0.5379
C18 C 1.0670(4) 0.6803(3) 0.54782(14)
H15 H 1.0955 0.6993 0.6006
C19 C 0.9305(3) 0.6452(3) 0.50803(15)
H16 H 0.8657 0.6379 0.5335
C20 C 0.8880(3) 0.6206(2) 0.43072(13)
H17 H 0.7943 0.5979 0.4039
C21 C 0.76164(19) 0.52734(16) 0.25047(11)
C22 C 0.7185(2) 0.42660(19) 0.27337(13)
H18 H 0.7745 0.4114 0.3163
C23 C 0.5937(3) 0.3487(2) 0.23340(15)
H19 H 0.5655 0.2805 0.2491
C24 C 0.5106(2) 0.3705(2) 0.17064(15)
H20 H 0.4252 0.3180 0.1442
C25 C 0.5519(2) 0.4688(2) 0.14652(13)
H21 H 0.4951 0.4832 0.1035
C26 C 0.6775(2) 0.54672(18) 0.18578(11)
H22 H 0.7062 0.6132 0.1687
C27 C 1.2534(2) 0.44989(18) 0.32317(11)
C28 C 1.2943(2) 0.3652(2) 0.36124(12)
H23 H 1.2297 0.2968 0.3579
C29 C 1.4291(3) 0.3812(2) 0.40385(13)
H24 H 1.4555 0.3239 0.4293
C30 C 1.5246(3) 0.4811(3) 0.40900(15)
H25 H 1.6160 0.4922 0.4382
C31 C 1.4858(3) 0.5643(3) 0.37138(16)
H26 H 1.5513 0.6320 0.3745
C32 C 1.3511(2) 0.5494(2) 0.32874(14)
H27 H 1.3259 0.6073 0.3034
C33 C 1.0468(2) 0.31885(17) 0.18488(12)
C34 C 1.1456(2) 0.25871(19) 0.17045(13)
H28 H 1.2297 0.2723 0.2081
C35 C 1.1212(3) 0.1789(2) 0.10115(13)
H29 H 1.1886 0.1387 0.0924
C36 C 0.9993(3) 0.1584(2) 0.04550(14)
H30 H 0.9838 0.1055 -0.0016
C37 C 0.8995(3) 0.2158(2) 0.05885(14)
H31 H 0.8156 0.2015 0.0209
C38 C 0.9224(2) 0.2945(2) 0.12801(14)
H32 H 0.8532 0.3321 0.1368
C39 C 0.9003(2) 0.88469(17) 0.18423(11)
C40 C 0.8891(2) 0.99644(18) 0.22082(12)
F1 F 0.96895(14) 1.04895(11) 0.29263(7)
C41 C 0.7967(3) 1.0587(2) 0.19023(15)
F2 F 0.78796(17) 1.16324(13) 0.23122(10)
C42 C 0.7124(2) 1.0119(2) 0.11732(15)
F3 F 0.62230(17) 1.07148(16) 0.08632(11)
C43 C 0.7223(2) 0.9041(2) 0.07728(13)
F4 F 0.64275(15) 0.85825(15) 0.00524(8)
C44 C 0.8137(2) 0.84277(18) 0.11117(12)
F5 F 0.81213(14) 0.73501(12) 0.06774(7)
C45 C 1.1542(2) 0.90770(16) 0.27051(11)
C46 C 1.2144(2) 0.95663(18) 0.22338(11)
F6 F 1.14896(13) 0.92372(11) 0.14813(6)
C47 C 1.3390(2) 1.03544(18) 0.24639(12)
F7 F 1.39121(14) 1.07517(13) 0.19636(8)
C48 C 1.4124(2) 1.07259(18) 0.32138(13)
F8 F 1.53572(13) 1.14842(12) 0.34545(8)
C49 C 1.3594(2) 1.02889(19) 0.37128(12)
F9 F 1.42927(13) 1.06481(13) 0.44487(7)
C50 C 1.2341(2) 0.94741(17) 0.34499(11)
F10 F 1.19237(13) 0.90690(12) 0.39820(7)
loop_
_geom_bond_atom_site_label_1
_geom_bond_atom_site_label_2
_geom_bond_site_symmetry_1
_geom_bond_site_symmetry_2
P1 N1 1_555 1_555
P2 C1 1_555 1_555
N1 B1 1_555 1_555
N2 H1 1_555 1_555
N3 H2 1_555 1_555
B1 N3 1_555 1_555
C1 P1 1_555 1_555
C2 N2 1_555 1_555
C3 N1 1_555 1_555
C4 C3 1_555 1_555
H3 C4 1_555 1_555
C5 C4 1_555 1_555
H4 C5 1_555 1_555
C6 C5 1_555 1_555
H5 C6 1_555 1_555
C7 C6 1_555 1_555
H6 C7 1_555 1_555
C8 C3 1_555 1_555
H7 C8 1_555 1_555
C9 N2 1_555 1_555
C10 C9 1_555 1_555
H8 C10 1_555 1_555
C11 C10 1_555 1_555
H9 C11 1_555 1_555
C12 C11 1_555 1_555
H10 C12 1_555 1_555
C13 C12 1_555 1_555
H11 C13 1_555 1_555
C14 C9 1_555 1_555
H12 C14 1_555 1_555
C15 P1 1_555 1_555
C16 C15 1_555 1_555
H13 C16 1_555 1_555
C17 C16 1_555 1_555
H14 C17 1_555 1_555
C18 C17 1_555 1_555
H15 C18 1_555 1_555
C19 C18 1_555 1_555
H16 C19 1_555 1_555
C20 C15 1_555 1_555
H17 C20 1_555 1_555
C21 P1 1_555 1_555
C22 C21 1_555 1_555
H18 C22 1_555 1_555
C23 C22 1_555 1_555
H19 C23 1_555 1_555
C24 C23 1_555 1_555
H20 C24 1_555 1_555
C25 C24 1_555 1_555
H21 C25 1_555 1_555
C26 C21 1_555 1_555
H22 C26 1_555 1_555
C27 P2 1_555 1_555
C28 C27 1_555 1_555
H23 C28 1_555 1_555
C29 C28 1_555 1_555
H24 C29 1_555 1_555
C30 C29 1_555 1_555
H25 C30 1_555 1_555
C31 C30 1_555 1_555
H26 C31 1_555 1_555
C32 C27 1_555 1_555
H27 C32 1_555 1_555
C33 P2 1_555 1_555
C34 C33 1_555 1_555
H28 C34 1_555 1_555
C35 C34 1_555 1_555
H29 C35 1_555 1_555
C36 C35 1_555 1_555
H30 C36 1_555 1_555
C37 C36 1_555 1_555
H31 C37 1_555 1_555
C38 C33 1_555 1_555
H32 C38 1_555 1_555
C39 B1 1_555 1_555
C40 C39 1_555 1_555
F1 C40 1_555 1_555
C41 C40 1_555 1_555
F2 C41 1_555 1_555
C42 C41 1_555 1_555
F3 C42 1_555 1_555
C43 C42 1_555 1_555
F4 C43 1_555 1_555
C44 C39 1_555 1_555
F5 C44 1_555 1_555
C45 B1 1_555 1_555
C46 C45 1_555 1_555
F6 C46 1_555 1_555
C47 C46 1_555 1_555
F7 C47 1_555 1_555
C48 C47 1_555 1_555
F8 C48 1_555 1_555
C49 C48 1_555 1_555
F9 C49 1_555 1_555
C50 C45 1_555 1_555
F10 C50 1_555 1_555
N3 C2 1_555 1_555
C1 C2 1_555 1_555
C7 C8 1_555 1_555
C13 C14 1_555 1_555
C19 C20 1_555 1_555
C25 C26 1_555 1_555
C31 C32 1_555 1_555
C37 C38 1_555 1_555
C43 C44 1_555 1_555
C49 C50 1_555 1_555

#END
