
#######################################################################
#
#                 Cambridge Crystallographic Data Centre
#                                CCDC 
#
#######################################################################
#
# If this CIF has been generated from an entry in the Cambridge 
# Structural Database, then it will include bibliographic, chemical, 
# crystal, experimental, refinement or atomic coordinate data resulting 
# from the CCDC's data processing and validation procedures.
#
#######################################################################

data_DANCUT
_chemical_formula_moiety         'C5 H18 B10 O1'
_chemical_name_systematic        
2-isopropyl-4-hydroxy-1,2-dicarba-closo-dodecaborane
_symmetry_cell_setting           tetragonal
_symmetry_space_group_name_H-M   'I 41/a'
_symmetry_Int_Tables_number      88
_space_group_name_Hall           '-I 4ad'
loop_
_symmetry_equiv_pos_site_id
_symmetry_equiv_pos_as_xyz
1 x,y,z
2 1/2-x,-y,1/2+z
3 3/4-y,1/4+x,1/4+z
4 3/4+y,3/4-x,3/4+z
5 1/2+x,1/2+y,1/2+z
6 -x,1/2-y,z
7 1/4-y,3/4+x,3/4+z
8 1/4+y,1/4-x,1/4+z
9 -x,-y,-z
10 1/2+x,y,1/2-z
11 1/4+y,3/4-x,3/4-z
12 1/4-y,1/4+x,1/4-z
13 1/2-x,1/2-y,1/2-z
14 x,1/2+y,-z
15 3/4+y,1/4-x,1/4-z
16 3/4-y,3/4+x,3/4-z
_cell_length_a                   23.4593(7)
_cell_length_b                   23.4593(7)
_cell_length_c                   17.8275(6)
_cell_angle_alpha                90
_cell_angle_beta                 90
_cell_angle_gamma                90
_cell_volume                     9811.16
_exptl_crystal_colour            colorless
_exptl_crystal_description       block
_cell_formula_units_Z            32
loop_
_atom_site_label
_atom_site_type_symbol
_atom_site_fract_x
_atom_site_fract_y
_atom_site_fract_z
O1 O 0.78455(7) 0.45432(9) 0.07882(11)
H1 H 0.7659 0.4624 0.1162
C1 C 0.86631(9) 0.38808(10) 0.14241(13)
H2 H 0.8356 0.3535 0.1531
C2 C 0.91693(9) 0.40179(10) 0.20409(13)
C3 C 0.91685(13) 0.36487(15) 0.27598(16)
H3 H 0.8780 0.3500 0.2809
C4 C 0.9279(2) 0.39716(19) 0.3444(2)
H4 H 0.9029 0.4295 0.3465
H5 H 0.9214 0.3732 0.3873
H6 H 0.9668 0.4099 0.3446
C5 C 0.9561(2) 0.31229(18) 0.2701(3)
H7 H 0.9478 0.2920 0.2246
H8 H 0.9952 0.3244 0.2696
H9 H 0.9497 0.2877 0.3123
B1 B 0.86129(11) 0.44875(11) 0.19426(15)
H10 H 0.8290 0.4556 0.2381
B2 B 0.84189(11) 0.44972(11) 0.09799(15)
B3 B 0.88849(11) 0.39969(12) 0.05335(15)
H11 H 0.8739 0.3749 0.0046
B4 B 0.93481(12) 0.36947(13) 0.12010(17)
H12 H 0.9505 0.3255 0.1150
B5 B 0.93120(13) 0.47347(13) 0.20451(18)
H13 H 0.9452 0.4972 0.2545
B6 B 0.88496(14) 0.50401(12) 0.13721(18)
H14 H 0.8687 0.5478 0.1430
B7 B 0.90283(12) 0.47397(12) 0.04878(17)
H15 H 0.8986 0.4983 -0.0037
B8 B 0.95943(12) 0.42461(15) 0.06211(18)
H16 H 0.9917 0.4169 0.0185
B9 B 0.97652(12) 0.42463(15) 0.15901(18)
H17 H 1.0200 0.4166 0.1795
B10 B 0.95717(14) 0.48907(15) 0.1145(2)
H18 H 0.9883 0.5234 0.1049
O2 O 0.23031(8) 0.54996(8) 0.07231(11)
H19 H 0.2286 0.5515 0.0264
B11 B 0.27716(11) 0.65476(11) 0.04816(16)
H20 H 0.2474 0.6660 0.0028
B12 B 0.27030(11) 0.58904(11) 0.09814(15)
B13 B 0.34190(12) 0.56773(11) 0.12253(16)
H21 H 0.3537 0.5224 0.1260
B14 B 0.39075(12) 0.61925(12) 0.08775(17)
H22 H 0.4338 0.6078 0.0684
B15 B 0.30633(12) 0.70655(11) 0.10861(17)
H23 H 0.2952 0.7519 0.1036
B16 B 0.25737(12) 0.65542(13) 0.14299(18)
H24 H 0.2142 0.6676 0.1609
B17 B 0.29718(13) 0.60093(13) 0.18941(17)
H25 H 0.2800 0.5773 0.2377
B18 B 0.37071(12) 0.61959(12) 0.18321(17)
H26 H 0.4012 0.6082 0.2277
B19 B 0.37585(12) 0.68460(12) 0.13332(17)
H27 H 0.4098 0.7158 0.1445
B20 B 0.31869(13) 0.67381(13) 0.19623(18)
H28 H 0.3153 0.6977 0.2492
C6 C 0.32889(9) 0.60343(9) 0.04188(13)
H29 H 0.3327 0.5797 -0.0111
C7 C 0.34865(9) 0.67090(9) 0.04596(13)
C8 C 0.36897(11) 0.70203(11) -0.02500(15)
H30 H 0.3439 0.7352 -0.0307
C9 C 0.36221(17) 0.66747(13) -0.09599(17)
H31 H 0.3239 0.6534 -0.0992
H32 H 0.3702 0.6911 -0.1387
H33 H 0.3883 0.6360 -0.0952
C10 C 0.42935(15) 0.72572(17) -0.0166(2)
H34 H 0.4319 0.7473 0.0290
H35 H 0.4561 0.6948 -0.0150
H36 H 0.4379 0.7499 -0.0585
loop_
_geom_bond_atom_site_label_1
_geom_bond_atom_site_label_2
_geom_bond_site_symmetry_1
_geom_bond_site_symmetry_2
O1 H1 1_555 1_555
C1 H2 1_555 1_555
C2 C1 1_555 1_555
C3 C2 1_555 1_555
H3 C3 1_555 1_555
C4 C3 1_555 1_555
H4 C4 1_555 1_555
H5 C4 1_555 1_555
H6 C4 1_555 1_555
C5 C3 1_555 1_555
H7 C5 1_555 1_555
H8 C5 1_555 1_555
H9 C5 1_555 1_555
B1 C1 1_555 1_555
H10 B1 1_555 1_555
B2 O1 1_555 1_555
B3 C1 1_555 1_555
H11 B3 1_555 1_555
B4 C1 1_555 1_555
H12 B4 1_555 1_555
B5 C2 1_555 1_555
H13 B5 1_555 1_555
B6 B1 1_555 1_555
H14 B6 1_555 1_555
B7 B2 1_555 1_555
H15 B7 1_555 1_555
B8 B3 1_555 1_555
H16 B8 1_555 1_555
B9 C2 1_555 1_555
H17 B9 1_555 1_555
B10 B5 1_555 1_555
H18 B10 1_555 1_555
O2 H19 1_555 1_555
B11 H20 1_555 1_555
B12 O2 1_555 1_555
B13 B12 1_555 1_555
H21 B13 1_555 1_555
B14 B13 1_555 1_555
H22 B14 1_555 1_555
B15 B11 1_555 1_555
H23 B15 1_555 1_555
B16 B11 1_555 1_555
H24 B16 1_555 1_555
B17 B12 1_555 1_555
H25 B17 1_555 1_555
B18 B13 1_555 1_555
H26 B18 1_555 1_555
B19 B14 1_555 1_555
H27 B19 1_555 1_555
B20 B15 1_555 1_555
H28 B20 1_555 1_555
C6 B11 1_555 1_555
H29 C6 1_555 1_555
C7 B11 1_555 1_555
C8 C7 1_555 1_555
H30 C8 1_555 1_555
C9 C8 1_555 1_555
H31 C9 1_555 1_555
H32 C9 1_555 1_555
H33 C9 1_555 1_555
C10 C8 1_555 1_555
H34 C10 1_555 1_555
H35 C10 1_555 1_555
H36 C10 1_555 1_555
C1 B2 1_555 1_555
C2 B1 1_555 1_555
C2 B4 1_555 1_555
B1 B2 1_555 1_555
B1 B5 1_555 1_555
B2 B3 1_555 1_555
B2 B6 1_555 1_555
B3 B4 1_555 1_555
B3 B7 1_555 1_555
B4 B8 1_555 1_555
B4 B9 1_555 1_555
B5 B6 1_555 1_555
B5 B9 1_555 1_555
B6 B7 1_555 1_555
B6 B10 1_555 1_555
B7 B8 1_555 1_555
B7 B10 1_555 1_555
B8 B9 1_555 1_555
B8 B10 1_555 1_555
B9 B10 1_555 1_555
B11 B12 1_555 1_555
B12 B16 1_555 1_555
B12 C6 1_555 1_555
B13 B17 1_555 1_555
B13 C6 1_555 1_555
B14 B18 1_555 1_555
B14 C6 1_555 1_555
B14 C7 1_555 1_555
B15 B16 1_555 1_555
B15 B19 1_555 1_555
B15 C7 1_555 1_555
B16 B17 1_555 1_555
B16 B20 1_555 1_555
B17 B18 1_555 1_555
B17 B20 1_555 1_555
B18 B19 1_555 1_555
B18 B20 1_555 1_555
B19 B20 1_555 1_555
B19 C7 1_555 1_555
C6 C7 1_555 1_555

#END
