
#######################################################################
#
#                 Cambridge Crystallographic Data Centre
#                                CCDC 
#
#######################################################################
#
# If this CIF has been generated from an entry in the Cambridge 
# Structural Database, then it will include bibliographic, chemical, 
# crystal, experimental, refinement or atomic coordinate data resulting 
# from the CCDC's data processing and validation procedures.
#
#######################################################################

data_DANCON
_chemical_formula_moiety         'C4 H16 B10 O1'
_chemical_name_systematic        
2-ethyl-4-hydroxy-1,2-dicarba-closo-dodecaborane
_symmetry_cell_setting           tetragonal
_symmetry_space_group_name_H-M   'I 41/a'
_symmetry_Int_Tables_number      88
_space_group_name_Hall           '-I 4ad'
loop_
_symmetry_equiv_pos_site_id
_symmetry_equiv_pos_as_xyz
1 x,y,z
2 1/2-x,-y,1/2+z
3 3/4-y,1/4+x,1/4+z
4 3/4+y,3/4-x,3/4+z
5 1/2+x,1/2+y,1/2+z
6 -x,1/2-y,z
7 1/4-y,3/4+x,3/4+z
8 1/4+y,1/4-x,1/4+z
9 -x,-y,-z
10 1/2+x,y,1/2-z
11 1/4+y,3/4-x,3/4-z
12 1/4-y,1/4+x,1/4-z
13 1/2-x,1/2-y,1/2-z
14 x,1/2+y,-z
15 3/4+y,1/4-x,1/4-z
16 3/4-y,3/4+x,3/4-z
_cell_length_a                   23.8104(7)
_cell_length_b                   23.8104(7)
_cell_length_c                   16.3262(6)
_cell_angle_alpha                90
_cell_angle_beta                 90
_cell_angle_gamma                90
_cell_volume                     9255.9
_exptl_crystal_colour            colorless
_exptl_crystal_description       block
_cell_formula_units_Z            32
loop_
_atom_site_label
_atom_site_type_symbol
_atom_site_fract_x
_atom_site_fract_y
_atom_site_fract_z
O1 O 0.72914(11) 0.44642(11) 0.09714(17)
H1 H 0.6994 0.4306 0.0869
C1 C 0.82579(15) 0.39663(15) 0.0531(2)
H2 H 0.8286 0.4231 -0.0020
C2 C 0.84505(17) 0.33012(18) 0.0499(3)
C3 C 0.8628(2) 0.3081(3) -0.0362(4)
H3 H 0.8432 0.2729 -0.0451
H4 H 0.8485 0.3345 -0.0764
C4 C 0.9203(3) 0.2987(5) -0.0548(6)
H5 H 0.9237 0.2853 -0.1100
H6 H 0.9407 0.3333 -0.0492
H7 H 0.9354 0.2713 -0.0177
B1 B 0.77516(19) 0.34536(18) 0.0566(4)
H8 H 0.7449 0.3369 0.0072
B2 B 0.76936(17) 0.40658(17) 0.1186(3)
B3 B 0.83963(17) 0.42584(17) 0.1447(3)
H9 H 0.8509 0.4702 0.1535
B4 B 0.88725(19) 0.3786(2) 0.0997(3)
H10 H 0.9292 0.3916 0.0789
B5 B 0.8050(2) 0.2910(2) 0.1140(4)
H11 H 0.7938 0.2467 0.1036
B6 B 0.7578(2) 0.3391(2) 0.1586(4)
H12 H 0.7154 0.3260 0.1778
B7 B 0.79778(19) 0.3894(2) 0.2152(3)
H13 H 0.7819 0.4092 0.2715
B8 B 0.86993(19) 0.37211(18) 0.2030(3)
H14 H 0.9008 0.3808 0.2516
B9 B 0.8744(2) 0.3116(2) 0.1402(4)
H15 H 0.9085 0.2807 0.1465
B10 B 0.8196(2) 0.3177(2) 0.2119(4)
H16 H 0.8177 0.2906 0.2665
O2 O 0.28814(10) 0.54341(11) 0.06287(17)
H17 H 0.2684 0.5380 0.1033
C5 C 0.36177(14) 0.61496(14) 0.1394(2)
H18 H 0.3295 0.6472 0.1500
C6 C 0.41067(13) 0.60239(15) 0.2091(2)
C7 C 0.40602(18) 0.6344(2) 0.2892(3)
H19 H 0.3780 0.6636 0.2828
H20 H 0.3926 0.6088 0.3311
C8 C 0.4591(3) 0.6606(3) 0.3186(4)
H21 H 0.4523 0.6798 0.3693
H22 H 0.4870 0.6320 0.3269
H23 H 0.4724 0.6869 0.2785
B11 B 0.35949(15) 0.55398(16) 0.1923(3)
H24 H 0.3263 0.5450 0.2372
B12 B 0.34343(16) 0.55272(16) 0.0875(3)
B13 B 0.38769(17) 0.60534(17) 0.0435(3)
H25 H 0.3736 0.6297 -0.0098
B14 B 0.42984(17) 0.63597(18) 0.1202(3)
H26 H 0.4435 0.6800 0.1168
B15 B 0.42865(18) 0.53286(18) 0.2100(3)
H27 H 0.4417 0.5100 0.2654
B16 B 0.3874(2) 0.50120(18) 0.1323(3)
H28 H 0.3738 0.4572 0.1369
B17 B 0.40629(18) 0.53261(18) 0.0373(3)
H29 H 0.4054 0.5093 -0.0209
B18 B 0.45859(17) 0.5840(2) 0.0578(3)
H30 H 0.4915 0.5939 0.0126
B19 B 0.47226(17) 0.5838(2) 0.1635(3)
H31 H 0.5140 0.5938 0.1886
B20 B 0.45807(19) 0.5195(2) 0.1129(3)
H32 H 0.4906 0.4872 0.1041
loop_
_geom_bond_atom_site_label_1
_geom_bond_atom_site_label_2
_geom_bond_site_symmetry_1
_geom_bond_site_symmetry_2
O1 H1 1_555 1_555
C1 H2 1_555 1_555
C2 C1 1_555 1_555
C3 C2 1_555 1_555
H3 C3 1_555 1_555
H4 C3 1_555 1_555
C4 C3 1_555 1_555
H5 C4 1_555 1_555
H6 C4 1_555 1_555
H7 C4 1_555 1_555
B1 C1 1_555 1_555
H8 B1 1_555 1_555
B2 O1 1_555 1_555
B3 C1 1_555 1_555
H9 B3 1_555 1_555
B4 C1 1_555 1_555
H10 B4 1_555 1_555
B5 C2 1_555 1_555
H11 B5 1_555 1_555
B6 B1 1_555 1_555
H12 B6 1_555 1_555
B7 B2 1_555 1_555
H13 B7 1_555 1_555
B8 B3 1_555 1_555
H14 B8 1_555 1_555
B9 C2 1_555 1_555
H15 B9 1_555 1_555
B10 B5 1_555 1_555
H16 B10 1_555 1_555
O2 H17 1_555 1_555
C5 H18 1_555 1_555
C6 C5 1_555 1_555
C7 C6 1_555 1_555
H19 C7 1_555 1_555
H20 C7 1_555 1_555
C8 C7 1_555 1_555
H21 C8 1_555 1_555
H22 C8 1_555 1_555
H23 C8 1_555 1_555
B11 C5 1_555 1_555
H24 B11 1_555 1_555
B12 O2 1_555 1_555
B13 C5 1_555 1_555
H25 B13 1_555 1_555
B14 C5 1_555 1_555
H26 B14 1_555 1_555
B15 C6 1_555 1_555
H27 B15 1_555 1_555
B16 B11 1_555 1_555
H28 B16 1_555 1_555
B17 B12 1_555 1_555
H29 B17 1_555 1_555
B18 B13 1_555 1_555
H30 B18 1_555 1_555
B19 C6 1_555 1_555
H31 B19 1_555 1_555
B20 B15 1_555 1_555
H32 B20 1_555 1_555
C1 B2 1_555 1_555
C2 B1 1_555 1_555
C2 B4 1_555 1_555
B1 B2 1_555 1_555
B1 B5 1_555 1_555
B2 B3 1_555 1_555
B2 B6 1_555 1_555
B3 B4 1_555 1_555
B3 B7 1_555 1_555
B4 B8 1_555 1_555
B4 B9 1_555 1_555
B5 B6 1_555 1_555
B5 B9 1_555 1_555
B6 B7 1_555 1_555
B6 B10 1_555 1_555
B7 B8 1_555 1_555
B7 B10 1_555 1_555
B8 B9 1_555 1_555
B8 B10 1_555 1_555
B9 B10 1_555 1_555
C5 B12 1_555 1_555
C6 B11 1_555 1_555
C6 B14 1_555 1_555
B11 B12 1_555 1_555
B11 B15 1_555 1_555
B12 B13 1_555 1_555
B12 B16 1_555 1_555
B13 B14 1_555 1_555
B13 B17 1_555 1_555
B14 B18 1_555 1_555
B14 B19 1_555 1_555
B15 B16 1_555 1_555
B15 B19 1_555 1_555
B16 B17 1_555 1_555
B16 B20 1_555 1_555
B17 B18 1_555 1_555
B17 B20 1_555 1_555
B18 B19 1_555 1_555
B18 B20 1_555 1_555
B19 B20 1_555 1_555

#END
