
#######################################################################
#
#                 Cambridge Crystallographic Data Centre
#                                CCDC 
#
#######################################################################
#
# If this CIF has been generated from an entry in the Cambridge 
# Structural Database, then it will include bibliographic, chemical, 
# crystal, experimental, refinement or atomic coordinate data resulting 
# from the CCDC's data processing and validation procedures.
#
#######################################################################

data_DANJIO
_chemical_formula_moiety         'C25 H23 N1 O3'
_chemical_name_systematic        
2-butyl-6-(2-(4-methoxyphenyl)vinyl)-1H-benzo[de]isoquinoline-1,3(2H)-dione
_symmetry_cell_setting           monoclinic
_symmetry_space_group_name_H-M   'P 21/c'
_symmetry_Int_Tables_number      14
_space_group_name_Hall           '-P 2ybc'
loop_
_symmetry_equiv_pos_site_id
_symmetry_equiv_pos_as_xyz
1 x,y,z
2 -x,1/2+y,1/2-z
3 -x,-y,-z
4 x,1/2-y,1/2+z
_cell_length_a                   16.3324(10)
_cell_length_b                   7.7981(5)
_cell_length_c                   15.3300(9)
_cell_angle_alpha                90
_cell_angle_beta                 101.1780(10)
_cell_angle_gamma                90
_cell_volume                     1915.42
_exptl_crystal_colour            orange
_exptl_crystal_description       prism
_cell_formula_units_Z            4
loop_
_atom_site_label
_atom_site_type_symbol
_atom_site_fract_x
_atom_site_fract_y
_atom_site_fract_z
O1 O 0.17321(6) -0.11901(16) 0.34236(7)
O2 O 0.38892(6) -0.09917(14) 0.19491(7)
O3 O -0.32683(6) 0.65395(15) -0.27874(7)
N1 N 0.27942(7) -0.11793(16) 0.26610(8)
C1 C 0.50544(9) -0.2795(2) 0.46424(10)
H1 H 0.5380 -0.3324 0.5179
H2 H 0.5409 -0.1998 0.4389
H3 H 0.4847 -0.3689 0.4206
C2 C 0.43175(8) -0.18213(19) 0.48809(9)
H4 H 0.3956 -0.2642 0.5123
H5 H 0.4531 -0.0981 0.5355
C3 C 0.37936(8) -0.08774(19) 0.40962(9)
H6 H 0.3387 -0.0130 0.4315
H7 H 0.4162 -0.0136 0.3817
C4 C 0.33258(9) -0.20996(19) 0.34001(10)
H8 H 0.3733 -0.2814 0.3162
H9 H 0.2974 -0.2873 0.3684
C5 C 0.19803(8) -0.0786(2) 0.27480(10)
C6 C 0.14531(8) 0.01215(19) 0.20014(9)
C7 C 0.17703(8) 0.06034(18) 0.12441(9)
C8 C 0.26085(8) 0.02137(18) 0.12026(9)
C9 C 0.31542(8) -0.06877(18) 0.19458(10)
C10 C 0.06357(9) 0.0506(2) 0.20414(10)
H10 H 0.0421 0.0178 0.2550
C11 C 0.01210(9) 0.1367(2) 0.13459(10)
H11 H -0.0437 0.1622 0.1394
C12 C 0.04040(8) 0.18622(19) 0.05841(9)
C13 C 0.12534(8) 0.14757(18) 0.05242(9)
C14 C 0.16116(9) 0.19172(19) -0.02174(10)
H12 H 0.1281 0.2499 -0.0706
C15 C 0.24268(9) 0.1522(2) -0.02451(10)
H13 H 0.2651 0.1830 -0.0751
C16 C 0.29285(8) 0.06673(19) 0.04678(10)
H14 H 0.3491 0.0400 0.0444
C17 C -0.01487(9) 0.27697(19) -0.01391(10)
H15 H 0.0096 0.3257 -0.0596
C18 C -0.09682(9) 0.29585(19) -0.02005(9)
H16 H -0.1202 0.2437 0.0255
C19 C -0.15495(8) 0.38776(18) -0.08897(9)
C20 C -0.23636(8) 0.41295(19) -0.07616(10)
H17 H -0.2518 0.3688 -0.0239
C21 C -0.29565(8) 0.50076(19) -0.13751(9)
H18 H -0.3507 0.5161 -0.1272
C22 C -0.27344(8) 0.56554(18) -0.21389(9)
C23 C -0.19228(9) 0.5408(2) -0.22869(10)
H19 H -0.1771 0.5843 -0.2812
C24 C -0.13437(9) 0.4533(2) -0.16715(10)
H20 H -0.0795 0.4373 -0.1779
C25 C -0.41184(9) 0.6685(2) -0.26829(10)
H21 H -0.4449 0.7235 -0.3210
H22 H -0.4144 0.7379 -0.2156
H23 H -0.4343 0.5540 -0.2611
loop_
_geom_bond_atom_site_label_1
_geom_bond_atom_site_label_2
_geom_bond_site_symmetry_1
_geom_bond_site_symmetry_2
O1 C5 1_555 1_555
O2 C9 1_555 1_555
O3 C22 1_555 1_555
N1 C4 1_555 1_555
C1 H1 1_555 1_555
H2 C1 1_555 1_555
H3 C1 1_555 1_555
C2 C1 1_555 1_555
H4 C2 1_555 1_555
H5 C2 1_555 1_555
C3 C2 1_555 1_555
H6 C3 1_555 1_555
H7 C3 1_555 1_555
C4 C3 1_555 1_555
H8 C4 1_555 1_555
H9 C4 1_555 1_555
C5 N1 1_555 1_555
C6 C5 1_555 1_555
C7 C6 1_555 1_555
C8 C7 1_555 1_555
C9 N1 1_555 1_555
C10 C6 1_555 1_555
H10 C10 1_555 1_555
C11 C10 1_555 1_555
H11 C11 1_555 1_555
C12 C11 1_555 1_555
C13 C7 1_555 1_555
C14 C13 1_555 1_555
H12 C14 1_555 1_555
C15 C14 1_555 1_555
H13 C15 1_555 1_555
C16 C8 1_555 1_555
H14 C16 1_555 1_555
C17 C12 1_555 1_555
H15 C17 1_555 1_555
C18 C17 1_555 1_555
H16 C18 1_555 1_555
C19 C18 1_555 1_555
C20 C19 1_555 1_555
H17 C20 1_555 1_555
C21 C20 1_555 1_555
H18 C21 1_555 1_555
C22 C21 1_555 1_555
C23 C22 1_555 1_555
H19 C23 1_555 1_555
C24 C19 1_555 1_555
H20 C24 1_555 1_555
C25 O3 1_555 1_555
H21 C25 1_555 1_555
H22 C25 1_555 1_555
H23 C25 1_555 1_555
C8 C9 1_555 1_555
C12 C13 1_555 1_555
C15 C16 1_555 1_555
C23 C24 1_555 1_555

#END
