
#######################################################################
#
#                 Cambridge Crystallographic Data Centre
#                                CCDC 
#
#######################################################################
#
# If this CIF has been generated from an entry in the Cambridge 
# Structural Database, then it will include bibliographic, chemical, 
# crystal, experimental, refinement or atomic coordinate data resulting 
# from the CCDC's data processing and validation procedures.
#
#######################################################################

data_DANJOU
_chemical_formula_moiety         'C26 H25 N1 O4'
_chemical_name_systematic        
2-butyl-6-(2-(3,4-dimethoxyphenyl)vinyl)-1H-benzo[de]isoquinoline-1,3(2H)-dione
_symmetry_cell_setting           monoclinic
_symmetry_space_group_name_H-M   'P 21/n'
_symmetry_Int_Tables_number      14
_space_group_name_Hall           '-P 2yn'
loop_
_symmetry_equiv_pos_site_id
_symmetry_equiv_pos_as_xyz
1 x,y,z
2 1/2-x,1/2+y,1/2-z
3 -x,-y,-z
4 1/2+x,1/2-y,1/2+z
_cell_length_a                   12.6799(7)
_cell_length_b                   9.0474(5)
_cell_length_c                   18.8990(10)
_cell_angle_alpha                90
_cell_angle_beta                 103.1260(10)
_cell_angle_gamma                90
_cell_volume                     2111.45
_exptl_crystal_colour            orange
_exptl_crystal_description       prism
_cell_formula_units_Z            4
loop_
_atom_site_label
_atom_site_type_symbol
_atom_site_fract_x
_atom_site_fract_y
_atom_site_fract_z
O1 O 0.48766(8) 0.50994(12) 0.69663(5)
O2 O 0.77158(9) 0.19982(13) 0.77587(6)
O3 O 0.58306(8) 1.00321(12) 1.34553(5)
O4 O 0.69891(9) 0.78121(12) 1.32526(5)
N1 N 0.62422(9) 0.34660(13) 0.73730(6)
C1 C 0.68421(16) 0.4095(2) 0.48470(9)
H1 H 0.6592 0.3710 0.4353
H2 H 0.7630 0.3986 0.5000
H3 H 0.6649 0.5142 0.4857
C2 C 0.63072(14) 0.32352(19) 0.53619(8)
H4 H 0.5512 0.3357 0.5203
H5 H 0.6472 0.2172 0.5326
C3 C 0.66617(15) 0.37056(19) 0.61479(8)
H6 H 0.6516 0.4774 0.6187
H7 H 0.7452 0.3549 0.6317
C4 C 0.60771(12) 0.28470(16) 0.66339(7)
H8 H 0.5292 0.2838 0.6408
H9 H 0.6335 0.1811 0.6668
C5 C 0.55528(11) 0.46078(15) 0.74784(7)
C6 C 0.56640(11) 0.51496(15) 0.82313(7)
C7 C 0.64759(10) 0.45745(15) 0.88047(7)
C8 C 0.71862(11) 0.34732(15) 0.86607(7)
C9 C 0.70921(11) 0.29094(16) 0.79095(7)
C10 C 0.49512(12) 0.61880(16) 0.83776(8)
H10 H 0.4395 0.6556 0.7994
C11 C 0.50354(13) 0.67088(17) 0.90855(8)
H11 H 0.4534 0.7429 0.9171
C12 C 0.58298(11) 0.62046(16) 0.96672(7)
C13 C 0.65655(11) 0.50875(15) 0.95319(7)
C14 C 0.73740(12) 0.44397(17) 1.00879(7)
H12 H 0.7447 0.4753 1.0576
C15 C 0.80520(12) 0.33712(18) 0.99337(8)
H13 H 0.8588 0.2955 1.0316
C16 C 0.79668(12) 0.28819(17) 0.92177(8)
H14 H 0.8446 0.2145 0.9117
C17 C 0.59235(12) 0.67802(17) 1.04058(7)
H15 H 0.6500 0.6398 1.0772
C18 C 0.52887(12) 0.77778(17) 1.06178(7)
H16 H 0.4703 0.8154 1.0257
C19 C 0.54121(11) 0.83488(16) 1.13583(7)
C20 C 0.47504(11) 0.94898(16) 1.14886(7)
H17 H 0.4213 0.9873 1.1097
C21 C 0.48580(11) 1.00883(16) 1.21837(7)
H18 H 0.4401 1.0874 1.2262
C22 C 0.56337(11) 0.95292(15) 1.27567(7)
C23 C 0.62880(11) 0.83288(16) 1.26417(7)
C24 C 0.61819(11) 0.77613(16) 1.19507(7)
H19 H 0.6632 0.6966 1.1873
C25 C 0.51202(15) 1.11485(19) 1.36113(9)
H20 H 0.5290 1.1347 1.4135
H21 H 0.4369 1.0809 1.3457
H22 H 0.5214 1.2056 1.3349
C26 C 0.74939(12) 0.64173(18) 1.31940(9)
H23 H 0.7885 0.6092 1.3677
H24 H 0.8004 0.6519 1.2877
H25 H 0.6939 0.5686 1.2987
loop_
_geom_bond_atom_site_label_1
_geom_bond_atom_site_label_2
_geom_bond_site_symmetry_1
_geom_bond_site_symmetry_2
O1 C5 1_555 1_555
O2 C9 1_555 1_555
O3 C22 1_555 1_555
O4 C23 1_555 1_555
N1 C4 1_555 1_555
C1 H1 1_555 1_555
H2 C1 1_555 1_555
H3 C1 1_555 1_555
C2 C1 1_555 1_555
H4 C2 1_555 1_555
H5 C2 1_555 1_555
C3 C2 1_555 1_555
H6 C3 1_555 1_555
H7 C3 1_555 1_555
C4 C3 1_555 1_555
H8 C4 1_555 1_555
H9 C4 1_555 1_555
C5 N1 1_555 1_555
C6 C5 1_555 1_555
C7 C6 1_555 1_555
C8 C7 1_555 1_555
C9 N1 1_555 1_555
C10 C6 1_555 1_555
H10 C10 1_555 1_555
C11 C10 1_555 1_555
H11 C11 1_555 1_555
C12 C11 1_555 1_555
C13 C7 1_555 1_555
C14 C13 1_555 1_555
H12 C14 1_555 1_555
C15 C14 1_555 1_555
H13 C15 1_555 1_555
C16 C8 1_555 1_555
H14 C16 1_555 1_555
C17 C12 1_555 1_555
H15 C17 1_555 1_555
C18 C17 1_555 1_555
H16 C18 1_555 1_555
C19 C18 1_555 1_555
C20 C19 1_555 1_555
H17 C20 1_555 1_555
C21 C20 1_555 1_555
H18 C21 1_555 1_555
C22 C21 1_555 1_555
C23 C22 1_555 1_555
C24 C19 1_555 1_555
H19 C24 1_555 1_555
C25 O3 1_555 1_555
H20 C25 1_555 1_555
H21 C25 1_555 1_555
H22 C25 1_555 1_555
C26 O4 1_555 1_555
H23 C26 1_555 1_555
H24 C26 1_555 1_555
H25 C26 1_555 1_555
C8 C9 1_555 1_555
C12 C13 1_555 1_555
C15 C16 1_555 1_555
C23 C24 1_555 1_555

#END
