
#######################################################################
#
#                 Cambridge Crystallographic Data Centre
#                                CCDC 
#
#######################################################################
#
# If this CIF has been generated from an entry in the Cambridge 
# Structural Database, then it will include bibliographic, chemical, 
# crystal, experimental, refinement or atomic coordinate data resulting 
# from the CCDC's data processing and validation procedures.
#
#######################################################################

data_DANRUH
_chemical_formula_moiety         'C14 H16 N2 O5 S1'
_chemical_name_systematic        
'2-(2-(4,4-Dimethyl-2,6-dioxocyclohexylidene)hydrazino)benzenesulfonic acid unknown solvate'
_symmetry_cell_setting           orthorhombic
_symmetry_space_group_name_H-M   'P 21 21 21'
_symmetry_Int_Tables_number      19
_space_group_name_Hall           'P 2ac 2ab'
loop_
_symmetry_equiv_pos_site_id
_symmetry_equiv_pos_as_xyz
1 x,y,z
2 1/2-x,-y,1/2+z
3 1/2+x,1/2-y,-z
4 -x,1/2+y,1/2-z
_cell_length_a                   6.4413(2)
_cell_length_b                   14.9502(5)
_cell_length_c                   19.9725(6)
_cell_angle_alpha                90
_cell_angle_beta                 90
_cell_angle_gamma                90
_cell_volume                     1923.33
_exptl_crystal_colour            yellow
_exptl_crystal_description       plate
_cell_formula_units_Z            4
loop_
_atom_site_label
_atom_site_type_symbol
_atom_site_fract_x
_atom_site_fract_y
_atom_site_fract_z
C1 C 0.3911(8) 0.0977(4) 0.9649(2)
C2 C 0.2064(9) 0.1387(4) 0.9808(3)
H1 H 0.1225 0.1149 1.0156
C3 C 0.1432(13) 0.2122(5) 0.9475(4)
H2 H 0.0164 0.2397 0.9604
C4 C 0.2549(11) 0.2494(4) 0.8952(3)
H3 H 0.2080 0.3017 0.8729
C5 C 0.4384(10) 0.2072(4) 0.8765(3)
H4 H 0.5171 0.2297 0.8400
C6 C 0.5084(9) 0.1308(3) 0.9118(2)
C7 C 0.9574(9) 0.0675(4) 0.8193(2)
C8 C 1.0588(8) 0.1033(3) 0.7578(2)
C9 C 1.2533(11) 0.0598(4) 0.7338(3)
H5 H 1.3738 0.0896 0.7550
H6 H 1.2650 0.0683 0.6848
C10 C 1.2616(9) -0.0418(4) 0.7497(3)
C11 C 1.2299(10) -0.0551(4) 0.8262(2)
H7 H 1.2141 -0.1199 0.8353
H8 H 1.3566 -0.0346 0.8497
C12 C 1.0515(8) -0.0083(4) 0.8543(2)
C13 C 1.0913(10) -0.0954(4) 0.7135(3)
H9 H 0.9546 -0.0727 0.7269
H10 H 1.1026 -0.1587 0.7257
H11 H 1.1082 -0.0888 0.6650
C14 C 1.4862(12) -0.0749(4) 0.7293(3)
H12 H 1.5053 -0.0674 0.6809
H13 H 1.5017 -0.1382 0.7410
H14 H 1.5906 -0.0396 0.7532
N1 N 0.6981(7) 0.0893(3) 0.8930(2)
H15 H 0.7512 0.0473 0.9187
N2 N 0.7914(7) 0.1114(3) 0.8404(2)
O1 O 0.6688(7) 0.0443(3) 1.04776(19)
O2 O 0.3169(7) -0.0117(3) 1.06276(19)
O3 O 0.5268(7) -0.0663(2) 0.97149(16)
O4 O 0.9885(8) 0.1706(3) 0.72974(18)
O5 O 0.9747(7) -0.0353(2) 0.90754(16)
S1 S 0.4829(2) 0.00860(8) 1.01606(6)
loop_
_geom_bond_atom_site_label_1
_geom_bond_atom_site_label_2
_geom_bond_site_symmetry_1
_geom_bond_site_symmetry_2
C1 C2 1_555 1_555
C2 H1 1_555 1_555
C3 C2 1_555 1_555
H2 C3 1_555 1_555
C4 C3 1_555 1_555
H3 C4 1_555 1_555
C5 C4 1_555 1_555
H4 C5 1_555 1_555
C6 C1 1_555 1_555
C7 C8 1_555 1_555
C8 C9 1_555 1_555
C9 H5 1_555 1_555
H6 C9 1_555 1_555
C10 C9 1_555 1_555
C11 C10 1_555 1_555
H7 C11 1_555 1_555
H8 C11 1_555 1_555
C12 C7 1_555 1_555
C13 C10 1_555 1_555
H9 C13 1_555 1_555
H10 C13 1_555 1_555
H11 C13 1_555 1_555
C14 C10 1_555 1_555
H12 C14 1_555 1_555
H13 C14 1_555 1_555
H14 C14 1_555 1_555
N1 C6 1_555 1_555
H15 N1 1_555 1_555
N2 C7 1_555 1_555
O1 S1 1_555 1_555
O2 S1 1_555 1_555
O3 S1 1_555 1_555
O4 C8 1_555 1_555
O5 C12 1_555 1_555
S1 C1 1_555 1_555
C5 C6 1_555 1_555
C11 C12 1_555 1_555
N1 N2 1_555 1_555

#END
