
#######################################################################
#
#                 Cambridge Crystallographic Data Centre
#                                CCDC 
#
#######################################################################
#
# If this CIF has been generated from an entry in the Cambridge 
# Structural Database, then it will include bibliographic, chemical, 
# crystal, experimental, refinement or atomic coordinate data resulting 
# from the CCDC's data processing and validation procedures.
#
#######################################################################

data_DANSOD
_chemical_formula_moiety         'C20 H22 N3 O5'
_chemical_name_systematic        
'2-(4-((5-(methoxycarbonyl)pyridin-3-yl)oxy)phenyl)-4,4,5,5-tetramethylimidazole 3-oxide 1-oxyl radical'
_symmetry_cell_setting           monoclinic
_symmetry_space_group_name_H-M   'P 21/n'
_symmetry_Int_Tables_number      14
_space_group_name_Hall           '-P 2yn'
loop_
_symmetry_equiv_pos_site_id
_symmetry_equiv_pos_as_xyz
1 x,y,z
2 1/2-x,1/2+y,1/2-z
3 -x,-y,-z
4 1/2+x,1/2-y,1/2+z
_cell_length_a                   7.0466(11)
_cell_length_b                   17.605(3)
_cell_length_c                   15.244(2)
_cell_angle_alpha                90
_cell_angle_beta                 101.379(4)
_cell_angle_gamma                90
_cell_volume                     1853.93
_exptl_crystal_colour            colorless
_exptl_crystal_description       Prism
_cell_formula_units_Z            4
loop_
_atom_site_label
_atom_site_type_symbol
_atom_site_fract_x
_atom_site_fract_y
_atom_site_fract_z
O1 O 0.07094(13) 0.33585(4) 0.37028(5)
O2 O 0.28916(12) 0.60792(4) 0.42299(5)
O3 O 0.47468(11) 0.33912(4) 0.02885(5)
O4 O -0.15715(11) 0.42600(5) -0.04981(5)
O5 O 0.33820(13) 0.62289(5) 0.57206(6)
N1 N 0.01112(13) 0.40131(5) -0.05414(6)
N2 N 0.31539(13) 0.36615(5) -0.01599(6)
N3 N 0.22521(15) 0.39159(6) 0.59995(7)
C1 C 0.15317(15) 0.38127(6) 0.01555(7)
C2 C 0.09454(17) 0.35262(6) 0.28394(7)
C3 C 0.13121(16) 0.37342(6) 0.10820(7)
C4 C 0.29297(16) 0.37990(6) 0.17793(7)
C5 C -0.06763(17) 0.34604(6) 0.21629(8)
C6 C 0.29229(15) 0.38907(6) -0.11274(7)
C7 C -0.04995(16) 0.35652(6) 0.12813(8)
C8 C 0.16434(17) 0.35169(7) 0.52505(8)
C9 C 0.19128(16) 0.45872(6) 0.43098(8)
C10 C 0.06866(16) 0.38380(6) -0.14151(7)
C11 C 0.14574(16) 0.38312(6) 0.44000(7)
C12 C 0.25448(15) 0.50049(6) 0.50874(7)
C13 C 0.26953(17) 0.46460(7) 0.59090(8)
C14 C 0.27524(17) 0.36957(6) 0.26574(8)
C15 C -0.00326(18) 0.30320(7) -0.16707(8)
C16 C -0.02381(17) 0.43993(7) -0.21262(8)
C17 C 0.29940(15) 0.58312(7) 0.50633(8)
C18 C 0.36956(17) 0.47013(7) -0.11355(8)
C19 C 0.3216(2) 0.68869(7) 0.41359(10)
C20 C 0.40516(18) 0.33544(7) -0.16098(8)
H1 H 0.299(2) 0.5055(8) -0.0818(9)
H2 H 0.416(2) 0.3909(7) 0.1638(9)
H3 H 0.1792(18) 0.4812(7) 0.3731(9)
H4 H 0.0574(19) 0.2657(8) -0.1233(9)
H5 H 0.388(2) 0.3736(7) 0.3141(9)
H6 H 0.313(2) 0.4931(8) 0.6460(10)
H7 H -0.168(2) 0.4339(8) -0.2253(9)
H8 H 0.0244(19) 0.2903(8) -0.2261(10)
H9 H -0.162(2) 0.3528(7) 0.0808(9)
H10 H 0.329(2) 0.6952(10) 0.3518(12)
H11 H 0.3756(19) 0.2832(9) -0.1505(9)
H12 H 0.0066(18) 0.4920(8) -0.1949(9)
H13 H 0.357(2) 0.4870(8) -0.1762(10)
H14 H 0.507(2) 0.4705(8) -0.0846(9)
H15 H 0.213(2) 0.7174(9) 0.4301(10)
H16 H 0.1311(19) 0.2986(8) 0.5301(9)
H17 H -0.1910(19) 0.3345(7) 0.2326(9)
H18 H -0.144(2) 0.3012(8) -0.1702(9)
H19 H 0.0229(19) 0.4298(8) -0.2671(10)
H20 H 0.372(2) 0.3458(8) -0.2258(10)
H21 H 0.444(2) 0.7036(9) 0.4528(10)
H22 H 0.541(2) 0.3433(8) -0.1379(9)
loop_
_geom_bond_atom_site_label_1
_geom_bond_atom_site_label_2
_geom_bond_site_symmetry_1
_geom_bond_site_symmetry_2
O1 C2 1_555 1_555
O2 C17 1_555 1_555
O3 N2 1_555 1_555
O4 N1 1_555 1_555
O5 C17 1_555 1_555
N1 C1 1_555 1_555
N2 C1 1_555 1_555
N3 C8 1_555 1_555
C1 C3 1_555 1_555
C2 C5 1_555 1_555
C3 C4 1_555 1_555
C4 C14 1_555 1_555
C5 C7 1_555 1_555
C6 N2 1_555 1_555
C7 C3 1_555 1_555
C8 C11 1_555 1_555
C9 C11 1_555 1_555
C10 N1 1_555 1_555
C11 O1 1_555 1_555
C12 C9 1_555 1_555
C13 N3 1_555 1_555
C14 C2 1_555 1_555
C15 C10 1_555 1_555
C16 C10 1_555 1_555
C17 C12 1_555 1_555
C18 C6 1_555 1_555
C19 O2 1_555 1_555
C20 C6 1_555 1_555
H1 C18 1_555 1_555
H2 C4 1_555 1_555
H3 C9 1_555 1_555
H4 C15 1_555 1_555
H5 C14 1_555 1_555
H6 C13 1_555 1_555
H7 C16 1_555 1_555
H8 C15 1_555 1_555
H9 C7 1_555 1_555
H10 C19 1_555 1_555
H11 C20 1_555 1_555
H12 C16 1_555 1_555
H13 C18 1_555 1_555
H14 C18 1_555 1_555
H15 C19 1_555 1_555
H16 C8 1_555 1_555
H17 C5 1_555 1_555
H18 C15 1_555 1_555
H19 C16 1_555 1_555
H20 C20 1_555 1_555
H21 C19 1_555 1_555
H22 C20 1_555 1_555
C6 C10 1_555 1_555
C12 C13 1_555 1_555

#END
