
#######################################################################
#
#                 Cambridge Crystallographic Data Centre
#                                CCDC 
#
#######################################################################
#
# If this CIF has been generated from an entry in the Cambridge 
# Structural Database, then it will include bibliographic, chemical, 
# crystal, experimental, refinement or atomic coordinate data resulting 
# from the CCDC's data processing and validation procedures.
#
#######################################################################

data_DANSEQ
_chemical_formula_moiety         'C24 H40 O4,0.5(C6 H10 O1)'
_chemical_name_systematic        'Deoxycholic acid cyclohexanone'
_symmetry_cell_setting           orthorhombic
_symmetry_space_group_name_H-M   'P 21 21 21'
_symmetry_Int_Tables_number      19
_space_group_name_Hall           'P 2ac 2ab'
loop_
_symmetry_equiv_pos_site_id
_symmetry_equiv_pos_as_xyz
1 x,y,z
2 1/2+x,1/2-y,-z
3 -x,1/2+y,1/2-z
4 1/2-x,-y,1/2+z
_cell_length_a                   26.990(3)
_cell_length_b                   13.354(1)
_cell_length_c                   14.141(2)
_cell_angle_alpha                90
_cell_angle_beta                 90
_cell_angle_gamma                90
_cell_volume                     5096.76
_chemical_melting_point          157deg.C
_cell_formula_units_Z            8
loop_
_atom_site_label
_atom_site_type_symbol
_atom_site_fract_x
_atom_site_fract_y
_atom_site_fract_z
C1 C 0.3817(2) 0.3274(4) -0.5640(4)
C2 C 0.4300(2) 0.2979(4) -0.5212(4)
C3 C 0.4216(2) 0.2256(4) -0.4405(4)
C4 C 0.3866(2) 0.2697(4) -0.3680(4)
C5 C 0.3374(2) 0.3005(4) -0.4127(4)
C6 C 0.3019(2) 0.3443(4) -0.3355(4)
C7 C 0.3185(2) 0.4477(4) -0.3012(4)
C8 C 0.3276(2) 0.5224(4) -0.3821(4)
C9 C 0.3635(2) 0.4761(4) -0.4565(4)
C10 C 0.3445(2) 0.3747(4) -0.4954(4)
C11 C 0.3769(2) 0.5532(4) -0.5318(4)
C12 C 0.3985(2) 0.6505(4) -0.4911(4)
C13 C 0.3632(2) 0.6977(4) -0.4174(4)
C14 C 0.3512(2) 0.6178(4) -0.3438(4)
C15 C 0.3237(2) 0.6762(4) -0.2675(4)
C16 C 0.3512(2) 0.7781(4) -0.2665(4)
C17 C 0.3849(2) 0.7812(4) -0.3535(4)
C18 C 0.3169(2) 0.7358(4) -0.4690(4)
C19 C 0.2949(2) 0.3869(4) -0.5493(4)
C20 C 0.3892(2) 0.8895(4) -0.3928(4)
C21 C 0.4186(2) 0.8965(4) -0.4861(4)
C22 C 0.4103(2) 0.9616(4) -0.3191(4)
C23 C 0.4641(3) 0.9412(5) -0.2885(5)
C24 C 0.4843(2) 1.0219(5) -0.2265(4)
O1 O 0.4696(2) 0.2044(3) -0.3995(3)
O2 O 0.4456(1) 0.6283(3) -0.4483(3)
O3 O 0.4694(2) 1.1057(3) -0.2223(3)
O4 O 0.5211(2) 0.9916(3) -0.1734(3)
H1 H 0.365 0.265 -0.587
H2 H 0.451 0.268 -0.570
H3 H 0.404 0.332 -0.344
H4 H 0.319 0.239 -0.441
H5 H 0.266 0.345 -0.358
H6 H 0.291 0.476 -0.258
H7 H 0.394 0.464 -0.417
H8 H 0.400 0.521 -0.576
H9 H 0.384 0.592 -0.318
H10 H 0.287 0.688 -0.288
H11 H 0.325 0.835 -0.263
H12 H 0.290 0.763 -0.428
H13 H 0.318 0.796 -0.511
H14 H 0.265 0.415 -0.510
H15 H 0.355 0.913 -0.411
H16 H 0.441 0.957 -0.492
H17 H 0.387 0.963 -0.263
H18 H 0.482 0.923 -0.344
H19 H 0.479 0.176 -0.349
H20 H 0.532 1.040 -0.134
H21 H 0.386 0.376 -0.614
H22 H 0.447 0.360 -0.494
H23 H 0.406 0.163 -0.468
H24 H 0.383 0.221 -0.318
H25 H 0.302 0.295 -0.279
H26 H 0.349 0.442 -0.265
H27 H 0.293 0.537 -0.418
H28 H 0.345 0.569 -0.568
H29 H 0.403 0.700 -0.546
H30 H 0.323 0.644 -0.205
H31 H 0.370 0.781 -0.204
H32 H 0.418 0.768 -0.334
H33 H 0.302 0.691 -0.518
H34 H 0.291 0.441 -0.599
H35 H 0.282 0.332 -0.589
H36 H 0.445 0.845 -0.498
H37 H 0.400 0.887 -0.546
H38 H 0.409 1.034 -0.346
H39 H 0.460 0.878 -0.246
H40 H 0.472 0.661 -0.479
C25 C 0.3937(2) 0.3333(4) -0.0781(4)
C26 C 0.4438(2) 0.3021(4) -0.0441(4)
C27 C 0.4387(2) 0.2293(4) 0.0360(4)
C28 C 0.4077(2) 0.2727(4) 0.1153(4)
C29 C 0.3569(2) 0.3084(4) 0.0814(4)
C30 C 0.3256(2) 0.3503(4) 0.1633(4)
C31 C 0.3436(2) 0.4531(4) 0.1960(4)
C32 C 0.3487(2) 0.5277(4) 0.1133(4)
C33 C 0.3810(2) 0.4815(4) 0.0328(4)
C34 C 0.3596(2) 0.3807(4) -0.0032(4)
C35 C 0.3908(2) 0.5596(4) -0.0438(4)
C36 C 0.4125(2) 0.6579(4) -0.0076(4)
C37 C 0.3802(2) 0.7041(4) 0.0712(4)
C38 C 0.3733(2) 0.6238(4) 0.1475(4)
C39 C 0.3485(2) 0.6804(4) 0.2301(4)
C40 C 0.3732(3) 0.7848(4) 0.2261(4)
C41 C 0.4040(2) 0.7896(4) 0.1307(4)
C42 C 0.3313(2) 0.7387(4) 0.0269(4)
C43 C 0.3074(2) 0.3937(4) -0.0465(4)
C44 C 0.4034(2) 0.8970(4) 0.0933(4)
C45 C 0.4320(3) 0.9060(4) -0.0013(4)
C46 C 0.4239(2) 0.9726(4) 0.1638(4)
C47 C 0.4764(3) 0.9553(5) 0.1969(5)
C48 C 0.4934(2) 1.0364(5) 0.2644(5)
O5 O 0.4871(2) 0.2048(3) 0.0673(3)
O6 O 0.4618(1) 0.6389(3) 0.0265(3)
O7 O 0.4960(2) 1.1238(3) 0.2445(3)
O8 O 0.5031(2) 1.0056(3) 0.3505(3)
H41 H 0.397 0.386 -0.125
H42 H 0.375 0.275 -0.102
H43 H 0.462 0.361 -0.016
H44 H 0.462 0.271 -0.095
H45 H 0.424 0.163 0.013
H46 H 0.426 0.328 0.146
H47 H 0.402 0.217 0.166
H48 H 0.339 0.246 0.063
H49 H 0.323 0.309 0.219
H50 H 0.290 0.366 0.138
H51 H 0.377 0.442 0.226
H52 H 0.320 0.481 0.244
H53 H 0.315 0.541 0.088
H54 H 0.414 0.461 0.063
H55 H 0.358 0.573 -0.074
H56 H 0.413 0.527 -0.091
H57 H 0.416 0.701 -0.060
H58 H 0.406 0.606 0.170
H59 H 0.356 0.646 0.289
H60 H 0.311 0.681 0.218
H61 H 0.391 0.796 0.281
H62 H 0.343 0.835 0.222
H63 H 0.439 0.774 0.142
H64 H 0.306 0.683 0.014
H65 H 0.306 0.782 0.061
H66 H 0.334 0.782 -0.030
H67 H 0.289 0.335 -0.075
H68 H 0.304 0.434 -0.105
H69 H 0.280 0.409 -0.002
H70 H 0.368 0.915 0.077
H71 H 0.419 0.950 -0.053
H72 H 0.465 0.935 0.002
H73 H 0.432 0.843 -0.041
H74 H 0.401 0.973 0.223
H75 H 0.425 1.041 0.138
H76 H 0.495 0.943 0.146
H77 H 0.471 0.887 0.237
H78 H 0.484 0.175 0.131
H79 H 0.484 0.680 -0.001
H80 H 0.518 1.063 0.388
C49 C 0.2752(9) 0.0237(18) -0.2779(20)
C50 C 0.2999(8) 0.0539(16) -0.3704(18)
C51 C 0.2649(8) 0.0414(14) -0.4469(13)
C52 C 0.2263(7) -0.0327(12) -0.4518(11)
C53 C 0.2032(6) -0.0526(13) -0.3449(14)
C54 C 0.2361(6) -0.0560(12) -0.2474(11)
O9 O 0.2871(8) 0.0592(17) -0.2054(17)
H81 H 0.310 0.126 -0.368
H82 H 0.247 0.107 -0.452
H83 H 0.201 -0.006 -0.497
H84 H 0.178 0.001 -0.334
H85 H 0.217 -0.034 -0.190
H86 H 0.329 0.011 -0.383
H87 H 0.286 0.030 -0.505
H88 H 0.242 -0.094 -0.479
H89 H 0.186 -0.119 -0.348
H90 H 0.252 -0.123 -0.235
loop_
_geom_bond_atom_site_label_1
_geom_bond_atom_site_label_2
_geom_bond_site_symmetry_1
_geom_bond_site_symmetry_2
C1 C2 1_555 1_555
C2 C3 1_555 1_555
C3 C4 1_555 1_555
C4 C5 1_555 1_555
C5 C6 1_555 1_555
C6 C7 1_555 1_555
C7 C8 1_555 1_555
C8 C9 1_555 1_555
C9 C10 1_555 1_555
C10 C1 1_555 1_555
C11 C9 1_555 1_555
C12 C11 1_555 1_555
C13 C12 1_555 1_555
C14 C8 1_555 1_555
C15 C14 1_555 1_555
C16 C15 1_555 1_555
C17 C13 1_555 1_555
C18 C13 1_555 1_555
C19 C10 1_555 1_555
C20 C17 1_555 1_555
C21 C20 1_555 1_555
C22 C20 1_555 1_555
C23 C22 1_555 1_555
C24 C23 1_555 1_555
O1 C3 1_555 1_555
O2 C12 1_555 1_555
O3 C24 1_555 1_555
O4 C24 1_555 1_555
H1 C1 1_555 1_555
H2 C2 1_555 1_555
H3 C4 1_555 1_555
H4 C5 1_555 1_555
H5 C6 1_555 1_555
H6 C7 1_555 1_555
H7 C9 1_555 1_555
H8 C11 1_555 1_555
H9 C14 1_555 1_555
H10 C15 1_555 1_555
H11 C16 1_555 1_555
H12 C18 1_555 1_555
H13 C18 1_555 1_555
H14 C19 1_555 1_555
H15 C20 1_555 1_555
H16 C21 1_555 1_555
H17 C22 1_555 1_555
H18 C23 1_555 1_555
H19 O1 1_555 1_555
H20 O4 1_555 1_555
H21 C1 1_555 1_555
H22 C2 1_555 1_555
H23 C3 1_555 1_555
H24 C4 1_555 1_555
H25 C6 1_555 1_555
H26 C7 1_555 1_555
H27 C8 1_555 1_555
H28 C11 1_555 1_555
H29 C12 1_555 1_555
H30 C15 1_555 1_555
H31 C16 1_555 1_555
H32 C17 1_555 1_555
H33 C18 1_555 1_555
H34 C19 1_555 1_555
H35 C19 1_555 1_555
H36 C21 1_555 1_555
H37 C21 1_555 1_555
H38 C22 1_555 1_555
H39 C23 1_555 1_555
H40 O2 1_555 1_555
C25 C26 1_555 1_555
C26 C27 1_555 1_555
C27 C28 1_555 1_555
C28 C29 1_555 1_555
C29 C30 1_555 1_555
C30 C31 1_555 1_555
C31 C32 1_555 1_555
C32 C33 1_555 1_555
C33 C34 1_555 1_555
C34 C25 1_555 1_555
C35 C33 1_555 1_555
C36 C35 1_555 1_555
C37 C36 1_555 1_555
C38 C32 1_555 1_555
C39 C38 1_555 1_555
C40 C39 1_555 1_555
C41 C37 1_555 1_555
C42 C37 1_555 1_555
C43 C34 1_555 1_555
C44 C41 1_555 1_555
C45 C44 1_555 1_555
C46 C44 1_555 1_555
C47 C46 1_555 1_555
C48 C47 1_555 1_555
O5 C27 1_555 1_555
O6 C36 1_555 1_555
O7 C48 1_555 1_555
O8 C48 1_555 1_555
H41 C25 1_555 1_555
H42 C25 1_555 1_555
H43 C26 1_555 1_555
H44 C26 1_555 1_555
H45 C27 1_555 1_555
H46 C28 1_555 1_555
H47 C28 1_555 1_555
H48 C29 1_555 1_555
H49 C30 1_555 1_555
H50 C30 1_555 1_555
H51 C31 1_555 1_555
H52 C31 1_555 1_555
H53 C32 1_555 1_555
H54 C33 1_555 1_555
H55 C35 1_555 1_555
H56 C35 1_555 1_555
H57 C36 1_555 1_555
H58 C38 1_555 1_555
H59 C39 1_555 1_555
H60 C39 1_555 1_555
H61 C40 1_555 1_555
H62 C40 1_555 1_555
H63 C41 1_555 1_555
H64 C42 1_555 1_555
H65 C42 1_555 1_555
H66 C42 1_555 1_555
H67 C43 1_555 1_555
H68 C43 1_555 1_555
H69 C43 1_555 1_555
H70 C44 1_555 1_555
H71 C45 1_555 1_555
H72 C45 1_555 1_555
H73 C45 1_555 1_555
H74 C46 1_555 1_555
H75 C46 1_555 1_555
H76 C47 1_555 1_555
H77 C47 1_555 1_555
H78 O5 1_555 1_555
H79 O6 1_555 1_555
H80 O8 1_555 1_555
C49 C50 1_555 1_555
C50 C51 1_555 1_555
C51 C52 1_555 1_555
C52 C53 1_555 1_555
C53 C54 1_555 1_555
C54 C49 1_555 1_555
O9 C49 1_555 1_555
H81 C50 1_555 1_555
H82 C51 1_555 1_555
H83 C52 1_555 1_555
H84 C53 1_555 1_555
H85 C54 1_555 1_555
H86 C50 1_555 1_555
H87 C51 1_555 1_555
H88 C52 1_555 1_555
H89 C53 1_555 1_555
H90 C54 1_555 1_555
C5 C10 1_555 1_555
C13 C14 1_555 1_555
C16 C17 1_555 1_555
C29 C34 1_555 1_555
C37 C38 1_555 1_555
C40 C41 1_555 1_555

#END
