
#######################################################################
#
#                 Cambridge Crystallographic Data Centre
#                                CCDC 
#
#######################################################################
#
# If this CIF has been generated from an entry in the Cambridge 
# Structural Database, then it will include bibliographic, chemical, 
# crystal, experimental, refinement or atomic coordinate data resulting 
# from the CCDC's data processing and validation procedures.
#
#######################################################################

data_DANSIU
_chemical_formula_moiety         'C24 H40 O4,0.5(C5 H10 O1)'
_chemical_name_systematic        'Deoxycholic acid diethyl ketone clathrate'
_symmetry_cell_setting           orthorhombic
_symmetry_space_group_name_H-M   'P 21 21 21'
_symmetry_Int_Tables_number      19
_space_group_name_Hall           'P 2ac 2ab'
loop_
_symmetry_equiv_pos_site_id
_symmetry_equiv_pos_as_xyz
1 x,y,z
2 1/2+x,1/2-y,-z
3 -x,1/2+y,1/2-z
4 1/2-x,-y,1/2+z
_cell_length_a                   25.828(2)
_cell_length_b                   13.560(1)
_cell_length_c                   7.240(1)
_cell_angle_alpha                90
_cell_angle_beta                 90
_cell_angle_gamma                90
_cell_volume                     2535.65
_chemical_melting_point          148-150deg.C
_cell_formula_units_Z            4
loop_
_atom_site_label
_atom_site_type_symbol
_atom_site_fract_x
_atom_site_fract_y
_atom_site_fract_z
C1 C 0.1203(3) 0.2265(5) 0.3559(4)
C2 C 0.0654(3) 0.1980(5) 0.2901(16)
C3 C 0.0680(3) 0.1290(6) 0.1426(14)
C4 C 0.0985(3) 0.1704(6) -0.0276(14)
C5 C 0.1530(3) 0.2035(5) 0.0346(15)
C6 C 0.1835(3) 0.2411(6) -0.1334(16)
C7 C 0.1641(3) 0.3452(6) -0.1882(15)
C8 C 0.1622(3) 0.4152(6) -0.0287(13)
C9 C 0.1311(3) 0.3742(4) 0.1331(16)
C10 C 0.1531(3) 0.2713(5) 0.1961(13)
C11 C 0.1244(3) 0.4491(5) 0.2877(13)
C12 C 0.1009(3) 0.5499(5) 0.2263(11)
C13 C 0.1330(3) 0.5934(5) 0.0615(12)
C14 C 0.1375(3) 0.5164(5) -0.0860(12)
C15 C 0.1619(4) 0.5711(6) -0.2493(14)
C16 C 0.1377(4) 0.6739(6) -0.2311(16)
C17 C 0.1088(3) 0.6786(5) -0.0476(13)
C18 C 0.1857(3) 0.6256(6) 0.1470(16)
C19 C 0.2075(3) 0.2825(6) 0.2820(19)
C20 C 0.1087(3) 0.7849(5) 0.0285(14)
C21 C 0.0824(4) 0.7916(6) 0.2152(15)
C22 C 0.0865(3) 0.8581(6) -0.1036(16)
C23 C 0.0303(4) 0.8430(7) -0.1713(19)
C24 C 0.0098(4) 0.9211(6) -0.2845(15)
O1 O 0.0153(2) 0.1039(5) 0.0821(11)
O2 O 0.0482(2) 0.5314(4) 0.1614(9)
O3 O 0.0083(4) 1.0098(5) -0.2482(15)
O4 O -0.0062(2) 0.8950(4) -0.4460(11)
H1 H 0.117 0.276 0.457
H2 H 0.138 0.166 0.404
H3 H 0.046 0.257 0.244
H4 H 0.045 0.167 0.392
H5 H 0.086 0.068 0.190
H6 H 0.080 0.228 -0.081
H7 H 0.102 0.118 -0.124
H8 H 0.171 0.143 0.079
H9 H 0.178 0.195 -0.239
H10 H 0.221 0.244 -0.102
H11 H 0.128 0.334 -0.240
H12 H 0.188 0.374 -0.283
H13 H 0.199 0.426 0.013
H14 H 0.096 0.362 0.085
H15 H 0.159 0.461 0.343
H16 H 0.101 0.419 0.383
H17 H 0.100 0.597 0.332
H18 H 0.101 0.500 -0.123
H19 H 0.152 0.540 -0.369
H20 H 0.200 0.574 -0.238
H21 H 0.113 0.686 -0.335
H22 H 0.165 0.725 -0.234
H23 H 0.072 0.662 -0.067
H24 H 0.207 0.564 0.186
H25 H 0.189 0.661 0.261
H26 H 0.214 0.648 0.054
H27 H 0.229 0.312 0.205
H28 H 0.213 0.340 0.379
H29 H 0.228 0.229 0.315
H30 H 0.146 0.804 0.047
H31 H 0.091 0.738 0.305
H32 H 0.044 0.783 0.216
H33 H 0.093 0.853 0.294
H34 H 0.110 0.858 -0.214
H35 H 0.088 0.924 -0.041
H36 H 0.007 0.837 -0.063
H37 H 0.028 0.781 -0.247
H38 H 0.009 0.075 -0.030
H39 H 0.023 0.555 0.255
H40 H -0.016 0.910 -0.593
loop_
_geom_bond_atom_site_label_1
_geom_bond_atom_site_label_2
_geom_bond_site_symmetry_1
_geom_bond_site_symmetry_2
C1 C2 1_555 1_555
C2 C3 1_555 1_555
C3 C4 1_555 1_555
C4 C5 1_555 1_555
C5 C6 1_555 1_555
C6 C7 1_555 1_555
C7 C8 1_555 1_555
C8 C9 1_555 1_555
C9 C10 1_555 1_555
C10 C1 1_555 1_555
C11 C9 1_555 1_555
C12 C11 1_555 1_555
C13 C12 1_555 1_555
C14 C8 1_555 1_555
C15 C14 1_555 1_555
C16 C15 1_555 1_555
C17 C13 1_555 1_555
C18 C13 1_555 1_555
C19 C10 1_555 1_555
C20 C17 1_555 1_555
C21 C20 1_555 1_555
C22 C20 1_555 1_555
C23 C22 1_555 1_555
C24 C23 1_555 1_555
O1 C3 1_555 1_555
O2 C12 1_555 1_555
O3 C24 1_555 1_555
O4 C24 1_555 1_555
H1 C1 1_555 1_555
H2 C1 1_555 1_555
H3 C2 1_555 1_555
H4 C2 1_555 1_555
H5 C3 1_555 1_555
H6 C4 1_555 1_555
H7 C4 1_555 1_555
H8 C5 1_555 1_555
H9 C6 1_555 1_555
H10 C6 1_555 1_555
H11 C7 1_555 1_555
H12 C7 1_555 1_555
H13 C8 1_555 1_555
H14 C9 1_555 1_555
H15 C11 1_555 1_555
H16 C11 1_555 1_555
H17 C12 1_555 1_555
H18 C14 1_555 1_555
H19 C15 1_555 1_555
H20 C15 1_555 1_555
H21 C16 1_555 1_555
H22 C16 1_555 1_555
H23 C17 1_555 1_555
H24 C18 1_555 1_555
H25 C18 1_555 1_555
H26 C18 1_555 1_555
H27 C19 1_555 1_555
H28 C19 1_555 1_555
H29 C19 1_555 1_555
H30 C20 1_555 1_555
H31 C21 1_555 1_555
H32 C21 1_555 1_555
H33 C21 1_555 1_555
H34 C22 1_555 1_555
H35 C22 1_555 1_555
H36 C23 1_555 1_555
H37 C23 1_555 1_555
H38 O1 1_555 1_555
H39 O2 1_555 1_555
H40 O4 1_555 1_555
C5 C10 1_555 1_555
C13 C14 1_555 1_555
C16 C17 1_555 1_555

#END
