
#######################################################################
#
#                 Cambridge Crystallographic Data Centre
#                                CCDC 
#
#######################################################################
#
# If this CIF has been generated from an entry in the Cambridge 
# Structural Database, then it will include bibliographic, chemical, 
# crystal, experimental, refinement or atomic coordinate data resulting 
# from the CCDC's data processing and validation procedures.
#
#######################################################################

data_DANTRO02
_chemical_formula_moiety         'C28 H18 O2'
_chemical_name_systematic        9,9'-bianthracene-10,10'(9H,9'H)-dione
_symmetry_cell_setting           monoclinic
_symmetry_space_group_name_H-M   'C 2/c'
_symmetry_Int_Tables_number      15
_space_group_name_Hall           '-C 2yn'
loop_
_symmetry_equiv_pos_site_id
_symmetry_equiv_pos_as_xyz
1 x,y,z
2 -x,y,1/2-z
3 1/2+x,1/2+y,z
4 1/2-x,1/2+y,1/2-z
5 -x,-y,-z
6 x,-y,1/2+z
7 1/2-x,1/2-y,-z
8 1/2+x,1/2-y,1/2+z
_cell_length_a                   22.3110(19)
_cell_length_b                   7.7449(6)
_cell_length_c                   13.6391(11)
_cell_angle_alpha                90
_cell_angle_beta                 126.869(2)
_cell_angle_gamma                90
_cell_volume                     1885.45
_exptl_crystal_colour            colorless
_cell_formula_units_Z            4
loop_
_atom_site_label
_atom_site_type_symbol
_atom_site_fract_x
_atom_site_fract_y
_atom_site_fract_z
O1 O 0.86681(7) 1.25673(16) 0.29821(14)
C1 C 1.09605(10) 1.3458(2) 0.49807(14)
H1 H 1.1172 1.4531 0.5354
C2 C 1.14106(9) 1.2128(2) 0.50964(14)
H2 H 1.1932 1.2289 0.5567
C3 C 1.11011(8) 1.05599(19) 0.45254(12)
H3 H 1.1416 0.9661 0.4624
C4 C 1.03288(7) 1.02920(17) 0.38060(11)
C5 C 0.99846(7) 0.86567(17) 0.30750(11)
H4 H 1.0294 0.7679 0.3612
C6 C 0.76943(9) 0.7717(2) 0.16441(14)
H5 H 0.7190 0.7510 0.1306
C7 C 0.81305(9) 0.6412(2) 0.16829(14)
H6 H 0.7922 0.5312 0.1377
C8 C 0.88713(8) 0.67102(19) 0.21683(13)
H7 H 0.9162 0.5812 0.2188
C9 C 0.91922(7) 0.83358(17) 0.26305(12)
C10 C 1.01996(9) 1.3200(2) 0.43132(14)
H8 H 0.9893 1.4095 0.4249
C11 C 0.98783(8) 1.16241(18) 0.37301(12)
C12 C 0.90639(8) 1.13800(19) 0.30814(14)
C13 C 0.87508(8) 0.96431(18) 0.25995(13)
C14 C 0.80026(8) 0.9318(2) 0.21020(14)
H9 H 0.7707 1.0205 0.2080
O1A O 1.13319(7) 1.25673(16) 0.20179(14)
C1A C 0.90395(10) 1.3458(2) 0.00193(14)
H1A H 0.8828 1.4531 -0.0354
C2A C 0.85894(9) 1.2128(2) -0.00964(14)
H2A H 0.8068 1.2289 -0.0567
C3A C 0.88989(8) 1.05599(19) 0.04746(12)
H3A H 0.8584 0.9661 0.0376
C4A C 0.96712(7) 1.02920(17) 0.11940(11)
C5A C 1.00154(7) 0.86567(17) 0.19250(11)
H4A H 0.9706 0.7679 0.1388
C6A C 1.23057(9) 0.7717(2) 0.33559(14)
H5A H 1.2810 0.7510 0.3694
C7A C 1.18695(9) 0.6412(2) 0.33171(14)
H6A H 1.2078 0.5312 0.3623
C8A C 1.11287(8) 0.67102(19) 0.28317(13)
H7A H 1.0838 0.5812 0.2812
C9A C 1.08078(7) 0.83358(17) 0.23695(12)
C10A C 0.98004(9) 1.3200(2) 0.06868(14)
H8A H 1.0107 1.4095 0.0751
C11A C 1.01217(8) 1.16241(18) 0.12699(12)
C12A C 1.09361(8) 1.13800(19) 0.19186(14)
C13A C 1.12492(8) 0.96431(18) 0.24005(13)
C14A C 1.19974(8) 0.9318(2) 0.28980(14)
H9A H 1.2293 1.0205 0.2920
loop_
_geom_bond_atom_site_label_1
_geom_bond_atom_site_label_2
_geom_bond_site_symmetry_1
_geom_bond_site_symmetry_2
O1 C12 1_555 1_555
C1 H1 1_555 1_555
C2 C1 1_555 1_555
H2 C2 1_555 1_555
C3 C2 1_555 1_555
H3 C3 1_555 1_555
C4 C3 1_555 1_555
C5 C4 1_555 1_555
H4 C5 1_555 1_555
C6 H5 1_555 1_555
C7 C6 1_555 1_555
H6 C7 1_555 1_555
C8 C7 1_555 1_555
H7 C8 1_555 1_555
C9 C5 1_555 1_555
C10 C1 1_555 1_555
H8 C10 1_555 1_555
C11 C4 1_555 1_555
C12 C11 1_555 1_555
C13 C9 1_555 1_555
C14 C6 1_555 1_555
H9 C14 1_555 1_555
O1A C12A 1_555 1_555
C1A H1A 1_555 1_555
C2A C1A 1_555 1_555
H2A C2A 1_555 1_555
C3A C2A 1_555 1_555
H3A C3A 1_555 1_555
C4A C3A 1_555 1_555
C5A C5 1_555 1_555
H4A C5A 1_555 1_555
C6A H5A 1_555 1_555
C7A C6A 1_555 1_555
H6A C7A 1_555 1_555
C8A C7A 1_555 1_555
H7A C8A 1_555 1_555
C9A C5A 1_555 1_555
C10A C1A 1_555 1_555
H8A C10A 1_555 1_555
C11A C4A 1_555 1_555
C12A C11A 1_555 1_555
C13A C9A 1_555 1_555
C14A C6A 1_555 1_555
H9A C14A 1_555 1_555
C8 C9 1_555 1_555
C10 C11 1_555 1_555
C12 C13 1_555 1_555
C13 C14 1_555 1_555
C4A C5A 1_555 1_555
C8A C9A 1_555 1_555
C10A C11A 1_555 1_555
C12A C13A 1_555 1_555
C13A C14A 1_555 1_555

#END
