
#######################################################################
#
#                 Cambridge Crystallographic Data Centre
#                                CCDC 
#
#######################################################################
#
# If this CIF has been generated from an entry in the Cambridge 
# Structural Database, then it will include bibliographic, chemical, 
# crystal, experimental, refinement or atomic coordinate data resulting 
# from the CCDC's data processing and validation procedures.
#
#######################################################################

data_DANTEN15
_chemical_formula_moiety         'C28 H16 O2'
_chemical_name_systematic        
10-(10-Oxoanthracen-9(10H)-ylidene)anthracen-9(10H)-one
_symmetry_cell_setting           monoclinic
_symmetry_space_group_name_H-M   'P 21/n'
_symmetry_Int_Tables_number      14
_space_group_name_Hall           '-P 2yn'
loop_
_symmetry_equiv_pos_site_id
_symmetry_equiv_pos_as_xyz
1 x,y,z
2 1/2-x,1/2+y,1/2-z
3 -x,-y,-z
4 1/2+x,1/2-y,1/2+z
_cell_length_a                   10.2759(11)
_cell_length_b                   8.6249(9)
_cell_length_c                   11.6667(11)
_cell_angle_alpha                90
_cell_angle_beta                 109.729(4)
_cell_angle_gamma                90
_cell_volume                     973.307
_exptl_crystal_colour            green
_exptl_crystal_description       parallelepiped
_cell_formula_units_Z            2
loop_
_atom_site_label
_atom_site_type_symbol
_atom_site_fract_x
_atom_site_fract_y
_atom_site_fract_z
O1 O 0.3759(2) 0.0513(2) 0.08820(15)
C1 C 0.5273(3) -0.0838(3) 0.2562(2)
C2 C 0.3256(3) -0.0405(3) 0.3705(2)
C3 C 0.4745(3) -0.0357(3) 0.44508(17)
C4 C 0.5620(3) -0.1099(3) 0.38148(19)
C5 C 0.6091(3) -0.1459(4) 0.1939(2)
H1 H 0.5876 -0.1258 0.1112
C6 C 0.6742(3) -0.2065(3) 0.4382(2)
H2 H 0.6966 -0.2290 0.5206
C7 C 0.2905(3) -0.0090(3) 0.2469(2)
C8 C 0.3974(3) -0.0018(3) 0.1897(2)
C9 C 0.2209(4) -0.0759(3) 0.4165(3)
H3 H 0.2432 -0.1030 0.4981
C10 C 0.7519(3) -0.2689(3) 0.3743(3)
H4 H 0.8260 -0.3336 0.4133
C11 C 0.7206(3) -0.2360(4) 0.2532(3)
H5 H 0.7757 -0.2753 0.2111
C12 C 0.0842(4) -0.0715(4) 0.3427(4)
H6 H 0.0151 -0.0968 0.3743
C13 C 0.1516(4) -0.0004(4) 0.1746(3)
H7 H 0.1278 0.0258 0.0927
C14 C 0.0500(4) -0.0298(4) 0.2227(4)
H8 H -0.0424 -0.0216 0.1741
O1B O 0.6241(2) -0.0513(2) 0.91180(15)
C1B C 0.4727(3) 0.0838(3) 0.7438(2)
C2B C 0.6744(3) 0.0405(3) 0.6295(2)
C3B C 0.5255(3) 0.0357(3) 0.55492(17)
C4B C 0.4380(3) 0.1099(3) 0.61852(19)
C5B C 0.3909(3) 0.1459(4) 0.8061(2)
H1B H 0.4124 0.1258 0.8888
C6B C 0.3258(3) 0.2065(3) 0.5618(2)
H2B H 0.3034 0.2290 0.4794
C7B C 0.7095(3) 0.0090(3) 0.7531(2)
C8B C 0.6026(3) 0.0018(3) 0.8103(2)
C9B C 0.7791(4) 0.0759(3) 0.5835(3)
H3B H 0.7568 0.1030 0.5019
C10B C 0.2481(3) 0.2689(3) 0.6257(3)
H4B H 0.1740 0.3336 0.5867
C11B C 0.2794(3) 0.2360(4) 0.7468(3)
H5B H 0.2243 0.2753 0.7889
C12B C 0.9158(4) 0.0715(4) 0.6573(4)
H6B H 0.9849 0.0968 0.6257
C13B C 0.8484(4) 0.0004(4) 0.8254(3)
H7B H 0.8722 -0.0258 0.9073
C14B C 0.9500(4) 0.0298(4) 0.7773(4)
H8B H 1.0424 0.0216 0.8259
loop_
_geom_bond_atom_site_label_1
_geom_bond_atom_site_label_2
_geom_bond_site_symmetry_1
_geom_bond_site_symmetry_2
O1 C8 1_555 1_555
C1 C4 1_555 1_555
C2 C3 1_555 1_555
C3 C4 1_555 1_555
C4 C6 1_555 1_555
C5 C1 1_555 1_555
H1 C5 1_555 1_555
C6 H2 1_555 1_555
C7 C2 1_555 1_555
C8 C1 1_555 1_555
C9 C2 1_555 1_555
H3 C9 1_555 1_555
C10 C6 1_555 1_555
H4 C10 1_555 1_555
C11 C5 1_555 1_555
H5 C11 1_555 1_555
C12 C9 1_555 1_555
H6 C12 1_555 1_555
C13 C7 1_555 1_555
H7 C13 1_555 1_555
C14 C12 1_555 1_555
H8 C14 1_555 1_555
O1B C8B 1_555 1_555
C1B C4B 1_555 1_555
C2B C3B 1_555 1_555
C3B C3 1_555 1_555
C4B C3B 1_555 1_555
C5B C1B 1_555 1_555
H1B C5B 1_555 1_555
C6B C4B 1_555 1_555
H2B C6B 1_555 1_555
C7B C2B 1_555 1_555
C8B C1B 1_555 1_555
C9B C2B 1_555 1_555
H3B C9B 1_555 1_555
C10B C6B 1_555 1_555
H4B C10B 1_555 1_555
C11B C5B 1_555 1_555
H5B C11B 1_555 1_555
C12B C9B 1_555 1_555
H6B C12B 1_555 1_555
C13B C7B 1_555 1_555
H7B C13B 1_555 1_555
C14B C12B 1_555 1_555
H8B C14B 1_555 1_555
C7 C8 1_555 1_555
C10 C11 1_555 1_555
C13 C14 1_555 1_555
C7B C8B 1_555 1_555
C10B C11B 1_555 1_555
C13B C14B 1_555 1_555

#END
