
#######################################################################
#
#                 Cambridge Crystallographic Data Centre
#                                CCDC 
#
#######################################################################
#
# If this CIF has been generated from an entry in the Cambridge 
# Structural Database, then it will include bibliographic, chemical, 
# crystal, experimental, refinement or atomic coordinate data resulting 
# from the CCDC's data processing and validation procedures.
#
#######################################################################

data_DANTEN16
_chemical_formula_moiety         'C28 H16 O2'
_chemical_name_systematic        
10-(10-Oxoanthracen-9(10H)-ylidene)anthracen-9(10H)-one
_symmetry_cell_setting           monoclinic
_symmetry_space_group_name_H-M   'P 21/n'
_symmetry_Int_Tables_number      14
_space_group_name_Hall           '-P 2yn'
loop_
_symmetry_equiv_pos_site_id
_symmetry_equiv_pos_as_xyz
1 x,y,z
2 1/2-x,1/2+y,1/2-z
3 -x,-y,-z
4 1/2+x,1/2-y,1/2+z
_cell_length_a                   10.2832(6)
_cell_length_b                   8.6313(4)
_cell_length_c                   11.6644(6)
_cell_angle_alpha                90
_cell_angle_beta                 109.758(4)
_cell_angle_gamma                90
_cell_volume                     974.352
_exptl_crystal_colour            'dark green'
_exptl_crystal_description       parallelepiped
_cell_formula_units_Z            2
loop_
_atom_site_label
_atom_site_type_symbol
_atom_site_fract_x
_atom_site_fract_y
_atom_site_fract_z
O1 O 0.3760(3) 0.0517(3) 0.0885(2)
C1 C 0.5269(4) -0.0832(4) 0.2567(3)
C2 C 0.3262(4) -0.0397(4) 0.3705(3)
C3 C 0.4741(3) -0.0354(3) 0.4451(2)
C4 C 0.5613(4) -0.1093(4) 0.3811(3)
C5 C 0.6083(5) -0.1452(4) 0.1939(3)
H1 H 0.5864 -0.1253 0.1112
C6 C 0.6736(4) -0.2053(4) 0.4384(3)
H2 H 0.6961 -0.2269 0.5210
C7 C 0.2896(4) -0.0098(4) 0.2463(3)
C8 C 0.3981(4) -0.0030(4) 0.1900(3)
C9 C 0.2213(5) -0.0768(4) 0.4172(3)
H3 H 0.2435 -0.1049 0.4986
C10 C 0.7514(4) -0.2685(4) 0.3748(4)
H4 H 0.8250 -0.3337 0.4139
C11 C 0.7198(4) -0.2349(5) 0.2531(4)
H5 H 0.7750 -0.2737 0.2110
C12 C 0.0850(5) -0.0717(5) 0.3424(5)
H6 H 0.0158 -0.0966 0.3739
C13 C 0.1521(5) 0.0002(5) 0.1745(3)
H7 H 0.1285 0.0279 0.0929
C14 C 0.0502(5) -0.0304(6) 0.2226(5)
H8 H -0.0423 -0.0231 0.1740
O1B O 0.6240(3) -0.0517(3) 0.9115(2)
C1B C 0.4731(4) 0.0832(4) 0.7433(3)
C2B C 0.6738(4) 0.0397(4) 0.6295(3)
C3B C 0.5259(3) 0.0354(3) 0.5549(2)
C4B C 0.4387(4) 0.1093(4) 0.6189(3)
C5B C 0.3917(5) 0.1452(4) 0.8061(3)
H1B H 0.4136 0.1253 0.8888
C6B C 0.3264(4) 0.2053(4) 0.5616(3)
H2B H 0.3039 0.2269 0.4790
C7B C 0.7104(4) 0.0098(4) 0.7537(3)
C8B C 0.6019(4) 0.0030(4) 0.8100(3)
C9B C 0.7787(5) 0.0768(4) 0.5828(3)
H3B H 0.7565 0.1049 0.5014
C10B C 0.2486(4) 0.2685(4) 0.6252(4)
H4B H 0.1750 0.3337 0.5861
C11B C 0.2802(4) 0.2349(5) 0.7469(4)
H5B H 0.2250 0.2737 0.7890
C12B C 0.9150(5) 0.0717(5) 0.6576(5)
H6B H 0.9842 0.0966 0.6261
C13B C 0.8479(5) -0.0002(5) 0.8255(3)
H7B H 0.8715 -0.0279 0.9071
C14B C 0.9498(5) 0.0304(6) 0.7774(5)
H8B H 1.0423 0.0231 0.8260
loop_
_geom_bond_atom_site_label_1
_geom_bond_atom_site_label_2
_geom_bond_site_symmetry_1
_geom_bond_site_symmetry_2
O1 C8 1_555 1_555
C1 C4 1_555 1_555
C2 C3 1_555 1_555
C3 C4 1_555 1_555
C4 C6 1_555 1_555
C5 C1 1_555 1_555
H1 C5 1_555 1_555
C6 H2 1_555 1_555
C7 C2 1_555 1_555
C8 C1 1_555 1_555
C9 C2 1_555 1_555
H3 C9 1_555 1_555
C10 C6 1_555 1_555
H4 C10 1_555 1_555
C11 C5 1_555 1_555
H5 C11 1_555 1_555
C12 C9 1_555 1_555
H6 C12 1_555 1_555
C13 C7 1_555 1_555
H7 C13 1_555 1_555
C14 C12 1_555 1_555
H8 C14 1_555 1_555
O1B C8B 1_555 1_555
C1B C4B 1_555 1_555
C2B C3B 1_555 1_555
C3B C3 1_555 1_555
C4B C3B 1_555 1_555
C5B C1B 1_555 1_555
H1B C5B 1_555 1_555
C6B C4B 1_555 1_555
H2B C6B 1_555 1_555
C7B C2B 1_555 1_555
C8B C1B 1_555 1_555
C9B C2B 1_555 1_555
H3B C9B 1_555 1_555
C10B C6B 1_555 1_555
H4B C10B 1_555 1_555
C11B C5B 1_555 1_555
H5B C11B 1_555 1_555
C12B C9B 1_555 1_555
H6B C12B 1_555 1_555
C13B C7B 1_555 1_555
H7B C13B 1_555 1_555
C14B C12B 1_555 1_555
H8B C14B 1_555 1_555
C7 C8 1_555 1_555
C10 C11 1_555 1_555
C13 C14 1_555 1_555
C7B C8B 1_555 1_555
C10B C11B 1_555 1_555
C13B C14B 1_555 1_555

#END
