
#######################################################################
#
#                 Cambridge Crystallographic Data Centre
#                                CCDC 
#
#######################################################################
#
# If this CIF has been generated from an entry in the Cambridge 
# Structural Database, then it will include bibliographic, chemical, 
# crystal, experimental, refinement or atomic coordinate data resulting 
# from the CCDC's data processing and validation procedures.
#
#######################################################################

data_DANTEN12
_chemical_formula_moiety         'C28 H16 O2'
_chemical_name_systematic        
10-(10-Oxoanthracen-9(10H)-ylidene)anthracen-9(10H)-one
_symmetry_cell_setting           monoclinic
_symmetry_space_group_name_H-M   'P 21/n'
_symmetry_Int_Tables_number      14
_space_group_name_Hall           '-P 2yn'
loop_
_symmetry_equiv_pos_site_id
_symmetry_equiv_pos_as_xyz
1 x,y,z
2 1/2-x,1/2+y,1/2-z
3 -x,-y,-z
4 1/2+x,1/2-y,1/2+z
_cell_length_a                   10.1199(15)
_cell_length_b                   8.2949(12)
_cell_length_c                   11.6257(17)
_cell_angle_alpha                90
_cell_angle_beta                 109.455(2)
_cell_angle_gamma                90
_cell_volume                     920.182
_exptl_crystal_colour            yellow
_exptl_crystal_description       parallelepiped
_cell_formula_units_Z            2
loop_
_atom_site_label
_atom_site_type_symbol
_atom_site_fract_x
_atom_site_fract_y
_atom_site_fract_z
C1 C 0.82392(13) 0.04314(15) 0.86959(11)
C2 C 1.03055(13) 0.08939(15) 0.75567(11)
C3 C 0.97533(13) 0.03749(15) 0.94504(11)
C4 C 0.89838(14) 0.00497(15) 0.68667(11)
C5 C 1.06576(13) 0.11408(15) 0.88210(11)
C6 C 1.11377(14) 0.15371(16) 0.69238(12)
H1 H 1.0910 0.1337 0.6075
C7 C 0.78761(14) 0.01071(15) 0.74439(12)
C8 C 1.26129(14) 0.27711(16) 0.87698(12)
H2 H 1.3393 0.3434 0.9181
C9 C 1.18043(13) 0.21183(16) 0.94063(12)
H3 H 1.2034 0.2339 1.0252
C10 C 1.22908(14) 0.24620(16) 0.75309(12)
H4 H 1.2865 0.2888 0.7103
C11 C 0.64706(15) 0.00084(17) 0.67136(13)
H5 H 0.6231 -0.0274 0.5877
C12 C 0.71733(14) 0.08010(16) 0.91637(12)
H6 H 0.7403 0.1091 0.9998
C13 C 0.54269(15) 0.03204(17) 0.72035(13)
H7 H 0.4470 0.0242 0.6709
C14 C 0.57853(15) 0.07487(17) 0.84225(13)
H8 H 0.5069 0.1009 0.8752
O1 O 0.87737(11) -0.04968(12) 0.58482(8)
C1B C 1.17608(13) -0.04314(15) 1.13041(11)
C2B C 0.96945(13) -0.08939(15) 1.24433(11)
C3B C 1.02467(13) -0.03749(15) 1.05496(11)
C4B C 1.10162(14) -0.00497(15) 1.31333(11)
C5B C 0.93424(13) -0.11408(15) 1.11790(11)
C6B C 0.88623(14) -0.15371(16) 1.30762(12)
H1B H 0.9090 -0.1337 1.3925
C7B C 1.21239(14) -0.01071(15) 1.25561(12)
C8B C 0.73871(14) -0.27711(16) 1.12302(12)
H2B H 0.6607 -0.3434 1.0819
C9B C 0.81957(13) -0.21183(16) 1.05937(12)
H3B H 0.7966 -0.2339 0.9748
C10B C 0.77092(14) -0.24620(16) 1.24691(12)
H4B H 0.7135 -0.2888 1.2897
C11B C 1.35294(15) -0.00084(17) 1.32864(13)
H5B H 1.3769 0.0274 1.4123
C12B C 1.28267(14) -0.08010(16) 1.08363(12)
H6B H 1.2597 -0.1091 1.0002
C13B C 1.45731(15) -0.03204(17) 1.27965(13)
H7B H 1.5530 -0.0242 1.3291
C14B C 1.42147(15) -0.07487(17) 1.15775(13)
H8B H 1.4931 -0.1009 1.1248
O1B O 1.12263(11) 0.04968(12) 1.41518(8)
loop_
_geom_bond_atom_site_label_1
_geom_bond_atom_site_label_2
_geom_bond_site_symmetry_1
_geom_bond_site_symmetry_2
C1 C3 1_555 1_555
C2 C4 1_555 1_555
C3 C5 1_555 1_555
C4 C7 1_555 1_555
C5 C2 1_555 1_555
C6 C2 1_555 1_555
H1 C6 1_555 1_555
C7 C1 1_555 1_555
C8 H2 1_555 1_555
C9 C5 1_555 1_555
H3 C9 1_555 1_555
C10 C6 1_555 1_555
H4 C10 1_555 1_555
C11 C7 1_555 1_555
H5 C11 1_555 1_555
C12 C1 1_555 1_555
H6 C12 1_555 1_555
C13 C11 1_555 1_555
H7 C13 1_555 1_555
C14 C12 1_555 1_555
H8 C14 1_555 1_555
O1 C4 1_555 1_555
C1B C3B 1_555 1_555
C2B C4B 1_555 1_555
C3B C3 1_555 1_555
C4B C7B 1_555 1_555
C5B C2B 1_555 1_555
C6B C2B 1_555 1_555
H1B C6B 1_555 1_555
C7B C1B 1_555 1_555
C8B H2B 1_555 1_555
C9B C5B 1_555 1_555
H3B C9B 1_555 1_555
C10B C6B 1_555 1_555
H4B C10B 1_555 1_555
C11B C7B 1_555 1_555
H5B C11B 1_555 1_555
C12B C1B 1_555 1_555
H6B C12B 1_555 1_555
C13B C11B 1_555 1_555
H7B C13B 1_555 1_555
C14B C12B 1_555 1_555
H8B C14B 1_555 1_555
O1B C4B 1_555 1_555
C8 C9 1_555 1_555
C8 C10 1_555 1_555
C13 C14 1_555 1_555
C3B C5B 1_555 1_555
C8B C9B 1_555 1_555
C8B C10B 1_555 1_555
C13B C14B 1_555 1_555

#END
