
#######################################################################
#
#                 Cambridge Crystallographic Data Centre
#                                CCDC 
#
#######################################################################
#
# If this CIF has been generated from an entry in the Cambridge 
# Structural Database, then it will include bibliographic, chemical, 
# crystal, experimental, refinement or atomic coordinate data resulting 
# from the CCDC's data processing and validation procedures.
#
#######################################################################

data_DAPCIJ
_chemical_formula_moiety         'C15 H27 B1 N1 O5 P1,H2 O1'
_chemical_name_systematic        
'(4-((butylamino)(diethoxyphosphoryl)methyl)phenyl)boronic acid monohydrate'
_symmetry_cell_setting           monoclinic
_symmetry_space_group_name_H-M   'P 21/c'
_symmetry_Int_Tables_number      14
_space_group_name_Hall           '-P 2ybc'
loop_
_symmetry_equiv_pos_site_id
_symmetry_equiv_pos_as_xyz
1 x,y,z
2 -x,1/2+y,1/2-z
3 -x,-y,-z
4 x,1/2-y,1/2+z
_cell_length_a                   8.4370(2)
_cell_length_b                   23.5403(4)
_cell_length_c                   10.3281(2)
_cell_angle_alpha                90
_cell_angle_beta                 98.1871(7)
_cell_angle_gamma                90
_cell_volume                     2030.35
_exptl_crystal_colour            white
_exptl_crystal_description       sheet
_cell_formula_units_Z            4
loop_
_atom_site_label
_atom_site_type_symbol
_atom_site_fract_x
_atom_site_fract_y
_atom_site_fract_z
P1 P 0.05753(10) 0.40870(3) 0.71854(7)
O1 O 0.1336(3) 0.46466(10) 0.7185(2)
O2 O -0.0129(3) 0.38463(11) 0.5818(2)
O3 O -0.0862(3) 0.40558(11) 0.7994(2)
O4 O 0.2651(3) 0.34135(10) 1.42919(19)
H1 H 0.277(5) 0.3502(18) 1.507(2)
O5 O 0.4082(4) 0.42696(12) 1.4122(2)
H2 H 0.410(6) 0.438(2) 1.485(2)
B1 B 0.3262(4) 0.38153(15) 1.3577(3)
N1 N 0.3284(3) 0.35052(10) 0.7090(2)
H3 H 0.383(3) 0.3827(10) 0.725(3)
C1 C 0.1922(3) 0.35215(12) 0.7835(2)
H4 H 0.134086 0.316227 0.767298
C2 C 0.2342(3) 0.35877(12) 0.9314(2)
C3 C 0.2975(3) 0.37367(12) 1.2048(2)
C4 C 0.3349(4) 0.40162(13) 0.9851(3)
H5 H 0.382282 0.425729 0.930449
C5 C 0.3660(4) 0.40905(13) 1.1197(3)
H6 H 0.433818 0.438198 1.153717
C6 C 0.1986(4) 0.33071(13) 1.1486(3)
H7 H 0.151848 0.306181 1.202778
C7 C 0.1671(4) 0.32304(13) 1.0147(3)
H8 H 0.100297 0.293629 0.980550
C8 C 0.4360(5) 0.30250(15) 0.7458(3)
H9 H 0.376131 0.267351 0.730837
H10 H 0.476126 0.304861 0.838410
C9 C 0.5732(6) 0.3013(2) 0.6707(4)
H11 H 0.635529 0.335676 0.689549
H12 H 0.532184 0.301411 0.578058
C10 C 0.6810(9) 0.2514(3) 0.6992(6)
H13 H 0.746084 0.258244 0.783024
H14 H 0.614097 0.218779 0.710277
C11 C 0.7818(11) 0.2363(3) 0.6134(7)
H15 H 0.720401 0.223469 0.533343
H16 H 0.850853 0.206307 0.650418
H17 H 0.845195 0.268535 0.595891
C12 C -0.1070(7) 0.4194(2) 0.4847(4)
H18 H -0.198092 0.434697 0.520682
H19 H -0.042565 0.451007 0.461969
C13 C -0.1621(7) 0.3875(2) 0.3701(4)
H20 H -0.072158 0.371401 0.335712
H21 H -0.220208 0.411959 0.305696
H22 H -0.231169 0.357533 0.391441
C14 C -0.1265(9) 0.4492(2) 0.8822(7)
H23 H -0.028179 0.466011 0.925846
H24 H -0.183683 0.478541 0.828409
C15 C -0.2186(9) 0.4332(3) 0.9763(6)
H25 H -0.312922 0.413941 0.935302
H26 H -0.249024 0.466268 1.021131
H27 H -0.157815 0.408122 1.037812
O6 O 0.4407(3) 0.47579(13) 0.6604(3)
H28 H 0.348(3) 0.479(2) 0.675(5)
H29 H 0.475(6) 0.5065(12) 0.644(5)
loop_
_geom_bond_atom_site_label_1
_geom_bond_atom_site_label_2
_geom_bond_site_symmetry_1
_geom_bond_site_symmetry_2
P1 O1 1_555 1_555
O2 P1 1_555 1_555
O3 P1 1_555 1_555
O4 H1 1_555 1_555
O5 H2 1_555 1_555
B1 O4 1_555 1_555
N1 H3 1_555 1_555
C1 P1 1_555 1_555
H4 C1 1_555 1_555
C2 C1 1_555 1_555
C3 B1 1_555 1_555
C4 C2 1_555 1_555
H5 C4 1_555 1_555
C5 C3 1_555 1_555
H6 C5 1_555 1_555
C6 C3 1_555 1_555
H7 C6 1_555 1_555
C7 C2 1_555 1_555
H8 C7 1_555 1_555
C8 N1 1_555 1_555
H9 C8 1_555 1_555
H10 C8 1_555 1_555
C9 C8 1_555 1_555
H11 C9 1_555 1_555
H12 C9 1_555 1_555
C10 C9 1_555 1_555
H13 C10 1_555 1_555
H14 C10 1_555 1_555
C11 C10 1_555 1_555
H15 C11 1_555 1_555
H16 C11 1_555 1_555
H17 C11 1_555 1_555
C12 O2 1_555 1_555
H18 C12 1_555 1_555
H19 C12 1_555 1_555
C13 C12 1_555 1_555
H20 C13 1_555 1_555
H21 C13 1_555 1_555
H22 C13 1_555 1_555
C14 O3 1_555 1_555
H23 C14 1_555 1_555
H24 C14 1_555 1_555
C15 C14 1_555 1_555
H25 C15 1_555 1_555
H26 C15 1_555 1_555
H27 C15 1_555 1_555
O6 H28 1_555 1_555
H29 O6 1_555 1_555
O5 B1 1_555 1_555
N1 C1 1_555 1_555
C4 C5 1_555 1_555
C6 C7 1_555 1_555

#END
