
#######################################################################
#
#                 Cambridge Crystallographic Data Centre
#                                CCDC 
#
#######################################################################
#
# If this CIF has been generated from an entry in the Cambridge 
# Structural Database, then it will include bibliographic, chemical, 
# crystal, experimental, refinement or atomic coordinate data resulting 
# from the CCDC's data processing and validation procedures.
#
#######################################################################

data_DAPCOP
_chemical_formula_moiety         'C17 H22 B1 N2 O7 P1'
_chemical_name_systematic        
'(4-((diethoxyphosphoryl)((4-nitrophenyl)amino)methyl)phenyl)boronic acid'
_symmetry_cell_setting           orthorhombic
_symmetry_space_group_name_H-M   'P b c n'
_symmetry_Int_Tables_number      60
_space_group_name_Hall           '-P 2n 2ab'
loop_
_symmetry_equiv_pos_site_id
_symmetry_equiv_pos_as_xyz
1 x,y,z
2 1/2-x,1/2-y,1/2+z
3 -x,y,1/2-z
4 1/2+x,1/2-y,-z
5 -x,-y,-z
6 1/2+x,1/2+y,1/2-z
7 x,-y,1/2+z
8 1/2-x,1/2+y,z
_cell_length_a                   10.2590(8)
_cell_length_b                   14.5721(14)
_cell_length_c                   27.577(3)
_cell_angle_alpha                90
_cell_angle_beta                 90
_cell_angle_gamma                90
_cell_volume                     4122.63
_exptl_crystal_colour            white
_exptl_crystal_description       sheet
_cell_formula_units_Z            8
loop_
_atom_site_label
_atom_site_type_symbol
_atom_site_fract_x
_atom_site_fract_y
_atom_site_fract_z
P1 P 0.29978(9) 0.26468(7) 0.11014(4)
O1 O 0.2977(3) 0.2135(2) 0.06424(9)
O2 O 0.2926(3) 0.37114(19) 0.10325(10)
O3 O 0.1866(2) 0.2417(2) 0.14604(10)
O4 O 0.9308(3) 0.4994(2) 0.06307(10)
H1 H 0.980(4) 0.528(3) 0.0449(16)
O5 O 0.9167(3) 0.40026(19) -0.00333(10)
H2 H 0.877(4) 0.360(3) -0.0180(16)
O6 O 0.9018(4) 0.0213(3) 0.29736(15)
O7 O 0.8391(4) -0.1102(3) 0.26851(14)
N1 N 0.4546(3) 0.1441(2) 0.15380(11)
H3 H 0.425(4) 0.106(2) 0.1318(12)
N2 N 0.8307(4) -0.0258(3) 0.27132(15)
B1 B 0.8743(4) 0.4260(3) 0.04156(15)
C1 C 0.4439(3) 0.2426(2) 0.14655(13)
H4 H 0.432820 0.272842 0.178838
C2 C 0.5610(3) 0.2859(3) 0.12075(12)
C3 C 0.5982(4) 0.3751(3) 0.13295(13)
H5 H 0.554918 0.406402 0.158492
C4 C 0.6987(4) 0.4182(3) 0.10778(13)
H6 H 0.723602 0.478739 0.116592
C5 C 0.7636(4) 0.3740(2) 0.06975(13)
C6 C 0.7260(4) 0.2845(3) 0.05856(14)
H7 H 0.769276 0.252873 0.033096
C7 C 0.6264(4) 0.2402(3) 0.08377(13)
H8 H 0.603298 0.178985 0.075717
C8 C 0.5481(3) 0.1044(3) 0.18368(13)
C9 C 0.6302(4) 0.1570(3) 0.21332(13)
H9 H 0.623234 0.222027 0.213320
C10 C 0.7215(4) 0.1140(3) 0.24265(14)
H10 H 0.776478 0.149409 0.263115
C11 C 0.7320(4) 0.0200(3) 0.24194(14)
C12 C 0.6501(4) -0.0334(3) 0.21345(15)
H11 H 0.657407 -0.098356 0.213849
C13 C 0.5581(4) 0.0087(3) 0.18455(14)
H12 H 0.501241 -0.027400 0.165172
C14 C 0.3223(8) 0.4153(4) 0.0563(2)
H13 H 0.392259 0.380674 0.039650
H14 H 0.243855 0.414037 0.035396
C15 C 0.3628(8) 0.5076(5) 0.0632(3)
H15 H 0.435422 0.509329 0.086279
H16 H 0.289839 0.543691 0.076042
H17 H 0.390894 0.533576 0.032157
C16 C 0.0515(4) 0.2502(4) 0.12892(19)
H18 H 0.034646 0.313934 0.118133
H19 H 0.036776 0.208619 0.101074
C17 C -0.0359(5) 0.2264(5) 0.1685(2)
H20 H -0.015490 0.264218 0.196847
H21 H -0.024920 0.161455 0.176680
H22 H -0.126215 0.237538 0.158477
loop_
_geom_bond_atom_site_label_1
_geom_bond_atom_site_label_2
_geom_bond_site_symmetry_1
_geom_bond_site_symmetry_2
P1 O1 1_555 1_555
O2 P1 1_555 1_555
O3 P1 1_555 1_555
O4 H1 1_555 1_555
O5 H2 1_555 1_555
O6 N2 1_555 1_555
O7 N2 1_555 1_555
N1 H3 1_555 1_555
N2 C11 1_555 1_555
B1 O4 1_555 1_555
C1 P1 1_555 1_555
H4 C1 1_555 1_555
C2 C1 1_555 1_555
C3 C2 1_555 1_555
H5 C3 1_555 1_555
C4 C3 1_555 1_555
H6 C4 1_555 1_555
C5 B1 1_555 1_555
C6 C5 1_555 1_555
H7 C6 1_555 1_555
C7 C2 1_555 1_555
H8 C7 1_555 1_555
C8 N1 1_555 1_555
C9 C8 1_555 1_555
H9 C9 1_555 1_555
C10 C9 1_555 1_555
H10 C10 1_555 1_555
C11 C10 1_555 1_555
C12 C11 1_555 1_555
H11 C12 1_555 1_555
C13 C8 1_555 1_555
H12 C13 1_555 1_555
C14 O2 1_555 1_555
H13 C14 1_555 1_555
H14 C14 1_555 1_555
C15 C14 1_555 1_555
H15 C15 1_555 1_555
H16 C15 1_555 1_555
H17 C15 1_555 1_555
C16 O3 1_555 1_555
H18 C16 1_555 1_555
H19 C16 1_555 1_555
C17 C16 1_555 1_555
H20 C17 1_555 1_555
H21 C17 1_555 1_555
H22 C17 1_555 1_555
O5 B1 1_555 1_555
N1 C1 1_555 1_555
C4 C5 1_555 1_555
C6 C7 1_555 1_555
C12 C13 1_555 1_555

#END
