
#######################################################################
#
#                 Cambridge Crystallographic Data Centre
#                                CCDC 
#
#######################################################################
#
# If this CIF has been generated from an entry in the Cambridge 
# Structural Database, then it will include bibliographic, chemical, 
# crystal, experimental, refinement or atomic coordinate data resulting 
# from the CCDC's data processing and validation procedures.
#
#######################################################################

data_DAPKUD
_chemical_name_common            
3beta-Acetoxy-5alpha-bromo-17a-homo-6beta-hydroxy-17-oxa-androstan-16-one
_chemical_formula_moiety         'C21 H31 Br1 O5'
_chemical_name_systematic        
'6a-bromo-6-hydroxy-10a,12a-dimethyl-3-oxohexadecahydro-1H-naphtho[2,1-f]isochromen-8-yl acetate'
_chemical_properties_biological  
'significant antiproliferative activity, especially toward MDA-MB-231 and HeLa cell lines'
_symmetry_cell_setting           monoclinic
_symmetry_space_group_name_H-M   'P 21'
_symmetry_Int_Tables_number      4
_space_group_name_Hall           'P 2yb'
loop_
_symmetry_equiv_pos_site_id
_symmetry_equiv_pos_as_xyz
1 x,y,z
2 -x,1/2+y,-z
_cell_length_a                   7.16510(10)
_cell_length_b                   29.2879(4)
_cell_length_c                   10.1388(2)
_cell_angle_alpha                90
_cell_angle_beta                 107.742(2)
_cell_angle_gamma                90
_cell_volume                     2026.44
_exptl_crystal_colour            colorless
_exptl_crystal_description       prism
_cell_formula_units_Z            4
loop_
_atom_site_label
_atom_site_type_symbol
_atom_site_fract_x
_atom_site_fract_y
_atom_site_fract_z
Br1 Br 0.35410(6) 0.70654(2) 0.73694(4)
O1 O 0.3267(5) 0.57037(11) 0.6403(3)
O2 O -0.1271(5) 0.68831(12) 0.3363(3)
O3 O 0.6006(5) 0.56005(15) 1.3727(3)
C1 C 0.3430(5) 0.59662(13) 0.9389(3)
H1 H 0.2869 0.5664 0.9092
C2 C 0.0683(5) 0.63592(13) 0.7490(4)
C3 C 0.2211(5) 0.64610(13) 0.6714(4)
C4 C 0.1741(5) 0.63176(13) 0.9076(4)
H2 H 0.2330 0.6616 0.9393
C5 C 0.4469(5) 0.59511(13) 1.0959(3)
H3 H 0.4965 0.6259 1.1240
O4 O 0.8521(6) 0.5293(2) 1.3303(5)
C6 C 0.4904(5) 0.60772(14) 0.8610(4)
H4 H 0.5577 0.6359 0.8973
H5 H 0.5877 0.5836 0.8779
C7 C 0.3945(5) 0.61278(14) 0.7044(4)
C8 C 0.1245(6) 0.65257(14) 0.5162(4)
H6 H 0.0659 0.6240 0.4759
H7 H 0.2236 0.6608 0.4733
O5 O -0.1758(9) 0.76334(15) 0.3317(5)
C9 C 0.0349(6) 0.62071(16) 0.9916(4)
H8 H -0.0664 0.6439 0.9741
H9 H -0.0282 0.5916 0.9612
C10 C -0.0332(6) 0.68962(15) 0.4857(4)
H10 H 0.0285 0.7195 0.5122
C11 C 0.3072(6) 0.58294(15) 1.1794(4)
C12 C -0.0416(6) 0.59056(15) 0.6955(4)
H11 H -0.1551 0.5883 0.7266
H12 H 0.0439 0.5652 0.7307
H13 H -0.0815 0.5902 0.5961
C13 C -0.0847(6) 0.67485(15) 0.7172(4)
H14 H -0.1841 0.6681 0.7613
H15 H -0.0208 0.7031 0.7563
C14 C 0.1413(6) 0.61851(16) 1.1471(4)
H16 H 0.0487 0.6106 1.1960
H17 H 0.1956 0.6483 1.1794
C15 C 0.6227(6) 0.56315(16) 1.1351(4)
H18 H 0.5864 0.5353 1.0817
H19 H 0.7273 0.5773 1.1074
C16 C -0.1838(6) 0.68140(18) 0.5610(4)
H20 H -0.2600 0.6544 0.5233
H21 H -0.2727 0.7072 0.5461
C17 C 0.7024(7) 0.5504(2) 1.2852(5)
C18 C 0.4252(7) 0.58846(19) 1.3313(4)
H22 H 0.4633 0.6202 1.3486
H23 H 0.3426 0.5807 1.3881
C19 C 0.2253(7) 0.53431(17) 1.1532(5)
H24 H 0.3315 0.5130 1.1682
H25 H 0.1415 0.5318 1.0594
H26 H 0.1514 0.5277 1.2156
C20 C -0.1818(7) 0.72814(17) 0.2722(5)
C21 C -0.2553(9) 0.7219(2) 0.1182(5)
H27 H -0.3674 0.7022 0.0947
H28 H -0.1539 0.7087 0.0868
H29 H -0.2916 0.7511 0.0745
H30 H 0.482(6) 0.6226(13) 0.666(4)
H31 H 0.400(9) 0.552(2) 0.660(7)
Br2 Br 0.50069(6) 0.32006(2) 0.21122(5)
O6 O 0.6988(5) 0.31347(13) -0.1716(3)
O7 O 0.6527(6) 0.50529(17) 0.7921(4)
O8 O 0.6157(8) 0.45060(14) 0.1116(4)
O9 O 0.9012(6) 0.45852(16) 0.8499(3)
C22 C 0.8007(5) 0.41908(14) 0.4191(4)
H32 H 0.8733 0.4443 0.3943
C23 C 0.9566(5) 0.31816(16) 0.2168(4)
H33 H 1.0949 0.3162 0.2679
H34 H 0.8886 0.2949 0.2528
C24 C 0.8962(5) 0.37353(14) 0.3957(4)
H35 H 0.8234 0.3489 0.4231
O10 O 0.6944(8) 0.23728(16) -0.1763(5)
C25 C 0.8789(5) 0.36574(14) 0.2407(4)
C26 C 0.6278(6) 0.35933(16) -0.0009(4)
H36 H 0.4884 0.3591 -0.0495
H37 H 0.6867 0.3836 -0.0397
C27 C 1.1195(7) 0.37713(18) 0.6443(5)
H38 H 1.2554 0.3763 0.7016
H39 H 1.0517 0.3520 0.6720
C28 C 0.6590(6) 0.36922(14) 0.1519(4)
C29 C 1.0026(6) 0.40213(17) 0.1937(4)
H40 H 0.9569 0.4048 0.0947
H41 H 1.1377 0.3930 0.2227
H42 H 0.9896 0.4310 0.2347
C30 C 0.7500(8) 0.47806(19) 0.7531(5)
C31 C 0.9287(6) 0.30849(17) 0.0630(5)
H43 H 1.0094 0.3294 0.0297
H44 H 0.9717 0.2776 0.0530
C32 C 0.8131(6) 0.42401(14) 0.5726(4)
H45 H 0.7442 0.3978 0.5962
C33 C 1.0271(6) 0.42226(15) 0.6691(4)
C34 C 0.7155(6) 0.31390(16) -0.0244(4)
H46 H 0.6378 0.2889 -0.0041
C35 C 0.7141(7) 0.46674(18) 0.6026(5)
H47 H 0.7574 0.4924 0.5588
H48 H 0.5740 0.4636 0.5593
C36 C 0.5564(7) 0.41315(16) 0.1745(5)
C37 C 1.1100(6) 0.37094(17) 0.4923(4)
H49 H 1.1657 0.3416 0.4808
H50 H 1.1874 0.3945 0.4666
C38 C 1.1484(7) 0.46324(19) 0.6511(6)
H51 H 1.2792 0.4605 0.7132
H52 H 1.0898 0.4908 0.6713
H53 H 1.1526 0.4643 0.5574
C39 C 0.6822(8) 0.27285(19) -0.2346(5)
C40 C 0.5846(6) 0.42215(16) 0.3281(5)
H54 H 0.5081 0.4001 0.3612
H55 H 0.5349 0.4523 0.3381
C41 C 1.0129(8) 0.4212(2) 0.8160(5)
H56 H 0.9531 0.3925 0.8293
H57 H 1.1444 0.4218 0.8805
C42 C 0.6465(10) 0.2784(2) -0.3874(6)
H58 H 0.6406 0.2488 -0.4295
H59 H 0.7514 0.2957 -0.4032
H60 H 0.5247 0.2941 -0.4272
H61 H 0.426(8) 0.4095(18) 0.130(5)
H62 H 0.715(10) 0.458(3) 0.125(8)
loop_
_geom_bond_atom_site_label_1
_geom_bond_atom_site_label_2
_geom_bond_site_symmetry_1
_geom_bond_site_symmetry_2
Br1 C3 1_555 1_555
O1 C7 1_555 1_555
O2 C10 1_555 1_555
O3 C17 1_555 1_555
C1 H1 1_555 1_555
C2 C3 1_555 1_555
C3 C7 1_555 1_555
C4 C1 1_555 1_555
H2 C4 1_555 1_555
C5 C1 1_555 1_555
H3 C5 1_555 1_555
O4 C17 1_555 1_555
C6 C1 1_555 1_555
H4 C6 1_555 1_555
H5 C6 1_555 1_555
C7 C6 1_555 1_555
C8 C3 1_555 1_555
H6 C8 1_555 1_555
H7 C8 1_555 1_555
O5 C20 1_555 1_555
C9 C4 1_555 1_555
H8 C9 1_555 1_555
H9 C9 1_555 1_555
C10 C8 1_555 1_555
H10 C10 1_555 1_555
C11 C5 1_555 1_555
C12 C2 1_555 1_555
H11 C12 1_555 1_555
H12 C12 1_555 1_555
H13 C12 1_555 1_555
C13 C2 1_555 1_555
H14 C13 1_555 1_555
H15 C13 1_555 1_555
C14 C9 1_555 1_555
H16 C14 1_555 1_555
H17 C14 1_555 1_555
C15 C5 1_555 1_555
H18 C15 1_555 1_555
H19 C15 1_555 1_555
C16 C10 1_555 1_555
H20 C16 1_555 1_555
H21 C16 1_555 1_555
C17 C15 1_555 1_555
C18 O3 1_555 1_555
H22 C18 1_555 1_555
H23 C18 1_555 1_555
C19 C11 1_555 1_555
H24 C19 1_555 1_555
H25 C19 1_555 1_555
H26 C19 1_555 1_555
C20 O2 1_555 1_555
C21 C20 1_555 1_555
H27 C21 1_555 1_555
H28 C21 1_555 1_555
H29 C21 1_555 1_555
H30 C7 1_555 1_555
H31 O1 1_555 1_555
Br2 C28 1_555 1_555
O6 C34 1_555 1_555
O7 C30 1_555 1_555
O8 C36 1_555 1_555
O9 C30 1_555 1_555
C22 H32 1_555 1_555
C23 H33 1_555 1_555
H34 C23 1_555 1_555
C24 C22 1_555 1_555
H35 C24 1_555 1_555
O10 C39 1_555 1_555
C25 C23 1_555 1_555
C26 H36 1_555 1_555
H37 C26 1_555 1_555
C27 H38 1_555 1_555
H39 C27 1_555 1_555
C28 C25 1_555 1_555
C29 C25 1_555 1_555
H40 C29 1_555 1_555
H41 C29 1_555 1_555
H42 C29 1_555 1_555
C30 C35 1_555 1_555
C31 C23 1_555 1_555
H43 C31 1_555 1_555
H44 C31 1_555 1_555
C32 C22 1_555 1_555
H45 C32 1_555 1_555
C33 C27 1_555 1_555
C34 C26 1_555 1_555
H46 C34 1_555 1_555
C35 C32 1_555 1_555
H47 C35 1_555 1_555
H48 C35 1_555 1_555
C36 C28 1_555 1_555
C37 C24 1_555 1_555
H49 C37 1_555 1_555
H50 C37 1_555 1_555
C38 C33 1_555 1_555
H51 C38 1_555 1_555
H52 C38 1_555 1_555
H53 C38 1_555 1_555
C39 O6 1_555 1_555
C40 C22 1_555 1_555
H54 C40 1_555 1_555
H55 C40 1_555 1_555
C41 O9 1_555 1_555
H56 C41 1_555 1_555
H57 C41 1_555 1_555
C42 C39 1_555 1_555
H58 C42 1_555 1_555
H59 C42 1_555 1_555
H60 C42 1_555 1_555
H61 C36 1_555 1_555
H62 O8 1_555 1_555
C2 C4 1_555 1_555
C11 C14 1_555 1_555
C11 C18 1_555 1_555
C13 C16 1_555 1_555
C24 C25 1_555 1_555
C26 C28 1_555 1_555
C27 C37 1_555 1_555
C31 C34 1_555 1_555
C32 C33 1_555 1_555
C33 C41 1_555 1_555
C36 C40 1_555 1_555

#END
