
#######################################################################
#
#                 Cambridge Crystallographic Data Centre
#                                CCDC 
#
#######################################################################
#
# If this CIF has been generated from an entry in the Cambridge 
# Structural Database, then it will include bibliographic, chemical, 
# crystal, experimental, refinement or atomic coordinate data resulting 
# from the CCDC's data processing and validation procedures.
#
#######################################################################

data_DAPMUF01
_chemical_name_common            
(E)-2-((2-(Benzo[d]thiazol-2-yl)hydrazono)methyl)phenol
_chemical_formula_moiety         'C14 H11 N3 O1 S1'
_chemical_name_systematic        
2-{[(1,3-benzothiazol-2(3H)-ylidene)hydrazinylidene]methyl}phenol
_symmetry_cell_setting           monoclinic
_symmetry_space_group_name_H-M   'P 21/n'
_symmetry_Int_Tables_number      14
_space_group_name_Hall           '-P 2yn'
loop_
_symmetry_equiv_pos_site_id
_symmetry_equiv_pos_as_xyz
1 x,y,z
2 1/2-x,1/2+y,1/2-z
3 -x,-y,-z
4 1/2+x,1/2-y,1/2+z
_cell_length_a                   15.3562(10)
_cell_length_b                   4.5316(2)
_cell_length_c                   17.6862(12)
_cell_angle_alpha                90
_cell_angle_beta                 91.924(6)
_cell_angle_gamma                90
_cell_volume                     1230.06
_exptl_crystal_colour            colorless
_exptl_crystal_description       Needle
_cell_formula_units_Z            4
loop_
_atom_site_label
_atom_site_type_symbol
_atom_site_fract_x
_atom_site_fract_y
_atom_site_fract_z
S1 S 0.43162(3) 0.14463(12) 0.39415(3)
N1 N 0.29133(14) 0.3645(5) 0.33258(15)
H1 H 0.2450(12) 0.412(4) 0.2979(11)
N2 N 0.43218(10) -0.1419(3) 0.25062(9)
N3 N 0.35838(10) 0.0364(3) 0.25391(9)
C1 C 0.29837(12) 0.4952(4) 0.40515(11)
C2 C 0.38827(12) 0.4974(4) 0.51963(11)
H2 H 0.436863 0.425873 0.548813
C3 C 0.35576(11) 0.1764(4) 0.31788(11)
C4 C 0.65221(14) -0.8432(5) 0.14297(13)
H3 H 0.699414 -0.970629 0.132461
C5 C 0.24221(12) 0.7014(4) 0.43477(11)
H4 H 0.192396 0.767947 0.406380
C6 C 0.58524(14) -0.8065(4) 0.08956(13)
H5 H 0.586275 -0.908100 0.042612
C7 C 0.26075(12) 0.8075(4) 0.50676(11)
H6 H 0.223701 0.951640 0.527757
C8 C 0.51699(13) -0.6211(4) 0.10510(12)
H7 H 0.471308 -0.594609 0.068165
C9 C 0.58242(13) -0.5105(4) 0.22770(11)
C10 C 0.44078(12) -0.2776(4) 0.18758(11)
H8 H 0.397767 -0.249753 0.148362
C11 C 0.37130(12) 0.3954(4) 0.44699(11)
C12 C 0.51347(12) -0.4710(4) 0.17403(11)
C13 C 0.33279(13) 0.7066(4) 0.54900(12)
H9 H 0.344109 0.781868 0.598496
O1 O 0.58457(9) -0.3698(3) 0.29513(8)
H10 H 0.5360(16) -0.258(5) 0.2973(14)
C14 C 0.65125(14) -0.6969(5) 0.21135(13)
H11 H 0.697809 -0.723680 0.247430
S2? S 0.2931(15) 0.417(5) 0.3550(16)
N4? N 0.408(3) 0.255(14) 0.392(2)
H12? H 0.392700 0.000000 0.399000
loop_
_geom_bond_atom_site_label_1
_geom_bond_atom_site_label_2
_geom_bond_site_symmetry_1
_geom_bond_site_symmetry_2
S1 C3 1_555 1_555
N1 H1 1_555 1_555
N2 N3 1_555 1_555
N3 C3 1_555 1_555
C1 N1 1_555 1_555
C2 H2 1_555 1_555
C3 N1 1_555 1_555
C4 H3 1_555 1_555
C5 C1 1_555 1_555
H4 C5 1_555 1_555
C6 C4 1_555 1_555
H5 C6 1_555 1_555
C7 C5 1_555 1_555
H6 C7 1_555 1_555
C8 C6 1_555 1_555
H7 C8 1_555 1_555
C9 C12 1_555 1_555
C10 N2 1_555 1_555
H8 C10 1_555 1_555
C11 S1 1_555 1_555
C12 C8 1_555 1_555
C13 C2 1_555 1_555
H9 C13 1_555 1_555
O1 C9 1_555 1_555
H10 O1 1_555 1_555
C14 C4 1_555 1_555
H11 C14 1_555 1_555
C1 C11 1_555 1_555
C2 C11 1_555 1_555
C7 C13 1_555 1_555
C9 C14 1_555 1_555
C10 C12 1_555 1_555

#END
