
#######################################################################
#
#                 Cambridge Crystallographic Data Centre
#                                CCDC 
#
#######################################################################
#
# If this CIF has been generated from an entry in the Cambridge 
# Structural Database, then it will include bibliographic, chemical, 
# crystal, experimental, refinement or atomic coordinate data resulting 
# from the CCDC's data processing and validation procedures.
#
#######################################################################

data_DAPQUH
_chemical_formula_moiety         'C16 H15 N3 O5'
_chemical_name_systematic        
9-Hydroxy-2-phenylhexahydro-1H-oxireno(g)(1,2,4)triazolo(1,2-a)cinnoline1,3,7(2H,5H)-trione
_symmetry_cell_setting           orthorhombic
_symmetry_space_group_name_H-M   'P 21 21 21'
_symmetry_Int_Tables_number      19
_space_group_name_Hall           'P 2ac 2ab'
loop_
_symmetry_equiv_pos_site_id
_symmetry_equiv_pos_as_xyz
1 x,y,z
2 1/2-x,-y,1/2+z
3 -x,1/2+y,1/2-z
4 1/2+x,1/2-y,-z
_cell_length_a                   7.2933(10)
_cell_length_b                   8.2345(12)
_cell_length_c                   24.418(3)
_cell_angle_alpha                90
_cell_angle_beta                 90
_cell_angle_gamma                90
_cell_volume                     1466.46
_exptl_crystal_colour            colorless
_exptl_crystal_description       rod
_cell_formula_units_Z            4
_exptl_crystal_recrystallization_method dichloromethane
loop_
_atom_site_label
_atom_site_type_symbol
_atom_site_fract_x
_atom_site_fract_y
_atom_site_fract_z
O1 O 0.4103(2) 0.1656(2) -0.12648(7)
O2 O 0.5083(3) 0.1455(3) -0.25137(8)
O3 O 0.9696(3) 0.1772(3) -0.27686(7)
O4 O 0.9049(2) 0.3746(2) 0.01216(6)
O5 O 0.4394(2) 0.5515(2) -0.10120(6)
N1 N 0.7051(3) 0.4028(2) -0.11439(7)
N2 N 0.8362(3) 0.3328(2) -0.07883(7)
N3 N 0.6406(3) 0.4787(2) -0.03023(7)
C1 C 0.5838(3) 0.1452(3) -0.15194(9)
H1 H 0.666(3) 0.085(3) -0.1284(10)
C2 C 0.5581(4) 0.0513(4) -0.20429(12)
H2 H 0.485(3) -0.046(3) -0.2015(9)
C3 C 0.6876(4) 0.0689(4) -0.24936(12)
H3 H 0.707(4) -0.013(4) -0.2733(12)
C4 C 0.8448(4) 0.1823(3) -0.24415(9)
C5 C 0.8528(3) 0.2938(3) -0.19454(9)
H4 H 0.896(4) 0.406(3) -0.2075(9)
C6 C 0.6688(3) 0.3097(3) -0.16466(9)
H5 H 0.576(3) 0.370(3) -0.1849(8)
C7 C 1.0016(4) 0.2222(3) -0.15625(10)
H6 H 1.118(3) 0.230(3) -0.1724(8)
H7 H 0.970(3) 0.104(3) -0.1485(8)
C8 C 1.0192(3) 0.3167(3) -0.10325(10)
H8 H 1.094(3) 0.263(3) -0.0768(9)
H9 H 1.064(3) 0.421(3) -0.1105(9)
C9 C 0.8058(3) 0.3933(3) -0.02748(9)
C10 C 0.5753(3) 0.4840(3) -0.08450(9)
C11 C 0.5517(3) 0.5576(3) 0.01491(9)
C12 C 0.6563(4) 0.6408(3) 0.05333(9)
H10 H 0.789(3) 0.644(3) 0.0492(8)
C13 C 0.5681(4) 0.7167(3) 0.09686(10)
H11 H 0.642(3) 0.764(3) 0.1238(9)
C14 C 0.3793(4) 0.7127(3) 0.10097(10)
H12 H 0.315(4) 0.761(4) 0.1315(10)
C15 C 0.2752(4) 0.6340(3) 0.06164(10)
H13 H 0.139(3) 0.630(3) 0.0642(9)
C16 C 0.3621(4) 0.5526(3) 0.01877(10)
H14 H 0.288(3) 0.496(3) -0.0084(9)
H15 H 0.412(4) 0.150(3) -0.0905(11)
loop_
_geom_bond_atom_site_label_1
_geom_bond_atom_site_label_2
_geom_bond_site_symmetry_1
_geom_bond_site_symmetry_2
O1 C1 1_555 1_555
O2 C2 1_555 1_555
O3 C4 1_555 1_555
O4 C9 1_555 1_555
O5 C10 1_555 1_555
N1 N2 1_555 1_555
N2 C8 1_555 1_555
N3 C9 1_555 1_555
C1 H1 1_555 1_555
C2 C1 1_555 1_555
H2 C2 1_555 1_555
C3 O2 1_555 1_555
H3 C3 1_555 1_555
C4 C3 1_555 1_555
C5 C4 1_555 1_555
H4 C5 1_555 1_555
C6 N1 1_555 1_555
H5 C6 1_555 1_555
C7 C5 1_555 1_555
H6 C7 1_555 1_555
H7 C7 1_555 1_555
C8 C7 1_555 1_555
H8 C8 1_555 1_555
H9 C8 1_555 1_555
C9 N2 1_555 1_555
C10 N1 1_555 1_555
C11 N3 1_555 1_555
C12 C11 1_555 1_555
H10 C12 1_555 1_555
C13 C12 1_555 1_555
H11 C13 1_555 1_555
C14 C13 1_555 1_555
H12 C14 1_555 1_555
C15 C14 1_555 1_555
H13 C15 1_555 1_555
C16 C11 1_555 1_555
H14 C16 1_555 1_555
H15 O1 1_555 1_555
N3 C10 1_555 1_555
C1 C6 1_555 1_555
C2 C3 1_555 1_555
C5 C6 1_555 1_555
C15 C16 1_555 1_555

#END
