
#######################################################################
#
#                 Cambridge Crystallographic Data Centre
#                                CCDC 
#
#######################################################################
#
# If this CIF has been generated from an entry in the Cambridge 
# Structural Database, then it will include bibliographic, chemical, 
# crystal, experimental, refinement or atomic coordinate data resulting 
# from the CCDC's data processing and validation procedures.
#
#######################################################################

data_DAPQET
_chemical_formula_moiety         'C99 H87 N1 O15,2(C1 H1 Cl3),C4 H10 O1'
_chemical_name_systematic        
"2,9,27-trimethoxy-11,25,33-trioxa-14,22,36-tris([1,1'-binaphthalene]-2,2'-bis(olato))-18-azahexacyclo[16.14.7.3^ 7,26^.1^6,10^.0^4,31^.0^29,41^]tritetraconta-1,3,6(43),7,9,26,28,31,40-nonaene-16,20,38-triol chloroform diethyl ether solvate"
_symmetry_cell_setting           monoclinic
_symmetry_space_group_name_H-M   'P 21'
_symmetry_Int_Tables_number      4
_space_group_name_Hall           'P 2yb'
loop_
_symmetry_equiv_pos_site_id
_symmetry_equiv_pos_as_xyz
1 x,y,z
2 -x,1/2+y,-z
_cell_length_a                   14.9424(6)
_cell_length_b                   17.5525(8)
_cell_length_c                   17.4344(7)
_cell_angle_alpha                90
_cell_angle_beta                 90.028(2)
_cell_angle_gamma                90
_cell_volume                     4572.63
_exptl_crystal_colour            colorless
_exptl_crystal_description       block
_cell_formula_units_Z            2
loop_
_atom_site_label
_atom_site_type_symbol
_atom_site_fract_x
_atom_site_fract_y
_atom_site_fract_z
N1 N 0.2527(2) 0.5738(2) 0.8261(2)
C1 C 0.1627(3) 0.5741(3) 0.7928(3)
H1 H 0.1529 0.6236 0.7669
H2 H 0.1184 0.5701 0.8349
C2 C 0.1453(4) 0.5100(3) 0.7353(3)
H3 H 0.1398 0.4613 0.7647
C3 C 0.2171(4) 0.4997(3) 0.6770(3)
H4 H 0.2754 0.4928 0.7031
H5 H 0.2049 0.4534 0.6463
C4 C 0.1863(3) 0.5615(3) 0.5546(3)
C5 C 0.1763(4) 0.4932(4) 0.5138(3)
H6 H 0.1934 0.4464 0.5370
C6 C 0.1427(5) 0.4930(4) 0.4423(4)
H7 H 0.1342 0.4458 0.4168
C7 C 0.1194(5) 0.5615(4) 0.4039(3)
C8 C 0.0832(7) 0.5624(6) 0.3283(4)
H8 H 0.0714 0.5158 0.3026
C9 C 0.0656(7) 0.6292(6) 0.2929(4)
H9 H 0.0413 0.6294 0.2426
C10 C 0.0832(5) 0.6989(5) 0.3310(4)
H10 H 0.0737 0.7455 0.3045
C11 C 0.1134(4) 0.7007(4) 0.4043(3)
H11 H 0.1216 0.7481 0.4296
C12 C 0.1330(4) 0.6309(3) 0.4435(3)
C13 C 0.1658(3) 0.6301(3) 0.5196(3)
C14 C 0.1757(3) 0.7038(3) 0.5622(3)
C15 C 0.2484(4) 0.7542(3) 0.5463(3)
C16 C 0.3155(4) 0.7358(4) 0.4917(4)
H12 H 0.3136 0.6875 0.4672
C17 C 0.3820(5) 0.7851(5) 0.4734(5)
H13 H 0.4257 0.7712 0.4363
C18 C 0.3864(5) 0.8568(6) 0.5095(5)
H14 H 0.4323 0.8917 0.4957
C19 C 0.3244(5) 0.8766(4) 0.5647(5)
H15 H 0.3290 0.9244 0.5900
C20 C 0.2532(4) 0.8258(3) 0.5840(4)
C21 C 0.1877(4) 0.8444(3) 0.6382(4)
H16 H 0.1915 0.8918 0.6644
C22 C 0.1186(4) 0.7962(3) 0.6543(3)
H17 H 0.0749 0.8097 0.6915
C23 C 0.1127(3) 0.7263(3) 0.6152(3)
C24 C -0.0451(4) 0.7027(3) 0.6351(3)
H18 H -0.0823 0.6752 0.5970
H19 H -0.0464 0.7576 0.6222
C25 C -0.0828(3) 0.6908(3) 0.7137(3)
H20 H -0.1487 0.6961 0.7130
H21 H -0.0675 0.6393 0.7328
C26 C -0.0311(3) 0.7331(3) 0.8382(3)
C27 C -0.0694(3) 0.6746(3) 0.8789(3)
H22 H -0.1103 0.6414 0.8539
C28 C -0.0492(3) 0.6627(3) 0.9571(3)
C29 C 0.0078(3) 0.7144(3) 0.9944(3)
C30 C 0.0420(3) 0.7758(3) 0.9519(3)
H23 H 0.0793 0.8116 0.9773
C31 C 0.0242(3) 0.7862(3) 0.8762(3)
C32 C 0.1212(4) 0.8937(3) 0.8627(4)
H24 H 0.0970 0.9218 0.9067
H25 H 0.1411 0.9299 0.8234
H26 H 0.1720 0.8626 0.8794
C33 C 0.0355(3) 0.7069(3) 1.0777(3)
H27 H 0.0383 0.7583 1.1010
H28 H -0.0106 0.6774 1.1056
O1 O 0.0609(2) 0.5244(2) 0.6992(2)
O2 O 0.2211(3) 0.5651(2) 0.6274(2)
O3 O 0.0450(2) 0.6753(2) 0.6315(2)
O4 O -0.0439(3) 0.7475(2) 0.7615(2)
O5 O 0.0531(3) 0.8455(2) 0.8315(2)
C34 C 0.2667(3) 0.6427(3) 0.8718(3)
H29 H 0.3244 0.6381 0.8994
H30 H 0.2187 0.6462 0.9108
C35 C 0.2675(3) 0.7156(3) 0.8255(3)
H31 H 0.2051 0.7259 0.8076
C36 C 0.3270(3) 0.7127(3) 0.7564(3)
H32 H 0.3084 0.6707 0.7220
H33 H 0.3233 0.7612 0.7276
C37 C 0.4844(3) 0.7493(3) 0.7630(3)
C38 C 0.4782(4) 0.7952(4) 0.6966(3)
H34 H 0.4262 0.7934 0.6653
C39 C 0.5474(4) 0.8420(4) 0.6779(3)
H35 H 0.5424 0.8739 0.6340
C40 C 0.6262(4) 0.8444(4) 0.7222(3)
C41 C 0.7002(4) 0.8915(4) 0.7016(4)
H36 H 0.6964 0.9231 0.6574
C42 C 0.7768(4) 0.8917(4) 0.7450(4)
H37 H 0.8257 0.9231 0.7307
C43 C 0.7828(4) 0.8460(4) 0.8097(4)
H38 H 0.8361 0.8464 0.8393
C44 C 0.7129(3) 0.8001(3) 0.8316(3)
H39 H 0.7184 0.7694 0.8762
C45 C 0.6324(3) 0.7982(3) 0.7881(3)
C46 C 0.5594(3) 0.7493(3) 0.8082(3)
C47 C 0.5667(3) 0.6979(3) 0.8768(3)
C48 C 0.6204(3) 0.6296(3) 0.8712(4)
C49 C 0.6640(4) 0.6090(4) 0.8030(5)
H40 H 0.6592 0.6406 0.7590
C50 C 0.7148(4) 0.5418(4) 0.7995(6)
H41 H 0.7444 0.5280 0.7534
C51 C 0.7216(4) 0.4954(4) 0.8644(6)
H42 H 0.7556 0.4497 0.8618
C52 C 0.6810(4) 0.5142(4) 0.9300(6)
H43 H 0.6870 0.4816 0.9732
C53 C 0.6287(3) 0.5823(3) 0.9365(4)
C54 C 0.5862(4) 0.6015(4) 1.0046(4)
H44 H 0.5928 0.5698 1.0484
C55 C 0.5350(4) 0.6656(4) 1.0091(4)
H45 H 0.5055 0.6780 1.0556
C56 C 0.5258(3) 0.7138(3) 0.9443(3)
C57 C 0.4554(4) 0.8160(3) 1.0172(3)
H46 H 0.4604 0.8717 1.0097
H47 H 0.5011 0.8005 1.0552
C58 C 0.3639(4) 0.7975(3) 1.0480(3)
H48 H 0.3487 0.8322 1.0907
H49 H 0.3184 0.8036 1.0071
C59 C 0.2858(3) 0.6818(3) 1.0839(3)
C60 C 0.2025(3) 0.7129(3) 1.0804(3)
H50 H 0.1965 0.7663 1.0729
C61 C 0.1252(3) 0.6682(3) 1.0877(3)
C62 C 0.1347(3) 0.5907(3) 1.1012(3)
C63 C 0.2210(3) 0.5596(3) 1.1083(3)
H51 H 0.2278 0.5071 1.1203
C64 C 0.2964(3) 0.6045(3) 1.0979(3)
C65 C 0.3943(4) 0.4986(4) 1.1176(4)
H52 H 0.3639 0.4860 1.1658
H53 H 0.4583 0.4873 1.1225
H54 H 0.3687 0.4683 1.0758
C66 C 0.0568(3) 0.5361(3) 1.1071(3)
H55 H 0.0031 0.5642 1.1246
H56 H 0.0707 0.4967 1.1460
O6 O 0.2944(3) 0.7770(2) 0.8740(3)
O7 O 0.4177(2) 0.7003(2) 0.7833(2)
O8 O 0.4725(2) 0.7779(2) 0.9457(2)
O9 O 0.3654(2) 0.7210(2) 1.0742(2)
O10 O 0.3827(2) 0.5774(2) 1.1014(2)
C67 C 0.2697(3) 0.5058(3) 0.8716(3)
H57 H 0.2473 0.4608 0.8433
H58 H 0.2357 0.5095 0.9202
C68 C 0.3689(4) 0.4941(3) 0.8902(3)
H59 H 0.3882 0.5363 0.9251
C69 C 0.4290(4) 0.4947(3) 0.8219(4)
H60 H 0.4221 0.5433 0.7936
H61 H 0.4921 0.4901 0.8384
C70 C 0.4656(3) 0.3735(3) 0.7604(3)
C71 C 0.5595(4) 0.3857(4) 0.7641(3)
H62 H 0.5823 0.4349 0.7756
C72 C 0.6167(4) 0.3270(5) 0.7511(4)
H63 H 0.6793 0.3362 0.7535
C73 C 0.5865(4) 0.2534(4) 0.7342(3)
C74 C 0.6459(5) 0.1925(6) 0.7221(4)
H64 H 0.7086 0.2004 0.7264
C75 C 0.6132(6) 0.1213(6) 0.7039(5)
H65 H 0.6537 0.0803 0.6964
C76 C 0.5209(6) 0.1088(5) 0.6964(5)
H66 H 0.4991 0.0596 0.6835
C77 C 0.4625(5) 0.1677(4) 0.7077(4)
H67 H 0.4001 0.1585 0.7029
C78 C 0.4926(4) 0.2422(4) 0.7264(3)
C79 C 0.4323(3) 0.3042(3) 0.7387(3)
C80 C 0.3344(3) 0.2951(3) 0.7223(3)
C81 C 0.3060(3) 0.2933(3) 0.6440(3)
C82 C 0.3653(4) 0.2998(4) 0.5820(4)
H68 H 0.4269 0.3086 0.5922
C83 C 0.3379(5) 0.2938(5) 0.5078(4)
H69 H 0.3805 0.2975 0.4675
C84 C 0.2474(5) 0.2824(4) 0.4904(4)
H70 H 0.2282 0.2787 0.4386
C85 C 0.1876(4) 0.2768(4) 0.5485(4)
H71 H 0.1261 0.2695 0.5365
C86 C 0.2133(4) 0.2814(3) 0.6263(3)
C87 C 0.1526(4) 0.2766(3) 0.6868(4)
H72 H 0.0908 0.2705 0.6757
C88 C 0.1792(3) 0.2803(3) 0.7610(4)
H73 H 0.1360 0.2778 0.8009
C89 C 0.2711(3) 0.2877(3) 0.7794(3)
C90 C 0.2518(4) 0.2560(3) 0.9142(4)
H74 H 0.2936 0.2275 0.9477
H75 H 0.2097 0.2188 0.8912
C91 C 0.2000(3) 0.3115(3) 0.9620(3)
H76 H 0.1767 0.2861 1.0087
H77 H 0.2388 0.3544 0.9779
C92 C 0.0779(3) 0.3981(3) 0.9418(3)
C93 C 0.0888(3) 0.4357(3) 1.0097(3)
H78 H 0.1341 0.4186 1.0438
C94 C 0.0368(3) 0.4979(3) 1.0313(3)
C95 C -0.0298(3) 0.5231(3) 0.9804(3)
C96 C -0.0426(3) 0.4834(3) 0.9118(3)
H79 H -0.0891 0.4992 0.8782
C97 C 0.0097(3) 0.4223(3) 0.8911(3)
C98 C -0.0670(4) 0.4014(3) 0.7733(3)
H80 H -0.1249 0.3897 0.7969
H81 H -0.0605 0.3723 0.7257
H82 H -0.0638 0.4560 0.7620
C99 C -0.0881(3) 0.5926(3) 0.9952(3)
H83 H -0.1490 0.5833 0.9750
H84 H -0.0928 0.6014 1.0511
O11 O 0.3782(3) 0.4236(2) 0.9313(3)
O12 O 0.4054(2) 0.4313(2) 0.7726(2)
O13 O 0.3015(2) 0.2922(2) 0.8542(2)
O14 O 0.1280(2) 0.3385(2) 0.91591(19)
O15 O 0.0033(2) 0.38136(19) 0.82488(19)
C100 C 0.4499(10) 0.5703(8) 0.5625(8)
H85 H 0.3974 0.6047 0.5706
Cl1 Cl 0.5168(8) 0.6067(6) 0.4972(7)
Cl2 Cl 0.5035(7) 0.5591(10) 0.6428(4)
Cl3 Cl 0.4155(5) 0.4856(6) 0.5394(9)
C102 C 0.1382(11) 0.0653(10) 0.6947(16)
H87 H 0.1075 0.1146 0.6967
H88 H 0.1123 0.0310 0.7331
H89 H 0.1310 0.0431 0.6435
C103 C 0.2304(12) 0.0758(11) 0.7103(13)
H90 H 0.2640 0.0860 0.6625
H91 H 0.2396 0.1190 0.7460
O16 O 0.2570(10) 0.0108(7) 0.7421(8)
C104 C 0.3043(13) 0.0159(9) 0.8087(11)
H92 H 0.2649 0.0111 0.8541
H93 H 0.3379 0.0644 0.8118
C105 C 0.3634(6) -0.0483(5) 0.8018(8)
H94 H 0.3351 -0.0933 0.8245
H95 H 0.4196 -0.0374 0.8287
H96 H 0.3758 -0.0579 0.7474
C111 C 0.9095(18) 0.4586(13) 0.559(2)
H108 H 0.9472 0.4776 0.6023
Cl10 Cl 0.9653(4) 0.3828(3) 0.5365(4)
Cl11 Cl 0.9169(6) 0.5315(4) 0.5015(6)
Cl12 Cl 0.8173(5) 0.4423(10) 0.6049(5)
C101? C 0.4989(13) 0.570(2) 0.5435(16)
H86? H 0.5139 0.5243 0.5756
Cl4? Cl 0.6005(6) 0.5693(5) 0.5070(6)
Cl5? Cl 0.4822(9) 0.6199(8) 0.6203(7)
Cl6? Cl 0.4212(7) 0.5206(5) 0.4990(5)
C106? C 0.1745(12) 0.0770(9) 0.6388(11)
H97? H 0.1297 0.1166 0.6289
H98? H 0.1507 0.0274 0.6231
H99? H 0.2289 0.0882 0.6095
C107? C 0.1963(17) 0.0753(16) 0.7228(14)
H100? H 0.2094 0.1270 0.7427
H101? H 0.1470 0.0525 0.7530
O17? O 0.2704(15) 0.0305(11) 0.7234(12)
C108? C 0.3128(18) 0.0359(16) 0.7925(13)
H102? H 0.3619 0.0737 0.7892
H103? H 0.3392 -0.0140 0.8063
C109? C 0.2480(10) 0.0597(9) 0.8525(10)
H104? H 0.2631 0.1110 0.8704
H105? H 0.2507 0.0240 0.8956
H106? H 0.1874 0.0597 0.8309
C110? C 0.8099(9) 0.4768(9) 0.5526(12)
H107? H 0.7913 0.4605 0.5000
Cl7? Cl 0.7810(6) 0.4068(3) 0.6223(4)
Cl8? Cl 0.9262(6) 0.4865(8) 0.5588(7)
Cl9? Cl 0.7593(6) 0.5650(4) 0.5781(5)
loop_
_geom_bond_atom_site_label_1
_geom_bond_atom_site_label_2
_geom_bond_site_symmetry_1
_geom_bond_site_symmetry_2
N1 C1 1_555 1_555
C1 H1 1_555 1_555
H2 C1 1_555 1_555
C2 C1 1_555 1_555
H3 C2 1_555 1_555
C3 C2 1_555 1_555
H4 C3 1_555 1_555
H5 C3 1_555 1_555
C4 C5 1_555 1_555
C5 H6 1_555 1_555
C6 C5 1_555 1_555
H7 C6 1_555 1_555
C7 C6 1_555 1_555
C8 C7 1_555 1_555
H8 C8 1_555 1_555
C9 C8 1_555 1_555
H9 C9 1_555 1_555
C10 C9 1_555 1_555
H10 C10 1_555 1_555
C11 C10 1_555 1_555
H11 C11 1_555 1_555
C12 C7 1_555 1_555
C13 C4 1_555 1_555
C14 C13 1_555 1_555
C15 C14 1_555 1_555
C16 C15 1_555 1_555
H12 C16 1_555 1_555
C17 C16 1_555 1_555
H13 C17 1_555 1_555
C18 C17 1_555 1_555
H14 C18 1_555 1_555
C19 C18 1_555 1_555
H15 C19 1_555 1_555
C20 C15 1_555 1_555
C21 C20 1_555 1_555
H16 C21 1_555 1_555
C22 C21 1_555 1_555
H17 C22 1_555 1_555
C23 C14 1_555 1_555
C24 H18 1_555 1_555
H19 C24 1_555 1_555
C25 C24 1_555 1_555
H20 C25 1_555 1_555
H21 C25 1_555 1_555
C26 C27 1_555 1_555
C27 H22 1_555 1_555
C28 C27 1_555 1_555
C29 C28 1_555 1_555
C30 C29 1_555 1_555
H23 C30 1_555 1_555
C31 C26 1_555 1_555
C32 H24 1_555 1_555
H25 C32 1_555 1_555
H26 C32 1_555 1_555
C33 C29 1_555 1_555
H27 C33 1_555 1_555
H28 C33 1_555 1_555
O1 C2 1_555 1_555
O2 C3 1_555 1_555
O3 C23 1_555 1_555
O4 C25 1_555 1_555
O5 C31 1_555 1_555
C34 N1 1_555 1_555
H29 C34 1_555 1_555
H30 C34 1_555 1_555
C35 C34 1_555 1_555
H31 C35 1_555 1_555
C36 C35 1_555 1_555
H32 C36 1_555 1_555
H33 C36 1_555 1_555
C37 C38 1_555 1_555
C38 H34 1_555 1_555
C39 C38 1_555 1_555
H35 C39 1_555 1_555
C40 C39 1_555 1_555
C41 C40 1_555 1_555
H36 C41 1_555 1_555
C42 C41 1_555 1_555
H37 C42 1_555 1_555
C43 C42 1_555 1_555
H38 C43 1_555 1_555
C44 C43 1_555 1_555
H39 C44 1_555 1_555
C45 C40 1_555 1_555
C46 C37 1_555 1_555
C47 C46 1_555 1_555
C48 C47 1_555 1_555
C49 C48 1_555 1_555
H40 C49 1_555 1_555
C50 C49 1_555 1_555
H41 C50 1_555 1_555
C51 C50 1_555 1_555
H42 C51 1_555 1_555
C52 C51 1_555 1_555
H43 C52 1_555 1_555
C53 C48 1_555 1_555
C54 C53 1_555 1_555
H44 C54 1_555 1_555
C55 C54 1_555 1_555
H45 C55 1_555 1_555
C56 C47 1_555 1_555
C57 H46 1_555 1_555
H47 C57 1_555 1_555
C58 C57 1_555 1_555
H48 C58 1_555 1_555
H49 C58 1_555 1_555
C59 C60 1_555 1_555
C60 H50 1_555 1_555
C61 C33 1_555 1_555
C62 C61 1_555 1_555
C63 C62 1_555 1_555
H51 C63 1_555 1_555
C64 C59 1_555 1_555
C65 H52 1_555 1_555
H53 C65 1_555 1_555
H54 C65 1_555 1_555
C66 C62 1_555 1_555
H55 C66 1_555 1_555
H56 C66 1_555 1_555
O6 C35 1_555 1_555
O7 C36 1_555 1_555
O8 C56 1_555 1_555
O9 C58 1_555 1_555
O10 C64 1_555 1_555
C67 N1 1_555 1_555
H57 C67 1_555 1_555
H58 C67 1_555 1_555
C68 C67 1_555 1_555
H59 C68 1_555 1_555
C69 C68 1_555 1_555
H60 C69 1_555 1_555
H61 C69 1_555 1_555
C70 C71 1_555 1_555
C71 H62 1_555 1_555
C72 C71 1_555 1_555
H63 C72 1_555 1_555
C73 C72 1_555 1_555
C74 C73 1_555 1_555
H64 C74 1_555 1_555
C75 C74 1_555 1_555
H65 C75 1_555 1_555
C76 C75 1_555 1_555
H66 C76 1_555 1_555
C77 C76 1_555 1_555
H67 C77 1_555 1_555
C78 C73 1_555 1_555
C79 C70 1_555 1_555
C80 C79 1_555 1_555
C81 C80 1_555 1_555
C82 C81 1_555 1_555
H68 C82 1_555 1_555
C83 C82 1_555 1_555
H69 C83 1_555 1_555
C84 C83 1_555 1_555
H70 C84 1_555 1_555
C85 C84 1_555 1_555
H71 C85 1_555 1_555
C86 C81 1_555 1_555
C87 C86 1_555 1_555
H72 C87 1_555 1_555
C88 C87 1_555 1_555
H73 C88 1_555 1_555
C89 C80 1_555 1_555
C90 H74 1_555 1_555
H75 C90 1_555 1_555
C91 C90 1_555 1_555
H76 C91 1_555 1_555
H77 C91 1_555 1_555
C92 C93 1_555 1_555
C93 H78 1_555 1_555
C94 C66 1_555 1_555
C95 C94 1_555 1_555
C96 C95 1_555 1_555
H79 C96 1_555 1_555
C97 C92 1_555 1_555
C98 H80 1_555 1_555
H81 C98 1_555 1_555
H82 C98 1_555 1_555
C99 C28 1_555 1_555
H83 C99 1_555 1_555
H84 C99 1_555 1_555
O11 C68 1_555 1_555
O12 C69 1_555 1_555
O13 C89 1_555 1_555
O14 C91 1_555 1_555
O15 C97 1_555 1_555
C100 H85 1_555 1_555
Cl1 C100 1_555 1_555
Cl2 C100 1_555 1_555
Cl3 C100 1_555 1_555
C102 H87 1_555 1_555
H88 C102 1_555 1_555
H89 C102 1_555 1_555
C103 C102 1_555 1_555
H90 C103 1_555 1_555
H91 C103 1_555 1_555
O16 C103 1_555 1_555
C104 O16 1_555 1_555
H92 C104 1_555 1_555
H93 C104 1_555 1_555
C105 C104 1_555 1_555
H94 C105 1_555 1_555
H95 C105 1_555 1_555
H96 C105 1_555 1_555
C111 H108 1_555 1_555
Cl10 C111 1_555 1_555
Cl11 C111 1_555 1_555
Cl12 C111 1_555 1_555
C4 O2 1_555 1_555
C11 C12 1_555 1_555
C12 C13 1_555 1_555
C19 C20 1_555 1_555
C22 C23 1_555 1_555
C24 O3 1_555 1_555
C26 O4 1_555 1_555
C30 C31 1_555 1_555
C32 O5 1_555 1_555
C37 O7 1_555 1_555
C44 C45 1_555 1_555
C45 C46 1_555 1_555
C52 C53 1_555 1_555
C55 C56 1_555 1_555
C57 O8 1_555 1_555
C59 O9 1_555 1_555
C60 C61 1_555 1_555
C63 C64 1_555 1_555
C65 O10 1_555 1_555
C70 O12 1_555 1_555
C77 C78 1_555 1_555
C78 C79 1_555 1_555
C85 C86 1_555 1_555
C88 C89 1_555 1_555
C90 O13 1_555 1_555
C92 O14 1_555 1_555
C93 C94 1_555 1_555
C95 C99 1_555 1_555
C96 C97 1_555 1_555
C98 O15 1_555 1_555

#END
