
#######################################################################
#
#                 Cambridge Crystallographic Data Centre
#                                CCDC 
#
#######################################################################
#
# If this CIF has been generated from an entry in the Cambridge 
# Structural Database, then it will include bibliographic, chemical, 
# crystal, experimental, refinement or atomic coordinate data resulting 
# from the CCDC's data processing and validation procedures.
#
#######################################################################

data_DAPRAO
_chemical_formula_moiety         'C14 H15 N1 O5,C1 H2 Cl2'
_chemical_name_systematic        
'2-Ethyl-8-hydroxy-3a,6a,7a,8,8a,8b-hexahydro-1H-benzoxireno(3,4-e)isoindole-1,3,6(2H,4H)-trione dichloromethane solvate'
_symmetry_cell_setting           monoclinic
_symmetry_space_group_name_H-M   'P 21/c'
_symmetry_Int_Tables_number      14
_space_group_name_Hall           '-P 2ybc'
loop_
_symmetry_equiv_pos_site_id
_symmetry_equiv_pos_as_xyz
1 x,y,z
2 -x,1/2+y,1/2-z
3 -x,-y,-z
4 x,1/2-y,1/2+z
_cell_length_a                   13.2845(6)
_cell_length_b                   7.8086(4)
_cell_length_c                   15.4619(7)
_cell_angle_alpha                90
_cell_angle_beta                 101.8200(10)
_cell_angle_gamma                90
_cell_volume                     1569.91
_exptl_crystal_colour            colorless
_exptl_crystal_description       block
_cell_formula_units_Z            4
loop_
_atom_site_label
_atom_site_type_symbol
_atom_site_fract_x
_atom_site_fract_y
_atom_site_fract_z
O1 O 0.08171(12) 0.78710(19) 0.96916(10)
H1 H 0.097(3) 0.699(4) 0.996(2)
O2 O 0.05741(11) 0.96552(18) 0.77805(10)
O3 O -0.16878(14) 0.8161(2) 0.64149(10)
O4 O -0.42016(12) 0.8437(2) 0.94437(11)
O5 O -0.14353(12) 0.50731(18) 0.93565(11)
N1 N -0.29513(13) 0.6443(2) 0.93773(11)
C1 C 0.01181(15) 0.7566(2) 0.88724(13)
H2 H -0.0057(18) 0.635(3) 0.8830(15)
C2 C 0.06383(16) 0.7927(2) 0.81174(15)
H3 H 0.126(2) 0.737(3) 0.8160(17)
C3 C 0.00248(17) 0.8298(3) 0.72337(14)
H4 H 0.028(2) 0.798(3) 0.668(2)
C4 C -0.11214(17) 0.8408(2) 0.71298(13)
C5 C -0.14912(15) 0.8923(2) 0.79302(12)
C6 C -0.23774(15) 0.9766(2) 0.78571(13)
H5 H -0.284(2) 0.995(3) 0.7297(18)
C7 C -0.26741(16) 1.0542(3) 0.86559(13)
H6 H -0.2313(18) 1.167(3) 0.8808(15)
H7 H -0.336(2) 1.091(3) 0.8555(17)
C8 C -0.24352(15) 0.9342(3) 0.94671(13)
H8 H -0.242(2) 1.002(3) 0.9977(17)
C9 C -0.14781(15) 0.8207(2) 0.95122(12)
H9 H -0.105(2) 0.823(3) 1.0100(17)
C10 C -0.08160(14) 0.8727(2) 0.88437(11)
H10 H -0.0558(15) 0.980(3) 0.9029(13)
C11 C -0.33166(16) 0.8094(3) 0.94335(13)
C12 C -0.19120(15) 0.6393(2) 0.93992(12)
C13 C -0.36072(18) 0.4927(3) 0.93265(14)
H11 H -0.332(2) 0.416(4) 0.8989(18)
H12 H -0.426(2) 0.536(3) 0.9019(16)
C14 C -0.3590(2) 0.4154(4) 1.02304(17)
H13 H -0.288(3) 0.375(4) 1.052(2)
H14 H -0.412(2) 0.322(3) 1.0152(18)
H15 H -0.385(3) 0.516(6) 1.058(3)
Cl1 Cl 0.32545(7) -0.09236(12) 0.79082(5)
Cl2 Cl 0.45399(5) 0.20792(8) 0.78125(5)
C15 C 0.3848(2) 0.0879(4) 0.84705(17)
H16 H 0.429(2) 0.043(4) 0.896(2)
H17 H 0.334(3) 0.163(5) 0.860(2)
loop_
_geom_bond_atom_site_label_1
_geom_bond_atom_site_label_2
_geom_bond_site_symmetry_1
_geom_bond_site_symmetry_2
O1 H1 1_555 1_555
O2 C2 1_555 1_555
O3 C4 1_555 1_555
O4 C11 1_555 1_555
O5 C12 1_555 1_555
N1 C11 1_555 1_555
C1 O1 1_555 1_555
H2 C1 1_555 1_555
C2 C1 1_555 1_555
H3 C2 1_555 1_555
C3 O2 1_555 1_555
H4 C3 1_555 1_555
C4 C3 1_555 1_555
C5 C4 1_555 1_555
C6 C5 1_555 1_555
H5 C6 1_555 1_555
C7 C6 1_555 1_555
H6 C7 1_555 1_555
H7 C7 1_555 1_555
C8 C7 1_555 1_555
H8 C8 1_555 1_555
C9 C8 1_555 1_555
H9 C9 1_555 1_555
C10 C1 1_555 1_555
H10 C10 1_555 1_555
C11 C8 1_555 1_555
C12 N1 1_555 1_555
C13 N1 1_555 1_555
H11 C13 1_555 1_555
H12 C13 1_555 1_555
C14 C13 1_555 1_555
H13 C14 1_555 1_555
H14 C14 1_555 1_555
H15 C14 1_555 1_555
Cl1 C15 1_555 1_555
Cl2 C15 1_555 1_555
C15 H16 1_555 1_555
H17 C15 1_555 1_555
C2 C3 1_555 1_555
C5 C10 1_555 1_555
C9 C10 1_555 1_555
C9 C12 1_555 1_555

#END
