
#######################################################################
#
#                 Cambridge Crystallographic Data Centre
#                                CCDC 
#
#######################################################################
#
# If this CIF has been generated from an entry in the Cambridge 
# Structural Database, then it will include bibliographic, chemical, 
# crystal, experimental, refinement or atomic coordinate data resulting 
# from the CCDC's data processing and validation procedures.
#
#######################################################################

data_DAPVIZ
_chemical_formula_moiety         'C18 H20 O7'
_chemical_name_systematic        
3,4,6-Tri-O-acetyl-2-deoxy-\a-D-threo-hexeno-pyranosyl-benzene
_symmetry_cell_setting           orthorhombic
_symmetry_space_group_name_H-M   'P 21 21 21'
_symmetry_Int_Tables_number      19
_space_group_name_Hall           'P 2ac 2ab'
loop_
_symmetry_equiv_pos_site_id
_symmetry_equiv_pos_as_xyz
1 x,y,z
2 1/2+x,1/2-y,-z
3 -x,1/2+y,1/2-z
4 1/2-x,-y,1/2+z
_cell_length_a                   22.946(10)
_cell_length_b                   10.319(6)
_cell_length_c                   7.684(4)
_cell_angle_alpha                90
_cell_angle_beta                 90
_cell_angle_gamma                90
_cell_volume                     1819.42
_cell_formula_units_Z            4
loop_
_atom_site_label
_atom_site_type_symbol
_atom_site_fract_x
_atom_site_fract_y
_atom_site_fract_z
C1 C 0.3805(3) 0.5483(7) -0.5108(9)
C2 C 0.3342(3) 0.4478(7) -0.5281(9)
C3 C 0.3215(3) 0.3693(6) -0.3999(10)
C4 C 0.3502(3) 0.3722(7) -0.2265(9)
C5 C 0.3858(3) 0.4964(7) -0.2114(9)
C6 C 0.4286(3) 0.4920(7) -0.0620(10)
C7 C 0.3585(3) 0.6850(7) -0.4965(10)
C8 C 0.3977(4) 0.7874(8) -0.5220(12)
C9 C 0.3795(5) 0.9128(8) -0.5040(16)
C10 C 0.3222(5) 0.9428(8) -0.4626(16)
C11 C 0.2833(4) 0.8440(9) -0.4375(15)
C12 C 0.3013(3) 0.7139(8) -0.4544(12)
C13 C 0.2220(3) 0.3036(7) -0.4179(10)
C14 C 0.1849(4) 0.1881(8) -0.4435(13)
C15 C 0.3885(4) 0.1916(8) -0.0656(13)
C16 C 0.4293(4) 0.0778(8) -0.0825(14)
C17 C 0.4884(3) 0.6391(7) 0.0903(10)
C18 C 0.5151(14) 0.7714(8) 0.0896(13)
O1 O 0.2798(2) 0.2688(4) -0.4161(8)
O2 O 0.3874(2) 0.2576(4) -0.2183(6)
O3 O 0.4186(2) 0.5170(5) -0.3640(6)
O4 O 0.4531(2) 0.6205(5) -0.0505(7)
O5 O 0.2070(2) 0.4125(5) -0.4039(8)
O6 O 0.3613(3) 0.2244(8) 0.0637(9)
O7 O 0.4971(3) 0.5574(6) 0.1932(7)
H1 H 0.405(3) 0.542(7) -0.642(9)
H2 H 0.311(3) 0.445(7) -0.664(9)
H3 H 0.324(3) 0.367(6) -0.166(8)
H4 H 0.356(3) 0.563(6) -0.211(8)
H5 H 0.465(3) 0.419(6) -0.090(10)
H6 H 0.410(3) 0.472(6) 0.069(9)
H7 H 0.442(3) 0.770(7) -0.555(10)
H8 H 0.404(3) 0.993(8) -0.462(11)
H9 H 0.308(3) 1.041(8) -0.435(12)
H10 H 0.242(3) 0.869(8) -0.360(11)
H11 H 0.274(3) 0.640(7) -0.440(10)
H12 H 0.147(3) 0.205(7) -0.420(10)
H13 H 0.196(3) 0.143(7) -0.567(10)
H14 H 0.190(3) 0.121(8) -0.345(10)
H15 H 0.413(3) 0.010(8) -0.197(10)
H16 H 0.471(3) 0.109(8) -0.164(11)
H17 H 0.432(3) 0.043(8) 0.010(11)
H18 H 0.508(3) 0.829(7) 0.010(10)
H19 H 0.554(3) 0.760(7) 0.126(10)
H20 H 0.504(4) 0.806(7) 0.233(11)
loop_
_geom_bond_atom_site_label_1
_geom_bond_atom_site_label_2
_geom_bond_site_symmetry_1
_geom_bond_site_symmetry_2
C1 C2 1_555 1_555
C2 C3 1_555 1_555
C3 C4 1_555 1_555
C4 C5 1_555 1_555
C5 C6 1_555 1_555
C6 O4 1_555 1_555
C7 C1 1_555 1_555
C8 C7 1_555 1_555
C9 C8 1_555 1_555
C10 C9 1_555 1_555
C11 C10 1_555 1_555
C12 C7 1_555 1_555
C13 C14 1_555 1_555
C14 H12 1_555 1_555
C15 C16 1_555 1_555
C16 H15 1_555 1_555
C17 C18 1_555 1_555
C18 H18 1_555 1_555
O1 C3 1_555 1_555
O2 C4 1_555 1_555
O3 C1 1_555 1_555
O4 C17 1_555 1_555
O5 C13 1_555 1_555
O6 C15 1_555 1_555
O7 C17 1_555 1_555
H1 C1 1_555 1_555
H2 C2 1_555 1_555
H3 C4 1_555 1_555
H4 C5 1_555 1_555
H5 C6 1_555 1_555
H6 C6 1_555 1_555
H7 C8 1_555 1_555
H8 C9 1_555 1_555
H9 C10 1_555 1_555
H10 C11 1_555 1_555
H11 C12 1_555 1_555
H13 C14 1_555 1_555
H14 C14 1_555 1_555
H16 C16 1_555 1_555
H17 C16 1_555 1_555
H19 C18 1_555 1_555
H20 C18 1_555 1_555
C5 O3 1_555 1_555
C11 C12 1_555 1_555
C13 O1 1_555 1_555
C15 O2 1_555 1_555

#END
