
#######################################################################
#
#                 Cambridge Crystallographic Data Centre
#                                CCDC 
#
#######################################################################
#
# If this CIF has been generated from an entry in the Cambridge 
# Structural Database, then it will include bibliographic, chemical, 
# crystal, experimental, refinement or atomic coordinate data resulting 
# from the CCDC's data processing and validation procedures.
#
#######################################################################

data_DAQBII
_chemical_formula_moiety         'C58 H82 N4,C6 H14'
_chemical_name_systematic        
'N-(3,4-bis(N-(2,6-Di-isopropylphenyl)ethanimidoyl)-5-((2,6-di-isopropylphenyl)imino)hexan-2-ylidene)-2,6-di-isopropylaniline n-hexane solvate'
_symmetry_cell_setting           triclinic
_symmetry_space_group_name_H-M   'P -1'
_symmetry_Int_Tables_number      2
_space_group_name_Hall           '-P 1'
loop_
_symmetry_equiv_pos_site_id
_symmetry_equiv_pos_as_xyz
1 x,y,z
2 -x,-y,-z
_cell_length_a                   9.3421(10)
_cell_length_b                   11.6601(14)
_cell_length_c                   13.6945(17)
_cell_angle_alpha                98.348(4)
_cell_angle_beta                 97.568(4)
_cell_angle_gamma                92.448(3)
_cell_volume                     1460.17
_exptl_crystal_colour            colorless
_exptl_crystal_description       block
_cell_formula_units_Z            1
loop_
_atom_site_label
_atom_site_type_symbol
_atom_site_fract_x
_atom_site_fract_y
_atom_site_fract_z
N1 N 0.36455(16) -0.08256(14) 0.29084(10)
N2 N 0.62862(15) -0.16955(13) 0.54863(10)
C1 C 0.6146(2) 0.00679(18) 0.32839(13)
H1 H 0.6047 0.0136 0.2581
H2 H 0.6392 0.0828 0.3678
H3 H 0.6905 -0.0447 0.3437
C2 C 0.47410(18) -0.04187(15) 0.35257(12)
C3 C 0.46468(18) -0.05138(16) 0.46266(12)
H4 H 0.3604 -0.0539 0.4694
C4 C 0.51786(18) -0.16875(15) 0.48384(12)
C5 C 0.4336(2) -0.27498(17) 0.42579(14)
H5 H 0.3449 -0.2874 0.4536
H6 H 0.4103 -0.2643 0.3567
H7 H 0.4912 -0.3419 0.4296
C6 C 0.3546(2) -0.08035(17) 0.18619(13)
C7 C 0.4314(2) -0.15314(19) 0.12365(14)
C8 C 0.4056(2) -0.1492(2) 0.02130(15)
H8 H 0.4563 -0.1970 -0.0218
C9 C 0.3083(3) -0.0775(2) -0.01789(15)
H9 H 0.2941 -0.0756 -0.0869
C10 C 0.2312(2) -0.0078(2) 0.04441(15)
H10 H 0.1644 0.0410 0.0171
C11 C 0.2509(2) -0.00901(18) 0.14633(14)
C12 C 0.5338(2) -0.2395(2) 0.16084(15)
H11 H 0.5532 -0.2203 0.2344
C13 C 0.4629(4) -0.3632(2) 0.1356(2)
H12 H 0.4393 -0.3836 0.0638
H13 H 0.5294 -0.4172 0.1608
H14 H 0.3751 -0.3671 0.1661
C14 C 0.6787(3) -0.2338(3) 0.1216(2)
H15 H 0.7215 -0.1549 0.1374
H16 H 0.7428 -0.2856 0.1524
H17 H 0.6639 -0.2572 0.0499
C15 C 0.1579(2) 0.0601(2) 0.21406(15)
H18 H 0.2199 0.0884 0.2781
C16 C 0.0370(3) -0.0197(3) 0.2356(2)
H19 H 0.0783 -0.0828 0.2665
H20 H -0.0204 0.0238 0.2804
H21 H -0.0239 -0.0511 0.1738
C17 C 0.0964(3) 0.1653(2) 0.17423(19)
H22 H 0.0237 0.1398 0.1168
H23 H 0.0526 0.2117 0.2257
H24 H 0.1735 0.2116 0.1547
C18 C 0.68759(19) -0.27406(16) 0.57438(13)
C19 C 0.6198(2) -0.34418(17) 0.63246(13)
C20 C 0.6949(2) -0.43572(18) 0.66467(15)
H25 H 0.6523 -0.4824 0.7048
C21 C 0.8297(3) -0.4597(2) 0.63930(17)
H26 H 0.8772 -0.5228 0.6611
C22 C 0.8944(2) -0.3907(2) 0.58194(17)
H27 H 0.9859 -0.4079 0.5644
C23 C 0.8271(2) -0.29594(18) 0.54930(15)
C24 C 0.4727(2) -0.32129(17) 0.66469(14)
H28 H 0.4315 -0.2600 0.6285
C25 C 0.3670(2) -0.4286(2) 0.63780(17)
H29 H 0.2732 -0.4088 0.6559
H30 H 0.3576 -0.4555 0.5667
H31 H 0.4032 -0.4896 0.6738
C26 C 0.4867(3) -0.2757(2) 0.77626(15)
H32 H 0.5294 -0.3332 0.8137
H33 H 0.5480 -0.2043 0.7913
H34 H 0.3917 -0.2606 0.7945
C27 C 0.8967(2) -0.2197(2) 0.48581(18)
H35 H 0.8580 -0.1419 0.4978
C28 C 1.0625(3) -0.2040(3) 0.5122(3)
H36 H 1.0998 -0.1462 0.4762
H37 H 1.0877 -0.1787 0.5833
H38 H 1.1045 -0.2774 0.4938
C29 C 0.8540(3) -0.2677(3) 0.3767(2)
H39 H 0.7493 -0.2740 0.3612
H40 H 0.8940 -0.2160 0.3363
H41 H 0.8911 -0.3438 0.3627
N1A N 0.63545(16) 0.08256(14) 0.70916(10)
N2A N 0.37138(15) 0.16955(13) 0.45137(10)
C1A C 0.3854(2) -0.00679(18) 0.67161(13)
H1A H 0.3953 -0.0136 0.7419
H2A H 0.3608 -0.0828 0.6322
H3A H 0.3095 0.0447 0.6563
C2A C 0.52590(18) 0.04187(15) 0.64743(12)
C3A C 0.53532(18) 0.05138(16) 0.53734(12)
H4A H 0.6396 0.0539 0.5306
C4A C 0.48214(18) 0.16875(15) 0.51616(12)
C5A C 0.5664(2) 0.27498(17) 0.57421(14)
H5A H 0.6551 0.2874 0.5464
H6A H 0.5897 0.2643 0.6433
H7A H 0.5088 0.3419 0.5704
C6A C 0.6454(2) 0.08035(17) 0.81381(13)
C7A C 0.5686(2) 0.15314(19) 0.87635(14)
C8A C 0.5944(2) 0.1492(2) 0.97870(15)
H8A H 0.5437 0.1970 1.0218
C9A C 0.6917(3) 0.0775(2) 1.01789(15)
H9A H 0.7059 0.0756 1.0869
C10A C 0.7688(2) 0.0078(2) 0.95559(15)
H10A H 0.8356 -0.0410 0.9829
C11A C 0.7491(2) 0.00901(18) 0.85367(14)
C12A C 0.4662(2) 0.2395(2) 0.83916(15)
H11A H 0.4468 0.2203 0.7656
C13A C 0.5371(4) 0.3632(2) 0.8644(2)
H12A H 0.5607 0.3836 0.9362
H13A H 0.4706 0.4172 0.8392
H14A H 0.6249 0.3671 0.8339
C14A C 0.3213(3) 0.2338(3) 0.8784(2)
H15A H 0.2785 0.1549 0.8626
H16A H 0.2572 0.2856 0.8476
H17A H 0.3361 0.2572 0.9501
C15A C 0.8421(2) -0.0601(2) 0.78594(15)
H18A H 0.7801 -0.0884 0.7219
C16A C 0.9630(3) 0.0197(3) 0.7644(2)
H19A H 0.9217 0.0828 0.7335
H20A H 1.0204 -0.0238 0.7196
H21A H 1.0239 0.0511 0.8262
C17A C 0.9036(3) -0.1653(2) 0.82577(19)
H22A H 0.9763 -0.1398 0.8832
H23A H 0.9474 -0.2117 0.7743
H24A H 0.8265 -0.2116 0.8453
C18A C 0.31241(19) 0.27406(16) 0.42562(13)
C19A C 0.3802(2) 0.34418(17) 0.36754(13)
C20A C 0.3051(2) 0.43572(18) 0.33533(15)
H25A H 0.3477 0.4824 0.2952
C21A C 0.1703(3) 0.4597(2) 0.36070(17)
H26A H 0.1228 0.5228 0.3389
C22A C 0.1056(2) 0.3907(2) 0.41806(17)
H27A H 0.0141 0.4079 0.4356
C23A C 0.1729(2) 0.29594(18) 0.45070(15)
C24A C 0.5273(2) 0.32129(17) 0.33531(14)
H28A H 0.5685 0.2600 0.3715
C25A C 0.6330(2) 0.4286(2) 0.36220(17)
H29A H 0.7268 0.4088 0.3441
H30A H 0.6424 0.4555 0.4333
H31A H 0.5968 0.4896 0.3262
C26A C 0.5133(3) 0.2757(2) 0.22374(15)
H32A H 0.4706 0.3332 0.1863
H33A H 0.4520 0.2043 0.2087
H34A H 0.6083 0.2606 0.2055
C27A C 0.1033(2) 0.2197(2) 0.51419(18)
H35A H 0.1420 0.1419 0.5022
C28A C -0.0625(3) 0.2040(3) 0.4878(3)
H36A H -0.0998 0.1462 0.5238
H37A H -0.0877 0.1787 0.4167
H38A H -0.1045 0.2774 0.5062
C29A C 0.1460(3) 0.2677(3) 0.6233(2)
H39A H 0.2507 0.2740 0.6388
H40A H 0.1060 0.2160 0.6637
H41A H 0.1089 0.3438 0.6373
C30? C -0.0249(14) 0.4470(11) -0.0281(9)
C31? C -0.0491(15) 0.4754(13) 0.0812(10)
C32? C 0.0150(14) 0.5938(12) 0.1191(10)
C33? C 0.0582(11) 0.6580(9) 0.0464(7)
C34? C 0.0738(19) 0.5677(16) -0.0382(12)
C35? C -0.1331(10) 0.4301(9) 0.1304(7)
loop_
_geom_bond_atom_site_label_1
_geom_bond_atom_site_label_2
_geom_bond_site_symmetry_1
_geom_bond_site_symmetry_2
N1 C2 1_555 1_555
N2 C4 1_555 1_555
C1 H1 1_555 1_555
H2 C1 1_555 1_555
H3 C1 1_555 1_555
C2 C1 1_555 1_555
C3 C2 1_555 1_555
H4 C3 1_555 1_555
C4 C3 1_555 1_555
C5 C4 1_555 1_555
H5 C5 1_555 1_555
H6 C5 1_555 1_555
H7 C5 1_555 1_555
C6 N1 1_555 1_555
C7 C6 1_555 1_555
C8 C7 1_555 1_555
H8 C8 1_555 1_555
C9 C8 1_555 1_555
H9 C9 1_555 1_555
C10 C9 1_555 1_555
H10 C10 1_555 1_555
C11 C6 1_555 1_555
C12 C7 1_555 1_555
H11 C12 1_555 1_555
C13 C12 1_555 1_555
H12 C13 1_555 1_555
H13 C13 1_555 1_555
H14 C13 1_555 1_555
C14 C12 1_555 1_555
H15 C14 1_555 1_555
H16 C14 1_555 1_555
H17 C14 1_555 1_555
C15 C11 1_555 1_555
H18 C15 1_555 1_555
C16 C15 1_555 1_555
H19 C16 1_555 1_555
H20 C16 1_555 1_555
H21 C16 1_555 1_555
C17 C15 1_555 1_555
H22 C17 1_555 1_555
H23 C17 1_555 1_555
H24 C17 1_555 1_555
C18 N2 1_555 1_555
C19 C18 1_555 1_555
C20 C19 1_555 1_555
H25 C20 1_555 1_555
C21 C20 1_555 1_555
H26 C21 1_555 1_555
C22 C21 1_555 1_555
H27 C22 1_555 1_555
C23 C18 1_555 1_555
C24 C19 1_555 1_555
H28 C24 1_555 1_555
C25 C24 1_555 1_555
H29 C25 1_555 1_555
H30 C25 1_555 1_555
H31 C25 1_555 1_555
C26 C24 1_555 1_555
H32 C26 1_555 1_555
H33 C26 1_555 1_555
H34 C26 1_555 1_555
C27 C23 1_555 1_555
H35 C27 1_555 1_555
C28 C27 1_555 1_555
H36 C28 1_555 1_555
H37 C28 1_555 1_555
H38 C28 1_555 1_555
C29 C27 1_555 1_555
H39 C29 1_555 1_555
H40 C29 1_555 1_555
H41 C29 1_555 1_555
N1A C2A 1_555 1_555
N2A C4A 1_555 1_555
C1A H1A 1_555 1_555
H2A C1A 1_555 1_555
H3A C1A 1_555 1_555
C2A C1A 1_555 1_555
C3A C3 1_555 1_555
H4A C3A 1_555 1_555
C4A C3A 1_555 1_555
C5A C4A 1_555 1_555
H5A C5A 1_555 1_555
H6A C5A 1_555 1_555
H7A C5A 1_555 1_555
C6A N1A 1_555 1_555
C7A C6A 1_555 1_555
C8A C7A 1_555 1_555
H8A C8A 1_555 1_555
C9A C8A 1_555 1_555
H9A C9A 1_555 1_555
C10A C9A 1_555 1_555
H10A C10A 1_555 1_555
C11A C6A 1_555 1_555
C12A C7A 1_555 1_555
H11A C12A 1_555 1_555
C13A C12A 1_555 1_555
H12A C13A 1_555 1_555
H13A C13A 1_555 1_555
H14A C13A 1_555 1_555
C14A C12A 1_555 1_555
H15A C14A 1_555 1_555
H16A C14A 1_555 1_555
H17A C14A 1_555 1_555
C15A C11A 1_555 1_555
H18A C15A 1_555 1_555
C16A C15A 1_555 1_555
H19A C16A 1_555 1_555
H20A C16A 1_555 1_555
H21A C16A 1_555 1_555
C17A C15A 1_555 1_555
H22A C17A 1_555 1_555
H23A C17A 1_555 1_555
H24A C17A 1_555 1_555
C18A N2A 1_555 1_555
C19A C18A 1_555 1_555
C20A C19A 1_555 1_555
H25A C20A 1_555 1_555
C21A C20A 1_555 1_555
H26A C21A 1_555 1_555
C22A C21A 1_555 1_555
H27A C22A 1_555 1_555
C23A C18A 1_555 1_555
C24A C19A 1_555 1_555
H28A C24A 1_555 1_555
C25A C24A 1_555 1_555
H29A C25A 1_555 1_555
H30A C25A 1_555 1_555
H31A C25A 1_555 1_555
C26A C24A 1_555 1_555
H32A C26A 1_555 1_555
H33A C26A 1_555 1_555
H34A C26A 1_555 1_555
C27A C23A 1_555 1_555
H35A C27A 1_555 1_555
C28A C27A 1_555 1_555
H36A C28A 1_555 1_555
H37A C28A 1_555 1_555
H38A C28A 1_555 1_555
C29A C27A 1_555 1_555
H39A C29A 1_555 1_555
H40A C29A 1_555 1_555
H41A C29A 1_555 1_555
C10 C11 1_555 1_555
C22 C23 1_555 1_555
C2A C3A 1_555 1_555
C10A C11A 1_555 1_555
C22A C23A 1_555 1_555

#END
