
#######################################################################
#
#                 Cambridge Crystallographic Data Centre
#                                CCDC 
#
#######################################################################
#
# If this CIF has been generated from an entry in the Cambridge 
# Structural Database, then it will include bibliographic, chemical, 
# crystal, experimental, refinement or atomic coordinate data resulting 
# from the CCDC's data processing and validation procedures.
#
#######################################################################

data_DAQBUV
_chemical_formula_moiety         'C19 H26 Cl1 N3 O3'
_chemical_name_systematic        
5-chloro-1-(2,2-dimethylpropanoyl)-N-ethyl-N-(ethylcarbamoyl)-2,3-dihydro-1H-indole-7-carboxamide
_symmetry_cell_setting           monoclinic
_symmetry_space_group_name_H-M   'P 21/n'
_symmetry_Int_Tables_number      14
_space_group_name_Hall           '-P 2yn'
loop_
_symmetry_equiv_pos_site_id
_symmetry_equiv_pos_as_xyz
1 x,y,z
2 1/2-x,1/2+y,1/2-z
3 -x,-y,-z
4 1/2+x,1/2-y,1/2+z
_cell_length_a                   15.6987(3)
_cell_length_b                   8.0968(2)
_cell_length_c                   15.8640(3)
_cell_angle_alpha                90
_cell_angle_beta                 101.5925(10)
_cell_angle_gamma                90
_cell_volume                     1975.33
_exptl_crystal_colour            colorless
_exptl_crystal_description       block
_cell_formula_units_Z            4
loop_
_atom_site_label
_atom_site_type_symbol
_atom_site_fract_x
_atom_site_fract_y
_atom_site_fract_z
C1 C 0.94635(13) 0.2836(3) 0.92894(13)
C2 C 0.89663(13) 0.4262(3) 0.91464(13)
H1 H 0.8835 0.4878 0.9614
C3 C 0.86678(12) 0.4764(3) 0.83095(13)
C4 C 0.88479(12) 0.3838(3) 0.76177(12)
C5 C 0.93273(12) 0.2382(2) 0.77606(13)
C6 C 0.96455(13) 0.1904(3) 0.86156(13)
H2 H 0.9989 0.0933 0.8733
C7 C 0.81447(14) 0.6262(3) 0.79652(14)
H3 H 0.8515 0.7261 0.8012
H4 H 0.7665 0.6455 0.8274
C8 C 0.77950(14) 0.5800(3) 0.70220(15)
H5 H 0.7205 0.5318 0.6947
H6 H 0.7773 0.6779 0.6645
C9 C 0.94156(13) 0.1162(3) 0.70692(13)
N1 N 1.02326(12) 0.0609(3) 0.70412(12)
C10 C 1.0284(3) -0.2342(5) 0.7158(3)
H7 H 1.0782 -0.2287 0.7641
H8 H 1.0303 -0.3381 0.6846
H9 H 0.9743 -0.2287 0.7376
C11 C 1.10219(14) 0.1367(3) 0.74723(13)
C12 C 1.17632(16) 0.3986(4) 0.78415(19)
H10 H 1.1821 0.4996 0.7505
H11 H 1.2312 0.3354 0.7899
C13 C 1.1643(2) 0.4467(5) 0.8699(2)
H12 H 1.1135 0.5193 0.8646
H13 H 1.2162 0.5053 0.9001
H14 H 1.1552 0.3477 0.9025
C14 C 0.87614(13) 0.4450(3) 0.60890(13)
C15 C 0.82041(14) 0.4972(3) 0.52145(14)
C16 C 0.85003(17) 0.3888(4) 0.45374(16)
H15 H 0.9118 0.4088 0.4547
H16 H 0.8159 0.4158 0.3967
H17 H 0.8414 0.2723 0.4665
C17 C 0.72288(15) 0.4671(4) 0.51587(16)
H18 H 0.6932 0.4631 0.4553
H19 H 0.6986 0.5571 0.5450
H20 H 0.7146 0.3620 0.5437
C18 C 0.8412(3) 0.6767(4) 0.5034(2)
H21 H 0.9032 0.6869 0.5025
H22 H 0.8270 0.7478 0.5487
H23 H 0.8067 0.7103 0.4476
Cl1 Cl 0.98598(4) 0.21840(7) 1.03421(3)
N2 N 0.84299(11) 0.4558(2) 0.68256(11)
C19 C 1.03202(18) -0.0919(3) 0.65619(17)
H24 H 1.0880 -0.0922 0.6365
H25 H 0.9842 -0.1002 0.6051
N3 N 1.10496(12) 0.2988(3) 0.73694(12)
H26 H 1.0627 0.3477 0.7007
O1 O 0.87638(10) 0.0566(2) 0.66162(11)
O2 O 1.16140(11) 0.0522(3) 0.78730(12)
O3 O 0.94885(9) 0.3869(2) 0.61234(9)
loop_
_geom_bond_atom_site_label_1
_geom_bond_atom_site_label_2
_geom_bond_site_symmetry_1
_geom_bond_site_symmetry_2
C1 C2 1_555 1_555
C2 H1 1_555 1_555
C3 C2 1_555 1_555
C4 C3 1_555 1_555
C5 C4 1_555 1_555
C6 C1 1_555 1_555
H2 C6 1_555 1_555
C7 C3 1_555 1_555
H3 C7 1_555 1_555
H4 C7 1_555 1_555
C8 C7 1_555 1_555
H5 C8 1_555 1_555
H6 C8 1_555 1_555
C9 C5 1_555 1_555
N1 C9 1_555 1_555
C10 H7 1_555 1_555
H8 C10 1_555 1_555
H9 C10 1_555 1_555
C11 N1 1_555 1_555
C12 H10 1_555 1_555
H11 C12 1_555 1_555
C13 C12 1_555 1_555
H12 C13 1_555 1_555
H13 C13 1_555 1_555
H14 C13 1_555 1_555
C14 C15 1_555 1_555
C15 C16 1_555 1_555
C16 H15 1_555 1_555
H16 C16 1_555 1_555
H17 C16 1_555 1_555
C17 C15 1_555 1_555
H18 C17 1_555 1_555
H19 C17 1_555 1_555
H20 C17 1_555 1_555
C18 C15 1_555 1_555
H21 C18 1_555 1_555
H22 C18 1_555 1_555
H23 C18 1_555 1_555
Cl1 C1 1_555 1_555
N2 C4 1_555 1_555
C19 N1 1_555 1_555
H24 C19 1_555 1_555
H25 C19 1_555 1_555
N3 C11 1_555 1_555
H26 N3 1_555 1_555
O1 C9 1_555 1_555
O2 C11 1_555 1_555
O3 C14 1_555 1_555
C5 C6 1_555 1_555
C8 N2 1_555 1_555
C10 C19 1_555 1_555
C12 N3 1_555 1_555
C14 N2 1_555 1_555

#END
