
#######################################################################
#
#                 Cambridge Crystallographic Data Centre
#                                CCDC 
#
#######################################################################
#
# If this CIF has been generated from an entry in the Cambridge 
# Structural Database, then it will include bibliographic, chemical, 
# crystal, experimental, refinement or atomic coordinate data resulting 
# from the CCDC's data processing and validation procedures.
#
#######################################################################

data_DAQDII
_chemical_formula_moiety         'C28 H26 S6'
_chemical_name_systematic        
cis-1(5',5'')-(9,10-bis(4'-Methyl-1',3'-dithiol-2'-ylidene)anthracene)-2,9-dithiacyclononaphane
_symmetry_cell_setting           orthorhombic
_symmetry_space_group_name_H-M   'P n a 21'
_symmetry_Int_Tables_number      33
_space_group_name_Hall           'P 2c -2n'
loop_
_symmetry_equiv_pos_site_id
_symmetry_equiv_pos_as_xyz
1 x,y,z
2 -x,-y,1/2+z
3 1/2+x,1/2-y,z
4 1/2-x,1/2+y,1/2+z
_cell_length_a                   19.231(2)
_cell_length_b                   9.520(1)
_cell_length_c                   30.089(3)
_cell_angle_alpha                90
_cell_angle_beta                 90
_cell_angle_gamma                90
_cell_volume                     5508.67
_exptl_crystal_colour            yellow
_exptl_crystal_description       needles
_chemical_melting_point          286-288deg.C(dec)
_cell_formula_units_Z            8
_exptl_crystal_recrystallization_method acetonitrile/dichloromethane
loop_
_atom_site_label
_atom_site_type_symbol
_atom_site_fract_x
_atom_site_fract_y
_atom_site_fract_z
S1 S 0.37060(9) 1.05247(16) 0.28629(6)
S2 S 0.23772(7) 0.99764(15) 0.32901(6)
S3 S 0.53579(8) 0.82176(19) 0.45291(6)
S4 S 0.4076(2) 0.75277(15) 0.50016(11)
S5 S 0.34902(12) 1.36506(19) 0.28245(8)
S6 S 0.58401(9) 1.03172(19) 0.52095(6)
C1 C 0.4545(4) 0.7743(6) 0.2884(3)
H1 H 0.4300 0.8072 0.2638
C2 C 0.5211(6) 0.7301(6) 0.2826(4)
H2 H 0.5412 0.7305 0.2545
C3 C 0.5591(3) 0.6843(7) 0.3191(2)
H3 H 0.6053 0.6576 0.3157
C4 C 0.5282(3) 0.6779(6) 0.36035(19)
H4 H 0.5536 0.6461 0.3847
C5 C 0.3140(3) 0.5799(6) 0.43467(19)
H5 H 0.3385 0.5415 0.4584
C6 C 0.2454(4) 0.5476(7) 0.4299(2)
H6 H 0.2235 0.4890 0.4503
C7 C 0.2081(4) 0.6022(7) 0.3946(3)
H7 H 0.1611 0.5815 0.3913
C8 C 0.2411(3) 0.6883(7) 0.3637(2)
H8 H 0.2168 0.7219 0.3392
C9 C 0.3490(3) 0.8143(6) 0.33691(18)
C10 C 0.4217(4) 0.7107(6) 0.4086(2)
C11 C 0.4225(5) 0.7718(6) 0.3292(3)
C12 C 0.4589(5) 0.7197(6) 0.3659(3)
C13 C 0.3484(3) 0.6690(5) 0.40504(18)
C14 C 0.3101(5) 0.7243(6) 0.3688(3)
C15 C 0.3230(3) 0.9343(6) 0.31977(17)
C16 C 0.3175(4) 1.1976(7) 0.2987(2)
C17 C 0.2570(4) 1.1748(6) 0.3181(2)
C18 C 0.4528(6) 0.7503(5) 0.4468(4)
C19 C 0.5201(3) 0.9114(6) 0.5038(2)
C20 C 0.4627(4) 0.8771(6) 0.52556(19)
C21 C 0.4357(3) 1.3595(6) 0.3062(2)
H9 H 0.4615 1.2843 0.2920
H10 H 0.4591 1.4469 0.2992
C22 C 0.4379(4) 1.3373(7) 0.3559(2)
H11 H 0.4219 1.4224 0.3703
H12 H 0.4057 1.2628 0.3635
C23 C 0.5072(5) 1.3017(9) 0.3743(3)
H13 H 0.5410 1.3681 0.3629
H14 H 0.5202 1.2091 0.3637
C24 C 0.5105(7) 1.3018(13) 0.4241(4)
H15 H 0.5261 1.3938 0.4336
H16 H 0.4636 1.2891 0.4353
C25 C 0.5548(6) 1.1960(11) 0.4445(4)
H17 H 0.6025 1.2149 0.4359
H18 H 0.5425 1.1046 0.4326
C26 C 0.5514(4) 1.1896(8) 0.4952(3)
H19 H 0.5033 1.2014 0.5041
H20 H 0.5773 1.2686 0.5071
C27 C 0.2021(5) 1.2796(8) 0.3320(4)
H21 H 0.2210 1.3726 0.3300
H22 H 0.1880 1.2613 0.3620
H23 H 0.1625 1.2718 0.3127
C28 C 0.4368(4) 0.9339(7) 0.5699(2)
H24 H 0.4684 1.0044 0.5805
H25 H 0.4342 0.8588 0.5911
H26 H 0.3915 0.9744 0.5661
S7 S 0.88228(10) 0.56261(17) 0.72281(7)
S8 S 1.01375(7) 0.50870(15) 0.67844(6)
S9 S 0.71396(8) 0.32785(19) 0.55602(6)
S10 S 0.8415(2) 0.25740(16) 0.50919(11)
S11 S 0.90188(12) 0.87466(19) 0.72700(7)
S12 S 0.66564(9) 0.53741(18) 0.48820(6)
C29 C 0.7955(4) 0.2981(7) 0.7206(3)
H27 H 0.8201 0.3323 0.7449
C30 C 0.7253(6) 0.2611(6) 0.7249(5)
H28 H 0.7032 0.2727 0.7521
C31 C 0.6900(4) 0.2083(8) 0.6896(3)
H29 H 0.6437 0.1821 0.6931
C32 C 0.7221(3) 0.1936(7) 0.6487(2)
H30 H 0.6968 0.1564 0.6252
C33 C 0.9345(3) 0.0871(6) 0.57389(19)
H31 H 0.9097 0.0468 0.5507
C34 C 1.0054(4) 0.0564(6) 0.5793(2)
H32 H 1.0280 -0.0004 0.5588
C35 C 1.0420(3) 0.1099(7) 0.6146(2)
H33 H 1.0886 0.0873 0.6182
C36 C 1.0099(3) 0.1970(8) 0.6448(2)
H34 H 1.0357 0.2333 0.6682
C37 C 0.9021(3) 0.3259(6) 0.67149(17)
C38 C 0.8280(5) 0.2185(7) 0.5992(3)
C39 C 0.8292(5) 0.2835(7) 0.6789(3)
C40 C 0.7904(5) 0.2322(6) 0.6420(3)
C41 C 0.9018(3) 0.1771(6) 0.60352(19)
C42 C 0.9388(6) 0.2330(6) 0.6406(4)
C43 C 0.9291(3) 0.4445(6) 0.68922(18)
C44 C 0.9331(4) 0.7114(8) 0.7099(3)
C45 C 0.9947(4) 0.6871(7) 0.6901(2)
C46 C 0.7995(6) 0.2564(5) 0.5594(4)
C47 C 0.7282(3) 0.4136(6) 0.5052(2)
C48 C 0.7869(3) 0.3815(6) 0.48309(18)
C49 C 0.8151(3) 0.8689(7) 0.7026(2)
H35 H 0.7892 0.7935 0.7166
H36 H 0.7914 0.9562 0.7093
C50 C 0.8143(4) 0.8469(7) 0.6530(2)
H37 H 0.8458 0.7709 0.6456
H38 H 0.8313 0.9312 0.6386
C51 C 0.7421(4) 0.8117(10) 0.6353(3)
H39 H 0.7096 0.8847 0.6438
H40 H 0.7261 0.7237 0.6478
C52 C 0.7449(6) 0.8011(13) 0.5832(4)
H41 H 0.7370 0.8937 0.5708
H42 H 0.7914 0.7724 0.5745
C53 C 0.6944(6) 0.7038(10) 0.5630(3)
H43 H 0.6478 0.7321 0.5713
H44 H 0.7024 0.6106 0.5749
C54 C 0.6992(4) 0.6965(8) 0.5136(3)
H45 H 0.7476 0.7069 0.5051
H46 H 0.6740 0.7759 0.5014
C55 C 1.0467(6) 0.7935(9) 0.6756(4)
H47 H 1.0304 0.8858 0.6831
H48 H 1.0536 0.7872 0.6441
H49 H 1.0900 0.7760 0.6906
C56 C 0.8106(4) 0.4365(8) 0.43906(19)
H50 H 0.7802 0.5106 0.4297
H51 H 0.8097 0.3621 0.4176
H52 H 0.8572 0.4720 0.4417
loop_
_geom_bond_atom_site_label_1
_geom_bond_atom_site_label_2
_geom_bond_site_symmetry_1
_geom_bond_site_symmetry_2
S1 C15 1_555 1_555
S2 C15 1_555 1_555
S3 C18 1_555 1_555
S4 C18 1_555 1_555
S5 C16 1_555 1_555
S6 C19 1_555 1_555
C1 H1 1_555 1_555
C2 C1 1_555 1_555
H2 C2 1_555 1_555
C3 C2 1_555 1_555
H3 C3 1_555 1_555
C4 C3 1_555 1_555
H4 C4 1_555 1_555
C5 H5 1_555 1_555
C6 C5 1_555 1_555
H6 C6 1_555 1_555
C7 C6 1_555 1_555
H7 C7 1_555 1_555
C8 C7 1_555 1_555
H8 C8 1_555 1_555
C9 C11 1_555 1_555
C10 C12 1_555 1_555
C11 C1 1_555 1_555
C12 C4 1_555 1_555
C13 C5 1_555 1_555
C14 C8 1_555 1_555
C15 C9 1_555 1_555
C16 S1 1_555 1_555
C17 S2 1_555 1_555
C18 C10 1_555 1_555
C19 S3 1_555 1_555
C20 S4 1_555 1_555
C21 S5 1_555 1_555
H9 C21 1_555 1_555
H10 C21 1_555 1_555
C22 C21 1_555 1_555
H11 C22 1_555 1_555
H12 C22 1_555 1_555
C23 C22 1_555 1_555
H13 C23 1_555 1_555
H14 C23 1_555 1_555
C24 C23 1_555 1_555
H15 C24 1_555 1_555
H16 C24 1_555 1_555
C25 C24 1_555 1_555
H17 C25 1_555 1_555
H18 C25 1_555 1_555
C26 S6 1_555 1_555
H19 C26 1_555 1_555
H20 C26 1_555 1_555
C27 C17 1_555 1_555
H21 C27 1_555 1_555
H22 C27 1_555 1_555
H23 C27 1_555 1_555
C28 C20 1_555 1_555
H24 C28 1_555 1_555
H25 C28 1_555 1_555
H26 C28 1_555 1_555
S7 C43 1_555 1_555
S8 C43 1_555 1_555
S9 C46 1_555 1_555
S10 C46 1_555 1_555
S11 C44 1_555 1_555
S12 C47 1_555 1_555
C29 H27 1_555 1_555
C30 C29 1_555 1_555
H28 C30 1_555 1_555
C31 C30 1_555 1_555
H29 C31 1_555 1_555
C32 C31 1_555 1_555
H30 C32 1_555 1_555
C33 H31 1_555 1_555
C34 C33 1_555 1_555
H32 C34 1_555 1_555
C35 C34 1_555 1_555
H33 C35 1_555 1_555
C36 C35 1_555 1_555
H34 C36 1_555 1_555
C37 C39 1_555 1_555
C38 C40 1_555 1_555
C39 C29 1_555 1_555
C40 C32 1_555 1_555
C41 C33 1_555 1_555
C42 C36 1_555 1_555
C43 C37 1_555 1_555
C44 S7 1_555 1_555
C45 S8 1_555 1_555
C46 C38 1_555 1_555
C47 S9 1_555 1_555
C48 S10 1_555 1_555
C49 S11 1_555 1_555
H35 C49 1_555 1_555
H36 C49 1_555 1_555
C50 C49 1_555 1_555
H37 C50 1_555 1_555
H38 C50 1_555 1_555
C51 C50 1_555 1_555
H39 C51 1_555 1_555
H40 C51 1_555 1_555
C52 C51 1_555 1_555
H41 C52 1_555 1_555
H42 C52 1_555 1_555
C53 C52 1_555 1_555
H43 C53 1_555 1_555
H44 C53 1_555 1_555
C54 S12 1_555 1_555
H45 C54 1_555 1_555
H46 C54 1_555 1_555
C55 C45 1_555 1_555
H47 C55 1_555 1_555
H48 C55 1_555 1_555
H49 C55 1_555 1_555
C56 C48 1_555 1_555
H50 C56 1_555 1_555
H51 C56 1_555 1_555
H52 C56 1_555 1_555
C9 C14 1_555 1_555
C10 C13 1_555 1_555
C11 C12 1_555 1_555
C13 C14 1_555 1_555
C16 C17 1_555 1_555
C19 C20 1_555 1_555
C25 C26 1_555 1_555
C37 C42 1_555 1_555
C38 C41 1_555 1_555
C39 C40 1_555 1_555
C41 C42 1_555 1_555
C44 C45 1_555 1_555
C47 C48 1_555 1_555
C53 C54 1_555 1_555

#END
