
#######################################################################
#
#                 Cambridge Crystallographic Data Centre
#                                CCDC 
#
#######################################################################
#
# If this CIF has been generated from an entry in the Cambridge 
# Structural Database, then it will include bibliographic, chemical, 
# crystal, experimental, refinement or atomic coordinate data resulting 
# from the CCDC's data processing and validation procedures.
#
#######################################################################

data_DAQJUB
_chemical_formula_moiety         'C33 H18 O12,4.5(H2 O1)'
_chemical_name_systematic        
"4b,5c,10b,11c,16b,17c-Hexahydroxy-4b,5c,10b,11c,16b,17c-hexahydro-6H,12H,18H-indeno(1,2-b)bis(indeno)(2',1':4,5)furo(2,3-e:2',3'-g)(1)benzofuran-6,12,18-trione hydrate"
_symmetry_cell_setting           triclinic
_symmetry_space_group_name_H-M   'P -1'
_symmetry_Int_Tables_number      2
_space_group_name_Hall           '-P 1'
loop_
_symmetry_equiv_pos_site_id
_symmetry_equiv_pos_as_xyz
1 x,y,z
2 -x,-y,-z
_cell_length_a                   13.8093(15)
_cell_length_b                   14.8536(16)
_cell_length_c                   15.4644(17)
_cell_angle_alpha                83.471(3)
_cell_angle_beta                 70.508(2)
_cell_angle_gamma                83.332(2)
_cell_volume                     2960.47
_exptl_crystal_colour            colorless
_exptl_crystal_description       block
_chemical_melting_point          230-232deg.C.(dec.)
_cell_formula_units_Z            4
_exptl_crystal_recrystallization_method ethanol/benzene
loop_
_atom_site_label
_atom_site_type_symbol
_atom_site_fract_x
_atom_site_fract_y
_atom_site_fract_z
O1 O 0.9465(3) 0.6385(3) 0.3893(3)
O2 O 1.0608(3) 0.5401(3) 0.2910(3)
H1 H 1.0927 0.5359 0.3277
O3 O 1.1786(3) 0.6916(3) 0.2453(3)
H2 H 1.1883 0.7061 0.2911
O4 O 1.1162(3) 0.7842(3) 0.1009(3)
O5 O 1.0663(3) 0.9231(2) 0.2549(3)
O6 O 1.1116(3) 1.0673(3) 0.2609(3)
H3 H 1.1498 1.0654 0.2075
O7 O 0.9775(3) 1.0587(2) 0.4353(3)
H4 H 0.9904 1.0203 0.4733
O8 O 0.7703(4) 1.0820(3) 0.4226(3)
O9 O 0.8044(3) 0.9022(3) 0.5448(3)
O10 O 0.7405(3) 0.8312(3) 0.6904(3)
H5 H 0.6856 0.8568 0.7204
O11 O 0.8407(3) 0.6801(3) 0.6184(3)
H6 H 0.9010 0.6647 0.5901
O12 O 0.7165(3) 0.6121(3) 0.5300(3)
C1 C 0.9410(4) 0.7287(4) 0.3974(4)
C2 C 1.0102(4) 0.7743(4) 0.3233(4)
C3 C 1.0053(4) 0.8685(4) 0.3248(4)
C4 C 0.9367(4) 0.9165(4) 0.3953(4)
C5 C 0.8729(4) 0.8662(4) 0.4695(4)
C6 C 0.8729(4) 0.7719(4) 0.4715(4)
C7 C 1.0734(4) 0.7079(4) 0.2550(4)
C8 C 1.0614(5) 0.7346(4) 0.1608(4)
C9 C 0.9708(4) 0.6918(4) 0.1580(4)
C10 C 0.9198(5) 0.7077(4) 0.0941(4)
H13 H 0.9439 0.7467 0.0415
C11 C 0.8315(5) 0.6639(4) 0.1108(5)
H14 H 0.7964 0.6724 0.0682
C12 C 0.7946(5) 0.6069(5) 0.1908(5)
H15 H 0.7340 0.5794 0.2017
C13 C 0.8467(5) 0.5908(4) 0.2540(4)
H16 H 0.8217 0.5531 0.3075
C14 C 0.9374(4) 0.6322(4) 0.2358(4)
C15 C 1.0062(5) 0.6246(4) 0.2932(4)
C16 C 0.9477(5) 1.0158(4) 0.3724(4)
C17 C 0.8483(5) 1.0651(4) 0.3601(4)
C18 C 0.8661(5) 1.0821(4) 0.2606(4)
C19 C 0.7967(5) 1.1188(4) 0.2153(5)
H17 H 0.7286 1.1363 0.2482
C20 C 0.8318(6) 1.1286(4) 0.1202(5)
H18 H 0.7872 1.1544 0.0888
C21 C 0.9332(6) 1.1003(4) 0.0709(5)
H19 H 0.9548 1.1063 0.0070
C22 C 1.0027(5) 1.0634(4) 0.1155(4)
H20 H 1.0704 1.0448 0.0825
C23 C 0.9676(5) 1.0552(4) 0.2111(4)
C24 C 1.0272(4) 1.0185(4) 0.2741(4)
C25 C 0.7973(4) 0.7377(4) 0.5600(4)
C26 C 0.7095(5) 0.6922(4) 0.5439(4)
C27 C 0.6223(5) 0.7600(4) 0.5531(4)
C28 C 0.5316(5) 0.7531(4) 0.5345(4)
H21 H 0.5209 0.7005 0.5129
C29 C 0.4582(5) 0.8257(4) 0.5490(4)
H22 H 0.3969 0.8223 0.5373
C30 C 0.4751(5) 0.9039(4) 0.5809(4)
H23 H 0.4248 0.9525 0.5902
C31 C 0.5658(5) 0.9114(4) 0.5993(4)
H24 H 0.5766 0.9643 0.6206
C32 C 0.6394(5) 0.8382(4) 0.5852(4)
C33 C 0.7418(5) 0.8283(4) 0.6020(4)
O13 O 0.5799(3) 0.4484(3) 0.1327(3)
O14 O 0.4605(3) 0.3691(3) 0.2482(3)
H7 H 0.4075 0.3862 0.2360
O15 O 0.3559(3) 0.5437(3) 0.2777(3)
H8 H 0.3415 0.5403 0.2309
O16 O 0.4461(3) 0.6190(3) 0.3883(3)
O17 O 0.4559(3) 0.7491(3) 0.2101(3)
O18 O 0.4109(3) 0.9028(3) 0.1919(3)
H9 H 0.3722 0.8995 0.1623
O19 O 0.4865(3) 0.8647(3) 0.0067(3)
H10 H 0.5241 0.8730 -0.0467
O20 O 0.6932(4) 0.9056(3) -0.0365(3)
O21 O 0.6699(3) 0.6966(3) -0.0918(3)
O22 O 0.7215(3) 0.6132(3) -0.2197(3)
H11 H 0.7671 0.6382 -0.2609
O23 O 0.6542(3) 0.4705(3) -0.1015(3)
H12 H 0.6645 0.4824 -0.1568
O24 O 0.8187(3) 0.4103(3) -0.0254(3)
C34 C 0.5807(4) 0.5393(4) 0.1044(4)
C35 C 0.5189(4) 0.5948(4) 0.1714(4)
C36 C 0.5141(4) 0.6882(4) 0.1502(4)
C37 C 0.5676(4) 0.7254(4) 0.0634(4)
C38 C 0.6228(4) 0.6681(4) -0.0016(4)
C39 C 0.6351(4) 0.5744(4) 0.0168(4)
C40 C 0.4641(5) 0.5364(4) 0.2562(4)
C41 C 0.4889(5) 0.5571(4) 0.3406(4)
C42 C 0.5728(4) 0.4899(4) 0.3503(4)
C43 C 0.6270(5) 0.4859(4) 0.4119(4)
H25 H 0.6134 0.5294 0.4541
C44 C 0.7014(5) 0.4153(5) 0.4083(4)
H26 H 0.7382 0.4106 0.4494
C45 C 0.7229(5) 0.3514(4) 0.3455(4)
H27 H 0.7741 0.3046 0.3449
C46 C 0.6698(5) 0.3552(4) 0.2829(4)
H28 H 0.6854 0.3124 0.2398
C47 C 0.5934(5) 0.4243(4) 0.2869(4)
C48 C 0.5209(4) 0.4407(4) 0.2314(4)
C49 C 0.5457(5) 0.8277(4) 0.0619(4)
C50 C 0.6430(5) 0.8756(4) 0.0408(5)
C51 C 0.6633(5) 0.8794(4) 0.1273(5)
C52 C 0.7546(5) 0.8968(4) 0.1418(6)
H29 H 0.8121 0.9123 0.0925
C53 C 0.7568(6) 0.8905(5) 0.2299(6)
H30 H 0.8165 0.9019 0.2406
C54 C 0.6704(7) 0.8670(5) 0.3045(6)
H31 H 0.6732 0.8630 0.3641
C55 C 0.5802(6) 0.8497(4) 0.2902(5)
H32 H 0.5229 0.8336 0.3395
C56 C 0.5780(5) 0.8569(4) 0.2019(4)
C57 C 0.4916(5) 0.8372(4) 0.1678(4)
C58 C 0.7038(4) 0.5313(4) -0.0696(4)
C59 C 0.8068(5) 0.4864(4) -0.0608(4)
C60 C 0.8855(4) 0.5523(4) -0.1009(4)
C61 C 0.9867(5) 0.5455(4) -0.1019(4)
H33 H 1.0146 0.4934 -0.0764
C62 C 1.0463(5) 0.6192(4) -0.1422(5)
H34 H 1.1144 0.6167 -0.1434
C63 C 1.0030(5) 0.6954(4) -0.1800(5)
H35 H 1.0430 0.7441 -0.2052
C64 C 0.9026(5) 0.7031(4) -0.1822(4)
H36 H 0.8753 0.7547 -0.2088
C65 C 0.8446(4) 0.6284(4) -0.1422(4)
C66 C 0.7353(4) 0.6189(4) -0.1369(4)
O25 O 0.5742(3) 0.9098(3) 0.8116(3)
O26 O 1.1642(3) 0.5335(3) 0.4159(3)
O27 O 0.5804(4) 0.2162(3) 0.1628(3)
O28 O 0.2695(3) 0.9104(3) 0.1077(4)
O29 O 1.0324(3) 0.6035(3) 0.5755(3)
O30 O 0.6503(4) 0.2832(3) -0.0289(3)
O31 O 1.2482(4) 0.7308(4) 0.3848(4)
O32 O 0.8936(6) 1.2313(4) 0.4464(5)
O33 O 1.2453(8) 0.9159(8) 0.3707(6)
loop_
_geom_bond_atom_site_label_1
_geom_bond_atom_site_label_2
_geom_bond_site_symmetry_1
_geom_bond_site_symmetry_2
O1 C1 1_555 1_555
O2 H1 1_555 1_555
O3 H2 1_555 1_555
O4 C8 1_555 1_555
O5 C3 1_555 1_555
O6 H3 1_555 1_555
O7 H4 1_555 1_555
O8 C17 1_555 1_555
O9 C5 1_555 1_555
O10 H5 1_555 1_555
O11 H6 1_555 1_555
O12 C26 1_555 1_555
O13 C34 1_555 1_555
O14 H7 1_555 1_555
O15 H8 1_555 1_555
O16 C41 1_555 1_555
O17 C36 1_555 1_555
O18 H9 1_555 1_555
O19 H10 1_555 1_555
O20 C50 1_555 1_555
O21 C38 1_555 1_555
O22 H11 1_555 1_555
O23 H12 1_555 1_555
O24 C59 1_555 1_555
C1 C2 1_555 1_555
C2 C3 1_555 1_555
C3 C4 1_555 1_555
C4 C5 1_555 1_555
C5 C6 1_555 1_555
C6 C1 1_555 1_555
C7 O3 1_555 1_555
C8 C7 1_555 1_555
C9 C8 1_555 1_555
C10 C9 1_555 1_555
H13 C10 1_555 1_555
C11 C10 1_555 1_555
H14 C11 1_555 1_555
C12 C11 1_555 1_555
H15 C12 1_555 1_555
C13 C12 1_555 1_555
H16 C13 1_555 1_555
C14 C9 1_555 1_555
C15 O1 1_555 1_555
C16 O7 1_555 1_555
C17 C16 1_555 1_555
C18 C17 1_555 1_555
C19 C18 1_555 1_555
H17 C19 1_555 1_555
C20 C19 1_555 1_555
H18 C20 1_555 1_555
C21 C20 1_555 1_555
H19 C21 1_555 1_555
C22 C21 1_555 1_555
H20 C22 1_555 1_555
C23 C18 1_555 1_555
C24 O5 1_555 1_555
C25 O11 1_555 1_555
C26 C25 1_555 1_555
C27 C26 1_555 1_555
C28 C27 1_555 1_555
H21 C28 1_555 1_555
C29 C28 1_555 1_555
H22 C29 1_555 1_555
C30 C29 1_555 1_555
H23 C30 1_555 1_555
C31 C30 1_555 1_555
H24 C31 1_555 1_555
C32 C27 1_555 1_555
C33 O9 1_555 1_555
C34 C35 1_555 1_555
C35 C36 1_555 1_555
C36 C37 1_555 1_555
C37 C38 1_555 1_555
C38 C39 1_555 1_555
C39 C34 1_555 1_555
C40 O15 1_555 1_555
C41 C40 1_555 1_555
C42 C41 1_555 1_555
C43 C42 1_555 1_555
H25 C43 1_555 1_555
C44 C43 1_555 1_555
H26 C44 1_555 1_555
C45 C44 1_555 1_555
H27 C45 1_555 1_555
C46 C45 1_555 1_555
H28 C46 1_555 1_555
C47 C42 1_555 1_555
C48 O13 1_555 1_555
C49 O19 1_555 1_555
C50 C49 1_555 1_555
C51 C50 1_555 1_555
C52 C51 1_555 1_555
H29 C52 1_555 1_555
C53 C52 1_555 1_555
H30 C53 1_555 1_555
C54 C53 1_555 1_555
H31 C54 1_555 1_555
C55 C54 1_555 1_555
H32 C55 1_555 1_555
C56 C51 1_555 1_555
C57 O17 1_555 1_555
C58 O23 1_555 1_555
C59 C58 1_555 1_555
C60 C59 1_555 1_555
C61 C60 1_555 1_555
H33 C61 1_555 1_555
C62 C61 1_555 1_555
H34 C62 1_555 1_555
C63 C62 1_555 1_555
H35 C63 1_555 1_555
C64 C63 1_555 1_555
H36 C64 1_555 1_555
C65 C60 1_555 1_555
C66 O21 1_555 1_555
O2 C15 1_555 1_555
O6 C24 1_555 1_555
O10 C33 1_555 1_555
O14 C48 1_555 1_555
O18 C57 1_555 1_555
O22 C66 1_555 1_555
C2 C7 1_555 1_555
C4 C16 1_555 1_555
C6 C25 1_555 1_555
C7 C15 1_555 1_555
C13 C14 1_555 1_555
C14 C15 1_555 1_555
C16 C24 1_555 1_555
C22 C23 1_555 1_555
C23 C24 1_555 1_555
C25 C33 1_555 1_555
C31 C32 1_555 1_555
C32 C33 1_555 1_555
C35 C40 1_555 1_555
C37 C49 1_555 1_555
C39 C58 1_555 1_555
C40 C48 1_555 1_555
C46 C47 1_555 1_555
C47 C48 1_555 1_555
C49 C57 1_555 1_555
C55 C56 1_555 1_555
C56 C57 1_555 1_555
C58 C66 1_555 1_555
C64 C65 1_555 1_555
C65 C66 1_555 1_555

#END
