
#######################################################################
#
#                 Cambridge Crystallographic Data Centre
#                                CCDC 
#
#######################################################################
#
# If this CIF has been generated from an entry in the Cambridge 
# Structural Database, then it will include bibliographic, chemical, 
# crystal, experimental, refinement or atomic coordinate data resulting 
# from the CCDC's data processing and validation procedures.
#
#######################################################################

data_DAQJIP
_chemical_formula_moiety         'C31 H22'
_chemical_name_systematic        2,4,9-Triphenylbenz(f)indene
_symmetry_cell_setting           orthorhombic
_symmetry_space_group_name_H-M   'P 21 21 21'
_symmetry_Int_Tables_number      19
_space_group_name_Hall           'P 2ac 2ab'
loop_
_symmetry_equiv_pos_site_id
_symmetry_equiv_pos_as_xyz
1 x,y,z
2 1/2-x,-y,1/2+z
3 -x,1/2+y,1/2-z
4 1/2+x,1/2-y,-z
_cell_length_a                   5.9770(10)
_cell_length_b                   10.8310(10)
_cell_length_c                   32.496(2)
_cell_angle_alpha                90
_cell_angle_beta                 90
_cell_angle_gamma                90
_cell_volume                     2103.69
_exptl_crystal_colour            yellow
_chemical_melting_point          180deg.C
_cell_formula_units_Z            4
_exptl_crystal_recrystallization_method 'diethyl ether'
loop_
_atom_site_label
_atom_site_type_symbol
_atom_site_fract_x
_atom_site_fract_y
_atom_site_fract_z
C1 C 0.7764(11) 0.0439(7) 0.1671(3)
C2 C 0.6984(12) 0.1736(7) 0.1623(3)
H1 H 0.8185 0.2253 0.1520
H2 H 0.6487 0.2063 0.1886
C3 C 0.5089(11) 0.1706(7) 0.1324(3)
C4 C 0.3665(13) 0.2636(7) 0.1185(3)
C5 C 0.1973(13) 0.2321(7) 0.0895(3)
C6 C 0.0488(13) 0.3232(7) 0.0732(3)
H3 H 0.0609 0.4044 0.0822
C7 C -0.1100(14) 0.2939(8) 0.0448(3)
H4 H -0.2078 0.3537 0.0349
C8 C -0.1234(14) 0.1724(8) 0.0307(3)
H5 H -0.2333 0.1534 0.0115
C9 C 0.0140(12) 0.0805(7) 0.0433(3)
H6 H 0.0012 0.0016 0.0322
C10 C 0.1817(13) 0.1070(7) 0.0744(3)
C11 C 0.3339(13) 0.0115(6) 0.0903(3)
C12 C 0.4914(11) 0.0465(6) 0.1184(3)
C13 C 0.6514(12) -0.0312(6) 0.1412(3)
H7 H 0.6662 -0.1163 0.1387
C14 C 0.9548(12) 0.0072(8) 0.1942(3)
C15 C 1.1123(13) 0.0911(7) 0.2075(3)
H8 H 1.1056 0.1722 0.1982
C16 C 1.2804(14) 0.0566(9) 0.2345(3)
H9 H 1.3838 0.1146 0.2436
C17 C 1.2935(15) -0.0628(10) 0.2475(3)
H10 H 1.4088 -0.0877 0.2649
C18 C 1.1344(18) -0.1457(8) 0.2348(3)
H11 H 1.1380 -0.2263 0.2446
C19 C 0.9688(15) -0.1107(8) 0.2075(3)
H12 H 0.8662 -0.1689 0.1982
C20 C 0.3842(13) 0.3912(6) 0.1363(3)
C21 C 0.2123(12) 0.4402(7) 0.1603(3)
H13 H 0.0844 0.3933 0.1649
C22 C 0.2279(13) 0.5572(7) 0.1775(3)
H14 H 0.1155 0.5875 0.1945
C23 C 0.4196(15) 0.6290(7) 0.1685(3)
H15 H 0.4302 0.7095 0.1782
C24 C 0.5875(14) 0.5807(6) 0.1456(3)
H16 H 0.7167 0.6268 0.1413
C25 C 0.5704(11) 0.4652(7) 0.1288(3)
H17 H 0.6850 0.4356 0.1122
C26 C 0.3157(13) -0.1208(6) 0.0747(2)
C27 C 0.1398(13) -0.1977(7) 0.0851(3)
H18 H 0.0242 -0.1688 0.1016
C28 C 0.1370(14) -0.3163(7) 0.0708(3)
H19 H 0.0157 -0.3667 0.0771
C29 C 0.3075(16) -0.3631(7) 0.0475(3)
H20 H 0.3028 -0.4442 0.0382
C30 C 0.4846(14) -0.2889(8) 0.0382(3)
H21 H 0.6032 -0.3205 0.0230
C31 C 0.4904(13) -0.1692(8) 0.0510(3)
H22 H 0.6111 -0.1193 0.0439
loop_
_geom_bond_atom_site_label_1
_geom_bond_atom_site_label_2
_geom_bond_site_symmetry_1
_geom_bond_site_symmetry_2
C1 C2 1_555 1_555
C2 H1 1_555 1_555
H2 C2 1_555 1_555
C3 C2 1_555 1_555
C4 C3 1_555 1_555
C5 C4 1_555 1_555
C6 C5 1_555 1_555
H3 C6 1_555 1_555
C7 C6 1_555 1_555
H4 C7 1_555 1_555
C8 C7 1_555 1_555
H5 C8 1_555 1_555
C9 C8 1_555 1_555
H6 C9 1_555 1_555
C10 C5 1_555 1_555
C11 C10 1_555 1_555
C12 C3 1_555 1_555
C13 C1 1_555 1_555
H7 C13 1_555 1_555
C14 C1 1_555 1_555
C15 C14 1_555 1_555
H8 C15 1_555 1_555
C16 C15 1_555 1_555
H9 C16 1_555 1_555
C17 C16 1_555 1_555
H10 C17 1_555 1_555
C18 C17 1_555 1_555
H11 C18 1_555 1_555
C19 C14 1_555 1_555
H12 C19 1_555 1_555
C20 C4 1_555 1_555
C21 C20 1_555 1_555
H13 C21 1_555 1_555
C22 C21 1_555 1_555
H14 C22 1_555 1_555
C23 C22 1_555 1_555
H15 C23 1_555 1_555
C24 C23 1_555 1_555
H16 C24 1_555 1_555
C25 C20 1_555 1_555
H17 C25 1_555 1_555
C26 C11 1_555 1_555
C27 C26 1_555 1_555
H18 C27 1_555 1_555
C28 C27 1_555 1_555
H19 C28 1_555 1_555
C29 C28 1_555 1_555
H20 C29 1_555 1_555
C30 C29 1_555 1_555
H21 C30 1_555 1_555
C31 C26 1_555 1_555
H22 C31 1_555 1_555
C9 C10 1_555 1_555
C11 C12 1_555 1_555
C12 C13 1_555 1_555
C18 C19 1_555 1_555
C24 C25 1_555 1_555
C30 C31 1_555 1_555

#END
