
#######################################################################
#
#                 Cambridge Crystallographic Data Centre
#                                CCDC 
#
#######################################################################
#
# If this CIF has been generated from an entry in the Cambridge 
# Structural Database, then it will include bibliographic, chemical, 
# crystal, experimental, refinement or atomic coordinate data resulting 
# from the CCDC's data processing and validation procedures.
#
#######################################################################

data_DAQKAK
_chemical_formula_moiety         'C29 H26 N2 O6 S1'
_chemical_name_systematic        
"ethyl 1-benzyl-1'-((4-methylphenyl)sulfonyl)-2,6'-dioxo-1,2,5',6'-tetrahydro-1'H-spiro[indole-3,4'-pyridine]-2'-carboxylate"
_symmetry_cell_setting           monoclinic
_symmetry_space_group_name_H-M   'P 21/c'
_symmetry_Int_Tables_number      14
_space_group_name_Hall           '-P 2ybc'
loop_
_symmetry_equiv_pos_site_id
_symmetry_equiv_pos_as_xyz
1 x,y,z
2 -x,1/2+y,1/2-z
3 -x,-y,-z
4 x,1/2-y,1/2+z
_cell_length_a                   11.4870(4)
_cell_length_b                   25.8357(6)
_cell_length_c                   9.2054(3)
_cell_angle_alpha                90
_cell_angle_beta                 110.444(4)
_cell_angle_gamma                90
_cell_volume                     2559.86
_exptl_crystal_colour            colorless
_cell_formula_units_Z            4
loop_
_atom_site_label
_atom_site_type_symbol
_atom_site_fract_x
_atom_site_fract_y
_atom_site_fract_z
S1 S 0.28082(6) 0.07392(2) 0.50226(8)
O1 O -0.17704(16) 0.14130(6) 0.7210(2)
O2 O 0.29589(16) 0.08700(7) 0.8217(2)
O3 O 0.01585(18) 0.00613(6) 0.3427(2)
O4 O 0.21909(18) 0.06959(7) 0.3390(2)
O5 O 0.36440(17) 0.11577(6) 0.5629(2)
N1 N -0.09904(17) 0.22267(7) 0.7151(2)
N2 N 0.16190(16) 0.08088(6) 0.5728(2)
C1 C -0.00034(19) 0.24462(8) 0.6789(2)
C2 C 0.0336(2) 0.29620(8) 0.6829(3)
H1 H -0.0112 0.3220 0.7106
C3 C 0.1365(2) 0.30784(9) 0.6441(3)
H2 H 0.1626 0.3421 0.6487
C4 C 0.2015(2) 0.27021(9) 0.5989(3)
H3 H 0.2695 0.2793 0.5717
C5 C 0.1656(2) 0.21853(8) 0.5936(3)
H4 H 0.2087 0.1930 0.5620
C6 C 0.06573(19) 0.20580(8) 0.6359(2)
C7 C 0.0071(2) 0.15398(8) 0.6477(2)
C8 C -0.1022(2) 0.17020(8) 0.6979(3)
C9 C -0.0361(2) 0.12298(7) 0.5001(2)
H5 H -0.1160 0.1281 0.4296
C10 C 0.0370(2) 0.08853(7) 0.4680(2)
C11 C 0.1926(2) 0.09428(8) 0.7298(3)
C12 C 0.0904(2) 0.11748(8) 0.7737(3)
H6 H 0.1262 0.1366 0.8696
H7 H 0.0398 0.0899 0.7919
C13 C -0.1892(2) 0.25107(9) 0.7653(3)
H8 H -0.1484 0.2809 0.8255
H9 H -0.2165 0.2289 0.8322
C14 C -0.3008(2) 0.26896(9) 0.6326(3)
C15 C -0.3055(3) 0.31697(10) 0.5666(4)
H10 H -0.2382 0.3393 0.6049
C16 C -0.4094(3) 0.33249(13) 0.4436(4)
H11 H -0.4107 0.3649 0.3993
C17 C -0.5095(3) 0.30058(14) 0.3872(4)
H12 H -0.5790 0.3113 0.3051
C18 C -0.5077(3) 0.25304(13) 0.4510(4)
H13 H -0.5762 0.2313 0.4130
C19 C -0.4035(3) 0.23692(11) 0.5728(4)
H14 H -0.4025 0.2042 0.6151
C20 C -0.0146(2) 0.05048(9) 0.3395(3)
C21 C 0.3538(2) 0.01555(8) 0.5803(3)
C22 C 0.4555(2) 0.01583(10) 0.7153(4)
H15 H 0.4851 0.0469 0.7659
C23 C 0.5133(3) -0.03010(11) 0.7751(4)
H16 H 0.5813 -0.0297 0.8671
C24 C 0.4731(2) -0.07643(9) 0.7023(3)
C25 C 0.3718(2) -0.07574(9) 0.5663(3)
H17 H 0.3438 -0.1067 0.5144
C26 C 0.3108(2) -0.03020(9) 0.5047(3)
H18 H 0.2418 -0.0306 0.4138
C27 C 0.5386(3) -0.12616(10) 0.7666(4)
H19 H 0.4787 -0.1535 0.7497
H20 H 0.5828 -0.1223 0.8758
H21 H 0.5960 -0.1344 0.7154
O6 O -0.1125(3) 0.07121(13) 0.2269(4)
C28 C -0.1837(6) 0.03727(19) 0.1007(5)
H22 H -0.1675 0.0016 0.1345
H23 H -0.2716 0.0438 0.0771
C29 C -0.1554(9) 0.0440(3) -0.0342(7)
H24 H -0.1758 0.0787 -0.0719
H25 H -0.2027 0.0200 -0.1119
H26 H -0.0683 0.0381 -0.0115
O7? O -0.0638(12) 0.0811(5) 0.2024(15)
C30? C -0.106(2) 0.0528(10) 0.047(3)
H27? H -0.1012 0.0749 -0.0357
H28? H -0.0585 0.0216 0.0515
C31? C -0.233(3) 0.0413(15) 0.029(5)
H29? H -0.2344 0.0182 0.1102
H30? H -0.2732 0.0253 -0.0696
H31? H -0.2753 0.0728 0.0354
loop_
_geom_bond_atom_site_label_1
_geom_bond_atom_site_label_2
_geom_bond_site_symmetry_1
_geom_bond_site_symmetry_2
S1 O4 1_555 1_555
O1 C8 1_555 1_555
O2 C11 1_555 1_555
O3 C20 1_555 1_555
O5 S1 1_555 1_555
N1 C1 1_555 1_555
N2 S1 1_555 1_555
C1 C2 1_555 1_555
C2 H1 1_555 1_555
C3 C2 1_555 1_555
H2 C3 1_555 1_555
C4 C3 1_555 1_555
H3 C4 1_555 1_555
C5 C4 1_555 1_555
H4 C5 1_555 1_555
C6 C1 1_555 1_555
C7 C6 1_555 1_555
C8 N1 1_555 1_555
C9 C7 1_555 1_555
H5 C9 1_555 1_555
C10 N2 1_555 1_555
C11 N2 1_555 1_555
C12 C7 1_555 1_555
H6 C12 1_555 1_555
H7 C12 1_555 1_555
C13 N1 1_555 1_555
H8 C13 1_555 1_555
H9 C13 1_555 1_555
C14 C13 1_555 1_555
C15 C14 1_555 1_555
H10 C15 1_555 1_555
C16 C15 1_555 1_555
H11 C16 1_555 1_555
C17 C16 1_555 1_555
H12 C17 1_555 1_555
C18 C17 1_555 1_555
H13 C18 1_555 1_555
C19 C14 1_555 1_555
H14 C19 1_555 1_555
C20 C10 1_555 1_555
C21 S1 1_555 1_555
C22 C21 1_555 1_555
H15 C22 1_555 1_555
C23 C22 1_555 1_555
H16 C23 1_555 1_555
C24 C23 1_555 1_555
C25 C24 1_555 1_555
H17 C25 1_555 1_555
C26 C21 1_555 1_555
H18 C26 1_555 1_555
C27 C24 1_555 1_555
H19 C27 1_555 1_555
H20 C27 1_555 1_555
H21 C27 1_555 1_555
O6 C20 1_555 1_555
C28 O6 1_555 1_555
H22 C28 1_555 1_555
H23 C28 1_555 1_555
C29 C28 1_555 1_555
H24 C29 1_555 1_555
H25 C29 1_555 1_555
H26 C29 1_555 1_555
C5 C6 1_555 1_555
C7 C8 1_555 1_555
C9 C10 1_555 1_555
C11 C12 1_555 1_555
C18 C19 1_555 1_555
C25 C26 1_555 1_555

#END
