
#######################################################################
#
#                 Cambridge Crystallographic Data Centre
#                                CCDC 
#
#######################################################################
#
# If this CIF has been generated from an entry in the Cambridge 
# Structural Database, then it will include bibliographic, chemical, 
# crystal, experimental, refinement or atomic coordinate data resulting 
# from the CCDC's data processing and validation procedures.
#
#######################################################################

data_DAQPOD
_chemical_formula_moiety         'C25 H20 N1 O4 P1'
_chemical_name_systematic        
'methyl 2-methoxy-5,5-diphenyl-5-phosphinolino[4,3-d][1,3]oxazole-4-carboxylate'
_symmetry_cell_setting           monoclinic
_symmetry_space_group_name_H-M   'C c'
_symmetry_Int_Tables_number      9
_space_group_name_Hall           'C -2yc'
loop_
_symmetry_equiv_pos_site_id
_symmetry_equiv_pos_as_xyz
1 x,y,z
2 x,-y,1/2+z
3 1/2+x,1/2+y,z
4 1/2+x,1/2-y,1/2+z
_cell_length_a                   9.809(4)
_cell_length_b                   17.435(7)
_cell_length_c                   13.298(5)
_cell_angle_alpha                90
_cell_angle_beta                 109.377(15)
_cell_angle_gamma                90
_cell_volume                     2145.4
_exptl_crystal_colour            yellow
_exptl_crystal_description       block
_cell_formula_units_Z            4
loop_
_atom_site_label
_atom_site_type_symbol
_atom_site_fract_x
_atom_site_fract_y
_atom_site_fract_z
P1 P 0.41479(6) 0.55387(3) 0.42163(5)
O1 O 0.1876(2) 0.60819(16) 0.5220(2)
O2 O 0.3455(2) 0.67828(16) 0.6509(2)
N1 N 0.8262(3) 0.63242(15) 0.6540(2)
O3 O 0.8351(3) 0.67074(17) 0.8290(2)
C1 C 0.0105(4) 0.6081(2) 0.1385(3)
H1 H -0.0713 0.6193 0.0806
C2 C 0.0793(4) 0.6656(2) 0.2079(3)
H2 H 0.0439 0.7155 0.1964
C3 C 0.2000(4) 0.64973(18) 0.2941(3)
H3 H 0.2459 0.6888 0.3407
C4 C 0.2540(3) 0.57480(16) 0.3119(2)
O4 O 0.6267(2) 0.64419(12) 0.70278(16)
C5 C 0.4337(3) 0.60951(15) 0.5353(2)
C6 C 0.5815(3) 0.62323(14) 0.5952(2)
C7 C 0.7726(3) 0.64843(18) 0.7281(2)
C8 C 0.9873(4) 0.6861(5) 0.8568(4)
H4 H 1.0375 0.6394 0.8540
H5 H 1.0232 0.7070 0.9275
H6 H 1.0028 0.7224 0.8073
C9 C 0.5710(3) 0.57117(16) 0.3821(2)
C10 C 0.5683(4) 0.55396(18) 0.2775(3)
H7 H 0.4812 0.5406 0.2259
C11 C 0.6934(4) 0.5566(2) 0.2507(3)
H8 H 0.6905 0.5452 0.1817
C12 C 0.8228(4) 0.5765(2) 0.3280(3)
H9 H 0.9075 0.5769 0.3111
C13 C 0.8273(3) 0.59604(16) 0.4305(3)
H10 H 0.9149 0.6105 0.4805
C14 C 0.7019(3) 0.59430(14) 0.4602(2)
C15 C 0.7024(3) 0.61539(15) 0.5658(2)
C16 C 0.3109(3) 0.62976(17) 0.5660(2)
C17 C 0.2319(4) 0.7033(2) 0.6886(3)
H11 H 0.1936 0.7511 0.6553
H12 H 0.2694 0.7101 0.7645
H13 H 0.1565 0.6654 0.6713
C18 C 0.4145(3) 0.45137(14) 0.4486(2)
C19 C 0.3232(3) 0.42489(19) 0.5034(3)
H14 H 0.2605 0.4586 0.5202
C20 C 0.3269(4) 0.3480(2) 0.5324(3)
H15 H 0.2671 0.3304 0.5690
C21 C 0.4185(5) 0.29823(19) 0.5070(3)
H16 H 0.4202 0.2469 0.5263
C22 C 0.5089(5) 0.3237(2) 0.4529(4)
H17 H 0.5702 0.2893 0.4358
C23 C 0.5083(4) 0.40056(17) 0.4239(3)
H18 H 0.5700 0.4177 0.3886
C24 C 0.1837(4) 0.51707(19) 0.2411(3)
H19 H 0.2185 0.4671 0.2522
C25 C 0.0627(4) 0.5335(2) 0.1546(3)
H20 H 0.0165 0.4948 0.1074
loop_
_geom_bond_atom_site_label_1
_geom_bond_atom_site_label_2
_geom_bond_site_symmetry_1
_geom_bond_site_symmetry_2
P1 C4 1_555 1_555
O1 C16 1_555 1_555
O2 C16 1_555 1_555
N1 C7 1_555 1_555
O3 C7 1_555 1_555
C1 H1 1_555 1_555
C2 C1 1_555 1_555
H2 C2 1_555 1_555
C3 C2 1_555 1_555
H3 C3 1_555 1_555
C4 C3 1_555 1_555
O4 C6 1_555 1_555
C5 P1 1_555 1_555
C6 C5 1_555 1_555
C7 O4 1_555 1_555
C8 O3 1_555 1_555
H4 C8 1_555 1_555
H5 C8 1_555 1_555
H6 C8 1_555 1_555
C9 P1 1_555 1_555
C10 C9 1_555 1_555
H7 C10 1_555 1_555
C11 C10 1_555 1_555
H8 C11 1_555 1_555
C12 C11 1_555 1_555
H9 C12 1_555 1_555
C13 C12 1_555 1_555
H10 C13 1_555 1_555
C14 C9 1_555 1_555
C15 N1 1_555 1_555
C16 C5 1_555 1_555
C17 O2 1_555 1_555
H11 C17 1_555 1_555
H12 C17 1_555 1_555
H13 C17 1_555 1_555
C18 P1 1_555 1_555
C19 C18 1_555 1_555
H14 C19 1_555 1_555
C20 C19 1_555 1_555
H15 C20 1_555 1_555
C21 C20 1_555 1_555
H16 C21 1_555 1_555
C22 C21 1_555 1_555
H17 C22 1_555 1_555
C23 C18 1_555 1_555
H18 C23 1_555 1_555
C24 C4 1_555 1_555
H19 C24 1_555 1_555
C25 C1 1_555 1_555
H20 C25 1_555 1_555
C6 C15 1_555 1_555
C13 C14 1_555 1_555
C14 C15 1_555 1_555
C22 C23 1_555 1_555
C24 C25 1_555 1_555

#END
