
#######################################################################
#
#                 Cambridge Crystallographic Data Centre
#                                CCDC 
#
#######################################################################
#
# If this CIF has been generated from an entry in the Cambridge 
# Structural Database, then it will include bibliographic, chemical, 
# crystal, experimental, refinement or atomic coordinate data resulting 
# from the CCDC's data processing and validation procedures.
#
#######################################################################

data_DAQQUK
_chemical_formula_moiety         'C15 H9 F1 N2'
_chemical_name_systematic        5-fluoro-2-phenyl-1H-indole-1-carbonitrile
_symmetry_cell_setting           orthorhombic
_symmetry_space_group_name_H-M   'P b c a'
_symmetry_Int_Tables_number      61
_space_group_name_Hall           '-P 2ac 2ab'
loop_
_symmetry_equiv_pos_site_id
_symmetry_equiv_pos_as_xyz
1 x,y,z
2 1/2-x,-y,1/2+z
3 1/2+x,1/2-y,-z
4 -x,1/2+y,1/2-z
5 -x,-y,-z
6 1/2+x,y,1/2-z
7 1/2-x,1/2+y,z
8 x,1/2-y,1/2+z
_cell_length_a                   25.513(13)
_cell_length_b                   13.881(8)
_cell_length_c                   6.794(4)
_cell_angle_alpha                90
_cell_angle_beta                 90
_cell_angle_gamma                90
_cell_volume                     2406.07
_exptl_crystal_colour            colorless
_exptl_crystal_description       Block
_cell_formula_units_Z            8
loop_
_atom_site_label
_atom_site_type_symbol
_atom_site_fract_x
_atom_site_fract_y
_atom_site_fract_z
F1 F 0.6249(2) 0.1661(5) 0.3592(10)
N1 N 0.42301(12) 0.1030(3) 0.6720(5)
N2 N 0.39267(16) 0.0216(4) 0.9700(6)
C1 C 0.39167(15) 0.1332(3) 0.5145(6)
C2 C 0.42409(19) 0.1620(3) 0.3718(7)
C3 C 0.47694(15) 0.1502(3) 0.4327(6)
C4 C 0.5262(3) 0.1671(5) 0.3497(8)
C5 C 0.57130(16) 0.1458(3) 0.4486(7)
C6 C 0.56788(18) 0.1054(3) 0.6349(8)
C7 C 0.52041(17) 0.0878(3) 0.7243(8)
C8 C 0.47579(14) 0.1118(3) 0.6202(6)
C9 C 0.40636(16) 0.0592(3) 0.8323(6)
C10 C 0.33418(15) 0.1283(3) 0.5279(7)
C11 C 0.3056(3) 0.0909(4) 0.3747(9)
C12 C 0.2515(2) 0.0855(4) 0.3835(10)
C13 C 0.2252(2) 0.1191(4) 0.5440(10)
C14 C 0.2534(3) 0.1578(5) 0.6969(11)
C15 C 0.30736(17) 0.1620(4) 0.6898(8)
H1 H 0.4132(17) 0.188(3) 0.258(8)
H2 H 0.5285(17) 0.191(4) 0.233(9)
H3 H 0.6004(19) 0.087(3) 0.694(8)
H4 H 0.5207(18) 0.057(3) 0.869(8)
H5 H 0.3236(19) 0.071(4) 0.268(8)
H6 H 0.2302(18) 0.057(4) 0.280(8)
H7 H 0.1861(17) 0.118(4) 0.543(10)
H8 H 0.237(3) 0.187(6) 0.809(13)
H9 H 0.327(2) 0.188(4) 0.806(7)
loop_
_geom_bond_atom_site_label_1
_geom_bond_atom_site_label_2
_geom_bond_site_symmetry_1
_geom_bond_site_symmetry_2
F1 C5 1_555 1_555
N1 C1 1_555 1_555
N2 C9 1_555 1_555
C1 C2 1_555 1_555
C2 C3 1_555 1_555
C3 C4 1_555 1_555
C4 C5 1_555 1_555
C5 C6 1_555 1_555
C6 C7 1_555 1_555
C7 C8 1_555 1_555
C8 N1 1_555 1_555
C9 N1 1_555 1_555
C10 C1 1_555 1_555
C11 C10 1_555 1_555
C12 C11 1_555 1_555
C13 C12 1_555 1_555
C14 C13 1_555 1_555
C15 C10 1_555 1_555
H1 C2 1_555 1_555
H2 C4 1_555 1_555
H3 C6 1_555 1_555
H4 C7 1_555 1_555
H5 C11 1_555 1_555
H6 C12 1_555 1_555
H7 C13 1_555 1_555
H8 C14 1_555 1_555
H9 C15 1_555 1_555
C3 C8 1_555 1_555
C14 C15 1_555 1_555

#END
