
#######################################################################
#
#                 Cambridge Crystallographic Data Centre
#                                CCDC 
#
#######################################################################
#
# If this CIF has been generated from an entry in the Cambridge 
# Structural Database, then it will include bibliographic, chemical, 
# crystal, experimental, refinement or atomic coordinate data resulting 
# from the CCDC's data processing and validation procedures.
#
#######################################################################

data_DAQVID
_chemical_formula_moiety         'C19 H20 N1 O4 P1 S1'
_chemical_name_systematic        
"methyl 3,10,11-trimethyl-2-oxo-8-sulfanylidene-2,3,9,12-tetrahydro-8H,12aH-8\l^5^-phosphinino[1',2':1,2]phosphinolino[4,3-d][1,3]oxazole-12a-carboxylate"
_symmetry_cell_setting           monoclinic
_symmetry_space_group_name_H-M   'P 21/c'
_symmetry_Int_Tables_number      14
_space_group_name_Hall           '-P 2ybc'
loop_
_symmetry_equiv_pos_site_id
_symmetry_equiv_pos_as_xyz
1 x,y,z
2 -x,1/2+y,1/2-z
3 -x,-y,-z
4 x,1/2-y,1/2+z
_cell_length_a                   7.0774(3)
_cell_length_b                   17.6758(8)
_cell_length_c                   15.0674(8)
_cell_angle_alpha                90
_cell_angle_beta                 102.554(5)
_cell_angle_gamma                90
_cell_volume                     1839.85
_exptl_crystal_colour            colorless
_exptl_crystal_description       prism
_cell_formula_units_Z            4
loop_
_atom_site_label
_atom_site_type_symbol
_atom_site_fract_x
_atom_site_fract_y
_atom_site_fract_z
C1 C 0.1569(3) 0.50853(14) 0.75984(16)
C2 C 0.0119(4) 0.53551(16) 0.79956(19)
H1 H -0.0603 0.5018 0.8262
C3 C -0.0271(4) 0.61219(18) 0.8001(2)
H2 H -0.1256 0.6301 0.8266
C4 C 0.0808(5) 0.66164(17) 0.7613(2)
H3 H 0.0539 0.7131 0.7611
C5 C 0.2295(4) 0.63584(15) 0.7224(2)
H4 H 0.3029 0.6703 0.6975
C6 C 0.2697(3) 0.55890(14) 0.72027(16)
C7 C 0.4254(3) 0.52626(14) 0.68228(16)
C8 C 0.4978(3) 0.45629(14) 0.69788(16)
C9 C 0.6565(4) 0.51031(17) 0.60208(19)
C10 C 0.4952(5) 0.63231(18) 0.5749(2)
H5 H 0.3585 0.6407 0.5550
H6 H 0.5538 0.6309 0.5231
H7 H 0.5514 0.6726 0.6147
C11 C 0.4487(3) 0.39348(14) 0.75550(16)
C12 C 0.4732(4) 0.31373(15) 0.71748(19)
H8 H 0.6066 0.3090 0.7117
H9 H 0.4544 0.2773 0.7629
C13 C 0.3456(4) 0.29034(14) 0.62793(18)
C14 C 0.1744(4) 0.32016(15) 0.59256(17)
C15 C 0.0855(4) 0.38562(15) 0.63297(17)
H10 H -0.0514 0.3753 0.6267
H11 H 0.0965 0.4304 0.5972
C16 C 0.4305(5) 0.22486(18) 0.5855(2)
H12 H 0.5536 0.2393 0.5739
H13 H 0.3445 0.2111 0.5294
H14 H 0.4474 0.1825 0.6263
C17 C 0.0458(5) 0.2958(2) 0.5038(2)
H15 H -0.0666 0.2707 0.5155
H16 H 0.1156 0.2617 0.4730
H17 H 0.0066 0.3394 0.4664
C18 C 0.5649(4) 0.39442(17) 0.85480(19)
C19 C 0.7205(6) 0.4686(3) 0.9776(2)
H18 H 0.8426 0.4438 0.9809
H19 H 0.6518 0.4439 1.0178
H20 H 0.7423 0.5206 0.9952
N1 N 0.5287(3) 0.56068(13) 0.62330(16)
O1 O 0.6422(3) 0.44475(10) 0.65016(12)
O2 O 0.7637(3) 0.51634(14) 0.55034(16)
O3 O 0.6113(4) 0.33906(14) 0.89956(16)
O4 O 0.6059(3) 0.46466(13) 0.88437(14)
P1 P 0.18750(9) 0.40723(3) 0.75138(4)
S1 S 0.08659(12) 0.34939(4) 0.84041(5)
loop_
_geom_bond_atom_site_label_1
_geom_bond_atom_site_label_2
_geom_bond_site_symmetry_1
_geom_bond_site_symmetry_2
C1 C2 1_555 1_555
C2 H1 1_555 1_555
C3 C2 1_555 1_555
H2 C3 1_555 1_555
C4 C3 1_555 1_555
H3 C4 1_555 1_555
C5 C4 1_555 1_555
H4 C5 1_555 1_555
C6 C1 1_555 1_555
C7 C6 1_555 1_555
C8 C7 1_555 1_555
C9 N1 1_555 1_555
C10 H5 1_555 1_555
H6 C10 1_555 1_555
H7 C10 1_555 1_555
C11 C8 1_555 1_555
C12 C11 1_555 1_555
H8 C12 1_555 1_555
H9 C12 1_555 1_555
C13 C12 1_555 1_555
C14 C13 1_555 1_555
C15 C14 1_555 1_555
H10 C15 1_555 1_555
H11 C15 1_555 1_555
C16 C13 1_555 1_555
H12 C16 1_555 1_555
H13 C16 1_555 1_555
H14 C16 1_555 1_555
C17 C14 1_555 1_555
H15 C17 1_555 1_555
H16 C17 1_555 1_555
H17 C17 1_555 1_555
C18 C11 1_555 1_555
C19 H18 1_555 1_555
H19 C19 1_555 1_555
H20 C19 1_555 1_555
N1 C7 1_555 1_555
O1 C8 1_555 1_555
O2 C9 1_555 1_555
O3 C18 1_555 1_555
O4 C18 1_555 1_555
P1 C1 1_555 1_555
S1 P1 1_555 1_555
C5 C6 1_555 1_555
C9 O1 1_555 1_555
C10 N1 1_555 1_555
C11 P1 1_555 1_555
C15 P1 1_555 1_555
C19 O4 1_555 1_555

#END
