
#######################################################################
#
#                 Cambridge Crystallographic Data Centre
#                                CCDC 
#
#######################################################################
#
# If this CIF has been generated from an entry in the Cambridge 
# Structural Database, then it will include bibliographic, chemical, 
# crystal, experimental, refinement or atomic coordinate data resulting 
# from the CCDC's data processing and validation procedures.
#
#######################################################################

data_DAQXUP
_chemical_formula_moiety         'C12 H36 N6 6+,6(C2 F3 O2 1-),2(H2 O1)'
_chemical_name_systematic        
'1,4,7,10,13,16-Hexaazoniacyclooctadecane hexakis(trifluoroacetate) dihydrate'
_symmetry_cell_setting           monoclinic
_symmetry_space_group_name_H-M   'P 21/c'
_symmetry_Int_Tables_number      14
_space_group_name_Hall           '-P 2ybc'
loop_
_symmetry_equiv_pos_site_id
_symmetry_equiv_pos_as_xyz
1 x,y,z
2 -x,1/2+y,1/2-z
3 -x,-y,-z
4 x,1/2-y,1/2+z
_cell_length_a                   9.4382(2)
_cell_length_b                   17.0558(3)
_cell_length_c                   11.9500(3)
_cell_angle_alpha                90
_cell_angle_beta                 99.0630(10)
_cell_angle_gamma                90
_cell_volume                     1899.65
_exptl_crystal_colour            colorless
_cell_formula_units_Z            2
loop_
_atom_site_label
_atom_site_type_symbol
_atom_site_fract_x
_atom_site_fract_y
_atom_site_fract_z
F1 F 0.11965(15) 0.40250(8) -0.28650(11)
O1 O 0.11471(14) 0.45021(8) -0.05557(11)
F2 F 0.10674(19) 0.31231(8) -0.16531(12)
O2 O 0.34732(15) 0.45518(8) -0.07430(12)
F3 F 0.30603(14) 0.33604(8) -0.22147(11)
C7 C 0.2227(2) 0.43046(10) -0.09817(16)
C8 C 0.1907(2) 0.36948(11) -0.19340(17)
N1 N -0.08548(17) 0.31262(10) 0.18239(15)
C1 C 0.0579(2) 0.34406(11) 0.16897(17)
H1 H -0.094(2) 0.3120(12) 0.256(2)
N2 N 0.20212(18) 0.46472(9) 0.17442(15)
C2 C 0.0827(2) 0.42552(11) 0.22141(18)
H2 H -0.098(2) 0.2608(15) 0.1520(19)
N3 N 0.34427(18) 0.59428(10) 0.05416(13)
C3 C 0.2341(2) 0.54514(11) 0.22244(17)
H3 H 0.285(3) 0.4353(14) 0.185(2)
C4 C 0.3608(2) 0.58280(12) 0.18009(17)
H4 H 0.172(3) 0.4657(13) 0.095(2)
C5 C 0.2100(2) 0.63478(12) 0.00270(17)
H5 H 0.354(2) 0.5457(14) 0.0181(19)
C6 C -0.2133(2) 0.35632(12) 0.12344(17)
H6 H 0.422(3) 0.6251(14) 0.038(2)
H7 H 0.126(2) 0.3094(13) 0.2071(19)
H8 H 0.0611(18) 0.3465(10) 0.0889(16)
H9 H 0.108(2) 0.4244(11) 0.3047(19)
H10 H -0.001(2) 0.4570(12) 0.2021(17)
H11 H 0.256(2) 0.5399(10) 0.3035(18)
H12 H 0.150(2) 0.5780(12) 0.2056(17)
H13 H 0.444(2) 0.5508(12) 0.2014(18)
H14 H 0.375(2) 0.6340(13) 0.2137(18)
H15 H 0.127(2) 0.6024(12) 0.0164(17)
H16 H 0.207(2) 0.6854(14) 0.0425(19)
H17 H -0.2194(19) 0.4038(12) 0.1586(16)
H18 H -0.298(2) 0.3224(12) 0.1381(17)
N1B N 0.08548(17) 0.68738(10) -0.18239(15)
C1B C -0.0579(2) 0.65594(11) -0.16897(17)
H1B H 0.094(2) 0.6880(12) -0.256(2)
N2B N -0.20212(18) 0.53528(9) -0.17442(15)
C2B C -0.0827(2) 0.57448(11) -0.22141(18)
H2B H 0.098(2) 0.7392(15) -0.1520(19)
N3B N -0.34427(18) 0.40572(10) -0.05416(13)
C3B C -0.2341(2) 0.45486(11) -0.22244(17)
H3B H -0.285(3) 0.5647(14) -0.185(2)
C4B C -0.3608(2) 0.41720(12) -0.18009(17)
H4B H -0.172(3) 0.5343(13) -0.095(2)
C5B C -0.2100(2) 0.36522(12) -0.00270(17)
H5B H -0.354(2) 0.4543(14) -0.0181(19)
C6B C 0.2133(2) 0.64368(12) -0.12344(17)
H6B H -0.422(3) 0.3749(14) -0.038(2)
H7B H -0.126(2) 0.6906(13) -0.2071(19)
H8B H -0.0611(18) 0.6535(10) -0.0889(16)
H9B H -0.108(2) 0.5756(11) -0.3047(19)
H10B H 0.001(2) 0.5430(12) -0.2021(17)
H11B H -0.256(2) 0.4601(10) -0.3035(18)
H12B H -0.150(2) 0.4220(12) -0.2056(17)
H13B H -0.444(2) 0.4492(12) -0.2014(18)
H14B H -0.375(2) 0.3660(13) -0.2137(18)
H15B H -0.127(2) 0.3976(12) -0.0164(17)
H16B H -0.207(2) 0.3146(14) -0.0425(19)
H17B H 0.2194(19) 0.5962(12) -0.1586(16)
H18B H 0.298(2) 0.6776(12) -0.1381(17)
O3 O 0.52180(16) 0.70557(8) -0.01024(12)
F4 F 0.74643(15) 0.80306(9) -0.01259(15)
O4 O 0.46231(16) 0.78194(8) 0.12734(12)
F5 F 0.65061(17) 0.88955(8) 0.08379(11)
F6 F 0.55942(15) 0.86505(7) -0.08727(10)
C9 C 0.5258(2) 0.76741(11) 0.04701(17)
C10 C 0.6219(2) 0.83144(13) 0.00791(18)
O5 O -0.16445(15) 0.17396(8) 0.08547(11)
O6 O -0.10001(15) 0.19097(8) -0.08654(11)
F7 F -0.34618(14) 0.06208(8) -0.02351(14)
F8 F -0.2147(3) 0.05438(8) -0.15285(12)
F9 F -0.13655(14) 0.01674(7) 0.01535(12)
C11 C -0.1534(2) 0.15440(11) -0.01340(17)
C12 C -0.2132(2) 0.07208(12) -0.04488(18)
O7 O 0.43418(18) 0.37580(10) 0.19504(16)
H19 H 0.469(3) 0.3532(19) 0.260(3)
H20 H 0.434(4) 0.351(2) 0.141(3)
loop_
_geom_bond_atom_site_label_1
_geom_bond_atom_site_label_2
_geom_bond_site_symmetry_1
_geom_bond_site_symmetry_2
F1 C8 1_555 1_555
O1 C7 1_555 1_555
N1 C1 1_555 1_555
C1 C2 1_555 1_555
H1 N1 1_555 1_555
F2 C8 1_555 1_555
O2 C7 1_555 1_555
N2 C2 1_555 1_555
C2 H9 1_555 1_555
H2 N1 1_555 1_555
F3 C8 1_555 1_555
O3 C9 1_555 1_555
N3 C4 1_555 1_555
C3 N2 1_555 1_555
H3 N2 1_555 1_555
F4 C10 1_555 1_555
O4 C9 1_555 1_555
C4 C3 1_555 1_555
H4 N2 1_555 1_555
F5 C10 1_555 1_555
O5 C11 1_555 1_555
C5 N3 1_555 1_555
H5 N3 1_555 1_555
F6 C10 1_555 1_555
O6 C11 1_555 1_555
C6 N1 1_555 1_555
H6 N3 1_555 1_555
F7 C12 1_555 1_555
C7 C8 1_555 1_555
H7 C1 1_555 1_555
F8 C12 1_555 1_555
H8 C1 1_555 1_555
F9 C12 1_555 1_555
C9 C10 1_555 1_555
H10 C2 1_555 1_555
C11 C12 1_555 1_555
H11 C3 1_555 1_555
H12 C3 1_555 1_555
H13 C4 1_555 1_555
H14 C4 1_555 1_555
H15 C5 1_555 1_555
H16 C5 1_555 1_555
H17 C6 1_555 1_555
H18 C6 1_555 1_555
O7 H19 1_555 1_555
H20 O7 1_555 1_555
N1B C1B 1_555 1_555
C1B C2B 1_555 1_555
H1B N1B 1_555 1_555
N2B C2B 1_555 1_555
C2B H9B 1_555 1_555
H2B N1B 1_555 1_555
N3B C4B 1_555 1_555
C3B N2B 1_555 1_555
H3B N2B 1_555 1_555
C4B C3B 1_555 1_555
H4B N2B 1_555 1_555
C5B C6 1_555 1_555
H5B N3B 1_555 1_555
C6B C5 1_555 1_555
H6B N3B 1_555 1_555
H7B C1B 1_555 1_555
H8B C1B 1_555 1_555
H10B C2B 1_555 1_555
H11B C3B 1_555 1_555
H12B C3B 1_555 1_555
H13B C4B 1_555 1_555
H14B C4B 1_555 1_555
H15B C5B 1_555 1_555
H16B C5B 1_555 1_555
H17B C6B 1_555 1_555
H18B C6B 1_555 1_555
N1B C6B 1_555 1_555
N3B C5B 1_555 1_555

#END
