
#######################################################################
#
#                 Cambridge Crystallographic Data Centre
#                                CCDC 
#
#######################################################################
#
# If this CIF has been generated from an entry in the Cambridge 
# Structural Database, then it will include bibliographic, chemical, 
# crystal, experimental, refinement or atomic coordinate data resulting 
# from the CCDC's data processing and validation procedures.
#
#######################################################################

data_DAQYEA
_chemical_formula_moiety         'C12 H33 N6 3+,3(C12 H8 N2 O8 P1 1-),5(H2 O1)'
_chemical_name_systematic        
'4,10,16-Triaza-1,7,13-triazoniacyclooctadecane tris(bis(4-nitrophenyl)phosphate) pentahydrate'
_symmetry_cell_setting           triclinic
_symmetry_space_group_name_H-M   'P -1'
_symmetry_Int_Tables_number      2
_space_group_name_Hall           '-P 1'
loop_
_symmetry_equiv_pos_site_id
_symmetry_equiv_pos_as_xyz
1 x,y,z
2 -x,-y,-z
_cell_length_a                   8.6654(2)
_cell_length_b                   17.8083(4)
_cell_length_c                   20.5578(5)
_cell_angle_alpha                76.8710(10)
_cell_angle_beta                 83.7270(10)
_cell_angle_gamma                84.805(2)
_cell_volume                     3063.89
_exptl_crystal_colour            colorless
_cell_formula_units_Z            2
loop_
_atom_site_label
_atom_site_type_symbol
_atom_site_fract_x
_atom_site_fract_y
_atom_site_fract_z
P1 P 0.22868(8) 0.62704(4) 0.19976(4)
O1 O 0.35818(19) 0.66325(11) 0.21959(9)
O2 O 0.11099(19) 0.58895(11) 0.25149(9)
O3 O 0.31303(19) 0.56778(11) 0.15618(10)
O4 O 0.1317(2) 0.68862(11) 0.14713(10)
N7 N 0.3843(3) 0.94521(17) -0.02786(13)
N8 N 0.0345(3) 0.36203(16) 0.04354(14)
O12 O 0.3367(2) 1.00952(13) -0.01775(11)
O13 O 0.4747(3) 0.93587(14) -0.07567(12)
O14 O 0.0544(3) 0.36936(14) -0.01791(12)
O15 O -0.0394(3) 0.31068(14) 0.08088(12)
C25 C 0.2004(3) 0.75145(17) 0.10405(15)
C26 C 0.1844(3) 0.82218(19) 0.12253(16)
C27 C 0.2463(3) 0.8858(2) 0.07972(16)
C28 C 0.3244(3) 0.87648(17) 0.01950(14)
C29 C 0.3424(4) 0.80699(19) 0.00073(16)
C30 C 0.2777(3) 0.7433(2) 0.04377(16)
C31 C 0.2365(3) 0.51696(17) 0.12959(15)
C32 C 0.1349(3) 0.46601(18) 0.16928(17)
C33 C 0.0677(3) 0.41576(18) 0.14077(15)
C34 C 0.1047(3) 0.41681(17) 0.07328(15)
C35 C 0.2064(4) 0.46710(19) 0.03385(16)
C36 C 0.2736(4) 0.51759(19) 0.06240(16)
H42 H 0.131(3) 0.8253(16) 0.1625(15)
H43 H 0.235(3) 0.933(2) 0.0902(16)
H44 H 0.400(3) 0.7997(18) -0.0422(16)
H45 H 0.290(3) 0.6982(19) 0.0297(15)
H46 H 0.113(3) 0.4652(17) 0.2133(16)
H47 H -0.009(3) 0.3810(17) 0.1649(14)
H48 H 0.229(3) 0.4664(16) -0.0139(15)
H49 H 0.343(3) 0.5539(17) 0.0357(14)
N1 N 0.6368(3) 0.51824(14) 0.29746(12)
C1 C 0.6728(3) 0.46210(18) 0.35849(16)
H1 H 0.7183 0.4135 0.3465
H2 H 0.5753 0.4505 0.3876
H3 H 0.544(3) 0.5112(18) 0.2846(15)
N2 N 0.7172(3) 0.56355(17) 0.41611(14)
C2 C 0.7850(3) 0.4909(2) 0.39669(16)
H4 H 0.8069 0.4511 0.4374
H5 H 0.8843 0.5008 0.3685
H6 H 0.735(3) 0.6621(17) 0.2285(15)
N3 N 0.6728(3) 0.71705(18) 0.43991(13)
C3 C 0.8028(3) 0.5887(2) 0.46628(15)
H7 H 0.8259 0.5439 0.5031
H8 H 0.9028 0.609 0.4445
H9 H 0.583(4) 0.6562(18) 0.2057(16)
N4 N 0.5315(3) 0.82275(15) 0.33509(13)
C4 C 0.7063(4) 0.6496(2) 0.49381(16)
H10 H 0.6074 0.6288 0.5165
H11 H 0.7622 0.6655 0.5275
H12 H 0.721(4) 0.8322(18) 0.1984(15)
N5 N 0.6266(3) 0.81363(14) 0.20182(12)
C5 C 0.5387(4) 0.7671(2) 0.45655(16)
H13 H 0.5493 0.7803 0.50000
H14 H 0.4428 0.7393 0.4612
H15 H 0.621(3) 0.8036(17) 0.3263(14)
N6 N 0.6795(3) 0.65393(14) 0.19288(12)
C6 C 0.5260(4) 0.8399(2) 0.40301(16)
H16 H 0.427 0.8696 0.4122
H17 H 0.6125 0.8721 0.4041
H18 H 0.453(3) 0.7877(18) 0.3323(14)
C7 C 0.5153(3) 0.89333(18) 0.28045(16)
H19 H 0.606 0.9245 0.2771
H20 H 0.4205 0.9251 0.2914
H21 H 0.745(4) 0.741(2) 0.4320(19)
C8 C 0.5051(3) 0.87267(17) 0.21461(16)
H22 H 0.4018 0.8533 0.2143
H23 H 0.5152 0.9196 0.1782
H24 H 0.718(4) 0.605(2) 0.379(2)
C9 C 0.6127(3) 0.79039(17) 0.13887(14)
H25 H 0.6432 0.8329 0.1007
H26 H 0.5028 0.7813 0.1362
H27 H 0.610(4) 0.5605(19) 0.4338(17)
C10 C 0.7135(3) 0.71811(17) 0.13321(14)
H28 H 0.6944 0.702 0.0919
H29 H 0.8245 0.729 0.1298
C11 C 0.7229(3) 0.57518(17) 0.17903(14)
H30 H 0.8161 0.5777 0.1463
H31 H 0.6367 0.5587 0.1588
C12 C 0.7565(3) 0.51638(17) 0.24208(15)
H32 H 0.7661 0.4642 0.2323
H33 H 0.8575 0.5259 0.256
P2 P 0.96470(8) 0.87508(5) 0.29973(4)
O5 O 1.1350(2) 0.86216(12) 0.29312(10)
O6 O 0.8622(2) 0.81096(13) 0.31643(13)
O7 O 0.9076(3) 0.9372(2) 0.34257(19)
N11 N 1.1637(3) 1.16224(15) 0.03631(14)
N12 N 1.3003(3) 1.03766(18) 0.49924(14)
C13 C 1.0079(3) 0.9563(2) 0.38629(18)
C14 C 1.0342(3) 1.0322(2) 0.37193(17)
C15 C 1.1308(3) 1.0591(2) 0.40903(15)
C16 C 1.1973(3) 1.00758(17) 0.46092(14)
C17 C 1.1666(4) 0.9308(2) 0.47724(19)
C18 C 1.0687(4) 0.9051(2) 0.4386(2)
C19 C 0.9789(3) 0.9830(2) 0.18662(18)
C20 C 0.9162(4) 1.0054(2) 0.1259(2)
O20 O 1.1125(2) 1.17361(14) -0.01835(12)
C21 C 0.9782(4) 1.0634(2) 0.07720(18)
O21 O 1.2637(3) 1.19998(14) 0.04921(13)
C22 C 1.1014(3) 1.09999(17) 0.08985(15)
O22 O 1.3308(3) 1.10535(16) 0.48079(12)
C23 C 1.1673(4) 1.07861(19) 0.14993(16)
O23 O 1.3508(2) 0.99380(16) 0.54855(11)
C24 C 1.1048(4) 1.0198(2) 0.19936(17)
H34 H 0.985(4) 1.071(2) 0.3330(18)
H35 H 1.152(3) 1.111(2) 0.3986(15)
H36 H 1.199(3) 0.9040(17) 0.5094(14)
H37 H 1.050(4) 0.855(2) 0.4511(17)
H38 H 0.838(4) 0.9781(19) 0.1173(15)
H39 H 0.939(3) 1.0770(19) 0.0368(17)
H40 H 1.253(3) 1.1010(18) 0.1536(15)
H41 H 1.149(3) 1.0045(16) 0.2397(15)
O29 O 0.9090(3) 0.91767(17) 0.22757(13)
P3 P 0.02903(8) 0.29982(5) 0.36854(4)
O8 O 0.0703(2) 0.37993(12) 0.36039(11)
N9 N 0.5631(3) 0.36686(16) 0.11620(14)
O9 O -0.0401(2) 0.25403(12) 0.43217(10)
N10 N -0.4758(3) 0.09148(15) 0.26845(15)
O10 O -0.0803(2) 0.30426(11) 0.30768(10)
O11 O 0.1787(2) 0.24703(11) 0.34521(10)
O16 O 0.6465(3) 0.41873(15) 0.11817(12)
O17 O 0.5541(3) 0.34325(15) 0.06513(13)
O18 O -0.4626(3) 0.07464(15) 0.21370(13)
O19 O -0.5767(2) 0.06824(14) 0.31239(13)
C37 C 0.2763(3) 0.27633(17) 0.28879(15)
C38 C 0.2719(3) 0.24874(18) 0.23174(15)
C39 C 0.3682(3) 0.27685(19) 0.17463(17)
C40 C 0.4663(3) 0.33328(17) 0.17699(15)
C41 C 0.4748(3) 0.35967(18) 0.23483(16)
C42 C 0.3790(3) 0.33104(18) 0.29125(16)
C43 C -0.1715(3) 0.24650(16) 0.30178(15)
C44 C -0.2823(3) 0.21646(18) 0.35311(16)
C45 C -0.3812(3) 0.16435(18) 0.34225(16)
C46 C -0.3663(3) 0.14408(17) 0.28091(15)
C47 C -0.2545(3) 0.17231(19) 0.23003(16)
C48 C -0.1568(3) 0.22477(19) 0.24090(16)
H50 H 0.201(3) 0.2074(18) 0.2308(14)
H51 H 0.359(3) 0.2583(19) 0.1357(16)
H52 H 0.549(3) 0.3998(18) 0.2305(15)
H53 H 0.379(3) 0.3509(16) 0.3318(14)
H54 H -0.295(3) 0.2291(17) 0.3950(15)
H55 H -0.460(3) 0.1478(16) 0.3718(14)
H56 H -0.239(3) 0.1545(17) 0.1885(15)
H57 H -0.078(3) 0.2423(14) 0.2056(13)
O24 O 0.2916(2) 0.72820(13) 0.33411(10)
H58 H 0.228(4) 0.7765(12) 0.3159(16)
H59 H 0.323(4) 0.7010(17) 0.2970(12)
O25 O 0.3927(2) 0.55557(14) 0.44715(11)
H60 H 0.339(4) 0.6065(12) 0.4511(19)
H61 H 0.337(3) 0.5342(17) 0.4160(14)
O26 O 0.2654(2) 0.49259(13) 0.35622(11)
H62 H 0.220(3) 0.5326(13) 0.3202(13)
H63 H 0.211(4) 0.4446(11) 0.3627(17)
O27 O -0.1476(2) 0.66544(12) 0.29779(10)
H64 H -0.129(3) 0.7173(10) 0.3038(18)
H65 H -0.048(2) 0.6377(14) 0.2863(16)
O28 O -0.1583(3) 0.33200(15) 0.53301(13)
H66 H -0.109(5) 0.296(3) 0.505(2)
H67 H -0.182(10) 0.301(3) 0.5795(14)
O30? O 0.9008(8) 0.9662(5) 0.2584(4)
O31? O 0.9195(10) 0.8944(7) 0.3756(5)
loop_
_geom_bond_atom_site_label_1
_geom_bond_atom_site_label_2
_geom_bond_site_symmetry_1
_geom_bond_site_symmetry_2
P1 O1 1_555 1_555
N1 C1 1_555 1_555
C1 H1 1_555 1_555
H2 C1 1_555 1_555
H3 N1 1_555 1_555
P2 O5 1_555 1_555
O2 P1 1_555 1_555
N2 C2 1_555 1_555
C2 C1 1_555 1_555
H4 C2 1_555 1_555
H5 C2 1_555 1_555
H6 N6 1_555 1_555
P3 O8 1_555 1_555
O3 P1 1_555 1_555
N3 C4 1_555 1_555
C3 N2 1_555 1_555
H7 C3 1_555 1_555
H8 C3 1_555 1_555
H9 N6 1_555 1_555
O4 P1 1_555 1_555
N4 H15 1_555 1_555
C4 C3 1_555 1_555
H10 C4 1_555 1_555
H11 C4 1_555 1_555
H12 N5 1_555 1_555
N5 C8 1_555 1_555
C5 N3 1_555 1_555
H13 C5 1_555 1_555
H14 C5 1_555 1_555
O6 P2 1_555 1_555
N6 C10 1_555 1_555
C6 N4 1_555 1_555
H16 C6 1_555 1_555
H17 C6 1_555 1_555
H18 N4 1_555 1_555
N7 O12 1_555 1_555
C7 N4 1_555 1_555
H19 C7 1_555 1_555
H20 C7 1_555 1_555
H21 N3 1_555 1_555
O7 P2 1_555 1_555
N8 O14 1_555 1_555
C8 C7 1_555 1_555
H22 C8 1_555 1_555
H23 C8 1_555 1_555
H24 N2 1_555 1_555
N9 O16 1_555 1_555
C9 N5 1_555 1_555
H25 C9 1_555 1_555
H26 C9 1_555 1_555
H27 N2 1_555 1_555
O9 P3 1_555 1_555
N10 O18 1_555 1_555
C10 C9 1_555 1_555
H28 C10 1_555 1_555
H29 C10 1_555 1_555
O10 P3 1_555 1_555
N11 O20 1_555 1_555
C11 N6 1_555 1_555
H30 C11 1_555 1_555
H31 C11 1_555 1_555
O11 P3 1_555 1_555
N12 C16 1_555 1_555
C12 N1 1_555 1_555
H32 C12 1_555 1_555
H33 C12 1_555 1_555
C13 O7 1_555 1_555
O13 N7 1_555 1_555
C14 C13 1_555 1_555
C15 C14 1_555 1_555
O15 N8 1_555 1_555
C16 C15 1_555 1_555
C17 C16 1_555 1_555
O17 N9 1_555 1_555
C18 C13 1_555 1_555
C19 C20 1_555 1_555
O19 N10 1_555 1_555
C20 C21 1_555 1_555
C21 C22 1_555 1_555
O21 N11 1_555 1_555
C22 N11 1_555 1_555
O22 N12 1_555 1_555
C23 C22 1_555 1_555
O23 N12 1_555 1_555
C24 C19 1_555 1_555
C25 O4 1_555 1_555
C26 C25 1_555 1_555
C27 C26 1_555 1_555
C28 N7 1_555 1_555
C29 C28 1_555 1_555
C30 C25 1_555 1_555
C31 O3 1_555 1_555
C32 C31 1_555 1_555
C33 C32 1_555 1_555
C34 N8 1_555 1_555
H34 C14 1_555 1_555
C35 C34 1_555 1_555
H35 C15 1_555 1_555
C36 C31 1_555 1_555
H36 C17 1_555 1_555
C37 O11 1_555 1_555
H37 C18 1_555 1_555
C38 C37 1_555 1_555
H38 C20 1_555 1_555
C39 C38 1_555 1_555
H39 C21 1_555 1_555
C40 N9 1_555 1_555
H40 C23 1_555 1_555
C41 C40 1_555 1_555
H41 C24 1_555 1_555
C42 C37 1_555 1_555
H42 C26 1_555 1_555
C43 O10 1_555 1_555
H43 C27 1_555 1_555
C44 C43 1_555 1_555
H44 C29 1_555 1_555
C45 C44 1_555 1_555
H45 C30 1_555 1_555
C46 N10 1_555 1_555
H46 C32 1_555 1_555
C47 C46 1_555 1_555
H47 C33 1_555 1_555
C48 C43 1_555 1_555
H48 C35 1_555 1_555
H49 C36 1_555 1_555
H50 C38 1_555 1_555
H51 C39 1_555 1_555
H52 C41 1_555 1_555
H53 C42 1_555 1_555
H54 C44 1_555 1_555
H55 C45 1_555 1_555
H56 C47 1_555 1_555
H57 C48 1_555 1_555
O24 H58 1_555 1_555
O25 H60 1_555 1_555
H59 O24 1_555 1_555
O26 H62 1_555 1_555
O27 H64 1_555 1_555
H61 O25 1_555 1_555
O28 H66 1_555 1_555
H63 O26 1_555 1_555
H65 O27 1_555 1_555
H67 O28 1_555 1_555
O29 P2 1_555 1_555
C5 C6 1_555 1_555
C11 C12 1_555 1_555
C17 C18 1_555 1_555
C19 O29 1_555 1_555
C23 C24 1_555 1_555
C27 C28 1_555 1_555
C29 C30 1_555 1_555
C33 C34 1_555 1_555
C35 C36 1_555 1_555
C39 C40 1_555 1_555
C41 C42 1_555 1_555
C45 C46 1_555 1_555
C47 C48 1_555 1_555

#END
