
#######################################################################
#
#                 Cambridge Crystallographic Data Centre
#                                CCDC 
#
#######################################################################
#
# If this CIF has been generated from an entry in the Cambridge 
# Structural Database, then it will include bibliographic, chemical, 
# crystal, experimental, refinement or atomic coordinate data resulting 
# from the CCDC's data processing and validation procedures.
#
#######################################################################

data_DARNOZ
_chemical_formula_moiety         'C19 H22 O1'
_chemical_name_systematic        2,2,3,3-Tetramethyl-4,4-diphenyl-oxetane
_symmetry_cell_setting           monoclinic
_symmetry_space_group_name_H-M   'P 1 1 21/n'
_symmetry_Int_Tables_number      14
_space_group_name_Hall           '-P 2n'
loop_
_symmetry_equiv_pos_site_id
_symmetry_equiv_pos_as_xyz
1 x,y,z
2 1/2-x,1/2-y,1/2+z
3 -x,-y,-z
4 1/2+x,1/2+y,1/2-z
_cell_length_a                   6.424(5)
_cell_length_b                   13.411(4)
_cell_length_c                   18.034(5)
_cell_angle_alpha                90
_cell_angle_beta                 90
_cell_angle_gamma                103.54(4)
_cell_volume                     1510.49
_chemical_melting_point          121.7-122deg.C
_cell_formula_units_Z            4
loop_
_atom_site_label
_atom_site_type_symbol
_atom_site_fract_x
_atom_site_fract_y
_atom_site_fract_z
O1 O 0.252(1) 0.1525(7) 0.3186(7)
C1 C 0.077(2) 0.202(1) 0.3014(9)
C2 C -0.091(2) 0.108(1) 0.3349(9)
C3 C 0.108(2) 0.056(1) 0.3372(9)
C4 C 0.119(2) 0.303(1) 0.3428(10)
C5 C -0.051(3) 0.357(1) 0.3537(10)
C6 C -0.003(3) 0.447(1) 0.3913(11)
C7 C 0.178(3) 0.490(2) 0.4236(11)
C8 C 0.348(3) 0.443(1) 0.4116(12)
C9 C 0.302(2) 0.342(1) 0.3758(10)
C10 C 0.069(2) 0.220(1) 0.2214(9)
C11 C 0.229(3) 0.204(1) 0.1711(12)
C12 C 0.231(3) 0.225(2) 0.0974(10)
C13 C 0.054(4) 0.255(2) 0.0651(11)
C14 C -0.098(3) 0.275(1) 0.1107(10)
C15 C -0.093(3) 0.257(1) 0.1853(10)
C16 C -0.269(2) 0.056(1) 0.2848(10)
C17 C -0.173(2) 0.127(1) 0.4131(11)
C18 C 0.108(3) -0.024(1) 0.2784(11)
C19 C 0.166(3) 0.018(1) 0.4121(11)
H1 H -0.1917 0.3300 0.3351
H2 H -0.0603 0.4838 0.3767
H3 H 0.1937 0.5500 0.4532
H4 H 0.5056 0.4910 0.4521
H5 H 0.4083 0.3038 0.3765
H6 H 0.3419 0.1767 0.1904
H7 H 0.3491 0.2187 0.0676
H8 H 0.0640 0.2594 0.0047
H9 H -0.2109 0.3014 0.0906
H10 H -0.2055 0.2711 0.2148
H11 H -0.3984 0.0971 0.2865
H12 H -0.2083 0.0562 0.2277
H13 H -0.3305 -0.0235 0.3034
H14 H -0.2906 0.1586 0.4087
H15 H -0.2747 0.0382 0.4333
H16 H -0.0846 0.2009 0.4320
H17 H -0.0168 -0.1056 0.2939
H18 H 0.2316 -0.0510 0.2841
H19 H 0.0473 0.0015 0.2147
H20 H 0.2854 -0.0120 0.4067
H21 H 0.2003 0.0736 0.4458
H22 H 0.0473 -0.0324 0.4307
loop_
_geom_bond_atom_site_label_1
_geom_bond_atom_site_label_2
_geom_bond_site_symmetry_1
_geom_bond_site_symmetry_2
O1 C1 1_555 1_555
C1 C2 1_555 1_555
C2 C3 1_555 1_555
C3 O1 1_555 1_555
C4 C1 1_555 1_555
C5 C4 1_555 1_555
C6 C5 1_555 1_555
C7 C6 1_555 1_555
C8 C7 1_555 1_555
C9 C4 1_555 1_555
C10 C1 1_555 1_555
C11 C10 1_555 1_555
C12 C11 1_555 1_555
C13 C12 1_555 1_555
C14 C13 1_555 1_555
C15 C10 1_555 1_555
C16 C2 1_555 1_555
C17 C2 1_555 1_555
C18 C3 1_555 1_555
C19 C3 1_555 1_555
H1 C5 1_555 1_555
H2 C6 1_555 1_555
H3 C7 1_555 1_555
H4 C8 1_555 1_555
H5 C9 1_555 1_555
H6 C11 1_555 1_555
H7 C12 1_555 1_555
H8 C13 1_555 1_555
H9 C14 1_555 1_555
H10 C15 1_555 1_555
H11 C16 1_555 1_555
H12 C16 1_555 1_555
H13 C16 1_555 1_555
H14 C17 1_555 1_555
H15 C17 1_555 1_555
H16 C17 1_555 1_555
H17 C18 1_555 1_555
H18 C18 1_555 1_555
H19 C18 1_555 1_555
H20 C19 1_555 1_555
H21 C19 1_555 1_555
H22 C19 1_555 1_555
C8 C9 1_555 1_555
C14 C15 1_555 1_555

#END
