
#######################################################################
#
#                 Cambridge Crystallographic Data Centre
#                                CCDC 
#
#######################################################################
#
# If this CIF has been generated from an entry in the Cambridge 
# Structural Database, then it will include bibliographic, chemical, 
# crystal, experimental, refinement or atomic coordinate data resulting 
# from the CCDC's data processing and validation procedures.
#
#######################################################################

data_DARQIZ
_chemical_formula_moiety         'C13 H10 N1 P1 S2'
_chemical_name_systematic        
3-phenyl-1-sulfanylidene-1H-2,1-benzazaphosphol-2-ium-1-thiolate
_symmetry_cell_setting           monoclinic
_symmetry_space_group_name_H-M   'P 21/n'
_symmetry_Int_Tables_number      14
_space_group_name_Hall           '-P 2yn'
loop_
_symmetry_equiv_pos_site_id
_symmetry_equiv_pos_as_xyz
1 x,y,z
2 1/2-x,1/2+y,1/2-z
3 -x,-y,-z
4 1/2+x,1/2-y,1/2+z
_cell_length_a                   8.8004(10)
_cell_length_b                   13.3777(15)
_cell_length_c                   11.3269(14)
_cell_angle_alpha                90
_cell_angle_beta                 107.661(13)
_cell_angle_gamma                90
_cell_volume                     1270.66
_exptl_crystal_colour            yellow
_exptl_crystal_description       block
_cell_formula_units_Z            4
loop_
_atom_site_label
_atom_site_type_symbol
_atom_site_fract_x
_atom_site_fract_y
_atom_site_fract_z
S1 S -0.12627(8) 0.28171(6) 0.45741(7)
S2 S 0.11666(9) 0.40714(5) 0.70269(6)
P1 P 0.08138(7) 0.33588(4) 0.54627(5)
N1 N 0.1414(2) 0.41589(15) 0.44236(18)
H1 H 0.0932 0.4713 0.4165
C1 C 0.2460(3) 0.25466(17) 0.5447(2)
C2 C 0.2966(3) 0.16833(18) 0.6123(2)
H2 H 0.2458 0.1452 0.6680
C3 C 0.4252(3) 0.1171(2) 0.5946(3)
H3 H 0.4597 0.0583 0.6383
C4 C 0.5032(3) 0.1516(2) 0.5136(2)
H4 H 0.5880 0.1152 0.5026
C5 C 0.4565(3) 0.23939(19) 0.4486(2)
H5 H 0.5108 0.2637 0.3959
C6 C 0.3269(3) 0.29026(17) 0.4640(2)
C7 C 0.2620(3) 0.38586(17) 0.4078(2)
C8 C 0.3247(3) 0.44659(18) 0.3251(2)
C9 C 0.3719(3) 0.4033(2) 0.2298(2)
H6 H 0.3642 0.3345 0.2177
C10 C 0.4303(3) 0.4627(2) 0.1533(3)
H7 H 0.4588 0.4342 0.0882
C11 C 0.4459(3) 0.5645(2) 0.1741(3)
H8 H 0.4889 0.6041 0.1247
C12 C 0.3983(3) 0.6078(2) 0.2674(3)
H9 H 0.4086 0.6764 0.2802
C13 C 0.3353(3) 0.54989(19) 0.3421(2)
H10 H 0.3002 0.5796 0.4034
loop_
_geom_bond_atom_site_label_1
_geom_bond_atom_site_label_2
_geom_bond_site_symmetry_1
_geom_bond_site_symmetry_2
S1 P1 1_555 1_555
S2 P1 1_555 1_555
P1 N1 1_555 1_555
N1 H1 1_555 1_555
C1 P1 1_555 1_555
C2 C1 1_555 1_555
H2 C2 1_555 1_555
C3 C2 1_555 1_555
H3 C3 1_555 1_555
C4 C3 1_555 1_555
H4 C4 1_555 1_555
C5 C4 1_555 1_555
H5 C5 1_555 1_555
C6 C1 1_555 1_555
C7 N1 1_555 1_555
C8 C7 1_555 1_555
C9 C8 1_555 1_555
H6 C9 1_555 1_555
C10 C9 1_555 1_555
H7 C10 1_555 1_555
C11 C10 1_555 1_555
H8 C11 1_555 1_555
C12 C11 1_555 1_555
H9 C12 1_555 1_555
C13 C8 1_555 1_555
H10 C13 1_555 1_555
C5 C6 1_555 1_555
C6 C7 1_555 1_555
C12 C13 1_555 1_555

#END
