
#######################################################################
#
#                 Cambridge Crystallographic Data Centre
#                                CCDC 
#
#######################################################################
#
# If this CIF has been generated from an entry in the Cambridge 
# Structural Database, then it will include bibliographic, chemical, 
# crystal, experimental, refinement or atomic coordinate data resulting 
# from the CCDC's data processing and validation procedures.
#
#######################################################################

data_DARSEW
_chemical_formula_moiety         
'C48 H58 N4 O6,Cs1 1+,Cl1 1-,C1 H1 Cl3,0.5(C2 H6 O1)'
_chemical_name_systematic        
"cesium chloride 2,7,7,12,17,17-hexamethyl-2,12-(4,4'-[3,6,9,12-tetraoxatetradecane-1,14-diylbis(oxy)]diphenyl)calix(4)pyrrole ethanol solvate"
_symmetry_cell_setting           triclinic
_symmetry_space_group_name_H-M   'P -1'
_symmetry_Int_Tables_number      2
_space_group_name_Hall           '-P 1'
loop_
_symmetry_equiv_pos_site_id
_symmetry_equiv_pos_as_xyz
1 x,y,z
2 -x,-y,-z
_cell_length_a                   13.4469(9)
_cell_length_b                   20.1623(15)
_cell_length_c                   20.8853(15)
_cell_angle_alpha                109.2720(10)
_cell_angle_beta                 99.003(2)
_cell_angle_gamma                100.560(2)
_cell_volume                     5108.94
_exptl_crystal_colour            colorless
_exptl_crystal_description       prisms
_cell_formula_units_Z            4
loop_
_atom_site_label
_atom_site_type_symbol
_atom_site_fract_x
_atom_site_fract_y
_atom_site_fract_z
Cs1 Cs 0.42403(2) 0.314045(14) 0.211445(14)
Cs2 Cs 0.87629(7) 0.22093(5) 0.60651(4)
Cl1 Cl 1.26735(13) 0.06979(10) 0.95291(10)
Cl2 Cl 1.0738(4) -0.0331(2) 0.8800(3)
Cl3 Cl 1.0852(5) 0.0995(3) 0.9871(3)
C1 C 1.1371(3) 0.0584(2) 0.9156(2)
Cl6 Cl 0.5750(2) 0.45914(15) 0.16468(17)
Cl7 Cl 0.4993(2) 0.58609(16) 0.17476(17)
Cl8 Cl 0.5959(3) 0.56810(18) 0.29961(16)
C2 C 0.5954(7) 0.5533(4) 0.2122(3)
Cl12 Cl 0.69142(7) 0.27140(5) 0.40698(4)
O1 O 0.3290(3) 0.3350(2) 0.38370(19)
C4 C 0.2608(4) 0.4561(3) 0.1996(3)
H4 H 0.2069 0.4703 0.1753
C5 C 0.3274(10) 0.4125(5) 0.4019(5)
H5 H 0.3973 0.4436 0.4085
H6 H 0.3035 0.4294 0.4456
C6 C 0.2458(8) 0.4145(6) 0.3455(4)
H7 H 0.2089 0.4529 0.3615
H8 H 0.1941 0.3672 0.3201
O2 O 0.2782(6) 0.4136(5) 0.2884(4)
C7 C 0.2012(9) 0.4205(9) 0.2358(6)
H9 H 0.1658 0.3687 0.2089
H10 H 0.1512 0.4447 0.2583
O4 O 0.2867(3) 0.3963(2) 0.1548(2)
O5 O 0.3744(3) 0.3194(2) 0.0577(2)
O7 O 0.5768(2) 0.29226(14) 0.09190(13)
O8 O 0.7516(2) 0.25319(14) 0.16444(13)
N1 N 0.6390(2) 0.17557(16) 0.50210(16)
H17 H 0.6518 0.2007 0.4756
N2 N 0.8249(2) 0.15067(16) 0.41318(16)
H18 H 0.7897 0.1828 0.4107
N3 N 0.9415(2) 0.32068(16) 0.48849(15)
H19 H 0.8742 0.3025 0.4710
N4 N 0.7509(2) 0.35308(16) 0.57585(16)
H20 H 0.7264 0.3407 0.5308
C11 C 0.6077(3) 0.2007(2) 0.5640(2)
C12 C 0.5993(3) 0.1470(2) 0.5906(2)
H21 H 0.5805 0.1494 0.6331
C13 C 0.6238(3) 0.0869(2) 0.5428(2)
H22 H 0.6240 0.0418 0.5479
C14 C 0.6471(3) 0.10497(19) 0.4882(2)
C15 C 0.6711(3) 0.06027(19) 0.42125(19)
C16 C 0.7848(3) 0.08551(19) 0.42036(18)
C17 C 0.8648(3) 0.05210(19) 0.42362(19)
H23 H 0.8607 0.0068 0.4291
C18 C 0.9543(3) 0.0968(2) 0.41742(19)
H24 H 1.0207 0.0867 0.4179
C19 C 0.9280(3) 0.1574(2) 0.41061(19)
C20 C 0.9916(3) 0.2213(2) 0.39907(19)
C21 C 1.0178(3) 0.2891(2) 0.46380(19)
C22 C 1.1121(3) 0.3334(2) 0.5055(2)
H25 H 1.1786 0.3254 0.5012
C23 C 1.0922(3) 0.3935(2) 0.5565(2)
H26 H 1.1431 0.4326 0.5924
C24 C 0.9868(3) 0.38526(19) 0.54486(18)
C25 C 0.9221(3) 0.43443(19) 0.57943(19)
C26 C 0.8479(3) 0.39784(19) 0.61289(19)
C27 C 0.8572(3) 0.4027(2) 0.6808(2)
H27 H 0.9160 0.4295 0.7184
C28 C 0.7629(3) 0.3604(2) 0.6850(2)
H28 H 0.7478 0.3539 0.7258
C29 C 0.6977(3) 0.3305(2) 0.61952(19)
C30 C 0.5916(3) 0.2771(2) 0.5926(2)
C31 C 0.5997(3) 0.0660(2) 0.3590(2)
H29 H 0.5268 0.0497 0.3599
H30 H 0.6127 0.0354 0.3153
H31 H 0.6142 0.1166 0.3622
C32 C 0.6496(3) -0.0191(2) 0.4150(2)
H32 H 0.6921 -0.0227 0.4557
H33 H 0.6670 -0.0483 0.3725
H34 H 0.5758 -0.0370 0.4127
C33 C 1.0940(3) 0.2034(2) 0.3828(2)
H35 H 1.1338 0.1967 0.4228
H36 H 1.1352 0.2434 0.3740
H37 H 1.0780 0.1587 0.3415
C34 C 0.9960(3) 0.5035(2) 0.6362(2)
H38 H 1.0373 0.4902 0.6709
H39 H 0.9553 0.5358 0.6590
H40 H 1.0426 0.5283 0.6149
C35 C 0.8609(3) 0.4568(2) 0.5243(2)
H41 H 0.9099 0.4829 0.5054
H42 H 0.8185 0.4883 0.5461
H43 H 0.8157 0.4133 0.4865
C36 C 0.5394(3) 0.2824(2) 0.6546(2)
H44 H 0.5831 0.2712 0.6898
H45 H 0.4709 0.2478 0.6379
H46 H 0.5312 0.3318 0.6753
C37 C 0.5208(3) 0.2929(2) 0.5373(2)
C38 C 0.5196(3) 0.3635(2) 0.5449(2)
H47 H 0.5638 0.4020 0.5849
C39 C 0.4562(4) 0.3802(2) 0.4962(2)
H48 H 0.4570 0.4293 0.5033
C40 C 0.3918(3) 0.3247(3) 0.4373(2)
C41 C 0.3881(3) 0.2528(3) 0.4297(3)
H49 H 0.3421 0.2142 0.3905
C42 C 0.4512(3) 0.2378(2) 0.4790(2)
H50 H 0.4474 0.1886 0.4733
C43 C 0.2420(4) 0.3708(4) 0.0852(3)
H51 H 0.2595 0.4097 0.0668
H52 H 0.1656 0.3580 0.0792
C44 C 0.2716(5) 0.3084(4) 0.0439(3)
H53 H 0.2351 0.2655 0.0518
H54 H 0.2476 0.3001 -0.0061
C45 C 0.4035(4) 0.2504(3) 0.0197(2)
H55 H 0.3678 0.2536 -0.0240
H56 H 0.3913 0.1978 0.0108
C46 C 0.5158(3) 0.2731(2) 0.0230(2)
H59 H 0.5366 0.2330 -0.0098
H60 H 0.5291 0.3153 0.0084
C47 C 0.6842(3) 0.3130(2) 0.0933(2)
H61 H 0.6993 0.3588 0.0847
H62 H 0.7015 0.2750 0.0558
C48 C 0.7502(3) 0.3234(2) 0.1626(2)
H63 H 0.8219 0.3515 0.1686
H64 H 0.7210 0.3505 0.2009
C49 C 0.8145(3) 0.2503(2) 0.22128(18)
C50 C 0.8158(3) 0.1812(2) 0.2208(2)
H65 H 0.7773 0.1397 0.1812
C51 C 0.8723(3) 0.1727(2) 0.2773(2)
H66 H 0.8716 0.1251 0.2762
C52 C 0.9306(3) 0.2324(2) 0.33595(19)
C53 C 0.9330(3) 0.3008(2) 0.33442(19)
H67 H 0.9747 0.3422 0.3729
C54 C 0.8757(3) 0.3108(2) 0.27783(19)
H68 H 0.8786 0.3583 0.2780
O9 O 0.6296(3) 0.3547(3) 0.3106(3)
C55 C 0.6871(6) 0.4256(4) 0.3498(4)
C56 C 0.6399(6) 0.4599(4) 0.4005(4)
O10 O 1.46364(19) 0.13891(13) 0.86935(13)
O11 O 1.5132(2) 0.09261(15) 0.98183(13)
O12 O 1.5728(2) 0.10456(14) 1.15873(14)
O13 O 1.3900(2) 0.15507(16) 1.20158(17)
O14 O 1.2032(2) 0.20611(19) 1.1749(2)
O15 O 0.9956(4) 0.2105(4) 1.1184(3)
C58 C 1.0708(5) 0.2671(4) 1.1760(4)
H69 H 1.0355 0.2968 1.2085
H70 H 1.1156 0.2992 1.1591
C59 C 1.1354(7) 0.2300(6) 1.2123(5)
H71 H 1.1736 0.2645 1.2595
H72 H 1.0892 0.1885 1.2172
N5 N 1.0006(2) 0.12505(16) 0.70379(16)
N6 N 0.8296(2) 0.16287(17) 0.79807(16)
H78 H 0.8972 0.1775 0.8155
N7 N 0.9556(3) 0.33455(17) 0.86650(17)
H79 H 0.9858 0.2989 0.8640
N8 N 1.1321(2) 0.29765(16) 0.77427(16)
H80 H 1.1262 0.2751 0.8036
C62 C 1.0562(3) 0.1360(2) 0.65647(18)
C63 C 0.9983(3) 0.0893(2) 0.5911(2)
H81 H 1.0169 0.0847 0.5481
C64 C 0.9061(3) 0.0494(2) 0.5996(2)
H82 H 0.8517 0.0137 0.5631
C65 C 0.9091(3) 0.07130(19) 0.66940(19)
C66 C 0.8364(3) 0.0431(2) 0.7089(2)
C67 C 0.7795(3) 0.0991(2) 0.74348(19)
C68 C 0.6761(3) 0.0969(2) 0.7308(2)
H83 H 0.6228 0.0593 0.6952
C69 C 0.6620(3) 0.1611(2) 0.7802(2)
H84 H 0.5980 0.1739 0.7837
C70 C 0.7586(3) 0.2008(2) 0.82159(19)
C71 C 0.7886(3) 0.2704(2) 0.8860(2)
C72 C 0.8555(3) 0.3331(2) 0.8741(2)
C73 C 0.8373(3) 0.3983(2) 0.8751(2)
H85 H 0.7747 0.4129 0.8798
C74 C 0.9294(3) 0.4399(2) 0.8679(2)
H86 H 0.9390 0.4872 0.8665
C75 C 1.0017(3) 0.4000(2) 0.8633(2)
C76 C 1.1133(3) 0.4176(2) 0.8574(2)
C77 C 1.1268(3) 0.3685(2) 0.7876(2)
C78 C 1.1373(4) 0.3822(2) 0.7285(2)
H87 H 1.1360 0.4266 0.7221
C79 C 1.1504(3) 0.3190(2) 0.6789(2)
H88 H 1.1591 0.3134 0.6333
C80 C 1.1482(3) 0.2673(2) 0.70833(19)
C81 C 1.1606(3) 0.1902(2) 0.67899(19)
C82 C 0.9002(4) 0.0233(2) 0.7649(2)
H89 H 0.9548 0.0661 0.7965
H90 H 0.9322 -0.0154 0.7422
H91 H 0.8543 0.0065 0.7915
C83 C 0.7560(4) -0.0259(2) 0.6572(2)
H92 H 0.7104 -0.0458 0.6822
H93 H 0.7921 -0.0619 0.6346
H94 H 0.7143 -0.0139 0.6217
C84 C 0.6882(3) 0.2915(2) 0.9017(2)
H95 H 0.7059 0.3367 0.9427
H96 H 0.6446 0.2527 0.9111
H97 H 0.6501 0.2985 0.8614
C85 C 1.1439(4) 0.4964(2) 0.8616(3)
H98 H 1.0945 0.5030 0.8258
H99 H 1.2141 0.5071 0.8538
H100 H 1.1426 0.5294 0.9078
C86 C 1.1861(3) 0.4099(2) 0.9179(2)
H101 H 1.1828 0.4453 0.9624
H102 H 1.2577 0.4187 0.9121
H103 H 1.1642 0.3607 0.9178
C87 C 1.2059(3) 0.1820(2) 0.6141(2)
H104 H 1.2143 0.1326 0.5942
H105 H 1.2737 0.2170 0.6275
H106 H 1.1584 0.1913 0.5792
C88 C 0.8462(3) 0.2589(2) 0.9495(2)
C89 C 0.9087(3) 0.3184(3) 1.0071(2)
H107 H 0.9172 0.3658 1.0062
C90 C 0.9587(3) 0.3089(4) 1.0658(2)
H108 H 0.9993 0.3500 1.1051
C91 C 0.9496(3) 0.2387(4) 1.0672(2)
C92 C 0.8850(3) 0.1803(3) 1.0117(2)
H109 H 0.8748 0.1330 1.0132
C93 C 0.8346(3) 0.1905(3) 0.9534(2)
H110 H 0.7910 0.1496 0.9153
C94 C 1.2166(4) 0.1350(4) 1.1441(3)
H111 H 1.2437 0.1316 1.1020
H112 H 1.1479 0.0995 1.1291
C95 C 1.2865(4) 0.1156(3) 1.1905(4)
H113 H 1.2662 0.1261 1.2357
H114 H 1.2816 0.0629 1.1703
C96 C 1.4657(3) 0.1361(3) 1.2438(2)
H115 H 1.4441 0.0837 1.2353
H116 H 1.4719 0.1638 1.2938
C97 C 1.5690(3) 0.1534(2) 1.2255(2)
H117 H 1.5832 0.2035 1.2258
H118 H 1.6245 0.1517 1.2617
C98 C 1.5272(3) 0.1207(2) 1.10141(19)
H119 H 1.5366 0.1738 1.1153
C99 C 1.5793(3) 0.0932(2) 1.04268(19)
H121 H 1.6491 0.1256 1.0522
H122 H 1.5868 0.0437 1.0367
C100 C 1.5553(3) 0.0740(2) 0.9220(2)
H123 H 1.5750 0.0275 0.9141
H124 H 1.6183 0.1121 0.9286
C101 C 1.4733(3) 0.0672(2) 0.86051(19)
H125 H 1.4941 0.0452 0.8164
H126 H 1.4061 0.0361 0.8590
C102 C 1.3868(3) 0.1465(2) 0.82245(18)
C103 C 1.3967(3) 0.2164(2) 0.8220(2)
H127 H 1.4540 0.2547 0.8527
C104 C 1.3235(3) 0.2303(2) 0.7771(2)
H128 H 1.3318 0.2781 0.7769
C105 C 1.2374(3) 0.1754(2) 0.73191(18)
C106 C 1.2285(3) 0.1061(2) 0.73346(19)
H129 H 1.1704 0.0680 0.7035
C107 C 1.3026(3) 0.0912(2) 0.77780(19)
H130 H 1.2953 0.0432 0.7774
Cl13 Cl 1.07815(7) 0.20725(5) 0.87253(5)
Cs3? Cs 0.86995(15) 0.22365(10) 0.63863(12)
Cl4? Cl 1.1036(3) -0.02412(17) 0.83771(19)
Cl5? Cl 1.0488(3) 0.0425(4) 0.9647(3)
Cl9? Cl 0.5326(4) 0.4667(3) 0.0183(3)
Cl10? Cl 0.5892(5) 0.5267(5) 0.1674(3)
Cl11? Cl 0.4150(5) 0.5546(4) 0.0944(5)
C3? C 0.4838(8) 0.4878(7) 0.0939(4)
H1? H 0.2756 0.4973 0.1838
H2? H 0.1853 0.4431 0.1972
H3? H 0.3196 0.4970 0.2237
C8? C 0.2857(7) 0.3952(5) 0.3996(5)
H11? H 0.2950 0.4178 0.4508
H12? H 0.2103 0.3793 0.3778
C9? C 0.3360(9) 0.4473(4) 0.3741(4)
H13? H 0.3114 0.4918 0.3918
H14? H 0.4116 0.4603 0.3950
O3? O 0.3225(8) 0.4273(4) 0.3018(3)
C10? C 0.3211(7) 0.4793(4) 0.2731(3)
H15? H 0.3940 0.5023 0.2756
H16? H 0.2929 0.5173 0.3028
O6? O 0.3493(8) 0.2721(6) 0.0624(5)
H57? H 0.3641 0.2303 -0.0296
H58? H 0.3896 0.2125 0.0398
C57? C 0.6367(13) 0.4786(7) 0.3419(12)
O16? O 1.0157(6) 0.2544(5) 1.1273(4)
C60? C 1.0143(8) 0.1860(6) 1.1326(6)
H73? H 1.0240 0.1518 1.0890
H74? H 0.9469 0.1655 1.1408
C61? C 1.1048(9) 0.1984(7) 1.1949(6)
H75? H 1.1067 0.2427 1.2345
H76? H 1.0928 0.1567 1.2103
H77? H 1.0202 0.1488 0.7492
H120? H 1.4518 0.0971 1.0862
loop_
_geom_bond_atom_site_label_1
_geom_bond_atom_site_label_2
_geom_bond_site_symmetry_1
_geom_bond_site_symmetry_2
Cl1 C1 1_555 1_555
Cl2 C1 1_555 1_555
Cl3 C1 1_555 1_555
Cl6 C2 1_555 1_555
Cl7 C2 1_555 1_555
Cl8 C2 1_555 1_555
O1 C5 1_555 1_555
C4 H4 1_555 1_555
C5 H5 1_555 1_555
H6 C5 1_555 1_555
C6 C5 1_555 1_555
H7 C6 1_555 1_555
H8 C6 1_555 1_555
O2 C6 1_555 1_555
C7 C4 1_555 1_555
H9 C7 1_555 1_555
H10 C7 1_555 1_555
O4 C4 1_555 1_555
O5 C44 1_555 1_555
O7 C46 1_555 1_555
O8 C48 1_555 1_555
N1 H17 1_555 1_555
N2 H18 1_555 1_555
N3 H19 1_555 1_555
N4 H20 1_555 1_555
C11 N1 1_555 1_555
C12 C11 1_555 1_555
H21 C12 1_555 1_555
C13 C12 1_555 1_555
H22 C13 1_555 1_555
C14 N1 1_555 1_555
C15 C14 1_555 1_555
C16 N2 1_555 1_555
C17 C16 1_555 1_555
H23 C17 1_555 1_555
C18 C17 1_555 1_555
H24 C18 1_555 1_555
C19 N2 1_555 1_555
C20 C19 1_555 1_555
C21 N3 1_555 1_555
C22 C21 1_555 1_555
H25 C22 1_555 1_555
C23 C22 1_555 1_555
H26 C23 1_555 1_555
C24 N3 1_555 1_555
C25 C24 1_555 1_555
C26 N4 1_555 1_555
C27 C26 1_555 1_555
H27 C27 1_555 1_555
C28 C27 1_555 1_555
H28 C28 1_555 1_555
C29 N4 1_555 1_555
C30 C11 1_555 1_555
C31 C15 1_555 1_555
H29 C31 1_555 1_555
H30 C31 1_555 1_555
H31 C31 1_555 1_555
C32 C15 1_555 1_555
H32 C32 1_555 1_555
H33 C32 1_555 1_555
H34 C32 1_555 1_555
C33 C20 1_555 1_555
H35 C33 1_555 1_555
H36 C33 1_555 1_555
H37 C33 1_555 1_555
C34 C25 1_555 1_555
H38 C34 1_555 1_555
H39 C34 1_555 1_555
H40 C34 1_555 1_555
C35 C25 1_555 1_555
H41 C35 1_555 1_555
H42 C35 1_555 1_555
H43 C35 1_555 1_555
C36 C30 1_555 1_555
H44 C36 1_555 1_555
H45 C36 1_555 1_555
H46 C36 1_555 1_555
C37 C30 1_555 1_555
C38 C37 1_555 1_555
H47 C38 1_555 1_555
C39 C38 1_555 1_555
H48 C39 1_555 1_555
C40 O1 1_555 1_555
C41 C40 1_555 1_555
H49 C41 1_555 1_555
C42 C37 1_555 1_555
H50 C42 1_555 1_555
C43 O4 1_555 1_555
H51 C43 1_555 1_555
H52 C43 1_555 1_555
C44 C43 1_555 1_555
H53 C44 1_555 1_555
H54 C44 1_555 1_555
C45 O5 1_555 1_555
H55 C45 1_555 1_555
H56 C45 1_555 1_555
C46 C45 1_555 1_555
H59 C46 1_555 1_555
H60 C46 1_555 1_555
C47 O7 1_555 1_555
H61 C47 1_555 1_555
H62 C47 1_555 1_555
C48 C47 1_555 1_555
H63 C48 1_555 1_555
H64 C48 1_555 1_555
C49 O8 1_555 1_555
C50 C49 1_555 1_555
H65 C50 1_555 1_555
C51 C50 1_555 1_555
H66 C51 1_555 1_555
C52 C20 1_555 1_555
C53 C52 1_555 1_555
H67 C53 1_555 1_555
C54 C49 1_555 1_555
H68 C54 1_555 1_555
O9 C55 1_555 1_555
C55 C56 1_555 1_555
O10 C101 1_555 1_555
O11 C99 1_555 1_555
O12 C97 1_555 1_555
O13 C95 1_555 1_555
O14 C59 1_555 1_555
O15 C58 1_555 1_555
C58 H69 1_555 1_555
H70 C58 1_555 1_555
C59 C58 1_555 1_555
H71 C59 1_555 1_555
H72 C59 1_555 1_555
N5 C62 1_555 1_555
N6 H78 1_555 1_555
N7 H79 1_555 1_555
N8 H80 1_555 1_555
C62 C63 1_555 1_555
C63 H81 1_555 1_555
C64 C63 1_555 1_555
H82 C64 1_555 1_555
C65 N5 1_555 1_555
C66 C65 1_555 1_555
C67 N6 1_555 1_555
C68 C67 1_555 1_555
H83 C68 1_555 1_555
C69 C68 1_555 1_555
H84 C69 1_555 1_555
C70 N6 1_555 1_555
C71 C70 1_555 1_555
C72 N7 1_555 1_555
C73 C72 1_555 1_555
H85 C73 1_555 1_555
C74 C73 1_555 1_555
H86 C74 1_555 1_555
C75 N7 1_555 1_555
C76 C75 1_555 1_555
C77 N8 1_555 1_555
C78 C77 1_555 1_555
H87 C78 1_555 1_555
C79 C78 1_555 1_555
H88 C79 1_555 1_555
C80 N8 1_555 1_555
C81 C62 1_555 1_555
C82 C66 1_555 1_555
H89 C82 1_555 1_555
H90 C82 1_555 1_555
H91 C82 1_555 1_555
C83 C66 1_555 1_555
H92 C83 1_555 1_555
H93 C83 1_555 1_555
H94 C83 1_555 1_555
C84 C71 1_555 1_555
H95 C84 1_555 1_555
H96 C84 1_555 1_555
H97 C84 1_555 1_555
C85 C76 1_555 1_555
H98 C85 1_555 1_555
H99 C85 1_555 1_555
H100 C85 1_555 1_555
C86 C76 1_555 1_555
H101 C86 1_555 1_555
H102 C86 1_555 1_555
H103 C86 1_555 1_555
C87 C81 1_555 1_555
H104 C87 1_555 1_555
H105 C87 1_555 1_555
H106 C87 1_555 1_555
C88 C71 1_555 1_555
C89 C88 1_555 1_555
H107 C89 1_555 1_555
C90 C89 1_555 1_555
H108 C90 1_555 1_555
C91 O15 1_555 1_555
C92 C91 1_555 1_555
H109 C92 1_555 1_555
C93 C88 1_555 1_555
H110 C93 1_555 1_555
C94 O14 1_555 1_555
H111 C94 1_555 1_555
H112 C94 1_555 1_555
C95 C94 1_555 1_555
H113 C95 1_555 1_555
H114 C95 1_555 1_555
C96 O13 1_555 1_555
H115 C96 1_555 1_555
H116 C96 1_555 1_555
C97 C96 1_555 1_555
H117 C97 1_555 1_555
H118 C97 1_555 1_555
C98 O12 1_555 1_555
H119 C98 1_555 1_555
C99 C98 1_555 1_555
H121 C99 1_555 1_555
H122 C99 1_555 1_555
C100 O11 1_555 1_555
H123 C100 1_555 1_555
H124 C100 1_555 1_555
C101 C100 1_555 1_555
H125 C101 1_555 1_555
H126 C101 1_555 1_555
C102 O10 1_555 1_555
C103 C102 1_555 1_555
H127 C103 1_555 1_555
C104 C103 1_555 1_555
H128 C104 1_555 1_555
C105 C81 1_555 1_555
C106 C105 1_555 1_555
H129 C106 1_555 1_555
C107 C102 1_555 1_555
H130 C107 1_555 1_555
O2 C7 1_555 1_555
C13 C14 1_555 1_555
C15 C16 1_555 1_555
C18 C19 1_555 1_555
C20 C21 1_555 1_555
C23 C24 1_555 1_555
C25 C26 1_555 1_555
C28 C29 1_555 1_555
C29 C30 1_555 1_555
C39 C40 1_555 1_555
C41 C42 1_555 1_555
C51 C52 1_555 1_555
C53 C54 1_555 1_555
C64 C65 1_555 1_555
C66 C67 1_555 1_555
C69 C70 1_555 1_555
C71 C72 1_555 1_555
C74 C75 1_555 1_555
C76 C77 1_555 1_555
C79 C80 1_555 1_555
C80 C81 1_555 1_555
C90 C91 1_555 1_555
C92 C93 1_555 1_555
C104 C105 1_555 1_555
C106 C107 1_555 1_555

#END
