
#######################################################################
#
#                 Cambridge Crystallographic Data Centre
#                                CCDC 
#
#######################################################################
#
# If this CIF has been generated from an entry in the Cambridge 
# Structural Database, then it will include bibliographic, chemical, 
# crystal, experimental, refinement or atomic coordinate data resulting 
# from the CCDC's data processing and validation procedures.
#
#######################################################################

data_DARVOJ01
_chemical_formula_moiety         'C19 H24 N2 O4'
_chemical_name_systematic        
'Benzyl 3-isobutyl-1,4-dioxohexahydropyrrolo[1,2-a]pyrazine-2(1H)-carboxylate'
_symmetry_cell_setting           monoclinic
_symmetry_space_group_name_H-M   'P 21'
_symmetry_Int_Tables_number      4
_space_group_name_Hall           'P 2yb'
loop_
_symmetry_equiv_pos_site_id
_symmetry_equiv_pos_as_xyz
1 x,y,z
2 -x,1/2+y,-z
_cell_length_a                   9.8547(5)
_cell_length_b                   8.7811(4)
_cell_length_c                   10.6717(6)
_cell_angle_alpha                90
_cell_angle_beta                 106.843(2)
_cell_angle_gamma                90
_cell_volume                     883.862
_exptl_crystal_colour            colorless
_exptl_crystal_description       block
_cell_formula_units_Z            2
loop_
_atom_site_label
_atom_site_type_symbol
_atom_site_fract_x
_atom_site_fract_y
_atom_site_fract_z
C1 C 0.78046(13) -0.17854(14) 0.86301(13)
H1 H 0.6939 -0.2420 0.8447
H2 H 0.8498 -0.2174 0.9434
C2 C 0.84188(12) -0.18560(14) 0.75030(12)
C3 C 0.78576(14) -0.10004(16) 0.63723(13)
H3 H 0.7084 -0.0332 0.6317
C4 C 0.84191(17) -0.11172(19) 0.53297(15)
H4 H 0.8028 -0.0536 0.4559
C5 C 0.95554(17) -0.2086(2) 0.54110(17)
H5 H 0.9945 -0.2163 0.4697
C6 C 1.01193(15) -0.29383(17) 0.65301(16)
H6 H 1.0896 -0.3601 0.6583
C7 C 0.95572(13) -0.28295(15) 0.75722(14)
H7 H 0.9947 -0.3420 0.8338
C8 C 0.72445(12) 0.01117(13) 0.99563(12)
C9 C 0.62925(12) 0.22423(14) 1.08741(12)
C10 C 0.63747(12) 0.39518(14) 1.10750(12)
H8 H 0.5549 0.4437 1.0423
C11 C 0.63810(13) 0.44420(15) 1.24508(12)
H9 H 0.6919 0.3714 1.3119
H10 H 0.5405 0.4536 1.2521
C12 C 0.71196(14) 0.59938(15) 1.25956(13)
H11 H 0.6451 0.6801 1.2152
H12 H 0.7523 0.6268 1.3530
C13 C 0.82899(13) 0.57729(14) 1.19382(12)
H13 H 0.8488 0.6732 1.1536
H14 H 0.9175 0.5407 1.2572
C14 C 0.83093(12) 0.41372(13) 1.00487(11)
C15 C 0.75954(13) 0.27684(13) 0.92367(12)
H15 H 0.8332 0.2222 0.8931
C16 C 0.63962(12) 0.32387(14) 0.80143(12)
H16 H 0.5982 0.2308 0.7530
H17 H 0.5642 0.3750 0.8301
C17 C 0.68615(12) 0.42966(14) 0.70849(12)
H18 H 0.7325 0.5205 0.7597
C18 C 0.79286(16) 0.35580(16) 0.64878(15)
H19 H 0.7521 0.2624 0.6028
H20 H 0.8795 0.3309 0.7184
H21 H 0.8156 0.4266 0.5868
C19 C 0.55660(16) 0.48508(18) 0.60082(14)
H22 H 0.5867 0.5577 0.5444
H23 H 0.4903 0.5350 0.6406
H24 H 0.5098 0.3980 0.5484
N1 N 0.70655(10) 0.16946(11) 1.00676(10)
N2 N 0.76899(10) 0.46131(11) 1.09344(10)
O1 O 0.74615(9) -0.02016(9) 0.88083(8)
O2 O 0.71978(10) -0.08023(10) 1.07769(9)
O3 O 0.55690(10) 0.14605(10) 1.13607(10)
O4 O 0.93780(8) 0.47204(10) 0.98824(9)
loop_
_geom_bond_atom_site_label_1
_geom_bond_atom_site_label_2
_geom_bond_site_symmetry_1
_geom_bond_site_symmetry_2
C1 H1 1_555 1_555
H2 C1 1_555 1_555
C2 C1 1_555 1_555
C3 C2 1_555 1_555
H3 C3 1_555 1_555
C4 C3 1_555 1_555
H4 C4 1_555 1_555
C5 C4 1_555 1_555
H5 C5 1_555 1_555
C6 C5 1_555 1_555
H6 C6 1_555 1_555
C7 C2 1_555 1_555
H7 C7 1_555 1_555
C8 N1 1_555 1_555
C9 C10 1_555 1_555
C10 H8 1_555 1_555
C11 C10 1_555 1_555
H9 C11 1_555 1_555
H10 C11 1_555 1_555
C12 C11 1_555 1_555
H11 C12 1_555 1_555
H12 C12 1_555 1_555
C13 C12 1_555 1_555
H13 C13 1_555 1_555
H14 C13 1_555 1_555
C14 C15 1_555 1_555
C15 H15 1_555 1_555
C16 C15 1_555 1_555
H16 C16 1_555 1_555
H17 C16 1_555 1_555
C17 C16 1_555 1_555
H18 C17 1_555 1_555
C18 C17 1_555 1_555
H19 C18 1_555 1_555
H20 C18 1_555 1_555
H21 C18 1_555 1_555
C19 C17 1_555 1_555
H22 C19 1_555 1_555
H23 C19 1_555 1_555
H24 C19 1_555 1_555
N1 C9 1_555 1_555
N2 C10 1_555 1_555
O1 C1 1_555 1_555
O2 C8 1_555 1_555
O3 C9 1_555 1_555
O4 C14 1_555 1_555
C6 C7 1_555 1_555
C8 O1 1_555 1_555
C13 N2 1_555 1_555
C14 N2 1_555 1_555
C15 N1 1_555 1_555

#END
