
#######################################################################
#
#                 Cambridge Crystallographic Data Centre
#                                CCDC 
#
#######################################################################
#
# If this CIF has been generated from an entry in the Cambridge 
# Structural Database, then it will include bibliographic, chemical, 
# crystal, experimental, refinement or atomic coordinate data resulting 
# from the CCDC's data processing and validation procedures.
#
#######################################################################

data_DARXID
_chemical_formula_moiety         'C11 H12 N2 S1'
_chemical_name_systematic        2,3-Dimethyl-1-phenyl-5-thiopyrazolone
_symmetry_cell_setting           monoclinic
_symmetry_space_group_name_H-M   'P 21/n'
_symmetry_Int_Tables_number      14
_space_group_name_Hall           '-P 2yn'
loop_
_symmetry_equiv_pos_site_id
_symmetry_equiv_pos_as_xyz
1 x,y,z
2 1/2-x,1/2+y,1/2-z
3 -x,-y,-z
4 1/2+x,1/2-y,1/2+z
_cell_length_a                   13.473(2)
_cell_length_b                   8.3342(2)
_cell_length_c                   9.711(1)
_cell_angle_alpha                90
_cell_angle_beta                 102.76(1)
_cell_angle_gamma                90
_cell_volume                     1063.49
_cell_formula_units_Z            4
loop_
_atom_site_label
_atom_site_type_symbol
_atom_site_fract_x
_atom_site_fract_y
_atom_site_fract_z
S1 S 0.22982(5) 0.00594(8) 0.43764(7)
N1 N 0.3612(1) -0.1809(2) 0.6198(2)
N2 N 0.4003(1) -0.3358(2) 0.6318(2)
C1 C 0.2896(1) -0.1664(3) 0.4956(2)
C2 C 0.2819(2) -0.3206(3) 0.4351(3)
C3 C 0.3484(2) -0.4211(3) 0.5203(3)
C4 C 0.3663(3) -0.5957(4) 0.5060(5)
C5 C 0.4540(3) -0.3966(4) 0.7674(4)
C11 C 0.4154(2) -0.0551(3) 0.7039(2)
C21 C 0.5142(2) -0.0196(3) 0.6936(3)
C31 C 0.5657(2) 0.1020(3) 0.7755(3)
C41 C 0.5205(2) 0.1876(3) 0.8655(3)
C51 C 0.4220(2) 0.1525(3) 0.8751(3)
C61 C 0.3691(2) 0.0298(3) 0.7941(3)
H2 H 0.243(2) -0.352(3) 0.347(3)
H14 H 0.439(2) -0.634(3) 0.526(3)
H24 H 0.330(2) -0.654(4) 0.553(3)
H34 H 0.337(2) -0.619(4) 0.414(3)
H15 H 0.491(2) -0.480(4) 0.759(3)
H25 H 0.506(2) -0.314(4) 0.821(3)
H35 H 0.416(2) -0.412(4) 0.829(3)
H21 H 0.543(2) -0.073(3) 0.623(3)
H31 H 0.635(2) 0.132(3) 0.772(3)
H41 H 0.554(2) 0.281(3) 0.915(3)
H51 H 0.393(2) 0.212(3) 0.939(3)
H61 H 0.297(2) 0.009(3) 0.802(3)
loop_
_geom_bond_atom_site_label_1
_geom_bond_atom_site_label_2
_geom_bond_site_symmetry_1
_geom_bond_site_symmetry_2
S1 C1 1_555 1_555
N1 N2 1_555 1_555
N2 C3 1_555 1_555
C1 N1 1_555 1_555
C2 C1 1_555 1_555
C3 C2 1_555 1_555
C4 C3 1_555 1_555
C5 N2 1_555 1_555
C11 N1 1_555 1_555
C21 C11 1_555 1_555
C31 C21 1_555 1_555
C41 C31 1_555 1_555
C51 C41 1_555 1_555
C61 C11 1_555 1_555
H2 C2 1_555 1_555
H14 C4 1_555 1_555
H24 C4 1_555 1_555
H34 C4 1_555 1_555
H15 C5 1_555 1_555
H25 C5 1_555 1_555
H35 C5 1_555 1_555
H21 C21 1_555 1_555
H31 C31 1_555 1_555
H41 C41 1_555 1_555
H51 C51 1_555 1_555
H61 C61 1_555 1_555
C51 C61 1_555 1_555

#END
