
#######################################################################
#
#                 Cambridge Crystallographic Data Centre
#                                CCDC 
#
#######################################################################
#
# If this CIF has been generated from an entry in the Cambridge 
# Structural Database, then it will include bibliographic, chemical, 
# crystal, experimental, refinement or atomic coordinate data resulting 
# from the CCDC's data processing and validation procedures.
#
#######################################################################

data_DARXUS
_chemical_formula_moiety         'C23 H25 N1'
_chemical_name_systematic        4-t-butyl-2,6-bis(4-methylphenyl)pyridine
_symmetry_cell_setting           monoclinic
_symmetry_space_group_name_H-M   'P 21/n'
_symmetry_Int_Tables_number      14
_space_group_name_Hall           '-P 2yn'
loop_
_symmetry_equiv_pos_site_id
_symmetry_equiv_pos_as_xyz
1 x,y,z
2 1/2-x,1/2+y,1/2-z
3 -x,-y,-z
4 1/2+x,1/2-y,1/2+z
_cell_length_a                   9.2492(2)
_cell_length_b                   20.4366(4)
_cell_length_c                   10.0820(2)
_cell_angle_alpha                90
_cell_angle_beta                 103.315(2)
_cell_angle_gamma                90
_cell_volume                     1854.49
_exptl_crystal_colour            'yellowish yellow'
_cell_formula_units_Z            4
loop_
_atom_site_label
_atom_site_type_symbol
_atom_site_fract_x
_atom_site_fract_y
_atom_site_fract_z
N1 N 0.61162(14) 0.51991(6) 0.34660(13)
C1 C 0.66614(17) 0.63224(8) 0.41262(15)
C2 C 0.68460(16) 0.56134(8) 0.44313(15)
C3 C 0.78895(16) 0.47289(8) 0.59370(15)
C4 C 0.62638(16) 0.45586(8) 0.37177(15)
C5 C 0.71566(17) 0.43097(8) 0.49269(16)
H1 H 0.7257 0.3860 0.5051
C6 C 0.54153(17) 0.41145(7) 0.26500(16)
C7 C 0.53492(18) 0.65542(8) 0.32980(16)
H2 H 0.4615 0.6259 0.2892
C8 C 0.77040(17) 0.53923(8) 0.56640(16)
H3 H 0.8162 0.5694 0.6318
C9 C 0.88478(17) 0.44953(8) 0.73024(16)
C10 C 0.4251(2) 0.38965(9) 0.02957(18)
H4 H 0.4057 0.4028 -0.0612
C11 C 0.50988(19) 0.42942(9) 0.12825(17)
H5 H 0.5463 0.4688 0.1030
C12 C 0.4871(2) 0.35186(8) 0.29795(17)
H6 H 0.5082 0.3382 0.3883
C13 C 0.36859(19) 0.33085(9) 0.06239(17)
C14 C 0.5118(2) 0.72149(9) 0.30691(18)
H7 H 0.4217 0.7358 0.2533
C15 C 0.7750(2) 0.67798(9) 0.46669(19)
H8 H 0.8649 0.6638 0.5211
C16 C 0.8164(2) 0.47483(10) 0.84520(19)
H9 H 0.8167 0.5218 0.8449
H10 H 0.8736 0.4592 0.9312
H11 H 0.7161 0.4593 0.8315
C17 C 0.6200(2) 0.76723(9) 0.36200(18)
C18 C 0.4019(2) 0.31259(9) 0.19855(19)
H12 H 0.3662 0.2730 0.2234
C19 C 0.7525(2) 0.74387(9) 0.4413(2)
H13 H 0.8277 0.7733 0.4782
C20 C 0.8948(2) 0.37502(10) 0.7394(2)
H14 H 0.7970 0.3570 0.7283
H15 H 0.9546 0.3626 0.8267
H16 H 0.9393 0.3587 0.6688
C21 C 1.0419(2) 0.47705(11) 0.7484(2)
H17 H 1.0840 0.4621 0.6752
H18 H 1.1024 0.4624 0.8337
H19 H 1.0380 0.5240 0.7475
C22 C 0.2738(3) 0.28747(12) -0.0436(2)
H20 H 0.2489 0.3102 -0.1292
H21 H 0.1844 0.2763 -0.0158
H22 H 0.3276 0.2483 -0.0534
C23 C 0.5962(3) 0.83903(11) 0.3345(3)
H23 H 0.6141 0.8492 0.2467
H24 H 0.6634 0.8635 0.4034
H25 H 0.4957 0.8503 0.3357
loop_
_geom_bond_atom_site_label_1
_geom_bond_atom_site_label_2
_geom_bond_site_symmetry_1
_geom_bond_site_symmetry_2
N1 C2 1_555 1_555
C1 C2 1_555 1_555
C2 C8 1_555 1_555
C3 C5 1_555 1_555
C4 N1 1_555 1_555
C5 C4 1_555 1_555
H1 C5 1_555 1_555
C6 C4 1_555 1_555
C7 C1 1_555 1_555
H2 C7 1_555 1_555
C8 C3 1_555 1_555
H3 C8 1_555 1_555
C9 C3 1_555 1_555
C10 H4 1_555 1_555
C11 C6 1_555 1_555
H5 C11 1_555 1_555
C12 C6 1_555 1_555
H6 C12 1_555 1_555
C13 C10 1_555 1_555
C14 C7 1_555 1_555
H7 C14 1_555 1_555
C15 C1 1_555 1_555
H8 C15 1_555 1_555
C16 C9 1_555 1_555
H9 C16 1_555 1_555
H10 C16 1_555 1_555
H11 C16 1_555 1_555
C17 C14 1_555 1_555
C18 C12 1_555 1_555
H12 C18 1_555 1_555
C19 C15 1_555 1_555
H13 C19 1_555 1_555
C20 C9 1_555 1_555
H14 C20 1_555 1_555
H15 C20 1_555 1_555
H16 C20 1_555 1_555
C21 C9 1_555 1_555
H17 C21 1_555 1_555
H18 C21 1_555 1_555
H19 C21 1_555 1_555
C22 C13 1_555 1_555
H20 C22 1_555 1_555
H21 C22 1_555 1_555
H22 C22 1_555 1_555
C23 C17 1_555 1_555
H23 C23 1_555 1_555
H24 C23 1_555 1_555
H25 C23 1_555 1_555
C10 C11 1_555 1_555
C13 C18 1_555 1_555
C17 C19 1_555 1_555

#END
