
#######################################################################
#
#                 Cambridge Crystallographic Data Centre
#                                CCDC 
#
#######################################################################
#
# If this CIF has been generated from an entry in the Cambridge 
# Structural Database, then it will include bibliographic, chemical, 
# crystal, experimental, refinement or atomic coordinate data resulting 
# from the CCDC's data processing and validation procedures.
#
#######################################################################

data_DARYUT
_chemical_formula_moiety         'C32 H27 Br2 N3 O3,C1 H1 Cl3'
_chemical_name_systematic        
"ethyl 6'-bromo-3'-(6-bromo-3-methyl-1H-indol-2-yl)-1,9'-dimethyl-2-oxo-1,2,2',3'-tetrahydrospiro[indole-3,1'-pyrrolo[1,2-a]indole]-3'-carboxylate chloroform solvate"
_symmetry_cell_setting           orthorhombic
_symmetry_space_group_name_H-M   'P 21 21 2'
_symmetry_Int_Tables_number      18
_space_group_name_Hall           'P 2 2ab'
loop_
_symmetry_equiv_pos_site_id
_symmetry_equiv_pos_as_xyz
1 x,y,z
2 -x,-y,z
3 1/2-x,1/2+y,-z
4 1/2+x,1/2-y,-z
_cell_length_a                   16.2687(9)
_cell_length_b                   22.8720(12)
_cell_length_c                   9.2415(4)
_cell_angle_alpha                90
_cell_angle_beta                 90
_cell_angle_gamma                90
_cell_volume                     3438.74
_exptl_crystal_colour            colorless
_exptl_crystal_description       block
_cell_formula_units_Z            4
loop_
_atom_site_label
_atom_site_type_symbol
_atom_site_fract_x
_atom_site_fract_y
_atom_site_fract_z
Br1 Br 0.53523(6) 0.58921(5) 0.88583(10)
Br2 Br 1.06645(6) 0.64691(5) 0.64304(11)
O1 O 0.6186(3) 0.7000(3) 0.2357(5)
O2 O 0.8314(3) 0.5133(2) 0.0895(7)
O3 O 0.9381(3) 0.5743(3) 0.1103(9)
N1 N 0.7054(4) 0.6113(3) 0.3983(7)
H1 H 0.678(5) 0.638(4) 0.341(9)
N2 N 0.6134(3) 0.7385(3) 0.0078(6)
N3 N 0.8437(3) 0.6611(3) 0.2204(6)
C1 C 0.7710(4) 0.5802(3) 0.3400(8)
C2 C 0.7945(5) 0.5372(4) 0.4332(10)
C3 C 0.7398(5) 0.5412(4) 0.5502(9)
C4 C 0.7292(7) 0.5081(4) 0.6793(11)
H2 H 0.7640 0.4768 0.6985
C5 C 0.6694(6) 0.5217(4) 0.7737(10)
H3 H 0.6619 0.4989 0.8561
C6 C 0.6171(5) 0.5710(5) 0.7481(10)
C7 C 0.6241(4) 0.6034(3) 0.6254(8)
H4 H 0.5894 0.6350 0.6083
C8 C 0.6843(4) 0.5879(3) 0.5265(8)
C9 C 0.8647(6) 0.4945(5) 0.4222(12)
H5 H 0.8465 0.4599 0.3730
H6 H 0.8833 0.4844 0.5176
H7 H 0.9090 0.5120 0.3691
C10 C 0.8053(4) 0.6044(3) 0.1983(7)
C11 C 0.7387(4) 0.6194(3) 0.0807(7)
H8 H 0.7539 0.6021 -0.0112
H9 H 0.6858 0.6037 0.1095
C12 C 0.7329(4) 0.6863(3) 0.0650(7)
C13 C 0.7346(4) 0.7084(3) -0.0888(7)
C14 C 0.7914(5) 0.7018(4) -0.1951(9)
H10 H 0.8402 0.6819 -0.1768
C15 C 0.7764(6) 0.7250(4) -0.3317(9)
H11 H 0.8150 0.7208 -0.4051
C16 C 0.7044(6) 0.7540(5) -0.3573(10)
H12 H 0.6941 0.7686 -0.4494
C17 C 0.6470(5) 0.7620(4) -0.2502(9)
H13 H 0.5989 0.7827 -0.2681
C18 C 0.6624(4) 0.7385(3) -0.1158(8)
C19 C 0.6484(4) 0.7083(3) 0.1189(7)
C20 C 0.5279(4) 0.7598(4) 0.0154(10)
H14 H 0.5072 0.7546 0.1119
H15 H 0.4944 0.7381 -0.0512
H16 H 0.5264 0.8005 -0.0095
C21 C 0.8020(3) 0.7079(3) 0.1634(7)
C22 C 0.8303(4) 0.7594(3) 0.2162(8)
C23 C 0.8920(4) 0.7431(3) 0.3202(7)
C24 C 0.9411(4) 0.7752(3) 0.4172(8)
H17 H 0.9394 0.8159 0.4179
C25 C 0.9923(4) 0.7452(4) 0.5119(8)
H18 H 1.0247 0.7659 0.5771
C26 C 0.9954(4) 0.6859(4) 0.5101(8)
C27 C 0.9501(4) 0.6517(3) 0.4163(7)
H19 H 0.9541 0.6112 0.4156
C28 C 0.8977(4) 0.6819(3) 0.3224(8)
C29 C 0.8024(5) 0.8191(4) 0.1821(11)
H20 H 0.8484 0.8421 0.1510
H21 H 0.7784 0.8364 0.2668
H22 H 0.7621 0.8175 0.1063
C30 C 0.8669(4) 0.5630(3) 0.1300(9)
C31 C 0.8829(5) 0.4712(4) 0.0078(14)
H23 H 0.8913 0.4845 -0.0907
H24 H 0.9360 0.4664 0.0539
C32 C 0.8374(9) 0.4163(6) 0.009(2)
H25 H 0.8375 0.4004 0.1056
H26 H 0.8630 0.3890 -0.0556
H27 H 0.7818 0.4232 -0.0209
C33 C 0.6137(12) 0.4345(6) 0.337(4)
Cl1 Cl 0.5537(6) 0.4399(4) 0.4536(10)
Cl2 Cl 0.6182(4) 0.4739(2) 0.1721(6)
Cl3 Cl 0.6432(12) 0.3616(9) 0.253(2)
Cl4? Cl 0.6886(5) 0.3847(4) 0.3567(11)
Cl5? Cl 0.5167(7) 0.3961(5) 0.3022(13)
loop_
_geom_bond_atom_site_label_1
_geom_bond_atom_site_label_2
_geom_bond_site_symmetry_1
_geom_bond_site_symmetry_2
Br1 C6 1_555 1_555
Br2 C26 1_555 1_555
O1 C19 1_555 1_555
O2 C30 1_555 1_555
O3 C30 1_555 1_555
N1 H1 1_555 1_555
N2 C18 1_555 1_555
N3 C10 1_555 1_555
C1 N1 1_555 1_555
C2 C1 1_555 1_555
C3 C2 1_555 1_555
C4 C3 1_555 1_555
H2 C4 1_555 1_555
C5 C4 1_555 1_555
H3 C5 1_555 1_555
C6 C5 1_555 1_555
C7 C6 1_555 1_555
H4 C7 1_555 1_555
C8 N1 1_555 1_555
C9 C2 1_555 1_555
H5 C9 1_555 1_555
H6 C9 1_555 1_555
H7 C9 1_555 1_555
C10 C1 1_555 1_555
C11 C10 1_555 1_555
H8 C11 1_555 1_555
H9 C11 1_555 1_555
C12 C11 1_555 1_555
C13 C12 1_555 1_555
C14 C13 1_555 1_555
H10 C14 1_555 1_555
C15 C14 1_555 1_555
H11 C15 1_555 1_555
C16 C15 1_555 1_555
H12 C16 1_555 1_555
C17 C16 1_555 1_555
H13 C17 1_555 1_555
C18 C13 1_555 1_555
C19 N2 1_555 1_555
C20 N2 1_555 1_555
H14 C20 1_555 1_555
H15 C20 1_555 1_555
H16 C20 1_555 1_555
C21 N3 1_555 1_555
C22 C21 1_555 1_555
C23 C22 1_555 1_555
C24 C23 1_555 1_555
H17 C24 1_555 1_555
C25 C24 1_555 1_555
H18 C25 1_555 1_555
C26 C25 1_555 1_555
C27 C26 1_555 1_555
H19 C27 1_555 1_555
C28 N3 1_555 1_555
C29 C22 1_555 1_555
H20 C29 1_555 1_555
H21 C29 1_555 1_555
H22 C29 1_555 1_555
C30 C10 1_555 1_555
C31 O2 1_555 1_555
H23 C31 1_555 1_555
H24 C31 1_555 1_555
C32 C31 1_555 1_555
H25 C32 1_555 1_555
H26 C32 1_555 1_555
H27 C32 1_555 1_555
C33 Cl1 1_555 1_555
Cl2 C33 1_555 1_555
Cl3 C33 1_555 1_555
C3 C8 1_555 1_555
C7 C8 1_555 1_555
C12 C19 1_555 1_555
C12 C21 1_555 1_555
C17 C18 1_555 1_555
C23 C28 1_555 1_555
C27 C28 1_555 1_555

#END
