
#######################################################################
#
#                 Cambridge Crystallographic Data Centre
#                                CCDC 
#
#######################################################################
#
# If this CIF has been generated from an entry in the Cambridge 
# Structural Database, then it will include bibliographic, chemical, 
# crystal, experimental, refinement or atomic coordinate data resulting 
# from the CCDC's data processing and validation procedures.
#
#######################################################################

data_DASFIP
_chemical_formula_moiety         'C23 H24 F5 N1 O1'
_chemical_name_systematic        
5,5,6,6,6-pentafluoro-N,N-diisopropyl-4-methylene-2-(2-naphthyl)hex-2-enamide
_symmetry_cell_setting           monoclinic
_symmetry_space_group_name_H-M   'P 21/c'
_symmetry_Int_Tables_number      14
_space_group_name_Hall           '-P 2ybc'
loop_
_symmetry_equiv_pos_site_id
_symmetry_equiv_pos_as_xyz
1 x,y,z
2 -x,1/2+y,1/2-z
3 -x,-y,-z
4 x,1/2-y,1/2+z
_cell_length_a                   14.853(3)
_cell_length_b                   7.5783(13)
_cell_length_c                   19.985(3)
_cell_angle_alpha                90
_cell_angle_beta                 101.843(3)
_cell_angle_gamma                90
_cell_volume                     2201.64
_exptl_crystal_colour            colorless
_exptl_crystal_description       prism
_cell_formula_units_Z            4
loop_
_atom_site_label
_atom_site_type_symbol
_atom_site_fract_x
_atom_site_fract_y
_atom_site_fract_z
C1 C 0.03312(17) 0.8353(3) 0.38257(12)
H1 H 0.0442 0.879 0.427
C2 C -0.05834(16) 0.8279(3) 0.34485(12)
C3 C -0.13301(19) 0.8898(4) 0.37116(15)
H2 H -0.1229 0.9391 0.4147
C4 C -0.2197(2) 0.8784(4) 0.33362(19)
H3 H -0.2686 0.9216 0.3513
C5 C -0.2364(2) 0.8025(4) 0.26874(19)
H4 H -0.2965 0.7932 0.2439
C6 C -0.1665(2) 0.7428(4) 0.24177(16)
H5 H -0.1788 0.6921 0.1985
C7 C -0.07453(17) 0.7559(3) 0.27818(13)
C8 C 0.00142(19) 0.6996(4) 0.25166(14)
H6 H -0.0085 0.6525 0.2078
C9 C 0.08828(19) 0.7121(3) 0.28825(13)
H7 H 0.1371 0.6756 0.269
C10 C 0.10573(16) 0.7800(3) 0.35560(12)
C11 C 0.20130(17) 0.7845(3) 0.39672(12)
C12 C 0.20954(17) 0.7529(3) 0.47224(12)
C13 C 0.2173(2) 0.4336(4) 0.44873(14)
H8 H 0.2153 0.4803 0.4027
C14 C 0.3051(3) 0.3268(5) 0.4684(2)
H9 H 0.3572 0.4044 0.4742
H10 H 0.3083 0.2428 0.433
H11 H 0.3053 0.2656 0.5105
C15 C 0.1329(3) 0.3195(5) 0.44498(18)
H12 H 0.1321 0.2727 0.4895
H13 H 0.1344 0.2241 0.4136
H14 H 0.0787 0.3892 0.4295
C16 C 0.2191(2) 0.5483(4) 0.56768(14)
H15 H 0.2244 0.4199 0.5729
C17 C 0.3037(3) 0.6255(6) 0.61354(18)
H16 H 0.3567 0.602 0.5944
H17 H 0.312 0.5728 0.6581
H18 H 0.2961 0.7507 0.6173
C18 C 0.1309(3) 0.5989(5) 0.58849(18)
H19 H 0.1241 0.7249 0.5867
H20 H 0.1322 0.5587 0.6342
H21 H 0.0799 0.5454 0.5578
C19 C 0.27343(18) 0.8192(4) 0.36888(14)
H22 H 0.2606 0.8489 0.3227
C20 C 0.3706(2) 0.8160(5) 0.40262(18)
C21 C 0.4058(2) 0.8408(6) 0.4666(2)
H23 H 0.3677 0.8641 0.4971
H24 H 0.4692 0.8354 0.4821
C22 C 0.4319(7) 0.741(2) 0.3609(7)
C23 C 0.4783(7) 0.883(3) 0.3215(8)
F1 F 0.3937(11) 0.613(2) 0.3150(10)
F2 F 0.5077(6) 0.648(2) 0.4017(8)
F3 F 0.5172(11) 0.992(3) 0.3627(9)
F4 F 0.4027(8) 1.0017(13) 0.2884(6)
F5 F 0.5226(9) 0.836(3) 0.2777(9)
N1 N 0.21676(15) 0.5857(3) 0.49433(10)
O1 O 0.20681(14) 0.8809(2) 0.50919(9)
C24? C 0.4405(12) 0.872(3) 0.3514(8)
C25? C 0.4495(13) 0.714(3) 0.3234(15)
F6? F 0.5337(9) 0.928(3) 0.3867(9)
F7? F 0.4173(12) 0.959(3) 0.3042(9)
F8? F 0.3801(14) 0.660(3) 0.2807(9)
F9? F 0.4881(13) 0.605(2) 0.3615(13)
F10? F 0.5198(13) 0.736(5) 0.2863(12)
loop_
_geom_bond_atom_site_label_1
_geom_bond_atom_site_label_2
_geom_bond_site_symmetry_1
_geom_bond_site_symmetry_2
C1 H1 1_555 1_555
C2 C1 1_555 1_555
C3 C2 1_555 1_555
H2 C3 1_555 1_555
C4 C3 1_555 1_555
H3 C4 1_555 1_555
C5 C4 1_555 1_555
H4 C5 1_555 1_555
C6 C5 1_555 1_555
H5 C6 1_555 1_555
C7 C2 1_555 1_555
C8 C7 1_555 1_555
H6 C8 1_555 1_555
C9 C8 1_555 1_555
H7 C9 1_555 1_555
C10 C1 1_555 1_555
C11 C10 1_555 1_555
C12 C11 1_555 1_555
C13 H8 1_555 1_555
C14 C13 1_555 1_555
H9 C14 1_555 1_555
H10 C14 1_555 1_555
H11 C14 1_555 1_555
C15 C13 1_555 1_555
H12 C15 1_555 1_555
H13 C15 1_555 1_555
H14 C15 1_555 1_555
C16 H15 1_555 1_555
C17 C16 1_555 1_555
H16 C17 1_555 1_555
H17 C17 1_555 1_555
H18 C17 1_555 1_555
C18 C16 1_555 1_555
H19 C18 1_555 1_555
H20 C18 1_555 1_555
H21 C18 1_555 1_555
C19 C11 1_555 1_555
H22 C19 1_555 1_555
C20 C19 1_555 1_555
C21 C20 1_555 1_555
H23 C21 1_555 1_555
H24 C21 1_555 1_555
C22 C20 1_555 1_555
C23 C22 1_555 1_555
F1 C22 1_555 1_555
F2 C22 1_555 1_555
F3 C23 1_555 1_555
F4 C23 1_555 1_555
F5 C23 1_555 1_555
N1 C12 1_555 1_555
O1 C12 1_555 1_555
C6 C7 1_555 1_555
C9 C10 1_555 1_555
C13 N1 1_555 1_555
C16 N1 1_555 1_555

#END
