
#######################################################################
#
#                 Cambridge Crystallographic Data Centre
#                                CCDC 
#
#######################################################################
#
# If this CIF has been generated from an entry in the Cambridge 
# Structural Database, then it will include bibliographic, chemical, 
# crystal, experimental, refinement or atomic coordinate data resulting 
# from the CCDC's data processing and validation procedures.
#
#######################################################################

data_DASFAH
_chemical_compound_source        'Daldinia eschscholzii IFB-TL01'
_chemical_name_common            'Dalescone E dihydrate'
_chemical_formula_moiety         'C31 H22 O8,2(H2 O1)'
_chemical_name_systematic        
"4,10,15,17-tetrahydroxy-2-(1-hydroxyethyl)-12a,13-dihydrobenzo[3,4]naphtho[1',2':1,7]cyclohepta[1,2-a]acenaphthylene-3,11,14(12H)-trione dihydrate"
_symmetry_cell_setting           monoclinic
_symmetry_space_group_name_H-M   'P 21'
_symmetry_Int_Tables_number      4
_space_group_name_Hall           'P 2yb'
loop_
_symmetry_equiv_pos_site_id
_symmetry_equiv_pos_as_xyz
1 x,y,z
2 -x,1/2+y,-z
_cell_length_a                   8.3894(4)
_cell_length_b                   14.6187(8)
_cell_length_c                   10.2645(4)
_cell_angle_alpha                90
_cell_angle_beta                 97.613(4)
_cell_angle_gamma                90
_cell_volume                     1247.76
_exptl_crystal_colour            brown
_exptl_crystal_description       prism
_cell_formula_units_Z            2
loop_
_atom_site_label
_atom_site_type_symbol
_atom_site_fract_x
_atom_site_fract_y
_atom_site_fract_z
O1 O 0.1091(2) 0.49955(12) 0.55695(19)
O2 O -0.11563(18) 0.74949(11) 0.48731(13)
O3 O -0.34305(18) 0.86678(11) 0.53579(14)
O4 O -0.7625(2) 0.55285(15) 1.27055(18)
O5 O -0.5497(2) 0.67735(16) 1.33753(16)
O6 O -0.21138(19) 0.52910(12) 1.34702(14)
O7 O -0.1207(2) 0.36118(12) 1.31617(16)
O8 O -0.1397(2) 0.25146(11) 0.88563(16)
C1 C 0.2501(3) 0.64310(18) 0.6073(2)
H1 H 0.3346 0.6253 0.5549
H2 H 0.2806 0.6239 0.6987
H3 H 0.2364 0.7097 0.6038
C2 C 0.0930(3) 0.59720(15) 0.5522(2)
H4 H 0.0622 0.6169 0.4589
C3 C -0.0392(2) 0.62354(15) 0.63193(19)
C4 C -0.1353(2) 0.70594(15) 0.58922(18)
C5 C -0.2562(2) 0.73582(15) 0.66977(18)
C6 C -0.3544(2) 0.81348(14) 0.64406(19)
C7 C -0.4638(3) 0.83699(14) 0.72921(19)
H5 H -0.5305 0.8892 0.7106
C8 C -0.4774(2) 0.78498(14) 0.84213(19)
H6 H -0.5517 0.8023 0.8999
C9 C -0.3813(2) 0.70795(14) 0.86882(18)
C10 C -0.2737(2) 0.68608(15) 0.78207(18)
C11 C -0.1822(2) 0.60552(14) 0.82211(19)
C12 C -0.0636(2) 0.57579(15) 0.74158(19)
H7 H -0.0018 0.5224 0.7652
C13 C -0.2305(2) 0.57393(14) 0.93742(18)
C14 C -0.3523(2) 0.64135(14) 0.98485(18)
C15 C -0.5023(2) 0.58989(15) 1.01243(19)
C16 C -0.5711(2) 0.52751(15) 0.9197(2)
H8 H -0.5286 0.5201 0.8391
C17 C -0.7034(3) 0.47561(16) 0.9455(2)
H9 H -0.7513 0.4340 0.8808
C18 C -0.7662(3) 0.48350(17) 1.0630(3)
H10 H -0.8548 0.4468 1.0794
C19 C -0.6988(3) 0.54522(17) 1.1561(2)
C20 C -0.5677(2) 0.60035(16) 1.1316(2)
C21 C -0.5062(3) 0.67107(18) 1.2270(2)
C22 C -0.3916(3) 0.73963(16) 1.1838(2)
H11 H -0.3346 0.7707 1.2622
H12 H -0.4531 0.7865 1.1286
C23 C -0.2677(2) 0.69629(15) 1.10587(19)
H13 H -0.2086 0.7478 1.0697
C24 C -0.1412(2) 0.63962(15) 1.19413(19)
H14 H -0.0446 0.6350 1.1487
H15 H -0.1099 0.6749 1.2758
C25 C -0.1841(2) 0.54483(15) 1.23291(19)
C26 C -0.1766(2) 0.47051(14) 1.1385(2)
C27 C -0.1421(2) 0.38063(16) 1.1858(2)
C28 C -0.1245(3) 0.30808(15) 1.1008(2)
H16 H -0.0973 0.2488 1.1346
C29 C -0.1471(2) 0.32347(15) 0.9655(2)
C30 C -0.1808(2) 0.41185(14) 0.9159(2)
H17 H -0.1970 0.4214 0.8236
C31 C -0.1909(2) 0.48565(14) 1.00022(19)
H18 H 0.191(5) 0.485(3) 0.505(4)
H19 H -0.267(4) 0.834(2) 0.498(3)
H20 H -0.691(5) 0.596(3) 1.322(4)
H21 H -0.146(4) 0.406(2) 1.349(3)
H22 H -0.147(4) 0.274(3) 0.795(3)
O9 O -0.1362(3) 0.30742(15) 0.64554(18)
H23 H -0.049(6) 0.289(3) 0.600(4)
H24 H -0.208(4) 0.351(3) 0.606(3)
O10 O -0.3535(2) 0.44822(13) 0.57667(17)
H25 H -0.462(7) 0.440(4) 0.558(4)
H26 H -0.344(8) 0.482(4) 0.493(6)
loop_
_geom_bond_atom_site_label_1
_geom_bond_atom_site_label_2
_geom_bond_site_symmetry_1
_geom_bond_site_symmetry_2
O1 C2 1_555 1_555
O2 C4 1_555 1_555
O3 C6 1_555 1_555
O4 C19 1_555 1_555
O5 C21 1_555 1_555
O6 C25 1_555 1_555
O7 C27 1_555 1_555
O8 C29 1_555 1_555
C1 H1 1_555 1_555
H2 C1 1_555 1_555
H3 C1 1_555 1_555
C2 C1 1_555 1_555
H4 C2 1_555 1_555
C3 C2 1_555 1_555
C4 C3 1_555 1_555
C5 C4 1_555 1_555
C6 C5 1_555 1_555
C7 C6 1_555 1_555
H5 C7 1_555 1_555
C8 C7 1_555 1_555
H6 C8 1_555 1_555
C9 C8 1_555 1_555
C10 C5 1_555 1_555
C11 C10 1_555 1_555
C12 C3 1_555 1_555
H7 C12 1_555 1_555
C13 C11 1_555 1_555
C14 C9 1_555 1_555
C15 C14 1_555 1_555
C16 C15 1_555 1_555
H8 C16 1_555 1_555
C17 C16 1_555 1_555
H9 C17 1_555 1_555
C18 C17 1_555 1_555
H10 C18 1_555 1_555
C19 C18 1_555 1_555
C20 C15 1_555 1_555
C21 C20 1_555 1_555
C22 C21 1_555 1_555
H11 C22 1_555 1_555
H12 C22 1_555 1_555
C23 C14 1_555 1_555
H13 C23 1_555 1_555
C24 C23 1_555 1_555
H14 C24 1_555 1_555
H15 C24 1_555 1_555
C25 C24 1_555 1_555
C26 C25 1_555 1_555
C27 C26 1_555 1_555
C28 C27 1_555 1_555
H16 C28 1_555 1_555
C29 C28 1_555 1_555
C30 C29 1_555 1_555
H17 C30 1_555 1_555
C31 C13 1_555 1_555
H18 O1 1_555 1_555
H19 O3 1_555 1_555
H20 O4 1_555 1_555
H21 O7 1_555 1_555
H22 O8 1_555 1_555
O9 H23 1_555 1_555
H24 O9 1_555 1_555
O10 H25 1_555 1_555
H26 O10 1_555 1_555
C9 C10 1_555 1_555
C11 C12 1_555 1_555
C13 C14 1_555 1_555
C19 C20 1_555 1_555
C22 C23 1_555 1_555
C26 C31 1_555 1_555
C30 C31 1_555 1_555

#END
