
#######################################################################
#
#                 Cambridge Crystallographic Data Centre
#                                CCDC 
#
#######################################################################
#
# If this CIF has been generated from an entry in the Cambridge 
# Structural Database, then it will include bibliographic, chemical, 
# crystal, experimental, refinement or atomic coordinate data resulting 
# from the CCDC's data processing and validation procedures.
#
#######################################################################

data_DASJAL
_chemical_formula_moiety         'C16 H13 N1'
_chemical_name_systematic        4-methyl-3-phenylisoquinoline
_symmetry_cell_setting           orthorhombic
_symmetry_space_group_name_H-M   'P n a 21'
_symmetry_Int_Tables_number      33
_space_group_name_Hall           'P 2c -2n'
loop_
_symmetry_equiv_pos_site_id
_symmetry_equiv_pos_as_xyz
1 x,y,z
2 -x,-y,1/2+z
3 1/2+x,1/2-y,z
4 1/2-x,1/2+y,1/2+z
_cell_length_a                   15.5482(14)
_cell_length_b                   8.4957(9)
_cell_length_c                   18.085(4)
_cell_angle_alpha                90
_cell_angle_beta                 90
_cell_angle_gamma                90
_cell_volume                     2388.9
_exptl_crystal_colour            colorless
_exptl_crystal_description       prism
_cell_formula_units_Z            8
loop_
_atom_site_label
_atom_site_type_symbol
_atom_site_fract_x
_atom_site_fract_y
_atom_site_fract_z
C1 C 0.4088(8) 0.0452(11) 0.6176(7)
H1 H 0.3617 0.0008 0.5937
C2 C 0.2551(6) 0.6131(12) 0.5369(6)
H2 H 0.2730 0.5444 0.4999
C3 C 0.1928(6) 0.7296(14) 0.5213(8)
H3 H 0.1690 0.7368 0.4743
C4 C 0.1679(6) 0.8304(12) 0.5750(8)
H4 H 0.1269 0.9073 0.5652
C5 C 0.2044(7) 0.8178(11) 0.6452(7)
H5 H 0.1884 0.8882 0.6822
C6 C 0.2621(7) 0.7057(11) 0.6599(7)
H6 H 0.2841 0.6988 0.7076
C7 C 0.2900(5) 0.6016(9) 0.6087(6)
C8 C 0.3562(5) 0.4767(9) 0.6248(5)
C9 C 0.3466(6) 0.3172(11) 0.6121(6)
C10 C 0.4115(6) 0.2154(11) 0.6316(7)
C11 C 0.4850(6) 0.2740(12) 0.6653(7)
C12 C 0.4875(6) 0.4376(11) 0.6787(6)
H7 H 0.5357 0.4781 0.7025
C13 C 0.4741(8) -0.0455(13) 0.6392(8)
H8 H 0.4712 -0.1537 0.6320
C14 C 0.5472(8) 0.0205(12) 0.6728(7)
H9 H 0.5923 -0.0454 0.6863
C15 C 0.5539(7) 0.1740(14) 0.6859(6)
H10 H 0.6030 0.2150 0.7081
C16 C 0.2609(6) 0.2495(10) 0.5789(9)
H11 H 0.2689 0.2274 0.5273
H12 H 0.2157 0.3254 0.5847
H13 H 0.2458 0.1543 0.6044
N1 N 0.4267(5) 0.5360(8) 0.6600(5)
C17 C 0.4917(7) 0.3648(12) 0.4544(7)
H14 H 0.4746 0.4321 0.4923
C18 C 0.5494(7) 0.2501(11) 0.4702(8)
H15 H 0.5695 0.2385 0.5184
C19 C 0.5784(7) 0.1514(13) 0.4162(8)
H16 H 0.6198 0.0756 0.4267
C20 C 0.5449(7) 0.1658(13) 0.3441(8)
H17 H 0.5643 0.1005 0.3064
C21 C 0.4835(6) 0.2768(10) 0.3303(7)
H18 H 0.4582 0.2811 0.2838
C22 C 0.4572(5) 0.3863(10) 0.3855(6)
C23 C 0.3935(5) 0.5098(10) 0.3679(5)
C24 C 0.4040(5) 0.6662(11) 0.3862(6)
C25 C 0.3358(5) 0.7684(10) 0.3691(6)
C26 C 0.2624(6) 0.7210(12) 0.3320(7)
C27 C 0.2613(6) 0.5541(12) 0.3130(6)
H19 H 0.2142 0.5148 0.2872
C28 C 0.3375(7) 0.9365(13) 0.3854(8)
H20 H 0.3856 0.9785 0.4088
C29 C 0.2715(9) 1.0339(13) 0.3677(9)
H21 H 0.2746 1.1405 0.3791
C30 C 0.1988(8) 0.9737(15) 0.3323(8)
H22 H 0.1532 1.0405 0.3213
C31 C 0.1936(7) 0.8142(16) 0.3132(6)
H23 H 0.1458 0.7734 0.2890
C32 C 0.4809(7) 0.7339(12) 0.4245(10)
H24 H 0.5106 0.8035 0.3914
H25 H 0.5187 0.6502 0.4392
H26 H 0.4626 0.7913 0.4674
N2 N 0.3232(5) 0.4569(9) 0.3305(5)
loop_
_geom_bond_atom_site_label_1
_geom_bond_atom_site_label_2
_geom_bond_site_symmetry_1
_geom_bond_site_symmetry_2
C1 H1 1_555 1_555
C2 H2 1_555 1_555
C3 C2 1_555 1_555
H3 C3 1_555 1_555
C4 C3 1_555 1_555
H4 C4 1_555 1_555
C5 C4 1_555 1_555
H5 C5 1_555 1_555
C6 C5 1_555 1_555
H6 C6 1_555 1_555
C7 C2 1_555 1_555
C8 C7 1_555 1_555
C9 C8 1_555 1_555
C10 C1 1_555 1_555
C11 C10 1_555 1_555
C12 C11 1_555 1_555
H7 C12 1_555 1_555
C13 C1 1_555 1_555
H8 C13 1_555 1_555
C14 C13 1_555 1_555
H9 C14 1_555 1_555
C15 C11 1_555 1_555
H10 C15 1_555 1_555
C16 C9 1_555 1_555
H11 C16 1_555 1_555
H12 C16 1_555 1_555
H13 C16 1_555 1_555
N1 C8 1_555 1_555
C17 H14 1_555 1_555
C18 C17 1_555 1_555
H15 C18 1_555 1_555
C19 C18 1_555 1_555
H16 C19 1_555 1_555
C20 C19 1_555 1_555
H17 C20 1_555 1_555
C21 C20 1_555 1_555
H18 C21 1_555 1_555
C22 C17 1_555 1_555
C23 C22 1_555 1_555
C24 C23 1_555 1_555
C25 C24 1_555 1_555
C26 C25 1_555 1_555
C27 C26 1_555 1_555
H19 C27 1_555 1_555
C28 C25 1_555 1_555
H20 C28 1_555 1_555
C29 C28 1_555 1_555
H21 C29 1_555 1_555
C30 C29 1_555 1_555
H22 C30 1_555 1_555
C31 C26 1_555 1_555
H23 C31 1_555 1_555
C32 C24 1_555 1_555
H24 C32 1_555 1_555
H25 C32 1_555 1_555
H26 C32 1_555 1_555
N2 C23 1_555 1_555
C6 C7 1_555 1_555
C9 C10 1_555 1_555
C12 N1 1_555 1_555
C14 C15 1_555 1_555
C21 C22 1_555 1_555
C27 N2 1_555 1_555
C30 C31 1_555 1_555

#END
