
#######################################################################
#
#                 Cambridge Crystallographic Data Centre
#                                CCDC 
#
#######################################################################
#
# If this CIF has been generated from an entry in the Cambridge 
# Structural Database, then it will include bibliographic, chemical, 
# crystal, experimental, refinement or atomic coordinate data resulting 
# from the CCDC's data processing and validation procedures.
#
#######################################################################

data_DASJAJ
_chemical_formula_moiety         'C33 H26 N2'
_chemical_name_systematic        
Diphenyl(4-(2-(4-(2-(4-pyridyl)vinyl)phenyl)vinyl)phenyl)amine
_symmetry_cell_setting           monoclinic
_symmetry_space_group_name_H-M   'P 21'
_symmetry_Int_Tables_number      4
_space_group_name_Hall           'P 2yb'
loop_
_symmetry_equiv_pos_site_id
_symmetry_equiv_pos_as_xyz
1 x,y,z
2 -x,1/2+y,-z
_cell_length_a                   9.5808(11)
_cell_length_b                   8.7128(13)
_cell_length_c                   29.489(6)
_cell_angle_alpha                90
_cell_angle_beta                 93.854(11)
_cell_angle_gamma                90
_cell_volume                     2456.05
_exptl_crystal_colour            orange
_exptl_crystal_description       plate
_chemical_melting_point          229deg.C
_cell_formula_units_Z            4
loop_
_atom_site_label
_atom_site_type_symbol
_atom_site_fract_x
_atom_site_fract_y
_atom_site_fract_z
C1 C 0.6400(12) 0.1137(14) 0.3472(4)
H1 H 0.5948 0.0423 0.3279
C2 C 0.5996(11) 0.1238(13) 0.3900(4)
H2 H 0.5270 0.0620 0.3988
C3 C 0.6628(12) 0.2221(14) 0.4206(3)
C4 C 0.7612(13) 0.3107(15) 0.4047(4)
H3 H 0.8068 0.3816 0.4240
C5 C 0.7981(12) 0.3006(15) 0.3597(5)
H4 H 0.8655 0.3673 0.3498
C6 C 0.6055(11) 0.2025(14) 0.4654(3)
H5 H 0.5295 0.1379 0.4686
C7 C 0.6629(11) 0.2779(13) 0.5014(3)
H6 H 0.7323 0.3500 0.4969
C8 C 0.6211(13) 0.2518(17) 0.5480(3)
C9 C 0.5138(11) 0.1646(14) 0.5639(3)
H7 H 0.4591 0.1062 0.5431
C10 C 0.4839(11) 0.1600(13) 0.6092(3)
H8 H 0.4093 0.1004 0.6175
C11 C 0.5602(11) 0.2401(13) 0.6418(3)
C12 C 0.6715(10) 0.3247(13) 0.6264(3)
H9 H 0.7299 0.3782 0.6473
C13 C 0.6970(11) 0.3309(15) 0.5804(4)
H10 H 0.7698 0.3925 0.5717
C14 C 0.5225(11) 0.2405(12) 0.6883(3)
H11 H 0.4358 0.1990 0.6938
C15 C 0.5981(11) 0.2934(13) 0.7237(3)
H12 H 0.6857 0.3331 0.7185
C16 C 0.5562(11) 0.2955(13) 0.7712(3)
C17 C 0.4210(10) 0.2591(13) 0.7813(3)
H13 H 0.3560 0.2292 0.7582
C18 C 0.3818(10) 0.2670(13) 0.8261(3)
H14 H 0.2918 0.2386 0.8327
C19 C 0.4762(10) 0.3171(12) 0.8610(3)
C20 C 0.6143(10) 0.3513(12) 0.8510(3)
H15 H 0.6805 0.3802 0.8739
C21 C 0.6501(10) 0.3410(12) 0.8056(3)
H16 H 0.7407 0.3659 0.7987
C22 C 0.5330(10) 0.3113(13) 0.9454(3)
C23 C 0.6369(10) 0.2042(13) 0.9463(3)
H17 H 0.6463 0.1404 0.9214
C24 C 0.7292(10) 0.1907(14) 0.9848(3)
H18 H 0.8027 0.1209 0.9855
C25 C 0.7093(10) 0.2820(14) 1.0214(3)
H19 H 0.7673 0.2698 1.0477
C26 C 0.6075(11) 0.3901(14) 1.0204(3)
H20 H 0.5973 0.4527 1.0455
C27 C 0.5195(10) 0.4063(13) 0.9821(3)
H21 H 0.4507 0.4817 0.9809
C28 C 0.2922(10) 0.3561(13) 0.9133(3)
C29 C 0.2213(11) 0.2687(13) 0.9432(3)
H22 H 0.2676 0.1886 0.9587
C30 C 0.0835(12) 0.2974(16) 0.9508(4)
H23 H 0.0386 0.2402 0.9721
C31 C 0.0135(11) 0.4100(17) 0.9269(3)
H24 H -0.0814 0.4239 0.9303
C32 C 0.0808(11) 0.5051(14) 0.8973(3)
H25 H 0.0338 0.5853 0.8821
C33 C 0.2225(11) 0.4752(13) 0.8913(3)
H26 H 0.2702 0.5375 0.8719
N1 N 0.7398(11) 0.1988(13) 0.3306(3)
N2 N 0.4378(7) 0.3293(10) 0.9060(2)
C34 C 1.0748(11) 0.6025(13) 0.2746(3)
H27 H 1.1326 0.5200 0.2688
C35 C 1.0385(10) 0.6269(13) 0.3181(3)
H28 H 1.0733 0.5613 0.3411
C36 C 0.9510(10) 0.7470(13) 0.3291(3)
C37 C 0.9052(9) 0.8379(13) 0.2937(3)
H29 H 0.8444 0.9185 0.2987
C38 C 0.9483(10) 0.8122(13) 0.2496(3)
H30 H 0.9187 0.8806 0.2267
C39 C 0.9053(9) 0.7768(14) 0.3747(3)
H31 H 0.8390 0.8535 0.3775
C40 C 0.9513(9) 0.7025(11) 0.4128(3)
H32 H 1.0213 0.6302 0.4096
C41 C 0.9046(9) 0.7218(11) 0.4584(3)
C42 C 0.9683(11) 0.6435(12) 0.4942(3)
H33 H 1.0406 0.5760 0.4889
C43 C 0.9276(10) 0.6620(12) 0.5387(3)
H34 H 0.9727 0.6059 0.5622
C44 C 0.8228(9) 0.7613(12) 0.5481(3)
C45 C 0.7591(9) 0.8411(11) 0.5116(3)
H35 H 0.6853 0.9066 0.5169
C46 C 0.7995(9) 0.8280(11) 0.4683(3)
H36 H 0.7578 0.8890 0.4453
C47 C 0.7727(9) 0.7859(12) 0.5938(3)
H37 H 0.6971 0.8521 0.5955
C48 C 0.8228(9) 0.7246(12) 0.6327(3)
H38 H 0.8998 0.6600 0.6316
C49 C 0.7673(9) 0.7498(11) 0.6776(3)
C50 C 0.8362(10) 0.6818(12) 0.7161(3)
H39 H 0.9162 0.6234 0.7130
C51 C 0.7865(9) 0.7007(12) 0.7584(3)
H40 H 0.8363 0.6592 0.7836
C52 C 0.6643(10) 0.7798(12) 0.7642(3)
C53 C 0.5977(9) 0.8496(11) 0.7270(3)
H41 H 0.5180 0.9083 0.7304
C54 C 0.6491(9) 0.8327(11) 0.6841(3)
H42 H 0.6017 0.8792 0.6592
C55 C 0.3734(10) 0.7094(13) 0.7826(3)
H43 H 0.4104 0.6449 0.7613
C56 C 0.2326(10) 0.7186(14) 0.7849(3)
H44 H 0.1744 0.6603 0.7651
C57 C 0.1753(10) 0.8123(15) 0.8159(3)
H45 H 0.0788 0.8219 0.8163
C58 C 0.2627(11) 0.8926(14) 0.8466(3)
H46 H 0.2248 0.9490 0.8695
C59 C 0.4075(10) 0.8899(12) 0.8435(3)
H47 H 0.4657 0.9507 0.8626
C60 C 0.4628(9) 0.7950(13) 0.8116(3)
C61 C 0.7030(10) 0.8236(13) 0.8467(3)
C62 C 0.6888(11) 0.7461(13) 0.8864(3)
H48 H 0.6193 0.6723 0.8883
C63 C 0.7787(13) 0.7788(16) 0.9236(4)
H49 H 0.7672 0.7285 0.9509
C64 C 0.8828(12) 0.8819(18) 0.9214(4)
H50 H 0.9460 0.8972 0.9463
C65 C 0.8948(11) 0.9635(16) 0.8824(4)
H51 H 0.9639 1.0381 0.8812
C66 C 0.8036(11) 0.9353(14) 0.8443(3)
H52 H 0.8108 0.9913 0.8177
N3 N 1.0285(9) 0.6962(11) 0.2389(3)
N4 N 0.6088(7) 0.7928(10) 0.8078(2)
loop_
_geom_bond_atom_site_label_1
_geom_bond_atom_site_label_2
_geom_bond_site_symmetry_1
_geom_bond_site_symmetry_2
C1 H1 1_555 1_555
C2 C1 1_555 1_555
H2 C2 1_555 1_555
C3 C2 1_555 1_555
C4 C3 1_555 1_555
H3 C4 1_555 1_555
C5 C4 1_555 1_555
H4 C5 1_555 1_555
C6 C3 1_555 1_555
H5 C6 1_555 1_555
C7 C6 1_555 1_555
H6 C7 1_555 1_555
C8 C7 1_555 1_555
C9 C8 1_555 1_555
H7 C9 1_555 1_555
C10 C9 1_555 1_555
H8 C10 1_555 1_555
C11 C10 1_555 1_555
C12 C11 1_555 1_555
H9 C12 1_555 1_555
C13 C8 1_555 1_555
H10 C13 1_555 1_555
C14 C11 1_555 1_555
H11 C14 1_555 1_555
C15 C14 1_555 1_555
H12 C15 1_555 1_555
C16 C15 1_555 1_555
C17 C16 1_555 1_555
H13 C17 1_555 1_555
C18 C17 1_555 1_555
H14 C18 1_555 1_555
C19 C18 1_555 1_555
C20 C19 1_555 1_555
H15 C20 1_555 1_555
C21 C16 1_555 1_555
H16 C21 1_555 1_555
C22 C23 1_555 1_555
C23 H17 1_555 1_555
C24 C23 1_555 1_555
H18 C24 1_555 1_555
C25 C24 1_555 1_555
H19 C25 1_555 1_555
C26 C25 1_555 1_555
H20 C26 1_555 1_555
C27 C22 1_555 1_555
H21 C27 1_555 1_555
C28 C29 1_555 1_555
C29 H22 1_555 1_555
C30 C29 1_555 1_555
H23 C30 1_555 1_555
C31 C30 1_555 1_555
H24 C31 1_555 1_555
C32 C31 1_555 1_555
H25 C32 1_555 1_555
C33 C28 1_555 1_555
H26 C33 1_555 1_555
C34 H27 1_555 1_555
C35 C34 1_555 1_555
H28 C35 1_555 1_555
C36 C35 1_555 1_555
C37 C36 1_555 1_555
H29 C37 1_555 1_555
C38 C37 1_555 1_555
H30 C38 1_555 1_555
C39 C36 1_555 1_555
H31 C39 1_555 1_555
C40 C39 1_555 1_555
H32 C40 1_555 1_555
C41 C40 1_555 1_555
C42 C41 1_555 1_555
H33 C42 1_555 1_555
C43 C42 1_555 1_555
H34 C43 1_555 1_555
C44 C43 1_555 1_555
C45 C44 1_555 1_555
H35 C45 1_555 1_555
C46 C41 1_555 1_555
H36 C46 1_555 1_555
C47 C44 1_555 1_555
H37 C47 1_555 1_555
C48 C47 1_555 1_555
H38 C48 1_555 1_555
C49 C48 1_555 1_555
C50 C49 1_555 1_555
H39 C50 1_555 1_555
C51 C50 1_555 1_555
H40 C51 1_555 1_555
C52 C51 1_555 1_555
C53 C52 1_555 1_555
H41 C53 1_555 1_555
C54 C49 1_555 1_555
H42 C54 1_555 1_555
C55 H43 1_555 1_555
C56 C55 1_555 1_555
H44 C56 1_555 1_555
C57 C56 1_555 1_555
H45 C57 1_555 1_555
C58 C57 1_555 1_555
H46 C58 1_555 1_555
C59 C58 1_555 1_555
H47 C59 1_555 1_555
C60 C55 1_555 1_555
C61 C62 1_555 1_555
C62 H48 1_555 1_555
C63 C62 1_555 1_555
H49 C63 1_555 1_555
C64 C63 1_555 1_555
H50 C64 1_555 1_555
C65 C64 1_555 1_555
H51 C65 1_555 1_555
C66 C61 1_555 1_555
H52 C66 1_555 1_555
N1 C1 1_555 1_555
N2 C19 1_555 1_555
N3 C34 1_555 1_555
N4 C52 1_555 1_555
C5 N1 1_555 1_555
C12 C13 1_555 1_555
C20 C21 1_555 1_555
C22 N2 1_555 1_555
C26 C27 1_555 1_555
C28 N2 1_555 1_555
C32 C33 1_555 1_555
C38 N3 1_555 1_555
C45 C46 1_555 1_555
C53 C54 1_555 1_555
C59 C60 1_555 1_555
C60 N4 1_555 1_555
C61 N4 1_555 1_555
C65 C66 1_555 1_555

#END
