
#######################################################################
#
#                 Cambridge Crystallographic Data Centre
#                                CCDC 
#
#######################################################################
#
# If this CIF has been generated from an entry in the Cambridge 
# Structural Database, then it will include bibliographic, chemical, 
# crystal, experimental, refinement or atomic coordinate data resulting 
# from the CCDC's data processing and validation procedures.
#
#######################################################################

data_DASKIU
_chemical_formula_moiety         'C11 H21 N3'
_chemical_name_systematic        
1-(penta-1,2-dien-1-yl)-3,3-bis(propan-2-yl)triaz-1-ene
_symmetry_cell_setting           monoclinic
_symmetry_space_group_name_H-M   'P 21/c'
_symmetry_Int_Tables_number      14
_space_group_name_Hall           '-P 2ybc'
loop_
_symmetry_equiv_pos_site_id
_symmetry_equiv_pos_as_xyz
1 x,y,z
2 -x,1/2+y,1/2-z
3 -x,-y,-z
4 x,1/2-y,1/2+z
_cell_length_a                   10.4021(10)
_cell_length_b                   11.1735(9)
_cell_length_c                   21.729(3)
_cell_angle_alpha                90
_cell_angle_beta                 98.000(11)
_cell_angle_gamma                90
_cell_volume                     2500.94
_exptl_crystal_colour            yellow
_exptl_crystal_description       plate
_cell_formula_units_Z            8
loop_
_atom_site_label
_atom_site_type_symbol
_atom_site_fract_x
_atom_site_fract_y
_atom_site_fract_z
N1 N 1.0355(3) -0.0338(3) 0.35209(15)
N2 N 0.9289(3) 0.0301(3) 0.33542(16)
N3 N 0.8830(4) 0.0821(4) 0.37973(17)
C1 C 1.1032(6) -0.0411(6) 0.4161(3)
H1 H 1.079537 0.031669 0.438815
C2 C 1.0490(8) -0.1502(7) 0.4466(3)
H2 H 0.954431 -0.143289 0.443521
H3 H 1.086785 -0.153975 0.490514
H4 H 1.071219 -0.223227 0.425431
C3 C 1.2478(5) -0.0437(6) 0.4200(3)
H5 H 1.274923 -0.120362 0.404098
H6 H 1.287022 -0.034071 0.463406
H7 H 1.276244 0.021753 0.395055
C4 C 1.0794(4) -0.1006(3) 0.30135(18)
H8 H 1.160314 -0.144507 0.318388
C5 C 1.1117(4) -0.0183(4) 0.2497(3)
H9 H 1.032271 0.021001 0.229962
H10 H 1.149285 -0.065527 0.218590
H11 H 1.174268 0.042391 0.267208
C6 C 0.9802(4) -0.1915(3) 0.2747(2)
H12 H 0.959924 -0.244836 0.307812
H13 H 1.014993 -0.238489 0.242690
H14 H 0.900950 -0.150272 0.256153
C7 C 0.7575(10) 0.1308(8) 0.3601(5)
H15 H 0.728994 0.134206 0.316695
C8 C 0.6786(8) 0.1709(7) 0.3968(4)
C9 C 0.5959(9) 0.2105(8) 0.4330(4)
H16 H 0.529228 0.157593 0.441775
C10 C 0.6000(14) 0.3369(9) 0.4620(7)
H17 H 0.516549 0.378389 0.449000
H18 H 0.612986 0.330559 0.507912
C11 C 0.7063(14) 0.4055(12) 0.4417(8)
H19 H 0.696355 0.406698 0.396225
H20 H 0.789323 0.368088 0.457987
H21 H 0.704398 0.487613 0.457413
N4 N 0.5177(3) 0.7640(3) 0.33067(16)
N5 N 0.4052(3) 0.7086(2) 0.31417(15)
N6 N 0.3649(3) 0.6477(3) 0.35687(16)
C20 C 0.6031(6) 0.7379(6) 0.3913(3)
H36 H 0.557332 0.676738 0.413843
C21 C 0.6178(8) 0.8487(7) 0.4312(4)
H37 H 0.662591 0.910806 0.410437
H38 H 0.668633 0.829570 0.471430
H39 H 0.531851 0.877731 0.437693
C22 C 0.7341(7) 0.6858(7) 0.3825(3)
H40 H 0.721144 0.611313 0.358599
H41 H 0.784250 0.669196 0.423164
H42 H 0.781364 0.743239 0.359942
C23 C 0.5713(11) 0.8378(9) 0.2838(5)
H43 H 0.656577 0.872621 0.302275
C24 C 0.588(2) 0.7666(19) 0.2262(8)
H44 H 0.653242 0.704122 0.236855
H45 H 0.616154 0.820090 0.194898
H46 H 0.504927 0.729635 0.209407
C25 C 0.4716(10) 0.9371(7) 0.2697(8)
H47 H 0.388532 0.902528 0.251161
H48 H 0.501753 0.993983 0.240489
H49 H 0.460202 0.978675 0.308251
C26 C 0.2410(7) 0.6013(5) 0.3369(4)
H50 H 0.207925 0.607942 0.293980
C27 C 0.1679(5) 0.5496(5) 0.3733(3)
C28 C 0.0905(7) 0.5005(6) 0.4077(4)
H51 H 0.030694 0.552725 0.423411
C29 C 0.084(2) 0.3745(12) 0.4255(10)
H52 H -0.001217 0.341402 0.406690
H53 H 0.087787 0.369266 0.471194
C30 C 0.1901(8) 0.2995(6) 0.4056(4)
H54 H 0.173436 0.286677 0.360581
H55 H 0.193181 0.222062 0.426957
H56 H 0.273394 0.340709 0.416301
C12? C 1.059(3) -0.071(2) 0.4184(6)
H22? H 0.973237 -0.059032 0.433119
C13? C 1.095(4) -0.2037(19) 0.4361(14)
H23? H 1.015576 -0.251026 0.434863
H24? H 1.143775 -0.206383 0.478100
H25? H 1.148697 -0.236695 0.406484
C14? C 1.151(3) 0.007(2) 0.4615(13)
H26? H 1.213579 -0.043192 0.487377
H27? H 1.100866 0.054039 0.488193
H28? H 1.196958 0.061918 0.436864
C15? C 0.7941(12) 0.1779(9) 0.3522(7)
H29? H 0.770272 0.181169 0.308441
C16? C 0.7485(9) 0.2571(9) 0.3870(5)
C17? C 0.7003(15) 0.3358(12) 0.4213(7)
H30? H 0.731409 0.415747 0.425387
C18? C 0.589(2) 0.2902(16) 0.4548(11)
H31? H 0.525572 0.240064 0.428146
H32? H 0.619700 0.248701 0.494412
C19? C 0.540(2) 0.4165(14) 0.4640(9)
H33? H 0.520530 0.456102 0.423550
H34? H 0.607198 0.461893 0.490377
H35? H 0.461440 0.412745 0.483976
C31? C 0.5332(19) 0.8251(15) 0.3898(6)
H57? H 0.475762 0.787076 0.417545
C32? C 0.534(3) 0.9562(16) 0.3988(11)
H58? H 0.615371 0.989518 0.388890
H59? H 0.524730 0.974412 0.442161
H60? H 0.460779 0.991757 0.371374
C33? C 0.664(2) 0.767(2) 0.4002(11)
H61? H 0.653817 0.680235 0.397662
H62? H 0.708336 0.789371 0.441381
H63? H 0.715174 0.794621 0.368306
C34? C 0.537(2) 0.835(2) 0.2750(9)
H64? H 0.608194 0.890962 0.292368
C35? C 0.609(4) 0.749(3) 0.2368(17)
H65? H 0.674887 0.705441 0.264607
H66? H 0.650701 0.794806 0.206594
H67? H 0.546890 0.692430 0.214877
C36? C 0.4502(16) 0.9181(12) 0.2298(15)
H68? H 0.383222 0.870298 0.204783
H69? H 0.503499 0.958650 0.202354
H70? H 0.408786 0.977863 0.253583
C37? C 0.2689(18) 0.5599(11) 0.3301(9)
H71? H 0.232094 0.568146 0.287747
C38? C 0.2319(12) 0.4709(10) 0.3620(6)
C39? C 0.1857(15) 0.3777(12) 0.3873(8)
H72? H 0.215450 0.303760 0.372966
C40? C 0.095(5) 0.364(3) 0.435(2)
H73? H 0.142881 0.344153 0.475934
H74? H 0.030431 0.299772 0.422303
C41? C 0.028(2) 0.4840(17) 0.4362(10)
H75? H -0.003181 0.510041 0.393674
H76? H 0.089331 0.543009 0.456526
H77? H -0.046076 0.476784 0.459507
loop_
_geom_bond_atom_site_label_1
_geom_bond_atom_site_label_2
_geom_bond_site_symmetry_1
_geom_bond_site_symmetry_2
N1 N2 1_555 1_555
N2 N3 1_555 1_555
N3 C7 1_555 1_555
C1 N1 1_555 1_555
H1 C1 1_555 1_555
C2 C1 1_555 1_555
H2 C2 1_555 1_555
H3 C2 1_555 1_555
H4 C2 1_555 1_555
C3 C1 1_555 1_555
H5 C3 1_555 1_555
H6 C3 1_555 1_555
H7 C3 1_555 1_555
C4 N1 1_555 1_555
H8 C4 1_555 1_555
C5 C4 1_555 1_555
H9 C5 1_555 1_555
H10 C5 1_555 1_555
H11 C5 1_555 1_555
C6 C4 1_555 1_555
H12 C6 1_555 1_555
H13 C6 1_555 1_555
H14 C6 1_555 1_555
C7 H15 1_555 1_555
C8 C7 1_555 1_555
C9 C8 1_555 1_555
H16 C9 1_555 1_555
C10 C9 1_555 1_555
H17 C10 1_555 1_555
H18 C10 1_555 1_555
C11 C10 1_555 1_555
H19 C11 1_555 1_555
H20 C11 1_555 1_555
H21 C11 1_555 1_555
N4 N5 1_555 1_555
N5 N6 1_555 1_555
N6 C26 1_555 1_555
C20 N4 1_555 1_555
H36 C20 1_555 1_555
C21 C20 1_555 1_555
H37 C21 1_555 1_555
H38 C21 1_555 1_555
H39 C21 1_555 1_555
C22 C20 1_555 1_555
H40 C22 1_555 1_555
H41 C22 1_555 1_555
H42 C22 1_555 1_555
C23 N4 1_555 1_555
H43 C23 1_555 1_555
C24 C23 1_555 1_555
H44 C24 1_555 1_555
H45 C24 1_555 1_555
H46 C24 1_555 1_555
C25 C23 1_555 1_555
H47 C25 1_555 1_555
H48 C25 1_555 1_555
H49 C25 1_555 1_555
C26 H50 1_555 1_555
C27 C26 1_555 1_555
C28 C27 1_555 1_555
H51 C28 1_555 1_555
C29 C28 1_555 1_555
H52 C29 1_555 1_555
H53 C29 1_555 1_555
C30 C29 1_555 1_555
H54 C30 1_555 1_555
H55 C30 1_555 1_555
H56 C30 1_555 1_555

#END
