
#######################################################################
#
#                 Cambridge Crystallographic Data Centre
#                                CCDC 
#
#######################################################################
#
# If this CIF has been generated from an entry in the Cambridge 
# Structural Database, then it will include bibliographic, chemical, 
# crystal, experimental, refinement or atomic coordinate data resulting 
# from the CCDC's data processing and validation procedures.
#
#######################################################################

data_DASKAM
_chemical_formula_moiety         'C17 H29 N3'
_chemical_name_systematic        N,N-dicyclohexyl-5-ethyl-1H-pyrazol-1-amine
_symmetry_cell_setting           orthorhombic
_symmetry_space_group_name_H-M   'P b c a'
_symmetry_Int_Tables_number      61
_space_group_name_Hall           '-P 2ac 2ab'
loop_
_symmetry_equiv_pos_site_id
_symmetry_equiv_pos_as_xyz
1 x,y,z
2 1/2-x,-y,1/2+z
3 -x,1/2+y,1/2-z
4 1/2+x,1/2-y,-z
5 -x,-y,-z
6 1/2+x,y,1/2-z
7 x,1/2-y,1/2+z
8 1/2-x,1/2+y,z
_cell_length_a                   10.5227(3)
_cell_length_b                   17.2158(6)
_cell_length_c                   17.9834(6)
_cell_angle_alpha                90
_cell_angle_beta                 90
_cell_angle_gamma                90
_cell_volume                     3257.81
_exptl_crystal_colour            colorless
_exptl_crystal_description       plate
_cell_formula_units_Z            8
loop_
_atom_site_label
_atom_site_type_symbol
_atom_site_fract_x
_atom_site_fract_y
_atom_site_fract_z
N1 N 0.38051(9) 0.04949(6) 0.39448(6)
N2 N 0.45440(10) 0.09913(6) 0.34991(6)
N3 N 0.40122(10) 0.14733(7) 0.29862(6)
C1 C 0.30306(11) 0.09303(8) 0.44968(7)
H1 H 0.2740(15) 0.0547(10) 0.4837(9)
C2 C 0.38693(13) 0.14817(9) 0.49461(8)
H2 H 0.4193(16) 0.1884(10) 0.4614(9)
H3 H 0.4608(16) 0.1184(11) 0.5147(9)
C3 C 0.31128(15) 0.18470(9) 0.55850(8)
H4 H 0.3667(18) 0.2200(12) 0.5891(10)
H5 H 0.2874(17) 0.1438(12) 0.5941(10)
C4 C 0.19238(17) 0.22593(10) 0.53037(10)
H6 H 0.1463(19) 0.2464(13) 0.5725(11)
H7 H 0.2188(19) 0.2698(13) 0.4970(12)
C5 C 0.11059(15) 0.17095(11) 0.48452(10)
H8 H 0.0337(19) 0.1984(12) 0.4640(11)
H9 H 0.0800(19) 0.1281(12) 0.5182(11)
C6 C 0.18593(13) 0.13585(9) 0.41994(8)
H10 H 0.1290(17) 0.0999(12) 0.3925(10)
H11 H 0.2148(17) 0.1762(12) 0.3864(10)
C7 C 0.30920(11) -0.00623(7) 0.34691(7)
H12 H 0.2498(15) 0.0201(9) 0.3159(8)
C8 C 0.23570(13) -0.06382(8) 0.39524(8)
H13 H 0.1724(17) -0.0365(11) 0.4266(10)
H14 H 0.2954(17) -0.0886(11) 0.4281(10)
C9 C 0.16721(14) -0.12448(9) 0.34744(9)
H15 H 0.1252(17) -0.1599(11) 0.3796(10)
H16 H 0.1019(18) -0.0990(11) 0.3190(10)
C10 C 0.25819(16) -0.16685(9) 0.29589(10)
H17 H 0.3187(19) -0.1963(12) 0.3272(11)
H18 H 0.2120(19) -0.2034(12) 0.2650(11)
C11 C 0.33118(15) -0.10885(9) 0.24816(9)
H19 H 0.267(2) -0.0804(13) 0.2140(12)
H20 H 0.3908(18) -0.1363(12) 0.2167(11)
C12 C 0.40171(13) -0.05001(8) 0.29641(8)
H21 H 0.4669(17) -0.0773(11) 0.3293(10)
H22 H 0.4459(17) -0.0138(11) 0.2648(10)
C13 C 0.50141(13) 0.17730(9) 0.26378(8)
H23 H 0.4915(17) 0.2135(11) 0.2234(10)
C14 C 0.61698(12) 0.14888(8) 0.29134(8)
H24 H 0.6997(16) 0.1593(10) 0.2740(9)
C15 C 0.58347(11) 0.09785(8) 0.34688(7)
C16 C 0.66218(12) 0.04751(9) 0.39650(8)
H25 H 0.6470(18) -0.0064(12) 0.3830(11)
H26 H 0.6319(16) 0.0531(11) 0.4478(11)
C17 C 0.80357(13) 0.06604(10) 0.39172(9)
H27 H 0.8351(17) 0.0609(12) 0.3408(11)
H28 H 0.8535(18) 0.0308(12) 0.4228(10)
H29 H 0.819(2) 0.1188(14) 0.4091(11)
loop_
_geom_bond_atom_site_label_1
_geom_bond_atom_site_label_2
_geom_bond_site_symmetry_1
_geom_bond_site_symmetry_2
N1 N2 1_555 1_555
N2 N3 1_555 1_555
N3 C13 1_555 1_555
C1 N1 1_555 1_555
H1 C1 1_555 1_555
C2 C1 1_555 1_555
H2 C2 1_555 1_555
H3 C2 1_555 1_555
C3 C2 1_555 1_555
H4 C3 1_555 1_555
H5 C3 1_555 1_555
C4 C3 1_555 1_555
H6 C4 1_555 1_555
H7 C4 1_555 1_555
C5 C4 1_555 1_555
H8 C5 1_555 1_555
H9 C5 1_555 1_555
C6 C1 1_555 1_555
H10 C6 1_555 1_555
H11 C6 1_555 1_555
C7 N1 1_555 1_555
H12 C7 1_555 1_555
C8 C7 1_555 1_555
H13 C8 1_555 1_555
H14 C8 1_555 1_555
C9 C8 1_555 1_555
H15 C9 1_555 1_555
H16 C9 1_555 1_555
C10 C9 1_555 1_555
H17 C10 1_555 1_555
H18 C10 1_555 1_555
C11 C10 1_555 1_555
H19 C11 1_555 1_555
H20 C11 1_555 1_555
C12 C7 1_555 1_555
H21 C12 1_555 1_555
H22 C12 1_555 1_555
C13 H23 1_555 1_555
C14 C13 1_555 1_555
H24 C14 1_555 1_555
C15 N2 1_555 1_555
C16 C15 1_555 1_555
H25 C16 1_555 1_555
H26 C16 1_555 1_555
C17 C16 1_555 1_555
H27 C17 1_555 1_555
H28 C17 1_555 1_555
H29 C17 1_555 1_555
C5 C6 1_555 1_555
C11 C12 1_555 1_555
C14 C15 1_555 1_555

#END
