
#######################################################################
#
#                 Cambridge Crystallographic Data Centre
#                                CCDC 
#
#######################################################################
#
# If this CIF has been generated from an entry in the Cambridge 
# Structural Database, then it will include bibliographic, chemical, 
# crystal, experimental, refinement or atomic coordinate data resulting 
# from the CCDC's data processing and validation procedures.
#
#######################################################################

data_DASLER
_chemical_compound_source        'Daldinia eschscholzii IFB-TL01'
_chemical_name_common            'Dalescone D'
_chemical_formula_moiety         'C31 H22 O7'
_chemical_name_systematic        
4,11,15-trihydroxy-2-(1-hydroxyethyl)-12a,13-dihydrobenzo[3,4]naphtho[1',2':1,7]cyclohepta[1,2-a]acenaphthylene-3,10,14(12H)-trione
_symmetry_cell_setting           monoclinic
_symmetry_space_group_name_H-M   'P 21/n'
_symmetry_Int_Tables_number      14
_space_group_name_Hall           '-P 2yn'
loop_
_symmetry_equiv_pos_site_id
_symmetry_equiv_pos_as_xyz
1 x,y,z
2 1/2-x,1/2+y,1/2-z
3 -x,-y,-z
4 1/2+x,1/2-y,1/2+z
_cell_length_a                   10.4921(1)
_cell_length_b                   20.6042(1)
_cell_length_c                   11.3125(1)
_cell_angle_alpha                90
_cell_angle_beta                 111.917(1)
_cell_angle_gamma                90
_cell_volume                     2268.8
_exptl_crystal_colour            brown
_exptl_crystal_description       plate
_cell_formula_units_Z            4
loop_
_atom_site_label
_atom_site_type_symbol
_atom_site_fract_x
_atom_site_fract_y
_atom_site_fract_z
O1 O 0.21036(11) 0.09852(6) 0.56709(11)
O2 O 0.35245(11) 0.03356(6) 0.28606(11)
O3 O 0.55849(13) 0.01580(7) 0.20351(11)
O4 O 1.36182(12) 0.12832(7) 0.94350(14)
O5 O 1.26109(12) 0.22256(7) 0.78991(14)
O6 O 1.04696(12) 0.26645(6) 0.94074(12)
O7 O 0.98988(12) 0.23475(6) 1.13527(11)
C1 C 0.16007(17) 0.13218(10) 0.35370(17)
H1 H 0.0618 0.1288 0.3376
H2 H 0.1753 0.1229 0.2750
H3 H 0.1922 0.1762 0.3827
C2 C 0.23935(15) 0.08341(8) 0.45606(15)
H4 H 0.2053 0.0387 0.4264
C3 C 0.39219(15) 0.08659(8) 0.48385(14)
C4 C 0.43562(15) 0.06033(8) 0.38288(14)
C5 C 0.58042(15) 0.06694(7) 0.40101(14)
C6 C 0.63778(16) 0.04511(8) 0.31364(15)
C7 C 0.77869(16) 0.05186(8) 0.34288(15)
H5 H 0.8175 0.0362 0.2847
C8 C 0.86434(15) 0.08148(8) 0.45711(15)
H6 H 0.9600 0.0860 0.4758
C9 C 0.80757(15) 0.10399(7) 0.54200(14)
C10 C 0.66789(15) 0.09561(7) 0.51234(14)
C11 C 0.62667(15) 0.11773(7) 0.61348(14)
C12 C 0.48251(15) 0.11322(7) 0.59273(14)
H7 H 0.4506 0.1290 0.6557
C13 C 0.74120(14) 0.14040(7) 0.71090(14)
C14 C 0.86538(14) 0.14070(7) 0.66784(14)
C15 C 0.99060(14) 0.10691(7) 0.76408(13)
C16 C 0.97239(15) 0.04713(8) 0.81245(14)
H8 H 0.8835 0.0282 0.7854
C17 C 1.08439(17) 0.01492(8) 0.90066(15)
H9 H 1.0714 -0.0265 0.9313
C18 C 1.21431(17) 0.04224(9) 0.94443(16)
H10 H 1.2894 0.0200 1.0057
C19 C 1.23436(16) 0.10230(8) 0.89821(16)
C20 C 1.12322(15) 0.13456(8) 0.80463(15)
C21 C 1.14905(16) 0.19476(8) 0.74751(16)
C22 C 1.03483(16) 0.21903(8) 0.63037(16)
H11 H 1.0356 0.1944 0.5555
H12 H 1.0516 0.2653 0.6172
C23 C 0.89314(15) 0.21252(7) 0.63848(14)
H13 H 0.8237 0.2234 0.5524
C24 C 0.87353(16) 0.26155(8) 0.73304(16)
H14 H 0.9133 0.3037 0.7224
H15 H 0.7739 0.2682 0.7110
C25 C 0.93763(16) 0.24169(7) 0.87109(15)
C26 C 0.86160(15) 0.19677(7) 0.92200(14)
C27 C 0.88666(16) 0.19932(8) 1.05360(15)
C28 C 0.80165(16) 0.16605(8) 1.10285(15)
H16 H 0.8168 0.1693 1.1908
C29 C 0.69542(16) 0.12846(8) 1.02304(15)
H17 H 0.6359 0.1069 1.0562
C30 C 0.67442(15) 0.12167(8) 0.89451(15)
H18 H 0.6040 0.0937 0.8423
C31 C 0.75535(14) 0.15545(7) 0.84166(14)
H19 H 0.241(3) 0.0642(16) 0.623(3)
H20 H 0.4783(15) 0.0174(14) 0.205(3)
H21 H 1.3332(16) 0.1980(9) 0.8375(17)
H22 H 1.032(2) 0.2497(13) 1.089(2)
loop_
_geom_bond_atom_site_label_1
_geom_bond_atom_site_label_2
_geom_bond_site_symmetry_1
_geom_bond_site_symmetry_2
O1 C2 1_555 1_555
O2 C4 1_555 1_555
O3 C6 1_555 1_555
O4 C19 1_555 1_555
O5 C21 1_555 1_555
O6 C25 1_555 1_555
O7 C27 1_555 1_555
C1 H1 1_555 1_555
H2 C1 1_555 1_555
H3 C1 1_555 1_555
C2 C1 1_555 1_555
H4 C2 1_555 1_555
C3 C2 1_555 1_555
C4 C3 1_555 1_555
C5 C4 1_555 1_555
C6 C5 1_555 1_555
C7 C6 1_555 1_555
H5 C7 1_555 1_555
C8 C7 1_555 1_555
H6 C8 1_555 1_555
C9 C8 1_555 1_555
C10 C5 1_555 1_555
C11 C10 1_555 1_555
C12 C3 1_555 1_555
H7 C12 1_555 1_555
C13 C11 1_555 1_555
C14 C9 1_555 1_555
C15 C14 1_555 1_555
C16 C15 1_555 1_555
H8 C16 1_555 1_555
C17 C16 1_555 1_555
H9 C17 1_555 1_555
C18 C17 1_555 1_555
H10 C18 1_555 1_555
C19 C18 1_555 1_555
C20 C15 1_555 1_555
C21 C20 1_555 1_555
C22 C21 1_555 1_555
H11 C22 1_555 1_555
H12 C22 1_555 1_555
C23 C14 1_555 1_555
H13 C23 1_555 1_555
C24 C23 1_555 1_555
H14 C24 1_555 1_555
H15 C24 1_555 1_555
C25 C24 1_555 1_555
C26 C25 1_555 1_555
C27 C26 1_555 1_555
C28 C27 1_555 1_555
H16 C28 1_555 1_555
C29 C28 1_555 1_555
H17 C29 1_555 1_555
C30 C29 1_555 1_555
H18 C30 1_555 1_555
C31 C13 1_555 1_555
H19 O1 1_555 1_555
H20 O3 1_555 1_555
H21 O5 1_555 1_555
H22 O7 1_555 1_555
C9 C10 1_555 1_555
C11 C12 1_555 1_555
C13 C14 1_555 1_555
C19 C20 1_555 1_555
C22 C23 1_555 1_555
C26 C31 1_555 1_555
C30 C31 1_555 1_555

#END
