
#######################################################################
#
#                 Cambridge Crystallographic Data Centre
#                                CCDC 
#
#######################################################################
#
# If this CIF has been generated from an entry in the Cambridge 
# Structural Database, then it will include bibliographic, chemical, 
# crystal, experimental, refinement or atomic coordinate data resulting 
# from the CCDC's data processing and validation procedures.
#
#######################################################################

data_DASNAN
_chemical_formula_moiety         'C124 H120 O36 S12,2.5(C3 H6 O1)'
_chemical_name_systematic        
'4,5,6,10,11,12,16,17,18,22,23,24-dodecakis(p-Tolylsulfonato)-2,8,14,20-tetrapropylcalix[4]arene acetone solvate'
_symmetry_cell_setting           orthorhombic
_symmetry_space_group_name_H-M   'P 21 21 21'
_symmetry_Int_Tables_number      19
_space_group_name_Hall           'P 2ac 2ab'
loop_
_symmetry_equiv_pos_site_id
_symmetry_equiv_pos_as_xyz
1 x,y,z
2 1/2-x,-y,1/2+z
3 1/2+x,1/2-y,-z
4 -x,1/2+y,1/2-z
_cell_length_a                   18.3932(4)
_cell_length_b                   26.2232(7)
_cell_length_c                   27.7855(5)
_cell_angle_alpha                90
_cell_angle_beta                 90
_cell_angle_gamma                90
_cell_volume                     13401.7
_exptl_crystal_colour            colorless
_exptl_crystal_description       block
_chemical_melting_point          275deg.C
_cell_formula_units_Z            4
loop_
_atom_site_label
_atom_site_type_symbol
_atom_site_fract_x
_atom_site_fract_y
_atom_site_fract_z
C1 C 0.7272(4) 0.8728(2) 0.6645(2)
C2 C 0.7167(3) 0.9073(2) 0.6268(2)
H1 H 0.6776 0.9017 0.6051
C3 C 0.7619(3) 0.9503(2) 0.6195(2)
C4 C 0.8163(3) 0.9577(2) 0.6534(2)
C5 C 0.8241(4) 0.9265(3) 0.6931(2)
C6 C 0.7820(4) 0.8837(2) 0.6970(2)
C7 C 0.7542(3) 0.9847(2) 0.5762(2)
H2 H 0.7899 1.0131 0.5806
C8 C 0.6789(3) 1.0095(2) 0.5726(2)
C9 C 0.6214(3) 0.9884(2) 0.5450(2)
H3 H 0.6289 0.9559 0.5308
C10 C 0.5550(3) 1.0120(2) 0.5372(2)
C11 C 0.5445(3) 1.0600(2) 0.5596(2)
C12 C 0.5966(4) 1.0791(2) 0.5905(2)
C13 C 0.6642(3) 1.0555(2) 0.5952(2)
C14 C 0.4956(3) 0.9887(3) 0.5056(2)
H4 H 0.4717 1.0174 0.4879
C15 C 0.4368(3) 0.9626(2) 0.5356(2)
C16 C 0.4524(3) 0.9203(2) 0.5644(2)
H5 H 0.5020 0.9116 0.5692
C17 C 0.4002(4) 0.8903(2) 0.5863(2)
C18 C 0.3295(4) 0.9051(2) 0.5806(2)
C19 C 0.3106(3) 0.9492(3) 0.5559(2)
C20 C 0.3645(3) 0.9761(2) 0.5322(2)
C21 C 0.4191(3) 0.8405(2) 0.6115(2)
H6 H 0.3734 0.8298 0.6282
C22 C 0.4748(3) 0.8460(2) 0.6509(2)
C23 C 0.5493(4) 0.8373(2) 0.6421(2)
H7 H 0.5644 0.8318 0.6098
C24 C 0.6022(4) 0.8364(2) 0.6783(2)
C25 C 0.5798(4) 0.8464(2) 0.7246(2)
C26 C 0.5093(4) 0.8619(2) 0.7342(2)
C27 C 0.4575(3) 0.8587(2) 0.6975(2)
C28 C 0.6820(3) 0.8245(2) 0.6678(2)
H8 H 0.7008 0.8048 0.6959
C29 C 0.7766(4) 0.9563(3) 0.5297(2)
H9 H 0.8226 0.9376 0.5355
H10 H 0.7387 0.9309 0.5215
C30 C 0.7869(4) 0.9929(3) 0.4868(2)
H11 H 0.7422 1.0134 0.4824
H12 H 0.8275 1.0166 0.4938
C31 C 0.8032(5) 0.9640(3) 0.4406(3)
H13 H 0.7623 0.9415 0.4329
H14 H 0.8474 0.9436 0.4449
H15 H 0.8104 0.9883 0.4143
C32 C 0.5244(4) 0.9514(3) 0.4677(2)
H16 H 0.4826 0.9345 0.4518
H17 H 0.5532 0.9246 0.4841
C33 C 0.5719(4) 0.9768(3) 0.4292(2)
H18 H 0.5432 1.0033 0.4124
H19 H 0.6138 0.9938 0.4449
C34 C 0.5996(5) 0.9381(3) 0.3927(3)
H20 H 0.5585 0.9241 0.3746
H21 H 0.6250 0.9105 0.4095
H22 H 0.6332 0.9549 0.3704
C35 C 0.4355(4) 0.7977(3) 0.5754(2)
H23 H 0.3982 0.7985 0.5497
H24 H 0.4831 0.8047 0.5601
C36 C 0.4372(4) 0.7451(3) 0.5968(3)
H25 H 0.3919 0.7394 0.6153
H26 H 0.4785 0.7428 0.6196
C37 C 0.4448(5) 0.7034(3) 0.5590(3)
H27 H 0.4884 0.7097 0.5396
H28 H 0.4018 0.7035 0.5381
H29 H 0.4489 0.6702 0.5749
C38 C 0.6952(4) 0.7914(2) 0.6229(2)
H30 H 0.6739 0.8090 0.5947
H31 H 0.7482 0.7888 0.6175
C39 C 0.6640(4) 0.7382(3) 0.6255(2)
H32 H 0.6132 0.7403 0.6371
H33 H 0.6921 0.7182 0.6493
C40 C 0.6648(5) 0.7100(3) 0.5778(3)
H34 H 0.7148 0.7079 0.5658
H35 H 0.6347 0.7284 0.5544
H36 H 0.6453 0.6755 0.5823
C41 C 0.8185(4) 0.9453(3) 0.8146(2)
C42 C 0.7450(4) 0.9385(3) 0.8170(3)
H37 H 0.7143 0.9516 0.7925
C43 C 0.7164(5) 0.9130(3) 0.8545(3)
H38 H 0.6653 0.9076 0.8555
C44 C 0.7594(5) 0.8943(3) 0.8920(3)
C45 C 0.8335(5) 0.9030(3) 0.8893(3)
H39 H 0.8639 0.8917 0.9147
C46 C 0.8637(4) 0.9273(3) 0.8513(2)
H40 H 0.9148 0.9320 0.8496
C47 C 0.7222(6) 0.8659(4) 0.9329(3)
H41 H 0.6955 0.8367 0.9199
H42 H 0.6883 0.8889 0.9493
H43 H 0.7589 0.8539 0.9558
C48 C 0.9882(3) 1.0413(3) 0.6483(2)
C49 C 0.9888(4) 1.0874(3) 0.6249(3)
H44 H 0.9657 1.0917 0.5946
C50 C 1.0252(5) 1.1281(3) 0.6477(3)
H45 H 1.0271 1.1601 0.6319
C51 C 1.0578(5) 1.1232(3) 0.6918(3)
C52 C 1.0547(5) 1.0764(3) 0.7136(3)
H46 H 1.0771 1.0721 0.7441
C53 C 1.0200(4) 1.0354(3) 0.6927(3)
H47 H 1.0182 1.0034 0.7088
C54 C 1.0969(8) 1.1667(4) 0.7141(5)
H48 H 1.0714 1.1985 0.7066
H49 H 1.1465 1.1683 0.7013
H50 H 1.0987 1.1620 0.7491
C55 C 0.7989(4) 1.1508(3) 0.6569(2)
C56 C 0.8330(4) 1.1211(3) 0.6913(2)
H51 H 0.8365 1.0852 0.6878
C57 C 0.8619(4) 1.1458(3) 0.7310(3)
H52 H 0.8864 1.1261 0.7547
C58 C 0.8564(5) 1.1973(3) 0.7374(3)
C59 C 0.8206(5) 1.2253(3) 0.7034(3)
H53 H 0.8150 1.2610 0.7080
C60 C 0.7920(5) 1.2029(3) 0.6622(3)
H54 H 0.7683 1.2229 0.6384
C61 C 0.8866(6) 1.2221(4) 0.7827(3)
H55 H 0.8498 1.2209 0.8082
H56 H 0.8992 1.2577 0.7759
H57 H 0.9301 1.2036 0.7932
C62 C 0.5923(4) 1.1199(3) 0.7105(2)
C63 C 0.6048(4) 1.0766(3) 0.7374(3)
H58 H 0.5819 1.0452 0.7296
C64 C 0.6527(5) 1.0808(3) 0.7767(3)
H59 H 0.6643 1.0511 0.7947
C65 C 0.6834(4) 1.1268(3) 0.7897(3)
C66 C 0.6691(4) 1.1686(3) 0.7612(2)
H60 H 0.6908 1.2004 0.7693
C67 C 0.6248(4) 1.1661(3) 0.7216(2)
H61 H 0.6165 1.1954 0.7022
C68 C 0.7317(5) 1.1313(4) 0.8336(3)
H62 H 0.7121 1.1574 0.8552
H63 H 0.7809 1.1409 0.8236
H64 H 0.7333 1.0985 0.8504
C69 C 0.5246(4) 1.1808(3) 0.5290(2)
C70 C 0.5927(4) 1.1913(3) 0.5096(3)
H65 H 0.6135 1.1692 0.4862
C71 C 0.6298(5) 1.2341(3) 0.5247(3)
H66 H 0.6751 1.2418 0.5101
C72 C 0.6043(6) 1.2660(3) 0.5597(3)
C73 C 0.5362(6) 1.2550(3) 0.5792(3)
H67 H 0.5173 1.2768 0.6035
C74 C 0.4945(5) 1.2128(3) 0.5643(3)
H68 H 0.4478 1.2063 0.5776
C75 C 0.6471(7) 1.3108(4) 0.5752(4)
H69 H 0.6164 1.3333 0.5947
H70 H 0.6643 1.3293 0.5468
H71 H 0.6888 1.2995 0.5943
C76 C 0.2318(4) 1.0057(3) 0.4472(2)
C77 C 0.2016(4) 0.9589(3) 0.4392(2)
H72 H 0.2323 0.9301 0.4350
C78 C 0.1266(5) 0.9528(3) 0.4371(3)
H73 H 0.1063 0.9203 0.4302
C79 C 0.0815(4) 0.9943(3) 0.4450(2)
C80 C 0.1136(4) 1.0409(3) 0.4519(3)
H74 H 0.0837 1.0702 0.4556
C81 C 0.1888(4) 1.0467(3) 0.4538(3)
H75 H 0.2096 1.0793 0.4597
C82 C 0.0004(4) 0.9880(4) 0.4444(3)
H76 H -0.0121 0.9559 0.4282
H77 H -0.0217 1.0166 0.4270
H78 H -0.0179 0.9873 0.4775
C83 C 0.2175(4) 1.0546(3) 0.5888(2)
C84 C 0.1672(4) 1.0892(3) 0.5722(3)
H79 H 0.1209 1.0777 0.5616
C85 C 0.1838(5) 1.1406(3) 0.5709(3)
H80 H 0.1489 1.1639 0.5587
C86 C 0.2487(4) 1.1585(3) 0.5868(3)
C87 C 0.2995(4) 1.1241(3) 0.6034(3)
H81 H 0.3454 1.1363 0.6141
C88 C 0.2857(4) 1.0721(3) 0.6050(2)
H82 H 0.3213 1.0489 0.6166
C89 C 0.2657(6) 1.2149(3) 0.5836(3)
H83 H 0.2203 1.2342 0.5807
H84 H 0.2963 1.2213 0.5554
H85 H 0.2915 1.2256 0.6127
C90 C 0.1451(4) 0.8408(3) 0.5727(2)
C91 C 0.1082(4) 0.8156(3) 0.6083(2)
H86 H 0.1337 0.7968 0.6322
C92 C 0.0330(4) 0.8182(3) 0.6090(3)
H87 H 0.0071 0.8010 0.6337
C93 C -0.0054(4) 0.8453(3) 0.5745(2)
C94 C 0.0333(4) 0.8713(3) 0.5399(3)
H88 H 0.0083 0.8908 0.5163
C95 C 0.1089(4) 0.8691(3) 0.5395(3)
H89 H 0.1353 0.8875 0.5158
C96 C -0.0869(4) 0.8452(3) 0.5735(3)
H90 H -0.1045 0.8102 0.5696
H91 H -0.1040 0.8660 0.5465
H92 H -0.1056 0.8593 0.6037
C97 C 0.2657(4) 0.8641(3) 0.7547(2)
C98 C 0.2183(4) 0.8880(3) 0.7233(2)
H93 H 0.2235 0.8837 0.6895
C99 C 0.1632(4) 0.9186(3) 0.7416(3)
H94 H 0.1309 0.9354 0.7202
C100 C 0.1547(4) 0.9248(3) 0.7904(3)
C101 C 0.2029(4) 0.8998(3) 0.8214(3)
H95 H 0.1969 0.9030 0.8552
C102 C 0.2583(4) 0.8709(3) 0.8037(2)
H96 H 0.2920 0.8555 0.8251
C103 C 0.0955(5) 0.9580(4) 0.8111(3)
H97 H 0.0618 0.9680 0.7854
H98 H 0.1172 0.9886 0.8254
H99 H 0.0690 0.9391 0.8359
C104 C 0.4300(4) 0.9681(3) 0.7829(2)
C105 C 0.4262(4) 0.9893(3) 0.7372(2)
H100 H 0.4653 0.9854 0.7152
C106 C 0.3643(4) 1.0163(3) 0.7241(3)
H101 H 0.3611 1.0306 0.6928
C107 C 0.3085(4) 1.0223(3) 0.7551(3)
C108 C 0.3125(4) 1.0015(3) 0.8007(3)
H102 H 0.2735 1.0064 0.8226
C109 C 0.3730(4) 0.9735(3) 0.8149(2)
H103 H 0.3751 0.9583 0.8459
C110 C 0.2406(5) 1.0513(4) 0.7403(3)
H104 H 0.2103 1.0295 0.7199
H105 H 0.2546 1.0819 0.7223
H106 H 0.2132 1.0612 0.7690
C111 C 0.6072(4) 0.7414(3) 0.7645(2)
C112 C 0.5364(4) 0.7342(3) 0.7465(3)
H107 H 0.4988 0.7576 0.7542
C113 C 0.5222(4) 0.6920(3) 0.7172(3)
H108 H 0.4754 0.6884 0.7032
C114 C 0.5756(4) 0.6547(3) 0.7081(3)
C115 C 0.6430(5) 0.6625(3) 0.7283(3)
H109 H 0.6799 0.6377 0.7232
C116 C 0.6598(4) 0.7059(3) 0.7565(3)
H110 H 0.7071 0.7102 0.7696
C117 C 0.5581(6) 0.6106(3) 0.6773(3)
H111 H 0.5350 0.5840 0.6967
H112 H 0.6029 0.5972 0.6630
H113 H 0.5248 0.6213 0.6517
C118 C 0.9096(4) 0.8103(3) 0.7754(2)
C119 C 0.8898(4) 0.7954(3) 0.8207(3)
H114 H 0.8413 0.7851 0.8273
C120 C 0.9431(5) 0.7958(3) 0.8579(3)
H115 H 0.9299 0.7844 0.8892
C121 C 1.0127(4) 0.8119(3) 0.8500(3)
C122 C 1.0289(5) 0.8278(4) 0.8034(3)
H116 H 1.0767 0.8396 0.7969
C123 C 0.9799(4) 0.8275(3) 0.7666(3)
H117 H 0.9936 0.8387 0.7354
C124 C 1.0677(5) 0.8098(4) 0.8900(3)
H118 H 1.0740 0.8439 0.9037
H119 H 1.1143 0.7977 0.8773
H120 H 1.0506 0.7864 0.9151
O1 O 0.8641(2) 1.00016(16) 0.64836(14)
O2 O 0.8781(2) 0.93728(17) 0.72725(15)
O3 O 0.7951(2) 0.85106(16) 0.73653(14)
O4 O 0.4796(2) 1.08632(16) 0.55340(14)
O5 O 0.5809(2) 1.12323(16) 0.61607(14)
O6 O 0.7163(2) 1.07867(16) 0.62593(14)
O7 O 0.2721(2) 0.87579(17) 0.59990(13)
O8 O 0.2386(2) 0.96380(17) 0.55034(14)
O9 O 0.3448(2) 1.01885(17) 0.50461(14)
O10 O 0.6312(2) 0.84239(16) 0.76215(14)
O11 O 0.4875(2) 0.87583(17) 0.78055(14)
O12 O 0.3848(2) 0.87064(16) 0.70859(15)
O13 O 0.9693(2) 0.94231(18) 0.64093(17)
O14 O 0.9331(2) 0.9963(2) 0.57216(16)
O15 O 0.9285(3) 0.9975(2) 0.78186(17)
O16 O 0.8063(3) 1.01355(19) 0.74886(16)
O17 O 0.8878(3) 0.81290(19) 0.68356(16)
O18 O 0.8096(3) 0.75862(18) 0.73317(19)
O19 O 0.5099(3) 1.10588(18) 0.46907(15)
O20 O 0.3998(3) 1.1397(2) 0.50975(18)
O21 O 0.4963(3) 1.0679(2) 0.66158(16)
O22 O 0.4856(3) 1.1611(2) 0.66324(16)
O23 O 0.8250(3) 1.09853(18) 0.57805(16)
O24 O 0.7221(3) 1.15792(18) 0.57725(17)
O25 O 0.2580(3) 0.78436(19) 0.5875(2)
O26 O 0.2597(3) 0.8424(2) 0.51864(18)
O27 O 0.1224(3) 0.9841(2) 0.5835(2)
O28 O 0.2277(3) 0.97287(19) 0.63825(16)
O29 O 0.3593(3) 0.9661(2) 0.43204(17)
O30 O 0.3436(3) 1.0601(2) 0.42876(18)
O31 O 0.5669(4) 0.8039(2) 0.83113(17)
O32 O 0.6979(3) 0.7918(2) 0.81872(17)
O33 O 0.5686(3) 0.95058(18) 0.77464(18)
O34 O 0.5080(3) 0.9264(2) 0.85058(16)
O35 O 0.3073(3) 0.79565(18) 0.69340(17)
O36 O 0.3730(3) 0.80172(18) 0.76996(17)
S1 S 0.94213(9) 0.98937(7) 0.62288(6)
S2 S 0.85911(11) 0.97980(7) 0.76798(6)
S3 S 0.85069(10) 0.80406(7) 0.72762(7)
S4 S 0.47507(10) 1.12753(7) 0.50994(6)
S5 S 0.52931(10) 1.11686(8) 0.66314(6)
S6 S 0.76647(10) 1.12269(7) 0.60333(6)
S7 S 0.23879(10) 0.83129(8) 0.56598(7)
S8 S 0.19690(10) 0.99142(8) 0.59503(7)
S9 S 0.32568(10) 1.01223(9) 0.44865(6)
S10 S 0.62632(12) 0.79484(8) 0.79998(6)
S11 S 0.50679(11) 0.93245(7) 0.79971(6)
S12 S 0.33458(10) 0.82580(7) 0.73219(7)
O37 O 1.0470(12) 1.1716(8) 0.8624(7)
C125 C 1.1597(10) 1.1369(7) 0.8521(7)
H121 H 1.1428 1.1022 0.8451
H122 H 1.2026 1.1353 0.8731
H123 H 1.1726 1.1541 0.8220
C126 C 1.1105(17) 1.1611(11) 0.8728(11)
C127 C 1.1182(15) 1.1799(10) 0.9163(10)
H124 H 1.1061 1.2164 0.9159
H125 H 1.1686 1.1755 0.9269
H126 H 1.0855 1.1621 0.9385
O38 O 0.6269(3) 0.85471(19) 0.52186(17)
C128 C 0.6489(5) 0.8279(3) 0.4898(3)
C129 C 0.7290(5) 0.8195(3) 0.4821(4)
H127 H 0.7450 0.7900 0.5009
H128 H 0.7558 0.8498 0.4925
H129 H 0.7382 0.8132 0.4479
C130 C 0.5978(6) 0.8005(4) 0.4567(4)
H130 H 0.5498 0.8168 0.4580
H131 H 0.5935 0.7648 0.4667
H132 H 0.6165 0.8021 0.4237
O39 O 0.5009(5) 1.2986(4) 0.4505(3)
C131 C 0.4708(7) 1.3581(5) 0.5019(4)
H133 H 0.5223 1.3650 0.4959
H134 H 0.4630 1.3534 0.5365
H135 H 0.4415 1.3869 0.4905
C132 C 0.4509(7) 1.3156(5) 0.4784(4)
C133 C 0.3872(6) 1.2888(4) 0.4865(4)
H136 H 0.3905 1.2552 0.4711
H137 H 0.3461 1.3077 0.4729
H138 H 0.3800 1.2844 0.5212
loop_
_geom_bond_atom_site_label_1
_geom_bond_atom_site_label_2
_geom_bond_site_symmetry_1
_geom_bond_site_symmetry_2
C1 C2 1_555 1_555
C2 H1 1_555 1_555
C3 C2 1_555 1_555
C4 C3 1_555 1_555
C5 C4 1_555 1_555
C6 C1 1_555 1_555
C7 C3 1_555 1_555
H2 C7 1_555 1_555
C8 C7 1_555 1_555
C9 C8 1_555 1_555
H3 C9 1_555 1_555
C10 C9 1_555 1_555
C11 C10 1_555 1_555
C12 C11 1_555 1_555
C13 C8 1_555 1_555
C14 C10 1_555 1_555
H4 C14 1_555 1_555
C15 C14 1_555 1_555
C16 C15 1_555 1_555
H5 C16 1_555 1_555
C17 C16 1_555 1_555
C18 C17 1_555 1_555
C19 C18 1_555 1_555
C20 C15 1_555 1_555
C21 C17 1_555 1_555
H6 C21 1_555 1_555
C22 C21 1_555 1_555
C23 C22 1_555 1_555
H7 C23 1_555 1_555
C24 C23 1_555 1_555
C25 C24 1_555 1_555
C26 C25 1_555 1_555
C27 C22 1_555 1_555
C28 C1 1_555 1_555
H8 C28 1_555 1_555
C29 C7 1_555 1_555
H9 C29 1_555 1_555
H10 C29 1_555 1_555
C30 C29 1_555 1_555
H11 C30 1_555 1_555
H12 C30 1_555 1_555
C31 C30 1_555 1_555
H13 C31 1_555 1_555
H14 C31 1_555 1_555
H15 C31 1_555 1_555
C32 C14 1_555 1_555
H16 C32 1_555 1_555
H17 C32 1_555 1_555
C33 C32 1_555 1_555
H18 C33 1_555 1_555
H19 C33 1_555 1_555
C34 C33 1_555 1_555
H20 C34 1_555 1_555
H21 C34 1_555 1_555
H22 C34 1_555 1_555
C35 C21 1_555 1_555
H23 C35 1_555 1_555
H24 C35 1_555 1_555
C36 C35 1_555 1_555
H25 C36 1_555 1_555
H26 C36 1_555 1_555
C37 C36 1_555 1_555
H27 C37 1_555 1_555
H28 C37 1_555 1_555
H29 C37 1_555 1_555
C38 C28 1_555 1_555
H30 C38 1_555 1_555
H31 C38 1_555 1_555
C39 C38 1_555 1_555
H32 C39 1_555 1_555
H33 C39 1_555 1_555
C40 C39 1_555 1_555
H34 C40 1_555 1_555
H35 C40 1_555 1_555
H36 C40 1_555 1_555
C41 C42 1_555 1_555
C42 H37 1_555 1_555
C43 C42 1_555 1_555
H38 C43 1_555 1_555
C44 C43 1_555 1_555
C45 C44 1_555 1_555
H39 C45 1_555 1_555
C46 C41 1_555 1_555
H40 C46 1_555 1_555
C47 C44 1_555 1_555
H41 C47 1_555 1_555
H42 C47 1_555 1_555
H43 C47 1_555 1_555
C48 C49 1_555 1_555
C49 H44 1_555 1_555
C50 C49 1_555 1_555
H45 C50 1_555 1_555
C51 C50 1_555 1_555
C52 C51 1_555 1_555
H46 C52 1_555 1_555
C53 C48 1_555 1_555
H47 C53 1_555 1_555
C54 C51 1_555 1_555
H48 C54 1_555 1_555
H49 C54 1_555 1_555
H50 C54 1_555 1_555
C55 C56 1_555 1_555
C56 H51 1_555 1_555
C57 C56 1_555 1_555
H52 C57 1_555 1_555
C58 C57 1_555 1_555
C59 C58 1_555 1_555
H53 C59 1_555 1_555
C60 C55 1_555 1_555
H54 C60 1_555 1_555
C61 C58 1_555 1_555
H55 C61 1_555 1_555
H56 C61 1_555 1_555
H57 C61 1_555 1_555
C62 C63 1_555 1_555
C63 H58 1_555 1_555
C64 C63 1_555 1_555
H59 C64 1_555 1_555
C65 C64 1_555 1_555
C66 C65 1_555 1_555
H60 C66 1_555 1_555
C67 C62 1_555 1_555
H61 C67 1_555 1_555
C68 C65 1_555 1_555
H62 C68 1_555 1_555
H63 C68 1_555 1_555
H64 C68 1_555 1_555
C69 C70 1_555 1_555
C70 H65 1_555 1_555
C71 C70 1_555 1_555
H66 C71 1_555 1_555
C72 C71 1_555 1_555
C73 C72 1_555 1_555
H67 C73 1_555 1_555
C74 C69 1_555 1_555
H68 C74 1_555 1_555
C75 C72 1_555 1_555
H69 C75 1_555 1_555
H70 C75 1_555 1_555
H71 C75 1_555 1_555
C76 C77 1_555 1_555
C77 H72 1_555 1_555
C78 C77 1_555 1_555
H73 C78 1_555 1_555
C79 C78 1_555 1_555
C80 C79 1_555 1_555
H74 C80 1_555 1_555
C81 C76 1_555 1_555
H75 C81 1_555 1_555
C82 C79 1_555 1_555
H76 C82 1_555 1_555
H77 C82 1_555 1_555
H78 C82 1_555 1_555
C83 C84 1_555 1_555
C84 H79 1_555 1_555
C85 C84 1_555 1_555
H80 C85 1_555 1_555
C86 C85 1_555 1_555
C87 C86 1_555 1_555
H81 C87 1_555 1_555
C88 C83 1_555 1_555
H82 C88 1_555 1_555
C89 C86 1_555 1_555
H83 C89 1_555 1_555
H84 C89 1_555 1_555
H85 C89 1_555 1_555
C90 C91 1_555 1_555
C91 H86 1_555 1_555
C92 C91 1_555 1_555
H87 C92 1_555 1_555
C93 C92 1_555 1_555
C94 C93 1_555 1_555
H88 C94 1_555 1_555
C95 C90 1_555 1_555
H89 C95 1_555 1_555
C96 C93 1_555 1_555
H90 C96 1_555 1_555
H91 C96 1_555 1_555
H92 C96 1_555 1_555
C97 C98 1_555 1_555
C98 H93 1_555 1_555
C99 C98 1_555 1_555
H94 C99 1_555 1_555
C100 C99 1_555 1_555
C101 C100 1_555 1_555
H95 C101 1_555 1_555
C102 C97 1_555 1_555
H96 C102 1_555 1_555
C103 C100 1_555 1_555
H97 C103 1_555 1_555
H98 C103 1_555 1_555
H99 C103 1_555 1_555
C104 C105 1_555 1_555
C105 H100 1_555 1_555
C106 C105 1_555 1_555
H101 C106 1_555 1_555
C107 C106 1_555 1_555
C108 C107 1_555 1_555
H102 C108 1_555 1_555
C109 C104 1_555 1_555
H103 C109 1_555 1_555
C110 C107 1_555 1_555
H104 C110 1_555 1_555
H105 C110 1_555 1_555
H106 C110 1_555 1_555
C111 C112 1_555 1_555
C112 H107 1_555 1_555
C113 C112 1_555 1_555
H108 C113 1_555 1_555
C114 C113 1_555 1_555
C115 C114 1_555 1_555
H109 C115 1_555 1_555
C116 C111 1_555 1_555
H110 C116 1_555 1_555
C117 C114 1_555 1_555
H111 C117 1_555 1_555
H112 C117 1_555 1_555
H113 C117 1_555 1_555
C118 C119 1_555 1_555
C119 H114 1_555 1_555
C120 C119 1_555 1_555
H115 C120 1_555 1_555
C121 C120 1_555 1_555
C122 C121 1_555 1_555
H116 C122 1_555 1_555
C123 C118 1_555 1_555
H117 C123 1_555 1_555
C124 C121 1_555 1_555
H118 C124 1_555 1_555
H119 C124 1_555 1_555
H120 C124 1_555 1_555
O1 C4 1_555 1_555
O2 C5 1_555 1_555
O3 C6 1_555 1_555
O4 C11 1_555 1_555
O5 C12 1_555 1_555
O6 C13 1_555 1_555
O7 C18 1_555 1_555
O8 C19 1_555 1_555
O9 C20 1_555 1_555
O10 C25 1_555 1_555
O11 C26 1_555 1_555
O12 C27 1_555 1_555
O13 S1 1_555 1_555
O14 S1 1_555 1_555
O15 S2 1_555 1_555
O16 S2 1_555 1_555
O17 S3 1_555 1_555
O18 S3 1_555 1_555
O19 S4 1_555 1_555
O20 S4 1_555 1_555
O21 S5 1_555 1_555
O22 S5 1_555 1_555
O23 S6 1_555 1_555
O24 S6 1_555 1_555
O25 S7 1_555 1_555
O26 S7 1_555 1_555
O27 S8 1_555 1_555
O28 S8 1_555 1_555
O29 S9 1_555 1_555
O30 S9 1_555 1_555
O31 S10 1_555 1_555
O32 S10 1_555 1_555
O33 S11 1_555 1_555
O34 S11 1_555 1_555
O35 S12 1_555 1_555
O36 S12 1_555 1_555
S1 C48 1_555 1_555
S2 C41 1_555 1_555
S3 C118 1_555 1_555
S4 C69 1_555 1_555
S5 C62 1_555 1_555
S6 C55 1_555 1_555
S7 C90 1_555 1_555
S8 C83 1_555 1_555
S9 C76 1_555 1_555
S10 C111 1_555 1_555
S11 C104 1_555 1_555
S12 C97 1_555 1_555
O37 C126 1_555 1_555
C125 H121 1_555 1_555
H122 C125 1_555 1_555
H123 C125 1_555 1_555
C126 C125 1_555 1_555
C127 C126 1_555 1_555
H124 C127 1_555 1_555
H125 C127 1_555 1_555
H126 C127 1_555 1_555
O38 C128 1_555 1_555
C128 C129 1_555 1_555
C129 H127 1_555 1_555
H128 C129 1_555 1_555
H129 C129 1_555 1_555
C130 C128 1_555 1_555
H130 C130 1_555 1_555
H131 C130 1_555 1_555
H132 C130 1_555 1_555
O39 C132 1_555 1_555
C131 H133 1_555 1_555
H134 C131 1_555 1_555
H135 C131 1_555 1_555
C132 C131 1_555 1_555
C133 C132 1_555 1_555
H136 C133 1_555 1_555
H137 C133 1_555 1_555
H138 C133 1_555 1_555
C5 C6 1_555 1_555
C12 C13 1_555 1_555
C19 C20 1_555 1_555
C24 C28 1_555 1_555
C26 C27 1_555 1_555
C45 C46 1_555 1_555
C52 C53 1_555 1_555
C59 C60 1_555 1_555
C66 C67 1_555 1_555
C73 C74 1_555 1_555
C80 C81 1_555 1_555
C87 C88 1_555 1_555
C94 C95 1_555 1_555
C101 C102 1_555 1_555
C108 C109 1_555 1_555
C115 C116 1_555 1_555
C122 C123 1_555 1_555
O1 S1 1_555 1_555
O2 S2 1_555 1_555
O3 S3 1_555 1_555
O4 S4 1_555 1_555
O5 S5 1_555 1_555
O6 S6 1_555 1_555
O7 S7 1_555 1_555
O8 S8 1_555 1_555
O9 S9 1_555 1_555
O10 S10 1_555 1_555
O11 S11 1_555 1_555
O12 S12 1_555 1_555

#END
