
#######################################################################
#
#                 Cambridge Crystallographic Data Centre
#                                CCDC 
#
#######################################################################
#
# If this CIF has been generated from an entry in the Cambridge 
# Structural Database, then it will include bibliographic, chemical, 
# crystal, experimental, refinement or atomic coordinate data resulting 
# from the CCDC's data processing and validation procedures.
#
#######################################################################

data_DATDIM
_chemical_formula_moiety         'C20 H22 N8 O2 S2'
_chemical_name_systematic        
1,2-bis(2-(1-phenyl-1H-tetrazol-5-ylsulfanyl)ethoxy)ethane
_symmetry_cell_setting           orthorhombic
_symmetry_space_group_name_H-M   'P b c a'
_symmetry_Int_Tables_number      61
_space_group_name_Hall           '-P 2ac 2ab'
loop_
_symmetry_equiv_pos_site_id
_symmetry_equiv_pos_as_xyz
1 x,y,z
2 1/2-x,-y,1/2+z
3 -x,1/2+y,1/2-z
4 1/2+x,1/2-y,-z
5 -x,-y,-z
6 1/2+x,y,1/2-z
7 x,1/2-y,1/2+z
8 1/2-x,1/2+y,z
_cell_length_a                   14.929(5)
_cell_length_b                   8.2223(16)
_cell_length_c                   18.737(6)
_cell_angle_alpha                90
_cell_angle_beta                 90
_cell_angle_gamma                90
_cell_volume                     2299.98
_exptl_crystal_colour            colorless
_exptl_crystal_description       block
_chemical_melting_point          '397-398 K'
_cell_formula_units_Z            4
_exptl_crystal_recrystallization_method ethanol
loop_
_atom_site_label
_atom_site_type_symbol
_atom_site_fract_x
_atom_site_fract_y
_atom_site_fract_z
S1 S 0.17416(4) 0.21193(10) 0.25982(3)
O1 O 0.06129(14) 0.3699(3) 0.44061(10)
N1 N 0.32132(16) 0.3016(3) 0.33927(12)
N2 N 0.41120(17) 0.3097(3) 0.32744(13)
N3 N 0.43159(15) 0.2681(3) 0.26312(13)
N4 N 0.35254(14) 0.2300(3) 0.22993(11)
C1 C 0.0163(2) 0.5141(4) 0.46286(16)
H1 H -0.0336 0.5370 0.4314
H2 H 0.0571 0.6059 0.4617
C2 C 0.0995(2) 0.3857(4) 0.37217(14)
H3 H 0.1502 0.4594 0.3737
H4 H 0.0558 0.4283 0.3388
C3 C 0.12926(19) 0.2185(3) 0.34970(13)
H5 H 0.0786 0.1449 0.3527
H6 H 0.1747 0.1803 0.3827
C4 C 0.28641(17) 0.2517(3) 0.27823(13)
C5 C 0.35038(17) 0.1762(3) 0.15739(13)
C6 C 0.2968(2) 0.2555(4) 0.10911(15)
H7 H 0.2614 0.3426 0.1234
C7 C 0.2962(3) 0.2035(5) 0.03861(17)
H8 H 0.2596 0.2549 0.0054
C8 C 0.3496(3) 0.0766(5) 0.01787(16)
H9 H 0.3498 0.0434 -0.0296
C9 C 0.4027(2) -0.0016(4) 0.06656(17)
H10 H 0.4390 -0.0873 0.0520
C10 C 0.40246(18) 0.0462(3) 0.13699(14)
H11 H 0.4371 -0.0087 0.1704
S1D S -0.17416(4) 0.78807(10) 0.74018(3)
O1D O -0.06129(14) 0.6301(3) 0.55939(10)
N1D N -0.32132(16) 0.6984(3) 0.66073(12)
N2D N -0.41120(17) 0.6903(3) 0.67256(13)
N3D N -0.43159(15) 0.7319(3) 0.73688(13)
N4D N -0.35254(14) 0.7700(3) 0.77007(11)
C1D C -0.0163(2) 0.4859(4) 0.53714(16)
H1D H 0.0336 0.4630 0.5686
H2D H -0.0571 0.3941 0.5383
C2D C -0.0995(2) 0.6143(4) 0.62783(14)
H3D H -0.1502 0.5406 0.6263
H4D H -0.0558 0.5717 0.6612
C3D C -0.12926(19) 0.7815(3) 0.65030(13)
H5D H -0.0786 0.8551 0.6473
H6D H -0.1747 0.8197 0.6173
C4D C -0.28641(17) 0.7483(3) 0.72177(13)
C5D C -0.35038(17) 0.8238(3) 0.84261(13)
C6D C -0.2968(2) 0.7445(4) 0.89089(15)
H7D H -0.2614 0.6574 0.8766
C7D C -0.2962(3) 0.7965(5) 0.96139(17)
H8D H -0.2596 0.7451 0.9946
C8D C -0.3496(3) 0.9234(5) 0.98213(16)
H9D H -0.3498 0.9566 1.0296
C9D C -0.4027(2) 1.0016(4) 0.93344(17)
H10D H -0.4390 1.0873 0.9480
C10D C -0.40246(18) 0.9538(3) 0.86301(14)
H11D H -0.4371 1.0087 0.8296
loop_
_geom_bond_atom_site_label_1
_geom_bond_atom_site_label_2
_geom_bond_site_symmetry_1
_geom_bond_site_symmetry_2
S1 C3 1_555 1_555
O1 C1 1_555 1_555
N1 N2 1_555 1_555
N2 N3 1_555 1_555
N3 N4 1_555 1_555
N4 C4 1_555 1_555
C1 H1 1_555 1_555
H2 C1 1_555 1_555
C2 O1 1_555 1_555
H3 C2 1_555 1_555
H4 C2 1_555 1_555
C3 C2 1_555 1_555
H5 C3 1_555 1_555
H6 C3 1_555 1_555
C4 S1 1_555 1_555
C5 N4 1_555 1_555
C6 C5 1_555 1_555
H7 C6 1_555 1_555
C7 C6 1_555 1_555
H8 C7 1_555 1_555
C8 C7 1_555 1_555
H9 C8 1_555 1_555
C9 C8 1_555 1_555
H10 C9 1_555 1_555
C10 C5 1_555 1_555
H11 C10 1_555 1_555
S1D C3D 1_555 1_555
O1D C1D 1_555 1_555
N1D N2D 1_555 1_555
N2D N3D 1_555 1_555
N3D N4D 1_555 1_555
N4D C4D 1_555 1_555
C1D C1 1_555 1_555
H1D C1D 1_555 1_555
H2D C1D 1_555 1_555
C2D O1D 1_555 1_555
H3D C2D 1_555 1_555
H4D C2D 1_555 1_555
C3D C2D 1_555 1_555
H5D C3D 1_555 1_555
H6D C3D 1_555 1_555
C4D S1D 1_555 1_555
C5D N4D 1_555 1_555
C6D C5D 1_555 1_555
H7D C6D 1_555 1_555
C7D C6D 1_555 1_555
H8D C7D 1_555 1_555
C8D C7D 1_555 1_555
H9D C8D 1_555 1_555
C9D C8D 1_555 1_555
H10D C9D 1_555 1_555
C10D C5D 1_555 1_555
H11D C10D 1_555 1_555
N1 C4 1_555 1_555
C9 C10 1_555 1_555
N1D C4D 1_555 1_555
C9D C10D 1_555 1_555

#END
