
#######################################################################
#
#                 Cambridge Crystallographic Data Centre
#                                CCDC 
#
#######################################################################
#
# If this CIF has been generated from an entry in the Cambridge 
# Structural Database, then it will include bibliographic, chemical, 
# crystal, experimental, refinement or atomic coordinate data resulting 
# from the CCDC's data processing and validation procedures.
#
#######################################################################

data_DATHAK
_chemical_formula_moiety         'C25 H21 Br1 N2 O3 S1'
_chemical_name_systematic        
6-bromo-9-methyl-1-[(4-methylphenyl)sulfonyl]-4-phenyl-1,3,4,9-tetrahydro-2H-pyrido[2,3-b]indol-2-one
_symmetry_cell_setting           monoclinic
_symmetry_space_group_name_H-M   'P 21/c'
_symmetry_Int_Tables_number      14
_space_group_name_Hall           '-P 2ybc'
loop_
_symmetry_equiv_pos_site_id
_symmetry_equiv_pos_as_xyz
1 x,y,z
2 -x,1/2+y,1/2-z
3 -x,-y,-z
4 x,1/2-y,1/2+z
_cell_length_a                   8.729(4)
_cell_length_b                   9.996(4)
_cell_length_c                   25.710(11)
_cell_angle_alpha                90
_cell_angle_beta                 98.720(7)
_cell_angle_gamma                90
_cell_volume                     2217.4
_exptl_crystal_colour            colorless
_exptl_crystal_description       Plate
_cell_formula_units_Z            4
loop_
_atom_site_label
_atom_site_type_symbol
_atom_site_fract_x
_atom_site_fract_y
_atom_site_fract_z
Br1 Br 0.26100(16) 0.40225(10) 0.32335(4)
S1 S 1.0834(3) -0.1336(3) 0.36520(8)
O1 O 0.8978(7) -0.3706(7) 0.3363(2)
O2 O 1.1044(8) 0.0044(9) 0.3768(2)
O3 O 1.1776(7) -0.1973(11) 0.3324(2)
N1 N 0.8340(9) 0.0870(8) 0.3041(2)
N2 N 0.8949(7) -0.1420(8) 0.3338(2)
C1 C 0.5942(10) 0.1039(8) 0.3263(3)
C2 C 0.4551(10) 0.1713(8) 0.3314(3)
H1 H 0.3757 0.1288 0.3454
C3 C 0.4418(12) 0.3023(8) 0.3150(3)
C4 C 0.5563(15) 0.3688(9) 0.2920(3)
H2 H 0.5416 0.4573 0.2813
C5 C 0.6907(14) 0.3027(9) 0.2854(3)
H3 H 0.7662 0.3444 0.2692
C6 C 0.7100(11) 0.1720(8) 0.3037(3)
C7 C 0.7998(9) -0.0282(8) 0.3281(3)
C8 C 0.6528(9) -0.0261(8) 0.3408(3)
C9 C 0.9657(10) 0.1127(12) 0.2753(3)
H4 H 0.9292 0.1589 0.2431
H5 H 1.0116 0.0292 0.2675
H6 H 1.0417 0.1667 0.2966
C10 C 0.5805(9) -0.1506(7) 0.3579(3)
H7 H 0.4691 -0.1459 0.3450
C11 C 0.6484(9) -0.2655(7) 0.3281(3)
H8 H 0.6136 -0.3499 0.3408
H9 H 0.6054 -0.2587 0.2911
C12 C 0.8210(9) -0.2696(9) 0.3326(3)
C13 C 1.096(3) -0.2295(14) 0.4233(4)
C14 C 1.0719(16) -0.1606(15) 0.4708(5)
H10 H 1.0419 -0.0713 0.4688
C15 C 1.092(2) -0.2236(19) 0.5185(7)
H11 H 1.0859 -0.1732 0.5485
C16 C 1.121(2) -0.3542(19) 0.5239(7)
C17 C 1.143(2) -0.4262(17) 0.4799(6)
H12 H 1.1677 -0.5165 0.4836
C18 C 1.1290(16) -0.3695(14) 0.4313(5)
H13 H 1.1414 -0.4226 0.4025
C19 C 1.141(3) -0.419(2) 0.5784(8)
H14 H 1.1524 -0.3505 0.6049
H15 H 1.2309 -0.4751 0.5829
H16 H 1.0509 -0.4720 0.5817
C20 C 0.6007(9) -0.1726(7) 0.4175(3)
C21 C 0.6284(13) -0.2136(11) 0.5249(4)
H17 H 0.6407 -0.2283 0.5610
C22 C 0.677(2) -0.0908(18) 0.4521(6)
H18 H 0.7209 -0.0140 0.4403
C23 C 0.5329(19) -0.3041(15) 0.4886(5)
H19 H 0.4814 -0.3757 0.5013
C24 C 0.693(2) -0.116(2) 0.5066(6)
H20 H 0.7539 -0.0591 0.5296
C25 C 0.5211(17) -0.2804(12) 0.4346(5)
H21 H 0.4611 -0.3358 0.4106
C26? C 0.603(3) -0.0608(16) 0.4504(6)
H22? H 0.5945 0.0254 0.4366
C27? C 0.619(3) -0.0826(16) 0.5045(7)
H23? H 0.6227 -0.0101 0.5273
H24? H 0.6077 -0.2291 0.5588
C28? C 0.668(3) -0.3192(19) 0.4951(7)
H25? H 0.7107 -0.3984 0.5098
C29? C 0.639(3) -0.2967(15) 0.4410(7)
H26? H 0.6454 -0.3695 0.4189
C30? C 1.214(3) -0.283(3) 0.4296(11)
H27? H 1.2621 -0.3064 0.4010
C31? C 1.088(6) -0.198(4) 0.4289(7)
C32? C 1.006(4) -0.153(3) 0.4582(11)
H28? H 0.9317 -0.0878 0.4484
C33? C 1.224(4) -0.361(4) 0.5735(14)
H29? H 1.3146 -0.3161 0.5906
H30? H 1.2466 -0.4544 0.5696
H31? H 1.1418 -0.3523 0.5943
C34? C 1.035(4) -0.211(4) 0.5093(15)
H32? H 0.9710 -0.1935 0.5345
C35? C 1.174(4) -0.301(4) 0.5203(14)
C36? C 1.256(4) -0.327(3) 0.4812(12)
H33? H 1.3460 -0.3774 0.4891
loop_
_geom_bond_atom_site_label_1
_geom_bond_atom_site_label_2
_geom_bond_site_symmetry_1
_geom_bond_site_symmetry_2
Br1 C3 1_555 1_555
S1 O2 1_555 1_555
O1 C12 1_555 1_555
O3 S1 1_555 1_555
N1 C6 1_555 1_555
N2 S1 1_555 1_555
C1 C2 1_555 1_555
C2 H1 1_555 1_555
C3 C2 1_555 1_555
C4 C3 1_555 1_555
H2 C4 1_555 1_555
C5 C4 1_555 1_555
H3 C5 1_555 1_555
C6 C1 1_555 1_555
C7 N1 1_555 1_555
C8 C1 1_555 1_555
C9 N1 1_555 1_555
H4 C9 1_555 1_555
H5 C9 1_555 1_555
H6 C9 1_555 1_555
C10 C8 1_555 1_555
H7 C10 1_555 1_555
C11 C10 1_555 1_555
H8 C11 1_555 1_555
H9 C11 1_555 1_555
C12 N2 1_555 1_555
C13 S1 1_555 1_555
C14 C13 1_555 1_555
H10 C14 1_555 1_555
C15 C14 1_555 1_555
H11 C15 1_555 1_555
C16 C15 1_555 1_555
C17 C16 1_555 1_555
H12 C17 1_555 1_555
C18 C13 1_555 1_555
H13 C18 1_555 1_555
C19 C16 1_555 1_555
H14 C19 1_555 1_555
H15 C19 1_555 1_555
H16 C19 1_555 1_555
C20 C10 1_555 1_555
C21 H17 1_555 1_555
C22 C20 1_555 1_555
H18 C22 1_555 1_555
C23 C21 1_555 1_555
H19 C23 1_555 1_555
C24 C21 1_555 1_555
H20 C24 1_555 1_555
C25 C20 1_555 1_555
H21 C25 1_555 1_555
N2 C7 1_555 1_555
C5 C6 1_555 1_555
C7 C8 1_555 1_555
C11 C12 1_555 1_555
C17 C18 1_555 1_555
C22 C24 1_555 1_555
C23 C25 1_555 1_555

#END
