
#######################################################################
#
#                 Cambridge Crystallographic Data Centre
#                                CCDC 
#
#######################################################################
#
# If this CIF has been generated from an entry in the Cambridge 
# Structural Database, then it will include bibliographic, chemical, 
# crystal, experimental, refinement or atomic coordinate data resulting 
# from the CCDC's data processing and validation procedures.
#
#######################################################################

data_DATKOB
_chemical_formula_moiety         'C26 H20 Cl2 O1'
_chemical_name_systematic        
9-(2,4-dichlorophenyl)-10-phenyl-3,4,4a,10-tetrahydroanthracen-1(2H)-one
_symmetry_cell_setting           orthorhombic
_symmetry_space_group_name_H-M   'P 21 21 21'
_symmetry_Int_Tables_number      19
_space_group_name_Hall           'P 2ac 2ab'
loop_
_symmetry_equiv_pos_site_id
_symmetry_equiv_pos_as_xyz
1 x,y,z
2 1/2-x,-y,1/2+z
3 -x,1/2+y,1/2-z
4 1/2+x,1/2-y,-z
_cell_length_a                   10.6637(14)
_cell_length_b                   10.7733(14)
_cell_length_c                   18.111(3)
_cell_angle_alpha                90
_cell_angle_beta                 90
_cell_angle_gamma                90
_cell_volume                     2080.65
_exptl_crystal_colour            colorless
_exptl_crystal_description       prismatic
_cell_formula_units_Z            4
loop_
_atom_site_label
_atom_site_type_symbol
_atom_site_fract_x
_atom_site_fract_y
_atom_site_fract_z
Cl1 Cl 0.11083(10) 0.71047(10) 0.66589(6)
Cl2 Cl 0.45063(11) 0.88671(8) 0.85629(6)
O1 O 0.2839(2) 0.6464(3) 0.95831(15)
C1 C 0.7407(3) 0.5448(3) 0.89625(18)
C2 C 0.8591(3) 0.5336(3) 0.8658(2)
H1 H 0.9220 0.4949 0.8929
C3 C 0.8859(4) 0.5778(4) 0.7969(2)
H2 H 0.9663 0.5692 0.7777
C4 C 0.7947(4) 0.6348(4) 0.7561(2)
H3 H 0.8132 0.6661 0.7095
C5 C 0.6756(4) 0.6458(3) 0.7843(2)
H4 H 0.6133 0.6826 0.7558
C6 C 0.6464(3) 0.6027(3) 0.85484(18)
C7 C 0.5195(3) 0.6169(3) 0.88672(18)
C8 C 0.5029(3) 0.6081(3) 0.96021(18)
C9 C 0.3775(3) 0.6283(3) 0.99479(18)
C10 C 0.3671(4) 0.6229(4) 1.0774(2)
H5 H 0.3095 0.6872 1.0933
H6 H 0.3307 0.5436 1.0909
C11 C 0.4877(4) 0.6384(4) 1.1185(2)
H7 H 0.4747 0.6207 1.1705
H8 H 0.5168 0.7234 1.1140
C12 C 0.5846(4) 0.5515(4) 1.08761(18)
H9 H 0.5527 0.4672 1.0886
H10 H 0.6596 0.5545 1.1178
C13 C 0.6169(3) 0.5873(3) 1.00874(17)
H11 H 0.6590 0.6679 1.0120
C14 C 0.7120(3) 0.4989(3) 0.97281(19)
H12 H 0.7899 0.5061 1.0013
C15 C 0.6748(3) 0.3627(3) 0.9746(2)
C16 C 0.7194(4) 0.2866(4) 1.0289(2)
H13 H 0.7734 0.3189 1.0643
C17 C 0.6860(5) 0.1618(4) 1.0325(3)
H14 H 0.7158 0.1127 1.0710
C18 C 0.6107(5) 0.1116(4) 0.9806(3)
H15 H 0.5902 0.0277 0.9822
C19 C 0.5651(4) 0.1855(4) 0.9255(3)
H16 H 0.5116 0.1521 0.8901
C20 C 0.5975(3) 0.3092(3) 0.9218(2)
H17 H 0.5671 0.3576 0.8833
C21 C 0.4163(3) 0.6416(3) 0.83333(18)
C22 C 0.3569(3) 0.5444(3) 0.7972(2)
H18 H 0.3814 0.4634 0.8075
C23 C 0.2631(4) 0.5641(3) 0.7466(2)
H19 H 0.2234 0.4975 0.7238
C24 C 0.2287(3) 0.6839(3) 0.73038(19)
C25 C 0.2856(3) 0.7829(3) 0.76343(19)
H20 H 0.2617 0.8637 0.7520
C26 C 0.3786(3) 0.7606(3) 0.81379(18)
loop_
_geom_bond_atom_site_label_1
_geom_bond_atom_site_label_2
_geom_bond_site_symmetry_1
_geom_bond_site_symmetry_2
Cl1 C24 1_555 1_555
Cl2 C26 1_555 1_555
O1 C9 1_555 1_555
C1 C2 1_555 1_555
C2 H1 1_555 1_555
C3 C2 1_555 1_555
H2 C3 1_555 1_555
C4 C3 1_555 1_555
H3 C4 1_555 1_555
C5 C4 1_555 1_555
H4 C5 1_555 1_555
C6 C1 1_555 1_555
C7 C6 1_555 1_555
C8 C7 1_555 1_555
C9 C8 1_555 1_555
C10 C9 1_555 1_555
H5 C10 1_555 1_555
H6 C10 1_555 1_555
C11 C10 1_555 1_555
H7 C11 1_555 1_555
H8 C11 1_555 1_555
C12 C11 1_555 1_555
H9 C12 1_555 1_555
H10 C12 1_555 1_555
C13 C8 1_555 1_555
H11 C13 1_555 1_555
C14 C1 1_555 1_555
H12 C14 1_555 1_555
C15 C14 1_555 1_555
C16 C15 1_555 1_555
H13 C16 1_555 1_555
C17 C16 1_555 1_555
H14 C17 1_555 1_555
C18 C17 1_555 1_555
H15 C18 1_555 1_555
C19 C18 1_555 1_555
H16 C19 1_555 1_555
C20 C15 1_555 1_555
H17 C20 1_555 1_555
C21 C7 1_555 1_555
C22 C21 1_555 1_555
H18 C22 1_555 1_555
C23 C22 1_555 1_555
H19 C23 1_555 1_555
C24 C23 1_555 1_555
C25 C24 1_555 1_555
H20 C25 1_555 1_555
C26 C21 1_555 1_555
C5 C6 1_555 1_555
C12 C13 1_555 1_555
C13 C14 1_555 1_555
C19 C20 1_555 1_555
C25 C26 1_555 1_555

#END
