
#######################################################################
#
#                 Cambridge Crystallographic Data Centre
#                                CCDC 
#
#######################################################################
#
# If this CIF has been generated from an entry in the Cambridge 
# Structural Database, then it will include bibliographic, chemical, 
# crystal, experimental, refinement or atomic coordinate data resulting 
# from the CCDC's data processing and validation procedures.
#
#######################################################################

data_DATKIV
_chemical_formula_moiety         'C20 H17 Br1 O1'
_chemical_name_systematic        
9-(4-bromophenyl)-3,4,4a,10-tetrahydroanthracen-1(2H)-one
_symmetry_cell_setting           monoclinic
_symmetry_space_group_name_H-M   'P 21'
_symmetry_Int_Tables_number      4
_space_group_name_Hall           'P 2yb'
loop_
_symmetry_equiv_pos_site_id
_symmetry_equiv_pos_as_xyz
1 x,y,z
2 -x,1/2+y,-z
_cell_length_a                   9.4386(11)
_cell_length_b                   11.6291(13)
_cell_length_c                   14.6798(17)
_cell_angle_alpha                90
_cell_angle_beta                 93.296(3)
_cell_angle_gamma                90
_cell_volume                     1608.63
_exptl_crystal_colour            colorless
_exptl_crystal_description       prismatic
_cell_formula_units_Z            4
loop_
_atom_site_label
_atom_site_type_symbol
_atom_site_fract_x
_atom_site_fract_y
_atom_site_fract_z
Br1 Br 0.46745(10) -0.28282(6) 0.13118(7)
O1 O 0.3913(6) 0.1384(5) 0.3329(4)
C1 C 0.1932(7) 0.3939(6) 0.0762(5)
C2 C 0.1470(9) 0.4470(8) -0.0050(6)
H1 H 0.1366 0.5266 -0.0064
C3 C 0.1165(9) 0.3855(9) -0.0828(6)
H2 H 0.0874 0.4232 -0.1365
C4 C 0.1291(10) 0.2665(8) -0.0816(5)
H3 H 0.1074 0.2237 -0.1341
C5 C 0.1742(7) 0.2129(8) -0.0018(4)
H4 H 0.1805 0.1331 -0.0006
C6 C 0.2103(7) 0.2739(6) 0.0768(5)
C7 C 0.2624(6) 0.2166(6) 0.1623(4)
C8 C 0.2552(7) 0.2715(5) 0.2429(4)
C9 C 0.1846(7) 0.3891(6) 0.2445(5)
H5 H 0.0821 0.3761 0.2359
C10 C 0.2282(9) 0.4583(6) 0.1631(6)
H6 H 0.1790 0.5315 0.1614
H7 H 0.3294 0.4734 0.1691
C11 C 0.3125(7) 0.2188(7) 0.3306(4)
C12 C 0.2764(9) 0.2747(7) 0.4186(5)
H8 H 0.3641 0.3008 0.4496
H9 H 0.2367 0.2162 0.4568
C13 C 0.1742(10) 0.3753(8) 0.4126(6)
H10 H 0.0776 0.3473 0.4037
H11 H 0.1818 0.4191 0.4689
C14 C 0.2094(9) 0.4510(7) 0.3337(6)
H12 H 0.1510 0.5196 0.3335
H13 H 0.3079 0.4745 0.3410
C15 C 0.3149(8) 0.0958(5) 0.1545(4)
C16 C 0.4404(8) 0.0706(6) 0.1182(5)
H14 H 0.4959 0.1303 0.0979
C17 C 0.4878(8) -0.0410(7) 0.1107(5)
H15 H 0.5752 -0.0567 0.0873
C18 C 0.4024(8) -0.1280(6) 0.1387(5)
C19 C 0.2745(8) -0.1072(6) 0.1727(5)
H16 H 0.2183 -0.1676 0.1911
C20 C 0.2292(8) 0.0049(6) 0.1797(5)
H17 H 0.1406 0.0201 0.2015
Br2 Br 0.91414(9) -0.30113(6) 0.35127(6)
O2 O 0.9131(7) 0.1446(5) 0.1773(4)
C21 C 0.6610(7) 0.3778(6) 0.4161(5)
C22 C 0.6169(8) 0.4305(7) 0.4953(6)
H18 H 0.5817 0.5052 0.4928
C23 C 0.6256(8) 0.3724(8) 0.5766(6)
H19 H 0.5963 0.4079 0.6291
C24 C 0.6766(9) 0.2630(8) 0.5810(5)
H20 H 0.6797 0.2235 0.6362
C25 C 0.7242(7) 0.2100(7) 0.5036(4)
H21 H 0.7602 0.1355 0.5073
C26 C 0.7181(7) 0.2676(6) 0.4212(5)
C27 C 0.7709(6) 0.2164(6) 0.3375(4)
C28 C 0.7847(7) 0.2796(6) 0.2625(5)
C29 C 0.7498(9) 0.4078(6) 0.2622(5)
H22 H 0.8354 0.4460 0.2810
C30 C 0.6390(9) 0.4352(6) 0.3247(6)
H23 H 0.5478 0.4119 0.2969
H24 H 0.6364 0.5179 0.3335
C31 C 0.8394(7) 0.2293(6) 0.1772(5)
C32 C 0.7996(9) 0.2868(6) 0.0881(5)
H25 H 0.7064 0.2610 0.0671
H26 H 0.8654 0.2620 0.0441
C33 C 0.7975(14) 0.4160(9) 0.0913(9)
H27 H 0.7665 0.4474 0.0323
H28 H 0.8911 0.4459 0.1086
C34 C 0.6926(14) 0.4465(13) 0.1630(9)
H29 H 0.6025 0.4091 0.1478
H30 H 0.6767 0.5289 0.1625
C35 C 0.8068(7) 0.0903(6) 0.3417(4)
C36 C 0.9421(7) 0.0520(6) 0.3676(5)
H31 H 1.0127 0.1055 0.3829
C37 C 0.9746(8) -0.0628(6) 0.3710(5)
H32 H 1.0660 -0.0874 0.3883
C38 C 0.8692(8) -0.1408(5) 0.3484(4)
C39 C 0.7363(8) -0.1080(6) 0.3228(5)
H33 H 0.6667 -0.1622 0.3072
C40 C 0.7054(8) 0.0085(5) 0.3201(5)
H34 H 0.6134 0.0320 0.3033
H35? H 0.8344 0.4420 0.2880
H36? H 0.7544 0.2310 0.0461
H37? H 0.8834 0.3160 0.0621
C41? C 0.695(2) 0.3916(14) 0.1036(13)
H38? H 0.6777 0.4330 0.0467
H39? H 0.6046 0.3621 0.1219
C42? C 0.754(2) 0.4710(17) 0.1742(12)
H40? H 0.6976 0.5406 0.1756
H41? H 0.8508 0.4917 0.1623
loop_
_geom_bond_atom_site_label_1
_geom_bond_atom_site_label_2
_geom_bond_site_symmetry_1
_geom_bond_site_symmetry_2
Br1 C18 1_555 1_555
O1 C11 1_555 1_555
C1 C2 1_555 1_555
C2 H1 1_555 1_555
C3 C2 1_555 1_555
H2 C3 1_555 1_555
C4 C3 1_555 1_555
H3 C4 1_555 1_555
C5 C4 1_555 1_555
H4 C5 1_555 1_555
C6 C1 1_555 1_555
C7 C6 1_555 1_555
C8 C7 1_555 1_555
C9 C8 1_555 1_555
H5 C9 1_555 1_555
C10 C1 1_555 1_555
H6 C10 1_555 1_555
H7 C10 1_555 1_555
C11 C8 1_555 1_555
C12 C11 1_555 1_555
H8 C12 1_555 1_555
H9 C12 1_555 1_555
C13 C12 1_555 1_555
H10 C13 1_555 1_555
H11 C13 1_555 1_555
C14 C9 1_555 1_555
H12 C14 1_555 1_555
H13 C14 1_555 1_555
C15 C7 1_555 1_555
C16 C15 1_555 1_555
H14 C16 1_555 1_555
C17 C16 1_555 1_555
H15 C17 1_555 1_555
C18 C17 1_555 1_555
C19 C18 1_555 1_555
H16 C19 1_555 1_555
C20 C15 1_555 1_555
H17 C20 1_555 1_555
Br2 C38 1_555 1_555
O2 C31 1_555 1_555
C21 C22 1_555 1_555
C22 H18 1_555 1_555
C23 C22 1_555 1_555
H19 C23 1_555 1_555
C24 C23 1_555 1_555
H20 C24 1_555 1_555
C25 C24 1_555 1_555
H21 C25 1_555 1_555
C26 C21 1_555 1_555
C27 C26 1_555 1_555
C28 C27 1_555 1_555
C29 C28 1_555 1_555
H22 C29 1_555 1_555
C30 C21 1_555 1_555
H23 C30 1_555 1_555
H24 C30 1_555 1_555
C31 C28 1_555 1_555
C32 C31 1_555 1_555
H25 C32 1_555 1_555
H26 C32 1_555 1_555
C33 C32 1_555 1_555
H27 C33 1_555 1_555
H28 C33 1_555 1_555
C34 C29 1_555 1_555
H29 C34 1_555 1_555
H30 C34 1_555 1_555
C35 C27 1_555 1_555
C36 C35 1_555 1_555
H31 C36 1_555 1_555
C37 C36 1_555 1_555
H32 C37 1_555 1_555
C38 C37 1_555 1_555
C39 C38 1_555 1_555
H33 C39 1_555 1_555
C40 C35 1_555 1_555
H34 C40 1_555 1_555
C5 C6 1_555 1_555
C9 C10 1_555 1_555
C13 C14 1_555 1_555
C19 C20 1_555 1_555
C25 C26 1_555 1_555
C29 C30 1_555 1_555
C33 C34 1_555 1_555
C39 C40 1_555 1_555

#END
