
#######################################################################
#
#                 Cambridge Crystallographic Data Centre
#                                CCDC 
#
#######################################################################
#
# If this CIF has been generated from an entry in the Cambridge 
# Structural Database, then it will include bibliographic, chemical, 
# crystal, experimental, refinement or atomic coordinate data resulting 
# from the CCDC's data processing and validation procedures.
#
#######################################################################

data_DATNUJ
_chemical_formula_moiety         'C26 H21 Cl1 N2 O4'
_chemical_name_systematic        
'Ethyl (4-benzoyl-1-(4-chlorophenyl)-2-phenoxy-1H-imidazol-5-yl)acetate'
_symmetry_cell_setting           triclinic
_symmetry_space_group_name_H-M   'P -1'
_symmetry_Int_Tables_number      2
_space_group_name_Hall           '-P 1'
loop_
_symmetry_equiv_pos_site_id
_symmetry_equiv_pos_as_xyz
1 x,y,z
2 -x,-y,-z
_cell_length_a                   10.432(2)
_cell_length_b                   10.4650(19)
_cell_length_c                   11.533(2)
_cell_angle_alpha                90.692(4)
_cell_angle_beta                 108.767(3)
_cell_angle_gamma                106.266(4)
_cell_volume                     1137.15
_exptl_crystal_colour            yellow
_exptl_crystal_description       block
_cell_formula_units_Z            2
loop_
_atom_site_label
_atom_site_type_symbol
_atom_site_fract_x
_atom_site_fract_y
_atom_site_fract_z
C1 C 0.4693(3) 0.6652(2) 0.5271(2)
C2 C 0.5676(3) 0.6526(3) 0.6357(3)
H1 H 0.6636 0.6791 0.6454
C3 C 0.5232(3) 0.6005(3) 0.7300(2)
H2 H 0.5890 0.5905 0.8032
C4 C 0.3813(2) 0.5633(2) 0.7157(2)
C5 C 0.2835(3) 0.5765(3) 0.6075(2)
H3 H 0.1877 0.5515 0.5985
C6 C 0.3272(3) 0.6269(3) 0.5119(3)
H4 H 0.2612 0.6349 0.4380
C7 C 0.2426(2) 0.3836(2) 0.8111(2)
C8 C 0.2197(2) 0.3829(2) 0.9215(2)
C9 C 0.3607(3) 0.5752(2) 0.9258(2)
C10 C 0.4428(3) 0.7925(2) 1.0359(2)
C11 C 0.3171(3) 0.7967(3) 1.0467(3)
H5 H 0.2324 0.7321 1.0026
C12 C 0.3186(4) 0.8989(3) 1.1244(3)
H6 H 0.2342 0.9032 1.1330
C13 C 0.4443(4) 0.9946(3) 1.1892(3)
H7 H 0.4449 1.0629 1.2418
C14 C 0.5682(4) 0.9888(3) 1.1759(3)
H8 H 0.6528 1.0541 1.2190
C15 C 0.5689(3) 0.8872(3) 1.0992(2)
H9 H 0.6533 0.8830 1.0906
C16 C 0.1266(3) 0.2716(3) 0.9578(2)
C17 C 0.0914(2) 0.2851(2) 1.0727(2)
C18 C 0.0875(3) 0.4050(3) 1.1220(2)
H10 H 0.1148 0.4833 1.0872
C19 C 0.0434(3) 0.4088(3) 1.2225(3)
H11 H 0.0393 0.4891 1.2542
C20 C 0.0054(3) 0.2936(4) 1.2757(3)
H12 H -0.0242 0.2963 1.3433
C21 C 0.0109(3) 0.1750(3) 1.2295(3)
H13 H -0.0128 0.0979 1.2669
C22 C 0.0516(3) 0.1700(3) 1.1277(3)
H14 H 0.0525 0.0886 1.0952
C23 C 0.1932(2) 0.2775(2) 0.7055(2)
H15 H 0.2095 0.1958 0.7371
H16 H 0.2496 0.3052 0.6527
C24 C 0.0392(3) 0.2482(3) 0.6298(2)
C25 C -0.1668(3) 0.0801(3) 0.5047(3)
H17 H -0.1875 0.0011 0.4489
H18 H -0.1883 0.1508 0.4556
C26 C -0.2574(3) 0.0494(3) 0.5842(3)
H19 H -0.2363 -0.0209 0.6324
H20 H -0.3556 0.0213 0.5332
H21 H -0.2384 0.1282 0.6380
Cl1 Cl 0.52175(9) 0.72949(8) 0.40591(7)
N1 N 0.3336(2) 0.5092(2) 0.81353(18)
N2 N 0.2961(2) 0.5052(2) 0.99353(19)
O1 O 0.45170(19) 0.70004(17) 0.95237(17)
O2 O 0.0739(2) 0.16425(19) 0.89226(19)
O3 O -0.01670(18) 0.12188(17) 0.57995(16)
O4 O -0.02253(19) 0.33074(19) 0.61199(19)
loop_
_geom_bond_atom_site_label_1
_geom_bond_atom_site_label_2
_geom_bond_site_symmetry_1
_geom_bond_site_symmetry_2
C1 C2 1_555 1_555
C2 H1 1_555 1_555
C3 C2 1_555 1_555
H2 C3 1_555 1_555
C4 C3 1_555 1_555
C5 C4 1_555 1_555
H3 C5 1_555 1_555
C6 C1 1_555 1_555
H4 C6 1_555 1_555
C7 C8 1_555 1_555
C8 C16 1_555 1_555
C9 N1 1_555 1_555
C10 C11 1_555 1_555
C11 H5 1_555 1_555
C12 C11 1_555 1_555
H6 C12 1_555 1_555
C13 C12 1_555 1_555
H7 C13 1_555 1_555
C14 C13 1_555 1_555
H8 C14 1_555 1_555
C15 C10 1_555 1_555
H9 C15 1_555 1_555
C16 C17 1_555 1_555
C17 C18 1_555 1_555
C18 H10 1_555 1_555
C19 C18 1_555 1_555
H11 C19 1_555 1_555
C20 C19 1_555 1_555
H12 C20 1_555 1_555
C21 C20 1_555 1_555
H13 C21 1_555 1_555
C22 C17 1_555 1_555
H14 C22 1_555 1_555
C23 C7 1_555 1_555
H15 C23 1_555 1_555
H16 C23 1_555 1_555
C24 C23 1_555 1_555
C25 H17 1_555 1_555
H18 C25 1_555 1_555
C26 C25 1_555 1_555
H19 C26 1_555 1_555
H20 C26 1_555 1_555
H21 C26 1_555 1_555
Cl1 C1 1_555 1_555
N1 C4 1_555 1_555
N2 C8 1_555 1_555
O1 C9 1_555 1_555
O2 C16 1_555 1_555
O3 C24 1_555 1_555
O4 C24 1_555 1_555
C5 C6 1_555 1_555
C7 N1 1_555 1_555
C9 N2 1_555 1_555
C10 O1 1_555 1_555
C14 C15 1_555 1_555
C21 C22 1_555 1_555
C25 O3 1_555 1_555

#END
