
#######################################################################
#
#                 Cambridge Crystallographic Data Centre
#                                CCDC 
#
#######################################################################
#
# If this CIF has been generated from an entry in the Cambridge 
# Structural Database, then it will include bibliographic, chemical, 
# crystal, experimental, refinement or atomic coordinate data resulting 
# from the CCDC's data processing and validation procedures.
#
#######################################################################

data_DATQEV
_chemical_formula_moiety         'C12 H8 Cl2 O2 S1,C10 H8 N2'
_chemical_name_systematic        
"bis(2-Hydroxy-5-chlorophenyl)sulfide 4,4'-bipyridine"
_symmetry_cell_setting           monoclinic
_symmetry_space_group_name_H-M   'P 21/c'
_symmetry_Int_Tables_number      14
_space_group_name_Hall           '-P 2ybc'
loop_
_symmetry_equiv_pos_site_id
_symmetry_equiv_pos_as_xyz
1 x,y,z
2 -x,1/2+y,1/2-z
3 -x,-y,-z
4 x,1/2-y,1/2+z
_cell_length_a                   14.923(3)
_cell_length_b                   14.369(3)
_cell_length_c                   9.6105(19)
_cell_angle_alpha                90
_cell_angle_beta                 93.77(3)
_cell_angle_gamma                90
_cell_volume                     2056.31
_exptl_crystal_colour            colorless
_exptl_crystal_description       'thin platelet'
_cell_formula_units_Z            4
_exptl_crystal_recrystallization_method ethanol
loop_
_atom_site_label
_atom_site_type_symbol
_atom_site_fract_x
_atom_site_fract_y
_atom_site_fract_z
Cl1 Cl 0.48679(8) 0.64238(10) 0.52093(16)
Cl2 Cl 0.58371(11) 0.51187(12) -0.19346(17)
S1 S 0.79648(7) 0.54278(9) 0.28080(14)
O1 O 0.8766(2) 0.6496(2) 0.4985(4)
H1 H 0.9008 0.6818 0.5606
O2 O 0.7093(2) 0.3547(2) 0.3451(4)
H2 H 0.7450 0.3885 0.3896
C1 C 0.6024(3) 0.6484(3) 0.5099(6)
C2 C 0.6512(4) 0.7029(4) 0.6068(6)
H3 H 0.6224 0.7373 0.6726
C3 C 0.7435(4) 0.7049(4) 0.6034(6)
H4 H 0.7776 0.7407 0.6678
C4 C 0.7851(3) 0.6539(3) 0.5049(6)
C5 C 0.7343(3) 0.6021(3) 0.4053(5)
C6 C 0.6422(3) 0.6013(3) 0.4089(5)
H5 H 0.6073 0.5683 0.3419
C7 C 0.7123(3) 0.4818(3) 0.1804(5)
C8 C 0.6805(3) 0.5181(3) 0.0513(5)
H6 H 0.6997 0.5763 0.0231
C9 C 0.6215(3) 0.4681(4) -0.0329(6)
C10 C 0.5918(3) 0.3831(4) 0.0093(6)
H7 H 0.5511 0.3496 -0.0486
C11 C 0.6211(3) 0.3472(3) 0.1347(6)
H8 H 0.6002 0.2895 0.1623
C12 C 0.6826(3) 0.3964(3) 0.2231(5)
N1 N 0.8155(3) 0.4017(3) 0.5730(5)
N2 N 1.0399(3) 0.3431(3) 1.2413(5)
C13 C 0.9011(3) 0.4199(4) 0.5958(6)
H9 H 0.9326 0.4407 0.5215
C14 C 0.9468(3) 0.4099(3) 0.7237(6)
H10 H 1.0078 0.4233 0.7332
C15 C 0.9034(3) 0.3802(3) 0.8384(6)
C16 C 0.8126(3) 0.3616(4) 0.8150(6)
H11 H 0.7790 0.3416 0.8874
C17 C 0.7729(3) 0.3733(5) 0.6821(7)
H12 H 0.7119 0.3604 0.6683
C18 C 0.9500(3) 0.3674(3) 0.9778(5)
C19 C 1.0424(3) 0.3730(4) 0.9973(6)
H13 H 1.0766 0.3849 0.9217
C20 C 1.0841(4) 0.3610(4) 1.1275(7)
H14 H 1.1463 0.3657 1.1373
C21 C 0.9510(3) 0.3360(3) 1.2207(6)
H15 H 0.9182 0.3219 1.2970
C22 C 0.9051(3) 0.3483(3) 1.0940(6)
H16 H 0.8428 0.3436 1.0869
loop_
_geom_bond_atom_site_label_1
_geom_bond_atom_site_label_2
_geom_bond_site_symmetry_1
_geom_bond_site_symmetry_2
Cl1 C1 1_555 1_555
Cl2 C9 1_555 1_555
S1 C5 1_555 1_555
O1 H1 1_555 1_555
O2 H2 1_555 1_555
N1 C13 1_555 1_555
N2 C20 1_555 1_555
C1 C2 1_555 1_555
C2 H3 1_555 1_555
C3 C2 1_555 1_555
H4 C3 1_555 1_555
C4 O1 1_555 1_555
C5 C4 1_555 1_555
C6 C1 1_555 1_555
H5 C6 1_555 1_555
C7 S1 1_555 1_555
C8 C7 1_555 1_555
H6 C8 1_555 1_555
C9 C8 1_555 1_555
C10 C9 1_555 1_555
H7 C10 1_555 1_555
C11 C10 1_555 1_555
H8 C11 1_555 1_555
C12 O2 1_555 1_555
C13 H9 1_555 1_555
C14 C13 1_555 1_555
H10 C14 1_555 1_555
C15 C14 1_555 1_555
C16 C15 1_555 1_555
H11 C16 1_555 1_555
C17 N1 1_555 1_555
H12 C17 1_555 1_555
C18 C15 1_555 1_555
C19 C18 1_555 1_555
H13 C19 1_555 1_555
C20 C19 1_555 1_555
H14 C20 1_555 1_555
C21 N2 1_555 1_555
H15 C21 1_555 1_555
C22 C18 1_555 1_555
H16 C22 1_555 1_555
C3 C4 1_555 1_555
C5 C6 1_555 1_555
C7 C12 1_555 1_555
C11 C12 1_555 1_555
C16 C17 1_555 1_555
C21 C22 1_555 1_555

#END
