
#######################################################################
#
#                 Cambridge Crystallographic Data Centre
#                                CCDC 
#
#######################################################################
#
# If this CIF has been generated from an entry in the Cambridge 
# Structural Database, then it will include bibliographic, chemical, 
# crystal, experimental, refinement or atomic coordinate data resulting 
# from the CCDC's data processing and validation procedures.
#
#######################################################################

data_DATRAT
_chemical_name_common            
'(2S,3S)-methyl 1-benzyl-5-oxo-2-phenyl-3-((S)-p-tolylsulfinyl)pyrrolidine-3-carboxylate'
_chemical_formula_moiety         'C26 H25 N1 O4 S1'
_chemical_name_systematic        
'Methyl 1-benzyl-3-((4-methylphenyl)sulfinyl)-5-oxo-2-phenylpyrrolidine-3-carboxylate'
_symmetry_cell_setting           monoclinic
_symmetry_space_group_name_H-M   'C c'
_symmetry_Int_Tables_number      9
_space_group_name_Hall           'C -2yc'
loop_
_symmetry_equiv_pos_site_id
_symmetry_equiv_pos_as_xyz
1 x,y,z
2 x,-y,1/2+z
3 1/2+x,1/2+y,z
4 1/2+x,1/2-y,1/2+z
_cell_length_a                   19.9932(19)
_cell_length_b                   19.5534(18)
_cell_length_c                   12.3256(12)
_cell_angle_alpha                90
_cell_angle_beta                 112.147(4)
_cell_angle_gamma                90
_cell_volume                     4463
_exptl_crystal_colour            colorless
_exptl_crystal_description       block
_cell_formula_units_Z            8
loop_
_atom_site_label
_atom_site_type_symbol
_atom_site_fract_x
_atom_site_fract_y
_atom_site_fract_z
N1 N 0.42735(6) -0.51257(6) 0.44679(9)
C1 C 0.37315(7) -0.47831(6) 0.34587(11)
H1 H 0.3804 -0.4907 0.2724
C2 C 0.30327(6) -0.51362(6) 0.34816(10)
C3 C 0.32010(7) -0.52246(7) 0.47918(11)
H2 H 0.3072 -0.4809 0.5129
H3 H 0.2941 -0.5622 0.4941
C4 C 0.40131(7) -0.53424(7) 0.52882(11)
O1 O 0.43738(5) -0.55805(6) 0.62484(9)
C5 C 0.50404(7) -0.50779(7) 0.46933(12)
H4 H 0.5320 -0.5235 0.5502
H5 H 0.5166 -0.4593 0.4636
C6 C 0.52560(7) -0.54984(7) 0.38496(12)
C7 C 0.50031(7) -0.61669(7) 0.35623(12)
H6 H 0.4680 -0.6357 0.3882
C8 C 0.52229(8) -0.65543(7) 0.28101(13)
H7 H 0.5056 -0.7011 0.2631
C9 C 0.56846(8) -0.62778(8) 0.23184(14)
H8 H 0.5825 -0.6540 0.1791
C10 C 0.59387(8) -0.56153(8) 0.26040(13)
H9 H 0.6260 -0.5426 0.2281
C11 C 0.57241(7) -0.52267(7) 0.33623(12)
H10 H 0.5898 -0.4773 0.3549
C12 C 0.37626(7) -0.40080(6) 0.36162(12)
C13 C 0.40174(7) -0.37081(7) 0.47310(12)
H11 H 0.4170 -0.3991 0.5407
C14 C 0.40496(8) -0.29997(7) 0.48588(14)
H12 H 0.4227 -0.2802 0.5619
C15 C 0.38232(8) -0.25837(7) 0.38771(15)
H13 H 0.3840 -0.2101 0.3964
C16 C 0.35717(8) -0.28731(7) 0.27659(13)
H14 H 0.3417 -0.2587 0.2093
C17 C 0.35453(7) -0.35811(7) 0.26338(12)
H15 H 0.3379 -0.3775 0.1871
S1 S 0.224243(16) -0.457140(15) 0.27969(2)
O2 O 0.21275(5) -0.44838(5) 0.15379(8)
C18 C 0.15461(6) -0.51275(6) 0.28575(11)
C19 C 0.10861(7) -0.54521(7) 0.18446(11)
H16 H 0.1182 -0.5435 0.1146
C20 C 0.04849(7) -0.58013(7) 0.18675(12)
H17 H 0.0166 -0.6018 0.1176
C21 C 0.03440(7) -0.58372(6) 0.28955(12)
C22 C 0.08186(7) -0.55179(7) 0.39034(11)
H18 H 0.0733 -0.5548 0.4610
C23 C 0.14168(7) -0.51559(7) 0.38914(11)
H19 H 0.1731 -0.4932 0.4578
C24 C -0.03155(8) -0.62066(8) 0.29081(14)
H20 H -0.0433 -0.6041 0.3566
H21 H -0.0218 -0.6699 0.2995
H22 H -0.0724 -0.6120 0.2172
C25 C 0.29147(7) -0.58419(6) 0.29006(11)
O3 O 0.28714(6) -0.63618(5) 0.33933(9)
O4 O 0.28590(5) -0.58136(5) 0.17846(8)
C26 C 0.27102(8) -0.64680(7) 0.11788(13)
H23 H 0.2677 -0.6405 0.0371
H24 H 0.2252 -0.6650 0.1173
H25 H 0.3101 -0.6790 0.1584
N2 N 0.23149(6) -0.14157(6) 0.66026(10)
C27 C 0.28141(7) -0.09605(7) 0.74811(11)
H26 H 0.2790 -0.1052 0.8264
C28 C 0.35497(7) -0.12250(6) 0.74710(11)
C29 C 0.33573(7) -0.14171(7) 0.61832(11)
H27 H 0.3394 -0.1017 0.5718
H28 H 0.3675 -0.1786 0.6103
C30 C 0.25798(7) -0.16601(7) 0.58080(11)
O5 O 0.22528(6) -0.20066(5) 0.49509(9)
C31 C 0.15504(7) -0.14530(7) 0.64126(13)
H29 H 0.1296 -0.1715 0.5686
H30 H 0.1349 -0.0984 0.6291
C32 C 0.13972(7) -0.17824(7) 0.74080(13)
C33 C 0.07792(8) -0.15900(7) 0.75999(13)
H31 H 0.0474 -0.1243 0.7128
C34 C 0.06047(8) -0.19006(9) 0.84759(16)
H32 H 0.0182 -0.1766 0.8597
C35 C 0.10481(9) -0.24065(9) 0.91724(16)
H33 H 0.0932 -0.2616 0.9775
C36 C 0.16663(9) -0.26060(8) 0.89822(16)
H34 H 0.1969 -0.2955 0.9452
C37 C 0.18400(8) -0.22961(8) 0.81076(14)
H35 H 0.2261 -0.2434 0.7984
C38 C 0.26642(7) -0.02066(7) 0.71749(12)
C39 C 0.23623(7) 0.00173(7) 0.60097(13)
H36 H 0.2233 -0.0306 0.5389
C40 C 0.22512(8) 0.07142(8) 0.57580(14)
H37 H 0.2054 0.0864 0.4967
C41 C 0.24274(8) 0.11876(8) 0.66588(15)
H38 H 0.2356 0.1661 0.6483
C42 C 0.27087(8) 0.09720(8) 0.78182(14)
H39 H 0.2818 0.1297 0.8434
C43 C 0.28302(7) 0.02781(7) 0.80757(13)
H40 H 0.3027 0.0132 0.8869
S2 S 0.424920(16) -0.054051(16) 0.79127(2)
O6 O 0.44343(5) -0.03962(5) 0.91815(9)
C44 C 0.49669(7) -0.10367(7) 0.77804(12)
C45 C 0.54250(7) -0.14115(7) 0.87378(12)
H41 H 0.5349 -0.1415 0.9454
C46 C 0.59915(7) -0.17781(7) 0.86307(12)
H42 H 0.6299 -0.2040 0.9274
C47 C 0.61156(7) -0.17667(6) 0.75879(12)
C48 C 0.56522(7) -0.13891(7) 0.66461(12)
H43 H 0.5727 -0.1386 0.5929
C49 C 0.50788(7) -0.10153(7) 0.67351(12)
H44 H 0.4772 -0.0752 0.6093
C50 C 0.67549(8) -0.21409(8) 0.75036(14)
H45 H 0.6843 -0.1977 0.6818
H46 H 0.6653 -0.2633 0.7425
H47 H 0.7183 -0.2056 0.8213
C51 C 0.38107(7) -0.18611(7) 0.82311(11)
O7 O 0.39945(6) -0.23813(5) 0.78983(9)
O8 O 0.38213(6) -0.17729(5) 0.93131(9)
C52 C 0.40826(10) -0.23620(8) 1.00834(14)
H48 H 0.4074 -0.2257 1.0855
H49 H 0.4578 -0.2468 1.0164
H50 H 0.3771 -0.2757 0.9748
loop_
_geom_bond_atom_site_label_1
_geom_bond_atom_site_label_2
_geom_bond_site_symmetry_1
_geom_bond_site_symmetry_2
N1 C1 1_555 1_555
C1 H1 1_555 1_555
C2 C1 1_555 1_555
C3 C2 1_555 1_555
H2 C3 1_555 1_555
H3 C3 1_555 1_555
C4 N1 1_555 1_555
O1 C4 1_555 1_555
C5 N1 1_555 1_555
H4 C5 1_555 1_555
H5 C5 1_555 1_555
C6 C5 1_555 1_555
C7 C6 1_555 1_555
H6 C7 1_555 1_555
C8 C7 1_555 1_555
H7 C8 1_555 1_555
C9 C8 1_555 1_555
H8 C9 1_555 1_555
C10 C9 1_555 1_555
H9 C10 1_555 1_555
C11 C6 1_555 1_555
H10 C11 1_555 1_555
C12 C1 1_555 1_555
C13 C12 1_555 1_555
H11 C13 1_555 1_555
C14 C13 1_555 1_555
H12 C14 1_555 1_555
C15 C14 1_555 1_555
H13 C15 1_555 1_555
C16 C15 1_555 1_555
H14 C16 1_555 1_555
C17 C12 1_555 1_555
H15 C17 1_555 1_555
S1 C2 1_555 1_555
O2 S1 1_555 1_555
C18 S1 1_555 1_555
C19 C18 1_555 1_555
H16 C19 1_555 1_555
C20 C19 1_555 1_555
H17 C20 1_555 1_555
C21 C20 1_555 1_555
C22 C21 1_555 1_555
H18 C22 1_555 1_555
C23 C18 1_555 1_555
H19 C23 1_555 1_555
C24 C21 1_555 1_555
H20 C24 1_555 1_555
H21 C24 1_555 1_555
H22 C24 1_555 1_555
C25 C2 1_555 1_555
O3 C25 1_555 1_555
O4 C25 1_555 1_555
C26 O4 1_555 1_555
H23 C26 1_555 1_555
H24 C26 1_555 1_555
H25 C26 1_555 1_555
N2 C27 1_555 1_555
C27 H26 1_555 1_555
C28 C27 1_555 1_555
C29 C28 1_555 1_555
H27 C29 1_555 1_555
H28 C29 1_555 1_555
C30 N2 1_555 1_555
O5 C30 1_555 1_555
C31 N2 1_555 1_555
H29 C31 1_555 1_555
H30 C31 1_555 1_555
C32 C31 1_555 1_555
C33 C32 1_555 1_555
H31 C33 1_555 1_555
C34 C33 1_555 1_555
H32 C34 1_555 1_555
C35 C34 1_555 1_555
H33 C35 1_555 1_555
C36 C35 1_555 1_555
H34 C36 1_555 1_555
C37 C32 1_555 1_555
H35 C37 1_555 1_555
C38 C27 1_555 1_555
C39 C38 1_555 1_555
H36 C39 1_555 1_555
C40 C39 1_555 1_555
H37 C40 1_555 1_555
C41 C40 1_555 1_555
H38 C41 1_555 1_555
C42 C41 1_555 1_555
H39 C42 1_555 1_555
C43 C38 1_555 1_555
H40 C43 1_555 1_555
S2 C28 1_555 1_555
O6 S2 1_555 1_555
C44 S2 1_555 1_555
C45 C44 1_555 1_555
H41 C45 1_555 1_555
C46 C45 1_555 1_555
H42 C46 1_555 1_555
C47 C46 1_555 1_555
C48 C47 1_555 1_555
H43 C48 1_555 1_555
C49 C44 1_555 1_555
H44 C49 1_555 1_555
C50 C47 1_555 1_555
H45 C50 1_555 1_555
H46 C50 1_555 1_555
H47 C50 1_555 1_555
C51 C28 1_555 1_555
O7 C51 1_555 1_555
O8 C51 1_555 1_555
C52 O8 1_555 1_555
H48 C52 1_555 1_555
H49 C52 1_555 1_555
H50 C52 1_555 1_555
C3 C4 1_555 1_555
C10 C11 1_555 1_555
C16 C17 1_555 1_555
C22 C23 1_555 1_555
C29 C30 1_555 1_555
C36 C37 1_555 1_555
C42 C43 1_555 1_555
C48 C49 1_555 1_555

#END
