
#######################################################################
#
#                 Cambridge Crystallographic Data Centre
#                                CCDC 
#
#######################################################################
#
# If this CIF has been generated from an entry in the Cambridge 
# Structural Database, then it will include bibliographic, chemical, 
# crystal, experimental, refinement or atomic coordinate data resulting 
# from the CCDC's data processing and validation procedures.
#
#######################################################################

data_DATRAS
_chemical_formula_moiety         'C21 H24 O4,C12 H10 N2'
_chemical_name_systematic        'Spirobichromane 1,2-bis(4-pyridyl)ethene'
_symmetry_cell_setting           monoclinic
_symmetry_space_group_name_H-M   'P 21/c'
_symmetry_Int_Tables_number      14
_space_group_name_Hall           '-P 2ybc'
loop_
_symmetry_equiv_pos_site_id
_symmetry_equiv_pos_as_xyz
1 x,y,z
2 -x,1/2+y,1/2-z
3 -x,-y,-z
4 x,1/2-y,1/2+z
_cell_length_a                   10.536(2)
_cell_length_b                   24.036(5)
_cell_length_c                   11.377(2)
_cell_angle_alpha                90
_cell_angle_beta                 101.09(3)
_cell_angle_gamma                90
_cell_volume                     2827.35
_exptl_crystal_colour            yellow
_exptl_crystal_description       block
_cell_formula_units_Z            4
_exptl_crystal_recrystallization_method ethanol
loop_
_atom_site_label
_atom_site_type_symbol
_atom_site_fract_x
_atom_site_fract_y
_atom_site_fract_z
O1 O 0.03288(13) 0.30820(6) 0.43871(14)
O2 O 0.00951(12) 0.21383(6) 0.47168(13)
O3 O -0.08199(16) 0.41014(7) 0.08169(15)
H1 H -0.0028 0.4118 0.0948
O4 O 0.23575(16) 0.06787(7) 0.32130(17)
H2 H 0.1616 0.0601 0.2884
C1 C 0.2345(2) 0.11428(10) 0.3895(2)
C2 C 0.3522(2) 0.13363(10) 0.4513(2)
H3 H 0.4285 0.1155 0.4449
C3 C 0.3550(2) 0.18018(10) 0.5227(2)
H4 H 0.4346 0.1926 0.5646
C4 C 0.2435(2) 0.20966(9) 0.53498(19)
C5 C 0.2499(2) 0.25939(9) 0.6186(2)
C6 C 0.3277(2) 0.24417(13) 0.7417(2)
H5 H 0.4148 0.2352 0.7349
H6 H 0.2888 0.2126 0.7725
H7 H 0.3285 0.2751 0.7951
C7 C 0.3123(2) 0.31028(10) 0.5707(3)
H8 H 0.3985 0.3011 0.5613
H9 H 0.3156 0.3406 0.6262
H10 H 0.2619 0.3210 0.4946
C8 C 0.11165(19) 0.27299(9) 0.6338(2)
H11 H 0.0901 0.2488 0.6954
H12 H 0.1105 0.3109 0.6628
C9 C 0.00744(19) 0.26736(9) 0.5238(2)
C10 C -0.12518(19) 0.27612(9) 0.5535(2)
H13 H -0.1423 0.2456 0.6041
H14 H -0.1229 0.3100 0.6002
C11 C -0.23808(19) 0.28020(9) 0.4474(2)
C12 C -0.2814(2) 0.22236(10) 0.3967(2)
H15 H -0.2116 0.2049 0.3675
H16 H -0.3544 0.2263 0.3323
H17 H -0.3051 0.1999 0.4588
C13 C -0.3507(2) 0.30748(12) 0.4947(2)
H18 H -0.3243 0.3434 0.5276
H19 H -0.3744 0.2844 0.5560
H20 H -0.4236 0.3116 0.4302
C14 C -0.19730(19) 0.31534(8) 0.3512(2)
C15 C -0.2857(2) 0.33858(9) 0.2573(2)
H21 H -0.3732 0.3322 0.2548
C16 C -0.2511(2) 0.37028(9) 0.1685(2)
H22 H -0.3142 0.3855 0.1086
C17 C -0.1210(2) 0.37951(9) 0.1686(2)
C18 C -0.0300(2) 0.35694(9) 0.2597(2)
H23 H 0.0575 0.3626 0.2605
C19 C -0.0675(2) 0.32593(8) 0.3499(2)
C20 C 0.12835(19) 0.18951(8) 0.4697(2)
C21 C 0.1223(2) 0.14235(9) 0.3992(2)
H24 H 0.0428 0.1295 0.3582
N1 N -0.0017(2) 0.54178(10) 0.3159(2)
N2 N 0.7225(2) 0.44385(11) 0.8991(2)
C22 C 0.0361(3) 0.56397(11) 0.4250(3)
H25 H -0.0144 0.5921 0.4483
C23 C 0.1447(3) 0.54775(10) 0.5042(3)
H26 H 0.1668 0.5649 0.5786
C24 C 0.2214(2) 0.50555(10) 0.4727(2)
C25 C 0.1816(3) 0.48220(11) 0.3603(3)
H27 H 0.2289 0.4534 0.3350
C26 C 0.0714(3) 0.50172(13) 0.2860(3)
H28 H 0.0474 0.4857 0.2106
C27 C 0.3388(3) 0.48485(10) 0.5519(3)
H29 H 0.3812 0.4553 0.5235
C28 C 0.3892(3) 0.50372(11) 0.6576(3)
H30 H 0.3479 0.5338 0.6853
C29 C 0.5047(3) 0.48226(11) 0.7376(3)
C30 C 0.5547(3) 0.51017(13) 0.8407(3)
H31 H 0.5166 0.5432 0.8587
C31 C 0.6608(3) 0.48975(14) 0.9178(3)
H32 H 0.6911 0.5096 0.9877
C32 C 0.6747(3) 0.41710(12) 0.7981(3)
H33 H 0.7162 0.3848 0.7812
C33 C 0.5676(3) 0.43425(11) 0.7169(2)
H34 H 0.5381 0.4134 0.6482
loop_
_geom_bond_atom_site_label_1
_geom_bond_atom_site_label_2
_geom_bond_site_symmetry_1
_geom_bond_site_symmetry_2
O1 C9 1_555 1_555
O2 C9 1_555 1_555
O3 H1 1_555 1_555
O4 H2 1_555 1_555
N1 C22 1_555 1_555
N2 C31 1_555 1_555
C1 O4 1_555 1_555
C2 C1 1_555 1_555
H3 C2 1_555 1_555
C3 C2 1_555 1_555
H4 C3 1_555 1_555
C4 C3 1_555 1_555
C5 C4 1_555 1_555
C6 C5 1_555 1_555
H5 C6 1_555 1_555
H6 C6 1_555 1_555
H7 C6 1_555 1_555
C7 C5 1_555 1_555
H8 C7 1_555 1_555
H9 C7 1_555 1_555
H10 C7 1_555 1_555
C8 C5 1_555 1_555
H11 C8 1_555 1_555
H12 C8 1_555 1_555
C9 C8 1_555 1_555
C10 C9 1_555 1_555
H13 C10 1_555 1_555
H14 C10 1_555 1_555
C11 C10 1_555 1_555
C12 C11 1_555 1_555
H15 C12 1_555 1_555
H16 C12 1_555 1_555
H17 C12 1_555 1_555
C13 C11 1_555 1_555
H18 C13 1_555 1_555
H19 C13 1_555 1_555
H20 C13 1_555 1_555
C14 C11 1_555 1_555
C15 C14 1_555 1_555
H21 C15 1_555 1_555
C16 C15 1_555 1_555
H22 C16 1_555 1_555
C17 O3 1_555 1_555
C18 C17 1_555 1_555
H23 C18 1_555 1_555
C19 O1 1_555 1_555
C20 O2 1_555 1_555
C21 C1 1_555 1_555
H24 C21 1_555 1_555
C22 H25 1_555 1_555
C23 C22 1_555 1_555
H26 C23 1_555 1_555
C24 C23 1_555 1_555
C25 C24 1_555 1_555
H27 C25 1_555 1_555
C26 N1 1_555 1_555
H28 C26 1_555 1_555
C27 C24 1_555 1_555
H29 C27 1_555 1_555
C28 C27 1_555 1_555
H30 C28 1_555 1_555
C29 C28 1_555 1_555
C30 C29 1_555 1_555
H31 C30 1_555 1_555
C31 C30 1_555 1_555
H32 C31 1_555 1_555
C32 N2 1_555 1_555
H33 C32 1_555 1_555
C33 C29 1_555 1_555
H34 C33 1_555 1_555
C4 C20 1_555 1_555
C14 C19 1_555 1_555
C16 C17 1_555 1_555
C18 C19 1_555 1_555
C20 C21 1_555 1_555
C25 C26 1_555 1_555
C32 C33 1_555 1_555

#END
