
#######################################################################
#
#                 Cambridge Crystallographic Data Centre
#                                CCDC 
#
#######################################################################
#
# If this CIF has been generated from an entry in the Cambridge 
# Structural Database, then it will include bibliographic, chemical, 
# crystal, experimental, refinement or atomic coordinate data resulting 
# from the CCDC's data processing and validation procedures.
#
#######################################################################

data_DATREX
_chemical_formula_moiety         'C35 H31 Br2 N3 O3,H2 O1'
_chemical_name_systematic        
'1-Benzyl-N-(4-bromobenzyl)-4-(2-((4-bromobenzyl)amino)-2-oxoethyl)-2-oxo-2,3,4,8b-tetrahydroindeno[1,2-b]pyrrole-3a(1H)-carboxamide monohydrate'
_symmetry_cell_setting           monoclinic
_symmetry_space_group_name_H-M   'P 21/c'
_symmetry_Int_Tables_number      14
_space_group_name_Hall           '-P 2ybc'
loop_
_symmetry_equiv_pos_site_id
_symmetry_equiv_pos_as_xyz
1 x,y,z
2 -x,1/2+y,1/2-z
3 -x,-y,-z
4 x,1/2-y,1/2+z
_cell_length_a                   14.6340(4)
_cell_length_b                   16.3527(4)
_cell_length_c                   13.0268(3)
_cell_angle_alpha                90
_cell_angle_beta                 92.626(2)
_cell_angle_gamma                90
_cell_volume                     3114.11
_exptl_crystal_colour            yellow
_exptl_crystal_description       'triangular plate'
_cell_formula_units_Z            4
loop_
_atom_site_label
_atom_site_type_symbol
_atom_site_fract_x
_atom_site_fract_y
_atom_site_fract_z
Br1 Br 0.86769(4) 0.25026(4) 0.20862(6)
Br2 Br 0.95172(4) 0.62061(4) 0.37614(5)
O1 O 0.2704(2) 0.2755(2) 0.6485(3)
O2 O 0.4576(3) 0.2257(2) 0.4589(3)
N1 N 0.2144(3) 0.2515(3) 0.4857(3)
N2 N 0.4090(3) 0.2019(3) 0.2960(4)
H1 H 0.3708 0.2155 0.2447
C1 C 0.3323(4) 0.3761(3) 0.3035(4)
H2 H 0.3507 0.3492 0.2387
C2 C 0.2332(4) 0.3987(3) 0.2897(4)
C3 C 0.1949(4) 0.4668(3) 0.2422(4)
H3 H 0.2328 0.5069 0.2128
C4 C 0.1013(4) 0.4762(4) 0.2378(4)
H4 H 0.0748 0.5236 0.2067
C5 C 0.0456(4) 0.4173(4) 0.2781(4)
H5 H -0.0189 0.4246 0.2741
C6 C 0.0826(4) 0.3479(3) 0.3243(4)
H6 H 0.0443 0.3070 0.3511
C7 C 0.1774(4) 0.3395(3) 0.3306(4)
C8 C 0.2340(4) 0.2717(3) 0.3789(4)
H7 H 0.2327 0.2218 0.3345
C9 C 0.3325(4) 0.3095(3) 0.3892(4)
C10 C 0.3340(4) 0.3437(3) 0.4990(4)
H8 H 0.3967 0.3424 0.5309
H9 H 0.3112 0.4007 0.4992
C11 C 0.2710(4) 0.2877(3) 0.5554(5)
C12 C 0.3960(4) 0.4498(4) 0.3235(5)
H10 H 0.3906 0.4702 0.3921
H11 H 0.3821 0.4930 0.2754
C13 C 0.4983(9) 0.4131(7) 0.3083(9)
N3 N 0.5489(6) 0.4122(5) 0.3945(8)
H12 H 0.5311 0.4347 0.4517
O3 O 0.5256(5) 0.3887(4) 0.2249(5)
C14 C 0.4053(4) 0.2429(3) 0.3835(5)
C15 C 0.4736(4) 0.1348(3) 0.2804(5)
H13 H 0.4516 0.1021 0.2203
H14 H 0.4749 0.0986 0.3414
C16 C 0.5697(4) 0.1640(3) 0.2632(4)
C17 C 0.6390(4) 0.1497(3) 0.3353(4)
H15 H 0.6256 0.1224 0.3972
C18 C 0.7287(4) 0.1741(3) 0.3202(4)
H16 H 0.7764 0.1631 0.3702
C19 C 0.7459(4) 0.2149(3) 0.2298(5)
C20 C 0.6779(4) 0.2315(4) 0.1575(4)
H17 H 0.6911 0.2605 0.0967
C21 C 0.5884(4) 0.2055(3) 0.1739(4)
H18 H 0.5407 0.2164 0.1239
C22 C 0.6339(4) 0.3723(4) 0.3879(5)
H19 H 0.6338 0.3408 0.3257
H20 H 0.6434 0.3357 0.4450
C23 C 0.7106(4) 0.4345(3) 0.3882(4)
C24 C 0.7750(4) 0.4404(4) 0.4690(5)
H21 H 0.7695 0.4062 0.5274
C25 C 0.8479(4) 0.4955(4) 0.4670(4)
H22 H 0.8927 0.4983 0.5221
C26 C 0.8528(4) 0.5453(3) 0.3830(4)
C27 C 0.7902(4) 0.5410(3) 0.3006(4)
H23 H 0.7963 0.5752 0.2424
C28 C 0.7181(4) 0.4859(3) 0.3040(4)
H24 H 0.6737 0.4834 0.2485
C29 C 0.1455(4) 0.1921(3) 0.5128(4)
H25 H 0.0864 0.2068 0.4775
H26 H 0.1374 0.1948 0.5877
C30 C 0.1699(4) 0.1057(3) 0.4842(4)
C31 C 0.1017(4) 0.0507(4) 0.4535(4)
H27 H 0.0400 0.0687 0.4464
C32 C 0.1226(4) -0.0305(4) 0.4329(4)
H28 H 0.0753 -0.0681 0.4136
C33 C 0.2122(4) -0.0559(4) 0.4408(4)
H29 H 0.2269 -0.1110 0.4257
C34 C 0.2817(4) -0.0014(4) 0.4707(4)
H30 H 0.3435 -0.0192 0.4764
C35 C 0.2596(4) 0.0789(4) 0.4919(4)
H31 H 0.3068 0.1163 0.5120
O4 O 0.4953(5) 0.4365(5) 0.0251(7)
C36? C 0.4857(8) 0.4418(7) 0.3791(9)
H32? H 0.3622 0.4886 0.3620
H33? H 0.4064 0.4745 0.2583
H34? H 0.6562 0.3228 0.3583
H35? H 0.6206 0.3604 0.4578
H36? H 0.5298 0.3795 0.2637
N4? N 0.5425(7) 0.3956(5) 0.3272(8)
O5? O 0.5004(5) 0.4110(5) 0.0951(7)
O6? O 0.5087(5) 0.4693(4) 0.4656(5)
loop_
_geom_bond_atom_site_label_1
_geom_bond_atom_site_label_2
_geom_bond_site_symmetry_1
_geom_bond_site_symmetry_2
Br1 C19 1_555 1_555
Br2 C26 1_555 1_555
O1 C11 1_555 1_555
O2 C14 1_555 1_555
N1 C8 1_555 1_555
N2 H1 1_555 1_555
C1 H2 1_555 1_555
C2 C1 1_555 1_555
C3 C2 1_555 1_555
H3 C3 1_555 1_555
C4 C3 1_555 1_555
H4 C4 1_555 1_555
C5 C4 1_555 1_555
H5 C5 1_555 1_555
C6 C5 1_555 1_555
H6 C6 1_555 1_555
C7 C2 1_555 1_555
C8 C7 1_555 1_555
H7 C8 1_555 1_555
C9 C1 1_555 1_555
C10 C9 1_555 1_555
H8 C10 1_555 1_555
H9 C10 1_555 1_555
C11 N1 1_555 1_555
C12 C1 1_555 1_555
H10 C12 1_555 1_555
H11 C12 1_555 1_555
C13 C12 1_555 1_555
N3 C13 1_555 1_555
H12 N3 1_555 1_555
O3 C13 1_555 1_555
C14 N2 1_555 1_555
C15 N2 1_555 1_555
H13 C15 1_555 1_555
H14 C15 1_555 1_555
C16 C15 1_555 1_555
C17 C16 1_555 1_555
H15 C17 1_555 1_555
C18 C17 1_555 1_555
H16 C18 1_555 1_555
C19 C18 1_555 1_555
C20 C19 1_555 1_555
H17 C20 1_555 1_555
C21 C16 1_555 1_555
H18 C21 1_555 1_555
C22 N3 1_555 1_555
H19 C22 1_555 1_555
H20 C22 1_555 1_555
C23 C22 1_555 1_555
C24 C23 1_555 1_555
H21 C24 1_555 1_555
C25 C24 1_555 1_555
H22 C25 1_555 1_555
C26 C25 1_555 1_555
C27 C26 1_555 1_555
H23 C27 1_555 1_555
C28 C23 1_555 1_555
H24 C28 1_555 1_555
C29 N1 1_555 1_555
H25 C29 1_555 1_555
H26 C29 1_555 1_555
C30 C29 1_555 1_555
C31 C30 1_555 1_555
H27 C31 1_555 1_555
C32 C31 1_555 1_555
H28 C32 1_555 1_555
C33 C32 1_555 1_555
H29 C33 1_555 1_555
C34 C33 1_555 1_555
H30 C34 1_555 1_555
C35 C30 1_555 1_555
H31 C35 1_555 1_555
C6 C7 1_555 1_555
C8 C9 1_555 1_555
C9 C14 1_555 1_555
C10 C11 1_555 1_555
C20 C21 1_555 1_555
C27 C28 1_555 1_555
C34 C35 1_555 1_555

#END
