
#######################################################################
#
#                 Cambridge Crystallographic Data Centre
#                                CCDC 
#
#######################################################################
#
# If this CIF has been generated from an entry in the Cambridge 
# Structural Database, then it will include bibliographic, chemical, 
# crystal, experimental, refinement or atomic coordinate data resulting 
# from the CCDC's data processing and validation procedures.
#
#######################################################################

data_DATSIC
_chemical_formula_moiety         'C14 H11 N1 O3'
_chemical_name_systematic        2-(1,3-Benzoxazol-2-yl)-3-methoxyphenol
_symmetry_cell_setting           monoclinic
_symmetry_space_group_name_H-M   'C 2/c'
_symmetry_Int_Tables_number      15
_space_group_name_Hall           '-C 2yn'
loop_
_symmetry_equiv_pos_site_id
_symmetry_equiv_pos_as_xyz
1 x,y,z
2 -x,y,1/2-z
3 1/2+x,1/2+y,z
4 1/2-x,1/2+y,1/2-z
5 -x,-y,-z
6 x,-y,1/2+z
7 1/2-x,1/2-y,-z
8 1/2+x,1/2-y,1/2+z
_cell_length_a                   24.350(9)
_cell_length_b                   4.8391(19)
_cell_length_c                   19.731(8)
_cell_angle_alpha                90
_cell_angle_beta                 109.888(6)
_cell_angle_gamma                90
_cell_volume                     2186.28
_exptl_crystal_colour            colorless
_exptl_crystal_description       plate
_cell_formula_units_Z            8
loop_
_atom_site_label
_atom_site_type_symbol
_atom_site_fract_x
_atom_site_fract_y
_atom_site_fract_z
O1 O 0.06856(4) 0.38545(19) 0.18159(5)
H1 H 0.0618 0.2816 0.2120
O2 O 0.21834(4) 0.7287(2) 0.39331(5)
O3 O 0.14753(4) 0.34421(18) 0.40695(5)
N1 N 0.07757(5) 0.1941(2) 0.30616(6)
C1 C 0.11337(5) 0.5558(3) 0.21546(7)
C2 C 0.12953(6) 0.7419(3) 0.17176(7)
H2 H 0.1093 0.7445 0.1212
C3 C 0.17509(6) 0.9223(3) 0.20230(7)
H3 H 0.1857 1.0497 0.1723
C4 C 0.20591(6) 0.9225(3) 0.27619(7)
H4 H 0.2376 1.0466 0.2960
C5 C 0.18998(5) 0.7398(3) 0.32051(7)
C6 C 0.14288(5) 0.5530(2) 0.29119(7)
C7 C 0.12164(5) 0.3613(3) 0.33339(6)
C8 C 0.11537(6) 0.1443(3) 0.42670(7)
C9 C 0.12311(6) 0.0472(3) 0.49513(7)
H5 H 0.1534 0.1134 0.5365
C10 C 0.08362(6) -0.1541(3) 0.49936(7)
H6 H 0.0863 -0.2258 0.5452
C11 C 0.04002(6) -0.2535(3) 0.43778(7)
H7 H 0.0142 -0.3928 0.4429
C12 C 0.03341(6) -0.1539(3) 0.36932(7)
H8 H 0.0038 -0.2221 0.3276
C13 C 0.07224(5) 0.0504(3) 0.36499(7)
C14 C 0.26245(6) 0.9335(3) 0.42446(7)
H9 H 0.2937 0.9149 0.4040
H10 H 0.2785 0.9071 0.4768
H11 H 0.2452 1.1183 0.4138
loop_
_geom_bond_atom_site_label_1
_geom_bond_atom_site_label_2
_geom_bond_site_symmetry_1
_geom_bond_site_symmetry_2
O1 H1 1_555 1_555
O2 C5 1_555 1_555
O3 C7 1_555 1_555
N1 C7 1_555 1_555
C1 O1 1_555 1_555
C2 C1 1_555 1_555
H2 C2 1_555 1_555
C3 C2 1_555 1_555
H3 C3 1_555 1_555
C4 C3 1_555 1_555
H4 C4 1_555 1_555
C5 C4 1_555 1_555
C6 C1 1_555 1_555
C7 C6 1_555 1_555
C8 O3 1_555 1_555
C9 C8 1_555 1_555
H5 C9 1_555 1_555
C10 C9 1_555 1_555
H6 C10 1_555 1_555
C11 C10 1_555 1_555
H7 C11 1_555 1_555
C12 C11 1_555 1_555
H8 C12 1_555 1_555
C13 N1 1_555 1_555
C14 O2 1_555 1_555
H9 C14 1_555 1_555
H10 C14 1_555 1_555
H11 C14 1_555 1_555
C5 C6 1_555 1_555
C8 C13 1_555 1_555
C12 C13 1_555 1_555

#END
