
#######################################################################
#
#                 Cambridge Crystallographic Data Centre
#                                CCDC 
#
#######################################################################
#
# If this CIF has been generated from an entry in the Cambridge 
# Structural Database, then it will include bibliographic, chemical, 
# crystal, experimental, refinement or atomic coordinate data resulting 
# from the CCDC's data processing and validation procedures.
#
#######################################################################

data_DATTUN
_chemical_formula_moiety         'C9 H12 N2 O3 S1,C2 H3 N1'
_chemical_name_systematic        
"N-Methyl-N'-(4-methylphenylsulfonyl)urea acetonitrile solvate"
_chemical_properties_biological  
'potential hypoglycemic or weed-growth inhibitory activity'
_symmetry_cell_setting           monoclinic
_symmetry_space_group_name_H-M   'P 21/n'
_symmetry_Int_Tables_number      14
_space_group_name_Hall           '-P 2yn'
loop_
_symmetry_equiv_pos_site_id
_symmetry_equiv_pos_as_xyz
1 x,y,z
2 1/2-x,1/2+y,1/2-z
3 -x,-y,-z
4 1/2+x,1/2-y,1/2+z
_cell_length_a                   8.204(5)
_cell_length_b                   9.196(3)
_cell_length_c                   18.389(8)
_cell_angle_alpha                90
_cell_angle_beta                 93.85(4)
_cell_angle_gamma                90
_cell_volume                     1384.21
_exptl_crystal_colour            colorless
_exptl_crystal_description       octahedron
_cell_formula_units_Z            4
_exptl_crystal_recrystallization_method acetonitrile/chloroform
loop_
_atom_site_label
_atom_site_type_symbol
_atom_site_fract_x
_atom_site_fract_y
_atom_site_fract_z
S1 S -0.00463(12) 0.12251(11) 0.17455(6)
O1 O -0.2802(4) -0.0270(3) 0.24362(18)
O2 O 0.0485(4) -0.0189(3) 0.19763(18)
O3 O 0.1116(4) 0.2376(3) 0.17152(19)
N1 N -0.3895(4) 0.1865(4) 0.2765(2)
H1 H -0.381(5) 0.270(6) 0.281(2)
N2 N -0.1366(4) 0.1825(4) 0.2313(2)
H2 H -0.143(6) 0.258(6) 0.235(3)
C1 C -0.5342(6) 0.1226(5) 0.3065(3)
H3 H -0.6030 0.1988 0.3227
H4 H -0.5010 0.0608 0.3468
H5 H -0.5934 0.0665 0.2694
C2 C -0.2737(5) 0.1055(4) 0.2505(2)
C3 C -0.1155(5) 0.1080(4) 0.0904(3)
C4 C -0.1504(7) 0.2332(6) 0.0497(3)
H6 H -0.1119 0.3261 0.0675
C5 C -0.2385(8) 0.2238(8) -0.0147(4)
H7 H -0.2617 0.3115 -0.0418
C6 C -0.2973(6) 0.0924(7) -0.0437(3)
C7 C -0.2573(7) -0.0319(7) -0.0028(3)
H8 H -0.2932 -0.1251 -0.0212
C8 C -0.1687(6) -0.0247(5) 0.0626(3)
H9 H -0.1432 -0.1123 0.0895
C9 C -0.3960(8) 0.0858(9) -0.1146(3)
H10 H -0.4293 -0.0128 -0.1243
H11 H -0.3314 0.1196 -0.1528
H12 H -0.4909 0.1463 -0.1123
N3 N -0.6689(13) 0.4056(10) -0.0619(9)
C10 C -0.5745(12) 0.4861(10) -0.0891(4)
C11 C -0.4458(11) 0.5915(9) -0.1156(4)
H13 H -0.4977 0.6809 -0.1310
H14 H -0.3943 0.5487 -0.1558
H15 H -0.3650 0.6107 -0.0766
loop_
_geom_bond_atom_site_label_1
_geom_bond_atom_site_label_2
_geom_bond_site_symmetry_1
_geom_bond_site_symmetry_2
S1 O2 1_555 1_555
O1 C2 1_555 1_555
O3 S1 1_555 1_555
N1 H1 1_555 1_555
N2 S1 1_555 1_555
H2 N2 1_555 1_555
C1 N1 1_555 1_555
H3 C1 1_555 1_555
H4 C1 1_555 1_555
H5 C1 1_555 1_555
C2 N1 1_555 1_555
C3 S1 1_555 1_555
C4 C3 1_555 1_555
H6 C4 1_555 1_555
C5 C4 1_555 1_555
H7 C5 1_555 1_555
C6 C5 1_555 1_555
C7 C6 1_555 1_555
H8 C7 1_555 1_555
C8 C3 1_555 1_555
H9 C8 1_555 1_555
C9 C6 1_555 1_555
H10 C9 1_555 1_555
H11 C9 1_555 1_555
H12 C9 1_555 1_555
N3 C10 1_555 1_555
C10 C11 1_555 1_555
C11 H13 1_555 1_555
H14 C11 1_555 1_555
H15 C11 1_555 1_555
N2 C2 1_555 1_555
C7 C8 1_555 1_555

#END
