
#######################################################################
#
#                 Cambridge Crystallographic Data Centre
#                                CCDC 
#
#######################################################################
#
# If this CIF has been generated from an entry in the Cambridge 
# Structural Database, then it will include bibliographic, chemical, 
# crystal, experimental, refinement or atomic coordinate data resulting 
# from the CCDC's data processing and validation procedures.
#
#######################################################################

data_DATTUP
_chemical_name_common            
1-(2-Deoxy-2-iodo-3,4:6,7-di-O-isopropylidene-D-glycero-alpha-D-galacto-heptopyranosyl)-4-methoxybenzene
_chemical_formula_moiety         'C20 H27 I1 O6'
_chemical_name_systematic        
4-(2,2-Dimethyl-1,3-dioxolan-4-yl)-7-iodo-6-(4-methoxyphenyl)-2,2-dimethyltetrahydro-4H-[1,3]dioxolo[4,5-c]pyran
_symmetry_cell_setting           monoclinic
_symmetry_space_group_name_H-M   'C 2'
_symmetry_Int_Tables_number      5
_space_group_name_Hall           'C 2y'
loop_
_symmetry_equiv_pos_site_id
_symmetry_equiv_pos_as_xyz
1 x,y,z
2 -x,y,-z
3 1/2+x,1/2+y,z
4 1/2-x,1/2+y,-z
_cell_length_a                   26.3811(9)
_cell_length_b                   6.9702(3)
_cell_length_c                   11.4961(5)
_cell_angle_alpha                90
_cell_angle_beta                 96.058(2)
_cell_angle_gamma                90
_cell_volume                     2102.12
_exptl_crystal_colour            colorless
_exptl_crystal_description       prism
_cell_formula_units_Z            4
loop_
_atom_site_label
_atom_site_type_symbol
_atom_site_fract_x
_atom_site_fract_y
_atom_site_fract_z
I1 I 0.409535(8) 0.58589(6) 0.478025(19)
O1 O 0.35825(10) 0.2531(5) 0.2645(2)
O2 O 0.25596(12) 0.1486(5) 0.7356(3)
O3 O 0.49874(11) 0.1569(5) 0.3312(2)
O4 O 0.45101(10) 0.1429(4) 0.1566(2)
O5 O 0.38313(11) 0.4635(5) -0.0113(3)
O6 O 0.30385(9) 0.5787(8) 0.0090(2)
C1 C 0.38475(15) 0.1839(6) 0.3715(3)
H1 H 0.3976 0.0523 0.3560
C2 C 0.43085(14) 0.3060(6) 0.4176(3)
H2 H 0.4489 0.2369 0.4861
C3 C 0.46850(14) 0.3274(6) 0.3260(3)
H3 H 0.4904 0.4432 0.3424
C4 C 0.44204(14) 0.3322(6) 0.1988(3)
H4 H 0.4590 0.4292 0.1518
C5 C 0.38518(14) 0.3704(6) 0.1898(3)
H5 H 0.3798 0.5078 0.2101
C6 C 0.36052(14) 0.3349(6) 0.0659(3)
H6 H 0.3664 0.1991 0.0427
C7 C 0.30395(15) 0.3821(7) 0.0453(4)
H7 H 0.2865 0.2995 -0.0166
H8 H 0.2873 0.3667 0.1179
C8 C 0.34694(15) 0.1647(6) 0.4606(3)
C9 C 0.30054(15) 0.2573(6) 0.4489(3)
H9 H 0.2903 0.3252 0.3787
C10 C 0.26807(15) 0.2540(7) 0.5381(4)
H10 H 0.2361 0.3178 0.5285
C11 C 0.28364(16) 0.1551(6) 0.6412(3)
C12 C 0.32930(15) 0.0552(7) 0.6525(3)
H11 H 0.3390 -0.0179 0.7210
C13 C 0.36086(15) 0.0625(8) 0.5635(3)
H12 H 0.3926 -0.0033 0.5726
C14 C 0.21329(17) 0.2760(9) 0.7347(4)
H13 H 0.1980 0.2636 0.8085
H14 H 0.1879 0.2432 0.6693
H15 H 0.2248 0.4084 0.7258
C15 C 0.49894(12) 0.0856(11) 0.2134(3)
C16 C 0.5007(2) -0.1318(7) 0.2184(4)
H16 H 0.4989 -0.1834 0.1388
H17 H 0.4717 -0.1794 0.2566
H18 H 0.5325 -0.1730 0.2630
C17 C 0.54284(16) 0.1748(8) 0.1569(4)
H19 H 0.5409 0.1353 0.0747
H20 H 0.5753 0.1318 0.1981
H21 H 0.5406 0.3150 0.1614
C18 C 0.34610(14) 0.6013(10) -0.0564(3)
C19 C 0.3665(2) 0.8016(8) -0.0335(5)
H22 H 0.3405 0.8953 -0.0626
H23 H 0.3971 0.8198 -0.0739
H24 H 0.3752 0.8196 0.0507
C20 C 0.33182(17) 0.5608(10) -0.1855(3)
H25 H 0.3033 0.6435 -0.2152
H26 H 0.3217 0.4260 -0.1959
H27 H 0.3612 0.5866 -0.2287
loop_
_geom_bond_atom_site_label_1
_geom_bond_atom_site_label_2
_geom_bond_site_symmetry_1
_geom_bond_site_symmetry_2
I1 C2 1_555 1_555
O1 C1 1_555 1_555
O2 C11 1_555 1_555
O3 C3 1_555 1_555
O4 C4 1_555 1_555
O5 C6 1_555 1_555
O6 C7 1_555 1_555
C1 H1 1_555 1_555
C2 C1 1_555 1_555
H2 C2 1_555 1_555
C3 C2 1_555 1_555
H3 C3 1_555 1_555
C4 C3 1_555 1_555
H4 C4 1_555 1_555
C5 O1 1_555 1_555
H5 C5 1_555 1_555
C6 C5 1_555 1_555
H6 C6 1_555 1_555
C7 C6 1_555 1_555
H7 C7 1_555 1_555
H8 C7 1_555 1_555
C8 C1 1_555 1_555
C9 C8 1_555 1_555
H9 C9 1_555 1_555
C10 C9 1_555 1_555
H10 C10 1_555 1_555
C11 C10 1_555 1_555
C12 C11 1_555 1_555
H11 C12 1_555 1_555
C13 C8 1_555 1_555
H12 C13 1_555 1_555
C14 O2 1_555 1_555
H13 C14 1_555 1_555
H14 C14 1_555 1_555
H15 C14 1_555 1_555
C15 O3 1_555 1_555
C16 C15 1_555 1_555
H16 C16 1_555 1_555
H17 C16 1_555 1_555
H18 C16 1_555 1_555
C17 C15 1_555 1_555
H19 C17 1_555 1_555
H20 C17 1_555 1_555
H21 C17 1_555 1_555
C18 O5 1_555 1_555
C19 C18 1_555 1_555
H22 C19 1_555 1_555
H23 C19 1_555 1_555
H24 C19 1_555 1_555
C20 C18 1_555 1_555
H25 C20 1_555 1_555
H26 C20 1_555 1_555
H27 C20 1_555 1_555
O4 C15 1_555 1_555
O6 C18 1_555 1_555
C4 C5 1_555 1_555
C12 C13 1_555 1_555

#END
