
#######################################################################
#
#                 Cambridge Crystallographic Data Centre
#                                CCDC 
#
#######################################################################
#
# If this CIF has been generated from an entry in the Cambridge 
# Structural Database, then it will include bibliographic, chemical, 
# crystal, experimental, refinement or atomic coordinate data resulting 
# from the CCDC's data processing and validation procedures.
#
#######################################################################

data_DATVAX
_chemical_name_common            
1-(2-Deoxy-2-iodo-3,4:6,7-di-O-isopropylidene-D-glycero-alpha-D-talo-heptopyranosyl)-4-methoxybenzene
_chemical_formula_moiety         'C20 H27 I1 O6'
_chemical_name_systematic        
4-(2,2-Dimethyl-1,3-dioxolan-4-yl)-7-iodo-6-(4-methoxyphenyl)-2,2-dimethyltetrahydro-4H-[1,3]dioxolo[4,5-c]pyran
_symmetry_cell_setting           monoclinic
_symmetry_space_group_name_H-M   'P 21'
_symmetry_Int_Tables_number      4
_space_group_name_Hall           'P 2yb'
loop_
_symmetry_equiv_pos_site_id
_symmetry_equiv_pos_as_xyz
1 x,y,z
2 -x,1/2+y,-z
_cell_length_a                   12.6964(3)
_cell_length_b                   10.2021(3)
_cell_length_c                   16.7996(3)
_cell_angle_alpha                90
_cell_angle_beta                 99.8944(14)
_cell_angle_gamma                90
_cell_volume                     2143.68
_exptl_crystal_colour            colorless
_exptl_crystal_description       prism
_cell_formula_units_Z            4
loop_
_atom_site_label
_atom_site_type_symbol
_atom_site_fract_x
_atom_site_fract_y
_atom_site_fract_z
I1 I 0.550212(14) 0.61552(4) 0.087149(13)
O1 O 0.22974(19) 0.4479(3) 0.04136(14)
O2 O 0.4489(2) 0.1710(3) 0.36104(16)
O3 O 0.35428(15) 0.6208(4) -0.07317(11)
O4 O 0.17307(15) 0.6210(5) -0.09539(11)
O5 O -0.00787(19) 0.6413(3) 0.03165(16)
O6 O -0.0853(3) 0.4706(4) 0.0875(3)
C1 C 0.3440(3) 0.4585(4) 0.0687(2)
H1 H 0.3805 0.4127 0.0284
C2 C 0.3784(2) 0.6022(6) 0.07143(17)
H2 H 0.3554 0.6434 0.1197
C3 C 0.3274(3) 0.6784(4) -0.0024(2)
H3 H 0.3500 0.7724 0.0022
C4 C 0.2036(3) 0.6668(4) -0.01453(19)
H4 H 0.1704 0.7540 -0.0074
C5 C 0.1703(2) 0.5663(4) 0.04293(19)
H5 H 0.1842 0.6028 0.0990
C6 C 0.0538(3) 0.5265(4) 0.0220(2)
H6 H 0.0366 0.4923 -0.0346
C7 C 0.0186(3) 0.4308(4) 0.0815(2)
H7 H 0.0189 0.3398 0.0610
H8 H 0.0662 0.4359 0.1346
C8 C 0.3737(3) 0.3883(4) 0.1485(2)
C9 C 0.3303(3) 0.4254(5) 0.2158(2)
H9 H 0.2844 0.4994 0.2125
C10 C 0.3534(3) 0.3551(5) 0.2881(2)
H10 H 0.3220 0.3803 0.3333
C11 C 0.4213(3) 0.2496(5) 0.2939(2)
C12 C 0.4676(3) 0.2140(4) 0.2279(2)
H11 H 0.5164 0.1428 0.2322
C13 C 0.4426(3) 0.2821(4) 0.1562(2)
H12 H 0.4733 0.2555 0.1111
C14 C 0.3981(4) 0.1977(6) 0.4288(3)
H13 H 0.4173 0.1295 0.4699
H14 H 0.3203 0.1985 0.4114
H15 H 0.4216 0.2832 0.4518
C15 C 0.2632(2) 0.6335(5) -0.13570(18)
C16 C 0.2622(3) 0.7666(4) -0.1764(2)
H16 H 0.2020 0.7710 -0.2215
H17 H 0.3293 0.7790 -0.1969
H18 H 0.2547 0.8356 -0.1372
C17 C 0.2616(4) 0.5207(5) -0.1927(3)
H19 H 0.1977 0.5265 -0.2347
H20 H 0.2602 0.4382 -0.1630
H21 H 0.3257 0.5235 -0.2179
C18 C -0.1069(3) 0.5977(6) 0.0527(2)
C19 C -0.1898(3) 0.5847(7) -0.0228(3)
H22 H -0.2570 0.5533 -0.0084
H23 H -0.1647 0.5222 -0.0597
H24 H -0.2015 0.6703 -0.0493
C20 C -0.1400(4) 0.6912(6) 0.1117(3)
H25 H -0.2002 0.6543 0.1337
H26 H -0.1617 0.7743 0.0845
H27 H -0.0799 0.7066 0.1557
I2 I 0.292999(15) 0.61264(3) 0.569291(12)
O7 O -0.00831(19) 0.7896(3) 0.45783(14)
O8 O 0.2828(3) 0.8211(3) 0.19214(18)
O9 O 0.07578(19) 0.7023(3) 0.64440(14)
O10 O -0.1022(2) 0.7215(3) 0.59715(14)
O11 O -0.26546(18) 0.6307(3) 0.43238(12)
O12 O -0.2582(2) 0.6614(3) 0.29979(15)
C21 C 0.1050(3) 0.7639(4) 0.4784(2)
H28 H 0.1368 0.8314 0.5186
C22 C 0.1249(2) 0.6282(5) 0.51868(18)
H29 H 0.1071 0.5594 0.4761
C23 C 0.0547(2) 0.6067(5) 0.58277(16)
H30 H 0.0662 0.5168 0.6063
C24 C -0.0655(2) 0.6272(5) 0.54597(17)
H31 H -0.1059 0.5432 0.5467
C25 C -0.0785(3) 0.6810(3) 0.46075(19)
H32 H -0.0608 0.6107 0.4237
C26 C -0.1902(3) 0.7331(4) 0.4290(2)
H33 H -0.2065 0.8093 0.4623
C27 C -0.2054(3) 0.7717(4) 0.3397(2)
H34 H -0.2497 0.8516 0.3291
H35 H -0.1357 0.7870 0.3224
C28 C 0.1555(3) 0.7804(4) 0.4034(2)
C29 C 0.1105(3) 0.7183(4) 0.3313(2)
H36 H 0.0491 0.6644 0.3298
C30 C 0.1548(3) 0.7348(4) 0.2619(2)
H37 H 0.1234 0.6931 0.2130
C31 C 0.2449(3) 0.8124(4) 0.2641(2)
C32 C 0.2890(3) 0.8761(4) 0.3345(2)
H38 H 0.3499 0.9307 0.3359
C33 C 0.2433(3) 0.8593(4) 0.4036(2)
H39 H 0.2735 0.9034 0.4519
C34 C 0.3636(4) 0.9160(5) 0.1880(3)
H40 H 0.3792 0.9192 0.1329
H41 H 0.4285 0.8921 0.2257
H42 H 0.3387 1.0022 0.2027
C35 C -0.0239(3) 0.7317(4) 0.6697(2)
C36 C -0.0214(4) 0.8732(5) 0.6972(3)
H43 H -0.0924 0.8987 0.7070
H44 H -0.0008 0.9295 0.6551
H45 H 0.0307 0.8829 0.7471
C37 C -0.0483(3) 0.6358(5) 0.7321(2)
H46 H -0.1186 0.6557 0.7457
H47 H 0.0064 0.6428 0.7808
H48 H -0.0486 0.5466 0.7105
C38 C -0.3270(2) 0.6139(6) 0.35199(16)
C39 C -0.3430(4) 0.4711(5) 0.3363(3)
H49 H -0.3848 0.4581 0.2822
H50 H -0.3814 0.4332 0.3766
H51 H -0.2734 0.4281 0.3397
C40 C -0.4292(4) 0.6915(6) 0.3430(3)
H52 H -0.4684 0.6821 0.2877
H53 H -0.4125 0.7841 0.3541
H54 H -0.4732 0.6587 0.3812
loop_
_geom_bond_atom_site_label_1
_geom_bond_atom_site_label_2
_geom_bond_site_symmetry_1
_geom_bond_site_symmetry_2
I1 C2 1_555 1_555
O1 C1 1_555 1_555
O2 C11 1_555 1_555
O3 C3 1_555 1_555
O4 C4 1_555 1_555
O5 C6 1_555 1_555
O6 C7 1_555 1_555
C1 H1 1_555 1_555
C2 C1 1_555 1_555
H2 C2 1_555 1_555
C3 C2 1_555 1_555
H3 C3 1_555 1_555
C4 C3 1_555 1_555
H4 C4 1_555 1_555
C5 O1 1_555 1_555
H5 C5 1_555 1_555
C6 C5 1_555 1_555
H6 C6 1_555 1_555
C7 C6 1_555 1_555
H7 C7 1_555 1_555
H8 C7 1_555 1_555
C8 C1 1_555 1_555
C9 C8 1_555 1_555
H9 C9 1_555 1_555
C10 C9 1_555 1_555
H10 C10 1_555 1_555
C11 C10 1_555 1_555
C12 C11 1_555 1_555
H11 C12 1_555 1_555
C13 C8 1_555 1_555
H12 C13 1_555 1_555
C14 O2 1_555 1_555
H13 C14 1_555 1_555
H14 C14 1_555 1_555
H15 C14 1_555 1_555
C15 O3 1_555 1_555
C16 C15 1_555 1_555
H16 C16 1_555 1_555
H17 C16 1_555 1_555
H18 C16 1_555 1_555
C17 C15 1_555 1_555
H19 C17 1_555 1_555
H20 C17 1_555 1_555
H21 C17 1_555 1_555
C18 O5 1_555 1_555
C19 C18 1_555 1_555
H22 C19 1_555 1_555
H23 C19 1_555 1_555
H24 C19 1_555 1_555
C20 C18 1_555 1_555
H25 C20 1_555 1_555
H26 C20 1_555 1_555
H27 C20 1_555 1_555
I2 C22 1_555 1_555
O7 C21 1_555 1_555
O8 C31 1_555 1_555
O9 C23 1_555 1_555
O10 C24 1_555 1_555
O11 C26 1_555 1_555
O12 C27 1_555 1_555
C21 H28 1_555 1_555
C22 C21 1_555 1_555
H29 C22 1_555 1_555
C23 C22 1_555 1_555
H30 C23 1_555 1_555
C24 C23 1_555 1_555
H31 C24 1_555 1_555
C25 O7 1_555 1_555
H32 C25 1_555 1_555
C26 C25 1_555 1_555
H33 C26 1_555 1_555
C27 C26 1_555 1_555
H34 C27 1_555 1_555
H35 C27 1_555 1_555
C28 C21 1_555 1_555
C29 C28 1_555 1_555
H36 C29 1_555 1_555
C30 C29 1_555 1_555
H37 C30 1_555 1_555
C31 C30 1_555 1_555
C32 C31 1_555 1_555
H38 C32 1_555 1_555
C33 C28 1_555 1_555
H39 C33 1_555 1_555
C34 O8 1_555 1_555
H40 C34 1_555 1_555
H41 C34 1_555 1_555
H42 C34 1_555 1_555
C35 O9 1_555 1_555
C36 C35 1_555 1_555
H43 C36 1_555 1_555
H44 C36 1_555 1_555
H45 C36 1_555 1_555
C37 C35 1_555 1_555
H46 C37 1_555 1_555
H47 C37 1_555 1_555
H48 C37 1_555 1_555
C38 O11 1_555 1_555
C39 C38 1_555 1_555
H49 C39 1_555 1_555
H50 C39 1_555 1_555
H51 C39 1_555 1_555
C40 C38 1_555 1_555
H52 C40 1_555 1_555
H53 C40 1_555 1_555
H54 C40 1_555 1_555
O4 C15 1_555 1_555
O6 C18 1_555 1_555
C4 C5 1_555 1_555
C12 C13 1_555 1_555
O10 C35 1_555 1_555
O12 C38 1_555 1_555
C24 C25 1_555 1_555
C32 C33 1_555 1_555

#END
