
#######################################################################
#
#                 Cambridge Crystallographic Data Centre
#                                CCDC 
#
#######################################################################
#
# If this CIF has been generated from an entry in the Cambridge 
# Structural Database, then it will include bibliographic, chemical, 
# crystal, experimental, refinement or atomic coordinate data resulting 
# from the CCDC's data processing and validation procedures.
#
#######################################################################

data_DATWOK
_chemical_formula_moiety         'C14 H14 N2 O3 S1'
_chemical_name_systematic        N-(4-Methylphenylsulfonyl)-N'-(phenyl)urea
_chemical_properties_biological  
'potential hypoglycemic or weed-growth inhibitory activity'
_symmetry_cell_setting           monoclinic
_symmetry_space_group_name_H-M   'P 21/c'
_symmetry_Int_Tables_number      14
_space_group_name_Hall           '-P 2ybc'
loop_
_symmetry_equiv_pos_site_id
_symmetry_equiv_pos_as_xyz
1 x,y,z
2 -x,1/2+y,1/2-z
3 -x,-y,-z
4 x,1/2-y,1/2+z
_cell_length_a                   15.7030(17)
_cell_length_b                   9.7740(10)
_cell_length_c                   9.5580(10)
_cell_angle_alpha                90
_cell_angle_beta                 97.535(2)
_cell_angle_gamma                90
_cell_volume                     1454.31
_exptl_crystal_colour            colorless
_exptl_crystal_description       plate
_cell_formula_units_Z            4
_exptl_crystal_recrystallization_method acetonitrile/hexane
loop_
_atom_site_label
_atom_site_type_symbol
_atom_site_fract_x
_atom_site_fract_y
_atom_site_fract_z
S1 S 0.66631(10) 0.25875(14) 0.10327(14)
N1 N 0.7528(3) 0.2571(5) 0.2204(5)
N2 N 0.8902(4) 0.3225(6) 0.3084(6)
O1 O 0.6021(3) 0.1959(4) 0.1752(4)
O2 O 0.6856(3) 0.1991(4) -0.0245(4)
O3 O 0.8487(3) 0.3209(5) 0.0683(4)
C1 C 0.5906(5) 0.8643(7) 0.0438(8)
H1 H 0.6218 0.9040 -0.0261
H2 H 0.6092 0.9053 0.1339
H3 H 0.5303 0.8804 0.0183
C2 C 0.6073(4) 0.7120(6) 0.0522(7)
C3 C 0.5693(5) 0.6319(7) 0.1448(7)
H4 H 0.5302 0.6740 0.2009
C4 C 0.5851(4) 0.4947(7) 0.1602(7)
H5 H 0.5587 0.4417 0.2273
C5 C 0.6405(4) 0.4339(6) 0.0758(5)
C6 C 0.6776(4) 0.5095(6) -0.0221(6)
H6 H 0.7141 0.4666 -0.0823
C7 C 0.6609(4) 0.6492(6) -0.0316(7)
H7 H 0.6873 0.7032 -0.0980
C8 C 0.8359(4) 0.3023(6) 0.1890(6)
C9 C 0.9776(5) 0.3589(8) 0.3130(8)
C10 C 1.0302(6) 0.3310(12) 0.4344(12)
H8 H 1.0078 0.2908 0.5135
C11 C 1.1189(8) 0.3624(14) 0.4418(15)
H9 H 1.1569 0.3393 0.5254
C12 C 1.1501(7) 0.4227(14) 0.3359(15)
H10 H 1.2109 0.4370 0.3399
C13 C 1.0967(7) 0.4640(11) 0.2228(12)
H11 H 1.1188 0.5152 0.1497
C14 C 1.0101(6) 0.4335(9) 0.2105(9)
H12 H 0.9724 0.4648 0.1297
loop_
_geom_bond_atom_site_label_1
_geom_bond_atom_site_label_2
_geom_bond_site_symmetry_1
_geom_bond_site_symmetry_2
S1 N1 1_555 1_555
N1 C8 1_555 1_555
N2 C8 1_555 1_555
O1 S1 1_555 1_555
O2 S1 1_555 1_555
O3 C8 1_555 1_555
C1 H1 1_555 1_555
H2 C1 1_555 1_555
H3 C1 1_555 1_555
C2 C1 1_555 1_555
C3 C2 1_555 1_555
H4 C3 1_555 1_555
C4 C3 1_555 1_555
H5 C4 1_555 1_555
C5 S1 1_555 1_555
C6 C5 1_555 1_555
H6 C6 1_555 1_555
C7 C2 1_555 1_555
H7 C7 1_555 1_555
C9 N2 1_555 1_555
C10 C9 1_555 1_555
H8 C10 1_555 1_555
C11 C10 1_555 1_555
H9 C11 1_555 1_555
C12 C11 1_555 1_555
H10 C12 1_555 1_555
C13 C12 1_555 1_555
H11 C13 1_555 1_555
C14 C9 1_555 1_555
H12 C14 1_555 1_555
C4 C5 1_555 1_555
C6 C7 1_555 1_555
C13 C14 1_555 1_555

#END
