
#######################################################################
#
#                 Cambridge Crystallographic Data Centre
#                                CCDC 
#
#######################################################################
#
# If this CIF has been generated from an entry in the Cambridge 
# Structural Database, then it will include bibliographic, chemical, 
# crystal, experimental, refinement or atomic coordinate data resulting 
# from the CCDC's data processing and validation procedures.
#
#######################################################################

data_DATXIG
_chemical_formula_moiety         'C72 H29 Cl1 O10,1.5(C6 H6),H2 O1'
_chemical_name_systematic        
'1-Chloro-3,14-epoxy-2,4-dihydroxy-11,15,30-tri-t-butylperoxy-oxa^3,4^-1,2,3,4,11,14,15,30-octahydroC60fullerene benzene solvate monohydrate'
_symmetry_cell_setting           triclinic
_symmetry_space_group_name_H-M   'P -1'
_symmetry_Int_Tables_number      2
_space_group_name_Hall           '-P 1'
loop_
_symmetry_equiv_pos_site_id
_symmetry_equiv_pos_as_xyz
1 x,y,z
2 -x,-y,-z
_cell_length_a                   14.269(3)
_cell_length_b                   14.341(3)
_cell_length_c                   15.587(3)
_cell_angle_alpha                80.59(3)
_cell_angle_beta                 78.36(3)
_cell_angle_gamma                62.50(3)
_cell_volume                     2761.93
_exptl_crystal_colour            red
_exptl_crystal_description       block
_cell_formula_units_Z            2
_exptl_crystal_recrystallization_method benzene/n-hexane
loop_
_atom_site_label
_atom_site_type_symbol
_atom_site_fract_x
_atom_site_fract_y
_atom_site_fract_z
Cl1 Cl 0.21010(19) 1.1482(2) 0.5331(2)
O1 O 0.2908(7) 0.9224(10) 0.4024(5)
O2 O 0.0833(13) 1.0375(17) 0.5674(12)
O3 O 0.1504(7) 0.8399(9) 0.5348(6)
O4 O 0.3640(5) 0.7503(7) 0.4477(4)
O5 O 0.2174(4) 0.6245(5) 0.5598(3)
O6 O 0.1071(5) 0.6596(7) 0.6105(5)
O7 O 0.0178(4) 1.0645(5) 0.7710(6)
O8 O -0.0036(5) 1.1324(6) 0.8320(5)
O9 O 0.0319(3) 0.7701(4) 0.7858(3)
O10 O -0.05039(18) 0.8857(2) 0.79143(16)
C1 C 0.3969(4) 0.6447(6) 0.9495(3)
C2 C 0.4571(8) 0.5606(6) 0.9076(4)
C3 C 0.5396(7) 0.5173(8) 0.8613(7)
C4 C 0.5927(5) 0.5679(5) 0.8651(4)
C5 C 0.5740(4) 0.6637(6) 0.8954(4)
C6 C 0.4603(13) 0.7031(16) 0.9515(8)
C7 C 0.2905(6) 0.7340(9) 0.9519(4)
C8 C 0.2194(3) 0.7312(4) 0.9052(2)
C9 C 0.2658(6) 0.6251(7) 0.8563(6)
C10 C 0.3520(6) 0.5552(5) 0.8614(3)
C11 C 0.4307(9) 0.4989(7) 0.7798(9)
C12 C 0.5237(6) 0.4780(4) 0.7760(4)
C13 C 0.6007(4) 0.4898(4) 0.7195(6)
C14 C 0.6652(5) 0.5471(7) 0.6997(6)
C15 C 0.6735(3) 0.5941(7) 0.7614(5)
C16 C 0.6602(4) 0.6858(6) 0.7831(6)
C17 C 0.6065(7) 0.7327(9) 0.8483(7)
C18 C 0.5318(4) 0.8575(7) 0.8336(6)
C19 C 0.4461(5) 0.8705(5) 0.8955(3)
C20 C 0.3978(8) 0.8187(13) 0.9460(7)
C21 C 0.2969(4) 0.8335(4) 0.9460(2)
C22 C 0.3589(9) 0.9745(9) 0.8418(9)
C23 C 0.2733(6) 0.9872(4) 0.8414(3)
C24 C 0.2211(6) 0.9156(8) 0.8988(6)
C25 C 0.1566(3) 0.9127(4) 0.8513(2)
C26 C 0.1491(9) 0.8125(11) 0.8564(9)
C27 C 0.1329(5) 0.7725(7) 0.7760(6)
C28 C 0.2047(5) 0.6697(5) 0.7780(3)
C29 C 0.2791(9) 0.6125(12) 0.7012(10)
C30 C 0.3623(13) 0.5427(8) 0.7055(4)
C31 C 0.4827(13) 0.5293(6) 0.6219(5)
C32 C 0.5795(9) 0.5202(6) 0.6334(7)
C33 C 0.5911(8) 0.5932(10) 0.5709(8)
C34 C 0.6509(5) 0.6009(5) 0.6132(4)
C35 C 0.6514(4) 0.7239(6) 0.6176(4)
C36 C 0.6596(5) 0.7450(8) 0.6912(6)
C37 C 0.6039(5) 0.8401(7) 0.6841(3)
C38 C 0.5334(9) 0.9055(10) 0.7635(11)
C39 C 0.5438(7) 0.8859(10) 0.6079(8)
C40 C 0.5838(11) 0.787(2) 0.5571(11)
C41 C 0.5095(8) 0.7803(11) 0.5161(5)
C42 C 0.5080(5) 0.6762(4) 0.5175(3)
C43 C 0.4545(5) 0.9559(4) 0.6023(3)
C44 C 0.3737(5) 0.9473(7) 0.5566(6)
C45 C 0.4059(3) 0.8684(4) 0.5104(2)
C46 C 0.4240(8) 0.6754(11) 0.5063(6)
C47 C 0.3597(8) 0.6384(6) 0.5644(3)
C48 C 0.274(2) 0.6567(18) 0.6055(10)
C49 C 0.1256(4) 0.9833(5) 0.7712(5)
C50 C 0.1472(3) 0.9118(7) 0.6990(3)
C51 C 0.1577(10) 0.8325(17) 0.6971(8)
C52 C 0.2094(7) 0.7834(9) 0.6063(7)
C53 C 0.2153(4) 0.8584(5) 0.5533(3)
C54 C 0.1985(5) 0.9560(5) 0.5801(5)
C55 C 0.2071(4) 1.0065(6) 0.7920(7)
C56 C 0.2828(6) 1.0397(4) 0.6887(4)
C57 C 0.3768(8) 1.0132(7) 0.6855(10)
C58 C 0.4457(10) 0.9746(7) 0.7584(5)
C59 C 0.2532(5) 1.0222(7) 0.5982(6)
C60 C 0.3238(6) 0.8523(9) 0.4754(5)
C61 C -0.0651(4) 1.2436(4) 0.7896(4)
C62 C -0.0563(13) 1.2875(10) 0.8640(8)
H1 H -0.0720 1.2504 0.9177
H2 H -0.1061 1.3609 0.8643
H3 H 0.0149 1.2801 0.8590
C63 C -0.1677(5) 1.2414(6) 0.8024(6)
H4 H -0.1736 1.1974 0.8547
H5 H -0.1735 1.2136 0.7527
H6 H -0.2240 1.3116 0.8083
C64 C -0.0462(14) 1.3042(11) 0.7136(10)
H7 H 0.0227 1.3020 0.7103
H8 H -0.1002 1.3759 0.7162
H9 H -0.0482 1.2761 0.6626
C65 C 0.0599(4) 0.5902(5) 0.5997(4)
C66 C 0.1203(10) 0.4753(8) 0.6159(8)
H10 H 0.1942 0.4540 0.5925
H11 H 0.0924 0.4406 0.5879
H12 H 0.1139 0.4561 0.6780
C67 C -0.0527(5) 0.6456(7) 0.6283(6)
H13 H -0.0760 0.7199 0.6138
H14 H -0.0673 0.6322 0.6907
H15 H -0.0902 0.6218 0.5994
C68 C 0.0847(10) 0.6038(9) 0.5039(7)
H16 H 0.1602 0.5654 0.4864
H17 H 0.0623 0.6773 0.4857
H18 H 0.0477 0.5777 0.4768
C69 C -0.1398(3) 0.8885(4) 0.8576(3)
C70 C -0.1013(4) 0.8432(6) 0.9446(3)
H19 H -0.0731 0.8852 0.9622
H20 H -0.0463 0.7722 0.9394
H21 H -0.1597 0.8431 0.9877
C71 C -0.1854(4) 0.8267(6) 0.8269(4)
H22 H -0.2094 0.8581 0.7713
H23 H -0.2445 0.8267 0.8692
H24 H -0.1315 0.7554 0.8206
C72 C -0.2167(5) 1.0033(6) 0.8603(5)
H25 H -0.1846 1.0398 0.8810
H26 H -0.2807 1.0110 0.8993
H27 H -0.2338 1.0326 0.8024
O11 O 0.0853(2) 0.0308(4) 0.3838(2)
H28 H 0.0764 0.0701 0.3072
H29 H 0.0017 0.0763 0.4364
C73 C 0.6172(14) 0.7867(13) 0.0980(7)
H30 H 0.6238 0.7988 0.0371
C74 C 0.7006(10) 0.7441(9) 0.1345(10)
H31 H 0.7670 0.7258 0.1001
C75 C 0.6949(10) 0.7257(7) 0.2194(12)
H32 H 0.7572 0.6947 0.2449
C76 C 0.5991(18) 0.7510(9) 0.2717(6)
H33 H 0.5931 0.7393 0.3326
C77 C 0.5140(9) 0.7940(11) 0.2290(12)
H34 H 0.4462 0.8108 0.2602
C78 C 0.5265(11) 0.8129(11) 0.1412(10)
H35 H 0.4668 0.8459 0.1124
C79 C 0.9065(9) 0.5011(8) 0.0131(16)
H36 H 0.8397 0.5015 0.0248
C80 C 0.9643(18) 0.4752(10) 0.0795(8)
H37 H 0.9362 0.4575 0.1354
C81 C 0.9422(16) 0.5260(8) -0.0684(10)
H38 H 0.9031 0.5432 -0.1145
C79A C 1.0935(9) 0.4989(8) -0.0131(16)
H36A H 1.1603 0.4985 -0.0248
C80A C 1.0357(18) 0.5248(10) -0.0795(8)
H37A H 1.0638 0.5425 -0.1354
C81A C 1.0578(16) 0.4740(8) 0.0684(10)
H38A H 1.0969 0.4568 0.1145
Cl2? Cl 0.28700(18) 0.7451(2) 0.40362(13)
O12? O 0.2812(6) 0.9941(6) 0.4216(5)
O13? O 0.1133(6) 0.8755(7) 0.5137(6)
O14? O 0.1099(11) 1.0425(15) 0.5846(10)
O15? O 0.3067(4) 1.0557(4) 0.5360(4)
O16? O 0.0801(4) 0.7153(5) 0.6579(4)
O17? O 0.0867(6) 0.6113(6) 0.6818(5)
O18? O 0.1166(4) 1.1519(5) 0.7144(4)
O19? O 0.0101(4) 1.1477(5) 0.7470(4)
O20? O -0.0033(4) 0.9418(4) 0.8295(3)
C82? C 0.2743(15) 0.6324(13) 0.6422(12)
C83? C 0.4944(11) 0.7401(11) 0.9284(8)
C84? C 0.2987(7) 0.6473(10) 0.9211(7)
C85? C 0.2777(8) 0.5881(8) 0.7942(7)
C86? C 0.4467(10) 0.5101(9) 0.8514(10)
C87? C 0.6359(8) 0.5363(9) 0.7874(10)
C88? C 0.6172(7) 0.7899(10) 0.7739(7)
C89? C 0.3980(15) 0.731(2) 0.9578(7)
C90? C 0.3495(8) 0.9095(13) 0.9024(9)
C91? C 0.2185(8) 0.8392(10) 0.9172(6)
C92? C 0.1566(10) 0.7672(11) 0.8344(10)
C93? C 0.1723(5) 0.7111(6) 0.6816(5)
C94? C 0.4426(12) 0.4997(11) 0.6932(15)
C95? C 0.5823(8) 0.6679(12) 0.5412(7)
C96? C 0.6793(7) 0.6383(13) 0.6553(8)
C97? C 0.1708(5) 0.9825(6) 0.6559(8)
C98? C 0.5294(8) 0.9189(9) 0.6643(8)
C99? C 0.579(2) 0.7779(19) 0.5578(17)
C100? C 0.4965(7) 0.8649(9) 0.5397(6)
C101? C 0.3015(6) 0.9664(7) 0.5070(5)
C102? C 0.4508(9) 0.6023(10) 0.5573(9)
C103? C 0.3620(7) 1.0202(8) 0.6056(8)
C104? C 0.1095(6) 0.8823(7) 0.8023(5)
C105? C 0.1680(8) 0.8188(10) 0.6549(11)
C106? C 0.3052(6) 0.7618(6) 0.5112(5)
C107? C 0.3668(10) 1.0065(9) 0.7604(10)
C108? C 0.1973(7) 1.0385(7) 0.7238(7)
C109? C 0.4031(6) 0.7764(9) 0.5019(4)
loop_
_geom_bond_atom_site_label_1
_geom_bond_atom_site_label_2
_geom_bond_site_symmetry_1
_geom_bond_site_symmetry_2
Cl1 C59 1_555 1_555
O1 C60 1_555 1_555
O2 C54 1_555 1_555
O3 C52 1_555 1_555
O4 C46 1_555 1_555
O5 O6 1_555 1_555
O6 C65 1_555 1_555
O7 O8 1_555 1_555
O8 C61 1_555 1_555
O9 O10 1_555 1_555
O10 C69 1_555 1_555
C1 C2 1_555 1_555
C2 C3 1_555 1_555
C3 C4 1_555 1_555
C4 C5 1_555 1_555
C5 C6 1_555 1_555
C6 C1 1_555 1_555
C7 C1 1_555 1_555
C8 C7 1_555 1_555
C9 C8 1_555 1_555
C10 C2 1_555 1_555
C11 C10 1_555 1_555
C12 C3 1_555 1_555
C13 C12 1_555 1_555
C14 C13 1_555 1_555
C15 C4 1_555 1_555
C16 C15 1_555 1_555
C17 C5 1_555 1_555
C18 C17 1_555 1_555
C19 C18 1_555 1_555
C20 C6 1_555 1_555
C21 C7 1_555 1_555
C22 C19 1_555 1_555
C23 C22 1_555 1_555
C24 C21 1_555 1_555
C25 C24 1_555 1_555
C26 C8 1_555 1_555
C27 O9 1_555 1_555
C28 C9 1_555 1_555
C29 C28 1_555 1_555
C30 C11 1_555 1_555
C31 C30 1_555 1_555
C32 C13 1_555 1_555
C33 C32 1_555 1_555
C34 C14 1_555 1_555
C35 C34 1_555 1_555
C36 C16 1_555 1_555
C37 C36 1_555 1_555
C38 C18 1_555 1_555
C39 C37 1_555 1_555
C40 C35 1_555 1_555
C41 C40 1_555 1_555
C42 C33 1_555 1_555
C43 C39 1_555 1_555
C44 C43 1_555 1_555
C45 C41 1_555 1_555
C46 C42 1_555 1_555
C47 C31 1_555 1_555
C48 O5 1_555 1_555
C49 O7 1_555 1_555
C50 C49 1_555 1_555
C51 C27 1_555 1_555
C52 C48 1_555 1_555
C53 O3 1_555 1_555
C54 C50 1_555 1_555
C55 C23 1_555 1_555
C56 C55 1_555 1_555
C57 C43 1_555 1_555
C58 C22 1_555 1_555
C59 C44 1_555 1_555
C60 O4 1_555 1_555
C61 C62 1_555 1_555
C62 H1 1_555 1_555
H2 C62 1_555 1_555
H3 C62 1_555 1_555
C63 C61 1_555 1_555
H4 C63 1_555 1_555
H5 C63 1_555 1_555
H6 C63 1_555 1_555
C64 C61 1_555 1_555
H7 C64 1_555 1_555
H8 C64 1_555 1_555
H9 C64 1_555 1_555
C65 C66 1_555 1_555
C66 H10 1_555 1_555
H11 C66 1_555 1_555
H12 C66 1_555 1_555
C67 C65 1_555 1_555
H13 C67 1_555 1_555
H14 C67 1_555 1_555
H15 C67 1_555 1_555
C68 C65 1_555 1_555
H16 C68 1_555 1_555
H17 C68 1_555 1_555
H18 C68 1_555 1_555
C69 C70 1_555 1_555
C70 H19 1_555 1_555
H20 C70 1_555 1_555
H21 C70 1_555 1_555
C71 C69 1_555 1_555
H22 C71 1_555 1_555
H23 C71 1_555 1_555
H24 C71 1_555 1_555
C72 C69 1_555 1_555
H25 C72 1_555 1_555
H26 C72 1_555 1_555
H27 C72 1_555 1_555
O11 H28 1_555 1_555
H29 O11 1_555 1_555
C73 H30 1_555 1_555
C74 C73 1_555 1_555
H31 C74 1_555 1_555
C75 C74 1_555 1_555
H32 C75 1_555 1_555
C76 C75 1_555 1_555
H33 C76 1_555 1_555
C77 C76 1_555 1_555
H34 C77 1_555 1_555
C78 C73 1_555 1_555
H35 C78 1_555 1_555
C79 H36 1_555 1_555
C80 C79 1_555 1_555
H37 C80 1_555 1_555
C81 C79 1_555 1_555
H38 C81 1_555 1_555
C79A H36A 1_555 1_555
C80A C81 1_555 1_555
H37A C80A 1_555 1_555
C81A C80 1_555 1_555
H38A C81A 1_555 1_555
C9 C10 1_555 1_555
C11 C12 1_555 1_555
C14 C15 1_555 1_555
C16 C17 1_555 1_555
C19 C20 1_555 1_555
C20 C21 1_555 1_555
C23 C24 1_555 1_555
C25 C26 1_555 1_555
C25 C49 1_555 1_555
C26 C27 1_555 1_555
C27 C28 1_555 1_555
C29 C30 1_555 1_555
C29 C48 1_555 1_555
C31 C32 1_555 1_555
C33 C34 1_555 1_555
C35 C36 1_555 1_555
C37 C38 1_555 1_555
C38 C58 1_555 1_555
C39 C40 1_555 1_555
C41 C42 1_555 1_555
C44 C45 1_555 1_555
C45 C60 1_555 1_555
C46 C47 1_555 1_555
C47 C48 1_555 1_555
C49 C55 1_555 1_555
C50 C51 1_555 1_555
C51 C52 1_555 1_555
C52 C53 1_555 1_555
C53 C54 1_555 1_555
C53 C60 1_555 1_555
C54 C59 1_555 1_555
C56 C57 1_555 1_555
C56 C59 1_555 1_555
C57 C58 1_555 1_555
C77 C78 1_555 1_555
C79A C80A 1_555 1_555
C79A C81A 1_555 1_555

#END
