
#######################################################################
#
#                 Cambridge Crystallographic Data Centre
#                                CCDC 
#
#######################################################################
#
# If this CIF has been generated from an entry in the Cambridge 
# Structural Database, then it will include bibliographic, chemical, 
# crystal, experimental, refinement or atomic coordinate data resulting 
# from the CCDC's data processing and validation procedures.
#
#######################################################################

data_DATXUT
_chemical_name_common            
1,6:3,4-bis(2-oxapropylene)tetrahydro-3a,6a-propanoimidazo[4,5-d]imidazol-2,5(1H,3H)-dione
_chemical_formula_moiety         'C11 H14 N4 O4'
_chemical_name_systematic        
3,9-Dioxa-1,5,7,11-tetraazapentacyclo[9.5.1.0^5,16^.0^7,12^.0^12,16^]heptadecane-6,17-dione
_symmetry_cell_setting           orthorhombic
_symmetry_space_group_name_H-M   'P n m a'
_symmetry_Int_Tables_number      62
_space_group_name_Hall           '-P 2ac 2n'
loop_
_symmetry_equiv_pos_site_id
_symmetry_equiv_pos_as_xyz
1 x,y,z
2 1/2-x,-y,1/2+z
3 1/2+x,1/2-y,1/2-z
4 -x,1/2+y,-z
5 -x,-y,-z
6 1/2+x,y,1/2-z
7 1/2-x,1/2+y,1/2+z
8 x,1/2-y,z
_cell_length_a                   12.4218(7)
_cell_length_b                   11.3954(7)
_cell_length_c                   8.1359(5)
_cell_angle_alpha                90
_cell_angle_beta                 90
_cell_angle_gamma                90
_cell_volume                     1151.65
_cell_formula_units_Z            4
loop_
_atom_site_label
_atom_site_type_symbol
_atom_site_fract_x
_atom_site_fract_y
_atom_site_fract_z
C1 C 0.17569(11) 0.09941(12) 0.16298(17)
C2 C 0.25343(15) 0.2500 0.0060(2)
C3 C 0.30405(15) 0.2500 0.1798(2)
C4 C 0.09473(12) 0.14735(14) -0.10599(19)
H1 H 0.0507 0.0781 -0.0889
H2 H 0.1204 0.1462 -0.2186
C5 C 0.25230(12) 0.14695(13) 0.43468(18)
H3 H 0.3242 0.1449 0.4811
H4 H 0.2139 0.0780 0.4726
C6 C 0.34747(17) 0.2500 -0.1156(3)
C7 C 0.4370(2) 0.3120(3) -0.0129(4)
H6 H 0.4248 0.3999 -0.0054
C8 C 0.42606(17) 0.2500 0.1554(3)
N1 N 0.18590(9) 0.14470(10) 0.00550(14)
N2 N 0.25930(9) 0.14471(10) 0.25705(15)
O1 O 0.11015(9) 0.02699(9) 0.20742(13)
O2 O 0.03109(12) 0.2500 -0.07991(19)
O3 O 0.19780(12) 0.2500 0.49009(17)
C1G C 0.17569(11) 0.40059(12) 0.16298(17)
C4G C 0.09473(12) 0.35265(14) -0.10599(19)
H1G H 0.0507 0.4219 -0.0889
H2G H 0.1204 0.3538 -0.2186
C5G C 0.25230(12) 0.35305(13) 0.43468(18)
H3G H 0.3242 0.3551 0.4811
H4G H 0.2139 0.4220 0.4726
C7G C 0.4370(2) 0.1880(3) -0.0129(4)
H6G H 0.4248 0.1001 -0.0054
N1G N 0.18590(9) 0.35530(10) 0.00550(14)
N2G N 0.25930(9) 0.35529(10) 0.25705(15)
O1G O 0.11015(9) 0.47301(9) 0.20742(13)
H5? H 0.3400 0.1901 -0.1950
H7? H 0.5061 0.2881 -0.0596
H8? H 0.4596 0.1967 0.2302
loop_
_geom_bond_atom_site_label_1
_geom_bond_atom_site_label_2
_geom_bond_site_symmetry_1
_geom_bond_site_symmetry_2
C1 N1 1_555 1_555
C2 C3 1_555 1_555
C3 C8 1_555 1_555
C4 H1 1_555 1_555
H2 C4 1_555 1_555
C5 H3 1_555 1_555
H4 C5 1_555 1_555
C6 C2 1_555 1_555
C7 C6 1_555 1_555
H6 C7 1_555 1_555
C8 C7 1_555 1_555
N1 C2 1_555 1_555
N2 C1 1_555 1_555
O1 C1 1_555 1_555
O2 C4 1_555 1_555
O3 C5 1_555 1_555
C1G N1G 1_555 1_555
C4G O2 1_555 1_555
H1G C4G 1_555 1_555
H2G C4G 1_555 1_555
C5G O3 1_555 1_555
H3G C5G 1_555 1_555
H4G C5G 1_555 1_555
C7G C6 1_555 1_555
H6G C7G 1_555 1_555
N1G C2 1_555 1_555
N2G C3 1_555 1_555
O1G C1G 1_555 1_555
C3 N2 1_555 1_555
C4 N1 1_555 1_555
C5 N2 1_555 1_555
C7 C7G 1_555 1_555
C8 C7G 1_555 1_555
C1G N2G 1_555 1_555
C4G N1G 1_555 1_555
C5G N2G 1_555 1_555

#END
