
#######################################################################
#
#                 Cambridge Crystallographic Data Centre
#                                CCDC 
#
#######################################################################
#
# If this CIF has been generated from an entry in the Cambridge 
# Structural Database, then it will include bibliographic, chemical, 
# crystal, experimental, refinement or atomic coordinate data resulting 
# from the CCDC's data processing and validation procedures.
#
#######################################################################

data_DATYAA
_chemical_name_common            cycpgly3
_chemical_formula_moiety         'C13 H18 N4 O6'
_chemical_name_systematic        
3,5,11,13-Tetraoxa-1,7,9,15-tetraazapentacyclo[13.5.1.0^7,20^.0^9,16^.0^16,20^]henicosane-8,21-dione
_symmetry_cell_setting           orthorhombic
_symmetry_space_group_name_H-M   'P n n 2'
_symmetry_Int_Tables_number      34
_space_group_name_Hall           'P 2 -2n'
loop_
_symmetry_equiv_pos_site_id
_symmetry_equiv_pos_as_xyz
1 x,y,z
2 -x,-y,z
3 1/2-x,1/2+y,1/2+z
4 1/2+x,1/2-y,1/2+z
_cell_length_a                   10.0897(8)
_cell_length_b                   10.5987(9)
_cell_length_c                   6.5148(5)
_cell_angle_alpha                90
_cell_angle_beta                 90
_cell_angle_gamma                90
_cell_volume                     696.678
_cell_formula_units_Z            2
loop_
_atom_site_label
_atom_site_type_symbol
_atom_site_fract_x
_atom_site_fract_y
_atom_site_fract_z
C1 C 0.44286(18) -0.16901(16) 0.1645(3)
C2 C 0.6794(2) -0.22005(16) 0.1896(3)
H1 H 0.7414 -0.2165 0.3033
H2 H 0.6500 -0.3068 0.1759
C3 C 0.8560(2) -0.1037(2) 0.0296(4)
H3 H 0.9206 -0.1239 -0.0757
H4 H 0.8969 -0.1199 0.1617
C4 C 0.78169(18) 0.08355(18) 0.1974(4)
H5 H 0.8071 0.1718 0.1931
H6 H 0.8268 0.0452 0.3131
C5 C 0.57404(16) -0.02229(15) 0.3454(2)
C6 C 0.6147(2) -0.03264(18) 0.5719(3)
C7 C 0.5087(5) 0.0475(4) 0.6839(6)
N1 N 0.56720(15) -0.14237(13) 0.2368(2)
N2 N 0.64099(15) 0.07563(14) 0.2309(3)
O1 O 0.41252(15) -0.26208(13) 0.0640(3)
O2 O 0.74649(16) -0.18418(14) 0.0070(3)
O3 O 0.82507(16) 0.02490(13) 0.0165(3)
C1A C 0.55714(18) 0.16901(16) 0.1645(3)
C2A C 0.3206(2) 0.22005(16) 0.1896(3)
H1A H 0.2586 0.2165 0.3033
H2A H 0.3500 0.3068 0.1759
C3A C 0.1440(2) 0.1037(2) 0.0296(4)
H3A H 0.0794 0.1239 -0.0757
H4A H 0.1031 0.1199 0.1617
C4A C 0.21831(18) -0.08355(18) 0.1974(4)
H5A H 0.1929 -0.1718 0.1931
H6A H 0.1732 -0.0452 0.3131
C5A C 0.42596(16) 0.02229(15) 0.3454(2)
C6A C 0.3853(2) 0.03264(18) 0.5719(3)
C7A C 0.4913(5) -0.0475(4) 0.6839(6)
N1A N 0.43280(15) 0.14237(13) 0.2368(2)
N2A N 0.35901(15) -0.07563(14) 0.2309(3)
O1A O 0.58748(15) 0.26208(13) 0.0640(3)
O2A O 0.25351(16) 0.18418(14) 0.0070(3)
O3A O 0.17493(16) -0.02490(13) 0.0165(3)
loop_
_geom_bond_atom_site_label_1
_geom_bond_atom_site_label_2
_geom_bond_site_symmetry_1
_geom_bond_site_symmetry_2
C1 N1 1_555 1_555
C2 H1 1_555 1_555
H2 C2 1_555 1_555
C3 H3 1_555 1_555
H4 C3 1_555 1_555
C4 H5 1_555 1_555
H6 C4 1_555 1_555
C5 C6 1_555 1_555
C6 C7 1_555 1_555
C7 C6A 1_555 1_555
N1 C2 1_555 1_555
N2 C4 1_555 1_555
O1 C1 1_555 1_555
O2 C2 1_555 1_555
O3 C3 1_555 1_555
C1A N2 1_555 1_555
C2A H1A 1_555 1_555
H2A C2A 1_555 1_555
C3A H3A 1_555 1_555
H4A C3A 1_555 1_555
C4A H5A 1_555 1_555
H6A C4A 1_555 1_555
C5A C5 1_555 1_555
C6A C5A 1_555 1_555
C7A C6 1_555 1_555
N1A C1A 1_555 1_555
N2A C1 1_555 1_555
O1A C1A 1_555 1_555
O2A C2A 1_555 1_555
O3A C3A 1_555 1_555
C3 O2 1_555 1_555
C4 O3 1_555 1_555
C5 N1 1_555 1_555
C5 N2 1_555 1_555
C7 C7A 1_555 1_555
C2A N1A 1_555 1_555
C3A O2A 1_555 1_555
C4A N2A 1_555 1_555
C4A O3A 1_555 1_555
C5A N1A 1_555 1_555
C5A N2A 1_555 1_555
C6A C7A 1_555 1_555

#END
