
#######################################################################
#
#                 Cambridge Crystallographic Data Centre
#                                CCDC 
#
#######################################################################
#
# If this CIF has been generated from an entry in the Cambridge 
# Structural Database, then it will include bibliographic, chemical, 
# crystal, experimental, refinement or atomic coordinate data resulting 
# from the CCDC's data processing and validation procedures.
#
#######################################################################

data_DATYOO
_chemical_formula_moiety         'C54 H60 N24 O12,C4 H8 O2,16.5(H2 O1)'
_chemical_name_systematic        
'Cyclopentanocucurbit[6]uril 1,4-dioxane hydrate'
_symmetry_cell_setting           monoclinic
_symmetry_space_group_name_H-M   'P 21/c'
_symmetry_Int_Tables_number      14
_space_group_name_Hall           '-P 2ybc'
loop_
_symmetry_equiv_pos_site_id
_symmetry_equiv_pos_as_xyz
1 x,y,z
2 -x,1/2+y,1/2-z
3 -x,-y,-z
4 x,1/2-y,1/2+z
_cell_length_a                   12.6912(5)
_cell_length_b                   12.5739(5)
_cell_length_c                   23.0762(10)
_cell_angle_alpha                90
_cell_angle_beta                 98.670(2)
_cell_angle_gamma                90
_cell_volume                     3640.37
_exptl_crystal_colour            colorless
_exptl_crystal_description       block
_cell_formula_units_Z            2
loop_
_atom_site_label
_atom_site_type_symbol
_atom_site_fract_x
_atom_site_fract_y
_atom_site_fract_z
C1 C 0.35241(19) 0.2087(2) -0.15327(10)
C2 C 0.48277(19) 0.3414(2) -0.12909(10)
C3 C 0.38192(19) 0.3686(2) -0.09991(10)
C4 C 0.5310(2) 0.34934(19) -0.02687(10)
C5 C 0.20236(19) 0.2698(2) -0.10514(10)
H1 H 0.1621 0.2260 -0.1352
H2 H 0.1702 0.3400 -0.1078
C6 C 0.3648(2) 0.4030(2) 0.00776(10)
H3 H 0.3144 0.4579 -0.0074
H4 H 0.4140 0.4337 0.0396
C7 C 0.16019(19) 0.1221(2) -0.04260(10)
C8 C 0.2007(2) 0.2846(2) 0.00651(10)
C9 C 0.1728(2) 0.1989(2) 0.05139(10)
C10 C 0.3422(2) 0.2710(2) 0.08394(10)
C11 C 0.11768(19) 0.0025(2) 0.03482(11)
H5 H 0.0861 -0.0375 0.0006
H6 H 0.0620 0.0158 0.0584
C12 C 0.2793(2) 0.1406(2) 0.15070(10)
H7 H 0.3340 0.1759 0.1779
H8 H 0.2126 0.1479 0.1660
C13 C 0.22775(19) -0.1579(2) 0.04634(10)
C14 C 0.22838(19) -0.0548(2) 0.13162(10)
C15 C 0.29298(19) -0.1598(2) 0.14734(10)
C16 C 0.40532(19) -0.0114(2) 0.17019(9)
C17 C 0.51514(19) 0.1870(2) -0.19845(10)
H9 H 0.5462 0.2397 -0.2216
H10 H 0.4678 0.1429 -0.2254
C18 C 0.6786(2) 0.3217(2) -0.08313(11)
H11 H 0.6936 0.3653 -0.1156
H12 H 0.7186 0.3506 -0.0475
C19 C 0.4959(2) 0.4348(2) -0.17023(11)
H13 H 0.5433 0.4884 -0.1506
H14 H 0.5235 0.4108 -0.2050
C20 C 0.3831(2) 0.4774(2) -0.18571(11)
H15 H 0.3409 0.4326 -0.2146
H16 H 0.3834 0.5493 -0.2009
C21 C 0.3398(2) 0.4750(2) -0.12715(11)
H17 H 0.2625 0.4767 -0.1333
H18 H 0.3667 0.5344 -0.1025
C22 C 0.1156(2) 0.3724(2) 0.00557(12)
H19 H 0.1404 0.4292 0.0327
H20 H 0.0969 0.4019 -0.0335
C23 C 0.0214(2) 0.3140(3) 0.02467(13)
H21 H -0.0170 0.2735 -0.0075
H22 H -0.0274 0.3636 0.0389
C24 C 0.0724(2) 0.2402(2) 0.07390(12)
H23 H 0.0249 0.1822 0.0799
H24 H 0.0908 0.2789 0.1104
C25 C 0.1346(2) -0.0597(2) 0.16655(12)
H25 H 0.1505 -0.0205 0.2030
H26 H 0.0703 -0.0309 0.1439
C26 C 0.1223(3) -0.1761(4) 0.17794(19)
H27 H 0.0845 -0.2115 0.1436
H28 H 0.0837 -0.1873 0.2107
C27 C 0.2361(2) -0.2174(2) 0.19219(12)
H29 H 0.2670 -0.1990 0.2320
H30 H 0.2391 -0.2939 0.1874
N1 N 0.45245(16) 0.24166(17) -0.16009(8)
N2 N 0.31053(16) 0.27901(17) -0.11745(8)
N3 N 0.56597(16) 0.32920(17) -0.07936(8)
N4 N 0.42383(17) 0.37098(17) -0.03806(8)
N5 N 0.19245(17) 0.22489(17) -0.04831(8)
N6 N 0.15410(17) 0.10316(17) 0.01553(9)
N7 N 0.30724(17) 0.31694(17) 0.03076(8)
N8 N 0.26955(17) 0.19492(17) 0.09454(8)
N9 N 0.19838(16) -0.06264(17) 0.06831(8)
N10 N 0.30553(16) 0.02840(17) 0.14894(8)
N11 N 0.60015(16) 0.12058(17) -0.16871(8)
N12 N 0.71530(17) 0.21455(17) -0.09128(9)
O1 O 0.30602(14) 0.13109(15) -0.17702(8)
O2 O 0.13661(15) 0.05848(16) -0.08227(8)
O4 O 0.20383(15) -0.18737(16) -0.00432(8)
O6 O 0.58662(15) 0.35209(15) 0.02099(7)
O8 O 0.42264(15) 0.29503(16) 0.11706(8)
O10 O 0.48331(14) 0.04149(15) 0.18877(7)
C1B C 0.64759(19) -0.2087(2) 0.15327(10)
C2B C 0.51723(19) -0.3414(2) 0.12909(10)
C3B C 0.61808(19) -0.3686(2) 0.09991(10)
C4B C 0.4690(2) -0.34934(19) 0.02687(10)
C5B C 0.79764(19) -0.2698(2) 0.10514(10)
H1B H 0.8379 -0.2260 0.1352
H2B H 0.8298 -0.3400 0.1078
C6B C 0.6352(2) -0.4030(2) -0.00776(10)
H3B H 0.6856 -0.4579 0.0074
H4B H 0.5860 -0.4337 -0.0396
C7B C 0.83981(19) -0.1221(2) 0.04260(10)
C8B C 0.7993(2) -0.2846(2) -0.00651(10)
C9B C 0.8272(2) -0.1989(2) -0.05139(10)
C10B C 0.6578(2) -0.2710(2) -0.08394(10)
C11B C 0.88232(19) -0.0025(2) -0.03482(11)
H5B H 0.9139 0.0375 -0.0006
H6B H 0.9380 -0.0158 -0.0584
C12B C 0.7207(2) -0.1406(2) -0.15070(10)
H7B H 0.6660 -0.1759 -0.1779
H8B H 0.7874 -0.1479 -0.1660
C13B C 0.77225(19) 0.1579(2) -0.04634(10)
C14B C 0.77162(19) 0.0548(2) -0.13162(10)
C15B C 0.70702(19) 0.1598(2) -0.14734(10)
C16B C 0.59468(19) 0.0114(2) -0.17019(9)
C17B C 0.48486(19) -0.1870(2) 0.19845(10)
H9B H 0.4538 -0.2397 0.2216
H10B H 0.5322 -0.1429 0.2254
C18B C 0.3214(2) -0.3217(2) 0.08313(11)
H11B H 0.3064 -0.3653 0.1156
H12B H 0.2814 -0.3506 0.0475
C19B C 0.5041(2) -0.4348(2) 0.17023(11)
H13B H 0.4567 -0.4884 0.1506
H14B H 0.4765 -0.4108 0.2050
C20B C 0.6169(2) -0.4774(2) 0.18571(11)
H15B H 0.6591 -0.4326 0.2146
H16B H 0.6166 -0.5493 0.2009
C21B C 0.6602(2) -0.4750(2) 0.12715(11)
H17B H 0.7375 -0.4767 0.1333
H18B H 0.6333 -0.5344 0.1025
C22B C 0.8844(2) -0.3724(2) -0.00557(12)
H19B H 0.8596 -0.4292 -0.0327
H20B H 0.9031 -0.4019 0.0335
C23B C 0.9786(2) -0.3140(3) -0.02467(13)
H21B H 1.0170 -0.2735 0.0075
H22B H 1.0274 -0.3636 -0.0389
C24B C 0.9276(2) -0.2402(2) -0.07390(12)
H23B H 0.9751 -0.1822 -0.0799
H24B H 0.9092 -0.2789 -0.1104
C25B C 0.8654(2) 0.0597(2) -0.16655(12)
H25B H 0.8495 0.0205 -0.2030
H26B H 0.9297 0.0309 -0.1439
C26B C 0.8777(3) 0.1761(4) -0.17794(19)
H27B H 0.9155 0.2115 -0.1436
H28B H 0.9163 0.1873 -0.2107
C27B C 0.7639(2) 0.2174(2) -0.19219(12)
H29B H 0.7330 0.1990 -0.2320
H30B H 0.7609 0.2939 -0.1874
N1B N 0.54755(16) -0.24166(17) 0.16009(8)
N2B N 0.68947(16) -0.27901(17) 0.11745(8)
N3B N 0.43403(16) -0.32920(17) 0.07936(8)
N4B N 0.57617(17) -0.37098(17) 0.03806(8)
N5B N 0.80755(17) -0.22489(17) 0.04831(8)
N6B N 0.84590(17) -0.10316(17) -0.01553(9)
N7B N 0.69276(17) -0.31694(17) -0.03076(8)
N8B N 0.73045(17) -0.19492(17) -0.09454(8)
N9B N 0.80162(16) 0.06264(17) -0.06831(8)
N10B N 0.69447(16) -0.02840(17) -0.14894(8)
N11B N 0.39985(16) -0.12058(17) 0.16871(8)
N12B N 0.28470(17) -0.21455(17) 0.09128(9)
O1B O 0.69398(14) -0.13109(15) 0.17702(8)
O2B O 0.86339(15) -0.05848(16) 0.08227(8)
O4B O 0.79617(15) 0.18737(16) 0.00432(8)
O6B O 0.41338(15) -0.35209(15) -0.02099(7)
O8B O 0.57736(15) -0.29503(16) -0.11706(8)
O10B O 0.51669(14) -0.04149(15) -0.18877(7)
C28 C 0.4692(5) 0.4014(3) 0.4741(2)
H31 H 0.4184 0.3432 0.4708
H32 H 0.5214 0.3866 0.4485
C29 C 0.5198(7) 0.4106(5) 0.5321(3)
H33 H 0.4660 0.4120 0.5578
H34 H 0.5636 0.3481 0.5419
O12 O 0.4158(5) 0.4981(7) 0.4573(3)
C28B C 0.5308(5) 0.5986(3) 0.5259(2)
H31B H 0.5816 0.6568 0.5292
H32B H 0.4786 0.6134 0.5515
C29B C 0.4802(7) 0.5894(5) 0.4679(3)
H33B H 0.5340 0.5880 0.4422
H34B H 0.4364 0.6519 0.4581
O12B O 0.5842(5) 0.5019(7) 0.5427(3)
O3 O 0.62604(18) 0.2465(2) 0.17046(10)
H35 H 0.5592 0.2546 0.1495
H36 H 0.6377 0.1781 0.1847
O5 O 0.8043(2) 0.2801(2) 0.11762(10)
H37 H 0.7384 0.2742 0.1306
H38 H 0.7865 0.2675 0.0792
O7 O 0.2846(2) 0.5596(2) 0.26059(14)
H39 H 0.3155 0.5041 0.2778
H40 H 0.2572 0.5204 0.2279
O9 O 0.1198(2) 0.5899(2) 0.32668(11)
H41 H 0.1347 0.5410 0.3540
H42 H 0.1493 0.6581 0.3506
O11 O 0.0494(3) 0.1066(3) 0.26863(14)
H48 H 0.066(4) 0.167(4) 0.2583(19)
H50 H -0.004(5) 0.108(5) 0.237(3)
O13 O 0.1287(3) 0.3004(3) 0.23863(16)
H47 H 0.096(2) 0.339(2) 0.2598(12)
H49 H 0.188(6) 0.340(5) 0.270(3)
O15 O 0.1902(5) 0.4861(4) 0.1458(2)
H45 H 0.1580 0.4400 0.1546
H46 H 0.2287 0.5046 0.1827
O16 O 0.988(3) 0.558(2) 0.1392(18)
H51 H 1.043(2) 0.588(2) 0.1222(12)
O14? O 0.9652(3) 0.4219(5) 0.1668(3)
H43? H 0.9377 0.4859 0.1859
H44? H 0.9046 0.3779 0.1516
H52? H 0.9378(17) 0.482(2) 0.1341(9)
loop_
_geom_bond_atom_site_label_1
_geom_bond_atom_site_label_2
_geom_bond_site_symmetry_1
_geom_bond_site_symmetry_2
C1 N1 1_555 1_555
C2 C3 1_555 1_555
C3 C21 1_555 1_555
C4 N3 1_555 1_555
C5 H1 1_555 1_555
H2 C5 1_555 1_555
C6 H3 1_555 1_555
H4 C6 1_555 1_555
C7 N5 1_555 1_555
C8 C9 1_555 1_555
C9 C24 1_555 1_555
C10 N7 1_555 1_555
C11 H5 1_555 1_555
H6 C11 1_555 1_555
C12 H7 1_555 1_555
H8 C12 1_555 1_555
C13 N9 1_555 1_555
C14 C15 1_555 1_555
C15 C27 1_555 1_555
C16 N10 1_555 1_555
C17 H9 1_555 1_555
H10 C17 1_555 1_555
C18 H11 1_555 1_555
H12 C18 1_555 1_555
C19 C2 1_555 1_555
H13 C19 1_555 1_555
H14 C19 1_555 1_555
C20 C19 1_555 1_555
H15 C20 1_555 1_555
H16 C20 1_555 1_555
C21 C20 1_555 1_555
H17 C21 1_555 1_555
H18 C21 1_555 1_555
C22 C8 1_555 1_555
H19 C22 1_555 1_555
H20 C22 1_555 1_555
C23 C22 1_555 1_555
H21 C23 1_555 1_555
H22 C23 1_555 1_555
C24 C23 1_555 1_555
H23 C24 1_555 1_555
H24 C24 1_555 1_555
C25 C14 1_555 1_555
H25 C25 1_555 1_555
H26 C25 1_555 1_555
C26 C25 1_555 1_555
H27 C26 1_555 1_555
H28 C26 1_555 1_555
C27 C26 1_555 1_555
H29 C27 1_555 1_555
H30 C27 1_555 1_555
C28 H31 1_555 1_555
H32 C28 1_555 1_555
C29 C28 1_555 1_555
H33 C29 1_555 1_555
H34 C29 1_555 1_555
N1 C2 1_555 1_555
N2 C1 1_555 1_555
N3 C2 1_555 1_555
N4 C3 1_555 1_555
N5 C5 1_555 1_555
N6 C7 1_555 1_555
N7 C6 1_555 1_555
N8 C9 1_555 1_555
N9 C11 1_555 1_555
N10 C12 1_555 1_555
N11 C17 1_555 1_555
N12 C18 1_555 1_555
O1 C1 1_555 1_555
O2 C7 1_555 1_555
O3 H35 1_555 1_555
H36 O3 1_555 1_555
O4 C13 1_555 1_555
O5 H37 1_555 1_555
H38 O5 1_555 1_555
O6 C4 1_555 1_555
O7 H39 1_555 1_555
H40 O7 1_555 1_555
O8 C10 1_555 1_555
O9 H41 1_555 1_555
H42 O9 1_555 1_555
O10 C16 1_555 1_555
O11 H48 1_555 1_555
O12 C28 1_555 1_555
O13 H47 1_555 1_555
O15 H45 1_555 1_555
H46 O15 1_555 1_555
O16 H51 1_555 1_555
H49 O13 1_555 1_555
H50 O11 1_555 1_555
C1B N1B 1_555 1_555
C2B C3B 1_555 1_555
C3B C21B 1_555 1_555
C4B N3B 1_555 1_555
C5B H1B 1_555 1_555
H2B C5B 1_555 1_555
C6B H3B 1_555 1_555
H4B C6B 1_555 1_555
C7B N5B 1_555 1_555
C8B C9B 1_555 1_555
C9B C24B 1_555 1_555
C10B N7B 1_555 1_555
C11B H5B 1_555 1_555
H6B C11B 1_555 1_555
C12B H7B 1_555 1_555
H8B C12B 1_555 1_555
C13B N12 1_555 1_555
C14B C15B 1_555 1_555
C15B N11 1_555 1_555
C16B N11 1_555 1_555
C17B H9B 1_555 1_555
H10B C17B 1_555 1_555
C18B H11B 1_555 1_555
H12B C18B 1_555 1_555
C19B C2B 1_555 1_555
H13B C19B 1_555 1_555
H14B C19B 1_555 1_555
C20B C19B 1_555 1_555
H15B C20B 1_555 1_555
H16B C20B 1_555 1_555
C21B C20B 1_555 1_555
H17B C21B 1_555 1_555
H18B C21B 1_555 1_555
C22B C8B 1_555 1_555
H19B C22B 1_555 1_555
H20B C22B 1_555 1_555
C23B C22B 1_555 1_555
H21B C23B 1_555 1_555
H22B C23B 1_555 1_555
C24B C23B 1_555 1_555
H23B C24B 1_555 1_555
H24B C24B 1_555 1_555
C25B C14B 1_555 1_555
H25B C25B 1_555 1_555
H26B C25B 1_555 1_555
C26B C25B 1_555 1_555
H27B C26B 1_555 1_555
H28B C26B 1_555 1_555
C27B C15B 1_555 1_555
H29B C27B 1_555 1_555
H30B C27B 1_555 1_555
C28B H31B 1_555 1_555
H32B C28B 1_555 1_555
C29B O12 1_555 1_555
H33B C29B 1_555 1_555
H34B C29B 1_555 1_555
N1B C2B 1_555 1_555
N2B C1B 1_555 1_555
N3B C2B 1_555 1_555
N4B C3B 1_555 1_555
N5B C5B 1_555 1_555
N6B C7B 1_555 1_555
N7B C6B 1_555 1_555
N8B C9B 1_555 1_555
N9B C11B 1_555 1_555
N10B C12B 1_555 1_555
N11B C15 1_555 1_555
N12B C13 1_555 1_555
O1B C1B 1_555 1_555
O2B C7B 1_555 1_555
O4B C13B 1_555 1_555
O6B C4B 1_555 1_555
O8B C10B 1_555 1_555
O10B C16B 1_555 1_555
O12B C29 1_555 1_555
C3 N2 1_555 1_555
C4 N4 1_555 1_555
C5 N2 1_555 1_555
C6 N4 1_555 1_555
C8 N5 1_555 1_555
C8 N7 1_555 1_555
C9 N6 1_555 1_555
C10 N8 1_555 1_555
C11 N6 1_555 1_555
C12 N8 1_555 1_555
C14 N9 1_555 1_555
C14 N10 1_555 1_555
C15 N12B 1_555 1_555
C16 N11B 1_555 1_555
C17 N1 1_555 1_555
C18 N3 1_555 1_555
N12 C15B 1_555 1_555
C3B N2B 1_555 1_555
C4B N4B 1_555 1_555
C5B N2B 1_555 1_555
C6B N4B 1_555 1_555
C8B N5B 1_555 1_555
C8B N7B 1_555 1_555
C9B N6B 1_555 1_555
C10B N8B 1_555 1_555
C11B N6B 1_555 1_555
C12B N8B 1_555 1_555
C13B N9B 1_555 1_555
C14B N9B 1_555 1_555
C14B N10B 1_555 1_555
C16B N10B 1_555 1_555
C17B N1B 1_555 1_555
C17B N11B 1_555 1_555
C18B N3B 1_555 1_555
C18B N12B 1_555 1_555
C26B C27B 1_555 1_555
C28B C29B 1_555 1_555
C28B O12B 1_555 1_555

#END
