
#######################################################################
#
#                 Cambridge Crystallographic Data Centre
#                                CCDC 
#
#######################################################################
#
# If this CIF has been generated from an entry in the Cambridge 
# Structural Database, then it will include bibliographic, chemical, 
# crystal, experimental, refinement or atomic coordinate data resulting 
# from the CCDC's data processing and validation procedures.
#
#######################################################################

data_DAVPOF
_chemical_formula_moiety         'C8 H15 N3 S1'
_chemical_name_systematic        
syn,E-1-Cyclopentano-4-ethyl-3-thiosemicarbazone
_symmetry_cell_setting           tetragonal
_symmetry_space_group_name_H-M   'P 43'
_symmetry_Int_Tables_number      78
_space_group_name_Hall           'P 4cw'
loop_
_symmetry_equiv_pos_site_id
_symmetry_equiv_pos_as_xyz
1 x,y,z
2 -x,-y,1/2+z
3 -y,x,3/4+z
4 y,-x,1/4+z
_cell_length_a                   8.922(7)
_cell_length_b                   8.922(7)
_cell_length_c                   12.899(13)
_cell_angle_alpha                90
_cell_angle_beta                 90
_cell_angle_gamma                90
_cell_volume                     1026.79
_exptl_crystal_colour            'pale yellow'
_exptl_crystal_description       prism
_chemical_melting_point          148-150deg.C
_cell_formula_units_Z            4
_exptl_crystal_recrystallization_method ethanol
loop_
_atom_site_label
_atom_site_type_symbol
_atom_site_fract_x
_atom_site_fract_y
_atom_site_fract_z
S1 S 0.40658(12) 0.00629(13) 0.17705(9)
N1 N 0.0218(3) 0.2138(3) 0.1806(2)
N2 N 0.1439(3) 0.1305(3) 0.2093(2)
H1 H 0.1474 0.0903 0.2698
N3 N 0.2465(3) 0.1807(4) 0.0513(2)
H2 H 0.1661 0.2314 0.0404
C1 C -0.0820(4) 0.2355(4) 0.2461(3)
C2 C -0.0922(4) 0.1854(5) 0.3577(3)
H3 H -0.0024 0.2143 0.3950
H4 H -0.1021 0.0772 0.3612
C3 C -0.2309(13) 0.261(2) 0.4062(10)
H5 H -0.2822 0.1956 0.4545
H6 H -0.2053 0.3546 0.4406
C4 C -0.3228(14) 0.288(2) 0.3083(8)
H7 H -0.3811 0.1991 0.2922
H8 H -0.3915 0.3706 0.3192
C5 C -0.2182(5) 0.3236(6) 0.2189(4)
H9 H -0.2601 0.2912 0.1533
H10 H -0.1964 0.4300 0.2155
C6 C 0.2604(4) 0.1116(4) 0.1414(3)
C7 C 0.3585(6) 0.1765(6) -0.0306(4)
H11 H 0.3078 0.1725 -0.0970
H12 H 0.4169 0.0853 -0.0235
C8 C 0.4613(7) 0.3055(7) -0.0303(6)
H13 H 0.5318 0.2955 -0.0861
H14 H 0.5142 0.3090 0.0345
H15 H 0.4050 0.3963 -0.0391
H16? H -0.0282 0.2449 0.4024
H17? H -0.0671 0.0802 0.3653
C9? C -0.2599(14) 0.215(2) 0.379(2)
H18? H -0.3197 0.1294 0.3581
H19? H -0.2760 0.2318 0.4529
C10? C -0.304(2) 0.353(2) 0.3175(10)
H20? H -0.4110 0.3579 0.3054
H21? H -0.2709 0.4449 0.3510
H22? H -0.2800 0.2677 0.1707
H23? H -0.1898 0.4175 0.1865
loop_
_geom_bond_atom_site_label_1
_geom_bond_atom_site_label_2
_geom_bond_site_symmetry_1
_geom_bond_site_symmetry_2
S1 C6 1_555 1_555
N1 N2 1_555 1_555
N2 H1 1_555 1_555
N3 H2 1_555 1_555
C1 N1 1_555 1_555
C2 C1 1_555 1_555
H3 C2 1_555 1_555
H4 C2 1_555 1_555
C3 C2 1_555 1_555
H5 C3 1_555 1_555
H6 C3 1_555 1_555
C4 C3 1_555 1_555
H7 C4 1_555 1_555
H8 C4 1_555 1_555
C5 C1 1_555 1_555
H9 C5 1_555 1_555
H10 C5 1_555 1_555
C6 N2 1_555 1_555
C7 N3 1_555 1_555
H11 C7 1_555 1_555
H12 C7 1_555 1_555
C8 C7 1_555 1_555
H13 C8 1_555 1_555
H14 C8 1_555 1_555
H15 C8 1_555 1_555
N3 C6 1_555 1_555
C4 C5 1_555 1_555

#END
