
#######################################################################
#
#                 Cambridge Crystallographic Data Centre
#                                CCDC 
#
#######################################################################
#
# If this CIF has been generated from an entry in the Cambridge 
# Structural Database, then it will include bibliographic, chemical, 
# crystal, experimental, refinement or atomic coordinate data resulting 
# from the CCDC's data processing and validation procedures.
#
#######################################################################

data_DAVQAS
_chemical_formula_moiety         'C12 H15 N3 S1'
_chemical_name_systematic        
syn,E-1-Cyclopentano-4-phenyl-3-thiosemicarbazone
_symmetry_cell_setting           monoclinic
_symmetry_space_group_name_H-M   'C 2'
_symmetry_Int_Tables_number      5
_space_group_name_Hall           'C 2y'
loop_
_symmetry_equiv_pos_site_id
_symmetry_equiv_pos_as_xyz
1 x,y,z
2 -x,y,-z
3 1/2+x,1/2+y,z
4 1/2-x,1/2+y,-z
_cell_length_a                   15.163(18)
_cell_length_b                   7.482(5)
_cell_length_c                   12.467(15)
_cell_angle_alpha                90
_cell_angle_beta                 119.04(7)
_cell_angle_gamma                90
_cell_volume                     1236.56
_exptl_crystal_colour            'light yellow'
_exptl_crystal_description       prism
_chemical_melting_point          144-146deg.C
_cell_formula_units_Z            4
_exptl_crystal_recrystallization_method ethanol
loop_
_atom_site_label
_atom_site_type_symbol
_atom_site_fract_x
_atom_site_fract_y
_atom_site_fract_z
S1 S 0.40514(5) 0.3061(6) 0.81246(6)
N1 N 0.69117(16) 0.3069(16) 0.90420(19)
N2 N 0.60290(15) 0.3059(14) 0.91174(19)
H1 H 0.6052 0.3049 0.9820
C1 C 0.51344(18) 0.3067(18) 0.8075(2)
N3 N 0.51817(16) 0.3025(15) 0.70320(18)
H2 H 0.5766 0.2998 0.7079
C2 C 0.77433(17) 0.3066(18) 1.0054(2)
C3 C 0.79070(19) 0.3027(16) 1.1331(2)
H3 H 0.7682 0.1900 1.1499
H4 H 0.7544 0.3993 1.1464
C4 C 0.9025(2) 0.325(2) 1.2131(3)
H5 H 0.9167 0.4413 1.2523
H6 H 0.9278 0.2343 1.2767
C5 C 0.9528(2) 0.309(2) 1.1400(3)
H7 H 0.9911 0.1985 1.1599
H8 H 0.9991 0.4079 1.1572
C6 C 0.8737(2) 0.3096(19) 1.0056(3)
H9 H 0.8795 0.4162 0.9652
H10 H 0.8806 0.2054 0.9640
C7 C 0.4303(2) 0.302(2) 0.5834(2)
C8 C 0.3882(7) 0.4715(17) 0.5259(7)
H11 H 0.4155 0.5809 0.5623
C9 C 0.3038(9) 0.457(2) 0.4122(9)
H12 H 0.2699 0.5588 0.3699
C10 C 0.2662(4) 0.275(3) 0.3561(4)
H13 H 0.2104 0.2671 0.2782
C11 C 0.3074(7) 0.136(2) 0.4107(8)
H14 H 0.2841 0.0246 0.3752
C12 C 0.3924(7) 0.1525(16) 0.5307(7)
H15 H 0.4221 0.0481 0.5734
loop_
_geom_bond_atom_site_label_1
_geom_bond_atom_site_label_2
_geom_bond_site_symmetry_1
_geom_bond_site_symmetry_2
S1 C1 1_555 1_555
N1 N2 1_555 1_555
N2 H1 1_555 1_555
C1 N2 1_555 1_555
N3 C1 1_555 1_555
H2 N3 1_555 1_555
C2 N1 1_555 1_555
C3 C2 1_555 1_555
H3 C3 1_555 1_555
H4 C3 1_555 1_555
C4 C3 1_555 1_555
H5 C4 1_555 1_555
H6 C4 1_555 1_555
C5 C4 1_555 1_555
H7 C5 1_555 1_555
H8 C5 1_555 1_555
C6 C2 1_555 1_555
H9 C6 1_555 1_555
H10 C6 1_555 1_555
C7 N3 1_555 1_555
C8 C7 1_555 1_555
H11 C8 1_555 1_555
C9 C8 1_555 1_555
H12 C9 1_555 1_555
C10 C9 1_555 1_555
H13 C10 1_555 1_555
C11 C10 1_555 1_555
H14 C11 1_555 1_555
C12 C7 1_555 1_555
H15 C12 1_555 1_555
C5 C6 1_555 1_555
C11 C12 1_555 1_555

#END
