
#######################################################################
#
#                 Cambridge Crystallographic Data Centre
#                                CCDC 
#
#######################################################################
#
# If this CIF has been generated from an entry in the Cambridge 
# Structural Database, then it will include bibliographic, chemical, 
# crystal, experimental, refinement or atomic coordinate data resulting 
# from the CCDC's data processing and validation procedures.
#
#######################################################################

data_DAVQEY
_chemical_formula_moiety         'C22 H20 N6'
_chemical_name_systematic        
1,1'-(Hydrazine-1,2-diylidenebis(2-phenyleth-1-yl-2-ylidene))bis(1H-imidazole)
_symmetry_cell_setting           monoclinic
_symmetry_space_group_name_H-M   'P 21/n'
_symmetry_Int_Tables_number      14
_space_group_name_Hall           '-P 2yn'
loop_
_symmetry_equiv_pos_site_id
_symmetry_equiv_pos_as_xyz
1 x,y,z
2 1/2-x,1/2+y,1/2-z
3 -x,-y,-z
4 1/2+x,1/2-y,1/2+z
_cell_length_a                   12.809(7)
_cell_length_b                   5.102(3)
_cell_length_c                   14.401(8)
_cell_angle_alpha                90
_cell_angle_beta                 96.859(10)
_cell_angle_gamma                90
_cell_volume                     934.392
_exptl_crystal_colour            yellow
_exptl_crystal_description       block
_cell_formula_units_Z            2
loop_
_atom_site_label
_atom_site_type_symbol
_atom_site_fract_x
_atom_site_fract_y
_atom_site_fract_z
N1 N 0.2945(2) 0.3539(6) 0.6106(2)
N2 N 0.1746(3) 0.0533(8) 0.6299(3)
N3 N 0.5262(2) 0.4091(5) 0.5308(2)
C1 C 0.2554(3) 0.1881(9) 0.6693(4)
C2 C 0.1628(4) 0.1410(11) 0.5395(4)
C3 C 0.2345(3) 0.3221(11) 0.5267(4)
C4 C 0.3872(3) 0.5204(8) 0.6295(3)
C5 C 0.4847(3) 0.3767(7) 0.6072(3)
C6 C 0.5333(3) 0.1809(7) 0.6742(3)
C7 C 0.5092(3) 0.1648(8) 0.7648(3)
C8 C 0.5556(4) -0.0216(9) 0.8262(4)
C9 C 0.6269(4) -0.1962(9) 0.7976(3)
C10 C 0.6517(4) -0.1813(9) 0.7077(3)
C11 C 0.6053(3) 0.0027(8) 0.6457(3)
H1 H 0.281(3) 0.171(8) 0.732(3)
H2 H 0.105(4) 0.074(10) 0.494(4)
H3 H 0.252(3) 0.427(9) 0.475(4)
H4 H 0.391(2) 0.578(6) 0.694(3)
H5 H 0.377(3) 0.684(8) 0.589(3)
H6 H 0.466(3) 0.295(7) 0.787(3)
H7 H 0.536(3) -0.026(7) 0.886(3)
H8 H 0.662(3) -0.330(7) 0.845(3)
H9 H 0.697(3) -0.297(9) 0.686(3)
H10 H 0.623(2) 0.007(6) 0.583(3)
N1B N 0.7055(2) 0.6461(6) 0.3894(2)
N2B N 0.8254(3) 0.9467(8) 0.3701(3)
N3B N 0.4738(2) 0.5909(5) 0.4692(2)
C1B C 0.7446(3) 0.8119(9) 0.3307(4)
C2B C 0.8372(4) 0.8590(11) 0.4605(4)
C3B C 0.7655(3) 0.6779(11) 0.4733(4)
C4B C 0.6128(3) 0.4796(8) 0.3705(3)
C5B C 0.5153(3) 0.6233(7) 0.3928(3)
C6B C 0.4667(3) 0.8191(7) 0.3258(3)
C7B C 0.4908(3) 0.8352(8) 0.2352(3)
C8B C 0.4444(4) 1.0216(9) 0.1738(4)
C9B C 0.3731(4) 1.1962(9) 0.2024(3)
C10B C 0.3483(4) 1.1813(9) 0.2923(3)
C11B C 0.3947(3) 0.9973(8) 0.3543(3)
H1B H 0.719(3) 0.829(8) 0.268(3)
H2B H 0.895(4) 0.926(10) 0.506(4)
H3B H 0.748(3) 0.573(9) 0.525(4)
H4B H 0.609(2) 0.422(6) 0.306(3)
H5B H 0.623(3) 0.316(8) 0.411(3)
H6B H 0.534(3) 0.705(7) 0.213(3)
H7B H 0.464(3) 1.026(7) 0.114(3)
H8B H 0.338(3) 1.330(7) 0.155(3)
H9B H 0.303(3) 1.297(9) 0.314(3)
H10B H 0.377(2) 0.993(6) 0.417(3)
loop_
_geom_bond_atom_site_label_1
_geom_bond_atom_site_label_2
_geom_bond_site_symmetry_1
_geom_bond_site_symmetry_2
N1 C1 1_555 1_555
N2 C1 1_555 1_555
N3 C5 1_555 1_555
C1 H1 1_555 1_555
C2 N2 1_555 1_555
C3 N1 1_555 1_555
C4 N1 1_555 1_555
C5 C4 1_555 1_555
C6 C5 1_555 1_555
C7 C6 1_555 1_555
C8 C7 1_555 1_555
C9 C8 1_555 1_555
C10 C9 1_555 1_555
C11 C6 1_555 1_555
H2 C2 1_555 1_555
H3 C3 1_555 1_555
H4 C4 1_555 1_555
H5 C4 1_555 1_555
H6 C7 1_555 1_555
H7 C8 1_555 1_555
H8 C9 1_555 1_555
H9 C10 1_555 1_555
H10 C11 1_555 1_555
N1B C1B 1_555 1_555
N2B C1B 1_555 1_555
N3B N3 1_555 1_555
C1B H1B 1_555 1_555
C2B N2B 1_555 1_555
C3B N1B 1_555 1_555
C4B N1B 1_555 1_555
C5B N3B 1_555 1_555
C6B C5B 1_555 1_555
C7B C6B 1_555 1_555
C8B C7B 1_555 1_555
C9B C8B 1_555 1_555
C10B C9B 1_555 1_555
C11B C6B 1_555 1_555
H2B C2B 1_555 1_555
H3B C3B 1_555 1_555
H4B C4B 1_555 1_555
H5B C4B 1_555 1_555
H6B C7B 1_555 1_555
H7B C8B 1_555 1_555
H8B C9B 1_555 1_555
H9B C10B 1_555 1_555
H10B C11B 1_555 1_555
C2 C3 1_555 1_555
C10 C11 1_555 1_555
C2B C3B 1_555 1_555
C4B C5B 1_555 1_555
C10B C11B 1_555 1_555

#END
