
#######################################################################
#
#                 Cambridge Crystallographic Data Centre
#                                CCDC 
#
#######################################################################
#
# If this CIF has been generated from an entry in the Cambridge 
# Structural Database, then it will include bibliographic, chemical, 
# crystal, experimental, refinement or atomic coordinate data resulting 
# from the CCDC's data processing and validation procedures.
#
#######################################################################

data_DAVQOG
_chemical_formula_moiety         'C24 H32 B1 N1 Si2'
_chemical_name_systematic        
bis(Inden-3-yl)-(bis(trimethylsilyl)imino)borane
_symmetry_cell_setting           monoclinic
_symmetry_space_group_name_H-M   'C 2/c'
_symmetry_Int_Tables_number      15
_space_group_name_Hall           '-C 2yn'
loop_
_symmetry_equiv_pos_site_id
_symmetry_equiv_pos_as_xyz
1 x,y,z
2 -x,y,1/2-z
3 1/2+x,1/2+y,z
4 1/2-x,1/2+y,1/2-z
5 -x,-y,-z
6 x,-y,1/2+z
7 1/2-x,1/2-y,-z
8 1/2+x,1/2-y,1/2+z
_cell_length_a                   33.283(6)
_cell_length_b                   7.069(2)
_cell_length_c                   23.734(5)
_cell_angle_alpha                90
_cell_angle_beta                 120.08(3)
_cell_angle_gamma                90
_cell_volume                     4832.05
_exptl_crystal_colour            colorless
_exptl_crystal_description       parallelepiped
_cell_formula_units_Z            8
_exptl_crystal_recrystallization_method hexane
loop_
_atom_site_label
_atom_site_type_symbol
_atom_site_fract_x
_atom_site_fract_y
_atom_site_fract_z
Si1 Si 0.05273(4) 0.0806(2) 0.90254(5)
Si2 Si 0.14462(4) 0.2119(2) 0.91172(5)
N1 N 0.11075(9) 0.1557(5) 0.9472(1)
C1 C 0.0109(2) 0.2741(9) 0.8585(2)
C2 C 0.0343(2) -0.0366(8) 0.9557(2)
C3 C 0.0481(2) -0.1012(9) 0.8432(2)
C4 C 0.1896(2) 0.3877(8) 0.9648(2)
C5 C 0.1072(2) 0.3315(9) 0.8317(2)
C6 C 0.1737(1) 0.0074(8) 0.8976(2)
C7 C 0.1801(1) 0.0618(6) 1.0614(2)
C8 C 0.1878(1) -0.1144(7) 1.0485(2)
C9 C 0.2332(1) -0.1934(7) 1.1011(2)
C10 C 0.2517(1) -0.0313(7) 1.1483(2)
C11 C 0.2201(1) 0.1170(6) 1.1254(2)
C12 C 0.2285(1) 0.2821(7) 1.1605(2)
C13 C 0.2696(1) 0.2963(8) 1.2204(2)
C14 C 0.3012(1) 0.1506(8) 1.2429(2)
C15 C 0.2928(1) -0.0145(8) 1.2081(2)
C16 C 0.1088(1) 0.2730(6) 1.0503(1)
C17 C 0.0894(1) 0.4460(7) 1.0310(2)
C18 C 0.0730(1) 0.5268(7) 1.0747(2)
C19 C 0.0852(1) 0.3704(6) 1.1238(2)
C20 C 0.1068(1) 0.2245(6) 1.1092(2)
C21 C 0.1212(1) 0.0630(7) 1.1472(2)
C22 C 0.1142(1) 0.0502(7) 1.2001(2)
C23 C 0.0931(1) 0.1960(8) 1.2141(2)
C24 C 0.0785(1) 0.3579(7) 1.1764(2)
B1 B 0.1325(1) 0.1653(7) 1.0172(2)
H1 H -0.0175 0.2195 0.8227
H2 H 0.0240 0.3613 0.8399
H3 H 0.0028 0.3430 0.8874
H4 H 0.0030 -0.0895 0.9308
H5 H 0.0342 0.0530 0.9871
H6 H 0.0562 -0.1380 0.9803
H7 H 0.0633 -0.0538 0.8197
H8 H 0.0638 -0.2167 0.8668
H9 H 0.0157 -0.1311 0.8115
H10 H 0.1785 0.5187 0.9583
H11 H 0.2177 0.3839 0.9612
H12 H 0.1996 0.3547 1.0100
H13 H 0.0982 0.2186 0.8040
H14 H 0.1232 0.4257 0.8198
H15 H 0.0799 0.3938 0.8287
H16 H 0.1477 -0.0785 0.8723
H17 H 0.1966 -0.0558 0.9377
H18 H 0.1883 0.0397 0.8718
H19 H 0.1662 -0.1845 1.0092
H20 H 0.2545 -0.2288 1.0857
H21 H 0.2294 -0.3073 1.1216
H22 H 0.2058 0.3855 1.1433
H23 H 0.2770 0.4110 1.2469
H24 H 0.3302 0.1612 1.2846
H25 H 0.3146 -0.1209 1.2250
H26 H 0.0861 0.5121 0.9926
H27 H 0.0889 0.6456 1.0948
H28 H 0.0396 0.5545 1.0505
H29 H 0.1366 -0.0398 1.1376
H30 H 0.1244 -0.0629 1.2276
H31 H 0.0880 0.1889 1.2513
H32 H 0.0642 0.4621 1.1872
loop_
_geom_bond_atom_site_label_1
_geom_bond_atom_site_label_2
_geom_bond_site_symmetry_1
_geom_bond_site_symmetry_2
Si1 N1 1_555 1_555
Si2 N1 1_555 1_555
N1 B1 1_555 1_555
C1 Si1 1_555 1_555
C2 Si1 1_555 1_555
C3 Si1 1_555 1_555
C4 Si2 1_555 1_555
C5 Si2 1_555 1_555
C6 Si2 1_555 1_555
C7 C8 1_555 1_555
C8 C9 1_555 1_555
C9 C10 1_555 1_555
C10 C11 1_555 1_555
C11 C7 1_555 1_555
C12 C11 1_555 1_555
C13 C12 1_555 1_555
C14 C13 1_555 1_555
C15 C10 1_555 1_555
C16 C17 1_555 1_555
C17 C18 1_555 1_555
C18 C19 1_555 1_555
C19 C20 1_555 1_555
C20 C16 1_555 1_555
C21 C20 1_555 1_555
C22 C21 1_555 1_555
C23 C22 1_555 1_555
C24 C19 1_555 1_555
B1 C7 1_555 1_555
H1 C1 1_555 1_555
H2 C1 1_555 1_555
H3 C1 1_555 1_555
H4 C2 1_555 1_555
H5 C2 1_555 1_555
H6 C2 1_555 1_555
H7 C3 1_555 1_555
H8 C3 1_555 1_555
H9 C3 1_555 1_555
H10 C4 1_555 1_555
H11 C4 1_555 1_555
H12 C4 1_555 1_555
H13 C5 1_555 1_555
H14 C5 1_555 1_555
H15 C5 1_555 1_555
H16 C6 1_555 1_555
H17 C6 1_555 1_555
H18 C6 1_555 1_555
H19 C8 1_555 1_555
H20 C9 1_555 1_555
H21 C9 1_555 1_555
H22 C12 1_555 1_555
H23 C13 1_555 1_555
H24 C14 1_555 1_555
H25 C15 1_555 1_555
H26 C17 1_555 1_555
H27 C18 1_555 1_555
H28 C18 1_555 1_555
H29 C21 1_555 1_555
H30 C22 1_555 1_555
H31 C23 1_555 1_555
H32 C24 1_555 1_555
C14 C15 1_555 1_555
C16 B1 1_555 1_555
C23 C24 1_555 1_555

#END
