
#######################################################################
#
#                 Cambridge Crystallographic Data Centre
#                                CCDC 
#
#######################################################################
#
# If this CIF has been generated from an entry in the Cambridge 
# Structural Database, then it will include bibliographic, chemical, 
# crystal, experimental, refinement or atomic coordinate data resulting 
# from the CCDC's data processing and validation procedures.
#
#######################################################################

data_DAVVII
_chemical_formula_moiety         'C14 H16 N2 O1 2+,1.62(I1 1-),0.38(Cl1 1-)'
_chemical_name_systematic        1-methyl-4,4'-bipyridinium
_symmetry_cell_setting           triclinic
_symmetry_space_group_name_H-M   'P -1'
_symmetry_Int_Tables_number      2
_space_group_name_Hall           '-P 1'
loop_
_symmetry_equiv_pos_site_id
_symmetry_equiv_pos_as_xyz
1 x,y,z
2 -x,-y,-z
_cell_length_a                   8.6240(9)
_cell_length_b                   9.7739(6)
_cell_length_c                   10.9703(13)
_cell_angle_alpha                94.825(7)
_cell_angle_beta                 97.934(9)
_cell_angle_gamma                92.335(7)
_cell_volume                     911.306
_exptl_crystal_colour            'light brown'
_exptl_crystal_description       plate
_cell_formula_units_Z            2
loop_
_atom_site_label
_atom_site_type_symbol
_atom_site_fract_x
_atom_site_fract_y
_atom_site_fract_z
I1 I 1.38552(6) 0.42982(5) 0.72724(5)
I2 I 1.0000 0.0000 1.0000
I3 I 0.5000 0.0000 0.5000
I4 I 0.64758(8) 0.05307(6) 0.28189(6)
O1 O 0.8637(6) 0.3802(5) 0.8963(5)
N1 N 0.8228(7) 0.2217(6) 0.6793(6)
N2 N 1.2051(8) 0.3244(6) 0.1731(6)
C1 C 1.0657(9) 0.2992(7) 0.3814(7)
C2 C 1.2263(10) 0.2825(9) 0.3828(8)
H1 H 1.2890 0.2628 0.4568
C3 C 1.2936(10) 0.2944(9) 0.2778(8)
H2 H 1.4024 0.2815 0.2788
C4 C 0.9861(9) 0.2795(8) 0.4908(7)
C5 C 1.2778(10) 0.3288(9) 0.0589(8)
H3 H 1.3762 0.3852 0.0766
H4 H 1.2061 0.3688 -0.0042
H5 H 1.2992 0.2353 0.0285
C6 C 1.0446(9) 0.1906(8) 0.5766(8)
H6 H 1.1418 0.1500 0.5708
C7 C 0.7650(9) 0.2891(8) 0.8890(7)
C8 C 0.9803(10) 0.3320(8) 0.2727(8)
H7 H 0.8714 0.3456 0.2691
C9 C 0.9601(9) 0.1620(8) 0.6698(8)
H8 H 0.9982 0.1000 0.7278
C10 C 0.7289(9) 0.1870(8) 0.7765(7)
H9 H 0.7521 0.0936 0.8002
H10 H 0.6160 0.1866 0.7439
C11 C 0.6678(10) 0.2622(9) 0.9899(7)
H11 H 0.7137 0.1900 1.0378
H12 H 0.5605 0.2325 0.9527
H13 H 0.6660 0.3467 1.0444
C12 C 1.0527(9) 0.3450(7) 0.1692(7)
H14 H 0.9937 0.3688 0.0950
C13 C 0.7698(9) 0.3135(8) 0.6012(7)
H15 H 0.6762 0.3583 0.6120
C14 C 0.8486(10) 0.3430(8) 0.5068(8)
H16 H 0.8092 0.4073 0.4516
Cl1 Cl 0.64758(8) 0.05307(6) 0.28189(6)
loop_
_geom_bond_atom_site_label_1
_geom_bond_atom_site_label_2
_geom_bond_site_symmetry_1
_geom_bond_site_symmetry_2
O1 C7 1_555 1_555
N1 C9 1_555 1_555
N2 C3 1_555 1_555
C1 C2 1_555 1_555
C2 H1 1_555 1_555
C3 C2 1_555 1_555
H2 C3 1_555 1_555
C4 C1 1_555 1_555
C5 N2 1_555 1_555
H3 C5 1_555 1_555
H4 C5 1_555 1_555
H5 C5 1_555 1_555
C6 C4 1_555 1_555
H6 C6 1_555 1_555
C7 C10 1_555 1_555
C8 C1 1_555 1_555
H7 C8 1_555 1_555
C9 C6 1_555 1_555
H8 C9 1_555 1_555
C10 N1 1_555 1_555
H9 C10 1_555 1_555
H10 C10 1_555 1_555
C11 C7 1_555 1_555
H11 C11 1_555 1_555
H12 C11 1_555 1_555
H13 C11 1_555 1_555
C12 N2 1_555 1_555
H14 C12 1_555 1_555
C13 N1 1_555 1_555
H15 C13 1_555 1_555
C14 C4 1_555 1_555
H16 C14 1_555 1_555
C8 C12 1_555 1_555
C13 C14 1_555 1_555

#END
