
#######################################################################
#
#                 Cambridge Crystallographic Data Centre
#                                CCDC 
#
#######################################################################
#
# If this CIF has been generated from an entry in the Cambridge 
# Structural Database, then it will include bibliographic, chemical, 
# crystal, experimental, refinement or atomic coordinate data resulting 
# from the CCDC's data processing and validation procedures.
#
#######################################################################

data_DAVXIK
_chemical_formula_moiety         'C32 H22 N2 O5'
_chemical_name_systematic        
'ethyl 6-(benzenecarbonyl)-11-[(benzenecarbonyl)amino]-5-oxo-5H-benzo[de]pyrido[3,2,1-ij]quinoline-10-carboxylate unknown solvate'
_symmetry_cell_setting           triclinic
_symmetry_space_group_name_H-M   'P -1'
_symmetry_Int_Tables_number      2
_space_group_name_Hall           '-P 1'
loop_
_symmetry_equiv_pos_site_id
_symmetry_equiv_pos_as_xyz
1 x,y,z
2 -x,-y,-z
_cell_length_a                   9.3680(6)
_cell_length_b                   11.4065(6)
_cell_length_c                   17.9149(7)
_cell_angle_alpha                94.147(4)
_cell_angle_beta                 103.054(5)
_cell_angle_gamma                108.693(5)
_cell_volume                     1744.62
_exptl_crystal_description       block
_cell_formula_units_Z            2
loop_
_atom_site_label
_atom_site_type_symbol
_atom_site_fract_x
_atom_site_fract_y
_atom_site_fract_z
O1 O 0.38072(17) 0.05586(11) 0.45015(8)
N1 N 0.59312(18) 0.59694(14) 0.73747(8)
H1 H 0.6714 0.6638 0.7405
O2 O 0.1600(2) 0.17063(13) 0.28215(7)
N2 N 0.45391(16) 0.23600(12) 0.53761(8)
O3 O 0.4337(2) 0.77895(13) 0.63807(11)
O4 O 0.4561(2) 0.46210(16) 0.80227(9)
O5 O 0.2559(2) 0.65491(16) 0.68820(11)
C1 C 0.32523(18) 0.38724(14) 0.51499(9)
C2 C 0.43535(18) 0.34614(14) 0.56262(9)
C3 C 0.23458(18) 0.31605(15) 0.44071(9)
C4 C 0.2506(2) 0.19955(15) 0.41832(9)
C5 C 0.30418(18) 0.49958(15) 0.54234(9)
C6 C 0.5027(2) 0.52635(15) 0.66304(9)
C7 C 0.52920(19) 0.41478(15) 0.63617(9)
C8 C 0.5579(2) 0.56054(18) 0.80337(11)
C9 C 0.1116(2) 0.47313(19) 0.42253(11)
C10 C 0.1284(2) 0.36331(17) 0.39591(10)
H2 H 0.0681 0.3195 0.3472
C11 C 0.3563(2) 0.15388(15) 0.46392(10)
C12 C 0.39380(19) 0.56446(15) 0.61927(9)
C13 C 0.1977(2) 0.54177(18) 0.49528(10)
C14 C 0.3538(2) 0.67072(17) 0.65346(10)
C15 C 0.5641(2) 0.19655(18) 0.58016(11)
C16 C 0.1606(2) 0.12276(17) 0.34104(10)
C17 C 0.0679(2) -0.01259(17) 0.33560(10)
C18 C 0.6404(2) 0.37290(18) 0.67911(11)
C19 C 0.6508(3) 0.6471(2) 0.87744(11)
C20 C 0.6582(2) 0.26372(19) 0.64992(12)
H3 H 0.7346 0.2364 0.6781
C21 C 0.0347(2) -0.0649(2) 0.39929(13)
C22 C -0.0572(3) -0.1899(2) 0.39129(17)
C23 C 0.4050(4) 0.8897(2) 0.6684(2)
H4 H 0.4986 0.9629 0.6768
H5 H 0.3813 0.8789 0.7180
C24 C 0.0079(4) -0.0873(2) 0.26381(14)
H6 H 0.0292 -0.0539 0.2200
C25 C 0.6342(5) 0.6055(3) 0.94562(15)
H7 H 0.5670 0.5248 0.9444
C26 C -0.1163(4) -0.2622(3) 0.32118(19)
H8 H -0.1786 -0.3458 0.3162
C27 C 0.2736(4) 0.9102(3) 0.6142(2)
H9 H 0.2922 0.9124 0.5636
H10 H 0.2653 0.9883 0.6325
H11 H 0.1783 0.8430 0.6112
C28 C -0.0841(5) -0.2120(3) 0.25677(18)
H12 H -0.1242 -0.2620 0.2083
C29 C 0.8138(5) 0.7973(4) 1.01899(17)
H13 H 0.8731 0.8466 1.0665
C30 C 0.7145(6) 0.6802(4) 1.01588(16)
H14 H 0.7005 0.6501 1.0615
C31 C 0.7451(6) 0.7665(3) 0.88153(16)
H15 H 0.7563 0.7988 0.8361
C32 C 0.8251(7) 0.8411(4) 0.9527(2)
H16 H 0.8881 0.9235 0.9544
H17 H 0.572(2) 0.122(2) 0.5596(12)
H18 H 0.041(3) 0.499(2) 0.3900(13)
H19 H 0.187(2) 0.623(2) 0.5139(11)
H20 H 0.706(3) 0.416(2) 0.7344(14)
H21 H -0.079(3) -0.227(3) 0.4404(17)
H22 H 0.077(3) -0.010(2) 0.4488(14)
loop_
_geom_bond_atom_site_label_1
_geom_bond_atom_site_label_2
_geom_bond_site_symmetry_1
_geom_bond_site_symmetry_2
O1 C11 1_555 1_555
N1 H1 1_555 1_555
O2 C16 1_555 1_555
N2 C2 1_555 1_555
O3 C14 1_555 1_555
O4 C8 1_555 1_555
O5 C14 1_555 1_555
C1 C2 1_555 1_555
C2 C7 1_555 1_555
C3 C1 1_555 1_555
C4 C3 1_555 1_555
C5 C1 1_555 1_555
C6 N1 1_555 1_555
C7 C6 1_555 1_555
C8 N1 1_555 1_555
C9 C10 1_555 1_555
C10 C3 1_555 1_555
H2 C10 1_555 1_555
C11 N2 1_555 1_555
C12 C5 1_555 1_555
C13 C5 1_555 1_555
C14 C12 1_555 1_555
C15 N2 1_555 1_555
C16 C4 1_555 1_555
C17 C16 1_555 1_555
C18 C7 1_555 1_555
C19 C8 1_555 1_555
C20 C15 1_555 1_555
H3 C20 1_555 1_555
C21 C17 1_555 1_555
C22 C21 1_555 1_555
C23 O3 1_555 1_555
H4 C23 1_555 1_555
H5 C23 1_555 1_555
C24 C17 1_555 1_555
H6 C24 1_555 1_555
C25 C19 1_555 1_555
H7 C25 1_555 1_555
C26 C22 1_555 1_555
H8 C26 1_555 1_555
C27 C23 1_555 1_555
H9 C27 1_555 1_555
H10 C27 1_555 1_555
H11 C27 1_555 1_555
C28 C24 1_555 1_555
H12 C28 1_555 1_555
C29 H13 1_555 1_555
C30 C25 1_555 1_555
H14 C30 1_555 1_555
C31 C19 1_555 1_555
H15 C31 1_555 1_555
C32 C29 1_555 1_555
H16 C32 1_555 1_555
H17 C15 1_555 1_555
H18 C9 1_555 1_555
H19 C13 1_555 1_555
H20 C18 1_555 1_555
H21 C22 1_555 1_555
H22 C21 1_555 1_555
C4 C11 1_555 1_555
C6 C12 1_555 1_555
C9 C13 1_555 1_555
C18 C20 1_555 1_555
C26 C28 1_555 1_555
C29 C30 1_555 1_555
C31 C32 1_555 1_555

#END
