
#######################################################################
#
#                 Cambridge Crystallographic Data Centre
#                                CCDC 
#
#######################################################################
#
# If this CIF has been generated from an entry in the Cambridge 
# Structural Database, then it will include bibliographic, chemical, 
# crystal, experimental, refinement or atomic coordinate data resulting 
# from the CCDC's data processing and validation procedures.
#
#######################################################################

data_DAVYAD
_chemical_formula_moiety         'C16 H12 O3,H2 O1'
_chemical_name_systematic        
'2-(2,6-dimethyl-4H-pyran-4-ylidene)-1H-indene-1,3(2H)-dione monohydrate'
_symmetry_cell_setting           triclinic
_symmetry_space_group_name_H-M   'P -1'
_symmetry_Int_Tables_number      2
_space_group_name_Hall           '-P 1'
loop_
_symmetry_equiv_pos_site_id
_symmetry_equiv_pos_as_xyz
1 x,y,z
2 -x,-y,-z
_cell_length_a                   5.0293(11)
_cell_length_b                   9.305(2)
_cell_length_c                   14.420(3)
_cell_angle_alpha                78.510(5)
_cell_angle_beta                 87.882(5)
_cell_angle_gamma                83.349(4)
_cell_volume                     656.781
_exptl_crystal_colour            colorless
_exptl_crystal_description       prismatic
_cell_formula_units_Z            2
loop_
_atom_site_label
_atom_site_type_symbol
_atom_site_fract_x
_atom_site_fract_y
_atom_site_fract_z
O1 O 0.3463(3) 0.20769(17) 0.38803(10)
O2 O 0.3343(3) 0.17501(19) 0.06470(11)
O3 O 1.1006(3) -0.16492(15) 0.26867(10)
C1 C 0.2915(4) 0.2237(2) 0.30370(14)
C2 C 0.4227(4) 0.1482(2) 0.23228(14)
C3 C 0.2845(4) 0.2058(2) 0.14266(15)
C4 C 0.0614(4) 0.3168(2) 0.16223(14)
C5 C 0.0667(4) 0.3290(2) 0.25622(15)
C6 C -0.1197(5) 0.4250(3) 0.29259(17)
H1 H -0.1180 0.4323 0.3560
C7 C -0.3089(5) 0.5102(3) 0.23166(18)
H2 H -0.4347 0.5768 0.2542
C8 C -0.3140(5) 0.4978(3) 0.13814(18)
H3 H -0.4434 0.5562 0.0987
C9 C -0.1294(4) 0.3999(2) 0.10177(16)
H4 H -0.1343 0.3907 0.0388
C10 C 0.6468(4) 0.0430(2) 0.24519(14)
C11 C 0.7797(4) -0.0056(2) 0.33347(14)
H5 H 0.7140 0.0329 0.3857
C12 C 0.9978(4) -0.1056(2) 0.34312(14)
C13 C 0.9827(4) -0.1213(2) 0.18280(15)
C14 C 0.7654(4) -0.0224(2) 0.16988(15)
H6 H 0.6896 0.0045 0.1102
C15 C 1.1565(5) -0.1621(3) 0.42995(16)
H7 H 1.3143 -0.1121 0.4262
H8 H 1.2072 -0.2661 0.4357
H9 H 1.0507 -0.1445 0.4842
C16 C 1.1258(5) -0.1946(3) 0.11023(17)
H10 H 1.0301 -0.1667 0.0519
H11 H 1.1371 -0.2997 0.1312
H12 H 1.3029 -0.1649 0.1006
O4 O 0.2663(4) 0.4342(3) 0.4979(2)
H13 H 0.285(7) 0.369(3) 0.466(2)
H14 H 0.374(13) 0.474(10) 0.462(4)
loop_
_geom_bond_atom_site_label_1
_geom_bond_atom_site_label_2
_geom_bond_site_symmetry_1
_geom_bond_site_symmetry_2
O1 C1 1_555 1_555
O2 C3 1_555 1_555
O3 C12 1_555 1_555
C1 C2 1_555 1_555
C2 C3 1_555 1_555
C3 C4 1_555 1_555
C4 C5 1_555 1_555
C5 C1 1_555 1_555
C6 C5 1_555 1_555
H1 C6 1_555 1_555
C7 C6 1_555 1_555
H2 C7 1_555 1_555
C8 C7 1_555 1_555
H3 C8 1_555 1_555
C9 C4 1_555 1_555
H4 C9 1_555 1_555
C10 C2 1_555 1_555
C11 C10 1_555 1_555
H5 C11 1_555 1_555
C12 C11 1_555 1_555
C13 O3 1_555 1_555
C14 C10 1_555 1_555
H6 C14 1_555 1_555
C15 C12 1_555 1_555
H7 C15 1_555 1_555
H8 C15 1_555 1_555
H9 C15 1_555 1_555
C16 C13 1_555 1_555
H10 C16 1_555 1_555
H11 C16 1_555 1_555
H12 C16 1_555 1_555
O4 H13 1_555 1_555
H14 O4 1_555 1_555
C8 C9 1_555 1_555
C13 C14 1_555 1_555

#END
