
#######################################################################
#
#                 Cambridge Crystallographic Data Centre
#                                CCDC 
#
#######################################################################
#
# If this CIF has been generated from an entry in the Cambridge 
# Structural Database, then it will include bibliographic, chemical, 
# crystal, experimental, refinement or atomic coordinate data resulting 
# from the CCDC's data processing and validation procedures.
#
#######################################################################

data_DAWGOX
_chemical_name_common            'Aspartame hemihydrate'
_chemical_formula_moiety         'C14 H18 N2 O5,0.5(H2 O1)'
_chemical_name_systematic        
'L-Aspartyl-L-phenylalanine methyl ester hemihydrate'
_symmetry_cell_setting           tetragonal
_symmetry_space_group_name_H-M   'P 41'
_symmetry_Int_Tables_number      76
_space_group_name_Hall           'P 4w'
loop_
_symmetry_equiv_pos_site_id
_symmetry_equiv_pos_as_xyz
1 x,y,z
2 -y,x,1/4+z
3 -x,-y,1/2+z
4 y,-x,3/4+z
_cell_length_a                   17.685(5)
_cell_length_b                   17.685(5)
_cell_length_c                   4.919(2)
_cell_angle_alpha                90
_cell_angle_beta                 90
_cell_angle_gamma                90
_cell_volume                     1538.46
_cell_formula_units_Z            4
loop_
_atom_site_label
_atom_site_type_symbol
_atom_site_fract_x
_atom_site_fract_y
_atom_site_fract_z
N1 N 0.1630(2) -0.0488(2) 0.2983(15)
C1 C 0.2329(3) -0.0330(3) 0.1434(14)
C2 C 0.2400(3) 0.0513(3) 0.0765(13)
C3 C 0.1843(3) 0.0789(4) -0.1400(16)
O1 O 0.1373(2) 0.0326(2) -0.2257(14)
O2 O 0.1904(2) 0.1438(3) -0.2245(15)
C4 C 0.3001(3) -0.0589(3) 0.3065(18)
O3 O 0.2991(2) -0.0580(2) 0.5587(13)
N2 N 0.3587(3) -0.0824(3) 0.1632(15)
C5 C 0.4275(3) -0.1110(3) 0.2943(17)
C6 C 0.4162(3) -0.1918(3) 0.4005(19)
C7 C 0.3244(4) -0.2593(4) 0.0916(22)
C8 C 0.3080(6) -0.3105(6) -0.1140(24)
C9 C 0.3653(8) -0.3546(5) -0.2202(26)
C10 C 0.4388(6) -0.3467(5) -0.1313(24)
C11 C 0.4557(4) -0.2927(4) 0.0709(23)
C12 C 0.3984(4) -0.2491(3) 0.1840(20)
C13 C 0.4919(4) -0.1028(4) 0.1017(19)
O4 O 0.4894(2) -0.0711(3) -0.1132(14)
O5 O 0.5543(2) -0.1348(2) 0.1984(14)
C14 C 0.6200(3) -0.1312(4) 0.0267(22)
H1 H 0.1126 -0.0425 0.1713
H2 H 0.1570 -0.1118 0.3456
H3 H 0.1602 -0.0137 0.4333
H4 H 0.2293 -0.0629 -0.0183
H5 H 0.2912 0.0564 -0.0319
H6 H 0.2279 0.0711 0.2282
H7 H 0.3618 -0.0857 -0.0207
H8 H 0.4409 -0.0635 0.4409
H9 H 0.3676 -0.1893 0.5239
H10 H 0.4610 -0.2052 0.4797
H11 H 0.2818 -0.2271 0.1596
H12 H 0.2577 -0.3183 -0.1995
H13 H 0.3465 -0.3961 -0.3507
H14 H 0.4815 -0.3843 -0.1614
H15 H 0.5086 -0.2760 0.0932
H16 H 0.6536 -0.0863 0.0462
H17 H 0.6569 -0.1569 0.1166
H18 H 0.6148 -0.1457 -0.1119
O6? O 0.0142(12) -0.0142(12) 0.013(17)
loop_
_geom_bond_atom_site_label_1
_geom_bond_atom_site_label_2
_geom_bond_site_symmetry_1
_geom_bond_site_symmetry_2
N1 C1 1_555 1_555
C1 C2 1_555 1_555
C2 C3 1_555 1_555
C3 O1 1_555 1_555
O2 C3 1_555 1_555
C4 C1 1_555 1_555
O3 C4 1_555 1_555
N2 C4 1_555 1_555
C5 N2 1_555 1_555
C6 C5 1_555 1_555
C7 C8 1_555 1_555
C8 C9 1_555 1_555
C9 C10 1_555 1_555
C10 C11 1_555 1_555
C11 C12 1_555 1_555
C12 C6 1_555 1_555
C13 C5 1_555 1_555
O4 C13 1_555 1_555
O5 C13 1_555 1_555
C14 O5 1_555 1_555
H1 N1 1_555 1_555
H2 N1 1_555 1_555
H3 N1 1_555 1_555
H4 C1 1_555 1_555
H5 C2 1_555 1_555
H6 C2 1_555 1_555
H7 N2 1_555 1_555
H8 C5 1_555 1_555
H9 C6 1_555 1_555
H10 C6 1_555 1_555
H11 C7 1_555 1_555
H12 C8 1_555 1_555
H13 C9 1_555 1_555
H14 C10 1_555 1_555
H15 C11 1_555 1_555
H16 C14 1_555 1_555
H17 C14 1_555 1_555
H18 C14 1_555 1_555
C7 C12 1_555 1_555

#END
