
#######################################################################
#
#                 Cambridge Crystallographic Data Centre
#                                CCDC 
#
#######################################################################
#
# If this CIF has been generated from an entry in the Cambridge 
# Structural Database, then it will include bibliographic, chemical, 
# crystal, experimental, refinement or atomic coordinate data resulting 
# from the CCDC's data processing and validation procedures.
#
#######################################################################

data_DAWKIX
_chemical_formula_moiety         'C21 H27 N7,C7 H6 O2'
_chemical_name_systematic        
"4-Methyl-6-(1'-(5-methylpyrazin-2-yl)-4,4'-bipiperidin-1-yl)pyrimidine-2-carbonitrile benzoic acid solvate"
_symmetry_cell_setting           triclinic
_symmetry_space_group_name_H-M   'P -1'
_symmetry_Int_Tables_number      2
_space_group_name_Hall           '-P 1'
loop_
_symmetry_equiv_pos_site_id
_symmetry_equiv_pos_as_xyz
1 x,y,z
2 -x,-y,-z
_cell_length_a                   9.9966(4)
_cell_length_b                   15.7845(5)
_cell_length_c                   17.0972(7)
_cell_angle_alpha                83.436(3)
_cell_angle_beta                 75.007(4)
_cell_angle_gamma                84.875(3)
_cell_volume                     2583.84
_exptl_crystal_colour            colorless
_cell_formula_units_Z            4
loop_
_atom_site_label
_atom_site_type_symbol
_atom_site_fract_x
_atom_site_fract_y
_atom_site_fract_z
C1 C 0.52025(16) 0.14790(9) 0.11886(8)
C2 C 0.59648(16) 0.28158(9) 0.10109(9)
C3 C 0.73474(16) 0.18587(10) 0.02515(9)
C4 C 0.64128(16) 0.12528(10) 0.05940(9)
H1 H 0.6577 0.0688 0.0434
C5 C 0.56952(16) 0.36943(10) 0.12305(9)
C6 C 0.86482(18) 0.16674(10) -0.03882(10)
H2 H 0.8531 0.1908 -0.0923
H3 H 0.8837 0.1047 -0.0387
H4 H 0.9427 0.1922 -0.0273
C7 C 0.28853(17) 0.12444(10) 0.20602(10)
H5 H 0.2248 0.1372 0.1699
H6 H 0.2998 0.1784 0.2273
C8 C 0.22465(17) 0.06103(9) 0.27657(9)
H7 H 0.1301 0.0834 0.3032
H8 H 0.2806 0.0555 0.3171
C9 C 0.21643(16) -0.02712(9) 0.25008(9)
H9 H 0.1586 -0.0205 0.2097
C10 C 0.36363(16) -0.05742(9) 0.20662(9)
H10 H 0.4218 -0.0655 0.2461
H11 H 0.3610 -0.1135 0.1865
C11 C 0.43023(17) 0.00496(9) 0.13538(9)
H12 H 0.5284 -0.0147 0.1138
H13 H 0.3822 0.0053 0.0915
C12 C 0.14917(16) -0.09123(9) 0.32099(9)
H14 H 0.2128 -0.1028 0.3580
C13 C 0.00905(17) -0.05720(9) 0.37078(9)
H15 H 0.0220 -0.0045 0.3935
H16 H -0.0538 -0.0419 0.3344
C14 C -0.05907(17) -0.12126(9) 0.44020(9)
H17 H -0.0034 -0.1304 0.4810
H18 H -0.1527 -0.0978 0.4672
C15 C 0.06108(16) -0.23940(9) 0.36379(9)
H19 H 0.0448 -0.2923 0.3426
H20 H 0.1249 -0.2546 0.3996
C16 C 0.12771(16) -0.17654(9) 0.29320(9)
H21 H 0.0681 -0.1663 0.2546
H22 H 0.2185 -0.2020 0.2641
C17 C -0.16937(16) -0.25711(9) 0.45625(9)
C18 C -0.28410(16) -0.22949(9) 0.51682(9)
H23 H -0.2910 -0.1724 0.5308
C19 C -0.37202(16) -0.36236(9) 0.53575(9)
C20 C -0.25605(16) -0.38966(9) 0.47891(9)
H24 H -0.2477 -0.4476 0.4671
C21 C -0.48673(17) -0.41931(10) 0.57914(9)
H25 H -0.5071 -0.4150 0.6378
H26 H -0.4577 -0.4786 0.5679
H27 H -0.5701 -0.4015 0.5599
N1 N 0.49670(13) 0.22973(7) 0.13862(7)
N2 N 0.71489(13) 0.26727(8) 0.04624(7)
N3 N 0.55006(14) 0.43868(9) 0.13863(8)
N4 N 0.42405(13) 0.09198(7) 0.15861(7)
N5 N -0.07055(13) -0.20285(7) 0.41084(7)
N6 N -0.38290(13) -0.28138(8) 0.55496(7)
N7 N -0.15424(13) -0.33900(7) 0.43931(7)
C22 C -0.70883(16) -0.11435(9) 0.74116(9)
C23 C -0.71451(17) -0.02979(10) 0.75748(9)
H28 H -0.6418 0.0055 0.7291
C24 C -0.82547(17) 0.00350(10) 0.81490(9)
H29 H -0.8291 0.0615 0.8257
C25 C -0.93117(17) -0.04835(10) 0.85659(9)
H30 H -1.0067 -0.0261 0.8967
C26 C -0.92675(17) -0.13247(10) 0.83986(9)
H31 H -0.9998 -0.1676 0.8681
C27 C -0.81623(16) -0.16563(10) 0.78209(9)
H32 H -0.8138 -0.2233 0.7705
C28 C -0.58707(17) -0.14815(10) 0.67969(9)
O1 O -0.59208(12) -0.22964(6) 0.67080(6)
H33 H -0.5258 -0.2441 0.6323
O2 O -0.49361(11) -0.10417(6) 0.64090(6)
C29 C 1.23737(16) 0.36014(9) 0.02398(8)
C30 C 1.29467(17) 0.22764(9) -0.01874(9)
C31 C 1.45677(16) 0.32298(9) -0.06682(9)
C32 C 1.37036(16) 0.38263(10) -0.02245(9)
H34 H 1.3997 0.4384 -0.0230
C33 C 1.25208(16) 0.14046(10) -0.01523(9)
C34 C 1.59841(16) 0.34331(10) -0.11824(9)
H35 H 1.6656 0.3331 -0.0849
H36 H 1.5969 0.4034 -0.1403
H37 H 1.6251 0.3068 -0.1631
C35 C 1.18349(16) 0.49821(9) 0.08064(9)
H38 H 1.2513 0.5212 0.0313
H39 H 1.2302 0.4891 0.1257
C36 C 1.06211(16) 0.56312(9) 0.10191(9)
H40 H 1.0256 0.5798 0.0534
H41 H 1.0949 0.6149 0.1168
C37 C 0.94469(16) 0.52945(9) 0.17218(9)
H42 H 0.9834 0.5122 0.2204
C38 C 0.90057(16) 0.44904(9) 0.14600(9)
H43 H 0.8254 0.4245 0.1904
H44 H 0.8628 0.4650 0.0979
C39 C 1.01858(16) 0.38154(9) 0.12538(9)
H45 H 1.0452 0.3579 0.1758
H46 H 0.9863 0.3342 0.1030
C40 C 0.82429(16) 0.59665(9) 0.19636(9)
H47 H 0.7868 0.6149 0.1478
C41 C 0.87017(16) 0.67575(9) 0.22350(9)
H48 H 0.9128 0.6580 0.2695
H49 H 0.9422 0.7019 0.1782
C42 C 0.75259(16) 0.74257(9) 0.24958(9)
H50 H 0.7877 0.7895 0.2709
H51 H 0.7186 0.7669 0.2018
C43 C 0.58913(17) 0.62922(10) 0.29103(10)
H52 H 0.5431 0.6450 0.2462
H53 H 0.5195 0.6047 0.3386
C44 C 0.70631(17) 0.56214(9) 0.26514(9)
H54 H 0.6691 0.5136 0.2473
H55 H 0.7432 0.5403 0.3125
C45 C 0.54795(16) 0.75918(9) 0.36229(8)
C46 C 0.42528(16) 0.73170(9) 0.41809(9)
H56 H 0.4007 0.6747 0.4193
C47 C 0.37792(16) 0.86415(9) 0.46685(9)
C48 C 0.49667(16) 0.89057(10) 0.41139(9)
H57 H 0.5198 0.9479 0.4101
C49 C 0.28016(17) 0.92257(10) 0.52124(9)
H58 H 0.2082 0.9478 0.4946
H59 H 0.3314 0.9681 0.5322
H60 H 0.2368 0.8901 0.5726
N8 N 1.20040(13) 0.27906(7) 0.02607(7)
N9 N 1.42038(13) 0.24189(8) -0.06580(7)
N10 N 1.21876(15) 0.07249(9) -0.01164(8)
N11 N 1.14134(13) 0.41552(7) 0.06589(7)
N12 N 0.63805(13) 0.70591(7) 0.31205(7)
N13 N 0.34333(13) 0.78331(7) 0.46899(7)
N14 N 0.58159(13) 0.84039(7) 0.35912(7)
C50 C -0.02959(16) 0.60925(9) 0.61681(9)
C51 C -0.05486(17) 0.52481(10) 0.61247(9)
H61 H 0.0113 0.4903 0.5772
C52 C -0.17666(17) 0.49095(10) 0.65968(9)
H62 H -0.1940 0.4334 0.6566
C53 C -0.27244(17) 0.54108(10) 0.71114(9)
H63 H -0.3554 0.5177 0.7437
C54 C -0.24823(17) 0.62511(10) 0.71558(9)
H64 H -0.3147 0.6595 0.7508
C55 C -0.12702(17) 0.65900(10) 0.66861(9)
H65 H -0.1104 0.7167 0.6718
C56 C 0.10118(17) 0.64417(10) 0.56480(9)
O3 O 0.11137(11) 0.72588(6) 0.57152(6)
H66 H 0.1851 0.7426 0.5395
O4 O 0.18984(11) 0.60195(7) 0.51969(7)
loop_
_geom_bond_atom_site_label_1
_geom_bond_atom_site_label_2
_geom_bond_site_symmetry_1
_geom_bond_site_symmetry_2
C1 C4 1_555 1_555
C2 C5 1_555 1_555
C3 C4 1_555 1_555
C4 H1 1_555 1_555
C5 N3 1_555 1_555
C6 C3 1_555 1_555
H2 C6 1_555 1_555
H3 C6 1_555 1_555
H4 C6 1_555 1_555
C7 H5 1_555 1_555
H6 C7 1_555 1_555
C8 C7 1_555 1_555
H7 C8 1_555 1_555
H8 C8 1_555 1_555
C9 C8 1_555 1_555
H9 C9 1_555 1_555
C10 C9 1_555 1_555
H10 C10 1_555 1_555
H11 C10 1_555 1_555
C11 C10 1_555 1_555
H12 C11 1_555 1_555
H13 C11 1_555 1_555
C12 C9 1_555 1_555
H14 C12 1_555 1_555
C13 C12 1_555 1_555
H15 C13 1_555 1_555
H16 C13 1_555 1_555
C14 C13 1_555 1_555
H17 C14 1_555 1_555
H18 C14 1_555 1_555
C15 H19 1_555 1_555
H20 C15 1_555 1_555
C16 C12 1_555 1_555
H21 C16 1_555 1_555
H22 C16 1_555 1_555
C17 C18 1_555 1_555
C18 H23 1_555 1_555
C19 C20 1_555 1_555
C20 H24 1_555 1_555
C21 C19 1_555 1_555
H25 C21 1_555 1_555
H26 C21 1_555 1_555
H27 C21 1_555 1_555
N1 C1 1_555 1_555
N2 C2 1_555 1_555
N4 C1 1_555 1_555
N5 C14 1_555 1_555
N6 C18 1_555 1_555
N7 C17 1_555 1_555
C22 C23 1_555 1_555
C23 H28 1_555 1_555
C24 C23 1_555 1_555
H29 C24 1_555 1_555
C25 C24 1_555 1_555
H30 C25 1_555 1_555
C26 C25 1_555 1_555
H31 C26 1_555 1_555
C27 C22 1_555 1_555
H32 C27 1_555 1_555
C28 C22 1_555 1_555
O1 C28 1_555 1_555
H33 O1 1_555 1_555
O2 C28 1_555 1_555
C29 C32 1_555 1_555
C30 C33 1_555 1_555
C31 C32 1_555 1_555
C32 H34 1_555 1_555
C33 N10 1_555 1_555
C34 C31 1_555 1_555
H35 C34 1_555 1_555
H36 C34 1_555 1_555
H37 C34 1_555 1_555
C35 H38 1_555 1_555
H39 C35 1_555 1_555
C36 C35 1_555 1_555
H40 C36 1_555 1_555
H41 C36 1_555 1_555
C37 C36 1_555 1_555
H42 C37 1_555 1_555
C38 C37 1_555 1_555
H43 C38 1_555 1_555
H44 C38 1_555 1_555
C39 C38 1_555 1_555
H45 C39 1_555 1_555
H46 C39 1_555 1_555
C40 C37 1_555 1_555
H47 C40 1_555 1_555
C41 C40 1_555 1_555
H48 C41 1_555 1_555
H49 C41 1_555 1_555
C42 C41 1_555 1_555
H50 C42 1_555 1_555
H51 C42 1_555 1_555
C43 H52 1_555 1_555
H53 C43 1_555 1_555
C44 C40 1_555 1_555
H54 C44 1_555 1_555
H55 C44 1_555 1_555
C45 C46 1_555 1_555
C46 H56 1_555 1_555
C47 C48 1_555 1_555
C48 H57 1_555 1_555
C49 C47 1_555 1_555
H58 C49 1_555 1_555
H59 C49 1_555 1_555
H60 C49 1_555 1_555
N8 C29 1_555 1_555
N9 C30 1_555 1_555
N11 C29 1_555 1_555
N12 C42 1_555 1_555
N13 C46 1_555 1_555
N14 C45 1_555 1_555
C50 C51 1_555 1_555
C51 H61 1_555 1_555
C52 C51 1_555 1_555
H62 C52 1_555 1_555
C53 C52 1_555 1_555
H63 C53 1_555 1_555
C54 C53 1_555 1_555
H64 C54 1_555 1_555
C55 C50 1_555 1_555
H65 C55 1_555 1_555
C56 C50 1_555 1_555
O3 C56 1_555 1_555
H66 O3 1_555 1_555
O4 C56 1_555 1_555
C2 N1 1_555 1_555
C3 N2 1_555 1_555
C7 N4 1_555 1_555
C11 N4 1_555 1_555
C15 C16 1_555 1_555
C15 N5 1_555 1_555
C17 N5 1_555 1_555
C19 N6 1_555 1_555
C20 N7 1_555 1_555
C26 C27 1_555 1_555
C30 N8 1_555 1_555
C31 N9 1_555 1_555
C35 N11 1_555 1_555
C39 N11 1_555 1_555
C43 C44 1_555 1_555
C43 N12 1_555 1_555
C45 N12 1_555 1_555
C47 N13 1_555 1_555
C48 N14 1_555 1_555
C54 C55 1_555 1_555

#END
