
#######################################################################
#
#                 Cambridge Crystallographic Data Centre
#                                CCDC 
#
#######################################################################
#
# If this CIF has been generated from an entry in the Cambridge 
# Structural Database, then it will include bibliographic, chemical, 
# crystal, experimental, refinement or atomic coordinate data resulting 
# from the CCDC's data processing and validation procedures.
#
#######################################################################

data_DAWMUJ
_chemical_formula_moiety         'C16 H29 N1 O2'
_chemical_name_systematic        
2,2-Dimethyl-5-(N-isopropyl)-amino-6-(2,2-dimethyl-1-hydroxy-cyclopropyl)-hex-4-en-3-one
_symmetry_cell_setting           monoclinic
_symmetry_space_group_name_H-M   'P 21/c'
_symmetry_Int_Tables_number      14
_space_group_name_Hall           '-P 2ybc'
loop_
_symmetry_equiv_pos_site_id
_symmetry_equiv_pos_as_xyz
1 x,y,z
2 -x,1/2+y,1/2-z
3 -x,-y,-z
4 x,1/2-y,1/2+z
_cell_length_a                   5.826(3)
_cell_length_b                   19.328(10)
_cell_length_c                   15.293(9)
_cell_angle_alpha                90
_cell_angle_beta                 95.85(4)
_cell_angle_gamma                90
_cell_volume                     1713.1
_cell_formula_units_Z            4
loop_
_atom_site_label
_atom_site_type_symbol
_atom_site_fract_x
_atom_site_fract_y
_atom_site_fract_z
C1 C 0.5776(36) 0.5793(9) 0.3407(11)
C2 C 0.5314(14) 0.6431(4) 0.3962(5)
C3 C 0.3783(13) 0.6990(4) 0.3490(5)
C4 C 0.3038(12) 0.6926(4) 0.2586(4)
C5 C 0.1528(14) 0.7381(4) 0.2130(4)
C6 C 0.0642(14) 0.7254(4) 0.1157(4)
C7 C 0.4060(43) 0.6194(11) 0.4810(12)
C8 C 0.7651(35) 0.6821(11) 0.4283(16)
O1 O 0.3250(10) 0.7492(3) 0.3940(3)
N1 N 0.0727(12) 0.7941(3) 0.2499(4)
C9 C -0.0856(16) 0.8461(5) 0.2084(5)
C10 C -0.2765(19) 0.8594(7) 0.2650(8)
C11 C 0.0412(21) 0.9103(6) 0.1925(9)
O2 O 0.4082(9) 0.6830(3) 0.0551(3)
C12 C 0.1795(14) 0.6677(4) 0.0702(4)
C13 C 0.1188(13) 0.5920(4) 0.0826(5)
C14 C 0.0334(15) 0.6292(4) -0.0023(5)
C15 C 0.3098(16) 0.5401(4) 0.0789(6)
C16 C -0.0577(14) 0.5728(5) 0.1432(5)
loop_
_geom_bond_atom_site_label_1
_geom_bond_atom_site_label_2
_geom_bond_site_symmetry_1
_geom_bond_site_symmetry_2
C1 C2 1_555 1_555
C2 C3 1_555 1_555
C3 C4 1_555 1_555
C4 C5 1_555 1_555
C5 C6 1_555 1_555
C6 C12 1_555 1_555
C7 C2 1_555 1_555
C8 C2 1_555 1_555
O1 C3 1_555 1_555
N1 C5 1_555 1_555
C9 N1 1_555 1_555
C10 C9 1_555 1_555
C11 C9 1_555 1_555
O2 C12 1_555 1_555
C12 C13 1_555 1_555
C13 C14 1_555 1_555
C14 C12 1_555 1_555
C15 C13 1_555 1_555
C16 C13 1_555 1_555

#END
