
#######################################################################
#
#                 Cambridge Crystallographic Data Centre
#                                CCDC 
#
#######################################################################
#
# If this CIF has been generated from an entry in the Cambridge 
# Structural Database, then it will include bibliographic, chemical, 
# crystal, experimental, refinement or atomic coordinate data resulting 
# from the CCDC's data processing and validation procedures.
#
#######################################################################

data_DAWMIA
_chemical_formula_moiety         'C19 H27 N3 O2 S1'
_chemical_name_systematic        
5-(1-butyl-2,6-dimethylpyridin-4(1H)-ylidene)-1,3-diethyl-2-sulfanylidenedihydropyrimidine-4,6(1H,5H)-dione
_symmetry_cell_setting           triclinic
_symmetry_space_group_name_H-M   'P -1'
_symmetry_Int_Tables_number      2
_space_group_name_Hall           '-P 1'
loop_
_symmetry_equiv_pos_site_id
_symmetry_equiv_pos_as_xyz
1 x,y,z
2 -x,-y,-z
_cell_length_a                   8.252(6)
_cell_length_b                   8.626(6)
_cell_length_c                   15.276(10)
_cell_angle_alpha                96.785(14)
_cell_angle_beta                 98.511(13)
_cell_angle_gamma                117.108(13)
_cell_volume                     935.753
_exptl_crystal_colour            yellow
_exptl_crystal_description       Block
_cell_formula_units_Z            2
loop_
_atom_site_label
_atom_site_type_symbol
_atom_site_fract_x
_atom_site_fract_y
_atom_site_fract_z
S1 S 0.83785(9) 0.18012(9) 0.43602(4)
O1 O 0.8893(2) 0.3348(2) 0.13978(10)
O2 O 0.29272(19) 0.0642(2) 0.20506(10)
N1 N 0.8455(2) 0.2443(2) 0.27110(10)
N2 N 0.5528(2) 0.1177(2) 0.30474(10)
N3 N 0.3587(2) 0.29272(19) -0.08801(9)
C1 C 0.7749(3) 0.2614(3) 0.18422(12)
C2 C 0.7418(3) 0.1815(2) 0.33295(12)
C3 C 0.4640(3) 0.1252(3) 0.21993(12)
C4 C 0.5779(2) 0.1982(2) 0.15863(12)
C5 C 0.4973(2) 0.2197(2) 0.07287(12)
C6 C 0.5892(3) 0.2493(3) 0.00124(12)
H1 H 0.7000 0.2435 0.0070
C7 C 0.5229(3) 0.2864(2) -0.07647(12)
C8 C 0.2573(2) 0.2551(2) -0.02263(12)
C9 C 0.3242(2) 0.2181(2) 0.05493(12)
H2 H 0.2520 0.1906 0.0979
C10 C 1.0480(3) 0.3026(3) 0.29381(14)
H3 H 1.0870 0.2816 0.2388
H4 H 1.0706 0.2314 0.3336
C11 C 1.1635(3) 0.4953(3) 0.33893(17)
H5 H 1.1469 0.5669 0.2986
H6 H 1.2930 0.5254 0.3539
H7 H 1.1249 0.5172 0.3932
C12 C 0.4302(3) 0.0439(3) 0.36759(13)
H8 H 0.4810 -0.0131 0.4057
H9 H 0.3072 -0.0462 0.3328
C13 C 0.4117(4) 0.1841(4) 0.42625(16)
H10 H 0.5323 0.2709 0.4629
H11 H 0.3289 0.1300 0.4647
H12 H 0.3619 0.2413 0.3888
C14 C 0.6322(3) 0.3246(3) -0.14899(13)
H13 H 0.6833 0.4485 -0.1511
H14 H 0.5511 0.2533 -0.2065
H15 H 0.7320 0.2966 -0.1357
C15 C 0.0748(3) 0.2573(3) -0.03655(14)
H16 H 0.0220 0.2299 0.0152
H17 H -0.0098 0.1701 -0.0897
H18 H 0.0952 0.3733 -0.0440
C16 C 0.2914(3) 0.3411(2) -0.17078(12)
H19 H 0.3984 0.4263 -0.1899
H20 H 0.2185 0.3985 -0.1563
C17 C 0.1733(3) 0.1823(3) -0.24802(13)
H21 H 0.0643 0.0983 -0.2297
H22 H 0.2450 0.1232 -0.2619
C18 C 0.1105(3) 0.2361(3) -0.33219(14)
H23 H 0.0312 0.1295 -0.3789
H24 H 0.0354 0.2913 -0.3182
C19 C 0.2667(4) 0.3621(4) -0.36922(16)
H25 H 0.3347 0.4752 -0.3274
H26 H 0.2161 0.3775 -0.4263
H27 H 0.3494 0.3143 -0.3777
loop_
_geom_bond_atom_site_label_1
_geom_bond_atom_site_label_2
_geom_bond_site_symmetry_1
_geom_bond_site_symmetry_2
S1 C2 1_555 1_555
O1 C1 1_555 1_555
O2 C3 1_555 1_555
N1 C1 1_555 1_555
N2 C2 1_555 1_555
N3 C7 1_555 1_555
C1 C4 1_555 1_555
C2 N1 1_555 1_555
C3 N2 1_555 1_555
C4 C3 1_555 1_555
C5 C4 1_555 1_555
C6 C5 1_555 1_555
H1 C6 1_555 1_555
C7 C6 1_555 1_555
C8 N3 1_555 1_555
C9 C5 1_555 1_555
H2 C9 1_555 1_555
C10 N1 1_555 1_555
H3 C10 1_555 1_555
H4 C10 1_555 1_555
C11 C10 1_555 1_555
H5 C11 1_555 1_555
H6 C11 1_555 1_555
H7 C11 1_555 1_555
C12 N2 1_555 1_555
H8 C12 1_555 1_555
H9 C12 1_555 1_555
C13 C12 1_555 1_555
H10 C13 1_555 1_555
H11 C13 1_555 1_555
H12 C13 1_555 1_555
C14 C7 1_555 1_555
H13 C14 1_555 1_555
H14 C14 1_555 1_555
H15 C14 1_555 1_555
C15 C8 1_555 1_555
H16 C15 1_555 1_555
H17 C15 1_555 1_555
H18 C15 1_555 1_555
C16 N3 1_555 1_555
H19 C16 1_555 1_555
H20 C16 1_555 1_555
C17 C16 1_555 1_555
H21 C17 1_555 1_555
H22 C17 1_555 1_555
C18 C17 1_555 1_555
H23 C18 1_555 1_555
H24 C18 1_555 1_555
C19 C18 1_555 1_555
H25 C19 1_555 1_555
H26 C19 1_555 1_555
H27 C19 1_555 1_555
C8 C9 1_555 1_555

#END
