
#######################################################################
#
#                 Cambridge Crystallographic Data Centre
#                                CCDC 
#
#######################################################################
#
# If this CIF has been generated from an entry in the Cambridge 
# Structural Database, then it will include bibliographic, chemical, 
# crystal, experimental, refinement or atomic coordinate data resulting 
# from the CCDC's data processing and validation procedures.
#
#######################################################################

data_DAWMUK
_chemical_formula_moiety         'C20 H29 I1 O4'
_chemical_name_systematic        
'1-(7-Iodobicyclo[4.1.0]heptan-1-yl)propyl 4,7,7-trimethyl-3-oxo-2-oxabicyclo[2.2.1]heptane-1-carboxylate'
_symmetry_cell_setting           orthorhombic
_symmetry_space_group_name_H-M   'P 21 21 21'
_symmetry_Int_Tables_number      19
_space_group_name_Hall           'P 2ac 2ab'
loop_
_symmetry_equiv_pos_site_id
_symmetry_equiv_pos_as_xyz
1 x,y,z
2 1/2+x,1/2-y,-z
3 -x,1/2+y,1/2-z
4 1/2-x,-y,1/2+z
_cell_length_a                   6.8584(3)
_cell_length_b                   13.6465(8)
_cell_length_c                   21.3782(14)
_cell_angle_alpha                90
_cell_angle_beta                 90
_cell_angle_gamma                90
_cell_volume                     2000.85
_cell_formula_units_Z            4
loop_
_atom_site_label
_atom_site_type_symbol
_atom_site_fract_x
_atom_site_fract_y
_atom_site_fract_z
I1 I 0.18165(3) 0.812913(14) 0.825640(10)
C1 C 0.4148(4) 0.7293(2) 0.86149(12)
H1 H 0.5379 0.7656 0.8633
C2 C 0.3884(4) 0.65993(19) 0.91490(11)
H2 H 0.2523 0.6487 0.9269
C3 C 0.5320(4) 0.6558(2) 0.96884(13)
H3 H 0.4988 0.6012 0.9958
H4 H 0.5210 0.7155 0.9933
C4 C 0.7420(4) 0.6443(2) 0.94654(14)
H5 H 0.7856 0.7049 0.9274
H6 H 0.8258 0.6307 0.9821
C5 C 0.7572(4) 0.5618(2) 0.89980(13)
H7 H 0.6995 0.5030 0.9173
H8 H 0.8935 0.5483 0.8912
C6 C 0.6538(4) 0.5878(2) 0.83916(12)
H9 H 0.6536 0.5312 0.8118
H10 H 0.7248 0.6399 0.8183
C7 C 0.4424(4) 0.62115(18) 0.85047(11)
C8 C 0.2861(3) 0.56180(18) 0.81884(10)
H11 H 0.1586 0.5916 0.8270
C9 C 0.1761(4) 0.57835(17) 0.71230(10)
C10 C 0.2486(3) 0.56680(19) 0.64632(10)
C11 C 0.3396(4) 0.46707(19) 0.63088(11)
H12 H 0.2415 0.4160 0.6286
H13 H 0.4378 0.4488 0.6614
C12 C 0.4312(4) 0.4872(2) 0.56613(12)
H14 H 0.3749 0.4450 0.5344
H15 H 0.5712 0.4772 0.5671
C13 C 0.3811(4) 0.59627(19) 0.55328(11)
C14 C 0.1628(4) 0.59383(17) 0.54593(11)
C15 C 0.3958(4) 0.64243(18) 0.61990(10)
C16 C 0.4897(5) 0.6436(2) 0.49996(12)
H16 H 0.4568 0.6112 0.4615
H17 H 0.6275 0.6383 0.5071
H18 H 0.4540 0.7115 0.4972
C17 C 0.6003(4) 0.6379(2) 0.64803(12)
H19 H 0.6881 0.6759 0.6228
H20 H 0.6437 0.5711 0.6492
H21 H 0.5977 0.6640 0.6897
C18 C 0.3193(5) 0.74737(18) 0.62308(12)
H22 H 0.3242 0.7701 0.6655
H23 H 0.1870 0.7491 0.6084
H24 H 0.3986 0.7889 0.5972
C19 C 0.2818(4) 0.4530(2) 0.83890(11)
H25 H 0.4091 0.4248 0.8306
H26 H 0.2607 0.4503 0.8837
C20 C 0.1403(6) 0.3940(2) 0.80974(15)
H27 H 0.0135 0.4221 0.8162
H28 H 0.1440 0.3294 0.8274
H29 H 0.1668 0.3904 0.7657
O1 O 0.3262(3) 0.56407(13) 0.75161(7)
O2 O 0.0118(3) 0.59686(18) 0.72703(8)
O3 O 0.0841(2) 0.57618(13) 0.60373(7)
O4 O 0.0625(3) 0.60235(15) 0.50042(8)
loop_
_geom_bond_atom_site_label_1
_geom_bond_atom_site_label_2
_geom_bond_site_symmetry_1
_geom_bond_site_symmetry_2
I1 C1 1_555 1_555
C1 H1 1_555 1_555
C2 C1 1_555 1_555
H2 C2 1_555 1_555
C3 C2 1_555 1_555
H3 C3 1_555 1_555
H4 C3 1_555 1_555
C4 C3 1_555 1_555
H5 C4 1_555 1_555
H6 C4 1_555 1_555
C5 C4 1_555 1_555
H7 C5 1_555 1_555
H8 C5 1_555 1_555
C6 C5 1_555 1_555
H9 C6 1_555 1_555
H10 C6 1_555 1_555
C7 C1 1_555 1_555
C8 C7 1_555 1_555
H11 C8 1_555 1_555
C9 C10 1_555 1_555
C10 C11 1_555 1_555
C11 H12 1_555 1_555
H13 C11 1_555 1_555
C12 C11 1_555 1_555
H14 C12 1_555 1_555
H15 C12 1_555 1_555
C13 C12 1_555 1_555
C14 C13 1_555 1_555
C15 C10 1_555 1_555
C16 C13 1_555 1_555
H16 C16 1_555 1_555
H17 C16 1_555 1_555
H18 C16 1_555 1_555
C17 C15 1_555 1_555
H19 C17 1_555 1_555
H20 C17 1_555 1_555
H21 C17 1_555 1_555
C18 C15 1_555 1_555
H22 C18 1_555 1_555
H23 C18 1_555 1_555
H24 C18 1_555 1_555
C19 C8 1_555 1_555
H25 C19 1_555 1_555
H26 C19 1_555 1_555
C20 C19 1_555 1_555
H27 C20 1_555 1_555
H28 C20 1_555 1_555
H29 C20 1_555 1_555
O1 C8 1_555 1_555
O2 C9 1_555 1_555
O3 C10 1_555 1_555
O4 C14 1_555 1_555
C2 C7 1_555 1_555
C6 C7 1_555 1_555
C9 O1 1_555 1_555
C13 C15 1_555 1_555
C14 O3 1_555 1_555

#END
