
#######################################################################
#
#                 Cambridge Crystallographic Data Centre
#                                CCDC 
#
#######################################################################
#
# If this CIF has been generated from an entry in the Cambridge 
# Structural Database, then it will include bibliographic, chemical, 
# crystal, experimental, refinement or atomic coordinate data resulting 
# from the CCDC's data processing and validation procedures.
#
#######################################################################

data_DAWNAR
_chemical_formula_moiety         'C18 H28 O4'
_chemical_name_systematic        
'1-(2,2-Dimethylcyclopropyl)propyl 4,7,7-trimethyl-3-oxo-2-oxabicyclo[2.2.1]heptane-1-carboxylate'
_symmetry_cell_setting           monoclinic
_symmetry_space_group_name_H-M   'P 21'
_symmetry_Int_Tables_number      4
_space_group_name_Hall           'P 2yb'
loop_
_symmetry_equiv_pos_site_id
_symmetry_equiv_pos_as_xyz
1 x,y,z
2 -x,1/2+y,-z
_cell_length_a                   6.4480(10)
_cell_length_b                   20.322(3)
_cell_length_c                   6.7818(10)
_cell_angle_alpha                90
_cell_angle_beta                 102.779(4)
_cell_angle_gamma                90
_cell_volume                     866.65
_cell_formula_units_Z            2
loop_
_atom_site_label
_atom_site_type_symbol
_atom_site_fract_x
_atom_site_fract_y
_atom_site_fract_z
C1 C 0.3993(3) 0.34091(11) 0.2689(3)
C2 C 0.4999(3) 0.27385(10) 0.2980(3)
H1 H 0.5496 0.2548 0.1855
H2 H 0.4434 0.2424 0.3802
C3 C 0.6188(3) 0.33293(10) 0.4033(3)
H3 H 0.7342 0.3484 0.3423
C4 C 0.2107(3) 0.35308(13) 0.3609(4)
H4 H 0.2097 0.3983 0.4016
H5 H 0.2199 0.3252 0.4768
H6 H 0.0822 0.3435 0.2631
C5 C 0.3867(4) 0.37547(11) 0.0702(3)
H7 H 0.3748 0.4220 0.0886
H8 H 0.2643 0.3601 -0.0266
H9 H 0.5128 0.3663 0.0218
C6 C 0.6630(3) 0.34001(9) 0.6280(3)
H10 H 0.5292 0.3382 0.6738
C7 C 0.7806(3) 0.40273(9) 0.7027(3)
H11 H 0.9071 0.4061 0.6481
H12 H 0.8250 0.4015 0.8490
C8 C 0.6396(4) 0.46295(9) 0.6389(4)
H13 H 0.5880 0.4626 0.4949
H14 H 0.7209 0.5022 0.6783
H15 H 0.5215 0.4618 0.7037
C9 C 0.7092(3) 0.23436(9) 0.7910(3)
C10 C 0.8677(3) 0.18099(9) 0.8634(3)
C11 C 1.0878(3) 0.19965(9) 0.9858(3)
H16 H 1.0818 0.2149 1.1200
H17 H 1.1526 0.2334 0.9181
C12 C 1.2082(3) 0.13387(10) 0.9945(3)
H18 H 1.2549 0.1187 1.1328
H19 H 1.3309 0.1381 0.9346
C13 C 1.0413(3) 0.08614(9) 0.8697(3)
C14 C 0.8825(4) 0.07886(10) 1.0010(4)
C15 C 0.9126(3) 0.13183(9) 0.7028(3)
C16 C 1.0405(3) 0.16069(10) 0.5589(3)
H20 H 1.0729 0.1266 0.4726
H21 H 1.1704 0.1792 0.6358
H22 H 0.9587 0.1944 0.4779
C17 C 0.7107(4) 0.09958(10) 0.5779(3)
H23 H 0.6270 0.1321 0.4929
H24 H 0.6293 0.0812 0.6672
H25 H 0.7493 0.0653 0.4955
C18 C 1.1287(4) 0.02251(10) 0.8068(4)
H26 H 1.2058 -0.0002 0.9246
H27 H 1.2224 0.0318 0.7184
H28 H 1.0135 -0.0046 0.7376
O1 O 0.8032(2) 0.28540(6) 0.7201(2)
O2 O 0.5234(2) 0.23141(7) 0.7919(2)
O3 O 0.7773(2) 0.13783(6) 0.9957(2)
O4 O 0.8450(3) 0.03378(7) 1.1012(3)
loop_
_geom_bond_atom_site_label_1
_geom_bond_atom_site_label_2
_geom_bond_site_symmetry_1
_geom_bond_site_symmetry_2
C1 C2 1_555 1_555
C2 H1 1_555 1_555
H2 C2 1_555 1_555
C3 C1 1_555 1_555
H3 C3 1_555 1_555
C4 C1 1_555 1_555
H4 C4 1_555 1_555
H5 C4 1_555 1_555
H6 C4 1_555 1_555
C5 C1 1_555 1_555
H7 C5 1_555 1_555
H8 C5 1_555 1_555
H9 C5 1_555 1_555
C6 C3 1_555 1_555
H10 C6 1_555 1_555
C7 C6 1_555 1_555
H11 C7 1_555 1_555
H12 C7 1_555 1_555
C8 C7 1_555 1_555
H13 C8 1_555 1_555
H14 C8 1_555 1_555
H15 C8 1_555 1_555
C9 C10 1_555 1_555
C10 C11 1_555 1_555
C11 H16 1_555 1_555
H17 C11 1_555 1_555
C12 C11 1_555 1_555
H18 C12 1_555 1_555
H19 C12 1_555 1_555
C13 C12 1_555 1_555
C14 C13 1_555 1_555
C15 C10 1_555 1_555
C16 C15 1_555 1_555
H20 C16 1_555 1_555
H21 C16 1_555 1_555
H22 C16 1_555 1_555
C17 C15 1_555 1_555
H23 C17 1_555 1_555
H24 C17 1_555 1_555
H25 C17 1_555 1_555
C18 C13 1_555 1_555
H26 C18 1_555 1_555
H27 C18 1_555 1_555
H28 C18 1_555 1_555
O1 C6 1_555 1_555
O2 C9 1_555 1_555
O3 C10 1_555 1_555
O4 C14 1_555 1_555
C2 C3 1_555 1_555
C9 O1 1_555 1_555
C13 C15 1_555 1_555
C14 O3 1_555 1_555

#END
