
#######################################################################
#
#                 Cambridge Crystallographic Data Centre
#                                CCDC 
#
#######################################################################
#
# If this CIF has been generated from an entry in the Cambridge 
# Structural Database, then it will include bibliographic, chemical, 
# crystal, experimental, refinement or atomic coordinate data resulting 
# from the CCDC's data processing and validation procedures.
#
#######################################################################

data_DAWRAX
_chemical_formula_moiety         'C11 H9 N1 O1,C12 H9 N1,C6 F4 I2'
_chemical_name_systematic        
'4-phenylpyridin-1-oxide 9H-carbazole 1,2,4,5-tetrafluoro-3,6-diiodobenzene'
_symmetry_cell_setting           triclinic
_symmetry_space_group_name_H-M   'P -1'
_symmetry_Int_Tables_number      2
_space_group_name_Hall           '-P 1'
loop_
_symmetry_equiv_pos_site_id
_symmetry_equiv_pos_as_xyz
1 x,y,z
2 -x,-y,-z
_cell_length_a                   9.275(6)
_cell_length_b                   9.837(6)
_cell_length_c                   15.718(10)
_cell_angle_alpha                108.178(10)
_cell_angle_beta                 90.941(10)
_cell_angle_gamma                106.855(9)
_cell_volume                     1294.94
_exptl_crystal_colour            colorless
_exptl_crystal_description       block
_cell_formula_units_Z            2
loop_
_atom_site_label
_atom_site_type_symbol
_atom_site_fract_x
_atom_site_fract_y
_atom_site_fract_z
O1 O 0.7686(8) 0.5573(7) 0.6079(4)
N1 N 0.7670(9) 0.5967(8) 0.6965(5)
C1 C 0.8935(11) 0.6713(12) 0.7526(7)
H1 H 0.9860 0.6931 0.7296
C2 C 0.8894(9) 0.7176(11) 0.8460(6)
H2 H 0.9794 0.7707 0.8842
C3 C 0.7551(8) 0.6860(8) 0.8823(6)
C4 C 0.7460(8) 0.7391(8) 0.9814(6)
C5 C 0.8754(9) 0.8301(10) 1.0425(6)
H3 H 0.9685 0.8568 1.0208
C6 C 0.8675(10) 0.8815(11) 1.1350(6)
H4 H 0.9548 0.9422 1.1742
C7 C 0.7303(11) 0.8426(10) 1.1685(6)
H5 H 0.7249 0.8758 1.2303
C8 C 0.6008(10) 0.7537(11) 1.1093(7)
H6 H 0.5080 0.7286 1.1316
C9 C 0.6077(9) 0.7015(10) 1.0169(6)
H7 H 0.5198 0.6412 0.9782
C10 C 0.6232(10) 0.6053(11) 0.8205(6)
H8 H 0.5292 0.5831 0.8419
C11 C 0.6311(11) 0.5593(12) 0.7297(7)
H9 H 0.5433 0.5021 0.6901
N2 N 0.6744(13) 0.1018(13) 0.0600(9)
H10 H 0.6371 0.0116 0.0612
C12 C 0.7052(12) 0.2335(15) 0.1334(9)
C13 C 0.6829(14) 0.2330(18) 0.2207(15)
H11 H 0.6472 0.1450 0.2349
C14 C 0.7211(14) 0.386(2) 0.2894(9)
H12 H 0.7085 0.3992 0.3497
C15 C 0.7774(14) 0.5090(16) 0.2581(10)
H13 H 0.8016 0.6064 0.2987
C16 C 0.7963(12) 0.4887(17) 0.1726(11)
H14 H 0.8357 0.5734 0.1555
C17 C 0.7639(14) 0.3601(18) 0.1122(10)
C18 C 0.7764(11) 0.3092(16) 0.0120(8)
C19 C 0.8187(12) 0.3685(14) -0.0532(12)
H15 H 0.8550 0.4727 -0.0382
C20 C 0.8102(15) 0.283(2) -0.1382(11)
H16 H 0.8446 0.3283 -0.1811
C21 C 0.7530(16) 0.133(2) -0.1633(10)
H17 H 0.7457 0.0787 -0.2242
C22 C 0.7074(11) 0.0592(13) -0.1092(10)
H18 H 0.6707 -0.0454 -0.1304
C23 C 0.7142(11) 0.142(2) -0.0150(11)
I1 I 0.64262(6) 0.73784(5) 0.55182(3)
F1 F 0.5995(8) 0.8065(7) 0.3681(4)
F2 F 0.5034(8) 0.9928(7) 0.6711(4)
C24 C 0.5585(7) 0.8949(8) 0.5207(5)
C25 C 0.5501(9) 0.9015(8) 0.4349(5)
C26 C 0.5051(10) 0.9950(10) 0.5864(5)
I1A I 0.35738(6) 1.26216(5) 0.44818(3)
F1A F 0.4005(8) 1.1935(7) 0.6319(4)
F2A F 0.4966(8) 1.0072(7) 0.3289(4)
C24A C 0.4415(7) 1.1051(8) 0.4793(5)
C25A C 0.4499(9) 1.0985(8) 0.5651(5)
C26A C 0.4949(10) 1.0050(10) 0.4136(5)
I2 I 0.86824(5) 0.31372(5) 0.55247(3)
F3 F 0.9157(8) 0.0894(6) 0.3655(3)
F4 F 0.9783(8) 0.1441(6) 0.6745(3)
C27 C 0.9435(8) 0.1262(8) 0.5209(5)
C28 C 0.9539(9) 0.0456(9) 0.4339(5)
C29 C 0.9883(9) 0.0755(9) 0.5871(5)
I2A I 1.13176(5) -0.31372(5) 0.44753(3)
F3A F 1.0843(8) -0.0894(6) 0.6345(3)
F4A F 1.0217(8) -0.1441(6) 0.3255(3)
C27A C 1.0565(8) -0.1262(8) 0.4791(5)
C28A C 1.0461(9) -0.0456(9) 0.5661(5)
C29A C 1.0117(9) -0.0755(9) 0.4129(5)
loop_
_geom_bond_atom_site_label_1
_geom_bond_atom_site_label_2
_geom_bond_site_symmetry_1
_geom_bond_site_symmetry_2
O1 N1 1_555 1_555
N1 C1 1_555 1_555
C1 H1 1_555 1_555
C2 C1 1_555 1_555
H2 C2 1_555 1_555
C3 C2 1_555 1_555
C4 C3 1_555 1_555
C5 C4 1_555 1_555
H3 C5 1_555 1_555
C6 C5 1_555 1_555
H4 C6 1_555 1_555
C7 C6 1_555 1_555
H5 C7 1_555 1_555
C8 C7 1_555 1_555
H6 C8 1_555 1_555
C9 C4 1_555 1_555
H7 C9 1_555 1_555
C10 C3 1_555 1_555
H8 C10 1_555 1_555
C11 N1 1_555 1_555
H9 C11 1_555 1_555
N2 H10 1_555 1_555
C12 N2 1_555 1_555
C13 C12 1_555 1_555
H11 C13 1_555 1_555
C14 C13 1_555 1_555
H12 C14 1_555 1_555
C15 C14 1_555 1_555
H13 C15 1_555 1_555
C16 C15 1_555 1_555
H14 C16 1_555 1_555
C17 C12 1_555 1_555
C18 C17 1_555 1_555
C19 C18 1_555 1_555
H15 C19 1_555 1_555
C20 C19 1_555 1_555
H16 C20 1_555 1_555
C21 C20 1_555 1_555
H17 C21 1_555 1_555
C22 C21 1_555 1_555
H18 C22 1_555 1_555
C23 N2 1_555 1_555
I1 C24 1_555 1_555
F1 C25 1_555 1_555
F2 C26 1_555 1_555
C24 C25 1_555 1_555
C25 C26A 1_555 1_555
C26 C24 1_555 1_555
I2 C27 1_555 1_555
F3 C28 1_555 1_555
F4 C29 1_555 1_555
C27 C28 1_555 1_555
C28 C29A 1_555 1_555
C29 C27 1_555 1_555
I1A C24A 1_555 1_555
F1A C25A 1_555 1_555
F2A C26A 1_555 1_555
C24A C25A 1_555 1_555
C25A C26 1_555 1_555
C26A C24A 1_555 1_555
I2A C27A 1_555 1_555
F3A C28A 1_555 1_555
F4A C29A 1_555 1_555
C27A C28A 1_555 1_555
C28A C29 1_555 1_555
C29A C27A 1_555 1_555
C8 C9 1_555 1_555
C10 C11 1_555 1_555
C16 C17 1_555 1_555
C18 C23 1_555 1_555
C22 C23 1_555 1_555

#END
