
#######################################################################
#
#                 Cambridge Crystallographic Data Centre
#                                CCDC 
#
#######################################################################
#
# If this CIF has been generated from an entry in the Cambridge 
# Structural Database, then it will include bibliographic, chemical, 
# crystal, experimental, refinement or atomic coordinate data resulting 
# from the CCDC's data processing and validation procedures.
#
#######################################################################

data_DAWYUY
_chemical_formula_moiety         'C11 H9 Cl1 O2'
_chemical_name_systematic        
7-chloro-3,3a,4,8b-tetrahydro-2H-indeno[1,2-b]furan-2-one
_symmetry_cell_setting           monoclinic
_symmetry_space_group_name_H-M   'P 21/c'
_symmetry_Int_Tables_number      14
_space_group_name_Hall           '-P 2ybc'
loop_
_symmetry_equiv_pos_site_id
_symmetry_equiv_pos_as_xyz
1 x,y,z
2 -x,1/2+y,1/2-z
3 -x,-y,-z
4 x,1/2-y,1/2+z
_cell_length_a                   20.5110(9)
_cell_length_b                   7.8679(3)
_cell_length_c                   12.2037(6)
_cell_angle_alpha                90
_cell_angle_beta                 107.158(5)
_cell_angle_gamma                90
_cell_volume                     1881.77
_exptl_crystal_colour            colorless
_exptl_crystal_description       plate
_cell_formula_units_Z            8
loop_
_atom_site_label
_atom_site_type_symbol
_atom_site_fract_x
_atom_site_fract_y
_atom_site_fract_z
Cl1 Cl 0.60906(9) 0.4184(2) 0.82770(16)
O1 O 0.2386(2) 0.2163(8) 0.6387(5)
O2 O 0.3202(2) 0.3911(6) 0.6258(4)
C1 C 0.4306(3) 0.3826(6) 0.5845(5)
C2 C 0.4799(3) 0.4271(7) 0.6862(5)
H1 H 0.4693 0.4947 0.7412
C3 C 0.5449(3) 0.3664(7) 0.7016(5)
C4 C 0.5627(3) 0.2673(7) 0.6223(6)
H2 H 0.6076 0.2319 0.6351
C5 C 0.5131(3) 0.2215(8) 0.5239(5)
H3 H 0.5239 0.1520 0.4701
C6 C 0.4474(3) 0.2789(7) 0.5051(5)
C7 C 0.3857(4) 0.2495(10) 0.4022(6)
H4 H 0.3774 0.1289 0.3884
H5 H 0.3922 0.3013 0.3341
C8 C 0.3259(3) 0.3337(8) 0.4338(5)
H6 H 0.2997 0.4074 0.3716
C9 C 0.3569(3) 0.4361(7) 0.5431(5)
H7 H 0.3532 0.5583 0.5268
C10 C 0.2750(3) 0.2644(10) 0.5840(6)
C11 C 0.2790(3) 0.2094(10) 0.4706(6)
H8 H 0.2340 0.2100 0.4153
H9 H 0.2973 0.0950 0.4752
Cl2 Cl 0.12071(8) 0.4311(2) 0.28728(14)
O3 O -0.2612(2) 0.2583(7) 0.1092(4)
O4 O -0.16879(19) 0.4030(5) 0.2008(4)
C12 C -0.0591(2) 0.3940(6) 0.3489(4)
C13 C -0.0082(3) 0.4424(6) 0.3015(4)
H10 H -0.0175 0.5184 0.2405
C14 C 0.0557(2) 0.3766(6) 0.3461(5)
C15 C 0.0709(3) 0.2653(6) 0.4390(4)
H11 H 0.1151 0.2242 0.4694
C16 C 0.0204(3) 0.2161(6) 0.4857(5)
H12 H 0.0302 0.1413 0.5474
C17 C -0.0457(3) 0.2793(6) 0.4398(4)
C18 C -0.1078(3) 0.2415(7) 0.4759(5)
H13 H -0.1001 0.2679 0.5564
H14 H -0.1205 0.1227 0.4632
C19 C -0.1636(3) 0.3570(7) 0.3996(5)
H15 H -0.1789 0.4390 0.4472
C20 C -0.1317(3) 0.4512(7) 0.3171(5)
H16 H -0.1340 0.5745 0.3271
C21 C -0.2221(3) 0.3038(8) 0.1983(6)
C22 C -0.2251(3) 0.2684(10) 0.3178(6)
H17 H -0.2231 0.1470 0.3323
H18 H -0.2671 0.3123 0.3279
loop_
_geom_bond_atom_site_label_1
_geom_bond_atom_site_label_2
_geom_bond_site_symmetry_1
_geom_bond_site_symmetry_2
Cl1 C3 1_555 1_555
O1 C10 1_555 1_555
O2 C9 1_555 1_555
C1 C2 1_555 1_555
C2 H1 1_555 1_555
C3 C2 1_555 1_555
C4 C3 1_555 1_555
H2 C4 1_555 1_555
C5 C4 1_555 1_555
H3 C5 1_555 1_555
C6 C1 1_555 1_555
C7 C6 1_555 1_555
H4 C7 1_555 1_555
H5 C7 1_555 1_555
C8 C7 1_555 1_555
H6 C8 1_555 1_555
C9 C1 1_555 1_555
H7 C9 1_555 1_555
C10 O2 1_555 1_555
C11 C8 1_555 1_555
H8 C11 1_555 1_555
H9 C11 1_555 1_555
Cl2 C14 1_555 1_555
O3 C21 1_555 1_555
O4 C20 1_555 1_555
C12 C13 1_555 1_555
C13 H10 1_555 1_555
C14 C13 1_555 1_555
C15 C14 1_555 1_555
H11 C15 1_555 1_555
C16 C15 1_555 1_555
H12 C16 1_555 1_555
C17 C12 1_555 1_555
C18 C17 1_555 1_555
H13 C18 1_555 1_555
H14 C18 1_555 1_555
C19 C18 1_555 1_555
H15 C19 1_555 1_555
C20 C12 1_555 1_555
H16 C20 1_555 1_555
C21 O4 1_555 1_555
C22 C19 1_555 1_555
H17 C22 1_555 1_555
H18 C22 1_555 1_555
C5 C6 1_555 1_555
C8 C9 1_555 1_555
C10 C11 1_555 1_555
C16 C17 1_555 1_555
C19 C20 1_555 1_555
C21 C22 1_555 1_555

#END
