
#######################################################################
#
#                 Cambridge Crystallographic Data Centre
#                                CCDC 
#
#######################################################################
#
# If this CIF has been generated from an entry in the Cambridge 
# Structural Database, then it will include bibliographic, chemical, 
# crystal, experimental, refinement or atomic coordinate data resulting 
# from the CCDC's data processing and validation procedures.
#
#######################################################################

data_DAWYEI
_chemical_formula_moiety         'C26 H20 N2 O7'
_chemical_name_systematic        
'3-[(1-phenylprop-2-yn-1-yl)oxy]-1,2,3,4-tetrahydronaphthalen-2-yl 3,5-dinitrobenzoate'
_symmetry_cell_setting           monoclinic
_symmetry_space_group_name_H-M   'P 21'
_symmetry_Int_Tables_number      4
_space_group_name_Hall           'P 2yb'
loop_
_symmetry_equiv_pos_site_id
_symmetry_equiv_pos_as_xyz
1 x,y,z
2 -x,1/2+y,-z
_cell_length_a                   7.69760(17)
_cell_length_b                   7.2406(2)
_cell_length_c                   20.1619(5)
_cell_angle_alpha                90
_cell_angle_beta                 92.051(2)
_cell_angle_gamma                90
_cell_volume                     1123.01
_exptl_crystal_colour            colorless
_exptl_crystal_description       block
_cell_formula_units_Z            2
loop_
_atom_site_label
_atom_site_type_symbol
_atom_site_fract_x
_atom_site_fract_y
_atom_site_fract_z
O1 O 0.47779(19) 0.5505(3) 0.30666(9)
O2 O 0.2402(2) 0.3852(3) 0.21636(9)
O3 O 0.0762(3) 0.1334(4) 0.19490(13)
O4 O 0.1733(3) 0.9054(5) 0.06544(15)
N1 N 0.0178(3) 0.8797(5) 0.06222(13)
O5 O -0.0881(4) 0.9935(5) 0.04119(16)
O6 O -0.5038(4) 0.2801(6) 0.09349(17)
C1 C 0.7549(3) 0.7185(4) 0.31661(13)
N2 N -0.4480(3) 0.4172(7) 0.06781(15)
C2 C 0.5637(3) 0.7207(4) 0.29422(13)
H1 H 0.5085 0.8123 0.3224
C3 C 0.3617(3) 0.2790(4) 0.25802(13)
H2 H 0.3904 0.1640 0.2352
C4 C 0.5242(3) 0.3950(4) 0.26707(12)
H3 H 0.5640 0.4365 0.2239
C5 C 0.8881(3) 0.7618(4) 0.27598(15)
H4 H 0.8637 0.7963 0.2322
C6 C -0.0010(3) 0.4208(4) 0.14462(12)
C7 C 0.0605(3) 0.5904(5) 0.12411(12)
H5 H 0.1719 0.6296 0.1366
C8 C 0.5992(3) 0.1880(4) 0.36440(13)
C9 C 0.1083(4) 0.2946(5) 0.18755(14)
C10 C 0.2858(3) 0.2335(4) 0.32418(14)
H6 H 0.1964 0.1401 0.3178
H7 H 0.2316 0.3432 0.3418
C11 C 0.4230(3) 0.1636(4) 0.37405(13)
C12 C -0.2137(4) 0.6475(6) 0.06492(13)
H8 H -0.2845 0.7232 0.0383
C13 C 0.7937(4) 0.6706(5) 0.38192(14)
H9 H 0.7041 0.6430 0.4101
C14 C 0.5315(3) 0.7850(4) 0.22568(16)
C15 C 0.7186(4) 0.1245(5) 0.41244(17)
H10 H 0.8367 0.1427 0.4067
O7 O -0.5304(4) 0.5103(7) 0.0283(2)
C16 C 0.6632(3) 0.2750(4) 0.30192(14)
H11 H 0.6983 0.1785 0.2718
H12 H 0.7644 0.3502 0.3129
C17 C -0.0479(3) 0.7002(5) 0.08449(13)
C18 C -0.1665(4) 0.3628(5) 0.12518(13)
H13 H -0.2072 0.2478 0.1380
C19 C -0.2702(3) 0.4788(6) 0.08632(14)
C20 C 1.0968(3) 0.7046(5) 0.36430(18)
H14 H 1.2117 0.6988 0.3801
C21 C 0.3705(4) 0.0733(5) 0.43095(14)
H15 H 0.2526 0.0568 0.4377
C22 C 1.0593(3) 0.7541(5) 0.30006(18)
H16 H 1.1491 0.7830 0.2722
C23 C 0.9629(4) 0.6632(6) 0.40560(17)
H17 H 0.9874 0.6303 0.4495
C24 C 0.4918(5) 0.0078(5) 0.47753(15)
H18 H 0.4552 -0.0545 0.5149
C25 C 0.6648(5) 0.0346(6) 0.46880(16)
H19 H 0.7462 -0.0073 0.5005
C26 C 0.5010(5) 0.8428(6) 0.17219(19)
H20 H 0.4769 0.8886 0.1298
loop_
_geom_bond_atom_site_label_1
_geom_bond_atom_site_label_2
_geom_bond_site_symmetry_1
_geom_bond_site_symmetry_2
O1 C2 1_555 1_555
O2 C3 1_555 1_555
O3 C9 1_555 1_555
O4 N1 1_555 1_555
N1 O5 1_555 1_555
O6 N2 1_555 1_555
C1 C2 1_555 1_555
N2 O7 1_555 1_555
C2 H1 1_555 1_555
C3 H2 1_555 1_555
C4 O1 1_555 1_555
H3 C4 1_555 1_555
C5 C1 1_555 1_555
H4 C5 1_555 1_555
C6 C7 1_555 1_555
C7 H5 1_555 1_555
C8 C11 1_555 1_555
C9 O2 1_555 1_555
C10 C3 1_555 1_555
H6 C10 1_555 1_555
H7 C10 1_555 1_555
C11 C10 1_555 1_555
C12 H8 1_555 1_555
C13 C1 1_555 1_555
H9 C13 1_555 1_555
C14 C2 1_555 1_555
C15 C8 1_555 1_555
H10 C15 1_555 1_555
C16 C4 1_555 1_555
H11 C16 1_555 1_555
H12 C16 1_555 1_555
C17 N1 1_555 1_555
C18 C6 1_555 1_555
H13 C18 1_555 1_555
C19 N2 1_555 1_555
C20 H14 1_555 1_555
C21 C11 1_555 1_555
H15 C21 1_555 1_555
C22 C5 1_555 1_555
H16 C22 1_555 1_555
C23 C13 1_555 1_555
H17 C23 1_555 1_555
C24 C21 1_555 1_555
H18 C24 1_555 1_555
C25 C15 1_555 1_555
H19 C25 1_555 1_555
C26 C14 1_555 1_555
H20 C26 1_555 1_555
C3 C4 1_555 1_555
C6 C9 1_555 1_555
C7 C17 1_555 1_555
C8 C16 1_555 1_555
C12 C17 1_555 1_555
C12 C19 1_555 1_555
C18 C19 1_555 1_555
C20 C22 1_555 1_555
C20 C23 1_555 1_555
C24 C25 1_555 1_555

#END
