
#######################################################################
#
#                 Cambridge Crystallographic Data Centre
#                                CCDC 
#
#######################################################################
#
# If this CIF has been generated from an entry in the Cambridge 
# Structural Database, then it will include bibliographic, chemical, 
# crystal, experimental, refinement or atomic coordinate data resulting 
# from the CCDC's data processing and validation procedures.
#
#######################################################################

data_DAXCUD
_chemical_formula_moiety         'C10 H12 O2 S1'
_chemical_name_systematic        3-phenyl-1-thiolane-1,1-dione
_symmetry_cell_setting           orthorhombic
_symmetry_space_group_name_H-M   'P 21 21 21'
_symmetry_Int_Tables_number      19
_space_group_name_Hall           'P 2ac 2ab'
loop_
_symmetry_equiv_pos_site_id
_symmetry_equiv_pos_as_xyz
1 x,y,z
2 1/2-x,-y,1/2+z
3 1/2+x,1/2-y,-z
4 -x,1/2+y,1/2-z
_cell_length_a                   5.7817(12)
_cell_length_b                   8.2558(10)
_cell_length_c                   19.972(2)
_cell_angle_alpha                90
_cell_angle_beta                 90
_cell_angle_gamma                90
_cell_volume                     953.315
_exptl_crystal_colour            colorless
_exptl_crystal_description       block
_cell_formula_units_Z            4
loop_
_atom_site_label
_atom_site_type_symbol
_atom_site_fract_x
_atom_site_fract_y
_atom_site_fract_z
C1 C 0.6649(5) -0.0744(4) 0.01407(14)
H1 H 0.6290 -0.1772 -0.0070
H2 H 0.8000 -0.0286 -0.0076
C2 C 0.7096(6) -0.0978(4) 0.08860(15)
H3 H 0.8665 -0.0646 0.0990
H4 H 0.6946 -0.2117 0.0997
C3 C 0.5372(5) 0.0021(3) 0.13161(15)
H5 H 0.4020 -0.0658 0.1408
C4 C 0.4589(5) 0.1452(3) 0.08860(13)
H6 H 0.5743 0.2305 0.0885
H7 H 0.3136 0.1891 0.1047
C5 C 0.6420(5) 0.0529(3) 0.19813(13)
C6 C 0.5399(6) 0.0031(3) 0.25751(16)
H8 H 0.4040 -0.0571 0.2563
C7 C 0.6385(7) 0.0423(4) 0.31877(15)
H9 H 0.5684 0.0084 0.3583
C8 C 0.8395(7) 0.1310(4) 0.32125(16)
H10 H 0.9070 0.1553 0.3623
C9 C 0.9410(6) 0.1838(4) 0.26268(16)
H11 H 1.0754 0.2456 0.2643
C10 C 0.8433(5) 0.1452(4) 0.20177(15)
H12 H 0.9129 0.1812 0.1625
O1 O 0.4598(4) 0.1788(2) -0.04461(10)
O2 O 0.2161(3) -0.0336(2) 0.00546(12)
S1 S 0.42628(10) 0.06012(7) 0.00770(3)
loop_
_geom_bond_atom_site_label_1
_geom_bond_atom_site_label_2
_geom_bond_site_symmetry_1
_geom_bond_site_symmetry_2
C1 H1 1_555 1_555
H2 C1 1_555 1_555
C2 C1 1_555 1_555
H3 C2 1_555 1_555
H4 C2 1_555 1_555
C3 C2 1_555 1_555
H5 C3 1_555 1_555
C4 C3 1_555 1_555
H6 C4 1_555 1_555
H7 C4 1_555 1_555
C5 C3 1_555 1_555
C6 C5 1_555 1_555
H8 C6 1_555 1_555
C7 C6 1_555 1_555
H9 C7 1_555 1_555
C8 C7 1_555 1_555
H10 C8 1_555 1_555
C9 C8 1_555 1_555
H11 C9 1_555 1_555
C10 C5 1_555 1_555
H12 C10 1_555 1_555
O1 S1 1_555 1_555
O2 S1 1_555 1_555
S1 C1 1_555 1_555
C4 S1 1_555 1_555
C9 C10 1_555 1_555

#END
