
#######################################################################
#
#                 Cambridge Crystallographic Data Centre
#                                CCDC 
#
#######################################################################
#
# If this CIF has been generated from an entry in the Cambridge 
# Structural Database, then it will include bibliographic, chemical, 
# crystal, experimental, refinement or atomic coordinate data resulting 
# from the CCDC's data processing and validation procedures.
#
#######################################################################

data_DAXCOX
_chemical_formula_moiety         'C22 H26 F2 N2 O2'
_chemical_name_systematic        
N^1^,N^1^-diethyl-2,2-difluoro-4-methyl-N^5^,4-diphenylpentanediamide
_symmetry_cell_setting           monoclinic
_symmetry_space_group_name_H-M   'P 21/c'
_symmetry_Int_Tables_number      14
_space_group_name_Hall           '-P 2ybc'
loop_
_symmetry_equiv_pos_site_id
_symmetry_equiv_pos_as_xyz
1 x,y,z
2 -x,1/2+y,1/2-z
3 -x,-y,-z
4 x,1/2-y,1/2+z
_cell_length_a                   8.7598(9)
_cell_length_b                   25.852(3)
_cell_length_c                   8.8958(9)
_cell_angle_alpha                90
_cell_angle_beta                 96.431(2)
_cell_angle_gamma                90
_cell_volume                     2001.85
_exptl_crystal_colour            colorless
_exptl_crystal_description       prismatic
_cell_formula_units_Z            4
loop_
_atom_site_label
_atom_site_type_symbol
_atom_site_fract_x
_atom_site_fract_y
_atom_site_fract_z
F1 F 0.22214(11) 0.54339(4) 0.70941(10)
F2 F 0.42064(10) 0.50412(4) 0.82951(11)
N1 N 0.04750(15) 0.63172(5) 0.86522(15)
N2 N 0.18315(16) 0.43463(5) 0.69089(15)
O1 O 0.11738(13) 0.44598(4) 0.92848(12)
O2 O 0.26653(13) 0.66160(4) 0.78067(12)
C1 C 0.18175(18) 0.46130(6) 0.81947(18)
C2 C 0.26594(18) 0.51382(6) 0.83540(17)
C3 C 0.24300(18) 0.54293(6) 0.97797(17)
H1 H 0.2977 0.5242 1.0649
H2 H 0.1322 0.5424 0.9907
C4 C 0.29834(18) 0.59988(6) 0.98438(17)
C5 C 0.46824(18) 0.60447(7) 0.95686(18)
H3 H 0.5019 0.6404 0.9719
H4 H 0.4800 0.5938 0.8531
H5 H 0.5309 0.5821 1.0281
C6 C 0.20287(18) 0.63363(6) 0.86490(17)
C7 C -0.06510(18) 0.66044(6) 0.77290(17)
C8 C -0.03030(19) 0.69681(6) 0.66601(18)
H6 H 0.0736 0.7037 0.6517
C9 C -0.1486(2) 0.72296(6) 0.58069(18)
H7 H -0.1245 0.7478 0.5082
C10 C -0.3001(2) 0.71351(7) 0.59933(19)
H8 H -0.3799 0.7316 0.5401
C11 C -0.3347(2) 0.67744(7) 0.7053(2)
H9 H -0.4389 0.6708 0.7193
C12 C -0.21797(19) 0.65091(7) 0.79106(18)
H10 H -0.2428 0.6260 0.8629
C13 C 0.28751(18) 0.62411(6) 1.14153(17)
C14 C 0.2709(2) 0.67700(7) 1.1547(2)
H11 H 0.2528 0.6974 1.0655
C15 C 0.2800(2) 0.70116(8) 1.2944(2)
H12 H 0.2693 0.7377 1.3000
C16 C 0.3045(2) 0.67247(7) 1.42485(19)
H13 H 0.3100 0.6888 1.5209
C17 C 0.3209(2) 0.61993(8) 1.4145(2)
H14 H 0.3376 0.5998 1.5041
C18 C 0.3135(2) 0.59588(7) 1.27431(19)
H15 H 0.3264 0.5595 1.2694
C19 C 0.1045(2) 0.38422(7) 0.6810(2)
H16 H 0.0759 0.3753 0.5733
H17 H 0.0088 0.3867 0.7302
C20 C 0.2048(3) 0.34174(8) 0.7563(2)
H18 H 0.3020 0.3404 0.7115
H19 H 0.1518 0.3085 0.7413
H20 H 0.2256 0.3489 0.8648
C21 C 0.2697(2) 0.44652(7) 0.56233(19)
H21 H 0.3237 0.4149 0.5344
H22 H 0.3486 0.4729 0.5943
C22 C 0.1690(3) 0.46623(8) 0.4242(2)
H23 H 0.0817 0.4428 0.4007
H24 H 0.2292 0.4678 0.3378
H25 H 0.1311 0.5009 0.4448
H26 H 0.008(2) 0.6117(7) 0.931(2)
loop_
_geom_bond_atom_site_label_1
_geom_bond_atom_site_label_2
_geom_bond_site_symmetry_1
_geom_bond_site_symmetry_2
F1 C2 1_555 1_555
F2 C2 1_555 1_555
N1 C6 1_555 1_555
N2 C1 1_555 1_555
O1 C1 1_555 1_555
O2 C6 1_555 1_555
C1 C2 1_555 1_555
C2 C3 1_555 1_555
C3 H1 1_555 1_555
H2 C3 1_555 1_555
C4 C3 1_555 1_555
C5 C4 1_555 1_555
H3 C5 1_555 1_555
H4 C5 1_555 1_555
H5 C5 1_555 1_555
C6 C4 1_555 1_555
C7 N1 1_555 1_555
C8 C7 1_555 1_555
H6 C8 1_555 1_555
C9 C8 1_555 1_555
H7 C9 1_555 1_555
C10 C9 1_555 1_555
H8 C10 1_555 1_555
C11 C10 1_555 1_555
H9 C11 1_555 1_555
C12 C7 1_555 1_555
H10 C12 1_555 1_555
C13 C4 1_555 1_555
C14 C13 1_555 1_555
H11 C14 1_555 1_555
C15 C14 1_555 1_555
H12 C15 1_555 1_555
C16 C15 1_555 1_555
H13 C16 1_555 1_555
C17 C16 1_555 1_555
H14 C17 1_555 1_555
C18 C13 1_555 1_555
H15 C18 1_555 1_555
C19 N2 1_555 1_555
H16 C19 1_555 1_555
H17 C19 1_555 1_555
C20 C19 1_555 1_555
H18 C20 1_555 1_555
H19 C20 1_555 1_555
H20 C20 1_555 1_555
C21 N2 1_555 1_555
H21 C21 1_555 1_555
H22 C21 1_555 1_555
C22 C21 1_555 1_555
H23 C22 1_555 1_555
H24 C22 1_555 1_555
H25 C22 1_555 1_555
H26 N1 1_555 1_555
C11 C12 1_555 1_555
C17 C18 1_555 1_555

#END
