
#######################################################################
#
#                 Cambridge Crystallographic Data Centre
#                                CCDC 
#
#######################################################################
#
# If this CIF has been generated from an entry in the Cambridge 
# Structural Database, then it will include bibliographic, chemical, 
# crystal, experimental, refinement or atomic coordinate data resulting 
# from the CCDC's data processing and validation procedures.
#
#######################################################################

data_DAXJAQ
_chemical_formula_moiety         'C38 H34 N2 O2 S1'
_chemical_name_systematic        
N,N-dibenzyl-3-(bicyclo[4.2.0]octa-1,3,5-trien-7-yl)-N'-((4-methylphenyl)sulfonyl)-3-phenylprop-2-enimidamide
_symmetry_cell_setting           monoclinic
_symmetry_space_group_name_H-M   'P 21/c'
_symmetry_Int_Tables_number      14
_space_group_name_Hall           '-P 2ybc'
loop_
_symmetry_equiv_pos_site_id
_symmetry_equiv_pos_as_xyz
1 x,y,z
2 -x,1/2+y,1/2-z
3 -x,-y,-z
4 x,1/2-y,1/2+z
_cell_length_a                   12.375(4)
_cell_length_b                   17.958(7)
_cell_length_c                   14.179(6)
_cell_angle_alpha                90
_cell_angle_beta                 91.594(10)
_cell_angle_gamma                90
_cell_volume                     3149.78
_exptl_crystal_description       block
_cell_formula_units_Z            4
_exptl_crystal_recrystallization_method dichloromethane/hexane
loop_
_atom_site_label
_atom_site_type_symbol
_atom_site_fract_x
_atom_site_fract_y
_atom_site_fract_z
S1 S 0.84703(11) 0.42124(7) 0.16028(12)
O1 O 0.9173(3) 0.4181(2) 0.2422(3)
O2 O 0.8314(3) 0.49383(19) 0.1181(4)
N1 N 0.5677(3) 0.3729(2) 0.2454(4)
N2 N 0.7344(3) 0.3789(2) 0.1795(4)
C1 C 0.6691(4) 0.4875(3) 0.2698(5)
H1 H 0.6414 0.5270 0.2344
C2 C 0.6582(4) 0.4110(3) 0.2289(4)
C3 C 0.3798(4) 0.4168(3) 0.2257(5)
C4 C 0.5486(4) 0.2435(3) 0.2979(5)
C5 C 0.8994(4) 0.3614(3) 0.0747(5)
C6 C 0.7228(4) 0.5821(3) 0.3829(5)
C7 C 0.5527(4) 0.2952(3) 0.2128(5)
H2 H 0.6121 0.2810 0.1734
H3 H 0.4861 0.2911 0.1755
C8 C 0.7145(5) 0.5027(3) 0.3513(5)
C9 C 0.3899(5) 0.4541(3) 0.1411(5)
H4 H 0.4568 0.4733 0.1253
C10 C 0.4565(5) 0.2026(3) 0.3144(5)
H5 H 0.3968 0.2069 0.2733
C11 C 0.4746(4) 0.4052(3) 0.2917(4)
H6 H 0.4954 0.4526 0.3193
H7 H 0.4535 0.3725 0.3425
C12 C 0.8366(7) 0.4510(3) 0.5536(6)
C13 C 0.9071(5) 0.2856(3) 0.0922(5)
H8 H 0.8809 0.2652 0.1474
C14 C 0.2787(4) 0.3906(3) 0.2503(5)
H9 H 0.2695 0.3667 0.3077
C15 C 0.7853(5) 0.6315(3) 0.3338(5)
H10 H 0.8244 0.6148 0.2828
C16 C 0.1914(5) 0.4007(3) 0.1878(6)
H11 H 0.1237 0.3831 0.2036
C17 C 0.7355(6) 0.4342(3) 0.5140(5)
C18 C 0.9958(5) 0.2694(4) -0.0562(6)
C19 C 0.6369(6) 0.2360(3) 0.3582(6)
H12 H 0.7002 0.2619 0.3466
C20 C 0.6668(5) 0.6079(3) 0.4585(5)
H13 H 0.6270 0.5747 0.4939
C21 C 0.3024(5) 0.4634(3) 0.0799(6)
H14 H 0.3108 0.4882 0.0229
C22 C 0.6749(7) 0.4048(3) 0.6641(7)
H15 H 0.6206 0.3886 0.7033
C23 C 0.9379(4) 0.3918(3) -0.0080(5)
H16 H 0.9320 0.4426 -0.0202
C24 C 0.7903(5) 0.7060(3) 0.3598(6)
H17 H 0.8347 0.7386 0.3278
C25 C 0.7296(5) 0.7313(3) 0.4328(6)
H18 H 0.7302 0.7817 0.4479
C26 C 0.4519(7) 0.1554(3) 0.3915(6)
H19 H 0.3898 0.1279 0.4021
C27 C 0.9857(5) 0.3437(4) -0.0724(6)
H20 H 1.0115 0.3633 -0.1282
C28 C 0.2035(5) 0.4364(3) 0.1027(6)
H21 H 0.1446 0.4419 0.0611
C29 C 0.6505(6) 0.4107(3) 0.5626(6)
H22 H 0.5835 0.3993 0.5349
C30 C 0.6686(6) 0.6835(3) 0.4833(5)
H23 H 0.6287 0.7007 0.5335
C31 C 0.7653(6) 0.4440(3) 0.4137(5)
H24 H 0.7682 0.3959 0.3811
C32 C 0.9554(5) 0.2403(3) 0.0244(6)
H25 H 0.9599 0.1892 0.0347
C33 C 0.5401(8) 0.1497(4) 0.4520(6)
H26 H 0.5370 0.1183 0.5040
C34 C 0.8606(6) 0.4451(4) 0.6507(6)
H27 H 0.9286 0.4559 0.6768
C35 C 0.7755(8) 0.4222(4) 0.7043(6)
H28 H 0.7856 0.4182 0.7694
C36 C 0.8839(5) 0.4661(4) 0.4608(6)
H29 H 0.9418 0.4324 0.4446
H30 H 0.9046 0.5176 0.4513
C37 C 0.6315(7) 0.1890(4) 0.4375(7)
H31 H 0.6903 0.1849 0.4796
C38 C 1.0498(6) 0.2191(4) -0.1266(7)
H32 H 1.1117 0.1958 -0.0970
H33 H 1.0723 0.2481 -0.1794
H34 H 0.9996 0.1815 -0.1480
loop_
_geom_bond_atom_site_label_1
_geom_bond_atom_site_label_2
_geom_bond_site_symmetry_1
_geom_bond_site_symmetry_2
S1 O1 1_555 1_555
O2 S1 1_555 1_555
N1 C2 1_555 1_555
N2 S1 1_555 1_555
C1 H1 1_555 1_555
C2 N2 1_555 1_555
C3 C9 1_555 1_555
C4 C7 1_555 1_555
C5 S1 1_555 1_555
C6 C8 1_555 1_555
C7 N1 1_555 1_555
H2 C7 1_555 1_555
H3 C7 1_555 1_555
C8 C1 1_555 1_555
C9 H4 1_555 1_555
C10 C4 1_555 1_555
H5 C10 1_555 1_555
C11 N1 1_555 1_555
H6 C11 1_555 1_555
H7 C11 1_555 1_555
C12 C17 1_555 1_555
C13 C5 1_555 1_555
H8 C13 1_555 1_555
C14 C3 1_555 1_555
H9 C14 1_555 1_555
C15 C6 1_555 1_555
H10 C15 1_555 1_555
C16 C14 1_555 1_555
H11 C16 1_555 1_555
C17 C29 1_555 1_555
C18 C27 1_555 1_555
C19 C4 1_555 1_555
H12 C19 1_555 1_555
C20 C6 1_555 1_555
H13 C20 1_555 1_555
C21 C9 1_555 1_555
H14 C21 1_555 1_555
C22 H15 1_555 1_555
C23 C5 1_555 1_555
H16 C23 1_555 1_555
C24 C15 1_555 1_555
H17 C24 1_555 1_555
C25 C24 1_555 1_555
H18 C25 1_555 1_555
C26 C10 1_555 1_555
H19 C26 1_555 1_555
C27 C23 1_555 1_555
H20 C27 1_555 1_555
C28 C16 1_555 1_555
H21 C28 1_555 1_555
C29 C22 1_555 1_555
H22 C29 1_555 1_555
C30 C20 1_555 1_555
H23 C30 1_555 1_555
C31 C8 1_555 1_555
H24 C31 1_555 1_555
C32 C13 1_555 1_555
H25 C32 1_555 1_555
C33 C26 1_555 1_555
H26 C33 1_555 1_555
C34 C12 1_555 1_555
H27 C34 1_555 1_555
C35 C22 1_555 1_555
H28 C35 1_555 1_555
C36 C12 1_555 1_555
H29 C36 1_555 1_555
H30 C36 1_555 1_555
C37 C19 1_555 1_555
H31 C37 1_555 1_555
C38 C18 1_555 1_555
H32 C38 1_555 1_555
H33 C38 1_555 1_555
H34 C38 1_555 1_555
C1 C2 1_555 1_555
C3 C11 1_555 1_555
C17 C31 1_555 1_555
C18 C32 1_555 1_555
C21 C28 1_555 1_555
C25 C30 1_555 1_555
C31 C36 1_555 1_555
C33 C37 1_555 1_555
C34 C35 1_555 1_555

#END
