
#######################################################################
#
#                 Cambridge Crystallographic Data Centre
#                                CCDC 
#
#######################################################################
#
# If this CIF has been generated from an entry in the Cambridge 
# Structural Database, then it will include bibliographic, chemical, 
# crystal, experimental, refinement or atomic coordinate data resulting 
# from the CCDC's data processing and validation procedures.
#
#######################################################################

data_DAXQEB
_chemical_formula_moiety         'C19 H18 N2 O2'
_chemical_name_systematic        
6-amino-4-(4-methoxyphenyl)-2-phenyl-3,4-dihydro-2H-pyran-5-carbonitrile
_symmetry_cell_setting           monoclinic
_symmetry_space_group_name_H-M   'C 2'
_symmetry_Int_Tables_number      5
_space_group_name_Hall           'C 2y'
loop_
_symmetry_equiv_pos_site_id
_symmetry_equiv_pos_as_xyz
1 x,y,z
2 -x,y,-z
3 1/2+x,1/2+y,z
4 1/2-x,1/2+y,-z
_cell_length_a                   27.1608(7)
_cell_length_b                   6.9059(2)
_cell_length_c                   21.9106(9)
_cell_angle_alpha                90
_cell_angle_beta                 127.1100(10)
_cell_angle_gamma                90
_cell_volume                     3277.45
_exptl_crystal_colour            colorless
_exptl_crystal_description       prismatic
_cell_formula_units_Z            8
loop_
_atom_site_label
_atom_site_type_symbol
_atom_site_fract_x
_atom_site_fract_y
_atom_site_fract_z
N1 N 0.31636(12) 0.5020(4) 0.32985(15)
N2 N 0.23007(12) 0.7833(5) 0.16189(14)
O1 O 0.36260(9) 0.2647(3) 0.31356(10)
O2 O 0.36429(11) 0.8199(4) -0.01672(12)
C1 C 0.32541(12) 0.4215(4) 0.28159(15)
C2 C 0.30072(12) 0.4859(5) 0.20942(15)
C3 C 0.31162(13) 0.3814(5) 0.15728(15)
H1 H 0.2750 0.2977 0.1211
C4 C 0.36886(14) 0.2501(5) 0.20804(16)
H2 H 0.3723 0.1616 0.1753
H3 H 0.4066 0.3309 0.2377
C5 C 0.36369(13) 0.1338(5) 0.26203(16)
H4 H 0.3237 0.0615 0.2311
C6 C 0.41461(13) -0.0093(5) 0.31150(16)
C7 C 0.46496(14) -0.0305(5) 0.31020(17)
H5 H 0.4695 0.0543 0.2797
C8 C 0.50849(15) -0.1738(6) 0.3528(2)
H6 H 0.5424 -0.1877 0.3510
C9 C 0.50261(17) -0.2957(7) 0.3975(3)
H7 H 0.5326 -0.3933 0.4274
C10 C 0.45184(17) -0.2745(7) 0.3986(3)
H8 H 0.4470 -0.3596 0.4287
C11 C 0.40912(15) -0.1316(6) 0.3564(2)
H9 H 0.3753 -0.1171 0.3584
C12 C 0.26182(13) 0.6476(5) 0.18279(15)
C13 C 0.32264(12) 0.5131(5) 0.11081(14)
C14 C 0.35676(13) 0.6812(5) 0.14013(15)
H10 H 0.3705 0.7247 0.1892
C15 C 0.37165(13) 0.7891(5) 0.09960(15)
H11 H 0.3952 0.9046 0.1209
C16 C 0.35188(13) 0.7264(5) 0.02808(15)
C17 C 0.31783(13) 0.5563(5) -0.00210(15)
H12 H 0.3048 0.5120 -0.0508
C18 C 0.30287(13) 0.4516(5) 0.03817(15)
H13 H 0.2790 0.3369 0.0166
C19 C 0.39360(18) 1.0042(6) 0.0079(2)
H14 H 0.3697 1.0905 0.0166
H15 H 0.3958 1.0597 -0.0316
H16 H 0.4354 0.9893 0.0556
H17 H 0.2979(15) 0.625(7) 0.3200(19)
H18 H 0.3312(12) 0.453(5) 0.3724(16)
N3 N 0.17747(12) 0.1653(4) 0.16629(15)
N4 N 0.27173(12) -0.1093(4) 0.33692(14)
O3 O 0.13186(9) 0.3956(3) 0.18660(10)
O4 O 0.12930(9) -0.1137(3) 0.50900(11)
C20 C 0.17131(12) 0.2457(4) 0.21708(15)
C21 C 0.20157(12) 0.1887(4) 0.29156(14)
C22 C 0.20129(12) 0.3041(4) 0.35031(15)
H19 H 0.2452 0.3396 0.3919
C23 C 0.16639(12) 0.4946(4) 0.31282(15)
H20 H 0.1525 0.5494 0.3419
H21 H 0.1944 0.5894 0.3143
C24 C 0.11085(13) 0.4606(4) 0.23041(15)
H22 H 0.0842 0.3580 0.2291
C25 C 0.07268(12) 0.6398(5) 0.19163(15)
C26 C 0.02519(13) 0.6839(5) 0.19674(17)
H23 H 0.0167 0.5984 0.2233
C27 C -0.00977(14) 0.8499(6) 0.16377(19)
H24 H -0.0414 0.8791 0.1687
C28 C 0.00128(14) 0.9731(6) 0.12383(19)
H25 H -0.0234 1.0855 0.1000
C29 C 0.04821(15) 0.9331(5) 0.11851(18)
H26 H 0.0562 1.0194 0.0916
C30 C 0.08420(14) 0.7669(5) 0.15218(17)
H27 H 0.1165 0.7404 0.1482
C31 C 0.24020(13) 0.0258(5) 0.31629(15)
C32 C 0.17797(12) 0.1910(4) 0.38775(14)
C33 C 0.14104(12) 0.0277(4) 0.35552(15)
H28 H 0.1277 -0.0138 0.3063
C34 C 0.12299(13) -0.0774(5) 0.39337(15)
H29 H 0.0974 -0.1882 0.3701
C35 C 0.14297(12) -0.0178(5) 0.46555(14)
C36 C 0.17851(12) 0.1480(5) 0.49799(14)
H30 H 0.1908 0.1913 0.5465
C37 C 0.19594(12) 0.2498(5) 0.45977(15)
H31 H 0.2207 0.3625 0.4828
C38 C 0.09776(17) -0.2945(5) 0.48166(19)
H32 H 0.0564 -0.2740 0.4337
H33 H 0.0942 -0.3509 0.5199
H34 H 0.1210 -0.3828 0.4726
H35 H 0.1973(16) 0.063(7) 0.1758(19)
H36 H 0.1554(14) 0.207(5) 0.1176(18)
loop_
_geom_bond_atom_site_label_1
_geom_bond_atom_site_label_2
_geom_bond_site_symmetry_1
_geom_bond_site_symmetry_2
N1 C1 1_555 1_555
N2 C12 1_555 1_555
O1 C1 1_555 1_555
O2 C16 1_555 1_555
C1 C2 1_555 1_555
C2 C3 1_555 1_555
C3 H1 1_555 1_555
C4 C3 1_555 1_555
H2 C4 1_555 1_555
H3 C4 1_555 1_555
C5 O1 1_555 1_555
H4 C5 1_555 1_555
C6 C5 1_555 1_555
C7 C6 1_555 1_555
H5 C7 1_555 1_555
C8 C7 1_555 1_555
H6 C8 1_555 1_555
C9 C8 1_555 1_555
H7 C9 1_555 1_555
C10 C9 1_555 1_555
H8 C10 1_555 1_555
C11 C6 1_555 1_555
H9 C11 1_555 1_555
C12 C2 1_555 1_555
C13 C3 1_555 1_555
C14 C13 1_555 1_555
H10 C14 1_555 1_555
C15 C14 1_555 1_555
H11 C15 1_555 1_555
C16 C15 1_555 1_555
C17 C16 1_555 1_555
H12 C17 1_555 1_555
C18 C13 1_555 1_555
H13 C18 1_555 1_555
C19 O2 1_555 1_555
H14 C19 1_555 1_555
H15 C19 1_555 1_555
H16 C19 1_555 1_555
H17 N1 1_555 1_555
H18 N1 1_555 1_555
N3 C20 1_555 1_555
N4 C31 1_555 1_555
O3 C20 1_555 1_555
O4 C35 1_555 1_555
C20 C21 1_555 1_555
C21 C22 1_555 1_555
C22 H19 1_555 1_555
C23 C22 1_555 1_555
H20 C23 1_555 1_555
H21 C23 1_555 1_555
C24 O3 1_555 1_555
H22 C24 1_555 1_555
C25 C24 1_555 1_555
C26 C25 1_555 1_555
H23 C26 1_555 1_555
C27 C26 1_555 1_555
H24 C27 1_555 1_555
C28 C27 1_555 1_555
H25 C28 1_555 1_555
C29 C28 1_555 1_555
H26 C29 1_555 1_555
C30 C25 1_555 1_555
H27 C30 1_555 1_555
C31 C21 1_555 1_555
C32 C22 1_555 1_555
C33 C32 1_555 1_555
H28 C33 1_555 1_555
C34 C33 1_555 1_555
H29 C34 1_555 1_555
C35 C34 1_555 1_555
C36 C35 1_555 1_555
H30 C36 1_555 1_555
C37 C32 1_555 1_555
H31 C37 1_555 1_555
C38 O4 1_555 1_555
H32 C38 1_555 1_555
H33 C38 1_555 1_555
H34 C38 1_555 1_555
H35 N3 1_555 1_555
H36 N3 1_555 1_555
C4 C5 1_555 1_555
C10 C11 1_555 1_555
C17 C18 1_555 1_555
C23 C24 1_555 1_555
C29 C30 1_555 1_555
C36 C37 1_555 1_555

#END
