
#######################################################################
#
#                 Cambridge Crystallographic Data Centre
#                                CCDC 
#
#######################################################################
#
# If this CIF has been generated from an entry in the Cambridge 
# Structural Database, then it will include bibliographic, chemical, 
# crystal, experimental, refinement or atomic coordinate data resulting 
# from the CCDC's data processing and validation procedures.
#
#######################################################################

data_DAXSUQ10
_chemical_formula_moiety         'C23 H24 N2 O4'
_chemical_name_systematic        
N(2)-Benzyl-1-methoxycarbonylmethyl-3-methoxycarbonyl-1,2,3,4-tetrahydro-\b-carboline
_symmetry_cell_setting           monoclinic
_symmetry_space_group_name_H-M   'P 21'
_symmetry_Int_Tables_number      4
_space_group_name_Hall           'P 2yb'
loop_
_symmetry_equiv_pos_site_id
_symmetry_equiv_pos_as_xyz
1 x,y,z
2 -x,1/2+y,-z
_cell_length_a                   11.336(1)
_cell_length_b                   8.919(1)
_cell_length_c                   10.314(1)
_cell_angle_alpha                90
_cell_angle_beta                 100.81(1)
_cell_angle_gamma                90
_cell_volume                     1024.3
_cell_formula_units_Z            2
loop_
_atom_site_label
_atom_site_type_symbol
_atom_site_fract_x
_atom_site_fract_y
_atom_site_fract_z
N1 N 0.6875(2) 0.1411 0.3441(2)
C1 C 0.7000(2) 0.2787(3) 0.4044(2)
C2 C 0.7983(2) 0.3189(3) 0.5186(2)
N2 N 0.7705(1) 0.4618(3) 0.5788(2)
C3 C 0.7241(2) 0.5736(3) 0.4771(2)
C4 C 0.6018(2) 0.5322(4) 0.3913(3)
C5 C 0.6112(2) 0.3738(4) 0.3463(2)
C6 C 0.5383(2) 0.2901(4) 0.2420(2)
C7 C 0.4365(2) 0.3244(4) 0.1468(2)
C8 C 0.3892(3) 0.2147(5) 0.0572(3)
C9 C 0.4405(3) 0.0721(5) 0.0602(3)
C10 C 0.5401(2) 0.0342(4) 0.1535(3)
C11 C 0.5885(2) 0.1454(4) 0.2440(2)
C12 C 0.9216(2) 0.3256(4) 0.4766(2)
C13 C 1.0223(2) 0.3473(4) 0.5923(3)
O1 O 1.0901(2) 0.4524(4) 0.6080(3)
O2 O 1.0312(2) 0.2324(4) 0.6754(2)
C14 C 1.1263(3) 0.2429(7) 0.7906(3)
C15 C 0.6896(2) 0.4383(4) 0.6735(2)
C16 C 0.7573(2) 0.3752(4) 0.8021(2)
C17 C 0.8604(3) 0.4469(5) 0.8669(3)
C18 C 0.9197(3) 0.3952(6) 0.9890(3)
C19 C 0.8753(4) 0.2711(6) 1.0470(3)
C20 C 0.7730(4) 0.1999(5) 0.9825(4)
C21 C 0.7146(3) 0.2507(4) 0.8597(3)
C22 C 0.7206(2) 0.7320(4) 0.5328(3)
O3 O 0.6511(3) 0.8248(4) 0.4834(3)
O4 O 0.8074(2) 0.7568(3) 0.6361(2)
C23 C 0.8132(4) 0.9068(4) 0.6893(4)
H1 H 0.7352 0.0607 0.3681
H2 H 0.8027 0.2321 0.5920
H3 H 0.7870 0.5780 0.4104
H4 H 0.5816 0.6068 0.3072
H5 H 0.5314 0.5420 0.4485
H6 H 0.3961 0.4347 0.1431
H7 H 0.3108 0.2405 -0.0167
H8 H 0.4014 -0.0098 -0.0121
H9 H 0.5794 -0.0760 0.1564
H10 H 0.9218 0.4182 0.4086
H11 H 0.9360 0.2227 0.4273
H12 H 1.1121 0.3421 0.8460
H13 H 1.1250 0.1445 0.8501
H14 H 1.2116 0.2517 0.7580
H15 H 0.6197 0.3613 0.6316
H16 H 0.6496 0.5443 0.6922
H17 H 0.8947 0.5435 0.8224
H18 H 0.9994 0.4519 1.0394
H19 H 0.9220 0.2306 1.1416
H20 H 0.7374 0.1058 1.0281
H21 H 0.6357 0.1934 0.8087
H22 H 0.7292 0.9322 0.7203
H23 H 0.8864 0.9143 0.7721
H24 H 0.8268 0.9855 0.6133
loop_
_geom_bond_atom_site_label_1
_geom_bond_atom_site_label_2
_geom_bond_site_symmetry_1
_geom_bond_site_symmetry_2
N1 C1 1_555 1_555
C1 C2 1_555 1_555
C2 N2 1_555 1_555
N2 C3 1_555 1_555
C3 C4 1_555 1_555
C4 C5 1_555 1_555
C5 C1 1_555 1_555
C6 C5 1_555 1_555
C7 C6 1_555 1_555
C8 C7 1_555 1_555
C9 C8 1_555 1_555
C10 C9 1_555 1_555
C11 N1 1_555 1_555
C12 C2 1_555 1_555
C13 C12 1_555 1_555
O1 C13 1_555 1_555
O2 C13 1_555 1_555
C14 O2 1_555 1_555
C15 N2 1_555 1_555
C16 C15 1_555 1_555
C17 C16 1_555 1_555
C18 C17 1_555 1_555
C19 C18 1_555 1_555
C20 C19 1_555 1_555
C21 C16 1_555 1_555
C22 C3 1_555 1_555
O3 C22 1_555 1_555
O4 C22 1_555 1_555
C23 O4 1_555 1_555
H1 N1 1_555 1_555
H2 C2 1_555 1_555
H3 C3 1_555 1_555
H4 C4 1_555 1_555
H5 C4 1_555 1_555
H6 C7 1_555 1_555
H7 C8 1_555 1_555
H8 C9 1_555 1_555
H9 C10 1_555 1_555
H10 C12 1_555 1_555
H11 C12 1_555 1_555
H12 C14 1_555 1_555
H13 C14 1_555 1_555
H14 C14 1_555 1_555
H15 C15 1_555 1_555
H16 C15 1_555 1_555
H17 C17 1_555 1_555
H18 C18 1_555 1_555
H19 C19 1_555 1_555
H20 C20 1_555 1_555
H21 C21 1_555 1_555
H22 C23 1_555 1_555
H23 C23 1_555 1_555
H24 C23 1_555 1_555
C6 C11 1_555 1_555
C10 C11 1_555 1_555
C20 C21 1_555 1_555

#END
