
#######################################################################
#
#                 Cambridge Crystallographic Data Centre
#                                CCDC 
#
#######################################################################
#
# If this CIF has been generated from an entry in the Cambridge 
# Structural Database, then it will include bibliographic, chemical, 
# crystal, experimental, refinement or atomic coordinate data resulting 
# from the CCDC's data processing and validation procedures.
#
#######################################################################

data_DAXVUW
_chemical_formula_moiety         'C24 H21 Cl1 N2 O1'
_chemical_name_systematic        
3-(2-t-butylphenyl)-7-chloro-2-phenylquinazolin-4(3H)-one
_symmetry_cell_setting           monoclinic
_symmetry_space_group_name_H-M   'P 21'
_symmetry_Int_Tables_number      4
_space_group_name_Hall           'P 2yb'
loop_
_symmetry_equiv_pos_site_id
_symmetry_equiv_pos_as_xyz
1 x,y,z
2 -x,1/2+y,-z
_cell_length_a                   7.6488(3)
_cell_length_b                   12.2911(4)
_cell_length_c                   10.6841(4)
_cell_angle_alpha                90
_cell_angle_beta                 90.4190(10)
_cell_angle_gamma                90
_cell_volume                     1004.41
_exptl_crystal_colour            colorless
_exptl_crystal_description       block
_cell_formula_units_Z            2
loop_
_atom_site_label
_atom_site_type_symbol
_atom_site_fract_x
_atom_site_fract_y
_atom_site_fract_z
Cl1 Cl 0.16047(6) 0.47970(5) 0.79772(4)
O1 O 0.53955(18) 0.71221(13) 0.29793(13)
N1 N 0.7148(2) 0.56449(15) 0.33092(15)
N2 N 0.6699(2) 0.44147(14) 0.49897(15)
C1 C 0.5727(2) 0.63196(18) 0.36148(19)
C2 C 0.4755(3) 0.59767(18) 0.47142(18)
C3 C 0.3329(3) 0.65930(19) 0.5135(2)
H1 H 0.3019 0.7250 0.4721
C4 C 0.2378(3) 0.6241(2) 0.6153(2)
H2 H 0.1406 0.6647 0.6443
C5 C 0.2874(3) 0.52760(19) 0.67440(19)
C6 C 0.4299(2) 0.4677(2) 0.63843(18)
H3 H 0.4627 0.4037 0.6828
C7 C 0.5262(2) 0.50292(18) 0.53461(18)
C8 C 0.7582(2) 0.47332(19) 0.40273(16)
C9 C 0.9187(2) 0.40949(18) 0.37245(18)
C10 C 1.0210(3) 0.37468(18) 0.47305(19)
H4 H 0.9869 0.3917 0.5561
C11 C 1.1725(3) 0.31529(19) 0.4528(2)
H5 H 1.2416 0.2921 0.5220
C12 C 1.2238(3) 0.2896(2) 0.3321(2)
H6 H 1.3284 0.2498 0.3185
C13 C 1.1207(3) 0.32268(18) 0.2312(2)
H7 H 1.1546 0.3050 0.1483
C14 C 0.9688(3) 0.38126(18) 0.25121(19)
H8 H 0.8980 0.4024 0.1819
C15 C 0.8286(2) 0.60430(17) 0.23315(19)
C16 C 0.9811(3) 0.65438(18) 0.2766(2)
H9 H 1.0013 0.6603 0.3642
C17 C 1.1032(3) 0.6956(2) 0.1944(2)
H10 H 1.2069 0.7297 0.2243
C18 C 1.0699(3) 0.68576(19) 0.0673(2)
H11 H 1.1518 0.7133 0.0089
C19 C 0.9188(3) 0.63623(19) 0.02510(19)
H12 H 0.9000 0.6307 -0.0627
C20 C 0.7914(2) 0.59363(17) 0.10537(18)
C21 C 0.6283(3) 0.54288(18) 0.04181(18)
C22 C 0.6858(3) 0.4636(2) -0.06243(19)
H13 H 0.7482 0.5040 -0.1274
H14 H 0.5825 0.4286 -0.0993
H15 H 0.7632 0.4080 -0.0267
C23 C 0.5051(3) 0.4779(2) 0.12665(18)
H16 H 0.5717 0.4215 0.1708
H17 H 0.4134 0.4439 0.0756
H18 H 0.4517 0.5270 0.1877
C24 C 0.5238(3) 0.6366(2) -0.0174(2)
H19 H 0.4869 0.6872 0.0481
H20 H 0.4205 0.6073 -0.0605
H21 H 0.5973 0.6750 -0.0778
loop_
_geom_bond_atom_site_label_1
_geom_bond_atom_site_label_2
_geom_bond_site_symmetry_1
_geom_bond_site_symmetry_2
Cl1 C5 1_555 1_555
O1 C1 1_555 1_555
N1 C1 1_555 1_555
N2 C7 1_555 1_555
C1 C2 1_555 1_555
C2 C3 1_555 1_555
C3 H1 1_555 1_555
C4 C3 1_555 1_555
H2 C4 1_555 1_555
C5 C4 1_555 1_555
C6 C5 1_555 1_555
H3 C6 1_555 1_555
C7 C2 1_555 1_555
C8 N1 1_555 1_555
C9 C8 1_555 1_555
C10 C9 1_555 1_555
H4 C10 1_555 1_555
C11 C10 1_555 1_555
H5 C11 1_555 1_555
C12 C11 1_555 1_555
H6 C12 1_555 1_555
C13 C12 1_555 1_555
H7 C13 1_555 1_555
C14 C9 1_555 1_555
H8 C14 1_555 1_555
C15 N1 1_555 1_555
C16 C15 1_555 1_555
H9 C16 1_555 1_555
C17 C16 1_555 1_555
H10 C17 1_555 1_555
C18 C17 1_555 1_555
H11 C18 1_555 1_555
C19 C18 1_555 1_555
H12 C19 1_555 1_555
C20 C15 1_555 1_555
C21 C20 1_555 1_555
C22 C21 1_555 1_555
H13 C22 1_555 1_555
H14 C22 1_555 1_555
H15 C22 1_555 1_555
C23 C21 1_555 1_555
H16 C23 1_555 1_555
H17 C23 1_555 1_555
H18 C23 1_555 1_555
C24 C21 1_555 1_555
H19 C24 1_555 1_555
H20 C24 1_555 1_555
H21 C24 1_555 1_555
N2 C8 1_555 1_555
C6 C7 1_555 1_555
C13 C14 1_555 1_555
C19 C20 1_555 1_555

#END
