
#######################################################################
#
#                 Cambridge Crystallographic Data Centre
#                                CCDC 
#
#######################################################################
#
# If this CIF has been generated from an entry in the Cambridge 
# Structural Database, then it will include bibliographic, chemical, 
# crystal, experimental, refinement or atomic coordinate data resulting 
# from the CCDC's data processing and validation procedures.
#
#######################################################################

data_DAXWOR
_chemical_formula_moiety         'C26 H26 N2 O2 S1'
_chemical_name_systematic        
N,N-dibenzyl-N'-(methylsulfonyl)-3-phenylpenta-2,4-dienimidamide
_symmetry_cell_setting           monoclinic
_symmetry_space_group_name_H-M   'C 2/c'
_symmetry_Int_Tables_number      15
_space_group_name_Hall           '-C 2yn'
loop_
_symmetry_equiv_pos_site_id
_symmetry_equiv_pos_as_xyz
1 x,y,z
2 -x,y,1/2-z
3 1/2+x,1/2+y,z
4 1/2-x,1/2+y,1/2-z
5 -x,-y,-z
6 x,-y,1/2+z
7 1/2-x,1/2-y,-z
8 1/2+x,1/2-y,1/2+z
_cell_length_a                   27.148(6)
_cell_length_b                   6.2305(14)
_cell_length_c                   27.401(6)
_cell_angle_alpha                90
_cell_angle_beta                 92.154(5)
_cell_angle_gamma                90
_cell_volume                     4631.48
_exptl_crystal_description       block
_cell_formula_units_Z            8
_exptl_crystal_recrystallization_method dichloromethane/hexane
loop_
_atom_site_label
_atom_site_type_symbol
_atom_site_fract_x
_atom_site_fract_y
_atom_site_fract_z
S1 S 0.33332(3) 0.57669(12) 0.04892(3)
N1 N 0.33845(7) 0.9760(3) 0.15306(7)
O1 O 0.34291(9) 0.7099(4) 0.00834(7)
N2 N 0.32093(8) 0.7142(3) 0.09738(7)
C1 C 0.40029(9) 0.9045(4) 0.09329(9)
H1 H 0.4025 1.0103 0.0695
C2 C 0.44129(9) 0.7973(4) 0.10727(9)
C3 C 0.35152(9) 0.8617(4) 0.11406(8)
C4 C 0.48807(9) 0.8368(4) 0.08227(9)
O2 O 0.36880(11) 0.4118(4) 0.05974(9)
C5 C 0.29182(9) 0.9314(4) 0.17706(9)
H2 H 0.2968 0.9533 0.2119
H3 H 0.2832 0.7818 0.1719
C6 C 0.37840(10) 1.1970(4) 0.21966(9)
C7 C 0.24947(9) 1.0698(4) 0.15878(9)
C8 C 0.36312(10) 1.1787(4) 0.16647(9)
H4 H 0.3411 1.2966 0.1580
H5 H 0.3922 1.1939 0.1472
C9 C 0.44067(11) 0.6396(4) 0.14689(10)
H6 H 0.4099 0.5966 0.1572
C10 C 0.50775(10) 1.0399(4) 0.07895(10)
H7 H 0.4920 1.1550 0.0933
C11 C 0.22044(10) 1.0125(5) 0.11811(10)
H8 H 0.2266 0.8846 0.1019
C12 C 0.55053(11) 1.0744(5) 0.05458(11)
H9 H 0.5633 1.2126 0.0527
C13 C 0.51247(11) 0.6698(4) 0.05962(11)
H10 H 0.4997 0.5315 0.0609
C14 C 0.57447(11) 0.9080(5) 0.03311(10)
H11 H 0.6036 0.9320 0.0171
C15 C 0.36494(11) 1.3764(5) 0.24563(10)
H12 H 0.3451 1.4801 0.2304
C16 C 0.23868(11) 1.2598(5) 0.18245(11)
H13 H 0.2572 1.2992 0.2102
C17 C 0.55504(11) 0.7061(5) 0.03549(11)
H14 H 0.5708 0.5923 0.0206
C18 C 0.18242(12) 1.1447(6) 0.10150(11)
H15 H 0.1632 1.1050 0.0742
C19 C 0.47934(12) 0.5537(5) 0.16917(12)
H16 H 0.5108 0.5918 0.1601
H17 H 0.4753 0.4544 0.1941
C20 C 0.40737(12) 1.0455(5) 0.24317(12)
H18 H 0.4169 0.9234 0.2264
C21 C 0.17289(12) 1.3334(6) 0.12497(13)
H19 H 0.1475 1.4219 0.1134
C22 C 0.38043(14) 1.4040(6) 0.29353(12)
H20 H 0.3715 1.5266 0.3104
C23 C 0.40899(15) 1.2508(7) 0.31624(13)
H21 H 0.4192 1.2686 0.3488
C24 C 0.20071(13) 1.3920(5) 0.16540(13)
H22 H 0.1942 1.5199 0.1814
C25 C 0.42256(15) 1.0728(6) 0.29163(14)
H23 H 0.4421 0.9691 0.3073
C26 C 0.27552(17) 0.4598(7) 0.03823(14)
H24 H 0.2512 0.5703 0.0330
H25 H 0.2672 0.3747 0.0660
H26 H 0.2763 0.3699 0.0098
loop_
_geom_bond_atom_site_label_1
_geom_bond_atom_site_label_2
_geom_bond_site_symmetry_1
_geom_bond_site_symmetry_2
S1 O1 1_555 1_555
N1 C3 1_555 1_555
N2 S1 1_555 1_555
C1 H1 1_555 1_555
C2 C1 1_555 1_555
C3 N2 1_555 1_555
C4 C2 1_555 1_555
O2 S1 1_555 1_555
C5 N1 1_555 1_555
H2 C5 1_555 1_555
H3 C5 1_555 1_555
C6 C8 1_555 1_555
C7 C5 1_555 1_555
C8 N1 1_555 1_555
H4 C8 1_555 1_555
H5 C8 1_555 1_555
C9 C2 1_555 1_555
H6 C9 1_555 1_555
C10 C4 1_555 1_555
H7 C10 1_555 1_555
C11 C7 1_555 1_555
H8 C11 1_555 1_555
C12 C10 1_555 1_555
H9 C12 1_555 1_555
C13 C4 1_555 1_555
H10 C13 1_555 1_555
C14 C12 1_555 1_555
H11 C14 1_555 1_555
C15 C6 1_555 1_555
H12 C15 1_555 1_555
C16 C7 1_555 1_555
H13 C16 1_555 1_555
C17 C13 1_555 1_555
H14 C17 1_555 1_555
C18 C11 1_555 1_555
H15 C18 1_555 1_555
C19 C9 1_555 1_555
H16 C19 1_555 1_555
H17 C19 1_555 1_555
C20 C6 1_555 1_555
H18 C20 1_555 1_555
C21 C18 1_555 1_555
H19 C21 1_555 1_555
C22 C15 1_555 1_555
H20 C22 1_555 1_555
C23 C22 1_555 1_555
H21 C23 1_555 1_555
C24 C16 1_555 1_555
H22 C24 1_555 1_555
C25 C20 1_555 1_555
H23 C25 1_555 1_555
C26 S1 1_555 1_555
H24 C26 1_555 1_555
H25 C26 1_555 1_555
H26 C26 1_555 1_555
C1 C3 1_555 1_555
C14 C17 1_555 1_555
C21 C24 1_555 1_555
C23 C25 1_555 1_555

#END
