
#######################################################################
#
#                 Cambridge Crystallographic Data Centre
#                                CCDC 
#
#######################################################################
#
# If this CIF has been generated from an entry in the Cambridge 
# Structural Database, then it will include bibliographic, chemical, 
# crystal, experimental, refinement or atomic coordinate data resulting 
# from the CCDC's data processing and validation procedures.
#
#######################################################################

data_DAXWUX
_chemical_formula_moiety         'C33 H29 N3 O2 S1'
_chemical_name_systematic        
N-(5-benzyl-1-(4-cyanobenzyl)-5-phenyl-5,6-dihydropyridin-2(1H)-ylidene)-4-methylbenzenesulfonamide
_symmetry_cell_setting           triclinic
_symmetry_space_group_name_H-M   'P -1'
_symmetry_Int_Tables_number      2
_space_group_name_Hall           '-P 1'
loop_
_symmetry_equiv_pos_site_id
_symmetry_equiv_pos_as_xyz
1 x,y,z
2 -x,-y,-z
_cell_length_a                   8.7353(11)
_cell_length_b                   10.2521(13)
_cell_length_c                   15.765(2)
_cell_angle_alpha                101.925(6)
_cell_angle_beta                 98.258(6)
_cell_angle_gamma                93.270(5)
_cell_volume                     1361.55
_exptl_crystal_description       block
_cell_formula_units_Z            2
_exptl_crystal_recrystallization_method dichloromethane/hexane
loop_
_atom_site_label
_atom_site_type_symbol
_atom_site_fract_x
_atom_site_fract_y
_atom_site_fract_z
S1 S 0.23013(8) 0.29694(8) 0.08385(5)
O1 O 0.3206(2) 0.2891(2) 0.01356(16)
O2 O 0.1292(2) 0.1809(2) 0.08184(17)
N1 N 0.1229(3) 0.4203(3) 0.09263(18)
N2 N 0.0867(3) 0.6438(3) 0.11412(18)
C1 C 0.3622(3) 0.3306(3) 0.1836(2)
C2 C -0.0681(3) 0.6541(3) 0.2335(2)
C3 C 0.1781(3) 0.5450(3) 0.0932(2)
C4 C 0.3323(3) 0.5862(3) 0.0751(2)
H1 H 0.3849 0.5248 0.0407
C5 C 0.3078(4) 0.3222(3) 0.2608(2)
H2 H 0.2038 0.2956 0.2597
C6 C -0.1597(3) 0.7514(3) 0.2690(2)
H3 H -0.2206 0.7952 0.2324
C7 C -0.0698(3) 0.7161(4) 0.4132(2)
C8 C 0.3295(3) 0.8209(3) 0.2554(2)
C9 C 0.4242(3) 0.7393(3) 0.2942(2)
H4 H 0.4736 0.6756 0.2594
C10 C 0.5657(4) 0.3928(3) 0.3420(2)
C11 C -0.0693(3) 0.6174(4) 0.1351(2)
H5 H -0.1043 0.5234 0.1132
H6 H -0.1415 0.6692 0.1064
C12 C 0.3972(3) 0.7106(3) 0.1077(2)
H7 H 0.4984 0.7325 0.1002
C13 C -0.1605(3) 0.7838(3) 0.3600(2)
H8 H -0.2206 0.8494 0.3841
C14 C 0.5183(4) 0.3707(3) 0.1848(2)
H9 H 0.5549 0.3773 0.1332
C15 C 0.0243(3) 0.5900(3) 0.2887(2)
H10 H 0.0871 0.5264 0.2651
C16 C 0.4468(4) 0.7510(4) 0.3850(2)
H11 H 0.5115 0.6956 0.4102
C17 C 0.4097(4) 0.3537(3) 0.3399(2)
H12 H 0.3733 0.3486 0.3918
C18 C 0.1387(3) 0.7824(3) 0.1140(2)
H13 H 0.0747 0.8428 0.1459
H14 H 0.1263 0.7944 0.0540
C19 C 0.6179(4) 0.4004(3) 0.2647(3)
H15 H 0.7222 0.4260 0.2659
C20 C 0.5349(4) 1.0005(3) 0.1715(2)
C21 C 0.0238(3) 0.6198(4) 0.3784(2)
H16 H 0.0851 0.5761 0.4149
C22 C 0.3095(3) 0.8168(3) 0.1565(2)
C23 C 0.2735(4) 0.9247(4) 0.3994(3)
H17 H 0.2209 0.9857 0.4341
C24 C 0.3735(4) 0.8445(4) 0.4377(2)
H18 H 0.3909 0.8538 0.4983
C25 C 0.3640(4) 0.9557(3) 0.1410(2)
H19 H 0.3403 0.9535 0.0786
H20 H 0.3040 1.0222 0.1709
C26 C 0.2530(4) 0.9130(4) 0.3097(2)
H21 H 0.1868 0.9673 0.2846
C27 C 0.6381(4) 0.9924(4) 0.1119(3)
H22 H 0.6014 0.9558 0.0529
N3 N -0.0874(4) 0.7601(4) 0.5813(3)
C28 C 0.5956(5) 1.0537(4) 0.2606(3)
H23 H 0.5316 1.0605 0.3034
C29 C 0.6757(4) 0.4242(4) 0.4280(3)
H24 H 0.7743 0.3919 0.4189
H25 H 0.6337 0.3814 0.4694
H26 H 0.6890 0.5193 0.4505
C30 C 0.7562(5) 1.0968(4) 0.2838(3)
H27 H 0.7971 1.1316 0.3425
C31 C 0.7931(4) 1.0365(4) 0.1369(3)
H28 H 0.8578 1.0304 0.0945
C32 C 0.8528(5) 1.0883(4) 0.2217(4)
H29 H 0.9577 1.1178 0.2379
C33 C -0.0766(4) 0.7412(4) 0.5047(3)
loop_
_geom_bond_atom_site_label_1
_geom_bond_atom_site_label_2
_geom_bond_site_symmetry_1
_geom_bond_site_symmetry_2
S1 O1 1_555 1_555
O2 S1 1_555 1_555
N1 S1 1_555 1_555
N2 C3 1_555 1_555
C1 S1 1_555 1_555
C2 C6 1_555 1_555
C3 N1 1_555 1_555
C4 C3 1_555 1_555
H1 C4 1_555 1_555
C5 C1 1_555 1_555
H2 C5 1_555 1_555
C6 H3 1_555 1_555
C7 C13 1_555 1_555
C8 C9 1_555 1_555
C9 H4 1_555 1_555
C10 C17 1_555 1_555
C11 N2 1_555 1_555
H5 C11 1_555 1_555
H6 C11 1_555 1_555
C12 C4 1_555 1_555
H7 C12 1_555 1_555
C13 C6 1_555 1_555
H8 C13 1_555 1_555
C14 C1 1_555 1_555
H9 C14 1_555 1_555
C15 C2 1_555 1_555
H10 C15 1_555 1_555
C16 C9 1_555 1_555
H11 C16 1_555 1_555
C17 C5 1_555 1_555
H12 C17 1_555 1_555
C18 N2 1_555 1_555
H13 C18 1_555 1_555
H14 C18 1_555 1_555
C19 C10 1_555 1_555
H15 C19 1_555 1_555
C20 C25 1_555 1_555
C21 C7 1_555 1_555
H16 C21 1_555 1_555
C22 C8 1_555 1_555
C23 H17 1_555 1_555
C24 C16 1_555 1_555
H18 C24 1_555 1_555
C25 C22 1_555 1_555
H19 C25 1_555 1_555
H20 C25 1_555 1_555
C26 C8 1_555 1_555
H21 C26 1_555 1_555
C27 C20 1_555 1_555
H22 C27 1_555 1_555
N3 C33 1_555 1_555
C28 C20 1_555 1_555
H23 C28 1_555 1_555
C29 C10 1_555 1_555
H24 C29 1_555 1_555
H25 C29 1_555 1_555
H26 C29 1_555 1_555
C30 C28 1_555 1_555
H27 C30 1_555 1_555
C31 C27 1_555 1_555
H28 C31 1_555 1_555
C32 C30 1_555 1_555
H29 C32 1_555 1_555
C33 C7 1_555 1_555
C2 C11 1_555 1_555
C12 C22 1_555 1_555
C14 C19 1_555 1_555
C15 C21 1_555 1_555
C18 C22 1_555 1_555
C23 C24 1_555 1_555
C23 C26 1_555 1_555
C31 C32 1_555 1_555

#END
