
#######################################################################
#
#                 Cambridge Crystallographic Data Centre
#                                CCDC 
#
#######################################################################
#
# If this CIF has been generated from an entry in the Cambridge 
# Structural Database, then it will include bibliographic, chemical, 
# crystal, experimental, refinement or atomic coordinate data resulting 
# from the CCDC's data processing and validation procedures.
#
#######################################################################

data_DAYFIT
_chemical_formula_moiety         'C13 H9 N5 O5,H2 O1'
_chemical_name_systematic        
'2,4-dinitrobenzaldehyde isonicotinoylhydrazone monohydrate'
_symmetry_cell_setting           monoclinic
_symmetry_space_group_name_H-M   'P 21/c'
_symmetry_Int_Tables_number      14
_space_group_name_Hall           '-P 2ybc'
loop_
_symmetry_equiv_pos_site_id
_symmetry_equiv_pos_as_xyz
1 x,y,z
2 -x,1/2+y,1/2-z
3 -x,-y,-z
4 x,1/2-y,1/2+z
_cell_length_a                   6.7545(2)
_cell_length_b                   13.8578(5)
_cell_length_c                   15.2311(5)
_cell_angle_alpha                90
_cell_angle_beta                 91.098(2)
_cell_angle_gamma                90
_cell_volume                     1425.41
_exptl_crystal_colour            colorless
_exptl_crystal_description       block
_chemical_melting_point          504-506K
_cell_formula_units_Z            4
_exptl_crystal_recrystallization_method methanol
loop_
_atom_site_label
_atom_site_type_symbol
_atom_site_fract_x
_atom_site_fract_y
_atom_site_fract_z
O1 O 0.27642(13) 0.61396(7) 0.65794(7)
O2 O 0.71744(15) 0.20348(9) 0.59093(9)
O3 O 0.55896(15) 0.06941(8) 0.60460(7)
O4 O 0.02176(15) 0.01273(8) 0.40068(7)
O5 O -0.21514(15) 0.11749(8) 0.40644(8)
N1 N 0.57032(15) 0.15306(8) 0.57997(8)
N2 N -0.04246(16) 0.09271(9) 0.41858(8)
N3 N 0.86259(16) 0.80601(9) 0.76960(8)
N4 N 0.53697(15) 0.51315(8) 0.63634(7)
N5 N 0.41328(15) 0.44644(8) 0.59768(7)
C1 C 0.8988(2) 0.71144(11) 0.77916(9)
C2 C 0.77206(18) 0.63952(10) 0.74907(8)
C3 C 0.59689(18) 0.66669(9) 0.70633(8)
C4 C 0.55350(19) 0.76445(10) 0.69845(8)
C5 C 0.6915(2) 0.83093(10) 0.72998(9)
C6 C 0.45300(18) 0.59609(9) 0.66593(8)
C7 C 0.36244(17) 0.29496(9) 0.53188(8)
C8 C 0.39727(17) 0.19511(10) 0.53421(8)
C9 C 0.26688(18) 0.12840(9) 0.49760(8)
C10 C 0.09497(18) 0.16311(10) 0.45875(8)
C11 C 0.04821(18) 0.26027(10) 0.45617(8)
C12 C 0.18331(18) 0.32514(10) 0.49235(8)
C13 C 0.49462(18) 0.36894(9) 0.57093(9)
H1 H 1.0183 0.6926 0.8083
H2 H 0.8040 0.5734 0.7574
H3 H 0.4323 0.7853 0.6721
H4 H 0.6628 0.8976 0.7231
H5 H 0.6633 0.5010 0.6402
H6 H 0.2949 0.0612 0.4992
H7 H -0.0730 0.2820 0.4304
H8 H 0.1537 0.3921 0.4903
H9 H 0.6317 0.3587 0.5757
O6 O 0.94659(13) 0.46303(7) 0.63946(6)
H10 H 1.0468 0.5000 0.6355
H11 H 0.9879 0.4123 0.6666
loop_
_geom_bond_atom_site_label_1
_geom_bond_atom_site_label_2
_geom_bond_site_symmetry_1
_geom_bond_site_symmetry_2
O1 C6 1_555 1_555
O2 N1 1_555 1_555
O3 N1 1_555 1_555
O4 N2 1_555 1_555
O5 N2 1_555 1_555
N1 C8 1_555 1_555
N2 C10 1_555 1_555
N3 C1 1_555 1_555
N4 N5 1_555 1_555
N5 C13 1_555 1_555
C1 C2 1_555 1_555
C2 C3 1_555 1_555
C3 C4 1_555 1_555
C4 C5 1_555 1_555
C5 N3 1_555 1_555
C6 N4 1_555 1_555
C7 C8 1_555 1_555
C8 C9 1_555 1_555
C9 C10 1_555 1_555
C10 C11 1_555 1_555
C11 C12 1_555 1_555
C12 C7 1_555 1_555
C13 C7 1_555 1_555
O6 H10 1_555 1_555
H1 C1 1_555 1_555
H2 C2 1_555 1_555
H3 C4 1_555 1_555
H4 C5 1_555 1_555
H5 N4 1_555 1_555
H6 C9 1_555 1_555
H7 C11 1_555 1_555
H8 C12 1_555 1_555
H9 C13 1_555 1_555
H11 O6 1_555 1_555
C3 C6 1_555 1_555

#END
