
#######################################################################
#
#                 Cambridge Crystallographic Data Centre
#                                CCDC 
#
#######################################################################
#
# If this CIF has been generated from an entry in the Cambridge 
# Structural Database, then it will include bibliographic, chemical, 
# crystal, experimental, refinement or atomic coordinate data resulting 
# from the CCDC's data processing and validation procedures.
#
#######################################################################

data_DAYHAN
_chemical_name_common            1,2,3,4-tetra-O-acetyl-beta-D-glucose
_chemical_formula_moiety         'C14 H20 O10'
_chemical_name_systematic        1,2,3,4-tetra-O-acetyl-\b-D-glucopyranose
_symmetry_cell_setting           orthorhombic
_symmetry_space_group_name_H-M   'P 21 21 21'
_symmetry_Int_Tables_number      19
_space_group_name_Hall           'P 2ac 2ab'
loop_
_symmetry_equiv_pos_site_id
_symmetry_equiv_pos_as_xyz
1 x,y,z
2 1/2-x,-y,1/2+z
3 -x,1/2+y,1/2-z
4 1/2+x,1/2-y,-z
_cell_length_a                   9.4830(8)
_cell_length_b                   12.6536(12)
_cell_length_c                   15.1455(14)
_cell_angle_alpha                90
_cell_angle_beta                 90
_cell_angle_gamma                90
_cell_volume                     1817.37
_exptl_crystal_colour            colorless
_exptl_crystal_description       block
_chemical_melting_point          '403-404 K'
_cell_formula_units_Z            4
_exptl_crystal_recrystallization_method 'diethyl ether'
loop_
_atom_site_label
_atom_site_type_symbol
_atom_site_fract_x
_atom_site_fract_y
_atom_site_fract_z
O1 O 0.67707(19) 0.45363(14) 0.59308(13)
O2 O 0.6268(2) 0.62515(14) 0.71393(10)
O3 O 0.66461(15) 0.82407(12) 0.63465(10)
O4 O 0.54167(15) 0.84355(13) 0.46397(10)
O5 O 0.62182(18) 0.56104(13) 0.47920(10)
O6 O 0.5076(4) 0.5727(4) 0.3022(3)
H1 H 0.5502 0.5174 0.3113
O8 O 0.4937(3) 0.3491(2) 0.5636(3)
O9 O 0.8541(3) 0.6167(3) 0.74844(16)
O10 O 0.4644(3) 0.8815(3) 0.6928(3)
O11 O 0.7454(2) 0.9139(2) 0.4227(2)
C1 C 0.5986(3) 0.5440(2) 0.57034(15)
H3 H 0.4982 0.5344 0.5832
C2 C 0.6596(2) 0.63621(18) 0.62156(13)
H4 H 0.7620 0.6391 0.6133
C3 C 0.5935(2) 0.73799(17) 0.59103(12)
H5 H 0.4929 0.7387 0.6059
C4 C 0.6126(2) 0.7490(2) 0.49211(13)
H6 H 0.7133 0.7544 0.4782
C5 C 0.5505(2) 0.6528(2) 0.44597(14)
H7 H 0.4493 0.6478 0.4585
C6 C 0.5748(3) 0.6553(3) 0.34671(17)
H8 H 0.5408 0.7220 0.3235
H9 H 0.6753 0.6514 0.3352
C7 C 0.6134(5) 0.3575(3) 0.5863(3)
C8 C 0.7125(5) 0.2721(3) 0.6130(3)
H12 H 0.6671 0.2048 0.6065
H13 H 0.7397 0.2821 0.6735
H14 H 0.7948 0.2745 0.5761
C9 C 0.7349(5) 0.6212(3) 0.77096(19)
C10 C 0.6840(5) 0.6217(3) 0.86415(19)
H15 H 0.6641 0.6930 0.8819
H16 H 0.7554 0.5925 0.9019
H17 H 0.5997 0.5800 0.8686
C11 C 0.5885(3) 0.8906(3) 0.6840(2)
C12 C 0.6766(4) 0.9731(4) 0.7243(3)
H18 H 0.7171 0.9467 0.7781
H19 H 0.6196 1.0339 0.7371
H20 H 0.7505 0.9925 0.6842
C13 C 0.6220(3) 0.9231(2) 0.43415(17)
C14 C 0.5390(3) 1.0201(3) 0.4176(2)
H21 H 0.4963 1.0160 0.3602
H22 H 0.6001 1.0805 0.4200
H23 H 0.4669 1.0268 0.4617
O7? O 0.7015(8) 0.6892(8) 0.3202(4)
H2? H 0.7629 0.6622 0.3510
H10? H 0.5607 0.5844 0.3238
H11? H 0.5035 0.7003 0.3203
loop_
_geom_bond_atom_site_label_1
_geom_bond_atom_site_label_2
_geom_bond_site_symmetry_1
_geom_bond_site_symmetry_2
O1 C1 1_555 1_555
O2 C2 1_555 1_555
O3 C3 1_555 1_555
O4 C4 1_555 1_555
O5 C1 1_555 1_555
O6 H1 1_555 1_555
O8 C7 1_555 1_555
O9 C9 1_555 1_555
O10 C11 1_555 1_555
O11 C13 1_555 1_555
C1 H3 1_555 1_555
C2 C1 1_555 1_555
H4 C2 1_555 1_555
C3 C2 1_555 1_555
H5 C3 1_555 1_555
C4 C3 1_555 1_555
H6 C4 1_555 1_555
C5 O5 1_555 1_555
H7 C5 1_555 1_555
C6 O6 1_555 1_555
H8 C6 1_555 1_555
H9 C6 1_555 1_555
C7 O1 1_555 1_555
C8 C7 1_555 1_555
H12 C8 1_555 1_555
H13 C8 1_555 1_555
H14 C8 1_555 1_555
C9 O2 1_555 1_555
C10 C9 1_555 1_555
H15 C10 1_555 1_555
H16 C10 1_555 1_555
H17 C10 1_555 1_555
C11 O3 1_555 1_555
C12 C11 1_555 1_555
H18 C12 1_555 1_555
H19 C12 1_555 1_555
H20 C12 1_555 1_555
C13 O4 1_555 1_555
C14 C13 1_555 1_555
H21 C14 1_555 1_555
H22 C14 1_555 1_555
H23 C14 1_555 1_555
C4 C5 1_555 1_555
C5 C6 1_555 1_555

#END
