
#######################################################################
#
#                 Cambridge Crystallographic Data Centre
#                                CCDC 
#
#######################################################################
#
# If this CIF has been generated from an entry in the Cambridge 
# Structural Database, then it will include bibliographic, chemical, 
# crystal, experimental, refinement or atomic coordinate data resulting 
# from the CCDC's data processing and validation procedures.
#
#######################################################################

data_DAYLEV
_chemical_formula_moiety         'C11 H11 Br1 N2'
_chemical_name_systematic        
6-Bromo-3-(2-methylpropenyl)imidazo(1,2-a)pyridine
_chemical_properties_biological  'potential biological activity'
_symmetry_cell_setting           triclinic
_symmetry_space_group_name_H-M   'P -1'
_symmetry_Int_Tables_number      2
_space_group_name_Hall           '-P 1'
loop_
_symmetry_equiv_pos_site_id
_symmetry_equiv_pos_as_xyz
1 x,y,z
2 -x,-y,-z
_cell_length_a                   6.5532(6)
_cell_length_b                   7.5940(10)
_cell_length_c                   11.0260(10)
_cell_angle_alpha                87.773(3)
_cell_angle_beta                 73.715(2)
_cell_angle_gamma                79.578(4)
_cell_volume                     517.964
_exptl_crystal_colour            colorless
_exptl_crystal_description       chunk
_cell_formula_units_Z            2
_exptl_crystal_recrystallization_method dichloromethane
loop_
_atom_site_label
_atom_site_type_symbol
_atom_site_fract_x
_atom_site_fract_y
_atom_site_fract_z
Br1 Br 0.91071(5) 0.06232(5) -0.20117(3)
N1 N 0.1140(4) 0.4294(4) 0.1690(3)
N2 N 0.4609(3) 0.2919(3) 0.1142(2)
C1 C 0.1989(5) 0.4206(4) 0.2709(3)
C2 C 0.4109(4) 0.3371(4) 0.2413(3)
C3 C 0.6489(4) 0.2069(4) 0.0327(3)
C4 C 0.6526(5) 0.1793(4) -0.0875(3)
C5 C 0.4675(6) 0.2363(5) -0.1319(3)
C6 C 0.2831(5) 0.3197(5) -0.0508(3)
C7 C 0.2738(5) 0.3509(4) 0.0753(3)
C8 C 0.5730(4) 0.3017(4) 0.3101(3)
C9 C 0.5432(5) 0.2659(4) 0.4319(3)
C10 C 0.3314(5) 0.2466(5) 0.5230(3)
C11 C 0.7278(5) 0.2393(5) 0.4899(3)
H1 H 0.1167 0.4688 0.3551
H2 H 0.7780 0.1670 0.0616
H3 H 0.4737 0.2152 -0.2201
H4 H 0.1545 0.3587 -0.0804
H5 H 0.7221 0.3045 0.2607
H6 H 0.2589 0.3612 0.5604
H7 H 0.3559 0.1644 0.5879
H8 H 0.2436 0.2019 0.4790
H9 H 0.7237 0.3473 0.5337
H10 H 0.7160 0.1422 0.5484
H11 H 0.8617 0.2123 0.4246
loop_
_geom_bond_atom_site_label_1
_geom_bond_atom_site_label_2
_geom_bond_site_symmetry_1
_geom_bond_site_symmetry_2
Br1 C4 1_555 1_555
N1 C1 1_555 1_555
N2 C2 1_555 1_555
C1 C2 1_555 1_555
C2 C8 1_555 1_555
C3 N2 1_555 1_555
C4 C3 1_555 1_555
C5 C4 1_555 1_555
C6 C5 1_555 1_555
C7 N1 1_555 1_555
C8 C9 1_555 1_555
C9 C10 1_555 1_555
C10 H6 1_555 1_555
C11 C9 1_555 1_555
H1 C1 1_555 1_555
H2 C3 1_555 1_555
H3 C5 1_555 1_555
H4 C6 1_555 1_555
H5 C8 1_555 1_555
H7 C10 1_555 1_555
H8 C10 1_555 1_555
H9 C11 1_555 1_555
H10 C11 1_555 1_555
H11 C11 1_555 1_555
N2 C7 1_555 1_555
C6 C7 1_555 1_555

#END
