
#######################################################################
#
#                 Cambridge Crystallographic Data Centre
#                                CCDC 
#
#######################################################################
#
# If this CIF has been generated from an entry in the Cambridge 
# Structural Database, then it will include bibliographic, chemical, 
# crystal, experimental, refinement or atomic coordinate data resulting 
# from the CCDC's data processing and validation procedures.
#
#######################################################################

data_DAYMUO
_chemical_name_common            
'2-(((2-(((2-(((2-((acetyloxy)methyl)-3,4,5-tris((benzenecarbonyl)oxy)oxan-2-yl)oxy)methyl)-3,4,5-tris((benzenecarbonyl)oxy)oxan-2-yl)oxy)methyl)-3,4,5-tris((benzenecarbonyl)oxy)oxan-2-yl)oxy)methyl)-2-hydroxyoxane-3,4,5-triyl tribenzoate'
_chemical_formula_moiety         'C110 H92 O34'
_chemical_name_systematic        
"(1-O-acetoxy-3,4,5-Tetra-O-benzoyl-\b-D-fructopyranosyl)-(2-1)-(3, 4, 5-tri-O-benzoyl-\b-D-fructopyranosyl)~2~-(2-1)-3',4',5'-tri-O-benzoyl-\b-D-fructopyranoside"
_symmetry_cell_setting           monoclinic
_symmetry_space_group_name_H-M   'P 21'
_symmetry_Int_Tables_number      4
_space_group_name_Hall           'P 2yb'
loop_
_symmetry_equiv_pos_site_id
_symmetry_equiv_pos_as_xyz
1 x,y,z
2 -x,1/2+y,-z
_cell_length_a                   11.0760(2)
_cell_length_b                   15.3546(3)
_cell_length_c                   28.8398(6)
_cell_angle_alpha                90
_cell_angle_beta                 90.9920(10)
_cell_angle_gamma                90
_cell_volume                     4903.98
_exptl_crystal_colour            colorless
_exptl_crystal_description       prismatic
_chemical_melting_point          '154-156 deg.C'
_cell_formula_units_Z            2
loop_
_atom_site_label
_atom_site_type_symbol
_atom_site_fract_x
_atom_site_fract_y
_atom_site_fract_z
O1 O 1.17603(14) 0.56337(12) 0.07246(5)
O2 O 1.32475(13) 0.58341(12) 0.12658(6)
H1 H 1.3401 0.5911 0.1549
O3 O 1.20201(13) 0.71722(12) 0.16977(5)
O4 O 1.04312(15) 0.67410(14) 0.21166(6)
O5 O 1.12894(14) 0.82521(12) 0.09633(6)
O6 O 1.29607(15) 0.88906(13) 0.12728(6)
O7 O 1.03398(15) 0.70094(13) 0.03843(6)
O8 O 1.04795(18) 0.68586(15) -0.03845(6)
O9 O 1.01045(13) 0.52307(11) 0.13576(5)
O10 O 0.97690(14) 0.37809(11) 0.15683(5)
O11 O 0.78187(14) 0.56500(11) 0.13675(5)
O12 O 0.59510(15) 0.54601(13) 0.16509(7)
O13 O 0.68488(14) 0.44077(12) 0.07091(5)
O14 O 0.75163(16) 0.42622(15) -0.00196(6)
O15 O 0.77977(15) 0.29149(12) 0.11699(6)
O16 O 0.68183(16) 0.23299(15) 0.05538(6)
O17 O 0.84856(14) 0.42804(11) 0.23182(5)
O18 O 0.90472(14) 0.47582(11) 0.30640(5)
O19 O 0.64741(14) 0.34681(11) 0.26529(5)
O20 O 0.53497(17) 0.31666(17) 0.32795(7)
O21 O 0.78653(15) 0.21617(12) 0.31106(6)
O22 O 0.9513(2) 0.14831(15) 0.28342(9)
O23 O 0.87622(15) 0.34372(12) 0.37589(5)
O24 O 0.9686(2) 0.23248(17) 0.41193(8)
O25 O 0.67655(14) 0.54108(11) 0.31935(5)
O26 O 0.72242(14) 0.68971(12) 0.31879(6)
O27 O 0.51487(14) 0.56566(12) 0.39088(6)
O28 O 0.37484(18) 0.67172(18) 0.39591(9)
O29 O 0.67969(15) 0.62075(14) 0.45606(6)
O30 O 0.8511(2) 0.5562(2) 0.48006(8)
O31 O 0.77239(15) 0.75980(13) 0.41197(6)
O32 O 0.96265(18) 0.80889(17) 0.41039(8)
O33 O 0.43571(15) 0.58818(14) 0.30018(6)
O34 O 0.37431(17) 0.60448(15) 0.22645(6)
C1 C 1.2000(2) 0.58852(17) 0.11864(8)
C2 C 1.1520(2) 0.68139(17) 0.12696(7)
H2 H 1.0618 0.6805 0.1282
C3 C 1.1924(2) 0.74465(17) 0.08955(8)
H3 H 1.2813 0.7550 0.0929
C4 C 1.1641(2) 0.70940(18) 0.04185(8)
H4 H 1.1944 0.7498 0.0174
C5 C 1.2230(2) 0.62089(19) 0.03788(8)
H5 H 1.2068 0.5965 0.0066
H6 H 1.3115 0.6267 0.0422
C6 C 1.1358(2) 0.52070(17) 0.14791(8)
H7 H 1.1692 0.4621 0.1418
H8 H 1.1475 0.5339 0.1813
C7 C 0.9342(2) 0.46392(16) 0.15947(7)
C8 C 0.8089(2) 0.47400(17) 0.13678(8)
H9 H 0.7480 0.4423 0.1556
C9 C 0.8073(2) 0.43835(18) 0.08763(8)
H10 H 0.8589 0.4755 0.0675
C10 C 0.8550(2) 0.34560(18) 0.08811(8)
H11 H 0.8574 0.3218 0.0559
C11 C 0.9796(2) 0.34436(18) 0.11032(8)
H12 H 1.0105 0.2839 0.1110
H13 H 1.0351 0.3800 0.0916
C12 C 0.9311(2) 0.48726(17) 0.21096(7)
H14 H 1.0125 0.4812 0.2253
H15 H 0.9036 0.5481 0.2151
C13 C 0.8080(2) 0.45074(16) 0.27654(7)
C14 C 0.7478(2) 0.36796(17) 0.29550(8)
H16 H 0.7176 0.3798 0.3274
C15 C 0.8418(2) 0.29666(17) 0.29793(8)
H17 H 0.8793 0.2898 0.2668
C16 C 0.9380(2) 0.32589(18) 0.33311(8)
H18 H 1.0009 0.2799 0.3378
C17 C 0.9934(2) 0.40938(17) 0.31640(8)
H19 H 1.0508 0.4313 0.3404
H20 H 1.0396 0.3974 0.2880
C18 C 0.7217(2) 0.52637(17) 0.27358(7)
H21 H 0.7638 0.5790 0.2624
H22 H 0.6543 0.5129 0.2518
C19 C 0.6341(2) 0.62604(17) 0.32761(8)
C20 C 0.6038(2) 0.62974(18) 0.37939(8)
H23 H 0.5724 0.6890 0.3870
C21 C 0.7161(2) 0.61148(19) 0.40850(8)
H24 H 0.7445 0.5506 0.4029
C22 C 0.8148(2) 0.6760(2) 0.39621(9)
H25 H 0.8918 0.6604 0.4128
C23 C 0.8339(2) 0.6767(2) 0.34458(9)
H26 H 0.8911 0.7239 0.3369
H27 H 0.8704 0.6207 0.3352
C24 C 0.5301(2) 0.65145(18) 0.29506(9)
H28 H 0.5001 0.7102 0.3030
H29 H 0.5577 0.6524 0.2626
C25 C 1.1362(2) 0.71466(17) 0.20854(8)
C26 C 1.1908(2) 0.76695(19) 0.24671(9)
C27 C 1.2908(3) 0.8188(2) 0.24074(9)
H30 H 1.3279 0.8217 0.2113
C28 C 1.3371(3) 0.8665(2) 0.27767(11)
H31 H 1.4061 0.9023 0.2735
C29 C 1.2844(4) 0.8626(3) 0.32016(12)
H32 H 1.3162 0.8959 0.3453
C30 C 1.1853(4) 0.8105(4) 0.32619(12)
H33 H 1.1490 0.8071 0.3557
C31 C 1.1379(3) 0.7628(3) 0.28940(11)
H34 H 1.0688 0.7273 0.2937
C32 C 1.1902(2) 0.89130(18) 0.11777(8)
C33 C 1.1069(2) 0.96262(18) 0.12959(10)
C34 C 0.9962(3) 0.9736(2) 0.10798(13)
H35 H 0.9723 0.9357 0.0835
C35 C 0.9195(3) 1.0395(3) 0.12175(16)
H36 H 0.8439 1.0479 0.1064
C36 C 0.9539(4) 1.0926(3) 0.15783(16)
H37 H 0.9000 1.1365 0.1681
C37 C 1.0634(4) 1.0839(3) 0.17923(16)
H38 H 1.0864 1.1223 0.2037
C38 C 1.1415(3) 1.0187(3) 0.16524(13)
H39 H 1.2183 1.0123 0.1800
C39 C 0.9870(2) 0.68791(19) -0.00413(8)
C40 C 0.8541(3) 0.6784(2) -0.00455(9)
C41 C 0.7868(3) 0.6740(2) 0.03538(10)
H40 H 0.8262 0.6759 0.0649
C42 C 0.6620(3) 0.6667(3) 0.03252(11)
H41 H 0.6165 0.6620 0.0600
C43 C 0.6049(3) 0.6664(3) -0.00963(12)
H42 H 0.5193 0.6634 -0.0116
C44 C 0.6719(4) 0.6703(4) -0.04955(13)
H43 H 0.6318 0.6702 -0.0789
C45 C 0.7958(3) 0.6745(3) -0.04727(11)
H44 H 0.8411 0.6746 -0.0749
C46 C 0.6769(2) 0.59338(18) 0.15497(8)
C47 C 0.6808(2) 0.68882(18) 0.16147(8)
C48 C 0.7892(2) 0.7328(2) 0.16478(10)
H45 H 0.8625 0.7016 0.1611
C49 C 0.7934(3) 0.8210(2) 0.17338(12)
H46 H 0.8689 0.8499 0.1764
C50 C 0.6882(3) 0.8669(2) 0.17761(10)
H47 H 0.6906 0.9279 0.1832
C51 C 0.5787(3) 0.8247(2) 0.17368(12)
H48 H 0.5058 0.8569 0.1763
C52 C 0.5741(2) 0.7359(2) 0.16600(11)
H49 H 0.4983 0.7070 0.1638
C53 C 0.6694(2) 0.43010(19) 0.02470(8)
C54 C 0.5397(2) 0.42258(18) 0.01125(8)
C55 C 0.4490(2) 0.4258(2) 0.04362(10)
H50 H 0.4684 0.4366 0.0753
C56 C 0.3302(3) 0.4133(2) 0.02979(12)
H51 H 0.2682 0.4143 0.0521
C57 C 0.3015(3) 0.3994(2) -0.01603(12)
H52 H 0.2197 0.3912 -0.0255
C58 C 0.3912(3) 0.3973(3) -0.04827(11)
H53 H 0.3710 0.3882 -0.0801
C59 C 0.5097(3) 0.4081(2) -0.03495(9)
H54 H 0.5713 0.4056 -0.0574
C60 C 0.7014(2) 0.23565(18) 0.09662(9)
C61 C 0.6422(2) 0.17855(19) 0.13137(9)
C62 C 0.5732(2) 0.1090(2) 0.11530(11)
H55 H 0.5679 0.0972 0.0830
C63 C 0.5120(3) 0.0569(2) 0.14624(12)
H56 H 0.4635 0.0100 0.1352
C64 C 0.5217(3) 0.0734(2) 0.19320(12)
H57 H 0.4789 0.0381 0.2144
C65 C 0.5931(3) 0.1406(2) 0.20954(11)
H58 H 0.6008 0.1507 0.2420
C66 C 0.6534(2) 0.1934(2) 0.17886(10)
H59 H 0.7025 0.2397 0.1901
C67 C 0.5420(2) 0.32698(19) 0.28676(10)
C68 C 0.4411(2) 0.31876(19) 0.25310(10)
C69 C 0.4496(3) 0.3453(2) 0.20757(11)
H60 H 0.5218 0.3712 0.1969
C70 C 0.3509(3) 0.3338(3) 0.17740(14)
H61 H 0.3553 0.3521 0.1460
C71 C 0.2464(3) 0.2953(3) 0.19364(16)
H62 H 0.1804 0.2854 0.1728
C72 C 0.2370(3) 0.2714(2) 0.23935(15)
H63 H 0.1641 0.2469 0.2502
C73 C 0.3330(2) 0.2832(2) 0.26905(13)
H64 H 0.3265 0.2672 0.3007
C74 C 0.8515(3) 0.1444(2) 0.29991(9)
C75 C 0.7848(3) 0.0619(2) 0.30883(9)
C76 C 0.8339(4) -0.0153(2) 0.29218(12)
H65 H 0.9086 -0.0151 0.2765
C77 C 0.7715(4) -0.0923(2) 0.29895(13)
H66 H 0.8036 -0.1454 0.2876
C78 C 0.6646(4) -0.0929(3) 0.32176(13)
H67 H 0.6230 -0.1463 0.3262
C79 C 0.6165(3) -0.0162(3) 0.33847(12)
H68 H 0.5423 -0.0168 0.3545
C80 C 0.6768(3) 0.0614(2) 0.33172(10)
H69 H 0.6438 0.1144 0.3429
C81 C 0.8949(2) 0.2896(2) 0.41178(9)
C82 C 0.8109(2) 0.3095(2) 0.45035(9)
C83 C 0.6998(3) 0.3463(3) 0.44206(10)
H70 H 0.6759 0.3625 0.4114
C84 C 0.6225(3) 0.3599(4) 0.47876(12)
H71 H 0.5444 0.3834 0.4730
C85 C 0.6580(3) 0.3394(4) 0.52358(12)
H72 H 0.6057 0.3502 0.5487
C86 C 0.7687(3) 0.3035(3) 0.53135(11)
H73 H 0.7935 0.2895 0.5622
C87 C 0.8463(3) 0.2870(3) 0.49501(10)
H74 H 0.9227 0.2606 0.5008
C88 C 0.4011(2) 0.5956(2) 0.39777(9)
C89 C 0.3173(2) 0.5233(3) 0.40831(9)
C90 C 0.2037(3) 0.5449(3) 0.42439(11)
H75 H 0.1794 0.6041 0.4264
C91 C 0.1250(3) 0.4777(4) 0.43772(12)
H76 H 0.0473 0.4914 0.4491
C92 C 0.1605(4) 0.3937(4) 0.43429(14)
H77 H 0.1081 0.3488 0.4443
C93 C 0.2694(3) 0.3726(3) 0.41682(13)
H78 H 0.2912 0.3131 0.4136
C94 C 0.3496(3) 0.4372(2) 0.40355(10)
H79 H 0.4258 0.4221 0.3913
C95 C 0.7573(3) 0.5912(2) 0.48877(10)
C96 C 0.7118(3) 0.6066(2) 0.53653(10)
C97 C 0.6043(3) 0.6468(3) 0.54448(11)
H80 H 0.5562 0.6668 0.5190
C98 C 0.5647(4) 0.6587(3) 0.58944(13)
H81 H 0.4893 0.6861 0.5949
C99 C 0.6348(4) 0.6307(4) 0.62566(13)
H82 H 0.6080 0.6386 0.6565
C100 C 0.7409(5) 0.5924(4) 0.61842(14)
H83 H 0.7891 0.5735 0.6441
C101 C 0.7812(4) 0.5798(4) 0.57351(13)
H84 H 0.8569 0.5527 0.5685
C102 C 0.8575(2) 0.8219(2) 0.41810(10)
C103 C 0.8052(3) 0.9044(2) 0.43474(9)
C104 C 0.6886(3) 0.9109(2) 0.45078(10)
H85 H 0.6384 0.8607 0.4515
C105 C 0.6452(3) 0.9896(2) 0.46566(11)
H86 H 0.5659 0.9935 0.4775
C106 C 0.7162(4) 1.0625(3) 0.46348(11)
H87 H 0.6853 1.1174 0.4729
C107 C 0.8329(4) 1.0560(3) 0.44759(13)
H88 H 0.8829 1.1063 0.4469
C108 C 0.8764(3) 0.9783(3) 0.43298(11)
H89 H 0.9561 0.9746 0.4215
C109 C 0.3619(2) 0.57279(18) 0.26402(9)
C110 C 0.2625(2) 0.5119(2) 0.27684(10)
H90 H 0.2100 0.5015 0.2497
H91 H 0.2152 0.5377 0.3017
H92 H 0.2972 0.4565 0.2875
loop_
_geom_bond_atom_site_label_1
_geom_bond_atom_site_label_2
_geom_bond_site_symmetry_1
_geom_bond_site_symmetry_2
O1 C1 1_555 1_555
O2 H1 1_555 1_555
O3 C2 1_555 1_555
O4 C25 1_555 1_555
O5 C3 1_555 1_555
O6 C32 1_555 1_555
O7 C4 1_555 1_555
O8 C39 1_555 1_555
O9 C6 1_555 1_555
O10 C7 1_555 1_555
O11 C8 1_555 1_555
O12 C46 1_555 1_555
O13 C9 1_555 1_555
O14 C53 1_555 1_555
O15 C10 1_555 1_555
O16 C60 1_555 1_555
O17 C12 1_555 1_555
O18 C13 1_555 1_555
O19 C14 1_555 1_555
O20 C67 1_555 1_555
O21 C15 1_555 1_555
O22 C74 1_555 1_555
O23 C16 1_555 1_555
O24 C81 1_555 1_555
O25 C18 1_555 1_555
O26 C19 1_555 1_555
O27 C20 1_555 1_555
O28 C88 1_555 1_555
O29 C21 1_555 1_555
O30 C95 1_555 1_555
O31 C22 1_555 1_555
O32 C102 1_555 1_555
O33 C24 1_555 1_555
O34 C109 1_555 1_555
C1 O2 1_555 1_555
C2 C1 1_555 1_555
H2 C2 1_555 1_555
C3 C2 1_555 1_555
H3 C3 1_555 1_555
C4 C3 1_555 1_555
H4 C4 1_555 1_555
C5 O1 1_555 1_555
H5 C5 1_555 1_555
H6 C5 1_555 1_555
C6 C1 1_555 1_555
H7 C6 1_555 1_555
H8 C6 1_555 1_555
C7 O9 1_555 1_555
C8 C7 1_555 1_555
H9 C8 1_555 1_555
C9 C8 1_555 1_555
H10 C9 1_555 1_555
C10 C9 1_555 1_555
H11 C10 1_555 1_555
C11 O10 1_555 1_555
H12 C11 1_555 1_555
H13 C11 1_555 1_555
C12 C7 1_555 1_555
H14 C12 1_555 1_555
H15 C12 1_555 1_555
C13 O17 1_555 1_555
C14 C13 1_555 1_555
H16 C14 1_555 1_555
C15 C14 1_555 1_555
H17 C15 1_555 1_555
C16 C15 1_555 1_555
H18 C16 1_555 1_555
C17 O18 1_555 1_555
H19 C17 1_555 1_555
H20 C17 1_555 1_555
C18 C13 1_555 1_555
H21 C18 1_555 1_555
H22 C18 1_555 1_555
C19 O25 1_555 1_555
C20 C19 1_555 1_555
H23 C20 1_555 1_555
C21 C20 1_555 1_555
H24 C21 1_555 1_555
C22 C21 1_555 1_555
H25 C22 1_555 1_555
C23 O26 1_555 1_555
H26 C23 1_555 1_555
H27 C23 1_555 1_555
C24 C19 1_555 1_555
H28 C24 1_555 1_555
H29 C24 1_555 1_555
C25 O3 1_555 1_555
C26 C25 1_555 1_555
C27 C26 1_555 1_555
H30 C27 1_555 1_555
C28 C27 1_555 1_555
H31 C28 1_555 1_555
C29 C28 1_555 1_555
H32 C29 1_555 1_555
C30 C29 1_555 1_555
H33 C30 1_555 1_555
C31 C26 1_555 1_555
H34 C31 1_555 1_555
C32 O5 1_555 1_555
C33 C32 1_555 1_555
C34 C33 1_555 1_555
H35 C34 1_555 1_555
C35 C34 1_555 1_555
H36 C35 1_555 1_555
C36 C35 1_555 1_555
H37 C36 1_555 1_555
C37 C36 1_555 1_555
H38 C37 1_555 1_555
C38 C33 1_555 1_555
H39 C38 1_555 1_555
C39 O7 1_555 1_555
C40 C39 1_555 1_555
C41 C40 1_555 1_555
H40 C41 1_555 1_555
C42 C41 1_555 1_555
H41 C42 1_555 1_555
C43 C42 1_555 1_555
H42 C43 1_555 1_555
C44 C43 1_555 1_555
H43 C44 1_555 1_555
C45 C40 1_555 1_555
H44 C45 1_555 1_555
C46 O11 1_555 1_555
C47 C46 1_555 1_555
C48 C47 1_555 1_555
H45 C48 1_555 1_555
C49 C48 1_555 1_555
H46 C49 1_555 1_555
C50 C49 1_555 1_555
H47 C50 1_555 1_555
C51 C50 1_555 1_555
H48 C51 1_555 1_555
C52 C47 1_555 1_555
H49 C52 1_555 1_555
C53 O13 1_555 1_555
C54 C53 1_555 1_555
C55 C54 1_555 1_555
H50 C55 1_555 1_555
C56 C55 1_555 1_555
H51 C56 1_555 1_555
C57 C56 1_555 1_555
H52 C57 1_555 1_555
C58 C57 1_555 1_555
H53 C58 1_555 1_555
C59 C54 1_555 1_555
H54 C59 1_555 1_555
C60 O15 1_555 1_555
C61 C60 1_555 1_555
C62 C61 1_555 1_555
H55 C62 1_555 1_555
C63 C62 1_555 1_555
H56 C63 1_555 1_555
C64 C63 1_555 1_555
H57 C64 1_555 1_555
C65 C64 1_555 1_555
H58 C65 1_555 1_555
C66 C61 1_555 1_555
H59 C66 1_555 1_555
C67 O19 1_555 1_555
C68 C67 1_555 1_555
C69 C68 1_555 1_555
H60 C69 1_555 1_555
C70 C69 1_555 1_555
H61 C70 1_555 1_555
C71 C70 1_555 1_555
H62 C71 1_555 1_555
C72 C71 1_555 1_555
H63 C72 1_555 1_555
C73 C68 1_555 1_555
H64 C73 1_555 1_555
C74 O21 1_555 1_555
C75 C74 1_555 1_555
C76 C75 1_555 1_555
H65 C76 1_555 1_555
C77 C76 1_555 1_555
H66 C77 1_555 1_555
C78 C77 1_555 1_555
H67 C78 1_555 1_555
C79 C78 1_555 1_555
H68 C79 1_555 1_555
C80 C75 1_555 1_555
H69 C80 1_555 1_555
C81 O23 1_555 1_555
C82 C81 1_555 1_555
C83 C82 1_555 1_555
H70 C83 1_555 1_555
C84 C83 1_555 1_555
H71 C84 1_555 1_555
C85 C84 1_555 1_555
H72 C85 1_555 1_555
C86 C85 1_555 1_555
H73 C86 1_555 1_555
C87 C82 1_555 1_555
H74 C87 1_555 1_555
C88 O27 1_555 1_555
C89 C88 1_555 1_555
C90 C89 1_555 1_555
H75 C90 1_555 1_555
C91 C90 1_555 1_555
H76 C91 1_555 1_555
C92 C91 1_555 1_555
H77 C92 1_555 1_555
C93 C92 1_555 1_555
H78 C93 1_555 1_555
C94 C89 1_555 1_555
H79 C94 1_555 1_555
C95 O29 1_555 1_555
C96 C95 1_555 1_555
C97 C96 1_555 1_555
H80 C97 1_555 1_555
C98 C97 1_555 1_555
H81 C98 1_555 1_555
C99 C98 1_555 1_555
H82 C99 1_555 1_555
C100 C99 1_555 1_555
H83 C100 1_555 1_555
C101 C96 1_555 1_555
H84 C101 1_555 1_555
C102 O31 1_555 1_555
C103 C102 1_555 1_555
C104 C103 1_555 1_555
H85 C104 1_555 1_555
C105 C104 1_555 1_555
H86 C105 1_555 1_555
C106 C105 1_555 1_555
H87 C106 1_555 1_555
C107 C106 1_555 1_555
H88 C107 1_555 1_555
C108 C103 1_555 1_555
H89 C108 1_555 1_555
C109 O33 1_555 1_555
C110 C109 1_555 1_555
H90 C110 1_555 1_555
H91 C110 1_555 1_555
H92 C110 1_555 1_555
C4 C5 1_555 1_555
C10 C11 1_555 1_555
C16 C17 1_555 1_555
C22 C23 1_555 1_555
C30 C31 1_555 1_555
C37 C38 1_555 1_555
C44 C45 1_555 1_555
C51 C52 1_555 1_555
C58 C59 1_555 1_555
C65 C66 1_555 1_555
C72 C73 1_555 1_555
C79 C80 1_555 1_555
C86 C87 1_555 1_555
C93 C94 1_555 1_555
C100 C101 1_555 1_555
C107 C108 1_555 1_555

#END
