
#######################################################################
#
#                 Cambridge Crystallographic Data Centre
#                                CCDC 
#
#######################################################################
#
# If this CIF has been generated from an entry in the Cambridge 
# Structural Database, then it will include bibliographic, chemical, 
# crystal, experimental, refinement or atomic coordinate data resulting 
# from the CCDC's data processing and validation procedures.
#
#######################################################################

data_DAYNAV
_chemical_formula_moiety         'C21 H17 Br1 N2 O1'
_chemical_name_systematic        
9b-(2-bromobenzyl)-5-methyl-5,9b-dihydropyrrolizino[3,2-b]indol-10(4aH)-one
_symmetry_cell_setting           monoclinic
_symmetry_space_group_name_H-M   'P 21/n'
_symmetry_Int_Tables_number      14
_space_group_name_Hall           '-P 2yn'
loop_
_symmetry_equiv_pos_site_id
_symmetry_equiv_pos_as_xyz
1 x,y,z
2 1/2-x,1/2+y,1/2-z
3 -x,-y,-z
4 1/2+x,1/2-y,1/2+z
_cell_length_a                   8.7889(18)
_cell_length_b                   8.9182(18)
_cell_length_c                   22.444(5)
_cell_angle_alpha                90
_cell_angle_beta                 91.02(3)
_cell_angle_gamma                90
_cell_volume                     1758.91
_exptl_crystal_colour            colorless
_cell_formula_units_Z            4
_exptl_crystal_recrystallization_method dichloromethane/hexane
loop_
_atom_site_label
_atom_site_type_symbol
_atom_site_fract_x
_atom_site_fract_y
_atom_site_fract_z
Br1 Br 0.41630(8) 1.12294(7) 0.10020(3)
O1 O 0.6074(4) 0.4762(4) 0.07638(14)
N1 N 0.2794(5) 0.7463(5) 0.19323(17)
N2 N 0.5261(4) 0.6305(4) 0.21381(18)
C1 C 0.1968(5) 0.6476(5) 0.1578(2)
C2 C 0.0483(6) 0.5970(6) 0.1626(3)
H1 H -0.0121 0.6277 0.1939
C3 C -0.0074(6) 0.5000(7) 0.1197(3)
H2 H -0.1062 0.4639 0.1229
C4 C 0.0780(6) 0.4546(7) 0.0722(3)
H3 H 0.0361 0.3913 0.0433
C5 C 0.2260(6) 0.5036(6) 0.0676(2)
H4 H 0.2853 0.4718 0.0361
C6 C 0.2855(5) 0.5995(5) 0.1098(2)
C7 C 0.4382(5) 0.7408(5) 0.17836(19)
H5 H 0.4854 0.8403 0.1794
C8 C 0.4401(5) 0.6701(5) 0.11451(19)
C9 C 0.5582(5) 0.5440(5) 0.11837(19)
C10 C 0.5927(5) 0.5200(5) 0.18127(19)
C11 C 0.6727(6) 0.4259(7) 0.2192(2)
H6 H 0.7291 0.3420 0.2087
C12 C 0.6514(6) 0.4829(7) 0.2769(2)
H7 H 0.6913 0.4426 0.3120
C13 C 0.5613(6) 0.6085(6) 0.2723(2)
H8 H 0.5300 0.6680 0.3037
C14 C 0.2285(7) 0.8006(9) 0.2494(3)
H9 H 0.1250 0.8340 0.2454
H10 H 0.2917 0.8827 0.2622
H11 H 0.2346 0.7214 0.2784
C15 C 0.4684(5) 0.7785(5) 0.06297(19)
H12 H 0.4755 0.7202 0.0266
H13 H 0.3803 0.8432 0.0586
C16 C 0.6067(6) 0.8753(5) 0.0681(2)
C17 C 0.7497(6) 0.8162(6) 0.0573(2)
H14 H 0.7579 0.7148 0.0483
C18 C 0.8804(7) 0.9023(7) 0.0595(3)
H15 H 0.9749 0.8578 0.0543
C19 C 0.8702(7) 1.0554(7) 0.0694(3)
H16 H 0.9572 1.1145 0.0683
C20 C 0.7335(8) 1.1191(6) 0.0807(2)
H17 H 0.7265 1.2214 0.0881
C21 C 0.6024(6) 1.0284(6) 0.0810(2)
loop_
_geom_bond_atom_site_label_1
_geom_bond_atom_site_label_2
_geom_bond_site_symmetry_1
_geom_bond_site_symmetry_2
Br1 C21 1_555 1_555
O1 C9 1_555 1_555
N1 C1 1_555 1_555
N2 C7 1_555 1_555
C1 C2 1_555 1_555
C2 H1 1_555 1_555
C3 C2 1_555 1_555
H2 C3 1_555 1_555
C4 C3 1_555 1_555
H3 C4 1_555 1_555
C5 C4 1_555 1_555
H4 C5 1_555 1_555
C6 C1 1_555 1_555
C7 N1 1_555 1_555
H5 C7 1_555 1_555
C8 C6 1_555 1_555
C9 C8 1_555 1_555
C10 N2 1_555 1_555
C11 C10 1_555 1_555
H6 C11 1_555 1_555
C12 C11 1_555 1_555
H7 C12 1_555 1_555
C13 N2 1_555 1_555
H8 C13 1_555 1_555
C14 N1 1_555 1_555
H9 C14 1_555 1_555
H10 C14 1_555 1_555
H11 C14 1_555 1_555
C15 C8 1_555 1_555
H12 C15 1_555 1_555
H13 C15 1_555 1_555
C16 C15 1_555 1_555
C17 C16 1_555 1_555
H14 C17 1_555 1_555
C18 C17 1_555 1_555
H15 C18 1_555 1_555
C19 C18 1_555 1_555
H16 C19 1_555 1_555
C20 C19 1_555 1_555
H17 C20 1_555 1_555
C21 C16 1_555 1_555
C5 C6 1_555 1_555
C7 C8 1_555 1_555
C9 C10 1_555 1_555
C12 C13 1_555 1_555
C20 C21 1_555 1_555

#END
