
#######################################################################
#
#                 Cambridge Crystallographic Data Centre
#                                CCDC 
#
#######################################################################
#
# If this CIF has been generated from an entry in the Cambridge 
# Structural Database, then it will include bibliographic, chemical, 
# crystal, experimental, refinement or atomic coordinate data resulting 
# from the CCDC's data processing and validation procedures.
#
#######################################################################

data_DAYPID
_chemical_formula_moiety         'C11 H9 Cl1 N2 O2'
_chemical_name_systematic        1-(3-Chlorobenzyl)pyrimidine-2,4(1H,3H)-dione
_symmetry_cell_setting           monoclinic
_symmetry_space_group_name_H-M   'P 21/c'
_symmetry_Int_Tables_number      14
_space_group_name_Hall           '-P 2ybc'
loop_
_symmetry_equiv_pos_site_id
_symmetry_equiv_pos_as_xyz
1 x,y,z
2 -x,1/2+y,1/2-z
3 -x,-y,-z
4 x,1/2-y,1/2+z
_cell_length_a                   10.0756(19)
_cell_length_b                   7.0683(13)
_cell_length_c                   15.620(3)
_cell_angle_alpha                90
_cell_angle_beta                 102.030(3)
_cell_angle_gamma                90
_cell_volume                     1087.99
_exptl_crystal_colour            colorless
_exptl_crystal_description       prism
_chemical_melting_point          '437-438 K'
_cell_formula_units_Z            4
_exptl_crystal_recrystallization_method 'ethyl acetate'
loop_
_atom_site_label
_atom_site_type_symbol
_atom_site_fract_x
_atom_site_fract_y
_atom_site_fract_z
Cl1 Cl 0.63035(8) 0.21632(9) 0.85294(4)
O1 O 0.13347(13) -0.08508(19) 0.47565(8)
O2 O 0.00795(15) 0.31813(19) 0.24907(8)
N1 N 0.07263(15) 0.1242(2) 0.36413(10)
N2 N 0.15853(14) 0.2319(2) 0.50499(9)
C1 C 0.05468(18) 0.3026(2) 0.32828(12)
C2 C 0.09428(18) 0.4537(3) 0.38883(12)
H1 H 0.0859 0.5788 0.3700
C3 C 0.14343(18) 0.4129(3) 0.47282(12)
H2 H 0.1688 0.5126 0.5117
C4 C 0.12249(17) 0.0782(3) 0.45048(11)
C5 C 0.21144(19) 0.1985(3) 0.59828(11)
H3 H 0.1818 0.0746 0.6134
H4 H 0.1725 0.2915 0.6316
C6 C 0.36380(18) 0.2083(2) 0.62530(12)
C7 C 0.4212(2) 0.2093(3) 0.71412(12)
H5 H 0.3659 0.2072 0.7550
C8 C 0.5597(2) 0.2134(3) 0.74154(15)
C9 C 0.6438(2) 0.2171(3) 0.68308(18)
H6 H 0.7376 0.2193 0.7025
C10 C 0.5871(2) 0.2173(4) 0.59539(18)
H7 H 0.6431 0.2202 0.5550
C11 C 0.4478(2) 0.2134(3) 0.56597(13)
H8 H 0.4108 0.2141 0.5062
H9 H 0.0504(19) 0.030(3) 0.3282(12)
loop_
_geom_bond_atom_site_label_1
_geom_bond_atom_site_label_2
_geom_bond_site_symmetry_1
_geom_bond_site_symmetry_2
Cl1 C8 1_555 1_555
O1 C4 1_555 1_555
O2 C1 1_555 1_555
N1 C1 1_555 1_555
N2 C3 1_555 1_555
C1 C2 1_555 1_555
C2 H1 1_555 1_555
C3 C2 1_555 1_555
H2 C3 1_555 1_555
C4 N1 1_555 1_555
C5 N2 1_555 1_555
H3 C5 1_555 1_555
H4 C5 1_555 1_555
C6 C5 1_555 1_555
C7 C6 1_555 1_555
H5 C7 1_555 1_555
C8 C7 1_555 1_555
C9 C8 1_555 1_555
H6 C9 1_555 1_555
C10 C9 1_555 1_555
H7 C10 1_555 1_555
C11 C6 1_555 1_555
H8 C11 1_555 1_555
H9 N1 1_555 1_555
N2 C4 1_555 1_555
C10 C11 1_555 1_555

#END
