
#######################################################################
#
#                 Cambridge Crystallographic Data Centre
#                                CCDC 
#
#######################################################################
#
# If this CIF has been generated from an entry in the Cambridge 
# Structural Database, then it will include bibliographic, chemical, 
# crystal, experimental, refinement or atomic coordinate data resulting 
# from the CCDC's data processing and validation procedures.
#
#######################################################################

data_DAYQOK
_chemical_formula_moiety         'C13 H13 N5,1.5(H2 O1)'
_chemical_name_systematic        
'2,6-bis(1H-Imidazol-1-ylmethyl)pyridine sesquihydrate'
_symmetry_cell_setting           triclinic
_symmetry_space_group_name_H-M   'P -1'
_symmetry_Int_Tables_number      2
_space_group_name_Hall           '-P 1'
loop_
_symmetry_equiv_pos_site_id
_symmetry_equiv_pos_as_xyz
1 x,y,z
2 -x,-y,-z
_cell_length_a                   9.260(2)
_cell_length_b                   10.846(3)
_cell_length_c                   15.531(4)
_cell_angle_alpha                77.794(4)
_cell_angle_beta                 87.324(4)
_cell_angle_gamma                65.873(4)
_cell_volume                     1390.01
_exptl_crystal_colour            colorless
_exptl_crystal_description       block
_cell_formula_units_Z            4
_exptl_crystal_recrystallization_method toluene
loop_
_atom_site_label
_atom_site_type_symbol
_atom_site_fract_x
_atom_site_fract_y
_atom_site_fract_z
N1 N 0.5707(3) 0.8598(2) 0.38487(15)
N2 N 0.6516(2) 0.82449(17) 0.52253(13)
N3 N 0.7084(2) 0.54625(18) 0.69742(10)
N4 N 0.7450(2) 0.31854(18) 0.87550(11)
N5 N 0.8316(3) 0.2319(3) 1.01430(13)
C1 C 0.6822(4) 0.9098(3) 0.3876(2)
H1 H 0.7184 0.9527 0.3384
C2 C 0.7330(3) 0.8890(2) 0.4704(2)
H2 H 0.8095 0.9139 0.4890
C3 C 0.5565(3) 0.8101(3) 0.46761(18)
H3 H 0.4868 0.7687 0.4862
C4 C 0.6681(3) 0.7753(2) 0.61750(15)
H4 H 0.5641 0.7925 0.6407
H5 H 0.7123 0.8271 0.6432
C5 C 0.7729(3) 0.6231(2) 0.64475(13)
C6 C 0.9258(3) 0.5680(2) 0.61646(14)
H6 H 0.9667 0.6242 0.5795
C7 C 1.0161(3) 0.4290(2) 0.64390(14)
H7 H 1.1193 0.3896 0.6259
C8 C 0.9518(3) 0.3490(2) 0.69837(13)
H8 H 1.0110 0.2547 0.7181
C9 C 0.7981(3) 0.4106(2) 0.72331(12)
C10 C 0.7205(3) 0.3271(2) 0.78168(13)
H9 H 0.6077 0.3688 0.7668
H10 H 0.7631 0.2344 0.7703
C11 C 0.6827(3) 0.4240(2) 0.91904(15)
H11 H 0.6164 0.5154 0.8953
C12 C 0.7363(3) 0.3694(3) 1.00334(16)
H12 H 0.7118 0.4187 1.0482
C13 C 0.8337(3) 0.2057(3) 0.93531(16)
H13 H 0.8900 0.1190 0.9223
N6 N 0.1692(2) 0.7548(2) 0.48510(12)
N7 N 0.2599(2) 0.68377(17) 0.62362(10)
N8 N 0.2763(2) 0.46802(17) 0.79627(10)
N9 N 0.3466(2) 0.19049(18) 0.96316(12)
N10 N 0.3513(3) 0.0929(2) 1.10282(15)
C14 C 0.2719(3) 0.6193(3) 0.49953(15)
H14 H 0.2992 0.5655 0.4571
C15 C 0.3284(3) 0.5743(2) 0.58405(14)
H15 H 0.4001 0.4858 0.6101
C16 C 0.1647(3) 0.7896(2) 0.56154(15)
H16 H 0.1028 0.8772 0.5716
C17 C 0.2767(3) 0.6847(2) 0.71655(12)
H17 H 0.2320 0.7794 0.7243
H18 H 0.3883 0.6439 0.7344
C18 C 0.1940(3) 0.6049(2) 0.77440(12)
C19 C 0.0426(3) 0.6705(2) 0.80144(14)
H19 H -0.0121 0.7658 0.7844
C20 C -0.0262(3) 0.5920(3) 0.85412(14)
H20 H -0.1277 0.6338 0.8736
C21 C 0.0571(3) 0.4517(2) 0.87735(14)
H21 H 0.0134 0.3969 0.9133
C22 C 0.2073(3) 0.3927(2) 0.84649(13)
C23 C 0.3030(3) 0.2385(2) 0.86931(14)
H22 H 0.2415 0.1922 0.8530
H23 H 0.3981 0.2150 0.8359
C24 C 0.4511(3) 0.2161(3) 1.00734(18)
H24 H 0.5097 0.2663 0.9836
C25 C 0.4527(3) 0.1549(3) 1.0919(2)
H25 H 0.5153 0.1552 1.1369
C26 C 0.2904(3) 0.1165(3) 1.02357(18)
H26 H 0.2160 0.0851 1.0108
O1 O 0.0379(2) 0.96632(18) 0.32922(12)
H27 H 0.121(2) 0.981(3) 0.3087(17)
H28 H 0.063(3) 0.898(2) 0.3738(13)
O2 O 0.8566(3) 0.0127(2) 0.17209(14)
H29 H 0.919(3) -0.002(3) 0.2159(13)
H30 H 0.862(4) 0.075(3) 0.1284(13)
O3 O 0.3079(3) 0.9681(3) 0.26694(13)
H31 H 0.315(4) 1.009(4) 0.2137(10)
H32 H 0.397(2) 0.921(4) 0.2962(19)
loop_
_geom_bond_atom_site_label_1
_geom_bond_atom_site_label_2
_geom_bond_site_symmetry_1
_geom_bond_site_symmetry_2
N1 C1 1_555 1_555
N2 C2 1_555 1_555
N3 C5 1_555 1_555
N4 C10 1_555 1_555
N5 C12 1_555 1_555
N6 C14 1_555 1_555
N7 C15 1_555 1_555
N8 C18 1_555 1_555
N9 C23 1_555 1_555
N10 C25 1_555 1_555
C1 H1 1_555 1_555
C2 C1 1_555 1_555
H2 C2 1_555 1_555
C3 N1 1_555 1_555
H3 C3 1_555 1_555
C4 N2 1_555 1_555
H4 C4 1_555 1_555
H5 C4 1_555 1_555
C5 C4 1_555 1_555
C6 C5 1_555 1_555
H6 C6 1_555 1_555
C7 C6 1_555 1_555
H7 C7 1_555 1_555
C8 C7 1_555 1_555
H8 C8 1_555 1_555
C9 N3 1_555 1_555
C10 C9 1_555 1_555
H9 C10 1_555 1_555
H10 C10 1_555 1_555
C11 N4 1_555 1_555
H11 C11 1_555 1_555
C12 C11 1_555 1_555
H12 C12 1_555 1_555
C13 N4 1_555 1_555
H13 C13 1_555 1_555
C14 H14 1_555 1_555
C15 C14 1_555 1_555
H15 C15 1_555 1_555
C16 N6 1_555 1_555
H16 C16 1_555 1_555
C17 N7 1_555 1_555
H17 C17 1_555 1_555
H18 C17 1_555 1_555
C18 C17 1_555 1_555
C19 C18 1_555 1_555
H19 C19 1_555 1_555
C20 C19 1_555 1_555
H20 C20 1_555 1_555
C21 C20 1_555 1_555
H21 C21 1_555 1_555
C22 N8 1_555 1_555
C23 C22 1_555 1_555
H22 C23 1_555 1_555
H23 C23 1_555 1_555
C24 N9 1_555 1_555
H24 C24 1_555 1_555
C25 C24 1_555 1_555
H25 C25 1_555 1_555
C26 N9 1_555 1_555
H26 C26 1_555 1_555
O1 H27 1_555 1_555
H28 O1 1_555 1_555
O2 H29 1_555 1_555
H30 O2 1_555 1_555
O3 H31 1_555 1_555
H32 O3 1_555 1_555
N2 C3 1_555 1_555
N5 C13 1_555 1_555
N7 C16 1_555 1_555
N10 C26 1_555 1_555
C8 C9 1_555 1_555
C21 C22 1_555 1_555

#END
