
#######################################################################
#
#                 Cambridge Crystallographic Data Centre
#                                CCDC 
#
#######################################################################
#
# If this CIF has been generated from an entry in the Cambridge 
# Structural Database, then it will include bibliographic, chemical, 
# crystal, experimental, refinement or atomic coordinate data resulting 
# from the CCDC's data processing and validation procedures.
#
#######################################################################

data_DAYREA
_chemical_formula_moiety         '0.85(C4 H8 N2 O3),0.15(C4 H7 N1 O4),H2 O1'
_chemical_name_systematic        'L-Asparagine L-aspartic acid monohydrate'
_symmetry_cell_setting           orthorhombic
_symmetry_space_group_name_H-M   'P 21 21 21'
_symmetry_Int_Tables_number      19
_space_group_name_Hall           'P 2ac 2ab'
loop_
_symmetry_equiv_pos_site_id
_symmetry_equiv_pos_as_xyz
1 x,y,z
2 1/2+x,1/2-y,-z
3 -x,1/2+y,1/2-z
4 1/2-x,-y,1/2+z
_cell_length_a                   5.565(1)
_cell_length_b                   9.774(2)
_cell_length_c                   11.698(3)
_cell_angle_alpha                90
_cell_angle_beta                 90
_cell_angle_gamma                90
_cell_volume                     636.281
_cell_formula_units_Z            4
loop_
_atom_site_label
_atom_site_type_symbol
_atom_site_fract_x
_atom_site_fract_y
_atom_site_fract_z
C1 C -0.1212(1) -0.0556(1) 0.0338(1)
C2 C -0.3038(1) -0.0254(1) 0.1287(1)
C3 C -0.2059(1) 0.0593(1) 0.2269(1)
C4 C 0.0211(1) 0.0005(1) 0.2789(1)
N1 N -0.412(11) -0.1554(1) 0.1710(1)
N2 N 0.1097(2) 0.0657(1) 0.3697(1)
O2 O -0.0017(1) 0.0460(1) -0.0020(1)
O3 O -0.1144(1) -0.1737(1) -0.0057(1)
O4 O 0.1166(2) -0.1033(1) 0.2374(1)
H3 H -0.3169(22) -0.1954(16) 0.2230(11)
H4 H -0.4415(24) -0.2171(14) 0.1051(10)
H5 H -0.5551(17) -0.1375(17) 0.2002(13)
H6 H 0.2388(2) 0.0287(1) 0.4092(1)
H7 H 0.0320(2) 0.1392(1) 0.4022(1)
H8 H -0.4288(22) 0.0231(14) 0.0920(12)
H9 H -0.1713(25) 0.1547(9) 0.1908(12)
H10 H -0.3287(20) 0.0565(15) 0.2855(10)
O1 O 0.3000(1) 0.2287(1) 0.1145(1)
H1 H 0.2076(25) 0.1772(17) 0.0808(12)
H2 H 0.3363(27) 0.2943(16) 0.0703(13)
loop_
_geom_bond_atom_site_label_1
_geom_bond_atom_site_label_2
_geom_bond_site_symmetry_1
_geom_bond_site_symmetry_2
O1 H1 1_555 1_555
H2 O1 1_555 1_555
C1 C2 1_555 1_555
C2 C3 1_555 1_555
C3 C4 1_555 1_555
C4 N2 1_555 1_555
N1 C2 1_555 1_555
N2 H6 1_555 1_555
O2 C1 1_555 1_555
O3 C1 1_555 1_555
O4 C4 1_555 1_555
H3 N1 1_555 1_555
H4 N1 1_555 1_555
H5 N1 1_555 1_555
H7 N2 1_555 1_555
H8 C2 1_555 1_555
H9 C3 1_555 1_555
H10 C3 1_555 1_555

#END
