
#######################################################################
#
#                 Cambridge Crystallographic Data Centre
#                                CCDC 
#
#######################################################################
#
# If this CIF has been generated from an entry in the Cambridge 
# Structural Database, then it will include bibliographic, chemical, 
# crystal, experimental, refinement or atomic coordinate data resulting 
# from the CCDC's data processing and validation procedures.
#
#######################################################################

data_DAYSOO
_chemical_formula_moiety         'C15 H18 N2 O3'
_chemical_name_systematic        
3'-(2-hydroxyethyl)-1-methyl-2'H-spiro[indole-3,4'-piperidine]-2,2'(1H)-dione
_symmetry_cell_setting           triclinic
_symmetry_space_group_name_H-M   'P -1'
_symmetry_Int_Tables_number      2
_space_group_name_Hall           '-P 1'
loop_
_symmetry_equiv_pos_site_id
_symmetry_equiv_pos_as_xyz
1 x,y,z
2 -x,-y,-z
_cell_length_a                   7.8109(7)
_cell_length_b                   8.1431(9)
_cell_length_c                   12.2697(13)
_cell_angle_alpha                102.257(9)
_cell_angle_beta                 99.744(8)
_cell_angle_gamma                111.689(9)
_cell_volume                     681.756
_exptl_crystal_colour            colorless
_exptl_crystal_description       block
_cell_formula_units_Z            2
loop_
_atom_site_label
_atom_site_type_symbol
_atom_site_fract_x
_atom_site_fract_y
_atom_site_fract_z
O1 O 0.5786(2) 0.4297(2) 0.37945(13)
O2 O 0.37030(18) 0.18324(19) 0.02982(13)
O3 O 0.91051(17) 0.16533(18) 0.05853(14)
H1 H 0.8431 0.0535 0.0371
N1 N 0.8778(2) 0.6696(2) 0.44456(13)
N2 N 0.3091(2) 0.4031(2) 0.13559(15)
H2 H 0.1892 0.3374 0.1017
C1 C 1.0024(3) 0.7869(2) 0.39563(16)
C2 C 1.1918(3) 0.9091(3) 0.4451(2)
H3 H 1.2538 0.9246 0.5208
C3 C 1.2867(3) 1.0083(3) 0.3782(2)
H4 H 1.4136 1.0940 0.4100
C4 C 1.1961(3) 0.9820(3) 0.2653(2)
H5 H 1.2629 1.0482 0.2213
C5 C 1.0054(3) 0.8572(3) 0.21675(18)
H6 H 0.9440 0.8399 0.1406
C6 C 0.9083(2) 0.7594(2) 0.28236(15)
C7 C 0.7049(2) 0.6194(2) 0.25511(15)
C8 C 0.7059(3) 0.5570(3) 0.36458(17)
C9 C 0.9240(4) 0.6653(3) 0.56347(17)
H7 H 1.0405 0.6493 0.5801
H8 H 0.8218 0.5641 0.5735
H9 H 0.9404 0.7797 0.6153
C10 C 0.5630(3) 0.7104(3) 0.24212(18)
H10 H 0.6003 0.8138 0.3109
H11 H 0.5700 0.7584 0.1763
C11 C 0.3603(3) 0.5760(3) 0.22503(19)
H12 H 0.3459 0.5503 0.2974
H13 H 0.2740 0.6310 0.2031
C12 C 0.4298(2) 0.3376(3) 0.10153(16)
C13 C 0.6448(2) 0.4575(2) 0.14503(15)
H14 H 0.6793 0.5137 0.0842
C14 C 0.7567(3) 0.3382(3) 0.15503(16)
H15 H 0.8784 0.4125 0.2132
H16 H 0.6852 0.2360 0.1814
C15 C 0.7935(3) 0.2618(3) 0.04352(18)
H17 H 0.6723 0.1782 -0.0129
H18 H 0.8559 0.3626 0.0135
loop_
_geom_bond_atom_site_label_1
_geom_bond_atom_site_label_2
_geom_bond_site_symmetry_1
_geom_bond_site_symmetry_2
O1 C8 1_555 1_555
O2 C12 1_555 1_555
O3 H1 1_555 1_555
N1 C1 1_555 1_555
N2 H2 1_555 1_555
C1 C2 1_555 1_555
C2 H3 1_555 1_555
C3 C2 1_555 1_555
H4 C3 1_555 1_555
C4 C3 1_555 1_555
H5 C4 1_555 1_555
C5 C4 1_555 1_555
H6 C5 1_555 1_555
C6 C1 1_555 1_555
C7 C6 1_555 1_555
C8 N1 1_555 1_555
C9 N1 1_555 1_555
H7 C9 1_555 1_555
H8 C9 1_555 1_555
H9 C9 1_555 1_555
C10 C7 1_555 1_555
H10 C10 1_555 1_555
H11 C10 1_555 1_555
C11 N2 1_555 1_555
H12 C11 1_555 1_555
H13 C11 1_555 1_555
C12 N2 1_555 1_555
C13 C7 1_555 1_555
H14 C13 1_555 1_555
C14 C13 1_555 1_555
H15 C14 1_555 1_555
H16 C14 1_555 1_555
C15 O3 1_555 1_555
H17 C15 1_555 1_555
H18 C15 1_555 1_555
C5 C6 1_555 1_555
C7 C8 1_555 1_555
C10 C11 1_555 1_555
C12 C13 1_555 1_555
C14 C15 1_555 1_555

#END
