
#######################################################################
#
#                 Cambridge Crystallographic Data Centre
#                                CCDC 
#
#######################################################################
#
# If this CIF has been generated from an entry in the Cambridge 
# Structural Database, then it will include bibliographic, chemical, 
# crystal, experimental, refinement or atomic coordinate data resulting 
# from the CCDC's data processing and validation procedures.
#
#######################################################################

data_DAYTUV
_chemical_formula_moiety         'C15 H22 N2 O3 Si1'
_chemical_name_systematic        
N,N,1-trimethyl-2-oxo-3-[(trimethylsilyl)oxy]-2,3-dihydro-1H-indole-3-carboxamide
_symmetry_cell_setting           orthorhombic
_symmetry_space_group_name_H-M   'P 21 21 21'
_symmetry_Int_Tables_number      19
_space_group_name_Hall           'P 2ac 2ab'
loop_
_symmetry_equiv_pos_site_id
_symmetry_equiv_pos_as_xyz
1 x,y,z
2 1/2-x,-y,1/2+z
3 1/2+x,1/2-y,-z
4 -x,1/2+y,1/2-z
_cell_length_a                   9.8509(4)
_cell_length_b                   12.1273(6)
_cell_length_c                   14.1127(6)
_cell_angle_alpha                90
_cell_angle_beta                 90
_cell_angle_gamma                90
_cell_volume                     1685.97
_exptl_crystal_colour            colorless
_exptl_crystal_description       block
_cell_formula_units_Z            4
loop_
_atom_site_label
_atom_site_type_symbol
_atom_site_fract_x
_atom_site_fract_y
_atom_site_fract_z
Si1 Si 0.50258(7) 0.81820(6) 0.24751(5)
O1 O 0.40957(15) 0.72986(13) 0.31049(12)
O2 O 0.09759(17) 0.85351(14) 0.37187(14)
O3 O 0.1955(2) 0.79478(15) 0.17425(13)
N1 N 0.1035(2) 0.63636(15) 0.23633(15)
C1 C 0.2700(2) 0.72510(18) 0.32984(16)
N2 N 0.2822(2) 0.85913(18) 0.46570(16)
C2 C 0.2269(2) 0.61476(17) 0.37266(17)
C3 C 0.2120(2) 0.81980(19) 0.39214(16)
C4 C 0.2668(3) 0.5607(2) 0.4544(2)
H1 H 0.3352 0.5894 0.4926
C5 C 0.1851(2) 0.7267(2) 0.23638(17)
C6 C 0.1261(2) 0.56963(19) 0.31585(17)
C7 C 0.0613(3) 0.4723(2) 0.3374(2)
H2 H -0.0053 0.4429 0.2982
C8 C 0.1002(3) 0.4202(2) 0.4204(2)
H3 H 0.0569 0.3552 0.4379
C9 C 0.6744(3) 0.7978(3) 0.2999(3)
H4 H 0.6738 0.8213 0.3648
H5 H 0.7396 0.8405 0.2651
H6 H 0.6984 0.7212 0.2967
C10 C 0.4115(3) 0.8181(3) 0.50249(18)
H7 H 0.4387 0.7542 0.4672
H8 H 0.4012 0.7988 0.5681
H9 H 0.4794 0.8745 0.4964
C11 C 0.0058(3) 0.6125(3) 0.1615(2)
H10 H -0.0844 0.6273 0.1841
H11 H 0.0128 0.5364 0.1436
H12 H 0.0245 0.6583 0.1075
C12 C 0.2019(3) 0.4622(2) 0.4781(2)
H13 H 0.2269 0.4245 0.5328
C13 C 0.5064(4) 0.7793(3) 0.1203(2)
H14 H 0.5355 0.7041 0.1142
H15 H 0.5684 0.8266 0.0871
H16 H 0.4171 0.7872 0.0938
C14 C 0.4403(4) 0.9623(2) 0.2638(3)
H17 H 0.3459 0.9660 0.2473
H18 H 0.4911 1.0111 0.2236
H19 H 0.4519 0.9838 0.3287
C15 C 0.2242(4) 0.9515(3) 0.5183(3)
H20 H 0.1947 1.0074 0.4747
H21 H 0.2916 0.9818 0.5600
H22 H 0.1481 0.9263 0.5548
loop_
_geom_bond_atom_site_label_1
_geom_bond_atom_site_label_2
_geom_bond_site_symmetry_1
_geom_bond_site_symmetry_2
Si1 O1 1_555 1_555
O1 C1 1_555 1_555
O2 C3 1_555 1_555
O3 C5 1_555 1_555
N1 C5 1_555 1_555
C1 C2 1_555 1_555
N2 C3 1_555 1_555
C2 C4 1_555 1_555
C3 C1 1_555 1_555
C4 H1 1_555 1_555
C5 C1 1_555 1_555
C6 N1 1_555 1_555
C7 C6 1_555 1_555
H2 C7 1_555 1_555
C8 C7 1_555 1_555
H3 C8 1_555 1_555
C9 Si1 1_555 1_555
H4 C9 1_555 1_555
H5 C9 1_555 1_555
H6 C9 1_555 1_555
C10 N2 1_555 1_555
H7 C10 1_555 1_555
H8 C10 1_555 1_555
H9 C10 1_555 1_555
C11 N1 1_555 1_555
H10 C11 1_555 1_555
H11 C11 1_555 1_555
H12 C11 1_555 1_555
C12 C4 1_555 1_555
H13 C12 1_555 1_555
C13 Si1 1_555 1_555
H14 C13 1_555 1_555
H15 C13 1_555 1_555
H16 C13 1_555 1_555
C14 Si1 1_555 1_555
H17 C14 1_555 1_555
H18 C14 1_555 1_555
H19 C14 1_555 1_555
C15 N2 1_555 1_555
H20 C15 1_555 1_555
H21 C15 1_555 1_555
H22 C15 1_555 1_555
C2 C6 1_555 1_555
C8 C12 1_555 1_555

#END
