
#######################################################################
#
#                 Cambridge Crystallographic Data Centre
#                                CCDC 
#
#######################################################################
#
# If this CIF has been generated from an entry in the Cambridge 
# Structural Database, then it will include bibliographic, chemical, 
# crystal, experimental, refinement or atomic coordinate data resulting 
# from the CCDC's data processing and validation procedures.
#
#######################################################################

data_DAYVUV
_chemical_formula_moiety         'C7 H7 N2 1+,C9 H7 O5 1-'
_chemical_name_systematic        'Benzimidazolium 3-carboxyphenoxyacetate'
_symmetry_cell_setting           triclinic
_symmetry_space_group_name_H-M   'P -1'
_symmetry_Int_Tables_number      2
_space_group_name_Hall           '-P 1'
loop_
_symmetry_equiv_pos_site_id
_symmetry_equiv_pos_as_xyz
1 x,y,z
2 -x,-y,-z
_cell_length_a                   7.2371(14)
_cell_length_b                   9.5895(19)
_cell_length_c                   11.633(2)
_cell_angle_alpha                75.80(3)
_cell_angle_beta                 75.50(3)
_cell_angle_gamma                72.69(3)
_cell_volume                     733.364
_exptl_crystal_colour            colorless
_exptl_crystal_description       prism
_cell_formula_units_Z            2
loop_
_atom_site_label
_atom_site_type_symbol
_atom_site_fract_x
_atom_site_fract_y
_atom_site_fract_z
O1 O 0.2963(3) 0.38926(14) 0.51727(12)
O2 O 0.1953(2) 0.63741(13) 0.48381(10)
O3 O 0.14871(19) 0.64278(13) 0.71980(10)
O4 O -0.0099(2) 0.82520(17) 1.23694(13)
O5 O 0.2097(2) 0.60423(16) 1.26497(11)
H1 H 0.195(4) 0.618(3) 1.3374(12)
C1 C 0.2468(3) 0.51070(18) 0.55053(15)
C2 C 0.2614(3) 0.50543(18) 0.68079(15)
H4 H 0.2122 0.4236 0.7337
H5 H 0.3984 0.4885 0.6858
C3 C 0.1412(2) 0.64986(18) 0.83817(14)
C4 C 0.0177(3) 0.77946(19) 0.87702(15)
H6 H -0.0554 0.8521 0.8250
C5 C 0.0045(3) 0.79938(19) 0.99355(15)
H7 H -0.0767 0.8861 1.0187
C6 C 0.1127(3) 0.68975(19) 1.07417(14)
C7 C 0.2314(3) 0.56003(19) 1.03527(15)
H8 H 0.3013 0.4860 1.0881
C8 C 0.2474(3) 0.53929(19) 0.91786(15)
H9 H 0.3282 0.4524 0.8928
C9 C 0.0966(3) 0.7146(2) 1.19957(15)
N1 N 0.2432(2) 0.12506(16) 0.50422(14)
H2 H 0.223(3) 0.2084(16) 0.5327(19)
N2 N 0.2477(2) -0.09988(16) 0.49387(13)
H3 H 0.230(3) -0.1919(14) 0.5099(19)
C10 C 0.1977(3) -0.0007(2) 0.56533(17)
H10 H 0.1391 -0.0168 0.6466
C11 C 0.3334(2) -0.03681(18) 0.37898(16)
C12 C 0.4172(3) -0.0944(2) 0.27285(18)
H11 H 0.4198 -0.1904 0.2682
C13 C 0.4960(3) 0.0004(3) 0.17501(19)
H12 H 0.5539 -0.0334 0.1027
C14 C 0.4911(3) 0.1465(3) 0.1818(2)
H13 H 0.5454 0.2062 0.1138
C15 C 0.4082(3) 0.2029(2) 0.2861(2)
H14 H 0.4043 0.2994 0.2901
C16 C 0.3301(3) 0.10790(18) 0.38575(17)
loop_
_geom_bond_atom_site_label_1
_geom_bond_atom_site_label_2
_geom_bond_site_symmetry_1
_geom_bond_site_symmetry_2
O1 C1 1_555 1_555
O2 C1 1_555 1_555
O3 C2 1_555 1_555
O4 C9 1_555 1_555
O5 H1 1_555 1_555
N1 H2 1_555 1_555
N2 H3 1_555 1_555
C1 C2 1_555 1_555
C2 H4 1_555 1_555
H5 C2 1_555 1_555
C3 O3 1_555 1_555
C4 C3 1_555 1_555
H6 C4 1_555 1_555
C5 C4 1_555 1_555
H7 C5 1_555 1_555
C6 C5 1_555 1_555
C7 C6 1_555 1_555
H8 C7 1_555 1_555
C8 C3 1_555 1_555
H9 C8 1_555 1_555
C9 O5 1_555 1_555
C10 N1 1_555 1_555
H10 C10 1_555 1_555
C11 N2 1_555 1_555
C12 C11 1_555 1_555
H11 C12 1_555 1_555
C13 C12 1_555 1_555
H12 C13 1_555 1_555
C14 C13 1_555 1_555
H13 C14 1_555 1_555
C15 C14 1_555 1_555
H14 C15 1_555 1_555
C16 N1 1_555 1_555
N2 C10 1_555 1_555
C6 C9 1_555 1_555
C7 C8 1_555 1_555
C11 C16 1_555 1_555
C15 C16 1_555 1_555

#END
