
#######################################################################
#
#                 Cambridge Crystallographic Data Centre
#                                CCDC 
#
#######################################################################
#
# If this CIF has been generated from an entry in the Cambridge 
# Structural Database, then it will include bibliographic, chemical, 
# crystal, experimental, refinement or atomic coordinate data resulting 
# from the CCDC's data processing and validation procedures.
#
#######################################################################

data_DAYWOR
_chemical_formula_moiety         'C43 H44 O10,1.5(C1 H2 Cl2)'
_chemical_name_systematic        
'9,14,19,24,26,28,30,32-Octamethoxyhexacyclo[21.2.2.2^3,6^.2^8,11^.2^13,16^.2^18,21^]pentatriaconta-1(25),3(35),5,8,10,13,15,18,20,23,26,28,30,32-tetradecaene-4,34-dione dichloromethane solvate'
_symmetry_cell_setting           monoclinic
_symmetry_space_group_name_H-M   'P 21/c'
_symmetry_Int_Tables_number      14
_space_group_name_Hall           '-P 2ybc'
loop_
_symmetry_equiv_pos_site_id
_symmetry_equiv_pos_as_xyz
1 x,y,z
2 -x,1/2+y,1/2-z
3 -x,-y,-z
4 x,1/2-y,1/2+z
_cell_length_a                   36.5565(4)
_cell_length_b                   20.67542(18)
_cell_length_c                   22.5397(2)
_cell_angle_alpha                90
_cell_angle_beta                 92.9319(9)
_cell_angle_gamma                90
_cell_volume                     17013.7
_exptl_crystal_colour            yellow
_exptl_crystal_description       block
_cell_formula_units_Z            16
loop_
_atom_site_label
_atom_site_type_symbol
_atom_site_fract_x
_atom_site_fract_y
_atom_site_fract_z
O1 O 0.88229(5) 0.75272(9) -0.08045(9)
O2 O 0.98665(6) 0.77191(9) 0.07968(9)
O3 O 0.94718(5) 0.99034(8) -0.03376(9)
O4 O 0.81530(6) 0.97860(9) -0.07600(9)
O5 O 0.96483(7) 1.00713(10) 0.18913(10)
O6 O 0.76220(6) 0.75200(9) 0.01751(11)
C1 C 0.89964(7) 0.81048(12) -0.06829(11)
C2 C 0.98194(7) 0.88503(13) 0.07343(11)
C3 C 0.80077(7) 0.92275(12) -0.05359(12)
C4 C 0.94970(7) 0.87608(12) -0.02675(11)
C5 C 0.97637(7) 0.94446(13) 0.10041(12)
H1 H 0.9766 0.9827 0.0770
C6 C 0.88129(7) 0.86599(12) -0.08916(11)
C7 C 0.89733(7) 0.92597(12) -0.07794(11)
H2 H 0.8852 0.9640 -0.0920
O7 O 0.79039(7) 0.76992(13) 0.24011(10)
C8 C 0.93084(7) 0.93127(12) -0.04649(11)
C9 C 0.98648(7) 0.88120(13) 0.00747(12)
H3 H 1.0016 0.8430 -0.0014
H4 H 0.9995 0.9203 -0.0057
C10 C 0.80075(7) 0.80720(13) -0.05109(13)
H5 H 0.8095 0.7668 -0.0648
C11 C 0.98197(7) 0.82951(13) 0.10887(12)
C12 C 0.76107(8) 0.81933(15) 0.15177(14)
H6 H 0.7557 0.7779 0.1352
C13 C 0.81421(7) 0.86432(12) -0.07466(12)
C14 C 0.76041(8) 0.86612(13) 0.01102(14)
C15 C 0.77500(7) 0.80807(13) -0.00821(14)
C16 C 0.93354(7) 0.81602(12) -0.03812(11)
H7 H 0.9460 0.7780 -0.0249
C17 C 0.97053(8) 0.94938(14) 0.16053(13)
C18 C 0.97116(8) 0.89410(14) 0.19606(12)
C19 C 0.84346(7) 0.86249(13) -0.11994(12)
H8 H 0.8400 0.8994 -0.1477
H9 H 0.8411 0.8220 -0.1433
C20 C 0.77349(8) 0.92313(13) -0.01274(13)
H10 H 0.7636 0.9633 -0.0008
C21 C 0.75086(8) 0.87394(14) 0.11958(15)
C22 C 0.81035(9) 1.03595(13) -0.04232(14)
H11 H 0.8259 1.0704 -0.0571
H12 H 0.8172 1.0276 -0.0004
H13 H 0.7846 1.0493 -0.0463
O8 O 0.74817(8) 0.98725(11) 0.11123(15)
C23 C 0.92428(9) 0.90066(18) 0.27215(13)
C24 C 0.90059(10) 0.69523(13) -0.06094(15)
H14 H 0.9240 0.6917 -0.0801
H15 H 0.8853 0.6576 -0.0716
H16 H 0.9051 0.6967 -0.0177
C25 C 0.97713(8) 0.83435(14) 0.16956(12)
H17 H 0.9779 0.7964 0.1933
O9 O 0.92296(8) 0.78604(15) 0.27500(15)
C26 C 0.92349(8) 1.04486(13) -0.03277(14)
H18 H 0.9136 1.0539 -0.0731
H19 H 0.9373 1.0825 -0.0175
H20 H 0.9033 1.0357 -0.0070
C27 C 0.95638(14) 1.06127(18) 0.15266(19)
H21 H 0.9359 1.0506 0.1246
H22 H 0.9778 1.0730 0.1306
H23 H 0.9495 1.0978 0.1775
C28 C 0.96469(9) 0.89939(17) 0.26194(13)
H24 H 0.9762 0.8621 0.2832
H25 H 0.9763 0.9394 0.2781
C29 C 0.90567(10) 0.83635(19) 0.27821(14)
C30 C 0.75861(9) 0.93426(15) 0.14518(18)
C31 C 0.73246(8) 0.86870(14) 0.05815(15)
H26 H 0.7162 0.9064 0.0508
H27 H 0.7172 0.8292 0.0558
C32 C 0.78553(10) 0.8832(2) 0.23350(17)
C33 C 0.98183(10) 0.71403(14) 0.11247(15)
H28 H 0.9831 0.6767 0.0858
H29 H 0.9579 0.7149 0.1301
H30 H 1.0012 0.7106 0.1440
C34 C 0.77879(9) 0.82319(17) 0.20717(15)
C35 C 0.79553(10) 0.71172(18) 0.20813(16)
H31 H 0.8084 0.7212 0.1721
H32 H 0.7716 0.6924 0.1972
H33 H 0.8101 0.6814 0.2330
C36 C 0.90415(10) 0.95296(19) 0.27493(17)
H34 H 0.9161 0.9937 0.2729
C37 C 0.77533(10) 0.93813(19) 0.20189(19)
H35 H 0.7798 0.9794 0.2193
O10 O 0.84676(9) 1.00214(16) 0.2814(2)
C38 C 0.84628(11) 0.8887(2) 0.28856(15)
C39 C 0.86640(11) 0.8356(2) 0.28742(15)
H36 H 0.8548 0.7950 0.2928
C40 C 0.78589(11) 0.69868(15) 0.0199(2)
H37 H 0.7875 0.6804 -0.0200
H38 H 0.7765 0.6658 0.0465
H39 H 0.8103 0.7125 0.0349
C41 C 0.80539(11) 0.8885(3) 0.29416(18)
H40 H 0.7979 0.9289 0.3138
H41 H 0.7985 0.8517 0.3192
C42 C 0.86441(11) 0.9525(2) 0.28093(19)
C43 C 0.76709(13) 1.04636(17) 0.1241(3)
H42 H 0.7608 1.0780 0.0928
H43 H 0.7936 1.0385 0.1258
H44 H 0.7599 1.0632 0.1624
Cl1 Cl 0.49148(3) 0.98536(5) 0.16705(6)
Cl2 Cl 0.53764(3) 0.89023(5) 0.22535(4)
C80 C 0.53136(10) 0.93857(16) 0.16200(14)
H69 H 0.5292 0.9109 0.1262
H70 H 0.5528 0.9673 0.1584
O11 O 0.61052(6) 1.00038(9) 0.58171(9)
O12 O 0.53742(6) 1.25222(10) 0.30498(9)
O13 O 0.51432(6) 1.01206(9) 0.40410(9)
O14 O 0.75835(6) 1.24598(9) 0.41727(9)
O15 O 0.54017(6) 1.23091(9) 0.52544(10)
O16 O 0.67533(6) 1.23219(9) 0.59440(9)
C44 C 0.60795(7) 1.11417(13) 0.58987(11)
O17 O 0.73430(6) 1.00917(9) 0.50231(10)
C45 C 0.51662(7) 1.12481(12) 0.41351(12)
O18 O 0.66151(6) 1.26144(10) 0.24325(10)
C46 C 0.71979(8) 1.06415(13) 0.52722(12)
C47 C 0.67612(8) 1.11843(13) 0.58744(11)
C48 C 0.55987(7) 1.05881(12) 0.53229(11)
H45 H 0.5493 1.0195 0.5179
C49 C 0.51999(7) 1.07079(12) 0.37722(12)
C50 C 0.54239(7) 1.11704(12) 0.51822(11)
C51 C 0.72126(8) 1.17948(13) 0.53631(12)
H46 H 0.7320 1.2200 0.5276
C52 C 0.52264(7) 1.18568(13) 0.38956(12)
H47 H 0.5206 1.2229 0.4138
O19 O 0.71603(6) 1.03280(10) 0.28273(9)
C53 C 0.74754(7) 1.19443(13) 0.38211(12)
C54 C 0.69076(8) 1.06207(13) 0.56453(12)
H48 H 0.6807 1.0214 0.5746
C55 C 0.59232(7) 1.05688(12) 0.56688(11)
C56 C 0.69126(8) 1.17770(13) 0.57171(11)
C57 C 0.72310(7) 1.14607(14) 0.29061(12)
C58 C 0.74170(7) 1.07954(13) 0.37482(13)
H49 H 0.7447 1.0378 0.3919
C59 C 0.50782(7) 1.11784(13) 0.47801(12)
H50 H 0.4941 1.0772 0.4833
H51 H 0.4921 1.1543 0.4894
C60 C 0.75204(7) 1.13366(13) 0.40802(12)
C61 C 0.55822(7) 1.17409(12) 0.54025(12)
C62 C 0.52853(7) 1.07802(13) 0.31812(12)
H52 H 0.5303 1.0408 0.2937
C63 C 0.53158(7) 1.19288(13) 0.33098(13)
C64 C 0.53444(7) 1.13911(14) 0.29438(12)
C65 C 0.76704(7) 1.12670(13) 0.47142(13)
H53 H 0.7829 1.1642 0.4821
H54 H 0.7821 1.0870 0.4753
C66 C 0.73588(7) 1.12303(13) 0.51340(12)
C67 C 0.73324(7) 1.20058(14) 0.32373(12)
H55 H 0.7304 1.2423 0.3065
C68 C 0.60660(8) 1.09106(15) 0.21882(12)
C69 C 0.72698(8) 1.08540(14) 0.31701(13)
C70 C 0.64669(8) 1.09410(15) 0.21722(12)
H56 H 0.6597 1.0554 0.2099
C71 C 0.60505(8) 1.20735(15) 0.23315(13)
H57 H 0.5918 1.2466 0.2366
C72 C 0.58611(8) 1.15195(14) 0.22711(11)
C73 C 0.66566(8) 1.14883(14) 0.22558(11)
C74 C 0.59037(8) 1.17213(13) 0.57608(12)
H58 H 0.6005 1.2114 0.5914
C75 C 0.64528(8) 1.21013(14) 0.23475(12)
C76 C 0.59394(10) 0.94123(14) 0.56197(16)
H59 H 0.5921 0.9404 0.5184
H60 H 0.5694 0.9379 0.5772
H61 H 0.6089 0.9047 0.5767
C77 C 0.70678(8) 1.15234(16) 0.22750(12)
H62 H 0.7144 1.1941 0.2106
H63 H 0.7164 1.1172 0.2028
C78 C 0.64384(8) 1.11412(14) 0.62668(12)
H64 H 0.6444 1.1513 0.6544
H65 H 0.6457 1.0740 0.6506
C79 C 0.68650(11) 1.29273(14) 0.57184(15)
H66 H 0.6829 1.2928 0.5284
H67 H 0.7125 1.2998 0.5830
H68 H 0.6718 1.3273 0.5885
C81 C 0.71082(10) 0.97345(16) 0.31294(16)
H71 H 0.6996 0.9418 0.2852
H72 H 0.6947 0.9805 0.3458
H73 H 0.7345 0.9571 0.3287
C82 C 0.54497(8) 1.14727(16) 0.23047(13)
H74 H 0.5358 1.1099 0.2066
H75 H 0.5334 1.1869 0.2135
C170 C 0.52127(11) 0.95515(14) 0.37146(15)
H166 H 0.5040 0.9526 0.3368
H167 H 0.5183 0.9172 0.3968
H168 H 0.5464 0.9563 0.3582
O40 O 0.59062(7) 1.03921(12) 0.21290(12)
C171 C 0.56083(10) 1.28869(15) 0.5296(2)
H169 H 0.5474 1.3233 0.5083
H170 H 0.5845 1.2820 0.5119
H171 H 0.5649 1.3008 0.5714
C172 C 0.74755(11) 1.30808(15) 0.39859(17)
H172 H 0.7606 1.3200 0.3633
H173 H 0.7534 1.3392 0.4305
H174 H 0.7211 1.3084 0.3889
C173 C 0.71070(11) 0.95507(16) 0.49612(19)
H175 H 0.7217 0.9225 0.4710
H176 H 0.6871 0.9687 0.4777
H177 H 0.7069 0.9365 0.5354
C174 C 0.54069(12) 1.30633(16) 0.34400(17)
H178 H 0.5466 1.3450 0.3213
H179 H 0.5602 1.2982 0.3745
H180 H 0.5175 1.3130 0.3630
O20 O 1.04802(5) 1.07360(9) 0.35228(8)
O21 O 1.13915(5) 1.03864(10) 0.55335(8)
O22 O 1.11215(5) 0.71672(9) 0.26042(9)
O23 O 1.19331(5) 1.07616(9) 0.35164(9)
O24 O 1.06991(6) 0.67984(10) 0.45342(10)
O25 O 1.14973(6) 0.81446(9) 0.62125(9)
O26 O 1.09964(5) 0.95440(10) 0.18625(8)
O27 O 1.23512(5) 0.87260(9) 0.25515(8)
O28 O 1.21326(6) 0.70032(11) 0.43724(10)
C83 C 1.15942(7) 0.96955(12) 0.22837(11)
O29 O 1.02376(5) 0.90248(9) 0.50078(9)
C84 C 1.08083(7) 1.02786(11) 0.50468(11)
C85 C 1.06989(7) 1.06506(12) 0.40325(11)
C86 C 1.18007(8) 0.69927(12) 0.43991(12)
C87 C 1.17093(7) 1.04693(12) 0.30807(11)
C88 C 1.12929(7) 1.07741(12) 0.45147(12)
H76 H 1.1540 1.0915 0.4510
C89 C 1.14197(7) 0.75720(12) 0.25856(11)
C90 C 1.18313(7) 0.99990(12) 0.26976(11)
H77 H 1.2083 0.9882 0.2719
C91 C 1.06709(7) 0.99530(12) 0.55948(11)
H78 H 1.0781 1.0168 0.5954
H79 H 1.0402 1.0004 0.5598
C92 C 1.10613(7) 1.08680(11) 0.40130(11)
C93 C 1.10794(8) 0.90251(12) 0.59307(11)
H80 H 1.1225 0.9325 0.6158
C94 C 1.17279(7) 0.91509(13) 0.19033(11)
H81 H 1.1977 0.9252 0.1777
H82 H 1.1564 0.9107 0.1542
C95 C 1.14256(7) 0.81355(13) 0.22514(11)
H83 H 1.1212 0.8261 0.2021
C96 C 1.11713(7) 1.04797(12) 0.50221(11)
C97 C 1.13436(7) 1.06709(12) 0.30382(11)
C98 C 1.12247(7) 0.98784(12) 0.22589(11)
C99 C 1.09666(8) 0.79285(12) 0.56060(11)
C100 C 1.20493(7) 0.83296(12) 0.25850(11)
C101 C 1.07660(7) 0.92400(12) 0.56140(11)
C102 C 1.17330(7) 0.73821(12) 0.29238(11)
C103 C 1.11068(7) 1.03721(13) 0.26209(11)
H84 H 1.0859 1.0509 0.2582
C104 C 1.05751(7) 1.03710(12) 0.45463(11)
H85 H 1.0326 1.0240 0.4556
C105 C 1.20453(7) 0.77643(13) 0.29194(11)
H86 H 1.2259 0.7638 0.3148
C106 C 1.12014(8) 1.11754(12) 0.34573(12)
H87 H 1.1401 1.1483 0.3571
H88 H 1.1001 1.1422 0.3251
C107 C 1.17361(7) 0.85192(12) 0.22463(10)
C108 C 1.15594(8) 0.68370(12) 0.38637(11)
C109 C 1.10293(8) 0.68806(12) 0.44953(12)
C110 C 1.10815(9) 0.72213(13) 0.55898(12)
H89 H 1.1251 0.7126 0.5935
H90 H 1.0863 0.6942 0.5617
C111 C 1.16278(8) 0.71207(12) 0.49646(12)
H91 H 1.1779 0.7242 0.5301
C112 C 1.12000(8) 0.67796(13) 0.39268(12)
H92 H 1.1047 0.6668 0.3588
C113 C 1.12675(8) 0.70738(11) 0.50234(11)
C114 C 1.00475(8) 0.86070(15) 0.45997(14)
H93 H 0.9949 0.8239 0.4814
H94 H 1.0216 0.8450 0.4308
H95 H 0.9846 0.8844 0.4395
C115 C 1.05514(7) 0.87871(13) 0.52978(12)
C116 C 1.01329(8) 1.04294(15) 0.35004(14)
H96 H 0.9977 1.0635 0.3787
H97 H 1.0163 0.9970 0.3599
H98 H 1.0018 1.0471 0.3100
C117 C 1.06484(8) 0.81368(13) 0.53001(12)
H99 H 1.0496 0.7832 0.5091
C118 C 1.11839(8) 0.83786(13) 0.59204(11)
C119 C 1.26345(8) 0.86588(15) 0.30036(13)
H100 H 1.2528 0.8668 0.3394
H101 H 1.2809 0.9015 0.2975
H102 H 1.2761 0.8246 0.2953
C120 C 1.16802(8) 0.85687(14) 0.66258(13)
H103 H 1.1508 0.8719 0.6915
H104 H 1.1776 0.8941 0.6414
H105 H 1.1883 0.8339 0.6834
C121 C 1.17364(8) 0.67573(12) 0.32762(12)
H106 H 1.1604 0.6419 0.3040
H107 H 1.1993 0.6612 0.3350
C122 C 1.07991(8) 0.73457(17) 0.22631(15)
H108 H 1.0715 0.7770 0.2394
H109 H 1.0607 0.7024 0.2319
H110 H 1.0853 0.7366 0.1842
C123 C 1.22809(9) 1.04711(17) 0.36407(14)
H111 H 1.2405 1.0689 0.3981
H112 H 1.2430 1.0511 0.3293
H113 H 1.2248 1.0013 0.3734
C124 C 1.17699(9) 1.0356(2) 0.54757(16)
H114 H 1.1887 1.0172 0.5838
H115 H 1.1865 1.0793 0.5414
H116 H 1.1822 1.0083 0.5135
C125 C 1.06123(8) 0.96390(18) 0.19007(15)
H117 H 1.0544 0.9560 0.2309
H118 H 1.0480 0.9338 0.1631
H119 H 1.0549 1.0085 0.1788
O30 O 0.54702(5) 0.81293(9) 0.34415(8)
O31 O 0.52821(6) 0.64173(10) 0.48866(9)
O32 O 0.69339(5) 0.82269(10) 0.34011(10)
O33 O 0.59955(5) 0.68063(10) 0.19000(8)
O34 O 0.63788(6) 0.78304(11) 0.54643(9)
O35 O 0.61281(6) 0.44858(10) 0.25734(9)
O36 O 0.73281(5) 0.61149(10) 0.26457(9)
O37 O 0.65008(6) 0.56093(12) 0.62410(9)
O38 O 0.57267(7) 0.41681(11) 0.45688(12)
C126 C 0.65981(7) 0.70396(13) 0.22644(11)
C127 C 0.58004(7) 0.76915(12) 0.49719(12)
C128 C 0.64257(8) 0.48935(13) 0.25608(12)
C129 C 0.67350(7) 0.64850(14) 0.19020(11)
H120 H 0.6986 0.6581 0.1784
H121 H 0.6576 0.6437 0.1536
C130 C 0.61000(7) 0.76881(13) 0.26030(12)
H122 H 0.5847 0.7795 0.2579
C131 C 0.55826(8) 0.61954(14) 0.52218(12)
O39 O 0.71489(6) 0.44914(11) 0.43098(11)
C132 C 0.63369(7) 0.80418(12) 0.29816(12)
C133 C 0.62791(7) 0.82067(12) 0.44412(12)
H123 H 0.6524 0.8360 0.4438
C134 C 0.64321(7) 0.54535(13) 0.22232(11)
H124 H 0.6225 0.5563 0.1972
C135 C 0.56899(7) 0.80508(12) 0.39533(12)
C136 C 0.60791(8) 0.64619(15) 0.59095(12)
H125 H 0.6210 0.6771 0.6149
C137 C 0.67081(7) 0.78800(13) 0.30051(12)
C138 C 0.70370(7) 0.56878(14) 0.26218(11)
C139 C 0.67342(8) 0.47105(13) 0.29112(12)
C140 C 0.60479(7) 0.82812(12) 0.39353(12)
C141 C 0.68196(9) 0.44264(13) 0.43649(14)
C142 C 0.62227(7) 0.71843(13) 0.22601(11)
C143 C 0.61594(7) 0.79134(13) 0.49516(12)
C144 C 0.67372(7) 0.58594(13) 0.22465(10)
C145 C 0.57766(7) 0.66607(14) 0.55572(11)
C146 C 0.62988(9) 0.44901(13) 0.50178(13)
C147 C 0.56686(8) 0.73695(14) 0.55229(12)
H126 H 0.5399 0.7406 0.5524
H127 H 0.5774 0.7597 0.5878
C148 C 0.65751(9) 0.41949(12) 0.38575(13)
C149 C 0.59984(9) 0.53573(14) 0.55854(12)
C150 C 0.67381(9) 0.40861(14) 0.32658(13)
H128 H 0.6596 0.3751 0.3041
H129 H 0.6993 0.3930 0.3328
C151 C 0.68353(7) 0.73986(13) 0.26390(12)
H130 H 0.7091 0.7312 0.2644
C152 C 0.61890(8) 0.85672(13) 0.33751(13)
H131 H 0.6386 0.8882 0.3480
H132 H 0.5988 0.8801 0.3155
C153 C 0.70367(8) 0.51135(13) 0.29374(12)
H133 H 0.7248 0.4994 0.3176
C154 C 0.55683(7) 0.77646(12) 0.44659(12)
H134 H 0.5322 0.7616 0.4471
C155 C 0.72635(9) 0.79238(18) 0.35989(16)
H135 H 0.7429 0.7900 0.3271
H136 H 0.7211 0.7486 0.3738
H137 H 0.7380 0.8175 0.3925
C156 C 0.51250(9) 0.78175(17) 0.34155(15)
H138 H 0.5009 0.7867 0.3016
H139 H 0.4969 0.8013 0.3707
H140 H 0.5158 0.7357 0.3505
C157 C 0.61941(8) 0.58213(15) 0.59201(12)
C158 C 0.56912(9) 0.55534(14) 0.52400(13)
H141 H 0.5554 0.5242 0.5013
C159 C 0.66545(9) 0.45672(14) 0.49370(14)
H142 H 0.6809 0.4719 0.5260
C160 C 0.57973(9) 0.46939(18) 0.22757(15)
H143 H 0.5832 0.4722 0.1848
H144 H 0.5730 0.5120 0.2426
H145 H 0.5602 0.4383 0.2348
C161 C 0.61213(10) 0.46540(15) 0.55883(14)
H146 H 0.6298 0.4579 0.5929
H147 H 0.5907 0.4369 0.5635
C162 C 0.67582(8) 0.78563(16) 0.54095(15)
H148 H 0.6826 0.7571 0.5086
H149 H 0.6883 0.7715 0.5782
H150 H 0.6831 0.8301 0.5322
C163 C 0.62195(9) 0.41118(14) 0.39442(14)
H151 H 0.6065 0.3955 0.3624
C164 C 0.75621(8) 0.60956(16) 0.31731(13)
H152 H 0.7719 0.5712 0.3165
H153 H 0.7413 0.6077 0.3522
H154 H 0.7715 0.6485 0.3194
C165 C 0.56146(8) 0.68254(17) 0.20051(14)
H155 H 0.5486 0.6498 0.1760
H156 H 0.5517 0.7255 0.1902
H157 H 0.5579 0.6737 0.2425
C166 C 0.60557(9) 0.42515(13) 0.45124(14)
C167 C 0.51126(10) 0.59720(18) 0.44804(16)
H158 H 0.4929 0.6198 0.4225
H159 H 0.4994 0.5629 0.4700
H160 H 0.5298 0.5782 0.4235
C168 C 0.66439(10) 0.6012(2) 0.66966(16)
H161 H 0.6721 0.6424 0.6527
H162 H 0.6856 0.5801 0.6899
H163 H 0.6456 0.6092 0.6982
Cl3 Cl 0.87340(4) 0.80232(9) 0.11449(8)
Cl4 Cl 0.86462(4) 0.94463(10) 0.11325(7)
C169 C 0.86817(19) 0.8739(3) 0.0744(2)
H164 H 0.8893 0.8780 0.0489
H165 H 0.8460 0.8696 0.0476
Cl5 Cl 0.63654(5) 1.21500(12) 0.40279(8)
Cl6 Cl 0.62803(5) 1.07416(14) 0.38366(8)
C175 C 0.6371(2) 1.1362(3) 0.4324(2)
H181 H 0.6615 1.1286 0.4522
H182 H 0.6189 1.1343 0.4634
Cl7 Cl 0.97371(3) 0.65188(5) 0.26081(4)
Cl10 Cl 1.00677(4) 0.73662(7) 0.34914(7)
C177 C 0.97081(13) 0.6840(2) 0.33225(16)
H185 H 0.9473 0.7073 0.3348
H186 H 0.9713 0.6484 0.3616
Cl8 Cl 0.59986(4) 0.58860(6) 0.36461(5)
Cl9 Cl 0.66749(4) 0.62796(6) 0.42796(6)
C176 C 0.62797(13) 0.6514(2) 0.3870(3)
H183 H 0.6140 0.6815 0.4114
H184 H 0.6352 0.6754 0.3514
Cl11 Cl 1.08528(4) 0.86251(9) 0.35624(7)
Cl12 Cl 1.15319(7) 0.87691(8) 0.42576(9)
C178 C 1.12376(13) 0.9069(2) 0.3731(2)
H187 H 1.1371 0.9125 0.3363
H188 H 1.1161 0.9504 0.3860
loop_
_geom_bond_atom_site_label_1
_geom_bond_atom_site_label_2
_geom_bond_site_symmetry_1
_geom_bond_site_symmetry_2
O1 C1 1_555 1_555
O2 C11 1_555 1_555
O3 C8 1_555 1_555
O4 C3 1_555 1_555
O5 C17 1_555 1_555
O6 C15 1_555 1_555
C1 C6 1_555 1_555
C2 C5 1_555 1_555
C3 C13 1_555 1_555
C4 C8 1_555 1_555
C5 H1 1_555 1_555
C6 C7 1_555 1_555
C7 H2 1_555 1_555
O7 C34 1_555 1_555
C8 C7 1_555 1_555
C9 C2 1_555 1_555
H3 C9 1_555 1_555
H4 C9 1_555 1_555
C10 H5 1_555 1_555
C11 C2 1_555 1_555
C12 H6 1_555 1_555
C13 C10 1_555 1_555
C14 C15 1_555 1_555
C15 C10 1_555 1_555
C16 C1 1_555 1_555
H7 C16 1_555 1_555
C17 C5 1_555 1_555
C18 C17 1_555 1_555
C19 C6 1_555 1_555
H8 C19 1_555 1_555
H9 C19 1_555 1_555
C20 C3 1_555 1_555
H10 C20 1_555 1_555
C21 C12 1_555 1_555
C22 O4 1_555 1_555
H11 C22 1_555 1_555
H12 C22 1_555 1_555
H13 C22 1_555 1_555
O8 C30 1_555 1_555
C23 C28 1_555 1_555
C24 O1 1_555 1_555
H14 C24 1_555 1_555
H15 C24 1_555 1_555
H16 C24 1_555 1_555
C25 C11 1_555 1_555
H17 C25 1_555 1_555
O9 C29 1_555 1_555
C26 O3 1_555 1_555
H18 C26 1_555 1_555
H19 C26 1_555 1_555
H20 C26 1_555 1_555
C27 O5 1_555 1_555
H21 C27 1_555 1_555
H22 C27 1_555 1_555
H23 C27 1_555 1_555
C28 C18 1_555 1_555
H24 C28 1_555 1_555
H25 C28 1_555 1_555
C29 C23 1_555 1_555
C30 C21 1_555 1_555
C31 C14 1_555 1_555
H26 C31 1_555 1_555
H27 C31 1_555 1_555
C32 C34 1_555 1_555
C33 O2 1_555 1_555
H28 C33 1_555 1_555
H29 C33 1_555 1_555
H30 C33 1_555 1_555
C34 C12 1_555 1_555
C35 O7 1_555 1_555
H31 C35 1_555 1_555
H32 C35 1_555 1_555
H33 C35 1_555 1_555
C36 C23 1_555 1_555
H34 C36 1_555 1_555
C37 C30 1_555 1_555
H35 C37 1_555 1_555
O10 C42 1_555 1_555
C38 C39 1_555 1_555
C39 C29 1_555 1_555
H36 C39 1_555 1_555
C40 O6 1_555 1_555
H37 C40 1_555 1_555
H38 C40 1_555 1_555
H39 C40 1_555 1_555
C41 C32 1_555 1_555
H40 C41 1_555 1_555
H41 C41 1_555 1_555
C42 C36 1_555 1_555
C43 O8 1_555 1_555
H42 C43 1_555 1_555
H43 C43 1_555 1_555
H44 C43 1_555 1_555
Cl1 C80 1_555 1_555
Cl2 C80 1_555 1_555
O11 C55 1_555 1_555
O12 C63 1_555 1_555
O13 C49 1_555 1_555
O14 C53 1_555 1_555
O15 C61 1_555 1_555
O16 C56 1_555 1_555
C44 C55 1_555 1_555
O17 C46 1_555 1_555
C45 C49 1_555 1_555
O18 C75 1_555 1_555
C46 C54 1_555 1_555
C47 C54 1_555 1_555
C48 H45 1_555 1_555
C49 C62 1_555 1_555
C50 C48 1_555 1_555
C51 H46 1_555 1_555
C52 C45 1_555 1_555
H47 C52 1_555 1_555
O19 C69 1_555 1_555
C53 C60 1_555 1_555
C54 H48 1_555 1_555
C55 C48 1_555 1_555
C56 C47 1_555 1_555
C57 C67 1_555 1_555
C58 H49 1_555 1_555
C59 C45 1_555 1_555
H50 C59 1_555 1_555
H51 C59 1_555 1_555
C60 C58 1_555 1_555
C61 C50 1_555 1_555
C62 H52 1_555 1_555
C63 C52 1_555 1_555
C64 C62 1_555 1_555
C65 C60 1_555 1_555
H53 C65 1_555 1_555
H54 C65 1_555 1_555
C66 C46 1_555 1_555
C67 C53 1_555 1_555
H55 C67 1_555 1_555
C68 C70 1_555 1_555
C69 C57 1_555 1_555
C70 H56 1_555 1_555
C71 H57 1_555 1_555
C72 C68 1_555 1_555
C73 C70 1_555 1_555
C74 C44 1_555 1_555
H58 C74 1_555 1_555
C75 C71 1_555 1_555
C76 O11 1_555 1_555
H59 C76 1_555 1_555
H60 C76 1_555 1_555
H61 C76 1_555 1_555
C77 C57 1_555 1_555
H62 C77 1_555 1_555
H63 C77 1_555 1_555
C78 C44 1_555 1_555
H64 C78 1_555 1_555
H65 C78 1_555 1_555
C79 O16 1_555 1_555
H66 C79 1_555 1_555
H67 C79 1_555 1_555
H68 C79 1_555 1_555
C80 H69 1_555 1_555
H70 C80 1_555 1_555
C81 O19 1_555 1_555
H71 C81 1_555 1_555
H72 C81 1_555 1_555
H73 C81 1_555 1_555
C82 C64 1_555 1_555
H74 C82 1_555 1_555
H75 C82 1_555 1_555
O20 C85 1_555 1_555
O21 C96 1_555 1_555
O22 C89 1_555 1_555
O23 C87 1_555 1_555
O24 C109 1_555 1_555
O25 C118 1_555 1_555
O26 C98 1_555 1_555
O27 C100 1_555 1_555
O28 C86 1_555 1_555
C83 C90 1_555 1_555
O29 C114 1_555 1_555
C84 C91 1_555 1_555
C85 C92 1_555 1_555
C86 C108 1_555 1_555
C87 C90 1_555 1_555
C88 H76 1_555 1_555
C89 C95 1_555 1_555
C90 H77 1_555 1_555
C91 H78 1_555 1_555
H79 C91 1_555 1_555
C92 C88 1_555 1_555
C93 H80 1_555 1_555
C94 C83 1_555 1_555
H81 C94 1_555 1_555
H82 C94 1_555 1_555
C95 H83 1_555 1_555
C96 C84 1_555 1_555
C97 C87 1_555 1_555
C98 C83 1_555 1_555
C99 C110 1_555 1_555
C100 C105 1_555 1_555
C101 C91 1_555 1_555
C102 C89 1_555 1_555
C103 C97 1_555 1_555
H84 C103 1_555 1_555
C104 C84 1_555 1_555
H85 C104 1_555 1_555
C105 C102 1_555 1_555
H86 C105 1_555 1_555
C106 C92 1_555 1_555
H87 C106 1_555 1_555
H88 C106 1_555 1_555
C107 C94 1_555 1_555
C108 C112 1_555 1_555
C109 C112 1_555 1_555
C110 H89 1_555 1_555
H90 C110 1_555 1_555
C111 C86 1_555 1_555
H91 C111 1_555 1_555
C112 H92 1_555 1_555
C113 C109 1_555 1_555
C114 H93 1_555 1_555
H94 C114 1_555 1_555
H95 C114 1_555 1_555
C115 O29 1_555 1_555
C116 O20 1_555 1_555
H96 C116 1_555 1_555
H97 C116 1_555 1_555
H98 C116 1_555 1_555
C117 C99 1_555 1_555
H99 C117 1_555 1_555
C118 C93 1_555 1_555
C119 O27 1_555 1_555
H100 C119 1_555 1_555
H101 C119 1_555 1_555
H102 C119 1_555 1_555
C120 O25 1_555 1_555
H103 C120 1_555 1_555
H104 C120 1_555 1_555
H105 C120 1_555 1_555
C121 C102 1_555 1_555
H106 C121 1_555 1_555
H107 C121 1_555 1_555
C122 O22 1_555 1_555
H108 C122 1_555 1_555
H109 C122 1_555 1_555
H110 C122 1_555 1_555
C123 O23 1_555 1_555
H111 C123 1_555 1_555
H112 C123 1_555 1_555
H113 C123 1_555 1_555
C124 O21 1_555 1_555
H114 C124 1_555 1_555
H115 C124 1_555 1_555
H116 C124 1_555 1_555
C125 O26 1_555 1_555
H117 C125 1_555 1_555
H118 C125 1_555 1_555
H119 C125 1_555 1_555
O30 C135 1_555 1_555
O31 C131 1_555 1_555
O32 C137 1_555 1_555
O33 C142 1_555 1_555
O34 C143 1_555 1_555
O35 C128 1_555 1_555
O36 C138 1_555 1_555
O37 C157 1_555 1_555
O38 C166 1_555 1_555
C126 C129 1_555 1_555
C127 C143 1_555 1_555
C128 C134 1_555 1_555
C129 H120 1_555 1_555
H121 C129 1_555 1_555
C130 H122 1_555 1_555
C131 C145 1_555 1_555
O39 C141 1_555 1_555
C132 C130 1_555 1_555
C133 H123 1_555 1_555
C134 H124 1_555 1_555
C135 C140 1_555 1_555
C136 H125 1_555 1_555
C137 C132 1_555 1_555
C138 C144 1_555 1_555
C139 C128 1_555 1_555
C140 C133 1_555 1_555
C141 C148 1_555 1_555
C142 C126 1_555 1_555
C143 C133 1_555 1_555
C144 C129 1_555 1_555
C145 C136 1_555 1_555
C146 C159 1_555 1_555
C147 C127 1_555 1_555
H126 C147 1_555 1_555
H127 C147 1_555 1_555
C148 C150 1_555 1_555
C149 C157 1_555 1_555
C150 C139 1_555 1_555
H128 C150 1_555 1_555
H129 C150 1_555 1_555
C151 C126 1_555 1_555
H130 C151 1_555 1_555
C152 C132 1_555 1_555
H131 C152 1_555 1_555
H132 C152 1_555 1_555
C153 C138 1_555 1_555
H133 C153 1_555 1_555
C154 C127 1_555 1_555
H134 C154 1_555 1_555
C155 O32 1_555 1_555
H135 C155 1_555 1_555
H136 C155 1_555 1_555
H137 C155 1_555 1_555
C156 O30 1_555 1_555
H138 C156 1_555 1_555
H139 C156 1_555 1_555
H140 C156 1_555 1_555
C157 C136 1_555 1_555
C158 C131 1_555 1_555
H141 C158 1_555 1_555
C159 C141 1_555 1_555
H142 C159 1_555 1_555
C160 O35 1_555 1_555
H143 C160 1_555 1_555
H144 C160 1_555 1_555
H145 C160 1_555 1_555
C161 C146 1_555 1_555
H146 C161 1_555 1_555
H147 C161 1_555 1_555
C162 O34 1_555 1_555
H148 C162 1_555 1_555
H149 C162 1_555 1_555
H150 C162 1_555 1_555
C163 C148 1_555 1_555
H151 C163 1_555 1_555
C164 O36 1_555 1_555
H152 C164 1_555 1_555
H153 C164 1_555 1_555
H154 C164 1_555 1_555
C165 O33 1_555 1_555
H155 C165 1_555 1_555
H156 C165 1_555 1_555
H157 C165 1_555 1_555
C166 C146 1_555 1_555
C167 O31 1_555 1_555
H158 C167 1_555 1_555
H159 C167 1_555 1_555
H160 C167 1_555 1_555
C168 O37 1_555 1_555
H161 C168 1_555 1_555
H162 C168 1_555 1_555
H163 C168 1_555 1_555
Cl3 C169 1_555 1_555
Cl4 C169 1_555 1_555
C169 H164 1_555 1_555
H165 C169 1_555 1_555
Cl5 C175 1_555 1_555
Cl6 C175 1_555 1_555
C170 O13 1_555 1_555
H166 C170 1_555 1_555
H167 C170 1_555 1_555
H168 C170 1_555 1_555
O40 C68 1_555 1_555
C171 O15 1_555 1_555
H169 C171 1_555 1_555
H170 C171 1_555 1_555
H171 C171 1_555 1_555
C172 O14 1_555 1_555
H172 C172 1_555 1_555
H173 C172 1_555 1_555
H174 C172 1_555 1_555
C173 O17 1_555 1_555
H175 C173 1_555 1_555
H176 C173 1_555 1_555
H177 C173 1_555 1_555
C174 O12 1_555 1_555
H178 C174 1_555 1_555
H179 C174 1_555 1_555
H180 C174 1_555 1_555
C175 H181 1_555 1_555
H182 C175 1_555 1_555
Cl7 C177 1_555 1_555
Cl8 C176 1_555 1_555
Cl9 C176 1_555 1_555
Cl10 C177 1_555 1_555
Cl11 C178 1_555 1_555
Cl12 C178 1_555 1_555
C176 H183 1_555 1_555
H184 C176 1_555 1_555
C177 H185 1_555 1_555
H186 C177 1_555 1_555
C178 H187 1_555 1_555
H188 C178 1_555 1_555
C4 C9 1_555 1_555
C4 C16 1_555 1_555
C13 C19 1_555 1_555
C14 C20 1_555 1_555
C18 C25 1_555 1_555
C21 C31 1_555 1_555
C32 C37 1_555 1_555
C38 C41 1_555 1_555
C38 C42 1_555 1_555
C47 C78 1_555 1_555
C50 C59 1_555 1_555
C51 C56 1_555 1_555
C51 C66 1_555 1_555
C58 C69 1_555 1_555
C61 C74 1_555 1_555
C63 C64 1_555 1_555
C65 C66 1_555 1_555
C71 C72 1_555 1_555
C72 C82 1_555 1_555
C73 C75 1_555 1_555
C73 C77 1_555 1_555
C85 C104 1_555 1_555
C88 C96 1_555 1_555
C93 C101 1_555 1_555
C95 C107 1_555 1_555
C97 C106 1_555 1_555
C98 C103 1_555 1_555
C99 C118 1_555 1_555
C100 C107 1_555 1_555
C101 C115 1_555 1_555
C108 C121 1_555 1_555
C110 C113 1_555 1_555
C111 C113 1_555 1_555
C115 C117 1_555 1_555
C130 C142 1_555 1_555
C134 C144 1_555 1_555
C135 C154 1_555 1_555
C137 C151 1_555 1_555
C139 C153 1_555 1_555
C140 C152 1_555 1_555
C145 C147 1_555 1_555
C149 C158 1_555 1_555
C149 C161 1_555 1_555
C163 C166 1_555 1_555

#END
