
#######################################################################
#
#                 Cambridge Crystallographic Data Centre
#                                CCDC 
#
#######################################################################
#
# If this CIF has been generated from an entry in the Cambridge 
# Structural Database, then it will include bibliographic, chemical, 
# crystal, experimental, refinement or atomic coordinate data resulting 
# from the CCDC's data processing and validation procedures.
#
#######################################################################

data_DAYWIL
_chemical_formula_moiety         'C43 H46 O10,2(C1 H2 Cl2)'
_chemical_name_systematic        
'9,14,19,24,26,28,30,32-Octamethoxyhexacyclo[21.2.2.2^3,6^.2^8,11^.2^13,16^.2^18,21^]pentatriaconta-1(25),3,5,8,10,13,15,18,20,23,26,28,30,32,34-pentadecaene-4,34-diol dichloromethane solvate'
_symmetry_cell_setting           monoclinic
_symmetry_space_group_name_H-M   'C 2'
_symmetry_Int_Tables_number      5
_space_group_name_Hall           'C 2y'
loop_
_symmetry_equiv_pos_site_id
_symmetry_equiv_pos_as_xyz
1 x,y,z
2 -x,y,-z
3 1/2+x,1/2+y,z
4 1/2-x,1/2+y,-z
_cell_length_a                   21.1700(12)
_cell_length_b                   12.0046(5)
_cell_length_c                   17.9282(9)
_cell_angle_alpha                90
_cell_angle_beta                 99.384(5)
_cell_angle_gamma                90
_cell_volume                     4495.25
_exptl_crystal_colour            yellow
_exptl_crystal_description       block
_cell_formula_units_Z            4
loop_
_atom_site_label
_atom_site_type_symbol
_atom_site_fract_x
_atom_site_fract_y
_atom_site_fract_z
Cl1 Cl 0.9290 0.2239 0.8586
Cl2 Cl 0.8167 0.3310 0.9123
C1 C 0.8720(10) 0.3309(19) 0.8475(12)
H1 H 0.8475 0.3265 0.7956
H2 H 0.8950 0.4031 0.8520
Cl3 Cl 0.7640 0.5615 0.7557
Cl4 Cl 0.7898 0.7258 0.6436
C2 C 0.8199(6) 0.6564(14) 0.7267(8)
H3 H 0.8324 0.7118 0.7673
H4 H 0.8589 0.6150 0.7194
O1 O 0.8806(3) 0.5568(8) 0.4993(4)
O2 O 0.7940(4) 0.2345(9) 0.6799(5)
O3 O 0.5699(4) 0.6631(7) 0.5735(4)
O4 O 0.6729(4) 0.2672(7) 0.6962(4)
O5 O 0.6856(3) 0.9516(7) 0.7455(4)
O6 O 0.5965(4) 0.5727(8) 0.8707(4)
O7 O 0.9236(3) 0.9592(9) 0.7699(5)
O8 O 0.8040(4) 0.7586(8) 0.9855(4)
O9 O 0.9677(4) 0.6870(8) 0.5916(4)
O10 O 1.0140(3) 0.5734(8) 0.8955(4)
C3 C 0.9742(5) 0.4605(12) 0.6266(6)
H5 H 0.9994 0.3939 0.6455
H6 H 0.9900 0.4870 0.5807
C4 C 0.8619(5) 0.4750(10) 0.5466(5)
C5 C 0.9022(5) 0.4267(11) 0.6049(5)
C6 C 0.8781(5) 0.3484(11) 0.6478(6)
H7 H 0.9059 0.3164 0.6892
C7 C 0.8152(5) 0.3136(10) 0.6340(5)
C8 C 0.7726(5) 0.3617(11) 0.5731(5)
C9 C 0.7969(5) 0.4431(10) 0.5310(5)
H8 H 0.7692 0.4782 0.4908
C10 C 0.7029(5) 0.3270(11) 0.5547(6)
H9 H 0.6883 0.3344 0.4996
H10 H 0.6991 0.2476 0.5683
C11 C 0.5977(5) 0.5644(10) 0.6018(5)
C12 C 0.6345(4) 0.4955(10) 0.5643(5)
H11 H 0.6428 0.5166 0.5158
C13 C 0.6598(5) 0.3958(10) 0.5961(6)
C14 C 0.6463(5) 0.3674(9) 0.6662(5)
C15 C 0.6104(4) 0.4363(9) 0.7059(5)
H12 H 0.6031 0.4150 0.7548
C16 C 0.5854(4) 0.5347(9) 0.6748(5)
C17 C 0.5854(6) 0.7002(13) 0.5025(6)
H13 H 0.5633 0.7706 0.4881
H14 H 0.5718 0.6439 0.4636
H15 H 0.6318 0.7113 0.5074
C18 C 0.6629(6) 0.2354(11) 0.7723(7)
H16 H 0.6841 0.1640 0.7861
H17 H 0.6170 0.2282 0.7732
H18 H 0.6811 0.2927 0.8085
C19 C 0.5492(4) 0.6131(9) 0.7198(6)
H19 H 0.5173 0.6560 0.6846
H20 H 0.5260 0.5690 0.7533
C20 C 0.6600(4) 0.8571(9) 0.7743(5)
C21 C 0.6173(4) 0.7885(9) 0.7346(5)
H21 H 0.6018 0.8056 0.6831
C22 C 0.5944(4) 0.6914(9) 0.7661(5)
C23 C 0.6187(5) 0.6697(10) 0.8423(6)
C24 C 0.6625(5) 0.7403(10) 0.8829(5)
H22 H 0.6786 0.7238 0.9343
C25 C 0.6841(4) 0.8358(9) 0.8502(5)
C26 C 0.6634(6) 0.9757(10) 0.6667(6)
H23 H 0.6842 1.0437 0.6525
H24 H 0.6169 0.9865 0.6584
H25 H 0.6740 0.9134 0.6357
C27 C 0.6185(13) 0.5525(18) 0.9473(10)
H26 H 0.6002 0.4825 0.9622
H27 H 0.6053 0.6138 0.9775
H28 H 0.6653 0.5471 0.9560
C28 C 0.7346(4) 0.9142(9) 0.8957(5)
H29 H 0.7254 0.9917 0.8783
H30 H 0.7302 0.9107 0.9498
C29 C 0.8936(5) 0.9118(10) 0.8239(7)
C30 C 0.8315(5) 0.9406(10) 0.8342(6)
H31 H 0.8097 0.9979 0.8037
C31 C 0.7998(5) 0.8875(9) 0.8885(5)
C32 C 0.8358(4) 0.8048(9) 0.9332(5)
C33 C 0.8983(5) 0.7805(9) 0.9251(5)
H32 H 0.9216 0.7269 0.9576
C34 C 0.9277(4) 0.8328(9) 0.8707(5)
C35 C 0.8838(7) 1.0217(15) 0.7115(8)
H33 H 0.9101 1.0509 0.6758
H34 H 0.8637 1.0837 0.7343
H35 H 0.8505 0.9728 0.6846
C36 C 0.8325(6) 0.6654(12) 1.0274(8)
H36 H 0.8049 0.6412 1.0633
H37 H 0.8745 0.6866 1.0551
H38 H 0.8375 0.6042 0.9927
C37 C 0.9952(5) 0.8025(10) 0.8605(6)
H39 H 1.0194 0.7763 0.9093
H40 H 1.0170 0.8694 0.8449
C38 C 0.9782(5) 0.6601(12) 0.6681(5)
C39 C 0.9838(4) 0.7415(11) 0.7245(6)
H41 H 0.9801 0.8181 0.7112
C40 C 0.9949(4) 0.7104(10) 0.8004(5)
C41 C 1.0020(4) 0.6004(11) 0.8188(6)
C42 C 0.9985(4) 0.5189(10) 0.7623(5)
H42 H 1.0054 0.4428 0.7759
C43 C 0.9847(4) 0.5495(11) 0.6855(6)
C44 C 1.0416(6) 0.4682(12) 0.9145(6)
H43 H 1.0482 0.4587 0.9696
H44 H 1.0828 0.4631 0.8967
H45 H 1.0129 0.4097 0.8906
C45 C 0.9536(7) 0.8028(13) 0.5741(7)
H46 H 0.9466 0.8132 0.5191
H47 H 0.9897 0.8490 0.5972
H48 H 0.9150 0.8246 0.5940
loop_
_geom_bond_atom_site_label_1
_geom_bond_atom_site_label_2
_geom_bond_site_symmetry_1
_geom_bond_site_symmetry_2
Cl1 C1 1_555 1_555
Cl2 C1 1_555 1_555
C1 H1 1_555 1_555
H2 C1 1_555 1_555
Cl3 C2 1_555 1_555
Cl4 C2 1_555 1_555
C2 H3 1_555 1_555
H4 C2 1_555 1_555
O1 C4 1_555 1_555
O2 C7 1_555 1_555
O3 C11 1_555 1_555
O4 C14 1_555 1_555
O5 C20 1_555 1_555
O6 C23 1_555 1_555
O7 C29 1_555 1_555
O8 C32 1_555 1_555
O9 C38 1_555 1_555
O10 C41 1_555 1_555
C3 H5 1_555 1_555
H6 C3 1_555 1_555
C4 C5 1_555 1_555
C5 C3 1_555 1_555
C6 C5 1_555 1_555
H7 C6 1_555 1_555
C7 C6 1_555 1_555
C8 C7 1_555 1_555
C9 C4 1_555 1_555
H8 C9 1_555 1_555
C10 C8 1_555 1_555
H9 C10 1_555 1_555
H10 C10 1_555 1_555
C11 C12 1_555 1_555
C12 H11 1_555 1_555
C13 C10 1_555 1_555
C14 C13 1_555 1_555
C15 C14 1_555 1_555
H12 C15 1_555 1_555
C16 C11 1_555 1_555
C17 O3 1_555 1_555
H13 C17 1_555 1_555
H14 C17 1_555 1_555
H15 C17 1_555 1_555
C18 O4 1_555 1_555
H16 C18 1_555 1_555
H17 C18 1_555 1_555
H18 C18 1_555 1_555
C19 C16 1_555 1_555
H19 C19 1_555 1_555
H20 C19 1_555 1_555
C20 C21 1_555 1_555
C21 H21 1_555 1_555
C22 C19 1_555 1_555
C23 C22 1_555 1_555
C24 C23 1_555 1_555
H22 C24 1_555 1_555
C25 C20 1_555 1_555
C26 O5 1_555 1_555
H23 C26 1_555 1_555
H24 C26 1_555 1_555
H25 C26 1_555 1_555
C27 O6 1_555 1_555
H26 C27 1_555 1_555
H27 C27 1_555 1_555
H28 C27 1_555 1_555
C28 C25 1_555 1_555
H29 C28 1_555 1_555
H30 C28 1_555 1_555
C29 C30 1_555 1_555
C30 H31 1_555 1_555
C31 C28 1_555 1_555
C32 C31 1_555 1_555
C33 C32 1_555 1_555
H32 C33 1_555 1_555
C34 C29 1_555 1_555
C35 O7 1_555 1_555
H33 C35 1_555 1_555
H34 C35 1_555 1_555
H35 C35 1_555 1_555
C36 O8 1_555 1_555
H36 C36 1_555 1_555
H37 C36 1_555 1_555
H38 C36 1_555 1_555
C37 C34 1_555 1_555
H39 C37 1_555 1_555
H40 C37 1_555 1_555
C38 C39 1_555 1_555
C39 H41 1_555 1_555
C40 C37 1_555 1_555
C41 C40 1_555 1_555
C42 C41 1_555 1_555
H42 C42 1_555 1_555
C43 C3 1_555 1_555
C44 O10 1_555 1_555
H43 C44 1_555 1_555
H44 C44 1_555 1_555
H45 C44 1_555 1_555
C45 O9 1_555 1_555
H46 C45 1_555 1_555
H47 C45 1_555 1_555
H48 C45 1_555 1_555
C8 C9 1_555 1_555
C12 C13 1_555 1_555
C15 C16 1_555 1_555
C21 C22 1_555 1_555
C24 C25 1_555 1_555
C30 C31 1_555 1_555
C33 C34 1_555 1_555
C38 C43 1_555 1_555
C39 C40 1_555 1_555
C42 C43 1_555 1_555

#END
