
#######################################################################
#
#                 Cambridge Crystallographic Data Centre
#                                CCDC 
#
#######################################################################
#
# If this CIF has been generated from an entry in the Cambridge 
# Structural Database, then it will include bibliographic, chemical, 
# crystal, experimental, refinement or atomic coordinate data resulting 
# from the CCDC's data processing and validation procedures.
#
#######################################################################

data_DAYWEG
_chemical_formula_moiety         'C11 H11 N2 O7 P1,C3 H7 N1 O1'
_chemical_name_systematic        
'N-(3-Nitrophenyl)-1-oxo-2,6,7-trioxa-1-phosphabicyclo(2.2.2)octane-4-carboxamide dimethylformamide solvate'
_symmetry_cell_setting           monoclinic
_symmetry_space_group_name_H-M   'P 21/m'
_symmetry_Int_Tables_number      11
_space_group_name_Hall           '-P 2yb'
loop_
_symmetry_equiv_pos_site_id
_symmetry_equiv_pos_as_xyz
1 x,y,z
2 -x,1/2+y,-z
3 -x,-y,-z
4 x,1/2-y,z
_cell_length_a                   11.052(2)
_cell_length_b                   6.7210(15)
_cell_length_c                   13.204(3)
_cell_angle_alpha                90
_cell_angle_beta                 114.344(3)
_cell_angle_gamma                90
_cell_volume                     893.594
_exptl_crystal_colour            yellow
_exptl_crystal_description       prism
_cell_formula_units_Z            2
_exptl_crystal_recrystallization_method DMF/water
loop_
_atom_site_label
_atom_site_type_symbol
_atom_site_fract_x
_atom_site_fract_y
_atom_site_fract_z
P1 P 0.29102(9) 0.2500 0.64612(6)
O1 O 0.1862(3) 0.2500 0.53511(19)
O2 O 0.2420(2) 0.2500 0.74101(16)
O3 O 0.38695(16) 0.4327(3) 0.67331(12)
O4 O 0.55676(18) 0.2500 1.04475(14)
O5 O 1.1947(3) 0.2500 1.0623(3)
O6 O 1.2990(2) 0.2500 1.2386(2)
N1 N 0.7166(2) 0.2500 0.97925(19)
N2 N 1.1963(3) 0.2500 1.1541(3)
C1 C 0.4937(2) 0.4348(3) 0.78379(15)
H1 H 0.4878 0.5540 0.8230
H2 H 0.5787 0.4355 0.7786
C2 C 0.3466(3) 0.2500 0.8533(2)
H3 H 0.3384 0.1331 0.8931
H4 H 0.3384 0.3669 0.8931
C3 C 0.4829(2) 0.2500 0.8475(2)
C4 C 0.5893(3) 0.2500 0.9673(2)
C5 C 0.8331(3) 0.2500 1.0800(2)
C6 C 0.8337(3) 0.2500 1.1853(2)
H5 H 0.7539 0.2500 1.1932
C7 C 0.9530(3) 0.2500 1.2787(2)
H6 H 0.9521 0.2500 1.3488
C8 C 1.0719(3) 0.2500 1.2700(2)
H7 H 1.1517 0.2500 1.3329
C9 C 1.0695(3) 0.2500 1.1656(3)
C10 C 0.9534(3) 0.2500 1.0698(2)
H8 H 0.9556 0.2500 1.0002
H16 H 0.734(3) 0.2500 0.919(3)
O3C O 0.38695(16) 0.0673(3) 0.67331(12)
C1C C 0.4937(2) 0.0652(3) 0.78379(15)
H1C H 0.4878 -0.0540 0.8230
H2C H 0.5787 0.0645 0.7786
O7 O 0.7895(2) 0.2500 0.79608(18)
N3 N 0.8057(3) 0.2500 0.6311(2)
C11 C 0.8541(3) 0.2500 0.7396(3)
H9 H 0.9461 0.2500 0.7776
C12 C 0.6638(4) 0.2500 0.5664(3)
H11 H 0.6217 0.3257 0.6046
C13 C 0.8901(4) 0.2500 0.5707(3)
H13 H 0.8579 0.1532 0.5121
H11C H 0.6217 0.1743 0.6046
H13C H 0.8579 0.3468 0.5121
H10? H 0.6439 0.3086 0.4950
H12? H 0.6314 0.1157 0.5568
H14? H 0.9794 0.2174 0.6207
H15? H 0.8885 0.3795 0.5395
loop_
_geom_bond_atom_site_label_1
_geom_bond_atom_site_label_2
_geom_bond_site_symmetry_1
_geom_bond_site_symmetry_2
P1 O1 1_555 1_555
O2 P1 1_555 1_555
O3 P1 1_555 1_555
O4 C4 1_555 1_555
O5 N2 1_555 1_555
O6 N2 1_555 1_555
N1 C4 1_555 1_555
N2 C9 1_555 1_555
C1 O3 1_555 1_555
H1 C1 1_555 1_555
H2 C1 1_555 1_555
C2 O2 1_555 1_555
H3 C2 1_555 1_555
H4 C2 1_555 1_555
C3 C1 1_555 1_555
C4 C3 1_555 1_555
C5 N1 1_555 1_555
C6 C5 1_555 1_555
H5 C6 1_555 1_555
C7 C6 1_555 1_555
H6 C7 1_555 1_555
C8 C7 1_555 1_555
H7 C8 1_555 1_555
C9 C8 1_555 1_555
C10 C5 1_555 1_555
H8 C10 1_555 1_555
O7 C11 1_555 1_555
N3 C11 1_555 1_555
C11 H9 1_555 1_555
C12 N3 1_555 1_555
H11 C12 1_555 1_555
C13 N3 1_555 1_555
H13 C13 1_555 1_555
H16 N1 1_555 1_555
O3C P1 1_555 1_555
C1C C3 1_555 1_555
H1C C1C 1_555 1_555
H2C C1C 1_555 1_555
H11C C12 1_555 1_555
H13C C13 1_555 1_555
C2 C3 1_555 1_555
C9 C10 1_555 1_555
O3C C1C 1_555 1_555

#END
