
#######################################################################
#
#                 Cambridge Crystallographic Data Centre
#                                CCDC 
#
#######################################################################
#
# If this CIF has been generated from an entry in the Cambridge 
# Structural Database, then it will include bibliographic, chemical, 
# crystal, experimental, refinement or atomic coordinate data resulting 
# from the CCDC's data processing and validation procedures.
#
#######################################################################

data_DAYXEH
_chemical_formula_moiety         'C16 H9 Cl1 F2 N4 S1'
_chemical_name_systematic        
3-(4-Chlorophenyl)-6-(2,4-difluorophenyl)-7H-1,2,4-triazolo(3,4-b)(1,3,4)thiadiazine
_symmetry_cell_setting           monoclinic
_symmetry_space_group_name_H-M   'P 21/c'
_symmetry_Int_Tables_number      14
_space_group_name_Hall           '-P 2ybc'
loop_
_symmetry_equiv_pos_site_id
_symmetry_equiv_pos_as_xyz
1 x,y,z
2 -x,1/2+y,1/2-z
3 -x,-y,-z
4 x,1/2-y,1/2+z
_cell_length_a                   11.892(2)
_cell_length_b                   12.9620(10)
_cell_length_c                   10.4300(10)
_cell_angle_alpha                90
_cell_angle_beta                 108.800(10)
_cell_angle_gamma                90
_cell_volume                     1521.95
_exptl_crystal_colour            colorless
_exptl_crystal_description       block
_chemical_melting_point          '454-455 K'
_cell_formula_units_Z            4
_exptl_crystal_recrystallization_method '95% ethanol'
loop_
_atom_site_label
_atom_site_type_symbol
_atom_site_fract_x
_atom_site_fract_y
_atom_site_fract_z
S1 S 0.53395(4) 0.69618(4) 1.24316(4)
Cl1 Cl -0.02951(5) 0.30434(5) 0.55074(6)
F1 F 0.23435(12) 0.73521(9) 0.71480(11)
F2 F 0.12263(14) 1.07966(10) 0.69035(15)
N1 N 0.32330(13) 0.66330(11) 0.97124(14)
N2 N 0.38430(13) 0.57995(11) 1.04610(13)
N3 N 0.48944(15) 0.48867(13) 1.22066(15)
N4 N 0.40998(15) 0.42335(12) 1.12838(16)
C1 C 0.24152(17) 0.82726(14) 0.77693(18)
C2 C 0.17768(18) 0.90666(16) 0.7015(2)
H1 H 0.1303 0.8970 0.6121
C3 C 0.1864(2) 1.00094(16) 0.7631(2)
C4 C 0.2570(2) 1.01782(16) 0.8938(2)
H2 H 0.2618 1.0829 0.9327
C5 C 0.32094(18) 0.93622(15) 0.9664(2)
H3 H 0.3701 0.9472 1.0548
C6 C 0.31398(16) 0.83806(14) 0.91101(17)
C7 C 0.37862(16) 0.74957(13) 0.99127(16)
C8 C 0.50394(16) 0.76487(15) 1.08405(17)
H4 H 0.5179 0.8379 1.1025
H5 H 0.5588 0.7413 1.0387
C9 C 0.47150(16) 0.58098(14) 1.16961(17)
C10 C 0.34713(16) 0.47917(14) 1.02591(17)
C11 C 0.25321(16) 0.43912(13) 0.90773(18)
C12 C 0.22133(18) 0.48792(15) 0.78252(19)
H6 H 0.2589 0.5489 0.7724
C13 C 0.13438(18) 0.44644(16) 0.67320(19)
H7 H 0.1124 0.4794 0.5896
C14 C 0.08040(17) 0.35575(15) 0.68911(19)
C15 C 0.11003(19) 0.30601(15) 0.8117(2)
H8 H 0.0723 0.2449 0.8207
C16 C 0.19666(18) 0.34789(15) 0.9214(2)
H9 H 0.2173 0.3149 1.0050
loop_
_geom_bond_atom_site_label_1
_geom_bond_atom_site_label_2
_geom_bond_site_symmetry_1
_geom_bond_site_symmetry_2
S1 C8 1_555 1_555
Cl1 C14 1_555 1_555
F1 C1 1_555 1_555
F2 C3 1_555 1_555
N1 N2 1_555 1_555
N2 C9 1_555 1_555
N3 N4 1_555 1_555
N4 C10 1_555 1_555
C1 C2 1_555 1_555
C2 H1 1_555 1_555
C3 C2 1_555 1_555
C4 C3 1_555 1_555
H2 C4 1_555 1_555
C5 C4 1_555 1_555
H3 C5 1_555 1_555
C6 C1 1_555 1_555
C7 N1 1_555 1_555
C8 C7 1_555 1_555
H4 C8 1_555 1_555
H5 C8 1_555 1_555
C9 S1 1_555 1_555
C10 N2 1_555 1_555
C11 C10 1_555 1_555
C12 C11 1_555 1_555
H6 C12 1_555 1_555
C13 C12 1_555 1_555
H7 C13 1_555 1_555
C14 C13 1_555 1_555
C15 C14 1_555 1_555
H8 C15 1_555 1_555
C16 C11 1_555 1_555
H9 C16 1_555 1_555
N3 C9 1_555 1_555
C5 C6 1_555 1_555
C6 C7 1_555 1_555
C15 C16 1_555 1_555

#END
