
#######################################################################
#
#                 Cambridge Crystallographic Data Centre
#                                CCDC 
#
#######################################################################
#
# If this CIF has been generated from an entry in the Cambridge 
# Structural Database, then it will include bibliographic, chemical, 
# crystal, experimental, refinement or atomic coordinate data resulting 
# from the CCDC's data processing and validation procedures.
#
#######################################################################

data_DAYZAF
_chemical_formula_moiety         'C21 H17 N1 O2'
_chemical_name_systematic        
3-((2-Hydroxyphenyl)amino)-1,3-diphenylprop-2-en-1-one
_symmetry_cell_setting           triclinic
_symmetry_space_group_name_H-M   'P -1'
_symmetry_Int_Tables_number      2
_space_group_name_Hall           '-P 1'
loop_
_symmetry_equiv_pos_site_id
_symmetry_equiv_pos_as_xyz
1 x,y,z
2 -x,-y,-z
_cell_length_a                   9.0490(18)
_cell_length_b                   10.242(2)
_cell_length_c                   11.013(2)
_cell_angle_alpha                69.26(3)
_cell_angle_beta                 81.68(3)
_cell_angle_gamma                64.33(3)
_cell_volume                     860.285
_exptl_crystal_colour            yellow
_exptl_crystal_description       prism
_chemical_melting_point          '481.6-482.7 K'
_cell_formula_units_Z            2
_exptl_crystal_recrystallization_method ethanol
loop_
_atom_site_label
_atom_site_type_symbol
_atom_site_fract_x
_atom_site_fract_y
_atom_site_fract_z
O1 O 0.3293(3) 0.8969(2) 0.4113(2)
O2 O 0.6050(3) 0.8662(3) 0.6405(3)
H1 H 0.6547 0.9196 0.6315
N1 N 0.4996(3) 0.6769(3) 0.6170(3)
H2 H 0.4759 0.7669 0.5610
C1 C -0.0450(7) 1.0708(5) 0.1407(4)
H3 H -0.0388 1.1291 0.0550
C2 C -0.1903(7) 1.0582(5) 0.1883(6)
H4 H -0.2824 1.1100 0.1345
C3 C -0.1999(5) 0.9702(5) 0.3141(5)
H5 H -0.2974 0.9614 0.3453
C4 C -0.0622(4) 0.8948(4) 0.3936(4)
H6 H -0.0681 0.8340 0.4784
C5 C 0.0845(4) 0.9075(4) 0.3500(3)
C6 C 0.0921(5) 0.9949(4) 0.2228(4)
H7 H 0.1897 1.0034 0.1913
C7 C 0.2301(4) 0.8339(4) 0.4353(3)
C8 C 0.2569(4) 0.6972(4) 0.5400(3)
H8 H 0.1818 0.6544 0.5511
C9 C 0.3863(4) 0.6225(3) 0.6273(3)
C10 C 0.3948(4) 0.4838(4) 0.7382(3)
C11 C 0.3972(4) 0.3574(4) 0.7188(4)
H9 H 0.3968 0.3563 0.6348
C12 C 0.4002(5) 0.2318(4) 0.8237(4)
H10 H 0.4051 0.1458 0.8096
C13 C 0.3959(5) 0.2331(5) 0.9481(4)
H11 H 0.3958 0.1494 1.0184
C14 C 0.3918(5) 0.3599(5) 0.9674(4)
H12 H 0.3889 0.3616 1.0516
C15 C 0.3920(4) 0.4847(4) 0.8641(4)
H13 H 0.3902 0.5693 0.8788
C16 C 0.6515(4) 0.6127(4) 0.6820(3)
C17 C 0.7512(4) 0.4575(4) 0.7273(3)
H14 H 0.7165 0.3878 0.7192
C18 C 0.9011(5) 0.4049(4) 0.7843(4)
H15 H 0.9658 0.3003 0.8167
C19 C 0.9542(4) 0.5083(5) 0.7929(4)
H16 H 1.0553 0.4731 0.8313
C20 C 0.8597(4) 0.6630(4) 0.7454(3)
H17 H 0.8974 0.7320 0.7509
C21 C 0.7082(4) 0.7163(4) 0.6893(3)
loop_
_geom_bond_atom_site_label_1
_geom_bond_atom_site_label_2
_geom_bond_site_symmetry_1
_geom_bond_site_symmetry_2
O1 C7 1_555 1_555
O2 H1 1_555 1_555
N1 H2 1_555 1_555
C1 H3 1_555 1_555
C2 C1 1_555 1_555
H4 C2 1_555 1_555
C3 C2 1_555 1_555
H5 C3 1_555 1_555
C4 C3 1_555 1_555
H6 C4 1_555 1_555
C5 C4 1_555 1_555
C6 C1 1_555 1_555
H7 C6 1_555 1_555
C7 C5 1_555 1_555
C8 C7 1_555 1_555
H8 C8 1_555 1_555
C9 N1 1_555 1_555
C10 C9 1_555 1_555
C11 C10 1_555 1_555
H9 C11 1_555 1_555
C12 C11 1_555 1_555
H10 C12 1_555 1_555
C13 C12 1_555 1_555
H11 C13 1_555 1_555
C14 C13 1_555 1_555
H12 C14 1_555 1_555
C15 C10 1_555 1_555
H13 C15 1_555 1_555
C16 N1 1_555 1_555
C17 C16 1_555 1_555
H14 C17 1_555 1_555
C18 C17 1_555 1_555
H15 C18 1_555 1_555
C19 C18 1_555 1_555
H16 C19 1_555 1_555
C20 C19 1_555 1_555
H17 C20 1_555 1_555
C21 O2 1_555 1_555
C5 C6 1_555 1_555
C8 C9 1_555 1_555
C14 C15 1_555 1_555
C16 C21 1_555 1_555
C20 C21 1_555 1_555

#END
