
#######################################################################
#
#                 Cambridge Crystallographic Data Centre
#                                CCDC 
#
#######################################################################
#
# If this CIF has been generated from an entry in the Cambridge 
# Structural Database, then it will include bibliographic, chemical, 
# crystal, experimental, refinement or atomic coordinate data resulting 
# from the CCDC's data processing and validation procedures.
#
#######################################################################

data_DAZBOY
_chemical_formula_moiety         'C31 H23 N3 O3 S1'
_chemical_name_systematic        
'methyl 2-((2,3-dicyano-4-phenyl-1-((phenylsulfanyl)carbonyl)-1,2-dihydropyridin-2-yl)(phenyl)methyl)acrylate'
_symmetry_cell_setting           monoclinic
_symmetry_space_group_name_H-M   'P 21/c'
_symmetry_Int_Tables_number      14
_space_group_name_Hall           '-P 2ybc'
loop_
_symmetry_equiv_pos_site_id
_symmetry_equiv_pos_as_xyz
1 x,y,z
2 -x,1/2+y,1/2-z
3 -x,-y,-z
4 x,1/2-y,1/2+z
_cell_length_a                   9.4782(19)
_cell_length_b                   22.742(4)
_cell_length_c                   15.752(5)
_cell_angle_alpha                90
_cell_angle_beta                 124.60(2)
_cell_angle_gamma                90
_cell_volume                     2794.87
_exptl_crystal_description       block
_cell_formula_units_Z            4
loop_
_atom_site_label
_atom_site_type_symbol
_atom_site_fract_x
_atom_site_fract_y
_atom_site_fract_z
S1 S -1.28048(3) 0.079966(12) -0.185842(19)
O1 O -1.15556(8) 0.06227(3) -0.29737(5)
O2 O -0.77910(14) 0.05468(4) -0.05423(6)
O3 O -0.77511(16) -0.01932(4) -0.14451(8)
N1 N -1.05053(8) 0.14289(3) -0.19286(5)
N2 N -1.00755(13) 0.29672(4) -0.37879(6)
N3 N -1.14293(11) 0.15007(4) -0.43830(6)
C1 C -1.32356(16) -0.03825(6) -0.18250(9)
H1 H -1.2401 -0.0357 -0.1120
C2 C -1.40240(18) -0.09195(6) -0.22720(10)
H2 H -1.3715 -0.1254 -0.1864
C3 C -1.52443(15) -0.09542(6) -0.33041(10)
H3 H -1.5776 -0.1312 -0.3596
C4 C -1.56946(14) -0.04701(5) -0.39135(9)
H4 H -1.6515 -0.0500 -0.4620
C5 C -1.49356(12) 0.00663(5) -0.34847(8)
H5 H -1.5252 0.0398 -0.3900
C6 C -1.37053(11) 0.01076(4) -0.24367(7)
C7 C -1.01252(11) 0.34943(4) -0.08968(6)
H6 H -1.0783 0.3263 -0.0760
C8 C -1.00650(13) 0.40975(5) -0.07587(7)
H7 H -1.0682 0.4269 -0.0530
C9 C -0.90987(14) 0.44431(5) -0.09581(8)
H8 H -0.9082 0.4849 -0.0880
C10 C -0.81608(13) 0.41888(5) -0.12718(8)
H9 H -0.7492 0.4423 -0.1396
C11 C -0.81964(12) 0.35863(5) -0.14067(7)
H10 H -0.7540 0.3418 -0.1611
C12 C -0.92109(10) 0.32329(4) -0.12380(6)
C13 C -0.51138(13) 0.20188(5) -0.11932(8)
H11 H -0.4863 0.1972 -0.0534
C14 C -0.39796(14) 0.23303(6) -0.13234(10)
H12 H -0.2982 0.2488 -0.0753
C15 C -0.43347(14) 0.24040(5) -0.22888(10)
H13 H -0.3579 0.2611 -0.2376
C16 C -0.58111(13) 0.21711(6) -0.31290(9)
H14 H -0.6053 0.2221 -0.3785
C17 C -0.69481(12) 0.18607(5) -0.30028(7)
H15 H -0.7947 0.1708 -0.3578
C18 C -0.66125(10) 0.17766(4) -0.20317(7)
C19 C -1.00386(11) 0.16674(4) -0.09870(6)
H16 H -1.0179 0.1443 -0.0547
C20 C -0.93991(11) 0.22072(4) -0.07019(6)
H17 H -0.8977 0.2339 -0.0039
C21 C -0.93605(10) 0.25887(4) -0.14204(5)
C22 C -0.95932(10) 0.23439(4) -0.22770(5)
C23 C -0.98417(12) 0.26949(4) -0.31053(6)
C24 C -0.96275(10) 0.16669(4) -0.23927(5)
C25 C -0.77482(10) 0.14164(4) -0.18282(6)
H18 H -0.7244 0.1465 -0.1090
C26 C -1.06658(10) 0.15389(4) -0.35096(6)
C27 C -0.76642(11) 0.07580(4) -0.19795(7)
C28 C -0.74937(14) 0.05217(5) -0.26808(9)
H19 H -0.7424 0.0115 -0.2715
H20 H -0.7444 0.0761 -0.3142
C29 C -0.77449(16) 0.03740(5) -0.12388(8)
C30 C -1.15140(10) 0.09220(4) -0.23313(6)
C31 C -0.7848(3) -0.06066(7) -0.07698(16)
H21 H -0.7815 -0.1002 -0.0972
H22 H -0.8898 -0.0546 -0.0824
H23 H -0.6894 -0.0544 -0.0070
loop_
_geom_bond_atom_site_label_1
_geom_bond_atom_site_label_2
_geom_bond_site_symmetry_1
_geom_bond_site_symmetry_2
S1 C6 1_555 1_555
O1 C30 1_555 1_555
O2 C29 1_555 1_555
O3 C29 1_555 1_555
N1 C19 1_555 1_555
N2 C23 1_555 1_555
N3 C26 1_555 1_555
C1 H1 1_555 1_555
C2 C1 1_555 1_555
H2 C2 1_555 1_555
C3 C2 1_555 1_555
H3 C3 1_555 1_555
C4 C3 1_555 1_555
H4 C4 1_555 1_555
C5 C4 1_555 1_555
H5 C5 1_555 1_555
C6 C1 1_555 1_555
C7 H6 1_555 1_555
C8 C7 1_555 1_555
H7 C8 1_555 1_555
C9 C8 1_555 1_555
H8 C9 1_555 1_555
C10 C9 1_555 1_555
H9 C10 1_555 1_555
C11 C10 1_555 1_555
H10 C11 1_555 1_555
C12 C7 1_555 1_555
C13 H11 1_555 1_555
C14 C13 1_555 1_555
H12 C14 1_555 1_555
C15 C14 1_555 1_555
H13 C15 1_555 1_555
C16 C15 1_555 1_555
H14 C16 1_555 1_555
C17 C16 1_555 1_555
H15 C17 1_555 1_555
C18 C13 1_555 1_555
C19 H16 1_555 1_555
C20 C19 1_555 1_555
H17 C20 1_555 1_555
C21 C12 1_555 1_555
C22 C21 1_555 1_555
C23 C22 1_555 1_555
C24 N1 1_555 1_555
C25 C18 1_555 1_555
H18 C25 1_555 1_555
C26 C24 1_555 1_555
C27 C25 1_555 1_555
C28 C27 1_555 1_555
H19 C28 1_555 1_555
H20 C28 1_555 1_555
C29 C27 1_555 1_555
C30 S1 1_555 1_555
C31 O3 1_555 1_555
H21 C31 1_555 1_555
H22 C31 1_555 1_555
H23 C31 1_555 1_555
N1 C30 1_555 1_555
C5 C6 1_555 1_555
C11 C12 1_555 1_555
C17 C18 1_555 1_555
C20 C21 1_555 1_555
C22 C24 1_555 1_555
C24 C25 1_555 1_555

#END
