
#######################################################################
#
#                 Cambridge Crystallographic Data Centre
#                                CCDC 
#
#######################################################################
#
# If this CIF has been generated from an entry in the Cambridge 
# Structural Database, then it will include bibliographic, chemical, 
# crystal, experimental, refinement or atomic coordinate data resulting 
# from the CCDC's data processing and validation procedures.
#
#######################################################################

data_DAZBUE
_chemical_formula_moiety         'C31 H23 N3 O3 S1'
_chemical_name_systematic        
'methyl 8,8a-dicyano-3-oxo-1,7-diphenyl-2-((phenylsulfanyl)methyl)-1,2,3,8a-tetrahydroindolizine-2-carboxylate'
_symmetry_cell_setting           triclinic
_symmetry_space_group_name_H-M   'P -1'
_symmetry_Int_Tables_number      2
_space_group_name_Hall           '-P 1'
loop_
_symmetry_equiv_pos_site_id
_symmetry_equiv_pos_as_xyz
1 x,y,z
2 -x,-y,-z
_cell_length_a                   10.607(2)
_cell_length_b                   10.677(2)
_cell_length_c                   12.898(3)
_cell_angle_alpha                87.07(3)
_cell_angle_beta                 72.94(3)
_cell_angle_gamma                76.24(3)
_cell_volume                     1356.09
_exptl_crystal_description       block
_cell_formula_units_Z            2
loop_
_atom_site_label
_atom_site_type_symbol
_atom_site_fract_x
_atom_site_fract_y
_atom_site_fract_z
S1 S 0.42523(2) 0.22854(2) -0.062184(19)
O1 O 0.53817(5) 0.37166(6) 0.10732(5)
O2 O 0.17603(7) 0.61037(6) 0.10688(5)
O3 O 0.25655(7) 0.55870(6) 0.24852(6)
N1 N 0.40900(5) 0.26497(6) 0.23815(5)
N2 N 0.07111(7) 0.02516(8) 0.30117(7)
N3 N 0.16325(10) 0.38194(10) 0.46926(7)
C1 C 0.21537(9) 0.19494(10) -0.13707(7)
H1 H 0.2109 0.2777 -0.1644
C2 C 0.13132(10) 0.12266(11) -0.15472(9)
H2 H 0.0698 0.1571 -0.1932
C3 C 0.13848(11) 0.00072(11) -0.11570(11)
H3 H 0.0833 -0.0485 -0.1292
C4 C 0.22653(13) -0.04935(10) -0.05689(12)
H4 H 0.2301 -0.1320 -0.0295
C5 C 0.31004(10) 0.02257(9) -0.03814(9)
H5 H 0.3694 -0.0116 0.0023
C6 C 0.30605(8) 0.14500(8) -0.07901(6)
C7 C 0.25299(8) -0.09300(8) 0.49477(6)
H6 H 0.1780 -0.0242 0.5171
C8 C 0.25238(9) -0.20942(9) 0.54575(7)
H7 H 0.1780 -0.2185 0.6030
C9 C 0.36163(11) -0.31203(10) 0.51202(8)
H8 H 0.3606 -0.3914 0.5451
C10 C 0.47187(12) -0.29726(11) 0.42971(9)
H9 H 0.5460 -0.3669 0.4074
C11 C 0.47521(10) -0.18129(10) 0.37925(8)
H10 H 0.5518 -0.1724 0.3241
C12 C 0.36431(7) -0.07714(8) 0.41044(6)
C13 C -0.02272(7) 0.44740(7) 0.28467(6)
H11 H 0.0157 0.4793 0.3308
C14 C -0.15895(8) 0.49550(8) 0.29259(6)
H12 H -0.2111 0.5594 0.3442
C15 C -0.21782(7) 0.44967(8) 0.22495(6)
H13 H -0.3090 0.4828 0.2306
C16 C -0.14076(7) 0.35458(8) 0.14902(6)
H14 H -0.1798 0.3233 0.1030
C17 C -0.00535(7) 0.30557(7) 0.14118(6)
H15 H 0.0456 0.2406 0.0903
C18 C 0.05648(6) 0.35164(6) 0.20805(5)
C19 C 0.36812(7) 0.04918(8) 0.35876(6)
C20 C 0.48444(8) 0.10212(9) 0.35021(7)
H16 H 0.5443 0.0664 0.3898
C21 C 0.50657(7) 0.20100(9) 0.28655(7)
H17 H 0.5871 0.2273 0.2744
C22 C 0.26791(6) 0.25472(7) 0.28323(5)
C23 C 0.26825(6) 0.11567(7) 0.31747(5)
C24 C 0.15865(7) 0.06410(7) 0.30987(6)
C25 C 0.20495(8) 0.33348(8) 0.38616(6)
C26 C 0.20821(6) 0.30129(6) 0.18708(5)
H18 H 0.2319 0.2248 0.1402
C27 C 0.43063(7) 0.34577(7) 0.15125(6)
C28 C 0.29789(6) 0.39211(6) 0.12174(6)
C29 C 0.32310(7) 0.38267(7) -0.00120(6)
H19 H 0.3678 0.4499 -0.0354
H20 H 0.2363 0.3987 -0.0162
C30 C 0.23618(7) 0.53429(7) 0.15576(7)
C31 C 0.19779(15) 0.69040(11) 0.29166(12)
H21 H 0.2030 0.6945 0.3644
H22 H 0.1046 0.7154 0.2918
H23 H 0.2472 0.7479 0.2471
loop_
_geom_bond_atom_site_label_1
_geom_bond_atom_site_label_2
_geom_bond_site_symmetry_1
_geom_bond_site_symmetry_2
S1 C6 1_555 1_555
O1 C27 1_555 1_555
O2 C30 1_555 1_555
O3 C30 1_555 1_555
N1 C21 1_555 1_555
N2 C24 1_555 1_555
N3 C25 1_555 1_555
C1 H1 1_555 1_555
C2 C1 1_555 1_555
H2 C2 1_555 1_555
C3 C2 1_555 1_555
H3 C3 1_555 1_555
C4 C3 1_555 1_555
H4 C4 1_555 1_555
C5 C4 1_555 1_555
H5 C5 1_555 1_555
C6 C1 1_555 1_555
C7 H6 1_555 1_555
C8 C7 1_555 1_555
H7 C8 1_555 1_555
C9 C8 1_555 1_555
H8 C9 1_555 1_555
C10 C9 1_555 1_555
H9 C10 1_555 1_555
C11 C10 1_555 1_555
H10 C11 1_555 1_555
C12 C7 1_555 1_555
C13 H11 1_555 1_555
C14 C13 1_555 1_555
H12 C14 1_555 1_555
C15 C14 1_555 1_555
H13 C15 1_555 1_555
C16 C15 1_555 1_555
H14 C16 1_555 1_555
C17 C16 1_555 1_555
H15 C17 1_555 1_555
C18 C13 1_555 1_555
C19 C12 1_555 1_555
C20 C19 1_555 1_555
H16 C20 1_555 1_555
C21 C20 1_555 1_555
H17 C21 1_555 1_555
C22 N1 1_555 1_555
C23 C19 1_555 1_555
C24 C23 1_555 1_555
C25 C22 1_555 1_555
C26 C18 1_555 1_555
H18 C26 1_555 1_555
C27 N1 1_555 1_555
C28 C26 1_555 1_555
C29 S1 1_555 1_555
H19 C29 1_555 1_555
H20 C29 1_555 1_555
C30 C28 1_555 1_555
C31 O3 1_555 1_555
H21 C31 1_555 1_555
H22 C31 1_555 1_555
H23 C31 1_555 1_555
C5 C6 1_555 1_555
C11 C12 1_555 1_555
C17 C18 1_555 1_555
C22 C23 1_555 1_555
C22 C26 1_555 1_555
C27 C28 1_555 1_555
C28 C29 1_555 1_555

#END
