
#######################################################################
#
#                 Cambridge Crystallographic Data Centre
#                                CCDC 
#
#######################################################################
#
# If this CIF has been generated from an entry in the Cambridge 
# Structural Database, then it will include bibliographic, chemical, 
# crystal, experimental, refinement or atomic coordinate data resulting 
# from the CCDC's data processing and validation procedures.
#
#######################################################################

data_DAZCAL
_chemical_formula_moiety         'C20 H21 N1 O6 S1'
_chemical_name_systematic        
'dimethyl ((3-(methoxycarbonyl)pyridin-2-yl)methyl)((phenylsulfanyl)methyl)malonate'
_symmetry_cell_setting           monoclinic
_symmetry_space_group_name_H-M   'P 21/c'
_symmetry_Int_Tables_number      14
_space_group_name_Hall           '-P 2ybc'
loop_
_symmetry_equiv_pos_site_id
_symmetry_equiv_pos_as_xyz
1 x,y,z
2 -x,1/2+y,1/2-z
3 -x,-y,-z
4 x,1/2-y,1/2+z
_cell_length_a                   17.211(3)
_cell_length_b                   7.6514(15)
_cell_length_c                   15.332(3)
_cell_angle_alpha                90
_cell_angle_beta                 96.96(3)
_cell_angle_gamma                90
_cell_volume                     2004.17
_exptl_crystal_description       block
_cell_formula_units_Z            4
loop_
_atom_site_label
_atom_site_type_symbol
_atom_site_fract_x
_atom_site_fract_y
_atom_site_fract_z
S1 S 0.694628(14) 0.60985(3) 0.505381(19)
O1 O 0.66464(4) 1.09598(8) 0.48423(4)
O2 O 0.76864(4) 1.00872(9) 0.42312(4)
O3 O 0.98671(4) 0.77450(18) 0.52301(4)
O4 O 1.07182(4) 0.63971(10) 0.61292(5)
O5 O 0.80529(4) 1.18876(7) 0.64519(4)
O6 O 0.69690(4) 1.07529(8) 0.68966(4)
C1 C 0.62525(6) 0.69081(18) 0.34183(7)
H1 H 0.6738 0.6674 0.3236
C2 C 0.56299(8) 0.7379(2) 0.28098(8)
H2 H 0.5697 0.7434 0.2218
C3 C 0.49194(7) 0.7762(2) 0.30639(8)
H3 H 0.4509 0.8124 0.2653
C4 C 0.48183(6) 0.7609(2) 0.39227(8)
H4 H 0.4331 0.7846 0.4101
C5 C 0.54290(6) 0.71081(19) 0.45340(7)
H5 H 0.5350 0.6985 0.5120
C6 C 0.61572(5) 0.67875(12) 0.42804(6)
C7 C 0.87338(6) 0.74393(11) 0.80582(5)
H6 H 0.8448 0.7521 0.8534
C8 C 0.94584(6) 0.66823(12) 0.81888(5)
H7 H 0.9657 0.6247 0.8737
C9 C 0.98845(5) 0.65820(11) 0.74895(5)
H8 H 1.0380 0.6081 0.7561
C10 C 0.95736(4) 0.72307(9) 0.66740(4)
C11 C 0.88208(4) 0.79677(9) 0.65962(4)
C12 C 0.70072(5) 0.78022(11) 0.58773(5)
H9 H 0.6489 0.8295 0.5888
H10 H 0.7163 0.7276 0.6447
C13 C 0.75786(4) 0.93000(10) 0.57462(4)
C14 C 0.84270(4) 0.86867(10) 0.57400(4)
H11 H 0.8435 0.7792 0.5293
H12 H 0.8734 0.9665 0.5569
C15 C 0.74901(4) 1.06849(10) 0.64465(5)
C16 C 0.80051(7) 1.33321(14) 0.70486(7)
H13 H 0.7510 1.3911 0.6913
H14 H 0.8421 1.4142 0.6989
H15 H 0.8052 1.2903 0.7641
C17 C 0.73274(5) 1.01516(10) 0.48464(5)
C18 C 0.63229(6) 1.17368(15) 0.40197(6)
H16 H 0.5910 1.2527 0.4121
H17 H 0.6118 1.0835 0.3621
H18 H 0.6726 1.2366 0.3771
C19 C 1.00438(5) 0.71591(11) 0.59251(5)
C20 C 1.12213(6) 0.62503(17) 0.54420(8)
H19 H 1.0975 0.5522 0.4979
H20 H 1.1712 0.5741 0.5678
H21 H 1.1311 0.7390 0.5213
N1 N 0.84157(4) 0.80678(9) 0.72835(4)
loop_
_geom_bond_atom_site_label_1
_geom_bond_atom_site_label_2
_geom_bond_site_symmetry_1
_geom_bond_site_symmetry_2
S1 C6 1_555 1_555
O1 C17 1_555 1_555
O2 C17 1_555 1_555
O3 C19 1_555 1_555
O4 C19 1_555 1_555
O5 C15 1_555 1_555
O6 C15 1_555 1_555
C1 H1 1_555 1_555
C2 C1 1_555 1_555
H2 C2 1_555 1_555
C3 C2 1_555 1_555
H3 C3 1_555 1_555
C4 C3 1_555 1_555
H4 C4 1_555 1_555
C5 C4 1_555 1_555
H5 C5 1_555 1_555
C6 C1 1_555 1_555
C7 H6 1_555 1_555
C8 C7 1_555 1_555
H7 C8 1_555 1_555
C9 C8 1_555 1_555
H8 C9 1_555 1_555
C10 C9 1_555 1_555
C11 C10 1_555 1_555
C12 S1 1_555 1_555
H9 C12 1_555 1_555
H10 C12 1_555 1_555
C13 C12 1_555 1_555
C14 C11 1_555 1_555
H11 C14 1_555 1_555
H12 C14 1_555 1_555
C15 C13 1_555 1_555
C16 O5 1_555 1_555
H13 C16 1_555 1_555
H14 C16 1_555 1_555
H15 C16 1_555 1_555
C17 C13 1_555 1_555
C18 O1 1_555 1_555
H16 C18 1_555 1_555
H17 C18 1_555 1_555
H18 C18 1_555 1_555
C19 C10 1_555 1_555
C20 O4 1_555 1_555
H19 C20 1_555 1_555
H20 C20 1_555 1_555
H21 C20 1_555 1_555
N1 C7 1_555 1_555
C5 C6 1_555 1_555
C11 N1 1_555 1_555
C13 C14 1_555 1_555

#END
