
#######################################################################
#
#                 Cambridge Crystallographic Data Centre
#                                CCDC 
#
#######################################################################
#
# If this CIF has been generated from an entry in the Cambridge 
# Structural Database, then it will include bibliographic, chemical, 
# crystal, experimental, refinement or atomic coordinate data resulting 
# from the CCDC's data processing and validation procedures.
#
#######################################################################

data_DAZDUF01
_chemical_formula_moiety         'C2 H2 N8 O2,2(H2 O1)'
_chemical_name_systematic        "1H,1'H-[5,5'-bitetrazole]-1,1'-diol dihydrate"
_symmetry_cell_setting           monoclinic
_symmetry_space_group_name_H-M   'C 2/m'
_symmetry_Int_Tables_number      12
_space_group_name_Hall           '-C 2y'
loop_
_symmetry_equiv_pos_site_id
_symmetry_equiv_pos_as_xyz
1 x,y,z
2 -x,y,-z
3 1/2+x,1/2+y,z
4 1/2-x,1/2+y,-z
5 -x,-y,-z
6 x,-y,z
7 1/2-x,1/2-y,-z
8 1/2+x,1/2-y,z
_cell_length_a                   7.752(6)
_cell_length_b                   6.391(5)
_cell_length_c                   8.702(8)
_cell_angle_alpha                90
_cell_angle_beta                 116.05(4)
_cell_angle_gamma                90
_cell_volume                     387.326
_exptl_crystal_colour            colorless
_exptl_crystal_description       Block
_cell_formula_units_Z            2
loop_
_atom_site_label
_atom_site_type_symbol
_atom_site_fract_x
_atom_site_fract_y
_atom_site_fract_z
C1 C -0.0206(10) 0.0000 0.4103(8)
N1 N 0.1038(8) 0.0000 0.3467(7)
N2 N 0.0130(10) 0.0000 0.1753(8)
N3 N -0.1667(10) 0.0000 0.1380(7)
N4 N -0.1979(8) 0.0000 0.2809(6)
O1 O 0.2951(7) 0.0000 0.4303(7)
H1 H 0.295(16) 0.0000 0.333(7)
C1A C 0.0206(10) 0.0000 0.5897(8)
N1A N -0.1038(8) 0.0000 0.6533(7)
N2A N -0.0130(10) 0.0000 0.8247(8)
N3A N 0.1667(10) 0.0000 0.8620(7)
N4A N 0.1979(8) 0.0000 0.7191(6)
O1A O -0.2951(7) 0.0000 0.5697(7)
H1A H -0.295(16) 0.0000 0.667(7)
O2 O 0.4180(8) 0.0000 0.2177(6)
H2 H 0.356(18) 0.0000 0.110(3)
H3 H 0.532(8) 0.0000 0.23(2)
loop_
_geom_bond_atom_site_label_1
_geom_bond_atom_site_label_2
_geom_bond_site_symmetry_1
_geom_bond_site_symmetry_2
C1 N1 1_555 1_555
N1 N2 1_555 1_555
N2 N3 1_555 1_555
N3 N4 1_555 1_555
N4 C1 1_555 1_555
O1 N1 1_555 1_555
H1 O1 1_555 1_555
O2 H2 1_555 1_555
H3 O2 1_555 1_555
C1A C1 1_555 1_555
N1A C1A 1_555 1_555
N2A N1A 1_555 1_555
N3A N2A 1_555 1_555
N4A C1A 1_555 1_555
O1A N1A 1_555 1_555
H1A O1A 1_555 1_555
N3A N4A 1_555 1_555

#END
