
#######################################################################
#
#                 Cambridge Crystallographic Data Centre
#                                CCDC 
#
#######################################################################
#
# If this CIF has been generated from an entry in the Cambridge 
# Structural Database, then it will include bibliographic, chemical, 
# crystal, experimental, refinement or atomic coordinate data resulting 
# from the CCDC's data processing and validation procedures.
#
#######################################################################

data_DAZFUH
_chemical_formula_moiety         'C22 H17 Br1 O5'
_chemical_name_systematic        
'Ethyl (9-bromo-5-oxo-4-phenyl-1,10b-dihydro-2H,5H-pyrano[3,4-c]chromen-2-ylidene)acetate'
_symmetry_cell_setting           orthorhombic
_symmetry_space_group_name_H-M   'P n a 21'
_symmetry_Int_Tables_number      33
_space_group_name_Hall           'P 2c -2n'
loop_
_symmetry_equiv_pos_site_id
_symmetry_equiv_pos_as_xyz
1 x,y,z
2 -x,-y,1/2+z
3 1/2-x,1/2+y,1/2+z
4 1/2+x,1/2-y,z
_cell_length_a                   11.756
_cell_length_b                   14.575
_cell_length_c                   11.520
_cell_angle_alpha                90
_cell_angle_beta                 90
_cell_angle_gamma                90
_cell_volume                     1973.88
_exptl_crystal_colour            colorless
_exptl_crystal_description       block
_cell_formula_units_Z            4
loop_
_atom_site_label
_atom_site_type_symbol
_atom_site_fract_x
_atom_site_fract_y
_atom_site_fract_z
Br1 Br 0.42547(4) 0.15193(3) 0.87553(5)
C1 C 0.5436(4) 0.1595(3) 0.7633(4)
C2 C 0.6549(5) 0.1671(3) 0.8011(4)
H1 H 0.6715 0.1673 0.8801
C3 C 0.7398(5) 0.1744(4) 0.7214(5)
H2 H 0.8150 0.1789 0.7459
C4 C 0.7149(4) 0.1752(3) 0.6045(5)
C5 C 0.6031(4) 0.1664(2) 0.5655(4)
C6 C 0.5180(4) 0.1574(2) 0.6478(4)
H3 H 0.4429 0.1500 0.6242
C7 C 0.5833(3) 0.1657(3) 0.4352(3)
H4 H 0.5729 0.2292 0.4093
C8 C 0.6866(3) 0.1273(2) 0.3755(5)
C9 C 0.7976(4) 0.1579(3) 0.4158(5)
C10 C 0.4773(3) 0.1111(3) 0.4018(3)
H5 H 0.4760 0.0541 0.4454
H6 H 0.4101 0.1459 0.4226
C11 C 0.4743(4) 0.0902(3) 0.2763(4)
C12 C 0.6776(3) 0.0723(3) 0.2831(4)
C13 C 0.7661(2) 0.01794(19) 0.2249(3)
C14 C 0.8453(3) -0.0315(2) 0.2889(3)
H7 H 0.8451 -0.0280 0.3695
C15 C 0.9248(3) -0.0863(2) 0.2325(5)
H8 H 0.9778 -0.1193 0.2754
C16 C 0.9251(3) -0.0915(3) 0.1121(5)
H9 H 0.9783 -0.1281 0.0743
C17 C 0.8459(4) -0.0420(3) 0.0480(3)
H10 H 0.8461 -0.0456 -0.0326
C18 C 0.7664(3) 0.0127(3) 0.1044(3)
H11 H 0.7134 0.0458 0.0615
C19 C 0.3886(4) 0.0953(3) 0.2011(4)
H12 H 0.4028 0.0774 0.1250
C20 C 0.2735(4) 0.1271(4) 0.2289(4)
O1 O 0.8047(3) 0.1873(2) 0.5282(3)
O2 O 0.8846(3) 0.1621(2) 0.3619(5)
O3 O 0.5746(2) 0.0564(2) 0.2300(3)
O4 O 0.2371(3) 0.1517(3) 0.3208(3)
C21 C 0.0917(12) 0.1628(17) 0.1622(15)
H13 H 0.0670 0.1184 0.2198
H14 H 0.0826 0.2237 0.1947
C22 C 0.0224(9) 0.1539(10) 0.0577(12)
H15 H 0.0552 0.1898 -0.0035
H16 H -0.0533 0.1753 0.0734
H17 H 0.0196 0.0906 0.0345
O5 O 0.2121(11) 0.1468(13) 0.1328(10)
C23? C 0.0854(13) 0.1135(10) 0.140(3)
C24? C 0.0825(16) 0.2140(9) 0.1109(18)
H18? H 0.0519 0.1013 0.2153
H19? H 0.0468 0.0771 0.0814
H20? H 0.1267 0.2474 0.1668
H21? H 0.0053 0.2354 0.1126
H22? H 0.1137 0.2234 0.0348
O6? O 0.2087(11) 0.0958(9) 0.1401(11)
loop_
_geom_bond_atom_site_label_1
_geom_bond_atom_site_label_2
_geom_bond_site_symmetry_1
_geom_bond_site_symmetry_2
Br1 C1 1_555 1_555
C1 C2 1_555 1_555
C2 H1 1_555 1_555
C3 C2 1_555 1_555
H2 C3 1_555 1_555
C4 C3 1_555 1_555
C5 C4 1_555 1_555
C6 C1 1_555 1_555
H3 C6 1_555 1_555
C7 C5 1_555 1_555
H4 C7 1_555 1_555
C8 C7 1_555 1_555
C9 C8 1_555 1_555
C10 C7 1_555 1_555
H5 C10 1_555 1_555
H6 C10 1_555 1_555
C11 C10 1_555 1_555
C12 C8 1_555 1_555
C13 C12 1_555 1_555
C14 C13 1_555 1_555
H7 C14 1_555 1_555
C15 C14 1_555 1_555
H8 C15 1_555 1_555
C16 C15 1_555 1_555
H9 C16 1_555 1_555
C17 C16 1_555 1_555
H10 C17 1_555 1_555
C18 C13 1_555 1_555
H11 C18 1_555 1_555
C19 C11 1_555 1_555
H12 C19 1_555 1_555
C20 C19 1_555 1_555
O1 C4 1_555 1_555
O2 C9 1_555 1_555
O3 C11 1_555 1_555
O4 C20 1_555 1_555
C21 H13 1_555 1_555
H14 C21 1_555 1_555
C22 C21 1_555 1_555
H15 C22 1_555 1_555
H16 C22 1_555 1_555
H17 C22 1_555 1_555
O5 C20 1_555 1_555
C5 C6 1_555 1_555
C9 O1 1_555 1_555
C12 O3 1_555 1_555
C17 C18 1_555 1_555
C21 O5 1_555 1_555

#END
