
#######################################################################
#
#                 Cambridge Crystallographic Data Centre
#                                CCDC 
#
#######################################################################
#
# If this CIF has been generated from an entry in the Cambridge 
# Structural Database, then it will include bibliographic, chemical, 
# crystal, experimental, refinement or atomic coordinate data resulting 
# from the CCDC's data processing and validation procedures.
#
#######################################################################

data_DAZFUI
_chemical_formula_moiety         'C24 H16 N2 O1'
_chemical_name_systematic        
2',6'-diphenyl-4H-spiro[cyclohexa-2,5-diene-1,5'-cyclopenta[d]pyrimidin]-4-one
_symmetry_cell_setting           triclinic
_symmetry_space_group_name_H-M   'P -1'
_symmetry_Int_Tables_number      2
_space_group_name_Hall           '-P 1'
loop_
_symmetry_equiv_pos_site_id
_symmetry_equiv_pos_as_xyz
1 x,y,z
2 -x,-y,-z
_cell_length_a                   9.7023(5)
_cell_length_b                   10.0876(4)
_cell_length_c                   10.2532(4)
_cell_angle_alpha                71.799(4)
_cell_angle_beta                 83.864(4)
_cell_angle_gamma                68.907(4)
_cell_volume                     889.411
_cell_formula_units_Z            2
loop_
_atom_site_label
_atom_site_type_symbol
_atom_site_fract_x
_atom_site_fract_y
_atom_site_fract_z
O1 O 0.33926(11) 0.54365(11) 0.58545(10)
N1 N 0.49999(13) 0.86866(12) -0.16053(12)
C1 C 0.62927(15) 0.75324(15) -0.13826(14)
N2 N 0.68025(14) 0.65324(14) -0.01724(13)
C2 C 0.41699(15) 0.87744(15) -0.04848(14)
C3 C 0.72293(16) 0.73678(15) -0.26094(14)
C4 C 0.33699(14) 0.62331(14) 0.46695(14)
C5 C 0.33451(15) 0.81336(14) 0.18305(14)
C6 C 0.86980(16) 0.63964(16) -0.24605(16)
H1 H 0.9097 0.5849 -0.1589
C7 C 0.27801(15) 0.59972(15) 0.35364(14)
H2 H 0.2431 0.5212 0.3718
C8 C 0.39000(15) 0.83589(14) 0.30318(14)
H3 H 0.4242 0.9147 0.2871
C9 C 0.27304(15) 0.68786(15) 0.22533(14)
H4 H 0.2295 0.6714 0.1582
C10 C 0.39262(15) 0.74848(15) 0.43143(14)
H5 H 0.4307 0.7669 0.5008
C11 C 0.22408(15) 0.95922(14) 0.09033(14)
C12 C 0.27441(16) 0.98870(15) -0.03955(14)
H6 H 0.2249 1.0687 -0.1127
C13 C 0.66485(16) 0.81748(15) -0.39238(15)
H7 H 0.5678 0.8832 -0.4030
C14 C 0.45793(16) 0.77651(15) 0.08099(14)
C15 C 0.03000(16) 0.99648(16) 0.27120(15)
H8 H 0.0818 0.9027 0.3283
C16 C -0.17985(16) 1.22364(16) 0.23233(16)
H9 H -0.2688 1.2809 0.2619
C17 C 0.59320(17) 0.66425(16) 0.09380(15)
H10 H 0.6248 0.5957 0.1792
C18 C 0.95600(17) 0.62508(17) -0.36185(17)
H11 H 1.0540 0.5619 -0.3518
C19 C 0.00629(16) 1.19169(16) 0.05898(14)
H12 H 0.0422 1.2292 -0.0272
C20 C 0.89647(18) 0.70422(18) -0.49197(16)
H13 H 0.9541 0.6929 -0.5690
C21 C -0.12464(16) 1.27821(16) 0.10404(15)
H14 H -0.1757 1.3730 0.0483
C22 C 0.08560(15) 1.04863(15) 0.14102(14)
C23 C 0.75045(18) 0.80070(17) -0.50764(16)
H15 H 0.7104 0.8537 -0.5950
C24 C -0.10179(17) 1.08339(17) 0.31609(16)
H16 H -0.1377 1.0473 0.4027
loop_
_geom_bond_atom_site_label_1
_geom_bond_atom_site_label_2
_geom_bond_site_symmetry_1
_geom_bond_site_symmetry_2
O1 C4 1_555 1_555
N1 C1 1_555 1_555
C1 N2 1_555 1_555
N2 C17 1_555 1_555
C2 N1 1_555 1_555
C3 C1 1_555 1_555
C4 C7 1_555 1_555
C5 C8 1_555 1_555
C6 C3 1_555 1_555
H1 C6 1_555 1_555
C7 H2 1_555 1_555
C8 H3 1_555 1_555
C9 C5 1_555 1_555
H4 C9 1_555 1_555
C10 C4 1_555 1_555
H5 C10 1_555 1_555
C11 C5 1_555 1_555
C12 C2 1_555 1_555
H6 C12 1_555 1_555
C13 C3 1_555 1_555
H7 C13 1_555 1_555
C14 C2 1_555 1_555
C15 H8 1_555 1_555
C16 H9 1_555 1_555
C17 C14 1_555 1_555
H10 C17 1_555 1_555
C18 C6 1_555 1_555
H11 C18 1_555 1_555
C19 H12 1_555 1_555
C20 C18 1_555 1_555
H13 C20 1_555 1_555
C21 C16 1_555 1_555
H14 C21 1_555 1_555
C22 C11 1_555 1_555
C23 C13 1_555 1_555
H15 C23 1_555 1_555
C24 C15 1_555 1_555
H16 C24 1_555 1_555
C5 C14 1_555 1_555
C7 C9 1_555 1_555
C8 C10 1_555 1_555
C11 C12 1_555 1_555
C15 C22 1_555 1_555
C16 C24 1_555 1_555
C19 C21 1_555 1_555
C19 C22 1_555 1_555
C20 C23 1_555 1_555

#END
