
#######################################################################
#
#                 Cambridge Crystallographic Data Centre
#                                CCDC 
#
#######################################################################
#
# If this CIF has been generated from an entry in the Cambridge 
# Structural Database, then it will include bibliographic, chemical, 
# crystal, experimental, refinement or atomic coordinate data resulting 
# from the CCDC's data processing and validation procedures.
#
#######################################################################

data_DAZFOB
_chemical_formula_moiety         'C29 H32 N4 O3'
_chemical_name_systematic        
N-(3',6'-bis(diethylamino)-3-oxospiro[isoindole-1,9'-xanthen]-2(3H)-yl)formamide
_symmetry_cell_setting           triclinic
_symmetry_space_group_name_H-M   'P -1'
_symmetry_Int_Tables_number      2
_space_group_name_Hall           '-P 1'
loop_
_symmetry_equiv_pos_site_id
_symmetry_equiv_pos_as_xyz
1 x,y,z
2 -x,-y,-z
_cell_length_a                   9.0438(8)
_cell_length_b                   12.1015(12)
_cell_length_c                   14.1578(14)
_cell_angle_alpha                98.54(5)
_cell_angle_beta                 108.13(4)
_cell_angle_gamma                110.06(3)
_cell_volume                     1325.48
_exptl_crystal_colour            colorless
_exptl_crystal_description       prism
_cell_formula_units_Z            2
loop_
_atom_site_label
_atom_site_type_symbol
_atom_site_fract_x
_atom_site_fract_y
_atom_site_fract_z
O1 O 0.73387(13) 0.61330(8) 0.14054(8)
O2 O 0.77873(11) 1.06846(8) 0.45793(7)
O3 O 1.18483(13) 1.10342(9) 0.37374(8)
N1 N 0.70532(17) 0.81485(11) -0.12415(10)
N2 N 0.79662(17) 0.38913(11) 0.38835(10)
N3 N 0.77788(13) 0.90777(9) 0.34660(8)
N4 N 0.95247(14) 0.95249(9) 0.37507(9)
C1 C 0.68945(17) 0.80577(12) -0.03200(11)
C2 C 0.71445(19) 0.71346(12) 0.01152(11)
H1 H 0.7388 0.6538 -0.0247
C3 C 0.70414(17) 0.70804(11) 0.10655(11)
C4 C 0.73307(17) 0.60400(11) 0.23643(11)
C5 C 0.76444(18) 0.50669(12) 0.26438(12)
H2 H 0.7839 0.4531 0.2183
C6 C 0.76785(17) 0.48638(11) 0.35975(11)
C7 C 0.74031(16) 0.56993(11) 0.42567(10)
H3 H 0.7441 0.5604 0.4917
C8 C 0.70796(16) 0.66506(11) 0.39527(10)
H4 H 0.6891 0.7194 0.4411
C9 C 0.70179(16) 0.68490(11) 0.29954(10)
C10 C 0.65934(16) 0.78737(11) 0.26678(10)
C11 C 0.66610(16) 0.79091(11) 0.16233(10)
C12 C 0.63590(17) 0.88023(12) 0.11673(10)
H5 H 0.6062 0.9372 0.1519
C13 C 0.64729(17) 0.88916(12) 0.02350(11)
H6 H 0.6266 0.9519 -0.0039
C14 C 0.70104(19) 0.92030(13) -0.16229(12)
H7 H 0.6050 0.9370 -0.1546
H8 H 0.6783 0.8987 -0.2372
C15 C 0.8649(2) 1.03662(15) -0.10664(13)
H9 H 0.8527 1.1030 -0.1359
H10 H 0.9604 1.0219 -0.1156
H11 H 0.8873 1.0599 -0.0326
C16 C 0.8043(4) 0.7559(2) -0.16000(19)
H12 H 0.8881 0.7476 -0.1001
H13 H 0.8675 0.8066 -0.1953
C17 C 0.6808(3) 0.6308(3) -0.2343(2)
H14 H 0.7442 0.5900 -0.2589
H15 H 0.5990 0.6399 -0.2935
H16 H 0.6192 0.5812 -0.1987
C18 C 0.78826(17) 0.36286(13) 0.48427(11)
H17 H 0.8524 0.4405 0.5413
H18 H 0.8457 0.3076 0.5009
C19 C 0.60900(17) 0.30426(13) 0.48025(12)
H19 H 0.6136 0.2894 0.5471
H20 H 0.5451 0.2261 0.4253
H21 H 0.5519 0.3592 0.4658
C20 C 0.7543(4) 0.2780(3) 0.2970(3)
H22 H 0.7104 0.2002 0.3146
H23 H 0.6652 0.2749 0.2334
C21 C 0.9155(4) 0.2934(3) 0.2787(2)
H24 H 0.8906 0.2241 0.2217
H25 H 1.0030 0.2961 0.3418
H26 H 0.9574 0.3701 0.2605
C22 C 0.49106(16) 0.78295(11) 0.27120(10)
C23 C 0.32892(17) 0.69038(12) 0.21639(11)
H27 H 0.3111 0.6186 0.1684
C24 C 0.19305(17) 0.70552(12) 0.23352(11)
H28 H 0.0807 0.6429 0.1971
C25 C 0.21893(17) 0.81134(13) 0.30345(11)
H29 H 0.1240 0.8194 0.3141
C26 C 0.38047(17) 0.90455(12) 0.35742(10)
H30 H 0.3980 0.9772 0.4041
C27 C 0.51685(16) 0.88832(11) 0.34099(10)
C28 C 0.70167(17) 0.96854(11) 0.39111(10)
C29 C 1.03102(18) 1.04832(12) 0.34364(11)
H31 H 0.9611 1.0741 0.2948
H32 H 1.0153(19) 0.9326(13) 0.4260(12)
C30? C 0.6918(6) 0.7033(5) -0.2005(3)
C31? C 0.8731(6) 0.7112(5) -0.1748(4)
C32? C 0.8754(4) 0.3246(3) 0.3409(3)
C33? C 0.7274(5) 0.2205(4) 0.2511(3)
H33? H 0.6182 0.6260 -0.1928
H34? H 0.6416 0.7052 -0.2729
H35? H 0.8698 0.6420 -0.2225
H36? H 0.9207 0.7083 -0.1034
H37? H 0.9449 0.7885 -0.1822
H38? H 0.9402 0.2923 0.3910
H39? H 0.9541 0.3796 0.3157
H40? H 0.7715 0.1724 0.2148
H41? H 0.6642 0.2543 0.2030
H42? H 0.6509 0.1674 0.2776
loop_
_geom_bond_atom_site_label_1
_geom_bond_atom_site_label_2
_geom_bond_site_symmetry_1
_geom_bond_site_symmetry_2
O1 C3 1_555 1_555
O2 C28 1_555 1_555
O3 C29 1_555 1_555
N1 C1 1_555 1_555
N2 C6 1_555 1_555
N3 N4 1_555 1_555
N4 C29 1_555 1_555
C1 C2 1_555 1_555
C2 H1 1_555 1_555
C3 C2 1_555 1_555
C4 O1 1_555 1_555
C5 C4 1_555 1_555
H2 C5 1_555 1_555
C6 C5 1_555 1_555
C7 C6 1_555 1_555
H3 C7 1_555 1_555
C8 C7 1_555 1_555
H4 C8 1_555 1_555
C9 C4 1_555 1_555
C10 N3 1_555 1_555
C11 C3 1_555 1_555
C12 C11 1_555 1_555
H5 C12 1_555 1_555
C13 C1 1_555 1_555
H6 C13 1_555 1_555
C14 N1 1_555 1_555
H7 C14 1_555 1_555
H8 C14 1_555 1_555
C15 C14 1_555 1_555
H9 C15 1_555 1_555
H10 C15 1_555 1_555
H11 C15 1_555 1_555
C16 N1 1_555 1_555
H12 C16 1_555 1_555
H13 C16 1_555 1_555
C17 C16 1_555 1_555
H14 C17 1_555 1_555
H15 C17 1_555 1_555
H16 C17 1_555 1_555
C18 N2 1_555 1_555
H17 C18 1_555 1_555
H18 C18 1_555 1_555
C19 C18 1_555 1_555
H19 C19 1_555 1_555
H20 C19 1_555 1_555
H21 C19 1_555 1_555
C20 N2 1_555 1_555
H22 C20 1_555 1_555
H23 C20 1_555 1_555
C21 C20 1_555 1_555
H24 C21 1_555 1_555
H25 C21 1_555 1_555
H26 C21 1_555 1_555
C22 C10 1_555 1_555
C23 C22 1_555 1_555
H27 C23 1_555 1_555
C24 C23 1_555 1_555
H28 C24 1_555 1_555
C25 C24 1_555 1_555
H29 C25 1_555 1_555
C26 C25 1_555 1_555
H30 C26 1_555 1_555
C27 C22 1_555 1_555
C28 N3 1_555 1_555
C29 H31 1_555 1_555
H32 N4 1_555 1_555
C8 C9 1_555 1_555
C9 C10 1_555 1_555
C10 C11 1_555 1_555
C12 C13 1_555 1_555
C26 C27 1_555 1_555
C27 C28 1_555 1_555

#END
