
#######################################################################
#
#                 Cambridge Crystallographic Data Centre
#                                CCDC 
#
#######################################################################
#
# If this CIF has been generated from an entry in the Cambridge 
# Structural Database, then it will include bibliographic, chemical, 
# crystal, experimental, refinement or atomic coordinate data resulting 
# from the CCDC's data processing and validation procedures.
#
#######################################################################

data_DAZLAS
_chemical_formula_moiety         'C14 H12 N2 O3'
_chemical_name_systematic        
2'-(2-Hydroxybenzylidene)-2-hydroxybenzoylhydrazide
_symmetry_cell_setting           monoclinic
_symmetry_space_group_name_H-M   'P 21/c'
_symmetry_Int_Tables_number      14
_space_group_name_Hall           '-P 2ybc'
loop_
_symmetry_equiv_pos_site_id
_symmetry_equiv_pos_as_xyz
1 x,y,z
2 -x,1/2+y,1/2-z
3 -x,-y,-z
4 x,1/2-y,1/2+z
_cell_length_a                   18.838(3)
_cell_length_b                   5.2381(7)
_cell_length_c                   12.7092(18)
_cell_angle_alpha                90
_cell_angle_beta                 107.021(3)
_cell_angle_gamma                90
_cell_volume                     1199.15
_exptl_crystal_colour            yellow
_exptl_crystal_description       block
_cell_formula_units_Z            4
_exptl_crystal_recrystallization_method dimethylformamide
loop_
_atom_site_label
_atom_site_type_symbol
_atom_site_fract_x
_atom_site_fract_y
_atom_site_fract_z
O1 O 0.34147(6) 0.3170(2) 0.50184(8)
O2 O 0.29254(5) 0.33152(19) 0.16065(8)
O3 O 0.18258(7) -0.2424(3) 0.54126(9)
N1 N 0.28195(6) 0.1213(2) 0.34250(9)
N2 N 0.24292(6) -0.0435(2) 0.38960(8)
C1 C 0.32792(7) 0.2961(2) 0.40135(10)
C2 C 0.36345(7) 0.4736(2) 0.34003(9)
C3 C 0.41715(7) 0.6393(3) 0.40221(11)
C4 C 0.45121(8) 0.8170(3) 0.35409(13)
C5 C 0.43043(9) 0.8354(3) 0.24045(13)
C6 C 0.37805(8) 0.6749(3) 0.17704(12)
C7 C 0.34485(7) 0.4896(2) 0.22493(10)
C8 C 0.20289(7) -0.2036(3) 0.32237(12)
C9 C 0.15531(7) -0.3883(2) 0.35352(11)
C10 C 0.14667(8) -0.4008(3) 0.45859(12)
C11 C 0.09900(10) -0.5821(4) 0.48070(16)
C12 C 0.06120(10) -0.7476(3) 0.40017(19)
C13 C 0.06894(9) -0.7379(3) 0.29661(17)
C14 C 0.11568(8) -0.5592(3) 0.27336(14)
H1 H 0.2738(8) 0.115(3) 0.2750(14)
H2 H 0.3019(10) 0.294(4) 0.0991(18)
H3 H 0.4299(8) 0.631(3) 0.4825(13)
H4 H 0.4906(9) 0.924(3) 0.3971(13)
H5 H 0.4529(8) 0.960(3) 0.2085(13)
H6 H 0.3621(9) 0.686(3) 0.0990(16)
H7 H 0.2104(11) -0.142(4) 0.5171(19)
H8 H 0.2020(7) -0.209(2) 0.2484(13)
H9 H 0.0939(9) -0.580(4) 0.5530(17)
H10 H 0.0292(10) -0.873(4) 0.4166(16)
H11 H 0.0402(10) -0.861(4) 0.2439(16)
H12 H 0.1230(8) -0.556(3) 0.1954(13)
loop_
_geom_bond_atom_site_label_1
_geom_bond_atom_site_label_2
_geom_bond_site_symmetry_1
_geom_bond_site_symmetry_2
O1 C1 1_555 1_555
O2 C7 1_555 1_555
O3 C10 1_555 1_555
N1 N2 1_555 1_555
N2 C8 1_555 1_555
C1 N1 1_555 1_555
C2 C1 1_555 1_555
C3 C2 1_555 1_555
C4 C3 1_555 1_555
C5 C4 1_555 1_555
C6 C5 1_555 1_555
C7 C2 1_555 1_555
C8 C9 1_555 1_555
C9 C10 1_555 1_555
C10 C11 1_555 1_555
C11 C12 1_555 1_555
C12 C13 1_555 1_555
C13 C14 1_555 1_555
C14 C9 1_555 1_555
H1 N1 1_555 1_555
H2 O2 1_555 1_555
H3 C3 1_555 1_555
H4 C4 1_555 1_555
H5 C5 1_555 1_555
H6 C6 1_555 1_555
H7 O3 1_555 1_555
H8 C8 1_555 1_555
H9 C11 1_555 1_555
H10 C12 1_555 1_555
H11 C13 1_555 1_555
H12 C14 1_555 1_555
C6 C7 1_555 1_555

#END
