
#######################################################################
#
#                 Cambridge Crystallographic Data Centre
#                                CCDC 
#
#######################################################################
#
# If this CIF has been generated from an entry in the Cambridge 
# Structural Database, then it will include bibliographic, chemical, 
# crystal, experimental, refinement or atomic coordinate data resulting 
# from the CCDC's data processing and validation procedures.
#
#######################################################################

data_DAZPUS
_chemical_formula_moiety         'C43 H64'
_chemical_name_systematic        tris(3,5-di-t-butylphenyl)methane
_symmetry_cell_setting           cubic
_symmetry_space_group_name_H-M   'P a -3'
_symmetry_Int_Tables_number      205
_space_group_name_Hall           '-P 2ac 2ab 3'
loop_
_symmetry_equiv_pos_site_id
_symmetry_equiv_pos_as_xyz
1 x,y,z
2 1/2-x,-y,1/2+z
3 -x,1/2+y,1/2-z
4 1/2+x,1/2-y,-z
5 z,x,y
6 1/2+z,1/2-x,-y
7 1/2-z,-x,1/2+y
8 -z,1/2+x,1/2-y
9 y,z,x
10 -y,1/2+z,1/2-x
11 1/2+y,1/2-z,-x
12 1/2-y,-z,1/2+x
13 -x,-y,-z
14 1/2+x,y,1/2-z
15 x,1/2-y,1/2+z
16 1/2-x,1/2+y,z
17 -z,-x,-y
18 1/2-z,1/2+x,y
19 1/2+z,x,1/2-y
20 z,1/2-x,1/2+y
21 -y,-z,-x
22 y,1/2-z,1/2+x
23 1/2-y,1/2+z,x
24 1/2+y,z,1/2-x
_cell_length_a                   19.9175(3)
_cell_length_b                   19.9175(3)
_cell_length_c                   19.9175(3)
_cell_angle_alpha                90
_cell_angle_beta                 90
_cell_angle_gamma                90
_cell_volume                     7901.41
_exptl_crystal_colour            colorless
_exptl_crystal_description       blocks
_cell_formula_units_Z            8
loop_
_atom_site_label
_atom_site_type_symbol
_atom_site_fract_x
_atom_site_fract_y
_atom_site_fract_z
C1 C 0.44207(4) 0.44473(4) 0.31837(4)
C2 C 0.44545(4) 0.44545(4) 0.44545(4)
C3 C 0.43587(4) 0.55036(4) 0.37629(4)
C4 C 0.43038(4) 0.54705(4) 0.25610(4)
C5 C 0.44169(4) 0.48037(4) 0.37801(4)
C6 C 0.43056(4) 0.58484(4) 0.31580(4)
C7 C 0.43610(4) 0.47724(4) 0.25644(4)
C8 C 0.43735(5) 0.43425(4) 0.19291(4)
C9 C 0.42829(6) 0.47539(5) 0.12901(5)
C10 C 0.42230(6) 0.66120(4) 0.31507(5)
C11 C 0.50529(6) 0.39815(6) 0.18890(5)
C12 C 0.38099(6) 0.38183(6) 0.19602(5)
C13 C 0.45404(15) 0.69234(6) 0.25275(8)
C14 C 0.45638(11) 0.69434(6) 0.37500(8)
C15 C 0.34778(9) 0.67779(8) 0.31662(14)
H1 H 0.44747(12) 0.39057(9) 0.32037(10)
H2 H 0.47714(9) 0.47714(9) 0.47714(9)
H3 H 0.43554(12) 0.57726(10) 0.42378(10)
H4 H 0.42589(13) 0.57279(10) 0.20850(10)
H5 H 0.42944(18) 0.44228(14) 0.08537(12)
H6 H 0.38099(19) 0.35103(15) 0.15077(13)
H7 H 0.46800(19) 0.51213(13) 0.12266(13)
H8 H 0.38053(17) 0.50203(17) 0.12851(14)
H9 H 0.50799(18) 0.36717(15) 0.14379(15)
H10 H 0.4488(3) 0.74705(14) 0.25443(19)
H11 H 0.3865(2) 0.34855(15) 0.23861(14)
H12 H 0.54580(15) 0.43477(18) 0.18696(18)
H13 H 0.4510(3) 0.74867(14) 0.37148(18)
H14 H 0.51374(18) 0.36590(17) 0.23196(15)
H15 H 0.33224(16) 0.4062(2) 0.2000(2)
H16 H 0.5047(4) 0.6804(2) 0.2497(4)
H17 H 0.3397(2) 0.73181(19) 0.3173(3)
H18 H 0.5078(3) 0.6820(2) 0.3789(4)
H19 H 0.3243(3) 0.6568(3) 0.3614(5)
H20 H 0.4343(4) 0.67982(18) 0.42189(18)
H21 H 0.4309(5) 0.67665(18) 0.20782(17)
H22 H 0.3235(3) 0.6581(3) 0.2738(4)
C1D C 0.31837(4) 0.44207(4) 0.44473(4)
C3D C 0.37629(4) 0.43587(4) 0.55036(4)
C4D C 0.25610(4) 0.43038(4) 0.54705(4)
C5D C 0.37801(4) 0.44169(4) 0.48037(4)
C6D C 0.31580(4) 0.43056(4) 0.58484(4)
C7D C 0.25644(4) 0.43610(4) 0.47724(4)
C8D C 0.19291(4) 0.43735(5) 0.43425(4)
C9D C 0.12901(5) 0.42829(6) 0.47539(5)
C10D C 0.31507(5) 0.42230(6) 0.66120(4)
C11D C 0.18890(5) 0.50529(6) 0.39815(6)
C12D C 0.19602(5) 0.38099(6) 0.38183(6)
C13D C 0.25275(8) 0.45404(15) 0.69234(6)
C14D C 0.37500(8) 0.45638(11) 0.69434(6)
C15D C 0.31662(14) 0.34778(9) 0.67779(8)
H1D H 0.32037(10) 0.44747(12) 0.39057(9)
H3D H 0.42378(10) 0.43554(12) 0.57726(10)
H4D H 0.20850(10) 0.42589(13) 0.57279(10)
H5D H 0.08537(12) 0.42944(18) 0.44228(14)
H6D H 0.15077(13) 0.38099(19) 0.35103(15)
H7D H 0.12266(13) 0.46800(19) 0.51213(13)
H8D H 0.12851(14) 0.38053(17) 0.50203(17)
H9D H 0.14379(15) 0.50799(18) 0.36717(15)
H10D H 0.25443(19) 0.4488(3) 0.74705(14)
H11D H 0.23861(14) 0.3865(2) 0.34855(15)
H12D H 0.18696(18) 0.54580(15) 0.43477(18)
H13D H 0.37148(18) 0.4510(3) 0.74867(14)
H14D H 0.23196(15) 0.51374(18) 0.36590(17)
H15D H 0.2000(2) 0.33224(16) 0.4062(2)
H16D H 0.2497(4) 0.5047(4) 0.6804(2)
H17D H 0.3173(3) 0.3397(2) 0.73181(19)
H18D H 0.3789(4) 0.5078(3) 0.6820(2)
H19D H 0.3614(5) 0.3243(3) 0.6568(3)
H20D H 0.42189(18) 0.4343(4) 0.67982(18)
H21D H 0.20782(17) 0.4309(5) 0.67665(18)
H22D H 0.2738(4) 0.3235(3) 0.6581(3)
C1H C 0.44473(4) 0.31837(4) 0.44207(4)
C3H C 0.55036(4) 0.37629(4) 0.43587(4)
C4H C 0.54705(4) 0.25610(4) 0.43038(4)
C5H C 0.48037(4) 0.37801(4) 0.44169(4)
C6H C 0.58484(4) 0.31580(4) 0.43056(4)
C7H C 0.47724(4) 0.25644(4) 0.43610(4)
C8H C 0.43425(4) 0.19291(4) 0.43735(5)
C9H C 0.47539(5) 0.12901(5) 0.42829(6)
C10H C 0.66120(4) 0.31507(5) 0.42230(6)
C11H C 0.39815(6) 0.18890(5) 0.50529(6)
C12H C 0.38183(6) 0.19602(5) 0.38099(6)
C13H C 0.69234(6) 0.25275(8) 0.45404(15)
C14H C 0.69434(6) 0.37500(8) 0.45638(11)
C15H C 0.67779(8) 0.31662(14) 0.34778(9)
H1H H 0.39057(9) 0.32037(10) 0.44747(12)
H3H H 0.57726(10) 0.42378(10) 0.43554(12)
H4H H 0.57279(10) 0.20850(10) 0.42589(13)
H5H H 0.44228(14) 0.08537(12) 0.42944(18)
H6H H 0.35103(15) 0.15077(13) 0.38099(19)
H7H H 0.51213(13) 0.12266(13) 0.46800(19)
H8H H 0.50203(17) 0.12851(14) 0.38053(17)
H9H H 0.36717(15) 0.14379(15) 0.50799(18)
H10H H 0.74705(14) 0.25443(19) 0.4488(3)
H11H H 0.34855(15) 0.23861(14) 0.3865(2)
H12H H 0.43477(18) 0.18696(18) 0.54580(15)
H13H H 0.74867(14) 0.37148(18) 0.4510(3)
H14H H 0.36590(17) 0.23196(15) 0.51374(18)
H15H H 0.4062(2) 0.2000(2) 0.33224(16)
H16H H 0.6804(2) 0.2497(4) 0.5047(4)
H17H H 0.73181(19) 0.3173(3) 0.3397(2)
H18H H 0.6820(2) 0.3789(4) 0.5078(3)
H19H H 0.6568(3) 0.3614(5) 0.3243(3)
H20H H 0.67982(18) 0.42189(18) 0.4343(4)
H21H H 0.67665(18) 0.20782(17) 0.4309(5)
H22H H 0.6581(3) 0.2738(4) 0.3235(3)
loop_
_geom_bond_atom_site_label_1
_geom_bond_atom_site_label_2
_geom_bond_site_symmetry_1
_geom_bond_site_symmetry_2
C1 C5 1_555 1_555
C2 C5 1_555 1_555
C3 C5 1_555 1_555
C4 C6 1_555 1_555
C6 C3 1_555 1_555
C7 C1 1_555 1_555
C8 C7 1_555 1_555
C9 C8 1_555 1_555
C10 C6 1_555 1_555
C11 C8 1_555 1_555
C12 C8 1_555 1_555
C13 C10 1_555 1_555
C14 C10 1_555 1_555
C15 C10 1_555 1_555
H1 C1 1_555 1_555
H2 C2 1_555 1_555
H3 C3 1_555 1_555
H4 C4 1_555 1_555
H5 C9 1_555 1_555
H6 C12 1_555 1_555
H7 C9 1_555 1_555
H8 C9 1_555 1_555
H9 C11 1_555 1_555
H10 C13 1_555 1_555
H11 C12 1_555 1_555
H12 C11 1_555 1_555
H13 C14 1_555 1_555
H14 C11 1_555 1_555
H15 C12 1_555 1_555
H16 C13 1_555 1_555
H17 C15 1_555 1_555
H18 C14 1_555 1_555
H19 C15 1_555 1_555
H20 C14 1_555 1_555
H21 C13 1_555 1_555
H22 C15 1_555 1_555
C1D C5D 1_555 1_555
C3D C5D 1_555 1_555
C4D C6D 1_555 1_555
C5D C2 1_555 1_555
C6D C3D 1_555 1_555
C7D C1D 1_555 1_555
C8D C7D 1_555 1_555
C9D C8D 1_555 1_555
C10D C6D 1_555 1_555
C11D C8D 1_555 1_555
C12D C8D 1_555 1_555
C13D C10D 1_555 1_555
C14D C10D 1_555 1_555
C15D C10D 1_555 1_555
H1D C1D 1_555 1_555
H3D C3D 1_555 1_555
H4D C4D 1_555 1_555
H5D C9D 1_555 1_555
H6D C12D 1_555 1_555
H7D C9D 1_555 1_555
H8D C9D 1_555 1_555
H9D C11D 1_555 1_555
H10D C13D 1_555 1_555
H11D C12D 1_555 1_555
H12D C11D 1_555 1_555
H13D C14D 1_555 1_555
H14D C11D 1_555 1_555
H15D C12D 1_555 1_555
H16D C13D 1_555 1_555
H17D C15D 1_555 1_555
H18D C14D 1_555 1_555
H19D C15D 1_555 1_555
H20D C14D 1_555 1_555
H21D C13D 1_555 1_555
H22D C15D 1_555 1_555
C1H C5H 1_555 1_555
C3H C5H 1_555 1_555
C4H C6H 1_555 1_555
C5H C2 1_555 1_555
C6H C3H 1_555 1_555
C7H C1H 1_555 1_555
C8H C7H 1_555 1_555
C9H C8H 1_555 1_555
C10H C6H 1_555 1_555
C11H C8H 1_555 1_555
C12H C8H 1_555 1_555
C13H C10H 1_555 1_555
C14H C10H 1_555 1_555
C15H C10H 1_555 1_555
H1H C1H 1_555 1_555
H3H C3H 1_555 1_555
H4H C4H 1_555 1_555
H5H C9H 1_555 1_555
H6H C12H 1_555 1_555
H7H C9H 1_555 1_555
H8H C9H 1_555 1_555
H9H C11H 1_555 1_555
H10H C13H 1_555 1_555
H11H C12H 1_555 1_555
H12H C11H 1_555 1_555
H13H C14H 1_555 1_555
H14H C11H 1_555 1_555
H15H C12H 1_555 1_555
H16H C13H 1_555 1_555
H17H C15H 1_555 1_555
H18H C14H 1_555 1_555
H19H C15H 1_555 1_555
H20H C14H 1_555 1_555
H21H C13H 1_555 1_555
H22H C15H 1_555 1_555
C4 C7 1_555 1_555
C4D C7D 1_555 1_555
C4H C7H 1_555 1_555

#END
