
#######################################################################
#
#                 Cambridge Crystallographic Data Centre
#                                CCDC 
#
#######################################################################
#
# If this CIF has been generated from an entry in the Cambridge 
# Structural Database, then it will include bibliographic, chemical, 
# crystal, experimental, refinement or atomic coordinate data resulting 
# from the CCDC's data processing and validation procedures.
#
#######################################################################

data_DAZSUV
_chemical_formula_moiety         'C16 H13 Br1 F3 N1 O3'
_chemical_name_systematic        
4-bromo-2-(4,4,4-trifluoro-N,3-dihydroxy-3-phenylbutanimidoyl)phenol
_symmetry_cell_setting           orthorhombic
_symmetry_space_group_name_H-M   'P 21 21 21'
_symmetry_Int_Tables_number      19
_space_group_name_Hall           'P 2ac 2ab'
loop_
_symmetry_equiv_pos_site_id
_symmetry_equiv_pos_as_xyz
1 x,y,z
2 1/2-x,-y,1/2+z
3 -x,1/2+y,1/2-z
4 1/2+x,1/2-y,-z
_cell_length_a                   5.8132(14)
_cell_length_b                   8.851(2)
_cell_length_c                   31.166(8)
_cell_angle_alpha                90
_cell_angle_beta                 90
_cell_angle_gamma                90
_cell_volume                     1603.57
_exptl_crystal_colour            yellow
_exptl_crystal_description       block
_cell_formula_units_Z            4
_exptl_crystal_recrystallization_method Dichloromethane/Hexane
loop_
_atom_site_label
_atom_site_type_symbol
_atom_site_fract_x
_atom_site_fract_y
_atom_site_fract_z
Br1 Br 1.36407(9) -0.09123(5) 0.142604(18)
C1 C 1.1215(8) 0.0049(4) 0.17275(13)
C2 C 0.9983(8) -0.0758(5) 0.20233(15)
H1 H 1.0295 -0.1776 0.2068
C3 C 0.8310(9) -0.0061(4) 0.22499(14)
H2 H 0.7490 -0.0599 0.2456
C4 C 0.7799(7) 0.1460(4) 0.21782(13)
C5 C 0.9049(7) 0.2293(4) 0.18772(11)
C6 C 1.0779(8) 0.1545(4) 0.16528(13)
H3 H 1.1645 0.2067 0.1450
C7 C 0.8546(7) 0.3899(4) 0.17880(11)
C8 C 0.9675(6) 0.4783(4) 0.14358(12)
H4 H 1.1193 0.4369 0.1382
H5 H 0.9864 0.5823 0.1528
C9 C 0.8263(7) 0.4751(4) 0.10149(12)
C10 C 0.8938(9) 0.6144(4) 0.07506(14)
C11 C 0.8667(7) 0.3286(4) 0.07696(11)
C12 C 1.0710(7) 0.3001(5) 0.05660(13)
H6 H 1.1871 0.3724 0.0570
C13 C 1.1057(9) 0.1653(5) 0.03558(14)
H7 H 1.2436 0.1483 0.0213
C14 C 0.9399(8) 0.0564(5) 0.03556(14)
H8 H 0.9656 -0.0350 0.0216
C15 C 0.7344(8) 0.0822(5) 0.05619(15)
H9 H 0.6208 0.0082 0.0561
C16 C 0.6962(7) 0.2176(5) 0.07696(14)
H10 H 0.5573 0.2349 0.0909
F1 F 0.8198(6) 0.7402(3) 0.09482(9)
F2 F 0.7975(7) 0.6118(3) 0.03658(9)
F3 F 1.1164(6) 0.6295(3) 0.07008(9)
N1 N 0.6996(7) 0.4500(4) 0.20362(11)
O1 O 0.6077(6) 0.2081(3) 0.24215(10)
H11 H 0.5724 0.2908 0.2323
O2 O 0.5855(4) 0.4876(3) 0.10961(10)
H12 H 0.5645 0.5409 0.1308
O3 O 0.6538(7) 0.6007(3) 0.19343(10)
H13 H 0.5413 0.6297 0.2070
loop_
_geom_bond_atom_site_label_1
_geom_bond_atom_site_label_2
_geom_bond_site_symmetry_1
_geom_bond_site_symmetry_2
Br1 C1 1_555 1_555
C1 C2 1_555 1_555
C2 H1 1_555 1_555
C3 C2 1_555 1_555
H2 C3 1_555 1_555
C4 C3 1_555 1_555
C5 C4 1_555 1_555
C6 C1 1_555 1_555
H3 C6 1_555 1_555
C7 C5 1_555 1_555
C8 C7 1_555 1_555
H4 C8 1_555 1_555
H5 C8 1_555 1_555
C9 C8 1_555 1_555
C10 C9 1_555 1_555
C11 C9 1_555 1_555
C12 C11 1_555 1_555
H6 C12 1_555 1_555
C13 C12 1_555 1_555
H7 C13 1_555 1_555
C14 C13 1_555 1_555
H8 C14 1_555 1_555
C15 C14 1_555 1_555
H9 C15 1_555 1_555
C16 C11 1_555 1_555
H10 C16 1_555 1_555
F1 C10 1_555 1_555
F2 C10 1_555 1_555
F3 C10 1_555 1_555
N1 C7 1_555 1_555
O1 C4 1_555 1_555
H11 O1 1_555 1_555
O2 C9 1_555 1_555
H12 O2 1_555 1_555
O3 N1 1_555 1_555
H13 O3 1_555 1_555
C5 C6 1_555 1_555
C15 C16 1_555 1_555

#END
