
#######################################################################
#
#                 Cambridge Crystallographic Data Centre
#                                CCDC 
#
#######################################################################
#
# If this CIF has been generated from an entry in the Cambridge 
# Structural Database, then it will include bibliographic, chemical, 
# crystal, experimental, refinement or atomic coordinate data resulting 
# from the CCDC's data processing and validation procedures.
#
#######################################################################

data_DAZTUU
_chemical_formula_moiety         'C15 H8 N2 S1'
_chemical_name_systematic        
4,6-Dicyano-5-thiatricyclo(7.4.1.0^3,7^)tetradeca-1,3,6,8,10,12-hexaene
_symmetry_cell_setting           monoclinic
_symmetry_space_group_name_H-M   'P 21/c'
_symmetry_Int_Tables_number      14
_space_group_name_Hall           '-P 2ybc'
loop_
_symmetry_equiv_pos_site_id
_symmetry_equiv_pos_as_xyz
1 x,y,z
2 -x,1/2+y,1/2-z
3 -x,-y,-z
4 x,1/2-y,1/2+z
_cell_length_a                   6.163(2)
_cell_length_b                   15.507(1)
_cell_length_c                   12.233(1)
_cell_angle_alpha                90
_cell_angle_beta                 92.87(2)
_cell_angle_gamma                90
_cell_volume                     1167.64
_exptl_crystal_colour            orange
_exptl_crystal_description       prismatic
_chemical_melting_point          172-176deg.C
_cell_formula_units_Z            4
loop_
_atom_site_label
_atom_site_type_symbol
_atom_site_fract_x
_atom_site_fract_y
_atom_site_fract_z
S1 S 0.4182(1) -0.06775(4) 0.88458(5)
N1 N 0.9298(4) -0.1656(2) 0.7845(2)
N2 N -0.0452(4) 0.0869(2) 0.9167(2)
C1 C 0.6086(4) -0.0607(1) 0.7880(2)
C2 C 0.2906(4) 0.0223(2) 0.8324(2)
C3 C 0.3889(3) 0.0579(1) 0.7427(2)
C4 C 0.2975(3) 0.1277(2) 0.6774(2)
C5 C 0.4247(3) 0.1786(1) 0.6175(2)
C6 C 0.3572(4) 0.2269(2) 0.5204(2)
C7 C 0.4805(4) 0.2325(2) 0.4327(2)
C8 C 0.6737(4) 0.1835(2) 0.4068(2)
C9 C 0.7743(4) 0.1189(2) 0.4633(2)
C10 C 0.7257(3) 0.0988(1) 0.5747(2)
C11 C 0.7010(4) 0.0194(1) 0.6189(2)
C12 C 0.5780(3) 0.0080(1) 0.7159(2)
C13 C 0.6643(4) 0.1744(1) 0.6417(2)
C14 C 0.7851(4) -0.1200(2) 0.7867(2)
C15 C 0.1043(4) 0.0571(2) 0.8802(2)
H1 H 0.1455 0.1382 0.6765
H2 H 0.2210 0.2556 0.5184
H3 H 0.4351 0.2746 0.3800
H4 H 0.7377 0.1993 0.3406
H5 H 0.8806 0.0857 0.4287
H6 H 0.7650 -0.0292 0.5859
H7 H 0.6978 0.1649 0.7174
H8 H 0.7343 0.2256 0.6192
loop_
_geom_bond_atom_site_label_1
_geom_bond_atom_site_label_2
_geom_bond_site_symmetry_1
_geom_bond_site_symmetry_2
S1 C1 1_555 1_555
N1 C14 1_555 1_555
N2 C15 1_555 1_555
C1 C12 1_555 1_555
C2 S1 1_555 1_555
C3 C2 1_555 1_555
C4 C3 1_555 1_555
C5 C4 1_555 1_555
C6 C5 1_555 1_555
C7 C6 1_555 1_555
C8 C7 1_555 1_555
C9 C8 1_555 1_555
C10 C9 1_555 1_555
C11 C10 1_555 1_555
C12 C3 1_555 1_555
C13 C5 1_555 1_555
C14 C1 1_555 1_555
C15 C2 1_555 1_555
H1 C4 1_555 1_555
H2 C6 1_555 1_555
H3 C7 1_555 1_555
H4 C8 1_555 1_555
H5 C9 1_555 1_555
H6 C11 1_555 1_555
H7 C13 1_555 1_555
H8 C13 1_555 1_555
C10 C13 1_555 1_555
C11 C12 1_555 1_555

#END
