
#######################################################################
#
#                 Cambridge Crystallographic Data Centre
#                                CCDC 
#
#######################################################################
#
# If this CIF has been generated from an entry in the Cambridge 
# Structural Database, then it will include bibliographic, chemical, 
# crystal, experimental, refinement or atomic coordinate data resulting 
# from the CCDC's data processing and validation procedures.
#
#######################################################################

data_DAZVUY
_chemical_formula_moiety         'C12 H8 F3 N1 O3'
_chemical_name_systematic        
'2,2,2-trifluoroethyl 3-amino-1-oxo-1H-indene-2-carboxylate'
_symmetry_cell_setting           orthorhombic
_symmetry_space_group_name_H-M   'P n a 21'
_symmetry_Int_Tables_number      33
_space_group_name_Hall           'P 2c -2n'
loop_
_symmetry_equiv_pos_site_id
_symmetry_equiv_pos_as_xyz
1 x,y,z
2 -x,-y,1/2+z
3 1/2-x,1/2+y,1/2+z
4 1/2+x,1/2-y,z
_cell_length_a                   18.3137(12)
_cell_length_b                   12.4860(7)
_cell_length_c                   4.8092(4)
_cell_angle_alpha                90
_cell_angle_beta                 90
_cell_angle_gamma                90
_cell_volume                     1099.7
_exptl_crystal_colour            yellow
_exptl_crystal_description       needle
_cell_formula_units_Z            4
loop_
_atom_site_label
_atom_site_type_symbol
_atom_site_fract_x
_atom_site_fract_y
_atom_site_fract_z
F1 F -0.01577(15) 0.1242(2) -0.2263(8)
F2 F 0.0241(2) 0.1352(3) 0.1892(8)
F3 F 0.06021(16) 0.2430(2) -0.1149(11)
O1 O 0.28338(15) -0.17861(19) 0.4245(6)
O2 O 0.17739(16) -0.0981(2) 0.0218(7)
O3 O 0.16021(16) 0.0799(2) 0.0460(7)
N1 N 0.24898(18) 0.1987(2) 0.4024(8)
H1 H 0.216996 0.210335 0.269244
H2 H 0.267432 0.252896 0.495848
C1 C 0.3843(2) -0.0762(3) 0.8634(10)
H3 H 0.391683 -0.151542 0.867461
C2 C 0.4235(2) -0.0092(3) 1.0394(11)
H4 H 0.457968 -0.038726 1.165573
C3 C 0.4126(2) 0.1008(3) 1.0316(10)
H5 H 0.439484 0.145684 1.153623
C4 C 0.3628(2) 0.1462(3) 0.8481(10)
H6 H 0.355764 0.221495 0.841346
C5 C 0.3240(2) 0.0788(3) 0.6764(9)
C6 C 0.3352(2) -0.0318(3) 0.6852(9)
C7 C 0.2866(2) -0.0820(3) 0.4721(8)
C8 C 0.2467(2) 0.0040(2) 0.3396(10)
C9 C 0.2690(2) 0.1012(3) 0.4612(9)
C10 C 0.1944(2) -0.0136(3) 0.1274(10)
C11 C 0.1029(2) 0.0682(4) -0.1513(11)
H7 H 0.085005 -0.006569 -0.151690
H8 H 0.121001 0.085592 -0.340009
C12 C 0.0435(3) 0.1417(3) -0.0738(11)
loop_
_geom_bond_atom_site_label_1
_geom_bond_atom_site_label_2
_geom_bond_site_symmetry_1
_geom_bond_site_symmetry_2
F1 C12 1_555 1_555
F2 C12 1_555 1_555
F3 C12 1_555 1_555
O1 C7 1_555 1_555
O2 C10 1_555 1_555
O3 C10 1_555 1_555
N1 H1 1_555 1_555
H2 N1 1_555 1_555
C1 H3 1_555 1_555
C2 C1 1_555 1_555
H4 C2 1_555 1_555
C3 C2 1_555 1_555
H5 C3 1_555 1_555
C4 C3 1_555 1_555
H6 C4 1_555 1_555
C5 C4 1_555 1_555
C6 C1 1_555 1_555
C7 C6 1_555 1_555
C8 C7 1_555 1_555
C9 N1 1_555 1_555
C10 C8 1_555 1_555
C11 O3 1_555 1_555
H7 C11 1_555 1_555
H8 C11 1_555 1_555
C12 C11 1_555 1_555
C5 C6 1_555 1_555
C5 C9 1_555 1_555
C8 C9 1_555 1_555

#END
