
#######################################################################
#
#                 Cambridge Crystallographic Data Centre
#                                CCDC 
#
#######################################################################
#
# If this CIF has been generated from an entry in the Cambridge 
# Structural Database, then it will include bibliographic, chemical, 
# crystal, experimental, refinement or atomic coordinate data resulting 
# from the CCDC's data processing and validation procedures.
#
#######################################################################

data_DAZWAF
_chemical_formula_moiety         'C29 H42 N4 O9,C2 H6 O1 S1'
_chemical_name_systematic        
"N,N'-bis[2,4-bis(2-methylpropoxy)-5-nitrophenyl]urea dimethyl sulfoxide solvate"
_symmetry_cell_setting           monoclinic
_symmetry_space_group_name_H-M   'P 21/c'
_symmetry_Int_Tables_number      14
_space_group_name_Hall           '-P 2ybc'
loop_
_symmetry_equiv_pos_site_id
_symmetry_equiv_pos_as_xyz
1 x,y,z
2 -x,1/2+y,1/2-z
3 -x,-y,-z
4 x,1/2-y,1/2+z
_cell_length_a                   15.96905(13)
_cell_length_b                   20.99152(16)
_cell_length_c                   10.22172(8)
_cell_angle_alpha                90
_cell_angle_beta                 96.6779(7)
_cell_angle_gamma                90
_cell_volume                     3403.22
_cell_formula_units_Z            4
loop_
_atom_site_label
_atom_site_type_symbol
_atom_site_fract_x
_atom_site_fract_y
_atom_site_fract_z
C1 C 0.13707(8) 0.56689(6) 0.40609(12)
C2 C 0.07162(8) 0.57147(6) 0.48711(12)
C3 C 0.08604(8) 0.54480(6) 0.61315(12)
H1 H 0.0443 0.5473 0.6693
C4 C 0.16161(8) 0.51478(6) 0.65558(12)
C5 C 0.22767(8) 0.51172(6) 0.57478(12)
C6 C 0.21421(8) 0.53792(6) 0.45057(12)
H2 H 0.2567 0.5364 0.3957
C7 C -0.06164(8) 0.61312(6) 0.53365(13)
H3 H -0.0361 0.6386 0.6068
H4 H -0.0805 0.5732 0.5681
C8 C -0.13567(8) 0.64852(6) 0.46037(14)
H5 H -0.1603 0.6215 0.3877
C9 C -0.10850(10) 0.71116(7) 0.40247(16)
H6 H -0.0848 0.7386 0.4723
H7 H -0.1566 0.7315 0.3549
H8 H -0.0670 0.7028 0.3438
C10 C -0.20229(9) 0.65914(8) 0.55405(17)
H9 H -0.2169 0.6190 0.5905
H10 H -0.2516 0.6779 0.5066
H11 H -0.1802 0.6872 0.6239
C11 C 0.11407(8) 0.48111(6) 0.86021(12)
H12 H 0.0630 0.4640 0.8123
H13 H 0.1014 0.5227 0.8944
C12 C 0.14636(8) 0.43680(7) 0.97243(13)
H14 H 0.2011 0.4528 1.0125
C13 C 0.08510(11) 0.43807(8) 1.07668(15)
H15 H 0.0799 0.4809 1.1076
H16 H 0.1061 0.4112 1.1491
H17 H 0.0309 0.4230 1.0388
C14 C 0.15846(10) 0.36947(7) 0.92348(16)
H18 H 0.1054 0.3530 0.8838
H19 H 0.1797 0.3429 0.9962
H20 H 0.1979 0.3700 0.8595
C15 C 0.36467(8) 0.45812(6) 0.56312(12)
C16 C 0.49857(7) 0.39860(6) 0.60928(12)
C17 C 0.52579(8) 0.40208(6) 0.48596(12)
H21 H 0.4971 0.4276 0.4212
C18 C 0.59614(8) 0.36743(6) 0.45825(11)
C19 C 0.64149(7) 0.32791(6) 0.55227(12)
C20 C 0.61395(8) 0.32457(6) 0.67695(12)
H22 H 0.6429 0.2992 0.7417
C21 C 0.54362(8) 0.35892(6) 0.70506(12)
C22 C 0.75386(8) 0.25235(6) 0.60930(12)
H23 H 0.7171 0.2221 0.6460
H24 H 0.7830 0.2772 0.6807
C23 C 0.81687(8) 0.21787(6) 0.53365(12)
H25 H 0.7852 0.1935 0.4626
C24 C 0.87381(9) 0.26460(7) 0.47177(14)
H26 H 0.8398 0.2943 0.4174
H27 H 0.9096 0.2417 0.4190
H28 H 0.9079 0.2873 0.5400
C25 C 0.86898(9) 0.17113(7) 0.62403(14)
H29 H 0.9045 0.1943 0.6897
H30 H 0.9032 0.1457 0.5730
H31 H 0.8319 0.1439 0.6662
C26 C 0.52921(8) 0.30886(7) 0.91857(13)
H32 H 0.5491 0.3261 1.0046
H33 H 0.5725 0.2808 0.8921
C27 C 0.44885(9) 0.27137(7) 0.92646(13)
H34 H 0.4613 0.2382 0.9934
C28 C 0.41993(12) 0.23817(8) 0.79635(16)
H35 H 0.4032 0.2695 0.7301
H36 H 0.3730 0.2109 0.8072
H37 H 0.4654 0.2132 0.7698
C29 C 0.37940(10) 0.31318(7) 0.97010(16)
H38 H 0.3994 0.3337 1.0518
H39 H 0.3312 0.2874 0.9819
H40 H 0.3638 0.3449 0.9041
N1 N 0.13000(7) 0.59430(5) 0.27487(10)
N2 N 0.30301(7) 0.48341(5) 0.63080(10)
H41 H 0.3114 0.4817 0.7154
N3 N 0.42971(7) 0.43247(5) 0.64749(10)
H42 H 0.4279 0.4377 0.7306
N4 N 0.61975(7) 0.37311(5) 0.32594(10)
O1 O 0.06288(7) 0.61507(7) 0.22401(11)
O2 O 0.19363(7) 0.59685(7) 0.21858(11)
O3 O -0.00128(5) 0.60108(4) 0.44181(9)
O4 O 0.17923(5) 0.48640(4) 0.77438(9)
O5 O 0.36210(6) 0.45804(5) 0.44318(9)
O6 O 0.56478(6) 0.38896(5) 0.23681(9)
O7 O 0.69308(6) 0.36242(5) 0.30616(9)
O8 O 0.70597(6) 0.29336(4) 0.51540(9)
O9 O 0.51422(6) 0.36045(4) 0.82427(8)
C30 C 0.39315(9) 0.48071(7) 1.15335(12)
H43 H 0.4009 0.5117 1.2228
H44 H 0.4359 0.4485 1.1679
H45 H 0.3386 0.4614 1.1522
C31 C 0.31455(8) 0.57306(6) 1.00343(13)
H46 H 0.2640 0.5495 1.0123
H47 H 0.3072 0.5974 0.9234
H48 H 0.3262 0.6013 1.0771
O10 O 0.37161(6) 0.46988(5) 0.89528(9)
S1 S 0.40069(2) 0.51894(2) 0.99887(3)
loop_
_geom_bond_atom_site_label_1
_geom_bond_atom_site_label_2
_geom_bond_site_symmetry_1
_geom_bond_site_symmetry_2
C1 C2 1_555 1_555
C2 C3 1_555 1_555
C3 H1 1_555 1_555
C4 C3 1_555 1_555
C5 C4 1_555 1_555
C6 C1 1_555 1_555
H2 C6 1_555 1_555
C7 H3 1_555 1_555
H4 C7 1_555 1_555
C8 C7 1_555 1_555
H5 C8 1_555 1_555
C9 C8 1_555 1_555
H6 C9 1_555 1_555
H7 C9 1_555 1_555
H8 C9 1_555 1_555
C10 C8 1_555 1_555
H9 C10 1_555 1_555
H10 C10 1_555 1_555
H11 C10 1_555 1_555
C11 H12 1_555 1_555
H13 C11 1_555 1_555
C12 C11 1_555 1_555
H14 C12 1_555 1_555
C13 C12 1_555 1_555
H15 C13 1_555 1_555
H16 C13 1_555 1_555
H17 C13 1_555 1_555
C14 C12 1_555 1_555
H18 C14 1_555 1_555
H19 C14 1_555 1_555
H20 C14 1_555 1_555
C15 N2 1_555 1_555
C16 C17 1_555 1_555
C17 H21 1_555 1_555
C18 C17 1_555 1_555
C19 C18 1_555 1_555
C20 C19 1_555 1_555
H22 C20 1_555 1_555
C21 C16 1_555 1_555
C22 H23 1_555 1_555
H24 C22 1_555 1_555
C23 C22 1_555 1_555
H25 C23 1_555 1_555
C24 C23 1_555 1_555
H26 C24 1_555 1_555
H27 C24 1_555 1_555
H28 C24 1_555 1_555
C25 C23 1_555 1_555
H29 C25 1_555 1_555
H30 C25 1_555 1_555
H31 C25 1_555 1_555
C26 H32 1_555 1_555
H33 C26 1_555 1_555
C27 C26 1_555 1_555
H34 C27 1_555 1_555
C28 C27 1_555 1_555
H35 C28 1_555 1_555
H36 C28 1_555 1_555
H37 C28 1_555 1_555
C29 C27 1_555 1_555
H38 C29 1_555 1_555
H39 C29 1_555 1_555
H40 C29 1_555 1_555
N1 C1 1_555 1_555
N2 C5 1_555 1_555
H41 N2 1_555 1_555
N3 C15 1_555 1_555
H42 N3 1_555 1_555
N4 C18 1_555 1_555
O1 N1 1_555 1_555
O2 N1 1_555 1_555
O3 C2 1_555 1_555
O4 C4 1_555 1_555
O5 C15 1_555 1_555
O6 N4 1_555 1_555
O7 N4 1_555 1_555
O8 C19 1_555 1_555
O9 C21 1_555 1_555
C30 H43 1_555 1_555
H44 C30 1_555 1_555
H45 C30 1_555 1_555
C31 H46 1_555 1_555
H47 C31 1_555 1_555
H48 C31 1_555 1_555
O10 S1 1_555 1_555
S1 C30 1_555 1_555
C5 C6 1_555 1_555
C7 O3 1_555 1_555
C11 O4 1_555 1_555
C16 N3 1_555 1_555
C20 C21 1_555 1_555
C22 O8 1_555 1_555
C26 O9 1_555 1_555
C31 S1 1_555 1_555

#END
