
#######################################################################
#
#                 Cambridge Crystallographic Data Centre
#                                CCDC 
#
#######################################################################
#
# If this CIF has been generated from an entry in the Cambridge 
# Structural Database, then it will include bibliographic, chemical, 
# crystal, experimental, refinement or atomic coordinate data resulting 
# from the CCDC's data processing and validation procedures.
#
#######################################################################

data_DAZZEK
_chemical_formula_moiety         'C10 H6 S2'
_chemical_name_systematic        Benzo(1,2-b:4,5-b')dithiophene
_symmetry_cell_setting           triclinic
_symmetry_space_group_name_H-M   'P -1'
_symmetry_Int_Tables_number      2
_space_group_name_Hall           '-P 1'
loop_
_symmetry_equiv_pos_site_id
_symmetry_equiv_pos_as_xyz
1 x,y,z
2 -x,-y,-z
_cell_length_a                   5.842(2)
_cell_length_b                   7.803(2)
_cell_length_c                   9.580(5)
_cell_angle_alpha                98.06(3)
_cell_angle_beta                 100.15(3)
_cell_angle_gamma                91.75(3)
_cell_volume                     424.94
_exptl_crystal_colour            colorless
_exptl_crystal_description       plate
_chemical_melting_point          199-201deg.C
_cell_formula_units_Z            2
_exptl_crystal_recrystallization_method sublimation
loop_
_atom_site_label
_atom_site_type_symbol
_atom_site_fract_x
_atom_site_fract_y
_atom_site_fract_z
S1 S 0.8219(1) 0.4486(1) -0.32910(7)
C1 C 1.0748(5) 0.3449(4) -0.3478(3)
C2 C 1.2191(4) 0.3355(3) -0.2234(3)
C3 C 1.1239(4) 0.4163(3) -0.1000(2)
C4 C 0.9042(4) 0.4839(3) -0.1436(2)
C5 C 1.2216(4) 0.4330(3) 0.0449(3)
H1 H 1.1076 0.2999 -0.4399
H2 H 1.3657 0.2807 -0.2159
H3 H 1.3702 0.3890 0.0761
S1A S 1.1781(1) 0.5514(1) 0.32910(7)
C1A C 0.9252(5) 0.6551(4) 0.3478(3)
C2A C 0.7809(4) 0.6645(3) 0.2234(3)
C3A C 0.8761(4) 0.5837(3) 0.1000(2)
C4A C 1.0958(4) 0.5161(3) 0.1436(2)
C5A C 0.7784(4) 0.5670(3) -0.0449(3)
H1A H 0.8924 0.7001 0.4399
H2A H 0.6343 0.7193 0.2159
H3A H 0.6298 0.6110 -0.0761
S2 S 0.3222(2) 0.8104(1) -0.3071(1)
C6 C 0.5764(7) 0.8926(5) -0.3484(4)
C7 C 0.7197(3) 0.9820(3) -0.2547(2)
C8 C 0.6228(4) 1.0033(3) -0.1114(3)
C9 C 0.4020(4) 0.9100(3) -0.1330(3)
C10 C 0.7208(4) 1.0929(3) 0.0210(3)
H4 H 0.6044 0.8692 -0.4442
H5 H 0.8661 1.0300 -0.2674
H6 H 0.8672 1.1553 0.0351
S2A S 0.6778(2) 1.1896(1) 0.3071(1)
C6A C 0.4236(7) 1.1074(5) 0.3484(4)
C7A C 0.2803(3) 1.0180(3) 0.2547(2)
C8A C 0.3772(4) 0.9967(3) 0.1114(3)
C9A C 0.5980(4) 1.0900(3) 0.1330(3)
C10A C 0.2792(4) 0.9071(3) -0.0210(3)
H4A H 0.3956 1.1308 0.4442
H5A H 0.1339 0.9700 0.2674
H6A H 0.1328 0.8447 -0.0351
loop_
_geom_bond_atom_site_label_1
_geom_bond_atom_site_label_2
_geom_bond_site_symmetry_1
_geom_bond_site_symmetry_2
S1 C1 1_555 1_555
S2 C6 1_555 1_555
C1 C2 1_555 1_555
C2 C3 1_555 1_555
C3 C4 1_555 1_555
C4 S1 1_555 1_555
C5 C3 1_555 1_555
C6 C7 1_555 1_555
C7 C8 1_555 1_555
C8 C9 1_555 1_555
C9 S2 1_555 1_555
C10 C8 1_555 1_555
H1 C1 1_555 1_555
H2 C2 1_555 1_555
H3 C5 1_555 1_555
H4 C6 1_555 1_555
H5 C7 1_555 1_555
H6 C10 1_555 1_555
S1A C1A 1_555 1_555
S2A C6A 1_555 1_555
C1A C2A 1_555 1_555
C2A C3A 1_555 1_555
C3A C4A 1_555 1_555
C4A C5 1_555 1_555
C5A C4 1_555 1_555
C6A C7A 1_555 1_555
C7A C8A 1_555 1_555
C8A C9A 1_555 1_555
C9A C10 1_555 1_555
C10A C9 1_555 1_555
H1A C1A 1_555 1_555
H2A C2A 1_555 1_555
H3A C5A 1_555 1_555
H4A C6A 1_555 1_555
H5A C7A 1_555 1_555
H6A C10A 1_555 1_555
S1A C4A 1_555 1_555
S2A C9A 1_555 1_555
C3A C5A 1_555 1_555
C8A C10A 1_555 1_555

#END
