
#######################################################################
#
#                 Cambridge Crystallographic Data Centre
#                                CCDC 
#
#######################################################################
#
# If this CIF has been generated from an entry in the Cambridge 
# Structural Database, then it will include bibliographic, chemical, 
# crystal, experimental, refinement or atomic coordinate data resulting 
# from the CCDC's data processing and validation procedures.
#
#######################################################################

data_DBOCHM
_chemical_formula_moiety         'C25 H38 Br2 O3'
_chemical_name_systematic        
'11\b,12\b-Dibromo-3\a,9-oxidocholanic acid methyl ester'
_symmetry_cell_setting           orthorhombic
_symmetry_space_group_name_H-M   'P 21 21 21'
_symmetry_Int_Tables_number      19
_space_group_name_Hall           'P 2ac 2ab'
loop_
_symmetry_equiv_pos_site_id
_symmetry_equiv_pos_as_xyz
1 x,y,z
2 1/2+x,1/2-y,-z
3 -x,1/2+y,1/2-z
4 1/2-x,-y,1/2+z
_cell_length_a                   11.005(7)
_cell_length_b                   31.383(13)
_cell_length_c                   7.133(4)
_cell_angle_alpha                90
_cell_angle_beta                 90
_cell_angle_gamma                90
_cell_volume                     2463.52
_cell_formula_units_Z            4
loop_
_atom_site_label
_atom_site_type_symbol
_atom_site_fract_x
_atom_site_fract_y
_atom_site_fract_z
Br1 Br -0.16050 0.16270 0.06950
Br2 Br 0.04310 0.14590 -0.27960
C1 C -0.34170 0.26000 -0.07950
C2 C -0.40870 0.21760 -0.10830
C3 C -0.18990 0.17920 -0.19710
C4 C -0.13610 0.15010 -0.33270
C5 C -0.19540 0.10280 -0.36050
C6 C -0.32730 0.11620 -0.41740
C7 C -0.38070 0.07070 -0.48600
C8 C -0.27060 0.05250 -0.58770
C9 C -0.15680 0.07820 -0.54490
C10 C -0.18990 0.07460 -0.17590
C11 C -0.44020 0.19630 0.08750
C12 C -0.31010 0.27860 -0.27990
C13 C -0.02800 0.05440 -0.54100
C14 C -0.00370 0.04680 -0.74900
C15 C -0.03670 0.00890 -0.45690
C16 C 0.10130 -0.00120 -0.40060
C17 C 0.11780 -0.04870 -0.40060
C18 C 0.22840 -0.10910 -0.25170
C19 C -0.36180 0.25100 -0.42920
C20 C -0.50570 0.24760 -0.40110
C21 C -0.53670 0.22420 -0.20850
C22 C -0.60300 0.18050 -0.23050
C23 C -0.53080 0.14740 -0.35400
C24 C -0.40180 0.14140 -0.28010
C25 C -0.33510 0.18530 -0.24010
O1 O 0.03990 -0.07700 -0.44810
O2 O 0.19700 -0.06360 -0.28930
O3 O -0.32350 0.20670 -0.42090
loop_
_geom_bond_atom_site_label_1
_geom_bond_atom_site_label_2
_geom_bond_site_symmetry_1
_geom_bond_site_symmetry_2
Br1 C3 1_555 1_555
Br2 C4 1_555 1_555
C1 C2 1_555 1_555
C2 C11 1_555 1_555
C3 C4 1_555 1_555
C4 C5 1_555 1_555
C5 C6 1_555 1_555
C6 C7 1_555 1_555
C7 C8 1_555 1_555
C8 C9 1_555 1_555
C9 C5 1_555 1_555
C10 C5 1_555 1_555
C12 C1 1_555 1_555
C13 C9 1_555 1_555
C14 C13 1_555 1_555
C15 C13 1_555 1_555
C16 C15 1_555 1_555
C17 C16 1_555 1_555
C18 O2 1_555 1_555
C19 C12 1_555 1_555
C20 C19 1_555 1_555
C21 C2 1_555 1_555
C22 C21 1_555 1_555
C23 C22 1_555 1_555
C24 C6 1_555 1_555
C25 C2 1_555 1_555
O1 C17 1_555 1_555
O2 C17 1_555 1_555
O3 C19 1_555 1_555
C3 C25 1_555 1_555
C20 C21 1_555 1_555
C23 C24 1_555 1_555
C24 C25 1_555 1_555
C25 O3 1_555 1_555

#END
