
#######################################################################
#
#                 Cambridge Crystallographic Data Centre
#                                CCDC 
#
#######################################################################
#
# If this CIF has been generated from an entry in the Cambridge 
# Structural Database, then it will include bibliographic, chemical, 
# crystal, experimental, refinement or atomic coordinate data resulting 
# from the CCDC's data processing and validation procedures.
#
#######################################################################

data_DBPREG
_chemical_formula_moiety         'C21 H31 Br1 O4'
_chemical_name_systematic        
3\b,17\a-Dihydroxy-21-bromo-5\a-pregnan-11,20-dione
_symmetry_cell_setting           monoclinic
_symmetry_space_group_name_H-M   'P 21'
_symmetry_Int_Tables_number      4
_space_group_name_Hall           'P 2yb'
loop_
_symmetry_equiv_pos_site_id
_symmetry_equiv_pos_as_xyz
1 x,y,z
2 -x,1/2+y,-z
_cell_length_a                   12.039(2)
_cell_length_b                   10.875(1)
_cell_length_c                   7.605(2)
_cell_angle_alpha                90
_cell_angle_beta                 97.55(1)
_cell_angle_gamma                90
_cell_volume                     987.046
_cell_formula_units_Z            2
loop_
_atom_site_label
_atom_site_type_symbol
_atom_site_fract_x
_atom_site_fract_y
_atom_site_fract_z
Br1 Br -0.27800 0.25000 -0.21380
C1 C 0.47400 0.04470 0.08270
C2 C 0.44130 0.10520 0.25060
C3 C 0.24430 0.16660 0.07660
C4 C 0.12220 0.15150 0.05340
C5 C 0.07580 0.19390 0.21890
C6 C 0.13580 0.12600 0.38230
C7 C 0.06490 0.15560 0.52920
C8 C -0.05790 0.17510 0.43350
C9 C -0.04780 0.15820 0.23340
C10 C 0.09110 0.33370 0.23610
C11 C 0.48590 0.23800 0.27410
C12 C 0.60210 0.01870 0.10060
C13 C -0.13090 0.23280 0.11470
C14 C -0.15080 0.19440 -0.07760
C15 C 0.63850 -0.06290 0.26120
C16 C 0.61270 0.00300 0.42860
C17 C 0.48280 0.02440 0.41260
C18 C 0.44510 0.06830 0.58410
C19 C 0.31560 0.06640 0.56760
C20 C 0.25980 0.14280 0.40900
C21 C 0.31030 0.10190 0.23840
O1 O 0.29180 0.23170 -0.02400
O2 O -0.06350 0.03320 0.18150
O3 O -0.17930 0.31790 0.17000
O4 O 0.75540 -0.08830 0.27790
loop_
_geom_bond_atom_site_label_1
_geom_bond_atom_site_label_2
_geom_bond_site_symmetry_1
_geom_bond_site_symmetry_2
Br1 C14 1_555 1_555
C1 C2 1_555 1_555
C2 C11 1_555 1_555
C3 C4 1_555 1_555
C4 C5 1_555 1_555
C5 C6 1_555 1_555
C6 C7 1_555 1_555
C7 C8 1_555 1_555
C8 C9 1_555 1_555
C9 C5 1_555 1_555
C10 C5 1_555 1_555
C12 C1 1_555 1_555
C13 C9 1_555 1_555
C14 C13 1_555 1_555
C15 C12 1_555 1_555
C16 C15 1_555 1_555
C17 C2 1_555 1_555
C18 C17 1_555 1_555
C19 C18 1_555 1_555
C20 C6 1_555 1_555
C21 C2 1_555 1_555
O1 C3 1_555 1_555
O2 C9 1_555 1_555
O3 C13 1_555 1_555
O4 C15 1_555 1_555
C3 C21 1_555 1_555
C16 C17 1_555 1_555
C19 C20 1_555 1_555
C20 C21 1_555 1_555

#END
