
#######################################################################
#
#                 Cambridge Crystallographic Data Centre
#                                CCDC 
#
#######################################################################
#
# If this CIF has been generated from an entry in the Cambridge 
# Structural Database, then it will include bibliographic, chemical, 
# crystal, experimental, refinement or atomic coordinate data resulting 
# from the CCDC's data processing and validation procedures.
#
#######################################################################

data_DBTHPS01
_chemical_formula_moiety         'C12 H8 O2 S1'
_chemical_name_systematic        'Dibenzo[b,d]thiophene 5,5-dioxide'
_symmetry_cell_setting           monoclinic
_symmetry_space_group_name_H-M   'C 2/c'
_symmetry_Int_Tables_number      15
_space_group_name_Hall           '-C 2yn'
loop_
_symmetry_equiv_pos_site_id
_symmetry_equiv_pos_as_xyz
1 x,y,z
2 -x,y,1/2-z
3 1/2+x,1/2+y,z
4 1/2-x,1/2+y,1/2-z
5 -x,-y,-z
6 x,-y,1/2+z
7 1/2-x,1/2-y,-z
8 1/2+x,1/2-y,1/2+z
_cell_length_a                   10.043(2)
_cell_length_b                   13.844(3)
_cell_length_c                   7.0241(14)
_cell_angle_alpha                90
_cell_angle_beta                 91.34(3)
_cell_angle_gamma                90
_cell_volume                     976.331
_exptl_crystal_colour            colorless
_exptl_crystal_description       strip
_cell_formula_units_Z            4
loop_
_atom_site_label
_atom_site_type_symbol
_atom_site_fract_x
_atom_site_fract_y
_atom_site_fract_z
S1 S 0.5000 0.29514(10) 0.2500
O1 O 0.5228(3) 0.2411(2) 0.0789(3)
C1 C 0.3748(4) 0.3827(3) 0.2088(4)
C2 C 0.2425(4) 0.3643(3) 0.1632(4)
H1 H 0.2093 0.3002 0.1549
C3 C 0.1605(4) 0.4432(3) 0.1302(5)
H2 H 0.0692 0.4337 0.0969
C4 C 0.2114(4) 0.5366(3) 0.1456(4)
H3 H 0.1537 0.5899 0.1234
C5 C 0.3445(4) 0.5537(3) 0.1927(4)
H4 H 0.3777 0.6178 0.2024
C6 C 0.4287(4) 0.4748(3) 0.2255(4)
O1A O 0.4772(3) 0.2411(2) 0.4211(3)
C1A C 0.6252(4) 0.3827(3) 0.2912(4)
C2A C 0.7575(4) 0.3643(3) 0.3368(4)
H1A H 0.7907 0.3002 0.3451
C3A C 0.8395(4) 0.4432(3) 0.3698(5)
H2A H 0.9308 0.4337 0.4031
C4A C 0.7886(4) 0.5366(3) 0.3544(4)
H3A H 0.8463 0.5899 0.3766
C5A C 0.6555(4) 0.5537(3) 0.3073(4)
H4A H 0.6223 0.6178 0.2976
C6A C 0.5713(4) 0.4748(3) 0.2745(4)
loop_
_geom_bond_atom_site_label_1
_geom_bond_atom_site_label_2
_geom_bond_site_symmetry_1
_geom_bond_site_symmetry_2
S1 O1 1_555 1_555
C1 S1 1_555 1_555
C2 C1 1_555 1_555
H1 C2 1_555 1_555
C3 C2 1_555 1_555
H2 C3 1_555 1_555
C4 C3 1_555 1_555
H3 C4 1_555 1_555
C5 C4 1_555 1_555
H4 C5 1_555 1_555
C6 C1 1_555 1_555
O1A S1 1_555 1_555
C1A S1 1_555 1_555
C2A C1A 1_555 1_555
H1A C2A 1_555 1_555
C3A C2A 1_555 1_555
H2A C3A 1_555 1_555
C4A C3A 1_555 1_555
H3A C4A 1_555 1_555
C5A C4A 1_555 1_555
H4A C5A 1_555 1_555
C6A C6 1_555 1_555
C5 C6 1_555 1_555
C1A C6A 1_555 1_555
C5A C6A 1_555 1_555

#END
