
#######################################################################
#
#                 Cambridge Crystallographic Data Centre
#                                CCDC 
#
#######################################################################
#
# If this CIF has been generated from an entry in the Cambridge 
# Structural Database, then it will include bibliographic, chemical, 
# crystal, experimental, refinement or atomic coordinate data resulting 
# from the CCDC's data processing and validation procedures.
#
#######################################################################

data_DCLANA
_chemical_formula_moiety         'C7 H5 Cl2 N1 O2'
_chemical_name_systematic        '3,5-Dichloroanthranilic acid'
_symmetry_cell_setting           monoclinic
_symmetry_space_group_name_H-M   'P 21/a'
_symmetry_Int_Tables_number      14
_space_group_name_Hall           '-P 2yab'
loop_
_symmetry_equiv_pos_site_id
_symmetry_equiv_pos_as_xyz
1 x,y,z
2 1/2-x,1/2+y,-z
3 -x,-y,-z
4 1/2+x,1/2-y,z
_cell_length_a                   12.490
_cell_length_b                   17.020
_cell_length_c                   3.800
_cell_angle_alpha                90
_cell_angle_beta                 92.70
_cell_angle_gamma                90
_cell_volume                     806.906
_cell_formula_units_Z            4
loop_
_atom_site_label
_atom_site_type_symbol
_atom_site_fract_x
_atom_site_fract_y
_atom_site_fract_z
Cl1 Cl 0.49820 0.13040 0.65860
Cl2 Cl 0.25290 0.36020 0.10260
C1 C 0.19370 0.12950 0.22880
C2 C 0.29880 0.10230 0.38210
C3 C 0.37630 0.16350 0.45930
C4 C 0.36060 0.23980 0.37030
C5 C 0.26780 0.26240 0.22180
C6 C 0.18660 0.21080 0.14540
C7 C 0.11180 0.07480 0.12970
N1 N 0.31440 0.02950 0.48260
O1 O 0.11370 0.00600 0.22540
O2 O 0.02800 0.10530 -0.03090
loop_
_geom_bond_atom_site_label_1
_geom_bond_atom_site_label_2
_geom_bond_site_symmetry_1
_geom_bond_site_symmetry_2
Cl1 C3 1_555 1_555
Cl2 C5 1_555 1_555
C1 C2 1_555 1_555
C2 C3 1_555 1_555
C3 C4 1_555 1_555
C4 C5 1_555 1_555
C5 C6 1_555 1_555
C6 C1 1_555 1_555
C7 C1 1_555 1_555
N1 C2 1_555 1_555
O1 C7 1_555 1_555
O2 C7 1_555 1_555

#END
