
#######################################################################
#
#                 Cambridge Crystallographic Data Centre
#                                CCDC 
#
#######################################################################
#
# If this CIF has been generated from an entry in the Cambridge 
# Structural Database, then it will include bibliographic, chemical, 
# crystal, experimental, refinement or atomic coordinate data resulting 
# from the CCDC's data processing and validation procedures.
#
#######################################################################

data_DEBBAO
_chemical_formula_moiety         'C23 H20 N2 Se1'
_chemical_name_systematic        
(Z)-Phenyl-N-2-(prop-1-ynyl)phenyl-2-(pyridin-4-yl)-propaneselenoimidate
_symmetry_cell_setting           monoclinic
_symmetry_space_group_name_H-M   'P 21/c'
_symmetry_Int_Tables_number      14
_space_group_name_Hall           '-P 2ybc'
loop_
_symmetry_equiv_pos_site_id
_symmetry_equiv_pos_as_xyz
1 x,y,z
2 -x,1/2+y,1/2-z
3 -x,-y,-z
4 x,1/2-y,1/2+z
_cell_length_a                   22.0841(7)
_cell_length_b                   10.4436(3)
_cell_length_c                   17.3447(5)
_cell_angle_alpha                90
_cell_angle_beta                 105.705(2)
_cell_angle_gamma                90
_cell_volume                     3851
_exptl_crystal_colour            'pale yellow'
_exptl_crystal_description       block
_chemical_melting_point          90-92deg.C
_cell_formula_units_Z            8
loop_
_atom_site_label
_atom_site_type_symbol
_atom_site_fract_x
_atom_site_fract_y
_atom_site_fract_z
N1 N 0.46367(5) -0.00738(11) 0.24855(7)
C1 C 0.50039(6) -0.00047(14) 0.32928(9)
C2 C 0.50219(6) -0.10584(13) 0.38006(8)
C3 C 0.54341(7) -0.10356(15) 0.45764(9)
H1 H 0.5448 -0.1745 0.4923
C4 C 0.58202(7) 0.00122(16) 0.48401(9)
H2 H 0.6099 0.0018 0.5364
C5 C 0.57967(7) 0.10558(15) 0.43335(9)
H3 H 0.6059 0.1777 0.4516
C6 C 0.53940(7) 0.10532(14) 0.35650(9)
H4 H 0.5383 0.1769 0.3223
C7 C 0.41763(6) 0.06584(13) 0.21905(8)
C8 C 0.38072(6) 0.05370(13) 0.13144(8)
H5 H 0.3679 0.1415 0.1103
C9 C 0.42038(7) -0.00651(15) 0.08035(9)
H6 H 0.4567 0.0483 0.0820
H7 H 0.3947 -0.0149 0.0249
H8 H 0.4350 -0.0913 0.1016
C10 C 0.32132(6) -0.02366(14) 0.12628(8)
C11 C 0.26195(7) 0.02538(15) 0.08938(8)
H9 H 0.2575 0.1090 0.0670
C12 C 0.20928(7) -0.04954(17) 0.08578(9)
H10 H 0.1691 -0.0140 0.0609
N2 N 0.21149(6) -0.16827(14) 0.11501(8)
C13 C 0.26879(7) -0.21482(16) 0.15005(10)
H11 H 0.2717 -0.2992 0.1712
C14 C 0.32443(7) -0.14743(14) 0.15750(9)
H12 H 0.3639 -0.1850 0.1834
Se1 Se 0.388348(7) 0.187921(16) 0.286448(9)
C15 C 0.32179(6) 0.27894(13) 0.21185(8)
C16 C 0.26029(7) 0.26405(14) 0.21712(9)
H13 H 0.2513 0.2042 0.2538
C17 C 0.21219(7) 0.33699(16) 0.16864(9)
H14 H 0.1703 0.3269 0.1723
C18 C 0.22510(8) 0.42442(15) 0.11504(10)
H15 H 0.1921 0.4740 0.0819
C19 C 0.28628(8) 0.43926(15) 0.10993(9)
H16 H 0.2951 0.4991 0.0731
C20 C 0.33480(7) 0.36726(14) 0.15820(9)
H17 H 0.3767 0.3781 0.1547
C21 C 0.46269(6) -0.21626(14) 0.35445(9)
C22 C 0.43189(7) -0.31137(14) 0.33829(9)
C23 C 0.39549(9) -0.42915(17) 0.31746(12)
H18 H 0.3639 -0.4180 0.2660
H19 H 0.3744 -0.4488 0.3590
H20 H 0.4237 -0.4997 0.3134
N3 N 0.04651(5) 0.22986(12) 0.25785(7)
C24 C 0.01317(6) 0.21754(14) 0.17589(9)
C25 C 0.01097(6) 0.32214(14) 0.12422(9)
C26 C -0.02531(7) 0.31219(15) 0.04418(9)
H21 H -0.0270 0.3823 0.0088
C27 C -0.05854(8) 0.20188(17) 0.01628(10)
H22 H -0.0824 0.1956 -0.0381
C28 C -0.05669(8) 0.10002(17) 0.06852(10)
H23 H -0.0798 0.0243 0.0496
C29 C -0.02169(7) 0.10739(16) 0.14777(10)
H24 H -0.0214 0.0376 0.1830
C30 C 0.09170(6) 0.15660(13) 0.29119(8)
C31 C 0.12579(7) 0.17429(14) 0.37941(8)
H25 H 0.1403 0.0882 0.4023
C32 C 0.08171(8) 0.22920(17) 0.42593(10)
H26 H 0.1052 0.2425 0.4820
H27 H 0.0472 0.1690 0.4233
H28 H 0.0646 0.3111 0.4022
C33 C 0.18366(6) 0.25761(14) 0.38683(8)
C34 C 0.24380(7) 0.21143(16) 0.42304(9)
H29 H 0.2496 0.1261 0.4426
C35 C 0.29511(7) 0.29182(18) 0.43022(9)
H30 H 0.3357 0.2588 0.4553
N4 N 0.29102(6) 0.41238(15) 0.40412(8)
C36 C 0.23301(8) 0.45477(16) 0.36817(10)
H31 H 0.2288 0.5398 0.3480
C37 C 0.17868(7) 0.38295(15) 0.35843(9)
H32 H 0.1387 0.4186 0.3328
Se2 Se 0.123527(7) 0.029394(15) 0.229677(8)
C38 C 0.18194(7) -0.06633(13) 0.31148(8)
C39 C 0.24447(7) -0.07311(15) 0.31022(10)
H33 H 0.2587 -0.0253 0.2719
C40 C 0.28622(8) -0.15042(17) 0.36551(11)
H34 H 0.3288 -0.1572 0.3639
C41 C 0.26604(9) -0.21715(17) 0.42255(11)
H35 H 0.2949 -0.2684 0.4607
C42 C 0.20373(9) -0.20955(16) 0.42427(10)
H36 H 0.1901 -0.2545 0.4642
C43 C 0.16112(7) -0.13636(15) 0.36777(9)
H37 H 0.1181 -0.1341 0.3675
C44 C 0.04460(7) 0.43848(14) 0.15233(9)
C45 C 0.07187(7) 0.53673(14) 0.17323(9)
C46 C 0.10444(9) 0.65710(16) 0.20091(11)
H38 H 0.0735 0.7261 0.1957
H39 H 0.1332 0.6772 0.1684
H40 H 0.1284 0.6486 0.2572
loop_
_geom_bond_atom_site_label_1
_geom_bond_atom_site_label_2
_geom_bond_site_symmetry_1
_geom_bond_site_symmetry_2
N1 C1 1_555 1_555
C1 C2 1_555 1_555
C2 C3 1_555 1_555
C3 H1 1_555 1_555
C4 C3 1_555 1_555
H2 C4 1_555 1_555
C5 C4 1_555 1_555
H3 C5 1_555 1_555
C6 C1 1_555 1_555
H4 C6 1_555 1_555
C7 N1 1_555 1_555
C8 C7 1_555 1_555
H5 C8 1_555 1_555
C9 C8 1_555 1_555
H6 C9 1_555 1_555
H7 C9 1_555 1_555
H8 C9 1_555 1_555
C10 C8 1_555 1_555
C11 C10 1_555 1_555
H9 C11 1_555 1_555
C12 C11 1_555 1_555
H10 C12 1_555 1_555
N2 C12 1_555 1_555
C13 N2 1_555 1_555
H11 C13 1_555 1_555
C14 C10 1_555 1_555
H12 C14 1_555 1_555
Se1 C7 1_555 1_555
C15 Se1 1_555 1_555
C16 C15 1_555 1_555
H13 C16 1_555 1_555
C17 C16 1_555 1_555
H14 C17 1_555 1_555
C18 C17 1_555 1_555
H15 C18 1_555 1_555
C19 C18 1_555 1_555
H16 C19 1_555 1_555
C20 C15 1_555 1_555
H17 C20 1_555 1_555
C21 C2 1_555 1_555
C22 C21 1_555 1_555
C23 C22 1_555 1_555
H18 C23 1_555 1_555
H19 C23 1_555 1_555
H20 C23 1_555 1_555
N3 C24 1_555 1_555
C24 C25 1_555 1_555
C25 C26 1_555 1_555
C26 H21 1_555 1_555
C27 C26 1_555 1_555
H22 C27 1_555 1_555
C28 C27 1_555 1_555
H23 C28 1_555 1_555
C29 C24 1_555 1_555
H24 C29 1_555 1_555
C30 N3 1_555 1_555
C31 C30 1_555 1_555
H25 C31 1_555 1_555
C32 C31 1_555 1_555
H26 C32 1_555 1_555
H27 C32 1_555 1_555
H28 C32 1_555 1_555
C33 C31 1_555 1_555
C34 C33 1_555 1_555
H29 C34 1_555 1_555
C35 C34 1_555 1_555
H30 C35 1_555 1_555
N4 C35 1_555 1_555
C36 N4 1_555 1_555
H31 C36 1_555 1_555
C37 C33 1_555 1_555
H32 C37 1_555 1_555
Se2 C30 1_555 1_555
C38 Se2 1_555 1_555
C39 C38 1_555 1_555
H33 C39 1_555 1_555
C40 C39 1_555 1_555
H34 C40 1_555 1_555
C41 C40 1_555 1_555
H35 C41 1_555 1_555
C42 C41 1_555 1_555
H36 C42 1_555 1_555
C43 C38 1_555 1_555
H37 C43 1_555 1_555
C44 C25 1_555 1_555
C45 C44 1_555 1_555
C46 C45 1_555 1_555
H38 C46 1_555 1_555
H39 C46 1_555 1_555
H40 C46 1_555 1_555
C5 C6 1_555 1_555
C13 C14 1_555 1_555
C19 C20 1_555 1_555
C28 C29 1_555 1_555
C36 C37 1_555 1_555
C42 C43 1_555 1_555

#END
