
#######################################################################
#
#                 Cambridge Crystallographic Data Centre
#                                CCDC 
#
#######################################################################
#
# If this CIF has been generated from an entry in the Cambridge 
# Structural Database, then it will include bibliographic, chemical, 
# crystal, experimental, refinement or atomic coordinate data resulting 
# from the CCDC's data processing and validation procedures.
#
#######################################################################

data_DEBGUP
_chemical_formula_moiety         'C13 H12 O3'
_chemical_name_systematic        
'methyl 6-phenyl-2-oxabicyclo[3.1.0]hex-3-ene-6-carboxylate'
_symmetry_cell_setting           orthorhombic
_symmetry_space_group_name_H-M   'P 21 21 21'
_symmetry_Int_Tables_number      19
_space_group_name_Hall           'P 2ac 2ab'
loop_
_symmetry_equiv_pos_site_id
_symmetry_equiv_pos_as_xyz
1 x,y,z
2 1/2-x,-y,1/2+z
3 -x,1/2+y,1/2-z
4 1/2+x,1/2-y,-z
_cell_length_a                   8.1779(2)
_cell_length_b                   8.8079(2)
_cell_length_c                   15.2085(3)
_cell_angle_alpha                90
_cell_angle_beta                 90
_cell_angle_gamma                90
_cell_volume                     1095.47
_exptl_crystal_colour            colorless
_exptl_crystal_description       prism
_cell_formula_units_Z            4
loop_
_atom_site_label
_atom_site_type_symbol
_atom_site_fract_x
_atom_site_fract_y
_atom_site_fract_z
O1 O 0.33178(14) 0.52283(14) 0.60691(8)
O2 O 0.79306(15) 0.72863(14) 0.74520(7)
O3 O 0.29193(14) 0.74647(15) 0.67401(8)
C1 C 0.5645(2) 0.6689(2) 0.63990(11)
C2 C 0.6260(2) 0.7491(2) 0.72297(11)
C3 C 0.66197(19) 0.54744(19) 0.59554(11)
C4 C 0.3834(2) 0.65291(19) 0.64257(11)
C5 C 0.7924(2) 0.8659(2) 0.61900(12)
C6 C 0.6833(2) 0.5494(2) 0.50463(11)
C7 C 0.6177(2) 0.8387(2) 0.63941(12)
C8 C 0.7243(2) 0.4268(2) 0.64381(13)
C9 C 0.8828(2) 0.7994(2) 0.67986(12)
C10 C 0.8255(2) 0.3102(2) 0.51144(14)
C11 C 0.7637(2) 0.4306(2) 0.46309(13)
C12 C 0.8055(2) 0.3084(2) 0.60205(14)
C13 C 0.1557(2) 0.4998(2) 0.60893(15)
H1 H 0.555(2) 0.761(2) 0.7748(13)
H2 H 0.638(3) 0.633(2) 0.4697(13)
H3 H 0.539(3) 0.912(2) 0.6269(12)
H4 H 1.003(3) 0.791(2) 0.6865(12)
H5 H 0.103(3) 0.574(3) 0.5709(15)
H6 H 0.118(2) 0.509(2) 0.6704(14)
H7 H 0.709(3) 0.422(2) 0.7076(14)
H8 H 0.834(3) 0.920(2) 0.5692(14)
H9 H 0.846(3) 0.221(3) 0.6364(14)
H10 H 0.136(3) 0.398(3) 0.5855(15)
H11 H 0.773(3) 0.432(2) 0.4005(15)
H12 H 0.880(3) 0.227(3) 0.4826(14)
loop_
_geom_bond_atom_site_label_1
_geom_bond_atom_site_label_2
_geom_bond_site_symmetry_1
_geom_bond_site_symmetry_2
O1 C4 1_555 1_555
O2 C2 1_555 1_555
O3 C4 1_555 1_555
C1 C2 1_555 1_555
C2 C7 1_555 1_555
C3 C1 1_555 1_555
C4 C1 1_555 1_555
C5 C7 1_555 1_555
C6 C3 1_555 1_555
C7 C1 1_555 1_555
C8 C3 1_555 1_555
C9 O2 1_555 1_555
C10 C11 1_555 1_555
C11 C6 1_555 1_555
C12 C8 1_555 1_555
C13 O1 1_555 1_555
H1 C2 1_555 1_555
H2 C6 1_555 1_555
H3 C7 1_555 1_555
H4 C9 1_555 1_555
H5 C13 1_555 1_555
H6 C13 1_555 1_555
H7 C8 1_555 1_555
H8 C5 1_555 1_555
H9 C12 1_555 1_555
H10 C13 1_555 1_555
H11 C11 1_555 1_555
H12 C10 1_555 1_555
C5 C9 1_555 1_555
C10 C12 1_555 1_555

#END
