
#######################################################################
#
#                 Cambridge Crystallographic Data Centre
#                                CCDC 
#
#######################################################################
#
# If this CIF has been generated from an entry in the Cambridge 
# Structural Database, then it will include bibliographic, chemical, 
# crystal, experimental, refinement or atomic coordinate data resulting 
# from the CCDC's data processing and validation procedures.
#
#######################################################################

data_DEBJUS
_chemical_formula_moiety         'C21 H19 Br1 N2 O6'
_chemical_name_systematic        
'dimethyl N-[(3-bromophenyl)methylidene]-4-[(4-nitrophenyl)methylidene]glutamate'
_symmetry_cell_setting           triclinic
_symmetry_space_group_name_H-M   'P 1'
_symmetry_Int_Tables_number      1
_space_group_name_Hall           'P 1'
loop_
_symmetry_equiv_pos_site_id
_symmetry_equiv_pos_as_xyz
1 x,y,z
_cell_length_a                   7.040(9)
_cell_length_b                   7.063(9)
_cell_length_c                   10.762(13)
_cell_angle_alpha                83.24(2)
_cell_angle_beta                 79.64(2)
_cell_angle_gamma                79.50(2)
_cell_volume                     515.586
_cell_formula_units_Z            1
loop_
_atom_site_label
_atom_site_type_symbol
_atom_site_fract_x
_atom_site_fract_y
_atom_site_fract_z
O1 O 0.6206(12) 0.3789(12) -0.1649(8)
C1 C 0.7608(14) -0.1842(16) 0.1855(10)
H1 H 0.8949 -0.1832 0.1691
O2 O 0.0749(14) -0.2813(14) -0.1212(8)
C2 C 0.4673(12) 0.0129(13) -0.1593(9)
H2 H 0.5181 -0.0127 -0.2467
H3 H 0.5780 0.0030 -0.1153
O3 O 0.2033(13) -0.0881(13) -0.2801(8)
N1 N 0.7557(17) -0.1457(15) 0.4105(11)
C3 C 0.4666(15) -0.2112(13) 0.1141(10)
C4 C 0.4797(14) 0.3571(15) -0.2262(8)
C5 C 0.6606(14) -0.2026(15) 0.0903(10)
H4 H 0.7275 -0.2094 0.0078
C6 C 0.1305(14) 0.3182(14) 0.2344(9)
H5 H 0.2648 0.3149 0.2110
C7 C 0.3520(12) 0.2181(13) -0.1561(9)
H6 H 0.2375 0.2267 -0.1978
N2 N 0.2863(11) 0.2620(11) -0.0252(8)
C8 C 0.6538(16) -0.1668(15) 0.3090(10)
C9 C 0.1109(14) 0.2663(13) 0.0125(9)
H7 H 0.0318 0.2491 -0.0444
C10 C 0.3439(12) -0.1380(12) -0.0986(9)
C11 C 0.1925(14) -0.1787(13) -0.1651(10)
C12 C 0.3441(13) -0.2292(13) 0.0193(10)
H8 H 0.2553 -0.3146 0.0440
O4 O 0.9319(16) -0.1508(19) 0.3873(11)
C13 C 0.060(2) -0.116(2) -0.3510(13)
H9 H 0.0995 -0.2385 -0.3867
H10 H 0.0487 -0.0144 -0.4180
H11 H -0.0634 -0.1150 -0.2963
C14 C 0.7510(18) 0.5027(18) -0.2276(13)
H12 H 0.8449 0.4356 -0.2906
H13 H 0.8178 0.5420 -0.1671
H14 H 0.6789 0.6147 -0.2677
O5 O 0.469(2) 0.429(2) -0.3325(11)
C15 C 0.463(2) -0.179(2) 0.3339(13)
H15 H 0.3963 -0.1688 0.4162
C16 C 0.0198(14) 0.2979(12) 0.1447(10)
O6 O 0.666(3) -0.124(3) 0.5127(10)
C17 C 0.3662(18) -0.206(2) 0.2408(13)
H16 H 0.2352 -0.2200 0.2598
C18 C -0.1764(17) 0.3009(16) 0.1776(14)
H17 H -0.2507 0.2844 0.1176
C19 C -0.2645(16) 0.3290(17) 0.3020(12)
H18 H -0.3995 0.3377 0.3242
C20 C -0.1526(18) 0.3442(16) 0.3935(12)
H19 H -0.2124 0.3546 0.4773
C21 C 0.0421(18) 0.3440(14) 0.3617(11)
Br1 Br 0.19455(9) 0.36629(10) 0.48062(8)
loop_
_geom_bond_atom_site_label_1
_geom_bond_atom_site_label_2
_geom_bond_site_symmetry_1
_geom_bond_site_symmetry_2
O1 C4 1_555 1_555
C1 H1 1_555 1_555
O2 C11 1_555 1_555
C2 H2 1_555 1_555
H3 C2 1_555 1_555
O3 C11 1_555 1_555
N1 C8 1_555 1_555
C3 C5 1_555 1_555
C4 C7 1_555 1_555
C5 C1 1_555 1_555
H4 C5 1_555 1_555
C6 H5 1_555 1_555
C7 C2 1_555 1_555
H6 C7 1_555 1_555
N2 C7 1_555 1_555
C8 C1 1_555 1_555
C9 N2 1_555 1_555
H7 C9 1_555 1_555
C10 C2 1_555 1_555
C11 C10 1_555 1_555
C12 C3 1_555 1_555
H8 C12 1_555 1_555
O4 N1 1_555 1_555
C13 O3 1_555 1_555
H9 C13 1_555 1_555
H10 C13 1_555 1_555
H11 C13 1_555 1_555
C14 O1 1_555 1_555
H12 C14 1_555 1_555
H13 C14 1_555 1_555
H14 C14 1_555 1_555
O5 C4 1_555 1_555
C15 C8 1_555 1_555
H15 C15 1_555 1_555
C16 C6 1_555 1_555
O6 N1 1_555 1_555
C17 C3 1_555 1_555
H16 C17 1_555 1_555
C18 C16 1_555 1_555
H17 C18 1_555 1_555
C19 C18 1_555 1_555
H18 C19 1_555 1_555
C20 C19 1_555 1_555
H19 C20 1_555 1_555
C21 C6 1_555 1_555
Br1 C21 1_555 1_555
C9 C16 1_555 1_555
C10 C12 1_555 1_555
C15 C17 1_555 1_555
C20 C21 1_555 1_555

#END
