
#######################################################################
#
#                 Cambridge Crystallographic Data Centre
#                                CCDC 
#
#######################################################################
#
# If this CIF has been generated from an entry in the Cambridge 
# Structural Database, then it will include bibliographic, chemical, 
# crystal, experimental, refinement or atomic coordinate data resulting 
# from the CCDC's data processing and validation procedures.
#
#######################################################################

data_DEBKED
_chemical_formula_moiety         'C45 H10 F20 S4,C4 H8'
_chemical_name_systematic        
'5-methyl-2,7,12,17-tetrakis(pentafluorophenyl)-4,21,22,23-tetrathiapentacyclo[16.2.1.1^3,6^.1^8,11^.1^13,16^]tetracosa-1,3(24),5,7,9,11,13,15,17,19-decaene 2-methylprop-1-ene solvate'
_symmetry_cell_setting           triclinic
_symmetry_space_group_name_H-M   'P -1'
_symmetry_Int_Tables_number      2
_space_group_name_Hall           '-P 1'
loop_
_symmetry_equiv_pos_site_id
_symmetry_equiv_pos_as_xyz
1 x,y,z
2 -x,-y,-z
_cell_length_a                   9.507(7)
_cell_length_b                   16.556(12)
_cell_length_c                   27.301(19)
_cell_angle_alpha                87.915(12)
_cell_angle_beta                 89.873(14)
_cell_angle_gamma                89.924(13)
_cell_volume                     4294.26
_exptl_crystal_colour            brown
_exptl_crystal_description       rectangular
_cell_formula_units_Z            4
loop_
_atom_site_label
_atom_site_type_symbol
_atom_site_fract_x
_atom_site_fract_y
_atom_site_fract_z
S1 S 0.25117(19) 0.62116(11) 1.03875(5)
S2 S 0.2783(2) 0.63563(11) 0.90900(6)
S3 S 0.16202(19) 0.48496(12) 0.97435(6)
S4 S 0.4402(2) 0.87113(14) 1.00478(7)
F1 F 0.3805(4) 0.8130(2) 0.78963(12)
F2 F 0.4505(4) 0.4520(3) 1.15062(14)
F3 F 0.3419(4) 0.9391(3) 0.72824(12)
F4 F 0.0732(4) 0.9292(3) 0.90315(13)
F5 F 0.1512(4) 0.9196(3) 1.08064(13)
F6 F 0.0502(4) 0.3529(3) 0.89504(13)
F7 F 0.5207(4) 0.7524(3) 1.14108(14)
F8 F 0.1696(4) 1.0616(3) 0.75232(14)
F9 F 0.0398(4) 1.0574(3) 0.84105(15)
F10 F 0.0819(4) 0.3251(3) 1.06730(15)
F11 F 0.3699(4) 0.4780(3) 0.78316(14)
F12 F 0.2170(5) 1.0293(3) 1.14755(16)
F13 F 0.3456(4) 0.3511(3) 0.72600(13)
F14 F 0.5825(4) 0.8619(3) 1.20745(14)
F15 F 0.4313(5) 1.0009(3) 1.21112(16)
F16 F 0.0184(5) 0.2307(3) 0.83547(16)
F17 F 0.2929(5) 0.1973(3) 1.20414(16)
F18 F 0.1644(5) 0.2291(3) 0.74933(15)
F19 F 0.4637(5) 0.3273(3) 1.21428(14)
F20 F 0.1030(5) 0.1962(3) 1.12973(19)
C1 C 0.2322(7) 0.7183(4) 0.8704(2)
C2 C 0.3304(7) 0.8310(4) 1.1093(2)
C3 C 0.2582(7) 0.9034(4) 1.1116(2)
C4 C 0.2362(7) 0.7784(4) 0.9783(2)
H1 H 0.1581 0.7446 0.9790
C5 C 0.2917(7) 0.8707(4) 0.8033(2)
C6 C 0.2315(7) 0.4840(4) 0.8773(2)
C7 C 0.2647(7) 0.3944(4) 1.1067(2)
C8 C 0.2736(7) 0.9354(5) 0.7716(2)
C9 C 0.2452(7) 0.5741(4) 1.1313(2)
H2 H 0.2364 0.5425 1.1600
C10 C 0.2978(7) 0.8145(4) 0.9342(2)
C11 C 0.2235(7) 0.8645(4) 0.8487(2)
C12 C 0.2474(7) 0.5403(4) 1.0830(2)
C13 C 0.2559(7) 0.4626(4) 1.0699(2)
C14 C 0.1226(7) 0.3547(4) 0.8525(2)
C15 C 0.2571(7) 0.6558(5) 1.1312(2)
H3 H 0.2561 0.6846 1.1598
C16 C 0.1395(7) 0.9302(5) 0.8596(2)
C17 C 0.1205(7) 0.9953(4) 0.8284(2)
C18 C 0.4062(7) 0.8678(5) 0.9423(2)
C19 C 0.2479(7) 0.7966(5) 0.8839(2)
C20 C 0.3113(7) 0.8017(4) 1.0201(2)
C21 C 0.2711(7) 0.4425(4) 1.0177(2)
C22 C 0.2678(7) 0.4546(4) 0.9275(2)
C23 C 0.2109(7) 0.4217(4) 0.8410(2)
C24 C 0.1733(7) 0.6076(5) 0.8227(2)
H4 H 0.1424 0.5814 0.7952
C25 C 0.3612(7) 0.3916(5) 1.1446(2)
C26 C 0.4396(7) 0.8192(4) 1.1423(2)
C27 C 0.2685(8) 0.3523(5) 0.7672(2)
C28 C 0.1865(7) 0.9974(5) 0.7836(2)
C29 C 0.2975(7) 0.7730(4) 1.0709(2)
C30 C 0.1747(7) 0.6879(5) 0.8252(2)
H5 H 0.1414 0.7220 0.8000
C31 C 0.3743(7) 0.4044(5) 0.9436(2)
H6 H 0.4368 0.3781 0.9234
C32 C 0.2713(7) 0.6949(4) 1.0831(2)
C33 C 0.1794(8) 0.3256(5) 1.1030(2)
C34 C 0.1810(9) 0.2916(5) 0.7790(2)
C35 C 0.4751(7) 0.8753(5) 1.1759(2)
C36 C 0.2239(7) 0.5641(4) 0.8665(2)
C37 C 0.2825(7) 0.4184(5) 0.7973(2)
C38 C 0.3716(8) 0.3268(5) 1.1772(2)
C39 C 0.4002(8) 0.9454(5) 1.1782(3)
C40 C 0.3757(8) 0.3981(5) 0.9978(2)
H7 H 0.4403 0.3674 1.0160
C41 C 0.1876(8) 0.2608(5) 1.1342(3)
C42 C 0.1066(8) 0.2913(5) 0.8230(3)
C43 C 0.2893(8) 0.9602(5) 1.1450(3)
C44 C 0.2849(9) 0.2615(5) 1.1719(3)
C45 C 0.4982(9) 0.9175(6) 0.9078(3)
H8 H 0.5338 0.8840 0.8826
H9 H 0.5754 0.9393 0.9256
H10 H 0.4440 0.9609 0.8931
S5 S 0.75130(19) 0.87867(11) 0.46113(5)
S6 S 0.7784(2) 0.86444(11) 0.59102(6)
S7 S 0.66183(19) 1.01496(12) 0.52569(6)
S8 S 0.9403(2) 0.62868(14) 0.49543(6)
F21 F 0.8420(4) 0.5604(3) 0.77170(12)
F22 F 0.5725(4) 0.5707(2) 0.59700(13)
F23 F 0.6517(4) 0.5802(3) 0.41957(13)
F24 F 0.8803(4) 0.6867(3) 0.70983(13)
F25 F 1.0208(4) 0.7473(3) 0.35891(14)
F26 F 0.5505(4) 1.1467(3) 0.60523(13)
F27 F 0.9509(4) 1.0471(3) 0.34956(14)
F28 F 0.6701(4) 0.4377(3) 0.74766(14)
F29 F 0.5391(4) 0.4421(3) 0.65927(15)
F30 F 0.8692(4) 1.0215(3) 0.71655(13)
F31 F 0.5812(4) 1.1750(3) 0.43267(15)
F32 F 1.0823(4) 0.6378(3) 0.29253(14)
F33 F 0.8446(5) 1.1497(3) 0.77392(13)
F34 F 0.9312(5) 0.4993(3) 0.28904(15)
F35 F 0.9629(5) 1.1732(3) 0.28551(14)
F36 F 0.7175(5) 0.4708(3) 0.35244(17)
F37 F 0.6632(5) 1.2709(3) 0.75079(15)
F38 F 0.7925(5) 1.3026(3) 0.29643(16)
F39 F 0.5176(5) 1.2688(3) 0.66482(15)
F40 F 0.6035(5) 1.3036(3) 0.37023(19)
C46 C 0.7356(6) 0.7212(4) 0.5215(2)
H11 H 0.6574 0.7550 0.5205
C47 C 0.7555(7) 1.0375(4) 0.4304(2)
C48 C 0.7321(6) 1.0161(4) 0.6227(2)
C49 C 0.7452(7) 0.9257(4) 0.3687(2)
H12 H 0.7351 0.9574 0.3401
C50 C 0.7572(7) 0.8447(4) 0.3686(2)
H13 H 0.7573 0.8158 0.3400
C51 C 0.8315(7) 0.6681(4) 0.3911(2)
C52 C 0.7654(7) 1.1057(4) 0.3934(2)
C53 C 0.7734(7) 0.5644(4) 0.7287(2)
C54 C 0.9065(7) 0.6311(4) 0.5575(2)
C55 C 0.7980(7) 0.6852(4) 0.5664(2)
C56 C 0.8109(7) 0.6972(4) 0.4805(2)
C57 C 0.7093(6) 1.0799(4) 0.6587(2)
C58 C 0.6207(7) 0.5043(4) 0.6715(2)
C59 C 0.6873(8) 0.5017(4) 0.7163(2)
C60 C 0.7975(7) 0.7272(5) 0.4294(2)
C61 C 0.7581(7) 0.5960(5) 0.3881(2)
C62 C 0.7227(7) 0.6351(4) 0.6518(2)
C63 C 0.6227(7) 1.1456(4) 0.6478(2)
C64 C 0.7488(7) 0.7040(4) 0.6165(2)
C65 C 0.6395(7) 0.5702(5) 0.6408(2)
C66 C 0.6736(7) 0.8923(5) 0.6770(2)
H14 H 0.6417 0.9187 0.7044
C67 C 0.7905(7) 0.6285(4) 0.6967(2)
C68 C 0.7237(7) 0.9354(4) 0.6338(2)
C69 C 0.7492(7) 0.9597(5) 0.4173(2)
C70 C 0.7663(7) 1.0450(4) 0.5723(2)
C71 C 0.7718(7) 1.0576(4) 0.4818(2)
C72 C 0.8623(7) 1.1092(4) 0.3557(2)
C73 C 0.8705(8) 1.1738(5) 0.3229(2)
C74 C 0.7308(7) 0.7812(5) 0.6297(2)
C75 C 0.6758(7) 0.8117(4) 0.6751(2)
H15 H 0.6447 0.7779 0.7008
C76 C 0.7822(7) 1.0819(5) 0.7023(2)
C77 C 0.7697(7) 0.8065(4) 0.4169(2)
C78 C 0.9731(7) 0.6240(5) 0.3243(2)
C79 C 0.9410(7) 0.6815(5) 0.3578(2)
C80 C 0.8751(7) 1.1017(5) 0.5028(2)
H16 H 0.9406 1.1322 0.4849
C81 C 0.6072(8) 1.2094(4) 0.6772(2)
C82 C 0.7895(8) 0.5394(5) 0.3550(3)
C83 C 0.7851(9) 1.2383(5) 0.3280(2)
C84 C 0.6805(8) 1.2094(5) 0.7211(3)
C85 C 0.7695(7) 1.1467(5) 0.7325(2)
C86 C 0.6880(8) 1.2391(5) 0.3653(3)
C87 C 0.6795(7) 1.1734(5) 0.3971(2)
C88 C 0.8723(7) 1.0960(5) 0.5561(2)
H17 H 0.9335 1.1230 0.5764
C89 C 0.9003(8) 0.5550(5) 0.3218(2)
C90 C 0.9975(9) 0.5834(6) 0.5922(3)
H18 H 1.0233 0.6162 0.6190
H19 H 1.0808 0.5665 0.5755
H20 H 0.9471 0.5367 0.6045
C91 C 0.7892(8) 0.4116(6) 0.5889(3)
H21 H 0.8399 0.4303 0.6153
C92 C 0.7287(10) 0.3893(7) 0.5574(4)
C93 C 0.6705(11) 0.4406(7) 0.5135(3)
H22 H 0.5699 0.4362 0.5128
H23 H 0.7091 0.4214 0.4836
H24 H 0.6964 0.4961 0.5170
C94 C 0.6898(12) 0.3015(8) 0.5528(4)
H25 H 0.7216 0.2711 0.5813
H26 H 0.7335 0.2809 0.5241
H27 H 0.5895 0.2968 0.5502
C95 C 0.2888(8) 0.0884(5) 0.9116(3)
H28 H 0.3385 0.0680 0.8854
C96 C 0.2280(10) 0.1133(6) 0.9437(4)
C97 C 0.1688(11) 0.0599(7) 0.9867(3)
H29 H 0.0685 0.0558 0.9836
H30 H 0.1913 0.0838 1.0173
H31 H 0.2098 0.0069 0.9860
C98 C 0.1917(12) 0.1999(7) 0.9469(4)
H32 H 0.2232 0.2288 0.9178
H33 H 0.2366 0.2215 0.9750
H34 H 0.0916 0.2056 0.9500
loop_
_geom_bond_atom_site_label_1
_geom_bond_atom_site_label_2
_geom_bond_site_symmetry_1
_geom_bond_site_symmetry_2
S1 C12 1_555 1_555
S2 C1 1_555 1_555
S3 C21 1_555 1_555
S4 C18 1_555 1_555
F1 C5 1_555 1_555
F2 C25 1_555 1_555
F3 C8 1_555 1_555
F4 C16 1_555 1_555
F5 C3 1_555 1_555
F6 C14 1_555 1_555
F7 C26 1_555 1_555
F8 C28 1_555 1_555
F9 C17 1_555 1_555
F10 C33 1_555 1_555
F11 C37 1_555 1_555
F12 C43 1_555 1_555
F13 C27 1_555 1_555
F14 C35 1_555 1_555
F15 C39 1_555 1_555
F16 C42 1_555 1_555
F17 C44 1_555 1_555
F18 C34 1_555 1_555
F19 C38 1_555 1_555
F20 C41 1_555 1_555
C1 C19 1_555 1_555
C2 C3 1_555 1_555
C3 C43 1_555 1_555
C4 H1 1_555 1_555
C5 C8 1_555 1_555
C6 C22 1_555 1_555
C7 C13 1_555 1_555
C8 C28 1_555 1_555
C9 H2 1_555 1_555
C10 C4 1_555 1_555
C11 C5 1_555 1_555
C12 C9 1_555 1_555
C13 C12 1_555 1_555
C14 C23 1_555 1_555
C15 C9 1_555 1_555
H3 C15 1_555 1_555
C16 C11 1_555 1_555
C17 C16 1_555 1_555
C18 C10 1_555 1_555
C19 C10 1_555 1_555
C20 S4 1_555 1_555
C21 C13 1_555 1_555
C22 S3 1_555 1_555
C23 C6 1_555 1_555
C24 H4 1_555 1_555
C25 C7 1_555 1_555
C26 C2 1_555 1_555
C27 C34 1_555 1_555
C28 C17 1_555 1_555
C29 C2 1_555 1_555
C30 C1 1_555 1_555
H5 C30 1_555 1_555
C31 C22 1_555 1_555
H6 C31 1_555 1_555
C32 S1 1_555 1_555
C33 C7 1_555 1_555
C34 C42 1_555 1_555
C35 C26 1_555 1_555
C36 S2 1_555 1_555
C37 C23 1_555 1_555
C38 C25 1_555 1_555
C39 C35 1_555 1_555
C40 C21 1_555 1_555
H7 C40 1_555 1_555
C41 C33 1_555 1_555
C42 C14 1_555 1_555
C43 C39 1_555 1_555
C44 C38 1_555 1_555
C45 C18 1_555 1_555
H8 C45 1_555 1_555
H9 C45 1_555 1_555
H10 C45 1_555 1_555
S5 C69 1_555 1_555
S6 C68 1_555 1_555
S7 C70 1_555 1_555
S8 C54 1_555 1_555
F21 C53 1_555 1_555
F22 C65 1_555 1_555
F23 C61 1_555 1_555
F24 C67 1_555 1_555
F25 C79 1_555 1_555
F26 C63 1_555 1_555
F27 C72 1_555 1_555
F28 C59 1_555 1_555
F29 C58 1_555 1_555
F30 C76 1_555 1_555
F31 C87 1_555 1_555
F32 C78 1_555 1_555
F33 C85 1_555 1_555
F34 C89 1_555 1_555
F35 C73 1_555 1_555
F36 C82 1_555 1_555
F37 C84 1_555 1_555
F38 C83 1_555 1_555
F39 C81 1_555 1_555
F40 C86 1_555 1_555
C46 H11 1_555 1_555
C47 C52 1_555 1_555
C48 C57 1_555 1_555
C49 H12 1_555 1_555
C50 C49 1_555 1_555
H13 C50 1_555 1_555
C51 C60 1_555 1_555
C52 C72 1_555 1_555
C53 C59 1_555 1_555
C54 C55 1_555 1_555
C55 C46 1_555 1_555
C56 S8 1_555 1_555
C57 C63 1_555 1_555
C58 C59 1_555 1_555
C60 C56 1_555 1_555
C61 C51 1_555 1_555
C62 C64 1_555 1_555
C63 C81 1_555 1_555
C64 C55 1_555 1_555
C65 C58 1_555 1_555
C66 H14 1_555 1_555
C67 C53 1_555 1_555
C68 C48 1_555 1_555
C69 C47 1_555 1_555
C70 C48 1_555 1_555
C71 S7 1_555 1_555
C72 C73 1_555 1_555
C73 C83 1_555 1_555
C74 S6 1_555 1_555
C75 C66 1_555 1_555
H15 C75 1_555 1_555
C76 C57 1_555 1_555
C77 S5 1_555 1_555
C78 C79 1_555 1_555
C79 C51 1_555 1_555
C80 C71 1_555 1_555
H16 C80 1_555 1_555
C81 C84 1_555 1_555
C82 C61 1_555 1_555
C83 C86 1_555 1_555
C84 C85 1_555 1_555
C85 C76 1_555 1_555
C86 C87 1_555 1_555
C87 C52 1_555 1_555
C88 C70 1_555 1_555
H17 C88 1_555 1_555
C89 C78 1_555 1_555
C90 C54 1_555 1_555
H18 C90 1_555 1_555
H19 C90 1_555 1_555
H20 C90 1_555 1_555
C91 H21 1_555 1_555
C92 C91 1_555 1_555
C93 C92 1_555 1_555
H22 C93 1_555 1_555
H23 C93 1_555 1_555
H24 C93 1_555 1_555
C94 C92 1_555 1_555
H25 C94 1_555 1_555
H26 C94 1_555 1_555
H27 C94 1_555 1_555
C95 H28 1_555 1_555
C96 C95 1_555 1_555
C97 C96 1_555 1_555
H29 C97 1_555 1_555
H30 C97 1_555 1_555
H31 C97 1_555 1_555
C98 C96 1_555 1_555
H32 C98 1_555 1_555
H33 C98 1_555 1_555
H34 C98 1_555 1_555
C4 C20 1_555 1_555
C6 C36 1_555 1_555
C11 C19 1_555 1_555
C15 C32 1_555 1_555
C20 C29 1_555 1_555
C24 C30 1_555 1_555
C24 C36 1_555 1_555
C27 C37 1_555 1_555
C29 C32 1_555 1_555
C31 C40 1_555 1_555
C41 C44 1_555 1_555
C46 C56 1_555 1_555
C47 C71 1_555 1_555
C49 C69 1_555 1_555
C50 C77 1_555 1_555
C60 C77 1_555 1_555
C62 C65 1_555 1_555
C62 C67 1_555 1_555
C64 C74 1_555 1_555
C66 C68 1_555 1_555
C74 C75 1_555 1_555
C80 C88 1_555 1_555
C82 C89 1_555 1_555

#END
