
#######################################################################
#
#                 Cambridge Crystallographic Data Centre
#                                CCDC 
#
#######################################################################
#
# If this CIF has been generated from an entry in the Cambridge 
# Structural Database, then it will include bibliographic, chemical, 
# crystal, experimental, refinement or atomic coordinate data resulting 
# from the CCDC's data processing and validation procedures.
#
#######################################################################

data_DEBLOO
_chemical_formula_moiety         'C15 H12 O2 S1'
_chemical_name_systematic        
10'H-spiro[cyclopropane-1,9'-thioxanthene]-10',10'-dione
_symmetry_cell_setting           monoclinic
_symmetry_space_group_name_H-M   'P 21/c'
_symmetry_Int_Tables_number      14
_space_group_name_Hall           '-P 2ybc'
loop_
_symmetry_equiv_pos_site_id
_symmetry_equiv_pos_as_xyz
1 x,y,z
2 -x,1/2+y,1/2-z
3 -x,-y,-z
4 x,1/2-y,1/2+z
_cell_length_a                   11.6687(8)
_cell_length_b                   8.3221(5)
_cell_length_c                   12.6959(8)
_cell_angle_alpha                90
_cell_angle_beta                 101.677(2)
_cell_angle_gamma                90
_cell_volume                     1207.36
_exptl_crystal_colour            colorless
_exptl_crystal_description       block
_cell_formula_units_Z            4
loop_
_atom_site_label
_atom_site_type_symbol
_atom_site_fract_x
_atom_site_fract_y
_atom_site_fract_z
S1 S 0.71534(4) 0.01666(5) 0.36107(3)
O1 O 0.63075(12) 0.07400(17) 0.27082(10)
O2 O 0.81348(11) -0.07241(17) 0.33905(10)
C1 C 0.64656(14) -0.1000(2) 0.44490(13)
C2 C 0.54320(15) -0.1794(2) 0.40133(14)
H1 H 0.5083 -0.1659 0.3293
C3 C 0.49301(16) -0.2787(2) 0.46623(16)
H2 H 0.4246 -0.3344 0.4381
C4 C 0.54519(16) -0.2945(2) 0.57320(16)
H3 H 0.5113 -0.3611 0.6172
C5 C 0.64714(16) -0.2131(2) 0.61623(14)
H4 H 0.6802 -0.2249 0.6889
C6 C 0.70090(14) -0.1144(2) 0.55330(13)
C7 C 0.81216(14) -0.0234(2) 0.59493(13)
C8 C 0.81116(14) 0.1462(2) 0.55524(13)
C9 C 0.76675(14) 0.1790(2) 0.44612(13)
C10 C 0.75981(17) 0.3330(2) 0.40475(15)
H5 H 0.7296 0.3508 0.3321
C11 C 0.7982(2) 0.4601(2) 0.47251(17)
H6 H 0.7950 0.5645 0.4458
C12 C 0.8413(2) 0.4311(2) 0.58015(17)
H7 H 0.8660 0.5168 0.6261
C13 C 0.84832(17) 0.2771(2) 0.62064(15)
H8 H 0.8786 0.2607 0.6934
C14 C 0.92670(16) -0.1148(3) 0.60371(16)
H9 H 0.9224 -0.2276 0.5841
H10 H 0.9930 -0.0574 0.5866
C15 C 0.88592(17) -0.0674(3) 0.70268(15)
H11 H 0.9277 0.0184 0.7459
H12 H 0.8572 -0.1516 0.7434
loop_
_geom_bond_atom_site_label_1
_geom_bond_atom_site_label_2
_geom_bond_site_symmetry_1
_geom_bond_site_symmetry_2
S1 O1 1_555 1_555
O2 S1 1_555 1_555
C1 S1 1_555 1_555
C2 C1 1_555 1_555
H1 C2 1_555 1_555
C3 C2 1_555 1_555
H2 C3 1_555 1_555
C4 C3 1_555 1_555
H3 C4 1_555 1_555
C5 C4 1_555 1_555
H4 C5 1_555 1_555
C6 C1 1_555 1_555
C7 C6 1_555 1_555
C8 C7 1_555 1_555
C9 S1 1_555 1_555
C10 C9 1_555 1_555
H5 C10 1_555 1_555
C11 C10 1_555 1_555
H6 C11 1_555 1_555
C12 C11 1_555 1_555
H7 C12 1_555 1_555
C13 C8 1_555 1_555
H8 C13 1_555 1_555
C14 C7 1_555 1_555
H9 C14 1_555 1_555
H10 C14 1_555 1_555
C15 C7 1_555 1_555
H11 C15 1_555 1_555
H12 C15 1_555 1_555
C5 C6 1_555 1_555
C8 C9 1_555 1_555
C12 C13 1_555 1_555
C14 C15 1_555 1_555

#END
