
#######################################################################
#
#                 Cambridge Crystallographic Data Centre
#                                CCDC 
#
#######################################################################
#
# If this CIF has been generated from an entry in the Cambridge 
# Structural Database, then it will include bibliographic, chemical, 
# crystal, experimental, refinement or atomic coordinate data resulting 
# from the CCDC's data processing and validation procedures.
#
#######################################################################

data_DEBMIJ
_chemical_formula_moiety         'C15 H14 O3 S1'
_chemical_name_systematic        
4-(4-methylphenyl)-3,4-dihydro-2H-1,2\l^6^-benzoxathiine-2,2-dione
_symmetry_cell_setting           triclinic
_symmetry_space_group_name_H-M   'P 1'
_symmetry_Int_Tables_number      1
_space_group_name_Hall           'P 1'
loop_
_symmetry_equiv_pos_site_id
_symmetry_equiv_pos_as_xyz
1 x,y,z
_cell_length_a                   7.8451(4)
_cell_length_b                   8.3042(4)
_cell_length_c                   11.0600(6)
_cell_angle_alpha                76.583(2)
_cell_angle_beta                 88.533(2)
_cell_angle_gamma                75.925(2)
_cell_volume                     679.459
_exptl_crystal_colour            colorless
_exptl_crystal_description       block
_cell_formula_units_Z            2
loop_
_atom_site_label
_atom_site_type_symbol
_atom_site_fract_x
_atom_site_fract_y
_atom_site_fract_z
S1 S 0.80762(12) 0.82233(11) 0.54553(9)
C1 C 0.8200(6) 0.9655(6) 0.3108(5)
O1 O 0.9673(4) 0.6954(4) 0.5558(4)
O2 O 0.8157(5) 0.9815(4) 0.4362(3)
C2 C 0.8814(6) 1.0925(7) 0.1034(5)
H1 H 0.9253 1.1758 0.0458
C3 C 0.8861(6) 1.0860(6) 0.2286(5)
H2 H 0.9346 1.1643 0.2585
O3 O 0.7525(4) 0.8969(4) 0.6491(3)
C4 C 0.8113(6) 0.9748(7) 0.0622(5)
H3 H 0.8062 0.9785 -0.0242
C5 C 0.7514(5) 0.8442(6) 0.2740(4)
C6 C 0.7490(6) 0.8524(7) 0.1467(5)
H4 H 0.7035 0.7721 0.1171
C7 C 0.5554(5) 0.6365(6) 0.3108(4)
C8 C 0.6362(5) 0.7539(5) 0.4872(4)
H5 H 0.6102 0.6563 0.5489
H6 H 0.5282 0.8478 0.4712
C9 C 0.6944(5) 0.7005(5) 0.3669(4)
H7 H 0.8004 0.6026 0.3883
C10 C 0.3815(6) 0.7304(5) 0.2894(4)
H8 H 0.3436 0.8351 0.3144
C11 C 0.2628(5) 0.6688(6) 0.2307(4)
H9 H 0.1434 0.7311 0.2184
C12 C 0.3162(6) 0.5189(6) 0.1902(4)
C13 C 0.4875(7) 0.4254(7) 0.2150(5)
H10 H 0.5253 0.3197 0.1914
C14 C 0.6053(6) 0.4845(7) 0.2742(5)
H11 H 0.7232 0.4186 0.2900
C15 C 0.1903(7) 0.4585(8) 0.1204(5)
H12 H 0.2195 0.4766 0.0323
H13 H 0.0698 0.5231 0.1284
H14 H 0.2001 0.3367 0.1552
S2 S 0.18374(11) 0.23346(11) 0.46731(8)
O4 O 0.3086(4) 0.1103(4) 0.4221(3)
O5 O 0.0958(4) 0.1423(4) 0.5860(3)
O6 O 0.0372(4) 0.3362(4) 0.3893(3)
C16 C 0.1920(6) 0.0730(6) 0.7009(4)
C17 C 0.1190(7) -0.0398(6) 0.7856(5)
H15 H 0.0189 -0.0730 0.7630
C18 C 0.1938(6) -0.1028(7) 0.9029(5)
H16 H 0.1458 -0.1813 0.9619
C19 C 0.3383(7) -0.0533(7) 0.9362(5)
H17 H 0.3871 -0.0937 1.0185
C20 C 0.4105(6) 0.0554(7) 0.8484(5)
H18 H 0.5143 0.0833 0.8702
C21 C 0.3377(5) 0.1259(5) 0.7289(4)
C22 C 0.4235(5) 0.2419(6) 0.6318(4)
H19 H 0.5130 0.1677 0.5894
C23 C 0.2874(6) 0.3609(5) 0.5325(4)
H20 H 0.3463 0.4294 0.4671
H21 H 0.1994 0.4400 0.5707
C24 C 0.5183(6) 0.3449(6) 0.6921(4)
C25 C 0.4306(7) 0.4667(8) 0.7525(5)
H22 H 0.3057 0.4959 0.7513
C26 C 0.5235(7) 0.5481(8) 0.8158(6)
H23 H 0.4607 0.6339 0.8552
C27 C 0.7066(7) 0.5050(7) 0.8217(4)
C28 C 0.7915(6) 0.3838(6) 0.7595(4)
H24 H 0.9163 0.3534 0.7609
C29 C 0.6995(6) 0.3048(6) 0.6949(4)
H25 H 0.7621 0.2225 0.6524
C30 C 0.8048(9) 0.5856(8) 0.8960(6)
H26 H 0.9217 0.5844 0.8621
H27 H 0.8171 0.5212 0.9829
H28 H 0.7398 0.7038 0.8915
loop_
_geom_bond_atom_site_label_1
_geom_bond_atom_site_label_2
_geom_bond_site_symmetry_1
_geom_bond_site_symmetry_2
S1 O1 1_555 1_555
C1 O2 1_555 1_555
O2 S1 1_555 1_555
C2 H1 1_555 1_555
C3 C1 1_555 1_555
H2 C3 1_555 1_555
O3 S1 1_555 1_555
C4 C2 1_555 1_555
H3 C4 1_555 1_555
C5 C1 1_555 1_555
C6 C4 1_555 1_555
H4 C6 1_555 1_555
C7 C9 1_555 1_555
C8 S1 1_555 1_555
H5 C8 1_555 1_555
H6 C8 1_555 1_555
C9 C5 1_555 1_555
H7 C9 1_555 1_555
C10 C7 1_555 1_555
H8 C10 1_555 1_555
C11 C10 1_555 1_555
H9 C11 1_555 1_555
C12 C11 1_555 1_555
C13 C12 1_555 1_555
H10 C13 1_555 1_555
C14 C7 1_555 1_555
H11 C14 1_555 1_555
C15 C12 1_555 1_555
H12 C15 1_555 1_555
H13 C15 1_555 1_555
H14 C15 1_555 1_555
S2 O4 1_555 1_555
O5 S2 1_555 1_555
O6 S2 1_555 1_555
C16 O5 1_555 1_555
C17 C16 1_555 1_555
H15 C17 1_555 1_555
C18 C17 1_555 1_555
H16 C18 1_555 1_555
C19 C18 1_555 1_555
H17 C19 1_555 1_555
C20 C19 1_555 1_555
H18 C20 1_555 1_555
C21 C16 1_555 1_555
C22 C21 1_555 1_555
H19 C22 1_555 1_555
C23 S2 1_555 1_555
H20 C23 1_555 1_555
H21 C23 1_555 1_555
C24 C22 1_555 1_555
C25 C24 1_555 1_555
H22 C25 1_555 1_555
C26 C25 1_555 1_555
H23 C26 1_555 1_555
C27 C26 1_555 1_555
C28 C27 1_555 1_555
H24 C28 1_555 1_555
C29 C24 1_555 1_555
H25 C29 1_555 1_555
C30 C27 1_555 1_555
H26 C30 1_555 1_555
H27 C30 1_555 1_555
H28 C30 1_555 1_555
C2 C3 1_555 1_555
C5 C6 1_555 1_555
C8 C9 1_555 1_555
C13 C14 1_555 1_555
C20 C21 1_555 1_555
C22 C23 1_555 1_555
C28 C29 1_555 1_555

#END
