
#######################################################################
#
#                 Cambridge Crystallographic Data Centre
#                                CCDC 
#
#######################################################################
#
# If this CIF has been generated from an entry in the Cambridge 
# Structural Database, then it will include bibliographic, chemical, 
# crystal, experimental, refinement or atomic coordinate data resulting 
# from the CCDC's data processing and validation procedures.
#
#######################################################################

data_DEBMAB
_chemical_formula_moiety         'C30 H18 O2 S2'
_chemical_name_systematic        
2-(1-benzothiophen-2-yl)-8-(naphthalen-1-yl)-5H-5\l^6^-dibenzo[b,d]thiophene-5,5-dione
_symmetry_cell_setting           monoclinic
_symmetry_space_group_name_H-M   'P 21/c'
_symmetry_Int_Tables_number      14
_space_group_name_Hall           '-P 2ybc'
loop_
_symmetry_equiv_pos_site_id
_symmetry_equiv_pos_as_xyz
1 x,y,z
2 -x,1/2+y,1/2-z
3 -x,-y,-z
4 x,1/2-y,1/2+z
_cell_length_a                   17.278(4)
_cell_length_b                   10.111(2)
_cell_length_c                   13.842(3)
_cell_angle_alpha                90
_cell_angle_beta                 109.626(6)
_cell_angle_gamma                90
_cell_volume                     2277.68
_exptl_crystal_colour            colorless
_exptl_crystal_description       block
_cell_formula_units_Z            4
loop_
_atom_site_label
_atom_site_type_symbol
_atom_site_fract_x
_atom_site_fract_y
_atom_site_fract_z
S1 S 0.33307(9) 0.54416(16) 0.36922(10)
S2 S 0.65884(11) 0.5047(2) 0.17148(15)
O1 O 0.3024(2) 0.4139(4) 0.3699(3)
O2 O 0.3596(2) 0.6167(5) 0.4643(3)
C1 C 0.0510(3) 0.8316(6) -0.0547(4)
C2 C 0.1275(3) 0.8720(6) 0.0177(4)
C3 C 0.1588(4) 0.9935(6) 0.0056(4)
H1 H 0.2095 1.0188 0.0517
C4 C 0.1173(4) 1.0805(6) -0.0733(5)
H2 H 0.1399 1.1621 -0.0797
C5 C 0.0444(4) 1.0438(7) -0.1394(5)
H3 H 0.0163 1.1020 -0.1914
C6 C 0.0078(3) 0.9178(7) -0.1332(4)
C7 C -0.0680(4) 0.8807(10) -0.2027(5)
H4 H -0.0962 0.9394 -0.2543
C8 C -0.1015(5) 0.7628(12) -0.1973(6)
H5 H -0.1531 0.7410 -0.2430
C9 C -0.0577(5) 0.6724(9) -0.1219(6)
H6 H -0.0793 0.5887 -0.1196
C10 C 0.0157(4) 0.7062(7) -0.0524(5)
H7 H 0.0434 0.6456 -0.0021
C11 C 0.1749(3) 0.7877(5) 0.1051(4)
C12 C 0.1410(3) 0.7462(6) 0.1793(4)
H8 H 0.0869 0.7686 0.1714
C13 C 0.1856(3) 0.6737(6) 0.2630(4)
H9 H 0.1631 0.6479 0.3123
C14 C 0.2650(3) 0.6403(5) 0.2717(3)
C15 C 0.4091(3) 0.5494(5) 0.3105(4)
C16 C 0.4842(3) 0.4867(5) 0.3437(4)
H10 H 0.5002 0.4364 0.4034
C17 C 0.5347(3) 0.5002(5) 0.2866(4)
H11 H 0.5860 0.4598 0.3091
C18 C 0.5114(3) 0.5735(5) 0.1948(4)
C19 C 0.4346(3) 0.6365(5) 0.1636(4)
H12 H 0.4178 0.6864 0.1036
C20 C 0.3840(3) 0.6243(5) 0.2218(4)
C21 C 0.2998(3) 0.6778(5) 0.1994(3)
C22 C 0.2547(3) 0.7526(5) 0.1168(4)
H13 H 0.2781 0.7796 0.0686
C23 C 0.5654(3) 0.5856(5) 0.1321(4)
C24 C 0.5458(3) 0.6665(5) 0.0332(3)
H14 H 0.4998 0.7176 0.0000
C25 C 0.6201(3) 0.6415(6) 0.0044(5)
C26 C 0.6302(6) 0.6958(7) -0.0826(6)
H15 H 0.5893 0.7491 -0.1259
C27 C 0.6996(8) 0.6714(10) -0.1046(8)
H16 H 0.7070 0.7096 -0.1620
C28 C 0.7600(6) 0.5888(11) -0.0407(8)
H17 H 0.8071 0.5712 -0.0568
C29 C 0.7512(4) 0.5334(8) 0.0449(6)
H18 H 0.7916 0.4779 0.0866
C30 C 0.6807(3) 0.5611(6) 0.0690(4)
loop_
_geom_bond_atom_site_label_1
_geom_bond_atom_site_label_2
_geom_bond_site_symmetry_1
_geom_bond_site_symmetry_2
S1 O1 1_555 1_555
S2 C23 1_555 1_555
O2 S1 1_555 1_555
C1 C2 1_555 1_555
C2 C3 1_555 1_555
C3 H1 1_555 1_555
C4 C3 1_555 1_555
H2 C4 1_555 1_555
C5 C4 1_555 1_555
H3 C5 1_555 1_555
C6 C1 1_555 1_555
C7 C6 1_555 1_555
H4 C7 1_555 1_555
C8 C7 1_555 1_555
H5 C8 1_555 1_555
C9 C8 1_555 1_555
H6 C9 1_555 1_555
C10 C1 1_555 1_555
H7 C10 1_555 1_555
C11 C2 1_555 1_555
C12 C11 1_555 1_555
H8 C12 1_555 1_555
C13 C12 1_555 1_555
H9 C13 1_555 1_555
C14 S1 1_555 1_555
C15 S1 1_555 1_555
C16 C15 1_555 1_555
H10 C16 1_555 1_555
C17 C16 1_555 1_555
H11 C17 1_555 1_555
C18 C17 1_555 1_555
C19 C18 1_555 1_555
H12 C19 1_555 1_555
C20 C15 1_555 1_555
C21 C14 1_555 1_555
C22 C11 1_555 1_555
H13 C22 1_555 1_555
C23 C18 1_555 1_555
C24 C23 1_555 1_555
H14 C24 1_555 1_555
C25 C24 1_555 1_555
C26 C25 1_555 1_555
H15 C26 1_555 1_555
C27 C26 1_555 1_555
H16 C27 1_555 1_555
C28 C27 1_555 1_555
H17 C28 1_555 1_555
C29 C28 1_555 1_555
H18 C29 1_555 1_555
C30 S2 1_555 1_555
C5 C6 1_555 1_555
C9 C10 1_555 1_555
C13 C14 1_555 1_555
C19 C20 1_555 1_555
C20 C21 1_555 1_555
C21 C22 1_555 1_555
C25 C30 1_555 1_555
C29 C30 1_555 1_555

#END
