
#######################################################################
#
#                 Cambridge Crystallographic Data Centre
#                                CCDC 
#
#######################################################################
#
# If this CIF has been generated from an entry in the Cambridge 
# Structural Database, then it will include bibliographic, chemical, 
# crystal, experimental, refinement or atomic coordinate data resulting 
# from the CCDC's data processing and validation procedures.
#
#######################################################################

data_DEBNAC
_chemical_compound_source        'Tabernaemontana corymbosa'
_chemical_formula_moiety         'C44 H52 N4 O8'
_chemical_name_systematic        
'methyl 14-[3-hydroxy-16-(methoxycarbonyl)-19,20-dihydro-17,21:19,20-diepoxyvobasan-3-yl]-13-methoxyibogamine-18-carboxylate'
_symmetry_cell_setting           monoclinic
_symmetry_space_group_name_H-M   'P 21'
_symmetry_Int_Tables_number      4
_space_group_name_Hall           'P 2yb'
loop_
_symmetry_equiv_pos_site_id
_symmetry_equiv_pos_as_xyz
1 x,y,z
2 -x,1/2+y,-z
_cell_length_a                   9.22550(10)
_cell_length_b                   13.8573(2)
_cell_length_c                   15.8051(2)
_cell_angle_alpha                90
_cell_angle_beta                 101.43
_cell_angle_gamma                90
_cell_volume                     1980.46
_exptl_crystal_colour            colorless
_exptl_crystal_description       plate
_chemical_melting_point          '531.15-532.15 K'
_cell_formula_units_Z            2
_chemical_properties_physical    Heat-sensitive
_exptl_crystal_recrystallization_method ethanol
loop_
_atom_site_label
_atom_site_type_symbol
_atom_site_fract_x
_atom_site_fract_y
_atom_site_fract_z
O1 O 0.94958(18) 0.60359(12) 0.32009(9)
O2 O 0.7204(2) 0.62480(14) 0.34190(11)
O3 O 0.58103(17) 0.14159(10) 0.11098(9)
O4 O 0.64556(15) 0.34538(10) 0.31000(9)
H1 H 0.615(3) 0.329(2) 0.3564(19)
O5 O 0.03005(15) 0.25792(13) 0.33478(10)
O6 O 0.11612(18) 0.44005(13) 0.28840(14)
O7 O 0.40829(16) 0.12392(13) 0.45800(9)
O8 O 0.52911(16) 0.26265(13) 0.44623(9)
N1 N 0.12040(17) 0.18485(14) 0.21954(11)
N2 N 0.69369(18) 0.47408(12) 0.19532(10)
H2 H 0.6654 0.4789 0.2451
N3 N 0.8722(2) 0.72849(13) 0.07961(11)
C1 C 0.0090(2) 0.11218(17) 0.18689(13)
H3 H -0.0378 0.0900 0.2339
H4 H 0.0561 0.0574 0.1639
H5 H -0.0661 0.1403 0.1409
C2 C 0.2377(2) 0.14470(15) 0.28905(12)
H6 H 0.1895 0.0988 0.3238
C3 C 0.2969(2) 0.23091(16) 0.34768(13)
C4 C 0.3234(2) 0.31903(15) 0.29271(13)
H7 H 0.3751 0.3704 0.3318
C5 C 0.40855(19) 0.30149(15) 0.21953(13)
H8 H 0.3598 0.2476 0.1837
H9 H 0.3977 0.3597 0.1825
C6 C 0.57434(19) 0.27811(14) 0.24528(12)
C7 C 0.64030(18) 0.29774(14) 0.16480(12)
C8 C 0.6880(2) 0.39137(14) 0.14778(12)
C9 C 0.7505(2) 0.54975(14) 0.15396(13)
C10 C 0.7703(2) 0.64763(14) 0.19784(13)
C11 C 0.6301(2) 0.71364(16) 0.17688(14)
H10 H 0.5464 0.6770 0.1427
H11 H 0.6017 0.7347 0.2312
C12 C 0.6635(2) 0.80198(16) 0.12563(15)
H12 H 0.5712 0.8405 0.1060
C13 C 0.7827(2) 0.86512(16) 0.18117(15)
H13 H 0.7416 0.8971 0.2272
H14 H 0.8155 0.9158 0.1450
C14 C 0.9956(3) 0.5743(2) 0.40894(15)
H15 H 0.9812 0.6278 0.4469
H16 H 1.1004 0.5563 0.4199
H17 H 0.9365 0.5188 0.4204
C15 C 0.8081(2) 0.62575(15) 0.29500(13)
C16 C 0.8990(2) 0.70519(14) 0.17156(13)
H18 H 0.9927 0.6673 0.1874
C17 C 0.7242(3) 0.76766(17) 0.04768(15)
H19 H 0.6590 0.7173 0.0160
H20 H 0.7292 0.8222 0.0079
C18 C 0.9152(2) 0.80111(16) 0.22169(14)
H21 H 0.9079 0.7872 0.2828
C19 C 1.0642(3) 0.8495(2) 0.2223(2)
H22 H 1.0776 0.8572 0.1620
H23 H 1.0635 0.9147 0.2478
C20 C 0.9209(3) 0.65779(16) 0.02374(14)
H24 H 1.0222 0.6372 0.0509
H25 H 0.9272 0.6900 -0.0313
C21 C 0.8259(3) 0.56741(16) 0.00278(13)
H26 H 0.7357 0.5855 -0.0394
H27 H 0.8813 0.5209 -0.0263
C22 C 0.7785(2) 0.51591(15) 0.07679(12)
C23 C 0.7393(2) 0.41549(15) 0.07192(12)
C24 C 0.7441(2) 0.34367(16) 0.01021(12)
H28 H 0.7805 0.3578 -0.0406
C25 C 0.6952(2) 0.25213(16) 0.02426(13)
H29 H 0.6982 0.2030 -0.0173
C26 C 0.6407(2) 0.23029(14) 0.09931(12)
C27 C 0.5936(2) 0.06565(15) 0.05242(14)
H30 H 0.5351 0.0814 -0.0047
H31 H 0.5568 0.0055 0.0731
H32 H 0.6976 0.0576 0.0484
C28 C 0.1688(2) 0.25783(19) 0.39508(14)
H33 H 0.1653 0.2105 0.4416
H34 H 0.1873 0.3225 0.4217
C29 C 0.0582(2) 0.27130(17) 0.24890(15)
H35 H -0.0360 0.2881 0.2083
C30 C 0.3521(2) 0.08674(15) 0.24913(12)
H36 H 0.3286 0.0173 0.2525
H37 H 0.3371 0.1037 0.1872
C31 C 0.51380(19) 0.09988(14) 0.28779(12)
C32 C 0.6037(2) 0.17770(15) 0.28146(12)
N4 N 0.74742(17) 0.15537(12) 0.32028(10)
H38 H 0.8236 0.1945 0.3245
C33 C 0.7530(2) 0.06297(14) 0.35114(12)
C34 C 0.6074(2) 0.02567(15) 0.33247(12)
C35 C 0.5828(2) -0.06871(16) 0.35861(13)
H39 H 0.4856 -0.0948 0.3480
C36 C 0.7005(3) -0.12295(17) 0.39976(14)
H40 H 0.6842 -0.1871 0.4169
C37 C 0.8454(2) -0.08494(17) 0.41707(13)
H41 H 0.9249 -0.1238 0.4457
C38 C 0.8731(2) 0.00767(16) 0.39299(12)
H42 H 0.9705 0.0332 0.4044
C39 C 0.1676(2) 0.35381(17) 0.25299(15)
C40 C 0.1341(3) 0.44116(19) 0.1999(2)
H43 H 0.0397 0.4385 0.1560
C41 C 0.2473(3) 0.5113(2) 0.1794(2)
H44 H 0.2079 0.5771 0.1783
H45 H 0.2698 0.4957 0.1230
H46 H 0.3378 0.5067 0.2238
C42 C 0.4272(2) 0.20775(17) 0.42038(13)
C43 C 0.5229(3) 0.0965(2) 0.53039(15)
H47 H 0.6189 0.0972 0.5128
H48 H 0.5029 0.0315 0.5496
H49 H 0.5246 0.1423 0.5778
C44 C 1.1941(4) 0.7929(3) 0.2728(6)
H50 H 1.1927 0.7963 0.3346
H51 H 1.2868 0.8205 0.2623
H52 H 1.1867 0.7253 0.2541
loop_
_geom_bond_atom_site_label_1
_geom_bond_atom_site_label_2
_geom_bond_site_symmetry_1
_geom_bond_site_symmetry_2
O1 C14 1_555 1_555
O2 C15 1_555 1_555
O3 C26 1_555 1_555
O4 H1 1_555 1_555
O5 C28 1_555 1_555
O6 C39 1_555 1_555
O7 C42 1_555 1_555
O8 C42 1_555 1_555
N1 C1 1_555 1_555
N2 H2 1_555 1_555
N3 C16 1_555 1_555
C1 H3 1_555 1_555
H4 C1 1_555 1_555
H5 C1 1_555 1_555
C2 N1 1_555 1_555
H6 C2 1_555 1_555
C3 C2 1_555 1_555
C4 C3 1_555 1_555
H7 C4 1_555 1_555
C5 C4 1_555 1_555
H8 C5 1_555 1_555
H9 C5 1_555 1_555
C6 O4 1_555 1_555
C7 C6 1_555 1_555
C8 N2 1_555 1_555
C9 N2 1_555 1_555
C10 C9 1_555 1_555
C11 C10 1_555 1_555
H10 C11 1_555 1_555
H11 C11 1_555 1_555
C12 C11 1_555 1_555
H12 C12 1_555 1_555
C13 C12 1_555 1_555
H13 C13 1_555 1_555
H14 C13 1_555 1_555
C14 H15 1_555 1_555
H16 C14 1_555 1_555
H17 C14 1_555 1_555
C15 O1 1_555 1_555
C16 C10 1_555 1_555
H18 C16 1_555 1_555
C17 N3 1_555 1_555
H19 C17 1_555 1_555
H20 C17 1_555 1_555
C18 C13 1_555 1_555
H21 C18 1_555 1_555
C19 C18 1_555 1_555
H22 C19 1_555 1_555
H23 C19 1_555 1_555
C20 N3 1_555 1_555
H24 C20 1_555 1_555
H25 C20 1_555 1_555
C21 C20 1_555 1_555
H26 C21 1_555 1_555
H27 C21 1_555 1_555
C22 C9 1_555 1_555
C23 C8 1_555 1_555
C24 C23 1_555 1_555
H28 C24 1_555 1_555
C25 C24 1_555 1_555
H29 C25 1_555 1_555
C26 C7 1_555 1_555
C27 O3 1_555 1_555
H30 C27 1_555 1_555
H31 C27 1_555 1_555
H32 C27 1_555 1_555
C28 C3 1_555 1_555
H33 C28 1_555 1_555
H34 C28 1_555 1_555
C29 O5 1_555 1_555
H35 C29 1_555 1_555
C30 C2 1_555 1_555
H36 C30 1_555 1_555
H37 C30 1_555 1_555
C31 C30 1_555 1_555
C32 C6 1_555 1_555
N4 C32 1_555 1_555
H38 N4 1_555 1_555
C33 N4 1_555 1_555
C34 C31 1_555 1_555
C35 C34 1_555 1_555
H39 C35 1_555 1_555
C36 C35 1_555 1_555
H40 C36 1_555 1_555
C37 C36 1_555 1_555
H41 C37 1_555 1_555
C38 C33 1_555 1_555
H42 C38 1_555 1_555
C39 C4 1_555 1_555
C40 O6 1_555 1_555
H43 C40 1_555 1_555
C41 C40 1_555 1_555
H44 C41 1_555 1_555
H45 C41 1_555 1_555
H46 C41 1_555 1_555
C42 C3 1_555 1_555
C43 O7 1_555 1_555
H47 C43 1_555 1_555
H48 C43 1_555 1_555
H49 C43 1_555 1_555
C44 C19 1_555 1_555
H50 C44 1_555 1_555
H51 C44 1_555 1_555
H52 C44 1_555 1_555
N1 C29 1_555 1_555
C5 C6 1_555 1_555
C7 C8 1_555 1_555
C10 C15 1_555 1_555
C12 C17 1_555 1_555
C16 C18 1_555 1_555
C21 C22 1_555 1_555
C22 C23 1_555 1_555
C25 C26 1_555 1_555
C29 C39 1_555 1_555
C31 C32 1_555 1_555
C33 C34 1_555 1_555
C37 C38 1_555 1_555
C39 C40 1_555 1_555

#END
