
#######################################################################
#
#                 Cambridge Crystallographic Data Centre
#                                CCDC 
#
#######################################################################
#
# If this CIF has been generated from an entry in the Cambridge 
# Structural Database, then it will include bibliographic, chemical, 
# crystal, experimental, refinement or atomic coordinate data resulting 
# from the CCDC's data processing and validation procedures.
#
#######################################################################

data_DEBPOS
_chemical_formula_moiety         'C15 H20 F1 N1 O3'
_chemical_name_systematic        
't-butyl [1-(4-fluorophenyl)-1-hydroxybut-3-en-2-yl]carbamate'
_symmetry_cell_setting           orthorhombic
_symmetry_space_group_name_H-M   'P 21 21 21'
_symmetry_Int_Tables_number      19
_space_group_name_Hall           'P 2ac 2ab'
loop_
_symmetry_equiv_pos_site_id
_symmetry_equiv_pos_as_xyz
1 x,y,z
2 1/2-x,-y,1/2+z
3 -x,1/2+y,1/2-z
4 1/2+x,1/2-y,-z
_cell_length_a                   5.0624(7)
_cell_length_b                   10.961(3)
_cell_length_c                   26.361(4)
_cell_angle_alpha                90
_cell_angle_beta                 90
_cell_angle_gamma                90
_cell_volume                     1462.74
_exptl_crystal_colour            colorless
_exptl_crystal_description       needle
_cell_formula_units_Z            4
loop_
_atom_site_label
_atom_site_type_symbol
_atom_site_fract_x
_atom_site_fract_y
_atom_site_fract_z
C1 C 0.7659(13) 0.4793(7) 0.4370(2)
C2 C 0.8520(15) 0.5686(6) 0.4041(3)
H1 H 0.999234 0.552479 0.382832
C3 C 0.7279(15) 0.6825(7) 0.4013(3)
H2 H 0.791302 0.744020 0.379074
C4 C 0.5107(16) 0.7028(7) 0.4318(3)
C5 C 0.4209(16) 0.6184(6) 0.4659(3)
H3 H 0.275891 0.636163 0.487501
C6 C 0.5483(14) 0.5045(6) 0.4680(3)
H4 H 0.485816 0.443976 0.490847
C7 C 0.8945(13) 0.3552(6) 0.4378(2)
H5 H 1.083936 0.367144 0.428287
C8 C 0.7725(14) 0.2666(6) 0.3980(2)
H6 H 0.583399 0.252148 0.407160
C9 C 0.9128(15) 0.1463(6) 0.3979(2)
H7 H 1.091935 0.146551 0.387187
C10 C 0.8127(18) 0.0409(7) 0.4112(3)
H8 H 0.634363 0.035947 0.422209
H9 H 0.918457 -0.030606 0.409806
C11 C 0.5661(13) 0.3694(6) 0.3247(2)
C12 C 0.4442(13) 0.4878(7) 0.2485(3)
C13 C 0.2766(15) 0.3897(7) 0.2236(3)
H10 H 0.391990 0.328494 0.208023
H11 H 0.164904 0.426829 0.197452
H12 H 0.164898 0.350642 0.249240
C14 C 0.6199(16) 0.5491(9) 0.2093(3)
H13 H 0.731002 0.610385 0.225914
H14 H 0.509606 0.588714 0.183527
H15 H 0.732394 0.487682 0.193017
C15 C 0.2845(15) 0.5817(7) 0.2768(3)
H16 H 0.141435 0.541244 0.295356
H17 H 0.209418 0.640182 0.252664
H18 H 0.398864 0.624944 0.300849
N1 N 0.7818(11) 0.3209(6) 0.3479(2)
O1 O 0.8915(9) 0.2984(5) 0.48674(17)
H19 H 0.734794 0.283412 0.495179
O2 O 0.3408(8) 0.3610(5) 0.33972(18)
O3 O 0.6425(9) 0.4295(5) 0.28235(17)
F1 F 0.3859(11) 0.8130(4) 0.4290(2)
H20 H 0.939(14) 0.332(6) 0.340(2)
loop_
_geom_bond_atom_site_label_1
_geom_bond_atom_site_label_2
_geom_bond_site_symmetry_1
_geom_bond_site_symmetry_2
C1 C2 1_555 1_555
C2 H1 1_555 1_555
C3 C2 1_555 1_555
H2 C3 1_555 1_555
C4 C3 1_555 1_555
C5 C4 1_555 1_555
H3 C5 1_555 1_555
C6 C1 1_555 1_555
H4 C6 1_555 1_555
C7 C1 1_555 1_555
H5 C7 1_555 1_555
C8 C7 1_555 1_555
H6 C8 1_555 1_555
C9 C8 1_555 1_555
H7 C9 1_555 1_555
C10 C9 1_555 1_555
H8 C10 1_555 1_555
H9 C10 1_555 1_555
C11 N1 1_555 1_555
C12 C13 1_555 1_555
C13 H10 1_555 1_555
H11 C13 1_555 1_555
H12 C13 1_555 1_555
C14 C12 1_555 1_555
H13 C14 1_555 1_555
H14 C14 1_555 1_555
H15 C14 1_555 1_555
C15 C12 1_555 1_555
H16 C15 1_555 1_555
H17 C15 1_555 1_555
H18 C15 1_555 1_555
N1 C8 1_555 1_555
O1 C7 1_555 1_555
H19 O1 1_555 1_555
O2 C11 1_555 1_555
O3 C11 1_555 1_555
F1 C4 1_555 1_555
H20 N1 1_555 1_555
C5 C6 1_555 1_555
C12 O3 1_555 1_555

#END
