
#######################################################################
#
#                 Cambridge Crystallographic Data Centre
#                                CCDC 
#
#######################################################################
#
# If this CIF has been generated from an entry in the Cambridge 
# Structural Database, then it will include bibliographic, chemical, 
# crystal, experimental, refinement or atomic coordinate data resulting 
# from the CCDC's data processing and validation procedures.
#
#######################################################################

data_DEBSOS01
_chemical_formula_moiety         'C8 H6 N8,4(H2 O1)'
_chemical_name_systematic        '1,2-bis(1H-Tetrazol-5-yl)benzene tetrahydrate'
_symmetry_cell_setting           monoclinic
_symmetry_space_group_name_H-M   'C 2/c'
_symmetry_Int_Tables_number      15
_space_group_name_Hall           '-C 2yn'
loop_
_symmetry_equiv_pos_site_id
_symmetry_equiv_pos_as_xyz
1 x,y,z
2 -x,y,1/2-z
3 1/2+x,1/2+y,z
4 1/2-x,1/2+y,1/2-z
5 -x,-y,-z
6 x,-y,1/2+z
7 1/2-x,1/2-y,-z
8 1/2+x,1/2-y,1/2+z
_cell_length_a                   14.510(3)
_cell_length_b                   12.427(3)
_cell_length_c                   7.2576(15)
_cell_angle_alpha                90
_cell_angle_beta                 96.29(3)
_cell_angle_gamma                90
_cell_volume                     1300.78
_exptl_crystal_colour            colorless
_exptl_crystal_description       prism
_cell_formula_units_Z            4
loop_
_atom_site_label
_atom_site_type_symbol
_atom_site_fract_x
_atom_site_fract_y
_atom_site_fract_z
O1 O 0.20523(9) -0.46870(10) 0.4630(2)
H1 H 0.1982 -0.5343 0.4316
H2 H 0.1528 -0.4390 0.4684
O2 O 0.52104(9) -0.10467(11) -0.0561(2)
H3 H 0.4931 -0.1528 -0.0003
H4 H 0.5036 -0.0452 -0.0135
N1 N 0.40777(10) -0.24613(11) 0.1426(2)
N2 N 0.33249(10) -0.18460(11) 0.1621(2)
N3 N 0.27393(10) -0.23572(12) 0.2522(2)
N4 N 0.31147(10) -0.33246(12) 0.2923(2)
H5 H 0.2797(14) -0.3834(17) 0.350(3)
C1 C 0.45124(10) -0.43665(12) 0.2407(2)
C2 C 0.40490(11) -0.53513(12) 0.2324(2)
H6 H 0.3404 -0.5358 0.2205
C3 C 0.45222(11) -0.63163(13) 0.2414(2)
H7 H 0.4198 -0.6963 0.2360
C4 C 0.39372(11) -0.33838(12) 0.2258(2)
N1A N 0.59223(10) -0.24613(11) 0.3574(2)
N2A N 0.66751(10) -0.18460(11) 0.3379(2)
N3A N 0.72607(10) -0.23572(12) 0.2478(2)
N4A N 0.68853(10) -0.33246(12) 0.2077(2)
H5A H 0.7203(14) -0.3834(17) 0.150(3)
C1A C 0.54876(10) -0.43665(12) 0.2593(2)
C2A C 0.59510(11) -0.53513(12) 0.2676(2)
H6A H 0.6596 -0.5358 0.2795
C3A C 0.54778(11) -0.63163(13) 0.2586(2)
H7A H 0.5802 -0.6963 0.2640
C4A C 0.60628(11) -0.33838(12) 0.2742(2)
H8? H 0.4968 -0.1163 -0.1663
loop_
_geom_bond_atom_site_label_1
_geom_bond_atom_site_label_2
_geom_bond_site_symmetry_1
_geom_bond_site_symmetry_2
O1 H1 1_555 1_555
H2 O1 1_555 1_555
O2 H3 1_555 1_555
H4 O2 1_555 1_555
N1 N2 1_555 1_555
N2 N3 1_555 1_555
N3 N4 1_555 1_555
N4 H5 1_555 1_555
C1 C2 1_555 1_555
C2 H6 1_555 1_555
C3 C2 1_555 1_555
H7 C3 1_555 1_555
C4 N1 1_555 1_555
N1A N2A 1_555 1_555
N2A N3A 1_555 1_555
N3A N4A 1_555 1_555
N4A H5A 1_555 1_555
C1A C1 1_555 1_555
C2A C1A 1_555 1_555
H6A C2A 1_555 1_555
C3A C3 1_555 1_555
H7A C3A 1_555 1_555
C4A N1A 1_555 1_555
N4 C4 1_555 1_555
C1 C4 1_555 1_555
N4A C4A 1_555 1_555
C1A C4A 1_555 1_555
C2A C3A 1_555 1_555

#END
