
#######################################################################
#
#                 Cambridge Crystallographic Data Centre
#                                CCDC 
#
#######################################################################
#
# If this CIF has been generated from an entry in the Cambridge 
# Structural Database, then it will include bibliographic, chemical, 
# crystal, experimental, refinement or atomic coordinate data resulting 
# from the CCDC's data processing and validation procedures.
#
#######################################################################

data_DEBVUD
_chemical_formula_moiety         'C37 H39 N1 O7'
_chemical_name_systematic        
9-(2-(Benzyloxy)ethyl)-1-(2,4-dimethoxyphenyl)-3-(3,4,5-trimethoxyphenyl)-2,3-dihydro-1H-pyrrolo[1,2-a]indol-2-ol
_symmetry_cell_setting           monoclinic
_symmetry_space_group_name_H-M   'P 21'
_symmetry_Int_Tables_number      4
_space_group_name_Hall           'P 2yb'
loop_
_symmetry_equiv_pos_site_id
_symmetry_equiv_pos_as_xyz
1 x,y,z
2 -x,1/2+y,-z
_cell_length_a                   13.941(3)
_cell_length_b                   8.013(2)
_cell_length_c                   14.671(4)
_cell_angle_alpha                90
_cell_angle_beta                 101.112(4)
_cell_angle_gamma                90
_cell_volume                     1608.16
_exptl_crystal_colour            colorless
_exptl_crystal_description       prism
_cell_formula_units_Z            2
loop_
_atom_site_label
_atom_site_type_symbol
_atom_site_fract_x
_atom_site_fract_y
_atom_site_fract_z
N1 N 0.35365(18) 0.2261(4) 0.64893(19)
O1 O 0.77205(17) 0.1163(4) 0.80065(17)
O2 O 0.11882(16) 0.2514(4) 0.32160(16)
O3 O -0.06092(16) 0.2933(3) 0.35811(16)
O4 O -0.09440(16) 0.2691(4) 0.52982(17)
O5 O 0.25908(16) -0.1048(3) 0.59150(16)
H1 H 0.2030 -0.1404 0.5773
O6 O 0.32945(18) -0.2886(3) 0.83055(16)
O7 O 0.3859(2) 0.0171(4) 1.11374(17)
C1 C 0.4245(2) 0.1067(4) 0.6827(2)
C2 C 0.5151(2) 0.1659(5) 0.6728(2)
C3 C 0.4986(2) 0.3287(4) 0.6329(2)
C4 C 0.5618(2) 0.4490(5) 0.6054(2)
H2 H 0.6282 0.4272 0.6113
C5 C 0.5229(3) 0.5994(5) 0.5695(2)
H3 H 0.5636 0.6787 0.5505
C6 C 0.4227(2) 0.6341(5) 0.5615(2)
H4 H 0.3989 0.7377 0.5391
C7 C 0.3590(2) 0.5184(5) 0.5859(2)
H5 H 0.2926 0.5415 0.5794
C8 C 0.3975(2) 0.3655(5) 0.6207(2)
C9 C 0.2555(2) 0.1743(4) 0.6591(2)
H6 H 0.2400 0.2257 0.7151
C10 C 0.2699(2) -0.0171(5) 0.6754(2)
H7 H 0.2259 -0.0605 0.7143
C11 C 0.3791(2) -0.0326(5) 0.7254(2)
H8 H 0.4064 -0.1396 0.7105
C12 C 0.6131(2) 0.0819(5) 0.6996(2)
H9 H 0.6496 0.0955 0.6501
H10 H 0.6039 -0.0365 0.7084
C13 C 0.6707(2) 0.1578(6) 0.7892(2)
H11 H 0.6631 0.2781 0.7874
H12 H 0.6451 0.1160 0.8418
C14 C 0.8260(3) 0.1960(6) 0.8796(3)
H13 H 0.8074 0.1501 0.9348
H14 H 0.8102 0.3141 0.8770
C15 C 0.9354(3) 0.1747(5) 0.8863(3)
C16 C 0.9980(3) 0.2796(7) 0.9450(3)
H15 H 0.9726 0.3628 0.9777
C17 C 1.0985(3) 0.2609(7) 0.9552(4)
H16 H 1.1401 0.3297 0.9960
C18 C 1.1367(3) 0.1414(7) 0.9055(3)
H17 H 1.2040 0.1318 0.9106
C19 C 1.0745(3) 0.0356(6) 0.8477(3)
H18 H 1.0999 -0.0480 0.8153
C20 C 0.9734(3) 0.0542(5) 0.8380(2)
H19 H 0.9317 -0.0161 0.7983
C21 C 0.1737(2) 0.2136(5) 0.5765(2)
C22 C 0.1905(2) 0.2209(5) 0.4880(2)
H20 H 0.2538 0.2104 0.4774
C23 C 0.1119(2) 0.2443(5) 0.4126(2)
C24 C 0.0176(2) 0.2629(5) 0.4315(2)
C25 C 0.0016(2) 0.2531(5) 0.5203(2)
C26 C 0.0797(2) 0.2279(5) 0.5952(2)
H21 H 0.0690 0.2208 0.6558
C27 C 0.2112(3) 0.2139(6) 0.2990(3)
H22 H 0.2289 0.1011 0.3167
H23 H 0.2596 0.2887 0.3317
H24 H 0.2073 0.2267 0.2333
C28 C -0.0977(3) 0.1402(5) 0.3109(3)
H25 H -0.1123 0.0612 0.3556
H26 H -0.0492 0.0944 0.2798
H27 H -0.1561 0.1639 0.2663
C29 C -0.1188(3) 0.2386(6) 0.6173(3)
H28 H -0.0879 0.3206 0.6610
H29 H -0.0966 0.1293 0.6385
H30 H -0.1884 0.2450 0.6119
C30 C 0.3875(2) -0.0146(5) 0.8297(2)
C31 C 0.3581(2) -0.1456(5) 0.8815(2)
C32 C 0.3587(2) -0.1331(5) 0.9751(3)
H31 H 0.3392 -0.2230 1.0073
C33 C 0.3893(2) 0.0184(5) 1.0223(2)
C34 C 0.4199(2) 0.1469(5) 0.9735(2)
H32 H 0.4418 0.2456 1.0039
C35 C 0.4185(2) 0.1311(5) 0.8783(2)
H33 H 0.4390 0.2206 0.8465
C36 C 0.3097(3) -0.4342(5) 0.8801(3)
H34 H 0.2503 -0.4184 0.9028
H35 H 0.3627 -0.4530 0.9314
H36 H 0.3030 -0.5289 0.8392
C37 C 0.4134(3) 0.1670(6) 1.1650(3)
H37 H 0.3700 0.2556 1.1397
H38 H 0.4792 0.1962 1.1608
H39 H 0.4095 0.1498 1.2289
loop_
_geom_bond_atom_site_label_1
_geom_bond_atom_site_label_2
_geom_bond_site_symmetry_1
_geom_bond_site_symmetry_2
N1 C1 1_555 1_555
O1 C13 1_555 1_555
O2 C23 1_555 1_555
O3 C24 1_555 1_555
O4 C25 1_555 1_555
O5 H1 1_555 1_555
O6 C31 1_555 1_555
O7 C33 1_555 1_555
C1 C2 1_555 1_555
C2 C3 1_555 1_555
C3 C4 1_555 1_555
C4 H2 1_555 1_555
C5 C4 1_555 1_555
H3 C5 1_555 1_555
C6 C5 1_555 1_555
H4 C6 1_555 1_555
C7 C6 1_555 1_555
H5 C7 1_555 1_555
C8 N1 1_555 1_555
C9 N1 1_555 1_555
H6 C9 1_555 1_555
C10 O5 1_555 1_555
H7 C10 1_555 1_555
C11 C1 1_555 1_555
H8 C11 1_555 1_555
C12 C2 1_555 1_555
H9 C12 1_555 1_555
H10 C12 1_555 1_555
C13 C12 1_555 1_555
H11 C13 1_555 1_555
H12 C13 1_555 1_555
C14 O1 1_555 1_555
H13 C14 1_555 1_555
H14 C14 1_555 1_555
C15 C14 1_555 1_555
C16 C15 1_555 1_555
H15 C16 1_555 1_555
C17 C16 1_555 1_555
H16 C17 1_555 1_555
C18 C17 1_555 1_555
H17 C18 1_555 1_555
C19 C18 1_555 1_555
H18 C19 1_555 1_555
C20 C15 1_555 1_555
H19 C20 1_555 1_555
C21 C9 1_555 1_555
C22 C21 1_555 1_555
H20 C22 1_555 1_555
C23 C22 1_555 1_555
C24 C23 1_555 1_555
C25 C24 1_555 1_555
C26 C21 1_555 1_555
H21 C26 1_555 1_555
C27 O2 1_555 1_555
H22 C27 1_555 1_555
H23 C27 1_555 1_555
H24 C27 1_555 1_555
C28 O3 1_555 1_555
H25 C28 1_555 1_555
H26 C28 1_555 1_555
H27 C28 1_555 1_555
C29 O4 1_555 1_555
H28 C29 1_555 1_555
H29 C29 1_555 1_555
H30 C29 1_555 1_555
C30 C11 1_555 1_555
C31 C30 1_555 1_555
C32 C31 1_555 1_555
H31 C32 1_555 1_555
C33 C32 1_555 1_555
C34 C33 1_555 1_555
H32 C34 1_555 1_555
C35 C30 1_555 1_555
H33 C35 1_555 1_555
C36 O6 1_555 1_555
H34 C36 1_555 1_555
H35 C36 1_555 1_555
H36 C36 1_555 1_555
C37 O7 1_555 1_555
H37 C37 1_555 1_555
H38 C37 1_555 1_555
H39 C37 1_555 1_555
C3 C8 1_555 1_555
C7 C8 1_555 1_555
C9 C10 1_555 1_555
C10 C11 1_555 1_555
C19 C20 1_555 1_555
C25 C26 1_555 1_555
C34 C35 1_555 1_555

#END
