
#######################################################################
#
#                 Cambridge Crystallographic Data Centre
#                                CCDC 
#
#######################################################################
#
# If this CIF has been generated from an entry in the Cambridge 
# Structural Database, then it will include bibliographic, chemical, 
# crystal, experimental, refinement or atomic coordinate data resulting 
# from the CCDC's data processing and validation procedures.
#
#######################################################################

data_DEBXIT
_chemical_formula_moiety         'C23 H14 N6 O3'
_chemical_name_systematic        
5,7,15,17,24,26-Hexa-azaoctacyclo-[9.9.9.0^2,10^.0^4,8^.0^12,20^.0^14,18^.0^21,29^.0^23,27^]nonacosa-2(10),3,8,12(20),13,18,21(29),22,27-nonaene-6,16,25-trione
_symmetry_cell_setting           tetragonal
_symmetry_space_group_name_H-M   'P 42/m'
_symmetry_Int_Tables_number      84
_space_group_name_Hall           '-P 4c'
loop_
_symmetry_equiv_pos_site_id
_symmetry_equiv_pos_as_xyz
1 x,y,z
2 -x,-y,z
3 -y,x,1/2+z
4 y,-x,1/2+z
5 -x,-y,-z
6 x,y,-z
7 y,-x,1/2-z
8 -y,x,1/2-z
_cell_length_a                   22.5124(2)
_cell_length_b                   22.5124(2)
_cell_length_c                   7.33670(10)
_cell_angle_alpha                90
_cell_angle_beta                 90
_cell_angle_gamma                90
_cell_volume                     3718.3
_exptl_crystal_colour            orange
_exptl_crystal_description       prism
_cell_formula_units_Z            4
loop_
_atom_site_label
_atom_site_type_symbol
_atom_site_fract_x
_atom_site_fract_y
_atom_site_fract_z
C1 C 0.23354(6) 0.81344(6) 0.17585(17)
H1 H 0.2335 0.8134 0.3121
C2 C 0.21293(7) 0.75473(7) 0.09585(19)
C3 C 0.19669(7) 0.70502(7) 0.1945(2)
H2 H 0.1967 0.7049 0.3240
C4 C 0.18038(7) 0.65532(7) 0.0952(2)
C5 C 0.15264(13) 0.56449(10) 0.0000
C6 C 0.29516(6) 0.82474(6) 0.09565(19)
C7 C 0.34631(7) 0.83351(7) 0.1947(2)
H3 H 0.3461 0.8342 0.3241
C8 C 0.39856(7) 0.84136(7) 0.0948(2)
C9 C 0.49234(11) 0.85386(13) 0.0000
C10 C 0.19349(6) 0.86122(6) 0.09620(17)
C11 C 0.16125(6) 0.90233(6) 0.19525(18)
H4 H 0.1612 0.9024 0.3247
C12 C 0.12899(6) 0.94350(6) 0.09501(17)
C13 C 0.07033(9) 1.01838(9) 0.0000
O1 O 0.13795(10) 0.51044(7) 0.0000
O2 O 0.54737(7) 0.86013(11) 0.0000
O3 O 0.03413(6) 1.06044(6) 0.0000
N1 N 0.16297(7) 0.59842(6) 0.14907(17)
H5 H 0.1593 0.5864 0.2627
N2 N 0.45684(6) 0.85008(7) 0.14945(17)
H6 H 0.4690 0.8528 0.2632
N3 N 0.09363(5) 0.99106(5) 0.14920(14)
H7 H 0.0873 1.0018 0.2629
C1E C 0.23354(6) 0.81344(6) -0.17585(17)
H1E H 0.2335 0.8134 -0.3121
C2E C 0.21293(7) 0.75473(7) -0.09585(19)
C3E C 0.19669(7) 0.70502(7) -0.1945(2)
H2E H 0.1967 0.7049 -0.3240
C4E C 0.18038(7) 0.65532(7) -0.0952(2)
C6E C 0.29516(6) 0.82474(6) -0.09565(19)
C7E C 0.34631(7) 0.83351(7) -0.1947(2)
H3E H 0.3461 0.8342 -0.3241
C8E C 0.39856(7) 0.84136(7) -0.0948(2)
C10E C 0.19349(6) 0.86122(6) -0.09620(17)
C11E C 0.16125(6) 0.90233(6) -0.19525(18)
H4E H 0.1612 0.9024 -0.3247
C12E C 0.12899(6) 0.94350(6) -0.09501(17)
N1E N 0.16297(7) 0.59842(6) -0.14907(17)
H5E H 0.1593 0.5864 -0.2627
N2E N 0.45684(6) 0.85008(7) -0.14945(17)
H6E H 0.4690 0.8528 -0.2632
N3E N 0.09363(5) 0.99106(5) -0.14920(14)
H7E H 0.0873 1.0018 -0.2629
loop_
_geom_bond_atom_site_label_1
_geom_bond_atom_site_label_2
_geom_bond_site_symmetry_1
_geom_bond_site_symmetry_2
C1 H1 1_555 1_555
C2 C1 1_555 1_555
C3 C2 1_555 1_555
H2 C3 1_555 1_555
C4 C3 1_555 1_555
C5 O1 1_555 1_555
C6 C1 1_555 1_555
C7 C6 1_555 1_555
H3 C7 1_555 1_555
C8 C7 1_555 1_555
C9 O2 1_555 1_555
C10 C1 1_555 1_555
C11 C10 1_555 1_555
H4 C11 1_555 1_555
C12 C11 1_555 1_555
C13 O3 1_555 1_555
N1 C4 1_555 1_555
H5 N1 1_555 1_555
N2 C8 1_555 1_555
H6 N2 1_555 1_555
N3 C12 1_555 1_555
H7 N3 1_555 1_555
C1E H1E 1_555 1_555
C2E C2 1_555 1_555
C3E C2E 1_555 1_555
H2E C3E 1_555 1_555
C4E C4 1_555 1_555
C6E C6 1_555 1_555
C7E C6E 1_555 1_555
H3E C7E 1_555 1_555
C8E C8 1_555 1_555
C10E C10 1_555 1_555
C11E C10E 1_555 1_555
H4E C11E 1_555 1_555
C12E C12 1_555 1_555
N1E C5 1_555 1_555
H5E N1E 1_555 1_555
N2E C9 1_555 1_555
H6E N2E 1_555 1_555
N3E C13 1_555 1_555
H7E N3E 1_555 1_555
C5 N1 1_555 1_555
C9 N2 1_555 1_555
C13 N3 1_555 1_555
C1E C2E 1_555 1_555
C1E C6E 1_555 1_555
C1E C10E 1_555 1_555
C3E C4E 1_555 1_555
C4E N1E 1_555 1_555
C7E C8E 1_555 1_555
C8E N2E 1_555 1_555
C11E C12E 1_555 1_555
C12E N3E 1_555 1_555

#END
