
#######################################################################
#
#                 Cambridge Crystallographic Data Centre
#                                CCDC 
#
#######################################################################
#
# If this CIF has been generated from an entry in the Cambridge 
# Structural Database, then it will include bibliographic, chemical, 
# crystal, experimental, refinement or atomic coordinate data resulting 
# from the CCDC's data processing and validation procedures.
#
#######################################################################

data_DECCOG
_chemical_formula_moiety         'C23 H21 N5 O4'
_chemical_name_systematic        
2-(1,3-benzoxazol-2-yl)-5-(diethylamino)-4-[(4-nitrophenyl)diazenyl]phenol
_symmetry_cell_setting           monoclinic
_symmetry_space_group_name_H-M   'P 21/c'
_symmetry_Int_Tables_number      14
_space_group_name_Hall           '-P 2ybc'
loop_
_symmetry_equiv_pos_site_id
_symmetry_equiv_pos_as_xyz
1 x,y,z
2 -x,1/2+y,1/2-z
3 -x,-y,-z
4 x,1/2-y,1/2+z
_cell_length_a                   8.6040(6)
_cell_length_b                   19.117(2)
_cell_length_c                   12.267(3)
_cell_angle_alpha                90
_cell_angle_beta                 92.474(13)
_cell_angle_gamma                90
_cell_volume                     2015.83
_exptl_crystal_colour            red
_exptl_crystal_description       block
_cell_formula_units_Z            4
loop_
_atom_site_label
_atom_site_type_symbol
_atom_site_fract_x
_atom_site_fract_y
_atom_site_fract_z
C1 C 0.4105(2) -0.21759(10) -0.36120(15)
C2 C 0.4507(2) -0.26989(11) -0.43291(18)
H1 H 0.408945 -0.271157 -0.505852
C3 C 0.5535(2) -0.31986(12) -0.39392(19)
H2 H 0.582853 -0.356654 -0.440855
C4 C 0.6161(3) -0.31788(11) -0.28679(19)
H3 H 0.687513 -0.353201 -0.263052
C5 C 0.5773(2) -0.26625(11) -0.21497(18)
H4 H 0.619377 -0.264460 -0.142152
C6 C 0.4733(2) -0.21745(10) -0.25582(16)
C7 C 0.3158(2) -0.12975(10) -0.27980(15)
C8 C 0.2353(2) -0.06683(9) -0.25264(15)
C9 C 0.1533(2) -0.02866(10) -0.33583(15)
C10 C 0.0775(2) 0.03186(10) -0.31182(16)
H5 H 0.025486 0.056874 -0.369488
C11 C 0.0735(2) 0.05860(9) -0.20524(15)
C12 C 0.1613(2) 0.02123(9) -0.12218(15)
C13 C 0.2379(2) -0.03983(9) -0.14857(15)
H6 H 0.294755 -0.064143 -0.092306
C14 C 0.2645(2) 0.04358(10) 0.15757(15)
C15 C 0.3697(2) 0.01205(10) 0.23066(16)
H7 H 0.432918 -0.025344 0.207224
C16 C 0.3832(2) 0.03472(10) 0.33734(16)
H8 H 0.455422 0.013507 0.387918
C17 C 0.2897(2) 0.08865(10) 0.36884(16)
C18 C 0.1832(2) 0.12066(11) 0.29773(17)
H9 H 0.119455 0.157652 0.321803
C19 C 0.1714(2) 0.09796(10) 0.19159(16)
H10 H 0.099237 0.119509 0.141294
C20 C -0.0555(3) 0.16445(11) -0.28023(18)
H11 H 0.021881 0.160790 -0.337418
H12 H -0.056158 0.213603 -0.254866
C21 C -0.2127(3) 0.14697(13) -0.3296(2)
H13 H -0.212066 0.099045 -0.357887
H14 H -0.238628 0.179538 -0.389312
H15 H -0.290460 0.150887 -0.273806
C22 C -0.0749(2) 0.13778(11) -0.08513(17)
H16 H -0.063209 0.097945 -0.033868
H17 H -0.187620 0.146063 -0.099052
C23 C -0.0031(3) 0.20196(11) -0.0323(2)
H18 H 0.108699 0.194372 -0.018770
H19 H -0.051893 0.210947 0.037100
H20 H -0.019510 0.242271 -0.080753
N1 N 0.31021(18) -0.16072(8) -0.37380(13)
N2 N -0.0056(2) 0.11904(8) -0.18764(14)
N3 N 0.17477(18) 0.04979(8) -0.01669(12)
N4 N 0.25756(19) 0.01480(8) 0.05055(13)
N5 N 0.3033(2) 0.11312(9) 0.48150(14)
O1 O 0.41195(15) -0.16090(7) -0.20204(10)
O2 O 0.14652(19) -0.05063(8) -0.43998(11)
O3 O 0.4046(2) 0.08857(9) 0.54198(13)
O4 O 0.21177(19) 0.15776(9) 0.51025(12)
H21 H 0.191(3) -0.0911(14) -0.442(2)
loop_
_geom_bond_atom_site_label_1
_geom_bond_atom_site_label_2
_geom_bond_site_symmetry_1
_geom_bond_site_symmetry_2
C1 C2 1_555 1_555
C2 H1 1_555 1_555
C3 C2 1_555 1_555
H2 C3 1_555 1_555
C4 C3 1_555 1_555
H3 C4 1_555 1_555
C5 C4 1_555 1_555
H4 C5 1_555 1_555
C6 C1 1_555 1_555
C7 C8 1_555 1_555
C8 C9 1_555 1_555
C9 C10 1_555 1_555
C10 H5 1_555 1_555
C11 C10 1_555 1_555
C12 C11 1_555 1_555
C13 C8 1_555 1_555
H6 C13 1_555 1_555
C14 C15 1_555 1_555
C15 H7 1_555 1_555
C16 C15 1_555 1_555
H8 C16 1_555 1_555
C17 C16 1_555 1_555
C18 C17 1_555 1_555
H9 C18 1_555 1_555
C19 C14 1_555 1_555
H10 C19 1_555 1_555
C20 H11 1_555 1_555
H12 C20 1_555 1_555
C21 C20 1_555 1_555
H13 C21 1_555 1_555
H14 C21 1_555 1_555
H15 C21 1_555 1_555
C22 H16 1_555 1_555
H17 C22 1_555 1_555
C23 C22 1_555 1_555
H18 C23 1_555 1_555
H19 C23 1_555 1_555
H20 C23 1_555 1_555
N1 C1 1_555 1_555
N2 C11 1_555 1_555
N3 C12 1_555 1_555
N4 C14 1_555 1_555
N5 C17 1_555 1_555
O1 C6 1_555 1_555
O2 C9 1_555 1_555
O3 N5 1_555 1_555
O4 N5 1_555 1_555
H21 O2 1_555 1_555
C5 C6 1_555 1_555
C7 N1 1_555 1_555
C7 O1 1_555 1_555
C12 C13 1_555 1_555
C18 C19 1_555 1_555
C20 N2 1_555 1_555
C22 N2 1_555 1_555
N3 N4 1_555 1_555

#END
