
#######################################################################
#
#                 Cambridge Crystallographic Data Centre
#                                CCDC 
#
#######################################################################
#
# If this CIF has been generated from an entry in the Cambridge 
# Structural Database, then it will include bibliographic, chemical, 
# crystal, experimental, refinement or atomic coordinate data resulting 
# from the CCDC's data processing and validation procedures.
#
#######################################################################

data_DECDOF
_chemical_formula_moiety         'C13 H21 N5 O2'
_chemical_name_systematic        
N-(1-carbamoyl-4-((diaminomethyl)amino)butyl)benzamide
_symmetry_cell_setting           monoclinic
_symmetry_space_group_name_H-M   'P 21/n'
_symmetry_Int_Tables_number      14
_space_group_name_Hall           '-P 2yn'
loop_
_symmetry_equiv_pos_site_id
_symmetry_equiv_pos_as_xyz
1 x,y,z
2 1/2-x,1/2+y,1/2-z
3 -x,-y,-z
4 1/2+x,1/2-y,1/2+z
_cell_length_a                   9.2838(15)
_cell_length_b                   9.7000(16)
_cell_length_c                   14.836(2)
_cell_angle_alpha                90
_cell_angle_beta                 90.411(3)
_cell_angle_gamma                90
_cell_volume                     1335.99
_exptl_crystal_description       PRISM
_cell_formula_units_Z            4
loop_
_atom_site_label
_atom_site_type_symbol
_atom_site_fract_x
_atom_site_fract_y
_atom_site_fract_z
O1 O 0.08093(11) 0.94492(10) -0.12303(7)
O2 O 0.34250(10) 0.77325(10) 0.02886(7)
N1 N 0.11924(11) 0.85570(11) 0.05401(7)
H1 H 0.0651 0.9095 0.0850
N2 N -0.33154(13) 0.51958(12) 0.04731(8)
H2 H -0.3146 0.4333 0.0392
N3 N -0.31839(15) 0.47786(14) 0.19900(9)
H3 H -0.318(4) 0.516(3) 0.246(2)
H4 H -0.245(3) 0.409(3) 0.189(2)
N4 N -0.41807(14) 0.68021(13) 0.14968(9)
H5 H -0.470(3) 0.729(3) 0.101(2)
H6 H -0.441(3) 0.704(3) 0.209(2)
N5 N 0.10733(12) 0.72825(11) -0.16879(7)
H7 H 0.1223 0.7530 -0.2236
H8 H 0.1081 0.6423 -0.1547
C1 C 0.05501(14) 0.76460(13) -0.01345(9)
H9 H 0.1003 0.6738 -0.0073
C2 C -0.10656(14) 0.74783(14) 0.00443(9)
H10 H -0.1197 0.7143 0.0654
H11 H -0.1528 0.8373 -0.0001
C3 C -0.17932(14) 0.64879(15) -0.06111(9)
H12 H -0.1206 0.5665 -0.0663
H13 H -0.1841 0.6917 -0.1201
C4 C -0.33112(15) 0.60683(16) -0.03318(9)
H14 H -0.3873 0.6892 -0.0216
H15 H -0.3769 0.5575 -0.0825
C5 C -0.35551(13) 0.55978(13) 0.13237(9)
H16 H -0.2605 0.6037 0.1347
C6 C 0.08428(13) 0.81764(13) -0.10940(9)
C7 C 0.26160(13) 0.85604(13) 0.06785(8)
C8 C 0.32158(14) 0.95996(13) 0.13246(9)
C9 C 0.24151(15) 1.01271(15) 0.20396(9)
H17 H 0.1481 0.9817 0.2135
C10 C 0.30091(18) 1.11115(17) 0.26079(11)
H18 H 0.2474 1.1461 0.3083
C11 C 0.44027(18) 1.15744(17) 0.24665(11)
H19 H 0.4797 1.2241 0.2845
C12 C 0.52074(17) 1.10507(17) 0.17674(11)
H20 H 0.6141 1.1365 0.1673
C13 C 0.46190(16) 1.00563(15) 0.12067(10)
H21 H 0.5171 0.9689 0.0745
loop_
_geom_bond_atom_site_label_1
_geom_bond_atom_site_label_2
_geom_bond_site_symmetry_1
_geom_bond_site_symmetry_2
O1 C6 1_555 1_555
O2 C7 1_555 1_555
N1 H1 1_555 1_555
N2 H2 1_555 1_555
N3 H3 1_555 1_555
H4 N3 1_555 1_555
N4 H5 1_555 1_555
H6 N4 1_555 1_555
N5 H7 1_555 1_555
H8 N5 1_555 1_555
C1 N1 1_555 1_555
H9 C1 1_555 1_555
C2 C1 1_555 1_555
H10 C2 1_555 1_555
H11 C2 1_555 1_555
C3 C2 1_555 1_555
H12 C3 1_555 1_555
H13 C3 1_555 1_555
C4 N2 1_555 1_555
H14 C4 1_555 1_555
H15 C4 1_555 1_555
C5 N2 1_555 1_555
H16 C5 1_555 1_555
C6 N5 1_555 1_555
C7 N1 1_555 1_555
C8 C7 1_555 1_555
C9 C8 1_555 1_555
H17 C9 1_555 1_555
C10 C9 1_555 1_555
H18 C10 1_555 1_555
C11 C10 1_555 1_555
H19 C11 1_555 1_555
C12 C11 1_555 1_555
H20 C12 1_555 1_555
C13 C8 1_555 1_555
H21 C13 1_555 1_555
N3 C5 1_555 1_555
N4 C5 1_555 1_555
C1 C6 1_555 1_555
C3 C4 1_555 1_555
C12 C13 1_555 1_555

#END
