
#######################################################################
#
#                 Cambridge Crystallographic Data Centre
#                                CCDC 
#
#######################################################################
#
# If this CIF has been generated from an entry in the Cambridge 
# Structural Database, then it will include bibliographic, chemical, 
# crystal, experimental, refinement or atomic coordinate data resulting 
# from the CCDC's data processing and validation procedures.
#
#######################################################################

data_DECFOJ
_chemical_formula_moiety         'C24 H32 N2 O4'
_chemical_name_systematic        
'ethyl 5-((5-(ethoxycarbonyl)-3,4-diethyl-1H-pyrrol-2-yl)ethynyl)-3,4-diethyl-1H-pyrrole-2-carboxylate'
_symmetry_cell_setting           monoclinic
_symmetry_space_group_name_H-M   'C 2/c'
_symmetry_Int_Tables_number      15
_space_group_name_Hall           '-C 2yn'
loop_
_symmetry_equiv_pos_site_id
_symmetry_equiv_pos_as_xyz
1 x,y,z
2 -x,y,1/2-z
3 1/2+x,1/2+y,z
4 1/2-x,1/2+y,1/2-z
5 -x,-y,-z
6 x,-y,1/2+z
7 1/2-x,1/2-y,-z
8 1/2+x,1/2-y,1/2+z
_cell_length_a                   13.470(3)
_cell_length_b                   15.343(3)
_cell_length_c                   12.671(3)
_cell_angle_alpha                90
_cell_angle_beta                 113.48(3)
_cell_angle_gamma                90
_cell_volume                     2401.89
_exptl_crystal_colour            colorless
_exptl_crystal_description       block
_cell_formula_units_Z            4
loop_
_atom_site_label
_atom_site_type_symbol
_atom_site_fract_x
_atom_site_fract_y
_atom_site_fract_z
N1 N 0.16770(12) 0.37879(10) -0.02280(13)
O1 O 0.35369(12) 0.37657(9) 0.27118(11)
O2 O 0.30276(16) 0.26794(10) 0.14552(12)
C1 C 0.10613(13) 0.44560(11) -0.08519(15)
C2 C 0.03291(13) 0.43834(10) -0.20099(15)
C3 C 0.20138(14) 0.49353(11) 0.09547(15)
C4 C 0.22704(14) 0.40642(11) 0.08641(14)
C5 C 0.12521(14) 0.51788(11) -0.01338(16)
C6 C 0.29633(16) 0.34338(13) 0.16774(16)
C7 C 0.24597(17) 0.55170(13) 0.19966(17)
H1 H 0.1927 0.5959 0.1943
H2 H 0.2588 0.5173 0.2681
C8 C 0.07216(18) 0.60494(12) -0.05138(19)
H3 H -0.0020 0.5960 -0.1054
H4 H 0.0704 0.6355 0.0149
C9 C 0.4209(2) 0.31670(17) 0.35833(18)
H5 H 0.4653 0.2828 0.3291
H6 H 0.3761 0.2769 0.3796
C10 C 0.4897(3) 0.3673(2) 0.4586(2)
H7 H 0.5340 0.4063 0.4369
H8 H 0.5351 0.3285 0.5175
H9 H 0.4451 0.4003 0.4872
C11 C 0.1290(2) 0.66058(17) -0.1069(2)
H10 H 0.2004 0.6742 -0.0517
H11 H 0.0890 0.7135 -0.1342
H12 H 0.1340 0.6297 -0.1705
C12 C 0.3489(2) 0.5950(2) 0.2110(2)
H13 H 0.4040 0.5517 0.2241
H14 H 0.3712 0.6349 0.2747
H15 H 0.3376 0.6263 0.1416
H16 H 0.1701(15) 0.3272(14) -0.0474(16)
N1A N -0.16770(12) 0.37879(10) -0.47720(13)
O1A O -0.35369(12) 0.37657(9) -0.77118(11)
O2A O -0.30276(16) 0.26794(10) -0.64552(12)
C1A C -0.10613(13) 0.44560(11) -0.41481(15)
C2A C -0.03291(13) 0.43834(10) -0.29901(15)
C3A C -0.20138(14) 0.49353(11) -0.59547(15)
C4A C -0.22704(14) 0.40642(11) -0.58641(14)
C5A C -0.12521(14) 0.51788(11) -0.48662(16)
C6A C -0.29633(16) 0.34338(13) -0.66774(16)
C7A C -0.24597(17) 0.55170(13) -0.69966(17)
H1A H -0.1927 0.5959 -0.6943
H2A H -0.2588 0.5173 -0.7681
C8A C -0.07216(18) 0.60494(12) -0.44862(19)
H3A H 0.0020 0.5960 -0.3946
H4A H -0.0704 0.6355 -0.5149
C9A C -0.4209(2) 0.31670(17) -0.85833(18)
H5A H -0.4653 0.2828 -0.8291
H6A H -0.3761 0.2769 -0.8796
C10A C -0.4897(3) 0.3673(2) -0.9586(2)
H7A H -0.5340 0.4063 -0.9369
H8A H -0.5351 0.3285 -1.0175
H9A H -0.4451 0.4003 -0.9872
C11A C -0.1290(2) 0.66058(17) -0.3931(2)
H10A H -0.2004 0.6742 -0.4483
H11A H -0.0890 0.7135 -0.3658
H12A H -0.1340 0.6297 -0.3295
C12A C -0.3489(2) 0.5950(2) -0.7110(2)
H13A H -0.4040 0.5517 -0.7241
H14A H -0.3712 0.6349 -0.7747
H15A H -0.3376 0.6263 -0.6416
H16A H -0.1701(15) 0.3272(14) -0.4526(16)
loop_
_geom_bond_atom_site_label_1
_geom_bond_atom_site_label_2
_geom_bond_site_symmetry_1
_geom_bond_site_symmetry_2
N1 C1 1_555 1_555
O1 C6 1_555 1_555
O2 C6 1_555 1_555
C1 C2 1_555 1_555
C2 C2A 1_555 1_555
C3 C4 1_555 1_555
C4 N1 1_555 1_555
C5 C1 1_555 1_555
C6 C4 1_555 1_555
C7 C3 1_555 1_555
H1 C7 1_555 1_555
H2 C7 1_555 1_555
C8 C5 1_555 1_555
H3 C8 1_555 1_555
H4 C8 1_555 1_555
C9 O1 1_555 1_555
H5 C9 1_555 1_555
H6 C9 1_555 1_555
C10 C9 1_555 1_555
H7 C10 1_555 1_555
H8 C10 1_555 1_555
H9 C10 1_555 1_555
C11 C8 1_555 1_555
H10 C11 1_555 1_555
H11 C11 1_555 1_555
H12 C11 1_555 1_555
C12 C7 1_555 1_555
H13 C12 1_555 1_555
H14 C12 1_555 1_555
H15 C12 1_555 1_555
H16 N1 1_555 1_555
N1A C1A 1_555 1_555
O1A C6A 1_555 1_555
O2A C6A 1_555 1_555
C1A C2A 1_555 1_555
C3A C4A 1_555 1_555
C4A N1A 1_555 1_555
C5A C1A 1_555 1_555
C6A C4A 1_555 1_555
C7A C3A 1_555 1_555
H1A C7A 1_555 1_555
H2A C7A 1_555 1_555
C8A C5A 1_555 1_555
H3A C8A 1_555 1_555
H4A C8A 1_555 1_555
C9A O1A 1_555 1_555
H5A C9A 1_555 1_555
H6A C9A 1_555 1_555
C10A C9A 1_555 1_555
H7A C10A 1_555 1_555
H8A C10A 1_555 1_555
H9A C10A 1_555 1_555
C11A C8A 1_555 1_555
H10A C11A 1_555 1_555
H11A C11A 1_555 1_555
H12A C11A 1_555 1_555
C12A C7A 1_555 1_555
H13A C12A 1_555 1_555
H14A C12A 1_555 1_555
H15A C12A 1_555 1_555
H16A N1A 1_555 1_555
C3 C5 1_555 1_555
C3A C5A 1_555 1_555

#END
