
#######################################################################
#
#                 Cambridge Crystallographic Data Centre
#                                CCDC 
#
#######################################################################
#
# If this CIF has been generated from an entry in the Cambridge 
# Structural Database, then it will include bibliographic, chemical, 
# crystal, experimental, refinement or atomic coordinate data resulting 
# from the CCDC's data processing and validation procedures.
#
#######################################################################

data_DECGAV
_chemical_formula_moiety         'C23 H20 N4 O7 S2'
_chemical_name_systematic        
'2-Methyl-1,1-dioxido-3-(pyridin-2-ylcarbamoyl)-2H-1,2-benzothiazin-4-yl 4-acetamidobenzenesulfonate'
_symmetry_cell_setting           monoclinic
_symmetry_space_group_name_H-M   'P 21/c'
_symmetry_Int_Tables_number      14
_space_group_name_Hall           '-P 2ybc'
loop_
_symmetry_equiv_pos_site_id
_symmetry_equiv_pos_as_xyz
1 x,y,z
2 -x,1/2+y,1/2-z
3 -x,-y,-z
4 x,1/2-y,1/2+z
_cell_length_a                   8.418(4)
_cell_length_b                   29.424(12)
_cell_length_c                   9.807(4)
_cell_angle_alpha                90
_cell_angle_beta                 108.722(8)
_cell_angle_gamma                90
_cell_volume                     2300.58
_exptl_crystal_colour            colorless
_exptl_crystal_description       plate
_cell_formula_units_Z            4
loop_
_atom_site_label
_atom_site_type_symbol
_atom_site_fract_x
_atom_site_fract_y
_atom_site_fract_z
S1 S 0.71724(12) 0.10347(3) 0.19017(11)
S2 S 0.39950(11) 0.09264(3) 0.53760(11)
O1 O 0.7994(3) 0.09991(8) 0.0842(3)
O2 O 0.6688(3) 0.14737(7) 0.2283(3)
O3 O 0.8706(3) 0.05744(7) 0.7029(3)
O4 O 0.5267(3) 0.05331(7) 0.5168(3)
O5 O 0.2894(3) 0.10483(7) 0.3996(3)
O6 O 0.3383(3) 0.07246(7) 0.6429(3)
O7 O 0.9333(3) 0.26917(7) 0.5936(3)
C1 C 0.7627(4) 0.07368(10) 0.4498(4)
N1 N 0.9714(4) 0.11943(9) 0.6136(3)
H1 H 0.9635 0.1330 0.5340
N2 N 1.1804(4) 0.17102(9) 0.7028(4)
N3 N 0.8725(4) 0.24188(8) 0.7882(3)
H2 H 0.8945 0.2454 0.8794
C2 C 0.6012(5) 0.05988(10) 0.4102(4)
C3 C 0.4988(4) 0.04989(10) 0.2629(4)
C4 C 0.3558(4) 0.02155(10) 0.2307(4)
H3 H 0.3247 0.0086 0.3049
C5 C 0.2627(4) 0.01307(11) 0.0898(4)
H4 H 0.1683 -0.0054 0.0699
C6 C 0.3065(5) 0.03135(11) -0.0223(4)
H5 H 0.2407 0.0255 -0.1168
C7 C 0.4486(5) 0.05850(11) 0.0050(4)
H6 H 0.4803 0.0704 -0.0703
C8 C 0.5415(4) 0.06740(10) 0.1462(4)
N4 N 0.8398(4) 0.08092(9) 0.3420(3)
C9 C 0.9599(4) 0.04472(12) 0.3353(4)
H7 H 1.0499 0.0435 0.4250
H8 H 1.0044 0.0512 0.2587
H9 H 0.9031 0.0160 0.3178
C10 C 0.8718(4) 0.08173(11) 0.6025(4)
C11 C 1.0852(4) 0.13882(10) 0.7387(4)
C12 C 1.0957(5) 0.12749(12) 0.8765(4)
H10 H 1.0273 0.1051 0.8947
C13 C 1.2113(5) 0.15038(13) 0.9880(5)
H11 H 1.2219 0.1436 1.0831
C14 C 1.3117(5) 0.18368(12) 0.9563(5)
H12 H 1.3899 0.1997 1.0292
C15 C 1.2914(5) 0.19192(12) 0.8155(5)
H13 H 1.3602 0.2139 0.7953
C16 C 0.5337(4) 0.13817(10) 0.6089(4)
C17 C 0.5522(4) 0.17264(11) 0.5199(4)
H14 H 0.4909 0.1722 0.4224
C18 C 0.6630(4) 0.20802(10) 0.5770(4)
H15 H 0.6760 0.2314 0.5177
C19 C 0.7540(4) 0.20837(10) 0.7223(4)
C20 C 0.7305(4) 0.17386(11) 0.8124(4)
H16 H 0.7872 0.1748 0.9109
C21 C 0.6230(4) 0.13849(11) 0.7543(4)
H17 H 0.6105 0.1148 0.8129
C22 C 0.9567(4) 0.26955(10) 0.7222(4)
C23 C 1.0821(5) 0.30082(11) 0.8224(4)
H18 H 1.1905 0.2960 0.8122
H19 H 1.0875 0.2946 0.9199
H20 H 1.0483 0.3318 0.7991
loop_
_geom_bond_atom_site_label_1
_geom_bond_atom_site_label_2
_geom_bond_site_symmetry_1
_geom_bond_site_symmetry_2
S1 O1 1_555 1_555
S2 O4 1_555 1_555
O2 S1 1_555 1_555
O3 C10 1_555 1_555
O4 C2 1_555 1_555
O5 S2 1_555 1_555
O6 S2 1_555 1_555
O7 C22 1_555 1_555
C1 C2 1_555 1_555
N1 H1 1_555 1_555
N2 C11 1_555 1_555
N3 H2 1_555 1_555
C2 C3 1_555 1_555
C3 C4 1_555 1_555
C4 H3 1_555 1_555
C5 C4 1_555 1_555
H4 C5 1_555 1_555
C6 C5 1_555 1_555
H5 C6 1_555 1_555
C7 C6 1_555 1_555
H6 C7 1_555 1_555
C8 S1 1_555 1_555
N4 S1 1_555 1_555
C9 N4 1_555 1_555
H7 C9 1_555 1_555
H8 C9 1_555 1_555
H9 C9 1_555 1_555
C10 C1 1_555 1_555
C11 N1 1_555 1_555
C12 C11 1_555 1_555
H10 C12 1_555 1_555
C13 C12 1_555 1_555
H11 C13 1_555 1_555
C14 C13 1_555 1_555
H12 C14 1_555 1_555
C15 N2 1_555 1_555
H13 C15 1_555 1_555
C16 S2 1_555 1_555
C17 C16 1_555 1_555
H14 C17 1_555 1_555
C18 C17 1_555 1_555
H15 C18 1_555 1_555
C19 N3 1_555 1_555
C20 C19 1_555 1_555
H16 C20 1_555 1_555
C21 C16 1_555 1_555
H17 C21 1_555 1_555
C22 N3 1_555 1_555
C23 C22 1_555 1_555
H18 C23 1_555 1_555
H19 C23 1_555 1_555
H20 C23 1_555 1_555
C1 N4 1_555 1_555
N1 C10 1_555 1_555
C3 C8 1_555 1_555
C7 C8 1_555 1_555
C14 C15 1_555 1_555
C18 C19 1_555 1_555
C20 C21 1_555 1_555

#END
