
#######################################################################
#
#                 Cambridge Crystallographic Data Centre
#                                CCDC 
#
#######################################################################
#
# If this CIF has been generated from an entry in the Cambridge 
# Structural Database, then it will include bibliographic, chemical, 
# crystal, experimental, refinement or atomic coordinate data resulting 
# from the CCDC's data processing and validation procedures.
#
#######################################################################

data_DECGUQ
_chemical_formula_moiety         'C19 H15 I1 N2 O2'
_chemical_name_systematic        
1-((1-phenyl-2-isoquinolin-2-yl)-iodanyl)pyrrolidine-2,5-dione
_symmetry_cell_setting           monoclinic
_symmetry_space_group_name_H-M   'P 21/n'
_symmetry_Int_Tables_number      14
_space_group_name_Hall           '-P 2yn'
loop_
_symmetry_equiv_pos_site_id
_symmetry_equiv_pos_as_xyz
1 x,y,z
2 1/2-x,1/2+y,1/2-z
3 -x,-y,-z
4 1/2+x,1/2-y,1/2+z
_cell_length_a                   13.3800(19)
_cell_length_b                   8.1608(11)
_cell_length_c                   15.983(2)
_cell_angle_alpha                90
_cell_angle_beta                 103.958(3)
_cell_angle_gamma                90
_cell_volume                     1693.68
_exptl_crystal_colour            colorless
_exptl_crystal_description       prismatic
_cell_formula_units_Z            4
loop_
_atom_site_label
_atom_site_type_symbol
_atom_site_fract_x
_atom_site_fract_y
_atom_site_fract_z
I1 I 0.68195(2) 0.58975(2) 0.87705(2)
N1 N 0.8433(2) 0.5408(3) 0.82778(18)
N2 N 0.5451(2) 0.6445(3) 0.91181(18)
O1 O 0.4406(2) 0.4736(4) 0.8178(2)
O2 O 0.6118(2) 0.8234(4) 1.01919(19)
C1 C 1.0017(2) 0.4198(3) 0.8179(2)
C2 C 1.0813(3) 0.3091(4) 0.8472(2)
H1 H 1.0744 0.2288 0.8867
C3 C 1.1678(3) 0.3164(5) 0.8194(3)
H2 H 1.2213 0.2438 0.8412
C4 C 1.1786(3) 0.4316(5) 0.7580(3)
H3 H 1.2382 0.4334 0.7378
C5 C 1.1035(3) 0.5396(5) 0.7282(2)
H4 H 1.1111 0.6161 0.6870
C6 C 1.0136(3) 0.5385(4) 0.7581(2)
C7 C 0.9374(3) 0.6579(5) 0.7358(3)
H5 H 0.9429 0.7388 0.6962
C8 C 0.8572(3) 0.6566(5) 0.7708(3)
H6 H 0.8081 0.7390 0.7555
C9 C 0.9119(3) 0.4244(3) 0.8496(2)
C10 C 0.8921(2) 0.3004(4) 0.91129(19)
C11 C 0.8868(3) 0.3468(5) 0.9922(2)
H7 H 0.8989 0.4556 1.0090
C12 C 0.8642(3) 0.2363(6) 1.0487(2)
H8 H 0.8621 0.2693 1.1039
C13 C 0.8450(4) 0.0800(6) 1.0248(4)
H9 H 0.8271 0.0056 1.0628
C14 C 0.8516(4) 0.0293(5) 0.9454(4)
H10 H 0.8381 -0.0795 0.9292
C15 C 0.8783(3) 0.1389(5) 0.8884(3)
H11 H 0.8868 0.1033 0.8352
C16 C 0.4524(3) 0.5745(4) 0.8737(3)
C17 C 0.3724(3) 0.6451(5) 0.9133(3)
H12 H 0.3403 0.5602 0.9404
H13 H 0.3195 0.7003 0.8703
C18 C 0.4292(3) 0.7642(5) 0.9790(3)
H14 H 0.4032 0.8744 0.9653
H15 H 0.4214 0.7356 1.0359
C19 C 0.5395(3) 0.7533(4) 0.9755(2)
loop_
_geom_bond_atom_site_label_1
_geom_bond_atom_site_label_2
_geom_bond_site_symmetry_1
_geom_bond_site_symmetry_2
I1 N1 1_555 1_555
N1 C8 1_555 1_555
N2 I1 1_555 1_555
O1 C16 1_555 1_555
O2 C19 1_555 1_555
C1 C2 1_555 1_555
C2 H1 1_555 1_555
C3 C2 1_555 1_555
H2 C3 1_555 1_555
C4 C3 1_555 1_555
H3 C4 1_555 1_555
C5 C4 1_555 1_555
H4 C5 1_555 1_555
C6 C1 1_555 1_555
C7 C6 1_555 1_555
H5 C7 1_555 1_555
C8 C7 1_555 1_555
H6 C8 1_555 1_555
C9 N1 1_555 1_555
C10 C9 1_555 1_555
C11 C10 1_555 1_555
H7 C11 1_555 1_555
C12 C11 1_555 1_555
H8 C12 1_555 1_555
C13 C12 1_555 1_555
H9 C13 1_555 1_555
C14 C13 1_555 1_555
H10 C14 1_555 1_555
C15 C10 1_555 1_555
H11 C15 1_555 1_555
C16 N2 1_555 1_555
C17 C16 1_555 1_555
H12 C17 1_555 1_555
H13 C17 1_555 1_555
C18 C17 1_555 1_555
H14 C18 1_555 1_555
H15 C18 1_555 1_555
C19 N2 1_555 1_555
C1 C9 1_555 1_555
C5 C6 1_555 1_555
C14 C15 1_555 1_555
C18 C19 1_555 1_555

#END
