
#######################################################################
#
#                 Cambridge Crystallographic Data Centre
#                                CCDC 
#
#######################################################################
#
# If this CIF has been generated from an entry in the Cambridge 
# Structural Database, then it will include bibliographic, chemical, 
# crystal, experimental, refinement or atomic coordinate data resulting 
# from the CCDC's data processing and validation procedures.
#
#######################################################################

data_DECJAX
_chemical_formula_moiety         'C2 H2 B1 F4 N1'
_chemical_name_systematic        N-(Trifluoroboryl)-fluoroacetonitrile
_symmetry_cell_setting           monoclinic
_symmetry_space_group_name_H-M   'P 21'
_symmetry_Int_Tables_number      4
_space_group_name_Hall           'P 2yb'
loop_
_symmetry_equiv_pos_site_id
_symmetry_equiv_pos_as_xyz
1 x,y,z
2 -x,1/2+y,-z
_cell_length_a                   5.173(1)
_cell_length_b                   5.754(1)
_cell_length_c                   7.927(1)
_cell_angle_alpha                90
_cell_angle_beta                 99.00(2)
_cell_angle_gamma                90
_cell_volume                     233.046
_exptl_crystal_colour            colorless
_exptl_crystal_description       plate
_cell_formula_units_Z            2
loop_
_atom_site_label
_atom_site_type_symbol
_atom_site_fract_x
_atom_site_fract_y
_atom_site_fract_z
B1 B -0.6527(9) 0.3222(8) 0.7150(7)
F1 F -0.8574(5) 0.4177(5) 0.6142(3)
F2 F -0.7046(6) 0.2664(5) 0.8733(3)
F3 F -0.5423(6) 0.1439(5) 0.6406(4)
N1 N -0.4305(7) 0.5262(7) 0.7474(5)
C1 C -0.0797(8) 0.8523(8) 0.7983(6)
H1 H -0.0245 0.8968 0.6884
H2 H -0.1539 0.9909 0.8472
C2 C -0.2768(8) 0.6670(8) 0.7705(5)
F4 F 0.1293(4) 0.7711(5) 0.9082(3)
loop_
_geom_bond_atom_site_label_1
_geom_bond_atom_site_label_2
_geom_bond_site_symmetry_1
_geom_bond_site_symmetry_2
B1 F1 1_555 1_555
F2 B1 1_555 1_555
F3 B1 1_555 1_555
N1 B1 1_555 1_555
C1 H1 1_555 1_555
H2 C1 1_555 1_555
C2 N1 1_555 1_555
F4 C1 1_555 1_555
C1 C2 1_555 1_555

#END
