
#######################################################################
#
#                 Cambridge Crystallographic Data Centre
#                                CCDC 
#
#######################################################################
#
# If this CIF has been generated from an entry in the Cambridge 
# Structural Database, then it will include bibliographic, chemical, 
# crystal, experimental, refinement or atomic coordinate data resulting 
# from the CCDC's data processing and validation procedures.
#
#######################################################################

data_DECKEE
_chemical_formula_moiety         'C44 H7 Cl1 F20 S4,2(C1 H2 Cl2)'
_chemical_name_systematic        
'5-chloro-2,7,12,17-tetrakis(pentafluorophenyl)-4,21,22,23-tetrathiapentacyclo[16.2.1.1^3,6^.1^8,11^.1^13,16^]tetracosa-1,3(24),5,7,9,11,13,15,17,19-decaene dichloromethane solvate'
_symmetry_cell_setting           triclinic
_symmetry_space_group_name_H-M   'P 1'
_symmetry_Int_Tables_number      1
_space_group_name_Hall           'P 1'
loop_
_symmetry_equiv_pos_site_id
_symmetry_equiv_pos_as_xyz
1 x,y,z
_cell_length_a                   8.198(3)
_cell_length_b                   10.441(4)
_cell_length_c                   13.934(5)
_cell_angle_alpha                101.832(7)
_cell_angle_beta                 96.687(9)
_cell_angle_gamma                104.041(8)
_cell_volume                     1114.99
_exptl_crystal_colour            brown
_exptl_crystal_description       rectangle
_cell_formula_units_Z            1
loop_
_atom_site_label
_atom_site_type_symbol
_atom_site_fract_x
_atom_site_fract_y
_atom_site_fract_z
C1 C 0.7142(15) 0.2719(10) 0.4371(8)
C2 C 0.7452(16) 0.3972(11) 0.5244(8)
H1 H 0.7692 0.4908 0.5241
C3 C 0.7264(16) 0.3282(11) 0.6138(8)
C4 C 0.7101(15) 0.1885(10) 0.5923(9)
S1 S 0.6963(4) 0.1174(3) 0.4696(3)
S2 S 0.4901(3) 0.4485(2) 0.37477(19)
S3 S 0.5152(4) 0.5391(3) 0.6293(2)
S4 S 0.2463(4) 0.5723(3) 0.4811(2)
Cl1 Cl 0.6927(4) 0.0809(3) 0.6740(2)
F1 F -0.0633(8) 0.5237(6) 0.2339(5)
F2 F 1.0753(8) 0.4674(7) 0.7579(5)
F3 F 0.5118(9) 0.9501(6) 0.8404(5)
F4 F 1.0355(8) 0.3121(6) 0.3539(6)
F5 F 1.2471(9) 0.4149(7) 0.9176(6)
F6 F -0.0397(9) 0.7061(6) -0.0452(5)
F7 F 0.4675(8) 0.7228(7) 0.1550(5)
F8 F 0.5045(9) 0.0488(6) 0.1684(5)
F9 F -0.0233(8) 0.6793(6) 0.6495(6)
F10 F -0.1798(10) 0.8399(7) 0.7603(7)
F11 F 0.7309(11) 0.2315(7) 1.0128(6)
F12 F -0.2250(8) 0.5825(6) 0.0769(5)
F13 F 0.5588(9) 0.2838(7) 0.8564(6)
F14 F 0.6596(10) -0.0992(6) 0.0482(5)
F15 F 1.0742(9) 0.2994(6) 1.0458(5)
F16 F 0.3042(9) 0.7801(7) -0.0024(6)
F17 F 0.0071(12) 1.0505(8) 0.9122(7)
F18 F 0.3458(12) 1.1008(7) 0.9538(6)
F19 F 1.0075(9) -0.0453(7) 0.0876(6)
F20 F 1.1931(10) 0.1592(7) 0.2387(6)
C5 C 0.2074(13) 0.6209(9) 0.2006(8)
C6 C 0.0328(13) 0.5886(10) 0.1788(8)
C7 C 0.0382(14) 0.6806(10) 0.0356(8)
C8 C 0.2907(13) 0.5839(10) 0.2871(8)
C9 C 0.2525(14) 0.8100(9) 0.7401(8)
C10 C 0.2145(14) 0.7168(10) 0.0566(8)
C11 C 0.6253(14) 0.4987(9) 0.7276(8)
C12 C 0.6864(14) 0.2748(10) 0.3330(8)
C13 C 0.9447(14) 0.2124(9) 0.2811(9)
C14 C 0.3397(16) 0.9186(11) 0.8200(9)
C15 C 0.4258(14) 0.6476(9) 0.7085(8)
C16 C 0.4823(13) 0.6466(9) 0.8085(8)
H2 H 0.4451 0.6952 0.8632
C17 C 0.9314(16) 0.0276(11) 0.1443(10)
C18 C -0.0075(16) 0.8650(11) 0.7791(10)
C19 C 1.0779(16) 0.3798(11) 0.9000(9)
C20 C 0.7543(14) 0.0022(10) 0.1260(9)
C21 C 0.4278(14) 0.4308(10) 0.1834(8)
H3 H 0.3802 0.4390 0.1202
C22 C 0.5431(13) 0.3551(10) 0.1941(8)
H4 H 0.5884 0.3125 0.1405
C23 C 0.5907(14) 0.5728(10) 0.8202(8)
H5 H 0.6418 0.5686 0.8839
C24 C 0.2980(13) 0.6862(10) 0.1379(8)
C25 C -0.0549(14) 0.6161(9) 0.0964(8)
C26 C 0.7206(14) 0.4070(10) 0.7144(8)
C27 C 0.3859(14) 0.4951(10) 0.2732(8)
C28 C 0.2973(15) 0.7213(11) 0.5656(9)
C29 C 0.7287(15) 0.3176(10) 0.8687(9)
C30 C 0.6759(14) 0.0801(10) 0.1874(9)
C31 C 0.3068(16) 0.8440(12) 0.5265(9)
H6 H 0.3165 0.9329 0.5645
C32 C 0.3288(14) 0.7236(10) 0.6733(8)
C33 C 0.0767(15) 0.7886(10) 0.7237(9)
C34 C 0.0883(19) 0.9709(12) 0.8585(10)
C35 C 0.7670(14) 0.1876(10) 0.2645(8)
C36 C 0.8165(16) 0.2896(11) 0.9505(9)
C37 C 0.9875(16) 0.3212(10) 0.9657(8)
C38 C 1.0252(17) 0.1332(12) 0.2212(11)
C39 C 0.2758(13) 0.6573(9) 0.3848(8)
C40 C 0.8126(14) 0.3783(9) 0.8027(8)
C41 C 0.9917(14) 0.4079(9) 0.8223(9)
C42 C 0.2570(19) 0.9995(11) 0.8788(10)
C43 C 0.5867(13) 0.3482(10) 0.2961(8)
C44 C 0.2985(16) 0.8030(11) 0.4163(10)
H7 H 0.3069 0.8632 0.3733
Cl2 Cl 0.2657(6) 0.1594(4) 0.4826(3)
Cl3 Cl 0.2173(10) 0.1744(5) 0.6845(4)
C45 C 0.152(3) 0.205(2) 0.5727(14)
H8 H 0.0305 0.1548 0.5491
H9 H 0.1616 0.3032 0.5826
Cl4 Cl 0.8751(7) 0.8454(4) 0.3194(3)
Cl5 Cl 0.7581(6) 0.8100(4) 0.5046(3)
C46 C 0.845(2) 0.7461(16) 0.4023(13)
H10 H 0.9562 0.7328 0.4272
H11 H 0.7684 0.6556 0.3666
loop_
_geom_bond_atom_site_label_1
_geom_bond_atom_site_label_2
_geom_bond_site_symmetry_1
_geom_bond_site_symmetry_2
C1 C2 1_555 1_555
C2 H1 1_555 1_555
C3 C2 1_555 1_555
C4 C3 1_555 1_555
S1 C1 1_555 1_555
S2 C27 1_555 1_555
S3 C11 1_555 1_555
S4 C28 1_555 1_555
Cl1 C4 1_555 1_555
F1 C6 1_555 1_555
F2 C41 1_555 1_555
F3 C14 1_555 1_555
F4 C13 1_555 1_555
F5 C19 1_555 1_555
F6 C7 1_555 1_555
F7 C24 1_555 1_555
F8 C30 1_555 1_555
F9 C33 1_555 1_555
F10 C18 1_555 1_555
F11 C36 1_555 1_555
F12 C25 1_555 1_555
F13 C29 1_555 1_555
F14 C20 1_555 1_555
F15 C37 1_555 1_555
F16 C10 1_555 1_555
F17 C34 1_555 1_555
F18 C42 1_555 1_555
F19 C17 1_555 1_555
F20 C38 1_555 1_555
C5 C6 1_555 1_555
C6 C25 1_555 1_555
C7 C10 1_555 1_555
C8 C5 1_555 1_555
C9 C14 1_555 1_555
C10 C24 1_555 1_555
C11 C23 1_555 1_555
C12 C1 1_555 1_555
C13 C35 1_555 1_555
C14 C42 1_555 1_555
C15 S3 1_555 1_555
C16 C15 1_555 1_555
H2 C16 1_555 1_555
C17 C20 1_555 1_555
C18 C33 1_555 1_555
C19 C37 1_555 1_555
C20 C30 1_555 1_555
C21 H3 1_555 1_555
C22 C21 1_555 1_555
H4 C22 1_555 1_555
C23 C16 1_555 1_555
H5 C23 1_555 1_555
C24 C5 1_555 1_555
C25 C7 1_555 1_555
C26 C3 1_555 1_555
C27 C8 1_555 1_555
C28 C31 1_555 1_555
C29 C36 1_555 1_555
C30 C35 1_555 1_555
C31 H6 1_555 1_555
C32 C9 1_555 1_555
C33 C9 1_555 1_555
C34 C18 1_555 1_555
C35 C12 1_555 1_555
C36 C37 1_555 1_555
C38 C13 1_555 1_555
C39 S4 1_555 1_555
C40 C26 1_555 1_555
C41 C19 1_555 1_555
C42 C34 1_555 1_555
C43 S2 1_555 1_555
C44 C31 1_555 1_555
H7 C44 1_555 1_555
Cl2 C45 1_555 1_555
Cl3 C45 1_555 1_555
C45 H8 1_555 1_555
H9 C45 1_555 1_555
Cl4 C46 1_555 1_555
Cl5 C46 1_555 1_555
C46 H10 1_555 1_555
H11 C46 1_555 1_555
C4 S1 1_555 1_555
C8 C39 1_555 1_555
C11 C26 1_555 1_555
C12 C43 1_555 1_555
C15 C32 1_555 1_555
C17 C38 1_555 1_555
C21 C27 1_555 1_555
C22 C43 1_555 1_555
C28 C32 1_555 1_555
C29 C40 1_555 1_555
C39 C44 1_555 1_555
C40 C41 1_555 1_555

#END
