
#######################################################################
#
#                 Cambridge Crystallographic Data Centre
#                                CCDC 
#
#######################################################################
#
# If this CIF has been generated from an entry in the Cambridge 
# Structural Database, then it will include bibliographic, chemical, 
# crystal, experimental, refinement or atomic coordinate data resulting 
# from the CCDC's data processing and validation procedures.
#
#######################################################################

data_DECLEF
_chemical_formula_moiety         'C4 H6 N10 O1'
_chemical_name_systematic        2,2'-dimethyl-5,5'-azoxybistetrazole
_symmetry_cell_setting           monoclinic
_symmetry_space_group_name_H-M   'P 21/c'
_symmetry_Int_Tables_number      14
_space_group_name_Hall           '-P 2ybc'
loop_
_symmetry_equiv_pos_site_id
_symmetry_equiv_pos_as_xyz
1 x,y,z
2 -x,1/2+y,1/2-z
3 -x,-y,-z
4 x,1/2-y,1/2+z
_cell_length_a                   7.5607(8)
_cell_length_b                   13.7150(15)
_cell_length_c                   8.9269(9)
_cell_angle_alpha                90
_cell_angle_beta                 102.388(4)
_cell_angle_gamma                90
_cell_volume                     904.123
_exptl_crystal_colour            colorless
_exptl_crystal_description       block
_cell_formula_units_Z            4
loop_
_atom_site_label
_atom_site_type_symbol
_atom_site_fract_x
_atom_site_fract_y
_atom_site_fract_z
N1 N 0.1792(2) 0.45883(12) -0.05056(18)
N2 N 0.2680(2) 0.43771(11) 0.08270(18)
O1 O 0.2640(2) 0.36221(11) 0.15813(17)
N3 N 0.4852(2) 0.50594(12) 0.29222(18)
N4 N -0.1389(2) 0.33841(14) -0.31465(19)
N5 N 0.0260(2) 0.29798(12) -0.08711(18)
N6 N 0.4059(2) 0.60059(12) 0.08684(19)
C1 C 0.3870(2) 0.51480(13) 0.1526(2)
N7 N -0.0972(2) 0.27080(12) -0.20868(18)
N8 N -0.0393(2) 0.41514(13) -0.2645(2)
C2 C 0.0597(2) 0.38846(14) -0.1264(2)
N9 N 0.5658(2) 0.59227(12) 0.31029(18)
N10 N 0.5226(2) 0.65022(12) 0.1906(2)
C3 C -0.1816(4) 0.17450(18) -0.2228(3)
H1 H -0.2605 0.1683 -0.3221
H2 H -0.2504 0.1667 -0.1449
H3 H -0.0894 0.1253 -0.2108
C4 C 0.6887(3) 0.62194(19) 0.4519(3)
H4 H 0.7525 0.6797 0.4337
H5 H 0.7739 0.5706 0.4866
H6 H 0.6205 0.6351 0.5289
loop_
_geom_bond_atom_site_label_1
_geom_bond_atom_site_label_2
_geom_bond_site_symmetry_1
_geom_bond_site_symmetry_2
N1 N2 1_555 1_555
N2 O1 1_555 1_555
N3 C1 1_555 1_555
N4 N7 1_555 1_555
N5 N7 1_555 1_555
N6 C1 1_555 1_555
C1 N2 1_555 1_555
N7 C3 1_555 1_555
N8 N4 1_555 1_555
C2 N1 1_555 1_555
N9 N3 1_555 1_555
N10 N6 1_555 1_555
C3 H1 1_555 1_555
H2 C3 1_555 1_555
H3 C3 1_555 1_555
C4 N9 1_555 1_555
H4 C4 1_555 1_555
H5 C4 1_555 1_555
H6 C4 1_555 1_555
N5 C2 1_555 1_555
N8 C2 1_555 1_555
N9 N10 1_555 1_555

#END
