
#######################################################################
#
#                 Cambridge Crystallographic Data Centre
#                                CCDC 
#
#######################################################################
#
# If this CIF has been generated from an entry in the Cambridge 
# Structural Database, then it will include bibliographic, chemical, 
# crystal, experimental, refinement or atomic coordinate data resulting 
# from the CCDC's data processing and validation procedures.
#
#######################################################################

data_DECPAF
_chemical_formula_moiety         'C24 H12 N4 O4,C11 H9'
_chemical_name_systematic        
'2,7-bis(pyridin-4-yl)benzo[lmn][3,8]phenanthroline-1,3,6,8(2H,7H)-tetrone 1-methylnaphthalene solvate'
_symmetry_cell_setting           triclinic
_symmetry_space_group_name_H-M   'P -1'
_symmetry_Int_Tables_number      2
_space_group_name_Hall           '-P 1'
loop_
_symmetry_equiv_pos_site_id
_symmetry_equiv_pos_as_xyz
1 x,y,z
2 -x,-y,-z
_cell_length_a                   7.1250(14)
_cell_length_b                   9.1283(18)
_cell_length_c                   10.377(2)
_cell_angle_alpha                91.56(3)
_cell_angle_beta                 105.15(3)
_cell_angle_gamma                97.22(3)
_cell_volume                     645.016
_exptl_crystal_colour            red
_exptl_crystal_description       block
_cell_formula_units_Z            1
loop_
_atom_site_label
_atom_site_type_symbol
_atom_site_fract_x
_atom_site_fract_y
_atom_site_fract_z
C13 C 0.0212(5) 0.9342(4) 0.5277(3)
C14 C -0.0223(6) 0.8009(5) 0.4357(5)
C15 C -0.0014(11) 0.6683(9) 0.4693(8)
H7 H -0.1224 0.6209 0.4873
H8 H 0.1078 0.6711 0.5500
H9 H 0.0263 0.6119 0.3964
C16 C 0.0997(6) 0.9260(6) 0.6643(5)
H10 H 0.1262 0.8334 0.6993
C17 C -0.1000(6) 0.8176(6) 0.3019(5)
H11 H -0.1288 0.7337 0.2403
C18 C 0.1373(6) 1.0445(7) 0.7448(5)
H12 H 0.1915 1.0366 0.8379
C13A C -0.0212(5) 1.0658(4) 0.4723(3)
C14A C 0.0223(6) 1.1991(5) 0.5643(5)
C15A C 0.0014(11) 1.3317(9) 0.5307(8)
H7A H 0.1224 1.3791 0.5127
H8A H -0.1078 1.3289 0.4500
H9A H -0.0263 1.3881 0.6036
C16A C -0.0997(6) 1.0740(6) 0.3357(5)
H10A H -0.1262 1.1666 0.3007
C17A C 0.1000(6) 1.1824(6) 0.6981(5)
H11A H 0.1288 1.2663 0.7597
C18A C -0.1373(6) 0.9555(7) 0.2552(5)
H12A H -0.1915 0.9634 0.1621
C1 C 0.4685(4) 0.9625(3) 0.4367(3)
N1 N 0.3418(3) 0.8120(3) 0.1832(2)
C2 C 0.4020(4) 1.0421(3) 0.3232(3)
O1 O 0.2826(4) 1.0277(2) 0.0886(2)
C3 C 0.4717(4) 0.8086(3) 0.4247(3)
O2 O 0.4004(3) 0.5962(2) 0.2773(2)
C4 C 0.5380(5) 0.7346(3) 0.5367(3)
H1 H 0.5412 0.6311 0.5286
C5 C 0.2748(5) 0.7345(3) 0.0537(3)
C6 C 0.3992(5) 1.1907(3) 0.3374(3)
H2 H 0.3538 1.2439 0.2605
C7 C 0.4048(4) 0.7286(4) 0.2933(3)
N2 N 0.1417(5) 0.5703(3) -0.1896(3)
C8 C 0.3372(4) 0.9656(4) 0.1897(3)
C9 C 0.0787(5) 0.7041(4) -0.0083(3)
H3 H -0.0159 0.7388 0.0303
C10 C 0.0227(5) 0.6216(4) -0.1285(3)
H4 H -0.1140 0.6003 -0.1706
C11 C 0.4029(5) 0.6847(4) -0.0074(3)
H5 H 0.5403 0.7055 0.0324
C12 C 0.3314(6) 0.6036(4) -0.1280(4)
H6 H 0.4233 0.5696 -0.1696
C1A C 0.5315(4) 1.0375(3) 0.5633(3)
N1A N 0.6582(3) 1.1880(3) 0.8168(2)
C2A C 0.5980(4) 0.9579(3) 0.6768(3)
O1A O 0.7174(4) 0.9723(2) 0.9114(2)
C3A C 0.5283(4) 1.1914(3) 0.5753(3)
O2A O 0.5996(3) 1.4038(2) 0.7227(2)
C4A C 0.4620(5) 1.2654(3) 0.4633(3)
H1A H 0.4588 1.3689 0.4714
C5A C 0.7252(5) 1.2655(3) 0.9463(3)
C6A C 0.6008(5) 0.8093(3) 0.6626(3)
H2A H 0.6462 0.7561 0.7395
C7A C 0.5952(4) 1.2714(4) 0.7067(3)
N2A N 0.8583(5) 1.4297(3) 1.1896(3)
C8A C 0.6628(4) 1.0344(4) 0.8103(3)
C9A C 0.9213(5) 1.2959(4) 1.0083(3)
H3A H 1.0159 1.2612 0.9697
C10A C 0.9773(5) 1.3784(4) 1.1285(3)
H4A H 1.1140 1.3997 1.1706
C11A C 0.5971(5) 1.3153(4) 1.0074(3)
H5A H 0.4597 1.2945 0.9676
C12A C 0.6686(6) 1.3964(4) 1.1280(4)
H6A H 0.5767 1.4304 1.1696
loop_
_geom_bond_atom_site_label_1
_geom_bond_atom_site_label_2
_geom_bond_site_symmetry_1
_geom_bond_site_symmetry_2
C1 C2 1_555 1_555
N1 C5 1_555 1_555
C2 C6 1_555 1_555
O1 C8 1_555 1_555
C3 C1 1_555 1_555
O2 C7 1_555 1_555
C4 C3 1_555 1_555
H1 C4 1_555 1_555
C5 C9 1_555 1_555
C6 H2 1_555 1_555
C7 N1 1_555 1_555
N2 C10 1_555 1_555
C8 N1 1_555 1_555
C9 H3 1_555 1_555
C10 C9 1_555 1_555
H4 C10 1_555 1_555
C11 C5 1_555 1_555
H5 C11 1_555 1_555
C12 N2 1_555 1_555
H6 C12 1_555 1_555
C13 C14 1_555 1_555
C14 C15 1_555 1_555
C15 H7 1_555 1_555
H8 C15 1_555 1_555
H9 C15 1_555 1_555
C16 C13 1_555 1_555
H10 C16 1_555 1_555
C17 C14 1_555 1_555
H11 C17 1_555 1_555
C18 C16 1_555 1_555
H12 C18 1_555 1_555
C1A C1 1_555 1_555
N1A C5A 1_555 1_555
C2A C1A 1_555 1_555
O1A C8A 1_555 1_555
C3A C1A 1_555 1_555
O2A C7A 1_555 1_555
C4A C6 1_555 1_555
H1A C4A 1_555 1_555
C5A C9A 1_555 1_555
C6A C4 1_555 1_555
H2A C6A 1_555 1_555
C7A N1A 1_555 1_555
N2A C10A 1_555 1_555
C8A N1A 1_555 1_555
C9A H3A 1_555 1_555
C10A C9A 1_555 1_555
H4A C10A 1_555 1_555
C11A C5A 1_555 1_555
H5A C11A 1_555 1_555
C12A N2A 1_555 1_555
H6A C12A 1_555 1_555
C13A C13 1_555 1_555
C14A C13A 1_555 1_555
C15A C14A 1_555 1_555
H7A C15A 1_555 1_555
H8A C15A 1_555 1_555
H9A C15A 1_555 1_555
C16A C13A 1_555 1_555
H10A C16A 1_555 1_555
C17A C18 1_555 1_555
H11A C17A 1_555 1_555
C18A C17 1_555 1_555
H12A C18A 1_555 1_555
C2 C8 1_555 1_555
C3 C7 1_555 1_555
C11 C12 1_555 1_555
C2A C6A 1_555 1_555
C2A C8A 1_555 1_555
C3A C4A 1_555 1_555
C3A C7A 1_555 1_555
C11A C12A 1_555 1_555
C14A C17A 1_555 1_555
C16A C18A 1_555 1_555

#END
