
#######################################################################
#
#                 Cambridge Crystallographic Data Centre
#                                CCDC 
#
#######################################################################
#
# If this CIF has been generated from an entry in the Cambridge 
# Structural Database, then it will include bibliographic, chemical, 
# crystal, experimental, refinement or atomic coordinate data resulting 
# from the CCDC's data processing and validation procedures.
#
#######################################################################

data_DECPUW
_chemical_formula_moiety         'C27 H33 O3 P1 Si1'
_chemical_name_systematic        
(2R*,3R*,4R*,5R*)-3-(Diphenylphosphinoyl)-4,5-dimethyl-2-phenyl-2-(trimethylsilyloxy)tetrahydrofuran
_symmetry_cell_setting           monoclinic
_symmetry_space_group_name_H-M   'P 21/c'
_symmetry_Int_Tables_number      14
_space_group_name_Hall           '-P 2ybc'
loop_
_symmetry_equiv_pos_site_id
_symmetry_equiv_pos_as_xyz
1 x,y,z
2 x,1/2-y,1/2+z
3 -x,-y,-z
4 -x,1/2+y,1/2-z
_cell_length_a                   18.753(4)
_cell_length_b                   8.349(2)
_cell_length_c                   18.019(4)
_cell_angle_alpha                90
_cell_angle_beta                 111.75(3)
_cell_angle_gamma                90
_cell_volume                     2620.37
_exptl_crystal_colour            colorless
_exptl_crystal_description       block
_cell_formula_units_Z            4
_exptl_crystal_recrystallization_method 'ethyl acetate/hexane'
loop_
_atom_site_label
_atom_site_type_symbol
_atom_site_fract_x
_atom_site_fract_y
_atom_site_fract_z
P1 P 0.18924(4) 0.15942(8) 0.44978(4)
Si1 Si 0.31241(5) 0.52212(9) 0.62403(5)
O1 O 0.39430(9) 0.2460(2) 0.59299(9)
O2 O 0.18747(11) 0.3080(2) 0.40478(10)
O3 O 0.27713(9) 0.3456(2) 0.58538(9)
C1 C 0.32091(13) 0.2053(3) 0.59356(14)
C2 C 0.28334(13) 0.0930(3) 0.51931(13)
H1 H 0.27647(13) -0.0126(3) 0.53946(13)
C3 C 0.34718(14) 0.0769(3) 0.48413(15)
H2 H 0.38116(14) -0.0102(3) 0.51296(15)
C4 C 0.39064(15) 0.2321(3) 0.5118(2)
H3 H 0.36095(15) 0.3214(3) 0.4798(2)
C5 C 0.4716(2) 0.2372(4) 0.5134(2)
H4 H 0.4937(2) 0.3404(4) 0.5317(2)
H5 H 0.4709(2) 0.2185(4) 0.4606(2)
H6 H 0.5018(2) 0.1558(4) 0.5488(2)
C6 C 0.3251(2) 0.0446(4) 0.3957(2)
H7 H 0.2978(2) -0.0552(4) 0.3822(2)
H8 H 0.3706(2) 0.0388(4) 0.3833(2)
H9 H 0.2928(2) 0.1296(4) 0.3655(2)
C7 C 0.15221(14) -0.0100(3) 0.38348(15)
C8 C 0.1052(2) 0.0222(4) 0.3052(2)
H10 H 0.0943(2) 0.1276(4) 0.2882(2)
C9 C 0.07435(13) -0.1016(3) 0.25259(13)
H11 H 0.04219(13) -0.0790(3) 0.20033(13)
C10 C 0.09059(13) -0.2581(3) 0.27641(13)
H12 H 0.06951(13) -0.3405(3) 0.24018(13)
C11 C 0.13720(13) -0.2930(3) 0.35248(13)
H13 H 0.14870(13) -0.3989(3) 0.36841(13)
C12 C 0.1673(2) -0.1701(3) 0.4058(2)
H14 H 0.1985(2) -0.1944(3) 0.4582(2)
C13 C 0.12875(14) 0.1654(3) 0.50796(15)
C14 C 0.0944(2) 0.3091(4) 0.5136(2)
H15 H 0.1010(2) 0.3993(4) 0.4866(2)
C15 C 0.0499(2) 0.3169(6) 0.5602(3)
H16 H 0.0271(2) 0.4135(6) 0.5648(3)
C16 C 0.0389(2) 0.1851(7) 0.5996(2)
H17 H 0.0091(2) 0.1921(7) 0.6308(2)
C17 C 0.0716(2) 0.0441(6) 0.5927(2)
H18 H 0.0639(2) -0.0462(6) 0.6191(2)
C18 C 0.1162(2) 0.0335(4) 0.5469(2)
H19 H 0.1380(2) -0.0642(4) 0.5423(2)
C19 C 0.33188(14) 0.1223(3) 0.67222(14)
C20 C 0.2776(2) 0.1369(3) 0.7067(2)
H20 H 0.2347(2) 0.2010(3) 0.6827(2)
C21 C 0.2868(2) 0.0567(4) 0.7770(2)
H21 H 0.2498(2) 0.0665(4) 0.7997(2)
C22 C 0.3502(2) -0.0370(4) 0.8132(2)
H22 H 0.3563(2) -0.0903(4) 0.8604(2)
C23 C 0.4047(2) -0.0523(4) 0.7797(2)
H23 H 0.4477(2) -0.1159(4) 0.8042(2)
C24 C 0.3955(2) 0.0271(3) 0.7095(2)
H24 H 0.4325(2) 0.0163(3) 0.6869(2)
C25 C 0.3520(2) 0.6284(3) 0.5578(2)
H25 H 0.3952(2) 0.5702(3) 0.5555(2)
H26 H 0.3680(2) 0.7339(3) 0.5784(2)
H27 H 0.3132(2) 0.6362(3) 0.5051(2)
C26 C 0.3883(2) 0.5020(4) 0.7244(2)
H28 H 0.4313(2) 0.4456(4) 0.7203(2)
H29 H 0.3686(2) 0.4435(4) 0.7585(2)
H30 H 0.4044(2) 0.6065(4) 0.7465(2)
C27 C 0.2290(2) 0.6301(4) 0.6302(2)
H31 H 0.1901(2) 0.6397(4) 0.5777(2)
H32 H 0.2447(2) 0.7349(4) 0.6521(2)
H33 H 0.2088(2) 0.5719(4) 0.6640(2)
loop_
_geom_bond_atom_site_label_1
_geom_bond_atom_site_label_2
_geom_bond_site_symmetry_1
_geom_bond_site_symmetry_2
P1 O2 1_555 1_555
Si1 O3 1_555 1_555
O1 C1 1_555 1_555
O3 C1 1_555 1_555
C1 C2 1_555 1_555
C2 P1 1_555 1_555
H1 C2 1_555 1_555
C3 C2 1_555 1_555
H2 C3 1_555 1_555
C4 O1 1_555 1_555
H3 C4 1_555 1_555
C5 C4 1_555 1_555
H4 C5 1_555 1_555
H5 C5 1_555 1_555
H6 C5 1_555 1_555
C6 C3 1_555 1_555
H7 C6 1_555 1_555
H8 C6 1_555 1_555
H9 C6 1_555 1_555
C7 P1 1_555 1_555
C8 C7 1_555 1_555
H10 C8 1_555 1_555
C9 C8 1_555 1_555
H11 C9 1_555 1_555
C10 C9 1_555 1_555
H12 C10 1_555 1_555
C11 C10 1_555 1_555
H13 C11 1_555 1_555
C12 C7 1_555 1_555
H14 C12 1_555 1_555
C13 P1 1_555 1_555
C14 C13 1_555 1_555
H15 C14 1_555 1_555
C15 C14 1_555 1_555
H16 C15 1_555 1_555
C16 C15 1_555 1_555
H17 C16 1_555 1_555
C17 C16 1_555 1_555
H18 C17 1_555 1_555
C18 C13 1_555 1_555
H19 C18 1_555 1_555
C19 C1 1_555 1_555
C20 C19 1_555 1_555
H20 C20 1_555 1_555
C21 C20 1_555 1_555
H21 C21 1_555 1_555
C22 C21 1_555 1_555
H22 C22 1_555 1_555
C23 C22 1_555 1_555
H23 C23 1_555 1_555
C24 C19 1_555 1_555
H24 C24 1_555 1_555
C25 Si1 1_555 1_555
H25 C25 1_555 1_555
H26 C25 1_555 1_555
H27 C25 1_555 1_555
C26 Si1 1_555 1_555
H28 C26 1_555 1_555
H29 C26 1_555 1_555
H30 C26 1_555 1_555
C27 Si1 1_555 1_555
H31 C27 1_555 1_555
H32 C27 1_555 1_555
H33 C27 1_555 1_555
C3 C4 1_555 1_555
C11 C12 1_555 1_555
C17 C18 1_555 1_555
C23 C24 1_555 1_555

#END
