
#######################################################################
#
#                 Cambridge Crystallographic Data Centre
#                                CCDC 
#
#######################################################################
#
# If this CIF has been generated from an entry in the Cambridge 
# Structural Database, then it will include bibliographic, chemical, 
# crystal, experimental, refinement or atomic coordinate data resulting 
# from the CCDC's data processing and validation procedures.
#
#######################################################################

data_DECPEJ
_chemical_formula_moiety         'C24 H12 N4 O4,C10 H7 N1 O2'
_chemical_name_systematic        
'2,7-bis(pyridin-4-yl)benzo[lmn][3,8]phenanthroline-1,3,6,8(2H,7H)-tetrone 1-nitronaphthalene solvate'
_symmetry_cell_setting           triclinic
_symmetry_space_group_name_H-M   'P -1'
_symmetry_Int_Tables_number      2
_space_group_name_Hall           '-P 1'
loop_
_symmetry_equiv_pos_site_id
_symmetry_equiv_pos_as_xyz
1 x,y,z
2 -x,-y,-z
_cell_length_a                   7.6323(5)
_cell_length_b                   9.1693(5)
_cell_length_c                   10.0194(6)
_cell_angle_alpha                87.745(5)
_cell_angle_beta                 78.424(5)
_cell_angle_gamma                70.170(5)
_cell_volume                     645.877
_exptl_crystal_colour            red
_exptl_crystal_description       block
_cell_formula_units_Z            1
loop_
_atom_site_label
_atom_site_type_symbol
_atom_site_fract_x
_atom_site_fract_y
_atom_site_fract_z
O3 O 0.0719(4) 0.3510(3) 0.5995(3)
O4 O -0.0452(5) 0.4517(3) 0.4241(3)
N3 N 0.0202(4) 0.3371(3) 0.4927(3)
C13 C 0.0393(2) 0.1842(2) 0.44241(18)
C14 C 0.1070(2) 0.1538(2) 0.30638(19)
H7 H 0.1386 0.2306 0.2501
C15 C 0.1305(2) 0.0106(2) 0.24882(18)
H8 H 0.1795 -0.0095 0.1539
C16 C 0.0836(2) -0.1011(2) 0.32767(18)
H9 H 0.0999 -0.1981 0.2874
C17 C -0.0105(2) 0.07219(18) 0.53032(17)
O3A O -0.0719(4) -0.3510(3) 0.4005(3)
O4A O 0.0452(5) -0.4517(3) 0.5759(3)
N3A N -0.0202(4) -0.3371(3) 0.5073(3)
C13A C -0.0393(2) -0.1842(2) 0.55759(18)
C14A C -0.1070(2) -0.1538(2) 0.69362(19)
H7A H -0.1386 -0.2306 0.7499
C15A C -0.1305(2) -0.0106(2) 0.75118(18)
H8A H -0.1795 0.0095 0.8461
C16A C -0.0836(2) 0.1011(2) 0.67233(18)
H9A H -0.0999 0.1981 0.7126
C17A C 0.0105(2) -0.07219(18) 0.46968(17)
O1 O 0.27934(16) 0.08573(13) 0.91907(11)
O2 O 0.52104(16) 0.41218(12) 0.64902(11)
N1 N 0.38317(17) 0.25702(14) 0.78203(12)
N2 N 0.2010(2) 0.59643(17) 1.10077(14)
C1 C 0.2001(2) 0.51834(18) 0.87504(16)
H1 H 0.1556 0.5445 0.7923
C2 C 0.1450(2) 0.62610(19) 0.98142(18)
H2 H 0.0622 0.7275 0.9690
C3 C 0.3180(2) 0.45266(19) 1.11461(17)
H3 H 0.3590 0.4287 1.1988
C4 C 0.3831(2) 0.33662(19) 1.01416(16)
H4 H 0.4672 0.2365 1.0285
C5 C 0.3220(2) 0.37125(17) 0.89288(15)
C6 C 0.3487(2) 0.11604(17) 0.80636(15)
C7 C 0.4006(2) 0.00849(17) 0.68661(15)
C8 C 0.4783(2) 0.05094(16) 0.55709(15)
C9 C 0.5148(2) 0.19161(17) 0.53830(15)
C10 C 0.4761(2) 0.29676(17) 0.65681(15)
C11 C 0.3682(2) -0.13076(17) 0.70227(15)
H5 H 0.3167 -0.1587 0.7899
C12 C 0.5889(2) 0.23151(17) 0.41070(15)
H6 H 0.6110 0.3276 0.3992
O1A O 0.72066(16) -0.08573(13) 0.08093(11)
O2A O 0.47896(16) -0.41218(12) 0.35098(11)
N1A N 0.61683(17) -0.25702(14) 0.21797(12)
N2A N 0.7990(2) -0.59643(17) -0.10077(14)
C1A C 0.7999(2) -0.51834(18) 0.12496(16)
H1A H 0.8444 -0.5445 0.2077
C2A C 0.8550(2) -0.62610(19) 0.01858(18)
H2A H 0.9378 -0.7275 0.0310
C3A C 0.6820(2) -0.45266(19) -0.11461(17)
H3A H 0.6410 -0.4287 -0.1988
C4A C 0.6169(2) -0.33662(19) -0.01416(16)
H4A H 0.5328 -0.2365 -0.0285
C5A C 0.6780(2) -0.37125(17) 0.10712(15)
C6A C 0.6513(2) -0.11604(17) 0.19364(15)
C7A C 0.5994(2) -0.00849(17) 0.31339(15)
C8A C 0.5217(2) -0.05094(16) 0.44291(15)
C9A C 0.4852(2) -0.19161(17) 0.46170(15)
C10A C 0.5239(2) -0.29676(17) 0.34319(15)
C11A C 0.6318(2) 0.13076(17) 0.29773(15)
H5A H 0.6833 0.1587 0.2101
C12A C 0.4111(2) -0.23151(17) 0.58930(15)
H6A H 0.3890 -0.3276 0.6008
loop_
_geom_bond_atom_site_label_1
_geom_bond_atom_site_label_2
_geom_bond_site_symmetry_1
_geom_bond_site_symmetry_2
O1 C6 1_555 1_555
O2 C10 1_555 1_555
N1 C5 1_555 1_555
N2 C2 1_555 1_555
C1 H1 1_555 1_555
C2 C1 1_555 1_555
H2 C2 1_555 1_555
C3 N2 1_555 1_555
H3 C3 1_555 1_555
C4 C3 1_555 1_555
H4 C4 1_555 1_555
C5 C1 1_555 1_555
C6 N1 1_555 1_555
C7 C6 1_555 1_555
C8 C7 1_555 1_555
C9 C8 1_555 1_555
C10 N1 1_555 1_555
C11 C7 1_555 1_555
H5 C11 1_555 1_555
C12 C9 1_555 1_555
H6 C12 1_555 1_555
O3 N3 1_555 1_555
O4 N3 1_555 1_555
N3 C13 1_555 1_555
C13 C14 1_555 1_555
C14 H7 1_555 1_555
C15 C14 1_555 1_555
H8 C15 1_555 1_555
C16 C15 1_555 1_555
H9 C16 1_555 1_555
C17 C13 1_555 1_555
O1A C6A 1_555 1_555
O2A C10A 1_555 1_555
N1A C5A 1_555 1_555
N2A C2A 1_555 1_555
C1A H1A 1_555 1_555
C2A C1A 1_555 1_555
H2A C2A 1_555 1_555
C3A N2A 1_555 1_555
H3A C3A 1_555 1_555
C4A C3A 1_555 1_555
H4A C4A 1_555 1_555
C5A C1A 1_555 1_555
C6A N1A 1_555 1_555
C7A C6A 1_555 1_555
C8A C8 1_555 1_555
C9A C8A 1_555 1_555
C10A N1A 1_555 1_555
C11A C12 1_555 1_555
H5A C11A 1_555 1_555
C12A C11 1_555 1_555
H6A C12A 1_555 1_555
O3A N3A 1_555 1_555
O4A N3A 1_555 1_555
N3A C13A 1_555 1_555
C13A C14A 1_555 1_555
C14A H7A 1_555 1_555
C15A C14A 1_555 1_555
H8A C15A 1_555 1_555
C16A C17 1_555 1_555
H9A C16A 1_555 1_555
C17A C16 1_555 1_555
C4 C5 1_555 1_555
C9 C10 1_555 1_555
C17 C17A 1_555 1_555
C4A C5A 1_555 1_555
C7A C8A 1_555 1_555
C7A C11A 1_555 1_555
C9A C10A 1_555 1_555
C9A C12A 1_555 1_555
C13A C17A 1_555 1_555
C15A C16A 1_555 1_555

#END
