
#######################################################################
#
#                 Cambridge Crystallographic Data Centre
#                                CCDC 
#
#######################################################################
#
# If this CIF has been generated from an entry in the Cambridge 
# Structural Database, then it will include bibliographic, chemical, 
# crystal, experimental, refinement or atomic coordinate data resulting 
# from the CCDC's data processing and validation procedures.
#
#######################################################################

data_DECPUZ
_chemical_formula_moiety         'C24 H12 N4 O4,C10 H7 Br1'
_chemical_name_systematic        
'2,7-bis(pyridin-4-yl)benzo[lmn][3,8]phenanthroline-1,3,6,8(2H,7H)-tetrone 1-bromonaphthalene solvate'
_symmetry_cell_setting           triclinic
_symmetry_space_group_name_H-M   'P -1'
_symmetry_Int_Tables_number      2
_space_group_name_Hall           '-P 1'
loop_
_symmetry_equiv_pos_site_id
_symmetry_equiv_pos_as_xyz
1 x,y,z
2 -x,-y,-z
_cell_length_a                   7.1438(2)
_cell_length_b                   13.5625(4)
_cell_length_c                   13.8637(4)
_cell_angle_alpha                93.671(3)
_cell_angle_beta                 93.914(3)
_cell_angle_gamma                103.287(3)
_cell_volume                     1299.81
_exptl_crystal_colour            yellow
_exptl_crystal_description       block
_cell_formula_units_Z            2
loop_
_atom_site_label
_atom_site_type_symbol
_atom_site_fract_x
_atom_site_fract_y
_atom_site_fract_z
Br1 Br 0.24802(9) -0.41011(5) 0.88786(5)
C1 C 0.2073(8) -0.3443(4) 0.7743(4)
C2 C 0.1198(8) -0.4026(5) 0.6929(5)
C3 C 0.0856(8) -0.3545(5) 0.6057(5)
C4 C 0.1363(8) -0.2545(5) 0.6070(4)
C5 C 0.2327(8) -0.1904(4) 0.6894(4)
C6 C 0.2716(6) -0.2326(3) 0.7776(3)
C7 C 0.3623(8) -0.1729(5) 0.8609(4)
C8 C 0.4183(9) -0.0691(6) 0.8572(5)
C9 C 0.3806(10) -0.0251(5) 0.7690(7)
C10 C 0.2875(8) -0.0848(4) 0.6852(5)
O1 O 0.5343(5) 0.4560(2) 0.6546(2)
O2 O 0.7698(5) 0.5674(2) 0.9657(2)
O3 O 0.7316(5) 0.9640(3) 0.5284(2)
O4 O 0.9742(5) 1.0734(2) 0.8388(2)
N1 N 0.5706(7) 0.2077(3) 0.8829(3)
N2 N 0.6612(5) 0.5119(3) 0.8090(3)
N3 N 0.8538(5) 1.0183(3) 0.6835(3)
N4 N 0.9578(7) 1.3289(3) 0.6310(3)
C16 C 0.7466(8) 0.2655(4) 0.8763(3)
H1 H 0.8536 0.2361 0.8883
C17 C 0.7842(7) 0.3656(3) 0.8532(3)
H2 H 0.9124 0.4039 0.8496
C18 C 0.6280(7) 0.4073(3) 0.8358(3)
C19 C 0.4447(7) 0.3517(4) 0.8436(3)
H3 H 0.3362 0.3803 0.8332
C20 C 0.4227(8) 0.2520(4) 0.8672(4)
H4 H 0.2958 0.2129 0.8726
C21 C 0.7387(6) 0.5883(3) 0.8839(3)
C22 C 0.7824(6) 0.6946(3) 0.8550(3)
C23 C 0.7319(6) 0.7142(3) 0.7598(3)
C24 C 0.6417(6) 0.6351(3) 0.6886(3)
C25 C 0.6063(6) 0.5277(3) 0.7136(3)
C26 C 0.5918(6) 0.6567(3) 0.5960(3)
H5 H 0.5304 0.6029 0.5490
C27 C 0.6306(6) 0.7573(3) 0.5705(3)
H6 H 0.5947 0.7714 0.5065
C28 C 0.7214(6) 0.8363(3) 0.6385(3)
C29 C 0.7725(6) 0.8164(3) 0.7340(3)
C30 C 0.8636(6) 0.8948(3) 0.8052(3)
C31 C 0.9128(6) 0.8734(3) 0.8974(3)
H7 H 0.9757 0.9269 0.9443
C32 C 0.8706(6) 0.7722(3) 0.9230(3)
H8 H 0.9032 0.7578 0.9873
C33 C 0.9029(6) 1.0020(3) 0.7802(3)
C34 C 0.7655(6) 0.9418(3) 0.6097(3)
C35 C 0.8881(7) 1.1228(3) 0.6595(3)
C36 C 1.0748(7) 1.1788(4) 0.6577(4)
H9 H 1.1814 1.1484 0.6663
C37 C 1.1019(8) 1.2816(4) 0.6427(4)
H10 H 1.2303 1.3204 0.6406
C38 C 0.7790(7) 1.2711(3) 0.6302(3)
H11 H 0.6741 1.3024 0.6194
C39 C 0.7368(7) 1.1683(3) 0.6442(3)
H12 H 0.6070 1.1305 0.6433
Br2? Br 0.4225(4) -0.0091(2) 0.8263(3)
C11? C 0.1788(17) -0.3145(6) 0.7129(6)
C12? C 0.151(2) -0.4130(4) 0.7410(11)
C13? C 0.216(2) -0.4296(6) 0.8340(13)
C14? C 0.309(2) -0.3477(10) 0.8988(9)
C15? C 0.3368(17) -0.2493(8) 0.8706(4)
loop_
_geom_bond_atom_site_label_1
_geom_bond_atom_site_label_2
_geom_bond_site_symmetry_1
_geom_bond_site_symmetry_2
Br1 C1 1_555 1_555
C1 C2 1_555 1_555
C2 C3 1_555 1_555
C3 C4 1_555 1_555
C4 C5 1_555 1_555
C5 C6 1_555 1_555
C6 C1 1_555 1_555
C7 C6 1_555 1_555
C8 C7 1_555 1_555
C9 C8 1_555 1_555
C10 C5 1_555 1_555
O1 C25 1_555 1_555
O2 C21 1_555 1_555
O3 C34 1_555 1_555
O4 C33 1_555 1_555
N1 C16 1_555 1_555
N2 C18 1_555 1_555
N3 C33 1_555 1_555
N4 C37 1_555 1_555
C16 H1 1_555 1_555
C17 C16 1_555 1_555
H2 C17 1_555 1_555
C18 C17 1_555 1_555
C19 C18 1_555 1_555
H3 C19 1_555 1_555
C20 N1 1_555 1_555
H4 C20 1_555 1_555
C21 N2 1_555 1_555
C22 C21 1_555 1_555
C23 C22 1_555 1_555
C24 C23 1_555 1_555
C25 N2 1_555 1_555
C26 C24 1_555 1_555
H5 C26 1_555 1_555
C27 C26 1_555 1_555
H6 C27 1_555 1_555
C28 C27 1_555 1_555
C29 C23 1_555 1_555
C30 C29 1_555 1_555
C31 C30 1_555 1_555
H7 C31 1_555 1_555
C32 C22 1_555 1_555
H8 C32 1_555 1_555
C33 C30 1_555 1_555
C34 N3 1_555 1_555
C35 N3 1_555 1_555
C36 C35 1_555 1_555
H9 C36 1_555 1_555
C37 C36 1_555 1_555
H10 C37 1_555 1_555
C38 N4 1_555 1_555
H11 C38 1_555 1_555
C39 C35 1_555 1_555
H12 C39 1_555 1_555
C9 C10 1_555 1_555
C19 C20 1_555 1_555
C24 C25 1_555 1_555
C28 C29 1_555 1_555
C28 C34 1_555 1_555
C31 C32 1_555 1_555
C38 C39 1_555 1_555

#END
