
#######################################################################
#
#                 Cambridge Crystallographic Data Centre
#                                CCDC 
#
#######################################################################
#
# If this CIF has been generated from an entry in the Cambridge 
# Structural Database, then it will include bibliographic, chemical, 
# crystal, experimental, refinement or atomic coordinate data resulting 
# from the CCDC's data processing and validation procedures.
#
#######################################################################

data_DECSAI
_chemical_formula_moiety         'C54 H38 N4 O2,2(C1 H2 Cl2)'
_chemical_name_systematic        
"4,4',4'',4'''-(7,16-dimethoxy-6,8,15,17-tetrahydro-6,17:8,15-dimethanoheptacene-2,3,11,12-tetrayl)tetrapyridine dichloromethane solvate"
_symmetry_cell_setting           monoclinic
_symmetry_space_group_name_H-M   'C 2/c'
_symmetry_Int_Tables_number      15
_space_group_name_Hall           '-C 2yn'
loop_
_symmetry_equiv_pos_site_id
_symmetry_equiv_pos_as_xyz
1 x,y,z
2 -x,y,1/2-z
3 1/2+x,1/2+y,z
4 1/2-x,1/2+y,1/2-z
5 -x,-y,-z
6 x,-y,1/2+z
7 1/2-x,1/2-y,-z
8 1/2+x,1/2-y,1/2+z
_cell_length_a                   34.886(6)
_cell_length_b                   16.060(3)
_cell_length_c                   21.010(4)
_cell_angle_alpha                90
_cell_angle_beta                 120.176(3)
_cell_angle_gamma                90
_cell_volume                     10176.1
_exptl_crystal_colour            colorless
_exptl_crystal_description       block
_cell_formula_units_Z            8
loop_
_atom_site_label
_atom_site_type_symbol
_atom_site_fract_x
_atom_site_fract_y
_atom_site_fract_z
C1 C 0.02673(9) 0.17719(17) 0.18065(15)
C2 C 0.00541(9) 0.25259(18) 0.14527(14)
C3 C 0.02494(8) 0.32720(18) 0.17574(14)
H1 H 0.0101 0.3761 0.1531
C4 C 0.06691(9) 0.33251(17) 0.24035(14)
C5 C 0.08827(9) 0.25804(17) 0.27536(14)
C6 C 0.06726(9) 0.18191(17) 0.24478(15)
H2 H 0.0812 0.1328 0.2686
C7 C 0.00673(10) 0.0936(2) 0.15367(16)
C8 C -0.03620(12) 0.0759(2) 0.1358(2)
H3 H -0.0545 0.1177 0.1364
C9 C -0.05169(14) -0.0040(3) 0.1172(3)
H4 H -0.0807 -0.0139 0.1059
C10 C 0.01175(17) -0.0504(3) 0.1314(3)
H5 H 0.0290 -0.0938 0.1302
C11 C 0.03093(13) 0.0277(2) 0.1514(2)
H6 H 0.0602 0.0354 0.1633
C12 C -0.03639(9) 0.25418(18) 0.07194(16)
C13 C -0.07268(10) 0.2976(2) 0.06092(18)
H7 H -0.0726 0.3249 0.1001
C14 C -0.10937(11) 0.3012(3) -0.0080(2)
H8 H -0.1340 0.3298 -0.0135
C15 C -0.07668(13) 0.2252(3) -0.05604(19)
H9 H -0.0774 0.2001 -0.0965
C16 C -0.03857(11) 0.2162(2) 0.01159(18)
H10 H -0.0148 0.1850 0.0162
C17 C 0.08905(9) 0.41062(17) 0.26783(15)
H11 H 0.0752 0.4603 0.2451
C18 C 0.13060(8) 0.41099(16) 0.32769(14)
C19 C 0.15128(8) 0.33511(16) 0.36433(13)
C20 C 0.13137(8) 0.26123(17) 0.34017(14)
H12 H 0.1453 0.2126 0.3651
C21 C 0.16466(9) 0.47904(16) 0.36510(14)
H13 H 0.1538 0.5365 0.3568
C22 C 0.19707(8) 0.35928(16) 0.42512(14)
H14 H 0.2124 0.3196 0.4657
C23 C 0.20088(9) 0.45834(15) 0.34698(13)
C24 C 0.22101(8) 0.38521(16) 0.38506(12)
C25 C 0.25325(8) 0.34560(15) 0.37615(12)
C26 C 0.26682(8) 0.38362(16) 0.33169(13)
C27 C 0.24634(9) 0.45708(16) 0.29312(13)
C28 C 0.21229(9) 0.49364(16) 0.29890(13)
C29 C 0.25732(12) 0.19951(19) 0.37135(17)
H15 H 0.2277 0.1877 0.3609
H16 H 0.2764 0.1539 0.3982
H17 H 0.2573 0.2071 0.3260
C30 C 0.15726(12) 0.5496(2) 0.18720(17)
H18 H 0.1682 0.5139 0.1632
H19 H 0.1473 0.6012 0.1607
H20 H 0.1330 0.5229 0.1883
C31 C 0.30034(9) 0.35882(17) 0.30859(13)
H21 H 0.3240 0.3204 0.3410
C32 C 0.26688(9) 0.47742(17) 0.24560(14)
H22 H 0.2637 0.5347 0.2274
C33 C 0.31454(9) 0.44589(18) 0.29813(15)
H23 H 0.3326 0.4444 0.2750
H24 H 0.3295 0.4774 0.3437
C34 C 0.27189(8) 0.33356(17) 0.22789(13)
C35 C 0.25098(8) 0.40775(16) 0.18840(13)
C36 C 0.22238(9) 0.40556(16) 0.11468(14)
H25 H 0.2087 0.4541 0.0892
C37 C 0.21352(8) 0.32865(15) 0.07690(13)
C38 C 0.23396(8) 0.25498(16) 0.11692(13)
C39 C 0.26389(8) 0.25906(17) 0.19364(14)
H26 H 0.2779 0.2112 0.2201
C40 C 0.22351(9) 0.17868(16) 0.07835(14)
H27 H 0.2374 0.1305 0.1043
C41 C 0.19396(8) 0.17223(15) 0.00478(14)
C42 C 0.17350(8) 0.24592(16) -0.03559(13)
C43 C 0.18379(8) 0.32101(16) 0.00027(13)
H28 H 0.1707 0.3689 -0.0269
C44 C 0.18509(8) 0.08844(16) -0.03007(14)
C45 C 0.18528(10) 0.07240(17) -0.09376(16)
H29 H 0.1902 0.1154 -0.1185
C46 C 0.17828(12) -0.0070(2) -0.12116(19)
H30 H 0.1787 -0.0154 -0.1645
C47 C 0.17071(11) -0.05661(19) -0.02955(19)
H31 H 0.1655 -0.1009 -0.0065
C48 C 0.17771(10) 0.02063(18) 0.00260(15)
H32 H 0.1775 0.0272 0.0464
C49 C 0.13919(8) 0.24285(16) -0.11557(14)
C50 C 0.14573(10) 0.28064(18) -0.16805(15)
H33 H 0.1713 0.3114 -0.1542
C51 C 0.11427(13) 0.2726(2) -0.24097(18)
H34 H 0.1197 0.2984 -0.2753
C52 C 0.07071(12) 0.1968(3) -0.2142(2)
H35 H 0.0443 0.1683 -0.2295
C53 C 0.10038(10) 0.20032(19) -0.13972(17)
H36 H 0.0941 0.1742 -0.1064
C54 C 0.18762(10) 0.44640(17) 0.44516(14)
H37 H 0.2144 0.4768 0.4779
H38 H 0.1679 0.4447 0.4652
N1 N -0.11212(10) 0.2668(2) -0.06733(17)
N2 N -0.02936(14) -0.0674(2) 0.1140(2)
N3 N 0.07710(11) 0.2311(2) -0.26580(16)
N4 N 0.17095(10) -0.07199(16) -0.09101(17)
O1 O 0.19146(6) 0.56561(10) 0.25976(10)
O2 O 0.27273(6) 0.27249(11) 0.41377(9)
loop_
_geom_bond_atom_site_label_1
_geom_bond_atom_site_label_2
_geom_bond_site_symmetry_1
_geom_bond_site_symmetry_2
C1 C2 1_555 1_555
C2 C3 1_555 1_555
C3 H1 1_555 1_555
C4 C3 1_555 1_555
C5 C4 1_555 1_555
C6 C1 1_555 1_555
H2 C6 1_555 1_555
C7 C1 1_555 1_555
C8 C7 1_555 1_555
H3 C8 1_555 1_555
C9 C8 1_555 1_555
H4 C9 1_555 1_555
C10 H5 1_555 1_555
C11 C7 1_555 1_555
H6 C11 1_555 1_555
C12 C2 1_555 1_555
C13 C12 1_555 1_555
H7 C13 1_555 1_555
C14 C13 1_555 1_555
H8 C14 1_555 1_555
C15 H9 1_555 1_555
C16 C12 1_555 1_555
H10 C16 1_555 1_555
C17 C4 1_555 1_555
H11 C17 1_555 1_555
C18 C17 1_555 1_555
C19 C18 1_555 1_555
C20 C5 1_555 1_555
H12 C20 1_555 1_555
C21 C18 1_555 1_555
H13 C21 1_555 1_555
C22 C19 1_555 1_555
H14 C22 1_555 1_555
C23 C21 1_555 1_555
C24 C22 1_555 1_555
C25 C24 1_555 1_555
C26 C25 1_555 1_555
C27 C26 1_555 1_555
C28 C23 1_555 1_555
C29 H15 1_555 1_555
H16 C29 1_555 1_555
H17 C29 1_555 1_555
C30 H18 1_555 1_555
H19 C30 1_555 1_555
H20 C30 1_555 1_555
C31 C26 1_555 1_555
H21 C31 1_555 1_555
C32 C27 1_555 1_555
H22 C32 1_555 1_555
C33 C31 1_555 1_555
H23 C33 1_555 1_555
H24 C33 1_555 1_555
C34 C31 1_555 1_555
C35 C32 1_555 1_555
C36 C35 1_555 1_555
H25 C36 1_555 1_555
C37 C36 1_555 1_555
C38 C37 1_555 1_555
C39 C34 1_555 1_555
H26 C39 1_555 1_555
C40 C38 1_555 1_555
H27 C40 1_555 1_555
C41 C40 1_555 1_555
C42 C41 1_555 1_555
C43 C37 1_555 1_555
H28 C43 1_555 1_555
C44 C41 1_555 1_555
C45 C44 1_555 1_555
H29 C45 1_555 1_555
C46 C45 1_555 1_555
H30 C46 1_555 1_555
C47 H31 1_555 1_555
C48 C44 1_555 1_555
H32 C48 1_555 1_555
C49 C42 1_555 1_555
C50 C49 1_555 1_555
H33 C50 1_555 1_555
C51 C50 1_555 1_555
H34 C51 1_555 1_555
C52 H35 1_555 1_555
C53 C49 1_555 1_555
H36 C53 1_555 1_555
C54 C21 1_555 1_555
H37 C54 1_555 1_555
H38 C54 1_555 1_555
N1 C14 1_555 1_555
N2 C9 1_555 1_555
N3 C51 1_555 1_555
N4 C46 1_555 1_555
O1 C28 1_555 1_555
O2 C25 1_555 1_555
C5 C6 1_555 1_555
C10 C11 1_555 1_555
C10 N2 1_555 1_555
C15 C16 1_555 1_555
C15 N1 1_555 1_555
C19 C20 1_555 1_555
C22 C54 1_555 1_555
C23 C24 1_555 1_555
C27 C28 1_555 1_555
C29 O2 1_555 1_555
C30 O1 1_555 1_555
C32 C33 1_555 1_555
C34 C35 1_555 1_555
C38 C39 1_555 1_555
C42 C43 1_555 1_555
C47 C48 1_555 1_555
C47 N4 1_555 1_555
C52 C53 1_555 1_555
C52 N3 1_555 1_555

#END
