
#######################################################################
#
#                 Cambridge Crystallographic Data Centre
#                                CCDC 
#
#######################################################################
#
# If this CIF has been generated from an entry in the Cambridge 
# Structural Database, then it will include bibliographic, chemical, 
# crystal, experimental, refinement or atomic coordinate data resulting 
# from the CCDC's data processing and validation procedures.
#
#######################################################################

data_DECSEK
_chemical_formula_moiety         'C26 H36 B1 F1 N2 O2'
_chemical_name_systematic        
3-(Diisopropyliminio)-1-(2-(diisopropylaminocarbonyl)phenyl)-1-fluoro-2,1-benzoxaborolane
_symmetry_cell_setting           monoclinic
_symmetry_space_group_name_H-M   'C 2/c'
_symmetry_Int_Tables_number      15
_space_group_name_Hall           '-C 2yn'
loop_
_symmetry_equiv_pos_site_id
_symmetry_equiv_pos_as_xyz
1 x,y,z
2 1/2+x,1/2+y,z
3 -x,y,1/2-z
4 1/2-x,1/2+y,1/2-z
5 -x,-y,-z
6 1/2-x,1/2-y,-z
7 x,-y,1/2+z
8 1/2+x,1/2-y,1/2+z
_cell_length_a                   13.6546(6)
_cell_length_b                   14.7501(6)
_cell_length_c                   25.3101(11)
_cell_angle_alpha                90
_cell_angle_beta                 94.733(2)
_cell_angle_gamma                90
_cell_volume                     5080.24
_exptl_crystal_colour            colorless
_exptl_crystal_description       block
_chemical_melting_point          '197-199 deg.C'
_cell_formula_units_Z            8
_exptl_crystal_recrystallization_method acetonitrile
loop_
_atom_site_label
_atom_site_type_symbol
_atom_site_fract_x
_atom_site_fract_y
_atom_site_fract_z
C1 C 0.8614(2) -0.15965(18) 0.75010(10)
H1 H 0.9077 -0.1269 0.7749
H2 H 0.8873 -0.1619 0.7151
H3 H 0.8528 -0.2215 0.7631
F1 F 0.60511(9) 0.04699(8) 0.64344(5)
O1 O 0.82157(11) -0.04621(11) 0.65056(6)
O2 O 0.57102(11) 0.18177(10) 0.59255(6)
N1 N 0.77182(13) -0.01314(12) 0.73208(7)
N2 N 0.50689(13) 0.26032(11) 0.52132(7)
C2 C 0.59519(15) 0.11038(13) 0.51307(8)
C3 C 0.65637(15) 0.06243(14) 0.55065(9)
C4 C 0.81331(16) 0.10914(15) 0.67126(8)
C5 C 0.80013(15) 0.01033(16) 0.68416(9)
C6 C 0.55419(15) 0.18820(14) 0.54144(9)
C7 C 0.61924(17) -0.00004(15) 0.44632(9)
H4 H 0.6051 -0.0235 0.4116
C8 C 0.74622(16) 0.15484(14) 0.63557(8)
C9 C 0.45549(16) 0.32344(14) 0.55661(9)
H5 H 0.4196 0.3684 0.5326
C10 C 0.50620(16) 0.28365(14) 0.46416(8)
H6 H 0.5522 0.2408 0.4481
C11 C 0.73857(17) 0.05399(16) 0.77014(9)
H7 H 0.7481 0.1153 0.7545
C12 C 0.57273(16) 0.07797(14) 0.46158(9)
H8 H 0.5267 0.1087 0.4377
C13 C 0.70372(16) -0.01477(15) 0.53353(9)
H9 H 0.7479 -0.0473 0.5575
C14 C 0.76187(17) -0.11056(15) 0.74570(9)
H10 H 0.7367 -0.1128 0.7817
C15 C 0.89961(18) 0.15067(18) 0.69224(9)
H11 H 0.9443 0.1178 0.7158
B1 B 0.64909(19) 0.10551(16) 0.60842(10)
C16 C 0.54573(19) 0.37951(15) 0.45694(10)
H12 H 0.6112 0.3849 0.4757
H13 H 0.5013 0.4236 0.4714
H14 H 0.5500 0.3915 0.4191
C17 C 0.52577(17) 0.37814(15) 0.59424(9)
H15 H 0.5740 0.4089 0.5739
H16 H 0.5599 0.3373 0.6202
H17 H 0.4885 0.4233 0.6127
C18 C 0.77098(18) 0.24413(15) 0.62311(9)
H18 H 0.7278 0.2772 0.5989
C19 C 0.8555(2) 0.28607(18) 0.64456(10)
H19 H 0.8687 0.3471 0.6356
C20 C 0.40496(17) 0.26906(17) 0.43570(9)
H20 H 0.3835 0.2067 0.4415
H21 H 0.4079 0.2796 0.3976
H22 H 0.3582 0.3114 0.4496
C21 C 0.37713(17) 0.27339(16) 0.58510(10)
H23 H 0.3342 0.2396 0.5592
H24 H 0.3380 0.3173 0.6034
H25 H 0.4090 0.2312 0.6110
C22 C 0.80112(19) 0.05117(18) 0.82283(9)
H26 H 0.8706 0.0572 0.8164
H27 H 0.7908 -0.0067 0.8406
H28 H 0.7822 0.1012 0.8454
C23 C 0.68633(17) -0.04406(15) 0.48151(9)
H29 H 0.7210 -0.0952 0.4698
C24 C 0.9211(2) 0.23911(19) 0.67925(10)
H30 H 0.9799 0.2672 0.6938
C25 C 0.62890(17) 0.04456(18) 0.77738(10)
H31 H 0.5914 0.0474 0.7427
H32 H 0.6082 0.0940 0.7998
H33 H 0.6168 -0.0137 0.7943
C26 C 0.68520(19) -0.15844(17) 0.70773(10)
H34 H 0.6230 -0.1250 0.7064
H35 H 0.6750 -0.2203 0.7203
H36 H 0.7086 -0.1606 0.6722
loop_
_geom_bond_atom_site_label_1
_geom_bond_atom_site_label_2
_geom_bond_site_symmetry_1
_geom_bond_site_symmetry_2
C1 H1 1_555 1_555
H2 C1 1_555 1_555
H3 C1 1_555 1_555
F1 B1 1_555 1_555
O1 C5 1_555 1_555
O2 C6 1_555 1_555
N1 C5 1_555 1_555
N2 C6 1_555 1_555
C2 C3 1_555 1_555
C3 C13 1_555 1_555
C4 C5 1_555 1_555
C6 C2 1_555 1_555
C7 H4 1_555 1_555
C8 C4 1_555 1_555
C9 N2 1_555 1_555
H5 C9 1_555 1_555
C10 N2 1_555 1_555
H6 C10 1_555 1_555
C11 N1 1_555 1_555
H7 C11 1_555 1_555
C12 C2 1_555 1_555
H8 C12 1_555 1_555
C13 H9 1_555 1_555
C14 C1 1_555 1_555
H10 C14 1_555 1_555
C15 C4 1_555 1_555
H11 C15 1_555 1_555
B1 O2 1_555 1_555
C16 C10 1_555 1_555
H12 C16 1_555 1_555
H13 C16 1_555 1_555
H14 C16 1_555 1_555
C17 C9 1_555 1_555
H15 C17 1_555 1_555
H16 C17 1_555 1_555
H17 C17 1_555 1_555
C18 C8 1_555 1_555
H18 C18 1_555 1_555
C19 C18 1_555 1_555
H19 C19 1_555 1_555
C20 C10 1_555 1_555
H20 C20 1_555 1_555
H21 C20 1_555 1_555
H22 C20 1_555 1_555
C21 C9 1_555 1_555
H23 C21 1_555 1_555
H24 C21 1_555 1_555
H25 C21 1_555 1_555
C22 C11 1_555 1_555
H26 C22 1_555 1_555
H27 C22 1_555 1_555
H28 C22 1_555 1_555
C23 C7 1_555 1_555
H29 C23 1_555 1_555
C24 C15 1_555 1_555
H30 C24 1_555 1_555
C25 C11 1_555 1_555
H31 C25 1_555 1_555
H32 C25 1_555 1_555
H33 C25 1_555 1_555
C26 C14 1_555 1_555
H34 C26 1_555 1_555
H35 C26 1_555 1_555
H36 C26 1_555 1_555
N1 C14 1_555 1_555
C3 B1 1_555 1_555
C7 C12 1_555 1_555
C8 B1 1_555 1_555
C13 C23 1_555 1_555
C19 C24 1_555 1_555

#END
