
#######################################################################
#
#                 Cambridge Crystallographic Data Centre
#                                CCDC 
#
#######################################################################
#
# If this CIF has been generated from an entry in the Cambridge 
# Structural Database, then it will include bibliographic, chemical, 
# crystal, experimental, refinement or atomic coordinate data resulting 
# from the CCDC's data processing and validation procedures.
#
#######################################################################

data_DECWAJ01
_chemical_formula_moiety         'C17 H18 O1'
_chemical_name_systematic        o-t-Butylbenzophenone
_symmetry_cell_setting           orthorhombic
_symmetry_space_group_name_H-M   'P b c a'
_symmetry_Int_Tables_number      61
_space_group_name_Hall           '-P 2ac 2ab'
loop_
_symmetry_equiv_pos_site_id
_symmetry_equiv_pos_as_xyz
1 x,y,z
2 1/2-x,-y,1/2+z
3 1/2+x,1/2-y,-z
4 -x,1/2+y,1/2-z
5 -x,-y,-z
6 1/2+x,y,1/2-z
7 1/2-x,1/2+y,z
8 x,1/2-y,1/2+z
_cell_length_a                   12.781(1)
_cell_length_b                   16.096(2)
_cell_length_c                   13.703(1)
_cell_angle_alpha                90
_cell_angle_beta                 90
_cell_angle_gamma                90
_cell_volume                     2819.02
_exptl_crystal_colour            colorless
_chemical_melting_point          70-71.6deg.C
_cell_formula_units_Z            8
loop_
_atom_site_label
_atom_site_type_symbol
_atom_site_fract_x
_atom_site_fract_y
_atom_site_fract_z
O1 O 0.32120(15) 0.44867(12) 0.06351(15)
C1 C 0.2072(3) 0.49413(20) 0.22904(25)
C2 C 0.1510(3) 0.51020(25) 0.3134(3)
C3 C 0.0587(3) 0.46999(25) 0.3292(3)
C4 C 0.0197(3) 0.41379(22) 0.2633(3)
C5 C 0.0755(3) 0.39846(19) 0.17858(24)
C6 C 0.16946(23) 0.43796(17) 0.16047(20)
C7 C 0.23343(22) 0.42070(16) 0.07172(21)
C8 C 0.18415(22) 0.37395(16) -0.01138(20)
C9 C 0.1058(3) 0.41783(19) -0.05951(25)
C10 C 0.0597(3) 0.38899(22) -0.1438(3)
C11 C 0.0913(3) 0.31396(24) -0.1793(3)
C12 C 0.1668(3) 0.26879(22) -0.13117(25)
C13 C 0.21604(22) 0.29642(17) -0.04623(20)
C14 C 0.30131(25) 0.24319(19) 0.00126(24)
C15 C 0.2909(4) 0.2427(3) 0.1123(3)
C16 C 0.4089(3) 0.2779(3) -0.0295(4)
C17 C 0.2953(5) 0.1517(3) -0.0332(4)
H1 H 0.2759(21) 0.5224(16) 0.2134(18)
H2 H 0.1832(23) 0.5525(18) 0.3631(21)
H3 H 0.0196(19) 0.4786(15) 0.3854(17)
H4 H -0.0518(23) 0.3877(16) 0.2747(21)
H5 H 0.0503(18) 0.3603(13) 0.1330(16)
H6 H 0.0882(18) 0.4709(13) -0.0373(17)
H7 H 0.0075(18) 0.4242(15) -0.1797(17)
H8 H 0.0601(22) 0.2932(14) -0.2387(20)
H9 H 0.1839(20) 0.2127(15) -0.1570(18)
H10 H 0.2124(24) 0.2208(20) 0.1291(24)
H11 H 0.3049(23) 0.2954(17) 0.1361(21)
H12 H 0.3413(21) 0.2051(16) 0.1416(20)
H13 H 0.419(3) 0.3400(17) -0.0025(24)
H14 H 0.4154(24) 0.2775(18) -0.1070(23)
H15 H 0.4549(21) 0.2460(17) -0.0012(20)
H16 H 0.3174(24) 0.1519(18) -0.1065(20)
H17 H 0.2205(24) 0.1295(19) -0.0035(24)
H18 H 0.3495(24) 0.1233(18) 0.0042(23)
loop_
_geom_bond_atom_site_label_1
_geom_bond_atom_site_label_2
_geom_bond_site_symmetry_1
_geom_bond_site_symmetry_2
O1 C7 1_555 1_555
C1 C2 1_555 1_555
C2 C3 1_555 1_555
C3 C4 1_555 1_555
C4 C5 1_555 1_555
C5 C6 1_555 1_555
C6 C1 1_555 1_555
C7 C6 1_555 1_555
C8 C7 1_555 1_555
C9 C8 1_555 1_555
C10 C9 1_555 1_555
C11 C10 1_555 1_555
C12 C11 1_555 1_555
C13 C8 1_555 1_555
C14 C13 1_555 1_555
C15 C14 1_555 1_555
C16 C14 1_555 1_555
C17 C14 1_555 1_555
H1 C1 1_555 1_555
H2 C2 1_555 1_555
H3 C3 1_555 1_555
H4 C4 1_555 1_555
H5 C5 1_555 1_555
H6 C9 1_555 1_555
H7 C10 1_555 1_555
H8 C11 1_555 1_555
H9 C12 1_555 1_555
H10 C15 1_555 1_555
H11 C15 1_555 1_555
H12 C15 1_555 1_555
H13 C16 1_555 1_555
H14 C16 1_555 1_555
H15 C16 1_555 1_555
H16 C17 1_555 1_555
H17 C17 1_555 1_555
H18 C17 1_555 1_555
C12 C13 1_555 1_555

#END
