
#######################################################################
#
#                 Cambridge Crystallographic Data Centre
#                                CCDC 
#
#######################################################################
#
# If this CIF has been generated from an entry in the Cambridge 
# Structural Database, then it will include bibliographic, chemical, 
# crystal, experimental, refinement or atomic coordinate data resulting 
# from the CCDC's data processing and validation procedures.
#
#######################################################################

data_DEDBAR
_chemical_formula_moiety         'C31 H30 B1 N1 S1'
_chemical_name_systematic        
2-(4-(Dimesitylboryl)phenyl)-1,3-benzothiazole
_symmetry_cell_setting           triclinic
_symmetry_space_group_name_H-M   'P -1'
_symmetry_Int_Tables_number      2
_space_group_name_Hall           '-P 1'
loop_
_symmetry_equiv_pos_site_id
_symmetry_equiv_pos_as_xyz
1 x,y,z
2 -x,-y,-z
_cell_length_a                   7.697(3)
_cell_length_b                   8.388(3)
_cell_length_c                   20.396(7)
_cell_angle_alpha                93.339(13)
_cell_angle_beta                 90.103(14)
_cell_angle_gamma                98.683(13)
_cell_volume                     1299.44
_exptl_crystal_colour            yellow
_exptl_crystal_description       platy
_cell_formula_units_Z            2
_exptl_crystal_recrystallization_method dichloromethane/methanol
loop_
_atom_site_label
_atom_site_type_symbol
_atom_site_fract_x
_atom_site_fract_y
_atom_site_fract_z
B1 B 0.0155(5) 0.2656(4) 0.3004(2)
N1 N 0.4570(5) -0.1353(3) 0.08035(13)
S1 S 0.15568(17) -0.17798(15) 0.01070(6)
C1 C 0.0850(4) 0.1679(4) 0.24117(16)
C2 C 0.2587(5) 0.1372(4) 0.23926(17)
H1 H 0.3334 0.1759 0.2744
C3 C 0.3230(5) 0.0524(4) 0.18777(17)
H2 H 0.4405 0.0382 0.1878
C4 C 0.2126(5) -0.0131(4) 0.13506(16)
C5 C 0.0383(5) 0.0136(4) 0.13587(17)
H3 H -0.0376 -0.0301 0.1017
C6 C -0.0228(5) 0.1051(4) 0.18729(17)
H4 H -0.1382 0.1252 0.1860
C7 C 0.2843(5) -0.1048(4) 0.08022(17)
C8 C 0.3321(6) -0.2538(5) -0.02217(19)
C9 C 0.4761(5) -0.2232(4) 0.01992(18)
C10 C 0.6331(6) -0.2777(5) 0.0028(2)
H5 H 0.7290 -0.2579 0.0315
C11 C 0.6451(8) -0.3587(6) -0.0551(3)
H6 H 0.7502 -0.3952 -0.0660
C12 C 0.5085(9) -0.3891(6) -0.0983(2)
H7 H 0.5230 -0.4441 -0.1383
C13 C 0.3466(8) -0.3398(6) -0.0842(2)
H8 H 0.2526 -0.3618 -0.1137
C14 C -0.1199(4) 0.3859(4) 0.28745(16)
C15 C -0.0786(4) 0.5092(4) 0.24323(17)
C16 C -0.1931(5) 0.6211(4) 0.23661(18)
H9 H -0.1634 0.7029 0.2080
C17 C -0.3472(5) 0.6164(4) 0.27021(18)
C18 C -0.3907(4) 0.4917(4) 0.31174(18)
H10 H -0.4970 0.4838 0.3338
C19 C -0.2803(4) 0.3779(4) 0.32146(16)
C20 C 0.0913(4) 0.2441(4) 0.37066(16)
C21 C 0.1092(4) 0.0883(4) 0.39091(17)
C22 C 0.1960(5) 0.0720(4) 0.44924(18)
H11 H 0.2033 -0.0314 0.4621
C23 C 0.2719(5) 0.2027(5) 0.48897(17)
C24 C 0.2475(4) 0.3540(4) 0.47107(17)
H12 H 0.2928 0.4435 0.4983
C25 C 0.1582(4) 0.3781(4) 0.41425(16)
C26 C 0.0904(5) 0.5293(5) 0.2046(2)
H13 H 0.0788 0.4535 0.1671
H14 H 0.1857 0.5100 0.2320
H15 H 0.1140 0.6373 0.1901
C27 C -0.4621(5) 0.7472(5) 0.2627(2)
H16 H -0.3970 0.8505 0.2765
H17 H -0.5647 0.7256 0.2894
H18 H -0.4971 0.7478 0.2176
C28 C -0.3361(5) 0.2477(5) 0.36868(19)
H19 H -0.4521 0.2564 0.3842
H20 H -0.2554 0.2605 0.4052
H21 H -0.3361 0.1435 0.3466
C29 C 0.0286(6) -0.0653(4) 0.3523(2)
H22 H 0.1161 -0.1037 0.3247
H23 H -0.0669 -0.0431 0.3256
H24 H -0.0145 -0.1461 0.3822
C30 C 0.3798(6) 0.1817(6) 0.5492(2)
H25 H 0.3366 0.0801 0.5671
H26 H 0.3706 0.2679 0.5815
H27 H 0.5007 0.1839 0.5372
C31 C 0.1347(5) 0.5499(4) 0.4012(2)
H28 H 0.2079 0.6239 0.4311
H29 H 0.0140 0.5628 0.4076
H30 H 0.1675 0.5716 0.3569
loop_
_geom_bond_atom_site_label_1
_geom_bond_atom_site_label_2
_geom_bond_site_symmetry_1
_geom_bond_site_symmetry_2
B1 C1 1_555 1_555
N1 C7 1_555 1_555
S1 C7 1_555 1_555
C1 C2 1_555 1_555
C2 H1 1_555 1_555
C3 C2 1_555 1_555
H2 C3 1_555 1_555
C4 C3 1_555 1_555
C5 C4 1_555 1_555
H3 C5 1_555 1_555
C6 C1 1_555 1_555
H4 C6 1_555 1_555
C7 C4 1_555 1_555
C8 S1 1_555 1_555
C9 N1 1_555 1_555
C10 C9 1_555 1_555
H5 C10 1_555 1_555
C11 C10 1_555 1_555
H6 C11 1_555 1_555
C12 C11 1_555 1_555
H7 C12 1_555 1_555
C13 C8 1_555 1_555
H8 C13 1_555 1_555
C14 B1 1_555 1_555
C15 C14 1_555 1_555
C16 C15 1_555 1_555
H9 C16 1_555 1_555
C17 C16 1_555 1_555
C18 C17 1_555 1_555
H10 C18 1_555 1_555
C19 C14 1_555 1_555
C20 B1 1_555 1_555
C21 C20 1_555 1_555
C22 C21 1_555 1_555
H11 C22 1_555 1_555
C23 C22 1_555 1_555
C24 C23 1_555 1_555
H12 C24 1_555 1_555
C25 C20 1_555 1_555
C26 C15 1_555 1_555
H13 C26 1_555 1_555
H14 C26 1_555 1_555
H15 C26 1_555 1_555
C27 C17 1_555 1_555
H16 C27 1_555 1_555
H17 C27 1_555 1_555
H18 C27 1_555 1_555
C28 C19 1_555 1_555
H19 C28 1_555 1_555
H20 C28 1_555 1_555
H21 C28 1_555 1_555
C29 C21 1_555 1_555
H22 C29 1_555 1_555
H23 C29 1_555 1_555
H24 C29 1_555 1_555
C30 C23 1_555 1_555
H25 C30 1_555 1_555
H26 C30 1_555 1_555
H27 C30 1_555 1_555
C31 C25 1_555 1_555
H28 C31 1_555 1_555
H29 C31 1_555 1_555
H30 C31 1_555 1_555
C5 C6 1_555 1_555
C8 C9 1_555 1_555
C12 C13 1_555 1_555
C18 C19 1_555 1_555
C24 C25 1_555 1_555

#END
