
#######################################################################
#
#                 Cambridge Crystallographic Data Centre
#                                CCDC 
#
#######################################################################
#
# If this CIF has been generated from an entry in the Cambridge 
# Structural Database, then it will include bibliographic, chemical, 
# crystal, experimental, refinement or atomic coordinate data resulting 
# from the CCDC's data processing and validation procedures.
#
#######################################################################

data_DEDBEV
_chemical_formula_moiety         'C32 H33 B1 N1 S1 1+,C1 F3 O3 S1 1-'
_chemical_name_systematic        
'2-(4-(Dimesitylboryl)phenyl)-3-methyl-1,3-benzothiazol-3-ium trifluoromethanesulfonate'
_symmetry_cell_setting           monoclinic
_symmetry_space_group_name_H-M   'P 21/c'
_symmetry_Int_Tables_number      14
_space_group_name_Hall           '-P 2ybc'
loop_
_symmetry_equiv_pos_site_id
_symmetry_equiv_pos_as_xyz
1 x,y,z
2 -x,1/2+y,1/2-z
3 -x,-y,-z
4 x,1/2-y,1/2+z
_cell_length_a                   8.354(3)
_cell_length_b                   48.295(16)
_cell_length_c                   7.924(3)
_cell_angle_alpha                90
_cell_angle_beta                 96.001(16)
_cell_angle_gamma                90
_cell_volume                     3179.47
_exptl_crystal_colour            yellow
_exptl_crystal_description       platy
_cell_formula_units_Z            4
_exptl_crystal_recrystallization_method 'dichloromethane/diethyl ether'
loop_
_atom_site_label
_atom_site_type_symbol
_atom_site_fract_x
_atom_site_fract_y
_atom_site_fract_z
B1 B 0.1946(6) 0.08136(11) 0.5003(7)
N1 N 0.4543(4) 0.21007(7) 0.3420(5)
S1 S 0.69077(16) 0.18430(3) 0.23989(18)
C1 C 0.2857(5) 0.10854(9) 0.4519(6)
C2 C 0.3114(6) 0.13035(10) 0.5684(6)
H1 H 0.2770 0.1283 0.6756
C3 C 0.3855(6) 0.15460(10) 0.5304(6)
H2 H 0.4043 0.1684 0.6121
C4 C 0.4325(5) 0.15840(9) 0.3671(6)
C5 C 0.4099(6) 0.13728(10) 0.2489(6)
H3 H 0.4425 0.1396 0.1411
C6 C 0.3381(6) 0.11247(10) 0.2913(6)
H4 H 0.3248 0.0983 0.2115
C7 C 0.5099(6) 0.18450(10) 0.3201(6)
C8 C 0.6941(6) 0.22028(10) 0.2334(6)
C9 C 0.5571(6) 0.23105(10) 0.2922(6)
C10 C 0.5327(6) 0.25922(10) 0.3035(6)
H5 H 0.4412 0.2664 0.3449
C11 C 0.6505(7) 0.27621(11) 0.2505(7)
H6 H 0.6369 0.2953 0.2555
C12 C 0.7874(7) 0.26595(12) 0.1905(7)
H7 H 0.8648 0.2781 0.1576
C13 C 0.8109(6) 0.23748(12) 0.1790(6)
H8 H 0.9017 0.2303 0.1362
C14 C 0.2314(5) 0.05315(9) 0.4129(5)
C15 C 0.3928(5) 0.04488(10) 0.3967(6)
C16 C 0.4232(6) 0.02119(10) 0.3050(6)
H9 H 0.5294 0.0160 0.2969
C17 C 0.3019(7) 0.00521(10) 0.2263(6)
C18 C 0.1466(6) 0.01213(10) 0.2496(6)
H10 H 0.0633 0.0010 0.2008
C19 C 0.1088(6) 0.03508(10) 0.3434(6)
C20 C 0.0617(5) 0.08569(9) 0.6263(6)
C21 C -0.0702(6) 0.10347(10) 0.5864(7)
C22 C -0.1863(6) 0.10642(10) 0.7001(8)
H11 H -0.2752 0.1177 0.6702
C23 C -0.1732(6) 0.09333(11) 0.8532(8)
C24 C -0.0398(6) 0.07691(11) 0.8964(6)
H12 H -0.0264 0.0687 1.0032
C25 C 0.0760(6) 0.07227(10) 0.7835(7)
C26 C 0.5373(6) 0.06061(11) 0.4824(7)
H13 H 0.6216 0.0478 0.5189
H14 H 0.5060 0.0705 0.5788
H15 H 0.5754 0.0735 0.4034
C27 C 0.3405(7) -0.01946(11) 0.1205(7)
H16 H 0.3070 -0.0157 0.0031
H17 H 0.2846 -0.0355 0.1560
H18 H 0.4543 -0.0229 0.1351
C28 C -0.0677(6) 0.03970(11) 0.3632(7)
H19 H -0.0839 0.0389 0.4813
H20 H -0.1309 0.0256 0.3024
H21 H -0.1000 0.0576 0.3186
C29 C -0.0941(7) 0.11896(12) 0.4193(7)
H22 H -0.2070 0.1202 0.3821
H23 H -0.0404 0.1093 0.3357
H24 H -0.0501 0.1373 0.4341
C30 C -0.2994(7) 0.09797(14) 0.9731(8)
H25 H -0.2723 0.1141 1.0409
H26 H -0.3040 0.0821 1.0458
H27 H -0.4023 0.1006 0.9091
C31 C 0.2170(6) 0.05349(12) 0.8402(7)
H28 H 0.2345 0.0409 0.7504
H29 H 0.1938 0.0432 0.9385
H30 H 0.3118 0.0645 0.8677
C32 C 0.2952(6) 0.21684(10) 0.3964(7)
H31 H 0.2365 0.2001 0.4106
H32 H 0.2364 0.2282 0.3118
H33 H 0.3092 0.2267 0.5021
C33 C 0.0537(8) 0.33172(14) 0.4702(9)
S2 S 0.18406(18) 0.30557(3) 0.4017(2)
F1 F 0.0914(4) 0.35684(7) 0.4300(5)
F2 F 0.0628(5) 0.33109(8) 0.6457(5)
F3 F -0.1012(4) 0.32688(8) 0.4177(5)
O1 O 0.3407(4) 0.31637(8) 0.4404(5)
O2 O 0.1411(6) 0.28102(9) 0.4803(7)
O3 O 0.1369(5) 0.30522(11) 0.2199(5)
loop_
_geom_bond_atom_site_label_1
_geom_bond_atom_site_label_2
_geom_bond_site_symmetry_1
_geom_bond_site_symmetry_2
B1 C1 1_555 1_555
N1 C7 1_555 1_555
S1 C7 1_555 1_555
C1 C2 1_555 1_555
C2 H1 1_555 1_555
C3 C2 1_555 1_555
H2 C3 1_555 1_555
C4 C3 1_555 1_555
C5 C4 1_555 1_555
H3 C5 1_555 1_555
C6 C1 1_555 1_555
H4 C6 1_555 1_555
C7 C4 1_555 1_555
C8 S1 1_555 1_555
C9 N1 1_555 1_555
C10 C9 1_555 1_555
H5 C10 1_555 1_555
C11 C10 1_555 1_555
H6 C11 1_555 1_555
C12 C11 1_555 1_555
H7 C12 1_555 1_555
C13 C8 1_555 1_555
H8 C13 1_555 1_555
C14 B1 1_555 1_555
C15 C14 1_555 1_555
C16 C15 1_555 1_555
H9 C16 1_555 1_555
C17 C16 1_555 1_555
C18 C17 1_555 1_555
H10 C18 1_555 1_555
C19 C14 1_555 1_555
C20 B1 1_555 1_555
C21 C20 1_555 1_555
C22 C21 1_555 1_555
H11 C22 1_555 1_555
C23 C22 1_555 1_555
C24 C23 1_555 1_555
H12 C24 1_555 1_555
C25 C20 1_555 1_555
C26 C15 1_555 1_555
H13 C26 1_555 1_555
H14 C26 1_555 1_555
H15 C26 1_555 1_555
C27 C17 1_555 1_555
H16 C27 1_555 1_555
H17 C27 1_555 1_555
H18 C27 1_555 1_555
C28 C19 1_555 1_555
H19 C28 1_555 1_555
H20 C28 1_555 1_555
H21 C28 1_555 1_555
C29 C21 1_555 1_555
H22 C29 1_555 1_555
H23 C29 1_555 1_555
H24 C29 1_555 1_555
C30 C23 1_555 1_555
H25 C30 1_555 1_555
H26 C30 1_555 1_555
H27 C30 1_555 1_555
C31 C25 1_555 1_555
H28 C31 1_555 1_555
H29 C31 1_555 1_555
H30 C31 1_555 1_555
C32 N1 1_555 1_555
H31 C32 1_555 1_555
H32 C32 1_555 1_555
H33 C32 1_555 1_555
C33 S2 1_555 1_555
S2 O1 1_555 1_555
F1 C33 1_555 1_555
F2 C33 1_555 1_555
F3 C33 1_555 1_555
O2 S2 1_555 1_555
O3 S2 1_555 1_555
C5 C6 1_555 1_555
C8 C9 1_555 1_555
C12 C13 1_555 1_555
C18 C19 1_555 1_555
C24 C25 1_555 1_555

#END
