
#######################################################################
#
#                 Cambridge Crystallographic Data Centre
#                                CCDC 
#
#######################################################################
#
# If this CIF has been generated from an entry in the Cambridge 
# Structural Database, then it will include bibliographic, chemical, 
# crystal, experimental, refinement or atomic coordinate data resulting 
# from the CCDC's data processing and validation procedures.
#
#######################################################################

data_DEDJEB
_chemical_formula_moiety         'C23 H19 B1 F2 N2 O2'
_chemical_name_systematic        'bis(m-Fluorophenyl)-boric acid-DL-tryptophan'
_chemical_properties_biological  'anticarcinoma agent'
_symmetry_cell_setting           tetragonal
_symmetry_space_group_name_H-M   'I 41/a'
_symmetry_Int_Tables_number      88
_space_group_name_Hall           '-I 4ad'
loop_
_symmetry_equiv_pos_site_id
_symmetry_equiv_pos_as_xyz
1 x,y,z
2 1/2+x,1/2+y,1/2+z
3 3/4-y,1/4+x,1/4+z
4 1/4-y,3/4+x,3/4+z
5 1/2-x,-y,1/2+z
6 -x,1/2-y,z
7 3/4+y,3/4-x,3/4+z
8 1/4+y,1/4-x,1/4+z
9 -x,-y,-z
10 1/2-x,1/2-y,1/2-z
11 1/4+y,3/4-x,3/4-z
12 3/4+y,1/4-x,1/4-z
13 1/2+x,y,1/2-z
14 x,1/2+y,-z
15 1/4-y,1/4+x,1/4-z
16 3/4-y,3/4+x,3/4-z
_cell_length_a                   19.504(3)
_cell_length_b                   19.504(3)
_cell_length_c                   21.405(4)
_cell_angle_alpha                90
_cell_angle_beta                 90
_cell_angle_gamma                90
_cell_volume                     8142.59
_exptl_crystal_colour            brown
_cell_formula_units_Z            16
loop_
_atom_site_label
_atom_site_type_symbol
_atom_site_fract_x
_atom_site_fract_y
_atom_site_fract_z
C1 C 0.0788(4) 0.0408(4) 0.2080(4)
C2 C 0.0492(5) 0.1520(5) 0.2488(4)
C3 C 0.1084(4) 0.1439(4) 0.1529(4)
C4 C 0.1427(4) 0.0481(4) 0.1013(3)
C5 C 0.1582(4) -0.0247(4) 0.0843(3)
C6 C 0.2363(4) -0.0482(4) 0.1762(3)
C7 C 0.3009(5) 0.1362(4) 0.1636(4)
C8 C 0.3743(6) 0.2304(5) 0.1314(6)
C9 C 0.4090(5) 0.1181(5) 0.1156(5)
C10 C 0.4420(4) -0.0457(5) 0.0846(4)
C11 C 0.5274(5) -0.1125(5) 0.1389(5)
C12 C 0.4300(4) -0.0671(4) 0.1925(4)
N1 N 0.1386(4) 0.1629(4) 0.0979(3)
O1 O 0.2899(3) -0.0125(3) 0.1933(2)
F1 F 0.2652(7) 0.2438(5) 0.1820(5)
C13 C 0.0484(5) 0.0812(5) 0.2534(4)
C14 C 0.0785(5) 0.1850(5) 0.1992(5)
C15 C 0.1095(4) 0.0726(4) 0.1564(3)
C16 C 0.1582(5) 0.1041(5) 0.0677(4)
C17 C 0.2284(4) -0.0500(4) 0.1052(3)
C18 C 0.3501(4) 0.0904(4) 0.1418(4)
C19 C 0.3155(6) 0.2039(5) 0.1590(5)
C20 C 0.4230(7) 0.1885(6) 0.1090(7)
C21 C 0.4042(4) -0.0376(4) 0.1385(4)
C22 C 0.5009(5) -0.0814(6) 0.0871(5)
C23 C 0.4907(5) -0.1038(5) 0.1918(5)
B1 B 0.3372(5) 0.0092(5) 0.1406(4)
N2 N 0.2855(3) -0.0064(3) 0.0825(3)
O2 O 0.1969(3) -0.0756(3) 0.2115(2)
F2 F 0.5373(4) -0.0881(5) 0.0338(4)
loop_
_geom_bond_atom_site_label_1
_geom_bond_atom_site_label_2
_geom_bond_site_symmetry_1
_geom_bond_site_symmetry_2
C1 C13 1_555 1_555
C2 C13 1_555 1_555
C3 N1 1_555 1_555
C4 C5 1_555 1_555
C5 C17 1_555 1_555
C6 O1 1_555 1_555
C7 C18 1_555 1_555
C8 C19 1_555 1_555
C9 C18 1_555 1_555
C10 C21 1_555 1_555
C11 C22 1_555 1_555
C12 C21 1_555 1_555
N1 C16 1_555 1_555
O1 B1 1_555 1_555
F1 C19 1_555 1_555
C14 C2 1_555 1_555
C15 C1 1_555 1_555
C16 C4 1_555 1_555
C17 C6 1_555 1_555
C18 B1 1_555 1_555
C19 C7 1_555 1_555
C20 C8 1_555 1_555
C21 B1 1_555 1_555
C22 C10 1_555 1_555
C23 C11 1_555 1_555
B1 N2 1_555 1_555
N2 C17 1_555 1_555
O2 C6 1_555 1_555
F2 C22 1_555 1_555
C3 C14 1_555 1_555
C3 C15 1_555 1_555
C4 C15 1_555 1_555
C9 C20 1_555 1_555
C12 C23 1_555 1_555

#END
