
#######################################################################
#
#                 Cambridge Crystallographic Data Centre
#                                CCDC 
#
#######################################################################
#
# If this CIF has been generated from an entry in the Cambridge 
# Structural Database, then it will include bibliographic, chemical, 
# crystal, experimental, refinement or atomic coordinate data resulting 
# from the CCDC's data processing and validation procedures.
#
#######################################################################

data_DEDTUE
_chemical_formula_moiety         
'C72 H84 N12,C60 H72 N12,6(C3 H8 O1),4(H2 O1),C1 H2 Cl2'
_chemical_name_systematic        
'5,12,20,27,35,42,50,57,62,69,74,81-dodecaazatridecacyclo[29.29.10.10^16,46^.1^3,59^.1^14,18^.1^29,33^.1^44,48^.0^6,11^.0^21,26^.0^36,41^.0^51,56^.0^63,68^.0^75,80^]tetraoctaconta-1,3(71),4,12,14(84),15,17,19,27,29(83),30,32,34,42,44(72),45,47,49,57,59,61,69,73,81-tetracosaene 6,6,17,17,28,28,40,40,47,47,55,55-dodecamethyl-5,8,16,19,27,30,38,41,46,49,54,57-dodecaazaheptacyclo[21.21.6.6^12,34^.1^3,43^.1^10,14^.1^21,25^.1^32,36^]hexaconta-1,3(51),4,8,10(60),11,13,15,19,21(59),22,24,26,30,32(52),33,35,37,41,43,45,49,53,57-tetracosaene propan-2-ol dichloromethane solvate tetrahydrate'
_symmetry_cell_setting           hexagonal
_symmetry_space_group_name_H-M   'P 63'
_symmetry_Int_Tables_number      173
_space_group_name_Hall           'P 6c'
loop_
_symmetry_equiv_pos_site_id
_symmetry_equiv_pos_as_xyz
1 x,y,z
2 -y,x-y,z
3 -x+y,-x,z
4 -x,-y,1/2+z
5 y,-x+y,1/2+z
6 x-y,x,1/2+z
_cell_length_a                   17.5938(7)
_cell_length_b                   17.5938(7)
_cell_length_c                   32.2344(13)
_cell_angle_alpha                90
_cell_angle_beta                 90
_cell_angle_gamma                120
_cell_volume                     8641.11
_exptl_crystal_colour            colorless
_exptl_crystal_description       hexagonal
_cell_formula_units_Z            2
loop_
_atom_site_label
_atom_site_type_symbol
_atom_site_fract_x
_atom_site_fract_y
_atom_site_fract_z
N5 N 0.7679(6) 0.7103(6) 0.6145(3)
N6 N 0.9211(7) 0.6915(7) 0.6063(3)
N7 N 0.6442(4) 0.8161(6) 0.4501(3)
N8 N 0.7587(4) 0.8852(4) 0.3798(2)
C25 C 0.7729(5) 1.0123(9) 0.6161(3)
H29 H 0.7893 1.0072 0.6435
C26 C 0.7505(5) 0.9386(7) 0.5855(3)
C27 C 0.7224(5) 0.9415(7) 0.5462(3)
H30 H 0.7181 0.9910 0.5380
C28 C 0.7001(5) 0.8738(8) 0.5181(3)
C29 C 0.7060(5) 0.7996(7) 0.5303(3)
H31 H 0.6905 0.7525 0.5114
C30 C 0.7348(5) 0.7965(7) 0.5700(3)
C31 C 0.7561(5) 0.8661(8) 0.5977(3)
H32 H 0.7746 0.8633 0.6251
C32 C 0.6694(5) 0.8794(8) 0.4759(3)
H33 H 0.6684 0.9310 0.4680
C33 C 0.7397(6) 0.7175(8) 0.5809(4)
H34 H 0.7205 0.6711 0.5613
C34 C 0.7664(9) 0.6282(9) 0.6229(5)
H35 H 0.7518 0.5930 0.5971
H36 H 0.7207 0.5939 0.6438
C35 C 0.8543(9) 0.6465(8) 0.6387(4)
C36 C 0.6162(5) 0.8297(7) 0.4098(3)
H37 H 0.6271 0.8905 0.4079
H38 H 0.5524 0.7890 0.4064
C37 C 0.6666(5) 0.8136(5) 0.3751(3)
C38 C 0.6491(6) 0.7203(6) 0.3778(4)
H39 H 0.6611 0.7086 0.4060
H40 H 0.6871 0.7124 0.3582
H41 H 0.5875 0.6795 0.3709
C39 C 0.6360(6) 0.8308(6) 0.3336(3)
H42 H 0.6635 0.8162 0.3109
H43 H 0.6527 0.8928 0.3318
H44 H 0.5720 0.7943 0.3315
C40 C 0.8183(5) 0.8673(5) 0.3868(2)
H45 H 0.8030 0.8078 0.3904
C41 C 0.9373(4) 1.0254(4) 0.3895(2)
H46 H 0.8940 1.0427 0.3893
C42 C 0.9111(4) 0.9363(4) 0.3896(2)
C43 C 0.8534(11) 0.6746(11) 0.6788(6)
H47 H 0.8457 0.7260 0.6780
H48 H 0.9091 0.6902 0.6925
H49 H 0.8049 0.6273 0.6943
C44 C 0.8308(11) 0.5429(11) 0.6392(6)
H50 H 0.8789 0.5390 0.6524
H51 H 0.8232 0.5210 0.6106
H52 H 0.7765 0.5074 0.6548
N5A N 1.2897(6) 1.0576(8) 0.6145(3)
N6A N 1.3085(7) 1.2296(10) 0.6063(3)
N7A N 1.1839(6) 0.8281(7) 0.4501(3)
N8A N 1.1148(4) 0.8735(6) 0.3798(2)
C25A C 0.9877(9) 0.7606(10) 0.6161(3)
H29A H 0.9928 0.7821 0.6435
C26A C 1.0614(7) 0.8119(9) 0.5855(3)
C27A C 1.0585(7) 0.7809(9) 0.5462(3)
H30A H 1.0090 0.7271 0.5380
C28A C 1.1262(8) 0.8263(9) 0.5181(3)
C29A C 1.2004(7) 0.9064(9) 0.5303(3)
H31A H 1.2475 0.9380 0.5114
C30A C 1.2035(7) 0.9383(9) 0.5700(3)
C31A C 1.1339(8) 0.8900(9) 0.5977(3)
H32A H 1.1367 0.9113 0.6251
C32A C 1.1206(8) 0.7900(9) 0.4759(3)
H33A H 1.0690 0.7374 0.4680
C33A C 1.2825(8) 1.0222(10) 0.5809(4)
H34A H 1.3289 1.0494 0.5613
C34A C 1.3718(9) 1.1382(13) 0.6229(5)
H35A H 1.4070 1.1588 0.5971
H36A H 1.4061 1.1268 0.6438
C35A C 1.3535(8) 1.2078(12) 0.6387(4)
C36A C 1.1703(7) 0.7865(9) 0.4098(3)
H37A H 1.1095 0.7366 0.4079
H38A H 1.2110 0.7634 0.4064
C37A C 1.1864(5) 0.8530(7) 0.3751(3)
C38A C 1.2797(6) 0.9288(8) 0.3778(4)
H39A H 1.2914 0.9525 0.4060
H40A H 1.2876 0.9747 0.3582
H41A H 1.3205 0.9080 0.3709
C39A C 1.1692(6) 0.8052(8) 0.3336(3)
H42A H 1.1838 0.8473 0.3109
H43A H 1.1072 0.7599 0.3318
H44A H 1.2057 0.7777 0.3315
C40A C 1.1327(5) 0.9510(7) 0.3868(2)
H45A H 1.1922 0.9952 0.3904
C41A C 0.9746(4) 0.9119(6) 0.3895(2)
H46A H 0.9573 0.8513 0.3893
C42A C 1.0637(4) 0.9748(6) 0.3896(2)
C43A C 1.3254(11) 1.1788(16) 0.6788(6)
H47A H 1.2740 1.1197 0.6780
H48A H 1.3098 1.2189 0.6925
H49A H 1.3727 1.1776 0.6943
C44A C 1.4571(11) 1.2879(16) 0.6392(6)
H50A H 1.4610 1.3399 0.6524
H51A H 1.4790 1.3022 0.6106
H52A H 1.4926 1.2691 0.6548
N5B N 0.9424(8) 1.2321(6) 0.6145(3)
N6B N 0.7704(10) 1.0789(7) 0.6063(3)
N7B N 1.1719(7) 1.3558(4) 0.4501(3)
N8B N 1.1265(6) 1.2413(4) 0.3798(2)
C25B C 1.2394(10) 1.2271(5) 0.6161(3)
H29B H 1.2179 1.2107 0.6435
C26B C 1.1881(9) 1.2495(5) 0.5855(3)
C27B C 1.2191(9) 1.2776(5) 0.5462(3)
H30B H 1.2729 1.2819 0.5380
C28B C 1.1737(9) 1.2999(5) 0.5181(3)
C29B C 1.0936(9) 1.2940(5) 0.5303(3)
H31B H 1.0620 1.3095 0.5114
C30B C 1.0617(9) 1.2652(5) 0.5700(3)
C31B C 1.1100(9) 1.2439(5) 0.5977(3)
H32B H 1.0887 1.2254 0.6251
C32B C 1.2100(9) 1.3306(5) 0.4759(3)
H33B H 1.2626 1.3316 0.4680
C33B C 0.9778(10) 1.2603(6) 0.5809(4)
H34B H 0.9506 1.2795 0.5613
C34B C 0.8618(13) 1.2336(9) 0.6229(5)
H35B H 0.8412 1.2482 0.5971
H36B H 0.8732 1.2793 0.6438
C35B C 0.7922(12) 1.1457(9) 0.6387(4)
C36B C 1.2135(9) 1.3838(5) 0.4098(3)
H37B H 1.2634 1.3729 0.4079
H38B H 1.2366 1.4476 0.4064
C37B C 1.1470(7) 1.3334(5) 0.3751(3)
C38B C 1.0712(8) 1.3509(6) 0.3778(4)
H39B H 1.0475 1.3389 0.4060
H40B H 1.0253 1.3129 0.3582
H41B H 1.0920 1.4125 0.3709
C39B C 1.1948(8) 1.3640(6) 0.3336(3)
H42B H 1.1527 1.3365 0.3109
H43B H 1.2401 1.3473 0.3318
H44B H 1.2223 1.4280 0.3315
C40B C 1.0490(7) 1.1817(5) 0.3868(2)
H45B H 1.0048 1.1970 0.3904
C41B C 1.0881(6) 1.0627(4) 0.3895(2)
H46B H 1.1487 1.1060 0.3893
C42B C 1.0252(6) 1.0889(4) 0.3896(2)
C43B C 0.8212(16) 1.1466(11) 0.6788(6)
H47B H 0.8803 1.1543 0.6780
H48B H 0.7811 1.0909 0.6925
H49B H 0.8224 1.1951 0.6943
C44B C 0.7121(16) 1.1692(11) 0.6392(6)
H50B H 0.6601 1.1211 0.6524
H51B H 0.6978 1.1768 0.6106
H52B H 0.7309 1.2235 0.6548
O1 O 0.606(3) 0.486(3) 0.7586(14)
H53 H 0.5898 0.4743 0.7835
C45 C 0.4786(19) 0.368(2) 0.7577(10)
H54 H 0.4425 0.3922 0.7480
H55 H 0.4887 0.3777 0.7876
H56 H 0.4482 0.3046 0.7520
C46 C 0.5638(19) 0.411(2) 0.7357(12)
H57 H 0.5577 0.4232 0.7059
C47 C 0.612(3) 0.362(3) 0.7409(18)
H58 H 0.5826 0.3076 0.7246
H59 H 0.6724 0.3982 0.7312
H60 H 0.6119 0.3475 0.7702
O1A O 0.514(3) 0.120(4) 0.7586(14)
H53A H 0.5257 0.1155 0.7835
C45A C 0.632(2) 0.1106(28) 0.7577(10)
H54A H 0.6078 0.0503 0.7480
H55A H 0.6223 0.1110 0.7876
H56A H 0.6954 0.1436 0.7520
C46A C 0.589(2) 0.1528(28) 0.7357(12)
H57A H 0.5768 0.1345 0.7059
C47A C 0.638(3) 0.250(4) 0.7409(18)
H58A H 0.6924 0.2750 0.7246
H59A H 0.6018 0.2742 0.7312
H60A H 0.6525 0.2644 0.7702
O1B O 0.880(4) 0.394(3) 0.7586(14)
H53B H 0.8845 0.4102 0.7835
C45B C 0.8894(28) 0.5214(19) 0.7577(10)
H54B H 0.9497 0.5575 0.7480
H55B H 0.8890 0.5113 0.7876
H56B H 0.8564 0.5518 0.7520
C46B C 0.8472(28) 0.4362(19) 0.7357(12)
H57B H 0.8655 0.4423 0.7059
C47B C 0.750(4) 0.388(3) 0.7409(18)
H58B H 0.7250 0.4174 0.7246
H59B H 0.7258 0.3276 0.7312
H60B H 0.7356 0.3881 0.7702
O2 O 0.2121(9) 0.1007(10) 0.4896(5)
H61 H 0.1888 0.0488 0.4809
C48 C 0.3093(13) 0.1430(14) 0.4864(7)
H62 H 0.3270 0.0983 0.4924
C49 C 0.3595(12) 0.2206(11) 0.5144(6)
H63 H 0.3275 0.2109 0.5406
H64 H 0.3664 0.2736 0.5009
H65 H 0.4175 0.2279 0.5201
C50 C 0.3387(15) 0.1783(15) 0.4432(7)
H66 H 0.4027 0.2060 0.4413
H67 H 0.3115 0.1300 0.4231
H68 H 0.3210 0.2218 0.4369
O3 O 0.6667 0.3333 0.2544(11)
N1 N 0.6183(4) 0.7232(4) 0.7236(2)
N2 N 0.6436(3) 0.8960(4) 0.71307(19)
N3 N 0.5179(4) 0.4986(4) 0.5571(2)
N4 N 0.4457(3) 0.5362(3) 0.48578(19)
C1 C 0.4217(4) 0.7289(4) 0.4922(2)
H1 H 0.4824 0.7717 0.4919
C2 C 0.3967(4) 0.6404(4) 0.4924(2)
C3 C 0.4636(4) 0.6152(4) 0.4903(2)
H2 H 0.5235 0.6598 0.4924
C4 C 0.5189(4) 0.5195(4) 0.4827(3)
H3 H 0.5754 0.5759 0.4862
C5 C 0.5170(6) 0.4815(7) 0.4400(3)
H4 H 0.4601 0.4270 0.4358
H5 H 0.5230 0.5241 0.4183
C6 C 0.5903(7) 0.4621(8) 0.4361(4)
H6 H 0.5879 0.4362 0.4086
H7 H 0.6473 0.5172 0.4386
C7 C 0.5832(7) 0.4014(8) 0.4684(5)
H8 H 0.6323 0.3895 0.4655
H9 H 0.5278 0.3452 0.4645
C8 C 0.5848(6) 0.4353(6) 0.5125(4)
H10 H 0.5770 0.3902 0.5331
H11 H 0.6421 0.4887 0.5178
C9 C 0.5104(4) 0.4565(5) 0.5169(3)
H12 H 0.4523 0.4013 0.5147
C10 C 0.4527(5) 0.4635(4) 0.5808(2)
H13 H 0.4014 0.4120 0.5717
C11 C 0.4529(4) 0.4991(4) 0.6220(2)
C12 C 0.5247(4) 0.5799(5) 0.6353(3)
H14 H 0.5717 0.6133 0.6167
C13 C 0.5275(4) 0.6103(5) 0.6744(2)
C14 C 0.4574(4) 0.5636(5) 0.7024(3)
H15 H 0.4588 0.5856 0.7295
C15 C 0.3855(4) 0.4837(5) 0.6892(3)
C16 C 0.3835(4) 0.4524(4) 0.6496(2)
H16 H 0.3343 0.3984 0.6411
C17 C 0.3158(5) 0.4335(5) 0.7200(2)
H17 H 0.3184 0.4599 0.7460
C18 C 0.6060(4) 0.6924(5) 0.6865(2)
H18 H 0.6495 0.7241 0.6661
C19 C 0.7016(4) 0.8016(4) 0.7324(2)
H19 H 0.7381 0.8201 0.7066
C20 C 0.7492(5) 0.7801(5) 0.7660(3)
H20 H 0.7102 0.7551 0.7904
H21 H 0.7624 0.7352 0.7553
C21 C 0.8332(5) 0.8598(5) 0.7793(3)
H22 H 0.8757 0.8794 0.7560
H23 H 0.8588 0.8439 0.8028
C22 C 0.8188(5) 0.9340(5) 0.7921(3)
H24 H 0.8762 0.9868 0.7981
H25 H 0.7833 0.9176 0.8178
C23 C 0.7716(5) 0.9556(5) 0.7580(3)
H26 H 0.7604 1.0024 0.7679
H27 H 0.8098 0.9779 0.7332
C24 C 0.6859(4) 0.8760(5) 0.7462(2)
H28 H 0.6464 0.8560 0.7710
N1A N 0.2768(4) 0.8951(6) 0.7236(2)
N2A N 0.1040(4) 0.7476(5) 0.71307(19)
N3A N 0.5014(4) 1.0193(6) 0.5571(2)
N4A N 0.4638(3) 0.9095(4) 0.48578(19)
C1A C 0.2711(4) 0.6928(6) 0.4922(2)
H1A H 0.2283 0.7107 0.4919
C2A C 0.3596(4) 0.7563(6) 0.4924(2)
C3A C 0.3848(4) 0.8484(6) 0.4903(2)
H2A H 0.3402 0.8637 0.4924
C4A C 0.4805(4) 0.9994(6) 0.4827(3)
H3A H 0.4241 0.9995 0.4862
C5A C 0.5185(7) 1.0355(9) 0.4400(3)
H4A H 0.5730 1.0331 0.4358
H5A H 0.4759 0.9989 0.4183
C6A C 0.5379(8) 1.1282(11) 0.4361(4)
H6A H 0.5638 1.1517 0.4086
H7A H 0.4828 1.1301 0.4386
C7A C 0.5986(8) 1.1818(11) 0.4684(5)
H8A H 0.6105 1.2428 0.4655
H9A H 0.6548 1.1826 0.4645
C8A C 0.5647(6) 1.1495(8) 0.5125(4)
H10A H 0.6098 1.1868 0.5331
H11A H 0.5113 1.1534 0.5178
C9A C 0.5435(5) 1.0539(6) 0.5169(3)
H12A H 0.5987 1.0510 0.5147
C10A C 0.5365(4) 0.9892(6) 0.5808(2)
H13A H 0.5880 0.9894 0.5717
C11A C 0.5009(4) 0.9538(6) 0.6220(2)
C12A C 0.4201(5) 0.9448(6) 0.6353(3)
H14A H 0.3867 0.9584 0.6167
C13A C 0.3897(5) 0.9172(6) 0.6744(2)
C14A C 0.4364(5) 0.8938(6) 0.7024(3)
H15A H 0.4144 0.8732 0.7295
C15A C 0.5163(5) 0.9018(6) 0.6892(3)
C16A C 0.5476(4) 0.9311(6) 0.6496(2)
H16A H 0.6016 0.9359 0.6411
C17A C 0.5665(5) 0.8823(7) 0.7200(2)
H17A H 0.5401 0.8585 0.7460
C18A C 0.3076(5) 0.9136(6) 0.6865(2)
H18A H 0.2759 0.9254 0.6661
C19A C 0.1984(4) 0.9000(6) 0.7324(2)
H19A H 0.1799 0.9180 0.7066
C20A C 0.2199(5) 0.9691(7) 0.7660(3)
H20A H 0.2449 0.9551 0.7904
H21A H 0.2648 1.0272 0.7553
C21A C 0.1402(5) 0.9734(7) 0.7793(3)
H22A H 0.1206 0.9963 0.7560
H23A H 0.1561 1.0149 0.8028
C22A C 0.0660(5) 0.8848(7) 0.7921(3)
H24A H 0.0132 0.8894 0.7981
H25A H 0.0824 0.8657 0.8178
C23A C 0.0444(5) 0.8160(7) 0.7580(3)
H26A H -0.0024 0.7580 0.7679
H27A H 0.0221 0.8319 0.7332
C24A C 0.1240(5) 0.8099(6) 0.7462(2)
H28A H 0.1440 0.7904 0.7710
N1B N 0.1049(6) 0.3817(4) 0.7236(2)
N2B N 0.2524(5) 0.3564(3) 0.71307(19)
N3B N -0.0193(6) 0.4821(4) 0.5571(2)
N4B N 0.0905(4) 0.5543(3) 0.48578(19)
C1B C 0.3072(6) 0.5783(4) 0.4922(2)
H1B H 0.2893 0.5176 0.4919
C2B C 0.2437(6) 0.6033(4) 0.4924(2)
C3B C 0.1516(6) 0.5364(4) 0.4903(2)
H2B H 0.1363 0.4765 0.4924
C4B C 0.0006(6) 0.4811(4) 0.4827(3)
H3B H 0.0005 0.4246 0.4862
C5B C -0.0355(9) 0.4830(6) 0.4400(3)
H4B H -0.0331 0.5399 0.4358
H5B H 0.0011 0.4770 0.4183
C6B C -0.1282(11) 0.4097(7) 0.4361(4)
H6B H -0.1517 0.4121 0.4086
H7B H -0.1301 0.3527 0.4386
C7B C -0.1818(11) 0.4168(7) 0.4684(5)
H8B H -0.2428 0.3677 0.4655
H9B H -0.1826 0.4722 0.4645
C8B C -0.1495(8) 0.4152(6) 0.5125(4)
H10B H -0.1868 0.4230 0.5331
H11B H -0.1534 0.3579 0.5178
C9B C -0.0539(6) 0.4896(4) 0.5169(3)
H12B H -0.0510 0.5477 0.5147
C10B C 0.0108(6) 0.5473(5) 0.5808(2)
H13B H 0.0106 0.5986 0.5717
C11B C 0.0462(6) 0.5471(4) 0.6220(2)
C12B C 0.0552(6) 0.4753(4) 0.6353(3)
H14B H 0.0416 0.4283 0.6167
C13B C 0.0828(6) 0.4725(4) 0.6744(2)
C14B C 0.1062(6) 0.5426(4) 0.7024(3)
H15B H 0.1268 0.5412 0.7295
C15B C 0.0982(6) 0.6145(4) 0.6892(3)
C16B C 0.0689(6) 0.6165(4) 0.6496(2)
H16B H 0.0641 0.6657 0.6411
C17B C 0.1177(7) 0.6842(5) 0.7200(2)
H17B H 0.1415 0.6816 0.7460
C18B C 0.0864(6) 0.3940(4) 0.6865(2)
H18B H 0.0746 0.3505 0.6661
C19B C 0.1000(6) 0.2984(4) 0.7324(2)
H19B H 0.0820 0.2619 0.7066
C20B C 0.0309(7) 0.2508(5) 0.7660(3)
H20B H 0.0449 0.2898 0.7904
H21B H -0.0272 0.2376 0.7553
C21B C 0.0266(7) 0.1668(5) 0.7793(3)
H22B H 0.0037 0.1243 0.7560
H23B H -0.0149 0.1412 0.8028
C22B C 0.1152(7) 0.1812(5) 0.7921(3)
H24B H 0.1106 0.1238 0.7981
H25B H 0.1343 0.2167 0.8178
C23B C 0.1840(7) 0.2284(5) 0.7580(3)
H26B H 0.2420 0.2396 0.7679
H27B H 0.1681 0.1902 0.7332
C24B C 0.1901(6) 0.3141(4) 0.7462(2)
H28B H 0.2096 0.3536 0.7710
H69? H 0.8702 0.6838 0.6638
H70? H 0.8516 0.5907 0.6463
C51? C 0.734(2) 0.596(2) 0.6688(9)
H71? H 0.6721 0.5809 0.6715
H72? H 0.7696 0.6432 0.6884
H73? H 0.7388 0.5444 0.6750
C52? C 0.7581(19) 0.5649(18) 0.5990(9)
H74? H 0.8104 0.5861 0.5815
H75? H 0.7061 0.5450 0.5814
H76? H 0.7516 0.5159 0.6161
O4? O 0.531(5) 0.474(5) 0.799(2)
Cl1? Cl 0.3881(13) 0.696(2) 0.6052(9)
O5? O 0.5058(13) 0.3037(13) 0.2864(6)
H77? H 0.4956 0.3333 0.2693
C53? C 0.481(3) 0.404(3) 0.3266(17)
H78? H 0.4710 0.4162 0.3553
H79? H 0.5333 0.4553 0.3155
H80? H 0.4297 0.3932 0.3096
C54? C 0.492(3) 0.323(2) 0.3256(9)
H81? H 0.5543 0.3522 0.3356
C55? C 0.452(3) 0.252(3) 0.3575(13)
H82? H 0.4465 0.2771 0.3839
H83? H 0.3933 0.2071 0.3482
H84? H 0.4888 0.2257 0.3615
O6? O 1.0000 1.0000 0.6081(8)
C56? C 0.901(4) 0.881(4) 0.669(2)
C57? C 0.983(4) 0.948(3) 0.6454(10)
C58? C 1.0000 1.0000 0.6856(12)
O7? O 0.4077(17) 0.6995(16) 0.3304(8)
C59? C 0.3653(17) 0.6510(18) 0.3696(8)
C60? C 0.396(3) 0.592(3) 0.3804(16)
O8? O 0.0302(18) 0.0564(15) 0.5012(8)
O9? O 0.0906(19) 0.0755(17) 0.5087(8)
O10? O 0.0929(15) 0.0142(21) 0.5073(7)
Cl2? Cl 0.3333 0.6667 0.6481(10)
Cl3? Cl 0.4981(7) 0.7450(7) 0.5938(4)
C61? C 0.3881(13) 0.696(2) 0.6052(9)
loop_
_geom_bond_atom_site_label_1
_geom_bond_atom_site_label_2
_geom_bond_site_symmetry_1
_geom_bond_site_symmetry_2
N1 C18 1_555 1_555
N2 C24 1_555 1_555
N3 C9 1_555 1_555
N4 C3 1_555 1_555
C1 H1 1_555 1_555
C2 C1 1_555 1_555
C3 C2 1_555 1_555
H2 C3 1_555 1_555
C4 N4 1_555 1_555
H3 C4 1_555 1_555
C5 C4 1_555 1_555
H4 C5 1_555 1_555
H5 C5 1_555 1_555
C6 C5 1_555 1_555
H6 C6 1_555 1_555
H7 C6 1_555 1_555
C7 C6 1_555 1_555
H8 C7 1_555 1_555
H9 C7 1_555 1_555
C8 C7 1_555 1_555
H10 C8 1_555 1_555
H11 C8 1_555 1_555
C9 C4 1_555 1_555
H12 C9 1_555 1_555
C10 N3 1_555 1_555
H13 C10 1_555 1_555
C11 C10 1_555 1_555
C12 C11 1_555 1_555
H14 C12 1_555 1_555
C13 C12 1_555 1_555
C14 C13 1_555 1_555
H15 C14 1_555 1_555
C15 C14 1_555 1_555
C16 C11 1_555 1_555
H16 C16 1_555 1_555
C17 C15 1_555 1_555
H17 C17 1_555 1_555
C18 C13 1_555 1_555
H18 C18 1_555 1_555
C19 N1 1_555 1_555
H19 C19 1_555 1_555
C20 C19 1_555 1_555
H20 C20 1_555 1_555
H21 C20 1_555 1_555
C21 C20 1_555 1_555
H22 C21 1_555 1_555
H23 C21 1_555 1_555
C22 C21 1_555 1_555
H24 C22 1_555 1_555
H25 C22 1_555 1_555
C23 C22 1_555 1_555
H26 C23 1_555 1_555
H27 C23 1_555 1_555
C24 C19 1_555 1_555
H28 C24 1_555 1_555
N5 C33 1_555 1_555
N6 C35 1_555 1_555
N7 C32 1_555 1_555
N8 C37 1_555 1_555
C25 H29 1_555 1_555
C26 C25 1_555 1_555
C27 C26 1_555 1_555
H30 C27 1_555 1_555
C28 C27 1_555 1_555
C29 C28 1_555 1_555
H31 C29 1_555 1_555
C30 C29 1_555 1_555
C31 C26 1_555 1_555
H32 C31 1_555 1_555
C32 C28 1_555 1_555
H33 C32 1_555 1_555
C33 C30 1_555 1_555
H34 C33 1_555 1_555
C34 N5 1_555 1_555
H35 C34 1_555 1_555
H36 C34 1_555 1_555
C35 C34 1_555 1_555
C36 N7 1_555 1_555
H37 C36 1_555 1_555
H38 C36 1_555 1_555
C37 C36 1_555 1_555
C38 C37 1_555 1_555
H39 C38 1_555 1_555
H40 C38 1_555 1_555
H41 C38 1_555 1_555
C39 C37 1_555 1_555
H42 C39 1_555 1_555
H43 C39 1_555 1_555
H44 C39 1_555 1_555
C40 N8 1_555 1_555
H45 C40 1_555 1_555
C41 H46 1_555 1_555
C42 C40 1_555 1_555
C43 C35 1_555 1_555
H47 C43 1_555 1_555
H48 C43 1_555 1_555
H49 C43 1_555 1_555
C44 C35 1_555 1_555
H50 C44 1_555 1_555
H51 C44 1_555 1_555
H52 C44 1_555 1_555
O1 H53 1_555 1_555
C45 H54 1_555 1_555
H55 C45 1_555 1_555
H56 C45 1_555 1_555
C46 O1 1_555 1_555
H57 C46 1_555 1_555
C47 C46 1_555 1_555
H58 C47 1_555 1_555
H59 C47 1_555 1_555
H60 C47 1_555 1_555
O2 H61 1_555 1_555
C48 O2 1_555 1_555
H62 C48 1_555 1_555
C49 C48 1_555 1_555
H63 C49 1_555 1_555
H64 C49 1_555 1_555
H65 C49 1_555 1_555
C50 C48 1_555 1_555
H66 C50 1_555 1_555
H67 C50 1_555 1_555
H68 C50 1_555 1_555
N1A C18A 1_555 1_555
N2A C24A 1_555 1_555
N3A C9A 1_555 1_555
N4A C3A 1_555 1_555
C1A H1A 1_555 1_555
C2A C1 1_555 1_555
C3A C2A 1_555 1_555
H2A C3A 1_555 1_555
C4A N4A 1_555 1_555
H3A C4A 1_555 1_555
C5A C4A 1_555 1_555
H4A C5A 1_555 1_555
H5A C5A 1_555 1_555
C6A C5A 1_555 1_555
H6A C6A 1_555 1_555
H7A C6A 1_555 1_555
C7A C6A 1_555 1_555
H8A C7A 1_555 1_555
H9A C7A 1_555 1_555
C8A C7A 1_555 1_555
H10A C8A 1_555 1_555
H11A C8A 1_555 1_555
C9A C4A 1_555 1_555
H12A C9A 1_555 1_555
C10A N3A 1_555 1_555
H13A C10A 1_555 1_555
C11A C10A 1_555 1_555
C12A C11A 1_555 1_555
H14A C12A 1_555 1_555
C13A C12A 1_555 1_555
C14A C13A 1_555 1_555
H15A C14A 1_555 1_555
C15A C14A 1_555 1_555
C16A C11A 1_555 1_555
H16A C16A 1_555 1_555
C17A N2 1_555 1_555
H17A C17A 1_555 1_555
C18A C13A 1_555 1_555
H18A C18A 1_555 1_555
C19A N1A 1_555 1_555
H19A C19A 1_555 1_555
C20A C19A 1_555 1_555
H20A C20A 1_555 1_555
H21A C20A 1_555 1_555
C21A C20A 1_555 1_555
H22A C21A 1_555 1_555
H23A C21A 1_555 1_555
C22A C21A 1_555 1_555
H24A C22A 1_555 1_555
H25A C22A 1_555 1_555
C23A C22A 1_555 1_555
H26A C23A 1_555 1_555
H27A C23A 1_555 1_555
C24A C19A 1_555 1_555
H28A C24A 1_555 1_555
N1B C18B 1_555 1_555
N2B C17 1_555 1_555
N3B C9B 1_555 1_555
N4B C3B 1_555 1_555
C1B C2 1_555 1_555
H1B C1B 1_555 1_555
C2B C1A 1_555 1_555
C3B C2B 1_555 1_555
H2B C3B 1_555 1_555
C4B N4B 1_555 1_555
H3B C4B 1_555 1_555
C5B C4B 1_555 1_555
H4B C5B 1_555 1_555
H5B C5B 1_555 1_555
C6B C5B 1_555 1_555
H6B C6B 1_555 1_555
H7B C6B 1_555 1_555
C7B C6B 1_555 1_555
H8B C7B 1_555 1_555
H9B C7B 1_555 1_555
C8B C7B 1_555 1_555
H10B C8B 1_555 1_555
H11B C8B 1_555 1_555
C9B C4B 1_555 1_555
H12B C9B 1_555 1_555
C10B N3B 1_555 1_555
H13B C10B 1_555 1_555
C11B C10B 1_555 1_555
C12B C11B 1_555 1_555
H14B C12B 1_555 1_555
C13B C12B 1_555 1_555
C14B C13B 1_555 1_555
H15B C14B 1_555 1_555
C15B C14B 1_555 1_555
C16B C11B 1_555 1_555
H16B C16B 1_555 1_555
C17B N2A 1_555 1_555
H17B C17B 1_555 1_555
C18B C13B 1_555 1_555
H18B C18B 1_555 1_555
C19B N1B 1_555 1_555
H19B C19B 1_555 1_555
C20B C19B 1_555 1_555
H20B C20B 1_555 1_555
H21B C20B 1_555 1_555
C21B C20B 1_555 1_555
H22B C21B 1_555 1_555
H23B C21B 1_555 1_555
C22B C21B 1_555 1_555
H24B C22B 1_555 1_555
H25B C22B 1_555 1_555
C23B C22B 1_555 1_555
H26B C23B 1_555 1_555
H27B C23B 1_555 1_555
C24B N2B 1_555 1_555
H28B C24B 1_555 1_555
N5A C33A 1_555 1_555
N6A C35A 1_555 1_555
N7A C32A 1_555 1_555
N8A C37A 1_555 1_555
C25A N6 1_555 1_555
H29A C25A 1_555 1_555
C26A C25A 1_555 1_555
C27A C26A 1_555 1_555
H30A C27A 1_555 1_555
C28A C27A 1_555 1_555
C29A C28A 1_555 1_555
H31A C29A 1_555 1_555
C30A C29A 1_555 1_555
C31A C26A 1_555 1_555
H32A C31A 1_555 1_555
C32A C28A 1_555 1_555
H33A C32A 1_555 1_555
C33A C30A 1_555 1_555
H34A C33A 1_555 1_555
C34A N5A 1_555 1_555
H35A C34A 1_555 1_555
H36A C34A 1_555 1_555
C35A C34A 1_555 1_555
C36A N7A 1_555 1_555
H37A C36A 1_555 1_555
H38A C36A 1_555 1_555
C37A C36A 1_555 1_555
C38A C37A 1_555 1_555
H39A C38A 1_555 1_555
H40A C38A 1_555 1_555
H41A C38A 1_555 1_555
C39A C37A 1_555 1_555
H42A C39A 1_555 1_555
H43A C39A 1_555 1_555
H44A C39A 1_555 1_555
C40A N8A 1_555 1_555
H45A C40A 1_555 1_555
C41A C42 1_555 1_555
H46A C41A 1_555 1_555
C42A C40A 1_555 1_555
C43A C35A 1_555 1_555
H47A C43A 1_555 1_555
H48A C43A 1_555 1_555
H49A C43A 1_555 1_555
C44A C35A 1_555 1_555
H50A C44A 1_555 1_555
H51A C44A 1_555 1_555
H52A C44A 1_555 1_555
N5B C33B 1_555 1_555
N6B C25 1_555 1_555
N7B C32B 1_555 1_555
N8B C37B 1_555 1_555
C25B N6A 1_555 1_555
H29B C25B 1_555 1_555
C26B C25B 1_555 1_555
C27B C26B 1_555 1_555
H30B C27B 1_555 1_555
C28B C27B 1_555 1_555
C29B C28B 1_555 1_555
H31B C29B 1_555 1_555
C30B C29B 1_555 1_555
C31B C26B 1_555 1_555
H32B C31B 1_555 1_555
C32B C28B 1_555 1_555
H33B C32B 1_555 1_555
C33B C30B 1_555 1_555
H34B C33B 1_555 1_555
C34B N5B 1_555 1_555
H35B C34B 1_555 1_555
H36B C34B 1_555 1_555
C35B N6B 1_555 1_555
C36B N7B 1_555 1_555
H37B C36B 1_555 1_555
H38B C36B 1_555 1_555
C37B C36B 1_555 1_555
C38B C37B 1_555 1_555
H39B C38B 1_555 1_555
H40B C38B 1_555 1_555
H41B C38B 1_555 1_555
C39B C37B 1_555 1_555
H42B C39B 1_555 1_555
H43B C39B 1_555 1_555
H44B C39B 1_555 1_555
C40B N8B 1_555 1_555
H45B C40B 1_555 1_555
C41B C42A 1_555 1_555
H46B C41B 1_555 1_555
C42B C41 1_555 1_555
C43B C35B 1_555 1_555
H47B C43B 1_555 1_555
H48B C43B 1_555 1_555
H49B C43B 1_555 1_555
C44B C35B 1_555 1_555
H50B C44B 1_555 1_555
H51B C44B 1_555 1_555
H52B C44B 1_555 1_555
O1A H53A 1_555 1_555
C45A H54A 1_555 1_555
H55A C45A 1_555 1_555
H56A C45A 1_555 1_555
C46A O1A 1_555 1_555
H57A C46A 1_555 1_555
C47A C46A 1_555 1_555
H58A C47A 1_555 1_555
H59A C47A 1_555 1_555
H60A C47A 1_555 1_555
O1B H53B 1_555 1_555
C45B H54B 1_555 1_555
H55B C45B 1_555 1_555
H56B C45B 1_555 1_555
C46B O1B 1_555 1_555
H57B C46B 1_555 1_555
C47B C46B 1_555 1_555
H58B C47B 1_555 1_555
H59B C47B 1_555 1_555
H60B C47B 1_555 1_555
C8 C9 1_555 1_555
C15 C16 1_555 1_555
C23 C24 1_555 1_555
C30 C31 1_555 1_555
C41 C42 1_555 1_555
C45 C46 1_555 1_555
C1A C2A 1_555 1_555
C8A C9A 1_555 1_555
C15A C16A 1_555 1_555
C15A C17A 1_555 1_555
C23A C24A 1_555 1_555
C1B C2B 1_555 1_555
C8B C9B 1_555 1_555
C15B C16B 1_555 1_555
C15B C17B 1_555 1_555
C19B C24B 1_555 1_555
C23B C24B 1_555 1_555
C30A C31A 1_555 1_555
C41A C42A 1_555 1_555
C30B C31B 1_555 1_555
C34B C35B 1_555 1_555
C40B C42B 1_555 1_555
C41B C42B 1_555 1_555
C45A C46A 1_555 1_555
C45B C46B 1_555 1_555

#END
