
#######################################################################
#
#                 Cambridge Crystallographic Data Centre
#                                CCDC 
#
#######################################################################
#
# If this CIF has been generated from an entry in the Cambridge 
# Structural Database, then it will include bibliographic, chemical, 
# crystal, experimental, refinement or atomic coordinate data resulting 
# from the CCDC's data processing and validation procedures.
#
#######################################################################

data_DEDVIR
_chemical_formula_moiety         'C37 H38 P2 S2'
_chemical_name_systematic        'Nopaphos disulfide'
_symmetry_cell_setting           orthorhombic
_symmetry_space_group_name_H-M   'P 21 21 21'
_symmetry_Int_Tables_number      19
_space_group_name_Hall           'P 2ac 2ab'
loop_
_symmetry_equiv_pos_site_id
_symmetry_equiv_pos_as_xyz
1 x,y,z
2 1/2+x,1/2-y,-z
3 -x,1/2+y,1/2-z
4 1/2-x,-y,1/2+z
_cell_length_a                   9.036
_cell_length_b                   20.052
_cell_length_c                   18.052
_cell_angle_alpha                90
_cell_angle_beta                 90
_cell_angle_gamma                90
_cell_volume                     3270.84
_chemical_melting_point          245deg.C
_cell_formula_units_Z            4
loop_
_atom_site_label
_atom_site_type_symbol
_atom_site_fract_x
_atom_site_fract_y
_atom_site_fract_z
S1 S -0.2645(2) -0.48086(9) -0.2115(1)
S2 S 0.1194(2) -0.45998(10) 0.0818(1)
P1 P -0.1545(2) -0.40168(9) -0.1814(1)
P2 P -0.0505(2) -0.49371(9) 0.0258(1)
C1 C -0.0269(7) -0.4145(3) -0.0989(3)
C2 C -0.0235(6) -0.4889(3) -0.0750(3)
C3 C 0.1230(7) -0.5261(3) -0.0961(3)
C4 C 0.2096(6) -0.4941(3) -0.1586(3)
C5 C 0.2164(7) -0.4280(3) -0.1626(3)
C6 C 0.1291(7) -0.3852(3) -0.1108(4)
C7 C 0.1014(8) -0.6013(3) -0.1099(4)
C8 C 0.1940(7) -0.6290(3) -0.1740(4)
C9 C 0.1646(9) -0.5873(4) -0.2414(4)
C10 C 0.2864(7) -0.5398(3) -0.2116(3)
C11 C 0.3541(7) -0.6015(3) -0.1721(3)
C12 C -0.0463(8) -0.3667(3) -0.2572(4)
C13 C -0.0067(8) -0.4100(4) -0.3142(4)
C14 C 0.0769(10) -0.3863(4) -0.3714(4)
C15 C 0.1193(10) -0.3206(5) -0.3738(4)
C16 C 0.0753(9) -0.2784(4) -0.3195(5)
C17 C -0.0099(9) -0.3014(4) -0.2613(4)
C18 C -0.2742(7) -0.3344(3) -0.1494(3)
C19 C -0.2289(8) -0.2857(3) -0.1009(4)
C20 C -0.3233(9) -0.2376(4) -0.0761(4)
C21 C -0.4713(9) -0.2385(3) -0.0986(5)
C22 C -0.5155(8) -0.2843(4) -0.1472(5)
C23 C -0.4204(7) -0.3334(3) -0.1734(4)
C24 C -0.0923(7) -0.5807(3) 0.0465(3)
C25 C -0.2082(7) -0.6126(3) 0.0104(5)
C26 C -0.2407(8) -0.6789(4) 0.0278(5)
C27 C -0.1535(11) -0.7112(4) 0.0792(5)
C28 C -0.0437(12) -0.6791(4) 0.1131(5)
C29 C -0.0110(9) -0.6145(4) 0.0969(5)
C30 C -0.2204(7) -0.4485(3) 0.0443(3)
C31 C -0.3420(7) -0.4502(3) -0.0018(4)
C32 C -0.4697(7) -0.4169(4) 0.0163(5)
C33 C -0.4789(8) -0.3824(4) 0.0802(5)
C34 C -0.3601(9) -0.3796(4) 0.1265(4)
C35 C -0.2317(8) -0.4130(3) 0.1101(4)
C36 C 0.4560(8) -0.6406(4) -0.2252(4)
C37 C 0.4335(8) -0.5925(4) -0.1015(4)
H1 H -0.0643 -0.3890 -0.0590
H2 H -0.0963 -0.5127 -0.0981
H3 H 0.1797 -0.3852 -0.0590
H4 H 0.1955 -0.5204 -0.0511
H5 H 0.1167 -0.6253 -0.0671
H6 H 0.2666 -0.4057 -0.1981
H7 H 0.3393 -0.5116 -0.2520
H8 H 0.1221 -0.3374 -0.1294
H9 H -0.0051 -0.6115 -0.1199
H10 H 0.1827 -0.6766 -0.1770
H11 H 0.0770 -0.5654 -0.2461
H12 H 0.1934 -0.6106 -0.2901
H13 H 0.3994 -0.6548 -0.2631
H14 H 0.5058 -0.6718 -0.2093
H15 H 0.5188 -0.5961 -0.1053
H16 H 0.3990 -0.6158 -0.0671
H17 H -0.0399 -0.4592 -0.3108
H18 H -0.0384 -0.2720 -0.2238
H19 H 0.1017 -0.4220 -0.4043
H20 H 0.1761 -0.3102 -0.4184
H21 H 0.1035 -0.2317 -0.3174
H22 H -0.1306 -0.2804 -0.0862
H23 H -0.4516 -0.3672 -0.2096
H24 H -0.2937 -0.2055 -0.0420
H25 H -0.5318 -0.2090 -0.0727
H26 H -0.6049 -0.2844 -0.1687
H27 H -0.2545 -0.5880 -0.0267
H28 H 0.0733 -0.5903 0.1210
H29 H -0.3244 -0.6996 0.0026
H30 H -0.1825 -0.7548 0.0881
H31 H 0.0168 -0.7071 0.1499
H32 H -0.3356 -0.4696 -0.0497
H33 H -0.1532 -0.4112 0.1440
H34 H -0.5451 -0.4176 -0.0153
H35 H -0.5565 -0.3560 0.0894
H36 H -0.3569 -0.3580 0.1645
H37 H 0.5421 -0.6128 -0.2409
H38 H 0.4158 -0.5498 -0.0749
loop_
_geom_bond_atom_site_label_1
_geom_bond_atom_site_label_2
_geom_bond_site_symmetry_1
_geom_bond_site_symmetry_2
S1 P1 1_555 1_555
S2 P2 1_555 1_555
P1 C1 1_555 1_555
P2 C2 1_555 1_555
C1 C2 1_555 1_555
C2 C3 1_555 1_555
C3 C4 1_555 1_555
C4 C5 1_555 1_555
C5 C6 1_555 1_555
C6 C1 1_555 1_555
C7 C3 1_555 1_555
C8 C7 1_555 1_555
C9 C8 1_555 1_555
C10 C4 1_555 1_555
C11 C8 1_555 1_555
C12 P1 1_555 1_555
C13 C12 1_555 1_555
C14 C13 1_555 1_555
C15 C14 1_555 1_555
C16 C15 1_555 1_555
C17 C12 1_555 1_555
C18 P1 1_555 1_555
C19 C18 1_555 1_555
C20 C19 1_555 1_555
C21 C20 1_555 1_555
C22 C21 1_555 1_555
C23 C18 1_555 1_555
C24 P2 1_555 1_555
C25 C24 1_555 1_555
C26 C25 1_555 1_555
C27 C26 1_555 1_555
C28 C27 1_555 1_555
C29 C24 1_555 1_555
C30 P2 1_555 1_555
C31 C30 1_555 1_555
C32 C31 1_555 1_555
C33 C32 1_555 1_555
C34 C33 1_555 1_555
C35 C30 1_555 1_555
C36 C11 1_555 1_555
C37 C11 1_555 1_555
H1 C1 1_555 1_555
H2 C2 1_555 1_555
H3 C6 1_555 1_555
H4 C3 1_555 1_555
H5 C7 1_555 1_555
H6 C5 1_555 1_555
H7 C10 1_555 1_555
H8 C6 1_555 1_555
H9 C7 1_555 1_555
H10 C8 1_555 1_555
H11 C9 1_555 1_555
H12 C9 1_555 1_555
H13 C36 1_555 1_555
H14 C36 1_555 1_555
H15 C37 1_555 1_555
H16 C37 1_555 1_555
H17 C13 1_555 1_555
H18 C17 1_555 1_555
H19 C14 1_555 1_555
H20 C15 1_555 1_555
H21 C16 1_555 1_555
H22 C19 1_555 1_555
H23 C23 1_555 1_555
H24 C20 1_555 1_555
H25 C21 1_555 1_555
H26 C22 1_555 1_555
H27 C25 1_555 1_555
H28 C29 1_555 1_555
H29 C26 1_555 1_555
H30 C27 1_555 1_555
H31 C28 1_555 1_555
H32 C31 1_555 1_555
H33 C35 1_555 1_555
H34 C32 1_555 1_555
H35 C33 1_555 1_555
H36 C34 1_555 1_555
H37 C36 1_555 1_555
H38 C37 1_555 1_555
C9 C10 1_555 1_555
C10 C11 1_555 1_555
C16 C17 1_555 1_555
C22 C23 1_555 1_555
C28 C29 1_555 1_555
C34 C35 1_555 1_555

#END
