
#######################################################################
#
#                 Cambridge Crystallographic Data Centre
#                                CCDC 
#
#######################################################################
#
# If this CIF has been generated from an entry in the Cambridge 
# Structural Database, then it will include bibliographic, chemical, 
# crystal, experimental, refinement or atomic coordinate data resulting 
# from the CCDC's data processing and validation procedures.
#
#######################################################################

data_DEDVEN
_chemical_formula_moiety         'C36 H38 P2 S2'
_chemical_name_systematic        'Phellanphos disulfide'
_symmetry_cell_setting           monoclinic
_symmetry_space_group_name_H-M   'P 21'
_symmetry_Int_Tables_number      4
_space_group_name_Hall           'P 2yb'
loop_
_symmetry_equiv_pos_site_id
_symmetry_equiv_pos_as_xyz
1 x,y,z
2 -x,1/2+y,-z
_cell_length_a                   9.069(50)
_cell_length_b                   9.439(3)
_cell_length_c                   19.248(10)
_cell_angle_alpha                90
_cell_angle_beta                 94.69
_cell_angle_gamma                90
_cell_volume                     1642.16
_chemical_melting_point          above300deg.C
_cell_formula_units_Z            2
loop_
_atom_site_label
_atom_site_type_symbol
_atom_site_fract_x
_atom_site_fract_y
_atom_site_fract_z
S1 S -0.3036 -0.500 -0.3506
S2 S -0.1552 0.0575 -0.1998
P1 P -0.1301 -0.3846 -0.3222
P2 P -0.3254 -0.0617 -0.2299
C1 C -0.1340 -0.2983 -0.2350
C2 C -0.2919 -0.2535 -0.2188
C3 C -0.3194 -0.3083 -0.1442
C4 C -0.306 -0.4686 -0.1470
C5 C -0.174 -0.5118 -0.1625
C6 C -0.0673 -0.3950 -0.1748
C7 C -0.04477 -0.3001 -0.1092
C8 C -0.200 -0.2535 -0.0898
C9 C -0.435 -0.560 -0.1338
C10 C 0.047 -0.372 -0.0479
C11 C 0.1913 -0.433 -0.0676
C12 C 0.076 -0.2686 0.0123
C13 C 0.0387 -0.4892 -0.3166
C14 C 0.1765 -0.430 -0.3244
C15 C 0.3014 -0.517 -0.3142
C16 C 0.294 -0.654 -0.2979
C17 C 0.157 -0.713 -0.2903
C18 C 0.031 -0.633 -0.2997
C19 C -0.0999 -0.242 -0.3834
C20 C -0.014 -0.125 -0.3666
C21 C 0.007 -0.023 -0.4164
C22 C -0.054 -0.038 -0.4827
C23 C -0.139 -0.153 -0.5005
C24 C -0.164 -0.254 -0.4512
C25 C -0.3927 -0.0308 -0.3205
C26 C -0.478 -0.129 -0.3593
C27 C -0.535 -0.093 -0.4270
C28 C -0.503 0.037 -0.4543
C29 C -0.419 0.131 -0.4165
C30 C -0.363 0.099 -0.3492
C31 C -0.4862 -0.0226 -0.1818
C32 C -0.6269 -0.061 -0.2075
C33 C -0.7481 -0.031 -0.1699
C34 C -0.730 0.041 -0.1084
C35 C -0.590 0.076 -0.0824
C36 C -0.468 0.048 -0.1187
H1 H -0.07203 -0.21897 -0.23851
H2 H -0.35950 -0.29879 -0.25126
H3 H -0.40842 -0.28279 -0.13248
H4 H -0.14487 -0.61216 -0.16740
H5 H 0.02169 -0.42948 -0.18649
H6 H 0.01529 -0.21304 -0.12068
H7 H -0.21983 -0.28695 -0.04562
H8 H -0.20216 -0.15343 -0.08595
H9 H -0.51497 -0.53570 -0.16188
H10 H -0.41469 -0.66478 -0.14424
H11 H -0.44862 -0.55138 -0.08645
H12 H 0.24730 -0.35943 -0.09586
H13 H 0.26645 -0.46590 -0.02992
H14 H 0.18321 -0.51116 -0.10232
H15 H 0.13286 -0.19386 -0.00668
H16 H -0.01666 -0.22162 0.02493
H17 H 0.13525 -0.30069 0.04957
H18 H -0.01018 -0.45595 -0.03657
H19 H 0.18448 -0.33755 -0.34049
H20 H 0.38703 -0.46982 -0.32583
H21 H 0.39116 -0.70592 -0.28552
H22 H 0.13424 -0.81701 -0.28454
H23 H -0.05915 -0.67292 -0.29083
H24 H 0.02967 -0.10903 -0.31890
H25 H 0.05704 0.05758 -0.40839
H26 H -0.05497 0.02488 -0.51817
H27 H -0.19445 -0.15824 -0.54973
H28 H -0.22882 -0.31921 -0.45888
H29 H -0.49988 -0.21946 -0.33993
H30 H -0.57852 -0.15275 -0.45295
H31 H -0.52766 0.05003 -0.49719
H32 H -0.41225 0.22479 -0.43726
H33 H -0.32522 0.17477 -0.32448
H34 H -0.64298 -0.10939 -0.25030
H35 H -0.84968 -0.03927 -0.18760
H36 H -0.80871 0.06622 -0.08302
H37 H -0.56852 0.12759 -0.04658
H38 H -0.37715 0.07303 -0.10074
loop_
_geom_bond_atom_site_label_1
_geom_bond_atom_site_label_2
_geom_bond_site_symmetry_1
_geom_bond_site_symmetry_2
S1 P1 1_555 1_555
S2 P2 1_555 1_555
P1 C1 1_555 1_555
P2 C2 1_555 1_555
C1 C2 1_555 1_555
C2 C3 1_555 1_555
C3 C4 1_555 1_555
C4 C5 1_555 1_555
C5 C6 1_555 1_555
C6 C1 1_555 1_555
C7 C6 1_555 1_555
C8 C3 1_555 1_555
C9 C4 1_555 1_555
C10 C7 1_555 1_555
C11 C10 1_555 1_555
C12 C10 1_555 1_555
C13 P1 1_555 1_555
C14 C13 1_555 1_555
C15 C14 1_555 1_555
C16 C15 1_555 1_555
C17 C16 1_555 1_555
C18 C13 1_555 1_555
C19 P1 1_555 1_555
C20 C19 1_555 1_555
C21 C20 1_555 1_555
C22 C21 1_555 1_555
C23 C22 1_555 1_555
C24 C19 1_555 1_555
C25 P2 1_555 1_555
C26 C25 1_555 1_555
C27 C26 1_555 1_555
C28 C27 1_555 1_555
C29 C28 1_555 1_555
C30 C25 1_555 1_555
C31 P2 1_555 1_555
C32 C31 1_555 1_555
C33 C32 1_555 1_555
C34 C33 1_555 1_555
C35 C34 1_555 1_555
C36 C31 1_555 1_555
H1 C1 1_555 1_555
H2 C2 1_555 1_555
H3 C3 1_555 1_555
H4 C5 1_555 1_555
H5 C6 1_555 1_555
H6 C7 1_555 1_555
H7 C8 1_555 1_555
H8 C8 1_555 1_555
H9 C9 1_555 1_555
H10 C9 1_555 1_555
H11 C9 1_555 1_555
H12 C11 1_555 1_555
H13 C11 1_555 1_555
H14 C11 1_555 1_555
H15 C12 1_555 1_555
H16 C12 1_555 1_555
H17 C12 1_555 1_555
H18 C10 1_555 1_555
H19 C14 1_555 1_555
H20 C15 1_555 1_555
H21 C16 1_555 1_555
H22 C17 1_555 1_555
H23 C18 1_555 1_555
H24 C20 1_555 1_555
H25 C21 1_555 1_555
H26 C22 1_555 1_555
H27 C23 1_555 1_555
H28 C24 1_555 1_555
H29 C26 1_555 1_555
H30 C27 1_555 1_555
H31 C28 1_555 1_555
H32 C29 1_555 1_555
H33 C30 1_555 1_555
H34 C32 1_555 1_555
H35 C33 1_555 1_555
H36 C34 1_555 1_555
H37 C35 1_555 1_555
H38 C36 1_555 1_555
C7 C8 1_555 1_555
C17 C18 1_555 1_555
C23 C24 1_555 1_555
C29 C30 1_555 1_555
C35 C36 1_555 1_555

#END
