
#######################################################################
#
#                 Cambridge Crystallographic Data Centre
#                                CCDC 
#
#######################################################################
#
# If this CIF has been generated from an entry in the Cambridge 
# Structural Database, then it will include bibliographic, chemical, 
# crystal, experimental, refinement or atomic coordinate data resulting 
# from the CCDC's data processing and validation procedures.
#
#######################################################################

data_DEFFOK
_chemical_formula_moiety         'C70 H94 I2 N4 O2 P4 Si4 Sr2,C4 H8 O1'
_chemical_name_systematic        
'bis(\m~2~-iodo)-bis(bis((N-trimethylsilylimino)diphenylphosphoranyl)methanide)-bis(tetrahydrofuran)-di-strontium(ii) tetrahydrofuran solvate'
_symmetry_cell_setting           monoclinic
_symmetry_space_group_name_H-M   'P 21/c'
_symmetry_Int_Tables_number      14
_space_group_name_Hall           '-P 2ybc'
loop_
_symmetry_equiv_pos_site_id
_symmetry_equiv_pos_as_xyz
1 x,y,z
2 -x,1/2+y,1/2-z
3 -x,-y,-z
4 x,1/2-y,1/2+z
_cell_length_a                   19.521(4)
_cell_length_b                   9.936(2)
_cell_length_c                   23.362(5)
_cell_angle_alpha                90
_cell_angle_beta                 112.784(4)
_cell_angle_gamma                90
_cell_volume                     4177.74
_exptl_crystal_colour            colorless
_exptl_crystal_description       prism
_cell_formula_units_Z            2
_exptl_crystal_recrystallization_method tetrahydrofuran/pentane
loop_
_atom_site_label
_atom_site_type_symbol
_atom_site_fract_x
_atom_site_fract_y
_atom_site_fract_z
I1 I 0.543714(11) 0.61384(2) 0.442287(9)
Sr1 Sr 0.382304(13) 0.45871(3) 0.406177(11)
P1 P 0.20296(4) 0.41790(7) 0.36922(3)
P2 P 0.26372(4) 0.38262(7) 0.26558(3)
Si1 Si 0.25337(5) 0.69688(8) 0.43211(4)
Si2 Si 0.37225(5) 0.57728(11) 0.24773(4)
N1 N 0.25396(12) 0.5415(2) 0.40175(10)
N2 N 0.33653(13) 0.4726(2) 0.28753(10)
C1 C 0.24215(14) 0.3253(3) 0.32691(11)
H1 H 0.2409 0.2253 0.3313
C2 C 0.19329(14) 0.2965(3) 0.42416(12)
C3 C 0.24145(19) 0.3012(3) 0.48565(14)
H2 H 0.2774 0.3709 0.4998
C4 C 0.2373(2) 0.2040(4) 0.52689(15)
H3 H 0.2709 0.2076 0.5691
C5 C 0.1857(2) 0.1031(3) 0.50787(15)
H4 H 0.1837 0.0366 0.5364
C6 C 0.13692(19) 0.0992(3) 0.44679(15)
H5 H 0.1008 0.0297 0.4331
C7 C 0.14004(17) 0.1959(3) 0.40521(13)
H6 H 0.1054 0.1932 0.3633
C8 C 0.10564(15) 0.4621(3) 0.32470(12)
C9 C 0.06778(17) 0.5509(3) 0.34820(14)
H7 H 0.0934 0.5930 0.3872
C10 C -0.00663(18) 0.5782(3) 0.31533(16)
H8 H -0.0320 0.6385 0.3319
C11 C -0.04439(17) 0.5180(4) 0.25814(15)
H9 H -0.0952 0.5385 0.2350
C12 C -0.00787(17) 0.4284(4) 0.23511(14)
H10 H -0.0338 0.3860 0.1962
C13 C 0.06659(16) 0.3996(3) 0.26825(13)
H11 H 0.0911 0.3366 0.2522
C14 C 0.18686(15) 0.4759(3) 0.20899(13)
C15 C 0.17219(19) 0.6035(3) 0.22666(16)
H12 H 0.2032 0.6393 0.2659
C16 C 0.1123(2) 0.6784(4) 0.1871(2)
H13 H 0.1021 0.7644 0.1996
C17 C 0.0679(2) 0.6284(5) 0.1299(2)
H14 H 0.0273 0.6801 0.1030
C18 C 0.0821(2) 0.5042(5) 0.11154(18)
H15 H 0.0516 0.4708 0.0717
C19 C 0.14118(19) 0.4262(4) 0.15088(15)
H16 H 0.1502 0.3395 0.1381
C20 C 0.27021(16) 0.2299(3) 0.22492(12)
C21 C 0.2184(2) 0.1276(4) 0.21275(17)
H17 H 0.1791 0.1359 0.2269
C22 C 0.2226(3) 0.0123(4) 0.18008(19)
H18 H 0.1867 -0.0572 0.1725
C23 C 0.2784(3) 0.0000(4) 0.15913(17)
H19 H 0.2810 -0.0779 0.1365
C24 C 0.3302(2) 0.0984(4) 0.17039(16)
H20 H 0.3689 0.0888 0.1555
C25 C 0.32722(17) 0.2144(4) 0.20383(13)
H21 H 0.3642 0.2821 0.2120
C26 C 0.3527(2) 0.7476(4) 0.4723(3)
H22 H 0.3779 0.6848 0.5063
H23 H 0.3553 0.8388 0.4890
H24 H 0.3770 0.7458 0.4427
C27 C 0.2117(3) 0.7047(4) 0.49196(19)
H25 H 0.1584 0.7232 0.4717
H26 H 0.2358 0.7765 0.5217
H27 H 0.2192 0.6183 0.5138
C28 C 0.2088(2) 0.8246(3) 0.37089(18)
H28 H 0.2356 0.8297 0.3431
H29 H 0.2101 0.9126 0.3903
H30 H 0.1570 0.7990 0.3470
C29 C 0.3790(2) 0.7494(4) 0.28007(17)
H31 H 0.3296 0.7798 0.2761
H32 H 0.3985 0.8108 0.2572
H33 H 0.4125 0.7487 0.3240
C30 C 0.3173(2) 0.5900(5) 0.16167(15)
H34 H 0.3118 0.5002 0.1430
H35 H 0.3434 0.6490 0.1431
H36 H 0.2681 0.6273 0.1540
C31 C 0.4671(2) 0.5190(5) 0.25927(17)
H37 H 0.4956 0.5022 0.3035
H38 H 0.4920 0.5883 0.2445
H39 H 0.4636 0.4357 0.2358
O1 O 0.43166(16) 0.2328(2) 0.39902(14)
C32 C 0.4817(2) 0.1952(4) 0.37110(18)
H40 H 0.5250 0.2566 0.3847
H41 H 0.4568 0.2004 0.3253
C33 C 0.5063(4) 0.0549(6) 0.3906(3)
H42 H 0.5599 0.0523 0.4173
H43 H 0.4972 -0.0033 0.3539
C34 C 0.4604(5) 0.0096(7) 0.4260(4)
H44 H 0.4362 -0.0776 0.4095
H45 H 0.4923 -0.0022 0.4704
C37 C 0.4045(3) 0.1123(5) 0.4187(3)
H50 H 0.3558 0.0848 0.3870
H51 H 0.3988 0.1281 0.4585
I1B I 0.456286(11) 0.38616(2) 0.557713(9)
Sr1B Sr 0.617696(13) 0.54129(3) 0.593823(11)
P1B P 0.79704(4) 0.58210(7) 0.63078(3)
P2B P 0.73628(4) 0.61738(7) 0.73442(3)
Si1B Si 0.74663(5) 0.30312(8) 0.56789(4)
Si2B Si 0.62775(5) 0.42272(11) 0.75227(4)
N1B N 0.74604(12) 0.4585(2) 0.59825(10)
N2B N 0.66347(13) 0.5274(2) 0.71247(10)
C1B C 0.75785(14) 0.6747(3) 0.67309(11)
H1B H 0.7591 0.7747 0.6687
C2B C 0.80671(14) 0.7035(3) 0.57584(12)
C3B C 0.75855(19) 0.6988(3) 0.51435(14)
H2B H 0.7226 0.6291 0.5002
C4B C 0.7627(2) 0.7960(4) 0.47311(15)
H3B H 0.7291 0.7924 0.4309
C5B C 0.8143(2) 0.8969(3) 0.49213(15)
H4B H 0.8163 0.9634 0.4636
C6B C 0.86308(19) 0.9008(3) 0.55321(15)
H5B H 0.8992 0.9703 0.5669
C7B C 0.85996(17) 0.8041(3) 0.59479(13)
H6B H 0.8946 0.8068 0.6367
C8B C 0.89436(15) 0.5379(3) 0.67530(12)
C9B C 0.93222(17) 0.4491(3) 0.65180(14)
H7B H 0.9066 0.4070 0.6128
C10B C 1.00663(18) 0.4218(3) 0.68467(16)
H8B H 1.0320 0.3615 0.6681
C11B C 1.04439(17) 0.4820(4) 0.74186(15)
H9B H 1.0952 0.4615 0.7650
C12B C 1.00787(17) 0.5716(4) 0.76489(14)
H10B H 1.0338 0.6140 0.8038
C13B C 0.93341(16) 0.6004(3) 0.73175(13)
H11B H 0.9089 0.6634 0.7478
C14B C 0.81314(15) 0.5241(3) 0.79101(13)
C15B C 0.82781(19) 0.3965(3) 0.77334(16)
H12B H 0.7968 0.3607 0.7341
C16B C 0.8877(2) 0.3216(4) 0.8129(2)
H13B H 0.8979 0.2356 0.8004
C17B C 0.9321(2) 0.3716(5) 0.8701(2)
H14B H 0.9727 0.3199 0.8970
C18B C 0.9179(2) 0.4958(5) 0.88846(18)
H15B H 0.9484 0.5292 0.9283
C19B C 0.85882(19) 0.5738(4) 0.84912(15)
H16B H 0.8498 0.6605 0.8619
C20B C 0.72979(16) 0.7701(3) 0.77508(12)
C21B C 0.7816(2) 0.8724(4) 0.78725(17)
H17B H 0.8209 0.8641 0.7731
C22B C 0.7774(3) 0.9877(4) 0.81992(19)
H18B H 0.8133 1.0572 0.8275
C23B C 0.7216(3) 1.0000(4) 0.84087(17)
H19B H 0.7190 1.0779 0.8635
C24B C 0.6698(2) 0.9016(4) 0.82961(16)
H20B H 0.6311 0.9112 0.8445
C25B C 0.67278(17) 0.7856(4) 0.79617(13)
H21B H 0.6358 0.7179 0.7880
C26B C 0.6473(2) 0.2524(4) 0.5277(3)
H22B H 0.6221 0.3152 0.4937
H23B H 0.6447 0.1612 0.5110
H24B H 0.6230 0.2542 0.5573
C27B C 0.7883(3) 0.2953(4) 0.50804(19)
H25B H 0.8416 0.2768 0.5283
H26B H 0.7642 0.2235 0.4783
H27B H 0.7808 0.3817 0.4862
C28B C 0.7912(2) 0.1754(3) 0.62911(18)
H28B H 0.7644 0.1703 0.6569
H29B H 0.7899 0.0874 0.6097
H30B H 0.8430 0.2010 0.6530
C29B C 0.6210(2) 0.2506(4) 0.71993(17)
H31B H 0.6704 0.2202 0.7239
H32B H 0.6015 0.1892 0.7428
H33B H 0.5875 0.2513 0.6760
C30B C 0.6827(2) 0.4100(5) 0.83833(15)
H34B H 0.6882 0.4998 0.8570
H35B H 0.6566 0.3510 0.8569
H36B H 0.7319 0.3727 0.8460
C31B C 0.5329(2) 0.4810(5) 0.74073(17)
H37B H 0.5044 0.4978 0.6965
H38B H 0.5080 0.4117 0.7555
H39B H 0.5364 0.5643 0.7642
O1B O 0.56834(16) 0.7672(2) 0.60098(14)
C32B C 0.5183(2) 0.8048(4) 0.62890(18)
H40B H 0.4750 0.7434 0.6153
H41B H 0.5432 0.7996 0.6747
C33B C 0.4937(4) 0.9451(6) 0.6094(3)
H42B H 0.4401 0.9477 0.5827
H43B H 0.5028 1.0033 0.6461
C34B C 0.5396(5) 0.9904(7) 0.5740(4)
H44B H 0.5638 1.0776 0.5905
H45B H 0.5077 1.0022 0.5296
C37B C 0.5955(3) 0.8877(5) 0.5813(3)
H50B H 0.6442 0.9152 0.6130
H51B H 0.6012 0.8719 0.5415
C35? C 0.4678(5) 0.0391(7) 0.3721(4)
H46? H 0.4501 0.0053 0.3289
H47? H 0.5160 -0.0051 0.3957
C36? C 0.4263(5) 0.0065(7) 0.3931(4)
H48? H 0.4495 -0.0626 0.4253
H49? H 0.3823 -0.0343 0.3603
O2? O 0.0495(7) 0.9438(13) 0.0415(6)
C38? C -0.0004(10) 0.8501(16) -0.0079(8)
H52? H 0.0078 0.8499 -0.0471
H53? H -0.0040 0.7578 0.0067
C39? C -0.0587(11) 0.944(3) -0.0066(14)
H54? H -0.0775 0.9112 0.0246
H55? H -0.1005 0.9410 -0.0476
C40? C -0.0348(18) 1.092(3) 0.0084(19)
H56? H -0.0603 1.1500 -0.0280
H57? H -0.0463 1.1243 0.0437
C41? C 0.0442(16) 1.0903(19) 0.0241(12)
H58? H 0.0721 1.1498 0.0595
H59? H 0.0579 1.1089 -0.0117
loop_
_geom_bond_atom_site_label_1
_geom_bond_atom_site_label_2
_geom_bond_site_symmetry_1
_geom_bond_site_symmetry_2
I1 Sr1 1_555 1_555
Sr1 N1 1_555 1_555
P1 N1 1_555 1_555
P2 N2 1_555 1_555
Si1 N1 1_555 1_555
Si2 N2 1_555 1_555
N2 Sr1 1_555 1_555
C1 Sr1 1_555 1_555
H1 C1 1_555 1_555
C2 P1 1_555 1_555
C3 C2 1_555 1_555
H2 C3 1_555 1_555
C4 C3 1_555 1_555
H3 C4 1_555 1_555
C5 C4 1_555 1_555
H4 C5 1_555 1_555
C6 C5 1_555 1_555
H5 C6 1_555 1_555
C7 C2 1_555 1_555
H6 C7 1_555 1_555
C8 P1 1_555 1_555
C9 C8 1_555 1_555
H7 C9 1_555 1_555
C10 C9 1_555 1_555
H8 C10 1_555 1_555
C11 C10 1_555 1_555
H9 C11 1_555 1_555
C12 C11 1_555 1_555
H10 C12 1_555 1_555
C13 C8 1_555 1_555
H11 C13 1_555 1_555
C14 P2 1_555 1_555
C15 C14 1_555 1_555
H12 C15 1_555 1_555
C16 C15 1_555 1_555
H13 C16 1_555 1_555
C17 C16 1_555 1_555
H14 C17 1_555 1_555
C18 C17 1_555 1_555
H15 C18 1_555 1_555
C19 C14 1_555 1_555
H16 C19 1_555 1_555
C20 P2 1_555 1_555
C21 C20 1_555 1_555
H17 C21 1_555 1_555
C22 C21 1_555 1_555
H18 C22 1_555 1_555
C23 C22 1_555 1_555
H19 C23 1_555 1_555
C24 C23 1_555 1_555
H20 C24 1_555 1_555
C25 C20 1_555 1_555
H21 C25 1_555 1_555
C26 Si1 1_555 1_555
H22 C26 1_555 1_555
H23 C26 1_555 1_555
H24 C26 1_555 1_555
C27 Si1 1_555 1_555
H25 C27 1_555 1_555
H26 C27 1_555 1_555
H27 C27 1_555 1_555
C28 Si1 1_555 1_555
H28 C28 1_555 1_555
H29 C28 1_555 1_555
H30 C28 1_555 1_555
C29 Si2 1_555 1_555
H31 C29 1_555 1_555
H32 C29 1_555 1_555
H33 C29 1_555 1_555
C30 Si2 1_555 1_555
H34 C30 1_555 1_555
H35 C30 1_555 1_555
H36 C30 1_555 1_555
C31 Si2 1_555 1_555
H37 C31 1_555 1_555
H38 C31 1_555 1_555
H39 C31 1_555 1_555
O1 Sr1 1_555 1_555
C32 O1 1_555 1_555
H40 C32 1_555 1_555
H41 C32 1_555 1_555
C33 C32 1_555 1_555
H42 C33 1_555 1_555
H43 C33 1_555 1_555
C34 C33 1_555 1_555
H44 C34 1_555 1_555
H45 C34 1_555 1_555
C37 O1 1_555 1_555
H50 C37 1_555 1_555
H51 C37 1_555 1_555
I1B Sr1 1_555 1_555
Sr1B I1 1_555 1_555
P1B N1B 1_555 1_555
P2B N2B 1_555 1_555
Si1B N1B 1_555 1_555
Si2B N2B 1_555 1_555
N1B Sr1B 1_555 1_555
N2B Sr1B 1_555 1_555
C1B Sr1B 1_555 1_555
H1B C1B 1_555 1_555
C2B P1B 1_555 1_555
C3B C2B 1_555 1_555
H2B C3B 1_555 1_555
C4B C3B 1_555 1_555
H3B C4B 1_555 1_555
C5B C4B 1_555 1_555
H4B C5B 1_555 1_555
C6B C5B 1_555 1_555
H5B C6B 1_555 1_555
C7B C2B 1_555 1_555
H6B C7B 1_555 1_555
C8B P1B 1_555 1_555
C9B C8B 1_555 1_555
H7B C9B 1_555 1_555
C10B C9B 1_555 1_555
H8B C10B 1_555 1_555
C11B C10B 1_555 1_555
H9B C11B 1_555 1_555
C12B C11B 1_555 1_555
H10B C12B 1_555 1_555
C13B C8B 1_555 1_555
H11B C13B 1_555 1_555
C14B P2B 1_555 1_555
C15B C14B 1_555 1_555
H12B C15B 1_555 1_555
C16B C15B 1_555 1_555
H13B C16B 1_555 1_555
C17B C16B 1_555 1_555
H14B C17B 1_555 1_555
C18B C17B 1_555 1_555
H15B C18B 1_555 1_555
C19B C14B 1_555 1_555
H16B C19B 1_555 1_555
C20B P2B 1_555 1_555
C21B C20B 1_555 1_555
H17B C21B 1_555 1_555
C22B C21B 1_555 1_555
H18B C22B 1_555 1_555
C23B C22B 1_555 1_555
H19B C23B 1_555 1_555
C24B C23B 1_555 1_555
H20B C24B 1_555 1_555
C25B C20B 1_555 1_555
H21B C25B 1_555 1_555
C26B Si1B 1_555 1_555
H22B C26B 1_555 1_555
H23B C26B 1_555 1_555
H24B C26B 1_555 1_555
C27B Si1B 1_555 1_555
H25B C27B 1_555 1_555
H26B C27B 1_555 1_555
H27B C27B 1_555 1_555
C28B Si1B 1_555 1_555
H28B C28B 1_555 1_555
H29B C28B 1_555 1_555
H30B C28B 1_555 1_555
C29B Si2B 1_555 1_555
H31B C29B 1_555 1_555
H32B C29B 1_555 1_555
H33B C29B 1_555 1_555
C30B Si2B 1_555 1_555
H34B C30B 1_555 1_555
H35B C30B 1_555 1_555
H36B C30B 1_555 1_555
C31B Si2B 1_555 1_555
H37B C31B 1_555 1_555
H38B C31B 1_555 1_555
H39B C31B 1_555 1_555
O1B Sr1B 1_555 1_555
C32B O1B 1_555 1_555
H40B C32B 1_555 1_555
H41B C32B 1_555 1_555
C33B C32B 1_555 1_555
H42B C33B 1_555 1_555
H43B C33B 1_555 1_555
C34B C33B 1_555 1_555
H44B C34B 1_555 1_555
H45B C34B 1_555 1_555
C37B O1B 1_555 1_555
H50B C37B 1_555 1_555
H51B C37B 1_555 1_555
P1 C1 1_555 1_555
P2 C1 1_555 1_555
C6 C7 1_555 1_555
C12 C13 1_555 1_555
C18 C19 1_555 1_555
C24 C25 1_555 1_555
C34 C37 1_555 1_555
I1B Sr1B 1_555 1_555
P1B C1B 1_555 1_555
P2B C1B 1_555 1_555
C6B C7B 1_555 1_555
C12B C13B 1_555 1_555
C18B C19B 1_555 1_555
C24B C25B 1_555 1_555
C34B C37B 1_555 1_555

#END
