
#######################################################################
#
#                 Cambridge Crystallographic Data Centre
#                                CCDC 
#
#######################################################################
#
# If this CIF has been generated from an entry in the Cambridge 
# Structural Database, then it will include bibliographic, chemical, 
# crystal, experimental, refinement or atomic coordinate data resulting 
# from the CCDC's data processing and validation procedures.
#
#######################################################################

data_DEFMEH
_chemical_formula_moiety         'C24 H17 N3 O1,C2 H6 O1'
_chemical_name_systematic        3,3-bis(1H-indol-3-yl)indolin-2-one
_symmetry_cell_setting           monoclinic
_symmetry_space_group_name_H-M   'P 21/n'
_symmetry_Int_Tables_number      14
_space_group_name_Hall           '-P 2yn'
loop_
_symmetry_equiv_pos_site_id
_symmetry_equiv_pos_as_xyz
1 x,y,z
2 1/2-x,1/2+y,1/2-z
3 -x,-y,-z
4 1/2+x,1/2-y,1/2+z
_cell_length_a                   10.6510(11)
_cell_length_b                   8.6017(8)
_cell_length_c                   23.745(2)
_cell_angle_alpha                90
_cell_angle_beta                 96.480(3)
_cell_angle_gamma                90
_cell_volume                     2161.54
_exptl_crystal_colour            'light pink'
_exptl_crystal_description       block
_chemical_melting_point          'above 300 deg.C'
_cell_formula_units_Z            4
loop_
_atom_site_label
_atom_site_type_symbol
_atom_site_fract_x
_atom_site_fract_y
_atom_site_fract_z
O1 O 0.46967(13) 0.72304(17) 0.17331(6)
N1 N 0.40648(17) 0.5639(2) 0.09800(7)
H2 H 0.3701 0.6350 0.0750
N2 N 0.82440(16) 0.3842(2) 0.25487(8)
H3 H 0.8777 0.3468 0.2826
N3 N 0.26030(16) 0.3043(2) 0.26848(7)
H4 H 0.1952 0.2465 0.2748
C1 C 0.46033(18) 0.5935(3) 0.15136(9)
C2 C 0.50433(19) 0.4369(2) 0.17937(8)
C3 C 0.4770(2) 0.3262(3) 0.12972(9)
C4 C 0.5005(2) 0.1688(3) 0.12541(11)
H5 H 0.5434 0.1130 0.1563
C5 C 0.4599(2) 0.0942(3) 0.07461(12)
H6 H 0.4758 -0.0137 0.0707
C6 C 0.3969(2) 0.1747(3) 0.02983(11)
H7 H 0.3683 0.1205 -0.0041
C7 C 0.3743(2) 0.3342(3) 0.03320(10)
H8 H 0.3324 0.3904 0.0021
C8 C 0.4157(2) 0.4062(3) 0.08386(9)
C9 C 0.6961(2) 0.3656(3) 0.24960(9)
H9 H 0.6511 0.3091 0.2752
C10 C 0.64208(19) 0.4399(2) 0.20216(9)
C11 C 0.74416(19) 0.5089(2) 0.17574(9)
C12 C 0.7516(2) 0.5996(3) 0.12729(9)
H10 H 0.6772 0.6276 0.1035
C13 C 0.8686(2) 0.6475(3) 0.11466(10)
H11 H 0.8742 0.7094 0.0819
C14 C 0.9791(2) 0.6074(3) 0.14879(11)
H12 H 1.0584 0.6415 0.1387
C15 C 0.9749(2) 0.5192(3) 0.19686(10)
H13 H 1.0500 0.4921 0.2203
C16 C 0.8568(2) 0.4708(2) 0.21003(9)
C17 C 0.31975(19) 0.3010(3) 0.22029(9)
H14 H 0.2966 0.2361 0.1884
C18 C 0.41717(18) 0.4046(2) 0.22483(8)
C19 C 0.41808(18) 0.4788(2) 0.27913(8)
C20 C 0.4916(2) 0.5951(2) 0.30826(9)
H15 H 0.5591 0.6428 0.2918
C21 C 0.4635(2) 0.6387(3) 0.36143(9)
H16 H 0.5121 0.7183 0.3813
C22 C 0.3658(2) 0.5690(3) 0.38679(9)
H17 H 0.3499 0.6009 0.4236
C23 C 0.2921(2) 0.4545(3) 0.35919(9)
H18 H 0.2259 0.4062 0.3764
C24 C 0.31824(19) 0.4121(2) 0.30526(9)
O2 O 0.82351(16) 0.7491(3) 0.50359(8)
H1 H 0.8812 0.7306 0.4831
C25 C 0.7057(3) 0.7362(4) 0.47100(12)
H19 H 0.6876 0.6256 0.4618
H20 H 0.7070 0.7939 0.4350
C26 C 0.6062(3) 0.8001(4) 0.50295(13)
H21 H 0.6045 0.7419 0.5383
H22 H 0.5240 0.7910 0.4801
H23 H 0.6240 0.9098 0.5116
loop_
_geom_bond_atom_site_label_1
_geom_bond_atom_site_label_2
_geom_bond_site_symmetry_1
_geom_bond_site_symmetry_2
O1 C1 1_555 1_555
O2 H1 1_555 1_555
N1 H2 1_555 1_555
N2 H3 1_555 1_555
N3 H4 1_555 1_555
C1 N1 1_555 1_555
C2 C1 1_555 1_555
C3 C2 1_555 1_555
C4 C3 1_555 1_555
H5 C4 1_555 1_555
C5 C4 1_555 1_555
H6 C5 1_555 1_555
C6 C5 1_555 1_555
H7 C6 1_555 1_555
C7 C6 1_555 1_555
H8 C7 1_555 1_555
C8 N1 1_555 1_555
C9 N2 1_555 1_555
H9 C9 1_555 1_555
C10 C2 1_555 1_555
C11 C10 1_555 1_555
C12 C11 1_555 1_555
H10 C12 1_555 1_555
C13 C12 1_555 1_555
H11 C13 1_555 1_555
C14 C13 1_555 1_555
H12 C14 1_555 1_555
C15 C14 1_555 1_555
H13 C15 1_555 1_555
C16 N2 1_555 1_555
C17 N3 1_555 1_555
H14 C17 1_555 1_555
C18 C2 1_555 1_555
C19 C18 1_555 1_555
C20 C19 1_555 1_555
H15 C20 1_555 1_555
C21 C20 1_555 1_555
H16 C21 1_555 1_555
C22 C21 1_555 1_555
H17 C22 1_555 1_555
C23 C22 1_555 1_555
H18 C23 1_555 1_555
C24 N3 1_555 1_555
C25 O2 1_555 1_555
H19 C25 1_555 1_555
H20 C25 1_555 1_555
C26 C25 1_555 1_555
H21 C26 1_555 1_555
H22 C26 1_555 1_555
H23 C26 1_555 1_555
C3 C8 1_555 1_555
C7 C8 1_555 1_555
C9 C10 1_555 1_555
C11 C16 1_555 1_555
C15 C16 1_555 1_555
C17 C18 1_555 1_555
C19 C24 1_555 1_555
C23 C24 1_555 1_555

#END
