
#######################################################################
#
#                 Cambridge Crystallographic Data Centre
#                                CCDC 
#
#######################################################################
#
# If this CIF has been generated from an entry in the Cambridge 
# Structural Database, then it will include bibliographic, chemical, 
# crystal, experimental, refinement or atomic coordinate data resulting 
# from the CCDC's data processing and validation procedures.
#
#######################################################################

data_DEFQAJ
_chemical_formula_moiety         'C24 H18 O4'
_chemical_name_systematic        
2,2'-[ethane-1,2-diylbis(oxy)]bis(naphthalene-1-carbaldehyde)
_symmetry_cell_setting           orthorhombic
_symmetry_space_group_name_H-M   'P c c n'
_symmetry_Int_Tables_number      56
_space_group_name_Hall           '-P 2ab 2ac'
loop_
_symmetry_equiv_pos_site_id
_symmetry_equiv_pos_as_xyz
1 x,y,z
2 1/2-x,1/2-y,z
3 1/2+x,-y,1/2-z
4 -x,1/2+y,1/2-z
5 -x,-y,-z
6 1/2+x,1/2+y,-z
7 1/2-x,y,1/2+z
8 x,1/2-y,1/2+z
_cell_length_a                   33.170(7)
_cell_length_b                   3.9690(8)
_cell_length_c                   13.572(3)
_cell_angle_alpha                90
_cell_angle_beta                 90
_cell_angle_gamma                90
_cell_volume                     1786.78
_exptl_crystal_colour            colorless
_exptl_crystal_description       block
_cell_formula_units_Z            4
loop_
_atom_site_label
_atom_site_type_symbol
_atom_site_fract_x
_atom_site_fract_y
_atom_site_fract_z
O1 O 0.28830(4) 0.1120(4) 0.25276(10)
C1 C 0.32891(6) 0.1022(5) 0.23855(14)
C2 C 0.41170(6) 0.0480(5) 0.20470(14)
C3 C 0.34194(6) -0.0451(5) 0.15139(13)
O2 O 0.31543(5) -0.2888(5) 0.00397(12)
C4 C 0.38428(6) -0.0747(5) 0.13277(13)
C5 C 0.39641(6) 0.1993(6) 0.29051(15)
H1 H 0.414491 0.282772 0.336836
C6 C 0.35633(6) 0.2285(5) 0.30854(14)
H2 H 0.347150 0.330058 0.366067
C7 C 0.27216(6) 0.2768(5) 0.33781(13)
H3 H 0.278198 0.515793 0.335588
H4 H 0.283956 0.183277 0.397211
C8 C 0.31097(7) -0.1580(6) 0.08301(16)
C9 C 0.45360(6) 0.0170(6) 0.18843(18)
H5 H 0.471563 0.096104 0.235698
C10 C 0.46797(7) -0.1261(7) 0.10504(19)
H6 H 0.495620 -0.146072 0.095351
C11 C 0.40054(7) -0.2218(6) 0.04658(15)
H7 H 0.383353 -0.304608 -0.001839
C12 C 0.44131(7) -0.2431(6) 0.03398(17)
H8 H 0.451448 -0.338113 -0.023538
H9 H 0.2836(7) -0.131(6) 0.1079(18)
O1A O 0.21170(4) 0.3880(4) 0.25276(10)
C1A C 0.17109(6) 0.3978(5) 0.23855(14)
C2A C 0.08830(6) 0.4520(5) 0.20470(14)
C3A C 0.15806(6) 0.5451(5) 0.15139(13)
O2A O 0.18457(5) 0.7888(5) 0.00397(12)
C4A C 0.11572(6) 0.5747(5) 0.13277(13)
C5A C 0.10359(6) 0.3007(6) 0.29051(15)
H1A H 0.085509 0.217228 0.336836
C6A C 0.14367(6) 0.2715(5) 0.30854(14)
H2A H 0.152850 0.169942 0.366067
C7A C 0.22784(6) 0.2232(5) 0.33781(13)
H3A H 0.221802 -0.015793 0.335588
H4A H 0.216044 0.316723 0.397211
C8A C 0.18903(7) 0.6580(6) 0.08301(16)
C9A C 0.04640(6) 0.4830(6) 0.18843(18)
H5A H 0.028437 0.403896 0.235698
C10A C 0.03203(7) 0.6261(7) 0.10504(19)
H6A H 0.004380 0.646072 0.095351
C11A C 0.09946(7) 0.7218(6) 0.04658(15)
H7A H 0.116647 0.804608 -0.001839
C12A C 0.05869(7) 0.7431(6) 0.03398(17)
H8A H 0.048552 0.838113 -0.023538
H9A H 0.2164(7) 0.631(6) 0.1079(18)
loop_
_geom_bond_atom_site_label_1
_geom_bond_atom_site_label_2
_geom_bond_site_symmetry_1
_geom_bond_site_symmetry_2
O1 C1 1_555 1_555
C1 C3 1_555 1_555
C2 C4 1_555 1_555
C3 C4 1_555 1_555
O2 C8 1_555 1_555
C4 C11 1_555 1_555
C5 C2 1_555 1_555
H1 C5 1_555 1_555
C6 C1 1_555 1_555
H2 C6 1_555 1_555
C7 O1 1_555 1_555
H3 C7 1_555 1_555
H4 C7 1_555 1_555
C8 C3 1_555 1_555
C9 C2 1_555 1_555
H5 C9 1_555 1_555
C10 C9 1_555 1_555
H6 C10 1_555 1_555
C11 H7 1_555 1_555
C12 C10 1_555 1_555
H8 C12 1_555 1_555
H9 C8 1_555 1_555
O1A C1A 1_555 1_555
C1A C3A 1_555 1_555
C2A C4A 1_555 1_555
C3A C4A 1_555 1_555
O2A C8A 1_555 1_555
C4A C11A 1_555 1_555
C5A C2A 1_555 1_555
H1A C5A 1_555 1_555
C6A C1A 1_555 1_555
H2A C6A 1_555 1_555
C7A C7 1_555 1_555
H3A C7A 1_555 1_555
H4A C7A 1_555 1_555
C8A C3A 1_555 1_555
C9A C2A 1_555 1_555
H5A C9A 1_555 1_555
C10A C9A 1_555 1_555
H6A C10A 1_555 1_555
C11A H7A 1_555 1_555
C12A C10A 1_555 1_555
H8A C12A 1_555 1_555
H9A C8A 1_555 1_555
C5 C6 1_555 1_555
C11 C12 1_555 1_555
O1A C7A 1_555 1_555
C5A C6A 1_555 1_555
C11A C12A 1_555 1_555

#END
