
#######################################################################
#
#                 Cambridge Crystallographic Data Centre
#                                CCDC 
#
#######################################################################
#
# If this CIF has been generated from an entry in the Cambridge 
# Structural Database, then it will include bibliographic, chemical, 
# crystal, experimental, refinement or atomic coordinate data resulting 
# from the CCDC's data processing and validation procedures.
#
#######################################################################

data_DEFQUA
_chemical_formula_moiety         'C52 H54 N4 O8 S2'
_chemical_name_systematic        
1,12-bis(N-Naphthalamido)-4,9-bis(2,4,6-trimethylbenzenesulfonyl)-4,9-diaza-dodecane
_symmetry_cell_setting           triclinic
_symmetry_space_group_name_H-M   'P -1'
_symmetry_Int_Tables_number      2
_space_group_name_Hall           '-P 1'
loop_
_symmetry_equiv_pos_site_id
_symmetry_equiv_pos_as_xyz
1 x,y,z
2 -x,-y,-z
_cell_length_a                   8.1548(12)
_cell_length_b                   15.878(3)
_cell_length_c                   18.005(3)
_cell_angle_alpha                97.685(10)
_cell_angle_beta                 93.260(10)
_cell_angle_gamma                101.754(11)
_cell_volume                     2253.42
_exptl_crystal_colour            colorless
_chemical_melting_point          '230 deg.C'
_cell_formula_units_Z            2
_exptl_crystal_recrystallization_method ethanol
loop_
_atom_site_label
_atom_site_type_symbol
_atom_site_fract_x
_atom_site_fract_y
_atom_site_fract_z
S1 S 0.8973(3) 0.4627(1) 0.1535(1)
O1 O 1.0597(7) 0.5099(2) 0.1407(2)
O3 O 0.7972(6) 0.5098(3) 0.1992(2)
O5 O 1.1789(6) 0.2687(2) -0.0331(3)
O6 O 0.6482(6) 0.1152(2) -0.0312(3)
N1 N 0.7842(7) 0.4232(3) 0.0740(3)
N3 N 0.9120(7) 0.1927(3) -0.0298(3)
C1 C 0.5370(12) 0.4716(5) 0.0215(6)
C2 C 0.7293(11) 0.4942(5) 0.0337(5)
C5 C 0.8681(9) 0.3739(3) 0.0186(3)
C6 C 0.7540(9) 0.3091(4) -0.0368(3)
C7 C 0.8473(9) 0.2457(3) -0.0809(3)
C8 C 1.0839(10) 0.2102(4) -0.0088(4)
C9 C 0.7950(9) 0.1267(4) -0.0059(4)
C10 C 1.1433(8) 0.1575(4) 0.0443(3)
C11 C 1.3127(9) 0.1705(4) 0.0662(4)
C12 C 1.3692(11) 0.1188(6) 0.1171(5)
C13 C 1.2538(13) 0.0569(6) 0.1419(5)
C14 C 1.0798(12) 0.0402(4) 0.1195(4)
C15 C 1.0256(9) 0.0914(4) 0.0701(3)
C16 C 0.8558(9) 0.0762(3) 0.0461(4)
C17 C 0.7421(10) 0.0113(4) 0.0701(3)
C18 C 0.7994(13) -0.0386(5) 0.1186(4)
C19 C 0.9627(14) -0.0283(5) 0.1445(4)
C20 C 0.9209(9) 0.3692(4) 0.1920(3)
C21 C 1.0722(8) 0.3393(3) 0.1910(3)
C22 C 1.0822(9) 0.2663(3) 0.2255(3)
C23 C 0.9531(12) 0.2228(4) 0.2606(4)
C24 C 0.8044(10) 0.2524(5) 0.2601(4)
C25 C 0.7857(10) 0.3224(5) 0.2248(4)
C26 C 1.2267(8) 0.3806(3) 0.1575(3)
C27 C 0.9799(10) 0.1482(3) 0.3010(4)
C28 C 0.6152(9) 0.3448(5) 0.2267(4)
H1 H 0.5012(12) 0.4112(5) -0.0048(6)
H2 H 0.4910(12) 0.4736(5) 0.0713(6)
H3 H 0.7681(11) 0.5519(5) 0.0649(5)
H4 H 0.7787(11) 0.4958(5) -0.0152(5)
H9 H 0.9402(9) 0.4154(3) -0.0085(3)
H10 H 0.9424(9) 0.3439(3) 0.0459(3)
H11 H 0.6993(9) 0.3392(4) -0.0726(3)
H12 H 0.6649(9) 0.2756(4) -0.0107(3)
H13 H 0.7695(9) 0.2073(3) -0.1215(3)
H14 H 0.9418(9) 0.2791(3) -0.1042(3)
H15 H 1.3913(9) 0.2137(4) 0.0475(4)
H16 H 1.4851(11) 0.1275(6) 0.1333(5)
H17 H 1.2919(13) 0.0229(6) 0.1762(5)
H18 H 0.6261(10) 0.0010(4) 0.0535(3)
H19 H 0.7192(13) -0.0832(5) 0.1349(4)
H20 H 0.9976(14) -0.0644(5) 0.1775(4)
H21 H 1.1838(9) 0.2458(3) 0.2245(3)
H22 H 0.7134(10) 0.2239(5) 0.2845(4)
H23 H 1.2055(8) 0.4307(3) 0.1351(3)
H24 H 1.2560(8) 0.3382(3) 0.1185(3)
H25 H 1.3200(8) 0.3999(3) 0.1969(3)
H26 H 0.8764(10) 0.1242(3) 0.3229(4)
H27 H 1.0712(10) 0.1694(3) 0.3410(4)
H28 H 1.0095(10) 0.1027(3) 0.2651(4)
H29 H 0.6138(9) 0.3950(5) 0.2005(4)
H30 H 0.5912(9) 0.3591(5) 0.2790(4)
H31 H 0.5295(9) 0.2950(5) 0.2017(4)
C1A C 0.4630(12) 0.5284(5) -0.0215(6)
C2A C 0.2707(11) 0.5058(5) -0.0337(5)
N1A N 0.2158(7) 0.5768(3) -0.0740(3)
S1A S 0.1027(3) 0.5373(1) -0.1535(1)
O1A O -0.0597(7) 0.4901(2) -0.1407(2)
O3A O 0.2028(6) 0.4902(3) -0.1992(2)
C20A C 0.0791(9) 0.6308(4) -0.1920(3)
C21A C -0.0722(8) 0.6607(3) -0.1910(3)
C22A C -0.0822(9) 0.7337(3) -0.2255(3)
C23A C 0.0469(12) 0.7772(4) -0.2606(4)
C24A C 0.1956(10) 0.7476(5) -0.2601(4)
C25A C 0.2143(10) 0.6776(5) -0.2248(4)
C28A C 0.3848(9) 0.6552(5) -0.2267(4)
H29A H 0.3862(9) 0.6050(5) -0.2005(4)
H30A H 0.4088(9) 0.6409(5) -0.2790(4)
H31A H 0.4705(9) 0.7050(5) -0.2017(4)
H22A H 0.2866(10) 0.7761(5) -0.2845(4)
C27A C 0.0201(10) 0.8518(3) -0.3010(4)
H26A H 0.1236(10) 0.8758(3) -0.3229(4)
H27A H -0.0712(10) 0.8306(3) -0.3410(4)
H28A H -0.0095(10) 0.8973(3) -0.2651(4)
H21A H -0.1838(9) 0.7542(3) -0.2245(3)
C26A C -0.2267(8) 0.6194(3) -0.1575(3)
H23A H -0.2055(8) 0.5693(3) -0.1351(3)
H24A H -0.2560(8) 0.6618(3) -0.1185(3)
H25A H -0.3200(8) 0.6001(3) -0.1969(3)
C5A C 0.1319(9) 0.6261(3) -0.0186(3)
C6A C 0.2460(9) 0.6909(4) 0.0368(3)
C7A C 0.1527(9) 0.7543(3) 0.0809(3)
N3A N 0.0880(7) 0.8073(3) 0.0298(3)
C8A C -0.0839(10) 0.7898(4) 0.0088(4)
O5A O -0.1789(6) 0.7313(2) 0.0331(3)
C10A C -0.1433(8) 0.8425(4) -0.0443(3)
C11A C -0.3127(9) 0.8295(4) -0.0662(4)
C12A C -0.3692(11) 0.8812(6) -0.1171(5)
C13A C -0.2538(13) 0.9431(6) -0.1419(5)
C14A C -0.0798(12) 0.9598(4) -0.1195(4)
C15A C -0.0256(9) 0.9086(4) -0.0701(3)
C16A C 0.1442(9) 0.9238(3) -0.0461(4)
C9A C 0.2050(9) 0.8733(4) 0.0059(4)
O6A O 0.3518(6) 0.8848(2) 0.0312(3)
C17A C 0.2579(10) 0.9887(4) -0.0701(3)
C18A C 0.2006(13) 1.0386(5) -0.1186(4)
C19A C 0.0373(14) 1.0283(5) -0.1445(4)
H20A H 0.0024(14) 1.0644(5) -0.1775(4)
H19A H 0.2808(13) 1.0832(5) -0.1349(4)
H18A H 0.3739(10) 0.9990(4) -0.0535(3)
H17A H -0.2919(13) 0.9771(6) -0.1762(5)
H16A H -0.4851(11) 0.8725(6) -0.1333(5)
H15A H -0.3913(9) 0.7863(4) -0.0475(4)
H13A H 0.2305(9) 0.7927(3) 0.1215(3)
H14A H 0.0582(9) 0.7209(3) 0.1042(3)
H11A H 0.3007(9) 0.6608(4) 0.0726(3)
H12A H 0.3351(9) 0.7244(4) 0.0107(3)
H9A H 0.0598(9) 0.5846(3) 0.0085(3)
H10A H 0.0576(9) 0.6561(3) -0.0459(3)
H3A H 0.2319(11) 0.4481(5) -0.0649(5)
H4A H 0.2213(11) 0.5042(5) 0.0152(5)
H1A H 0.4988(12) 0.5888(5) 0.0048(6)
H2A H 0.5090(12) 0.5264(5) -0.0713(6)
S2 S 0.1972(2) 0.9211(1) 0.3418(1)
O2 O 0.0318(5) 0.9053(2) 0.3032(2)
O4 O 0.2991(5) 1.0073(2) 0.3474(2)
O7 O 0.6962(5) 0.7667(2) 0.5224(2)
O8 O 0.1478(5) 0.6320(2) 0.5083(2)
N2 N 0.1751(6) 0.8911(2) 0.4246(2)
N4 N 0.4249(6) 0.6974(3) 0.5122(3)
C29 C -0.0104(7) 0.9572(3) 0.5151(3)
C30 C 0.0115(7) 0.8804(3) 0.4573(3)
C31 C 0.3281(7) 0.9138(3) 0.4771(3)
C32 C 0.3508(7) 0.8420(3) 0.5205(3)
C33 C 0.3804(8) 0.7630(3) 0.4709(3)
C34 C 0.5931(8) 0.7042(4) 0.5356(3)
C35 C 0.2935(9) 0.6293(4) 0.5271(3)
C36 C 0.6368(8) 0.6358(3) 0.5735(3)
C37 C 0.8035(8) 0.6378(4) 0.5936(3)
C38 C 0.8490(9) 0.5705(4) 0.6283(3)
C39 C 0.7310(10) 0.5016(4) 0.6413(3)
C40 C 0.5559(9) 0.4963(4) 0.6197(3)
C41 C 0.5125(8) 0.5649(3) 0.5863(3)
C42 C 0.3409(8) 0.5607(3) 0.5636(3)
C43 C 0.2186(9) 0.4894(3) 0.5733(3)
C44 C 0.2642(10) 0.4219(4) 0.6073(4)
C45 C 0.4293(10) 0.4251(4) 0.6301(4)
C46 C 0.3115(7) 0.8465(3) 0.2986(3)
C47 C 0.2255(8) 0.7584(3) 0.2775(3)
C48 C 0.3187(8) 0.7018(3) 0.2415(3)
C49 C 0.4849(8) 0.7246(3) 0.2281(3)
C50 C 0.5668(8) 0.8103(3) 0.2508(3)
C51 C 0.4818(8) 0.8731(3) 0.2848(3)
C52 C 0.0450(8) 0.7241(3) 0.2904(3)
C53 C 0.5741(8) 0.6594(3) 0.1876(3)
C54 C 0.5914(8) 0.9649(3) 0.3036(3)
H32 H -0.1237(7) 0.9432(3) 0.5332(3)
H33 H 0.0729(7) 0.9640(3) 0.5588(3)
H34 H -0.0048(7) 0.8275(3) 0.4819(3)
H35 H -0.0785(7) 0.8706(3) 0.4158(3)
H36 H 0.3233(7) 0.9661(3) 0.5130(3)
H37 H 0.4272(7) 0.9287(3) 0.4483(3)
H38 H 0.2492(7) 0.8249(3) 0.5472(3)
H39 H 0.4475(7) 0.8639(3) 0.5587(3)
H40 H 0.2772(8) 0.7367(3) 0.4372(3)
H41 H 0.4717(8) 0.7818(3) 0.4388(3)
H42 H 0.8881(8) 0.6848(4) 0.5839(3)
H43 H 0.9640(9) 0.5734(4) 0.6428(3)
H44 H 0.7639(10) 0.4568(4) 0.6647(3)
H45 H 0.1043(9) 0.4861(3) 0.5571(3)
H46 H 0.1799(10) 0.3735(4) 0.6146(4)
H47 H 0.4582(10) 0.3790(4) 0.6531(4)
H48 H 0.2621(8) 0.6432(3) 0.2252(3)
H49 H 0.6826(8) 0.8275(3) 0.2435(3)
H50 H -0.0014(8) 0.7714(3) 0.3159(3)
H51 H 0.0389(8) 0.6779(3) 0.3218(3)
H52 H -0.0200(8) 0.7008(3) 0.2420(3)
H53 H 0.6911(8) 0.6877(3) 0.1835(3)
H54 H 0.5174(8) 0.6377(3) 0.1372(3)
H55 H 0.5715(8) 0.6107(3) 0.2160(3)
H56 H 0.7043(8) 0.9647(3) 0.2878(3)
H57 H 0.5987(8) 0.9841(3) 0.3580(3)
H58 H 0.5413(8) 1.0049(3) 0.2772(3)
C29A C 0.0104(7) 1.0428(3) 0.4849(3)
C30A C -0.0115(7) 1.1196(3) 0.5427(3)
N2A N -0.1751(6) 1.1089(2) 0.5754(2)
S2A S -0.1972(2) 1.0789(1) 0.6582(1)
O2A O -0.0318(5) 1.0947(2) 0.6968(2)
O4A O -0.2991(5) 0.9927(2) 0.6526(2)
C46A C -0.3115(7) 1.1535(3) 0.7014(3)
C47A C -0.2255(8) 1.2416(3) 0.7225(3)
C48A C -0.3187(8) 1.2982(3) 0.7585(3)
C49A C -0.4849(8) 1.2754(3) 0.7719(3)
C50A C -0.5668(8) 1.1897(3) 0.7492(3)
C51A C -0.4818(8) 1.1269(3) 0.7152(3)
C54A C -0.5914(8) 1.0351(3) 0.6964(3)
H56A H -0.7043(8) 1.0353(3) 0.7122(3)
H57A H -0.5987(8) 1.0159(3) 0.6420(3)
H58A H -0.5413(8) 0.9951(3) 0.7228(3)
H49A H -0.6826(8) 1.1725(3) 0.7565(3)
C53A C -0.5741(8) 1.3406(3) 0.8124(3)
H53A H -0.6911(8) 1.3123(3) 0.8165(3)
H54A H -0.5174(8) 1.3623(3) 0.8628(3)
H55A H -0.5715(8) 1.3893(3) 0.7840(3)
H48A H -0.2621(8) 1.3568(3) 0.7748(3)
C52A C -0.0450(8) 1.2759(3) 0.7096(3)
H50A H 0.0014(8) 1.2286(3) 0.6841(3)
H51A H -0.0389(8) 1.3221(3) 0.6782(3)
H52A H 0.0200(8) 1.2992(3) 0.7580(3)
C31A C -0.3281(7) 1.0862(3) 0.5229(3)
C32A C -0.3508(7) 1.1580(3) 0.4795(3)
C33A C -0.3804(8) 1.2370(3) 0.5291(3)
N4A N -0.4249(6) 1.3026(3) 0.4878(3)
C34A C -0.5931(8) 1.2958(4) 0.4644(3)
O7A O -0.6962(5) 1.2333(2) 0.4776(2)
C36A C -0.6368(8) 1.3642(3) 0.4265(3)
C37A C -0.8035(8) 1.3622(4) 0.4064(3)
C38A C -0.8490(9) 1.4295(4) 0.3717(3)
C39A C -0.7310(10) 1.4984(4) 0.3587(3)
C40A C -0.5559(9) 1.5037(4) 0.3803(3)
C41A C -0.5125(8) 1.4351(3) 0.4137(3)
C42A C -0.3409(8) 1.4393(3) 0.4364(3)
C35A C -0.2935(9) 1.3707(4) 0.4729(3)
O8A O -0.1478(5) 1.3680(2) 0.4917(2)
C43A C -0.2186(9) 1.5106(3) 0.4267(3)
C44A C -0.2642(10) 1.5781(4) 0.3927(4)
C45A C -0.4293(10) 1.5749(4) 0.3699(4)
H47A H -0.4582(10) 1.6210(4) 0.3469(4)
H46A H -0.1799(10) 1.6265(4) 0.3854(4)
H45A H -0.1043(9) 1.5139(3) 0.4429(3)
H44A H -0.7639(10) 1.5432(4) 0.3353(3)
H43A H -0.9640(9) 1.4266(4) 0.3572(3)
H42A H -0.8881(8) 1.3152(4) 0.4161(3)
H40A H -0.2772(8) 1.2633(3) 0.5628(3)
H41A H -0.4717(8) 1.2182(3) 0.5612(3)
H38A H -0.2492(7) 1.1751(3) 0.4528(3)
H39A H -0.4475(7) 1.1361(3) 0.4413(3)
H36A H -0.3233(7) 1.0339(3) 0.4870(3)
H37A H -0.4272(7) 1.0713(3) 0.5517(3)
H34A H 0.0048(7) 1.1725(3) 0.5181(3)
H35A H 0.0785(7) 1.1294(3) 0.5842(3)
H32A H 0.1237(7) 1.0568(3) 0.4668(3)
H33A H -0.0729(7) 1.0360(3) 0.4412(3)
C3? C 0.6010(2) 0.4959(10) 0.0094(12)
C4? C 0.5950(2) 0.4313(9) 0.0626(9)
H5? H 0.6493(23) 0.4757(10) -0.0373(12)
H6? H 0.6712(23) 0.5529(10) 0.0326(12)
H7? H 0.5212(20) 0.3748(9) 0.0407(9)
H8? H 0.5536(20) 0.4526(9) 0.1108(9)
loop_
_geom_bond_atom_site_label_1
_geom_bond_atom_site_label_2
_geom_bond_site_symmetry_1
_geom_bond_site_symmetry_2
S1 O1 1_555 1_555
S2 O2 1_555 1_555
O3 S1 1_555 1_555
O4 S2 1_555 1_555
O5 C8 1_555 1_555
O6 C9 1_555 1_555
O7 C34 1_555 1_555
O8 C35 1_555 1_555
N1 S1 1_555 1_555
N2 S2 1_555 1_555
N3 C7 1_555 1_555
N4 C33 1_555 1_555
C1 C2 1_555 1_555
C2 N1 1_555 1_555
C5 N1 1_555 1_555
C6 C5 1_555 1_555
C7 C6 1_555 1_555
C8 N3 1_555 1_555
C9 N3 1_555 1_555
C10 C8 1_555 1_555
C11 C10 1_555 1_555
C12 C11 1_555 1_555
C13 C12 1_555 1_555
C14 C13 1_555 1_555
C15 C10 1_555 1_555
C16 C9 1_555 1_555
C17 C16 1_555 1_555
C18 C17 1_555 1_555
C19 C14 1_555 1_555
C20 S1 1_555 1_555
C21 C20 1_555 1_555
C22 C21 1_555 1_555
C23 C22 1_555 1_555
C24 C23 1_555 1_555
C25 C20 1_555 1_555
C26 C21 1_555 1_555
C27 C23 1_555 1_555
C28 C25 1_555 1_555
C29 C30 1_555 1_555
C30 N2 1_555 1_555
C31 N2 1_555 1_555
C32 C31 1_555 1_555
C33 C32 1_555 1_555
C34 N4 1_555 1_555
C35 N4 1_555 1_555
C36 C34 1_555 1_555
C37 C36 1_555 1_555
C38 C37 1_555 1_555
C39 C38 1_555 1_555
C40 C39 1_555 1_555
C41 C36 1_555 1_555
C42 C35 1_555 1_555
C43 C42 1_555 1_555
C44 C43 1_555 1_555
C45 C40 1_555 1_555
C46 S2 1_555 1_555
C47 C46 1_555 1_555
C48 C47 1_555 1_555
C49 C48 1_555 1_555
C50 C49 1_555 1_555
C51 C46 1_555 1_555
C52 C47 1_555 1_555
C53 C49 1_555 1_555
C54 C51 1_555 1_555
H1 C1 1_555 1_555
H2 C1 1_555 1_555
H3 C2 1_555 1_555
H4 C2 1_555 1_555
H9 C5 1_555 1_555
H10 C5 1_555 1_555
H11 C6 1_555 1_555
H12 C6 1_555 1_555
H13 C7 1_555 1_555
H14 C7 1_555 1_555
H15 C11 1_555 1_555
H16 C12 1_555 1_555
H17 C13 1_555 1_555
H18 C17 1_555 1_555
H19 C18 1_555 1_555
H20 C19 1_555 1_555
H21 C22 1_555 1_555
H22 C24 1_555 1_555
H23 C26 1_555 1_555
H24 C26 1_555 1_555
H25 C26 1_555 1_555
H26 C27 1_555 1_555
H27 C27 1_555 1_555
H28 C27 1_555 1_555
H29 C28 1_555 1_555
H30 C28 1_555 1_555
H31 C28 1_555 1_555
H32 C29 1_555 1_555
H33 C29 1_555 1_555
H34 C30 1_555 1_555
H35 C30 1_555 1_555
H36 C31 1_555 1_555
H37 C31 1_555 1_555
H38 C32 1_555 1_555
H39 C32 1_555 1_555
H40 C33 1_555 1_555
H41 C33 1_555 1_555
H42 C37 1_555 1_555
H43 C38 1_555 1_555
H44 C39 1_555 1_555
H45 C43 1_555 1_555
H46 C44 1_555 1_555
H47 C45 1_555 1_555
H48 C48 1_555 1_555
H49 C50 1_555 1_555
H50 C52 1_555 1_555
H51 C52 1_555 1_555
H52 C52 1_555 1_555
H53 C53 1_555 1_555
H54 C53 1_555 1_555
H55 C53 1_555 1_555
H56 C54 1_555 1_555
H57 C54 1_555 1_555
H58 C54 1_555 1_555
C1A C1 1_555 1_555
C2A C1A 1_555 1_555
N1A C2A 1_555 1_555
S1A N1A 1_555 1_555
O1A S1A 1_555 1_555
O3A S1A 1_555 1_555
C20A S1A 1_555 1_555
C21A C20A 1_555 1_555
C22A C21A 1_555 1_555
C23A C22A 1_555 1_555
C24A C23A 1_555 1_555
C25A C20A 1_555 1_555
C28A C25A 1_555 1_555
H29A C28A 1_555 1_555
H30A C28A 1_555 1_555
H31A C28A 1_555 1_555
H22A C24A 1_555 1_555
C27A C23A 1_555 1_555
H26A C27A 1_555 1_555
H27A C27A 1_555 1_555
H28A C27A 1_555 1_555
H21A C22A 1_555 1_555
C26A C21A 1_555 1_555
H23A C26A 1_555 1_555
H24A C26A 1_555 1_555
H25A C26A 1_555 1_555
C5A N1A 1_555 1_555
C6A C5A 1_555 1_555
C7A C6A 1_555 1_555
N3A C7A 1_555 1_555
C8A N3A 1_555 1_555
O5A C8A 1_555 1_555
C10A C8A 1_555 1_555
C11A C10A 1_555 1_555
C12A C11A 1_555 1_555
C13A C12A 1_555 1_555
C14A C13A 1_555 1_555
C15A C10A 1_555 1_555
C16A C15A 1_555 1_555
C9A N3A 1_555 1_555
O6A C9A 1_555 1_555
C17A C16A 1_555 1_555
C18A C17A 1_555 1_555
C19A C14A 1_555 1_555
H20A C19A 1_555 1_555
H19A C18A 1_555 1_555
H18A C17A 1_555 1_555
H17A C13A 1_555 1_555
H16A C12A 1_555 1_555
H15A C11A 1_555 1_555
H13A C7A 1_555 1_555
H14A C7A 1_555 1_555
H11A C6A 1_555 1_555
H12A C6A 1_555 1_555
H9A C5A 1_555 1_555
H10A C5A 1_555 1_555
H3A C2A 1_555 1_555
H4A C2A 1_555 1_555
H1A C1A 1_555 1_555
H2A C1A 1_555 1_555
C29A C29 1_555 1_555
C30A C29A 1_555 1_555
N2A C30A 1_555 1_555
S2A N2A 1_555 1_555
O2A S2A 1_555 1_555
O4A S2A 1_555 1_555
C46A S2A 1_555 1_555
C47A C46A 1_555 1_555
C48A C47A 1_555 1_555
C49A C48A 1_555 1_555
C50A C49A 1_555 1_555
C51A C46A 1_555 1_555
C54A C51A 1_555 1_555
H56A C54A 1_555 1_555
H57A C54A 1_555 1_555
H58A C54A 1_555 1_555
H49A C50A 1_555 1_555
C53A C49A 1_555 1_555
H53A C53A 1_555 1_555
H54A C53A 1_555 1_555
H55A C53A 1_555 1_555
H48A C48A 1_555 1_555
C52A C47A 1_555 1_555
H50A C52A 1_555 1_555
H51A C52A 1_555 1_555
H52A C52A 1_555 1_555
C31A N2A 1_555 1_555
C32A C31A 1_555 1_555
C33A C32A 1_555 1_555
N4A C33A 1_555 1_555
C34A N4A 1_555 1_555
O7A C34A 1_555 1_555
C36A C34A 1_555 1_555
C37A C36A 1_555 1_555
C38A C37A 1_555 1_555
C39A C38A 1_555 1_555
C40A C39A 1_555 1_555
C41A C36A 1_555 1_555
C42A C41A 1_555 1_555
C35A N4A 1_555 1_555
O8A C35A 1_555 1_555
C43A C42A 1_555 1_555
C44A C43A 1_555 1_555
C45A C40A 1_555 1_555
H47A C45A 1_555 1_555
H46A C44A 1_555 1_555
H45A C43A 1_555 1_555
H44A C39A 1_555 1_555
H43A C38A 1_555 1_555
H42A C37A 1_555 1_555
H40A C33A 1_555 1_555
H41A C33A 1_555 1_555
H38A C32A 1_555 1_555
H39A C32A 1_555 1_555
H36A C31A 1_555 1_555
H37A C31A 1_555 1_555
H34A C30A 1_555 1_555
H35A C30A 1_555 1_555
H32A C29A 1_555 1_555
H33A C29A 1_555 1_555
C14 C15 1_555 1_555
C15 C16 1_555 1_555
C18 C19 1_555 1_555
C24 C25 1_555 1_555
C40 C41 1_555 1_555
C41 C42 1_555 1_555
C44 C45 1_555 1_555
C50 C51 1_555 1_555
C24A C25A 1_555 1_555
C14A C15A 1_555 1_555
C16A C9A 1_555 1_555
C18A C19A 1_555 1_555
C50A C51A 1_555 1_555
C40A C41A 1_555 1_555
C42A C35A 1_555 1_555
C44A C45A 1_555 1_555

#END
