
#######################################################################
#
#                 Cambridge Crystallographic Data Centre
#                                CCDC 
#
#######################################################################
#
# If this CIF has been generated from an entry in the Cambridge 
# Structural Database, then it will include bibliographic, chemical, 
# crystal, experimental, refinement or atomic coordinate data resulting 
# from the CCDC's data processing and validation procedures.
#
#######################################################################

data_DEFQIR
_chemical_formula_moiety         'C13 H23 N1 O4 S1'
_chemical_name_systematic        
'dimethyl 4-(t-butylsulfanyl)-2-methylpyrrolidine-2,4-dicarboxylate'
_symmetry_cell_setting           orthorhombic
_symmetry_space_group_name_H-M   'P 21 21 21'
_symmetry_Int_Tables_number      19
_space_group_name_Hall           'P 2ac 2ab'
loop_
_symmetry_equiv_pos_site_id
_symmetry_equiv_pos_as_xyz
1 x,y,z
2 1/2-x,-y,1/2+z
3 -x,1/2+y,1/2-z
4 1/2+x,1/2-y,-z
_cell_length_a                   6.1598(3)
_cell_length_b                   8.1330(4)
_cell_length_c                   31.1006(15)
_cell_angle_alpha                90
_cell_angle_beta                 90
_cell_angle_gamma                90
_cell_volume                     1558.07
_cell_formula_units_Z            4
loop_
_atom_site_label
_atom_site_type_symbol
_atom_site_fract_x
_atom_site_fract_y
_atom_site_fract_z
S1 S 0.83529(15) 0.40603(11) 0.30305(3)
O1 O 0.7311(4) 0.2315(4) 0.41033(8)
O2 O 1.0685(4) 0.2767(3) 0.38747(8)
O3 O 0.6800(5) 0.5401(4) 0.48153(8)
O4 O 0.3432(4) 0.5407(4) 0.45558(7)
N1 N 0.8525(5) 0.6740(4) 0.40865(10)
H1 H 0.907(5) 0.635(4) 0.4297(9)
C1 C 0.9390(5) 0.6022(4) 0.36958(10)
H2 H 1.0889 0.5691 0.3737
H3 H 0.9323 0.6805 0.3461
C2 C 0.7956(5) 0.4520(4) 0.36004(9)
C3 C 0.5712(5) 0.5192(4) 0.37221(10)
H4 H 0.4760 0.4312 0.3816
H5 H 0.5047 0.5751 0.3480
C4 C 0.6169(5) 0.6425(4) 0.40987(10)
C5 C 0.8568(5) 0.3080(4) 0.38871(9)
C6 C 1.1446(6) 0.1406(5) 0.41292(14)
H6 H 1.0779 0.0409 0.4030
H7 H 1.1073 0.1584 0.4425
H8 H 1.2994 0.1317 0.4102
C7 C 0.4911(6) 0.8022(5) 0.40349(13)
H9 H 0.5149 0.8733 0.4277
H10 H 0.3390 0.7783 0.4010
H11 H 0.5403 0.8556 0.3777
C8 C 0.5559(6) 0.5675(5) 0.45300(11)
C9 C 0.2654(8) 0.4752(8) 0.49606(12)
H12 H 0.1099 0.4675 0.4953
H13 H 0.3085 0.5469 0.5191
H14 H 0.3262 0.3680 0.5006
C10 C 0.6985(5) 0.2125(4) 0.28851(10)
C11 C 0.8223(7) 0.0624(4) 0.30493(13)
H15 H 0.9709 0.0690 0.2958
H16 H 0.7575 -0.0357 0.2935
H17 H 0.8162 0.0596 0.3358
C12 C 0.7085(8) 0.2150(6) 0.23945(11)
H18 H 0.6232 0.3050 0.2288
H19 H 0.6522 0.1135 0.2283
H20 H 0.8565 0.2282 0.2304
C13 C 0.4636(6) 0.2079(5) 0.30344(15)
H21 H 0.4591 0.2026 0.3343
H22 H 0.3932 0.1128 0.2916
H23 H 0.3902 0.3053 0.2939
loop_
_geom_bond_atom_site_label_1
_geom_bond_atom_site_label_2
_geom_bond_site_symmetry_1
_geom_bond_site_symmetry_2
S1 C2 1_555 1_555
O1 C5 1_555 1_555
O2 C5 1_555 1_555
O3 C8 1_555 1_555
O4 C8 1_555 1_555
N1 H1 1_555 1_555
C1 N1 1_555 1_555
H2 C1 1_555 1_555
H3 C1 1_555 1_555
C2 C1 1_555 1_555
C3 C2 1_555 1_555
H4 C3 1_555 1_555
H5 C3 1_555 1_555
C4 N1 1_555 1_555
C5 C2 1_555 1_555
C6 O2 1_555 1_555
H6 C6 1_555 1_555
H7 C6 1_555 1_555
H8 C6 1_555 1_555
C7 C4 1_555 1_555
H9 C7 1_555 1_555
H10 C7 1_555 1_555
H11 C7 1_555 1_555
C8 C4 1_555 1_555
C9 O4 1_555 1_555
H12 C9 1_555 1_555
H13 C9 1_555 1_555
H14 C9 1_555 1_555
C10 S1 1_555 1_555
C11 C10 1_555 1_555
H15 C11 1_555 1_555
H16 C11 1_555 1_555
H17 C11 1_555 1_555
C12 C10 1_555 1_555
H18 C12 1_555 1_555
H19 C12 1_555 1_555
H20 C12 1_555 1_555
C13 C10 1_555 1_555
H21 C13 1_555 1_555
H22 C13 1_555 1_555
H23 C13 1_555 1_555
C3 C4 1_555 1_555

#END
