
#######################################################################
#
#                 Cambridge Crystallographic Data Centre
#                                CCDC 
#
#######################################################################
#
# If this CIF has been generated from an entry in the Cambridge 
# Structural Database, then it will include bibliographic, chemical, 
# crystal, experimental, refinement or atomic coordinate data resulting 
# from the CCDC's data processing and validation procedures.
#
#######################################################################

data_DEFQOX
_chemical_formula_moiety         'C21 H24 N2 O6 S1'
_chemical_name_systematic        
'dimethyl 5-methyl-1-[(4-methylphenyl)sulfonyl]-4-phenylimidazolidine-4,5-dicarboxylate'
_symmetry_cell_setting           orthorhombic
_symmetry_space_group_name_H-M   'P 21 21 21'
_symmetry_Int_Tables_number      19
_space_group_name_Hall           'P 2ac 2ab'
loop_
_symmetry_equiv_pos_site_id
_symmetry_equiv_pos_as_xyz
1 x,y,z
2 1/2-x,-y,1/2+z
3 -x,1/2+y,1/2-z
4 1/2+x,1/2-y,-z
_cell_length_a                   7.9925(3)
_cell_length_b                   13.9906(4)
_cell_length_c                   19.0487(6)
_cell_angle_alpha                90
_cell_angle_beta                 90
_cell_angle_gamma                90
_cell_volume                     2130.02
_exptl_crystal_colour            colorless
_exptl_crystal_description       Block
_cell_formula_units_Z            4
loop_
_atom_site_label
_atom_site_type_symbol
_atom_site_fract_x
_atom_site_fract_y
_atom_site_fract_z
S1 S 0.73933(9) 0.52447(5) 0.41885(4)
O1 O 0.4836(3) 0.22251(15) 0.29815(10)
O2 O 0.5971(3) 0.41623(15) 0.28329(11)
O3 O 0.8318(3) 0.54311(14) 0.35561(12)
O4 O 0.8140(3) 0.55054(16) 0.48438(13)
O5 O 0.3654(3) 0.27619(18) 0.39679(12)
N1 N 0.6519(3) 0.26322(16) 0.47072(12)
O6 O 0.8410(3) 0.35417(16) 0.24829(11)
N2 N 0.6917(3) 0.41151(15) 0.41873(12)
C1 C 0.4862(3) 0.25185(19) 0.36462(14)
C2 C 0.7417(4) 0.37094(18) 0.29350(14)
C3 C 0.7678(3) 0.34184(17) 0.37039(14)
C4 C 0.6650(3) 0.24941(18) 0.39476(13)
C5 C 0.7427(4) 0.15211(17) 0.37835(14)
C6 C 0.6362(4) 0.3648(2) 0.48465(15)
H1 H 0.7068 0.3836 0.5237
H2 H 0.5212 0.3814 0.4954
C7 C 0.2528(4) 0.5897(2) 0.38921(17)
H3 H 0.1548 0.5587 0.3762
C8 C 0.3996(4) 0.5381(2) 0.39417(17)
H4 H 0.4004 0.4730 0.3843
C9 C 0.2487(4) 0.6868(2) 0.40319(14)
C10 C 0.5443(4) 0.6806(2) 0.42879(18)
H5 H 0.6422 0.7114 0.4424
C11 C 0.9553(3) 0.3299(2) 0.38457(18)
H6 H 1.0108 0.3901 0.3778
H7 H 1.0008 0.2835 0.3528
H8 H 0.9717 0.3088 0.4320
C12 C 0.5445(3) 0.58376(18) 0.41388(15)
C13 C 0.3956(4) 0.7308(2) 0.42312(18)
H9 H 0.3947 0.7959 0.4330
C14 C 0.7215(4) 0.0773(2) 0.42508(16)
H10 H 0.6612 0.0869 0.4662
C15 C 0.8964(5) 0.0452(2) 0.30303(19)
H11 H 0.9555 0.0345 0.2617
C16 C 0.8279(4) 0.1345(2) 0.31617(17)
H12 H 0.8392 0.1829 0.2831
C17 C 0.8771(5) -0.0275(3) 0.3508(2)
H13 H 0.9237 -0.0873 0.3421
C18 C 0.5683(6) 0.4510(3) 0.21275(19)
H14 H 0.5496 0.3978 0.1819
H15 H 0.6643 0.4863 0.1971
H16 H 0.4719 0.4919 0.2125
C19 C 0.3227(5) 0.2251(3) 0.2636(2)
H17 H 0.3340 0.2015 0.2165
H18 H 0.2824 0.2897 0.2625
H19 H 0.2450 0.1858 0.2890
C20 C 0.7896(5) -0.0119(2) 0.4109(2)
H20 H 0.7752 -0.0615 0.4428
C21 C 0.0865(5) 0.7415(3) 0.39681(19)
H21 H 0.0489 0.7399 0.3490
H22 H 0.1040 0.8066 0.4109
H23 H 0.0035 0.7127 0.4265
H24 H 0.746(4) 0.240(2) 0.4897(16)
loop_
_geom_bond_atom_site_label_1
_geom_bond_atom_site_label_2
_geom_bond_site_symmetry_1
_geom_bond_site_symmetry_2
S1 O3 1_555 1_555
O1 C1 1_555 1_555
O2 C2 1_555 1_555
O4 S1 1_555 1_555
O5 C1 1_555 1_555
N1 C4 1_555 1_555
O6 C2 1_555 1_555
N2 S1 1_555 1_555
C1 C4 1_555 1_555
C2 C3 1_555 1_555
C3 N2 1_555 1_555
C4 C3 1_555 1_555
C5 C4 1_555 1_555
C6 N1 1_555 1_555
H1 C6 1_555 1_555
H2 C6 1_555 1_555
C7 H3 1_555 1_555
C8 C7 1_555 1_555
H4 C8 1_555 1_555
C9 C7 1_555 1_555
C10 H5 1_555 1_555
C11 C3 1_555 1_555
H6 C11 1_555 1_555
H7 C11 1_555 1_555
H8 C11 1_555 1_555
C12 S1 1_555 1_555
C13 C9 1_555 1_555
H9 C13 1_555 1_555
C14 C5 1_555 1_555
H10 C14 1_555 1_555
C15 H11 1_555 1_555
C16 C5 1_555 1_555
H12 C16 1_555 1_555
C17 C15 1_555 1_555
H13 C17 1_555 1_555
C18 O2 1_555 1_555
H14 C18 1_555 1_555
H15 C18 1_555 1_555
H16 C18 1_555 1_555
C19 O1 1_555 1_555
H17 C19 1_555 1_555
H18 C19 1_555 1_555
H19 C19 1_555 1_555
C20 C14 1_555 1_555
H20 C20 1_555 1_555
C21 C9 1_555 1_555
H21 C21 1_555 1_555
H22 C21 1_555 1_555
H23 C21 1_555 1_555
H24 N1 1_555 1_555
N2 C6 1_555 1_555
C8 C12 1_555 1_555
C10 C12 1_555 1_555
C10 C13 1_555 1_555
C15 C16 1_555 1_555
C17 C20 1_555 1_555

#END
