
#######################################################################
#
#                 Cambridge Crystallographic Data Centre
#                                CCDC 
#
#######################################################################
#
# If this CIF has been generated from an entry in the Cambridge 
# Structural Database, then it will include bibliographic, chemical, 
# crystal, experimental, refinement or atomic coordinate data resulting 
# from the CCDC's data processing and validation procedures.
#
#######################################################################

data_DEGDEZ
_chemical_formula_moiety         'C22 H16 Cl1 N3 O3'
_chemical_name_systematic        
'2-(1H-1,2,3-Benzotriazol-1-yl)-1-benzoylethyl 2-chlorobenzoate'
_symmetry_cell_setting           monoclinic
_symmetry_space_group_name_H-M   'P 21/c'
_symmetry_Int_Tables_number      14
_space_group_name_Hall           '-P 2ybc'
loop_
_symmetry_equiv_pos_site_id
_symmetry_equiv_pos_as_xyz
1 x,y,z
2 -x,1/2+y,1/2-z
3 -x,-y,-z
4 x,1/2-y,1/2+z
_cell_length_a                   12.9341(9)
_cell_length_b                   9.4562(7)
_cell_length_c                   18.1878(9)
_cell_angle_alpha                90
_cell_angle_beta                 120.441(3)
_cell_angle_gamma                90
_cell_volume                     1917.86
_exptl_crystal_colour            colorless
_exptl_crystal_description       column
_cell_formula_units_Z            4
_exptl_crystal_recrystallization_method 'acetone/ethyl acetate'
loop_
_atom_site_label
_atom_site_type_symbol
_atom_site_fract_x
_atom_site_fract_y
_atom_site_fract_z
Cl1 Cl 0.25271(5) -0.47468(7) -0.11294(4)
O1 O 0.30772(13) 0.03438(16) -0.22333(10)
O2 O 0.23839(11) -0.22502(13) -0.21066(8)
O3 O 0.24809(14) -0.27458(17) -0.32715(9)
N1 N 0.12068(14) 0.01438(16) -0.15195(10)
N2 N 0.05081(15) 0.12997(18) -0.16688(11)
N3 N 0.10494(17) 0.21623(19) -0.10296(12)
C1 C 0.00935(18) 0.0806(2) -0.40210(13)
H1 H -0.0202 -0.0104 -0.4060
C2 C -0.0592(2) 0.1808(3) -0.46329(14)
H2 H -0.1339 0.1565 -0.5091
C3 C -0.0164(3) 0.3164(3) -0.45605(17)
H3 H -0.0631 0.3840 -0.4966
C4 C 0.0940(3) 0.3525(3) -0.38992(18)
H4 H 0.1221 0.4445 -0.3855
C5 C 0.1635(2) 0.2538(2) -0.33011(15)
H5 H 0.2391 0.2788 -0.2857
C6 C 0.12193(17) 0.1162(2) -0.33524(12)
C7 C 0.20157(18) 0.0127(2) -0.26979(12)
C8 C 0.14600(16) -0.12288(19) -0.25994(12)
H6 H 0.0921 -0.1623 -0.3167
C9 C 0.07555(16) -0.0990(2) -0.21485(12)
H7 H -0.0070 -0.0781 -0.2574
H8 H 0.0757 -0.1862 -0.1867
C10 C 0.22372(16) 0.0272(2) -0.07511(12)
C11 C 0.32396(18) -0.0592(2) -0.02972(13)
H9 H 0.3307 -0.1465 -0.0504
C12 C 0.4116(2) -0.0076(3) 0.04696(14)
H10 H 0.4799 -0.0618 0.0796
C13 C 0.4020(2) 0.1241(3) 0.07812(14)
H11 H 0.4643 0.1550 0.1305
C14 C 0.3043(2) 0.2079(3) 0.03405(14)
H12 H 0.2984 0.2951 0.0552
C15 C 0.21266(19) 0.1573(2) -0.04465(12)
C16 C 0.27757(17) -0.29958(19) -0.25433(12)
C17 C 0.36468(17) -0.41235(19) -0.20297(12)
C18 C 0.36377(18) -0.4934(2) -0.13947(13)
C19 C 0.4487(2) -0.5965(2) -0.09722(15)
H13 H 0.4463 -0.6512 -0.0556
C20 C 0.5370(2) -0.6183(3) -0.11687(16)
H14 H 0.5953 -0.6867 -0.0875
C21 C 0.5399(2) -0.5405(3) -0.17897(17)
H15 H 0.6000 -0.5559 -0.1919
C22 C 0.4540(2) -0.4399(2) -0.22220(15)
H16 H 0.4554 -0.3888 -0.2654
loop_
_geom_bond_atom_site_label_1
_geom_bond_atom_site_label_2
_geom_bond_site_symmetry_1
_geom_bond_site_symmetry_2
Cl1 C18 1_555 1_555
O1 C7 1_555 1_555
O2 C8 1_555 1_555
O3 C16 1_555 1_555
N1 N2 1_555 1_555
N2 N3 1_555 1_555
N3 C15 1_555 1_555
C1 H1 1_555 1_555
C2 C1 1_555 1_555
H2 C2 1_555 1_555
C3 C2 1_555 1_555
H3 C3 1_555 1_555
C4 C3 1_555 1_555
H4 C4 1_555 1_555
C5 C4 1_555 1_555
H5 C5 1_555 1_555
C6 C1 1_555 1_555
C7 C6 1_555 1_555
C8 C7 1_555 1_555
H6 C8 1_555 1_555
C9 N1 1_555 1_555
H7 C9 1_555 1_555
H8 C9 1_555 1_555
C10 N1 1_555 1_555
C11 C10 1_555 1_555
H9 C11 1_555 1_555
C12 C11 1_555 1_555
H10 C12 1_555 1_555
C13 C12 1_555 1_555
H11 C13 1_555 1_555
C14 C13 1_555 1_555
H12 C14 1_555 1_555
C15 C10 1_555 1_555
C16 O2 1_555 1_555
C17 C16 1_555 1_555
C18 C17 1_555 1_555
C19 C18 1_555 1_555
H13 C19 1_555 1_555
C20 C19 1_555 1_555
H14 C20 1_555 1_555
C21 C20 1_555 1_555
H15 C21 1_555 1_555
C22 C17 1_555 1_555
H16 C22 1_555 1_555
C5 C6 1_555 1_555
C8 C9 1_555 1_555
C14 C15 1_555 1_555
C21 C22 1_555 1_555

#END
