
#######################################################################
#
#                 Cambridge Crystallographic Data Centre
#                                CCDC 
#
#######################################################################
#
# If this CIF has been generated from an entry in the Cambridge 
# Structural Database, then it will include bibliographic, chemical, 
# crystal, experimental, refinement or atomic coordinate data resulting 
# from the CCDC's data processing and validation procedures.
#
#######################################################################

data_DEGGEB04
_chemical_formula_moiety         'C10 H8 S8 1+,F6 P1 1-'
_chemical_name_systematic        
'bis(Ethylenedithio)tetrathiafulvalenium hexafluorophosphate'
_symmetry_cell_setting           triclinic
_symmetry_space_group_name_H-M   'P -1'
_symmetry_Int_Tables_number      2
_space_group_name_Hall           '-P 1'
loop_
_symmetry_equiv_pos_site_id
_symmetry_equiv_pos_as_xyz
1 x,y,z
2 -x,-y,-z
_cell_length_a                   6.2293(1)
_cell_length_b                   7.2633(2)
_cell_length_c                   9.8662(2)
_cell_angle_alpha                93.898(1)
_cell_angle_beta                 93.592(1)
_cell_angle_gamma                97.914(1)
_cell_volume                     439.952
_cell_formula_units_Z            1
loop_
_atom_site_label
_atom_site_type_symbol
_atom_site_fract_x
_atom_site_fract_y
_atom_site_fract_z
S1 S 0.1424(1) 0.6620(1) 0.8421(1)
S2 S -0.2503(1) 0.6808(1) 0.9847(1)
S3 S 0.1121(1) 0.9944(1) 0.6915(1)
S4 S -0.3730(1) 1.0068(1) 0.8511(1)
C1 C -0.0230(3) 0.5734(3) 0.9632(2)
C2 C -0.0009(3) 0.8456(3) 0.8080(2)
C3 C -0.1850(3) 0.8527(3) 0.8735(2)
C4 C -0.0828(3) 1.1577(3) 0.6750(2)
C5 C -0.3153(3) 1.0684(3) 0.6812(2)
H1 H -0.0398(49) 1.2638(48) 0.7439(33)
H2 H -0.0574(44) 1.2038(40) 0.5867(30)
H3 H -0.3528(44) 0.9520(43) 0.6154(29)
H4 H -0.4054(45) 1.1482(42) 0.6584(28)
C1A C 0.0230(3) 0.4266(3) 1.0368(2)
S1A S -0.1424(1) 0.3380(1) 1.1579(1)
C2A C 0.0009(3) 0.1544(3) 1.1920(2)
S3A S -0.1121(1) 0.0056(1) 1.3085(1)
C4A C 0.0828(3) -0.1577(3) 1.3250(2)
C5A C 0.3153(3) -0.0684(3) 1.3188(2)
S4A S 0.3730(1) -0.0068(1) 1.1489(1)
C3A C 0.1850(3) 0.1473(3) 1.1265(2)
S2A S 0.2503(1) 0.3192(1) 1.0153(1)
H3A H 0.3528(44) 0.0480(43) 1.3846(29)
H4A H 0.4054(45) -0.1482(42) 1.3416(28)
H1A H 0.0398(49) -0.2638(48) 1.2561(33)
H2A H 0.0574(44) -0.2038(40) 1.4133(30)
P1 P 0.5000 0.5000 0.5000
F1 F 0.3651(3) 0.6559(2) 0.5579(2)
F2 F 0.3274(3) 0.3389(2) 0.5477(2)
F3 F 0.3660(3) 0.4908(2) 0.3562(2)
F1A F 0.6349(3) 0.3441(2) 0.4421(2)
F2A F 0.6726(3) 0.6611(2) 0.4523(2)
F3A F 0.6340(3) 0.5092(2) 0.6438(2)
loop_
_geom_bond_atom_site_label_1
_geom_bond_atom_site_label_2
_geom_bond_site_symmetry_1
_geom_bond_site_symmetry_2
S1 C1 1_555 1_555
S2 C1 1_555 1_555
S3 C2 1_555 1_555
S4 C3 1_555 1_555
C1 C1A 1_555 1_555
C2 S1 1_555 1_555
C3 S2 1_555 1_555
C4 S3 1_555 1_555
C5 S4 1_555 1_555
P1 F1 1_555 1_555
F2 P1 1_555 1_555
F3 P1 1_555 1_555
H1 C4 1_555 1_555
H2 C4 1_555 1_555
H3 C5 1_555 1_555
H4 C5 1_555 1_555
C1A S1A 1_555 1_555
S1A C2A 1_555 1_555
C2A S3A 1_555 1_555
S3A C4A 1_555 1_555
C4A C5A 1_555 1_555
C5A S4A 1_555 1_555
S4A C3A 1_555 1_555
C3A C2A 1_555 1_555
S2A C1A 1_555 1_555
H3A C5A 1_555 1_555
H4A C5A 1_555 1_555
H1A C4A 1_555 1_555
H2A C4A 1_555 1_555
F1A P1 1_555 1_555
F2A P1 1_555 1_555
F3A P1 1_555 1_555
C2 C3 1_555 1_555
C4 C5 1_555 1_555
C3A S2A 1_555 1_555

#END
