
#######################################################################
#
#                 Cambridge Crystallographic Data Centre
#                                CCDC 
#
#######################################################################
#
# If this CIF has been generated from an entry in the Cambridge 
# Structural Database, then it will include bibliographic, chemical, 
# crystal, experimental, refinement or atomic coordinate data resulting 
# from the CCDC's data processing and validation procedures.
#
#######################################################################

data_DEGTUG
_chemical_formula_moiety         'C19 H21 N3 O1'
_chemical_name_systematic        
2-(3-(Cyclohexylamino)imidazo[1,2-a]pyridin-2-yl)phenol
_symmetry_cell_setting           monoclinic
_symmetry_space_group_name_H-M   'C c'
_symmetry_Int_Tables_number      9
_space_group_name_Hall           'C -2yc'
loop_
_symmetry_equiv_pos_site_id
_symmetry_equiv_pos_as_xyz
1 x,y,z
2 x,-y,1/2+z
3 1/2+x,1/2+y,z
4 1/2+x,1/2-y,1/2+z
_cell_length_a                   15.7987(4)
_cell_length_b                   15.6917(4)
_cell_length_c                   26.8029(7)
_cell_angle_alpha                90
_cell_angle_beta                 92.6320(10)
_cell_angle_gamma                90
_cell_volume                     6637.66
_exptl_crystal_colour            yellow
_exptl_crystal_description       irregular
_cell_formula_units_Z            16
loop_
_atom_site_label
_atom_site_type_symbol
_atom_site_fract_x
_atom_site_fract_y
_atom_site_fract_z
O1 O 0.88372(18) 0.27464(18) 0.52371(11)
H1 H 0.941(3) 0.276(3) 0.5192(14)
N1 N 0.6372(2) 0.3359(2) 0.57354(12)
N2 N 0.6314(2) 0.2111(2) 0.53384(13)
N3 N 0.7616(2) 0.4028(2) 0.54341(14)
H2 H 0.806(4) 0.384(3) 0.5321(18)
C1 C 0.5925(2) 0.2613(2) 0.56544(15)
C2 C 0.5161(3) 0.2487(3) 0.59090(16)
H3 H 0.4832 0.1985 0.5859
C3 C 0.4918(3) 0.3111(3) 0.62275(17)
H4 H 0.4413 0.3040 0.6402
C4 C 0.5405(3) 0.3861(3) 0.63013(16)
H5 H 0.5224 0.4287 0.6525
C5 C 0.6123(3) 0.3975(3) 0.60578(15)
H6 H 0.6452 0.4477 0.6110
C6 C 0.7074(2) 0.3321(3) 0.54415(15)
C7 C 0.7026(2) 0.2546(2) 0.52052(15)
C8 C 0.7588(2) 0.2166(2) 0.48379(15)
C9 C 0.8472(2) 0.2272(2) 0.48579(15)
C10 C 0.8955(3) 0.1883(3) 0.45020(17)
H7 H 0.9553 0.1954 0.4516
C11 C 0.8569(3) 0.1391(3) 0.41257(17)
H8 H 0.8901 0.1146 0.3876
C12 C 0.7710(3) 0.1257(3) 0.41132(17)
H9 H 0.7450 0.0900 0.3865
C13 C 0.7226(3) 0.1644(3) 0.44633(16)
H10 H 0.6631 0.1553 0.4450
C14 C 0.7318(3) 0.4757(2) 0.51260(16)
H11 H 0.6780 0.4969 0.5265
C15 C 0.7133(3) 0.4535(3) 0.45823(17)
H12 H 0.6696 0.4083 0.4558
H13 H 0.7654 0.4310 0.4438
C16 C 0.6826(3) 0.5305(3) 0.42834(18)
H14 H 0.6269 0.5488 0.4401
H15 H 0.6748 0.5145 0.3927
C17 C 0.7448(3) 0.6046(3) 0.43332(19)
H16 H 0.7972 0.5899 0.4163
H17 H 0.7195 0.6555 0.4167
C18 C 0.7667(3) 0.6250(3) 0.4871(2)
H18 H 0.7161 0.6492 0.5024
H19 H 0.8116 0.6691 0.4888
C19 C 0.7971(3) 0.5474(3) 0.51747(18)
H20 H 0.8519 0.5274 0.5053
H21 H 0.8060 0.5635 0.5530
O2 O 0.88959(17) -0.24117(17) 0.72366(11)
H22 H 0.881(3) -0.299(3) 0.7259(16)
N4 N 0.8265(2) 0.0108(2) 0.67887(12)
N5 N 0.9498(2) 0.01281(19) 0.72275(13)
N6 N 0.7618(2) -0.1198(2) 0.70354(14)
H23 H 0.778(3) -0.165(3) 0.7153(14)
C20 C 0.9009(2) 0.0558(3) 0.68987(15)
C21 C 0.9132(3) 0.1343(2) 0.66495(16)
H24 H 0.9626 0.1674 0.6723
C22 C 0.8532(3) 0.1618(3) 0.63035(16)
H25 H 0.8614 0.2139 0.6132
C23 C 0.7789(3) 0.1133(3) 0.61981(17)
H26 H 0.7376 0.1334 0.5958
C24 C 0.7662(3) 0.0388(2) 0.64362(16)
H27 H 0.7166 0.0062 0.6362
C25 C 0.8299(2) -0.0631(2) 0.70737(15)
C26 C 0.9067(2) -0.0613(2) 0.73366(15)
C27 C 0.9469(2) -0.1237(3) 0.76839(15)
C28 C 0.9380(2) -0.2120(2) 0.76234(15)
C29 C 0.9816(2) -0.2676(3) 0.79522(16)
H28 H 0.9757 -0.3274 0.7908
C30 C 1.0333(3) -0.2364(3) 0.83431(17)
H29 H 1.0621 -0.2747 0.8567
C31 C 1.0427(3) -0.1491(3) 0.84062(16)
H30 H 1.0781 -0.1274 0.8673
C32 C 1.0000(3) -0.0935(3) 0.80778(15)
H31 H 1.0072 -0.0338 0.8122
C33 C 0.6824(2) -0.0949(2) 0.72744(15)
H32 H 0.6573 -0.0450 0.7089
C34 C 0.6950(3) -0.0708(3) 0.78178(16)
H33 H 0.7350 -0.0223 0.7850
H34 H 0.7201 -0.1196 0.8007
C35 C 0.6105(3) -0.0461(3) 0.80383(18)
H35 H 0.5864 0.0042 0.7860
H36 H 0.6198 -0.0310 0.8395
C36 C 0.5479(3) -0.1221(3) 0.79849(17)
H37 H 0.5700 -0.1708 0.8187
H38 H 0.4924 -0.1055 0.8112
C37 C 0.5369(3) -0.1482(3) 0.74486(17)
H39 H 0.5089 -0.1013 0.7257
H40 H 0.4992 -0.1985 0.7424
C38 C 0.6213(3) -0.1699(3) 0.72133(17)
H41 H 0.6465 -0.2211 0.7377
H42 H 0.6109 -0.1828 0.6854
O3 O 0.11567(17) -0.03456(18) 0.22611(11)
H43 H 0.1469 -0.0375 0.2016
N7 N 0.3616(2) 0.0299(2) 0.17726(13)
N8 N 0.3684(2) -0.0926(2) 0.21944(13)
N9 N 0.2353(2) 0.0978(2) 0.20636(13)
H44 H 0.187(3) 0.076(2) 0.2175(13)
C39 C 0.4072(2) -0.0437(2) 0.18682(16)
C40 C 0.4824(2) -0.0564(3) 0.16138(17)
H45 H 0.5154 -0.1062 0.1673
C41 C 0.5075(3) 0.0038(3) 0.12791(17)
H46 H 0.5586 -0.0038 0.1110
C42 C 0.4574(3) 0.0769(3) 0.11873(16)
H47 H 0.4744 0.1172 0.0947
C43 C 0.3852(3) 0.0915(2) 0.14336(15)
H48 H 0.3524 0.1416 0.1376
C44 C 0.2909(2) 0.0285(2) 0.20695(15)
C45 C 0.2963(2) -0.0481(2) 0.23197(15)
C46 C 0.2397(3) -0.0853(3) 0.26893(16)
C47 C 0.1518(3) -0.0783(2) 0.26511(15)
C48 C 0.1029(3) -0.1177(3) 0.30081(17)
H49 H 0.0429 -0.1136 0.2980
C49 C 0.1410(3) -0.1624(3) 0.33984(16)
H50 H 0.1072 -0.1882 0.3641
C50 C 0.2283(3) -0.1701(3) 0.34397(17)
H51 H 0.2546 -0.2011 0.3709
C51 C 0.2764(3) -0.1324(3) 0.30864(16)
H52 H 0.3363 -0.1386 0.3113
C52 C 0.2655(2) 0.1738(2) 0.23414(16)
H53 H 0.3165 0.1961 0.2176
C53 C 0.2902(3) 0.1571(3) 0.28838(18)
H54 H 0.3352 0.1132 0.2907
H55 H 0.2405 0.1350 0.3056
C54 C 0.3221(3) 0.2389(3) 0.3143(2)
H56 H 0.3739 0.2591 0.2985
H57 H 0.3368 0.2269 0.3499
C55 C 0.2537(3) 0.3085(3) 0.31032(19)
H58 H 0.2047 0.2913 0.3297
H59 H 0.2767 0.3623 0.3247
C56 C 0.2247(3) 0.3230(3) 0.25624(19)
H60 H 0.2718 0.3486 0.2383
H61 H 0.1771 0.3641 0.2550
C57 C 0.1965(3) 0.2415(3) 0.22973(18)
H62 H 0.1829 0.2538 0.1940
H63 H 0.1444 0.2198 0.2446
O4 O 0.11066(18) 0.54348(18) 0.52676(11)
H64 H 0.111(3) 0.594(3) 0.5273(16)
N10 N 0.1782(2) 0.2914(2) 0.56682(13)
N11 N 0.0517(2) 0.2909(2) 0.52673(13)
N12 N 0.2432(2) 0.4210(2) 0.53940(14)
H65 H 0.228(3) 0.480(3) 0.5299(16)
C58 C 0.1025(3) 0.2483(2) 0.55875(16)
C59 C 0.0895(3) 0.1724(3) 0.58455(18)
H66 H 0.0382 0.1415 0.5791
C60 C 0.1507(3) 0.1429(3) 0.61743(17)
H67 H 0.1423 0.0913 0.6351
C61 C 0.2279(3) 0.1897(3) 0.62538(17)
H68 H 0.2706 0.1691 0.6484
C62 C 0.2405(3) 0.2629(3) 0.60036(16)
H69 H 0.2915 0.2943 0.6058
C63 C 0.1753(2) 0.3647(2) 0.53773(15)
C64 C 0.0954(2) 0.3639(2) 0.51368(15)
C65 C 0.0548(2) 0.4267(2) 0.47923(15)
C66 C 0.0618(2) 0.5149(3) 0.48712(15)
C67 C 0.0170(3) 0.5712(3) 0.45526(16)
H70 H 0.0203 0.6308 0.4612
C68 C -0.0318(3) 0.5408(3) 0.41528(17)
H71 H -0.0609 0.5795 0.3934
C69 C -0.0387(3) 0.4543(3) 0.40689(18)
H72 H -0.0719 0.4335 0.3791
C70 C 0.0028(3) 0.3984(3) 0.43901(17)
H73 H -0.0041 0.3389 0.4337
C71 C 0.3207(2) 0.3970(3) 0.51373(16)
H74 H 0.3440 0.3443 0.5301
C72 C 0.3078(3) 0.3786(3) 0.45872(18)
H75 H 0.2834 0.4295 0.4416
H76 H 0.2670 0.3311 0.4538
C73 C 0.3914(3) 0.3550(3) 0.43575(19)
H77 H 0.4136 0.3018 0.4512
H78 H 0.3814 0.3446 0.3995
C74 C 0.4567(3) 0.4260(3) 0.44368(18)
H79 H 0.5113 0.4079 0.4303
H80 H 0.4372 0.4776 0.4252
C75 C 0.4695(3) 0.4469(3) 0.49859(17)
H81 H 0.5084 0.4961 0.5026
H82 H 0.4964 0.3976 0.5161
C76 C 0.3857(3) 0.4681(3) 0.52265(16)
H83 H 0.3963 0.4763 0.5590
H84 H 0.3628 0.5220 0.5085
loop_
_geom_bond_atom_site_label_1
_geom_bond_atom_site_label_2
_geom_bond_site_symmetry_1
_geom_bond_site_symmetry_2
O1 H1 1_555 1_555
N1 C1 1_555 1_555
N2 C1 1_555 1_555
N3 H2 1_555 1_555
C1 C2 1_555 1_555
C2 H3 1_555 1_555
C3 C2 1_555 1_555
H4 C3 1_555 1_555
C4 C3 1_555 1_555
H5 C4 1_555 1_555
C5 N1 1_555 1_555
H6 C5 1_555 1_555
C6 N1 1_555 1_555
C7 N2 1_555 1_555
C8 C7 1_555 1_555
C9 O1 1_555 1_555
C10 C9 1_555 1_555
H7 C10 1_555 1_555
C11 C10 1_555 1_555
H8 C11 1_555 1_555
C12 C11 1_555 1_555
H9 C12 1_555 1_555
C13 C8 1_555 1_555
H10 C13 1_555 1_555
C14 N3 1_555 1_555
H11 C14 1_555 1_555
C15 C14 1_555 1_555
H12 C15 1_555 1_555
H13 C15 1_555 1_555
C16 C15 1_555 1_555
H14 C16 1_555 1_555
H15 C16 1_555 1_555
C17 C16 1_555 1_555
H16 C17 1_555 1_555
H17 C17 1_555 1_555
C18 C17 1_555 1_555
H18 C18 1_555 1_555
H19 C18 1_555 1_555
C19 C14 1_555 1_555
H20 C19 1_555 1_555
H21 C19 1_555 1_555
O2 H22 1_555 1_555
N4 C20 1_555 1_555
N5 C20 1_555 1_555
N6 H23 1_555 1_555
C20 C21 1_555 1_555
C21 H24 1_555 1_555
C22 C21 1_555 1_555
H25 C22 1_555 1_555
C23 C22 1_555 1_555
H26 C23 1_555 1_555
C24 N4 1_555 1_555
H27 C24 1_555 1_555
C25 N4 1_555 1_555
C26 N5 1_555 1_555
C27 C26 1_555 1_555
C28 O2 1_555 1_555
C29 C28 1_555 1_555
H28 C29 1_555 1_555
C30 C29 1_555 1_555
H29 C30 1_555 1_555
C31 C30 1_555 1_555
H30 C31 1_555 1_555
C32 C27 1_555 1_555
H31 C32 1_555 1_555
C33 N6 1_555 1_555
H32 C33 1_555 1_555
C34 C33 1_555 1_555
H33 C34 1_555 1_555
H34 C34 1_555 1_555
C35 C34 1_555 1_555
H35 C35 1_555 1_555
H36 C35 1_555 1_555
C36 C35 1_555 1_555
H37 C36 1_555 1_555
H38 C36 1_555 1_555
C37 C36 1_555 1_555
H39 C37 1_555 1_555
H40 C37 1_555 1_555
C38 C33 1_555 1_555
H41 C38 1_555 1_555
H42 C38 1_555 1_555
O3 H43 1_555 1_555
N7 C39 1_555 1_555
N8 C39 1_555 1_555
N9 H44 1_555 1_555
C39 C40 1_555 1_555
C40 H45 1_555 1_555
C41 C40 1_555 1_555
H46 C41 1_555 1_555
C42 C41 1_555 1_555
H47 C42 1_555 1_555
C43 N7 1_555 1_555
H48 C43 1_555 1_555
C44 N7 1_555 1_555
C45 N8 1_555 1_555
C46 C45 1_555 1_555
C47 O3 1_555 1_555
C48 C47 1_555 1_555
H49 C48 1_555 1_555
C49 C48 1_555 1_555
H50 C49 1_555 1_555
C50 C49 1_555 1_555
H51 C50 1_555 1_555
C51 C46 1_555 1_555
H52 C51 1_555 1_555
C52 N9 1_555 1_555
H53 C52 1_555 1_555
C53 C52 1_555 1_555
H54 C53 1_555 1_555
H55 C53 1_555 1_555
C54 C53 1_555 1_555
H56 C54 1_555 1_555
H57 C54 1_555 1_555
C55 C54 1_555 1_555
H58 C55 1_555 1_555
H59 C55 1_555 1_555
C56 C55 1_555 1_555
H60 C56 1_555 1_555
H61 C56 1_555 1_555
C57 C52 1_555 1_555
H62 C57 1_555 1_555
H63 C57 1_555 1_555
O4 H64 1_555 1_555
N10 C58 1_555 1_555
N11 C58 1_555 1_555
N12 H65 1_555 1_555
C58 C59 1_555 1_555
C59 H66 1_555 1_555
C60 C59 1_555 1_555
H67 C60 1_555 1_555
C61 C60 1_555 1_555
H68 C61 1_555 1_555
C62 N10 1_555 1_555
H69 C62 1_555 1_555
C63 N10 1_555 1_555
C64 N11 1_555 1_555
C65 C64 1_555 1_555
C66 O4 1_555 1_555
C67 C66 1_555 1_555
H70 C67 1_555 1_555
C68 C67 1_555 1_555
H71 C68 1_555 1_555
C69 C68 1_555 1_555
H72 C69 1_555 1_555
C70 C65 1_555 1_555
H73 C70 1_555 1_555
C71 N12 1_555 1_555
H74 C71 1_555 1_555
C72 C71 1_555 1_555
H75 C72 1_555 1_555
H76 C72 1_555 1_555
C73 C72 1_555 1_555
H77 C73 1_555 1_555
H78 C73 1_555 1_555
C74 C73 1_555 1_555
H79 C74 1_555 1_555
H80 C74 1_555 1_555
C75 C74 1_555 1_555
H81 C75 1_555 1_555
H82 C75 1_555 1_555
C76 C71 1_555 1_555
H83 C76 1_555 1_555
H84 C76 1_555 1_555
N3 C6 1_555 1_555
C4 C5 1_555 1_555
C6 C7 1_555 1_555
C8 C9 1_555 1_555
C12 C13 1_555 1_555
C18 C19 1_555 1_555
N6 C25 1_555 1_555
C23 C24 1_555 1_555
C25 C26 1_555 1_555
C27 C28 1_555 1_555
C31 C32 1_555 1_555
C37 C38 1_555 1_555
N9 C44 1_555 1_555
C42 C43 1_555 1_555
C44 C45 1_555 1_555
C46 C47 1_555 1_555
C50 C51 1_555 1_555
C56 C57 1_555 1_555
N12 C63 1_555 1_555
C61 C62 1_555 1_555
C63 C64 1_555 1_555
C65 C66 1_555 1_555
C69 C70 1_555 1_555
C75 C76 1_555 1_555

#END
