
#######################################################################
#
#                 Cambridge Crystallographic Data Centre
#                                CCDC 
#
#######################################################################
#
# If this CIF has been generated from an entry in the Cambridge 
# Structural Database, then it will include bibliographic, chemical, 
# crystal, experimental, refinement or atomic coordinate data resulting 
# from the CCDC's data processing and validation procedures.
#
#######################################################################

data_DEGVOC
_chemical_formula_moiety         'C15 H14 Cl1 N1 O1'
_chemical_name_systematic        3-(4-Chlorophenylamino)-1-phenylpropan-1-one
_symmetry_cell_setting           triclinic
_symmetry_space_group_name_H-M   'P -1'
_symmetry_Int_Tables_number      2
_space_group_name_Hall           '-P 1'
loop_
_symmetry_equiv_pos_site_id
_symmetry_equiv_pos_as_xyz
1 x,y,z
2 -x,-y,-z
_cell_length_a                   5.8416(11)
_cell_length_b                   7.5824(15)
_cell_length_c                   14.890(3)
_cell_angle_alpha                101.224(2)
_cell_angle_beta                 92.303(2)
_cell_angle_gamma                91.408(2)
_cell_volume                     646.038
_exptl_crystal_colour            colorless
_exptl_crystal_description       block
_cell_formula_units_Z            2
loop_
_atom_site_label
_atom_site_type_symbol
_atom_site_fract_x
_atom_site_fract_y
_atom_site_fract_z
Cl1 Cl 0.42992(14) 1.22442(10) 0.46385(4)
C1 C 0.9722(3) 0.5690(3) -0.18885(14)
N1 N 0.5482(3) 0.8024(3) 0.09219(13)
O1 O 1.1463(3) 0.7354(3) -0.05221(12)
C2 C 0.9723(4) 0.6631(3) -0.09154(15)
C3 C 0.6967(4) 0.9153(3) 0.24820(15)
H3 H 0.8328 0.8563 0.2355
C4 C 0.2965(4) 1.0939(3) 0.28749(16)
H4 H 0.1618 1.1546 0.3008
C5 C 0.5266(4) 0.9054(3) 0.17908(14)
C6 C 0.7930(4) 0.3779(3) -0.32171(16)
H5 H 0.6699 0.3040 -0.3491
C7 C 0.7886(4) 0.4600(3) -0.23089(15)
H6 H 0.6618 0.4424 -0.1975
C8 C 0.3263(4) 0.9971(3) 0.20087(15)
H7 H 0.2102 0.9927 0.1558
C9 C 0.7706(4) 0.7803(3) 0.05292(15)
H8 H 0.8695 0.7202 0.0905
H9 H 0.8400 0.8976 0.0522
C10 C 1.1619(4) 0.5115(3) -0.33122(18)
H10 H 1.2875 0.5294 -0.3653
C11 C 0.4673(4) 1.1003(3) 0.35430(15)
C12 C 0.6662(4) 1.0111(3) 0.33502(15)
H11 H 0.7807 1.0155 0.3807
C13 C 0.7495(4) 0.6718(3) -0.04313(14)
H12 H 0.6353 0.7243 -0.0781
H13 H 0.6962 0.5505 -0.0411
C14 C 1.1604(4) 0.5920(3) -0.24043(16)
H14 H 1.2863 0.6626 -0.2130
C15 C 0.9779(5) 0.4043(3) -0.37212(16)
H15 H 0.9790 0.3500 -0.4337
H1? H 0.4573 0.8495 0.0533
H2? H 0.4899 0.6917 0.0928
loop_
_geom_bond_atom_site_label_1
_geom_bond_atom_site_label_2
_geom_bond_site_symmetry_1
_geom_bond_site_symmetry_2
Cl1 C11 1_555 1_555
C1 C2 1_555 1_555
N1 C5 1_555 1_555
O1 C2 1_555 1_555
C2 C13 1_555 1_555
C3 H3 1_555 1_555
C4 H4 1_555 1_555
C5 C3 1_555 1_555
C6 H5 1_555 1_555
C7 C1 1_555 1_555
H6 C7 1_555 1_555
C8 C4 1_555 1_555
H7 C8 1_555 1_555
C9 N1 1_555 1_555
H8 C9 1_555 1_555
H9 C9 1_555 1_555
C10 H10 1_555 1_555
C11 C4 1_555 1_555
C12 C3 1_555 1_555
H11 C12 1_555 1_555
C13 C9 1_555 1_555
H12 C13 1_555 1_555
H13 C13 1_555 1_555
C14 C1 1_555 1_555
H14 C14 1_555 1_555
C15 C6 1_555 1_555
H15 C15 1_555 1_555
C5 C8 1_555 1_555
C6 C7 1_555 1_555
C10 C14 1_555 1_555
C10 C15 1_555 1_555
C11 C12 1_555 1_555

#END
