
#######################################################################
#
#                 Cambridge Crystallographic Data Centre
#                                CCDC 
#
#######################################################################
#
# If this CIF has been generated from an entry in the Cambridge 
# Structural Database, then it will include bibliographic, chemical, 
# crystal, experimental, refinement or atomic coordinate data resulting 
# from the CCDC's data processing and validation procedures.
#
#######################################################################

data_DEGVUI
_chemical_formula_moiety         'C25 H25 N1 O4 S1'
_chemical_name_systematic        
(4-Hydroxy-4-phenyl-1-p-tosylpiperidin-3-yl)(phenyl)methanone
_symmetry_cell_setting           triclinic
_symmetry_space_group_name_H-M   'P -1'
_symmetry_Int_Tables_number      2
_space_group_name_Hall           '-P 1'
loop_
_symmetry_equiv_pos_site_id
_symmetry_equiv_pos_as_xyz
1 x,y,z
2 -x,-y,-z
_cell_length_a                   9.832(4)
_cell_length_b                   10.740(5)
_cell_length_c                   12.729(8)
_cell_angle_alpha                109.652(7)
_cell_angle_beta                 97.463(7)
_cell_angle_gamma                111.520(5)
_cell_volume                     1127.32
_exptl_crystal_colour            colorless
_exptl_crystal_description       block
_cell_formula_units_Z            2
loop_
_atom_site_label
_atom_site_type_symbol
_atom_site_fract_x
_atom_site_fract_y
_atom_site_fract_z
C1 C 0.6985(6) 1.0207(5) 0.8291(4)
H1 H 0.7964 1.0716 0.8260
C2 C 0.5898(9) 1.0693(6) 0.8132(5)
H2 H 0.6152 1.1538 0.7997
C3 C 0.4455(8) 0.9963(7) 0.8168(5)
H3 H 0.3727 1.0296 0.8037
C4 C 0.4074(7) 0.8737(6) 0.8396(5)
H4 H 0.3098 0.8253 0.8443
C5 C 0.5152(5) 0.8227(5) 0.8556(4)
H5 H 0.4894 0.7391 0.8704
C6 C 0.6618(5) 0.8951(4) 0.8498(3)
C7 C 0.7809(5) 0.8435(4) 0.8657(3)
C8 C 0.7435(4) 0.7058(4) 0.8888(3)
H6 H 0.6348 0.6396 0.8502
C9 C 0.8369(4) 0.6219(4) 0.8418(3)
C10 C 0.7948(5) 0.4925(4) 0.8763(3)
H7 H 0.6879 0.4250 0.8370
H8 H 0.8547 0.4403 0.8504
C11 C 0.8218(5) 0.5402(5) 1.0062(3)
H9 H 0.7907 0.4546 1.0240
H10 H 0.9296 0.6026 1.0464
C12 C 0.7713(4) 0.7526(4) 1.0194(3)
H11 H 0.8777 0.8212 1.0597
H12 H 0.7091 0.8018 1.0465
C13 C 0.8947(5) 0.7689(4) 1.2768(3)
C14 C 0.9895(6) 0.7130(5) 1.3122(4)
H13 H 0.9565 0.6119 1.2851
C15 C 1.1328(6) 0.8083(7) 1.3877(4)
H14 H 1.1958 0.7699 1.4112
C16 C 1.1864(6) 0.9589(7) 1.4299(4)
C17 C 1.0905(6) 1.0129(5) 1.3918(4)
H15 H 1.1244 1.1141 1.4175
C18 C 0.9464(5) 0.9192(5) 1.3170(4)
H16 H 0.8833 0.9574 1.2932
C19 C 1.3445(7) 1.0643(8) 1.5127(5)
H17 H 1.3724 1.0227 1.5631
H18 H 1.3449 1.1560 1.5587
H19 H 1.4166 1.0810 1.4689
C20 C 0.8027(5) 0.5712(5) 0.7099(4)
C21 C 0.9154(6) 0.6234(6) 0.6601(5)
H20 H 1.0146 0.6883 0.7073
C22 C 0.8826(10) 0.5804(9) 0.5419(6)
H21 H 0.9599 0.6182 0.5104
C23 C 0.7410(11) 0.4847(9) 0.4703(5)
H22 H 0.7207 0.4571 0.3903
C24 C 0.6277(9) 0.4289(7) 0.5164(5)
H23 H 0.5299 0.3613 0.4678
C25 C 0.6593(6) 0.4736(6) 0.6371(4)
H24 H 0.5814 0.4362 0.6683
N1 N 0.7321(4) 0.6221(3) 1.0455(3)
O1 O 0.9103(4) 0.9140(3) 0.8652(3)
O2 O 0.9962(3) 0.7121(3) 0.8992(3)
H25 H 1.0201 0.7935 0.8987
O3 O 0.6161(3) 0.7209(3) 1.1943(2)
O4 O 0.6674(4) 0.5097(3) 1.1839(3)
S1 S 0.71245(12) 0.64795(11) 1.17660(9)
loop_
_geom_bond_atom_site_label_1
_geom_bond_atom_site_label_2
_geom_bond_site_symmetry_1
_geom_bond_site_symmetry_2
C1 H1 1_555 1_555
C2 C1 1_555 1_555
H2 C2 1_555 1_555
C3 C2 1_555 1_555
H3 C3 1_555 1_555
C4 C3 1_555 1_555
H4 C4 1_555 1_555
C5 C4 1_555 1_555
H5 C5 1_555 1_555
C6 C1 1_555 1_555
C7 C6 1_555 1_555
C8 C7 1_555 1_555
H6 C8 1_555 1_555
C9 C8 1_555 1_555
C10 C9 1_555 1_555
H7 C10 1_555 1_555
H8 C10 1_555 1_555
C11 C10 1_555 1_555
H9 C11 1_555 1_555
H10 C11 1_555 1_555
C12 C8 1_555 1_555
H11 C12 1_555 1_555
H12 C12 1_555 1_555
C13 C14 1_555 1_555
C14 H13 1_555 1_555
C15 C14 1_555 1_555
H14 C15 1_555 1_555
C16 C15 1_555 1_555
C17 C16 1_555 1_555
H15 C17 1_555 1_555
C18 C13 1_555 1_555
H16 C18 1_555 1_555
C19 C16 1_555 1_555
H17 C19 1_555 1_555
H18 C19 1_555 1_555
H19 C19 1_555 1_555
C20 C9 1_555 1_555
C21 C20 1_555 1_555
H20 C21 1_555 1_555
C22 C21 1_555 1_555
H21 C22 1_555 1_555
C23 C22 1_555 1_555
H22 C23 1_555 1_555
C24 C23 1_555 1_555
H23 C24 1_555 1_555
C25 C20 1_555 1_555
H24 C25 1_555 1_555
N1 C11 1_555 1_555
O1 C7 1_555 1_555
O2 C9 1_555 1_555
H25 O2 1_555 1_555
O3 S1 1_555 1_555
O4 S1 1_555 1_555
S1 C13 1_555 1_555
C5 C6 1_555 1_555
C12 N1 1_555 1_555
C17 C18 1_555 1_555
C24 C25 1_555 1_555
N1 S1 1_555 1_555

#END
