
#######################################################################
#
#                 Cambridge Crystallographic Data Centre
#                                CCDC 
#
#######################################################################
#
# If this CIF has been generated from an entry in the Cambridge 
# Structural Database, then it will include bibliographic, chemical, 
# crystal, experimental, refinement or atomic coordinate data resulting 
# from the CCDC's data processing and validation procedures.
#
#######################################################################

data_DEGXOE
_chemical_formula_moiety         'C17 H24 Cl2 O1'
_chemical_name_systematic        
cis-4-t-Butyl-1-(2,4-dichlorobenzyl)cyclohexanol
_symmetry_cell_setting           monoclinic
_symmetry_space_group_name_H-M   'P 21/c'
_symmetry_Int_Tables_number      14
_space_group_name_Hall           '-P 2ybc'
loop_
_symmetry_equiv_pos_site_id
_symmetry_equiv_pos_as_xyz
1 x,y,z
2 -x,1/2+y,1/2-z
3 -x,-y,-z
4 x,1/2-y,1/2+z
_cell_length_a                   11.895(12)
_cell_length_b                   12.704(14)
_cell_length_c                   22.58(2)
_cell_angle_alpha                90
_cell_angle_beta                 102.245(15)
_cell_angle_gamma                90
_cell_volume                     3334.53
_exptl_crystal_colour            colorless
_exptl_crystal_description       block
_cell_formula_units_Z            8
loop_
_atom_site_label
_atom_site_type_symbol
_atom_site_fract_x
_atom_site_fract_y
_atom_site_fract_z
Cl1 Cl 0.11211(4) 0.21841(3) 0.09882(2)
Cl2 Cl -0.02217(4) 0.07348(4) -0.12636(2)
O1 O 0.47278(9) 0.08017(8) 0.06827(5)
C1 C 0.22344(13) 0.05492(11) 0.05662(7)
C5 C 0.22916(13) -0.01697(12) 0.01057(7)
H5 H 0.2855 -0.0689 0.0178
C6 C 0.05969(13) 0.13503(13) -0.01180(8)
H6 H 0.0025 0.1862 -0.0191
C9 C 0.30958(13) 0.04827(12) 0.11626(7)
H8 H 0.3286 -0.0252 0.1249
H9 H 0.2735 0.0744 0.1481
C10 C 0.50718(14) 0.08675(12) 0.17838(7)
H10 H 0.4711 0.1040 0.2119
H11 H 0.5244 0.0120 0.1805
C13 C 0.13526(13) 0.12906(12) 0.04399(7)
C14 C 0.59797(13) 0.26791(12) 0.18038(7)
H16 H 0.5575 0.2868 0.2124
C17 C 0.07079(14) 0.06384(14) -0.05621(7)
C18 C 0.42249(12) 0.11017(11) 0.11854(6)
C19 C 0.70908(14) 0.33606(14) 0.19063(7)
C20 C 0.15405(14) -0.01374(13) -0.04546(7)
H18 H 0.1596 -0.0629 -0.0753
C23 C 0.61931(13) 0.14844(12) 0.18522(7)
H23 H 0.6591 0.1265 0.1540
H24 H 0.6685 0.1324 0.2242
C27 C 0.40275(13) 0.22831(11) 0.11334(7)
H27 H 0.3631 0.2509 0.1445
H28 H 0.3537 0.2441 0.0743
C28 C 0.51504(13) 0.28983(12) 0.11992(7)
H29 H 0.4980 0.3645 0.1168
H30 H 0.5519 0.2710 0.0870
C32 C 0.78052(18) 0.31898(18) 0.25455(8)
H37 H 0.8008 0.2459 0.2600
H38 H 0.7364 0.3395 0.2837
H39 H 0.8493 0.3607 0.2601
C33 C 0.78483(17) 0.3097(2) 0.14587(9)
H40 H 0.8103 0.2380 0.1515
H41 H 0.8504 0.3557 0.1527
H42 H 0.7414 0.3189 0.1052
C34 C 0.6760(2) 0.45287(16) 0.18422(12)
H43 H 0.7431 0.4953 0.1983
H44 H 0.6198 0.4678 0.2079
H45 H 0.6443 0.4686 0.1424
Cl3 Cl -0.04678(4) 0.04051(5) 0.26031(2)
Cl4 Cl 0.25873(4) 0.34828(4) 0.25731(2)
O2 O 0.51361(10) 0.36404(8) 0.45156(5)
C2 C 0.57539(13) 0.14076(11) 0.47157(7)
H1 H 0.5760 0.0770 0.4952
H2 H 0.6236 0.1923 0.4967
C3 C 0.49598(13) 0.26218(12) 0.36068(7)
H3 H 0.4975 0.3275 0.3386
H4 H 0.4470 0.2131 0.3341
C4 C 0.74724(13) 0.06755(12) 0.42988(7)
C7 C 0.44444(13) 0.28307(11) 0.41603(7)
C8 C 0.62493(12) 0.11708(11) 0.41579(6)
H7 H 0.5736 0.0654 0.3916
C11 C 0.61785(13) 0.21729(11) 0.37743(7)
H12 H 0.6688 0.2700 0.3998
H13 H 0.6443 0.2017 0.3406
C12 C 0.45257(12) 0.18279(11) 0.45392(7)
H14 H 0.4036 0.1293 0.4311
H15 H 0.4244 0.1971 0.4904
C15 C 0.23016(13) 0.25730(12) 0.36275(7)
C16 C 0.32128(13) 0.32737(12) 0.39909(7)
H17 H 0.3040 0.3946 0.4108
C21 C 0.17157(13) 0.18613(13) 0.39237(7)
H19 H 0.1905 0.1833 0.4345
C22 C 0.75388(15) -0.02224(13) 0.47567(8)
H20 H 0.6920 -0.0708 0.4619
H21 H 0.7478 0.0059 0.5143
H22 H 0.8260 -0.0582 0.4795
C24 C 0.08676(14) 0.11970(14) 0.36195(8)
H25 H 0.0503 0.0724 0.3831
C25 C 0.11038(15) 0.19510(15) 0.26765(8)
H26 H 0.0893 0.1988 0.2256
C26 C 0.19586(14) 0.25978(13) 0.29968(7)
C29 C 0.77198(16) 0.02052(15) 0.37143(9)
H31 H 0.7134 -0.0299 0.3552
H32 H 0.8457 -0.0136 0.3801
H33 H 0.7724 0.0756 0.3424
C30 C 0.05731(14) 0.12496(15) 0.29962(8)
C31 C 0.84078(15) 0.14803(14) 0.45527(9)
H34 H 0.9132 0.1126 0.4679
H35 H 0.8215 0.1833 0.4894
H36 H 0.8464 0.1987 0.4245
loop_
_geom_bond_atom_site_label_1
_geom_bond_atom_site_label_2
_geom_bond_site_symmetry_1
_geom_bond_site_symmetry_2
Cl1 C13 1_555 1_555
Cl2 C17 1_555 1_555
Cl3 C30 1_555 1_555
Cl4 C26 1_555 1_555
O1 C18 1_555 1_555
O2 C7 1_555 1_555
C1 C5 1_555 1_555
C2 H1 1_555 1_555
H2 C2 1_555 1_555
C3 H3 1_555 1_555
H4 C3 1_555 1_555
C4 C8 1_555 1_555
C5 H5 1_555 1_555
C6 H6 1_555 1_555
C7 C3 1_555 1_555
C8 C2 1_555 1_555
H7 C8 1_555 1_555
C9 C1 1_555 1_555
H8 C9 1_555 1_555
H9 C9 1_555 1_555
C10 H10 1_555 1_555
H11 C10 1_555 1_555
C11 C3 1_555 1_555
H12 C11 1_555 1_555
H13 C11 1_555 1_555
C12 C2 1_555 1_555
H14 C12 1_555 1_555
H15 C12 1_555 1_555
C13 C1 1_555 1_555
C14 H16 1_555 1_555
C15 C16 1_555 1_555
C16 C7 1_555 1_555
H17 C16 1_555 1_555
C17 C6 1_555 1_555
C18 C9 1_555 1_555
C19 C14 1_555 1_555
C20 C5 1_555 1_555
H18 C20 1_555 1_555
C21 C15 1_555 1_555
H19 C21 1_555 1_555
C22 C4 1_555 1_555
H20 C22 1_555 1_555
H21 C22 1_555 1_555
H22 C22 1_555 1_555
C23 C10 1_555 1_555
H23 C23 1_555 1_555
H24 C23 1_555 1_555
C24 C21 1_555 1_555
H25 C24 1_555 1_555
C25 H26 1_555 1_555
C26 C15 1_555 1_555
C27 C18 1_555 1_555
H27 C27 1_555 1_555
H28 C27 1_555 1_555
C28 C14 1_555 1_555
H29 C28 1_555 1_555
H30 C28 1_555 1_555
C29 C4 1_555 1_555
H31 C29 1_555 1_555
H32 C29 1_555 1_555
H33 C29 1_555 1_555
C30 C24 1_555 1_555
C31 C4 1_555 1_555
H34 C31 1_555 1_555
H35 C31 1_555 1_555
H36 C31 1_555 1_555
C32 C19 1_555 1_555
H37 C32 1_555 1_555
H38 C32 1_555 1_555
H39 C32 1_555 1_555
C33 C19 1_555 1_555
H40 C33 1_555 1_555
H41 C33 1_555 1_555
H42 C33 1_555 1_555
C34 C19 1_555 1_555
H43 C34 1_555 1_555
H44 C34 1_555 1_555
H45 C34 1_555 1_555
C6 C13 1_555 1_555
C7 C12 1_555 1_555
C8 C11 1_555 1_555
C10 C18 1_555 1_555
C14 C23 1_555 1_555
C17 C20 1_555 1_555
C25 C26 1_555 1_555
C25 C30 1_555 1_555
C27 C28 1_555 1_555

#END
