
#######################################################################
#
#                 Cambridge Crystallographic Data Centre
#                                CCDC 
#
#######################################################################
#
# If this CIF has been generated from an entry in the Cambridge 
# Structural Database, then it will include bibliographic, chemical, 
# crystal, experimental, refinement or atomic coordinate data resulting 
# from the CCDC's data processing and validation procedures.
#
#######################################################################

data_DEGXIY
_chemical_formula_moiety         'C19 H30 O2'
_chemical_name_systematic        
cis-2-((1-Benzyl-4-t-butylcyclohexyl)oxy)ethanol
_symmetry_cell_setting           monoclinic
_symmetry_space_group_name_H-M   'P 21/c'
_symmetry_Int_Tables_number      14
_space_group_name_Hall           '-P 2ybc'
loop_
_symmetry_equiv_pos_site_id
_symmetry_equiv_pos_as_xyz
1 x,y,z
2 -x,1/2+y,1/2-z
3 -x,-y,-z
4 x,1/2-y,1/2+z
_cell_length_a                   12.194(2)
_cell_length_b                   19.725(4)
_cell_length_c                   7.1971(14)
_cell_angle_alpha                90
_cell_angle_beta                 98.53(3)
_cell_angle_gamma                90
_cell_volume                     1711.95
_exptl_crystal_colour            colorless
_exptl_crystal_description       plates/blocks
_cell_formula_units_Z            4
loop_
_atom_site_label
_atom_site_type_symbol
_atom_site_fract_x
_atom_site_fract_y
_atom_site_fract_z
O1 O 0.62837(11) 0.05866(6) 0.86697(18)
C1 C 0.66259(16) 0.12421(10) 0.8028(3)
O2 O 0.46025(12) -0.04941(8) 0.7888(2)
H1 H 0.4384(7) -0.0479(13) 0.889(3)
C2 C 0.97612(17) 0.12728(10) 1.2185(3)
C3 C 0.67260(16) 0.16907(10) 0.9767(3)
H2 H 0.6028 0.1683 1.0261
H3 H 0.6860 0.2154 0.9408
C4 C 0.76521(16) 0.14731(10) 1.1311(3)
H4 H 0.7478 0.1030 1.1773
H5 H 0.7693 0.1791 1.2348
C5 C 0.77591(16) 0.11999(11) 0.7378(3)
H6 H 0.7714 0.0885 0.6335
H7 H 0.7945 0.1642 0.6922
C6 C 0.46115(17) 0.16390(11) 0.6883(3)
C7 C 0.57649(17) 0.15186(11) 0.6428(3)
H8 H 0.6042 0.1944 0.6003
H9 H 0.5712 0.1203 0.5385
C8 C 0.87808(16) 0.14419(10) 1.0625(3)
H10 H 0.8923 0.1898 1.0174
C9 C 0.86836(17) 0.09738(11) 0.8907(3)
H11 H 0.9381 0.0973 0.8411
H12 H 0.8538 0.0515 0.9287
C10 C 0.38254(18) 0.11223(11) 0.6707(3)
H13 H 0.4019 0.0692 0.6342
C11 C 0.42982(18) 0.22725(11) 0.7458(3)
H14 H 0.4814 0.2623 0.7592
C12 C 0.63352(18) 0.00201(10) 0.7439(3)
H15 H 0.7103 -0.0090 0.7366
H16 H 0.5972 0.0134 0.6186
C13 C 0.57728(18) -0.05767(11) 0.8171(3)
H17 H 0.5962 -0.0984 0.7535
H18 H 0.6036 -0.0630 0.9503
C14 C 0.27599(19) 0.12423(13) 0.7069(3)
H19 H 0.2238 0.0895 0.6934
C15 C 0.32394(19) 0.23934(13) 0.7834(3)
H20 H 0.3047 0.2821 0.8222
C16 C 0.98494(18) 0.18172(12) 1.3714(3)
H21 H 1.0524 0.1754 1.4571
H22 H 0.9227 0.1782 1.4384
H23 H 0.9853 0.2258 1.3147
C17 C 1.08612(17) 0.12832(12) 1.1384(3)
H24 H 1.1466 0.1217 1.2384
H25 H 1.0944 0.1713 1.0792
H26 H 1.0861 0.0927 1.0476
C18 C 0.96356(19) 0.05830(11) 1.3080(3)
H27 H 0.9596 0.0237 1.2135
H28 H 0.8969 0.0577 1.3642
H29 H 1.0263 0.0500 1.4028
C19 C 0.2471(2) 0.18816(14) 0.7635(3)
H30 H 0.1755 0.1963 0.7880
loop_
_geom_bond_atom_site_label_1
_geom_bond_atom_site_label_2
_geom_bond_site_symmetry_1
_geom_bond_site_symmetry_2
O1 C1 1_555 1_555
C1 C3 1_555 1_555
O2 H1 1_555 1_555
C2 C8 1_555 1_555
C3 H2 1_555 1_555
H3 C3 1_555 1_555
C4 C3 1_555 1_555
H4 C4 1_555 1_555
H5 C4 1_555 1_555
C5 C1 1_555 1_555
H6 C5 1_555 1_555
H7 C5 1_555 1_555
C6 C7 1_555 1_555
C7 C1 1_555 1_555
H8 C7 1_555 1_555
H9 C7 1_555 1_555
C8 C4 1_555 1_555
H10 C8 1_555 1_555
C9 C5 1_555 1_555
H11 C9 1_555 1_555
H12 C9 1_555 1_555
C10 C6 1_555 1_555
H13 C10 1_555 1_555
C11 C6 1_555 1_555
H14 C11 1_555 1_555
C12 O1 1_555 1_555
H15 C12 1_555 1_555
H16 C12 1_555 1_555
C13 O2 1_555 1_555
H17 C13 1_555 1_555
H18 C13 1_555 1_555
C14 C10 1_555 1_555
H19 C14 1_555 1_555
C15 C11 1_555 1_555
H20 C15 1_555 1_555
C16 C2 1_555 1_555
H21 C16 1_555 1_555
H22 C16 1_555 1_555
H23 C16 1_555 1_555
C17 C2 1_555 1_555
H24 C17 1_555 1_555
H25 C17 1_555 1_555
H26 C17 1_555 1_555
C18 C2 1_555 1_555
H27 C18 1_555 1_555
H28 C18 1_555 1_555
H29 C18 1_555 1_555
C19 C14 1_555 1_555
H30 C19 1_555 1_555
C8 C9 1_555 1_555
C12 C13 1_555 1_555
C15 C19 1_555 1_555

#END
