
#######################################################################
#
#                 Cambridge Crystallographic Data Centre
#                                CCDC 
#
#######################################################################
#
# If this CIF has been generated from an entry in the Cambridge 
# Structural Database, then it will include bibliographic, chemical, 
# crystal, experimental, refinement or atomic coordinate data resulting 
# from the CCDC's data processing and validation procedures.
#
#######################################################################

data_DEGYAS
_chemical_formula_moiety         'C12 H22 B10'
_chemical_name_systematic        
1,2-(2-cyclopentylidenecyclopent-4-ene-1,3-diyl)-1,2-dicarba-closo-dodecaborane(10)
_symmetry_cell_setting           orthorhombic
_symmetry_space_group_name_H-M   'P n a 21'
_symmetry_Int_Tables_number      33
_space_group_name_Hall           'P 2c -2n'
loop_
_symmetry_equiv_pos_site_id
_symmetry_equiv_pos_as_xyz
1 x,y,z
2 -x,-y,1/2+z
3 1/2+x,1/2-y,z
4 1/2-x,1/2+y,1/2+z
_cell_length_a                   14.502(3)
_cell_length_b                   7.5052(16)
_cell_length_c                   30.747(7)
_cell_angle_alpha                90
_cell_angle_beta                 90
_cell_angle_gamma                90
_cell_volume                     3346.52
_exptl_crystal_colour            'pale yellow'
_exptl_crystal_description       block
_cell_formula_units_Z            8
loop_
_atom_site_label
_atom_site_type_symbol
_atom_site_fract_x
_atom_site_fract_y
_atom_site_fract_z
C1 C 0.6382(4) 0.4135(8) 0.2699(2)
C2 C 0.5784(5) 0.5928(8) 0.2658(2)
C3 C 0.7387(5) 0.4885(9) 0.2780(2)
H1 H 0.7824 0.4027 0.2904
C4 C 0.7724(5) 0.5847(11) 0.2382(2)
H2 H 0.8179 0.5442 0.2193
C5 C 0.7270(5) 0.7359(11) 0.2345(4)
H3 H 0.7351 0.8219 0.2131
C6 C 0.6612(5) 0.7431(9) 0.2707(3)
H4 H 0.6401 0.8629 0.2786
C7 C 0.7208(4) 0.6489(9) 0.3055(2)
C8 C 0.7578(6) 0.7020(12) 0.3429(3)
C9 C 0.7358(8) 0.8775(12) 0.3665(3)
H5 H 0.7617 0.9783 0.3510
H6 H 0.6697 0.8942 0.3691
C10 C 0.7791(10) 0.8577(19) 0.4099(4)
H7 H 0.7335 0.8201 0.4310
H8 H 0.8048 0.9707 0.4193
C11 C 0.8545(10) 0.7196(18) 0.4062(4)
H9 H 0.9129 0.7751 0.3989
H10 H 0.8614 0.6547 0.4333
C12 C 0.8234(7) 0.5976(13) 0.3703(3)
H11 H 0.8757 0.5586 0.3531
H12 H 0.7930 0.4935 0.3823
B1 B 0.5918(6) 0.4653(13) 0.2192(3)
H13 H 0.6321 0.5026 0.1903
B2 B 0.5908(7) 0.2464(12) 0.2392(4)
H14 H 0.6308 0.1396 0.2236
B3 B 0.5778(8) 0.2533(17) 0.2978(5)
H15 H 0.6106 0.1556 0.3195
B4 B 0.5640(5) 0.4719(10) 0.3131(3)
H16 H 0.5856 0.5148 0.3457
B5 B 0.4890(6) 0.5700(13) 0.2309(3)
H17 H 0.4630 0.6774 0.2098
B6 B 0.4917(7) 0.3414(15) 0.2138(3)
H18 H 0.4658 0.2971 0.1819
B7 B 0.4805(7) 0.2085(15) 0.2623(4)
H19 H 0.4479 0.0762 0.2612
B8 B 0.4656(7) 0.3463(13) 0.3068(3)
H20 H 0.4226 0.3033 0.3344
B9 B 0.4703(6) 0.5764(13) 0.2880(3)
H21 H 0.4326 0.6873 0.3031
B10 B 0.4162(6) 0.4073(14) 0.2574(3)
H22 H 0.3409 0.4066 0.2533
C13 C 0.1159(4) 0.4176(9) 0.0718(2)
C14 C 0.1725(5) 0.5999(9) 0.0767(2)
C15 C 0.0140(4) 0.4823(9) 0.0646(2)
H23 H -0.0291 0.3958 0.0521
C16 C -0.0175(5) 0.5801(11) 0.1055(3)
H24 H -0.0623 0.5422 0.1251
C17 C 0.0321(6) 0.7322(11) 0.1077(3)
H25 H 0.0263 0.8179 0.1294
C18 C 0.1016(6) 0.7436(9) 0.0680(3)
H26 H 0.1244 0.8618 0.0597
C19 C 0.0355(5) 0.6512(9) 0.0368(2)
C20 C -0.0024(5) 0.7057(13) 0.0001(3)
C21 C -0.0672(5) 0.5990(11) -0.0288(3)
H27 H -0.0383 0.4897 -0.0387
H28 H -0.1240 0.5702 -0.0137
C22 C -0.0841(13) 0.723(3) -0.0654(5)
H29 H -0.0652 0.6650 -0.0922
H30 H -0.1498 0.7452 -0.0674
C23 C -0.0405(10) 0.8779(18) -0.0622(4)
H31 H -0.0849 0.9744 -0.0617
H32 H -0.0005 0.8946 -0.0872
C24 C 0.0160(7) 0.8799(12) -0.0210(3)
H33 H 0.0811 0.8927 -0.0275
H34 H -0.0028 0.9773 -0.0022
B11 B 0.1605(6) 0.4649(12) 0.1232(3)
H35 H 0.1205 0.4999 0.1523
B12 B 0.1600(8) 0.2453(13) 0.1024(5)
H36 H 0.1176 0.1398 0.1172
B13 B 0.1811(6) 0.2527(8) 0.0455(3)
H37 H 0.1526 0.1492 0.0240
B14 B 0.1886(6) 0.4759(12) 0.0282(3)
H38 H 0.1658 0.5176 -0.0043
B15 B 0.2648(5) 0.5697(12) 0.1116(3)
H39 H 0.2915 0.6764 0.1327
B16 B 0.2592(6) 0.3425(14) 0.1272(3)
H40 H 0.2844 0.2963 0.1590
B17 B 0.2717(7) 0.2076(16) 0.0805(4)
H41 H 0.3036 0.0747 0.0818
B18 B 0.2886(6) 0.3548(12) 0.0352(3)
H42 H 0.3319 0.3190 0.0072
B19 B 0.2832(6) 0.5760(13) 0.0554(3)
H43 H 0.3222 0.6861 0.0405
B20 B 0.3372(7) 0.4104(15) 0.0871(3)
H44 H 0.4121 0.4095 0.0928
loop_
_geom_bond_atom_site_label_1
_geom_bond_atom_site_label_2
_geom_bond_site_symmetry_1
_geom_bond_site_symmetry_2
C1 C2 1_555 1_555
C2 C6 1_555 1_555
C3 C1 1_555 1_555
H1 C3 1_555 1_555
C4 C3 1_555 1_555
H2 C4 1_555 1_555
C5 C4 1_555 1_555
H3 C5 1_555 1_555
C6 C5 1_555 1_555
H4 C6 1_555 1_555
C7 C3 1_555 1_555
C8 C7 1_555 1_555
C9 C8 1_555 1_555
H5 C9 1_555 1_555
H6 C9 1_555 1_555
C10 C9 1_555 1_555
H7 C10 1_555 1_555
H8 C10 1_555 1_555
C11 C10 1_555 1_555
H9 C11 1_555 1_555
H10 C11 1_555 1_555
C12 C8 1_555 1_555
H11 C12 1_555 1_555
H12 C12 1_555 1_555
B1 C1 1_555 1_555
H13 B1 1_555 1_555
B2 C1 1_555 1_555
H14 B2 1_555 1_555
B3 C1 1_555 1_555
H15 B3 1_555 1_555
B4 C1 1_555 1_555
H16 B4 1_555 1_555
B5 C2 1_555 1_555
H17 B5 1_555 1_555
B6 B1 1_555 1_555
H18 B6 1_555 1_555
B7 B2 1_555 1_555
H19 B7 1_555 1_555
B8 B3 1_555 1_555
H20 B8 1_555 1_555
B9 C2 1_555 1_555
H21 B9 1_555 1_555
B10 B5 1_555 1_555
H22 B10 1_555 1_555
C13 C14 1_555 1_555
C14 C18 1_555 1_555
C15 C13 1_555 1_555
H23 C15 1_555 1_555
C16 C15 1_555 1_555
H24 C16 1_555 1_555
C17 C16 1_555 1_555
H25 C17 1_555 1_555
C18 C17 1_555 1_555
H26 C18 1_555 1_555
C19 C15 1_555 1_555
C20 C19 1_555 1_555
C21 C20 1_555 1_555
H27 C21 1_555 1_555
H28 C21 1_555 1_555
C22 C21 1_555 1_555
H29 C22 1_555 1_555
H30 C22 1_555 1_555
C23 C22 1_555 1_555
H31 C23 1_555 1_555
H32 C23 1_555 1_555
C24 C20 1_555 1_555
H33 C24 1_555 1_555
H34 C24 1_555 1_555
B11 C13 1_555 1_555
H35 B11 1_555 1_555
B12 C13 1_555 1_555
H36 B12 1_555 1_555
B13 C13 1_555 1_555
H37 B13 1_555 1_555
B14 C13 1_555 1_555
H38 B14 1_555 1_555
B15 C14 1_555 1_555
H39 B15 1_555 1_555
B16 B11 1_555 1_555
H40 B16 1_555 1_555
B17 B12 1_555 1_555
H41 B17 1_555 1_555
B18 B13 1_555 1_555
H42 B18 1_555 1_555
B19 C14 1_555 1_555
H43 B19 1_555 1_555
B20 B15 1_555 1_555
H44 B20 1_555 1_555
C2 B1 1_555 1_555
C2 B4 1_555 1_555
C6 C7 1_555 1_555
C11 C12 1_555 1_555
B1 B2 1_555 1_555
B1 B5 1_555 1_555
B2 B3 1_555 1_555
B2 B6 1_555 1_555
B3 B4 1_555 1_555
B3 B7 1_555 1_555
B4 B8 1_555 1_555
B4 B9 1_555 1_555
B5 B6 1_555 1_555
B5 B9 1_555 1_555
B6 B7 1_555 1_555
B6 B10 1_555 1_555
B7 B8 1_555 1_555
B7 B10 1_555 1_555
B8 B9 1_555 1_555
B8 B10 1_555 1_555
B9 B10 1_555 1_555
C14 B11 1_555 1_555
C14 B14 1_555 1_555
C18 C19 1_555 1_555
C23 C24 1_555 1_555
B11 B12 1_555 1_555
B11 B15 1_555 1_555
B12 B13 1_555 1_555
B12 B16 1_555 1_555
B13 B14 1_555 1_555
B13 B17 1_555 1_555
B14 B18 1_555 1_555
B14 B19 1_555 1_555
B15 B16 1_555 1_555
B15 B19 1_555 1_555
B16 B17 1_555 1_555
B16 B20 1_555 1_555
B17 B18 1_555 1_555
B17 B20 1_555 1_555
B18 B19 1_555 1_555
B18 B20 1_555 1_555
B19 B20 1_555 1_555

#END
