
#######################################################################
#
#                 Cambridge Crystallographic Data Centre
#                                CCDC 
#
#######################################################################
#
# If this CIF has been generated from an entry in the Cambridge 
# Structural Database, then it will include bibliographic, chemical, 
# crystal, experimental, refinement or atomic coordinate data resulting 
# from the CCDC's data processing and validation procedures.
#
#######################################################################

data_DEGZAT
_chemical_formula_moiety         'C16 H25 B10 N3'
_chemical_name_systematic        
1,2-(1-phenyl-5-(propan-2-ylidene)-1,3a,4,5,6,6a-hexahydrocyclopenta[d][1,2,3]triazole-4,6-diyl)-1,2-dicarba-closo-dodecaborane(10)
_symmetry_cell_setting           monoclinic
_symmetry_space_group_name_H-M   'C 2/c'
_symmetry_Int_Tables_number      15
_space_group_name_Hall           '-C 2yn'
loop_
_symmetry_equiv_pos_site_id
_symmetry_equiv_pos_as_xyz
1 x,y,z
2 -x,y,1/2-z
3 1/2+x,1/2+y,z
4 1/2-x,1/2+y,1/2-z
5 -x,-y,-z
6 x,-y,1/2+z
7 1/2-x,1/2-y,-z
8 1/2+x,1/2-y,1/2+z
_cell_length_a                   32.3470(11)
_cell_length_b                   7.1850(2)
_cell_length_c                   22.7006(8)
_cell_angle_alpha                90
_cell_angle_beta                 128.3776(13)
_cell_angle_gamma                90
_cell_volume                     4135.98
_exptl_crystal_colour            colorless
_exptl_crystal_description       block
_cell_formula_units_Z            8
loop_
_atom_site_label
_atom_site_type_symbol
_atom_site_fract_x
_atom_site_fract_y
_atom_site_fract_z
C1 C 0.19624(7) 0.2045(3) 0.32150(10)
C2 C 0.16862(7) 0.0019(3) 0.29142(10)
C3 C 0.14870(8) 0.3389(3) 0.27167(11)
H1 H 0.1581 0.4653 0.2676
C4 C 0.11342(7) 0.2334(3) 0.19743(11)
C5 C 0.10994(7) 0.0519(3) 0.22874(11)
H2 H 0.0891 -0.0461 0.1913
C6 C 0.08517(8) 0.2929(3) 0.12717(13)
C7 C 0.08704(11) 0.4890(4) 0.10628(16)
H3 H 0.0635 0.5015 0.0526
H4 H 0.0764 0.5729 0.1276
H5 H 0.1223 0.5183 0.1253
C8 C 0.04793(11) 0.1667(4) 0.06161(14)
H6 H 0.0312 0.2349 0.0156
H7 H 0.0672 0.0640 0.0624
H8 H 0.0216 0.1208 0.0650
C9 C 0.11180(8) 0.3285(3) 0.29325(13)
H9 H 0.1308 0.3442 0.3473
C10 C 0.08528(8) 0.1329(3) 0.26429(12)
H10 H 0.0902 0.0536 0.3034
C11 C -0.01273(8) 0.0755(3) 0.15786(13)
C12 C -0.06109(9) 0.1505(4) 0.09750(14)
H11 H -0.0644 0.2777 0.0880
C13 C -0.10390(10) 0.0344(4) 0.05207(15)
H12 H -0.1362 0.0846 0.0123
C14 C -0.09961(10) -0.1530(4) 0.06451(16)
H13 H -0.1288 -0.2296 0.0336
C15 C -0.05185(10) -0.2280(4) 0.12302(15)
H14 H -0.0488 -0.3558 0.1313
C16 C -0.00826(8) -0.1151(3) 0.16961(13)
H15 H 0.0240 -0.1669 0.2087
N1 N 0.06826(8) 0.4638(3) 0.24781(13)
N2 N 0.02539(8) 0.3795(3) 0.20180(13)
N3 N 0.03079(7) 0.1909(3) 0.20684(12)
B1 B 0.20728(8) 0.0789(3) 0.26637(12)
H16 H 0.1924 0.1167 0.2093
B2 B 0.25827(8) 0.2074(3) 0.34506(12)
H17 H 0.2760 0.3296 0.3393
B3 B 0.24967(9) 0.1996(3) 0.41502(12)
H18 H 0.2618 0.3176 0.4535
B4 B 0.19384(9) 0.0652(3) 0.38270(12)
H19 H 0.1704 0.0940 0.4017
B5 B 0.20892(9) -0.1546(3) 0.29122(13)
H20 H 0.1945 -0.2682 0.2502
B6 B 0.26802(9) -0.0264(3) 0.32820(14)
H21 H 0.2932 -0.0579 0.3123
B7 B 0.29538(9) 0.0460(3) 0.42081(13)
H22 H 0.3382 0.0618 0.4647
B8 B 0.25476(10) -0.0401(4) 0.44218(13)
H23 H 0.2715 -0.0806 0.4998
B9 B 0.20016(9) -0.1623(3) 0.36096(13)
H24 H 0.1800 -0.2804 0.3642
B10 B 0.26466(9) -0.1786(3) 0.38719(13)
H25 H 0.2874 -0.3089 0.4091
loop_
_geom_bond_atom_site_label_1
_geom_bond_atom_site_label_2
_geom_bond_site_symmetry_1
_geom_bond_site_symmetry_2
C1 C2 1_555 1_555
C2 C5 1_555 1_555
C3 C1 1_555 1_555
H1 C3 1_555 1_555
C4 C3 1_555 1_555
C5 C4 1_555 1_555
H2 C5 1_555 1_555
C6 C4 1_555 1_555
C7 C6 1_555 1_555
H3 C7 1_555 1_555
H4 C7 1_555 1_555
H5 C7 1_555 1_555
C8 C6 1_555 1_555
H6 C8 1_555 1_555
H7 C8 1_555 1_555
H8 C8 1_555 1_555
C9 C3 1_555 1_555
H9 C9 1_555 1_555
C10 C5 1_555 1_555
H10 C10 1_555 1_555
C11 C12 1_555 1_555
C12 H11 1_555 1_555
C13 C12 1_555 1_555
H12 C13 1_555 1_555
C14 C13 1_555 1_555
H13 C14 1_555 1_555
C15 C14 1_555 1_555
H14 C15 1_555 1_555
C16 C11 1_555 1_555
H15 C16 1_555 1_555
N1 C9 1_555 1_555
N2 N1 1_555 1_555
N3 C10 1_555 1_555
B1 C1 1_555 1_555
H16 B1 1_555 1_555
B2 C1 1_555 1_555
H17 B2 1_555 1_555
B3 C1 1_555 1_555
H18 B3 1_555 1_555
B4 C1 1_555 1_555
H19 B4 1_555 1_555
B5 C2 1_555 1_555
H20 B5 1_555 1_555
B6 B1 1_555 1_555
H21 B6 1_555 1_555
B7 B2 1_555 1_555
H22 B7 1_555 1_555
B8 B3 1_555 1_555
H23 B8 1_555 1_555
B9 C2 1_555 1_555
H24 B9 1_555 1_555
B10 B5 1_555 1_555
H25 B10 1_555 1_555
C2 B1 1_555 1_555
C2 B4 1_555 1_555
C9 C10 1_555 1_555
C11 N3 1_555 1_555
C15 C16 1_555 1_555
N2 N3 1_555 1_555
B1 B2 1_555 1_555
B1 B5 1_555 1_555
B2 B3 1_555 1_555
B2 B6 1_555 1_555
B3 B4 1_555 1_555
B3 B7 1_555 1_555
B4 B8 1_555 1_555
B4 B9 1_555 1_555
B5 B6 1_555 1_555
B5 B9 1_555 1_555
B6 B7 1_555 1_555
B6 B10 1_555 1_555
B7 B8 1_555 1_555
B7 B10 1_555 1_555
B8 B9 1_555 1_555
B8 B10 1_555 1_555
B9 B10 1_555 1_555

#END
