
#######################################################################
#
#                 Cambridge Crystallographic Data Centre
#                                CCDC 
#
#######################################################################
#
# If this CIF has been generated from an entry in the Cambridge 
# Structural Database, then it will include bibliographic, chemical, 
# crystal, experimental, refinement or atomic coordinate data resulting 
# from the CCDC's data processing and validation procedures.
#
#######################################################################

data_DEGZAS
_chemical_formula_moiety         'C21 H30 N2 O4 S1'
_chemical_name_systematic        
N-(3-Amino-2-hydroxy-4-phenylbutyl)-N-isobutyl-4-methoxybenzenesulfonamide
_symmetry_cell_setting           monoclinic
_symmetry_space_group_name_H-M   'P 21'
_symmetry_Int_Tables_number      4
_space_group_name_Hall           'P 2yb'
loop_
_symmetry_equiv_pos_site_id
_symmetry_equiv_pos_as_xyz
1 x,y,z
2 -x,1/2+y,-z
_cell_length_a                   5.7615(16)
_cell_length_b                   8.292(2)
_cell_length_c                   22.091(6)
_cell_angle_alpha                90
_cell_angle_beta                 96.821(5)
_cell_angle_gamma                90
_cell_volume                     1047.91
_cell_formula_units_Z            2
loop_
_atom_site_label
_atom_site_type_symbol
_atom_site_fract_x
_atom_site_fract_y
_atom_site_fract_z
C1 C -0.0558(7) 0.3117(7) 1.08299(18)
H1 H -0.1906 0.2923 1.0540
H2 H -0.0119 0.4232 1.0814
H3 H -0.0919 0.2861 1.1232
S1 S 0.51859(11) 0.25283(9) 0.83320(3)
O1 O 0.1668(4) -0.2451(3) 0.75151(11)
O2 O 0.1321(5) 0.2135(4) 1.06872(11)
C2 C 0.3942(5) 0.2439(4) 0.90305(13)
C3 C 0.5187(5) -0.1230(4) 0.72388(14)
O3 O 0.5704(4) 0.4172(3) 0.82117(11)
N1 N 0.3210(4) 0.1893(3) 0.77920(11)
C4 C 0.2094(5) 0.3428(5) 0.91287(15)
H4 H 0.1487 0.4145 0.8827
N2 N 0.6648(4) -0.2022(4) 0.77352(11)
H5 H 0.7380 -0.2895 0.7668
H6 H 0.6780 -0.1615 0.8096
O4 O 0.7046(3) 0.1370(3) 0.83831(10)
C5 C 0.2651(5) -0.0936(4) 0.73638(13)
C6 C 0.2080(6) 0.2309(5) 1.01253(14)
C7 C 0.2382(5) 0.0229(4) 0.78852(14)
C8 C 0.4341(5) -0.1378(4) 0.60751(14)
C9 C 0.2132(6) -0.1693(6) 0.57889(17)
H7 H 0.1182 -0.2429 0.5960
C10 C 0.1359(5) 0.3079(4) 0.75603(13)
H8 H 0.2034 0.4152 0.7579
H9 H 0.0136 0.3062 0.7826
C11 C 0.0278(5) 0.2753(4) 0.69135(14)
C12 C 0.4844(5) 0.1384(5) 0.94788(15)
H10 H 0.6078 0.0711 0.9411
C13 C 0.3939(6) 0.1315(5) 1.00252(16)
H11 H 0.4567 0.0607 1.0328
C14 C 0.1134(5) 0.3356(5) 0.96784(15)
H12 H -0.0128 0.4006 0.9743
C15 C 0.5685(7) -0.0266(5) 0.58101(17)
H13 H 0.7178 -0.0030 0.5997
C16 C -0.1649(6) 0.3995(6) 0.67543(18)
H14 H -0.0980 0.5057 0.6767
H15 H -0.2765 0.3927 0.7043
H16 H -0.2417 0.3785 0.6352
C17 C 0.2022(7) 0.2801(6) 0.64579(16)
H17 H 0.2639 0.3873 0.6439
H18 H 0.1267 0.2498 0.6063
H19 H 0.3273 0.2062 0.6580
C18 C 0.5294(6) -0.2216(4) 0.66602(13)
H20 H 0.6910 -0.2507 0.6634
H21 H 0.4426 -0.3208 0.6694
C19 C 0.1310(8) -0.0930(8) 0.5250(2)
H22 H -0.0179 -0.1164 0.5060
C20 C 0.2653(11) 0.0153(8) 0.4999(2)
H23 H 0.2081 0.0666 0.4637
C21 C 0.4866(10) 0.0505(7) 0.5274(2)
H24 H 0.5795 0.1252 0.5101
H25 H 0.183(4) -0.054(4) 0.6994(12)
H26 H -0.055(5) 0.169(5) 0.6896(14)
H27 H 0.075(4) 0.032(3) 0.7943(11)
H28 H 0.312(5) -0.021(4) 0.8243(14)
H29 H 0.588(5) -0.024(4) 0.7194(12)
H30 H 0.014(6) -0.216(5) 0.7569(15)
loop_
_geom_bond_atom_site_label_1
_geom_bond_atom_site_label_2
_geom_bond_site_symmetry_1
_geom_bond_site_symmetry_2
C1 H1 1_555 1_555
H2 C1 1_555 1_555
H3 C1 1_555 1_555
S1 C2 1_555 1_555
O1 C5 1_555 1_555
O2 C1 1_555 1_555
C2 C4 1_555 1_555
C3 N2 1_555 1_555
O3 S1 1_555 1_555
N1 S1 1_555 1_555
C4 H4 1_555 1_555
N2 H5 1_555 1_555
H6 N2 1_555 1_555
O4 S1 1_555 1_555
C5 C3 1_555 1_555
C6 O2 1_555 1_555
C7 N1 1_555 1_555
C8 C9 1_555 1_555
C9 H7 1_555 1_555
C10 N1 1_555 1_555
H8 C10 1_555 1_555
H9 C10 1_555 1_555
C11 C10 1_555 1_555
C12 C2 1_555 1_555
H10 C12 1_555 1_555
C13 C6 1_555 1_555
H11 C13 1_555 1_555
C14 C4 1_555 1_555
H12 C14 1_555 1_555
C15 C8 1_555 1_555
H13 C15 1_555 1_555
C16 C11 1_555 1_555
H14 C16 1_555 1_555
H15 C16 1_555 1_555
H16 C16 1_555 1_555
C17 C11 1_555 1_555
H17 C17 1_555 1_555
H18 C17 1_555 1_555
H19 C17 1_555 1_555
C18 C3 1_555 1_555
H20 C18 1_555 1_555
H21 C18 1_555 1_555
C19 C9 1_555 1_555
H22 C19 1_555 1_555
C20 C19 1_555 1_555
H23 C20 1_555 1_555
C21 C15 1_555 1_555
H24 C21 1_555 1_555
H25 C5 1_555 1_555
H26 C11 1_555 1_555
H27 C7 1_555 1_555
H28 C7 1_555 1_555
H29 C3 1_555 1_555
H30 O1 1_555 1_555
C5 C7 1_555 1_555
C6 C14 1_555 1_555
C8 C18 1_555 1_555
C12 C13 1_555 1_555
C20 C21 1_555 1_555

#END
