
#######################################################################
#
#                 Cambridge Crystallographic Data Centre
#                                CCDC 
#
#######################################################################
#
# If this CIF has been generated from an entry in the Cambridge 
# Structural Database, then it will include bibliographic, chemical, 
# crystal, experimental, refinement or atomic coordinate data resulting 
# from the CCDC's data processing and validation procedures.
#
#######################################################################

data_DEGZEX
_chemical_formula_moiety         'C10 H20 B10 O1'
_chemical_name_systematic        
1,2-(3-(propan-2-ylidene)-6-oxabicyclo[3.1.0]hexane-2,4-diyl)-1,2-dicarba-closo-dodecaborane(10)
_symmetry_cell_setting           monoclinic
_symmetry_space_group_name_H-M   'P 21/n'
_symmetry_Int_Tables_number      14
_space_group_name_Hall           '-P 2yn'
loop_
_symmetry_equiv_pos_site_id
_symmetry_equiv_pos_as_xyz
1 x,y,z
2 1/2-x,1/2+y,1/2-z
3 -x,-y,-z
4 1/2+x,1/2-y,1/2+z
_cell_length_a                   12.324(2)
_cell_length_b                   8.9317(13)
_cell_length_c                   14.570(2)
_cell_angle_alpha                90
_cell_angle_beta                 111.421(5)
_cell_angle_gamma                90
_cell_volume                     1493
_exptl_crystal_colour            colorless
_exptl_crystal_description       block
_cell_formula_units_Z            4
loop_
_atom_site_label
_atom_site_type_symbol
_atom_site_fract_x
_atom_site_fract_y
_atom_site_fract_z
O1 O 0.64176(19) 0.7613(2) 0.20485(17)
C1 C 0.4326(2) 0.4699(3) 0.20458(18)
C2 C 0.5564(2) 0.3808(3) 0.24363(19)
C3 C 0.4717(2) 0.6368(3) 0.22718(19)
H1 H 0.4117 0.7065 0.2303
C4 C 0.5785(2) 0.6214(3) 0.3213(2)
C5 C 0.6461(2) 0.5110(3) 0.2831(2)
H2 H 0.7231 0.4822 0.3300
C6 C 0.6083(2) 0.6961(3) 0.4051(2)
C7 C 0.5300(3) 0.8109(4) 0.4243(2)
H3 H 0.5675 0.8520 0.4892
H4 H 0.5145 0.8895 0.3763
H5 H 0.4580 0.7645 0.4199
C8 C 0.7223(3) 0.6711(4) 0.4887(2)
H6 H 0.7271 0.7360 0.5425
H7 H 0.7272 0.5687 0.5099
H8 H 0.7854 0.6925 0.4670
C9 C 0.5346(3) 0.6818(3) 0.1575(2)
H9 H 0.4909 0.6939 0.0866
C10 C 0.6451(3) 0.6016(3) 0.1926(2)
H10 H 0.6770 0.5588 0.1459
B1 B 0.4677(3) 0.3662(3) 0.3137(2)
H11 H 0.4877 0.4140 0.3876
B2 B 0.3253(3) 0.3681(3) 0.2265(2)
H12 H 0.2531 0.4190 0.2428
B3 B 0.3305(3) 0.3791(4) 0.1067(2)
H13 H 0.2618 0.4372 0.0467
B4 B 0.4772(3) 0.3823(4) 0.1171(2)
H14 H 0.5036 0.4408 0.0621
B5 B 0.5452(3) 0.2116(3) 0.2954(2)
H15 H 0.6167 0.1604 0.3567
B6 B 0.3951(3) 0.1980(3) 0.2816(2)
H16 H 0.3673 0.1347 0.3340
B7 B 0.3087(3) 0.2024(4) 0.1545(2)
H17 H 0.2249 0.1429 0.1244
B8 B 0.4040(3) 0.2146(4) 0.0884(2)
H18 H 0.3819 0.1626 0.0154
B9 B 0.5507(3) 0.2213(4) 0.1760(3)
H19 H 0.6257 0.1761 0.1613
B10 B 0.4447(3) 0.1054(3) 0.1969(3)
H20 H 0.4495 -0.0174 0.1944
loop_
_geom_bond_atom_site_label_1
_geom_bond_atom_site_label_2
_geom_bond_site_symmetry_1
_geom_bond_site_symmetry_2
O1 C9 1_555 1_555
C1 C2 1_555 1_555
C2 C5 1_555 1_555
C3 C1 1_555 1_555
H1 C3 1_555 1_555
C4 C3 1_555 1_555
C5 C4 1_555 1_555
H2 C5 1_555 1_555
C6 C4 1_555 1_555
C7 C6 1_555 1_555
H3 C7 1_555 1_555
H4 C7 1_555 1_555
H5 C7 1_555 1_555
C8 C6 1_555 1_555
H6 C8 1_555 1_555
H7 C8 1_555 1_555
H8 C8 1_555 1_555
C9 C3 1_555 1_555
H9 C9 1_555 1_555
C10 O1 1_555 1_555
H10 C10 1_555 1_555
B1 C1 1_555 1_555
H11 B1 1_555 1_555
B2 C1 1_555 1_555
H12 B2 1_555 1_555
B3 C1 1_555 1_555
H13 B3 1_555 1_555
B4 C1 1_555 1_555
H14 B4 1_555 1_555
B5 C2 1_555 1_555
H15 B5 1_555 1_555
B6 B1 1_555 1_555
H16 B6 1_555 1_555
B7 B2 1_555 1_555
H17 B7 1_555 1_555
B8 B3 1_555 1_555
H18 B8 1_555 1_555
B9 C2 1_555 1_555
H19 B9 1_555 1_555
B10 B5 1_555 1_555
H20 B10 1_555 1_555
C2 B1 1_555 1_555
C2 B4 1_555 1_555
C5 C10 1_555 1_555
C9 C10 1_555 1_555
B1 B2 1_555 1_555
B1 B5 1_555 1_555
B2 B3 1_555 1_555
B2 B6 1_555 1_555
B3 B4 1_555 1_555
B3 B7 1_555 1_555
B4 B8 1_555 1_555
B4 B9 1_555 1_555
B5 B6 1_555 1_555
B5 B9 1_555 1_555
B6 B7 1_555 1_555
B6 B10 1_555 1_555
B7 B8 1_555 1_555
B7 B10 1_555 1_555
B8 B9 1_555 1_555
B8 B10 1_555 1_555
B9 B10 1_555 1_555

#END
