
#######################################################################
#
#                 Cambridge Crystallographic Data Centre
#                                CCDC 
#
#######################################################################
#
# If this CIF has been generated from an entry in the Cambridge 
# Structural Database, then it will include bibliographic, chemical, 
# crystal, experimental, refinement or atomic coordinate data resulting 
# from the CCDC's data processing and validation procedures.
#
#######################################################################

data_DEHCOK
_chemical_formula_moiety         'C31 H27 Br1 N2 O2'
_chemical_name_systematic        
'Methyl 3-anilino-3-(4-bromophenyl)-2-(1-methyl-1H-indol-3-yl)-2-phenylpropanoate'
_symmetry_cell_setting           orthorhombic
_symmetry_space_group_name_H-M   'P 21 21 21'
_symmetry_Int_Tables_number      19
_space_group_name_Hall           'P 2ac 2ab'
loop_
_symmetry_equiv_pos_site_id
_symmetry_equiv_pos_as_xyz
1 x,y,z
2 1/2-x,-y,1/2+z
3 -x,1/2+y,1/2-z
4 1/2+x,1/2-y,-z
_cell_length_a                   9.535(3)
_cell_length_b                   9.832(3)
_cell_length_c                   28.366(8)
_cell_angle_alpha                90
_cell_angle_beta                 90
_cell_angle_gamma                90
_cell_volume                     2659.26
_exptl_crystal_colour            colorless
_exptl_crystal_description       block
_cell_formula_units_Z            4
loop_
_atom_site_label
_atom_site_type_symbol
_atom_site_fract_x
_atom_site_fract_y
_atom_site_fract_z
Br1 Br 0.93384(3) 0.01008(3) 0.152113(14)
O1 O 0.3821(2) 0.3915(2) 0.24549(6)
O2 O 0.3191(3) 0.1831(2) 0.22325(7)
N1 N 0.2273(3) 0.0873(2) 0.08490(9)
N2 N 0.4309(2) 0.4916(2) 0.10333(7)
H1 H 0.3609 0.4647 0.0867
C1 C 0.1376(3) 0.1815(3) 0.06598(10)
C2 C 0.0460(4) 0.1700(4) 0.02792(11)
H2 H 0.0405 0.0899 0.0105
C3 C -0.0355(4) 0.2792(4) 0.01690(11)
H3 H -0.0972 0.2740 -0.0084
C4 C -0.0273(4) 0.3984(4) 0.04304(11)
H4 H -0.0844 0.4714 0.0350
C5 C 0.0635(3) 0.4111(3) 0.08079(9)
H5 H 0.0678 0.4921 0.0976
C6 C 0.1486(3) 0.3016(3) 0.09337(9)
C7 C 0.2489(3) 0.2735(3) 0.13028(9)
C8 C 0.2913(3) 0.1426(3) 0.12321(10)
H6 H 0.3557 0.0971 0.1421
C9 C 0.2429(4) -0.0533(3) 0.06892(13)
H7 H 0.3125 -0.0983 0.0878
H8 H 0.2716 -0.0541 0.0365
H9 H 0.1549 -0.0999 0.0720
C10 C 0.2276(3) 0.6211(3) 0.17407(9)
H10 H 0.3143 0.6505 0.1631
C11 C 0.1257(3) 0.7153(3) 0.18615(10)
H11 H 0.1446 0.8077 0.1829
C12 C -0.0033(4) 0.6742(3) 0.20287(11)
H12 H -0.0716 0.7379 0.2107
C13 C -0.0292(3) 0.5377(3) 0.20782(10)
H13 H -0.1150 0.5088 0.2198
C14 C 0.0700(3) 0.4433(3) 0.19525(9)
H14 H 0.0497 0.3511 0.1981
C15 C 0.2007(2) 0.4835(3) 0.17835(8)
C16 C 0.3078(3) 0.3711(2) 0.16659(8)
C17 C 0.4522(2) 0.4308(2) 0.14922(8)
H15 H 0.4785 0.5039 0.1710
C18 C 0.5712(2) 0.3272(2) 0.14918(9)
C19 C 0.6490(3) 0.3048(3) 0.18926(9)
H16 H 0.6296 0.3553 0.2162
C20 C 0.7556(3) 0.2087(3) 0.19047(10)
H17 H 0.8055 0.1924 0.2181
C21 C 0.7852(3) 0.1389(3) 0.15029(12)
C22 C 0.7138(3) 0.1613(3) 0.10991(11)
H18 H 0.7373 0.1139 0.0827
C23 C 0.6065(3) 0.2544(3) 0.10926(9)
H19 H 0.5568 0.2687 0.0815
C24 C 0.5173(3) 0.5905(3) 0.08509(10)
C25 C 0.6449(4) 0.6250(4) 0.10561(13)
H20 H 0.6750 0.5787 0.1323
C26 C 0.7267(6) 0.7257(5) 0.08723(18)
H21 H 0.8120 0.7474 0.1012
C27 C 0.6814(9) 0.7953(5) 0.0475(2)
H22 H 0.7355 0.8659 0.0355
C28 C 0.5588(8) 0.7614(5) 0.02607(17)
H23 H 0.5308 0.8069 -0.0011
C29 C 0.4754(4) 0.6588(3) 0.04472(12)
H24 H 0.3914 0.6360 0.0301
C30 C 0.3365(3) 0.3007(3) 0.21418(10)
C31 C 0.4135(4) 0.3420(4) 0.29202(10)
H25 H 0.4456 0.4159 0.3113
H26 H 0.4854 0.2738 0.2901
H27 H 0.3306 0.3031 0.3057
loop_
_geom_bond_atom_site_label_1
_geom_bond_atom_site_label_2
_geom_bond_site_symmetry_1
_geom_bond_site_symmetry_2
Br1 C21 1_555 1_555
O1 C30 1_555 1_555
O2 C30 1_555 1_555
N1 C1 1_555 1_555
N2 H1 1_555 1_555
C1 C2 1_555 1_555
C2 H2 1_555 1_555
C3 C2 1_555 1_555
H3 C3 1_555 1_555
C4 C3 1_555 1_555
H4 C4 1_555 1_555
C5 C4 1_555 1_555
H5 C5 1_555 1_555
C6 C1 1_555 1_555
C7 C6 1_555 1_555
C8 N1 1_555 1_555
H6 C8 1_555 1_555
C9 N1 1_555 1_555
H7 C9 1_555 1_555
H8 C9 1_555 1_555
H9 C9 1_555 1_555
C10 H10 1_555 1_555
C11 C10 1_555 1_555
H11 C11 1_555 1_555
C12 C11 1_555 1_555
H12 C12 1_555 1_555
C13 C12 1_555 1_555
H13 C13 1_555 1_555
C14 C13 1_555 1_555
H14 C14 1_555 1_555
C15 C10 1_555 1_555
C16 C7 1_555 1_555
C17 N2 1_555 1_555
H15 C17 1_555 1_555
C18 C17 1_555 1_555
C19 C18 1_555 1_555
H16 C19 1_555 1_555
C20 C19 1_555 1_555
H17 C20 1_555 1_555
C21 C20 1_555 1_555
C22 C21 1_555 1_555
H18 C22 1_555 1_555
C23 C18 1_555 1_555
H19 C23 1_555 1_555
C24 N2 1_555 1_555
C25 C24 1_555 1_555
H20 C25 1_555 1_555
C26 C25 1_555 1_555
H21 C26 1_555 1_555
C27 C26 1_555 1_555
H22 C27 1_555 1_555
C28 C27 1_555 1_555
H23 C28 1_555 1_555
C29 C24 1_555 1_555
H24 C29 1_555 1_555
C30 C16 1_555 1_555
C31 O1 1_555 1_555
H25 C31 1_555 1_555
H26 C31 1_555 1_555
H27 C31 1_555 1_555
C5 C6 1_555 1_555
C7 C8 1_555 1_555
C14 C15 1_555 1_555
C15 C16 1_555 1_555
C16 C17 1_555 1_555
C22 C23 1_555 1_555
C28 C29 1_555 1_555

#END
