
#######################################################################
#
#                 Cambridge Crystallographic Data Centre
#                                CCDC 
#
#######################################################################
#
# If this CIF has been generated from an entry in the Cambridge 
# Structural Database, then it will include bibliographic, chemical, 
# crystal, experimental, refinement or atomic coordinate data resulting 
# from the CCDC's data processing and validation procedures.
#
#######################################################################

data_DEHCUQ
_chemical_formula_moiety         'C24 H23 Cl1 N2 O1'
_chemical_name_systematic        
3-(((4-Chlorophenyl)amino)(phenyl)methyl)-3-ethyl-1-methyl-1,3-dihydro-2H-indol-2-one
_symmetry_cell_setting           monoclinic
_symmetry_space_group_name_H-M   'P 21'
_symmetry_Int_Tables_number      4
_space_group_name_Hall           'P 2yb'
loop_
_symmetry_equiv_pos_site_id
_symmetry_equiv_pos_as_xyz
1 x,y,z
2 -x,1/2+y,-z
_cell_length_a                   9.279(2)
_cell_length_b                   21.959(5)
_cell_length_c                   10.292(3)
_cell_angle_alpha                90
_cell_angle_beta                 90.416(4)
_cell_angle_gamma                90
_cell_volume                     2097.02
_exptl_crystal_colour            colorless
_exptl_crystal_description       block
_cell_formula_units_Z            4
loop_
_atom_site_label
_atom_site_type_symbol
_atom_site_fract_x
_atom_site_fract_y
_atom_site_fract_z
Cl1 Cl 0.96748(13) 0.11766(6) 0.01305(14)
O1 O 1.1449(3) 0.31490(18) -0.6818(3)
N1 N 0.9259(4) 0.29222(17) -0.4225(4)
H1 H 0.8649 0.2836 -0.4857
N2 N 0.9055(4) 0.31768(19) -0.7407(4)
C1 C 0.8162(4) 0.3861(2) -0.5928(4)
C2 C 0.7075(5) 0.4205(2) -0.5372(5)
H2 H 0.7284 0.4477 -0.4679
C3 C 0.5670(5) 0.4145(2) -0.5848(5)
H3 H 0.4917 0.4374 -0.5463
C4 C 0.5362(5) 0.3763(2) -0.6858(6)
H4 H 0.4393 0.3725 -0.7151
C5 C 0.6430(5) 0.3429(2) -0.7464(5)
H5 H 0.6221 0.3176 -0.8189
C6 C 0.7803(5) 0.3480(2) -0.6974(5)
C7 C 1.0223(5) 0.3332(2) -0.6670(5)
C8 C 0.9751(4) 0.3795(2) -0.5628(4)
C9 C 1.0071(4) 0.3488(2) -0.4290(4)
H6 H 1.1114 0.3373 -0.4289
C10 C 0.9845(4) 0.3898(2) -0.3115(4)
C11 C 1.0961(5) 0.4251(2) -0.2642(5)
H7 H 1.1855 0.4255 -0.3086
C12 C 1.0802(5) 0.4596(2) -0.1541(5)
H8 H 1.1587 0.4834 -0.1230
C13 C 0.9513(6) 0.4600(2) -0.0884(5)
H9 H 0.9407 0.4837 -0.0118
C14 C 0.8380(6) 0.4255(2) -0.1354(5)
H10 H 0.7481 0.4259 -0.0918
C15 C 0.8548(4) 0.3905(2) -0.2457(4)
H11 H 0.7766 0.3666 -0.2767
C16 C 0.9408(4) 0.2513(2) -0.3210(5)
C17 C 0.8424(4) 0.2031(2) -0.3118(5)
H12 H 0.7686 0.1989 -0.3756
C18 C 0.8516(5) 0.1619(2) -0.2114(5)
H13 H 0.7837 0.1296 -0.2056
C19 C 0.9594(5) 0.1674(2) -0.1191(5)
C20 C 1.0590(4) 0.2136(2) -0.1287(5)
H14 H 1.1339 0.2168 -0.0656
C21 C 1.0513(4) 0.2557(2) -0.2294(5)
H15 H 1.1212 0.2871 -0.2358
C22 C 1.0601(5) 0.4394(2) -0.5788(5)
H16 H 1.0258 0.4692 -0.5138
H17 H 1.1633 0.4315 -0.5607
C23 C 1.0449(7) 0.4674(3) -0.7148(6)
H18 H 1.0999 0.5054 -0.7187
H19 H 0.9430 0.4758 -0.7332
H20 H 1.0820 0.4387 -0.7795
C24 C 0.9078(6) 0.2733(3) -0.8444(6)
H21 H 1.0065 0.2586 -0.8563
H22 H 0.8734 0.2922 -0.9251
H23 H 0.8450 0.2390 -0.8222
Cl2 Cl 0.47442(12) 0.39451(7) -0.25487(14)
O2 O 0.6699(3) 0.20978(15) 0.3960(3)
N3 N 0.4318(3) 0.20624(16) 0.1518(3)
H24 H 0.3673 0.2124 0.2126
N4 N 0.4346(4) 0.19955(18) 0.4611(4)
C25 C 0.3616(4) 0.1157(2) 0.3465(4)
C26 C 0.2670(5) 0.0706(2) 0.3085(5)
H25 H 0.2956 0.0402 0.2483
C27 C 0.1285(5) 0.0705(3) 0.3601(5)
H26 H 0.0625 0.0394 0.3358
C28 C 0.0868(5) 0.1150(3) 0.4458(6)
H27 H -0.0092 0.1152 0.4772
C29 C 0.1832(5) 0.1602(3) 0.4880(5)
H28 H 0.1564 0.1900 0.5501
C30 C 0.3190(5) 0.1590(2) 0.4346(5)
C31 C 0.5528(5) 0.1840(2) 0.3922(5)
C32 C 0.5154(4) 0.12931(19) 0.3055(4)
C33 C 0.5227(4) 0.15261(19) 0.1617(5)
H29 H 0.6240 0.1662 0.1465
C34 C 0.4877(4) 0.1051(2) 0.0593(5)
C35 C 0.5921(5) 0.0652(2) 0.0146(6)
H30 H 0.6869 0.0671 0.0498
C36 C 0.5602(7) 0.0228(3) -0.0805(6)
H31 H 0.6321 -0.0049 -0.1090
C37 C 0.4239(7) 0.0208(3) -0.1335(6)
H32 H 0.4023 -0.0081 -0.1995
C38 C 0.3195(6) 0.0597(3) -0.0927(6)
H33 H 0.2257 0.0580 -0.1300
C39 C 0.3510(5) 0.1019(2) 0.0035(5)
H34 H 0.2780 0.1290 0.0318
C40 C 0.4408(4) 0.2483(2) 0.0522(4)
C41 C 0.3453(4) 0.2974(2) 0.0503(4)
H35 H 0.2722 0.2998 0.1143
C42 C 0.3548(4) 0.3423(2) -0.0420(5)
H36 H 0.2899 0.3757 -0.0412
C43 C 0.4611(4) 0.3382(2) -0.1370(4)
C44 C 0.5541(4) 0.2896(2) -0.1381(5)
H37 H 0.6259 0.2870 -0.2033
C45 C 0.5439(4) 0.2442(2) -0.0447(4)
H38 H 0.6075 0.2104 -0.0470
C46 C 0.6220(5) 0.0771(2) 0.3315(5)
H39 H 0.5906 0.0408 0.2818
H40 H 0.7182 0.0891 0.2994
C47 C 0.6346(6) 0.0602(2) 0.4746(6)
H41 H 0.7037 0.0267 0.4850
H42 H 0.5402 0.0474 0.5067
H43 H 0.6682 0.0956 0.5243
C48 C 0.4257(6) 0.2523(3) 0.5455(6)
H44 H 0.5196 0.2727 0.5493
H45 H 0.3982 0.2393 0.6329
H46 H 0.3532 0.2806 0.5112
loop_
_geom_bond_atom_site_label_1
_geom_bond_atom_site_label_2
_geom_bond_site_symmetry_1
_geom_bond_site_symmetry_2
Cl1 C19 1_555 1_555
O1 C7 1_555 1_555
N1 H1 1_555 1_555
N2 C6 1_555 1_555
C1 C2 1_555 1_555
C2 H2 1_555 1_555
C3 C2 1_555 1_555
H3 C3 1_555 1_555
C4 C3 1_555 1_555
H4 C4 1_555 1_555
C5 C4 1_555 1_555
H5 C5 1_555 1_555
C6 C1 1_555 1_555
C7 N2 1_555 1_555
C8 C1 1_555 1_555
C9 N1 1_555 1_555
H6 C9 1_555 1_555
C10 C9 1_555 1_555
C11 C10 1_555 1_555
H7 C11 1_555 1_555
C12 C11 1_555 1_555
H8 C12 1_555 1_555
C13 C12 1_555 1_555
H9 C13 1_555 1_555
C14 C13 1_555 1_555
H10 C14 1_555 1_555
C15 C10 1_555 1_555
H11 C15 1_555 1_555
C16 N1 1_555 1_555
C17 C16 1_555 1_555
H12 C17 1_555 1_555
C18 C17 1_555 1_555
H13 C18 1_555 1_555
C19 C18 1_555 1_555
C20 C19 1_555 1_555
H14 C20 1_555 1_555
C21 C16 1_555 1_555
H15 C21 1_555 1_555
C22 C8 1_555 1_555
H16 C22 1_555 1_555
H17 C22 1_555 1_555
C23 C22 1_555 1_555
H18 C23 1_555 1_555
H19 C23 1_555 1_555
H20 C23 1_555 1_555
C24 N2 1_555 1_555
H21 C24 1_555 1_555
H22 C24 1_555 1_555
H23 C24 1_555 1_555
Cl2 C43 1_555 1_555
O2 C31 1_555 1_555
N3 H24 1_555 1_555
N4 C30 1_555 1_555
C25 C26 1_555 1_555
C26 H25 1_555 1_555
C27 C26 1_555 1_555
H26 C27 1_555 1_555
C28 C27 1_555 1_555
H27 C28 1_555 1_555
C29 C28 1_555 1_555
H28 C29 1_555 1_555
C30 C25 1_555 1_555
C31 N4 1_555 1_555
C32 C25 1_555 1_555
C33 N3 1_555 1_555
H29 C33 1_555 1_555
C34 C33 1_555 1_555
C35 C34 1_555 1_555
H30 C35 1_555 1_555
C36 C35 1_555 1_555
H31 C36 1_555 1_555
C37 C36 1_555 1_555
H32 C37 1_555 1_555
C38 C37 1_555 1_555
H33 C38 1_555 1_555
C39 C34 1_555 1_555
H34 C39 1_555 1_555
C40 N3 1_555 1_555
C41 C40 1_555 1_555
H35 C41 1_555 1_555
C42 C41 1_555 1_555
H36 C42 1_555 1_555
C43 C42 1_555 1_555
C44 C43 1_555 1_555
H37 C44 1_555 1_555
C45 C40 1_555 1_555
H38 C45 1_555 1_555
C46 C32 1_555 1_555
H39 C46 1_555 1_555
H40 C46 1_555 1_555
C47 C46 1_555 1_555
H41 C47 1_555 1_555
H42 C47 1_555 1_555
H43 C47 1_555 1_555
C48 N4 1_555 1_555
H44 C48 1_555 1_555
H45 C48 1_555 1_555
H46 C48 1_555 1_555
C5 C6 1_555 1_555
C7 C8 1_555 1_555
C8 C9 1_555 1_555
C14 C15 1_555 1_555
C20 C21 1_555 1_555
C29 C30 1_555 1_555
C31 C32 1_555 1_555
C32 C33 1_555 1_555
C38 C39 1_555 1_555
C44 C45 1_555 1_555

#END
