
#######################################################################
#
#                 Cambridge Crystallographic Data Centre
#                                CCDC 
#
#######################################################################
#
# If this CIF has been generated from an entry in the Cambridge 
# Structural Database, then it will include bibliographic, chemical, 
# crystal, experimental, refinement or atomic coordinate data resulting 
# from the CCDC's data processing and validation procedures.
#
#######################################################################

data_DEHDOM
_chemical_formula_moiety         'C24 H27 N3 O2 S1'
_chemical_name_systematic        
N-{bis[(2,6-dimethylphenyl)amino]methylidene}-4-methylbenzene-1-sulfonamide
_symmetry_cell_setting           triclinic
_symmetry_space_group_name_H-M   'P -1'
_symmetry_Int_Tables_number      2
_space_group_name_Hall           '-P 1'
loop_
_symmetry_equiv_pos_site_id
_symmetry_equiv_pos_as_xyz
1 x,y,z
2 -x,-y,-z
_cell_length_a                   8.088(8)
_cell_length_b                   14.815(13)
_cell_length_c                   19.177(18)
_cell_angle_alpha                94.34(2)
_cell_angle_beta                 96.56(2)
_cell_angle_gamma                105.53(3)
_cell_volume                     2185.87
_cell_formula_units_Z            4
loop_
_atom_site_label
_atom_site_type_symbol
_atom_site_fract_x
_atom_site_fract_y
_atom_site_fract_z
S1 S 0.28334(11) 0.31737(6) -0.03246(4)
O1 O 0.3743(4) 0.41488(17) -0.03774(13)
O2 O 0.1416(4) 0.27390(19) -0.08683(13)
N1 N 0.2156(4) 0.3004(2) 0.04163(15)
N2 N 0.3543(4) 0.4531(2) 0.10129(15)
H1 H 0.420015 0.466956 0.069189
N3 N 0.1844(4) 0.33622(19) 0.15527(15)
H2 H 0.204046 0.376900 0.191834
C1 C 0.2532(4) 0.3637(2) 0.09702(17)
C2 C 0.3603(5) 0.5264(2) 0.15512(18)
C3 C 0.5098(6) 0.5618(3) 0.2047(2)
C4 C 0.5122(7) 0.6367(3) 0.2536(2)
H3 H 0.609822 0.662244 0.286983
C5 C 0.3739(9) 0.6737(3) 0.2535(3)
H4 H 0.378771 0.723604 0.286927
C6 C 0.2304(8) 0.6385(3) 0.2053(3)
H5 H 0.136553 0.663359 0.206673
C7 C 0.2217(6) 0.5654(3) 0.1539(2)
C8 C 0.0672(6) 0.5322(3) 0.0970(3)
H6 H 0.106014 0.525560 0.051964
H7 H 0.001552 0.577492 0.096762
H8 H -0.004486 0.472518 0.106194
C9 C 0.6599(6) 0.5208(4) 0.2034(3)
H9 H 0.740989 0.544834 0.245595
H10 H 0.715846 0.537885 0.162898
H11 H 0.618991 0.453385 0.200969
C10 C 0.0799(4) 0.2423(2) 0.15915(17)
C11 C -0.0969(5) 0.2268(3) 0.1612(2)
C12 C -0.1968(5) 0.1354(3) 0.1649(2)
H12 H -0.315782 0.123576 0.164572
C13 C -0.1226(6) 0.0621(3) 0.1690(2)
H13 H -0.191130 0.001503 0.171951
C14 C 0.0531(5) 0.0786(3) 0.1686(2)
H14 H 0.102812 0.028995 0.171818
C15 C 0.1573(5) 0.1688(2) 0.16357(18)
C16 C -0.1791(6) 0.3066(3) 0.1606(3)
H15 H -0.175363 0.330890 0.115637
H16 H -0.117006 0.355710 0.197225
H17 H -0.297507 0.284100 0.168613
C17 C 0.3470(5) 0.1851(3) 0.1625(2)
H18 H 0.369969 0.182036 0.114518
H19 H 0.385245 0.137646 0.185805
H20 H 0.408083 0.246208 0.186616
C18 C 0.4342(5) 0.2518(2) -0.03500(18)
C19 C 0.3778(6) 0.1545(3) -0.0494(3)
H21 H 0.259895 0.123807 -0.058496
C20 C 0.4979(6) 0.1034(3) -0.0502(3)
H22 H 0.459574 0.038165 -0.059838
C21 C 0.6743(6) 0.1476(3) -0.0369(2)
C22 C 0.7288(6) 0.2445(3) -0.0232(3)
H23 H 0.846749 0.275166 -0.014276
C23 C 0.6097(5) 0.2969(3) -0.0225(2)
H24 H 0.648158 0.362235 -0.013604
C24 C 0.8044(7) 0.0917(4) -0.0367(3)
H25 H 0.856285 0.091932 0.010917
H26 H 0.892605 0.119357 -0.064370
H27 H 0.747239 0.027928 -0.056561
S2 S 0.52019(11) 0.81910(6) 0.46381(4)
O3 O 0.5879(3) 0.77701(19) 0.40818(14)
O4 O 0.5225(4) 0.91702(18) 0.46079(14)
N4 N 0.6143(4) 0.7995(2) 0.53632(16)
N5 N 0.7468(4) 0.8308(2) 0.65013(15)
H28 H 0.789522 0.870612 0.687005
N6 N 0.6735(4) 0.9525(2) 0.59850(15)
H29 H 0.615094 0.971335 0.565105
C25 C 0.6744(4) 0.8615(2) 0.59250(18)
C26 C 0.7561(5) 0.7360(2) 0.65314(17)
C27 C 0.6059(5) 0.6641(3) 0.65646(18)
C28 C 0.6220(5) 0.5734(3) 0.6632(2)
H30 H 0.523475 0.524290 0.664980
C29 C 0.7812(6) 0.5555(3) 0.6672(2)
H31 H 0.790036 0.494914 0.671906
C30 C 0.9267(6) 0.6278(3) 0.6641(2)
H32 H 1.034024 0.615492 0.666921
C31 C 0.9167(5) 0.7190(3) 0.6568(2)
C32 C 0.4320(5) 0.6818(3) 0.6533(2)
H33 H 0.442038 0.740058 0.681230
H34 H 0.353577 0.631108 0.671482
H35 H 0.388436 0.685437 0.605210
C33 C 1.0771(6) 0.7972(3) 0.6538(3)
H36 H 1.065748 0.824228 0.610184
H37 H 1.175773 0.772604 0.656663
H38 H 1.092451 0.844839 0.692700
C34 C 0.7634(5) 1.0193(2) 0.6567(2)
C35 C 0.9415(7) 1.0590(3) 0.6583(3)
C36 C 1.0300(14) 1.1246(4) 0.7135(4)
H39 H 1.148623 1.151817 0.715935
C37 C 0.9430(13) 1.1490(4) 0.7639(4)
H40 H 1.005331 1.192786 0.801415
C38 C 0.7666(14) 1.1133(4) 0.7635(4)
H41 H 0.711791 1.134126 0.798971
C39 C 0.6704(8) 1.0437(3) 0.7075(2)
C40 C 1.0344(8) 1.0323(5) 0.6001(5)
H42 H 0.974239 1.038370 0.555395
H43 H 1.037948 0.968176 0.601702
H44 H 1.150486 1.073118 0.606108
C41 C 0.4815(10) 1.0010(5) 0.7026(4)
H45 H 0.424368 1.014839 0.659701
H46 H 0.439583 1.026475 0.742312
H47 H 0.457870 0.933953 0.702582
C42 C 0.3033(5) 0.7537(3) 0.46138(18)
C43 C 0.1778(6) 0.7994(3) 0.4699(3)
H48 H 0.207892 0.864909 0.476488
C44 C 0.0075(6) 0.7478(3) 0.4685(3)
H49 H -0.076308 0.779117 0.474437
C45 C -0.0402(5) 0.6506(3) 0.4586(2)
C46 C 0.0875(6) 0.6059(3) 0.4497(3)
H50 H 0.057377 0.540409 0.442837
C47 C 0.2572(6) 0.6562(3) 0.4509(3)
H51 H 0.340951 0.624916 0.444770
C48 C -0.2258(6) 0.5953(3) 0.4586(3)
H52 H -0.249531 0.591739 0.506366
H53 H -0.244856 0.532783 0.435573
H54 H -0.301368 0.625974 0.433789
loop_
_geom_bond_atom_site_label_1
_geom_bond_atom_site_label_2
_geom_bond_site_symmetry_1
_geom_bond_site_symmetry_2
S1 O1 1_555 1_555
O2 S1 1_555 1_555
N1 S1 1_555 1_555
N2 H1 1_555 1_555
N3 H2 1_555 1_555
C1 N1 1_555 1_555
C2 N2 1_555 1_555
C3 C2 1_555 1_555
C4 C3 1_555 1_555
H3 C4 1_555 1_555
C5 C4 1_555 1_555
H4 C5 1_555 1_555
C6 C5 1_555 1_555
H5 C6 1_555 1_555
C7 C2 1_555 1_555
C8 C7 1_555 1_555
H6 C8 1_555 1_555
H7 C8 1_555 1_555
H8 C8 1_555 1_555
C9 C3 1_555 1_555
H9 C9 1_555 1_555
H10 C9 1_555 1_555
H11 C9 1_555 1_555
C10 N3 1_555 1_555
C11 C10 1_555 1_555
C12 C11 1_555 1_555
H12 C12 1_555 1_555
C13 C12 1_555 1_555
H13 C13 1_555 1_555
C14 C13 1_555 1_555
H14 C14 1_555 1_555
C15 C10 1_555 1_555
C16 C11 1_555 1_555
H15 C16 1_555 1_555
H16 C16 1_555 1_555
H17 C16 1_555 1_555
C17 C15 1_555 1_555
H18 C17 1_555 1_555
H19 C17 1_555 1_555
H20 C17 1_555 1_555
C18 S1 1_555 1_555
C19 C18 1_555 1_555
H21 C19 1_555 1_555
C20 C19 1_555 1_555
H22 C20 1_555 1_555
C21 C20 1_555 1_555
C22 C21 1_555 1_555
H23 C22 1_555 1_555
C23 C18 1_555 1_555
H24 C23 1_555 1_555
C24 C21 1_555 1_555
H25 C24 1_555 1_555
H26 C24 1_555 1_555
H27 C24 1_555 1_555
S2 O3 1_555 1_555
O4 S2 1_555 1_555
N4 S2 1_555 1_555
N5 H28 1_555 1_555
N6 H29 1_555 1_555
C25 N4 1_555 1_555
C26 N5 1_555 1_555
C27 C26 1_555 1_555
C28 C27 1_555 1_555
H30 C28 1_555 1_555
C29 C28 1_555 1_555
H31 C29 1_555 1_555
C30 C29 1_555 1_555
H32 C30 1_555 1_555
C31 C26 1_555 1_555
C32 C27 1_555 1_555
H33 C32 1_555 1_555
H34 C32 1_555 1_555
H35 C32 1_555 1_555
C33 C31 1_555 1_555
H36 C33 1_555 1_555
H37 C33 1_555 1_555
H38 C33 1_555 1_555
C34 N6 1_555 1_555
C35 C34 1_555 1_555
C36 C35 1_555 1_555
H39 C36 1_555 1_555
C37 C36 1_555 1_555
H40 C37 1_555 1_555
C38 C37 1_555 1_555
H41 C38 1_555 1_555
C39 C34 1_555 1_555
C40 C35 1_555 1_555
H42 C40 1_555 1_555
H43 C40 1_555 1_555
H44 C40 1_555 1_555
C41 C39 1_555 1_555
H45 C41 1_555 1_555
H46 C41 1_555 1_555
H47 C41 1_555 1_555
C42 S2 1_555 1_555
C43 C42 1_555 1_555
H48 C43 1_555 1_555
C44 C43 1_555 1_555
H49 C44 1_555 1_555
C45 C44 1_555 1_555
C46 C45 1_555 1_555
H50 C46 1_555 1_555
C47 C42 1_555 1_555
H51 C47 1_555 1_555
C48 C45 1_555 1_555
H52 C48 1_555 1_555
H53 C48 1_555 1_555
H54 C48 1_555 1_555
N2 C1 1_555 1_555
N3 C1 1_555 1_555
C6 C7 1_555 1_555
C14 C15 1_555 1_555
C22 C23 1_555 1_555
N5 C25 1_555 1_555
N6 C25 1_555 1_555
C30 C31 1_555 1_555
C38 C39 1_555 1_555
C46 C47 1_555 1_555

#END
