
#######################################################################
#
#                 Cambridge Crystallographic Data Centre
#                                CCDC 
#
#######################################################################
#
# If this CIF has been generated from an entry in the Cambridge 
# Structural Database, then it will include bibliographic, chemical, 
# crystal, experimental, refinement or atomic coordinate data resulting 
# from the CCDC's data processing and validation procedures.
#
#######################################################################

data_DEHFII
_chemical_formula_moiety         'C17 H27 N3 O3 S1'
_chemical_name_systematic        
N-t-butyl-2-(t-butylamino)-2-{[(4-methylphenyl)sulfonyl]imino}acetamide
_symmetry_cell_setting           monoclinic
_symmetry_space_group_name_H-M   'P 21/n'
_symmetry_Int_Tables_number      14
_space_group_name_Hall           '-P 2yn'
loop_
_symmetry_equiv_pos_site_id
_symmetry_equiv_pos_as_xyz
1 x,y,z
2 1/2-x,1/2+y,1/2-z
3 -x,-y,-z
4 1/2+x,1/2-y,1/2+z
_cell_length_a                   11.6550(6)
_cell_length_b                   11.2975(7)
_cell_length_c                   29.9934(14)
_cell_angle_alpha                90
_cell_angle_beta                 92.006(5)
_cell_angle_gamma                90
_cell_volume                     3946.88
_exptl_crystal_colour            colorless
_exptl_crystal_description       block
_cell_formula_units_Z            8
loop_
_atom_site_label
_atom_site_type_symbol
_atom_site_fract_x
_atom_site_fract_y
_atom_site_fract_z
S1 S 0.30410(8) 0.48925(9) 0.51691(3)
O1 O 0.3083(2) 0.5170(3) 0.47014(8)
O2 O 0.3122(3) 0.3669(3) 0.52899(9)
O3 O 0.3850(2) 0.3962(3) 0.63049(9)
N1 N 0.3940(3) 0.5736(3) 0.54234(10)
N2 N 0.4939(3) 0.6306(3) 0.60597(10)
H1 H 0.5348 0.6075 0.6288
N3 N 0.5406(3) 0.3586(3) 0.58856(10)
H2 H 0.5877 0.3930 0.5713
C1 C 0.1718(3) 0.5448(4) 0.53617(12)
C2 C 0.1449(4) 0.5214(5) 0.57976(14)
H3 H 0.1937 0.4760 0.5980
C3 C 0.0434(4) 0.5669(5) 0.59581(15)
H4 H 0.0249 0.5520 0.6252
C4 C -0.0306(4) 0.6337(4) 0.56915(14)
C5 C 0.0005(4) 0.6575(4) 0.52590(14)
H5 H -0.0476 0.7040 0.5077
C6 C 0.1009(4) 0.6140(4) 0.50907(13)
H6 H 0.1205 0.6311 0.4800
C7 C -0.1415(4) 0.6798(5) 0.58671(16)
H7 H -0.1991 0.6192 0.5843
H8 H -0.1662 0.7476 0.5696
H9 H -0.1300 0.7020 0.6174
C8 C 0.4455(3) 0.5470(3) 0.58132(11)
C9 C 0.4538(3) 0.4223(3) 0.60238(11)
C10 C 0.4859(4) 0.7605(4) 0.59894(12)
C11 C 0.3604(4) 0.7992(4) 0.60040(16)
H10 H 0.3176 0.7649 0.5757
H11 H 0.3559 0.8840 0.5986
H12 H 0.3287 0.7731 0.6278
C12 C 0.5391(4) 0.7943(4) 0.55511(14)
H13 H 0.6178 0.7694 0.5555
H14 H 0.5352 0.8786 0.5513
H15 H 0.4977 0.7563 0.5309
C13 C 0.5564(5) 0.8149(4) 0.63776(15)
H16 H 0.5244 0.7914 0.6655
H17 H 0.5546 0.8996 0.6353
H18 H 0.6343 0.7877 0.6368
C14 C 0.5643(4) 0.2331(4) 0.60009(14)
C15 C 0.4665(5) 0.1560(4) 0.58069(17)
H19 H 0.3956 0.1788 0.5936
H20 H 0.4822 0.0744 0.5874
H21 H 0.4605 0.1666 0.5489
C16 C 0.5760(5) 0.2164(4) 0.65068(14)
H22 H 0.6349 0.2678 0.6626
H23 H 0.5960 0.1356 0.6573
H24 H 0.5044 0.2351 0.6639
C17 C 0.6771(5) 0.2018(5) 0.5787(2)
H25 H 0.6698 0.2144 0.5471
H26 H 0.6951 0.1202 0.5845
H27 H 0.7373 0.2510 0.5911
S2 S -0.07062(9) 1.03338(10) 0.66938(3)
O4 O -0.0881(3) 1.1491(3) 0.68742(10)
O5 O -0.1722(3) 0.9653(4) 0.65741(9)
O6 O -0.0577(3) 1.0525(3) 0.80598(9)
N4 N 0.0172(3) 0.9539(3) 0.69992(11)
N5 N 0.0978(3) 0.8985(4) 0.76743(10)
H28 H 0.0919 0.8999 0.7959
N6 N -0.1873(3) 0.9676(3) 0.75777(10)
H29 H -0.1927 0.9219 0.7348
C18 C 0.0119(4) 1.0470(4) 0.62125(12)
C19 C 0.0611(4) 1.1532(4) 0.61029(14)
H30 H 0.0501 1.2200 0.6277
C20 C 0.1271(5) 1.1592(4) 0.57316(14)
H31 H 0.1599 1.2312 0.5656
C21 C 0.1458(4) 1.0620(4) 0.54700(13)
C22 C 0.0976(4) 0.9560(5) 0.55890(15)
H32 H 0.1102 0.8891 0.5416
C23 C 0.0311(5) 0.9465(4) 0.59575(15)
H33 H -0.0005 0.8741 0.6035
C24 C 0.2188(5) 1.0682(5) 0.50678(15)
H34 H 0.1720 1.0537 0.4804
H35 H 0.2782 1.0094 0.5092
H36 H 0.2529 1.1453 0.5050
C25 C 0.0147(3) 0.9495(4) 0.74332(12)
C26 C -0.0822(3) 0.9969(4) 0.77209(12)
C27 C 0.2008(4) 0.8390(5) 0.74995(14)
C28 C 0.2707(5) 0.7941(7) 0.79050(17)
H37 H 0.2880 0.8589 0.8103
H38 H 0.3409 0.7595 0.7809
H39 H 0.2272 0.7355 0.8058
C29 C 0.2718(4) 0.9261(5) 0.72372(19)
H40 H 0.2285 0.9513 0.6976
H41 H 0.3413 0.8883 0.7150
H42 H 0.2905 0.9935 0.7420
C30 C 0.1634(5) 0.7344(5) 0.72072(18)
H43 H 0.1171 0.6816 0.7376
H44 H 0.2301 0.6930 0.7110
H45 H 0.1197 0.7627 0.6952
C31 C -0.2965(4) 1.0055(4) 0.77727(14)
C32 C -0.3038(4) 0.9542(5) 0.82457(15)
H46 H -0.2960 0.8696 0.8234
H47 H -0.3768 0.9741 0.8365
H48 H -0.2434 0.9867 0.8434
C33 C -0.3023(4) 1.1396(5) 0.77685(17)
H49 H -0.2443 1.1710 0.7971
H50 H -0.3766 1.1647 0.7859
H51 H -0.2897 1.1680 0.7473
C34 C -0.3937(4) 0.9540(5) 0.74730(17)
H52 H -0.3883 0.9849 0.7176
H53 H -0.4665 0.9757 0.7590
H54 H -0.3873 0.8693 0.7466
loop_
_geom_bond_atom_site_label_1
_geom_bond_atom_site_label_2
_geom_bond_site_symmetry_1
_geom_bond_site_symmetry_2
S1 O1 1_555 1_555
O2 S1 1_555 1_555
O3 C9 1_555 1_555
N1 S1 1_555 1_555
N2 H1 1_555 1_555
N3 H2 1_555 1_555
C1 S1 1_555 1_555
C2 C1 1_555 1_555
H3 C2 1_555 1_555
C3 C2 1_555 1_555
H4 C3 1_555 1_555
C4 C3 1_555 1_555
C5 C4 1_555 1_555
H5 C5 1_555 1_555
C6 C1 1_555 1_555
H6 C6 1_555 1_555
C7 C4 1_555 1_555
H7 C7 1_555 1_555
H8 C7 1_555 1_555
H9 C7 1_555 1_555
C8 N1 1_555 1_555
C9 N3 1_555 1_555
C10 N2 1_555 1_555
C11 C10 1_555 1_555
H10 C11 1_555 1_555
H11 C11 1_555 1_555
H12 C11 1_555 1_555
C12 C10 1_555 1_555
H13 C12 1_555 1_555
H14 C12 1_555 1_555
H15 C12 1_555 1_555
C13 C10 1_555 1_555
H16 C13 1_555 1_555
H17 C13 1_555 1_555
H18 C13 1_555 1_555
C14 N3 1_555 1_555
C15 C14 1_555 1_555
H19 C15 1_555 1_555
H20 C15 1_555 1_555
H21 C15 1_555 1_555
C16 C14 1_555 1_555
H22 C16 1_555 1_555
H23 C16 1_555 1_555
H24 C16 1_555 1_555
C17 C14 1_555 1_555
H25 C17 1_555 1_555
H26 C17 1_555 1_555
H27 C17 1_555 1_555
S2 O4 1_555 1_555
O5 S2 1_555 1_555
O6 C26 1_555 1_555
N4 S2 1_555 1_555
N5 H28 1_555 1_555
N6 H29 1_555 1_555
C18 S2 1_555 1_555
C19 C18 1_555 1_555
H30 C19 1_555 1_555
C20 C19 1_555 1_555
H31 C20 1_555 1_555
C21 C20 1_555 1_555
C22 C21 1_555 1_555
H32 C22 1_555 1_555
C23 C18 1_555 1_555
H33 C23 1_555 1_555
C24 C21 1_555 1_555
H34 C24 1_555 1_555
H35 C24 1_555 1_555
H36 C24 1_555 1_555
C25 N4 1_555 1_555
C26 N6 1_555 1_555
C27 N5 1_555 1_555
C28 C27 1_555 1_555
H37 C28 1_555 1_555
H38 C28 1_555 1_555
H39 C28 1_555 1_555
C29 C27 1_555 1_555
H40 C29 1_555 1_555
H41 C29 1_555 1_555
H42 C29 1_555 1_555
C30 C27 1_555 1_555
H43 C30 1_555 1_555
H44 C30 1_555 1_555
H45 C30 1_555 1_555
C31 N6 1_555 1_555
C32 C31 1_555 1_555
H46 C32 1_555 1_555
H47 C32 1_555 1_555
H48 C32 1_555 1_555
C33 C31 1_555 1_555
H49 C33 1_555 1_555
H50 C33 1_555 1_555
H51 C33 1_555 1_555
C34 C31 1_555 1_555
H52 C34 1_555 1_555
H53 C34 1_555 1_555
H54 C34 1_555 1_555
N2 C8 1_555 1_555
C5 C6 1_555 1_555
C8 C9 1_555 1_555
N5 C25 1_555 1_555
C22 C23 1_555 1_555
C25 C26 1_555 1_555

#END
