
#######################################################################
#
#                 Cambridge Crystallographic Data Centre
#                                CCDC 
#
#######################################################################
#
# If this CIF has been generated from an entry in the Cambridge 
# Structural Database, then it will include bibliographic, chemical, 
# crystal, experimental, refinement or atomic coordinate data resulting 
# from the CCDC's data processing and validation procedures.
#
#######################################################################

data_DEHFUU
_chemical_formula_moiety         'C26 H20 N4 O2 S1'
_chemical_name_systematic        
7'-nitro-6'-phenyl-1',6',7',7a'-tetrahydro-3'H-spiro[indeno[1,2-b]quinoxaline-11,5'-pyrrolo[1,2-c][1,3]thiazole]
_symmetry_cell_setting           triclinic
_symmetry_space_group_name_H-M   'P -1'
_symmetry_Int_Tables_number      2
_space_group_name_Hall           '-P 1'
loop_
_symmetry_equiv_pos_site_id
_symmetry_equiv_pos_as_xyz
1 x,y,z
2 -x,-y,-z
_cell_length_a                   9.6591(9)
_cell_length_b                   10.5962(11)
_cell_length_c                   10.8001(9)
_cell_angle_alpha                80.389(13)
_cell_angle_beta                 85.626(15)
_cell_angle_gamma                85.030(14)
_cell_volume                     1083.62
_exptl_crystal_colour            colorless
_exptl_crystal_description       block
_cell_formula_units_Z            2
loop_
_atom_site_label
_atom_site_type_symbol
_atom_site_fract_x
_atom_site_fract_y
_atom_site_fract_z
C1 C 0.16821(16) 0.94782(16) 0.43525(14)
C2 C 0.08043(18) 1.0250(2) 0.34855(16)
H1 H 0.0870 1.1133 0.3314
C3 C -0.01329(19) 0.9704(2) 0.29033(16)
H2 H -0.0703 1.0218 0.2335
C4 C -0.02495(19) 0.8380(2) 0.31488(17)
H3 H -0.0917 0.8027 0.2763
C5 C 0.06089(19) 0.7593(2) 0.39528(16)
H4 H 0.0534 0.6711 0.4098
C6 C 0.16019(16) 0.81288(17) 0.45565(14)
C7 C 0.33029(15) 0.79076(14) 0.59133(13)
C8 C 0.44071(15) 0.72538(13) 0.67951(13)
C9 C 0.49965(15) 0.84094(13) 0.71767(13)
C10 C 0.59533(16) 0.84225(15) 0.80668(14)
H5 H 0.6413 0.7664 0.8443
C11 C 0.62108(18) 0.95912(17) 0.83850(17)
H6 H 0.6845 0.9614 0.8986
C12 C 0.5539(2) 1.07226(17) 0.78235(18)
H7 H 0.5727 1.1496 0.8052
C13 C 0.45922(18) 1.07213(15) 0.69270(17)
H8 H 0.4146 1.1485 0.6546
C14 C 0.43210(15) 0.95551(14) 0.66074(13)
C15 C 0.33201(15) 0.92623(14) 0.57640(13)
C16 C 0.38043(15) 0.63542(13) 0.79674(12)
H9 H 0.4513 0.6211 0.8589
C17 C 0.38082(17) 0.51239(13) 0.74259(14)
H10 H 0.3080 0.5222 0.6825
C18 C 0.52387(17) 0.50359(14) 0.67073(14)
H11 H 0.5213 0.4494 0.6059
C19 C 0.6508(2) 0.45782(18) 0.75106(18)
H12 H 0.6837 0.3707 0.7412
H13 H 0.6246 0.4593 0.8394
C20 C 0.67779(17) 0.66080(16) 0.57722(17)
H14 H 0.6906 0.7513 0.5729
H15 H 0.7051 0.6370 0.4954
C21 C 0.24702(15) 0.68381(14) 0.86165(13)
C22 C 0.25499(18) 0.76582(17) 0.94828(15)
H16 H 0.3413 0.7915 0.9626
C23 C 0.1374(2) 0.8099(2) 1.01342(18)
H17 H 0.1449 0.8652 1.0706
C24 C 0.0088(2) 0.7723(2) 0.99425(18)
H18 H -0.0705 0.8015 1.0387
C25 C -0.00121(19) 0.6919(2) 0.90945(19)
H19 H -0.0878 0.6661 0.8965
C26 C 0.11658(18) 0.64828(19) 0.84232(17)
H20 H 0.1079 0.5947 0.7838
N1 N 0.24762(14) 0.73187(13) 0.53455(11)
N2 N 0.25567(13) 1.00594(13) 0.49817(12)
N3 N 0.53473(13) 0.63686(11) 0.61145(11)
N4 N 0.35731(15) 0.39744(12) 0.84065(14)
O1 O 0.3921(2) 0.39548(16) 0.94584(14)
O2 O 0.30317(17) 0.31038(13) 0.80879(15)
S1 S 0.78439(6) 0.56426(5) 0.69783(6)
loop_
_geom_bond_atom_site_label_1
_geom_bond_atom_site_label_2
_geom_bond_site_symmetry_1
_geom_bond_site_symmetry_2
C1 C2 1_555 1_555
C2 H1 1_555 1_555
C3 C2 1_555 1_555
H2 C3 1_555 1_555
C4 C3 1_555 1_555
H3 C4 1_555 1_555
C5 C4 1_555 1_555
H4 C5 1_555 1_555
C6 C1 1_555 1_555
C7 C8 1_555 1_555
C8 C9 1_555 1_555
C9 C10 1_555 1_555
C10 H5 1_555 1_555
C11 C10 1_555 1_555
H6 C11 1_555 1_555
C12 C11 1_555 1_555
H7 C12 1_555 1_555
C13 C12 1_555 1_555
H8 C13 1_555 1_555
C14 C9 1_555 1_555
C15 C7 1_555 1_555
C16 C8 1_555 1_555
H9 C16 1_555 1_555
C17 C16 1_555 1_555
H10 C17 1_555 1_555
C18 C17 1_555 1_555
H11 C18 1_555 1_555
C19 C18 1_555 1_555
H12 C19 1_555 1_555
H13 C19 1_555 1_555
C20 H14 1_555 1_555
H15 C20 1_555 1_555
C21 C16 1_555 1_555
C22 C21 1_555 1_555
H16 C22 1_555 1_555
C23 C22 1_555 1_555
H17 C23 1_555 1_555
C24 C23 1_555 1_555
H18 C24 1_555 1_555
C25 C24 1_555 1_555
H19 C25 1_555 1_555
C26 C21 1_555 1_555
H20 C26 1_555 1_555
N1 C6 1_555 1_555
N2 C1 1_555 1_555
N3 C8 1_555 1_555
N4 C17 1_555 1_555
O1 N4 1_555 1_555
O2 N4 1_555 1_555
S1 C19 1_555 1_555
C5 C6 1_555 1_555
C7 N1 1_555 1_555
C13 C14 1_555 1_555
C14 C15 1_555 1_555
C15 N2 1_555 1_555
C18 N3 1_555 1_555
C20 N3 1_555 1_555
C20 S1 1_555 1_555
C25 C26 1_555 1_555

#END
