
#######################################################################
#
#                 Cambridge Crystallographic Data Centre
#                                CCDC 
#
#######################################################################
#
# If this CIF has been generated from an entry in the Cambridge 
# Structural Database, then it will include bibliographic, chemical, 
# crystal, experimental, refinement or atomic coordinate data resulting 
# from the CCDC's data processing and validation procedures.
#
#######################################################################

data_DEHQOX
_chemical_formula_moiety         'C8 H20 N1 1+,H1 O3 Se1 1-'
_chemical_name_systematic        'tetraethylammonium hydrogenselenite'
_symmetry_cell_setting           triclinic
_symmetry_space_group_name_H-M   'P -1'
_symmetry_Int_Tables_number      2
_space_group_name_Hall           '-P 1'
loop_
_symmetry_equiv_pos_site_id
_symmetry_equiv_pos_as_xyz
1 x,y,z
2 -x,-y,-z
_cell_length_a                   7.926(6)
_cell_length_b                   8.909(7)
_cell_length_c                   9.146(7)
_cell_angle_alpha                80.640(10)
_cell_angle_beta                 65.150(10)
_cell_angle_gamma                77.19(2)
_cell_volume                     569.679
_exptl_crystal_colour            colorless
_exptl_crystal_description       Chunk
_cell_formula_units_Z            2
_exptl_crystal_recrystallization_method ether/acetonitrile
loop_
_atom_site_label
_atom_site_type_symbol
_atom_site_fract_x
_atom_site_fract_y
_atom_site_fract_z
Se1 Se 0.07138(4) 0.79038(3) 0.12798(3)
O1 O 0.2290(3) 0.8904(3) -0.0159(3)
O2 O 0.1580(3) 0.7174(3) 0.2636(3)
O3 O -0.1025(3) 0.9403(3) 0.2328(3)
H1 H -0.139(6) 0.985(4) 0.163(4)
N1 N 0.2357(3) 0.2423(2) 0.2638(3)
C1 C 0.2166(4) 0.0835(3) 0.3542(3)
H2 H 0.1565 0.0961 0.4717
H3 H 0.1311 0.0380 0.3271
C2 C 0.3992(4) -0.0276(4) 0.3180(4)
H4 H 0.4649 -0.0351 0.2010
H5 H 0.3734 -0.1296 0.3716
H6 H 0.4786 0.0093 0.3578
C3 C 0.3755(4) 0.3155(3) 0.2890(4)
H7 H 0.3763 0.4206 0.2335
H8 H 0.5031 0.2546 0.2370
C4 C 0.3363(4) 0.3271(4) 0.4645(4)
H9 H 0.2115 0.3894 0.5169
H10 H 0.4326 0.3760 0.4698
H11 H 0.3394 0.2234 0.5202
C5 C 0.0440(3) 0.3450(3) 0.3306(3)
H12 H -0.0004 0.3407 0.4496
H13 H 0.0589 0.4530 0.2880
C6 C -0.1064(4) 0.3030(4) 0.2909(4)
H14 H -0.0656 0.3091 0.1733
H15 H -0.2247 0.3752 0.3376
H16 H -0.1261 0.1977 0.3360
C7 C 0.3044(4) 0.2245(3) 0.0834(3)
H17 H 0.4346 0.1654 0.0451
H18 H 0.2239 0.1625 0.0690
C8 C 0.3038(5) 0.3743(4) -0.0229(4)
H19 H 0.1735 0.4278 0.0039
H20 H 0.3617 0.3517 -0.1366
H21 H 0.3757 0.4403 -0.0044
loop_
_geom_bond_atom_site_label_1
_geom_bond_atom_site_label_2
_geom_bond_site_symmetry_1
_geom_bond_site_symmetry_2
Se1 O1 1_555 1_555
O2 Se1 1_555 1_555
O3 Se1 1_555 1_555
H1 O3 1_555 1_555
N1 C1 1_555 1_555
C1 H2 1_555 1_555
H3 C1 1_555 1_555
C2 C1 1_555 1_555
H4 C2 1_555 1_555
H5 C2 1_555 1_555
H6 C2 1_555 1_555
C3 N1 1_555 1_555
H7 C3 1_555 1_555
H8 C3 1_555 1_555
C4 C3 1_555 1_555
H9 C4 1_555 1_555
H10 C4 1_555 1_555
H11 C4 1_555 1_555
C5 N1 1_555 1_555
H12 C5 1_555 1_555
H13 C5 1_555 1_555
C6 C5 1_555 1_555
H14 C6 1_555 1_555
H15 C6 1_555 1_555
H16 C6 1_555 1_555
C7 N1 1_555 1_555
H17 C7 1_555 1_555
H18 C7 1_555 1_555
C8 C7 1_555 1_555
H19 C8 1_555 1_555
H20 C8 1_555 1_555
H21 C8 1_555 1_555

#END
