
#######################################################################
#
#                 Cambridge Crystallographic Data Centre
#                                CCDC 
#
#######################################################################
#
# If this CIF has been generated from an entry in the Cambridge 
# Structural Database, then it will include bibliographic, chemical, 
# crystal, experimental, refinement or atomic coordinate data resulting 
# from the CCDC's data processing and validation procedures.
#
#######################################################################

data_DEHQEM01
_chemical_formula_moiety         'C17 H19 N1 O2'
_chemical_name_systematic        
4-Phenyl-7,7-dimethyl-2,5-dioxo-1,2,3,4,5,6,7,8-octahydroquinoline
_symmetry_cell_setting           monoclinic
_symmetry_space_group_name_H-M   'P 21/a'
_symmetry_Int_Tables_number      14
_space_group_name_Hall           '-P 2yab'
loop_
_symmetry_equiv_pos_site_id
_symmetry_equiv_pos_as_xyz
1 x,y,z
2 1/2-x,1/2+y,-z
3 -x,-y,-z
4 1/2+x,1/2-y,z
_cell_length_a                   7.524(2)
_cell_length_b                   22.483(3)
_cell_length_c                   9.273(2)
_cell_angle_alpha                90
_cell_angle_beta                 113.04(2)
_cell_angle_gamma                90
_cell_volume                     1443.51
_chemical_melting_point          '203-204 deg.C'
_cell_formula_units_Z            4
_exptl_crystal_preparation       'irradiated product'
loop_
_atom_site_label
_atom_site_type_symbol
_atom_site_fract_x
_atom_site_fract_y
_atom_site_fract_z
O1 O 0.1428(2) 0.93715(5) 0.6097(1)
O2 O -0.5814(2) 0.77107(6) 0.3071(2)
N1 N -0.1662(2) 0.93749(6) 0.4353(2)
C1 C -0.0040(2) 0.90905(7) 0.5344(2)
C2 C -0.0170(2) 0.84268(7) 0.5357(2)
C3 C -0.2180(2) 0.81991(7) 0.5151(2)
C4 C -0.3682(2) 0.85186(7) 0.3778(2)
C5 C -0.3381(2) 0.90841(7) 0.3457(2)
C6 C -0.4775(2) 0.94492(7) 0.2151(2)
C7 C -0.6852(2) 0.92198(8) 0.1548(2)
C8 C -0.6813(3) 0.85452(9) 0.1362(2)
C9 C -0.5453(3) 0.82175(8) 0.2792(2)
C10 C -0.7790(3) 0.9382(1) 0.2683(2)
C11 C -0.8021(3) 0.9502(1) -0.0057(2)
C12 C -0.2489(2) 0.82460(7) 0.6679(2)
C13 C -0.3678(3) 0.86620(8) 0.6932(2)
C14 C -0.3826(3) 0.8704(1) 0.8383(2)
C15 C -0.2780(3) 0.8325(1) 0.9584(2)
C16 C -0.1613(3) 0.79044(9) 0.9331(2)
C17 C -0.1470(2) 0.78619(8) 0.7895(2)
loop_
_geom_bond_atom_site_label_1
_geom_bond_atom_site_label_2
_geom_bond_site_symmetry_1
_geom_bond_site_symmetry_2
O1 C1 1_555 1_555
O2 C9 1_555 1_555
N1 C1 1_555 1_555
C1 C2 1_555 1_555
C2 C3 1_555 1_555
C3 C4 1_555 1_555
C4 C5 1_555 1_555
C5 N1 1_555 1_555
C6 C5 1_555 1_555
C7 C6 1_555 1_555
C8 C7 1_555 1_555
C9 C4 1_555 1_555
C10 C7 1_555 1_555
C11 C7 1_555 1_555
C12 C3 1_555 1_555
C13 C12 1_555 1_555
C14 C13 1_555 1_555
C15 C14 1_555 1_555
C16 C15 1_555 1_555
C17 C12 1_555 1_555
C8 C9 1_555 1_555
C16 C17 1_555 1_555

#END
