
#######################################################################
#
#                 Cambridge Crystallographic Data Centre
#                                CCDC 
#
#######################################################################
#
# If this CIF has been generated from an entry in the Cambridge 
# Structural Database, then it will include bibliographic, chemical, 
# crystal, experimental, refinement or atomic coordinate data resulting 
# from the CCDC's data processing and validation procedures.
#
#######################################################################

data_DEHYEU
_chemical_compound_source        'from the stems of Neolitsea parvigemma'
_chemical_formula_moiety         'C15 H16 O4'
_chemical_name_systematic        (2R*,7S*)-Deacetylzelanine
_chemical_properties_biological  
'significant inhibitory activity of arachidonic acid induced platelet aggregation'
_symmetry_cell_setting           orthorhombic
_symmetry_space_group_name_H-M   'P 21 21 21'
_symmetry_Int_Tables_number      19
_space_group_name_Hall           'P 2ac 2ab'
loop_
_symmetry_equiv_pos_site_id
_symmetry_equiv_pos_as_xyz
1 x,y,z
2 1/2-x,-y,1/2+z
3 1/2+x,1/2-y,-z
4 -x,1/2+y,1/2-z
_cell_length_a                   11.116(2)
_cell_length_b                   11.312(2)
_cell_length_c                   10.437(2)
_cell_angle_alpha                90
_cell_angle_beta                 90
_cell_angle_gamma                90
_cell_volume                     1312.39
_exptl_crystal_colour            colorless
_exptl_crystal_description       prisms
_chemical_melting_point          '216-217 deg.C'
_cell_formula_units_Z            4
_exptl_crystal_recrystallization_method methanol/chloroform
loop_
_atom_site_label
_atom_site_type_symbol
_atom_site_fract_x
_atom_site_fract_y
_atom_site_fract_z
O1 O 0.1998(5) 0.2635(5) 0.6860(5)
O2 O 0.1608(5) 0.4162(5) 0.2112(5)
O3 O 0.1958(5) 0.0376(5) 0.3291(6)
O4 O 0.1924(6) 0.5670(5) 0.3452(6)
C1 C 0.0368(7) 0.1988(8) 0.5548(8)
C2 C 0.1269(8) 0.2970(8) 0.5802(7)
C3 C 0.0706(8) 0.4197(7) 0.6073(7)
C4 C -0.0212(7) 0.4674(7) 0.5071(8)
C5 C 0.0208(8) 0.4347(8) 0.3726(8)
C6 C -0.0204(8) 0.3482(7) 0.3001(8)
C7 C 0.0735(8) 0.3187(8) 0.2037(8)
C8 C 0.1365(7) 0.2045(7) 0.2344(7)
C9 C 0.1204(8) 0.1357(7) 0.3389(8)
C10 C 0.0400(8) 0.1307(7) 0.4518(8)
C11 C 0.2264(8) 0.1494(7) 0.1561(8)
C12 C 0.2595(8) 0.0507(8) 0.2171(9)
C13 C 0.2759(9) 0.1956(8) 0.0318(8)
C14 C -0.0554(7) 0.1793(8) 0.6591(8)
C15 C 0.1326(9) 0.4835(7) 0.3165(9)
H1 H 0.1773 0.3040 0.5071
H2 H 0.0305 0.4151 0.6875
H3 H 0.1345 0.4753 0.6129
H4 H -0.0980 0.4332 0.5225
H5 H -0.0267 0.5509 0.5142
H6 H -0.0967 0.3112 0.3081
H7 H 0.0392 0.3151 0.1205
H8 H -0.0182 0.0693 0.4500
H9 H 0.3189 -0.0030 0.1871
H10 H 0.3597 0.2097 0.0407
H11 H 0.2628 0.1390 -0.0339
H12 H 0.2364 0.2674 0.0102
H13 H -0.0438 0.2360 0.7252
H14 H -0.1339 0.1877 0.6244
H15 H -0.0463 0.1020 0.6933
loop_
_geom_bond_atom_site_label_1
_geom_bond_atom_site_label_2
_geom_bond_site_symmetry_1
_geom_bond_site_symmetry_2
O1 C2 1_555 1_555
O2 C7 1_555 1_555
O3 C9 1_555 1_555
O4 C15 1_555 1_555
C1 C2 1_555 1_555
C2 C3 1_555 1_555
C3 C4 1_555 1_555
C4 C5 1_555 1_555
C5 C6 1_555 1_555
C6 C7 1_555 1_555
C7 C8 1_555 1_555
C8 C9 1_555 1_555
C9 C10 1_555 1_555
C10 C1 1_555 1_555
C11 C8 1_555 1_555
C12 O3 1_555 1_555
C13 C11 1_555 1_555
C14 C1 1_555 1_555
C15 O2 1_555 1_555
H1 C2 1_555 1_555
H2 C3 1_555 1_555
H3 C3 1_555 1_555
H4 C4 1_555 1_555
H5 C4 1_555 1_555
H6 C6 1_555 1_555
H7 C7 1_555 1_555
H8 C10 1_555 1_555
H9 C12 1_555 1_555
H10 C13 1_555 1_555
H11 C13 1_555 1_555
H12 C13 1_555 1_555
H13 C14 1_555 1_555
H14 C14 1_555 1_555
H15 C14 1_555 1_555
C5 C15 1_555 1_555
C11 C12 1_555 1_555

#END
