
#######################################################################
#
#                 Cambridge Crystallographic Data Centre
#                                CCDC 
#
#######################################################################
#
# If this CIF has been generated from an entry in the Cambridge 
# Structural Database, then it will include bibliographic, chemical, 
# crystal, experimental, refinement or atomic coordinate data resulting 
# from the CCDC's data processing and validation procedures.
#
#######################################################################

data_DEJDOO
_chemical_formula_moiety         'C2 N10 O2 2-,2(H5 N2 1+),2(H2 O1)'
_chemical_name_systematic        
'bis(hydrazinium) 5-[5-(nitroazanidyl)-1H-tetrazol-1-yl]tetrazol-1-ide dihydrate'
_symmetry_cell_setting           monoclinic
_symmetry_space_group_name_H-M   'P 21'
_symmetry_Int_Tables_number      4
_space_group_name_Hall           'P 2yb'
loop_
_symmetry_equiv_pos_site_id
_symmetry_equiv_pos_as_xyz
1 x,y,z
2 -x,1/2+y,-z
_cell_length_a                   3.6735(6)
_cell_length_b                   20.633(4)
_cell_length_c                   7.9016(13)
_cell_angle_alpha                90
_cell_angle_beta                 92.690(4)
_cell_angle_gamma                90
_cell_volume                     598.244
_exptl_crystal_colour            'whiteish colorless'
_exptl_crystal_description       block
_cell_formula_units_Z            2
loop_
_atom_site_label
_atom_site_type_symbol
_atom_site_fract_x
_atom_site_fract_y
_atom_site_fract_z
O1 O 0.2926(5) 0.66540(7) 0.4366(2)
O2 O 0.0111(5) 0.59534(7) 0.5891(2)
N1 N 0.1812(5) 0.60918(8) 0.4587(2)
N2 N 0.4905(4) 0.52603(8) 0.1047(2)
N3 N 0.5943(5) 0.42948(8) 0.2709(2)
N4 N 0.3263(5) 0.41823(8) 0.0140(2)
N5 N 0.2288(5) 0.56065(8) 0.3523(2)
N6 N 0.5233(5) 0.36649(8) 0.2392(2)
N7 N 0.4846(5) 0.63087(9) 0.1308(2)
N8 N 0.3673(5) 0.35981(9) 0.0873(2)
N9 N 0.6345(5) 0.55083(9) -0.0367(2)
N10 N 0.6274(5) 0.61272(8) -0.0190(2)
C1 C 0.3990(5) 0.57581(9) 0.2078(3)
C2 C 0.4682(5) 0.45839(9) 0.1306(2)
O3 O 0.9418(4) 0.31290(7) 0.5135(2)
H1 H 0.766(9) 0.3207(17) 0.442(4)
H2 H 0.851(11) 0.2993(18) 0.612(5)
O4 O 0.6609(6) 0.27044(10) 0.8071(2)
H3 H 0.600(10) 0.234(2) 0.814(5)
H4 H 0.521(9) 0.2946(19) 0.871(4)
N11 N 0.7725(5) 0.71768(9) 0.7043(2)
N12 N 1.0483(4) 0.72959(8) 0.8381(2)
H5 H 0.996(7) 0.7697(14) 0.879(3)
H6 H 1.000(7) 0.6993(14) 0.920(4)
H7 H 0.542(8) 0.7201(13) 0.733(3)
H8 H 0.797(8) 0.7435(15) 0.620(4)
H9 H 0.812(8) 0.6777(15) 0.663(3)
N13 N 0.1670(5) 0.44228(9) 0.5747(2)
N14 N -0.0971(4) 0.46096(9) 0.6960(2)
H10 H 0.404(9) 0.4499(16) 0.612(4)
H11 H -0.075(7) 0.5020(15) 0.705(3)
H12 H 0.126(7) 0.4018(16) 0.539(4)
H13 H -0.006(8) 0.4457(16) 0.797(4)
H14 H 0.143(7) 0.4685(14) 0.489(4)
loop_
_geom_bond_atom_site_label_1
_geom_bond_atom_site_label_2
_geom_bond_site_symmetry_1
_geom_bond_site_symmetry_2
O1 N1 1_555 1_555
O2 N1 1_555 1_555
N1 N5 1_555 1_555
N2 N9 1_555 1_555
N3 N6 1_555 1_555
N4 N8 1_555 1_555
N5 C1 1_555 1_555
N6 N8 1_555 1_555
N7 N10 1_555 1_555
N9 N10 1_555 1_555
C1 N2 1_555 1_555
C2 N2 1_555 1_555
O3 H1 1_555 1_555
H2 O3 1_555 1_555
O4 H3 1_555 1_555
H4 O4 1_555 1_555
N11 N12 1_555 1_555
N12 H5 1_555 1_555
H6 N12 1_555 1_555
H7 N11 1_555 1_555
H8 N11 1_555 1_555
H9 N11 1_555 1_555
N13 N14 1_555 1_555
N14 H11 1_555 1_555
H10 N13 1_555 1_555
H12 N13 1_555 1_555
H13 N14 1_555 1_555
H14 N13 1_555 1_555
N3 C2 1_555 1_555
N4 C2 1_555 1_555
N7 C1 1_555 1_555

#END
