
#######################################################################
#
#                 Cambridge Crystallographic Data Centre
#                                CCDC 
#
#######################################################################
#
# If this CIF has been generated from an entry in the Cambridge 
# Structural Database, then it will include bibliographic, chemical, 
# crystal, experimental, refinement or atomic coordinate data resulting 
# from the CCDC's data processing and validation procedures.
#
#######################################################################

data_DEJFAC
_chemical_formula_moiety         'C2 H1 N10 O2 1-,H2 O1,K1 1+'
_chemical_name_systematic        
"potassium ([2'H-[1,5'-bitetrazole]]-5-yl)(nitro)azanide monohydrate"
_symmetry_cell_setting           monoclinic
_symmetry_space_group_name_H-M   'P 21/c'
_symmetry_Int_Tables_number      14
_space_group_name_Hall           '-P 2ybc'
loop_
_symmetry_equiv_pos_site_id
_symmetry_equiv_pos_as_xyz
1 x,y,z
2 -x,1/2+y,1/2-z
3 -x,-y,-z
4 x,1/2-y,1/2+z
_cell_length_a                   6.3241(9)
_cell_length_b                   18.197(3)
_cell_length_c                   7.7647(11)
_cell_angle_alpha                90
_cell_angle_beta                 95.544(4)
_cell_angle_gamma                90
_cell_volume                     889.379
_exptl_crystal_colour            'whiteish colorless'
_exptl_crystal_description       block
_cell_formula_units_Z            4
loop_
_atom_site_label
_atom_site_type_symbol
_atom_site_fract_x
_atom_site_fract_y
_atom_site_fract_z
K1 K 0.19195(11) 0.50288(3) 0.70302(7)
O1 O 0.0867(4) 0.39476(11) 0.4584(3)
H1 H 0.015(7) 0.353(3) 0.496(5)
H2 H 0.193(6) 0.378(2) 0.403(5)
N1 N 0.7209(3) 0.19797(12) 0.6664(3)
N2 N 0.4666(4) 0.25119(12) 0.7874(3)
O2 O 0.4862(4) 0.39285(11) 0.7797(3)
O3 O 0.7117(4) 0.44710(11) 0.6303(3)
N3 N 1.0236(4) 0.22504(13) 0.5106(3)
N4 N 1.1485(4) 0.17818(12) 0.4363(3)
N5 N 0.4495(4) 0.17638(12) 0.7977(3)
N6 N 0.5980(4) 0.14374(12) 0.7261(3)
N7 N 0.7317(4) 0.32668(12) 0.6503(3)
C1 C 0.6369(4) 0.26519(14) 0.7026(3)
N8 N 1.0987(4) 0.10906(13) 0.4513(3)
N9 N 0.6367(4) 0.39021(12) 0.6891(3)
N10 N 0.9303(4) 0.10712(13) 0.5416(3)
C2 C 0.8925(4) 0.17794(13) 0.5741(3)
H3 H 1.248(9) 0.201(3) 0.386(7)
loop_
_geom_bond_atom_site_label_1
_geom_bond_atom_site_label_2
_geom_bond_site_symmetry_1
_geom_bond_site_symmetry_2
O1 H1 1_555 1_555
H2 O1 1_555 1_555
N1 N6 1_555 1_555
N2 N5 1_555 1_555
O2 N9 1_555 1_555
O3 N9 1_555 1_555
N3 N4 1_555 1_555
N4 N8 1_555 1_555
N5 N6 1_555 1_555
N7 C1 1_555 1_555
C1 N1 1_555 1_555
N8 N10 1_555 1_555
N9 N7 1_555 1_555
N10 C2 1_555 1_555
C2 N1 1_555 1_555
H3 N4 1_555 1_555
N2 C1 1_555 1_555
N3 C2 1_555 1_555

#END
