
#######################################################################
#
#                 Cambridge Crystallographic Data Centre
#                                CCDC 
#
#######################################################################
#
# If this CIF has been generated from an entry in the Cambridge 
# Structural Database, then it will include bibliographic, chemical, 
# crystal, experimental, refinement or atomic coordinate data resulting 
# from the CCDC's data processing and validation procedures.
#
#######################################################################

data_DEJJUZ
_chemical_formula_moiety         'C31 H38 Br2 N1 O5 1+,I1 1-'
_chemical_name_systematic        
'1-((9,9-bis(((4-Bromobenzoyl)oxy)methyl)-(5S,6R)-1-oxaspiro[4.5]dec-6-yl)methyl)-1-methylpyrrolidinium iodide unknown solvate'
_symmetry_cell_setting           triclinic
_symmetry_space_group_name_H-M   'P 1'
_symmetry_Int_Tables_number      1
_space_group_name_Hall           'P 1'
loop_
_symmetry_equiv_pos_site_id
_symmetry_equiv_pos_as_xyz
1 x,y,z
_cell_length_a                   8.469(2)
_cell_length_b                   10.155(2)
_cell_length_c                   21.248(5)
_cell_angle_alpha                97.261(3)
_cell_angle_beta                 92.297(3)
_cell_angle_gamma                94.775(3)
_cell_volume                     1804.07
_exptl_crystal_colour            colorless
_exptl_crystal_description       block
_cell_formula_units_Z            2
_chemical_properties_physical    light-sensitive
_exptl_crystal_recrystallization_method 'dichloromethane/diethyl ether'
loop_
_atom_site_label
_atom_site_type_symbol
_atom_site_fract_x
_atom_site_fract_y
_atom_site_fract_z
C1 C 0.2121(9) 0.5022(8) 0.0945(3)
C2 C 0.2677(10) 0.6363(8) 0.1053(3)
H1 H 0.2487 0.6874 0.1433
C3 C 0.3516(10) 0.6939(6) 0.0593(4)
H2 H 0.3888 0.7835 0.0665
C4 C 0.3800(10) 0.6175(9) 0.0025(4)
C5 C 0.3244(10) 0.4834(8) -0.0083(3)
H3 H 0.3433 0.4323 -0.0462
C6 C 0.2404(9) 0.4258(6) 0.0377(4)
H4 H 0.2033 0.3362 0.0305
Br3 Br 0.57918(15) -0.19643(12) 0.25519(8)
Br4 Br 0.48975(18) 0.6945(3) -0.05966(9)
C38 C -0.2296(12) 0.6713(10) 0.5359(5)
H43 H -0.1161 0.6646 0.5396
H44 H -0.2836 0.5822 0.5307
C39 C -0.2856(17) 0.7568(16) 0.5950(6)
H45 H -0.3876 0.7203 0.6073
H46 H -0.2090 0.7630 0.6306
C40 C -0.2976(18) 0.8884(14) 0.5727(7)
H47 H -0.2333 0.9566 0.6009
H48 H -0.4069 0.9104 0.5734
C41 C -0.2398(13) 0.8843(10) 0.5044(5)
H49 H -0.3001 0.9381 0.4794
H50 H -0.1278 0.9134 0.5044
C42 C -0.4474(10) 0.7161(12) 0.4652(5)
H51 H -0.5038 0.7189 0.5036
H52 H -0.4688 0.6298 0.4408
H53 H -0.4813 0.7830 0.4408
C43 C -0.1936(11) 0.6959(10) 0.4196(5)
H54 H -0.2305 0.6033 0.4060
H55 H -0.2285 0.7475 0.3870
C44 C -0.0123(11) 0.7090(9) 0.4247(5)
H56 H 0.0231 0.7642 0.4648
C45 C 0.0558(10) 0.7774(8) 0.3691(4)
C46 C 0.0313(10) 0.6858(9) 0.3078(4)
H57 H 0.0851 0.7293 0.2755
H58 H -0.0812 0.6770 0.2958
C47 C 0.0850(10) 0.5469(8) 0.3050(4)
C48 C 0.0143(11) 0.4847(8) 0.3615(4)
H59 H -0.0998 0.4684 0.3539
H60 H 0.0564 0.3994 0.3638
C49 C 0.0494(12) 0.5716(9) 0.4250(4)
H61 H 0.1631 0.5823 0.4346
H62 H 0.0002 0.5277 0.4582
C50 C 0.0026(12) 0.9162(9) 0.3649(5)
H63 H -0.0422 0.9222 0.3227
H64 H -0.0762 0.9373 0.3956
C51 C 0.1464(14) 1.0061(11) 0.3789(6)
H65 H 0.1855 1.0336 0.3399
H66 H 0.1234 1.0850 0.4065
C52 C 0.2662(12) 0.9383(9) 0.4098(5)
H67 H 0.2576 0.9497 0.4556
H68 H 0.3721 0.9709 0.4001
C53 C 0.2641(10) 0.5506(9) 0.3079(4)
H69 H 0.3073 0.6029 0.2764
H70 H 0.3068 0.5911 0.3496
C54 C 0.4407(12) 0.3886(10) 0.3177(5)
C55 C 0.4722(10) 0.2458(9) 0.3024(4)
C56 C 0.5962(13) 0.1987(12) 0.3321(6)
H71 H 0.6613 0.2570 0.3613
C57 C 0.6293(13) 0.0671(12) 0.3204(6)
H72 H 0.7100 0.0344 0.3433
C58 C 0.5372(13) -0.0135(10) 0.2733(6)
C59 C 0.4171(14) 0.0323(11) 0.2404(6)
H73 H 0.3584 -0.0235 0.2082
C60 C 0.3832(12) 0.1630(10) 0.2555(5)
H74 H 0.2999 0.1951 0.2338
C61 C 0.0205(10) 0.4654(10) 0.2434(5)
H75 H 0.0426 0.3732 0.2437
H76 H -0.0937 0.4681 0.2396
C62 C 0.1249(13) 0.4308(13) 0.1424(6)
N2 N -0.2712(8) 0.7425(7) 0.4817(4)
O6 O 0.2300(7) 0.8018(6) 0.3834(3)
O7 O 0.3065(7) 0.4148(6) 0.2954(3)
O8 O 0.5340(10) 0.4667(8) 0.3492(5)
O9 O 0.0902(9) 0.5153(6) 0.1907(3)
O10 O 0.0826(13) 0.3172(9) 0.1347(5)
Br1 Br 0.5785(2) 0.3590(3) 1.15997(9)
Br2 Br 0.51825(14) 1.25586(11) 0.85342(7)
C7 C 1.3450(13) 0.1969(11) 0.5416(5)
H5 H 1.2665 0.1210 0.5386
H6 H 1.4468 0.1661 0.5302
C8 C 1.2938(15) 0.3018(14) 0.4987(6)
H7 H 1.3525 0.2961 0.4603
H8 H 1.1814 0.2859 0.4867
C9 C 1.3298(16) 0.4389(11) 0.5374(5)
H9 H 1.3939 0.4977 0.5140
H10 H 1.2324 0.4789 0.5477
C10 C 1.4198(10) 0.4137(9) 0.5972(4)
H11 H 1.5330 0.4176 0.5914
H12 H 1.3997 0.4784 0.6329
C11 C 1.4675(11) 0.2146(10) 0.6494(5)
H13 H 1.5679 0.2092 0.6302
H14 H 1.4240 0.1267 0.6550
H15 H 1.4823 0.2688 0.6900
C12 C 1.1894(9) 0.2698(7) 0.6320(4)
H16 H 1.1576 0.1783 0.6378
H17 H 1.1171 0.2943 0.5998
C13 C 1.1694(10) 0.3594(9) 0.6948(4)
H18 H 1.2752 0.3811 0.7158
C14 C 1.0681(9) 0.2865(8) 0.7395(4)
C15 C 1.0580(10) 0.3776(8) 0.8023(4)
H19 H 1.1607 0.3860 0.8251
H20 H 0.9823 0.3343 0.8279
C16 C 1.0096(10) 0.5178(9) 0.7965(4)
C17 C 1.1051(11) 0.5803(9) 0.7479(4)
H21 H 1.2137 0.6020 0.7646
H22 H 1.0619 0.6627 0.7402
C18 C 1.1043(12) 0.4886(8) 0.6853(4)
H23 H 0.9965 0.4710 0.6671
H24 H 1.1677 0.5323 0.6556
C19 C 0.9058(9) 0.2245(8) 0.7103(4)
H25 H 0.8210 0.2546 0.7364
H26 H 0.8880 0.2478 0.6679
C20 C 0.9141(12) 0.0790(10) 0.7086(5)
H27 H 0.8128 0.0363 0.7181
H28 H 0.9422 0.0399 0.6670
C21 C 1.0379(11) 0.0628(9) 0.7574(5)
H29 H 1.0839 -0.0213 0.7478
H30 H 0.9954 0.0674 0.7992
C22 C 1.0531(11) 0.6048(10) 0.8600(4)
H31 H 1.1660 0.6069 0.8703
H32 H 1.0267 0.6952 0.8576
C23 C 0.9417(12) 0.6270(11) 0.9620(6)
C24 C 0.8509(11) 0.5623(10) 1.0086(4)
C25 C 0.8193(16) 0.6324(14) 1.0642(6)
H33 H 0.8509 0.7231 1.0724
C26 C 0.7352(19) 0.5654(17) 1.1113(5)
H34 H 0.7155 0.6109 1.1506
C27 C 0.6880(13) 0.4372(17) 1.0963(6)
C28 C 0.7199(15) 0.3675(15) 1.0411(6)
H35 H 0.6879 0.2768 1.0332
C29 C 0.7971(14) 0.4270(13) 0.9976(5)
H36 H 0.8156 0.3776 0.9591
C30 C 0.8291(10) 0.5149(9) 0.7811(5)
H37 H 0.8040 0.4814 0.7368
H38 H 0.7708 0.4575 0.8070
C31 C 0.6422(12) 0.6756(11) 0.7733(5)
C32 C 0.6120(10) 0.8140(9) 0.7944(4)
C33 C 0.7016(11) 0.8910(10) 0.8441(5)
H39 H 0.7841 0.8554 0.8645
C34 C 0.6685(12) 1.0175(11) 0.8628(5)
H40 H 0.7236 1.0664 0.8980
C35 C 0.5554(12) 1.0745(9) 0.8306(6)
C36 C 0.4628(11) 1.0003(11) 0.7815(5)
H41 H 0.3814 1.0372 0.7610
C37 C 0.4941(11) 0.8705(10) 0.7638(5)
H42 H 0.4340 0.8198 0.7303
N1 N 1.3556(7) 0.2756(7) 0.6072(3)
O1 O 1.1521(6) 0.1732(5) 0.7534(3)
O2 O 0.9632(8) 0.5469(7) 0.9081(3)
O3 O 0.9879(12) 0.7432(10) 0.9677(5)
O4 O 0.7876(6) 0.6494(6) 0.7948(3)
O5 O 0.5516(9) 0.5923(8) 0.7409(4)
I1 I 0.22104(6) 0.83477(5) 0.59926(3)
I2 I 0.80708(6) 0.26476(6) 0.50878(3)
loop_
_geom_bond_atom_site_label_1
_geom_bond_atom_site_label_2
_geom_bond_site_symmetry_1
_geom_bond_site_symmetry_2
C1 C2 1_555 1_555
C2 H1 1_555 1_555
C3 C2 1_555 1_555
H2 C3 1_555 1_555
C4 C3 1_555 1_555
C5 C4 1_555 1_555
H3 C5 1_555 1_555
C6 C1 1_555 1_555
H4 C6 1_555 1_555
Br1 C27 1_555 1_555
Br2 C35 1_555 1_555
Br3 C58 1_555 1_555
Br4 C4 1_555 1_555
C7 H5 1_555 1_555
H6 C7 1_555 1_555
C8 C7 1_555 1_555
H7 C8 1_555 1_555
H8 C8 1_555 1_555
C9 C8 1_555 1_555
H9 C9 1_555 1_555
H10 C9 1_555 1_555
C10 C9 1_555 1_555
H11 C10 1_555 1_555
H12 C10 1_555 1_555
C11 H13 1_555 1_555
H14 C11 1_555 1_555
H15 C11 1_555 1_555
C12 H16 1_555 1_555
H17 C12 1_555 1_555
C13 C12 1_555 1_555
H18 C13 1_555 1_555
C14 C13 1_555 1_555
C15 C14 1_555 1_555
H19 C15 1_555 1_555
H20 C15 1_555 1_555
C16 C15 1_555 1_555
C17 C16 1_555 1_555
H21 C17 1_555 1_555
H22 C17 1_555 1_555
C18 C13 1_555 1_555
H23 C18 1_555 1_555
H24 C18 1_555 1_555
C19 C14 1_555 1_555
H25 C19 1_555 1_555
H26 C19 1_555 1_555
C20 C19 1_555 1_555
H27 C20 1_555 1_555
H28 C20 1_555 1_555
C21 C20 1_555 1_555
H29 C21 1_555 1_555
H30 C21 1_555 1_555
C22 C16 1_555 1_555
H31 C22 1_555 1_555
H32 C22 1_555 1_555
C23 C24 1_555 1_555
C24 C25 1_555 1_555
C25 H33 1_555 1_555
C26 C25 1_555 1_555
H34 C26 1_555 1_555
C27 C26 1_555 1_555
C28 C27 1_555 1_555
H35 C28 1_555 1_555
C29 C24 1_555 1_555
H36 C29 1_555 1_555
C30 C16 1_555 1_555
H37 C30 1_555 1_555
H38 C30 1_555 1_555
C31 C32 1_555 1_555
C32 C33 1_555 1_555
C33 H39 1_555 1_555
C34 C33 1_555 1_555
H40 C34 1_555 1_555
C35 C34 1_555 1_555
C36 C35 1_555 1_555
H41 C36 1_555 1_555
C37 C32 1_555 1_555
H42 C37 1_555 1_555
C38 H43 1_555 1_555
H44 C38 1_555 1_555
C39 C38 1_555 1_555
H45 C39 1_555 1_555
H46 C39 1_555 1_555
C40 C39 1_555 1_555
H47 C40 1_555 1_555
H48 C40 1_555 1_555
C41 C40 1_555 1_555
H49 C41 1_555 1_555
H50 C41 1_555 1_555
C42 H51 1_555 1_555
H52 C42 1_555 1_555
H53 C42 1_555 1_555
C43 H54 1_555 1_555
H55 C43 1_555 1_555
C44 C43 1_555 1_555
H56 C44 1_555 1_555
C45 C44 1_555 1_555
C46 C45 1_555 1_555
H57 C46 1_555 1_555
H58 C46 1_555 1_555
C47 C46 1_555 1_555
C48 C47 1_555 1_555
H59 C48 1_555 1_555
H60 C48 1_555 1_555
C49 C44 1_555 1_555
H61 C49 1_555 1_555
H62 C49 1_555 1_555
C50 C45 1_555 1_555
H63 C50 1_555 1_555
H64 C50 1_555 1_555
C51 C50 1_555 1_555
H65 C51 1_555 1_555
H66 C51 1_555 1_555
C52 C51 1_555 1_555
H67 C52 1_555 1_555
H68 C52 1_555 1_555
C53 C47 1_555 1_555
H69 C53 1_555 1_555
H70 C53 1_555 1_555
C54 C55 1_555 1_555
C55 C56 1_555 1_555
C56 H71 1_555 1_555
C57 C56 1_555 1_555
H72 C57 1_555 1_555
C58 C57 1_555 1_555
C59 C58 1_555 1_555
H73 C59 1_555 1_555
C60 C55 1_555 1_555
H74 C60 1_555 1_555
C61 C47 1_555 1_555
H75 C61 1_555 1_555
H76 C61 1_555 1_555
C62 C1 1_555 1_555
N1 C7 1_555 1_555
N2 C38 1_555 1_555
O1 C14 1_555 1_555
O2 C22 1_555 1_555
O3 C23 1_555 1_555
O4 C30 1_555 1_555
O5 C31 1_555 1_555
O6 C45 1_555 1_555
O7 C53 1_555 1_555
O8 C54 1_555 1_555
O9 C61 1_555 1_555
O10 C62 1_555 1_555
C5 C6 1_555 1_555
C10 N1 1_555 1_555
C11 N1 1_555 1_555
C12 N1 1_555 1_555
C17 C18 1_555 1_555
C21 O1 1_555 1_555
C23 O2 1_555 1_555
C28 C29 1_555 1_555
C31 O4 1_555 1_555
C36 C37 1_555 1_555
C41 N2 1_555 1_555
C42 N2 1_555 1_555
C43 N2 1_555 1_555
C48 C49 1_555 1_555
C52 O6 1_555 1_555
C54 O7 1_555 1_555
C59 C60 1_555 1_555
C62 O9 1_555 1_555

#END
