
#######################################################################
#
#                 Cambridge Crystallographic Data Centre
#                                CCDC 
#
#######################################################################
#
# If this CIF has been generated from an entry in the Cambridge 
# Structural Database, then it will include bibliographic, chemical, 
# crystal, experimental, refinement or atomic coordinate data resulting 
# from the CCDC's data processing and validation procedures.
#
#######################################################################

data_DEJLEL
_chemical_formula_moiety         'C19 H19 Br1 O2'
_chemical_name_systematic        
'2,6-Dimethylphenyl (1R,2R,3R)-2-(4-bromophenyl)-3-methylcyclopropanecarboxylate'
_symmetry_cell_setting           orthorhombic
_symmetry_space_group_name_H-M   'P 21 21 21'
_symmetry_Int_Tables_number      19
_space_group_name_Hall           'P 2ac 2ab'
loop_
_symmetry_equiv_pos_site_id
_symmetry_equiv_pos_as_xyz
1 x,y,z
2 1/2-x,-y,1/2+z
3 -x,1/2+y,1/2-z
4 1/2+x,1/2-y,-z
_cell_length_a                   5.6322(5)
_cell_length_b                   24.390(2)
_cell_length_c                   25.317(2)
_cell_angle_alpha                90
_cell_angle_beta                 90
_cell_angle_gamma                90
_cell_volume                     3477.78
_exptl_crystal_colour            colorless
_exptl_crystal_description       plate
_cell_formula_units_Z            8
_exptl_crystal_recrystallization_method hexane
loop_
_atom_site_label
_atom_site_type_symbol
_atom_site_fract_x
_atom_site_fract_y
_atom_site_fract_z
Br1 Br 1.12047(18) 0.33127(3) 0.95541(2)
C1 C 0.8133(8) 0.26071(16) 0.69385(15)
H1 H 0.7752 0.2314 0.7189
C2 C 0.8999(9) 0.31350(15) 0.71814(16)
H2 H 1.0117 0.3340 0.6960
C3 C 0.6542(10) 0.31060(18) 0.69644(17)
H3 H 0.5308 0.3082 0.7236
C4 C 0.5800(11) 0.3417(2) 0.6487(2)
H4 H 0.5369 0.3784 0.6586
H5 H 0.4461 0.3239 0.6326
H6 H 0.7091 0.3430 0.6239
C5 C 0.9054(9) 0.24246(16) 0.64247(16)
C6 C 0.8921(8) 0.16687(15) 0.58390(15)
C7 C 1.0810(9) 0.13037(16) 0.58365(16)
C8 C 1.1309(10) 0.10466(15) 0.53591(18)
H7 H 1.2571 0.0802 0.5339
C9 C 0.9967(10) 0.11492(18) 0.4918(2)
H8 H 1.0313 0.0970 0.4603
C10 C 0.8116(9) 0.15146(17) 0.49391(17)
H9 H 0.7225 0.1580 0.4636
C11 C 0.7553(8) 0.17839(15) 0.53954(17)
C12 C 1.2261(11) 0.11908(19) 0.63163(19)
H10 H 1.2933 0.1527 0.6444
H11 H 1.3514 0.0940 0.6229
H12 H 1.1272 0.1033 0.6585
C13 C 0.5568(9) 0.21973(18) 0.5421(2)
H13 H 0.4680 0.2188 0.5098
H14 H 0.6220 0.2557 0.5471
H15 H 0.4538 0.2110 0.5711
C14 C 0.9494(8) 0.31727(15) 0.77600(17)
C15 C 1.1437(9) 0.34657(17) 0.79348(18)
H16 H 1.2413 0.3642 0.7692
C16 C 1.1942(9) 0.34999(18) 0.8465(2)
H17 H 1.3280 0.3690 0.8579
C17 C 1.0491(11) 0.3257(2) 0.88227(18)
C18 C 0.8563(12) 0.29614(19) 0.86655(18)
H18 H 0.7587 0.2792 0.8913
C19 C 0.8086(10) 0.29177(18) 0.81301(18)
H19 H 0.6789 0.2712 0.8019
O1 O 1.0252(6) 0.26834(12) 0.61224(12)
O2 O 0.8321(6) 0.19069(10) 0.63286(10)
Br2 Br 1.13026(15) 0.03065(3) 1.23527(3)
C20 C 0.9068(9) 0.05933(17) 0.95974(19)
H20 H 0.9970 0.0911 0.9724
C21 C 0.8623(9) 0.01362(16) 1.00011(19)
H21 H 0.7131 -0.0063 0.9947
C22 C 1.0405(10) 0.00557(19) 0.9569(2)
H22 H 1.2055 0.0082 0.9690
C23 C 1.0050(12) -0.0347(2) 0.9135(2)
H23 H 1.0463 -0.0707 0.9257
H24 H 1.1041 -0.0250 0.8841
H25 H 0.8417 -0.0343 0.9026
C24 C 0.7239(10) 0.07039(19) 0.9206(2)
C25 C 0.6287(11) 0.13359(18) 0.8517(2)
C26 C 0.6957(11) 0.1153(2) 0.8022(2)
C27 C 0.5668(13) 0.1352(2) 0.7595(2)
H26 H 0.6067 0.1243 0.7254
C28 C 0.3821(14) 0.1706(2) 0.7672(2)
H27 H 0.2991 0.1837 0.7381
C29 C 0.3160(11) 0.1872(2) 0.8170(2)
H28 H 0.1877 0.2107 0.8214
C30 C 0.4409(11) 0.1686(2) 0.86023(19)
C31 C 0.8952(13) 0.0756(2) 0.7948(2)
H29 H 0.8432 0.0395 0.8044
H30 H 1.0266 0.0861 0.8167
H31 H 0.9437 0.0757 0.7584
C32 C 0.3662(13) 0.18513(19) 0.9150(2)
H32 H 0.2298 0.2086 0.9129
H33 H 0.4940 0.2043 0.9319
H34 H 0.3271 0.1530 0.9350
C33 C 0.9305(9) 0.01996(17) 1.0563(2)
C34 C 0.7874(9) -0.00235(19) 1.0952(2)
H35 H 0.6484 -0.0201 1.0852
C35 C 0.8418(11) 0.00055(19) 1.1478(2)
H36 H 0.7399 -0.0143 1.1729
C36 C 1.0485(11) 0.0256(2) 1.1629(2)
C37 C 1.1948(10) 0.0484(2) 1.1263(3)
H37 H 1.3331 0.0661 1.1369
C38 C 1.1381(10) 0.04533(19) 1.0731(2)
H38 H 1.2405 0.0605 1.0482
O3 O 0.5590(7) 0.04238(13) 0.90833(14)
O4 O 0.7703(6) 0.11892(12) 0.89554(13)
loop_
_geom_bond_atom_site_label_1
_geom_bond_atom_site_label_2
_geom_bond_site_symmetry_1
_geom_bond_site_symmetry_2
Br1 C17 1_555 1_555
Br2 C36 1_555 1_555
C1 H1 1_555 1_555
C2 C1 1_555 1_555
H2 C2 1_555 1_555
C3 C1 1_555 1_555
H3 C3 1_555 1_555
C4 C3 1_555 1_555
H4 C4 1_555 1_555
H5 C4 1_555 1_555
H6 C4 1_555 1_555
C5 C1 1_555 1_555
C6 C7 1_555 1_555
C7 C8 1_555 1_555
C8 H7 1_555 1_555
C9 C8 1_555 1_555
H8 C9 1_555 1_555
C10 C9 1_555 1_555
H9 C10 1_555 1_555
C11 C6 1_555 1_555
C12 C7 1_555 1_555
H10 C12 1_555 1_555
H11 C12 1_555 1_555
H12 C12 1_555 1_555
C13 C11 1_555 1_555
H13 C13 1_555 1_555
H14 C13 1_555 1_555
H15 C13 1_555 1_555
C14 C2 1_555 1_555
C15 C14 1_555 1_555
H16 C15 1_555 1_555
C16 C15 1_555 1_555
H17 C16 1_555 1_555
C17 C16 1_555 1_555
C18 C17 1_555 1_555
H18 C18 1_555 1_555
C19 C14 1_555 1_555
H19 C19 1_555 1_555
C20 H20 1_555 1_555
C21 C20 1_555 1_555
H21 C21 1_555 1_555
C22 C20 1_555 1_555
H22 C22 1_555 1_555
C23 C22 1_555 1_555
H23 C23 1_555 1_555
H24 C23 1_555 1_555
H25 C23 1_555 1_555
C24 C20 1_555 1_555
C25 C26 1_555 1_555
C26 C27 1_555 1_555
C27 H26 1_555 1_555
C28 C27 1_555 1_555
H27 C28 1_555 1_555
C29 C28 1_555 1_555
H28 C29 1_555 1_555
C30 C25 1_555 1_555
C31 C26 1_555 1_555
H29 C31 1_555 1_555
H30 C31 1_555 1_555
H31 C31 1_555 1_555
C32 C30 1_555 1_555
H32 C32 1_555 1_555
H33 C32 1_555 1_555
H34 C32 1_555 1_555
C33 C21 1_555 1_555
C34 C33 1_555 1_555
H35 C34 1_555 1_555
C35 C34 1_555 1_555
H36 C35 1_555 1_555
C36 C35 1_555 1_555
C37 C36 1_555 1_555
H37 C37 1_555 1_555
C38 C33 1_555 1_555
H38 C38 1_555 1_555
O1 C5 1_555 1_555
O2 C5 1_555 1_555
O3 C24 1_555 1_555
O4 C24 1_555 1_555
C2 C3 1_555 1_555
C6 O2 1_555 1_555
C10 C11 1_555 1_555
C18 C19 1_555 1_555
C21 C22 1_555 1_555
C25 O4 1_555 1_555
C29 C30 1_555 1_555
C37 C38 1_555 1_555

#END
