
#######################################################################
#
#                 Cambridge Crystallographic Data Centre
#                                CCDC 
#
#######################################################################
#
# If this CIF has been generated from an entry in the Cambridge 
# Structural Database, then it will include bibliographic, chemical, 
# crystal, experimental, refinement or atomic coordinate data resulting 
# from the CCDC's data processing and validation procedures.
#
#######################################################################

data_DEJTAP
_chemical_formula_moiety         'C12 H12 Br1 N1 O3'
_chemical_name_systematic        
(3S,4S)-3-(4-Bromophenyl)-4-nitrocyclohexanone
_symmetry_cell_setting           orthorhombic
_symmetry_space_group_name_H-M   'P 21 21 21'
_symmetry_Int_Tables_number      19
_space_group_name_Hall           'P 2ac 2ab'
loop_
_symmetry_equiv_pos_site_id
_symmetry_equiv_pos_as_xyz
1 x,y,z
2 1/2-x,-y,1/2+z
3 1/2+x,1/2-y,-z
4 -x,1/2+y,1/2-z
_cell_length_a                   6.8971(4)
_cell_length_b                   10.6088(6)
_cell_length_c                   15.8924(8)
_cell_angle_alpha                90
_cell_angle_beta                 90
_cell_angle_gamma                90
_cell_volume                     1162.85
_exptl_crystal_colour            colorless
_exptl_crystal_description       block
_cell_formula_units_Z            4
loop_
_atom_site_label
_atom_site_type_symbol
_atom_site_fract_x
_atom_site_fract_y
_atom_site_fract_z
Br1 Br -0.00135(3) 0.881956(13) 0.508496(9)
N1 N 0.5017(3) 0.83271(11) 0.87257(8)
O1 O 0.5036(2) 0.73265(10) 0.91137(7)
C1 C 0.5314(2) 0.92008(15) 0.62620(10)
H1 H 0.6423 0.9727 0.6210
C2 C 0.9322(2) 0.64644(15) 0.80868(11)
O2 O 0.35792(18) 0.89914(13) 0.86519(9)
O3 O 1.05845(17) 0.57280(12) 0.78896(8)
C3 C 0.5290(2) 0.82529(14) 0.68723(10)
C4 C 0.3744(2) 0.93855(15) 0.57311(11)
H2 H 0.3774 1.0027 0.5314
C5 C 0.9395(3) 0.71955(16) 0.88991(11)
H3 H 1.0754 0.7218 0.9100
H4 H 0.8620 0.6741 0.9327
C6 C 0.2132(2) 0.86200(15) 0.58181(10)
C7 C 0.6852(2) 0.87480(16) 0.82867(11)
H5 H 0.6732 0.9671 0.8170
C8 C 0.7028(3) 0.80624(15) 0.74342(10)
H6 H 0.8152 0.8457 0.7136
C9 C 0.7547(3) 0.66585(16) 0.75476(10)
H7 H 0.6434 0.6217 0.7809
H8 H 0.7774 0.6277 0.6988
C10 C 0.2058(3) 0.76820(16) 0.64151(11)
H9 H 0.0940 0.7164 0.6466
C11 C 0.3637(2) 0.75013(16) 0.69427(11)
H10 H 0.3592 0.6857 0.7357
C12 C 0.8641(2) 0.85547(16) 0.88361(11)
H11 H 0.8338 0.8856 0.9411
H12 H 0.9698 0.9092 0.8614
loop_
_geom_bond_atom_site_label_1
_geom_bond_atom_site_label_2
_geom_bond_site_symmetry_1
_geom_bond_site_symmetry_2
Br1 C6 1_555 1_555
N1 O1 1_555 1_555
C1 H1 1_555 1_555
C2 O3 1_555 1_555
O2 N1 1_555 1_555
C3 C1 1_555 1_555
C4 C1 1_555 1_555
H2 C4 1_555 1_555
C5 C2 1_555 1_555
H3 C5 1_555 1_555
H4 C5 1_555 1_555
C6 C4 1_555 1_555
C7 N1 1_555 1_555
H5 C7 1_555 1_555
C8 C3 1_555 1_555
H6 C8 1_555 1_555
C9 C2 1_555 1_555
H7 C9 1_555 1_555
H8 C9 1_555 1_555
C10 C6 1_555 1_555
H9 C10 1_555 1_555
C11 C3 1_555 1_555
H10 C11 1_555 1_555
C12 C5 1_555 1_555
H11 C12 1_555 1_555
H12 C12 1_555 1_555
C7 C8 1_555 1_555
C7 C12 1_555 1_555
C8 C9 1_555 1_555
C10 C11 1_555 1_555

#END
