
#######################################################################
#
#                 Cambridge Crystallographic Data Centre
#                                CCDC 
#
#######################################################################
#
# If this CIF has been generated from an entry in the Cambridge 
# Structural Database, then it will include bibliographic, chemical, 
# crystal, experimental, refinement or atomic coordinate data resulting 
# from the CCDC's data processing and validation procedures.
#
#######################################################################

data_DEJVUL
_chemical_formula_moiety         'C15 H11 N1 O4 S1'
_chemical_name_systematic        1-((Phenylsulfonyl)oxy)quinolin-2(1H)-one
_symmetry_cell_setting           monoclinic
_symmetry_space_group_name_H-M   'P 21/a'
_symmetry_Int_Tables_number      14
_space_group_name_Hall           '-P 2yab'
loop_
_symmetry_equiv_pos_site_id
_symmetry_equiv_pos_as_xyz
1 x,y,z
2 1/2-x,1/2+y,-z
3 -x,-y,-z
4 1/2+x,1/2-y,z
_cell_length_a                   7.8171(11)
_cell_length_b                   12.0175(16)
_cell_length_c                   14.524(2)
_cell_angle_alpha                90
_cell_angle_beta                 94.924(4)
_cell_angle_gamma                90
_cell_volume                     1359.38
_chemical_melting_point          '118-122 deg.C'
_cell_formula_units_Z            4
loop_
_atom_site_label
_atom_site_type_symbol
_atom_site_fract_x
_atom_site_fract_y
_atom_site_fract_z
S1 S 0.10628(7) 0.42595(5) 0.23115(4)
O1 O 0.30169(19) 0.41699(11) 0.28647(9)
N1 N 0.3757(2) 0.51915(14) 0.31171(12)
C1 C 0.3508(3) 0.55776(16) 0.40000(14)
C2 C 0.2515(3) 0.49994(18) 0.45954(15)
H1 H 0.1984 0.4334 0.4411
C3 C 0.4307(3) 0.65803(18) 0.42771(16)
C4 C 0.1343(3) 0.35519(18) 0.12858(14)
C5 C 0.4753(3) 0.5679(2) 0.24783(17)
O2 O 0.0723(2) 0.54029(14) 0.21558(12)
O3 O 0.4902(3) 0.52419(16) 0.17348(13)
C6 C 0.3129(3) 0.6412(2) 0.57499(18)
H2 H 0.2999 0.6689 0.6338
O4 O 0.0032(2) 0.36089(17) 0.28620(11)
C7 C 0.1762(3) 0.4144(2) 0.05245(16)
H3 H 0.1910 0.4912 0.0554
C8 C 0.5279(3) 0.7145(2) 0.3631(2)
H4 H 0.5776 0.7827 0.3797
C9 C 0.4104(3) 0.6974(2) 0.51687(19)
H5 H 0.4644 0.7631 0.5368
C10 C 0.2335(3) 0.5431(2) 0.54616(16)
H6 H 0.1665 0.5054 0.5859
C11 C 0.1099(3) 0.2413(2) 0.12602(16)
H7 H 0.0802 0.2030 0.1779
C12 C 0.1742(4) 0.2436(3) -0.03126(19)
H8 H 0.1894 0.2052 -0.0855
C13 C 0.5501(3) 0.6730(2) 0.2800(2)
H9 H 0.6159 0.7129 0.2411
C14 C 0.1957(4) 0.3568(3) -0.02857(17)
H10 H 0.2234 0.3948 -0.0811
C15 C 0.1306(4) 0.1861(2) 0.04477(19)
H11 H 0.1149 0.1095 0.0414
loop_
_geom_bond_atom_site_label_1
_geom_bond_atom_site_label_2
_geom_bond_site_symmetry_1
_geom_bond_site_symmetry_2
S1 O1 1_555 1_555
O1 N1 1_555 1_555
N1 C1 1_555 1_555
C1 C2 1_555 1_555
C2 H1 1_555 1_555
C3 C1 1_555 1_555
C4 S1 1_555 1_555
C5 N1 1_555 1_555
O2 S1 1_555 1_555
O3 C5 1_555 1_555
C6 H2 1_555 1_555
O4 S1 1_555 1_555
C7 C4 1_555 1_555
H3 C7 1_555 1_555
C8 C3 1_555 1_555
H4 C8 1_555 1_555
C9 C3 1_555 1_555
H5 C9 1_555 1_555
C10 C2 1_555 1_555
H6 C10 1_555 1_555
C11 C4 1_555 1_555
H7 C11 1_555 1_555
C12 H8 1_555 1_555
C13 C5 1_555 1_555
H9 C13 1_555 1_555
C14 C7 1_555 1_555
H10 C14 1_555 1_555
C15 C11 1_555 1_555
H11 C15 1_555 1_555
C6 C9 1_555 1_555
C6 C10 1_555 1_555
C8 C13 1_555 1_555
C12 C14 1_555 1_555
C12 C15 1_555 1_555

#END
