
#######################################################################
#
#                 Cambridge Crystallographic Data Centre
#                                CCDC 
#
#######################################################################
#
# If this CIF has been generated from an entry in the Cambridge 
# Structural Database, then it will include bibliographic, chemical, 
# crystal, experimental, refinement or atomic coordinate data resulting 
# from the CCDC's data processing and validation procedures.
#
#######################################################################

data_DEJXOI
_chemical_formula_moiety         'C24 H26 O8'
_chemical_name_systematic        
'ethyl 4-(3,4-dimethoxybenzylidene)-3-(3,4-dimethoxyphenyl)-5-oxotetrahydrofuran-2-carboxylate'
_symmetry_cell_setting           tetragonal
_symmetry_space_group_name_H-M   'P 41'
_symmetry_Int_Tables_number      76
_space_group_name_Hall           'P 4w'
loop_
_symmetry_equiv_pos_site_id
_symmetry_equiv_pos_as_xyz
1 x,y,z
2 -x,-y,1/2+z
3 -y,x,1/4+z
4 y,-x,3/4+z
_cell_length_a                   13.0665(2)
_cell_length_b                   13.0665(2)
_cell_length_c                   13.4735(2)
_cell_angle_alpha                90
_cell_angle_beta                 90
_cell_angle_gamma                90
_cell_volume                     2300.38
_exptl_crystal_colour            colorless
_exptl_crystal_description       column
_cell_formula_units_Z            4
loop_
_atom_site_label
_atom_site_type_symbol
_atom_site_fract_x
_atom_site_fract_y
_atom_site_fract_z
O1 O 0.71616(12) 1.2054(2) 0.08814(16)
O2 O 0.62229(11) 1.10990(13) -0.01401(13)
O3 O 0.16576(13) 1.42644(12) 0.11612(15)
O4 O 0.21236(18) 1.61638(13) 0.13844(16)
O5 O 0.13042(10) 0.99489(11) 0.03136(11)
O6 O 0.16127(10) 0.94377(9) 0.21413(11)
O7 O 0.58667(14) 1.21542(15) -0.18762(13)
O8 O 0.45190(14) 1.11482(15) -0.21302(13)
C1 C 0.63426(15) 1.1889(2) 0.05140(18)
C2 C 0.53588(13) 1.24234(16) 0.06348(14)
C3 C 0.45492(12) 1.18269(13) 0.00945(13)
H1 H 0.4170 1.2294 -0.0339
C4 C 0.52196(14) 1.11093(15) -0.05596(15)
H2 H 0.4933 1.0416 -0.0565
C5 C 0.53311(15) 1.33381(17) 0.10733(15)
H3 H 0.5950 1.3557 0.1339
C6 C 0.44832(16) 1.40446(15) 0.11999(14)
C7 C 0.34518(15) 1.37570(14) 0.11336(15)
H4 H 0.3284 1.3073 0.1035
C8 C 0.26843(16) 1.44737(15) 0.12119(15)
C9 C 0.2937(2) 1.55146(16) 0.13490(16)
C10 C 0.3949(2) 1.57895(18) 0.14319(18)
H5 H 0.4122 1.6472 0.1533
C11 C 0.4702(2) 1.50714(18) 0.13677(16)
H6 H 0.5381 1.5273 0.1438
C12 C 0.13684(18) 1.32340(18) 0.0954(2)
H7 H 0.0636 1.3184 0.0938
H8 H 0.1633 1.2792 0.1462
H9 H 0.1642 1.3033 0.0322
C13 C 0.2363(4) 1.7230(2) 0.1362(3)
H10 H 0.1741 1.7621 0.1386
H11 H 0.2726 1.7387 0.0762
H12 H 0.2781 1.7400 0.1924
C14 C 0.37902(12) 1.12184(12) 0.07122(13)
C15 C 0.28956(13) 1.08962(13) 0.02360(13)
H13 H 0.2777 1.1088 -0.0419
C16 C 0.21894(12) 1.02992(12) 0.07225(14)
C17 C 0.23582(13) 1.00217(12) 0.17202(13)
C18 C 0.32335(13) 1.03577(13) 0.21905(14)
H14 H 0.3348 1.0183 0.2850
C19 C 0.39483(13) 1.09559(14) 0.16884(13)
H15 H 0.4535 1.1179 0.2015
C20 C 0.10081(17) 1.03856(19) -0.0606(2)
H16 H 0.0373 1.0088 -0.0819
H17 H 0.1527 1.0254 -0.1094
H18 H 0.0923 1.1111 -0.0529
C21 C 0.16681(18) 0.92614(18) 0.31759(18)
H19 H 0.1101 0.8843 0.3378
H20 H 0.1643 0.9904 0.3521
H21 H 0.2298 0.8918 0.3330
C22 C 0.52652(15) 1.15315(16) -0.16013(15)
C23 C 0.4370(4) 1.1566(4) -0.3131(3)
H22 H 0.4272 1.2301 -0.3098
H23 H 0.4964 1.1427 -0.3539
C24 C 0.3507(7) 1.1100(7) -0.3533(6)
H24 H 0.3381 1.1372 -0.4183
H25 H 0.2927 1.1231 -0.3115
H26 H 0.3620 1.0375 -0.3578
loop_
_geom_bond_atom_site_label_1
_geom_bond_atom_site_label_2
_geom_bond_site_symmetry_1
_geom_bond_site_symmetry_2
O1 C1 1_555 1_555
O2 C1 1_555 1_555
O3 C8 1_555 1_555
O4 C9 1_555 1_555
O5 C16 1_555 1_555
O6 C17 1_555 1_555
O7 C22 1_555 1_555
O8 C22 1_555 1_555
C1 C2 1_555 1_555
C2 C3 1_555 1_555
C3 H1 1_555 1_555
C4 O2 1_555 1_555
H2 C4 1_555 1_555
C5 C2 1_555 1_555
H3 C5 1_555 1_555
C6 C5 1_555 1_555
C7 C6 1_555 1_555
H4 C7 1_555 1_555
C8 C7 1_555 1_555
C9 C8 1_555 1_555
C10 C9 1_555 1_555
H5 C10 1_555 1_555
C11 C6 1_555 1_555
H6 C11 1_555 1_555
C12 O3 1_555 1_555
H7 C12 1_555 1_555
H8 C12 1_555 1_555
H9 C12 1_555 1_555
C13 O4 1_555 1_555
H10 C13 1_555 1_555
H11 C13 1_555 1_555
H12 C13 1_555 1_555
C14 C3 1_555 1_555
C15 C14 1_555 1_555
H13 C15 1_555 1_555
C16 C15 1_555 1_555
C17 C16 1_555 1_555
C18 C17 1_555 1_555
H14 C18 1_555 1_555
C19 C14 1_555 1_555
H15 C19 1_555 1_555
C20 O5 1_555 1_555
H16 C20 1_555 1_555
H17 C20 1_555 1_555
H18 C20 1_555 1_555
C21 O6 1_555 1_555
H19 C21 1_555 1_555
H20 C21 1_555 1_555
H21 C21 1_555 1_555
C22 C4 1_555 1_555
C23 O8 1_555 1_555
H22 C23 1_555 1_555
H23 C23 1_555 1_555
C24 C23 1_555 1_555
H24 C24 1_555 1_555
H25 C24 1_555 1_555
H26 C24 1_555 1_555
C3 C4 1_555 1_555
C10 C11 1_555 1_555
C18 C19 1_555 1_555

#END
