
#######################################################################
#
#                 Cambridge Crystallographic Data Centre
#                                CCDC 
#
#######################################################################
#
# If this CIF has been generated from an entry in the Cambridge 
# Structural Database, then it will include bibliographic, chemical, 
# crystal, experimental, refinement or atomic coordinate data resulting 
# from the CCDC's data processing and validation procedures.
#
#######################################################################

data_DEJYAU
_chemical_name_common            
'Ethyl 2-(4-methylphenylsulfonamido)-3-oxo-3-phenylpropanoate'
_chemical_formula_moiety         'C18 H19 N1 O5 S1'
_chemical_name_systematic        
'Ethyl N-((4-methylphenyl)sulfonyl)-\b-oxophenylalaninate'
_symmetry_cell_setting           monoclinic
_symmetry_space_group_name_H-M   'P 21/c'
_symmetry_Int_Tables_number      14
_space_group_name_Hall           '-P 2ybc'
loop_
_symmetry_equiv_pos_site_id
_symmetry_equiv_pos_as_xyz
1 x,y,z
2 -x,1/2+y,1/2-z
3 -x,-y,-z
4 x,1/2-y,1/2+z
_cell_length_a                   9.8509(4)
_cell_length_b                   9.5494(4)
_cell_length_c                   19.3078(7)
_cell_angle_alpha                90
_cell_angle_beta                 99.235(2)
_cell_angle_gamma                90
_cell_volume                     1792.75
_exptl_crystal_colour            colorless
_exptl_crystal_description       plate
_chemical_melting_point          '109-110 deg.C'
_cell_formula_units_Z            4
loop_
_atom_site_label
_atom_site_type_symbol
_atom_site_fract_x
_atom_site_fract_y
_atom_site_fract_z
C1 C 0.64615(19) 0.4070(2) 0.09222(10)
H1 H 0.5573 0.4317 0.1014
C2 C 0.6948(2) 0.4623(2) 0.03439(10)
H2 H 0.6403 0.5274 0.0048
C3 C 0.8227(2) 0.4230(3) 0.01970(11)
H3 H 0.8549 0.4604 -0.0203
C4 C 0.9037(2) 0.3299(3) 0.06284(12)
H4 H 0.9908 0.3023 0.0523
C5 C 0.8572(2) 0.2768(2) 0.12166(12)
H5 H 0.9134 0.2141 0.1519
C6 C 0.72804(19) 0.3151(2) 0.13660(10)
C7 C 0.6870(2) 0.2594(2) 0.20204(10)
C8 C 0.53474(19) 0.2707(2) 0.21216(10)
H6 H 0.5010 0.3687 0.2026
C9 C 0.5294(2) 0.2322(2) 0.28847(10)
C10 C 0.5791(3) 0.3110(3) 0.40662(11)
H7 H 0.6517 0.3722 0.4320
H8 H 0.6078 0.2125 0.4157
C11 C 0.4467(4) 0.3366(4) 0.43314(15)
H9 H 0.4159 0.4328 0.4220
H10 H 0.4605 0.3231 0.4841
H11 H 0.3768 0.2708 0.4107
C12 C 0.21206(19) 0.2362(2) 0.20774(11)
C13 C 0.1664(2) 0.1193(2) 0.23970(12)
H12 H 0.1766 0.0285 0.2210
C14 C 0.1056(2) 0.1357(3) 0.29922(13)
H13 H 0.0746 0.0556 0.3213
C15 C 0.0895(2) 0.2674(3) 0.32684(14)
C16 C 0.0233(4) 0.2848(4) 0.39205(18)
H14 H 0.0900 0.2604 0.4336
H15 H -0.0568 0.2229 0.3890
H16 H -0.0060 0.3822 0.3957
C17 C 0.1357(3) 0.3829(3) 0.29426(14)
H17 H 0.1254 0.4735 0.3131
C18 C 0.1969(2) 0.3695(2) 0.23449(12)
H18 H 0.2277 0.4497 0.2124
N1 N 0.45461(17) 0.17424(19) 0.16312(9)
H19 H 0.457(3) 0.0880(19) 0.1764(14)
O1 O 0.76855(17) 0.2050(2) 0.24768(9)
O2 O 0.50207(17) 0.11574(16) 0.30619(8)
O3 O 0.56314(17) 0.33976(17) 0.33086(7)
O4 O 0.29713(17) 0.3515(2) 0.10182(8)
O5 O 0.23539(18) 0.0999(2) 0.09382(9)
S1 S 0.29333(5) 0.21704(6) 0.13387(3)
loop_
_geom_bond_atom_site_label_1
_geom_bond_atom_site_label_2
_geom_bond_site_symmetry_1
_geom_bond_site_symmetry_2
C1 H1 1_555 1_555
C2 C1 1_555 1_555
H2 C2 1_555 1_555
C3 C2 1_555 1_555
H3 C3 1_555 1_555
C4 C3 1_555 1_555
H4 C4 1_555 1_555
C5 C4 1_555 1_555
H5 C5 1_555 1_555
C6 C1 1_555 1_555
C7 C6 1_555 1_555
C8 C7 1_555 1_555
H6 C8 1_555 1_555
C9 C8 1_555 1_555
C10 H7 1_555 1_555
H8 C10 1_555 1_555
C11 C10 1_555 1_555
H9 C11 1_555 1_555
H10 C11 1_555 1_555
H11 C11 1_555 1_555
C12 C13 1_555 1_555
C13 H12 1_555 1_555
C14 C13 1_555 1_555
H13 C14 1_555 1_555
C15 C14 1_555 1_555
C16 C15 1_555 1_555
H14 C16 1_555 1_555
H15 C16 1_555 1_555
H16 C16 1_555 1_555
C17 C15 1_555 1_555
H17 C17 1_555 1_555
C18 C12 1_555 1_555
H18 C18 1_555 1_555
N1 C8 1_555 1_555
H19 N1 1_555 1_555
O1 C7 1_555 1_555
O2 C9 1_555 1_555
O3 C9 1_555 1_555
O4 S1 1_555 1_555
O5 S1 1_555 1_555
S1 C12 1_555 1_555
C5 C6 1_555 1_555
C10 O3 1_555 1_555
C17 C18 1_555 1_555
N1 S1 1_555 1_555

#END
