
#######################################################################
#
#                 Cambridge Crystallographic Data Centre
#                                CCDC 
#
#######################################################################
#
# If this CIF has been generated from an entry in the Cambridge 
# Structural Database, then it will include bibliographic, chemical, 
# crystal, experimental, refinement or atomic coordinate data resulting 
# from the CCDC's data processing and validation procedures.
#
#######################################################################

data_DEKDON
_chemical_formula_moiety         'C58 H44 N2 O2,1.5(C1 H2 Cl2),C2 H6 O1'
_chemical_name_systematic        
"2,2'-Dimethoxy-3,3'-bis(4-(diphenylamino)phenyl)-1,1'-binaphthalenyl dichloromethane ethanol solvate"
_symmetry_cell_setting           monoclinic
_symmetry_space_group_name_H-M   'P 21/c'
_symmetry_Int_Tables_number      14
_space_group_name_Hall           '-P 2ybc'
loop_
_symmetry_equiv_pos_site_id
_symmetry_equiv_pos_as_xyz
1 x,y,z
2 -x,1/2+y,1/2-z
3 -x,-y,-z
4 x,1/2-y,1/2+z
_cell_length_a                   16.7740(4)
_cell_length_b                   9.1507(2)
_cell_length_c                   33.7212(9)
_cell_angle_alpha                90
_cell_angle_beta                 92.5203(8)
_cell_angle_gamma                90
_cell_volume                     5170.99
_exptl_crystal_colour            colorless
_exptl_crystal_description       'thin plate'
_cell_formula_units_Z            4
_exptl_crystal_preparation       luminescent
loop_
_atom_site_label
_atom_site_type_symbol
_atom_site_fract_x
_atom_site_fract_y
_atom_site_fract_z
O1 O 0.69240(19) 1.0905(4) 0.29105(11)
O2 O 0.86916(18) 1.1802(3) 0.24435(10)
N1 N 0.4181(3) 1.4371(5) 0.37828(15)
N2 N 0.9507(2) 1.2052(5) 0.06366(13)
C1 C 0.7501(3) 1.1219(5) 0.32053(15)
C2 C 0.8244(3) 1.0615(5) 0.31653(14)
C3 C 0.8848(3) 1.0844(5) 0.34691(15)
C4 C 0.9618(3) 1.0227(5) 0.34555(16)
H1 H 0.9746 0.9626 0.3238
C5 C 1.0188(3) 1.0492(6) 0.37575(17)
H2 H 1.0705 1.0071 0.3746
C6 C 1.0004(3) 1.1384(6) 0.40811(17)
H3 H 1.0400 1.1577 0.4284
C7 C 0.9266(3) 1.1966(6) 0.41041(16)
H4 H 0.9148 1.2540 0.4329
C8 C 0.8660(3) 1.1738(5) 0.37981(15)
C9 C 0.7887(3) 1.2323(5) 0.38218(15)
H5 H 0.7768 1.2898 0.4046
C10 C 0.7302(3) 1.2093(5) 0.35347(15)
C11 C 0.6499(3) 1.2690(5) 0.35833(16)
C12 C 0.5806(3) 1.1890(6) 0.34962(17)
H6 H 0.5855 1.0935 0.3390
C13 C 0.5049(3) 1.2422(6) 0.35581(18)
H7 H 0.4593 1.1840 0.3494
C14 C 0.4960(3) 1.3821(6) 0.37160(17)
C15 C 0.5634(3) 1.4642(6) 0.38012(18)
H8 H 0.5587 1.5598 0.3907
C16 C 0.6386(3) 1.4073(6) 0.37325(17)
H9 H 0.6841 1.4665 0.3791
C17 C 0.3601(3) 1.3429(6) 0.39441(17)
C18 C 0.3814(3) 1.2497(6) 0.42594(18)
H10 H 0.4349 1.2476 0.4364
C19 C 0.3238(4) 1.1597(6) 0.44200(18)
H11 H 0.3383 1.0946 0.4630
C20 C 0.2451(4) 1.1655(6) 0.42715(19)
H12 H 0.2056 1.1065 0.4385
C21 C 0.2250(3) 1.2559(7) 0.39632(19)
H13 H 0.1715 1.2579 0.3858
C22 C 0.2828(3) 1.3468(6) 0.37981(18)
H14 H 0.2679 1.4108 0.3586
C23 C 0.4006(3) 1.5878(6) 0.37345(18)
C24 C 0.4280(3) 1.6648(7) 0.34080(19)
H15 H 0.4598 1.6179 0.3220
C25 C 0.4076(4) 1.8116(7) 0.3366(2)
H16 H 0.4265 1.8647 0.3147
C26 C 0.3612(4) 1.8816(6) 0.3630(2)
H17 H 0.3458 1.9805 0.3589
C27 C 0.3371(3) 1.8056(7) 0.3959(2)
H18 H 0.3074 1.8541 0.4154
C28 C 0.3560(3) 1.6604(6) 0.40065(18)
H19 H 0.3380 1.6090 0.4230
C29 C 0.8597(3) 1.0290(5) 0.24617(15)
C30 C 0.8403(3) 0.9673(5) 0.28144(15)
C31 C 0.8338(3) 0.8121(5) 0.28428(15)
C32 C 0.8190(3) 0.7391(6) 0.32000(16)
H20 H 0.8093 0.7950 0.3430
C33 C 0.8181(3) 0.5900(6) 0.32235(17)
H21 H 0.8103 0.5441 0.3472
C34 C 0.8283(3) 0.5048(6) 0.28875(17)
H22 H 0.8261 0.4012 0.2904
C35 C 0.8418(3) 0.5719(6) 0.25320(17)
H23 H 0.8486 0.5135 0.2303
C36 C 0.8458(3) 0.7253(5) 0.24986(16)
C37 C 0.8620(3) 0.7963(5) 0.21378(15)
H24 H 0.8675 0.7390 0.1906
C38 C 0.8703(3) 0.9465(5) 0.21127(15)
C39 C 0.8910(3) 1.0149(5) 0.17292(15)
C40 C 0.9507(3) 0.9573(6) 0.15072(16)
H25 H 0.9794 0.8743 0.1605
C41 C 0.9702(3) 1.0169(6) 0.11444(16)
H26 H 1.0108 0.9735 0.0996
C42 C 0.9303(3) 1.1396(6) 0.09988(16)
C43 C 0.8692(3) 1.1989(6) 0.12192(16)
H27 H 0.8409 1.2823 0.1122
C44 C 0.8499(3) 1.1374(5) 0.15753(16)
H28 H 0.8080 1.1787 0.1719
C45 C 1.0307(3) 1.1925(6) 0.05040(17)
C46 C 1.0944(3) 1.2119(6) 0.07683(17)
H29 H 1.0858 1.2386 0.1035
C47 C 1.1714(4) 1.1921(6) 0.0644(2)
H30 H 1.2155 1.2014 0.0829
C48 C 1.1842(4) 1.1592(6) 0.0254(2)
H31 H 1.2371 1.1465 0.0170
C49 C 1.1208(4) 1.1447(6) -0.00139(19)
H32 H 1.1297 1.1238 -0.0284
C50 C 1.0447(3) 1.1605(5) 0.01101(17)
H33 H 1.0008 1.1494 -0.0075
C51 C 0.8907(3) 1.2708(6) 0.03791(16)
C52 C 0.9092(3) 1.3983(6) 0.01777(16)
H34 H 0.9602 1.4422 0.0219
C53 C 0.8533(4) 1.4608(7) -0.00820(17)
H35 H 0.8662 1.5478 -0.0218
C54 C 0.7805(4) 1.4004(8) -0.01458(18)
H36 H 0.7428 1.4450 -0.0326
C55 C 0.7602(4) 1.2729(8) 0.00518(19)
H37 H 0.7086 1.2316 0.0009
C56 C 0.8157(3) 1.2058(7) 0.03124(17)
H38 H 0.8028 1.1175 0.0443
C57 C 0.6724(3) 1.2081(6) 0.26429(18)
H39 H 0.6311 1.1756 0.2448
H40 H 0.7200 1.2379 0.2505
H41 H 0.6524 1.2912 0.2793
C58 C 0.9530(3) 1.2223(6) 0.24586(17)
H42 H 0.9572 1.3290 0.2447
H43 H 0.9793 1.1793 0.2232
H44 H 0.9789 1.1868 0.2706
C59 C 0.6299(5) 0.8067(9) 0.2401(5)
Cl1 Cl 0.53904(15) 0.8884(3) 0.24797(9)
Cl2 Cl 0.5925(9) 0.6174(13) 0.2610(4)
O4 O 0.6374(5) 0.8275(9) 0.3757(3)
C63 C 0.6184(13) 0.879(2) 0.4149(5)
C64 C 0.5407(9) 0.913(2) 0.4239(5)
Cl3? Cl 0.6327(3) 0.6244(5) 0.2358(2)
C60? C 0.5878(11) 0.8327(18) 0.4556(4)
Cl4? Cl 0.6325(6) 0.8438(14) 0.4137(5)
Cl5? Cl 0.5425(6) 1.0036(12) 0.4677(3)
O3? O 0.567(2) 1.451(5) 0.4930(13)
C61? C 0.4925(14) 1.528(3) 0.4837(7)
C62? C 0.440(2) 1.530(5) 0.5195(10)
Cl6? Cl 0.5601(12) 1.379(3) 0.4912(9)
Cl7? Cl 0.4051(11) 1.484(3) 0.5120(6)
loop_
_geom_bond_atom_site_label_1
_geom_bond_atom_site_label_2
_geom_bond_site_symmetry_1
_geom_bond_site_symmetry_2
O1 C1 1_555 1_555
O2 C29 1_555 1_555
N1 C14 1_555 1_555
N2 C42 1_555 1_555
C1 C2 1_555 1_555
C2 C3 1_555 1_555
C3 C4 1_555 1_555
C4 H1 1_555 1_555
C5 C4 1_555 1_555
H2 C5 1_555 1_555
C6 C5 1_555 1_555
H3 C6 1_555 1_555
C7 C6 1_555 1_555
H4 C7 1_555 1_555
C8 C3 1_555 1_555
C9 C8 1_555 1_555
H5 C9 1_555 1_555
C10 C1 1_555 1_555
C11 C10 1_555 1_555
C12 C11 1_555 1_555
H6 C12 1_555 1_555
C13 C12 1_555 1_555
H7 C13 1_555 1_555
C14 C13 1_555 1_555
C15 C14 1_555 1_555
H8 C15 1_555 1_555
C16 C11 1_555 1_555
H9 C16 1_555 1_555
C17 N1 1_555 1_555
C18 C17 1_555 1_555
H10 C18 1_555 1_555
C19 C18 1_555 1_555
H11 C19 1_555 1_555
C20 C19 1_555 1_555
H12 C20 1_555 1_555
C21 C20 1_555 1_555
H13 C21 1_555 1_555
C22 C17 1_555 1_555
H14 C22 1_555 1_555
C23 N1 1_555 1_555
C24 C23 1_555 1_555
H15 C24 1_555 1_555
C25 C24 1_555 1_555
H16 C25 1_555 1_555
C26 C25 1_555 1_555
H17 C26 1_555 1_555
C27 C26 1_555 1_555
H18 C27 1_555 1_555
C28 C23 1_555 1_555
H19 C28 1_555 1_555
C29 C30 1_555 1_555
C30 C2 1_555 1_555
C31 C30 1_555 1_555
C32 C31 1_555 1_555
H20 C32 1_555 1_555
C33 C32 1_555 1_555
H21 C33 1_555 1_555
C34 C33 1_555 1_555
H22 C34 1_555 1_555
C35 C34 1_555 1_555
H23 C35 1_555 1_555
C36 C31 1_555 1_555
C37 C36 1_555 1_555
H24 C37 1_555 1_555
C38 C29 1_555 1_555
C39 C38 1_555 1_555
C40 C39 1_555 1_555
H25 C40 1_555 1_555
C41 C40 1_555 1_555
H26 C41 1_555 1_555
C42 C41 1_555 1_555
C43 C42 1_555 1_555
H27 C43 1_555 1_555
C44 C39 1_555 1_555
H28 C44 1_555 1_555
C45 N2 1_555 1_555
C46 C45 1_555 1_555
H29 C46 1_555 1_555
C47 C46 1_555 1_555
H30 C47 1_555 1_555
C48 C47 1_555 1_555
H31 C48 1_555 1_555
C49 C48 1_555 1_555
H32 C49 1_555 1_555
C50 C45 1_555 1_555
H33 C50 1_555 1_555
C51 N2 1_555 1_555
C52 C51 1_555 1_555
H34 C52 1_555 1_555
C53 C52 1_555 1_555
H35 C53 1_555 1_555
C54 C53 1_555 1_555
H36 C54 1_555 1_555
C55 C54 1_555 1_555
H37 C55 1_555 1_555
C56 C51 1_555 1_555
H38 C56 1_555 1_555
C57 O1 1_555 1_555
H39 C57 1_555 1_555
H40 C57 1_555 1_555
H41 C57 1_555 1_555
C58 O2 1_555 1_555
H42 C58 1_555 1_555
H43 C58 1_555 1_555
H44 C58 1_555 1_555
C59 Cl1 1_555 1_555
Cl2 C59 1_555 1_555
O4 C63 1_555 1_555
C63 C64 1_555 1_555
C7 C8 1_555 1_555
C9 C10 1_555 1_555
C15 C16 1_555 1_555
C21 C22 1_555 1_555
C27 C28 1_555 1_555
C35 C36 1_555 1_555
C37 C38 1_555 1_555
C43 C44 1_555 1_555
C49 C50 1_555 1_555
C55 C56 1_555 1_555

#END
