
#######################################################################
#
#                 Cambridge Crystallographic Data Centre
#                                CCDC 
#
#######################################################################
#
# If this CIF has been generated from an entry in the Cambridge 
# Structural Database, then it will include bibliographic, chemical, 
# crystal, experimental, refinement or atomic coordinate data resulting 
# from the CCDC's data processing and validation procedures.
#
#######################################################################

data_DEKDED
_chemical_formula_moiety         'C47 H41 N5 O3'
_chemical_name_systematic        
4-Methoxy-4',4''-bis(2-(4-dicyanomethylene-6-t-butyl-4H-pyran-2-yl)ethylene)triphenylamine
_symmetry_cell_setting           monoclinic
_symmetry_space_group_name_H-M   'P 21/n'
_symmetry_Int_Tables_number      14
_space_group_name_Hall           '-P 2yn'
loop_
_symmetry_equiv_pos_site_id
_symmetry_equiv_pos_as_xyz
1 x,y,z
2 1/2-x,1/2+y,1/2-z
3 -x,-y,-z
4 1/2+x,1/2-y,1/2+z
_cell_length_a                   18.761(4)
_cell_length_b                   9.7268(19)
_cell_length_c                   23.147(5)
_cell_angle_alpha                90
_cell_angle_beta                 104.60(3)
_cell_angle_gamma                90
_cell_volume                     4087.57
_exptl_crystal_colour            red
_exptl_crystal_description       block
_chemical_melting_point          '333 K'
_cell_formula_units_Z            4
_exptl_crystal_recrystallization_method tetrahydrofuran/methanol
loop_
_atom_site_label
_atom_site_type_symbol
_atom_site_fract_x
_atom_site_fract_y
_atom_site_fract_z
C1 C 0.5971(2) 0.4162(5) 0.4955(2)
C2 C 0.53755(15) 0.5963(3) 0.43132(13)
C3 C 0.4934(2) 0.5078(4) 0.39167(16)
C4 C 0.44822(18) 0.5581(4) 0.33886(14)
C5 C 0.44734(14) 0.6954(3) 0.32621(12)
C6 C 0.49199(18) 0.7820(4) 0.36665(16)
C7 C 0.53661(19) 0.7330(4) 0.41856(17)
C8 C 0.32325(13) 0.7306(3) 0.26102(12)
C9 C 0.28532(16) 0.7699(4) 0.30197(14)
C10 C 0.20985(15) 0.7611(4) 0.28808(13)
C11 C 0.16998(14) 0.7118(3) 0.23322(12)
C12 C 0.20964(16) 0.6677(4) 0.19341(15)
C13 C 0.28504(16) 0.6772(4) 0.20723(14)
C14 C 0.08946(14) 0.7087(3) 0.21790(13)
C15 C 0.04857(15) 0.6602(3) 0.16730(13)
C16 C -0.03070(14) 0.6629(3) 0.14689(12)
C17 C -0.06856(15) 0.6170(3) 0.09304(13)
C18 C -0.14558(15) 0.6318(3) 0.07292(12)
C19 C -0.18399(15) 0.5975(3) 0.01558(12)
C20 C -0.14573(17) 0.5420(4) -0.02525(14)
C21 C -0.26025(17) 0.6246(4) -0.00632(14)
C22 C -0.18041(16) 0.6916(3) 0.11555(13)
C23 C -0.14085(14) 0.7348(3) 0.16872(12)
C24 C -0.16796(16) 0.8057(4) 0.21678(13)
C25 C -0.1357(2) 0.9511(4) 0.22445(17)
H1 H -0.1516 1.0005 0.1875
H2 H -0.0829 0.9459 0.2356
H3 H -0.1523 0.9982 0.2551
C26 C -0.1417(2) 0.7266(5) 0.27529(15)
H4 H -0.1620 0.6355 0.2705
H5 H -0.1579 0.7733 0.3063
H6 H -0.0889 0.7215 0.2859
C27 C -0.25180(18) 0.8152(5) 0.19987(18)
H7 H -0.2680 0.8635 0.1627
H8 H -0.2678 0.8636 0.2305
H9 H -0.2724 0.7243 0.1957
C28 C 0.43073(15) 0.8214(3) 0.23201(12)
C29 C 0.38970(15) 0.9218(3) 0.19566(12)
C30 C 0.41860(16) 0.9946(3) 0.15626(13)
C31 C 0.48949(14) 0.9681(3) 0.15018(12)
C32 C 0.53002(16) 0.8691(4) 0.18729(15)
C33 C 0.50196(16) 0.7963(4) 0.22748(15)
C34 C 0.52066(16) 1.0403(3) 0.10721(13)
C35 C 0.48842(16) 1.1361(3) 0.06875(13)
C36 C 0.52196(15) 1.2035(3) 0.02642(13)
C37 C 0.48784(16) 1.2929(3) -0.01504(13)
C38 C 0.52488(15) 1.3540(3) -0.05540(12)
C39 C 0.49140(16) 1.4457(3) -0.09903(13)
C40 C 0.52923(17) 1.5070(4) -0.13819(15)
C41 C 0.41548(19) 1.4783(4) -0.10752(14)
C42 C 0.59982(16) 1.3116(3) -0.04748(13)
C43 C 0.63139(15) 1.2219(3) -0.00536(12)
C44 C 0.70930(15) 1.1689(3) 0.01022(14)
C45 C 0.74833(17) 1.2158(4) -0.03657(16)
H10 H 0.7236 1.1785 -0.0747
H11 H 0.7984 1.1842 -0.0258
H12 H 0.7476 1.3144 -0.0387
C46 C 0.74911(18) 1.2269(5) 0.07123(16)
H13 H 0.7247 1.1963 0.1007
H14 H 0.7484 1.3255 0.0696
H15 H 0.7992 1.1953 0.0817
C47 C 0.7083(2) 1.0124(4) 0.0124(2)
H16 H 0.6844 0.9831 0.0425
H17 H 0.7579 0.9783 0.0220
H18 H 0.6819 0.9772 -0.0257
N1 N 0.40088(12) 0.7475(3) 0.27245(10)
N2 N -0.32116(16) 0.6490(4) -0.02370(14)
N3 N -0.11350(17) 0.4985(4) -0.05678(14)
N4 N 0.35444(17) 1.5010(4) -0.11423(15)
N5 N 0.55968(17) 1.5570(4) -0.16947(15)
O1 O 0.58168(12) 0.5580(3) 0.48585(10)
O2 O -0.06608(9) 0.7223(2) 0.18506(8)
O3 O 0.59322(10) 1.1661(2) 0.03209(9)
H19 H -0.2304(15) 0.695(3) 0.1085(11)
H20 H 0.3421(15) 0.942(3) 0.1992(11)
H21 H -0.0425(15) 0.581(3) 0.0694(12)
H22 H 0.6280(15) 1.351(3) -0.0734(12)
H23 H 0.0679(13) 0.626(3) 0.1409(11)
H24 H 0.4419(16) 1.317(3) -0.0174(12)
H25 H 0.1838(17) 0.794(3) 0.3150(13)
H26 H 0.5762(16) 0.849(3) 0.1810(13)
H27 H 0.5722(19) 1.015(3) 0.1103(14)
H28 H 0.5317(18) 0.732(4) 0.2504(14)
H29 H 0.0687(15) 0.751(3) 0.2476(12)
H30 H 0.634(2) 0.408(4) 0.5331(18)
H31 H 0.3111(16) 0.811(3) 0.3363(14)
H32 H 0.4140(19) 0.495(4) 0.3105(16)
H33 H 0.4884(18) 0.412(4) 0.4001(14)
H34 H 0.3914(16) 1.060(3) 0.1337(13)
H35 H 0.183(2) 0.631(4) 0.1567(17)
H36 H 0.550(2) 0.359(4) 0.4940(15)
H37 H 0.5654(19) 0.795(4) 0.4452(15)
H38 H 0.4373(17) 1.165(3) 0.0676(13)
H39 H 0.625(2) 0.375(5) 0.465(2)
H40 H 0.490(2) 0.871(4) 0.3538(16)
H41 H 0.3123(18) 0.647(4) 0.1821(14)
loop_
_geom_bond_atom_site_label_1
_geom_bond_atom_site_label_2
_geom_bond_site_symmetry_1
_geom_bond_site_symmetry_2
C1 O1 1_555 1_555
C2 C3 1_555 1_555
C3 C4 1_555 1_555
C4 C5 1_555 1_555
C5 C6 1_555 1_555
C6 C7 1_555 1_555
C7 C2 1_555 1_555
C8 C9 1_555 1_555
C9 C10 1_555 1_555
C10 C11 1_555 1_555
C11 C12 1_555 1_555
C12 C13 1_555 1_555
C13 C8 1_555 1_555
C14 C11 1_555 1_555
C15 C14 1_555 1_555
C16 C15 1_555 1_555
C17 C16 1_555 1_555
C18 C17 1_555 1_555
C19 C18 1_555 1_555
C20 C19 1_555 1_555
C21 C19 1_555 1_555
C22 C18 1_555 1_555
C23 C22 1_555 1_555
C24 C23 1_555 1_555
C25 C24 1_555 1_555
H1 C25 1_555 1_555
H2 C25 1_555 1_555
H3 C25 1_555 1_555
C26 C24 1_555 1_555
H4 C26 1_555 1_555
H5 C26 1_555 1_555
H6 C26 1_555 1_555
C27 C24 1_555 1_555
H7 C27 1_555 1_555
H8 C27 1_555 1_555
H9 C27 1_555 1_555
C28 C29 1_555 1_555
C29 C30 1_555 1_555
C30 C31 1_555 1_555
C31 C32 1_555 1_555
C32 C33 1_555 1_555
C33 C28 1_555 1_555
C34 C31 1_555 1_555
C35 C34 1_555 1_555
C36 C35 1_555 1_555
C37 C36 1_555 1_555
C38 C37 1_555 1_555
C39 C38 1_555 1_555
C40 C39 1_555 1_555
C41 C39 1_555 1_555
C42 C38 1_555 1_555
C43 C42 1_555 1_555
C44 C43 1_555 1_555
C45 C44 1_555 1_555
H10 C45 1_555 1_555
H11 C45 1_555 1_555
H12 C45 1_555 1_555
C46 C44 1_555 1_555
H13 C46 1_555 1_555
H14 C46 1_555 1_555
H15 C46 1_555 1_555
C47 C44 1_555 1_555
H16 C47 1_555 1_555
H17 C47 1_555 1_555
H18 C47 1_555 1_555
N1 C5 1_555 1_555
N2 C21 1_555 1_555
N3 C20 1_555 1_555
N4 C41 1_555 1_555
N5 C40 1_555 1_555
O1 C2 1_555 1_555
O2 C16 1_555 1_555
O3 C36 1_555 1_555
H19 C22 1_555 1_555
H20 C29 1_555 1_555
H21 C17 1_555 1_555
H22 C42 1_555 1_555
H23 C15 1_555 1_555
H24 C37 1_555 1_555
H25 C10 1_555 1_555
H26 C32 1_555 1_555
H27 C34 1_555 1_555
H28 C33 1_555 1_555
H29 C14 1_555 1_555
H30 C1 1_555 1_555
H31 C9 1_555 1_555
H32 C4 1_555 1_555
H33 C3 1_555 1_555
H34 C30 1_555 1_555
H35 C12 1_555 1_555
H36 C1 1_555 1_555
H37 C7 1_555 1_555
H38 C35 1_555 1_555
H39 C1 1_555 1_555
H40 C6 1_555 1_555
H41 C13 1_555 1_555
C8 N1 1_555 1_555
C23 O2 1_555 1_555
C28 N1 1_555 1_555
C43 O3 1_555 1_555

#END
