
#######################################################################
#
#                 Cambridge Crystallographic Data Centre
#                                CCDC 
#
#######################################################################
#
# If this CIF has been generated from an entry in the Cambridge 
# Structural Database, then it will include bibliographic, chemical, 
# crystal, experimental, refinement or atomic coordinate data resulting 
# from the CCDC's data processing and validation procedures.
#
#######################################################################

data_DEKQIW
_chemical_formula_moiety         'C14 H17 F3 N1 O1 1+,Cl1 1-'
_chemical_name_systematic        
'(1S,4R,5R)-4-hydroxy-2,2-dimethyl-1-phenyl-4-(trifluoromethyl)-3-azabicyclo[3.1.0]hexan-3-ium chloride'
_symmetry_cell_setting           tetragonal
_symmetry_space_group_name_H-M   'P 43 21 2'
_symmetry_Int_Tables_number      96
_space_group_name_Hall           'P 4nw 2abw'
loop_
_symmetry_equiv_pos_site_id
_symmetry_equiv_pos_as_xyz
1 x,y,z
2 -x,-y,1/2+z
3 1/2-y,1/2+x,3/4+z
4 1/2+y,1/2-x,1/4+z
5 1/2-x,1/2+y,3/4-z
6 1/2+x,1/2-y,1/4-z
7 y,x,-z
8 -y,-x,1/2-z
_cell_length_a                   10.12744(5)
_cell_length_b                   10.12744(5)
_cell_length_c                   28.8870(3)
_cell_angle_alpha                90
_cell_angle_beta                 90
_cell_angle_gamma                90
_cell_volume                     2962.8
_exptl_crystal_colour            colorless
_exptl_crystal_description       irregular
_cell_formula_units_Z            8
loop_
_atom_site_label
_atom_site_type_symbol
_atom_site_fract_x
_atom_site_fract_y
_atom_site_fract_z
Cl1 Cl 0.34388(4) -0.14829(4) 0.30703(2)
F1 F 0.32437(10) -0.10776(9) 0.49658(3)
F2 F 0.25059(11) -0.19530(10) 0.43375(3)
F3 F 0.15098(11) -0.02759(11) 0.46402(4)
O1 O 0.28497(11) 0.04022(12) 0.38559(4)
H1 H 0.303(2) -0.010(2) 0.3650(7)
N1 N 0.38003(12) 0.13818(12) 0.44973(4)
H2 H 0.316(2) 0.1936(19) 0.4433(6)
H3 H 0.379(2) 0.130(2) 0.4803(8)
C1 C 0.35543(16) 0.00959(14) 0.42529(5)
C2 C 0.49145(15) -0.04484(14) 0.41685(5)
H4 H 0.500(2) -0.111(2) 0.3939(7)
C3 C 0.58916(16) -0.03936(15) 0.45636(6)
H5 H 0.659(2) -0.105(2) 0.4542(7)
H6 H 0.557(2) -0.017(2) 0.4866(7)
C4 C 0.58905(15) 0.06702(14) 0.42009(5)
C5 C 0.51342(15) 0.19315(15) 0.43268(5)
C6 C 0.26895(16) -0.08046(16) 0.45559(5)
C7 C 0.70334(15) 0.07981(15) 0.38735(5)
C8 C 0.68520(16) 0.06459(16) 0.33967(5)
H7 H 0.596(2) 0.042(2) 0.3274(7)
C9 C 0.79099(17) 0.08234(17) 0.30966(6)
H8 H 0.778(2) 0.075(2) 0.2767(7)
C10 C 0.91535(17) 0.11352(16) 0.32664(6)
H9 H 0.986(2) 0.123(2) 0.3061(7)
C11 C 0.93471(16) 0.12602(15) 0.37401(6)
H10 H 1.0161(19) 0.145(2) 0.3869(6)
C12 C 0.82906(17) 0.10972(15) 0.40414(6)
H11 H 0.845(2) 0.119(2) 0.4373(7)
C13 C 0.57657(17) 0.27165(16) 0.47174(6)
H12 H 0.587(2) 0.214(2) 0.4993(7)
H13 H 0.518(2) 0.347(2) 0.4803(7)
H14 H 0.661(2) 0.307(2) 0.4606(7)
C14 C 0.48866(17) 0.28038(16) 0.39053(5)
H15 H 0.448(2) 0.233(2) 0.3662(7)
H16 H 0.4311(19) 0.352(2) 0.3990(6)
H17 H 0.571(2) 0.317(2) 0.3808(8)
loop_
_geom_bond_atom_site_label_1
_geom_bond_atom_site_label_2
_geom_bond_site_symmetry_1
_geom_bond_site_symmetry_2
F1 C6 1_555 1_555
F2 C6 1_555 1_555
F3 C6 1_555 1_555
O1 H1 1_555 1_555
N1 H2 1_555 1_555
H3 N1 1_555 1_555
C1 O1 1_555 1_555
C2 C1 1_555 1_555
H4 C2 1_555 1_555
C3 C2 1_555 1_555
H5 C3 1_555 1_555
H6 C3 1_555 1_555
C4 C2 1_555 1_555
C5 N1 1_555 1_555
C6 C1 1_555 1_555
C7 C4 1_555 1_555
C8 C7 1_555 1_555
H7 C8 1_555 1_555
C9 C8 1_555 1_555
H8 C9 1_555 1_555
C10 C9 1_555 1_555
H9 C10 1_555 1_555
C11 C10 1_555 1_555
H10 C11 1_555 1_555
C12 C7 1_555 1_555
H11 C12 1_555 1_555
C13 C5 1_555 1_555
H12 C13 1_555 1_555
H13 C13 1_555 1_555
H14 C13 1_555 1_555
C14 C5 1_555 1_555
H15 C14 1_555 1_555
H16 C14 1_555 1_555
H17 C14 1_555 1_555
N1 C1 1_555 1_555
C3 C4 1_555 1_555
C4 C5 1_555 1_555
C11 C12 1_555 1_555

#END
