
#######################################################################
#
#                 Cambridge Crystallographic Data Centre
#                                CCDC 
#
#######################################################################
#
# If this CIF has been generated from an entry in the Cambridge 
# Structural Database, then it will include bibliographic, chemical, 
# crystal, experimental, refinement or atomic coordinate data resulting 
# from the CCDC's data processing and validation procedures.
#
#######################################################################

data_DEKRUJ
_chemical_name_common            
(3-benzoyl-5-isopropyl-3-methylindolin-1-yl)(pyridin-2-yl)methanone
_chemical_formula_moiety         'C25 H24 N2 O2'
_chemical_name_systematic        
'[3-(benzenecarbonyl)-3-methyl-5-(propan-2-yl)-2,3-dihydro-1H-indol-1-yl](pyridin-2-yl)methanone'
_symmetry_cell_setting           triclinic
_symmetry_space_group_name_H-M   'P -1'
_symmetry_Int_Tables_number      2
_space_group_name_Hall           '-P 1'
loop_
_symmetry_equiv_pos_site_id
_symmetry_equiv_pos_as_xyz
1 x,y,z
2 -x,-y,-z
_cell_length_a                   8.3765(5)
_cell_length_b                   11.2190(6)
_cell_length_c                   12.1776(7)
_cell_angle_alpha                70.266(5)
_cell_angle_beta                 73.173(5)
_cell_angle_gamma                82.063(4)
_cell_volume                     1030.04
_exptl_crystal_colour            colorless
_exptl_crystal_description       Block
_cell_formula_units_Z            2
loop_
_atom_site_label
_atom_site_type_symbol
_atom_site_fract_x
_atom_site_fract_y
_atom_site_fract_z
O1 O 0.2058(2) 0.49458(14) 0.42575(15)
O2 O 0.1371(2) 0.79227(17) 0.85303(15)
N1 N 0.2034(2) 0.60944(14) 0.54702(15)
N2 N 0.1350(3) 0.82604(17) 0.35333(17)
C1 C 0.2716(2) 0.51114(17) 0.63203(17)
C2 C 0.1197(2) 0.70865(19) 0.35510(18)
C3 C 0.3884(3) 0.80824(18) 0.70247(18)
C4 C 0.2464(2) 0.54116(18) 0.73711(18)
C5 C 0.2195(3) 0.75717(19) 0.76855(18)
C6 C 0.1786(3) 0.59649(18) 0.44573(19)
C7 C 0.5190(3) 0.7441(2) 0.6419(2)
H1 H 0.5033 0.6640 0.6409
C8 C 0.1527(3) 0.71913(18) 0.59267(18)
H2 H 0.0446 0.7550 0.5804
H3 H 0.2338 0.7843 0.5516
C9 C 0.1442(3) 0.66604(18) 0.72889(18)
C10 C 0.3074(3) 0.4611(2) 0.8315(2)
H4 H 0.2881 0.4815 0.9024
C11 C 0.3590(3) 0.39947(19) 0.6204(2)
H5 H 0.3753 0.3776 0.5506
C12 C 0.3981(3) 0.3493(2) 0.8207(2)
C13 C 0.4206(3) 0.3223(2) 0.7150(2)
H6 H 0.4804 0.2481 0.7071
C14 C 0.6716(3) 0.7978(2) 0.5832(2)
H7 H 0.7577 0.7540 0.5427
C15 C 0.6973(3) 0.9158(2) 0.5843(2)
H8 H 0.8003 0.9519 0.5446
C16 C 0.4183(3) 0.9270(2) 0.7031(2)
H9 H 0.3338 0.9712 0.7444
C17 C 0.5702(3) 0.9797(2) 0.6440(3)
H10 H 0.5870 1.0598 0.6445
C18 C 0.0262(3) 0.9067(3) 0.1802(2)
H11 H -0.0067 0.9766 0.1224
C19 C -0.0357(3) 0.6406(2) 0.8041(2)
H12 H -0.0835 0.5877 0.7754
H13 H -0.0996 0.7195 0.7968
H14 H -0.0369 0.5986 0.8873
C20 C 0.0611(3) 0.6860(2) 0.2703(2)
H15 H 0.0531 0.6033 0.2727
C21 C 0.0140(4) 0.7864(3) 0.1814(3)
H16 H -0.0255 0.7723 0.1231
C22 C 0.0884(4) 0.9211(2) 0.2667(2)
H17 H 0.0989 1.0032 0.2649
C23 C 0.4720(4) 0.2586(3) 0.9195(3)
H18 H 0.5704 0.2171 0.8783
C24 C 0.3525(5) 0.1534(3) 0.9988(3)
H19 H 0.2470 0.1901 1.0325
H20 H 0.3985 0.0985 1.0629
H21 H 0.3368 0.1056 0.9509
C25 C 0.5339(6) 0.3219(4) 0.9864(4)
H22 H 0.6041 0.3889 0.9302
H23 H 0.5969 0.2615 1.0367
H24 H 0.4410 0.3565 1.0358
loop_
_geom_bond_atom_site_label_1
_geom_bond_atom_site_label_2
_geom_bond_site_symmetry_1
_geom_bond_site_symmetry_2
O1 C6 1_555 1_555
O2 C5 1_555 1_555
N1 C1 1_555 1_555
N2 C2 1_555 1_555
C1 C4 1_555 1_555
C2 C6 1_555 1_555
C3 C5 1_555 1_555
C4 C9 1_555 1_555
C5 C9 1_555 1_555
C6 N1 1_555 1_555
C7 C3 1_555 1_555
H1 C7 1_555 1_555
C8 N1 1_555 1_555
H2 C8 1_555 1_555
H3 C8 1_555 1_555
C9 C8 1_555 1_555
C10 C4 1_555 1_555
H4 C10 1_555 1_555
C11 C1 1_555 1_555
H5 C11 1_555 1_555
C12 C10 1_555 1_555
C13 C11 1_555 1_555
H6 C13 1_555 1_555
C14 C7 1_555 1_555
H7 C14 1_555 1_555
C15 C14 1_555 1_555
H8 C15 1_555 1_555
C16 C3 1_555 1_555
H9 C16 1_555 1_555
C17 C15 1_555 1_555
H10 C17 1_555 1_555
C18 H11 1_555 1_555
C19 C9 1_555 1_555
H12 C19 1_555 1_555
H13 C19 1_555 1_555
H14 C19 1_555 1_555
C20 C2 1_555 1_555
H15 C20 1_555 1_555
C21 C18 1_555 1_555
H16 C21 1_555 1_555
C22 N2 1_555 1_555
H17 C22 1_555 1_555
C23 C12 1_555 1_555
H18 C23 1_555 1_555
C24 C23 1_555 1_555
H19 C24 1_555 1_555
H20 C24 1_555 1_555
H21 C24 1_555 1_555
C25 C23 1_555 1_555
H22 C25 1_555 1_555
H23 C25 1_555 1_555
H24 C25 1_555 1_555
C12 C13 1_555 1_555
C16 C17 1_555 1_555
C18 C22 1_555 1_555
C20 C21 1_555 1_555

#END
