
#######################################################################
#
#                 Cambridge Crystallographic Data Centre
#                                CCDC 
#
#######################################################################
#
# If this CIF has been generated from an entry in the Cambridge 
# Structural Database, then it will include bibliographic, chemical, 
# crystal, experimental, refinement or atomic coordinate data resulting 
# from the CCDC's data processing and validation procedures.
#
#######################################################################

data_DEKRIX
_chemical_formula_moiety         'C16 H22 N1 Si1 1+,Cl1 1-'
_chemical_name_systematic        
'3-(dimethyl(phenyl)silyl)-N,N-dimethylanilinium chloride'
_symmetry_cell_setting           monoclinic
_symmetry_space_group_name_H-M   'P 21/c'
_symmetry_Int_Tables_number      14
_space_group_name_Hall           '-P 2ybc'
loop_
_symmetry_equiv_pos_site_id
_symmetry_equiv_pos_as_xyz
1 x,y,z
2 -x,1/2+y,1/2-z
3 -x,-y,-z
4 x,1/2-y,1/2+z
_cell_length_a                   12.7816(11)
_cell_length_b                   11.3525(9)
_cell_length_c                   11.9115(11)
_cell_angle_alpha                90
_cell_angle_beta                 106.203(3)
_cell_angle_gamma                90
_cell_volume                     1659.74
_exptl_crystal_colour            colorless
_exptl_crystal_description       block
_cell_formula_units_Z            4
loop_
_atom_site_label
_atom_site_type_symbol
_atom_site_fract_x
_atom_site_fract_y
_atom_site_fract_z
Cl1 Cl 0.46630(5) -0.24708(5) 0.56451(6)
N1 N 0.43783(15) -0.03012(17) 0.69971(16)
H1 H 0.4381 -0.1015 0.6506
Si1 Si 0.14852(5) 0.21638(6) 0.85194(6)
C1 C 0.0012(2) 0.1946(2) 0.8441(2)
C2 C -0.0821(2) 0.2218(3) 0.7425(3)
H2 H -0.0632 0.2535 0.6770
C3 C -0.1913(2) 0.2034(3) 0.7354(3)
H3 H -0.2462 0.2214 0.6654
C4 C -0.2192(2) 0.1588(3) 0.8308(3)
H4 H -0.2937 0.1469 0.8267
C5 C -0.1399(2) 0.1314(3) 0.9320(3)
H5 H -0.1597 0.1010 0.9975
C6 C -0.0309(2) 0.1483(2) 0.9381(2)
H6 H 0.0232 0.1279 1.0078
C7 C 0.18588(18) 0.1025(2) 0.7542(2)
C8 C 0.29550(18) 0.0788(2) 0.7631(2)
H7 H 0.3515 0.1188 0.8196
C9 C 0.32214(18) -0.0029(2) 0.6892(2)
C10 C 0.24428(19) -0.0611(2) 0.6039(2)
H8 H 0.2647 -0.1148 0.5526
C11 C 0.1354(2) -0.0398(2) 0.5945(2)
H9 H 0.0802 -0.0797 0.5370
C12 C 0.10714(19) 0.0403(2) 0.6695(2)
H10 H 0.0323 0.0533 0.6630
C13 C 0.5025(2) -0.0606(3) 0.8205(2)
H11 H 0.5133 0.0102 0.8695
H12 H 0.5734 -0.0921 0.8189
H13 H 0.4633 -0.1200 0.8528
C14 C 0.4907(2) 0.0667(2) 0.6498(2)
H14 H 0.4461 0.0850 0.5704
H15 H 0.5633 0.0415 0.6473
H16 H 0.4972 0.1371 0.6990
C15 C 0.2376(2) 0.1967(3) 1.0038(2)
H17 H 0.3138 0.2090 1.0050
H18 H 0.2287 0.1167 1.0307
H19 H 0.2172 0.2539 1.0555
C16 C 0.1721(2) 0.3665(2) 0.8007(3)
H20 H 0.1204 0.3812 0.7241
H21 H 0.2467 0.3719 0.7942
H22 H 0.1615 0.4252 0.8568
loop_
_geom_bond_atom_site_label_1
_geom_bond_atom_site_label_2
_geom_bond_site_symmetry_1
_geom_bond_site_symmetry_2
N1 H1 1_555 1_555
Si1 C1 1_555 1_555
C1 C2 1_555 1_555
C2 H2 1_555 1_555
C3 C2 1_555 1_555
H3 C3 1_555 1_555
C4 C3 1_555 1_555
H4 C4 1_555 1_555
C5 C4 1_555 1_555
H5 C5 1_555 1_555
C6 C1 1_555 1_555
H6 C6 1_555 1_555
C7 Si1 1_555 1_555
C8 C7 1_555 1_555
H7 C8 1_555 1_555
C9 N1 1_555 1_555
C10 C9 1_555 1_555
H8 C10 1_555 1_555
C11 C10 1_555 1_555
H9 C11 1_555 1_555
C12 C7 1_555 1_555
H10 C12 1_555 1_555
C13 N1 1_555 1_555
H11 C13 1_555 1_555
H12 C13 1_555 1_555
H13 C13 1_555 1_555
C14 N1 1_555 1_555
H14 C14 1_555 1_555
H15 C14 1_555 1_555
H16 C14 1_555 1_555
C15 Si1 1_555 1_555
H17 C15 1_555 1_555
H18 C15 1_555 1_555
H19 C15 1_555 1_555
C16 Si1 1_555 1_555
H20 C16 1_555 1_555
H21 C16 1_555 1_555
H22 C16 1_555 1_555
C5 C6 1_555 1_555
C8 C9 1_555 1_555
C11 C12 1_555 1_555

#END
