
#######################################################################
#
#                 Cambridge Crystallographic Data Centre
#                                CCDC 
#
#######################################################################
#
# If this CIF has been generated from an entry in the Cambridge 
# Structural Database, then it will include bibliographic, chemical, 
# crystal, experimental, refinement or atomic coordinate data resulting 
# from the CCDC's data processing and validation procedures.
#
#######################################################################

data_DEKWEY
_chemical_formula_moiety         'C19 H25 N3 O4'
_chemical_name_systematic        
'dipropan-2-yl 1-[(6-methylquinolin-8-yl)methyl]hydrazine-1,2-dicarboxylate'
_symmetry_cell_setting           triclinic
_symmetry_space_group_name_H-M   'P -1'
_symmetry_Int_Tables_number      2
_space_group_name_Hall           '-P 1'
loop_
_symmetry_equiv_pos_site_id
_symmetry_equiv_pos_as_xyz
1 x,y,z
2 -x,-y,-z
_cell_length_a                   8.916(3)
_cell_length_b                   9.462(3)
_cell_length_c                   12.490(4)
_cell_angle_alpha                71.60(2)
_cell_angle_beta                 82.91(2)
_cell_angle_gamma                73.48(2)
_cell_volume                     957.898
_exptl_crystal_colour            colorless
_exptl_crystal_description       block
_cell_formula_units_Z            2
loop_
_atom_site_label
_atom_site_type_symbol
_atom_site_fract_x
_atom_site_fract_y
_atom_site_fract_z
C1 C 0.6489(7) 1.1447(7) 0.5287(5)
H1 H 0.6106 1.2504 0.5173
C2 C 0.7681(7) 1.0940(8) 0.4551(5)
H2 H 0.8102 1.1643 0.3983
C3 C 0.8208(7) 0.9426(8) 0.4676(4)
H3 H 0.8988 0.9077 0.4182
C4 C 0.7597(6) 0.8365(7) 0.5542(4)
C5 C 0.8081(6) 0.6761(7) 0.5733(4)
H4 H 0.8885 0.6364 0.5274
C6 C 0.7425(6) 0.5763(6) 0.6560(4)
C7 C 0.6259(6) 0.6391(6) 0.7281(4)
H5 H 0.5806 0.5725 0.7858
C8 C 0.5770(5) 0.7939(6) 0.7164(4)
C9 C 0.6429(6) 0.8967(6) 0.6268(4)
C10 C 0.7927(6) 0.4030(6) 0.6771(5)
H6 H 0.8642 0.3787 0.6175
H7 H 0.7024 0.3659 0.6792
H8 H 0.8432 0.3546 0.748
C11 C 0.4558(5) 0.8609(5) 0.7963(3)
H9 H 0.4941 0.9323 0.8198
H10 H 0.3602 0.9184 0.7564
C12 C 0.2748(6) 0.7229(6) 0.9312(4)
C13 C 0.0068(6) 0.8012(6) 0.8894(4)
H11 H -0.0102 0.779 0.9714
C14 C -0.0200(7) 0.6725(7) 0.8530(6)
H12 H 0.0037 0.6905 0.7735
H13 H -0.1274 0.6696 0.8686
H14 H 0.0468 0.5758 0.8937
C15 C -0.0953(7) 0.9574(8) 0.8323(6)
H15 H -0.0841 1.0311 0.8667
H16 H -0.2026 0.9533 0.8398
H17 H -0.0646 0.9878 0.7537
C16 C 0.5254(6) 0.7334(6) 1.0622(4)
C17 C 0.6553(7) 0.6931(6) 1.2310(4)
H18 H 0.5589 0.7671 1.2455
C18 C 0.6879(7) 0.5500(7) 1.3318(4)
H19 H 0.6014 0.5043 1.3459
H20 H 0.7016 0.5776 1.3969
H21 H 0.7814 0.4775 1.3164
C19 C 0.7874(7) 0.7709(7) 1.1956(5)
H22 H 0.8838 0.6953 1.1898
H23 H 0.7961 0.8192 1.2507
H24 H 0.7664 0.8475 1.1236
N1 N 0.5875(5) 1.0515(5) 0.6134(3)
N2 N 0.4208(5) 0.7430(4) 0.8959(3)
N3 N 0.5353(4) 0.6772(4) 0.9745(3)
H25 H 0.6122 0.6012 0.9676
O1 O 0.4345(4) 0.8500(4) 1.0725(3)
O2 O 0.6345(4) 0.6390(4) 1.1368(3)
O3 O 0.2532(4) 0.6281(4) 1.0203(3)
O4 O 0.1681(4) 0.8121(4) 0.8584(3)
loop_
_geom_bond_atom_site_label_1
_geom_bond_atom_site_label_2
_geom_bond_site_symmetry_1
_geom_bond_site_symmetry_2
C1 H1 1_555 1_555
C2 C1 1_555 1_555
H2 C2 1_555 1_555
C3 C2 1_555 1_555
H3 C3 1_555 1_555
C4 C3 1_555 1_555
C5 C4 1_555 1_555
H4 C5 1_555 1_555
C6 C5 1_555 1_555
C7 C6 1_555 1_555
H5 C7 1_555 1_555
C8 C7 1_555 1_555
C9 C4 1_555 1_555
C10 C6 1_555 1_555
H6 C10 1_555 1_555
H7 C10 1_555 1_555
H8 C10 1_555 1_555
C11 C8 1_555 1_555
H9 C11 1_555 1_555
H10 C11 1_555 1_555
C12 N2 1_555 1_555
C13 H11 1_555 1_555
C14 C13 1_555 1_555
H12 C14 1_555 1_555
H13 C14 1_555 1_555
H14 C14 1_555 1_555
C15 C13 1_555 1_555
H15 C15 1_555 1_555
H16 C15 1_555 1_555
H17 C15 1_555 1_555
C16 N3 1_555 1_555
C17 H18 1_555 1_555
C18 C17 1_555 1_555
H19 C18 1_555 1_555
H20 C18 1_555 1_555
H21 C18 1_555 1_555
C19 C17 1_555 1_555
H22 C19 1_555 1_555
H23 C19 1_555 1_555
H24 C19 1_555 1_555
N1 C1 1_555 1_555
N2 C11 1_555 1_555
N3 N2 1_555 1_555
H25 N3 1_555 1_555
O1 C16 1_555 1_555
O2 C16 1_555 1_555
O3 C12 1_555 1_555
O4 C12 1_555 1_555
C8 C9 1_555 1_555
C9 N1 1_555 1_555
C13 O4 1_555 1_555
C17 O2 1_555 1_555

#END
