
#######################################################################
#
#                 Cambridge Crystallographic Data Centre
#                                CCDC 
#
#######################################################################
#
# If this CIF has been generated from an entry in the Cambridge 
# Structural Database, then it will include bibliographic, chemical, 
# crystal, experimental, refinement or atomic coordinate data resulting 
# from the CCDC's data processing and validation procedures.
#
#######################################################################

data_DELCAB
_chemical_formula_moiety         'C22 H16 B1 F2 N5 O1'
_chemical_name_systematic        
5,5-difluoro-10-[6-methoxy-2-(1H-pyrazol-1-yl)quinolin-3-yl]-5H-6\l^5^,5\l^5^-dipyrrolo[1,2-c:2',1'-f][1,3,2]diazaborinine
_chemical_properties_biological  
'tested for anticancer activity against HeLa cell line'
_symmetry_cell_setting           triclinic
_symmetry_space_group_name_H-M   'P -1'
_symmetry_Int_Tables_number      2
_space_group_name_Hall           '-P 1'
loop_
_symmetry_equiv_pos_site_id
_symmetry_equiv_pos_as_xyz
1 x,y,z
2 -x,-y,-z
_cell_length_a                   10.9626(3)
_cell_length_b                   15.8202(4)
_cell_length_c                   18.2066(6)
_cell_angle_alpha                109.971(3)
_cell_angle_beta                 97.368(2)
_cell_angle_gamma                94.100(2)
_cell_volume                     2920.59
_exptl_crystal_colour            red
_exptl_crystal_description       needle
_cell_formula_units_Z            6
loop_
_atom_site_label
_atom_site_type_symbol
_atom_site_fract_x
_atom_site_fract_y
_atom_site_fract_z
F1 F 0.19296(19) 0.15938(12) 0.30678(11)
F2 F 0.28712(13) 0.29017(14) 0.30482(12)
O1 O -0.21004(18) 0.62411(12) 0.03494(11)
N1 N 0.08114(16) 0.28792(12) 0.33418(11)
N2 N 0.12092(17) 0.20720(13) 0.19898(12)
N3 N -0.33177(16) 0.26286(13) 0.21842(13)
N4 N -0.35859(16) 0.37446(14) 0.16536(12)
N5 N -0.28328(18) 0.18584(14) 0.20984(14)
C1 C -0.05386(18) 0.29277(14) 0.21983(13)
C2 C -0.14996(18) 0.33665(14) 0.18576(13)
C3 C -0.02143(18) 0.31841(13) 0.30202(13)
C4 C -0.19199(19) 0.44762(14) 0.12441(12)
C5 C -0.27921(19) 0.32778(15) 0.18954(13)
C6 C -0.11032(18) 0.39597(15) 0.15141(13)
H1 H -0.0274 0.4023 0.1458
C7 C -0.2365(2) 0.56050(15) 0.06754(13)
C8 C -0.1525(2) 0.51177(15) 0.09143(13)
H2 H -0.0698 0.5207 0.0861
C9 C 0.01489(19) 0.23569(15) 0.16911(14)
C10 C -0.0739(2) 0.37341(15) 0.36514(15)
H3 H -0.1434 0.4029 0.3611
C11 C -0.31671(19) 0.43529(15) 0.13381(13)
C12 C -0.4015(2) 0.48666(18) 0.10784(16)
H4 H -0.4845 0.4788 0.1129
C13 C 0.0906(2) 0.32306(17) 0.41310(15)
H5 H 0.1518 0.3134 0.4487
C14 C -0.0034(2) 0.37559(17) 0.43411(15)
H6 H -0.0166 0.4067 0.4854
C15 C -0.3624(2) 0.54713(17) 0.07564(14)
H7 H -0.4189 0.5803 0.0586
C16 C -0.0017(3) 0.19703(18) 0.08580(15)
H8 H -0.0656 0.2043 0.0504
C17 C 0.1674(3) 0.15514(19) 0.13749(17)
H9 H 0.2393 0.1280 0.1413
C18 C -0.4420(2) 0.2632(2) 0.24445(19)
H10 H -0.4929 0.3090 0.2531
C19 C -0.3630(2) 0.1378(2) 0.23311(19)
H11 H -0.3532 0.0805 0.2345
C20 C 0.0937(3) 0.1470(2) 0.06670(18)
H12 H 0.1068 0.1137 0.0159
C21 C -0.4631(3) 0.1837(2) 0.2552(2)
H13 H -0.5307 0.1637 0.2737
B1 B 0.1756(2) 0.2345(2) 0.28766(18)
C22 C -0.0866(3) 0.6409(2) 0.0249(2)
H14 H -0.0631 0.5870 -0.0116
H15 H -0.0331 0.6580 0.0750
H16 H -0.0795 0.6891 0.0043
N6 N 0.84582(14) -0.11806(11) 0.18525(10)
N7 N 0.86454(15) -0.23120(11) 0.23906(10)
N8 N 0.39897(17) -0.05495(13) 0.18960(12)
F3 F 0.3664(2) 0.01114(15) 0.08891(12)
F4 F 0.24830(15) -0.11839(18) 0.07156(12)
N9 N 0.46285(18) -0.12533(13) 0.05950(11)
O2 O 0.7063(2) -0.47318(16) 0.37462(16)
C23 C 0.81866(18) -0.29226(13) 0.26894(12)
N10 N 0.79516(19) -0.04479(14) 0.18603(14)
C24 C 0.56668(17) -0.14806(14) 0.17545(12)
C25 C 0.78784(18) -0.18439(13) 0.21293(12)
C26 C 0.55028(19) -0.16554(14) 0.09446(13)
C27 C 0.65710(18) -0.19399(14) 0.21226(12)
C28 C 0.49306(18) -0.09170(15) 0.22300(13)
C29 C 0.69246(19) -0.30442(15) 0.27550(13)
C30 C 0.9010(2) -0.34384(15) 0.29694(14)
H17 H 0.9841 -0.3380 0.2916
C31 C 0.61336(19) -0.25351(16) 0.24519(13)
H18 H 0.5292 -0.2606 0.2477
C32 C 0.4935(2) -0.06124(17) 0.30495(14)
H19 H 0.5473 -0.0747 0.3421
C33 C 0.8601(2) -0.40142(16) 0.33132(15)
H20 H 0.9157 -0.4336 0.3505
C34 C 0.6127(2) -0.21758(16) 0.03482(14)
H21 H 0.6751 -0.2525 0.0412
C35 C 0.7339(2) -0.41336(18) 0.33843(17)
C36 C 0.3993(2) -0.00753(18) 0.32037(16)
H22 H 0.3775 0.0217 0.3697
C37 C 0.9593(2) -0.12064(18) 0.16211(15)
H23 H 1.0113 -0.1653 0.1587
C38 C 0.3435(2) -0.00547(17) 0.24875(16)
H24 H 0.2767 0.0259 0.2423
C39 C 0.6512(2) -0.36635(19) 0.31015(17)
H25 H 0.5677 -0.3752 0.3138
C40 C 0.4721(3) -0.1504(2) -0.01692(15)
H26 H 0.4240 -0.1327 -0.0537
C41 C 0.5646(3) -0.2073(2) -0.03404(15)
H27 H 0.5888 -0.2332 -0.0832
C42 C 0.8767(3) 0.00025(18) 0.16119(18)
H28 H 0.8663 0.0554 0.1551
C43 C 0.9805(2) -0.04500(19) 0.14517(17)
H29 H 1.0494 -0.0268 0.1268
B2 B 0.3649(3) -0.0695(2) 0.10080(19)
C44 C 0.5781(4) -0.4936(4) 0.3782(4)
H30 H 0.5295 -0.5068 0.3270
H31 H 0.5510 -0.4424 0.4160
H32 H 0.5679 -0.5453 0.3942
O3 O -0.04700(18) 1.14969(11) 0.44411(10)
F5 F 0.37809(17) 0.50219(14) 0.21962(14)
F6 F 0.17318(19) 0.46533(14) 0.18235(15)
N11 N 0.31726(19) 0.94771(13) 0.50114(12)
N12 N 0.24852(18) 0.56632(13) 0.31513(15)
N13 N 0.25891(19) 0.61645(15) 0.20217(13)
C45 C 0.13522(18) 0.95682(13) 0.41440(12)
C46 C 0.14358(18) 0.86739(14) 0.36433(12)
H33 H 0.0853 0.8403 0.3186
C47 C 0.0379(2) 1.09357(15) 0.45135(13)
C48 C 0.24227(18) 0.72465(14) 0.33067(13)
C49 C 0.3231(2) 0.86599(15) 0.45241(13)
C50 C 0.2241(2) 0.99372(14) 0.48407(13)
C51 C 0.25054(19) 0.70490(16) 0.25066(14)
C52 C 0.0420(2) 1.00850(15) 0.39857(13)
H34 H -0.0162 0.9848 0.3525
C53 C 0.23575(18) 0.82001(14) 0.38186(12)
C54 C 0.2377(2) 0.65532(15) 0.36154(15)
C55 C 0.1263(2) 1.12965(15) 0.52090(14)
H35 H 0.1225 1.1875 0.5564
C56 C 0.2162(2) 1.08173(16) 0.53682(14)
H36 H 0.2738 1.1069 0.5831
C57 C 0.2526(2) 0.76017(19) 0.20442(15)
H37 H 0.2487 0.8223 0.2218
C58 C 0.2214(2) 0.65527(18) 0.43690(18)
H38 H 0.2103 0.7052 0.4798
C59 C -0.1290(3) 1.1236(2) 0.37052(18)
H39 H -0.0819 1.1082 0.3278
H40 H -0.1743 1.1729 0.3692
H41 H -0.1859 1.0719 0.3650
C60 C 0.2250(3) 0.5678(2) 0.4356(2)
H42 H 0.2181 0.5478 0.4776
C61 C 0.2409(3) 0.51544(19) 0.3599(2)
H43 H 0.2455 0.4534 0.3427
C62 C 0.2613(3) 0.7050(3) 0.12857(18)
H44 H 0.2632 0.7226 0.0849
C63 C 0.2667(3) 0.6186(3) 0.12990(18)
H45 H 0.2747 0.5684 0.0863
B3 B 0.2655(3) 0.5338(2) 0.2280(2)
C64 C 0.5689(4) 0.7484(3) 0.4723(3)
H46 H 0.6165 0.7084 0.4417
C65 C 0.5458(4) 0.7728(3) 0.5512(3)
H47 H 0.5887 0.7595 0.5927
C66 C 0.4470(4) 0.8199(3) 0.5526(2)
N14 N 0.4110(3) 0.8200(3) 0.4802(3)
N15 N 0.4881(3) 0.7757(3) 0.4277(2)
H48? H 0.3951 0.8423 0.5895
N16? N 0.4539(4) 0.8219(4) 0.4722(3)
N17? N 0.4767(4) 0.8203(6) 0.4576(3)
loop_
_geom_bond_atom_site_label_1
_geom_bond_atom_site_label_2
_geom_bond_site_symmetry_1
_geom_bond_site_symmetry_2
F1 B1 1_555 1_555
F2 B1 1_555 1_555
O1 C7 1_555 1_555
N1 C3 1_555 1_555
N2 C9 1_555 1_555
N3 N5 1_555 1_555
N4 C5 1_555 1_555
N5 C19 1_555 1_555
C1 C2 1_555 1_555
C2 C5 1_555 1_555
C3 C1 1_555 1_555
C4 C6 1_555 1_555
C5 N3 1_555 1_555
C6 C2 1_555 1_555
H1 C6 1_555 1_555
C7 C8 1_555 1_555
C8 C4 1_555 1_555
H2 C8 1_555 1_555
C9 C1 1_555 1_555
C10 C3 1_555 1_555
H3 C10 1_555 1_555
C11 N4 1_555 1_555
C12 C11 1_555 1_555
H4 C12 1_555 1_555
C13 N1 1_555 1_555
H5 C13 1_555 1_555
C14 C10 1_555 1_555
H6 C14 1_555 1_555
C15 C7 1_555 1_555
H7 C15 1_555 1_555
C16 C9 1_555 1_555
H8 C16 1_555 1_555
C17 N2 1_555 1_555
H9 C17 1_555 1_555
C18 N3 1_555 1_555
H10 C18 1_555 1_555
C19 H11 1_555 1_555
C20 C16 1_555 1_555
H12 C20 1_555 1_555
C21 C18 1_555 1_555
H13 C21 1_555 1_555
B1 N1 1_555 1_555
C22 O1 1_555 1_555
H14 C22 1_555 1_555
H15 C22 1_555 1_555
H16 C22 1_555 1_555
N6 N10 1_555 1_555
N7 C23 1_555 1_555
N8 C28 1_555 1_555
F3 B2 1_555 1_555
F4 B2 1_555 1_555
N9 C26 1_555 1_555
O2 C35 1_555 1_555
C23 C29 1_555 1_555
N10 C42 1_555 1_555
C24 C26 1_555 1_555
C25 N6 1_555 1_555
C26 C34 1_555 1_555
C27 C24 1_555 1_555
C28 C24 1_555 1_555
C29 C31 1_555 1_555
C30 C23 1_555 1_555
H17 C30 1_555 1_555
C31 C27 1_555 1_555
H18 C31 1_555 1_555
C32 C28 1_555 1_555
H19 C32 1_555 1_555
C33 C30 1_555 1_555
H20 C33 1_555 1_555
C34 H21 1_555 1_555
C35 C33 1_555 1_555
C36 C32 1_555 1_555
H22 C36 1_555 1_555
C37 N6 1_555 1_555
H23 C37 1_555 1_555
C38 N8 1_555 1_555
H24 C38 1_555 1_555
C39 C29 1_555 1_555
H25 C39 1_555 1_555
C40 N9 1_555 1_555
H26 C40 1_555 1_555
C41 C34 1_555 1_555
H27 C41 1_555 1_555
C42 H28 1_555 1_555
C43 C37 1_555 1_555
H29 C43 1_555 1_555
B2 N8 1_555 1_555
C44 O2 1_555 1_555
H30 C44 1_555 1_555
H31 C44 1_555 1_555
H32 C44 1_555 1_555
O3 C47 1_555 1_555
F5 B3 1_555 1_555
F6 B3 1_555 1_555
N11 C49 1_555 1_555
N12 C54 1_555 1_555
N13 C51 1_555 1_555
C45 C46 1_555 1_555
C46 H33 1_555 1_555
C47 C52 1_555 1_555
C48 C51 1_555 1_555
C49 C53 1_555 1_555
C50 N11 1_555 1_555
C51 C57 1_555 1_555
C52 C45 1_555 1_555
H34 C52 1_555 1_555
C53 C46 1_555 1_555
C54 C48 1_555 1_555
C55 C47 1_555 1_555
H35 C55 1_555 1_555
C56 C50 1_555 1_555
H36 C56 1_555 1_555
C57 H37 1_555 1_555
C58 C54 1_555 1_555
H38 C58 1_555 1_555
C59 O3 1_555 1_555
H39 C59 1_555 1_555
H40 C59 1_555 1_555
H41 C59 1_555 1_555
C60 C58 1_555 1_555
H42 C60 1_555 1_555
C61 N12 1_555 1_555
H43 C61 1_555 1_555
C62 C57 1_555 1_555
H44 C62 1_555 1_555
C63 N13 1_555 1_555
H45 C63 1_555 1_555
B3 N12 1_555 1_555
C64 H46 1_555 1_555
C65 C64 1_555 1_555
H47 C65 1_555 1_555
C66 C65 1_555 1_555
N14 C49 1_555 1_555
N15 C64 1_555 1_555
N2 B1 1_555 1_555
C4 C11 1_555 1_555
C12 C15 1_555 1_555
C13 C14 1_555 1_555
C17 C20 1_555 1_555
C19 C21 1_555 1_555
N7 C25 1_555 1_555
N9 B2 1_555 1_555
C25 C27 1_555 1_555
C35 C39 1_555 1_555
C36 C38 1_555 1_555
C40 C41 1_555 1_555
C42 C43 1_555 1_555
N13 B3 1_555 1_555
C45 C50 1_555 1_555
C48 C53 1_555 1_555
C55 C56 1_555 1_555
C60 C61 1_555 1_555
C62 C63 1_555 1_555
C66 N14 1_555 1_555
N14 N15 1_555 1_555

#END
