
#######################################################################
#
#                 Cambridge Crystallographic Data Centre
#                                CCDC 
#
#######################################################################
#
# If this CIF has been generated from an entry in the Cambridge 
# Structural Database, then it will include bibliographic, chemical, 
# crystal, experimental, refinement or atomic coordinate data resulting 
# from the CCDC's data processing and validation procedures.
#
#######################################################################

data_DELDEG
_chemical_formula_moiety         'C26 H27 N3 O4 S1'
_chemical_name_systematic        
"t-butyl 5'-hydroxy-1-methyl-2-oxo-5'-(pyridin-2-yl)-3'-(thiophen-2-yl)-1,2-dihydro-1'H-spiro[indole-3,2'-pyrrolidine]-1'-carboxylate"
_symmetry_cell_setting           trigonal
_symmetry_space_group_name_H-M   'P 32'
_symmetry_Int_Tables_number      145
_space_group_name_Hall           'P 32'
loop_
_symmetry_equiv_pos_site_id
_symmetry_equiv_pos_as_xyz
1 x,y,z
2 -y,x-y,2/3+z
3 -x+y,-x,1/3+z
_cell_length_a                   9.32980(10)
_cell_length_b                   9.32980(10)
_cell_length_c                   25.5998(2)
_cell_angle_alpha                90
_cell_angle_beta                 90
_cell_angle_gamma                120
_cell_volume                     1929.8
_exptl_crystal_description       block
_cell_formula_units_Z            3
loop_
_atom_site_label
_atom_site_type_symbol
_atom_site_fract_x
_atom_site_fract_y
_atom_site_fract_z
S1 S 0.16582(18) 0.03248(14) 0.62153(4)
O1 O 0.7397(2) 0.4933(2) 0.48166(7)
O2 O 0.5068(3) 0.5727(2) 0.56210(8)
O3 O 0.6391(2) 0.4845(3) 0.39999(7)
O4 O 0.2626(3) 0.1806(2) 0.41202(7)
H1 H 0.2565 0.2012 0.3812
N1 N 0.2733(3) 0.4221(3) 0.35993(8)
N2 N 0.6063(3) 0.4146(3) 0.59876(8)
N3 N 0.4688(2) 0.3655(3) 0.46950(7)
C1 C 0.5210(3) 0.4499(3) 0.56284(8)
C2 C 0.6201(3) 0.4510(3) 0.44604(9)
C3 C 0.2511(3) 0.2040(3) 0.52735(9)
H2 H 0.2150 0.0925 0.5141
C4 C 0.1974(3) 0.2904(3) 0.48804(10)
H3 H 0.2098 0.3924 0.5023
H4 H 0.0832 0.2193 0.4775
C5 C 0.3328(3) 0.4670(3) 0.40802(9)
C6 C 0.5209(3) 0.2043(3) 0.53963(9)
C7 C 0.6090(3) 0.2698(3) 0.58545(10)
C8 C 0.1278(3) 0.2839(4) 0.60631(10)
H5 H 0.1252 0.3731 0.5911
C9 C 0.1830(3) 0.1868(3) 0.58143(10)
C10 C 0.3157(3) 0.3252(3) 0.44210(9)
C11 C 0.4442(3) 0.3059(3) 0.52350(9)
C12 C 0.9140(3) 0.5685(5) 0.46585(13)
C13 C 0.4001(3) 0.6265(4) 0.42651(11)
H6 H 0.4408 0.6531 0.4604
C14 C 0.5049(4) 0.0606(4) 0.51932(12)
H7 H 0.4436 0.0144 0.4891
C15 C 0.2781(4) 0.5399(5) 0.32880(12)
H8 H 0.2346 0.5098 0.2953
C16 C 0.6864(4) 0.1970(4) 0.61113(12)
H9 H 0.7460 0.2423 0.6417
C17 C 0.3427(4) 0.7005(5) 0.34320(14)
H10 H 0.3447 0.7782 0.3200
C18 C 0.6721(5) 0.0546(5) 0.58989(15)
H11 H 0.7244 0.0040 0.6062
C19 C 0.0758(4) 0.2262(4) 0.65861(12)
H12 H 0.0356 0.2754 0.6814
C20 C 0.4056(4) 0.7460(4) 0.39327(14)
H13 H 0.4507 0.8550 0.4043
C21 C 0.6978(5) 0.5234(5) 0.64183(14)
H14 H 0.6989 0.6264 0.6381
H15 H 0.8093 0.5437 0.6416
H16 H 0.6456 0.4721 0.6742
C22 C 0.5819(5) -0.0148(5) 0.54484(15)
H17 H 0.5726 -0.1119 0.5316
C23 C 0.0903(5) 0.0961(5) 0.67161(13)
H18 H 0.0624 0.0455 0.7042
C24 C 0.9996(4) 0.5862(6) 0.51772(15)
H19 H 0.9765 0.6532 0.5408
H20 H 1.1169 0.6378 0.5123
H21 H 0.9596 0.4788 0.5329
C25 C 0.9302(5) 0.4475(8) 0.43026(19)
H22 H 0.8758 0.3395 0.4459
H23 H 1.0453 0.4832 0.4252
H24 H 0.8800 0.4432 0.3971
C26 C 0.9728(5) 0.7334(6) 0.4409(2)
H25 H 0.9225 0.7183 0.4071
H26 H 1.0909 0.7894 0.4371
H27 H 0.9426 0.7985 0.4623
loop_
_geom_bond_atom_site_label_1
_geom_bond_atom_site_label_2
_geom_bond_site_symmetry_1
_geom_bond_site_symmetry_2
S1 C9 1_555 1_555
O1 C2 1_555 1_555
O2 C1 1_555 1_555
O3 C2 1_555 1_555
O4 H1 1_555 1_555
N1 C5 1_555 1_555
N2 C1 1_555 1_555
N3 C2 1_555 1_555
C1 C11 1_555 1_555
C3 H2 1_555 1_555
C4 C3 1_555 1_555
H3 C4 1_555 1_555
H4 C4 1_555 1_555
C5 C10 1_555 1_555
C6 C7 1_555 1_555
C7 N2 1_555 1_555
C8 H5 1_555 1_555
C9 C3 1_555 1_555
C10 O4 1_555 1_555
C11 N3 1_555 1_555
C12 O1 1_555 1_555
C13 C5 1_555 1_555
H6 C13 1_555 1_555
C14 C6 1_555 1_555
H7 C14 1_555 1_555
C15 N1 1_555 1_555
H8 C15 1_555 1_555
C16 C7 1_555 1_555
H9 C16 1_555 1_555
C17 C15 1_555 1_555
H10 C17 1_555 1_555
C18 C16 1_555 1_555
H11 C18 1_555 1_555
C19 C8 1_555 1_555
H12 C19 1_555 1_555
C20 C13 1_555 1_555
H13 C20 1_555 1_555
C21 N2 1_555 1_555
H14 C21 1_555 1_555
H15 C21 1_555 1_555
H16 C21 1_555 1_555
C22 C14 1_555 1_555
H17 C22 1_555 1_555
C23 S1 1_555 1_555
H18 C23 1_555 1_555
C24 C12 1_555 1_555
H19 C24 1_555 1_555
H20 C24 1_555 1_555
H21 C24 1_555 1_555
C25 C12 1_555 1_555
H22 C25 1_555 1_555
H23 C25 1_555 1_555
H24 C25 1_555 1_555
C26 C12 1_555 1_555
H25 C26 1_555 1_555
H26 C26 1_555 1_555
H27 C26 1_555 1_555
N3 C10 1_555 1_555
C3 C11 1_555 1_555
C4 C10 1_555 1_555
C6 C11 1_555 1_555
C8 C9 1_555 1_555
C17 C20 1_555 1_555
C18 C22 1_555 1_555
C19 C23 1_555 1_555

#END
