
#######################################################################
#
#                 Cambridge Crystallographic Data Centre
#                                CCDC 
#
#######################################################################
#
# If this CIF has been generated from an entry in the Cambridge 
# Structural Database, then it will include bibliographic, chemical, 
# crystal, experimental, refinement or atomic coordinate data resulting 
# from the CCDC's data processing and validation procedures.
#
#######################################################################

data_DELJOW
_chemical_formula_moiety         'C36 H40 B1 N2 P1'
_chemical_name_systematic        
2-[(9-borabicyclo[3.3.1]nonan-9-yl)(triphenyl-\l^5^-phosphanylidene)methyl]-1,3-dimethyl-2,3-dihydro-1H-benzimidazole
_symmetry_cell_setting           monoclinic
_symmetry_space_group_name_H-M   'P 21/n'
_symmetry_Int_Tables_number      14
_space_group_name_Hall           '-P 2yn'
loop_
_symmetry_equiv_pos_site_id
_symmetry_equiv_pos_as_xyz
1 x,y,z
2 1/2-x,1/2+y,1/2-z
3 -x,-y,-z
4 1/2+x,1/2-y,1/2+z
_cell_length_a                   9.3291(4)
_cell_length_b                   16.6683(8)
_cell_length_c                   19.210(1)
_cell_angle_alpha                90
_cell_angle_beta                 98.967(3)
_cell_angle_gamma                90
_cell_volume                     2950.65
_exptl_crystal_colour            yellow
_exptl_crystal_description       prism
_cell_formula_units_Z            4
_exptl_crystal_recrystallization_method 
'Dissolved in diethyl ether and recrystallized at -15 deg.C.'
loop_
_atom_site_label
_atom_site_type_symbol
_atom_site_fract_x
_atom_site_fract_y
_atom_site_fract_z
P1 P 0.30456(4) 0.25381(2) 0.32788(2)
N1 N 0.42656(14) 0.41148(8) 0.41131(7)
N2 N 0.60077(14) 0.31635(8) 0.43945(8)
C1 C 0.34192(17) 0.26763(10) 0.41838(9)
C2 C 0.44635(17) 0.33270(10) 0.44653(9)
C3 C 0.29518(18) 0.45710(10) 0.41125(9)
C4 C 0.55972(18) 0.44828(10) 0.41531(8)
C5 C 0.59560(19) 0.52644(10) 0.40268(9)
C6 C 0.74338(19) 0.54671(11) 0.41037(9)
C7 C 0.84921(19) 0.49033(11) 0.43032(9)
C8 C 0.81320(18) 0.41053(11) 0.44315(9)
C9 C 0.66805(18) 0.39037(10) 0.43436(9)
C10 C 0.6749(2) 0.25748(11) 0.48734(11)
C11 C 0.29192(19) 0.22071(11) 0.54899(9)
C12 C 0.1338(2) 0.22719(11) 0.56383(10)
C13 C 0.0407(2) 0.15459(11) 0.53901(10)
C14 C 0.04110(19) 0.13526(11) 0.46148(10)
C15 C 0.19620(19) 0.12815(10) 0.44349(10)
C16 C 0.2788(2) 0.05692(11) 0.48436(11)
C17 C 0.4075(2) 0.08291(13) 0.53929(11)
C18 C 0.3728(2) 0.14855(12) 0.58829(10)
C19 C 0.01682(18) 0.29126(10) 0.32384(9)
C20 C -0.13204(18) 0.28198(11) 0.30496(9)
C21 C -0.18662(19) 0.21641(12) 0.26556(10)
C22 C -0.09278(19) 0.16056(11) 0.24436(10)
C23 C 0.05631(18) 0.17094(11) 0.26107(9)
C24 C 0.11247(17) 0.23629(10) 0.30123(9)
C25 C 0.24534(19) 0.38754(11) 0.23710(9)
C26 C 0.2873(2) 0.44889(12) 0.19574(10)
C27 C 0.4314(2) 0.45973(11) 0.18996(10)
C28 C 0.5354(2) 0.40960(11) 0.22613(10)
C29 C 0.49455(18) 0.34849(10) 0.26744(9)
C30 C 0.34920(18) 0.33705(10) 0.27391(8)
C31 C 0.38639(18) 0.16234(11) 0.21868(10)
C32 C 0.4613(2) 0.10157(11) 0.19068(11)
C33 C 0.5503(2) 0.05085(11) 0.23520(11)
C34 C 0.5655(2) 0.06076(11) 0.30731(11)
C35 C 0.48890(19) 0.12093(10) 0.33561(10)
C36 C 0.39863(17) 0.17188(10) 0.29153(9)
B1 B 0.2818(2) 0.20980(11) 0.46555(10)
H1 H 0.11878(18) 0.13402(11) 0.24533(9)
H2 H -0.12968(19) 0.11577(11) 0.21876(10)
H3 H -0.28635(19) 0.20984(12) 0.25331(10)
H4 H -0.19499(18) 0.31992(11) 0.31885(9)
H5 H 0.05306(18) 0.33448(10) 0.35179(9)
H6 H 0.56483(18) 0.31458(10) 0.29123(9)
H7 H 0.6328(2) 0.41703(11) 0.22263(10)
H8 H 0.4586(2) 0.50065(11) 0.16181(10)
H9 H 0.2175(2) 0.48295(12) 0.17173(10)
H10 H 0.14772(19) 0.38021(11) 0.24020(9)
H11 H 0.49822(19) 0.12704(10) 0.38423(10)
H12 H 0.6269(2) 0.02717(11) 0.33697(11)
H13 H 0.6002(2) 0.00988(11) 0.21644(11)
H14 H 0.4517(2) 0.09489(11) 0.14211(11)
H15 H 0.32768(18) 0.19694(11) 0.18876(10)
H16 H 0.88482(18) 0.37248(11) 0.45713(9)
H17 H 0.94632(19) 0.50530(11) 0.43539(9)
H18 H 0.77000(19) 0.59914(11) 0.40182(9)
H19 H 0.52406(19) 0.56475(10) 0.38944(9)
H20 H 0.44058(17) 0.34022(10) 0.49661(9)
H21 H 0.2203(4) 0.42255(19) 0.4232(6)
H22 H 0.3127(4) 0.4996(5) 0.4453(5)
H23 H 0.2650(7) 0.4795(6) 0.36528(19)
H24 H 0.6924(13) 0.2793(3) 0.53415(16)
H25 H 0.6158(7) 0.2103(3) 0.4868(5)
H26 H 0.7657(7) 0.2438(6) 0.4728(4)
H27 H 0.34414(19) 0.27041(11) 0.56366(9)
H28 H 0.1355(2) 0.23387(11) 0.61411(10)
H29 H 0.0893(2) 0.27471(11) 0.54059(10)
H30 H 0.0763(2) 0.10843(11) 0.56727(10)
H31 H -0.0582(2) 0.16464(11) 0.54638(10)
H32 H -0.01001(19) 0.08515(11) 0.45002(10)
H33 H -0.01058(19) 0.17710(11) 0.43272(10)
H34 H 0.19115(19) 0.11952(10) 0.39270(10)
H35 H 0.2113(2) 0.02681(11) 0.50783(11)
H36 H 0.3139(2) 0.02133(11) 0.45076(11)
H37 H 0.4431(2) 0.03654(13) 0.56726(11)
H38 H 0.4850(2) 0.10129(13) 0.51494(11)
H39 H 0.4625(2) 0.16753(12) 0.61576(10)
H40 H 0.3134(2) 0.12640(12) 0.62077(10)
loop_
_geom_bond_atom_site_label_1
_geom_bond_atom_site_label_2
_geom_bond_site_symmetry_1
_geom_bond_site_symmetry_2
P1 C1 1_555 1_555
N1 C2 1_555 1_555
N2 C2 1_555 1_555
C1 C2 1_555 1_555
C2 H20 1_555 1_555
C3 N1 1_555 1_555
C4 N1 1_555 1_555
C5 C4 1_555 1_555
C6 C5 1_555 1_555
C7 C6 1_555 1_555
C8 C7 1_555 1_555
C9 N2 1_555 1_555
C10 N2 1_555 1_555
C11 C12 1_555 1_555
C12 C13 1_555 1_555
C13 C14 1_555 1_555
C14 C15 1_555 1_555
C15 C16 1_555 1_555
C16 C17 1_555 1_555
C17 C18 1_555 1_555
C18 C11 1_555 1_555
C19 C20 1_555 1_555
C20 C21 1_555 1_555
C21 C22 1_555 1_555
C22 C23 1_555 1_555
C23 C24 1_555 1_555
C24 P1 1_555 1_555
C25 C26 1_555 1_555
C26 C27 1_555 1_555
C27 C28 1_555 1_555
C28 C29 1_555 1_555
C29 C30 1_555 1_555
C30 P1 1_555 1_555
C31 C32 1_555 1_555
C32 C33 1_555 1_555
C33 C34 1_555 1_555
C34 C35 1_555 1_555
C35 C36 1_555 1_555
C36 P1 1_555 1_555
B1 C1 1_555 1_555
H1 C23 1_555 1_555
H2 C22 1_555 1_555
H3 C21 1_555 1_555
H4 C20 1_555 1_555
H5 C19 1_555 1_555
H6 C29 1_555 1_555
H7 C28 1_555 1_555
H8 C27 1_555 1_555
H9 C26 1_555 1_555
H10 C25 1_555 1_555
H11 C35 1_555 1_555
H12 C34 1_555 1_555
H13 C33 1_555 1_555
H14 C32 1_555 1_555
H15 C31 1_555 1_555
H16 C8 1_555 1_555
H17 C7 1_555 1_555
H18 C6 1_555 1_555
H19 C5 1_555 1_555
H21 C3 1_555 1_555
H22 C3 1_555 1_555
H23 C3 1_555 1_555
H24 C10 1_555 1_555
H25 C10 1_555 1_555
H26 C10 1_555 1_555
H27 C11 1_555 1_555
H28 C12 1_555 1_555
H29 C12 1_555 1_555
H30 C13 1_555 1_555
H31 C13 1_555 1_555
H32 C14 1_555 1_555
H33 C14 1_555 1_555
H34 C15 1_555 1_555
H35 C16 1_555 1_555
H36 C16 1_555 1_555
H37 C17 1_555 1_555
H38 C17 1_555 1_555
H39 C18 1_555 1_555
H40 C18 1_555 1_555
C4 C9 1_555 1_555
C8 C9 1_555 1_555
C11 B1 1_555 1_555
C15 B1 1_555 1_555
C19 C24 1_555 1_555
C25 C30 1_555 1_555
C31 C36 1_555 1_555

#END
