
#######################################################################
#
#                 Cambridge Crystallographic Data Centre
#                                CCDC 
#
#######################################################################
#
# If this CIF has been generated from an entry in the Cambridge 
# Structural Database, then it will include bibliographic, chemical, 
# crystal, experimental, refinement or atomic coordinate data resulting 
# from the CCDC's data processing and validation procedures.
#
#######################################################################

data_DELKOU
_chemical_compound_source        'Igernella notabilis'
_chemical_formula_moiety         'C24 H36 O6'
_chemical_name_systematic        
7\a,17\b-Dihydroxy-15,17-oxidospongian-16-one-7-butyrate
_symmetry_cell_setting           tetragonal
_symmetry_space_group_name_H-M   'P 41'
_symmetry_Int_Tables_number      76
_space_group_name_Hall           'P 4w'
loop_
_symmetry_equiv_pos_site_id
_symmetry_equiv_pos_as_xyz
1 x,y,z
2 -y,x,1/4+z
3 -x,-y,1/2+z
4 y,-x,3/4+z
_cell_length_a                   10.782(6)
_cell_length_b                   10.782(6)
_cell_length_c                   18.531(13)
_cell_angle_alpha                90
_cell_angle_beta                 90
_cell_angle_gamma                90
_cell_volume                     2154.26
_exptl_crystal_colour            white
_chemical_melting_point          197-198deg.C
_cell_formula_units_Z            4
loop_
_atom_site_label
_atom_site_type_symbol
_atom_site_fract_x
_atom_site_fract_y
_atom_site_fract_z
O1 O 0.7811(1) -0.1673(1) 0.54990
O2 O 0.6612(1) -0.2978(1) 0.6212(1)
O3 O 0.8573(1) -0.1290(1) 0.6654(1)
O4 O 0.7938(2) -0.1911(2) 0.7742(1)
O5 O 0.5132(1) 0.0878(1) 0.5239(1)
O6 O 0.5547(1) 0.1470(1) 0.4104(1)
C1 C 0.2300(2) -0.1942(2) 0.6190(1)
C2 C 0.1198(2) -0.2391(2) 0.5743(2)
C3 C 0.1030(2) -0.1611(2) 0.5070(2)
C4 C 0.2186(2) -0.1555(2) 0.4584(1)
C5 C 0.3323(2) -0.1190(2) 0.5057(1)
C6 C 0.4530(2) -0.1045(2) 0.4631(1)
C7 C 0.5531(2) -0.0389(2) 0.5066(1)
C8 C 0.5790(2) -0.1022(2) 0.5800(1)
C9 C 0.4534(2) -0.1207(2) 0.6204(1)
C10 C 0.3534(2) -0.1938(2) 0.5764(1)
C11 C 0.4701(2) -0.1615(2) 0.6995(1)
C12 C 0.5477(2) -0.0669(2) 0.7411(1)
C13 C 0.6722(2) -0.0384(2) 0.7062(1)
C14 C 0.6743(2) -0.0223(2) 0.6238(1)
C15 C 0.8018(2) -0.0741(2) 0.6017(1)
C16 C 0.6601(2) -0.2170(2) 0.5627(1)
C17 C 0.7755(2) -0.1298(2) 0.7211(1)
C18 C 0.2353(2) -0.2786(2) 0.4173(1)
C19 C 0.1956(2) -0.0541(3) 0.4018(2)
C20 C 0.3923(2) -0.3302(2) 0.5651(1)
C21 C 0.5266(2) 0.1727(2) 0.4721(1)
C22 C 0.5058(2) 0.3025(2) 0.4996(1)
C23 C 0.4308(2) 0.3827(2) 0.4471(1)
C24 C 0.2951(2) 0.3470(3) 0.4452(2)
H1 H 0.728(3) -0.345(3) 0.618(2)
H2 H 0.241(2) -0.249(2) 0.663(1)
H3 H 0.215(2) -0.109(2) 0.633(1)
H4 H 0.129(2) -0.326(2) 0.563(1)
H5 H 0.041(3) -0.231(3) 0.605(1)
H6 H 0.028(3) -0.185(3) 0.478(1)
H7 H 0.083(3) -0.072(2) 0.519(1)
H8 H 0.312(2) -0.039(2) 0.522(1)
H9 H 0.444(2) -0.057(2) 0.418(1)
H10 H 0.483(2) -0.191(2) 0.449(1)
H11 H 0.626(2) -0.032(2) 0.480(1)
H12 H 0.417(2) -0.042(2) 0.621(1)
H13 H 0.506(2) -0.243(2) 0.702(1)
H14 H 0.390(2) -0.166(2) 0.725(1)
H15 H 0.559(2) -0.093(2) 0.791(1)
H16 H 0.501(2) 0.015(2) 0.742(1)
H17 H 0.704(2) 0.043(2) 0.727(1)
H18 H 0.664(2) 0.066(2) 0.611(1)
H19 H 0.868(2) -0.015(2) 0.583(1)
H20 H 0.639(2) -0.262(2) 0.519(1)
H21 H 0.169(2) -0.290(2) 0.381(1)
H22 H 0.240(3) -0.346(2) 0.450(1)
H23 H 0.320(3) -0.277(2) 0.390(1)
H24 H 0.260(2) -0.057(2) 0.366(1)
H25 H 0.186(2) 0.026(3) 0.423(2)
H26 H 0.103(3) -0.066(3) 0.377(2)
H27 H 0.424(2) -0.361(2) 0.607(1)
H28 H 0.324(2) -0.379(2) 0.553(1)
H29 H 0.452(3) -0.339(2) 0.529(1)
H30 H 0.588(2) 0.330(2) 0.507(1)
H31 H 0.470(2) 0.298(3) 0.546(1)
H32 H 0.468(3) 0.376(3) 0.398(2)
H33 H 0.429(3) 0.465(3) 0.462(2)
H34 H 0.289(3) 0.275(3) 0.424(2)
H35 H 0.243(3) 0.403(3) 0.413(2)
H36 H 0.258(3) 0.358(2) 0.493(2)
loop_
_geom_bond_atom_site_label_1
_geom_bond_atom_site_label_2
_geom_bond_site_symmetry_1
_geom_bond_site_symmetry_2
O1 C15 1_555 1_555
O2 C16 1_555 1_555
O3 C15 1_555 1_555
O4 C17 1_555 1_555
O5 C7 1_555 1_555
O6 C21 1_555 1_555
C1 C2 1_555 1_555
C2 C3 1_555 1_555
C3 C4 1_555 1_555
C4 C5 1_555 1_555
C5 C6 1_555 1_555
C6 C7 1_555 1_555
C7 C8 1_555 1_555
C8 C9 1_555 1_555
C9 C10 1_555 1_555
C10 C1 1_555 1_555
C11 C9 1_555 1_555
C12 C11 1_555 1_555
C13 C12 1_555 1_555
C14 C8 1_555 1_555
C15 C14 1_555 1_555
C16 O1 1_555 1_555
C17 O3 1_555 1_555
C18 C4 1_555 1_555
C19 C4 1_555 1_555
C20 C10 1_555 1_555
C21 O5 1_555 1_555
C22 C21 1_555 1_555
C23 C22 1_555 1_555
C24 C23 1_555 1_555
H1 O2 1_555 1_555
H2 C1 1_555 1_555
H3 C1 1_555 1_555
H4 C2 1_555 1_555
H5 C2 1_555 1_555
H6 C3 1_555 1_555
H7 C3 1_555 1_555
H8 C5 1_555 1_555
H9 C6 1_555 1_555
H10 C6 1_555 1_555
H11 C7 1_555 1_555
H12 C9 1_555 1_555
H13 C11 1_555 1_555
H14 C11 1_555 1_555
H15 C12 1_555 1_555
H16 C12 1_555 1_555
H17 C13 1_555 1_555
H18 C14 1_555 1_555
H19 C15 1_555 1_555
H20 C16 1_555 1_555
H21 C18 1_555 1_555
H22 C18 1_555 1_555
H23 C18 1_555 1_555
H24 C19 1_555 1_555
H25 C19 1_555 1_555
H26 C19 1_555 1_555
H27 C20 1_555 1_555
H28 C20 1_555 1_555
H29 C20 1_555 1_555
H30 C22 1_555 1_555
H31 C22 1_555 1_555
H32 C23 1_555 1_555
H33 C23 1_555 1_555
H34 C24 1_555 1_555
H35 C24 1_555 1_555
H36 C24 1_555 1_555
C5 C10 1_555 1_555
C8 C16 1_555 1_555
C13 C14 1_555 1_555
C13 C17 1_555 1_555

#END
