
#######################################################################
#
#                 Cambridge Crystallographic Data Centre
#                                CCDC 
#
#######################################################################
#
# If this CIF has been generated from an entry in the Cambridge 
# Structural Database, then it will include bibliographic, chemical, 
# crystal, experimental, refinement or atomic coordinate data resulting 
# from the CCDC's data processing and validation procedures.
#
#######################################################################

data_DELKIR
_chemical_formula_moiety         'C29 H41 B1 N4 O2'
_chemical_name_systematic        
2-[(1,3-dimethyl-1,3-dihydro-2H-benzimidazol-2-ylidene)(4,4,5,5-tetramethyl-1,3,2-dioxaborolan-2-yl)methyl]-1,3-bis(propan-2-yl)-2,3-dihydro-1H-benzimidazole
_symmetry_cell_setting           monoclinic
_symmetry_space_group_name_H-M   'C 2/c'
_symmetry_Int_Tables_number      15
_space_group_name_Hall           '-C 2yn'
loop_
_symmetry_equiv_pos_site_id
_symmetry_equiv_pos_as_xyz
1 x,y,z
2 -x,y,1/2-z
3 1/2+x,1/2+y,z
4 1/2-x,1/2+y,1/2-z
5 -x,-y,-z
6 x,-y,1/2+z
7 1/2-x,1/2-y,-z
8 1/2+x,1/2-y,1/2+z
_cell_length_a                   22.9807(7)
_cell_length_b                   12.4586(4)
_cell_length_c                   21.6065(10)
_cell_angle_alpha                90
_cell_angle_beta                 115.9890(10)
_cell_angle_gamma                90
_cell_volume                     5560.55
_exptl_crystal_colour            colorless
_exptl_crystal_description       prism
_cell_formula_units_Z            8
_exptl_crystal_recrystallization_method 'tetrahydrofuran at -20 deg.C'
loop_
_atom_site_label
_atom_site_type_symbol
_atom_site_fract_x
_atom_site_fract_y
_atom_site_fract_z
O1 O 0.29350(4) 0.53492(6) 0.12616(4)
O2 O 0.25418(4) 0.38886(6) 0.16060(4)
N1 N 0.40165(4) 0.26313(7) 0.28166(4)
N2 N 0.39895(4) 0.37693(7) 0.36501(4)
N3 N 0.47568(4) 0.52716(7) 0.31593(5)
N4 N 0.39818(4) 0.64639(7) 0.26689(5)
C1 C 0.36258(5) 0.45722(9) 0.24851(5)
C2 C 0.24263(5) 0.48832(9) 0.06449(6)
C3 C 0.20439(6) 0.57780(11) 0.01637(6)
H1 H 0.1879 0.6252 0.0400
H2 H 0.1690 0.5477 -0.0231
H3 H 0.2321 0.6171 0.0017
C4 C 0.27624(6) 0.42019(11) 0.03103(6)
H4 H 0.3069 0.4636 0.0232
H5 H 0.2446 0.3925 -0.0121
H6 H 0.2984 0.3616 0.0610
C5 C 0.20397(5) 0.42004(9) 0.09392(6)
C6 C 0.15454(6) 0.48551(10) 0.10692(6)
H7 H 0.1385 0.4437 0.1335
H8 H 0.1193 0.5046 0.0637
H9 H 0.1747 0.5495 0.1318
C7 C 0.17316(6) 0.31883(10) 0.05385(7)
H10 H 0.2062 0.2732 0.0523
H11 H 0.1429 0.3376 0.0078
H12 H 0.1509 0.2816 0.0761
C8 C 0.36613(5) 0.35757(8) 0.29023(5)
H13 H 0.3217 0.3348 0.2785
C9 C 0.36711(5) 0.20412(9) 0.21669(6)
H14 H 0.3419 0.2578 0.1822
C10 C 0.41265(6) 0.15373(10) 0.19099(6)
H15 H 0.4440 0.2059 0.1926
H16 H 0.3883 0.1297 0.1444
H17 H 0.4344 0.0938 0.2197
C11 C 0.31836(6) 0.12347(11) 0.21899(7)
H18 H 0.3409 0.0670 0.2507
H19 H 0.2940 0.0936 0.1739
H20 H 0.2895 0.1589 0.2337
C12 C 0.43304(5) 0.21364(8) 0.34612(5)
C13 C 0.46715(5) 0.11812(9) 0.36492(6)
H21 H 0.4684 0.0719 0.3317
C14 C 0.49978(5) 0.09240(9) 0.43495(6)
H22 H 0.5231 0.0287 0.4483
C15 C 0.49774(5) 0.16019(9) 0.48443(6)
H23 H 0.5196 0.1414 0.5307
C16 C 0.46330(5) 0.25676(9) 0.46601(6)
H24 H 0.4618 0.3023 0.4994
C17 C 0.43139(5) 0.28306(8) 0.39679(5)
C18 C 0.36141(5) 0.44186(9) 0.39156(6)
H25 H 0.3330 0.4876 0.3533
C19 C 0.31712(6) 0.37446(11) 0.41186(7)
H26 H 0.2932 0.3249 0.3755
H27 H 0.2875 0.4206 0.4196
H28 H 0.3427 0.3354 0.4532
C20 C 0.40481(6) 0.51754(10) 0.44841(7)
H29 H 0.4319 0.4766 0.4883
H30 H 0.3785 0.5658 0.4600
H31 H 0.4314 0.5579 0.4328
C21 C 0.40994(5) 0.53693(9) 0.27489(5)
C22 C 0.51421(5) 0.42959(9) 0.33369(6)
H32 H 0.5265 0.4120 0.3810
H33 H 0.5524 0.4405 0.3269
H34 H 0.4892 0.3719 0.3049
C23 C 0.50405(5) 0.62751(9) 0.33297(5)
C24 C 0.56821(5) 0.65712(10) 0.37114(6)
H35 H 0.6008 0.6063 0.3908
C25 C 0.58128(6) 0.76664(10) 0.37849(6)
H36 H 0.6238 0.7897 0.4034
C26 C 0.53233(6) 0.84246(10) 0.34943(6)
H37 H 0.5427 0.9150 0.3564
C27 C 0.46813(6) 0.81226(9) 0.31014(6)
H38 H 0.4355 0.8630 0.2902
C28 C 0.45513(5) 0.70332(9) 0.30205(6)
C29 C 0.33467(5) 0.69623(9) 0.23832(6)
H39 H 0.3217 0.7133 0.1908
H40 H 0.3364 0.7608 0.2633
H41 H 0.3039 0.6476 0.2420
B1 B 0.30364(6) 0.46418(10) 0.17976(6)
loop_
_geom_bond_atom_site_label_1
_geom_bond_atom_site_label_2
_geom_bond_site_symmetry_1
_geom_bond_site_symmetry_2
O1 C2 1_555 1_555
O2 C5 1_555 1_555
N1 C8 1_555 1_555
N2 C8 1_555 1_555
N3 C21 1_555 1_555
N4 C21 1_555 1_555
C1 C8 1_555 1_555
C2 C3 1_555 1_555
C3 H1 1_555 1_555
H2 C3 1_555 1_555
H3 C3 1_555 1_555
C4 C2 1_555 1_555
H4 C4 1_555 1_555
H5 C4 1_555 1_555
H6 C4 1_555 1_555
C5 C2 1_555 1_555
C6 C5 1_555 1_555
H7 C6 1_555 1_555
H8 C6 1_555 1_555
H9 C6 1_555 1_555
C7 C5 1_555 1_555
H10 C7 1_555 1_555
H11 C7 1_555 1_555
H12 C7 1_555 1_555
C8 H13 1_555 1_555
C9 N1 1_555 1_555
H14 C9 1_555 1_555
C10 C9 1_555 1_555
H15 C10 1_555 1_555
H16 C10 1_555 1_555
H17 C10 1_555 1_555
C11 C9 1_555 1_555
H18 C11 1_555 1_555
H19 C11 1_555 1_555
H20 C11 1_555 1_555
C12 N1 1_555 1_555
C13 C12 1_555 1_555
H21 C13 1_555 1_555
C14 C13 1_555 1_555
H22 C14 1_555 1_555
C15 C14 1_555 1_555
H23 C15 1_555 1_555
C16 C15 1_555 1_555
H24 C16 1_555 1_555
C17 N2 1_555 1_555
C18 N2 1_555 1_555
H25 C18 1_555 1_555
C19 C18 1_555 1_555
H26 C19 1_555 1_555
H27 C19 1_555 1_555
H28 C19 1_555 1_555
C20 C18 1_555 1_555
H29 C20 1_555 1_555
H30 C20 1_555 1_555
H31 C20 1_555 1_555
C21 C1 1_555 1_555
C22 N3 1_555 1_555
H32 C22 1_555 1_555
H33 C22 1_555 1_555
H34 C22 1_555 1_555
C23 N3 1_555 1_555
C24 C23 1_555 1_555
H35 C24 1_555 1_555
C25 C24 1_555 1_555
H36 C25 1_555 1_555
C26 C25 1_555 1_555
H37 C26 1_555 1_555
C27 C26 1_555 1_555
H38 C27 1_555 1_555
C28 N4 1_555 1_555
C29 N4 1_555 1_555
H39 C29 1_555 1_555
H40 C29 1_555 1_555
H41 C29 1_555 1_555
B1 O1 1_555 1_555
O2 B1 1_555 1_555
C1 B1 1_555 1_555
C12 C17 1_555 1_555
C16 C17 1_555 1_555
C23 C28 1_555 1_555
C27 C28 1_555 1_555

#END
