
#######################################################################
#
#                 Cambridge Crystallographic Data Centre
#                                CCDC 
#
#######################################################################
#
# If this CIF has been generated from an entry in the Cambridge 
# Structural Database, then it will include bibliographic, chemical, 
# crystal, experimental, refinement or atomic coordinate data resulting 
# from the CCDC's data processing and validation procedures.
#
#######################################################################

data_DELKUD
_chemical_formula_moiety         'C44 H37 N2 P1,C4 H8 O1'
_chemical_name_systematic        
'1,3-dimethyl-2-(phenylethynyl)-2-[3-phenyl-1-(triphenyl-\l^5^-phosphanylidene)prop-2-en-1-yl]-2,3-dihydro-1H-benzimidazole tetrahydrofuran solvate'
_symmetry_cell_setting           triclinic
_symmetry_space_group_name_H-M   'P -1'
_symmetry_Int_Tables_number      2
_space_group_name_Hall           '-P 1'
loop_
_symmetry_equiv_pos_site_id
_symmetry_equiv_pos_as_xyz
1 x,y,z
2 -x,-y,-z
_cell_length_a                   11.6039(4)
_cell_length_b                   12.8943(5)
_cell_length_c                   13.8287(8)
_cell_angle_alpha                73.342(2)
_cell_angle_beta                 88.592(3)
_cell_angle_gamma                72.775(2)
_cell_volume                     1889.25
_exptl_crystal_colour            red
_exptl_crystal_description       plate
_cell_formula_units_Z            2
_exptl_crystal_recrystallization_method 
'Dissolved in THF, then added hexanes and recrystallized at -15 deg.C.'
loop_
_atom_site_label
_atom_site_type_symbol
_atom_site_fract_x
_atom_site_fract_y
_atom_site_fract_z
P1 P 0.74101(3) 0.64826(3) 0.59483(3)
N1 N 0.61684(12) 0.59591(12) 0.80217(10)
N2 N 0.61623(12) 0.77989(12) 0.76159(10)
C1 C 0.59184(13) 0.70357(13) 0.61827(12)
C2 C 0.56188(13) 0.70548(14) 0.72433(12)
C3 C 0.57397(17) 0.50017(15) 0.80640(14)
H1 H 0.5042 0.5040 0.8456
H2 H 0.6366 0.4308 0.8373
H3 H 0.5527 0.5022 0.7391
C4 C 0.64001(14) 0.61919(16) 0.89078(12)
C5 C 0.66507(16) 0.54907(19) 0.98896(14)
H4 H 0.6668 0.4734 1.0053
C6 C 0.68786(19) 0.5967(2) 1.06299(15)
H5 H 0.7067 0.5512 1.1296
C7 C 0.68301(19) 0.7088(2) 1.03937(16)
H6 H 0.6973 0.7381 1.0904
C8 C 0.65700(17) 0.7797(2) 0.93995(15)
H7 H 0.6531 0.8559 0.9240
C9 C 0.63727(14) 0.73276(16) 0.86618(13)
C10 C 0.56467(17) 0.90151(15) 0.71933(15)
H8 H 0.5474 0.9196 0.6478
H9 H 0.6212 0.9386 0.7312
H10 H 0.4913 0.9270 0.7509
C11 C 0.50193(14) 0.75412(13) 0.53544(12)
H11 H 0.4227 0.7767 0.5535
C12 C 0.51504(14) 0.77394(14) 0.43461(12)
H12 H 0.5928 0.7677 0.4134
C13 C 0.29527(15) 0.84308(15) 0.37021(13)
H13 H 0.2708 0.8546 0.4319
C14 C 0.20892(16) 0.86472(17) 0.29376(14)
H14 H 0.1274 0.8900 0.3052
C15 C 0.24133(17) 0.84954(18) 0.20120(14)
H15 H 0.1826 0.8634 0.1506
C16 C 0.36326(18) 0.81322(19) 0.18480(14)
H16 H 0.3868 0.8033 0.1225
C17 C 0.45000(16) 0.79168(16) 0.26085(13)
H17 H 0.5313 0.7683 0.2482
C18 C 0.41908(14) 0.80408(13) 0.35613(12)
C19 C 0.42820(14) 0.73956(14) 0.73583(12)
C20 C 0.32674(14) 0.75814(14) 0.76206(12)
C21 C 0.17601(15) 0.78727(15) 0.88814(13)
H18 H 0.2380 0.7687 0.9372
C22 C 0.05636(16) 0.81783(16) 0.91282(14)
H19 H 0.0383 0.8201 0.9782
C23 C -0.03613(15) 0.84487(15) 0.83983(14)
H20 H -0.1163 0.8655 0.8563
C24 C -0.00956(15) 0.84133(14) 0.74269(14)
H21 H -0.0719 0.8598 0.6939
C25 C 0.10916(14) 0.81053(14) 0.71768(13)
H22 H 0.1265 0.8072 0.6524
C26 C 0.20345(14) 0.78440(13) 0.79009(12)
C27 C 0.67449(15) 0.49703(14) 0.51847(13)
H23 H 0.6291 0.4877 0.5750
C28 C 0.66932(15) 0.44025(15) 0.44834(13)
H24 H 0.6210 0.3925 0.4582
C29 C 0.73573(15) 0.45414(15) 0.36372(13)
H25 H 0.7312 0.4165 0.3164
C30 C 0.80914(15) 0.52424(15) 0.34936(13)
H26 H 0.8542 0.5333 0.2927
C31 C 0.81524(14) 0.58087(14) 0.41974(12)
H27 H 0.8648 0.6275 0.4102
C32 C 0.74740(13) 0.56819(13) 0.50483(12)
C33 C 0.86717(15) 0.43833(14) 0.72954(12)
H28 H 0.8358 0.4055 0.6889
C34 C 0.94171(16) 0.37015(15) 0.81546(13)
H29 H 0.9586 0.2917 0.8331
C35 C 0.99088(15) 0.41857(16) 0.87493(13)
H30 H 1.0413 0.3725 0.9320
C36 C 0.96512(14) 0.53519(15) 0.84960(13)
H31 H 0.9987 0.5675 0.8893
C37 C 0.88945(14) 0.60402(14) 0.76514(12)
H32 H 0.8717 0.6825 0.7487
C38 C 0.83965(13) 0.55600(14) 0.70462(12)
C39 C 0.94187(14) 0.72060(14) 0.52983(12)
H33 H 0.9867 0.6444 0.5535
C40 C 0.99893(15) 0.80170(15) 0.48619(12)
H34 H 1.0820 0.7797 0.4800
C41 C 0.93251(16) 0.91499(15) 0.45191(13)
H35 H 0.9712 0.9691 0.4231
C42 C 0.80841(16) 0.94863(15) 0.46010(13)
H36 H 0.7641 1.0250 0.4368
C43 C 0.75051(15) 0.86757(14) 0.50342(12)
H37 H 0.6673 0.8898 0.5090
C44 C 0.81669(14) 0.75370(14) 0.53816(11)
O1 O 1.08657(13) 0.09641(13) 0.87999(10)
C45 C 1.11945(19) 0.10252(18) 0.77937(15)
H38 H 1.0659 0.1694 0.7318
H39 H 1.1154 0.0358 0.7621
C46 C 1.2468(2) 0.1087(2) 0.77710(16)
H40 H 1.2485 0.1857 0.7674
H41 H 1.2891 0.0803 0.7241
C47 C 1.30107(19) 0.0315(2) 0.88218(16)
H42 H 1.3325 -0.0472 0.8827
H43 H 1.3650 0.0546 0.9056
C48 C 1.19263(19) 0.0498(2) 0.94552(16)
H44 H 1.1919 -0.0218 0.9929
H45 H 1.1967 0.1013 0.9837
loop_
_geom_bond_atom_site_label_1
_geom_bond_atom_site_label_2
_geom_bond_site_symmetry_1
_geom_bond_site_symmetry_2
P1 C1 1_555 1_555
N1 C2 1_555 1_555
N2 C2 1_555 1_555
C1 C2 1_555 1_555
C2 C19 1_555 1_555
C3 N1 1_555 1_555
H1 C3 1_555 1_555
H2 C3 1_555 1_555
H3 C3 1_555 1_555
C4 N1 1_555 1_555
C5 C4 1_555 1_555
H4 C5 1_555 1_555
C6 C5 1_555 1_555
H5 C6 1_555 1_555
C7 C6 1_555 1_555
H6 C7 1_555 1_555
C8 C7 1_555 1_555
H7 C8 1_555 1_555
C9 N2 1_555 1_555
C10 N2 1_555 1_555
H8 C10 1_555 1_555
H9 C10 1_555 1_555
H10 C10 1_555 1_555
C11 C1 1_555 1_555
H11 C11 1_555 1_555
C12 C11 1_555 1_555
H12 C12 1_555 1_555
C13 H13 1_555 1_555
C14 C13 1_555 1_555
H14 C14 1_555 1_555
C15 C14 1_555 1_555
H15 C15 1_555 1_555
C16 C15 1_555 1_555
H16 C16 1_555 1_555
C17 C16 1_555 1_555
H17 C17 1_555 1_555
C18 C12 1_555 1_555
C19 C20 1_555 1_555
C20 C26 1_555 1_555
C21 H18 1_555 1_555
C22 C21 1_555 1_555
H19 C22 1_555 1_555
C23 C22 1_555 1_555
H20 C23 1_555 1_555
C24 C23 1_555 1_555
H21 C24 1_555 1_555
C25 C24 1_555 1_555
H22 C25 1_555 1_555
C26 C21 1_555 1_555
C27 H23 1_555 1_555
C28 C27 1_555 1_555
H24 C28 1_555 1_555
C29 C28 1_555 1_555
H25 C29 1_555 1_555
C30 C29 1_555 1_555
H26 C30 1_555 1_555
C31 C30 1_555 1_555
H27 C31 1_555 1_555
C32 P1 1_555 1_555
C33 H28 1_555 1_555
C34 C33 1_555 1_555
H29 C34 1_555 1_555
C35 C34 1_555 1_555
H30 C35 1_555 1_555
C36 C35 1_555 1_555
H31 C36 1_555 1_555
C37 C36 1_555 1_555
H32 C37 1_555 1_555
C38 P1 1_555 1_555
C39 H33 1_555 1_555
C40 C39 1_555 1_555
H34 C40 1_555 1_555
C41 C40 1_555 1_555
H35 C41 1_555 1_555
C42 C41 1_555 1_555
H36 C42 1_555 1_555
C43 C42 1_555 1_555
H37 C43 1_555 1_555
C44 P1 1_555 1_555
O1 C45 1_555 1_555
C45 H38 1_555 1_555
H39 C45 1_555 1_555
C46 C45 1_555 1_555
H40 C46 1_555 1_555
H41 C46 1_555 1_555
C47 C46 1_555 1_555
H42 C47 1_555 1_555
H43 C47 1_555 1_555
C48 O1 1_555 1_555
H44 C48 1_555 1_555
H45 C48 1_555 1_555
C4 C9 1_555 1_555
C8 C9 1_555 1_555
C13 C18 1_555 1_555
C17 C18 1_555 1_555
C25 C26 1_555 1_555
C27 C32 1_555 1_555
C31 C32 1_555 1_555
C33 C38 1_555 1_555
C37 C38 1_555 1_555
C39 C44 1_555 1_555
C43 C44 1_555 1_555
C47 C48 1_555 1_555

#END
