
#######################################################################
#
#                 Cambridge Crystallographic Data Centre
#                                CCDC 
#
#######################################################################
#
# If this CIF has been generated from an entry in the Cambridge 
# Structural Database, then it will include bibliographic, chemical, 
# crystal, experimental, refinement or atomic coordinate data resulting 
# from the CCDC's data processing and validation procedures.
#
#######################################################################

data_DELPEQ01
_chemical_formula_moiety         'C9 H11 N3 O2'
_chemical_name_systematic        'Acetone 2-nitrophenylhydrazone'
_symmetry_cell_setting           monoclinic
_symmetry_space_group_name_H-M   'P 21/c'
_symmetry_Int_Tables_number      14
_space_group_name_Hall           '-P 2ybc'
loop_
_symmetry_equiv_pos_site_id
_symmetry_equiv_pos_as_xyz
1 x,y,z
2 -x,1/2+y,1/2-z
3 -x,-y,-z
4 x,1/2-y,1/2+z
_cell_length_a                   3.8451(2)
_cell_length_b                   11.4926(8)
_cell_length_c                   21.3214(13)
_cell_angle_alpha                90
_cell_angle_beta                 92.208(4)
_cell_angle_gamma                90
_cell_volume                     941.497
_exptl_crystal_colour            orange
_exptl_crystal_description       plate
_chemical_melting_point          '339-341 K'
_cell_formula_units_Z            4
_exptl_crystal_recrystallization_method ethanol
loop_
_atom_site_label
_atom_site_type_symbol
_atom_site_fract_x
_atom_site_fract_y
_atom_site_fract_z
C1 C 0.3793(4) 0.68934(13) 0.08125(6)
N1 N 0.5144(3) 0.63071(11) 0.13218(5)
N2 N 0.5246(3) 0.51069(11) 0.13215(6)
C2 C 0.6772(4) 0.46464(14) 0.18091(7)
C3 C 0.6941(4) 0.33459(14) 0.18324(8)
C4 C 0.8357(4) 0.53242(15) 0.23532(7)
C5 C 0.3832(4) 0.81231(13) 0.07662(6)
N3 N 0.5444(3) 0.88451(12) 0.12460(6)
O1 O 0.6846(3) 0.83762(10) 0.17212(5)
O2 O 0.5455(3) 0.99053(10) 0.11794(6)
C6 C 0.2387(4) 0.86983(13) 0.02377(7)
C7 C 0.0882(4) 0.80780(13) -0.02496(7)
C8 C 0.0830(4) 0.68637(13) -0.02143(7)
C9 C 0.2246(4) 0.62841(13) 0.03000(6)
H1 H 0.5953 0.6695 0.1652
H2 H 0.5712 0.3022 0.1461
H3 H 0.5843 0.3068 0.2212
H4 H 0.9380 0.3096 0.1840
H5 H 0.9952 0.5912 0.2196
H6 H 0.9643 0.4793 0.2637
H7 H 0.6509 0.5708 0.2580
H8 H 0.2451 0.9524 0.0218
H9 H -0.0111 0.8467 -0.0606
H10 H -0.0203 0.6430 -0.0552
H11 H 0.2179 0.5458 0.0310
loop_
_geom_bond_atom_site_label_1
_geom_bond_atom_site_label_2
_geom_bond_site_symmetry_1
_geom_bond_site_symmetry_2
C1 N1 1_555 1_555
N1 N2 1_555 1_555
N2 C2 1_555 1_555
C2 C3 1_555 1_555
C3 H2 1_555 1_555
C4 C2 1_555 1_555
C5 C1 1_555 1_555
N3 C5 1_555 1_555
O1 N3 1_555 1_555
O2 N3 1_555 1_555
C6 C5 1_555 1_555
C7 C6 1_555 1_555
C8 C7 1_555 1_555
C9 C1 1_555 1_555
H1 N1 1_555 1_555
H3 C3 1_555 1_555
H4 C3 1_555 1_555
H5 C4 1_555 1_555
H6 C4 1_555 1_555
H7 C4 1_555 1_555
H8 C6 1_555 1_555
H9 C7 1_555 1_555
H10 C8 1_555 1_555
H11 C9 1_555 1_555
C8 C9 1_555 1_555

#END
