
#######################################################################
#
#                 Cambridge Crystallographic Data Centre
#                                CCDC 
#
#######################################################################
#
# If this CIF has been generated from an entry in the Cambridge 
# Structural Database, then it will include bibliographic, chemical, 
# crystal, experimental, refinement or atomic coordinate data resulting 
# from the CCDC's data processing and validation procedures.
#
#######################################################################

data_DELTEU
_chemical_formula_moiety         'C21 H26 O3'
_chemical_name_systematic        11\b-Hydroxypregna-1,4,16-triene-3,20-dione
_symmetry_cell_setting           orthorhombic
_symmetry_space_group_name_H-M   'P 21 21 21'
_symmetry_Int_Tables_number      19
_space_group_name_Hall           'P 2ac 2ab'
loop_
_symmetry_equiv_pos_site_id
_symmetry_equiv_pos_as_xyz
1 x,y,z
2 1/2-x,-y,1/2+z
3 -x,1/2+y,1/2-z
4 1/2+x,1/2-y,-z
_cell_length_a                   6.2265(12)
_cell_length_b                   14.862(3)
_cell_length_c                   19.561(4)
_cell_angle_alpha                90
_cell_angle_beta                 90
_cell_angle_gamma                90
_cell_volume                     1810.14
_exptl_crystal_colour            'light yellow'
_exptl_crystal_description       blade
_chemical_melting_point          '547 K'
_cell_formula_units_Z            4
_exptl_crystal_recrystallization_method ethanol
loop_
_atom_site_label
_atom_site_type_symbol
_atom_site_fract_x
_atom_site_fract_y
_atom_site_fract_z
C1 C 1.0828(4) 0.74759(16) 0.20631(11)
C2 C 1.2762(4) 0.77544(19) 0.24690(12)
H1 H 1.3427 0.7320 0.2738
C3 C 1.3593(4) 0.8579(2) 0.24718(13)
H2 H 1.4799 0.8697 0.2738
C4 C 1.2665(5) 0.9292(2) 0.20717(13)
C5 C 1.0704(5) 0.90839(18) 0.17070(13)
H3 H 1.0028 0.9543 0.1466
C6 C 0.9822(4) 0.82683(17) 0.17001(11)
C7 C 0.7876(5) 0.80626(19) 0.12766(12)
H4 H 0.7350 0.8609 0.1064
H5 H 0.6747 0.7822 0.1565
C8 C 0.8471(4) 0.73776(18) 0.07284(12)
H6 H 0.7192 0.7212 0.0474
H7 H 0.9479 0.7648 0.0411
C9 C 0.9463(4) 0.65421(16) 0.10353(10)
H8 H 0.8382 0.6241 0.1318
C10 C 1.1439(4) 0.67698(16) 0.14903(10)
H9 H 1.2473 0.7073 0.1191
C11 C 1.2566(4) 0.59147(16) 0.17488(12)
H10 H 1.1674 0.5631 0.2101
C12 C 1.3049(4) 0.52254(18) 0.11881(12)
H11 H 1.4147 0.5464 0.0887
H12 H 1.3604 0.4680 0.1395
C13 C 1.1066(4) 0.49994(17) 0.07727(10)
C14 C 1.0215(4) 0.58882(17) 0.04837(10)
H13 H 1.1458 0.6178 0.0270
C15 C 0.8773(5) 0.5597(2) -0.01098(12)
H14 H 0.7344 0.5437 0.0046
H15 H 0.8671 0.6060 -0.0458
C16 C 0.9975(6) 0.4796(2) -0.03604(13)
H16 H 0.9801 0.4549 -0.0794
C17 C 1.1336(5) 0.4471(2) 0.01096(12)
C18 C 0.9224(4) 0.7077(2) 0.25843(11)
H17 H 0.8894 0.7521 0.2925
H18 H 0.9852 0.6560 0.2799
H19 H 0.7931 0.6903 0.2352
C19 C 0.9424(5) 0.44821(18) 0.12085(12)
H20 H 1.0067 0.3938 0.1375
H21 H 0.8194 0.4337 0.0934
H22 H 0.8988 0.4849 0.1588
C20 C 1.2662(7) 0.3658(3) 0.00567(18)
C21 C 1.2891(10) 0.3217(3) -0.06385(19)
H23 H 1.3800 0.2697 -0.0600
H24 H 1.3516 0.3637 -0.0954
H25 H 1.1502 0.3037 -0.0801
O1 O 1.3469(4) 1.00530(16) 0.20423(11)
O2 O 1.4570(3) 0.61767(12) 0.20450(11)
H26 H 1.4988 0.5781 0.2305
O3 O 1.3481(6) 0.3327(2) 0.05579(15)
loop_
_geom_bond_atom_site_label_1
_geom_bond_atom_site_label_2
_geom_bond_site_symmetry_1
_geom_bond_site_symmetry_2
C1 C2 1_555 1_555
C2 H1 1_555 1_555
C3 C2 1_555 1_555
H2 C3 1_555 1_555
C4 C3 1_555 1_555
C5 C4 1_555 1_555
H3 C5 1_555 1_555
C6 C1 1_555 1_555
C7 C6 1_555 1_555
H4 C7 1_555 1_555
H5 C7 1_555 1_555
C8 C7 1_555 1_555
H6 C8 1_555 1_555
H7 C8 1_555 1_555
C9 C8 1_555 1_555
H8 C9 1_555 1_555
C10 C1 1_555 1_555
H9 C10 1_555 1_555
C11 C10 1_555 1_555
H10 C11 1_555 1_555
C12 C11 1_555 1_555
H11 C12 1_555 1_555
H12 C12 1_555 1_555
C13 C12 1_555 1_555
C14 C9 1_555 1_555
H13 C14 1_555 1_555
C15 C14 1_555 1_555
H14 C15 1_555 1_555
H15 C15 1_555 1_555
C16 C15 1_555 1_555
H16 C16 1_555 1_555
C17 C13 1_555 1_555
C18 C1 1_555 1_555
H17 C18 1_555 1_555
H18 C18 1_555 1_555
H19 C18 1_555 1_555
C19 C13 1_555 1_555
H20 C19 1_555 1_555
H21 C19 1_555 1_555
H22 C19 1_555 1_555
C20 C17 1_555 1_555
C21 C20 1_555 1_555
H23 C21 1_555 1_555
H24 C21 1_555 1_555
H25 C21 1_555 1_555
O1 C4 1_555 1_555
O2 C11 1_555 1_555
H26 O2 1_555 1_555
O3 C20 1_555 1_555
C5 C6 1_555 1_555
C9 C10 1_555 1_555
C13 C14 1_555 1_555
C16 C17 1_555 1_555

#END
