
#######################################################################
#
#                 Cambridge Crystallographic Data Centre
#                                CCDC 
#
#######################################################################
#
# If this CIF has been generated from an entry in the Cambridge 
# Structural Database, then it will include bibliographic, chemical, 
# crystal, experimental, refinement or atomic coordinate data resulting 
# from the CCDC's data processing and validation procedures.
#
#######################################################################

data_DELXAU
_chemical_formula_moiety         'C21 H25 N1 O5'
_chemical_name_systematic        
'(E)-Dimethyl 4-butylamino-5-(4-methylstyryl)furan-2,3-dicarboxylate'
_symmetry_cell_setting           triclinic
_symmetry_space_group_name_H-M   'P -1'
_symmetry_Int_Tables_number      2
_space_group_name_Hall           '-P 1'
loop_
_symmetry_equiv_pos_site_id
_symmetry_equiv_pos_as_xyz
1 x,y,z
2 -x,-y,-z
_cell_length_a                   5.446(3)
_cell_length_b                   10.454(7)
_cell_length_c                   18.386(12)
_cell_angle_alpha                77.94(3)
_cell_angle_beta                 88.97(2)
_cell_angle_gamma                78.68(2)
_cell_volume                     1003.45
_exptl_crystal_colour            orange
_exptl_crystal_description       prism
_chemical_melting_point          '391-392 K'
_cell_formula_units_Z            2
_exptl_crystal_recrystallization_method 'ethyl acetate'
loop_
_atom_site_label
_atom_site_type_symbol
_atom_site_fract_x
_atom_site_fract_y
_atom_site_fract_z
N1 N 0.0208(4) 0.1852(2) 0.23010(11)
O1 O 0.5302(2) 0.07593(14) 0.36235(8)
O2 O 0.7095(3) 0.12529(18) 0.47732(9)
O3 O 0.3671(4) 0.2607(2) 0.49970(12)
O4 O -0.0159(3) 0.40111(18) 0.40422(10)
O5 O -0.2237(3) 0.35838(19) 0.31329(11)
C1 C 0.3838(4) 0.1723(2) 0.39088(11)
C2 C 0.1744(4) 0.2268(2) 0.34706(11)
C3 C 0.1926(4) 0.1574(2) 0.28668(11)
C4 C 0.4148(4) 0.0652(2) 0.29842(11)
C5 C 0.4793(4) 0.1939(2) 0.46097(13)
C6 C 0.8236(5) 0.1403(3) 0.54386(13)
H1 H 0.8771 0.2243 0.5349
H2 H 0.9658 0.0692 0.5582
H3 H 0.7044 0.1376 0.583
C7 C -0.0411(4) 0.3351(2) 0.35261(13)
C8 C -0.2234(6) 0.5063(3) 0.41290(17)
H4 H -0.2561 0.5706 0.3668
H5 H -0.1823 0.549 0.4512
H6 H -0.3696 0.469 0.4264
C9 C 0.0428(4) 0.1261(2) 0.16655(12)
H7 H 0.0466 0.0312 0.1822
H8 H 0.1989 0.1377 0.1422
C10 C -0.1740(4) 0.1887(3) 0.11223(13)
H9 H -0.3294 0.1805 0.1377
H10 H -0.1734 0.2831 0.0958
C11 C -0.1664(6) 0.1282(4) 0.04657(17)
H11 H -0.1554 0.0329 0.0635
H12 H -0.0147 0.1411 0.02
C12 C -0.3835(7) 0.1810(5) -0.00650(19)
H13 H -0.5316 0.1562 0.0166
H14 H -0.3517 0.1444 -0.0503
H15 H -0.4072 0.2765 -0.02
C13 C 0.5398(4) -0.0370(2) 0.26238(11)
H16 H 0.4617 -0.0475 0.2201
C14 C 0.7595(4) -0.1191(2) 0.28394(12)
H17 H 0.8354 -0.1089 0.3267
C15 C 0.8913(4) -0.2224(2) 0.24745(12)
C16 C 0.8000(4) -0.2538(3) 0.18531(14)
H18 H 0.6446 -0.2076 0.165
C17 C 0.9335(5) -0.3520(3) 0.15284(16)
H19 H 0.8673 -0.3693 0.1105
C18 C 1.1616(5) -0.4252(2) 0.18099(16)
C19 C 1.2527(5) -0.3964(3) 0.24272(18)
H20 H 1.4058 -0.4451 0.2635
C20 C 1.1226(4) -0.2963(3) 0.27523(16)
H21 H 1.1921 -0.278 0.3168
C21 C 1.3072(6) -0.5352(3) 0.1462(2)
H22 H 1.4771 -0.5234 0.1393
H23 H 1.2316 -0.5318 0.0988
H24 H 1.3052 -0.6202 0.1782
H25 H -0.111(5) 0.243(3) 0.2379(14)
loop_
_geom_bond_atom_site_label_1
_geom_bond_atom_site_label_2
_geom_bond_site_symmetry_1
_geom_bond_site_symmetry_2
N1 C3 1_555 1_555
O1 C1 1_555 1_555
O2 C5 1_555 1_555
O3 C5 1_555 1_555
O4 C7 1_555 1_555
O5 C7 1_555 1_555
C1 C2 1_555 1_555
C2 C3 1_555 1_555
C3 C4 1_555 1_555
C4 O1 1_555 1_555
C5 C1 1_555 1_555
C6 O2 1_555 1_555
H1 C6 1_555 1_555
H2 C6 1_555 1_555
H3 C6 1_555 1_555
C7 C2 1_555 1_555
C8 O4 1_555 1_555
H4 C8 1_555 1_555
H5 C8 1_555 1_555
H6 C8 1_555 1_555
C9 N1 1_555 1_555
H7 C9 1_555 1_555
H8 C9 1_555 1_555
C10 C9 1_555 1_555
H9 C10 1_555 1_555
H10 C10 1_555 1_555
C11 C10 1_555 1_555
H11 C11 1_555 1_555
H12 C11 1_555 1_555
C12 C11 1_555 1_555
H13 C12 1_555 1_555
H14 C12 1_555 1_555
H15 C12 1_555 1_555
C13 C4 1_555 1_555
H16 C13 1_555 1_555
C14 C13 1_555 1_555
H17 C14 1_555 1_555
C15 C14 1_555 1_555
C16 C15 1_555 1_555
H18 C16 1_555 1_555
C17 C16 1_555 1_555
H19 C17 1_555 1_555
C18 C17 1_555 1_555
C19 C18 1_555 1_555
H20 C19 1_555 1_555
C20 C15 1_555 1_555
H21 C20 1_555 1_555
C21 C18 1_555 1_555
H22 C21 1_555 1_555
H23 C21 1_555 1_555
H24 C21 1_555 1_555
H25 N1 1_555 1_555
C19 C20 1_555 1_555

#END
