
#######################################################################
#
#                 Cambridge Crystallographic Data Centre
#                                CCDC 
#
#######################################################################
#
# If this CIF has been generated from an entry in the Cambridge 
# Structural Database, then it will include bibliographic, chemical, 
# crystal, experimental, refinement or atomic coordinate data resulting 
# from the CCDC's data processing and validation procedures.
#
#######################################################################

data_DELXUO
_chemical_formula_moiety         'C11 H13 N1 O4'
_chemical_name_systematic        'Diethyl pyridine-2,6-dicarboxylate'
_symmetry_cell_setting           monoclinic
_symmetry_space_group_name_H-M   'C 2/c'
_symmetry_Int_Tables_number      15
_space_group_name_Hall           '-C 2yn'
loop_
_symmetry_equiv_pos_site_id
_symmetry_equiv_pos_as_xyz
1 x,y,z
2 1/2+x,1/2+y,z
3 -x,y,1/2-z
4 1/2-x,1/2+y,1/2-z
5 -x,-y,-z
6 1/2-x,1/2-y,-z
7 x,-y,1/2+z
8 1/2+x,1/2-y,1/2+z
_cell_length_a                   15.222(3)
_cell_length_b                   6.3480(13)
_cell_length_c                   12.423(3)
_cell_angle_alpha                90
_cell_angle_beta                 96.45(3)
_cell_angle_gamma                90
_cell_volume                     1192.83
_exptl_crystal_colour            colorless
_exptl_crystal_description       block
_chemical_melting_point          '315-316 K'
_cell_formula_units_Z            4
_exptl_crystal_recrystallization_method 'diethyl ether'
loop_
_atom_site_label
_atom_site_type_symbol
_atom_site_fract_x
_atom_site_fract_y
_atom_site_fract_z
O1 O 0.12757(9) 0.0924(2) 0.50020(10)
O2 O 0.10242(11) -0.2140(2) 0.41701(12)
N1 N 0.0000 -0.0085(3) 0.2500
C1 C 0.21009(14) 0.1613(4) 0.66866(16)
H1 H 0.2481 0.1031 0.7282
H2 H 0.1582 0.2190 0.6948
H3 H 0.2409 0.2705 0.6349
C2 C 0.18379(14) -0.0082(3) 0.58780(15)
H4 H 0.2356 -0.0691 0.5610
H5 H 0.1518 -0.1191 0.6204
C3 C 0.09233(11) -0.0276(3) 0.42010(14)
C4 C 0.04241(10) 0.1019(3) 0.33192(13)
C5 C 0.04282(11) 0.3218(3) 0.33600(16)
H6 H 0.0714 0.3924 0.3955
C6 C 0.0000 0.4319(4) 0.2500
H7 H 0.0000 0.5784 0.2500
O1B O -0.12757(9) 0.0924(2) -0.00020(10)
O2B O -0.10242(11) -0.2140(2) 0.08299(12)
C1B C -0.21009(14) 0.1613(4) -0.16866(16)
H1B H -0.2481 0.1031 -0.2282
H2B H -0.1582 0.2190 -0.1948
H3B H -0.2409 0.2705 -0.1349
C2B C -0.18379(14) -0.0082(3) -0.08780(15)
H4B H -0.2356 -0.0691 -0.0610
H5B H -0.1518 -0.1191 -0.1204
C3B C -0.09233(11) -0.0276(3) 0.07990(14)
C4B C -0.04241(10) 0.1019(3) 0.16808(13)
C5B C -0.04282(11) 0.3218(3) 0.16400(16)
H6B H -0.0714 0.3924 0.1045
loop_
_geom_bond_atom_site_label_1
_geom_bond_atom_site_label_2
_geom_bond_site_symmetry_1
_geom_bond_site_symmetry_2
O1 C2 1_555 1_555
O2 C3 1_555 1_555
N1 C4 1_555 1_555
C1 H1 1_555 1_555
H2 C1 1_555 1_555
H3 C1 1_555 1_555
C2 C1 1_555 1_555
H4 C2 1_555 1_555
H5 C2 1_555 1_555
C3 O1 1_555 1_555
C4 C3 1_555 1_555
C5 C4 1_555 1_555
H6 C5 1_555 1_555
C6 C5 1_555 1_555
H7 C6 1_555 1_555
O1B C2B 1_555 1_555
O2B C3B 1_555 1_555
C1B H1B 1_555 1_555
H2B C1B 1_555 1_555
H3B C1B 1_555 1_555
C2B C1B 1_555 1_555
H4B C2B 1_555 1_555
H5B C2B 1_555 1_555
C3B O1B 1_555 1_555
C4B N1 1_555 1_555
C5B C6 1_555 1_555
H6B C5B 1_555 1_555
C3B C4B 1_555 1_555
C4B C5B 1_555 1_555

#END
