
#######################################################################
#
#                 Cambridge Crystallographic Data Centre
#                                CCDC 
#
#######################################################################
#
# If this CIF has been generated from an entry in the Cambridge 
# Structural Database, then it will include bibliographic, chemical, 
# crystal, experimental, refinement or atomic coordinate data resulting 
# from the CCDC's data processing and validation procedures.
#
#######################################################################

data_DEMDAB
_chemical_formula_moiety         'C16 H13 F1 N4 O1'
_chemical_name_systematic        
1-Amino-2-anilino-4-(4-fluorobenzylidene)-1H-imidazol-5(4H)-one
_symmetry_cell_setting           monoclinic
_symmetry_space_group_name_H-M   'P 21/n'
_symmetry_Int_Tables_number      14
_space_group_name_Hall           '-P 2yn'
loop_
_symmetry_equiv_pos_site_id
_symmetry_equiv_pos_as_xyz
1 x,y,z
2 1/2-x,1/2+y,1/2-z
3 -x,-y,-z
4 1/2+x,1/2-y,1/2+z
_cell_length_a                   5.5218(5)
_cell_length_b                   25.529(2)
_cell_length_c                   10.0165(9)
_cell_angle_alpha                90
_cell_angle_beta                 100.553(2)
_cell_angle_gamma                90
_cell_volume                     1388.1
_exptl_crystal_colour            purple
_exptl_crystal_description       block
_cell_formula_units_Z            4
_exptl_crystal_recrystallization_method acetone
loop_
_atom_site_label
_atom_site_type_symbol
_atom_site_fract_x
_atom_site_fract_y
_atom_site_fract_z
F1 F 1.2619(4) 0.13667(8) 0.41060(18)
N1 N 0.6579(4) 0.10980(7) 0.93251(19)
N2 N 0.3369(4) 0.07286(8) 1.00969(19)
N3 N 0.1808(4) 0.06508(9) 1.1031(2)
H1 H 0.188(5) 0.0330(5) 1.130(3)
H2 H 0.042(3) 0.0773(10) 1.060(2)
N4 N 0.5474(4) 0.14011(8) 1.1389(2)
H3 H 0.440(4) 0.1317(9) 1.188(2)
O1 O 0.2240(3) 0.00634(7) 0.85508(18)
C1 C 1.1013(6) 0.11741(13) 0.4866(3)
C2 C 1.0942(6) 0.14078(11) 0.6088(3)
H4 H 1.1950 0.1693 0.6379
C3 C 0.9573(6) 0.07594(13) 0.4396(3)
H5 H 0.9641 0.0608 0.3559
C4 C 0.9359(5) 0.12149(10) 0.6877(3)
H6 H 0.9297 0.1372 0.7707
C5 C 0.8019(6) 0.05718(12) 0.5199(3)
H7 H 0.7029 0.0286 0.4892
C6 C 0.7843(5) 0.07878(10) 0.6457(2)
C7 C 0.6114(5) 0.05653(10) 0.7230(3)
H8 H 0.5233 0.0280 0.6816
C8 C 0.5560(5) 0.06966(9) 0.8432(2)
C9 C 0.3517(5) 0.04387(10) 0.8953(2)
C10 C 0.5261(4) 0.10981(9) 1.0283(2)
C11 C 0.7171(5) 0.18114(9) 1.1814(2)
C12 C 0.6968(5) 0.20703(11) 1.2995(3)
H9 H 0.5756 0.1973 1.3481
C13 C 0.8567(6) 0.24734(11) 1.3454(3)
H10 H 0.8432 0.2646 1.4255
C14 C 1.0335(6) 0.26212(10) 1.2753(3)
H11 H 1.1407 0.2893 1.3070
C15 C 1.0526(5) 0.23682(10) 1.1582(3)
H12 H 1.1730 0.2471 1.1098
C16 C 0.8967(5) 0.19620(10) 1.1102(3)
H13 H 0.9124 0.1791 1.0303
loop_
_geom_bond_atom_site_label_1
_geom_bond_atom_site_label_2
_geom_bond_site_symmetry_1
_geom_bond_site_symmetry_2
F1 C1 1_555 1_555
N1 C8 1_555 1_555
N2 N3 1_555 1_555
N3 H1 1_555 1_555
H2 N3 1_555 1_555
N4 H3 1_555 1_555
O1 C9 1_555 1_555
C1 C2 1_555 1_555
C2 H4 1_555 1_555
C3 C1 1_555 1_555
H5 C3 1_555 1_555
C4 C2 1_555 1_555
H6 C4 1_555 1_555
C5 C3 1_555 1_555
H7 C5 1_555 1_555
C6 C4 1_555 1_555
C7 C6 1_555 1_555
H8 C7 1_555 1_555
C8 C7 1_555 1_555
C9 N2 1_555 1_555
C10 N1 1_555 1_555
C11 N4 1_555 1_555
C12 C11 1_555 1_555
H9 C12 1_555 1_555
C13 C12 1_555 1_555
H10 C13 1_555 1_555
C14 C13 1_555 1_555
H11 C14 1_555 1_555
C15 C14 1_555 1_555
H12 C15 1_555 1_555
C16 C11 1_555 1_555
H13 C16 1_555 1_555
N2 C10 1_555 1_555
N4 C10 1_555 1_555
C5 C6 1_555 1_555
C8 C9 1_555 1_555
C15 C16 1_555 1_555

#END
