
#######################################################################
#
#                 Cambridge Crystallographic Data Centre
#                                CCDC 
#
#######################################################################
#
# If this CIF has been generated from an entry in the Cambridge 
# Structural Database, then it will include bibliographic, chemical, 
# crystal, experimental, refinement or atomic coordinate data resulting 
# from the CCDC's data processing and validation procedures.
#
#######################################################################

data_DEMJAG10
_chemical_name_common            3-Oxo-decane-10-diolide
_chemical_formula_moiety         'C20 H32 O6'
_chemical_name_systematic        1,12-Dioxacyclodocosa-2,4,13,15-tetraone
_symmetry_cell_setting           triclinic
_symmetry_space_group_name_H-M   'P -1'
_symmetry_Int_Tables_number      2
_space_group_name_Hall           '-P 1'
loop_
_symmetry_equiv_pos_site_id
_symmetry_equiv_pos_as_xyz
1 x,y,z
2 -x,-y,-z
_cell_length_a                   5.521(1)
_cell_length_b                   8.249(2)
_cell_length_c                   11.822(3)
_cell_angle_alpha                95.55(2)
_cell_angle_beta                 101.63(2)
_cell_angle_gamma                106.21(21)
_cell_volume                     499.643
_exptl_crystal_colour            colorless
_chemical_melting_point          105-107deg.C
_cell_formula_units_Z            1
loop_
_atom_site_label
_atom_site_type_symbol
_atom_site_fract_x
_atom_site_fract_y
_atom_site_fract_z
O1 O 0.0517(3) 0.6466(2) 0.1470(1)
C1 C 0.0080(4) 0.7451(3) 0.0671(2)
O2 O -0.2011(3) 0.7270(2) 0.0037(1)
C2 C 0.2541(4) 0.8807(3) 0.0660(2)
C3 C 0.3878(4) 0.9972(3) 0.1817(2)
O3 O 0.6169(3) 1.0355(3) 0.2143(2)
C4 C 0.2272(4) 1.0693(3) 0.2475(2)
C5 C 0.3621(4) 1.1473(3) 0.3737(2)
C6 C 0.1968(4) 1.2198(3) 0.4393(2)
C7 C 0.3329(4) 1.2895(3) 0.5673(2)
C8 C 0.1752(4) 1.3613(3) 0.6378(2)
C9 C 0.3213(4) 1.4268(3) 0.7651(2)
C10 C -0.1715(5) 0.5098(3) 0.1575(2)
H1 H 0.3727 0.8250 0.0439
H2 H 0.2126 0.9499 0.0087
H3 H 0.1802 1.1565 0.2081
H4 H 0.0730 0.9789 0.2466
H5 H 0.5161 1.2380 0.3747
H6 H 0.4092 1.0603 0.4132
H7 H 0.1566 1.3109 0.4024
H8 H 0.0388 1.1308 0.4354
H9 H 0.4897 1.3790 0.5703
H10 H 0.3755 1.1981 0.6030
H11 H 0.1341 1.4542 0.6036
H12 H 0.0175 1.2729 0.6352
H13 H 0.4735 1.5193 0.7667
H14 H 0.3723 1.3350 0.7966
H15 H -0.1117 0.4217 0.1901
H16 H -0.2838 0.4636 0.0811
C10A C 0.1715(5) 1.4902(3) 0.8425(2)
C9A C -0.3213(4) 0.5732(3) 0.2349(2)
O1A O -0.0517(3) 1.3534(2) 0.8530(1)
H15A H 0.1117 1.5783 0.8099
H16A H 0.2838 1.5364 0.9189
C8A C -0.1752(4) 0.6387(3) 0.3622(2)
H13A H -0.4735 0.4807 0.2333
H14A H -0.3723 0.6650 0.2034
C1A C -0.0080(4) 1.2549(3) 0.9329(2)
C7A C -0.3329(4) 0.7105(3) 0.4327(2)
H11A H -0.1341 0.5458 0.3964
H12A H -0.0175 0.7271 0.3648
O2A O 0.2011(3) 1.2730(2) 0.9963(1)
C2A C -0.2541(4) 1.1193(3) 0.9340(2)
C6A C -0.1968(4) 0.7802(3) 0.5607(2)
H9A H -0.4897 0.6210 0.4297
H10A H -0.3755 0.8019 0.3970
C3A C -0.3878(4) 1.0028(3) 0.8183(2)
H1A H -0.3727 1.1750 0.9561
H2A H -0.2126 1.0501 0.9913
C5A C -0.3621(4) 0.8527(3) 0.6263(2)
H7A H -0.1566 0.6891 0.5976
H8A H -0.0388 0.8692 0.5646
O3A O -0.6169(3) 0.9645(3) 0.7857(2)
C4A C -0.2272(4) 0.9307(3) 0.7525(2)
H5A H -0.5161 0.7620 0.6253
H6A H -0.4092 0.9397 0.5868
H3A H -0.1802 0.8435 0.7919
H4A H -0.0730 1.0211 0.7534
loop_
_geom_bond_atom_site_label_1
_geom_bond_atom_site_label_2
_geom_bond_site_symmetry_1
_geom_bond_site_symmetry_2
O1 C1 1_555 1_555
C1 O2 1_555 1_555
C2 C1 1_555 1_555
C3 C2 1_555 1_555
O3 C3 1_555 1_555
C4 C3 1_555 1_555
C5 C4 1_555 1_555
C6 C5 1_555 1_555
C7 C6 1_555 1_555
C8 C7 1_555 1_555
C9 C8 1_555 1_555
C10 O1 1_555 1_555
H1 C2 1_555 1_555
H2 C2 1_555 1_555
H3 C4 1_555 1_555
H4 C4 1_555 1_555
H5 C5 1_555 1_555
H6 C5 1_555 1_555
H7 C6 1_555 1_555
H8 C6 1_555 1_555
H9 C7 1_555 1_555
H10 C7 1_555 1_555
H11 C8 1_555 1_555
H12 C8 1_555 1_555
H13 C9 1_555 1_555
H14 C9 1_555 1_555
H15 C10 1_555 1_555
H16 C10 1_555 1_555
C10A C9 1_555 1_555
C9A C10 1_555 1_555
O1A C10A 1_555 1_555
H15A C10A 1_555 1_555
H16A C10A 1_555 1_555
C8A C9A 1_555 1_555
H13A C9A 1_555 1_555
H14A C9A 1_555 1_555
C1A O1A 1_555 1_555
C7A C8A 1_555 1_555
H11A C8A 1_555 1_555
H12A C8A 1_555 1_555
O2A C1A 1_555 1_555
C2A C1A 1_555 1_555
C6A C7A 1_555 1_555
H9A C7A 1_555 1_555
H10A C7A 1_555 1_555
C3A C2A 1_555 1_555
H1A C2A 1_555 1_555
H2A C2A 1_555 1_555
C5A C6A 1_555 1_555
H7A C6A 1_555 1_555
H8A C6A 1_555 1_555
O3A C3A 1_555 1_555
C4A C3A 1_555 1_555
H5A C5A 1_555 1_555
H6A C5A 1_555 1_555
H3A C4A 1_555 1_555
H4A C4A 1_555 1_555
C5A C4A 1_555 1_555

#END
