
#######################################################################
#
#                 Cambridge Crystallographic Data Centre
#                                CCDC 
#
#######################################################################
#
# If this CIF has been generated from an entry in the Cambridge 
# Structural Database, then it will include bibliographic, chemical, 
# crystal, experimental, refinement or atomic coordinate data resulting 
# from the CCDC's data processing and validation procedures.
#
#######################################################################

data_DEMJEL
_chemical_name_common            'Ethambutol dinitrate'
_chemical_formula_moiety         'C10 H26 N2 O2 2+,2(N1 O3 1-)'
_chemical_name_systematic        
"(S,S)-2,2'-(Ethane-1,2-diyldiiminio)dibutan-1-ol dinitrate"
_symmetry_cell_setting           monoclinic
_symmetry_space_group_name_H-M   'P 21'
_symmetry_Int_Tables_number      4
_space_group_name_Hall           'P 2yb'
loop_
_symmetry_equiv_pos_site_id
_symmetry_equiv_pos_as_xyz
1 x,y,z
2 -x,1/2+y,-z
_cell_length_a                   8.769(3)
_cell_length_b                   9.598(4)
_cell_length_c                   9.583(4)
_cell_angle_alpha                90
_cell_angle_beta                 97.829(6)
_cell_angle_gamma                90
_cell_volume                     799.034
_exptl_crystal_colour            colorless
_exptl_crystal_description       block
_cell_formula_units_Z            2
_exptl_crystal_recrystallization_method methanol/water
loop_
_atom_site_label
_atom_site_type_symbol
_atom_site_fract_x
_atom_site_fract_y
_atom_site_fract_z
O1 O 0.31942(18) 0.47671(16) -0.20921(14)
H1 H 0.339(3) 0.432(3) -0.279(3)
O2 O 0.87421(19) 0.44956(15) 0.63053(15)
H2 H 0.831(3) 0.482(3) 0.687(3)
N1 N 0.4038(2) 0.38068(18) 0.06638(16)
H3 H 0.469(3) 0.427(3) 0.017(2)
H4 H 0.414(3) 0.285(3) 0.046(2)
N2 N 0.6728(2) 0.35449(18) 0.40543(17)
H5 H 0.580(3) 0.351(2) 0.464(2)
H6 H 0.703(3) 0.439(3) 0.413(2)
C1 C 0.2424(2) 0.4308(2) 0.01654(19)
H7 H 0.1689 0.3750 0.0650
C2 C 0.2122(2) 0.3997(2) -0.1410(2)
H8 H 0.2244 0.2988 -0.1575
H9 H 0.1058 0.4269 -0.1792
C3 C 0.2242(2) 0.5839(2) 0.0525(2)
H10 H 0.2595 0.5979 0.1541
H11 H 0.2910 0.6405 -0.0008
C4 C 0.0592(2) 0.6352(2) 0.0189(2)
H12 H 0.0543 0.7340 0.0438
H13 H -0.0073 0.5813 0.0732
H14 H 0.0241 0.6235 -0.0820
C5 C 0.4596(2) 0.4015(2) 0.21860(19)
H15 H 0.3821 0.3665 0.2760
H16 H 0.4759 0.5019 0.2386
C6 C 0.6102(2) 0.3228(2) 0.2561(2)
H17 H 0.5922 0.2213 0.2444
H18 H 0.6848 0.3517 0.1929
C7 C 0.8032(2) 0.2614(2) 0.46801(19)
H19 H 0.7625 0.1640 0.4667
C8 C 0.8419(3) 0.3046(2) 0.6217(2)
H20 H 0.7540 0.2831 0.6729
H21 H 0.9324 0.2515 0.6663
C9 C 0.9373(3) 0.2622(2) 0.3826(2)
H22 H 0.8996 0.2273 0.2868
H23 H 1.0158 0.1955 0.4263
C10 C 1.0157(3) 0.4026(3) 0.3682(3)
H24 H 1.0999 0.3912 0.3116
H25 H 1.0569 0.4375 0.4619
H26 H 0.9406 0.4693 0.3219
O3 O 0.61041(18) 0.59595(15) 0.99975(14)
O4 O 0.72104(18) 0.61474(16) 0.81099(14)
O5 O 0.6963(2) 0.41156(16) 0.90564(16)
N3 N 0.6771(2) 0.53952(19) 0.90432(18)
O6 O 0.47683(19) 0.12143(16) 0.50926(17)
O7 O 0.4151(2) 0.33225(14) 0.56104(16)
O8 O 0.28950(18) 0.15573(16) 0.63261(15)
N4 N 0.3933(2) 0.20173(18) 0.56722(17)
loop_
_geom_bond_atom_site_label_1
_geom_bond_atom_site_label_2
_geom_bond_site_symmetry_1
_geom_bond_site_symmetry_2
O1 H1 1_555 1_555
O2 H2 1_555 1_555
N1 H3 1_555 1_555
H4 N1 1_555 1_555
N2 H5 1_555 1_555
H6 N2 1_555 1_555
C1 N1 1_555 1_555
H7 C1 1_555 1_555
C2 O1 1_555 1_555
H8 C2 1_555 1_555
H9 C2 1_555 1_555
C3 C1 1_555 1_555
H10 C3 1_555 1_555
H11 C3 1_555 1_555
C4 C3 1_555 1_555
H12 C4 1_555 1_555
H13 C4 1_555 1_555
H14 C4 1_555 1_555
C5 N1 1_555 1_555
H15 C5 1_555 1_555
H16 C5 1_555 1_555
C6 N2 1_555 1_555
H17 C6 1_555 1_555
H18 C6 1_555 1_555
C7 N2 1_555 1_555
H19 C7 1_555 1_555
C8 O2 1_555 1_555
H20 C8 1_555 1_555
H21 C8 1_555 1_555
C9 C7 1_555 1_555
H22 C9 1_555 1_555
H23 C9 1_555 1_555
C10 C9 1_555 1_555
H24 C10 1_555 1_555
H25 C10 1_555 1_555
H26 C10 1_555 1_555
O3 N3 1_555 1_555
O4 N3 1_555 1_555
O5 N3 1_555 1_555
O6 N4 1_555 1_555
O7 N4 1_555 1_555
O8 N4 1_555 1_555
C1 C2 1_555 1_555
C5 C6 1_555 1_555
C7 C8 1_555 1_555

#END
