
#######################################################################
#
#                 Cambridge Crystallographic Data Centre
#                                CCDC 
#
#######################################################################
#
# If this CIF has been generated from an entry in the Cambridge 
# Structural Database, then it will include bibliographic, chemical, 
# crystal, experimental, refinement or atomic coordinate data resulting 
# from the CCDC's data processing and validation procedures.
#
#######################################################################

data_DEMNUH
_chemical_formula_moiety         'C20 H20 N2 O3 S1'
_chemical_name_systematic        
'ethyl 2-[(4,4-dimethyl-1-oxo-1,2,3,4-tetrahydro-1-benzothiopyran-6-yl)ethynyl]pyrimidine-5-carboxylate'
_symmetry_cell_setting           monoclinic
_symmetry_space_group_name_H-M   'P 21/n'
_symmetry_Int_Tables_number      14
_space_group_name_Hall           '-P 2yn'
loop_
_symmetry_equiv_pos_site_id
_symmetry_equiv_pos_as_xyz
1 x,y,z
2 1/2-x,1/2+y,1/2-z
3 -x,-y,-z
4 1/2+x,1/2-y,1/2+z
_cell_length_a                   8.8850(18)
_cell_length_b                   9.0032(18)
_cell_length_c                   23.226(5)
_cell_angle_alpha                90
_cell_angle_beta                 93.24(3)
_cell_angle_gamma                90
_cell_volume                     1854.96
_exptl_crystal_colour            colorless
_exptl_crystal_description       block
_cell_formula_units_Z            4
loop_
_atom_site_label
_atom_site_type_symbol
_atom_site_fract_x
_atom_site_fract_y
_atom_site_fract_z
S1 S 0.88006(9) 0.84763(11) 0.18213(4)
O1 O 0.9157(4) 0.7010(4) 0.2054(2)
O2 O 2.1629(3) 1.5263(3) 0.05410(11)
O3 O 2.2122(3) 1.3068(3) 0.01460(12)
N1 N 1.7815(3) 1.3330(4) 0.12104(14)
N2 N 1.8083(3) 1.1351(3) 0.05527(12)
C1 C 1.0785(3) 1.0818(3) 0.26563(12)
C2 C 0.9423(4) 0.9913(5) 0.28261(17)
H1 H 0.9778 0.8950 0.2963
H2 H 0.8980 1.0410 0.3146
C3 C 0.8259(4) 0.9679(6) 0.2379(2)
H3 H 0.7972 1.0632 0.2212
H4 H 0.7381 0.9266 0.2550
C4 C 1.0568(3) 0.9358(3) 0.16946(12)
C5 C 1.1137(4) 0.8952(4) 0.11727(13)
H5 H 1.0603 0.8287 0.0933
C6 C 1.2481(4) 0.9521(4) 0.10068(13)
H6 H 1.2845 0.9265 0.0653
C7 C 1.3289(3) 1.0488(3) 0.13763(12)
C8 C 1.2710(3) 1.0882(3) 0.19015(12)
H7 H 1.3251 1.1540 0.2143
C9 C 1.1346(3) 1.0321(3) 0.20761(11)
C10 C 1.4726(3) 1.1062(4) 0.12259(13)
C11 C 1.5923(3) 1.1509(4) 0.10992(13)
C12 C 1.7353(3) 1.2096(3) 0.09476(12)
C13 C 1.9100(4) 1.3898(4) 0.10499(16)
H8 H 1.9454 1.4770 0.1225
C14 C 1.9932(3) 1.3255(3) 0.06374(12)
C15 C 1.9386(4) 1.1948(4) 0.04136(14)
H9 H 1.9953 1.1448 0.0150
C16 C 2.1318(3) 1.3988(4) 0.04476(13)
C17 C 2.3536(4) 1.3652(5) -0.0053(2)
H10 H 2.3348 1.4565 -0.0267
H11 H 2.4228 1.3867 0.0274
C18 C 2.4185(5) 1.2550(7) -0.0420(2)
H12 H 2.5116 1.2919 -0.0554
H13 H 2.3497 1.2348 -0.0744
H14 H 2.4372 1.1652 -0.0205
C19 C 1.2011(4) 1.0543(5) 0.31409(15)
H15 H 1.2903 1.1089 0.3061
H16 H 1.2241 0.9502 0.3162
H17 H 1.1651 1.0868 0.3502
C20 C 1.0431(4) 1.2465(4) 0.26257(16)
H18 H 0.9667 1.2643 0.2325
H19 H 1.1326 1.3006 0.2545
H20 H 1.0076 1.2789 0.2988
loop_
_geom_bond_atom_site_label_1
_geom_bond_atom_site_label_2
_geom_bond_site_symmetry_1
_geom_bond_site_symmetry_2
S1 O1 1_555 1_555
O2 C16 1_555 1_555
O3 C16 1_555 1_555
N1 C12 1_555 1_555
N2 C12 1_555 1_555
C1 C2 1_555 1_555
C2 H1 1_555 1_555
H2 C2 1_555 1_555
C3 S1 1_555 1_555
H3 C3 1_555 1_555
H4 C3 1_555 1_555
C4 S1 1_555 1_555
C5 C4 1_555 1_555
H5 C5 1_555 1_555
C6 C5 1_555 1_555
H6 C6 1_555 1_555
C7 C6 1_555 1_555
C8 C7 1_555 1_555
H7 C8 1_555 1_555
C9 C1 1_555 1_555
C10 C7 1_555 1_555
C11 C10 1_555 1_555
C12 C11 1_555 1_555
C13 N1 1_555 1_555
H8 C13 1_555 1_555
C14 C13 1_555 1_555
C15 N2 1_555 1_555
H9 C15 1_555 1_555
C16 C14 1_555 1_555
C17 O3 1_555 1_555
H10 C17 1_555 1_555
H11 C17 1_555 1_555
C18 C17 1_555 1_555
H12 C18 1_555 1_555
H13 C18 1_555 1_555
H14 C18 1_555 1_555
C19 C1 1_555 1_555
H15 C19 1_555 1_555
H16 C19 1_555 1_555
H17 C19 1_555 1_555
C20 C1 1_555 1_555
H18 C20 1_555 1_555
H19 C20 1_555 1_555
H20 C20 1_555 1_555
C2 C3 1_555 1_555
C4 C9 1_555 1_555
C8 C9 1_555 1_555
C14 C15 1_555 1_555

#END
