
#######################################################################
#
#                 Cambridge Crystallographic Data Centre
#                                CCDC 
#
#######################################################################
#
# If this CIF has been generated from an entry in the Cambridge 
# Structural Database, then it will include bibliographic, chemical, 
# crystal, experimental, refinement or atomic coordinate data resulting 
# from the CCDC's data processing and validation procedures.
#
#######################################################################

data_DENFOR
_chemical_formula_moiety         'C44 H54 N2 O4,2(C6 H6),H2 O1'
_chemical_name_systematic        
"1',1''-Dimethyl-dispiro(1,6,20,25-tetraoxa(6.1.6.1)paracyclophane-13,4':32,4''-bis(piperidine)) benzene clathrate monohydrate"
_symmetry_cell_setting           triclinic
_symmetry_space_group_name_H-M   'P -1'
_symmetry_Int_Tables_number      2
_space_group_name_Hall           '-P 1'
loop_
_symmetry_equiv_pos_site_id
_symmetry_equiv_pos_as_xyz
1 x,y,z
2 -x,-y,-z
_cell_length_a                   7.992(1)
_cell_length_b                   10.028(2)
_cell_length_c                   14.736(3)
_cell_angle_alpha                90.85(2)
_cell_angle_beta                 90.21(2)
_cell_angle_gamma                93.96(2)
_cell_volume                     1178.04
_exptl_crystal_colour            colorless
_cell_formula_units_Z            1
loop_
_atom_site_label
_atom_site_type_symbol
_atom_site_fract_x
_atom_site_fract_y
_atom_site_fract_z
O1 O 0.7843(1) 0.90943(8) 0.54849(5)
C1 C 0.7991(2) 0.8948(1) 0.45266(8)
C2 C 0.6982(2) 0.9980(1) 0.40961(8)
C3 C 0.7111(2) 0.9980(1) 0.30722(8)
C4 C 0.6115(2) 0.8855(1) 0.25926(8)
O2 O 0.4392(1) 0.89961(8) 0.27797(6)
C5 C 0.3257(1) 0.7953(1) 0.25588(8)
C6 C 0.3527(2) 0.6971(1) 0.19289(8)
C7 C 0.2300(2) 0.5949(1) 0.17698(8)
C8 C 0.0789(1) 0.5870(1) 0.22258(7)
C9 C 0.0545(2) 0.6894(1) 0.28436(8)
C10 C 0.1750(2) 0.7921(1) 0.30097(8)
C11 C -0.0475(1) 0.4636(1) 0.21024(7)
C12 C 0.0098(1) 0.3591(1) 0.27565(7)
C13 C 0.1139(2) 0.2613(1) 0.24727(7)
C14 C 0.1793(2) 0.1741(1) 0.30701(8)
C15 C 0.8583(1) 0.8190(1) 0.60250(8)
C16 C 0.9634(2) 0.7249(1) 0.57177(8)
C17 C -0.0276(1) 0.3623(1) 0.36682(8)
N1 N -0.3509(1) 0.3421(1) 0.11527(7)
C18 C -0.3562(2) 0.3865(1) 0.20968(8)
C19 C -0.2282(1) 0.5013(1) 0.23039(8)
C20 C -0.0520(2) 0.4175(1) 0.11070(8)
C21 C -0.1833(2) 0.3048(1) 0.09142(8)
C22 C -0.4720(2) 0.2277(2) 0.0991(1)
C15A C 0.1417(1) 0.1810(1) 0.39750(8)
C14A C 0.8207(2) 0.8259(1) 0.69299(8)
C17A C 1.0276(1) 0.6377(1) 0.63318(8)
C16A C 0.0366(2) 0.2751(1) 0.42823(8)
O1A O 0.2157(1) 0.09057(8) 0.45151(5)
C13A C 0.8861(2) 0.7387(1) 0.75273(7)
C12A C 0.9902(1) 0.6409(1) 0.72435(7)
C1A C 0.2009(2) 0.1052(1) 0.54734(8)
C11A C 1.0475(1) 0.5364(1) 0.78976(7)
C2A C 0.3018(2) 0.0020(1) 0.59039(8)
C8A C 0.9211(1) 0.4130(1) 0.77742(7)
C19A C 1.2282(1) 0.4987(1) 0.76961(8)
C20A C 1.0520(2) 0.5825(1) 0.88930(8)
C3A C 0.2889(2) 0.0020(1) 0.69278(8)
C7A C 0.7700(2) 0.4051(1) 0.82302(8)
C9A C 0.9455(2) 0.3106(1) 0.71564(8)
C18A C 1.3562(2) 0.6135(1) 0.79032(8)
C21A C 1.1833(2) 0.6952(1) 0.90858(8)
C4A C 0.3885(2) 0.1145(1) 0.74074(8)
C6A C 0.6473(2) 0.3029(1) 0.80711(8)
C10A C 0.8250(2) 0.2079(1) 0.69903(8)
N1A N 1.3509(1) 0.6579(1) 0.88473(7)
O2A O 0.5608(1) 0.10039(8) 0.72203(6)
C5A C 0.6743(1) 0.2047(1) 0.74412(8)
C22A C 1.4720(2) 0.7723(2) 0.9009(1)
C23 C 0.4145(2) 0.4955(2) 0.4199(1)
C24 C 0.4947(2) 0.3876(2) 0.4467(1)
C25 C 0.4192(2) 0.6074(2) 0.4735(1)
C25A C 0.5808(2) 0.3926(2) 0.5265(1)
C24A C 0.5053(2) 0.6124(2) 0.5533(1)
C23A C 0.5855(2) 0.5045(2) 0.5801(1)
C26 C -0.1345(2) -0.0076(2) -0.0574(1)
C27 C -0.1321(2) -0.0896(2) 0.0155(1)
C28 C -0.0027(2) 0.0822(2) -0.0728(1)
C28A C 0.0027(2) -0.0822(2) 0.0728(1)
C27A C 0.1321(2) 0.0896(2) -0.0155(1)
C26A C 0.1345(2) 0.0076(2) 0.0574(1)
O3 O -0.6065(3) 0.4171(2) -0.0119(1)
loop_
_geom_bond_atom_site_label_1
_geom_bond_atom_site_label_2
_geom_bond_site_symmetry_1
_geom_bond_site_symmetry_2
O1 C1 1_555 1_555
C1 C2 1_555 1_555
C2 C3 1_555 1_555
C3 C4 1_555 1_555
C4 O2 1_555 1_555
O2 C5 1_555 1_555
C5 C6 1_555 1_555
C6 C7 1_555 1_555
C7 C8 1_555 1_555
C8 C9 1_555 1_555
C9 C10 1_555 1_555
C10 C5 1_555 1_555
C11 C8 1_555 1_555
C12 C11 1_555 1_555
C13 C12 1_555 1_555
C14 C13 1_555 1_555
C15 O1 1_555 1_555
C16 C15 1_555 1_555
C17 C12 1_555 1_555
N1 C18 1_555 1_555
C18 C19 1_555 1_555
C19 C11 1_555 1_555
C20 C11 1_555 1_555
C21 N1 1_555 1_555
C22 N1 1_555 1_555
C23 C24 1_555 1_555
C24 C25A 1_555 1_555
C25 C23 1_555 1_555
C26 C27 1_555 1_555
C27 C28A 1_555 1_555
C28 C26 1_555 1_555
C15A C14 1_555 1_555
C14A C15 1_555 1_555
C17A C16 1_555 1_555
C16A C17 1_555 1_555
O1A C15A 1_555 1_555
C13A C14A 1_555 1_555
C12A C17A 1_555 1_555
C1A O1A 1_555 1_555
C11A C12A 1_555 1_555
C2A C1A 1_555 1_555
C8A C11A 1_555 1_555
C19A C11A 1_555 1_555
C20A C11A 1_555 1_555
C3A C2A 1_555 1_555
C7A C8A 1_555 1_555
C9A C8A 1_555 1_555
C18A C19A 1_555 1_555
C21A C20A 1_555 1_555
C4A C3A 1_555 1_555
C6A C7A 1_555 1_555
C10A C9A 1_555 1_555
N1A C18A 1_555 1_555
O2A C4A 1_555 1_555
C5A C6A 1_555 1_555
C22A N1A 1_555 1_555
C25A C23A 1_555 1_555
C24A C25 1_555 1_555
C23A C24A 1_555 1_555
C28A C26A 1_555 1_555
C27A C28 1_555 1_555
C26A C27A 1_555 1_555
C20 C21 1_555 1_555
C15A C16A 1_555 1_555
C13A C12A 1_555 1_555
C21A N1A 1_555 1_555
C10A C5A 1_555 1_555
O2A C5A 1_555 1_555

#END
