
#######################################################################
#
#                 Cambridge Crystallographic Data Centre
#                                CCDC 
#
#######################################################################
#
# If this CIF has been generated from an entry in the Cambridge 
# Structural Database, then it will include bibliographic, chemical, 
# crystal, experimental, refinement or atomic coordinate data resulting 
# from the CCDC's data processing and validation procedures.
#
#######################################################################

data_DENMOB
_chemical_formula_moiety         'C15 H27 N3'
_chemical_name_systematic        
(2,4,6-triethylbenzene-1,3,5-triyl)trimethanamine
_symmetry_cell_setting           monoclinic
_symmetry_space_group_name_H-M   'P 21/c'
_symmetry_Int_Tables_number      14
_space_group_name_Hall           '-P 2ybc'
loop_
_symmetry_equiv_pos_site_id
_symmetry_equiv_pos_as_xyz
1 x,y,z
2 -x,1/2+y,1/2-z
3 -x,-y,-z
4 x,1/2-y,1/2+z
_cell_length_a                   9.1876(6)
_cell_length_b                   15.9379(10)
_cell_length_c                   10.0928(7)
_cell_angle_alpha                90
_cell_angle_beta                 102.9749(19)
_cell_angle_gamma                90
_cell_volume                     1440.17
_exptl_crystal_colour            colorless
_exptl_crystal_description       polyhedron
_cell_formula_units_Z            4
loop_
_atom_site_label
_atom_site_type_symbol
_atom_site_fract_x
_atom_site_fract_y
_atom_site_fract_z
N1 N -0.0097(3) 0.46828(14) 0.3012(2)
H1 H -0.069(5) 0.479(2) 0.348(4)
H2 H 0.071(4) 0.446(2) 0.356(3)
N2 N 0.2977(2) 0.67372(13) 0.72664(19)
H3 H 0.208(3) 0.6449(19) 0.720(3)
H4 H 0.310(2) 0.7056(15) 0.803(3)
N3 N 0.6819(2) 0.51721(15) 0.3829(3)
H5 H 0.645(3) 0.4710(19) 0.349(3)
H6 H 0.669(3) 0.5147(15) 0.467(3)
C1 C 0.1736(2) 0.58357(11) 0.30206(18)
C2 C 0.1664(2) 0.64165(11) 0.40529(18)
C3 C 0.2984(2) 0.67490(11) 0.48575(18)
C4 C 0.4369(2) 0.65464(11) 0.45661(18)
C5 C 0.44343(19) 0.60113(11) 0.34793(18)
C6 C 0.3121(2) 0.56198(11) 0.27460(18)
C7 C 0.0156(2) 0.67039(12) 0.4263(2)
H7 H 0.023943 0.683849 0.523460
H8 H -0.058010 0.624496 0.401156
C8 C -0.0388(2) 0.74805(14) 0.3395(3)
H9 H -0.138720 0.763523 0.350222
H10 H -0.042585 0.735492 0.243737
H11 H 0.030241 0.794759 0.369117
C9 C 0.5803(2) 0.69002(12) 0.5449(2)
H12 H 0.663879 0.651456 0.541472
H13 H 0.569956 0.692726 0.640310
C10 C 0.6184(2) 0.77763(13) 0.5001(2)
H14 H 0.713713 0.796130 0.557287
H15 H 0.539441 0.817065 0.509403
H16 H 0.626315 0.775746 0.404906
C11 C 0.3219(2) 0.49677(12) 0.1668(2)
H17 H 0.421396 0.469771 0.190858
H18 H 0.246068 0.452797 0.167884
C12 C 0.2982(2) 0.53206(14) 0.0235(2)
H19 H 0.301646 0.486301 -0.040585
H20 H 0.376965 0.572825 0.019636
H21 H 0.200594 0.559788 -0.000908
C13 C 0.0321(2) 0.54001(13) 0.2266(2)
H22 H -0.050863 0.581055 0.209294
H23 H 0.046743 0.520371 0.137400
C14 C 0.2921(2) 0.72841(12) 0.6084(2)
H24 H 0.377585 0.767813 0.627177
H25 H 0.198697 0.761651 0.590117
C15 C 0.5918(2) 0.58555(12) 0.31064(19)
H26 H 0.572518 0.573684 0.211944
H27 H 0.651322 0.637830 0.327284
loop_
_geom_bond_atom_site_label_1
_geom_bond_atom_site_label_2
_geom_bond_site_symmetry_1
_geom_bond_site_symmetry_2
N1 H1 1_555 1_555
H2 N1 1_555 1_555
N2 H3 1_555 1_555
H4 N2 1_555 1_555
N3 H5 1_555 1_555
H6 N3 1_555 1_555
C1 C2 1_555 1_555
C2 C3 1_555 1_555
C3 C4 1_555 1_555
C4 C5 1_555 1_555
C5 C6 1_555 1_555
C6 C1 1_555 1_555
C7 C2 1_555 1_555
H7 C7 1_555 1_555
H8 C7 1_555 1_555
C8 C7 1_555 1_555
H9 C8 1_555 1_555
H10 C8 1_555 1_555
H11 C8 1_555 1_555
C9 C4 1_555 1_555
H12 C9 1_555 1_555
H13 C9 1_555 1_555
C10 C9 1_555 1_555
H14 C10 1_555 1_555
H15 C10 1_555 1_555
H16 C10 1_555 1_555
C11 C6 1_555 1_555
H17 C11 1_555 1_555
H18 C11 1_555 1_555
C12 C11 1_555 1_555
H19 C12 1_555 1_555
H20 C12 1_555 1_555
H21 C12 1_555 1_555
C13 N1 1_555 1_555
H22 C13 1_555 1_555
H23 C13 1_555 1_555
C14 N2 1_555 1_555
H24 C14 1_555 1_555
H25 C14 1_555 1_555
C15 N3 1_555 1_555
H26 C15 1_555 1_555
H27 C15 1_555 1_555
C1 C13 1_555 1_555
C3 C14 1_555 1_555
C5 C15 1_555 1_555

#END
