
#######################################################################
#
#                 Cambridge Crystallographic Data Centre
#                                CCDC 
#
#######################################################################
#
# If this CIF has been generated from an entry in the Cambridge 
# Structural Database, then it will include bibliographic, chemical, 
# crystal, experimental, refinement or atomic coordinate data resulting 
# from the CCDC's data processing and validation procedures.
#
#######################################################################

data_DENQAR
_chemical_formula_moiety         'C16 H26 N2 O2'
_chemical_name_systematic        N^1^,N^4^-dicyclohexylbut-2-enediamide
_symmetry_cell_setting           monoclinic
_symmetry_space_group_name_H-M   'P 21/c'
_symmetry_Int_Tables_number      14
_space_group_name_Hall           '-P 2ybc'
loop_
_symmetry_equiv_pos_site_id
_symmetry_equiv_pos_as_xyz
1 x,y,z
2 -x,1/2+y,1/2-z
3 -x,-y,-z
4 x,1/2-y,1/2+z
_cell_length_a                   12.621(5)
_cell_length_b                   6.553(3)
_cell_length_c                   9.876(4)
_cell_angle_alpha                90
_cell_angle_beta                 109.417(11)
_cell_angle_gamma                90
_cell_volume                     770.342
_exptl_crystal_colour            colorless
_exptl_crystal_description       needle
_cell_formula_units_Z            2
loop_
_atom_site_label
_atom_site_type_symbol
_atom_site_fract_x
_atom_site_fract_y
_atom_site_fract_z
O1 O 0.39073(10) -0.22514(17) 0.82758(10)
N1 N 0.36365(11) -0.14744(19) 1.03668(12)
H1 H 0.3829 -0.1750 1.1289
C1 C 0.09055(15) 0.2695(3) 0.96819(17)
H2 H 0.0653 0.2077 1.0437
H3 H 0.0398 0.3849 0.9255
C2 C 0.08333(15) 0.1126(3) 0.85373(16)
H4 H 0.0992 0.1788 0.7724
H5 H 0.0061 0.0566 0.8174
C3 C 0.16618(13) -0.0603(3) 0.91134(17)
H6 H 0.1632 -0.1549 0.8320
H7 H 0.1444 -0.1375 0.9842
C4 C 0.28533(13) 0.0191(2) 0.97850(14)
H8 H 0.3078 0.0885 0.9020
C5 C 0.40753(12) -0.2601(2) 0.95583(14)
C6 C 0.47777(12) -0.4335(2) 1.03304(14)
H9 H 0.4911 -0.4492 1.1330
C7 C 0.20956(15) 0.3483(3) 1.03495(17)
H10 H 0.2126 0.4450 1.1131
H11 H 0.2320 0.4227 0.9616
C8 C 0.29128(14) 0.1739(2) 1.09483(16)
H12 H 0.3686 0.2285 1.1343
H13 H 0.2728 0.1065 1.1739
O1B O 0.60927(10) -0.77486(17) 1.17242(10)
N1B N 0.63635(11) -0.85256(19) 0.96332(12)
H1B H 0.6171 -0.8250 0.8711
C1B C 0.90945(15) -1.2695(3) 1.03181(17)
H2B H 0.9347 -1.2077 0.9563
H3B H 0.9602 -1.3849 1.0745
C2B C 0.91667(15) -1.1126(3) 1.14627(16)
H4B H 0.9008 -1.1788 1.2276
H5B H 0.9939 -1.0566 1.1826
C3B C 0.83382(13) -0.9397(3) 1.08866(17)
H6B H 0.8368 -0.8451 1.1680
H7B H 0.8556 -0.8625 1.0158
C4B C 0.71467(13) -1.0191(2) 1.02150(14)
H8B H 0.6922 -1.0885 1.0980
C5B C 0.59247(12) -0.7399(2) 1.04417(14)
C6B C 0.52223(12) -0.5665(2) 0.96696(14)
H9B H 0.5089 -0.5508 0.8670
C7B C 0.79044(15) -1.3483(3) 0.96505(17)
H10B H 0.7874 -1.4450 0.8869
H11B H 0.7680 -1.4227 1.0384
C8B C 0.70872(14) -1.1739(2) 0.90517(16)
H12B H 0.6314 -1.2285 0.8657
H13B H 0.7272 -1.1065 0.8261
loop_
_geom_bond_atom_site_label_1
_geom_bond_atom_site_label_2
_geom_bond_site_symmetry_1
_geom_bond_site_symmetry_2
O1 C5 1_555 1_555
N1 H1 1_555 1_555
C1 H2 1_555 1_555
H3 C1 1_555 1_555
C2 C1 1_555 1_555
H4 C2 1_555 1_555
H5 C2 1_555 1_555
C3 C2 1_555 1_555
H6 C3 1_555 1_555
H7 C3 1_555 1_555
C4 N1 1_555 1_555
H8 C4 1_555 1_555
C5 N1 1_555 1_555
C6 C5 1_555 1_555
H9 C6 1_555 1_555
C7 C1 1_555 1_555
H10 C7 1_555 1_555
H11 C7 1_555 1_555
C8 C4 1_555 1_555
H12 C8 1_555 1_555
H13 C8 1_555 1_555
O1B C5B 1_555 1_555
N1B H1B 1_555 1_555
C1B H2B 1_555 1_555
H3B C1B 1_555 1_555
C2B C1B 1_555 1_555
H4B C2B 1_555 1_555
H5B C2B 1_555 1_555
C3B C2B 1_555 1_555
H6B C3B 1_555 1_555
H7B C3B 1_555 1_555
C4B N1B 1_555 1_555
H8B C4B 1_555 1_555
C5B N1B 1_555 1_555
C6B C6 1_555 1_555
H9B C6B 1_555 1_555
C7B C1B 1_555 1_555
H10B C7B 1_555 1_555
H11B C7B 1_555 1_555
C8B C4B 1_555 1_555
H12B C8B 1_555 1_555
H13B C8B 1_555 1_555
C3 C4 1_555 1_555
C7 C8 1_555 1_555
C3B C4B 1_555 1_555
C5B C6B 1_555 1_555
C7B C8B 1_555 1_555

#END
