
#######################################################################
#
#                 Cambridge Crystallographic Data Centre
#                                CCDC 
#
#######################################################################
#
# If this CIF has been generated from an entry in the Cambridge 
# Structural Database, then it will include bibliographic, chemical, 
# crystal, experimental, refinement or atomic coordinate data resulting 
# from the CCDC's data processing and validation procedures.
#
#######################################################################

data_DENQOD
_chemical_formula_moiety         'C19 H22 Cl1 N1 O4'
_chemical_name_systematic        
2,6-dimethyl-3,5-diethoxycarbonyl-4-(4'-chlorophenyl)-1,4-dihydropyridine
_symmetry_cell_setting           monoclinic
_symmetry_space_group_name_H-M   'P 21/n'
_symmetry_Int_Tables_number      14
_space_group_name_Hall           '-P 2yn'
loop_
_symmetry_equiv_pos_site_id
_symmetry_equiv_pos_as_xyz
1 x,y,z
2 1/2-x,1/2+y,1/2-z
3 -x,-y,-z
4 1/2+x,1/2-y,1/2+z
_cell_length_a                   10.1228(11)
_cell_length_b                   7.5111(8)
_cell_length_c                   24.575(3)
_cell_angle_alpha                90
_cell_angle_beta                 97.089(3)
_cell_angle_gamma                90
_cell_volume                     1854.24
_exptl_crystal_colour            colorless
_cell_formula_units_Z            4
loop_
_atom_site_label
_atom_site_type_symbol
_atom_site_fract_x
_atom_site_fract_y
_atom_site_fract_z
Cl1 Cl 0.96504(16) 0.7329(2) 0.23413(6)
O1 O 0.3458(3) 1.0648(6) 0.35685(15)
O2 O 0.4214(3) 0.7852(5) 0.35988(15)
O3 O 0.7662(3) 0.5684(4) 0.49183(13)
O4 O 0.9065(4) 0.7505(4) 0.54200(15)
N1 N 0.6869(4) 1.1825(5) 0.47130(16)
C1 C 0.5748(4) 1.1558(6) 0.43392(18)
C2 C 0.5499(4) 0.9928(6) 0.41243(17)
C3 C 0.6503(4) 0.8444(6) 0.42490(17)
C4 C 0.7413(4) 0.8778(6) 0.47752(16)
C5 C 0.7620(4) 1.0449(6) 0.49700(17)
C6 C 0.4929(5) 1.3209(7) 0.4230(2)
H1 H 0.5261 1.3886 0.3945
H2 H 0.4983 1.3912 0.4559
H3 H 0.4019 1.2887 0.4118
C7 C 0.4294(4) 0.9585(8) 0.37448(19)
C8 C 0.3161(6) 0.7322(10) 0.3176(3)
H4 H 0.2882 0.6116 0.3246
H5 H 0.2400 0.8101 0.3184
C9 C 0.3611(7) 0.7408(12) 0.2644(3)
H6 H 0.3733 0.8630 0.2547
H7 H 0.2960 0.6867 0.2377
H8 H 0.4441 0.6783 0.2652
C10 C 0.7306(4) 0.8136(6) 0.37700(17)
C11 C 0.7169(5) 0.6610(7) 0.3458(2)
H9 H 0.6586 0.5724 0.3543
C12 C 0.7892(6) 0.6376(9) 0.3016(2)
H10 H 0.7779 0.5348 0.2804
C13 C 0.8753(5) 0.7634(8) 0.28949(19)
C14 C 0.8935(6) 0.9135(9) 0.3205(2)
C15 C 0.8205(5) 0.9406(7) 0.36384(19)
H11 H 0.8319 1.0449 0.3843
C16 C 0.8031(5) 0.7182(6) 0.50388(18)
C17 C 0.9689(7) 0.6025(8) 0.5735(3)
H12 H 0.9517 0.4924 0.5532
H13 H 1.0644 0.6203 0.5800
C18 C 0.9160(9) 0.5923(13) 0.6239(3)
H14 H 0.9147 0.7089 0.6398
H15 H 0.9703 0.5148 0.6484
H16 H 0.8269 0.5462 0.6178
C19 C 0.8544(5) 1.1069(7) 0.5457(2)
H17 H 0.8418 1.0352 0.5770
H18 H 0.8358 1.2292 0.5532
H19 H 0.9448 1.0962 0.5380
H20 H 0.701(5) 1.291(3) 0.481(2)
H21 H 0.604(4) 0.735(6) 0.4294(17)
H22 H 0.956(5) 0.996(8) 0.312(2)
loop_
_geom_bond_atom_site_label_1
_geom_bond_atom_site_label_2
_geom_bond_site_symmetry_1
_geom_bond_site_symmetry_2
Cl1 C13 1_555 1_555
O1 C7 1_555 1_555
O2 C7 1_555 1_555
O3 C16 1_555 1_555
O4 C16 1_555 1_555
N1 C1 1_555 1_555
C1 C2 1_555 1_555
C2 C3 1_555 1_555
C3 C4 1_555 1_555
C4 C5 1_555 1_555
C5 N1 1_555 1_555
C6 C1 1_555 1_555
H1 C6 1_555 1_555
H2 C6 1_555 1_555
H3 C6 1_555 1_555
C7 C2 1_555 1_555
C8 O2 1_555 1_555
H4 C8 1_555 1_555
H5 C8 1_555 1_555
C9 C8 1_555 1_555
H6 C9 1_555 1_555
H7 C9 1_555 1_555
H8 C9 1_555 1_555
C10 C3 1_555 1_555
C11 C10 1_555 1_555
H9 C11 1_555 1_555
C12 C11 1_555 1_555
H10 C12 1_555 1_555
C13 C12 1_555 1_555
C14 C13 1_555 1_555
C15 C10 1_555 1_555
H11 C15 1_555 1_555
C16 C4 1_555 1_555
C17 O4 1_555 1_555
H12 C17 1_555 1_555
H13 C17 1_555 1_555
C18 C17 1_555 1_555
H14 C18 1_555 1_555
H15 C18 1_555 1_555
H16 C18 1_555 1_555
C19 C5 1_555 1_555
H17 C19 1_555 1_555
H18 C19 1_555 1_555
H19 C19 1_555 1_555
H20 N1 1_555 1_555
H21 C3 1_555 1_555
H22 C14 1_555 1_555
C14 C15 1_555 1_555

#END
