
#######################################################################
#
#                 Cambridge Crystallographic Data Centre
#                                CCDC 
#
#######################################################################
#
# If this CIF has been generated from an entry in the Cambridge 
# Structural Database, then it will include bibliographic, chemical, 
# crystal, experimental, refinement or atomic coordinate data resulting 
# from the CCDC's data processing and validation procedures.
#
#######################################################################

data_DENTAU
_chemical_formula_moiety         'C13 H15 F1 O2'
_chemical_name_systematic        
8-fluoro-1-methoxy-1,3,3a,4,9,9a-hexahydronaphtho[2,3-c]furan
_symmetry_cell_setting           triclinic
_symmetry_space_group_name_H-M   'P -1'
_symmetry_Int_Tables_number      2
_space_group_name_Hall           '-P 1'
loop_
_symmetry_equiv_pos_site_id
_symmetry_equiv_pos_as_xyz
1 x,y,z
2 -x,-y,-z
_cell_length_a                   7.4670(16)
_cell_length_b                   8.1131(16)
_cell_length_c                   10.193(2)
_cell_angle_alpha                107.549(19)
_cell_angle_beta                 90.344(18)
_cell_angle_gamma                106.555(18)
_cell_volume                     561.491
_exptl_crystal_colour            'light colorless'
_exptl_crystal_description       block
_cell_formula_units_Z            2
loop_
_atom_site_label
_atom_site_type_symbol
_atom_site_fract_x
_atom_site_fract_y
_atom_site_fract_z
F1 F 0.3199(2) 0.2956(2) 1.15939(15)
O1 O 0.1640(3) 0.3494(3) 0.55598(18)
O2 O 0.3610(2) 0.1796(2) 0.57343(18)
C1 C 0.1335(4) 0.2564(3) 1.1187(3)
C2 C 0.0082(5) 0.2219(3) 1.2108(3)
H1 H 0.0473 0.2236 1.2981
C3 C -0.1789(5) 0.1843(3) 1.1690(3)
H2 H -0.2689 0.1596 1.2288
C4 C -0.2339(4) 0.1829(3) 1.0388(3)
H3 H -0.3607 0.1570 1.0121
C5 C -0.1021(3) 0.2196(3) 0.9469(2)
C6 C 0.0881(3) 0.2576(3) 0.9875(2)
C7 C 0.2419(3) 0.2991(3) 0.8956(2)
H4 H 0.3093 0.4276 0.9280
H5 H 0.3302 0.2330 0.9003
C8 C 0.1593(3) 0.2458(3) 0.7481(2)
H6 H 0.1141 0.1132 0.7121
C9 C -0.0067(3) 0.3160(3) 0.7415(2)
H7 H 0.0307 0.4452 0.7950
C10 C -0.1671(3) 0.2177(3) 0.8051(3)
H8 H -0.2184 0.0933 0.7455
H9 H -0.2658 0.2752 0.8131
C11 C -0.0265(3) 0.2977(4) 0.5899(3)
H10 H -0.0929 0.1739 0.5352
H11 H -0.0935 0.3774 0.5740
C12 C 0.2823(3) 0.3129(3) 0.6460(2)
H12 H 0.3820 0.4242 0.6952
C13 C 0.4900(4) 0.2356(4) 0.4813(3)
H13 H 0.4230 0.2487 0.4063
H14 H 0.5534 0.1462 0.4455
H15 H 0.5805 0.3496 0.5301
loop_
_geom_bond_atom_site_label_1
_geom_bond_atom_site_label_2
_geom_bond_site_symmetry_1
_geom_bond_site_symmetry_2
F1 C1 1_555 1_555
O1 C11 1_555 1_555
O2 C12 1_555 1_555
C1 C2 1_555 1_555
C2 H1 1_555 1_555
C3 C2 1_555 1_555
H2 C3 1_555 1_555
C4 C3 1_555 1_555
H3 C4 1_555 1_555
C5 C4 1_555 1_555
C6 C1 1_555 1_555
C7 C6 1_555 1_555
H4 C7 1_555 1_555
H5 C7 1_555 1_555
C8 C7 1_555 1_555
H6 C8 1_555 1_555
C9 C8 1_555 1_555
H7 C9 1_555 1_555
C10 C5 1_555 1_555
H8 C10 1_555 1_555
H9 C10 1_555 1_555
C11 C9 1_555 1_555
H10 C11 1_555 1_555
H11 C11 1_555 1_555
C12 O1 1_555 1_555
H12 C12 1_555 1_555
C13 O2 1_555 1_555
H13 C13 1_555 1_555
H14 C13 1_555 1_555
H15 C13 1_555 1_555
C5 C6 1_555 1_555
C8 C12 1_555 1_555
C9 C10 1_555 1_555

#END
