
#######################################################################
#
#                 Cambridge Crystallographic Data Centre
#                                CCDC 
#
#######################################################################
#
# If this CIF has been generated from an entry in the Cambridge 
# Structural Database, then it will include bibliographic, chemical, 
# crystal, experimental, refinement or atomic coordinate data resulting 
# from the CCDC's data processing and validation procedures.
#
#######################################################################

data_DENVAT
_chemical_name_common            'Deoxygen-bridged N-hydroxycantharidinimide'
_chemical_formula_moiety         'C10 H15 N1 O3'
_chemical_name_systematic        
1,6-Dimethyl-8-hydroxy-8-azabicyclo(4.3.0)nonane-7,9-dione
_chemical_properties_biological  'antitumour drug'
_symmetry_cell_setting           orthorhombic
_symmetry_space_group_name_H-M   'P b 21 a'
_symmetry_Int_Tables_number      29
_space_group_name_Hall           'P -2a -2ab'
loop_
_symmetry_equiv_pos_site_id
_symmetry_equiv_pos_as_xyz
1 x,y,z
2 1/2-x,1/2+y,z
3 1/2+x,y,-z
4 -x,1/2+y,-z
_cell_length_a                   13.723
_cell_length_b                   13.275
_cell_length_c                   11.600
_cell_angle_alpha                90
_cell_angle_beta                 90
_cell_angle_gamma                90
_cell_volume                     2113.2
_chemical_melting_point          80-82deg.C
_cell_formula_units_Z            8
loop_
_atom_site_label
_atom_site_type_symbol
_atom_site_fract_x
_atom_site_fract_y
_atom_site_fract_z
N1 N 0.4729(2) 0.1867(1) 0.3830
O1 O 0.3701(3) 0.0928(4) 0.2685(2)
O2 O 0.5359(4) 0.2128(1) 0.2974(4)
O3 O 0.5560 0.2613(4) 0.5358(1)
C1 C 0.3513(7) 0.1030(8) 0.4842(4)
C2 C 0.3994(2) 0.0021(9) 0.5148(4)
C3 C 0.3983(6) -0.0205(9) 0.6430(6)
C4 C 0.4517(3) 0.0594(5) 0.7164(6)
C5 C 0.4020(2) 0.1621(1) 0.6917(6)
C6 C 0.3892(4) 0.1877(1) 0.5605(1)
C7 C 0.4826(7) 0.2159(3) 0.5004(6)
C8 C 0.3921(9) 0.1269(6) 0.3634(10)
C9 C 0.2387(9) 0.0929(1) 0.4764(6)
C10 C 0.3296(9) 0.2824(6) 0.5522(4)
H1 H 0.469(18) 0.002(1) 0.492(18)
H2 H 0.366(8) -0.025(12) 0.439(14)
H3 H 0.435(13) -0.095(9) 0.663(20)
H4 H 0.320(14) -0.023(1) 0.660(3)
H5 H 0.535(15) 0.062(7) 0.698(5)
H6 H 0.434(14) 0.035(29) 0.793(25)
H7 H 0.436(13) 0.232(19) 0.731(7)
H8 H 0.613(10) 0.217(6) 0.257(13)
H15 H 0.336(18) 0.174(12) 0.733(3)
H16 H 0.216(13) 0.160(14) 0.458(13)
H17 H 0.205(13) 0.062(16) 0.556(6)
H18 H 0.221(8) 0.047(12) 0.415(17)
H19 H 0.335(13) 0.304(9) 0.461(7)
H20 H 0.365(8) 0.340(18) 0.594(6)
H21 H 0.273(18) 0.276(1) 0.590(10)
N2 N 0.3826(1) -0.0192(1) 0.0558(1)
O4 O 0.4775(3) -0.1024(7) 0.1847(3)
O5 O 0.4342(7) 0.0702(4) 0.0583(3)
O6 O 0.2660(2) 0.0334(5) -0.0788(4)
C11 C 0.3308(3) -0.1793(8) 0.1000(3)
C12 C 0.2668(10) -0.1883(10) 0.2108(10)
C13 C 0.1925(15) -0.1062(8) 0.2186(7)
C14 C 0.1206(7) -0.1044(15) 0.1196(20)
C15 C 0.1687 -0.1568(4) 0.0052(3)
C16 C 0.2767(4) -0.1417(11) -0.0124(8)
C17 C 0.2995(11) -0.0264(11) -0.0126(10)
C18 C 0.4084(4) -0.1003(5) 0.1208(1)
C19 C 0.3827(1) -0.2816(5) 0.0802(9)
C20 C 0.3135(7) -0.1928(6) -0.1222(6)
H9 H 0.310(11) -0.148(19) 0.279(20)
H10 H 0.223(9) -0.247(4) 0.222(5)
H11 H 0.234(14) -0.040(7) 0.225(1)
H12 H 0.151(4) -0.120(7) 0.301(1)
H13 H 0.045(10) -0.148(3) 0.150(7)
H14 H 0.148(8) -0.246(8) -0.011(7)
H22 H 0.123(10) -0.113(10) -0.075(9)
H23 H 0.395(4) -0.280(6) 0.177(7)
H24 H 0.415(5) -0.266(3) -0.003(2)
H25 H 0.360(10) -0.360(9) 0.036(10)
H26 H 0.397(8) -0.189(9) -0.090(10)
H27 H 0.270(3) -0.200(6) -0.183(10)
H28 H 0.312(6) -0.273(1) -0.134(3)
H29 H 0.484(9) 0.113(8) 0.006(3)
loop_
_geom_bond_atom_site_label_1
_geom_bond_atom_site_label_2
_geom_bond_site_symmetry_1
_geom_bond_site_symmetry_2
N1 O2 1_555 1_555
O1 C8 1_555 1_555
O2 H8 1_555 1_555
O3 C7 1_555 1_555
C1 C2 1_555 1_555
C2 C3 1_555 1_555
C3 C4 1_555 1_555
C4 C5 1_555 1_555
C5 C6 1_555 1_555
C6 C1 1_555 1_555
C7 N1 1_555 1_555
C8 N1 1_555 1_555
C9 C1 1_555 1_555
C10 C6 1_555 1_555
N2 O5 1_555 1_555
O4 C18 1_555 1_555
O5 H29 1_555 1_555
O6 C17 1_555 1_555
C11 C12 1_555 1_555
C12 C13 1_555 1_555
C13 C14 1_555 1_555
C14 C15 1_555 1_555
C15 C16 1_555 1_555
C16 C11 1_555 1_555
C17 N2 1_555 1_555
C18 N2 1_555 1_555
C19 C11 1_555 1_555
C20 C16 1_555 1_555
H1 C2 1_555 1_555
H2 C2 1_555 1_555
H3 C3 1_555 1_555
H4 C3 1_555 1_555
H5 C4 1_555 1_555
H6 C4 1_555 1_555
H7 C5 1_555 1_555
H9 C12 1_555 1_555
H10 C12 1_555 1_555
H11 C13 1_555 1_555
H12 C13 1_555 1_555
H13 C14 1_555 1_555
H14 C15 1_555 1_555
H15 C5 1_555 1_555
H16 C9 1_555 1_555
H17 C9 1_555 1_555
H18 C9 1_555 1_555
H19 C10 1_555 1_555
H20 C10 1_555 1_555
H21 C10 1_555 1_555
H22 C15 1_555 1_555
H23 C19 1_555 1_555
H24 C19 1_555 1_555
H25 C19 1_555 1_555
H26 C20 1_555 1_555
H27 C20 1_555 1_555
H28 C20 1_555 1_555
C1 C8 1_555 1_555
C6 C7 1_555 1_555
C11 C18 1_555 1_555
C16 C17 1_555 1_555

#END
