
#######################################################################
#
#                 Cambridge Crystallographic Data Centre
#                                CCDC 
#
#######################################################################
#
# If this CIF has been generated from an entry in the Cambridge 
# Structural Database, then it will include bibliographic, chemical, 
# crystal, experimental, refinement or atomic coordinate data resulting 
# from the CCDC's data processing and validation procedures.
#
#######################################################################

data_DENWID
_chemical_formula_moiety         'C22 H20 N1 O5 P1'
_chemical_name_systematic        
"2-Phenoxy-4H-spiro(naphtho(2,3-e)(1,4,2)oxazaphosphinane-5,10-dione-3,1'-cyclohexane) 2-oxide"
_chemical_properties_biological  'anticancer activity'
_symmetry_cell_setting           monoclinic
_symmetry_space_group_name_H-M   'P 21/n'
_symmetry_Int_Tables_number      14
_space_group_name_Hall           '-P 2yn'
loop_
_symmetry_equiv_pos_site_id
_symmetry_equiv_pos_as_xyz
1 x,y,z
2 1/2-x,1/2+y,1/2-z
3 -x,-y,-z
4 1/2+x,1/2-y,1/2+z
_cell_length_a                   7.9133(11)
_cell_length_b                   13.0269(18)
_cell_length_c                   19.091(3)
_cell_angle_alpha                90
_cell_angle_beta                 101.906(2)
_cell_angle_gamma                90
_cell_volume                     1925.67
_chemical_melting_point          205-207deg.C
_cell_formula_units_Z            4
_exptl_crystal_recrystallization_method ether/hexane
loop_
_atom_site_label
_atom_site_type_symbol
_atom_site_fract_x
_atom_site_fract_y
_atom_site_fract_z
P1 P 0.70388(7) 0.27736(4) 0.19649(3)
O1 O 0.6551(2) -0.07666(10) 0.08532(8)
O2 O 0.8610(2) 0.28234(11) -0.00354(8)
O3 O 0.79185(17) 0.27424(9) 0.12861(7)
O4 O 0.50392(17) 0.26113(10) 0.16604(8)
O5 O 0.75137(19) 0.37181(9) 0.23663(7)
N1 N 0.7127(2) 0.07761(11) 0.17988(9)
H1 H 0.6654 0.0210 0.1887
C1 C 0.7389(2) 0.09334(13) 0.11312(10)
C2 C 0.7115(2) 0.00201(14) 0.06471(11)
C3 C 0.7549(2) 0.01129(15) -0.00681(10)
C4 C 0.7425(3) -0.07400(17) -0.05141(12)
H2 H 0.7040 -0.1363 -0.0367
C5 C 0.7869(3) -0.06646(19) -0.11727(12)
H3 H 0.7779 -0.1235 -0.1471
C6 C 0.8448(3) 0.02584(19) -0.13893(12)
H4 H 0.8765 0.0304 -0.1831
C7 C 0.8562(3) 0.11170(18) -0.09540(11)
H5 H 0.8942 0.1738 -0.1106
C8 C 0.8110(2) 0.10530(15) -0.02920(10)
C9 C 0.8197(3) 0.19869(15) 0.01699(11)
C10 C 0.7784(2) 0.18508(13) 0.08658(10)
C11 C 0.7611(3) 0.15252(13) 0.23853(10)
C12 C 0.9559(3) 0.14615(16) 0.27024(11)
H6 H 0.9869 0.0749 0.2805
H7 H 1.0185 0.1701 0.2347
C13 C 1.0130(3) 0.20887(17) 0.33864(12)
H8 H 1.1341 0.1957 0.3584
H9 H 1.0001 0.2814 0.3273
C14 C 0.9079(4) 0.18225(18) 0.39374(13)
H10 H 0.9409 0.2271 0.4349
H11 H 0.9327 0.1122 0.4097
C15 C 0.7162(3) 0.19325(16) 0.36377(12)
H12 H 0.6894 0.2648 0.3525
H13 H 0.6527 0.1722 0.3997
C16 C 0.6587(3) 0.12849(15) 0.29656(11)
H14 H 0.5370 0.1406 0.2775
H15 H 0.6729 0.0564 0.3092
C17 C 0.3872(2) 0.34120(14) 0.14163(11)
C18 C 0.3970(3) 0.39556(18) 0.08161(13)
H16 H 0.4840 0.3826 0.0567
C19 C 0.2741(4) 0.4706(2) 0.05872(16)
H17 H 0.2795 0.5093 0.0183
C20 C 0.1458(4) 0.4881(2) 0.0946(2)
H18 H 0.0637 0.5385 0.0787
C21 C 0.1371(4) 0.4318(2) 0.1539(2)
H19 H 0.0481 0.4437 0.1780
C22 C 0.2592(3) 0.35738(18) 0.17852(14)
H20 H 0.2543 0.3192 0.2192
loop_
_geom_bond_atom_site_label_1
_geom_bond_atom_site_label_2
_geom_bond_site_symmetry_1
_geom_bond_site_symmetry_2
P1 O3 1_555 1_555
O1 C2 1_555 1_555
O2 C9 1_555 1_555
O3 C10 1_555 1_555
O4 P1 1_555 1_555
O5 P1 1_555 1_555
N1 H1 1_555 1_555
C1 N1 1_555 1_555
C2 C1 1_555 1_555
C3 C2 1_555 1_555
C4 C3 1_555 1_555
H2 C4 1_555 1_555
C5 C4 1_555 1_555
H3 C5 1_555 1_555
C6 C5 1_555 1_555
H4 C6 1_555 1_555
C7 C6 1_555 1_555
H5 C7 1_555 1_555
C8 C3 1_555 1_555
C9 C8 1_555 1_555
C10 C1 1_555 1_555
C11 P1 1_555 1_555
C12 C11 1_555 1_555
H6 C12 1_555 1_555
H7 C12 1_555 1_555
C13 C12 1_555 1_555
H8 C13 1_555 1_555
H9 C13 1_555 1_555
C14 C13 1_555 1_555
H10 C14 1_555 1_555
H11 C14 1_555 1_555
C15 C14 1_555 1_555
H12 C15 1_555 1_555
H13 C15 1_555 1_555
C16 C11 1_555 1_555
H14 C16 1_555 1_555
H15 C16 1_555 1_555
C17 O4 1_555 1_555
C18 C17 1_555 1_555
H16 C18 1_555 1_555
C19 C18 1_555 1_555
H17 C19 1_555 1_555
C20 C19 1_555 1_555
H18 C20 1_555 1_555
C21 C20 1_555 1_555
H19 C21 1_555 1_555
C22 C17 1_555 1_555
H20 C22 1_555 1_555
N1 C11 1_555 1_555
C7 C8 1_555 1_555
C9 C10 1_555 1_555
C15 C16 1_555 1_555
C21 C22 1_555 1_555

#END
