
#######################################################################
#
#                 Cambridge Crystallographic Data Centre
#                                CCDC 
#
#######################################################################
#
# If this CIF has been generated from an entry in the Cambridge 
# Structural Database, then it will include bibliographic, chemical, 
# crystal, experimental, refinement or atomic coordinate data resulting 
# from the CCDC's data processing and validation procedures.
#
#######################################################################

data_DENWOJ
_chemical_compound_source        'Botrytis cinerea'
_chemical_formula_moiety         'C15 H22 O4'
_chemical_name_systematic        
'(2Z,4E)-5-(1,4-Dihydroxy-2,6,6-trimethylcyclohex-2-en-1-yl)-3-methylpenta-2,4-dienoic acid'
_symmetry_cell_setting           orthorhombic
_symmetry_space_group_name_H-M   'P 21 21 21'
_symmetry_Int_Tables_number      19
_space_group_name_Hall           'P 2ac 2ab'
loop_
_symmetry_equiv_pos_site_id
_symmetry_equiv_pos_as_xyz
1 x,y,z
2 1/2+x,1/2-y,-z
3 -x,1/2+y,1/2-z
4 1/2-x,-y,1/2+z
_cell_length_a                   6.724(3)
_cell_length_b                   17.559(6)
_cell_length_c                   12.265(2)
_cell_angle_alpha                90
_cell_angle_beta                 90
_cell_angle_gamma                90
_cell_volume                     1448.09
_exptl_crystal_colour            colorless
_cell_formula_units_Z            4
_exptl_crystal_recrystallization_method methanol/water
loop_
_atom_site_label
_atom_site_type_symbol
_atom_site_fract_x
_atom_site_fract_y
_atom_site_fract_z
O1 O 1.7202(5) 0.13212(19) 0.9280(3)
H1 H 1.8112 0.1019 0.9177
O2 O 1.6469(5) 0.1022(2) 0.7566(3)
O3 O 0.8009(4) 0.10009(17) 0.5395(2)
H2 H 0.7512 0.0876 0.5979
O4 O 1.5523(4) -0.00924(18) 0.4436(3)
H3 H 1.6228 0.0288 0.4463
C1 C 1.6100(7) 0.1377(2) 0.8378(3)
C2 C 1.4447(7) 0.1915(2) 0.8535(3)
H4 H 1.4558 0.2264 0.9102
C3 C 1.2780(7) 0.1943(2) 0.7921(4)
C4 C 1.2324(6) 0.1404(2) 0.7055(3)
H5 H 1.3148 0.0982 0.6973
C5 C 1.0795(6) 0.1479(2) 0.6376(3)
H6 H 1.0013 0.1911 0.6469
C6 C 1.0181(6) 0.0946(2) 0.5471(3)
C7 C 1.0759(6) 0.0120(2) 0.5722(3)
C8 C 1.2282(7) -0.0216(2) 0.5224(4)
H7 H 1.2624 -0.0704 0.5451
C9 C 1.3483(6) 0.0131(2) 0.4332(4)
H8 H 1.2991 -0.0079 0.3642
C10 C 1.3202(6) 0.0981(2) 0.4284(4)
H9 H 1.3766 0.1173 0.3610
H10 H 1.3915 0.1215 0.4885
C11 C 1.1000(6) 0.1211(2) 0.4346(3)
C12 C 1.1254(8) 0.2559(3) 0.8171(4)
H11 H 1.0147 0.2510 0.7681
H12 H 1.1853 0.3051 0.8080
H13 H 1.0799 0.2504 0.8908
C13 C 0.9528(7) -0.0280(3) 0.6556(4)
H14 H 0.8504 0.0055 0.6813
H15 H 1.0357 -0.0431 0.7156
H16 H 0.8932 -0.0724 0.6235
C14 C 0.9838(7) 0.0833(3) 0.3402(4)
H17 H 0.9925 0.0289 0.3468
H18 H 1.0400 0.0989 0.2718
H19 H 0.8469 0.0986 0.3434
C15 C 1.0824(8) 0.2072(3) 0.4194(4)
H20 H 1.1541 0.2327 0.4764
H21 H 0.9448 0.2217 0.4222
H22 H 1.1372 0.2213 0.3500
loop_
_geom_bond_atom_site_label_1
_geom_bond_atom_site_label_2
_geom_bond_site_symmetry_1
_geom_bond_site_symmetry_2
O1 H1 1_555 1_555
O2 C1 1_555 1_555
O3 H2 1_555 1_555
O4 H3 1_555 1_555
C1 O1 1_555 1_555
C2 C1 1_555 1_555
H4 C2 1_555 1_555
C3 C2 1_555 1_555
C4 C3 1_555 1_555
H5 C4 1_555 1_555
C5 C4 1_555 1_555
H6 C5 1_555 1_555
C6 O3 1_555 1_555
C7 C6 1_555 1_555
C8 C7 1_555 1_555
H7 C8 1_555 1_555
C9 O4 1_555 1_555
H8 C9 1_555 1_555
C10 C9 1_555 1_555
H9 C10 1_555 1_555
H10 C10 1_555 1_555
C11 C6 1_555 1_555
C12 C3 1_555 1_555
H11 C12 1_555 1_555
H12 C12 1_555 1_555
H13 C12 1_555 1_555
C13 C7 1_555 1_555
H14 C13 1_555 1_555
H15 C13 1_555 1_555
H16 C13 1_555 1_555
C14 C11 1_555 1_555
H17 C14 1_555 1_555
H18 C14 1_555 1_555
H19 C14 1_555 1_555
C15 C11 1_555 1_555
H20 C15 1_555 1_555
H21 C15 1_555 1_555
H22 C15 1_555 1_555
C5 C6 1_555 1_555
C8 C9 1_555 1_555
C10 C11 1_555 1_555

#END
