
#######################################################################
#
#                 Cambridge Crystallographic Data Centre
#                                CCDC 
#
#######################################################################
#
# If this CIF has been generated from an entry in the Cambridge 
# Structural Database, then it will include bibliographic, chemical, 
# crystal, experimental, refinement or atomic coordinate data resulting 
# from the CCDC's data processing and validation procedures.
#
#######################################################################

data_DEPJAK
_chemical_formula_moiety         'C40 H42 N2'
_chemical_name_systematic        
4,4'-(4-(1-Napthyl)-4-phenyl-1,3-butadienylidene)bis(N,N-diethylbenzenamine)
_symmetry_cell_setting           monoclinic
_symmetry_space_group_name_H-M   'P 21/c'
_symmetry_Int_Tables_number      14
_space_group_name_Hall           '-P 2ybc'
loop_
_symmetry_equiv_pos_site_id
_symmetry_equiv_pos_as_xyz
1 x,y,z
2 -x,1/2+y,1/2-z
3 -x,-y,-z
4 x,1/2-y,1/2+z
_cell_length_a                   17.047(3)
_cell_length_b                   10.807(2)
_cell_length_c                   18.494(4)
_cell_angle_alpha                90
_cell_angle_beta                 105.727(4)
_cell_angle_gamma                90
_cell_volume                     3279.55
_exptl_crystal_colour            yellow
_chemical_melting_point          '195-196 deg.C'
_cell_formula_units_Z            4
_exptl_crystal_recrystallization_method 'petroleum ether/ethyl acetate'
loop_
_atom_site_label
_atom_site_type_symbol
_atom_site_fract_x
_atom_site_fract_y
_atom_site_fract_z
N1 N 0.1208(2) 0.1152(3) 0.43950(19)
N2 N 0.1190(3) 0.8460(4) 0.1054(2)
C1 C 0.5035(2) 0.3768(3) 0.3822(2)
C2 C 0.5528(2) 0.2738(4) 0.4233(2)
C3 C 0.6210(3) 0.2957(4) 0.4820(3)
H1 H 0.6383 0.3768 0.4931
C4 C 0.6648(3) 0.2005(6) 0.5252(3)
H2 H 0.7095 0.2180 0.5656
C5 C 0.6416(4) 0.0820(7) 0.5076(4)
H3 H 0.6704 0.0172 0.5358
C6 C 0.5756(5) 0.0578(5) 0.4481(4)
H4 H 0.5605 -0.0238 0.4355
C7 C 0.5311(3) 0.1531(4) 0.4064(3)
H5 H 0.4861 0.1351 0.3665
C8 C 0.5458(2) 0.4947(4) 0.3720(2)
C9 C 0.5363(3) 0.5983(4) 0.4116(3)
H6 H 0.5041 0.5935 0.4449
C10 C 0.5729(4) 0.7090(5) 0.4038(4)
H7 H 0.5646 0.7767 0.4319
C11 C 0.6203(4) 0.7226(6) 0.3567(4)
H8 H 0.6442 0.7982 0.3513
C12 C 0.6324(3) 0.6154(6) 0.3154(3)
C13 C 0.6812(4) 0.6216(7) 0.2665(4)
H9 H 0.7074 0.6956 0.2623
C14 C 0.6917(4) 0.5251(8) 0.2252(4)
H10 H 0.7255 0.5327 0.1936
C15 C 0.6519(4) 0.4110(6) 0.2291(3)
H11 H 0.6583 0.3448 0.1991
C16 C 0.6038(3) 0.3990(5) 0.2774(3)
H12 H 0.5781 0.3242 0.2809
C17 C 0.5936(2) 0.5020(4) 0.3221(2)
C18 C 0.4217(2) 0.3690(3) 0.3587(2)
H13 H 0.3979 0.2973 0.3708
C19 C 0.3683(2) 0.4613(3) 0.3166(2)
H14 H 0.3927 0.5248 0.2965
C20 C 0.2863(2) 0.4667(3) 0.30270(19)
C21 C 0.2412(2) 0.3809(3) 0.3393(2)
C22 C 0.2671(2) 0.3515(3) 0.4148(2)
H15 H 0.3130 0.3912 0.4446
C23 C 0.2279(2) 0.2662(4) 0.4479(2)
H16 H 0.2476 0.2507 0.4991
C24 C 0.1595(2) 0.2026(3) 0.4067(2)
C25 C 0.1318(2) 0.2337(3) 0.3307(2)
H17 H 0.0858 0.1944 0.3008
C26 C 0.1710(2) 0.3211(3) 0.2991(2)
H18 H 0.1495 0.3408 0.2487
C27 C 0.1523(3) 0.0820(4) 0.5179(3)
H19 H 0.2114 0.0802 0.5306
H20 H 0.1336 -0.0005 0.5255
C28 C 0.1264(3) 0.1694(6) 0.5685(3)
H21 H 0.1550 0.2463 0.5699
H22 H 0.1385 0.1349 0.6181
H23 H 0.0688 0.1838 0.5502
C29 C 0.0513(3) 0.0439(5) 0.3970(3)
H24 H 0.0201 0.0936 0.3554
H25 H 0.0163 0.0253 0.4291
C30 C 0.0755(4) -0.0739(6) 0.3673(4)
H26 H 0.1120 -0.0564 0.3372
H27 H 0.0278 -0.1149 0.3370
H28 H 0.1022 -0.1265 0.4084
C31 C 0.2403(2) 0.5609(3) 0.25047(19)
C32 C 0.1723(2) 0.6211(4) 0.2613(2)
H29 H 0.1528 0.5978 0.3016
C33 C 0.1326(2) 0.7143(4) 0.2144(2)
H30 H 0.0873 0.7518 0.2240
C34 C 0.1589(3) 0.7531(4) 0.1533(2)
C35 C 0.2261(2) 0.6924(4) 0.1415(2)
H31 H 0.2450 0.7149 0.1007
C36 C 0.2654(2) 0.6000(3) 0.1885(2)
H32 H 0.3105 0.5623 0.1787
C37 C 0.0413(3) 0.9001(5) 0.1108(3)
H33 H 0.0093 0.9249 0.0611
H34 H 0.0106 0.8378 0.1293
C38 C 0.0540(4) 1.0084(6) 0.1613(3)
H35 H 0.0956 0.9898 0.2066
H36 H 0.0041 1.0277 0.1735
H37 H 0.0706 1.0780 0.1368
C39 C 0.1712(4) 0.9261(6) 0.0573(4)
H38 H 0.1576 1.0134 0.0543
H39 H 0.2296 0.9155 0.0770
C40 C 0.1413(4) 0.8674(7) -0.0082(4)
H40 H 0.1621 0.7844 -0.0044
H41 H 0.1575 0.9106 -0.0472
H42 H 0.0829 0.8652 -0.0200
loop_
_geom_bond_atom_site_label_1
_geom_bond_atom_site_label_2
_geom_bond_site_symmetry_1
_geom_bond_site_symmetry_2
N1 C24 1_555 1_555
N2 C34 1_555 1_555
C1 C2 1_555 1_555
C2 C3 1_555 1_555
C3 H1 1_555 1_555
C4 C3 1_555 1_555
H2 C4 1_555 1_555
C5 C4 1_555 1_555
H3 C5 1_555 1_555
C6 C5 1_555 1_555
H4 C6 1_555 1_555
C7 C2 1_555 1_555
H5 C7 1_555 1_555
C8 C1 1_555 1_555
C9 C8 1_555 1_555
H6 C9 1_555 1_555
C10 C9 1_555 1_555
H7 C10 1_555 1_555
C11 C10 1_555 1_555
H8 C11 1_555 1_555
C12 C11 1_555 1_555
C13 C12 1_555 1_555
H9 C13 1_555 1_555
C14 C13 1_555 1_555
H10 C14 1_555 1_555
C15 C14 1_555 1_555
H11 C15 1_555 1_555
C16 C15 1_555 1_555
H12 C16 1_555 1_555
C17 C8 1_555 1_555
C18 C1 1_555 1_555
H13 C18 1_555 1_555
C19 C18 1_555 1_555
H14 C19 1_555 1_555
C20 C19 1_555 1_555
C21 C20 1_555 1_555
C22 C21 1_555 1_555
H15 C22 1_555 1_555
C23 C22 1_555 1_555
H16 C23 1_555 1_555
C24 C23 1_555 1_555
C25 C24 1_555 1_555
H17 C25 1_555 1_555
C26 C21 1_555 1_555
H18 C26 1_555 1_555
C27 N1 1_555 1_555
H19 C27 1_555 1_555
H20 C27 1_555 1_555
C28 C27 1_555 1_555
H21 C28 1_555 1_555
H22 C28 1_555 1_555
H23 C28 1_555 1_555
C29 N1 1_555 1_555
H24 C29 1_555 1_555
H25 C29 1_555 1_555
C30 C29 1_555 1_555
H26 C30 1_555 1_555
H27 C30 1_555 1_555
H28 C30 1_555 1_555
C31 C20 1_555 1_555
C32 C31 1_555 1_555
H29 C32 1_555 1_555
C33 C32 1_555 1_555
H30 C33 1_555 1_555
C34 C33 1_555 1_555
C35 C34 1_555 1_555
H31 C35 1_555 1_555
C36 C31 1_555 1_555
H32 C36 1_555 1_555
C37 N2 1_555 1_555
H33 C37 1_555 1_555
H34 C37 1_555 1_555
C38 C37 1_555 1_555
H35 C38 1_555 1_555
H36 C38 1_555 1_555
H37 C38 1_555 1_555
C39 N2 1_555 1_555
H38 C39 1_555 1_555
H39 C39 1_555 1_555
C40 C39 1_555 1_555
H40 C40 1_555 1_555
H41 C40 1_555 1_555
H42 C40 1_555 1_555
C6 C7 1_555 1_555
C12 C17 1_555 1_555
C16 C17 1_555 1_555
C25 C26 1_555 1_555
C35 C36 1_555 1_555

#END
