
#######################################################################
#
#                 Cambridge Crystallographic Data Centre
#                                CCDC 
#
#######################################################################
#
# If this CIF has been generated from an entry in the Cambridge 
# Structural Database, then it will include bibliographic, chemical, 
# crystal, experimental, refinement or atomic coordinate data resulting 
# from the CCDC's data processing and validation procedures.
#
#######################################################################

data_DEPKUH
_chemical_formula_moiety         'C22 H22 N2 O5 S2'
_chemical_name_systematic        
N-(4-{[bis(phenylsulfonyl)amino]methyl}-3-methylphenyl)acetamide
_symmetry_cell_setting           monoclinic
_symmetry_space_group_name_H-M   'C c'
_symmetry_Int_Tables_number      9
_space_group_name_Hall           'C -2yc'
loop_
_symmetry_equiv_pos_site_id
_symmetry_equiv_pos_as_xyz
1 x,y,z
2 x,-y,1/2+z
3 1/2+x,1/2+y,z
4 1/2+x,1/2-y,1/2+z
_cell_length_a                   41.5462(5)
_cell_length_b                   11.76645(14)
_cell_length_c                   9.09538(9)
_cell_angle_alpha                90
_cell_angle_beta                 96.1532(11)
_cell_angle_gamma                90
_cell_volume                     4420.67
_exptl_crystal_colour            colorless
_exptl_crystal_description       plate
_cell_formula_units_Z            8
loop_
_atom_site_label
_atom_site_type_symbol
_atom_site_fract_x
_atom_site_fract_y
_atom_site_fract_z
C1 C 0.44672(10) 0.6134(3) 0.4019(4)
C2 C 0.41992(11) 0.5752(4) 0.4658(5)
H1 H 0.4038 0.6254 0.4872
C3 C 0.41776(16) 0.4609(5) 0.4969(6)
H2 H 0.4001 0.4339 0.5411
C4 C 0.44106(18) 0.3873(4) 0.4639(6)
H3 H 0.4391 0.3103 0.4843
C5 C 0.46759(16) 0.4264(5) 0.4000(7)
H4 H 0.4834 0.3756 0.3765
C6 C 0.47077(13) 0.5411(5) 0.3709(6)
H5 H 0.4889 0.5684 0.3308
C7 C 0.50810(9) 0.9421(3) 0.5466(4)
C8 C 0.53388(11) 0.8963(4) 0.4849(7)
H6 H 0.5357 0.8179 0.4755
C9 C 0.55681(14) 0.9666(6) 0.4372(8)
H7 H 0.5744 0.9361 0.3954
C10 C 0.55396(15) 1.0819(5) 0.4511(8)
H8 H 0.5698 1.1294 0.4196
C11 C 0.52831(15) 1.1275(4) 0.5103(8)
H9 H 0.5264 1.2060 0.5172
C12 C 0.50495(12) 1.0583(4) 0.5606(6)
H10 H 0.4875 1.0893 0.6028
C13 C 0.41963(9) 0.9215(3) 0.4904(5)
H11 H 0.4142 0.9518 0.3916
H12 H 0.4261 0.9847 0.5555
C14 C 0.38972(9) 0.8656(3) 0.5414(4)
C15 C 0.35926(10) 0.8776(3) 0.4632(4)
C16 C 0.33294(10) 0.8236(4) 0.5150(4)
H13 H 0.3125 0.8323 0.4641
C17 C 0.33674(9) 0.7568(3) 0.6416(4)
C18 C 0.36672(10) 0.7479(3) 0.7206(4)
H14 H 0.3694 0.7055 0.8073
C19 C 0.39286(10) 0.8024(4) 0.6703(4)
H15 H 0.4131 0.7964 0.7245
C20 C 0.35360(12) 0.9444(5) 0.3202(6)
H16 H 0.3601 1.0219 0.3379
H17 H 0.3310 0.9417 0.2840
H18 H 0.3661 0.9117 0.2481
C21 C 0.28459(10) 0.6519(4) 0.6157(4)
C22 C 0.26103(12) 0.5938(5) 0.7063(5)
H19 H 0.2719 0.5729 0.8008
H20 H 0.2526 0.5269 0.6555
H21 H 0.2436 0.6448 0.7203
N1 N 0.44743(8) 0.8412(3) 0.4889(4)
N2 N 0.31022(8) 0.6995(3) 0.6960(3)
H22 H 0.3142(14) 0.683(5) 0.804(7)
O1 O 0.41958(10) 0.7815(3) 0.2495(4)
O2 O 0.47941(10) 0.7703(3) 0.2874(4)
O3 O 0.49262(9) 0.7408(3) 0.6307(5)
O4 O 0.46714(9) 0.9070(4) 0.7381(4)
O5 O 0.28004(8) 0.6541(4) 0.4824(3)
S1 S 0.44872(3) 0.75607(8) 0.34183(11)
S2 S 0.47930(3) 0.85228(10) 0.61633(11)
C23 C 0.65877(10) 0.8882(4) 0.2584(5)
C24 C 0.68526(12) 0.9267(4) 0.3490(5)
H23 H 0.7017 0.8775 0.3860
C25 C 0.68643(16) 1.0430(5) 0.3830(6)
H24 H 0.7039 1.0717 0.4445
C26 C 0.66246(19) 1.1141(5) 0.3274(7)
H25 H 0.6637 1.1912 0.3502
C27 C 0.63648(17) 1.0735(5) 0.2383(7)
H26 H 0.6202 1.1232 0.2010
C28 C 0.63406(13) 0.9606(5) 0.2033(6)
H27 H 0.6162 0.9330 0.1437
C29 C 0.59660(10) 0.5694(4) 0.3443(5)
C30 C 0.57196(12) 0.6201(5) 0.2553(7)
H28 H 0.5715 0.6988 0.2462
C31 C 0.54835(16) 0.5568(7) 0.1805(9)
H29 H 0.5316 0.5923 0.1216
C32 C 0.54908(18) 0.4456(8) 0.1910(9)
H30 H 0.5327 0.4031 0.1391
C33 C 0.5730(2) 0.3913(5) 0.2755(10)
H31 H 0.5732 0.3124 0.2801
C34 C 0.59810(14) 0.4544(4) 0.3577(7)
H32 H 0.6147 0.4187 0.4175
C35 C 0.68534(10) 0.5806(3) 0.3792(5)
H33 H 0.6906 0.5477 0.2870
H34 H 0.6784 0.5194 0.4400
C36 C 0.71533(9) 0.6358(3) 0.4579(4)
C37 C 0.74576(10) 0.6225(3) 0.4104(5)
C38 C 0.77231(10) 0.6763(4) 0.4872(4)
H35 H 0.7928 0.6667 0.4564
C39 C 0.76861(10) 0.7441(3) 0.6094(4)
C40 C 0.73839(10) 0.7548(4) 0.6582(4)
H36 H 0.7357 0.7984 0.7412
C41 C 0.71240(10) 0.7007(4) 0.5831(4)
H37 H 0.6922 0.7077 0.6172
C42 C 0.75164(13) 0.5530(5) 0.2753(6)
H38 H 0.7740 0.5594 0.2579
H39 H 0.7381 0.5808 0.1907
H40 H 0.7466 0.4747 0.2918
C43 C 0.82106(10) 0.8485(4) 0.6336(4)
C44 C 0.84443(12) 0.9071(5) 0.7454(5)
H41 H 0.8644 0.8655 0.7576
H42 H 0.8355 0.9107 0.8383
H43 H 0.8484 0.9827 0.7121
N3 N 0.65808(8) 0.6632(3) 0.3472(4)
N4 N 0.79521(9) 0.8012(3) 0.6884(4)
H44 H 0.7933(14) 0.816(5) 0.770(7)
O6 O 0.68689(9) 0.7194(3) 0.1379(4)
O7 O 0.62730(9) 0.7292(3) 0.1089(4)
O8 O 0.61328(10) 0.7685(3) 0.4430(5)
O9 O 0.63743(10) 0.6005(5) 0.5766(4)
O10 O 0.82579(9) 0.8443(4) 0.5049(3)
S3 S 0.65734(3) 0.74557(9) 0.19700(11)
S4 S 0.62579(3) 0.65628(10) 0.44270(11)
loop_
_geom_bond_atom_site_label_1
_geom_bond_atom_site_label_2
_geom_bond_site_symmetry_1
_geom_bond_site_symmetry_2
C1 C2 1_555 1_555
C2 H1 1_555 1_555
C3 C2 1_555 1_555
H2 C3 1_555 1_555
C4 C3 1_555 1_555
H3 C4 1_555 1_555
C5 C4 1_555 1_555
H4 C5 1_555 1_555
C6 C1 1_555 1_555
H5 C6 1_555 1_555
C7 C8 1_555 1_555
C8 H6 1_555 1_555
C9 C8 1_555 1_555
H7 C9 1_555 1_555
C10 C9 1_555 1_555
H8 C10 1_555 1_555
C11 C10 1_555 1_555
H9 C11 1_555 1_555
C12 C7 1_555 1_555
H10 C12 1_555 1_555
C13 H11 1_555 1_555
H12 C13 1_555 1_555
C14 C13 1_555 1_555
C15 C14 1_555 1_555
C16 C15 1_555 1_555
H13 C16 1_555 1_555
C17 C16 1_555 1_555
C18 C17 1_555 1_555
H14 C18 1_555 1_555
C19 C14 1_555 1_555
H15 C19 1_555 1_555
C20 C15 1_555 1_555
H16 C20 1_555 1_555
H17 C20 1_555 1_555
H18 C20 1_555 1_555
C21 C22 1_555 1_555
C22 H19 1_555 1_555
H20 C22 1_555 1_555
H21 C22 1_555 1_555
N1 C13 1_555 1_555
N2 C17 1_555 1_555
H22 N2 1_555 1_555
O1 S1 1_555 1_555
O2 S1 1_555 1_555
O3 S2 1_555 1_555
O4 S2 1_555 1_555
O5 C21 1_555 1_555
S1 C1 1_555 1_555
S2 C7 1_555 1_555
C23 C24 1_555 1_555
C24 H23 1_555 1_555
C25 C24 1_555 1_555
H24 C25 1_555 1_555
C26 C25 1_555 1_555
H25 C26 1_555 1_555
C27 C26 1_555 1_555
H26 C27 1_555 1_555
C28 C23 1_555 1_555
H27 C28 1_555 1_555
C29 C30 1_555 1_555
C30 H28 1_555 1_555
C31 C30 1_555 1_555
H29 C31 1_555 1_555
C32 C31 1_555 1_555
H30 C32 1_555 1_555
C33 C32 1_555 1_555
H31 C33 1_555 1_555
C34 C29 1_555 1_555
H32 C34 1_555 1_555
C35 H33 1_555 1_555
H34 C35 1_555 1_555
C36 C35 1_555 1_555
C37 C36 1_555 1_555
C38 C37 1_555 1_555
H35 C38 1_555 1_555
C39 C38 1_555 1_555
C40 C39 1_555 1_555
H36 C40 1_555 1_555
C41 C36 1_555 1_555
H37 C41 1_555 1_555
C42 C37 1_555 1_555
H38 C42 1_555 1_555
H39 C42 1_555 1_555
H40 C42 1_555 1_555
C43 C44 1_555 1_555
C44 H41 1_555 1_555
H42 C44 1_555 1_555
H43 C44 1_555 1_555
N3 C35 1_555 1_555
N4 C39 1_555 1_555
H44 N4 1_555 1_555
O6 S3 1_555 1_555
O7 S3 1_555 1_555
O8 S4 1_555 1_555
O9 S4 1_555 1_555
O10 C43 1_555 1_555
S3 C23 1_555 1_555
S4 C29 1_555 1_555
C5 C6 1_555 1_555
C11 C12 1_555 1_555
C18 C19 1_555 1_555
C21 N2 1_555 1_555
N1 S1 1_555 1_555
N1 S2 1_555 1_555
C27 C28 1_555 1_555
C33 C34 1_555 1_555
C40 C41 1_555 1_555
C43 N4 1_555 1_555
N3 S3 1_555 1_555
N3 S4 1_555 1_555

#END
