
#######################################################################
#
#                 Cambridge Crystallographic Data Centre
#                                CCDC 
#
#######################################################################
#
# If this CIF has been generated from an entry in the Cambridge 
# Structural Database, then it will include bibliographic, chemical, 
# crystal, experimental, refinement or atomic coordinate data resulting 
# from the CCDC's data processing and validation procedures.
#
#######################################################################

data_DEPKIV
_chemical_formula_moiety         'C27 H20 Cl1 N1 O3 S1'
_chemical_name_systematic        
"methyl 2-chloro-6-(4-methylphenyl)-6,13-dihydro[1]benzopyrano[4',3':4,5]pyrrolo[2,1-c][1,4]benzothiazine-14-carboxylate"
_symmetry_cell_setting           monoclinic
_symmetry_space_group_name_H-M   'P 21/c'
_symmetry_Int_Tables_number      14
_space_group_name_Hall           '-P 2ybc'
loop_
_symmetry_equiv_pos_site_id
_symmetry_equiv_pos_as_xyz
1 x,y,z
2 -x,1/2+y,1/2-z
3 -x,-y,-z
4 x,1/2-y,1/2+z
_cell_length_a                   19.3568(13)
_cell_length_b                   6.3025(5)
_cell_length_c                   19.1129(15)
_cell_angle_alpha                90
_cell_angle_beta                 94.310(2)
_cell_angle_gamma                90
_cell_volume                     2325.11
_exptl_crystal_colour            colorless
_exptl_crystal_description       block
_cell_formula_units_Z            4
loop_
_atom_site_label
_atom_site_type_symbol
_atom_site_fract_x
_atom_site_fract_y
_atom_site_fract_z
C1 C 0.13983(19) 0.9099(7) 1.0416(2)
H1 H 0.1665 1.0281 1.0325
C2 C 0.0756(2) 0.9372(7) 1.0692(2)
H2 H 0.0601 1.0738 1.0774
C3 C 0.03583(19) 0.7713(8) 1.08406(18)
C4 C -0.0335(2) 0.7997(10) 1.1158(3)
H3 H -0.0275 0.7776 1.1655
H4 H -0.0662 0.6987 1.0953
H5 H -0.0504 0.9409 1.1064
C5 C 0.0602(2) 0.5747(8) 1.0706(3)
H6 H 0.0335 0.4568 1.0800
C6 C 0.1237(2) 0.5452(7) 1.0434(2)
H7 H 0.1392 0.4082 1.0355
C7 C 0.16377(16) 0.7132(5) 1.02792(16)
C8 C 0.23294(16) 0.6761(6) 0.99636(16)
H8 H 0.2569 0.5597 1.0221
C9 C 0.28015(15) 0.8619(5) 0.99813(15)
C10 C 0.28076(16) 1.0066(5) 0.94528(15)
C11 C 0.23050(16) 0.9753(6) 0.88458(15)
C12 C 0.21057(17) 1.1288(6) 0.83394(15)
H9 H 0.2274 1.2667 0.8383
C13 C 0.1656(2) 1.0726(7) 0.77760(17)
C14 C 0.1391(2) 0.8743(8) 0.76957(19)
H10 H 0.1099 0.8403 0.7303
C15 C 0.1561(2) 0.7223(7) 0.82068(19)
H11 H 0.1368 0.5873 0.8170
C16 C 0.20188(17) 0.7737(6) 0.87686(16)
C17 C 0.35303(16) 0.7970(5) 1.11172(14)
C18 C 0.30595(17) 0.6819(6) 1.14722(17)
H12 H 0.2590 0.6890 1.1329
C19 C 0.32805(19) 0.5567(7) 1.20357(18)
H13 H 0.2963 0.4743 1.2257
C20 C 0.3968(2) 0.5532(7) 1.22707(17)
H14 H 0.4118 0.4676 1.2649
C21 C 0.44328(18) 0.6760(6) 1.19471(17)
H15 H 0.4895 0.6762 1.2118
C22 C 0.42266(16) 0.8009(5) 1.13665(15)
C23 C 0.42576(19) 1.1757(6) 1.07192(18)
H16 H 0.4107 1.2437 1.1137
H17 H 0.4499 1.2803 1.0456
C24 C 0.36483(16) 1.0940(5) 1.02850(15)
C25 C 0.33463(16) 1.1561(5) 0.96408(15)
C26 C 0.3599(2) 1.3341(7) 0.9254(2)
C27 C 0.3688(3) 1.5323(10) 0.8230(3)
H18 H 0.3462 1.6484 0.8444
H19 H 0.3540 1.5267 0.7739
H20 H 0.4180 1.5523 0.8285
Cl1 Cl 0.14454(7) 1.2637(2) 0.71274(5)
N1 N 0.33173(12) 0.9150(4) 1.04974(12)
O1 O 0.22020(12) 0.6119(4) 0.92361(11)
O2 O 0.38976(14) 1.4848(4) 0.95591(14)
O3 O 0.35005(13) 1.3276(4) 0.85758(13)
S1 S 0.48349(4) 0.95775(17) 1.09650(5)
C28? C 0.4087(6) 1.627(2) 0.9099(6)
H21? H 0.4469 1.5720 0.8861
H22? H 0.4225 1.7553 0.9339
H23? H 0.3705 1.6555 0.8763
loop_
_geom_bond_atom_site_label_1
_geom_bond_atom_site_label_2
_geom_bond_site_symmetry_1
_geom_bond_site_symmetry_2
C1 H1 1_555 1_555
C2 C1 1_555 1_555
H2 C2 1_555 1_555
C3 C2 1_555 1_555
C4 C3 1_555 1_555
H3 C4 1_555 1_555
H4 C4 1_555 1_555
H5 C4 1_555 1_555
C5 C3 1_555 1_555
H6 C5 1_555 1_555
C6 C5 1_555 1_555
H7 C6 1_555 1_555
C7 C1 1_555 1_555
C8 C7 1_555 1_555
H8 C8 1_555 1_555
C9 C8 1_555 1_555
C10 C9 1_555 1_555
C11 C10 1_555 1_555
C12 C11 1_555 1_555
H9 C12 1_555 1_555
C13 C12 1_555 1_555
C14 C13 1_555 1_555
H10 C14 1_555 1_555
C15 C14 1_555 1_555
H11 C15 1_555 1_555
C16 C11 1_555 1_555
C17 C18 1_555 1_555
C18 H12 1_555 1_555
C19 C18 1_555 1_555
H13 C19 1_555 1_555
C20 C19 1_555 1_555
H14 C20 1_555 1_555
C21 C20 1_555 1_555
H15 C21 1_555 1_555
C22 C17 1_555 1_555
C23 H16 1_555 1_555
H17 C23 1_555 1_555
C24 C23 1_555 1_555
C25 C10 1_555 1_555
C26 C25 1_555 1_555
C27 H18 1_555 1_555
H19 C27 1_555 1_555
H20 C27 1_555 1_555
Cl1 C13 1_555 1_555
N1 C9 1_555 1_555
O1 C8 1_555 1_555
O2 C26 1_555 1_555
O3 C26 1_555 1_555
S1 C22 1_555 1_555
C6 C7 1_555 1_555
C15 C16 1_555 1_555
C16 O1 1_555 1_555
C17 N1 1_555 1_555
C21 C22 1_555 1_555
C23 S1 1_555 1_555
C24 C25 1_555 1_555
C24 N1 1_555 1_555
C27 O3 1_555 1_555

#END
