
#######################################################################
#
#                 Cambridge Crystallographic Data Centre
#                                CCDC 
#
#######################################################################
#
# If this CIF has been generated from an entry in the Cambridge 
# Structural Database, then it will include bibliographic, chemical, 
# crystal, experimental, refinement or atomic coordinate data resulting 
# from the CCDC's data processing and validation procedures.
#
#######################################################################

data_DEPNUK
_chemical_formula_moiety         'C17 H21 N1 O5'
_chemical_name_systematic        
11b-hydroxy-5a,7-dimethyl-1,5a,7,8,8a,9a,10,11,11a,11b-decahydrooxireno[6,7]cyclodeca[1,2,3-cd]indole-2,5,6(4H)-trione
_symmetry_cell_setting           hexagonal
_symmetry_space_group_name_H-M   'P 65'
_symmetry_Int_Tables_number      170
_space_group_name_Hall           'P 65'
loop_
_symmetry_equiv_pos_site_id
_symmetry_equiv_pos_as_xyz
1 x,y,z
2 -y,x-y,2/3+z
3 -x+y,-x,1/3+z
4 -x,-y,1/2+z
5 y,-x+y,1/6+z
6 x-y,x,5/6+z
_cell_length_a                   9.6188(2)
_cell_length_b                   9.6188(2)
_cell_length_c                   29.6268(11)
_cell_angle_alpha                90
_cell_angle_beta                 90
_cell_angle_gamma                120
_cell_volume                     2373.87
_exptl_crystal_description       block
_cell_formula_units_Z            6
loop_
_atom_site_label
_atom_site_type_symbol
_atom_site_fract_x
_atom_site_fract_y
_atom_site_fract_z
N1 N 0.5682(2) 1.1262(2) 0.09043(7)
H1 H 0.5885 1.2203 0.0986
O1 O 0.7874(2) 1.2042(2) 0.04539(7)
O2 O 0.3178(2) 0.8389(2) 0.03669(6)
H2 H 0.3307 0.9277 0.0304
O3 O 0.1131(2) 0.7978(2) 0.18130(7)
O4 O 0.5397(3) 0.3861(2) 0.12247(7)
O5 O 0.6801(2) 0.9068(2) 0.13233(6)
C1 C 0.6662(3) 1.1010(3) 0.06250(8)
C2 C 0.5950(3) 0.9169(3) 0.05778(8)
C3 C 0.4162(3) 0.8526(3) 0.07383(8)
C4 C 0.4349(2) 0.9885(2) 0.10429(7)
C5 C 0.3332(3) 0.9742(3) 0.13724(8)
H3 H 0.3465 1.0648 0.1523
C6 C 0.2026(3) 0.8166(3) 0.14916(9)
C7 C 0.1782(3) 0.6766(3) 0.12059(10)
H4 H 0.1025 0.6613 0.0968
H5 H 0.1295 0.5809 0.1392
C8 C 0.3292(3) 0.6915(2) 0.09887(8)
H6 H 0.3997 0.6938 0.1231
C9 C 0.2850(3) 0.5439(3) 0.06903(10)
H7 H 0.1739 0.4971 0.0597
H8 H 0.3509 0.5788 0.0420
C10 C 0.3074(3) 0.4136(3) 0.09253(10)
H9 H 0.2715 0.4018 0.1236
H10 H 0.2434 0.3115 0.0774
C11 C 0.4801(3) 0.4599(3) 0.09120(9)
H11 H 0.5246 0.4745 0.0607
C12 C 0.5983(3) 0.5574(3) 0.12573(9)
H12 H 0.5553 0.5895 0.1511
C13 C 0.7692(3) 0.6736(3) 0.11395(11)
H13 H 0.8190 0.6151 0.1021
H14 H 0.8266 0.7288 0.1411
C14 C 0.7839(3) 0.7976(3) 0.07909(10)
H15 H 0.7439 0.7439 0.0500
C15 C 0.6859(3) 0.8750(3) 0.09330(8)
C16 C 0.6132(4) 0.8766(3) 0.00881(9)
H16 H 0.7222 0.9444 -0.0008
H17 H 0.5427 0.8940 -0.0103
H18 H 0.5862 0.7663 0.0069
C17 C 0.9590(4) 0.9338(4) 0.07331(16)
H19 H 0.9627 1.0115 0.0523
H20 H 1.0229 0.8902 0.0621
H21 H 1.0005 0.9845 0.1019
loop_
_geom_bond_atom_site_label_1
_geom_bond_atom_site_label_2
_geom_bond_site_symmetry_1
_geom_bond_site_symmetry_2
N1 H1 1_555 1_555
O1 C1 1_555 1_555
O2 H2 1_555 1_555
O3 C6 1_555 1_555
O4 C11 1_555 1_555
O5 C15 1_555 1_555
C1 N1 1_555 1_555
C2 C1 1_555 1_555
C3 O2 1_555 1_555
C4 N1 1_555 1_555
C5 C4 1_555 1_555
H3 C5 1_555 1_555
C6 C5 1_555 1_555
C7 C6 1_555 1_555
H4 C7 1_555 1_555
H5 C7 1_555 1_555
C8 C3 1_555 1_555
H6 C8 1_555 1_555
C9 C8 1_555 1_555
H7 C9 1_555 1_555
H8 C9 1_555 1_555
C10 C9 1_555 1_555
H9 C10 1_555 1_555
H10 C10 1_555 1_555
C11 C10 1_555 1_555
H11 C11 1_555 1_555
C12 O4 1_555 1_555
H12 C12 1_555 1_555
C13 C12 1_555 1_555
H13 C13 1_555 1_555
H14 C13 1_555 1_555
C14 C13 1_555 1_555
H15 C14 1_555 1_555
C15 C2 1_555 1_555
C16 C2 1_555 1_555
H16 C16 1_555 1_555
H17 C16 1_555 1_555
H18 C16 1_555 1_555
C17 C14 1_555 1_555
H19 C17 1_555 1_555
H20 C17 1_555 1_555
H21 C17 1_555 1_555
C2 C3 1_555 1_555
C3 C4 1_555 1_555
C7 C8 1_555 1_555
C11 C12 1_555 1_555
C14 C15 1_555 1_555

#END
