
#######################################################################
#
#                 Cambridge Crystallographic Data Centre
#                                CCDC 
#
#######################################################################
#
# If this CIF has been generated from an entry in the Cambridge 
# Structural Database, then it will include bibliographic, chemical, 
# crystal, experimental, refinement or atomic coordinate data resulting 
# from the CCDC's data processing and validation procedures.
#
#######################################################################

data_DEPPIA
_chemical_formula_moiety         'C17 H19 N1 O5,1.53(H2 O1)'
_chemical_name_systematic        
'7-hydroxy-2a,4-dimethyl-4,5,6,7,8,9-hexahydro-1H-6,12b-epoxycyclodeca[cd]indole-2,3,11(2aH)-trione hydrate'
_symmetry_cell_setting           trigonal
_symmetry_space_group_name_H-M   'P 31 2 1'
_symmetry_Int_Tables_number      152
_space_group_name_Hall           'P 31 2"'
loop_
_symmetry_equiv_pos_site_id
_symmetry_equiv_pos_as_xyz
1 x,y,z
2 -y,x-y,1/3+z
3 -x+y,-x,2/3+z
4 y,x,-z
5 x-y,-y,2/3-z
6 -x,-x+y,1/3-z
_cell_length_a                   8.6844(2)
_cell_length_b                   8.6844(2)
_cell_length_c                   39.0175(10)
_cell_angle_alpha                90
_cell_angle_beta                 90
_cell_angle_gamma                120
_cell_volume                     2548.41
_exptl_crystal_colour            colorless
_exptl_crystal_description       block
_cell_formula_units_Z            6
loop_
_atom_site_label
_atom_site_type_symbol
_atom_site_fract_x
_atom_site_fract_y
_atom_site_fract_z
O1 O 0.1391(3) 0.2209(3) 0.27564(4)
O2 O -0.2051(3) 0.1081(3) 0.30169(5)
H1 H -0.2794 0.1398 0.3004
O3 O 0.6083(3) 0.4123(4) 0.23192(7)
O4 O 0.2559(4) 0.2126(4) 0.17310(6)
N1 N 0.4896(3) 0.5129(4) 0.27293(6)
H2 H 0.5759 0.5546 0.2874
O5 O 0.1088(4) 0.7222(4) 0.31261(7)
C1 C 0.1951(4) 0.3760(4) 0.25456(6)
C2 C 0.0406(4) 0.4038(4) 0.24768(6)
C3 C 0.3364(4) 0.5204(4) 0.27728(7)
C4 C 0.3136(4) 0.3809(4) 0.22395(7)
C5 C 0.0185(4) 0.5182(4) 0.26710(7)
H3 H -0.0819 0.5282 0.2634
C6 C -0.0978(4) 0.2817(4) 0.22266(7)
H4 H -0.0420 0.2458 0.2053
H5 H -0.1487 0.3453 0.2113
C7 C -0.1931(4) 0.0356(4) 0.26938(7)
H6 H -0.2816 -0.0914 0.2699
C8 C 0.2574(4) 0.2098(4) 0.20408(7)
C9 C 0.1437(4) 0.6288(4) 0.29391(8)
C10 C -0.0110(4) 0.0491(4) 0.26723(8)
H7 H -0.0132 -0.0294 0.2855
C11 C 0.2046(5) 0.0400(4) 0.22332(8)
H8 H 0.2785 0.0679 0.2439
C12 C 0.3108(4) 0.6306(4) 0.29680(8)
C13 C 0.0100(5) -0.0345(4) 0.23418(8)
H9 H -0.0533 -0.0146 0.2158
H10 H -0.0445 -0.1620 0.2375
C14 C 0.3526(5) 0.5363(5) 0.20030(8)
H11 H 0.2461 0.5113 0.1882
H12 H 0.4429 0.5529 0.1841
H13 H 0.3932 0.6425 0.2137
C15 C -0.2458(4) 0.1167(5) 0.23997(8)
H14 H -0.3048 0.0259 0.2226
H15 H -0.3325 0.1461 0.2487
C16 C 0.4884(4) 0.4311(4) 0.24283(8)
C17 C 0.2288(6) -0.0917(5) 0.20147(11)
H16 H 0.1621 -0.1146 0.1806
H17 H 0.1871 -0.2009 0.2139
H18 H 0.3525 -0.0428 0.1961
H19 H 0.393(5) 0.708(5) 0.3140(9)
O6 O -0.2270(3) 0.6956(3) 0.31696(5)
O7 O 0.3660(7) 0.9186(7) 0.36158(13)
loop_
_geom_bond_atom_site_label_1
_geom_bond_atom_site_label_2
_geom_bond_site_symmetry_1
_geom_bond_site_symmetry_2
O1 C1 1_555 1_555
O2 H1 1_555 1_555
O3 C16 1_555 1_555
O4 C8 1_555 1_555
N1 H2 1_555 1_555
O5 C9 1_555 1_555
C1 C2 1_555 1_555
C2 C5 1_555 1_555
C3 N1 1_555 1_555
C4 C1 1_555 1_555
C5 H3 1_555 1_555
C6 C2 1_555 1_555
H4 C6 1_555 1_555
H5 C6 1_555 1_555
C7 O2 1_555 1_555
H6 C7 1_555 1_555
C8 C4 1_555 1_555
C9 C5 1_555 1_555
C10 O1 1_555 1_555
H7 C10 1_555 1_555
C11 C8 1_555 1_555
H8 C11 1_555 1_555
C12 C3 1_555 1_555
C13 C10 1_555 1_555
H9 C13 1_555 1_555
H10 C13 1_555 1_555
C14 C4 1_555 1_555
H11 C14 1_555 1_555
H12 C14 1_555 1_555
H13 C14 1_555 1_555
C15 C6 1_555 1_555
H14 C15 1_555 1_555
H15 C15 1_555 1_555
C16 N1 1_555 1_555
C17 C11 1_555 1_555
H16 C17 1_555 1_555
H17 C17 1_555 1_555
H18 C17 1_555 1_555
H19 C12 1_555 1_555
C1 C3 1_555 1_555
C4 C16 1_555 1_555
C7 C10 1_555 1_555
C7 C15 1_555 1_555
C9 C12 1_555 1_555
C11 C13 1_555 1_555

#END
