
#######################################################################
#
#                 Cambridge Crystallographic Data Centre
#                                CCDC 
#
#######################################################################
#
# If this CIF has been generated from an entry in the Cambridge 
# Structural Database, then it will include bibliographic, chemical, 
# crystal, experimental, refinement or atomic coordinate data resulting 
# from the CCDC's data processing and validation procedures.
#
#######################################################################

data_DEPREY
_chemical_formula_moiety         'C9 H11 N1 O5 S2'
_chemical_name_systematic        N,N-bis(methanesulfonyl)benzamide
_symmetry_cell_setting           triclinic
_symmetry_space_group_name_H-M   'P -1'
_symmetry_Int_Tables_number      2
_space_group_name_Hall           '-P 1'
loop_
_symmetry_equiv_pos_site_id
_symmetry_equiv_pos_as_xyz
1 x,y,z
2 -x,-y,-z
_cell_length_a                   5.6590(11)
_cell_length_b                   7.7727(15)
_cell_length_c                   14.141(3)
_cell_angle_alpha                98.116(6)
_cell_angle_beta                 97.000(6)
_cell_angle_gamma                94.703(5)
_cell_volume                     608.06
_exptl_crystal_colour            colorless
_exptl_crystal_description       block
_cell_formula_units_Z            2
loop_
_atom_site_label
_atom_site_type_symbol
_atom_site_fract_x
_atom_site_fract_y
_atom_site_fract_z
S1 S 0.3182(2) 0.43012(16) 0.32123(9)
S2 S 0.4253(2) 0.08070(16) 0.35736(9)
O1 O 0.5279(7) -0.0576(5) 0.3052(3)
O2 O 0.5604(7) 0.1787(5) 0.4424(3)
O3 O 0.1865(8) 0.4204(6) 0.4003(3)
O4 O 0.2094(8) 0.4912(5) 0.2379(3)
O5 O 0.1159(7) 0.0420(5) 0.1643(3)
N1 N 0.3794(7) 0.2255(5) 0.2802(3)
C1 C 0.2831(8) 0.1498(6) 0.1784(3)
C2 C 0.4163(8) 0.2108(5) 0.1041(3)
C3 C 0.6474(9) 0.2938(6) 0.1247(4)
H1 H 0.7230 0.3165 0.1880
C4 C 0.7653(10) 0.3426(7) 0.0509(4)
H2 H 0.9195 0.3995 0.0644
C5 C 0.6516(11) 0.3061(7) -0.0433(4)
H3 H 0.7308 0.3382 -0.0930
C6 C 0.4228(10) 0.2228(7) -0.0642(4)
H4 H 0.3484 0.1995 -0.1277
C7 C 0.3038(9) 0.1738(6) 0.0089(3)
H5 H 0.1500 0.1165 -0.0051
C8 C 0.1425(11) 0.0041(9) 0.3823(5)
H6 H 0.0504 -0.0583 0.3243
H7 H 0.0612 0.1013 0.4065
H8 H 0.1611 -0.0726 0.4297
C9 C 0.5990(11) 0.5451(7) 0.3624(4)
H9 H 0.5789 0.6595 0.3941
H10 H 0.6852 0.5554 0.3087
H11 H 0.6870 0.4836 0.4070
loop_
_geom_bond_atom_site_label_1
_geom_bond_atom_site_label_2
_geom_bond_site_symmetry_1
_geom_bond_site_symmetry_2
S1 O3 1_555 1_555
S2 O1 1_555 1_555
O2 S2 1_555 1_555
O4 S1 1_555 1_555
O5 C1 1_555 1_555
N1 S1 1_555 1_555
C1 N1 1_555 1_555
C2 C1 1_555 1_555
C3 C2 1_555 1_555
H1 C3 1_555 1_555
C4 C3 1_555 1_555
H2 C4 1_555 1_555
C5 C4 1_555 1_555
H3 C5 1_555 1_555
C6 C5 1_555 1_555
H4 C6 1_555 1_555
C7 C2 1_555 1_555
H5 C7 1_555 1_555
C8 S2 1_555 1_555
H6 C8 1_555 1_555
H7 C8 1_555 1_555
H8 C8 1_555 1_555
C9 S1 1_555 1_555
H9 C9 1_555 1_555
H10 C9 1_555 1_555
H11 C9 1_555 1_555
S2 N1 1_555 1_555
C6 C7 1_555 1_555

#END
