
#######################################################################
#
#                 Cambridge Crystallographic Data Centre
#                                CCDC 
#
#######################################################################
#
# If this CIF has been generated from an entry in the Cambridge 
# Structural Database, then it will include bibliographic, chemical, 
# crystal, experimental, refinement or atomic coordinate data resulting 
# from the CCDC's data processing and validation procedures.
#
#######################################################################

data_DEPVAY
_chemical_formula_moiety         'C19 H11 F2 N3'
_chemical_name_systematic        
1-{4-[(4-aminophenyl)ethynyl]phenyl}-3,4-difluoro-1H-pyrrole-2-carbonitrile
_symmetry_cell_setting           triclinic
_symmetry_space_group_name_H-M   'P -1'
_symmetry_Int_Tables_number      2
_space_group_name_Hall           '-P 1'
loop_
_symmetry_equiv_pos_site_id
_symmetry_equiv_pos_as_xyz
1 x,y,z
2 -x,-y,-z
_cell_length_a                   9.965(3)
_cell_length_b                   11.644(4)
_cell_length_c                   15.036(4)
_cell_angle_alpha                106.434(7)
_cell_angle_beta                 92.183(7)
_cell_angle_gamma                110.531(7)
_cell_volume                     1548.68
_exptl_crystal_colour            colorless
_exptl_crystal_description       prismatic
_cell_formula_units_Z            4
loop_
_atom_site_label
_atom_site_type_symbol
_atom_site_fract_x
_atom_site_fract_y
_atom_site_fract_z
F1 F -0.0079(2) 0.7364(2) 0.09163(15)
F2 F 0.1729(2) 0.6129(2) -0.01839(13)
N1 N 0.1431(3) 0.5767(3) 0.20442(16)
N2 N 0.3453(4) 0.4146(4) 0.0700(2)
N3 N 0.3842(4) 0.2088(4) 0.8703(2)
H1 H 0.4087 0.1432 0.8632
H2 H 0.3801 0.2540 0.9256
C1 C 0.0592(3) 0.6466(3) 0.2027(2)
H3 H 0.0093 0.6738 0.2501
C2 C 0.0618(4) 0.6694(3) 0.1190(3)
C3 C 0.1468(4) 0.6131(3) 0.0683(2)
C4 C 0.1983(3) 0.5554(3) 0.1207(2)
C5 C 0.2795(4) 0.4781(4) 0.0946(2)
C6 C 0.1672(3) 0.5316(3) 0.2802(2)
C7 C 0.3059(3) 0.5454(3) 0.3111(2)
H4 H 0.3836 0.5854 0.2838
C8 C 0.3277(3) 0.4991(3) 0.3830(2)
H5 H 0.4206 0.5061 0.4028
C9 C 0.2139(4) 0.4422(3) 0.4262(2)
C10 C 0.0754(3) 0.4321(3) 0.3954(2)
H6 H -0.0022 0.3956 0.4242
C11 C 0.0533(3) 0.4760(3) 0.3227(2)
H7 H -0.0396 0.4680 0.3019
C12 C 0.2383(3) 0.3930(3) 0.5001(2)
C13 C 0.2617(3) 0.3552(3) 0.5620(2)
C14 C 0.2915(3) 0.3144(3) 0.6398(2)
C15 C 0.3275(4) 0.2078(4) 0.6281(2)
H8 H 0.3321 0.1598 0.5681
C16 C 0.3566(4) 0.1711(4) 0.7031(3)
H9 H 0.3801 0.0983 0.6932
C17 C 0.3518(4) 0.2409(4) 0.7939(2)
C18 C 0.3153(4) 0.3482(4) 0.8056(2)
H10 H 0.3108 0.3966 0.8655
C19 C 0.2861(3) 0.3835(3) 0.7304(2)
H11 H 0.2620 0.4558 0.7401
F3 F 0.0179(2) 1.2304(3) 0.12784(17)
F4 F 0.1794(2) 1.0985(2) 0.00547(14)
N4 N 0.1644(3) 1.0533(3) 0.22578(18)
N5 N 0.3628(4) 0.8990(3) 0.0789(2)
N6 N 0.4607(3) 0.7344(3) 0.8997(2)
H12 H 0.4315 0.7635 0.9513
H13 H 0.5192 0.6947 0.8986
C20 C 0.0873(4) 1.1297(4) 0.2309(3)
H14 H 0.0443 1.1584 0.2820
C21 C 0.0829(4) 1.1573(4) 0.1501(3)
C22 C 0.1587(4) 1.0968(4) 0.0926(2)
C23 C 0.2110(3) 1.0336(3) 0.1392(2)
C24 C 0.2938(4) 0.9576(4) 0.1074(2)
C25 C 0.1836(3) 0.9968(3) 0.2955(2)
C26 C 0.3132(3) 0.9848(3) 0.3144(2)
H15 H 0.3881 1.0118 0.2808
C27 C 0.3312(3) 0.9328(4) 0.3829(2)
H16 H 0.4188 0.9242 0.3949
C28 C 0.2222(4) 0.8926(3) 0.4350(2)
C29 C 0.0921(4) 0.9056(3) 0.4155(2)
H17 H 0.0173 0.8797 0.4494
C30 C 0.0731(3) 0.9567(3) 0.3460(2)
H18 H -0.0148 0.9643 0.3330
C31 C 0.2478(4) 0.8448(4) 0.5096(3)
C32 C 0.2796(4) 0.8154(4) 0.5744(3)
C33 C 0.3217(4) 0.7884(3) 0.6558(2)
C34 C 0.4153(4) 0.7243(3) 0.6554(2)
H19 H 0.4476 0.6932 0.5997
C35 C 0.4618(4) 0.7058(3) 0.7358(2)
H20 H 0.5250 0.6627 0.7339
C36 C 0.4145(4) 0.7512(3) 0.8198(2)
C37 C 0.3206(4) 0.8148(4) 0.8202(2)
H21 H 0.2876 0.8456 0.8756
C38 C 0.2757(3) 0.8328(4) 0.7399(2)
H22 H 0.2127 0.8761 0.7419
loop_
_geom_bond_atom_site_label_1
_geom_bond_atom_site_label_2
_geom_bond_site_symmetry_1
_geom_bond_site_symmetry_2
F1 C2 1_555 1_555
F2 C3 1_555 1_555
N1 C1 1_555 1_555
N2 C5 1_555 1_555
N3 H1 1_555 1_555
H2 N3 1_555 1_555
C1 H3 1_555 1_555
C2 C1 1_555 1_555
C3 C2 1_555 1_555
C4 N1 1_555 1_555
C5 C4 1_555 1_555
C6 N1 1_555 1_555
C7 C6 1_555 1_555
H4 C7 1_555 1_555
C8 C7 1_555 1_555
H5 C8 1_555 1_555
C9 C8 1_555 1_555
C10 C9 1_555 1_555
H6 C10 1_555 1_555
C11 C6 1_555 1_555
H7 C11 1_555 1_555
C12 C9 1_555 1_555
C13 C12 1_555 1_555
C14 C13 1_555 1_555
C15 C14 1_555 1_555
H8 C15 1_555 1_555
C16 C15 1_555 1_555
H9 C16 1_555 1_555
C17 N3 1_555 1_555
C18 C17 1_555 1_555
H10 C18 1_555 1_555
C19 C14 1_555 1_555
H11 C19 1_555 1_555
F3 C21 1_555 1_555
F4 C22 1_555 1_555
N4 C20 1_555 1_555
N5 C24 1_555 1_555
N6 H12 1_555 1_555
H13 N6 1_555 1_555
C20 H14 1_555 1_555
C21 C20 1_555 1_555
C22 C21 1_555 1_555
C23 N4 1_555 1_555
C24 C23 1_555 1_555
C25 N4 1_555 1_555
C26 C25 1_555 1_555
H15 C26 1_555 1_555
C27 C26 1_555 1_555
H16 C27 1_555 1_555
C28 C27 1_555 1_555
C29 C28 1_555 1_555
H17 C29 1_555 1_555
C30 C25 1_555 1_555
H18 C30 1_555 1_555
C31 C28 1_555 1_555
C32 C31 1_555 1_555
C33 C32 1_555 1_555
C34 C33 1_555 1_555
H19 C34 1_555 1_555
C35 C34 1_555 1_555
H20 C35 1_555 1_555
C36 N6 1_555 1_555
C37 C36 1_555 1_555
H21 C37 1_555 1_555
C38 C33 1_555 1_555
H22 C38 1_555 1_555
C3 C4 1_555 1_555
C10 C11 1_555 1_555
C16 C17 1_555 1_555
C18 C19 1_555 1_555
C22 C23 1_555 1_555
C29 C30 1_555 1_555
C35 C36 1_555 1_555
C37 C38 1_555 1_555

#END
