
#######################################################################
#
#                 Cambridge Crystallographic Data Centre
#                                CCDC 
#
#######################################################################
#
# If this CIF has been generated from an entry in the Cambridge 
# Structural Database, then it will include bibliographic, chemical, 
# crystal, experimental, refinement or atomic coordinate data resulting 
# from the CCDC's data processing and validation procedures.
#
#######################################################################

data_DEPWON
_chemical_formula_moiety         'C23 H24 N2 O3'
_chemical_name_systematic        
2-[4-(2-oxo-1-phenylpiperidin-3-yl)butyl]-1H-isoindole-1,3(2H)-dione
_symmetry_cell_setting           monoclinic
_symmetry_space_group_name_H-M   'P 21'
_symmetry_Int_Tables_number      4
_space_group_name_Hall           'P 2yb'
loop_
_symmetry_equiv_pos_site_id
_symmetry_equiv_pos_as_xyz
1 x,y,z
2 -x,1/2+y,-z
_cell_length_a                   6.3179(5)
_cell_length_b                   9.0668(5)
_cell_length_c                   16.8138(14)
_cell_angle_alpha                90
_cell_angle_beta                 99.051(7)
_cell_angle_gamma                90
_cell_volume                     951.155
_exptl_crystal_colour            colorless
_exptl_crystal_description       block
_cell_formula_units_Z            2
loop_
_atom_site_label
_atom_site_type_symbol
_atom_site_fract_x
_atom_site_fract_y
_atom_site_fract_z
O1 O 0.51218(12) 0.48102(9) 0.40006(5)
O2 O -0.07588(13) 0.53734(11) 0.73757(5)
O3 O 0.52792(13) 0.48586(10) 0.92514(5)
N1 N 0.82759(14) 0.37223(10) 0.38464(5)
N2 N 0.24662(14) 0.48702(11) 0.81871(5)
C1 C 0.82015(17) 0.43047(12) 0.30471(6)
C2 C 0.63193(18) 0.42155(13) 0.24859(7)
H1 H 0.5062 0.3797 0.2636
C3 C 0.62942(19) 0.47415(14) 0.17060(7)
H2 H 0.5011 0.4684 0.1328
C4 C 0.8122(2) 0.53500(14) 0.14742(7)
H3 H 0.8094 0.5708 0.0942
C5 C 0.99886(18) 0.54271(13) 0.20304(7)
H4 H 1.1245 0.5841 0.1876
C6 C 1.00432(17) 0.49042(12) 0.28137(6)
H5 H 1.1334 0.4956 0.3188
C7 C 0.66520(16) 0.40356(12) 0.42789(6)
C8 C 0.67269(16) 0.33339(11) 0.51133(6)
H6 H 0.5809 0.2431 0.5033
C9 C 0.89531(17) 0.28169(12) 0.55061(6)
H7 H 0.9833 0.3679 0.5713
H8 H 0.8822 0.2160 0.5966
C10 C 1.00355(18) 0.19957(12) 0.48928(7)
H9 H 1.1456 0.1635 0.5153
H10 H 0.9157 0.1131 0.4689
C11 C 1.03083(17) 0.30036(13) 0.41960(6)
H11 H 1.1385 0.3771 0.4387
H12 H 1.0855 0.2422 0.3773
C12 C 0.56778(16) 0.43587(12) 0.56650(6)
H13 H 0.6659 0.5193 0.5831
H14 H 0.4345 0.4769 0.5356
C13 C 0.51363(17) 0.35995(12) 0.64180(6)
H15 H 0.4152 0.2764 0.6257
H16 H 0.6464 0.3198 0.6735
C14 C 0.40883(17) 0.46634(12) 0.69405(6)
H17 H 0.5126 0.5443 0.7149
H18 H 0.2843 0.5143 0.6609
C15 C 0.33496(19) 0.38626(13) 0.76436(7)
H19 H 0.2244 0.3128 0.7432
H20 H 0.4579 0.3325 0.7950
C16 C 0.04585(17) 0.55403(12) 0.80006(6)
C17 C 0.01965(17) 0.64484(12) 0.87161(7)
C18 C -0.15237(18) 0.72744(13) 0.88761(7)
H21 H -0.2803 0.7349 0.8497
C19 C -0.1306(2) 0.79966(13) 0.96184(7)
H22 H -0.2472 0.8557 0.9751
C20 C 0.0585(2) 0.79105(14) 1.01670(7)
H23 H 0.0703 0.8438 1.0660
C21 C 0.23110(19) 0.70623(13) 1.00043(7)
H24 H 0.3601 0.6993 1.0378
C22 C 0.20594(17) 0.63277(12) 0.92745(6)
C23 C 0.35347(17) 0.52921(13) 0.89422(6)
loop_
_geom_bond_atom_site_label_1
_geom_bond_atom_site_label_2
_geom_bond_site_symmetry_1
_geom_bond_site_symmetry_2
O1 C7 1_555 1_555
O2 C16 1_555 1_555
O3 C23 1_555 1_555
N1 C1 1_555 1_555
N2 C15 1_555 1_555
C1 C2 1_555 1_555
C2 H1 1_555 1_555
C3 C2 1_555 1_555
H2 C3 1_555 1_555
C4 C3 1_555 1_555
H3 C4 1_555 1_555
C5 C4 1_555 1_555
H4 C5 1_555 1_555
C6 C1 1_555 1_555
H5 C6 1_555 1_555
C7 N1 1_555 1_555
C8 C7 1_555 1_555
H6 C8 1_555 1_555
C9 C8 1_555 1_555
H7 C9 1_555 1_555
H8 C9 1_555 1_555
C10 C9 1_555 1_555
H9 C10 1_555 1_555
H10 C10 1_555 1_555
C11 N1 1_555 1_555
H11 C11 1_555 1_555
H12 C11 1_555 1_555
C12 C8 1_555 1_555
H13 C12 1_555 1_555
H14 C12 1_555 1_555
C13 C12 1_555 1_555
H15 C13 1_555 1_555
H16 C13 1_555 1_555
C14 C13 1_555 1_555
H17 C14 1_555 1_555
H18 C14 1_555 1_555
C15 C14 1_555 1_555
H19 C15 1_555 1_555
H20 C15 1_555 1_555
C16 N2 1_555 1_555
C17 C16 1_555 1_555
C18 C17 1_555 1_555
H21 C18 1_555 1_555
C19 C18 1_555 1_555
H22 C19 1_555 1_555
C20 C19 1_555 1_555
H23 C20 1_555 1_555
C21 C20 1_555 1_555
H24 C21 1_555 1_555
C22 C17 1_555 1_555
C23 N2 1_555 1_555
C5 C6 1_555 1_555
C10 C11 1_555 1_555
C21 C22 1_555 1_555
C22 C23 1_555 1_555

#END
