
#######################################################################
#
#                 Cambridge Crystallographic Data Centre
#                                CCDC 
#
#######################################################################
#
# If this CIF has been generated from an entry in the Cambridge 
# Structural Database, then it will include bibliographic, chemical, 
# crystal, experimental, refinement or atomic coordinate data resulting 
# from the CCDC's data processing and validation procedures.
#
#######################################################################

data_DEPWED
_chemical_formula_moiety         'C23 H25 F1 N2 O3'
_chemical_name_systematic        
6-(1,3-dioxo-1,3-dihydro-2H-isoindol-2-yl)-2-fluoro-N-phenyl-N-(propan-2-yl)hexanamide
_symmetry_cell_setting           orthorhombic
_symmetry_space_group_name_H-M   'P 21 21 2'
_symmetry_Int_Tables_number      18
_space_group_name_Hall           'P 2 2ab'
loop_
_symmetry_equiv_pos_site_id
_symmetry_equiv_pos_as_xyz
1 x,y,z
2 -x,-y,z
3 1/2-x,1/2+y,-z
4 1/2+x,1/2-y,-z
_cell_length_a                   14.8771(11)
_cell_length_b                   17.9770(13)
_cell_length_c                   7.8036(6)
_cell_angle_alpha                90
_cell_angle_beta                 90
_cell_angle_gamma                90
_cell_volume                     2087.04
_exptl_crystal_colour            colorless
_exptl_crystal_description       Block
_cell_formula_units_Z            4
loop_
_atom_site_label
_atom_site_type_symbol
_atom_site_fract_x
_atom_site_fract_y
_atom_site_fract_z
F1 F 0.41470(5) 0.45472(4) 0.32126(11)
O1 O 0.38823(6) 0.40860(6) 0.64716(14)
O2 O 0.56283(6) 0.08752(5) 0.39097(11)
O3 O 0.39765(6) 0.10740(5) -0.10129(12)
N1 N 0.52982(6) 0.36063(6) 0.64136(13)
N2 N 0.46009(6) 0.09806(5) 0.16939(13)
C1 C 0.60695(7) 0.33841(6) 0.54101(14)
C2 C 0.66390(7) 0.39272(7) 0.47389(16)
H1 H 0.6549 0.4436 0.5016
C3 C 0.73388(8) 0.37177(7) 0.36613(16)
H2 H 0.7720 0.4086 0.3179
C4 C 0.74833(8) 0.29716(8) 0.32869(17)
H3 H 0.7959 0.2832 0.2542
C5 C 0.69323(7) 0.24293(7) 0.39998(16)
H4 H 0.7039 0.1919 0.3761
C6 C 0.62234(7) 0.26347(7) 0.50650(15)
H5 H 0.5846 0.2265 0.5554
C7 C 0.53686(8) 0.36144(7) 0.83160(16)
H6 H 0.4778 0.3790 0.8776
C8 C 0.60803(11) 0.41632(8) 0.89013(18)
H7 H 0.6674 0.3991 0.8528
H8 H 0.6069 0.4201 1.0154
H9 H 0.5958 0.4652 0.8400
C9 C 0.55312(13) 0.28412(8) 0.90258(19)
H10 H 0.5050 0.2508 0.8644
H11 H 0.5538 0.2861 1.0281
H12 H 0.6111 0.2655 0.8612
C10 C 0.45326(7) 0.38596(6) 0.56641(16)
C11 C 0.44769(8) 0.38466(6) 0.37011(16)
H13 H 0.5086 0.3761 0.3196
C12 C 0.38216(7) 0.32648(6) 0.30582(17)
H14 H 0.3730 0.3339 0.1813
H15 H 0.3235 0.3343 0.3630
C13 C 0.41218(7) 0.24629(6) 0.33650(15)
H16 H 0.4729 0.2389 0.2876
H17 H 0.4156 0.2367 0.4613
C14 C 0.34687(7) 0.19147(7) 0.25448(16)
H18 H 0.2875 0.1963 0.3106
H19 H 0.3393 0.2044 0.1320
C15 C 0.37825(8) 0.11111(7) 0.26832(16)
H20 H 0.3896 0.0990 0.3902
H21 H 0.3301 0.0777 0.2262
C16 C 0.46196(8) 0.09735(6) -0.00985(15)
C17 C 0.54542(7) 0.08805(6) 0.23949(14)
C18 C 0.60737(7) 0.07849(6) 0.09150(14)
C19 C 0.55727(8) 0.08306(6) -0.05799(14)
C20 C 0.59559(9) 0.07469(7) -0.21800(15)
H22 H 0.5609 0.0781 -0.3199
C21 C 0.68801(9) 0.06097(7) -0.22233(17)
H23 H 0.7170 0.0546 -0.3298
C22 C 0.73826(8) 0.05639(7) -0.07288(18)
H24 H 0.8009 0.0468 -0.0804
C23 C 0.69911(7) 0.06553(6) 0.08822(16)
H25 H 0.7336 0.0630 0.1905
loop_
_geom_bond_atom_site_label_1
_geom_bond_atom_site_label_2
_geom_bond_site_symmetry_1
_geom_bond_site_symmetry_2
F1 C11 1_555 1_555
O1 C10 1_555 1_555
O2 C17 1_555 1_555
O3 C16 1_555 1_555
N1 C1 1_555 1_555
N2 C15 1_555 1_555
C1 C2 1_555 1_555
C2 H1 1_555 1_555
C3 C2 1_555 1_555
H2 C3 1_555 1_555
C4 C3 1_555 1_555
H3 C4 1_555 1_555
C5 C4 1_555 1_555
H4 C5 1_555 1_555
C6 C1 1_555 1_555
H5 C6 1_555 1_555
C7 N1 1_555 1_555
H6 C7 1_555 1_555
C8 C7 1_555 1_555
H7 C8 1_555 1_555
H8 C8 1_555 1_555
H9 C8 1_555 1_555
C9 C7 1_555 1_555
H10 C9 1_555 1_555
H11 C9 1_555 1_555
H12 C9 1_555 1_555
C10 N1 1_555 1_555
C11 C10 1_555 1_555
H13 C11 1_555 1_555
C12 C11 1_555 1_555
H14 C12 1_555 1_555
H15 C12 1_555 1_555
C13 C12 1_555 1_555
H16 C13 1_555 1_555
H17 C13 1_555 1_555
C14 C13 1_555 1_555
H18 C14 1_555 1_555
H19 C14 1_555 1_555
C15 C14 1_555 1_555
H20 C15 1_555 1_555
H21 C15 1_555 1_555
C16 N2 1_555 1_555
C17 N2 1_555 1_555
C18 C17 1_555 1_555
C19 C16 1_555 1_555
C20 C19 1_555 1_555
H22 C20 1_555 1_555
C21 C20 1_555 1_555
H23 C21 1_555 1_555
C22 C21 1_555 1_555
H24 C22 1_555 1_555
C23 C18 1_555 1_555
H25 C23 1_555 1_555
C5 C6 1_555 1_555
C18 C19 1_555 1_555
C22 C23 1_555 1_555

#END
