
#######################################################################
#
#                 Cambridge Crystallographic Data Centre
#                                CCDC 
#
#######################################################################
#
# If this CIF has been generated from an entry in the Cambridge 
# Structural Database, then it will include bibliographic, chemical, 
# crystal, experimental, refinement or atomic coordinate data resulting 
# from the CCDC's data processing and validation procedures.
#
#######################################################################

data_DEPXEE
_chemical_formula_moiety         'C34 H46 N2 O9 S1 Si1'
_chemical_name_systematic        
'methyl 9-methoxy-6-[(4-nitrophenyl)sulfonyl]-4-oxo-7-({[tris(propan-2-yl)silyl]oxy}methyl)-2,3,4,4a,5,6,6a,7-octahydro-1H-indeno[2,1-c]isoindole-5-carboxylate'
_symmetry_cell_setting           monoclinic
_symmetry_space_group_name_H-M   'P 21/n'
_symmetry_Int_Tables_number      14
_space_group_name_Hall           '-P 2yn'
loop_
_symmetry_equiv_pos_site_id
_symmetry_equiv_pos_as_xyz
1 x,y,z
2 1/2-x,1/2+y,1/2-z
3 -x,-y,-z
4 1/2+x,1/2-y,1/2+z
_cell_length_a                   12.0460(3)
_cell_length_b                   11.7751(3)
_cell_length_c                   25.1983(7)
_cell_angle_alpha                90
_cell_angle_beta                 99.584(3)
_cell_angle_gamma                90
_cell_volume                     3524.31
_exptl_crystal_colour            colorless
_exptl_crystal_description       Block
_cell_formula_units_Z            4
loop_
_atom_site_label
_atom_site_type_symbol
_atom_site_fract_x
_atom_site_fract_y
_atom_site_fract_z
S1 S 0.80281(4) 0.25356(4) 0.39424(2)
Si1 Si 0.32672(5) 0.19417(5) 0.38493(2)
O1 O 0.43892(11) 0.21624(13) 0.35643(5)
O2 O 0.72934(13) 0.15797(12) 0.38585(6)
O3 O 0.91953(12) 0.24254(13) 0.39103(6)
O4 O 0.83826(14) 0.30917(12) 0.25640(6)
O5 O 0.91063(14) 0.48429(13) 0.25862(7)
N1 N 0.75309(13) 0.35063(14) 0.35182(6)
O6 O 0.84835(14) 0.57708(15) 0.41911(7)
O7 O 0.52186(17) 0.32017(14) 0.10359(6)
C1 C 0.60535(16) 0.46501(16) 0.25431(7)
C2 C 0.63167(16) 0.49915(16) 0.31311(7)
C3 C 0.56295(16) 0.29862(16) 0.30131(7)
H1 H 0.6005 0.2246 0.3031
C4 C 0.56799(16) 0.35351(16) 0.24782(7)
C5 C 0.63212(15) 0.38106(16) 0.34163(7)
H2 H 0.6014 0.3863 0.3752
C6 C 0.85631(17) 0.39896(18) 0.27772(9)
C7 C 0.53960(18) 0.30638(17) 0.19728(8)
H3 H 0.5141 0.2319 0.1932
C8 C 0.82543(16) 0.43470(16) 0.33156(8)
H4 H 0.8943 0.4448 0.3579
C9 C 0.61437(18) 0.52997(17) 0.20975(8)
H5 H 0.6390 0.6048 0.2139
C10 C 0.75478(16) 0.54254(16) 0.32894(8)
H6 H 0.7737 0.5929 0.3008
C11 C 0.79525(17) 0.30157(17) 0.46020(8)
C12 C 0.77351(18) 0.60390(18) 0.38264(9)
O8 O 0.8716(2) 0.4312(2) 0.64741(9)
C13 C 0.54983(19) 0.37221(19) 0.15265(8)
C14 C 0.5866(2) 0.48353(18) 0.15868(8)
H7 H 0.5927 0.5271 0.1285
C15 C 0.44172(17) 0.28337(19) 0.30981(8)
H8 H 0.4082 0.3570 0.3141
H9 H 0.3985 0.2465 0.2786
C16 C 0.88714(19) 0.3555(2) 0.49025(9)
H10 H 0.9494 0.3739 0.4745
C17 C 0.54499(18) 0.58536(18) 0.32636(8)
H11 H 0.5364 0.6445 0.2992
H12 H 0.4729 0.5474 0.3241
C18 C 0.70131(19) 0.2766(2) 0.48261(9)
H13 H 0.6395 0.2417 0.4620
N2 N 0.7931(3) 0.3780(3) 0.62308(10)
C19 C 0.7927(2) 0.3541(2) 0.56505(9)
C20 C 0.5740(2) 0.6406(2) 0.38135(9)
H14 H 0.5724 0.5838 0.4091
H15 H 0.5184 0.6982 0.3853
C21 C 0.2000(2) 0.1520(2) 0.33509(10)
H16 H 0.1430 0.1285 0.3565
C22 C 0.8860(2) 0.3819(2) 0.54338(10)
H17 H 0.9472 0.4176 0.5641
C23 C 0.6905(2) 0.6947(2) 0.38833(10)
H18 H 0.6924 0.7528 0.3612
H19 H 0.7084 0.7298 0.4235
C24 C 0.29483(19) 0.3285(2) 0.41955(10)
H20 H 0.2751 0.3858 0.3913
C25 C 0.6991(2) 0.3035(2) 0.53574(10)
H21 H 0.6361 0.2878 0.5513
C26 C 0.3742(2) 0.0802(2) 0.43589(10)
H22 H 0.4164 0.1189 0.4673
C27 C 0.9460(3) 0.4651(2) 0.20736(11)
H23 H 0.8810 0.4595 0.1797
H24 H 0.9883 0.3958 0.2088
H25 H 0.9922 0.5272 0.1995
C28 C 0.5398(3) 0.3814(3) 0.05734(9)
H26 H 0.5226 0.3337 0.0262
H27 H 0.6170 0.4050 0.0616
H28 H 0.4918 0.4471 0.0529
O9 O 0.7157(3) 0.3437(4) 0.64269(10)
C29 C 0.1470(2) 0.2483(3) 0.29942(12)
H29 H 0.1389 0.3137 0.3212
H30 H 0.0744 0.2251 0.2810
H31 H 0.1944 0.2669 0.2736
C30 C 0.3968(2) 0.3748(3) 0.45813(12)
H32 H 0.4182 0.3217 0.4869
H33 H 0.3775 0.4461 0.4727
H34 H 0.4585 0.3856 0.4390
C31 C 0.4538(3) -0.0064(3) 0.41840(12)
H35 H 0.4163 -0.0466 0.3874
H36 H 0.4769 -0.0591 0.4472
H37 H 0.5188 0.0317 0.4095
C32 C 0.1937(2) 0.3181(3) 0.44859(13)
H38 H 0.1271 0.3033 0.4228
H39 H 0.1843 0.3877 0.4672
H40 H 0.2060 0.2568 0.4740
C33 C 0.2204(3) 0.0484(3) 0.30121(13)
H41 H 0.2758 0.0668 0.2792
H42 H 0.1513 0.0273 0.2786
H43 H 0.2468 -0.0138 0.3246
C34 C 0.2758(3) 0.0200(3) 0.45556(16)
H44 H 0.2267 0.0755 0.4673
H45 H 0.3044 -0.0293 0.4850
H46 H 0.2347 -0.0239 0.4267
loop_
_geom_bond_atom_site_label_1
_geom_bond_atom_site_label_2
_geom_bond_site_symmetry_1
_geom_bond_site_symmetry_2
S1 O2 1_555 1_555
Si1 O1 1_555 1_555
O1 C15 1_555 1_555
O3 S1 1_555 1_555
O4 C6 1_555 1_555
O5 C6 1_555 1_555
N1 S1 1_555 1_555
O6 C12 1_555 1_555
O7 C13 1_555 1_555
C1 C2 1_555 1_555
C2 C5 1_555 1_555
C3 H1 1_555 1_555
C4 C1 1_555 1_555
C5 N1 1_555 1_555
H2 C5 1_555 1_555
C6 C8 1_555 1_555
C7 C4 1_555 1_555
H3 C7 1_555 1_555
C8 N1 1_555 1_555
H4 C8 1_555 1_555
C9 C1 1_555 1_555
H5 C9 1_555 1_555
C10 C2 1_555 1_555
H6 C10 1_555 1_555
C11 S1 1_555 1_555
C12 C10 1_555 1_555
O8 N2 1_555 1_555
C13 C7 1_555 1_555
C14 C9 1_555 1_555
H7 C14 1_555 1_555
C15 C3 1_555 1_555
H8 C15 1_555 1_555
H9 C15 1_555 1_555
C16 C11 1_555 1_555
H10 C16 1_555 1_555
C17 C2 1_555 1_555
H11 C17 1_555 1_555
H12 C17 1_555 1_555
C18 C11 1_555 1_555
H13 C18 1_555 1_555
N2 C19 1_555 1_555
C19 C22 1_555 1_555
C20 C17 1_555 1_555
H14 C20 1_555 1_555
H15 C20 1_555 1_555
C21 Si1 1_555 1_555
H16 C21 1_555 1_555
C22 C16 1_555 1_555
H17 C22 1_555 1_555
C23 C12 1_555 1_555
H18 C23 1_555 1_555
H19 C23 1_555 1_555
C24 Si1 1_555 1_555
H20 C24 1_555 1_555
C25 C18 1_555 1_555
H21 C25 1_555 1_555
C26 Si1 1_555 1_555
H22 C26 1_555 1_555
C27 O5 1_555 1_555
H23 C27 1_555 1_555
H24 C27 1_555 1_555
H25 C27 1_555 1_555
C28 O7 1_555 1_555
H26 C28 1_555 1_555
H27 C28 1_555 1_555
H28 C28 1_555 1_555
O9 N2 1_555 1_555
C29 C21 1_555 1_555
H29 C29 1_555 1_555
H30 C29 1_555 1_555
H31 C29 1_555 1_555
C30 C24 1_555 1_555
H32 C30 1_555 1_555
H33 C30 1_555 1_555
H34 C30 1_555 1_555
C31 C26 1_555 1_555
H35 C31 1_555 1_555
H36 C31 1_555 1_555
H37 C31 1_555 1_555
C32 C24 1_555 1_555
H38 C32 1_555 1_555
H39 C32 1_555 1_555
H40 C32 1_555 1_555
C33 C21 1_555 1_555
H41 C33 1_555 1_555
H42 C33 1_555 1_555
H43 C33 1_555 1_555
C34 C26 1_555 1_555
H44 C34 1_555 1_555
H45 C34 1_555 1_555
H46 C34 1_555 1_555
C3 C4 1_555 1_555
C3 C5 1_555 1_555
C8 C10 1_555 1_555
C13 C14 1_555 1_555
C19 C25 1_555 1_555
C20 C23 1_555 1_555

#END
