
#######################################################################
#
#                 Cambridge Crystallographic Data Centre
#                                CCDC 
#
#######################################################################
#
# If this CIF has been generated from an entry in the Cambridge 
# Structural Database, then it will include bibliographic, chemical, 
# crystal, experimental, refinement or atomic coordinate data resulting 
# from the CCDC's data processing and validation procedures.
#
#######################################################################

data_DEQFAJ
_chemical_formula_moiety         'C20 H18 N2'
_chemical_name_systematic        1-benzyl-3,9-dimethyl-9H-\b-carboline
_symmetry_cell_setting           orthorhombic
_symmetry_space_group_name_H-M   'P b c a'
_symmetry_Int_Tables_number      61
_space_group_name_Hall           '-P 2ac 2ab'
loop_
_symmetry_equiv_pos_site_id
_symmetry_equiv_pos_as_xyz
1 x,y,z
2 1/2-x,-y,1/2+z
3 -x,1/2+y,1/2-z
4 1/2+x,1/2-y,-z
5 -x,-y,-z
6 1/2+x,y,1/2-z
7 x,1/2-y,1/2+z
8 1/2-x,1/2+y,z
_cell_length_a                   5.8216(2)
_cell_length_b                   19.8873(8)
_cell_length_c                   27.2396(9)
_cell_angle_alpha                90
_cell_angle_beta                 90
_cell_angle_gamma                90
_cell_volume                     3153.69
_exptl_crystal_description       block
_cell_formula_units_Z            8
loop_
_atom_site_label
_atom_site_type_symbol
_atom_site_fract_x
_atom_site_fract_y
_atom_site_fract_z
C1 C 0.1992(3) 0.46428(7) 0.14835(5)
C2 C 0.3889(3) 0.47298(8) 0.17870(6)
C3 C 0.4699(4) 0.41953(11) 0.20665(7)
H1 H 0.5967 0.4253 0.2270
C4 C 0.3612(4) 0.35738(9) 0.20425(8)
H2 H 0.4154 0.3216 0.2230
C5 C 0.1716(4) 0.34868(7) 0.17391(8)
H3 H 0.0989 0.3071 0.1723
C6 C 0.0906(3) 0.40213(8) 0.14595(6)
H4 H -0.0363 0.3963 0.1256
N1 N 0.1550(4) 0.52215(13) 0.12272(9)
C7 C -0.0259(6) 0.5283(2) 0.08609(12)
H5 H -0.0598 0.4848 0.0727
H6 H 0.0242 0.5577 0.0603
H7 H -0.1614 0.5465 0.1012
C8 C 0.6623(2) 0.64631(7) 0.17954(5)
C9 C 0.6323(3) 0.57971(7) 0.19362(5)
H8 H 0.7288 0.5607 0.2170
C10 C 0.4581(3) 0.54145(7) 0.17269(7)
C11 C 0.3139(3) 0.56980(9) 0.13769(7)
C12 C 0.3438(3) 0.63641(10) 0.12361(6)
N2 N 0.5180(3) 0.67467(7) 0.14454(5)
C13 C 0.8350(7) 0.69217(18) 0.20029(13)
H9 H 0.9513 0.6665 0.2169
H10 H 0.7625 0.7221 0.2232
H11 H 0.9041 0.7178 0.1743
C14 C 0.2090(6) 0.67500(16) 0.08551(11)
H12 H 0.2252 0.7227 0.0920
H13 H 0.0476 0.6637 0.0888
C15 C 0.2842(3) 0.66090(8) 0.03246(5)
C16 C 0.1670(3) 0.69448(10) -0.00464(6)
H14 H 0.0436 0.7222 0.0031
C17 C 0.2344(4) 0.68658(12) -0.05325(5)
H15 H 0.1560 0.7090 -0.0781
C18 C 0.4189(4) 0.64511(14) -0.06477(6)
H16 H 0.4639 0.6398 -0.0973
C19 C 0.5360(4) 0.61153(15) -0.02767(7)
H17 H 0.6594 0.5838 -0.0354
C20 C 0.4687(3) 0.61942(11) 0.02094(7)
H18 H 0.5470 0.5970 0.0458
loop_
_geom_bond_atom_site_label_1
_geom_bond_atom_site_label_2
_geom_bond_site_symmetry_1
_geom_bond_site_symmetry_2
C1 C2 1_555 1_555
C2 C3 1_555 1_555
C3 H1 1_555 1_555
C4 C3 1_555 1_555
H2 C4 1_555 1_555
C5 C4 1_555 1_555
H3 C5 1_555 1_555
C6 C1 1_555 1_555
H4 C6 1_555 1_555
N1 C1 1_555 1_555
C7 N1 1_555 1_555
H5 C7 1_555 1_555
H6 C7 1_555 1_555
H7 C7 1_555 1_555
C8 C9 1_555 1_555
C9 H8 1_555 1_555
C10 C2 1_555 1_555
C11 N1 1_555 1_555
C12 C11 1_555 1_555
N2 C8 1_555 1_555
C13 C8 1_555 1_555
H9 C13 1_555 1_555
H10 C13 1_555 1_555
H11 C13 1_555 1_555
C14 C12 1_555 1_555
H12 C14 1_555 1_555
H13 C14 1_555 1_555
C15 C14 1_555 1_555
C16 C15 1_555 1_555
H14 C16 1_555 1_555
C17 C16 1_555 1_555
H15 C17 1_555 1_555
C18 C17 1_555 1_555
H16 C18 1_555 1_555
C19 C18 1_555 1_555
H17 C19 1_555 1_555
C20 C15 1_555 1_555
H18 C20 1_555 1_555
C5 C6 1_555 1_555
C9 C10 1_555 1_555
C10 C11 1_555 1_555
C12 N2 1_555 1_555
C19 C20 1_555 1_555

#END
