
#######################################################################
#
#                 Cambridge Crystallographic Data Centre
#                                CCDC 
#
#######################################################################
#
# If this CIF has been generated from an entry in the Cambridge 
# Structural Database, then it will include bibliographic, chemical, 
# crystal, experimental, refinement or atomic coordinate data resulting 
# from the CCDC's data processing and validation procedures.
#
#######################################################################

data_DEQGOY
_chemical_formula_moiety         'C24 H16 Cl1 F1 N2 O2,C3 H7 N1 O1'
_chemical_name_systematic        
'3-[(3-chloro-4-fluorophenyl)amino]-2-(4-methylphenyl)[1]benzopyrano[4,3-b]pyrrol-4(1H)-one N,N-dimethylformamide solvate'
_symmetry_cell_setting           triclinic
_symmetry_space_group_name_H-M   'P -1'
_symmetry_Int_Tables_number      2
_space_group_name_Hall           '-P 1'
loop_
_symmetry_equiv_pos_site_id
_symmetry_equiv_pos_as_xyz
1 x,y,z
2 -x,-y,-z
_cell_length_a                   11.119(7)
_cell_length_b                   11.649(7)
_cell_length_c                   11.842(12)
_cell_angle_alpha                112.196(10)
_cell_angle_beta                 115.572(11)
_cell_angle_gamma                97.169(8)
_cell_volume                     1202.57
_exptl_crystal_colour            yellow
_exptl_crystal_description       Needle
_cell_formula_units_Z            2
loop_
_atom_site_label
_atom_site_type_symbol
_atom_site_fract_x
_atom_site_fract_y
_atom_site_fract_z
Cl1 Cl 1.04656(16) 0.32003(17) 0.49809(15)
F1 F 0.8658(4) 0.0833(4) 0.4516(4)
N1 N 0.7152(4) 0.5600(3) 0.0792(4)
H1 H 0.7330 0.6410 0.0971
O1 O 0.6954(4) 0.1318(4) -0.0946(4)
N2 N 0.5780(4) 0.2782(4) 0.1000(4)
H2 H 0.4868 0.2483 0.0555
O2 O 0.7741(4) 0.2506(3) -0.1723(4)
C1 C 0.5274(8) 0.8230(8) 0.5525(7)
H3 H 0.4285 0.8127 0.5049
H4 H 0.5839 0.9143 0.5988
H5 H 0.5480 0.7940 0.6225
C2 C 0.5618(6) 0.7409(7) 0.4439(6)
C3 C 0.5460(8) 0.6135(8) 0.4082(7)
H6 H 0.5142 0.5762 0.4516
C4 C 0.5760(7) 0.5360(6) 0.3079(7)
H7 H 0.5662 0.4489 0.2877
C5 C 0.6196(4) 0.5855(5) 0.2387(4)
C6 C 0.6552(4) 0.5057(5) 0.1365(4)
C7 C 0.6437(4) 0.3750(5) 0.0799(4)
C8 C 0.6530(5) 0.2298(4) 0.1870(4)
C9 C 0.7970(5) 0.2915(4) 0.2858(4)
H8 H 0.8465 0.3664 0.2922
C10 C 0.8678(5) 0.2431(5) 0.3747(5)
C11 C 0.7937(7) 0.1317(6) 0.3641(5)
C12 C 0.7022(4) 0.3525(4) -0.0084(5)
C13 C 0.7421(4) 0.4679(4) -0.0090(4)
C14 C 0.6080(6) 0.7909(6) 0.3778(6)
H9 H 0.6208 0.8790 0.4012
C15 C 0.6365(5) 0.7165(5) 0.2780(5)
H10 H 0.6680 0.7552 0.2355
C16 C 0.7970(5) 0.4796(5) -0.0950(5)
C17 C 0.8098(5) 0.3652(5) -0.1762(5)
C18 C 0.7211(5) 0.2386(5) -0.0883(5)
C19 C 0.8538(6) 0.3589(6) -0.2683(6)
H11 H 0.8609 0.2807 -0.3219
C20 C 0.8880(8) 0.4692(7) -0.2821(7)
H12 H 0.9181 0.4657 -0.3451
C21 C 0.8771(8) 0.5831(6) -0.2023(7)
H13 H 0.8995 0.6573 -0.2118
C22 C 0.8340(6) 0.5903(5) -0.1088(6)
H14 H 0.8292 0.6695 -0.0539
C23 C 0.5819(5) 0.1174(4) 0.1802(5)
H15 H 0.4849 0.0748 0.1146
C24 C 0.6519(6) 0.0692(5) 0.2676(6)
H16 H 0.6033 -0.0060 0.2615
O3 O 0.7388(4) 0.8204(4) 0.0865(5)
N3 N 0.9469(4) 0.9730(4) 0.1740(5)
C25 C 0.8095(8) 0.9207(7) 0.0875(7)
H17 H 0.7621 0.9536 0.0274
C26 C 1.0226(12) 0.9300(11) 0.2639(10)
H18 H 1.0799 1.0029 0.3593
H19 H 1.0829 0.8922 0.2345
H20 H 0.9589 0.8643 0.2617
C27 C 1.0202(11) 1.0865(8) 0.1754(10)
H21 H 0.9529 1.1051 0.1063
H22 H 1.0905 1.0675 0.1520
H23 H 1.0654 1.1618 0.2687
loop_
_geom_bond_atom_site_label_1
_geom_bond_atom_site_label_2
_geom_bond_site_symmetry_1
_geom_bond_site_symmetry_2
Cl1 C10 1_555 1_555
F1 C11 1_555 1_555
N1 H1 1_555 1_555
O1 C18 1_555 1_555
N2 H2 1_555 1_555
O2 C17 1_555 1_555
C1 H3 1_555 1_555
H4 C1 1_555 1_555
H5 C1 1_555 1_555
C2 C1 1_555 1_555
C3 C2 1_555 1_555
H6 C3 1_555 1_555
C4 C3 1_555 1_555
H7 C4 1_555 1_555
C5 C4 1_555 1_555
C6 N1 1_555 1_555
C7 N2 1_555 1_555
C8 N2 1_555 1_555
C9 C8 1_555 1_555
H8 C9 1_555 1_555
C10 C9 1_555 1_555
C11 C10 1_555 1_555
C12 C7 1_555 1_555
C13 N1 1_555 1_555
C14 C2 1_555 1_555
H9 C14 1_555 1_555
C15 C5 1_555 1_555
H10 C15 1_555 1_555
C16 C13 1_555 1_555
C17 C16 1_555 1_555
C18 O2 1_555 1_555
C19 C17 1_555 1_555
H11 C19 1_555 1_555
C20 C19 1_555 1_555
H12 C20 1_555 1_555
C21 C20 1_555 1_555
H13 C21 1_555 1_555
C22 C16 1_555 1_555
H14 C22 1_555 1_555
C23 C8 1_555 1_555
H15 C23 1_555 1_555
C24 C11 1_555 1_555
H16 C24 1_555 1_555
O3 C25 1_555 1_555
N3 C25 1_555 1_555
C25 H17 1_555 1_555
C26 N3 1_555 1_555
H18 C26 1_555 1_555
H19 C26 1_555 1_555
H20 C26 1_555 1_555
C27 N3 1_555 1_555
H21 C27 1_555 1_555
H22 C27 1_555 1_555
H23 C27 1_555 1_555
C5 C6 1_555 1_555
C6 C7 1_555 1_555
C12 C13 1_555 1_555
C12 C18 1_555 1_555
C14 C15 1_555 1_555
C21 C22 1_555 1_555
C23 C24 1_555 1_555

#END
