
#######################################################################
#
#                 Cambridge Crystallographic Data Centre
#                                CCDC 
#
#######################################################################
#
# If this CIF has been generated from an entry in the Cambridge 
# Structural Database, then it will include bibliographic, chemical, 
# crystal, experimental, refinement or atomic coordinate data resulting 
# from the CCDC's data processing and validation procedures.
#
#######################################################################

data_DEQPIB
_chemical_formula_moiety         'C10 H12 B1 Br3 F2 N4'
_chemical_name_systematic        
{N-butyl-N'-[(3,4,5-tribromo-1H-pyrrol-2-yl)methylidene]hydrazonoformamidato}(difluoro)boron
_symmetry_cell_setting           triclinic
_symmetry_space_group_name_H-M   'P -1'
_symmetry_Int_Tables_number      2
_space_group_name_Hall           '-P 1'
loop_
_symmetry_equiv_pos_site_id
_symmetry_equiv_pos_as_xyz
1 x,y,z
2 -x,-y,-z
_cell_length_a                   6.275(5)
_cell_length_b                   10.748(8)
_cell_length_c                   11.424(9)
_cell_angle_alpha                79.967(9)
_cell_angle_beta                 85.892(9)
_cell_angle_gamma                85.819(10)
_cell_volume                     755.312
_exptl_crystal_colour            'metallic colorless'
_exptl_crystal_description       cube
_cell_formula_units_Z            2
loop_
_atom_site_label
_atom_site_type_symbol
_atom_site_fract_x
_atom_site_fract_y
_atom_site_fract_z
Br1 Br -0.36313(9) -0.36857(6) 0.03382(5)
Br2 Br 0.10964(9) -0.23587(6) -0.12121(4)
Br3 Br -0.3842(2) -0.27191(14) 0.31136(11)
F1 F 0.0988(5) -0.1976(3) 0.4081(2)
F2 F -0.1359(4) -0.0313(3) 0.3628(3)
N1 N 0.4413(6) 0.1282(4) 0.3141(3)
H1 H 0.5083(6) 0.1295(4) 0.2456(3)
N2 N 0.2192(6) -0.0185(3) 0.2707(3)
N3 N -0.0323(5) -0.1594(3) 0.2112(3)
N4 N 0.3380(6) -0.0088(4) 0.1615(3)
C1 C -0.1948(7) -0.2330(4) 0.2011(4)
C2 C -0.1762(7) -0.2699(4) 0.0913(4)
C3 C 0.0058(7) -0.2178(4) 0.0319(4)
C4 C 0.0930(7) -0.1490(4) 0.1061(4)
C5 C 0.2719(7) -0.0732(4) 0.0880(4)
H2 H 0.3496(7) -0.0696(4) 0.0151(4)
C6 C 0.5118(9) 0.2097(5) 0.3922(5)
H3 H 0.4472(9) 0.1850(5) 0.4718(5)
H4 H 0.6659(9) 0.1975(5) 0.3965(5)
C7 C 0.4531(9) 0.3471(6) 0.3494(5)
H5 H 0.5152(9) 0.3979(6) 0.3990(5)
H6 H 0.5117(9) 0.3712(6) 0.2684(5)
C8 C 0.2109(11) 0.3735(7) 0.3535(7)
H7 H 0.1509(11) 0.3232(7) 0.3027(7)
H8 H 0.1536(11) 0.3459(7) 0.4343(7)
C9 C 0.1419(16) 0.5038(8) 0.3169(11)
H9 H 0.173(12) 0.5519(16) 0.376(4)
H10 H 0.216(10) 0.536(2) 0.242(4)
H11 H -0.010(3) 0.5106(12) 0.307(8)
C10 C 0.2853(7) 0.0545(4) 0.3413(4)
H12 H 0.2142(7) 0.0525(4) 0.4158(4)
B1 B 0.0318(8) -0.1048(5) 0.3185(5)
loop_
_geom_bond_atom_site_label_1
_geom_bond_atom_site_label_2
_geom_bond_site_symmetry_1
_geom_bond_site_symmetry_2
Br1 C2 1_555 1_555
Br2 C3 1_555 1_555
Br3 C1 1_555 1_555
F1 B1 1_555 1_555
F2 B1 1_555 1_555
N1 H1 1_555 1_555
N2 N4 1_555 1_555
N3 C1 1_555 1_555
N4 C5 1_555 1_555
C1 C2 1_555 1_555
C2 C3 1_555 1_555
C3 C4 1_555 1_555
C4 N3 1_555 1_555
C5 C4 1_555 1_555
H2 C5 1_555 1_555
C6 N1 1_555 1_555
H3 C6 1_555 1_555
H4 C6 1_555 1_555
C7 C6 1_555 1_555
H5 C7 1_555 1_555
H6 C7 1_555 1_555
C8 C7 1_555 1_555
H7 C8 1_555 1_555
H8 C8 1_555 1_555
C9 C8 1_555 1_555
H9 C9 1_555 1_555
H10 C9 1_555 1_555
H11 C9 1_555 1_555
C10 N1 1_555 1_555
H12 C10 1_555 1_555
B1 N2 1_555 1_555
N2 C10 1_555 1_555
N3 B1 1_555 1_555

#END
