
#######################################################################
#
#                 Cambridge Crystallographic Data Centre
#                                CCDC 
#
#######################################################################
#
# If this CIF has been generated from an entry in the Cambridge 
# Structural Database, then it will include bibliographic, chemical, 
# crystal, experimental, refinement or atomic coordinate data resulting 
# from the CCDC's data processing and validation procedures.
#
#######################################################################

data_DEQQEY
_chemical_formula_moiety         'C15 H11 B1 F1 N1 O2'
_chemical_name_systematic        
3-(2H-1,3,2-benzodioxaborol-2-yl)-5-fluoro-1-methyl-1H-indole
_symmetry_cell_setting           orthorhombic
_symmetry_space_group_name_H-M   'P 21 21 21'
_symmetry_Int_Tables_number      19
_space_group_name_Hall           'P 2ac 2ab'
loop_
_symmetry_equiv_pos_site_id
_symmetry_equiv_pos_as_xyz
1 x,y,z
2 1/2-x,-y,1/2+z
3 -x,1/2+y,1/2-z
4 1/2+x,1/2-y,-z
_cell_length_a                   5.5875(7)
_cell_length_b                   10.4080(14)
_cell_length_c                   20.927(3)
_cell_angle_alpha                90
_cell_angle_beta                 90
_cell_angle_gamma                90
_cell_volume                     1217
_exptl_crystal_colour            colourless
_exptl_crystal_description       block
_cell_formula_units_Z            4
loop_
_atom_site_label
_atom_site_type_symbol
_atom_site_fract_x
_atom_site_fract_y
_atom_site_fract_z
C1 C -0.3290(4) 0.1155(2) 0.09910(11)
H1 H -0.2923 0.0991 0.0550
H2 H -0.4928 0.1425 0.1028
H3 H -0.3051 0.0386 0.1236
C2 C 0.0189(4) 0.2668(2) 0.09203(10)
H4 H 0.0676 0.2432 0.0512
C3 C 0.1316(4) 0.3580(2) 0.12926(9)
C4 C 0.0125(4) 0.4377(2) 0.24292(10)
H5 H 0.1335 0.4981 0.2483
C5 C -0.1586(4) 0.4186(2) 0.28861(10)
C6 C -0.3428(4) 0.3283(2) 0.28445(10)
H6 H -0.4518 0.3187 0.3177
C7 C -0.3602(4) 0.2535(2) 0.23011(10)
H7 H -0.4808 0.1926 0.2256
C8 C -0.0028(3) 0.3622(2) 0.18776(10)
C9 C -0.1912(4) 0.27275(19) 0.18252(10)
C10 C 0.6471(4) 0.57596(19) 0.11108(9)
C11 C 0.8226(4) 0.66217(19) 0.12730(10)
H8 H 0.8326 0.6971 0.1681
C12 C 0.9854(4) 0.6948(2) 0.07928(11)
H9 H 1.1068 0.7532 0.0883
C13 C 0.9704(4) 0.6424(2) 0.01859(10)
H10 H 1.0809 0.6670 -0.0123
C14 C 0.7932(4) 0.5535(2) 0.00283(10)
H11 H 0.7823 0.5177 -0.0378
C15 C 0.6356(3) 0.52192(18) 0.05073(10)
B1 B 0.3450(4) 0.4386(2) 0.10967(11)
F1 F -0.1511(2) 0.49204(13) 0.34308(5)
N1 N -0.1735(3) 0.21584(17) 0.12307(8)
O1 O 0.4649(2) 0.52566(13) 0.14865(6)
O2 O 0.4488(2) 0.43410(13) 0.04836(7)
loop_
_geom_bond_atom_site_label_1
_geom_bond_atom_site_label_2
_geom_bond_site_symmetry_1
_geom_bond_site_symmetry_2
C1 H1 1_555 1_555
H2 C1 1_555 1_555
H3 C1 1_555 1_555
C2 H4 1_555 1_555
C3 C2 1_555 1_555
C4 H5 1_555 1_555
C5 C4 1_555 1_555
C6 C5 1_555 1_555
H6 C6 1_555 1_555
C7 C6 1_555 1_555
H7 C7 1_555 1_555
C8 C3 1_555 1_555
C9 C7 1_555 1_555
C10 C11 1_555 1_555
C11 H8 1_555 1_555
C12 C11 1_555 1_555
H9 C12 1_555 1_555
C13 C12 1_555 1_555
H10 C13 1_555 1_555
C14 C13 1_555 1_555
H11 C14 1_555 1_555
C15 C10 1_555 1_555
B1 C3 1_555 1_555
F1 C5 1_555 1_555
N1 C1 1_555 1_555
O1 C10 1_555 1_555
O2 C15 1_555 1_555
C2 N1 1_555 1_555
C4 C8 1_555 1_555
C8 C9 1_555 1_555
C9 N1 1_555 1_555
C14 C15 1_555 1_555
B1 O1 1_555 1_555
B1 O2 1_555 1_555

#END
