
#######################################################################
#
#                 Cambridge Crystallographic Data Centre
#                                CCDC 
#
#######################################################################
#
# If this CIF has been generated from an entry in the Cambridge 
# Structural Database, then it will include bibliographic, chemical, 
# crystal, experimental, refinement or atomic coordinate data resulting 
# from the CCDC's data processing and validation procedures.
#
#######################################################################

data_DEQQIC
_chemical_formula_moiety         'C34 H42 O2 P2 2+,2(B1 F4 1-)'
_chemical_name_systematic        
'(ethane-1,2-diyl)bis[(2-t-butoxyphenyl)(phenyl)phosphonium] bis(tetrafluoroborate)'
_symmetry_cell_setting           orthorhombic
_symmetry_space_group_name_H-M   'P 21 21 21'
_symmetry_Int_Tables_number      19
_space_group_name_Hall           'P 2ac 2ab'
loop_
_symmetry_equiv_pos_site_id
_symmetry_equiv_pos_as_xyz
1 x,y,z
2 1/2-x,-y,1/2+z
3 1/2+x,1/2-y,-z
4 -x,1/2+y,1/2-z
_cell_length_a                   11.2487(9)
_cell_length_b                   16.8165(14)
_cell_length_c                   19.3106(16)
_cell_angle_alpha                90
_cell_angle_beta                 90
_cell_angle_gamma                90
_cell_volume                     3652.87
_exptl_crystal_colour            colorless
_exptl_crystal_description       prism
_cell_formula_units_Z            4
loop_
_atom_site_label
_atom_site_type_symbol
_atom_site_fract_x
_atom_site_fract_y
_atom_site_fract_z
P1 P 0.80536(14) 0.71962(11) 0.18405(9)
H1 H 0.905(7) 0.758(5) 0.195(4)
P2 P 0.89922(15) 0.51398(12) 0.30869(10)
H2 H 0.906(5) 0.475(4) 0.260(3)
O1 O 0.5733(4) 0.6791(3) 0.2172(3)
O2 O 0.7988(5) 0.5929(4) 0.4251(3)
C1 C 0.8214(6) 0.6166(5) 0.2117(4)
H3 H 0.852(7) 0.579(5) 0.173(4)
H4 H 0.737(6) 0.597(4) 0.227(4)
C2 C 0.9051(7) 0.6132(5) 0.2739(4)
H5 H 0.980(7) 0.629(4) 0.263(3)
H6 H 0.885(6) 0.649(5) 0.309(4)
C3 C 0.7509(6) 0.7250(4) 0.0969(3)
C4 C 0.6667(6) 0.7821(5) 0.0792(4)
H7 H 0.6370 0.8170 0.1138
C5 C 0.6261(6) 0.7887(5) 0.0126(4)
H8 H 0.5690 0.8281 0.0009
C6 C 0.6696(7) 0.7370(5) -0.0379(4)
H9 H 0.6417 0.7407 -0.0842
C7 C 0.7533(7) 0.6802(5) -0.0202(4)
H10 H 0.7835 0.6455 -0.0548
C8 C 0.7934(6) 0.6735(5) 0.0466(4)
H11 H 0.8499 0.6338 0.0584
C9 C 0.7152(6) 0.7742(5) 0.2421(3)
C10 C 0.7570(7) 0.8417(5) 0.2760(4)
H12 H 0.8363 0.8593 0.2687
C11 C 0.6828(8) 0.8832(5) 0.3204(5)
H13 H 0.7105 0.9295 0.3435
C12 C 0.5675(8) 0.8564(6) 0.3308(4)
H14 H 0.5168 0.8849 0.3613
C13 C 0.5240(7) 0.7884(5) 0.2975(4)
H15 H 0.4448 0.7710 0.3055
C14 C 0.5976(7) 0.7467(5) 0.2526(4)
C15 C 0.4542(6) 0.6454(5) 0.2014(4)
C16 C 0.3977(8) 0.6107(6) 0.2656(5)
H16 H 0.4542 0.5749 0.2884
H17 H 0.3262 0.5809 0.2527
H18 H 0.3760 0.6537 0.2974
C17 C 0.3781(7) 0.7083(6) 0.1664(5)
H19 H 0.3629 0.7519 0.1990
H20 H 0.3024 0.6847 0.1520
H21 H 0.4199 0.7290 0.1257
C18 C 0.4881(8) 0.5812(6) 0.1506(5)
H22 H 0.5319 0.6048 0.1119
H23 H 0.4161 0.5552 0.1331
H24 H 0.5383 0.5417 0.1739
C19 C 1.0177(7) 0.4987(6) 0.3689(4)
C20 C 1.1079(8) 0.5532(7) 0.3740(6)
H25 H 1.1093 0.5991 0.3453
C21 C 1.1984(10) 0.5395(8) 0.4230(6)
H26 H 1.2619 0.5764 0.4268
C22 C 1.1969(10) 0.4761(9) 0.4637(5)
H27 H 1.2580 0.4684 0.4970
C23 C 1.1049(10) 0.4208(8) 0.4575(5)
H28 H 1.1038 0.3752 0.4866
C24 C 1.0159(8) 0.4318(7) 0.4095(5)
H29 H 0.9542 0.3937 0.4046
C25 C 0.7557(6) 0.4953(5) 0.3447(4)
C26 C 0.6796(6) 0.4408(5) 0.3130(4)
H30 H 0.7048 0.4120 0.2733
C27 C 0.5672(7) 0.4291(5) 0.3400(4)
H31 H 0.5137 0.3935 0.3178
C28 C 0.5333(6) 0.4682(5) 0.3980(4)
H32 H 0.4570 0.4574 0.4170
C29 C 0.6059(7) 0.5234(5) 0.4310(4)
H33 H 0.5800 0.5502 0.4716
C30 C 0.7181(7) 0.5385(5) 0.4026(4)
C31 C 0.7950(8) 0.6326(5) 0.4930(4)
C32 C 0.9137(10) 0.6777(7) 0.4917(6)
H34 H 0.9795 0.6395 0.4907
H35 H 0.9202 0.7109 0.5332
H36 H 0.9172 0.7114 0.4504
C33 C 0.7928(9) 0.5718(7) 0.5501(5)
H37 H 0.7157 0.5447 0.5502
H38 H 0.8051 0.5983 0.5947
H39 H 0.8563 0.5328 0.5425
C34 C 0.6947(11) 0.6929(7) 0.4962(7)
H40 H 0.6911 0.7225 0.4525
H41 H 0.7090 0.7300 0.5345
H42 H 0.6191 0.6653 0.5037
F1 F 1.0479(5) 0.6376(4) 0.1371(3)
F2 F 1.2035(5) 0.5590(4) 0.1107(3)
F3 F 1.0186(6) 0.5292(5) 0.0738(4)
F4 F 1.0718(6) 0.5148(4) 0.1872(3)
B1 B 1.0841(8) 0.5566(8) 0.1262(5)
F5 F 1.0151(5) 0.7796(4) 0.3259(3)
F6 F 1.1985(15) 0.7403(10) 0.3036(10)
F7 F 1.0865(5) 0.8148(4) 0.2216(3)
F8 F 1.1625(12) 0.8658(8) 0.3151(7)
B2 B 1.1148(6) 0.7928(6) 0.2878(5)
F9? F 1.1561(12) 0.7110(7) 0.2769(7)
F10? F 1.2155(10) 0.8230(8) 0.3091(6)
loop_
_geom_bond_atom_site_label_1
_geom_bond_atom_site_label_2
_geom_bond_site_symmetry_1
_geom_bond_site_symmetry_2
P1 H1 1_555 1_555
P2 H2 1_555 1_555
O1 C14 1_555 1_555
O2 C30 1_555 1_555
C1 P1 1_555 1_555
H3 C1 1_555 1_555
H4 C1 1_555 1_555
C2 P2 1_555 1_555
H5 C2 1_555 1_555
H6 C2 1_555 1_555
C3 P1 1_555 1_555
C4 C3 1_555 1_555
H7 C4 1_555 1_555
C5 C4 1_555 1_555
H8 C5 1_555 1_555
C6 C5 1_555 1_555
H9 C6 1_555 1_555
C7 C6 1_555 1_555
H10 C7 1_555 1_555
C8 C3 1_555 1_555
H11 C8 1_555 1_555
C9 P1 1_555 1_555
C10 C9 1_555 1_555
H12 C10 1_555 1_555
C11 C10 1_555 1_555
H13 C11 1_555 1_555
C12 C11 1_555 1_555
H14 C12 1_555 1_555
C13 C12 1_555 1_555
H15 C13 1_555 1_555
C14 C9 1_555 1_555
C15 O1 1_555 1_555
C16 C15 1_555 1_555
H16 C16 1_555 1_555
H17 C16 1_555 1_555
H18 C16 1_555 1_555
C17 C15 1_555 1_555
H19 C17 1_555 1_555
H20 C17 1_555 1_555
H21 C17 1_555 1_555
C18 C15 1_555 1_555
H22 C18 1_555 1_555
H23 C18 1_555 1_555
H24 C18 1_555 1_555
C19 P2 1_555 1_555
C20 C19 1_555 1_555
H25 C20 1_555 1_555
C21 C20 1_555 1_555
H26 C21 1_555 1_555
C22 C21 1_555 1_555
H27 C22 1_555 1_555
C23 C22 1_555 1_555
H28 C23 1_555 1_555
C24 C19 1_555 1_555
H29 C24 1_555 1_555
C25 P2 1_555 1_555
C26 C25 1_555 1_555
H30 C26 1_555 1_555
C27 C26 1_555 1_555
H31 C27 1_555 1_555
C28 C27 1_555 1_555
H32 C28 1_555 1_555
C29 C28 1_555 1_555
H33 C29 1_555 1_555
C30 C25 1_555 1_555
C31 O2 1_555 1_555
C32 C31 1_555 1_555
H34 C32 1_555 1_555
H35 C32 1_555 1_555
H36 C32 1_555 1_555
C33 C31 1_555 1_555
H37 C33 1_555 1_555
H38 C33 1_555 1_555
H39 C33 1_555 1_555
C34 C31 1_555 1_555
H40 C34 1_555 1_555
H41 C34 1_555 1_555
H42 C34 1_555 1_555
F1 B1 1_555 1_555
F2 B1 1_555 1_555
F3 B1 1_555 1_555
F4 B1 1_555 1_555
F5 B2 1_555 1_555
F6 B2 1_555 1_555
F7 B2 1_555 1_555
F8 B2 1_555 1_555
C1 C2 1_555 1_555
C7 C8 1_555 1_555
C13 C14 1_555 1_555
C23 C24 1_555 1_555
C29 C30 1_555 1_555

#END
