
#######################################################################
#
#                 Cambridge Crystallographic Data Centre
#                                CCDC 
#
#######################################################################
#
# If this CIF has been generated from an entry in the Cambridge 
# Structural Database, then it will include bibliographic, chemical, 
# crystal, experimental, refinement or atomic coordinate data resulting 
# from the CCDC's data processing and validation procedures.
#
#######################################################################

data_DEQRID
_chemical_formula_moiety         'C32 H22 N10 O6,2(C8 H20 N1 1+),2(B1 F4 1-)'
_chemical_name_systematic        
"bis(tetraethylammonium) 1,1'-[2,7,17,22-tetraoxa-4,5,12,19,20,27,35,36,41,42-decaazaheptacyclo[26.2.2.2^3,6^.2^8,11^.2^13,16^.2^18,21^.2^23,26^]dotetraconta-1(30),3,5,8,10,13,15,18,20,23,25,28,31,33,35,37,39,41-octadecaene-12,27-diyl]bis(ethan-1-one) bis(tetrafluoroborate)"
_symmetry_cell_setting           triclinic
_symmetry_space_group_name_H-M   'P -1'
_symmetry_Int_Tables_number      2
_space_group_name_Hall           '-P 1'
loop_
_symmetry_equiv_pos_site_id
_symmetry_equiv_pos_as_xyz
1 x,y,z
2 -x,-y,-z
_cell_length_a                   10.748(2)
_cell_length_b                   10.876(2)
_cell_length_c                   12.884(3)
_cell_angle_alpha                114.14(3)
_cell_angle_beta                 95.19(3)
_cell_angle_gamma                99.31(3)
_cell_volume                     1335.6
_exptl_crystal_colour            red
_exptl_crystal_description       Plate
_cell_formula_units_Z            1
loop_
_atom_site_label
_atom_site_type_symbol
_atom_site_fract_x
_atom_site_fract_y
_atom_site_fract_z
F1 F 0.21958(9) 0.59875(12) 0.30258(11)
F2 F 0.06808(12) 0.72207(11) 0.30585(11)
F3 F 0.04314(11) 0.56352(11) 0.37906(9)
F4 F 0.02691(10) 0.49454(11) 0.18692(8)
B1 B 0.08962(17) 0.59516(18) 0.29356(15)
O1 O 0.47844(10) 0.73722(10) 0.20508(8)
O2 O 0.31477(11) 0.94310(11) 0.59499(9)
O3 O 0.13679(11) 0.83339(11) 0.98445(9)
N1 N 0.37771(12) 0.88705(12) 0.32337(10)
N2 N 0.33449(11) 0.93792(12) 0.42157(10)
N3 N 0.43893(11) 0.79994(12) 0.48798(10)
N4 N 0.48279(11) 0.74836(12) 0.38885(10)
N5 N 0.27087(12) 0.69895(12) 0.89993(10)
C1 C 0.47057(14) 0.49513(16) 0.13936(13)
H1 H 0.381868 0.478194 0.132303
C2 C 0.53433(14) 0.38794(15) 0.11009(13)
H2 H 0.488021 0.297530 0.082556
C3 C 0.66698(13) 0.41431(14) 0.12150(11)
C4 C 0.73682(14) 0.54828(15) 0.16036(13)
H3 H 0.825523 0.565880 0.167478
C5 C 0.67324(14) 0.65617(15) 0.18863(13)
H4 H 0.718639 0.746510 0.213591
C6 C 0.54218(14) 0.62739(14) 0.17916(11)
C7 C 0.44401(13) 0.78915(14) 0.30964(11)
C8 C 0.36267(13) 0.88636(14) 0.49689(12)
C9 C 0.30987(14) 0.87602(15) 0.66837(12)
C10 C 0.24345(14) 0.74159(16) 0.62787(12)
H5 H 0.207889 0.690424 0.550130
C11 C 0.23068(14) 0.68405(15) 0.70562(12)
H6 H 0.186141 0.593312 0.680222
C12 C 0.28428(13) 0.76176(14) 0.82111(12)
C13 C 0.35006(15) 0.89675(15) 0.86012(12)
H7 H 0.385103 0.948442 0.937928
C14 C 0.36385(15) 0.95534(15) 0.78286(13)
H8 H 0.408475 1.045980 0.807886
C15 C 0.19011(14) 0.74034(14) 0.97863(11)
C16 C 0.17205(16) 0.66901(16) 1.05567(12)
H9 H 0.157518 0.732771 1.128873
H10 H 0.247401 0.636025 1.067047
H11 H 0.099663 0.592491 1.020486
O1A O 0.52156(10) 0.26278(10) 0.79492(8)
O2A O 0.68523(11) 0.05690(11) 0.40501(9)
O3A O 0.86321(11) 0.16661(11) 0.01555(9)
N1A N 0.62229(12) 0.11295(12) 0.67663(10)
N2A N 0.66551(11) 0.06208(12) 0.57843(10)
N3A N 0.56107(11) 0.20006(12) 0.51202(10)
N4A N 0.51721(11) 0.25164(12) 0.61115(10)
N5A N 0.72913(12) 0.30105(12) 0.10007(10)
C1A C 0.52943(14) 0.50487(16) 0.86064(13)
H1A H 0.618132 0.521806 0.867697
C2A C 0.46567(14) 0.61206(15) 0.88991(13)
H2A H 0.511979 0.702470 0.917444
C3A C 0.33302(13) 0.58569(14) 0.87850(11)
C4A C 0.26318(14) 0.45172(15) 0.83964(13)
H3A H 0.174477 0.434120 0.832522
C5A C 0.32676(14) 0.34383(15) 0.81137(13)
H4A H 0.281361 0.253490 0.786409
C6A C 0.45782(14) 0.37261(14) 0.82084(11)
C7A C 0.55599(13) 0.21085(14) 0.69036(11)
C8A C 0.63733(13) 0.11364(14) 0.50311(12)
C9A C 0.69013(14) 0.12398(15) 0.33163(12)
C10A C 0.75655(14) 0.25841(16) 0.37213(12)
H5A H 0.792111 0.309576 0.449870
C11A C 0.76932(14) 0.31595(15) 0.29438(12)
H6A H 0.813859 0.406688 0.319778
C12A C 0.71572(13) 0.23824(14) 0.17889(12)
C13A C 0.64994(15) 0.10325(15) 0.13988(12)
H7A H 0.614897 0.051558 0.062072
C14A C 0.63615(15) 0.04466(15) 0.21714(13)
H8A H 0.591525 -0.045980 0.192114
C15A C 0.80989(14) 0.25966(14) 0.02137(11)
C16A C 0.82795(16) 0.33099(16) -0.05567(12)
H9A H 0.842482 0.267229 -0.128873
H10A H 0.752599 0.363975 -0.067047
H11A H 0.900337 0.407509 -0.020486
N6 N 0.16354(13) 0.18225(13) 0.30779(11)
C17 C 0.1140(2) 0.2511(2) 0.41911(15)
H12 H 0.021352 0.233316 0.401690
H13 H 0.146087 0.350109 0.450186
C18 C 0.1507(3) 0.2042(3) 0.51108(17)
H14 H 0.121602 0.105882 0.480714
H15 H 0.111792 0.248548 0.576864
H16 H 0.242146 0.228393 0.533927
C19 C 0.11393(15) 0.02682(16) 0.25317(13)
H17 H 0.146628 -0.012669 0.181638
H18 H 0.148797 -0.009015 0.304402
C20 C -0.03004(19) -0.0225(2) 0.2272(2)
H19 H -0.066411 0.014338 0.178367
H20 H -0.063287 0.008351 0.298079
H21 H -0.051841 -0.121556 0.188636
C21 C 0.30859(16) 0.20664(18) 0.33019(16)
H22 H 0.332941 0.164063 0.379726
H23 H 0.336491 0.159863 0.257265
C22 C 0.3800(2) 0.3564(2) 0.3854(2)
H24 H 0.355564 0.400717 0.338258
H25 H 0.470459 0.360883 0.392090
H26 H 0.359130 0.402370 0.460741
C23 C 0.11862(19) 0.24405(19) 0.22808(16)
H27 H 0.025754 0.223092 0.213554
H28 H 0.147319 0.343666 0.268038
C24 C 0.1639(2) 0.1952(2) 0.11413(18)
H29 H 0.127559 0.236090 0.068623
H30 H 0.137425 0.096486 0.073964
H31 H 0.255553 0.221786 0.126857
loop_
_geom_bond_atom_site_label_1
_geom_bond_atom_site_label_2
_geom_bond_site_symmetry_1
_geom_bond_site_symmetry_2
F1 B1 1_555 1_555
F2 B1 1_555 1_555
F3 B1 1_555 1_555
F4 B1 1_555 1_555
O1 C6 1_555 1_555
O2 C8 1_555 1_555
O3 C15 1_555 1_555
N1 N2 1_555 1_555
N2 C8 1_555 1_555
N3 N4 1_555 1_555
N4 C7 1_555 1_555
N5 C12 1_555 1_555
C1 H1 1_555 1_555
C2 C1 1_555 1_555
H2 C2 1_555 1_555
C3 C2 1_555 1_555
C4 C3 1_555 1_555
H3 C4 1_555 1_555
C5 C4 1_555 1_555
H4 C5 1_555 1_555
C6 C1 1_555 1_555
C7 O1 1_555 1_555
C8 N3 1_555 1_555
C9 O2 1_555 1_555
C10 C9 1_555 1_555
H5 C10 1_555 1_555
C11 C10 1_555 1_555
H6 C11 1_555 1_555
C12 C11 1_555 1_555
C13 C12 1_555 1_555
H7 C13 1_555 1_555
C14 C9 1_555 1_555
H8 C14 1_555 1_555
C15 N5 1_555 1_555
C16 C15 1_555 1_555
H9 C16 1_555 1_555
H10 C16 1_555 1_555
H11 C16 1_555 1_555
N6 C17 1_555 1_555
C17 H12 1_555 1_555
H13 C17 1_555 1_555
C18 C17 1_555 1_555
H14 C18 1_555 1_555
H15 C18 1_555 1_555
H16 C18 1_555 1_555
C19 N6 1_555 1_555
H17 C19 1_555 1_555
H18 C19 1_555 1_555
C20 C19 1_555 1_555
H19 C20 1_555 1_555
H20 C20 1_555 1_555
H21 C20 1_555 1_555
C21 N6 1_555 1_555
H22 C21 1_555 1_555
H23 C21 1_555 1_555
C22 C21 1_555 1_555
H24 C22 1_555 1_555
H25 C22 1_555 1_555
H26 C22 1_555 1_555
C23 N6 1_555 1_555
H27 C23 1_555 1_555
H28 C23 1_555 1_555
C24 C23 1_555 1_555
H29 C24 1_555 1_555
H30 C24 1_555 1_555
H31 C24 1_555 1_555
O1A C6A 1_555 1_555
O2A C8A 1_555 1_555
O3A C15A 1_555 1_555
N1A N2A 1_555 1_555
N2A C8A 1_555 1_555
N3A N4A 1_555 1_555
N4A C7A 1_555 1_555
N5A C3 1_555 1_555
C1A H1A 1_555 1_555
C2A C1A 1_555 1_555
H2A C2A 1_555 1_555
C3A N5 1_555 1_555
C4A C3A 1_555 1_555
H3A C4A 1_555 1_555
C5A C4A 1_555 1_555
H4A C5A 1_555 1_555
C6A C1A 1_555 1_555
C7A O1A 1_555 1_555
C8A N3A 1_555 1_555
C9A O2A 1_555 1_555
C10A C9A 1_555 1_555
H5A C10A 1_555 1_555
C11A C10A 1_555 1_555
H6A C11A 1_555 1_555
C12A N5A 1_555 1_555
C13A C12A 1_555 1_555
H7A C13A 1_555 1_555
C14A C9A 1_555 1_555
H8A C14A 1_555 1_555
C15A N5A 1_555 1_555
C16A C15A 1_555 1_555
H9A C16A 1_555 1_555
H10A C16A 1_555 1_555
H11A C16A 1_555 1_555
N1 C7 1_555 1_555
C5 C6 1_555 1_555
C13 C14 1_555 1_555
N1A C7A 1_555 1_555
C2A C3A 1_555 1_555
C5A C6A 1_555 1_555
C11A C12A 1_555 1_555
C13A C14A 1_555 1_555

#END
