
#######################################################################
#
#                 Cambridge Crystallographic Data Centre
#                                CCDC 
#
#######################################################################
#
# If this CIF has been generated from an entry in the Cambridge 
# Structural Database, then it will include bibliographic, chemical, 
# crystal, experimental, refinement or atomic coordinate data resulting 
# from the CCDC's data processing and validation procedures.
#
#######################################################################

data_DEQSEA
_chemical_formula_moiety         'C32 H22 N10 O6,C16 H36 N1 1+,I1 1-'
_chemical_name_systematic        
"tetra-n-butylammonium 1,1'-[2,7,17,22-tetraoxa-4,5,12,19,20,27,35,36,41,42-decaazaheptacyclo[26.2.2.2^3,6^.2^8,11^.2^13,16^.2^18,21^.2^23,26^]dotetraconta-1(30),3,5,8,10,13,15,18,20,23,25,28,31,33,35,37,39,41-octadecaene-12,27-diyl]bis(ethan-1-one) iodide"
_symmetry_cell_setting           monoclinic
_symmetry_space_group_name_H-M   'P 21/n'
_symmetry_Int_Tables_number      14
_space_group_name_Hall           '-P 2yn'
loop_
_symmetry_equiv_pos_site_id
_symmetry_equiv_pos_as_xyz
1 x,y,z
2 1/2-x,1/2+y,1/2-z
3 -x,-y,-z
4 1/2+x,1/2-y,1/2+z
_cell_length_a                   11.4107(2)
_cell_length_b                   25.3076(5)
_cell_length_c                   16.8452(2)
_cell_angle_alpha                90
_cell_angle_beta                 91.8800(10)
_cell_angle_gamma                90
_cell_volume                     4861.9
_exptl_crystal_colour            red
_exptl_crystal_description       block
_cell_formula_units_Z            4
loop_
_atom_site_label
_atom_site_type_symbol
_atom_site_fract_x
_atom_site_fract_y
_atom_site_fract_z
O1 O 0.58067(14) -0.01672(6) 0.34166(10)
O2 O 0.85768(12) 0.12603(5) 0.59109(9)
O3 O 0.87185(10) 0.32079(5) 0.68518(8)
O4 O 0.43097(10) 0.54200(5) 0.59225(8)
O5 O 0.08059(10) 0.35832(5) 0.54296(8)
O6 O 0.07393(11) 0.16846(5) 0.42807(9)
N1 N 0.48348(13) 0.05009(6) 0.40090(8)
N2 N 0.95252(13) 0.19168(6) 0.65481(10)
N3 N 0.95625(12) 0.24126(6) 0.67878(8)
N4 N 0.78115(12) 0.25923(6) 0.60334(8)
N5 N 0.77766(12) 0.20940(6) 0.57911(8)
N6 N 0.50273(11) 0.46074(5) 0.62017(8)
N7 N -0.01878(12) 0.29244(6) 0.48211(9)
N8 N -0.02087(12) 0.24414(6) 0.45342(9)
N9 N 0.16550(12) 0.22742(6) 0.51495(9)
N10 N 0.16743(12) 0.27599(6) 0.54380(8)
C1 C 0.58128(15) 0.06743(7) 0.44947(10)
C2 C 0.69451(16) 0.06905(7) 0.42148(11)
H1 H 0.709732 0.056372 0.369747
C3 C 0.78499(16) 0.08916(7) 0.46915(12)
H2 H 0.862521 0.090342 0.450319
C4 C 0.76200(16) 0.10742(7) 0.54389(11)
C5 C 0.65114(17) 0.10553(8) 0.57332(11)
H3 H 0.636949 0.117715 0.625472
C6 C 0.56084(16) 0.08561(7) 0.52573(10)
H4 H 0.483749 0.084292 0.545289
C7 C 0.49099(18) 0.00892(8) 0.34745(11)
C8 C 0.3827(2) -0.00256(10) 0.29643(12)
H5 H 0.398305 -0.032159 0.260796
H6 H 0.361675 0.028796 0.264921
H7 H 0.317696 -0.011761 0.330475
C9 C 0.85929(15) 0.17753(7) 0.60995(11)
C10 C 0.86615(13) 0.27175(6) 0.65565(9)
C11 C 0.77707(14) 0.35476(6) 0.66652(9)
C12 C 0.79123(14) 0.39304(7) 0.60980(10)
H8 H 0.862443 0.395455 0.582346
C13 C 0.70030(14) 0.42812(7) 0.59309(10)
H9 H 0.707374 0.453711 0.552267
C14 C 0.59899(13) 0.42566(6) 0.63628(9)
C15 C 0.58718(14) 0.38658(7) 0.69331(10)
H10 H 0.517549 0.384861 0.722605
C16 C 0.67521(15) 0.35029(7) 0.70792(10)
H11 H 0.666008 0.322820 0.745643
C17 C 0.51178(14) 0.51471(6) 0.61858(9)
C18 C 0.62312(15) 0.53887(7) 0.65255(12)
H12 H 0.682511 0.539361 0.611824
H13 H 0.651827 0.517879 0.698046
H14 H 0.607495 0.575082 0.669873
C19 C 0.39257(13) 0.43592(6) 0.59878(9)
C20 C 0.29573(14) 0.44257(7) 0.64534(10)
H15 H 0.299918 0.465499 0.689994
C21 C 0.19287(14) 0.41568(7) 0.62650(11)
H16 H 0.126141 0.419860 0.658191
C22 C 0.18837(13) 0.38294(7) 0.56161(10)
C23 C 0.28320(15) 0.37636(7) 0.51343(10)
H17 H 0.277818 0.354199 0.467936
C24 C 0.38620(14) 0.40295(7) 0.53326(9)
H18 H 0.452924 0.398510 0.501642
C25 C 0.08011(14) 0.30765(7) 0.52018(10)
C26 C 0.07660(14) 0.21560(7) 0.46507(10)
C27 C 0.17965(15) 0.14012(7) 0.42334(10)
C28 C 0.17818(15) 0.08808(7) 0.44659(10)
H19 H 0.109086 0.073013 0.466952
C29 C 0.27852(16) 0.05788(7) 0.44000(10)
H20 H 0.279720 0.022168 0.457364
C30 C 0.37707(15) 0.08016(7) 0.40788(9)
C31 C 0.37640(15) 0.13266(7) 0.38365(10)
H21 H 0.444310 0.147539 0.361338
C32 C 0.27741(16) 0.16326(7) 0.39187(11)
H22 H 0.276545 0.199335 0.376278
N11 N 0.26380(11) 0.66089(5) 0.69606(7)
C33 C 0.28527(14) 0.63313(6) 0.77505(8)
H23 H 0.208492 0.622729 0.795878
H24 H 0.321350 0.658728 0.812974
C34 C 0.36278(16) 0.58443(7) 0.77320(9)
H25 H 0.440783 0.594035 0.753566
H26 H 0.327305 0.557830 0.736622
C35 C 0.37608(16) 0.56136(7) 0.85620(10)
H27 H 0.403403 0.589418 0.893352
H28 H 0.298509 0.549112 0.873385
C36 C 0.4615(2) 0.51569(8) 0.86085(13)
H29 H 0.435505 0.487950 0.823691
H30 H 0.464764 0.501482 0.915004
H31 H 0.539572 0.528028 0.846883
C37 C 0.37977(13) 0.68166(6) 0.66652(9)
H32 H 0.412133 0.706966 0.706338
H33 H 0.435202 0.651644 0.664298
C38 C 0.37628(15) 0.70872(8) 0.58616(11)
H34 H 0.349278 0.683450 0.544596
H35 H 0.320381 0.738634 0.586516
C39 C 0.49715(15) 0.72872(8) 0.56794(11)
H36 H 0.553562 0.699153 0.573905
H37 H 0.520147 0.756067 0.607487
C40 C 0.50639(18) 0.75189(10) 0.48556(13)
H38 H 0.488270 0.724553 0.445823
H39 H 0.586236 0.764979 0.478623
H40 H 0.450659 0.781141 0.478890
C41 C 0.17823(13) 0.70610(6) 0.70802(9)
H41 H 0.099812 0.690983 0.717211
H42 H 0.172236 0.727028 0.658407
C42 C 0.21056(16) 0.74329(7) 0.77660(10)
H43 H 0.295901 0.750422 0.777388
H44 H 0.191462 0.726409 0.827586
C43 C 0.14322(17) 0.79521(7) 0.76730(11)
H45 H 0.059904 0.787277 0.754037
H46 H 0.146552 0.814274 0.818641
C44 C 0.1909(2) 0.83083(8) 0.70352(13)
H47 H 0.182763 0.813211 0.651822
H48 H 0.273907 0.838203 0.715557
H49 H 0.146851 0.864071 0.701973
C45 C 0.21212(12) 0.62358(6) 0.63351(8)
H50 H 0.190182 0.644620 0.585751
H51 H 0.274260 0.598591 0.618315
C46 C 0.10623(14) 0.59180(6) 0.65651(9)
H52 H 0.041808 0.615706 0.671241
H53 H 0.126418 0.568887 0.702600
C47 C 0.06831(15) 0.55816(7) 0.58497(9)
H54 H 0.058098 0.581325 0.537898
H55 H 0.131254 0.532516 0.573956
C48 C -0.0445(2) 0.52838(10) 0.59710(12)
H56 H -0.071543 0.512429 0.546736
H57 H -0.104361 0.552843 0.615615
H58 H -0.030901 0.500561 0.636805
I1 I 0.68806(2) 0.19122(2) 0.80222(2)
loop_
_geom_bond_atom_site_label_1
_geom_bond_atom_site_label_2
_geom_bond_site_symmetry_1
_geom_bond_site_symmetry_2
O1 C7 1_555 1_555
O2 C4 1_555 1_555
O3 C10 1_555 1_555
O4 C17 1_555 1_555
O5 C22 1_555 1_555
O6 C26 1_555 1_555
N1 C1 1_555 1_555
N2 N3 1_555 1_555
N3 C10 1_555 1_555
N4 N5 1_555 1_555
N5 C9 1_555 1_555
N6 C14 1_555 1_555
N7 N8 1_555 1_555
N8 C26 1_555 1_555
N9 N10 1_555 1_555
N10 C25 1_555 1_555
C1 C2 1_555 1_555
C2 H1 1_555 1_555
C3 C2 1_555 1_555
H2 C3 1_555 1_555
C4 C3 1_555 1_555
C5 C4 1_555 1_555
H3 C5 1_555 1_555
C6 C1 1_555 1_555
H4 C6 1_555 1_555
C7 N1 1_555 1_555
C8 C7 1_555 1_555
H5 C8 1_555 1_555
H6 C8 1_555 1_555
H7 C8 1_555 1_555
C9 O2 1_555 1_555
C10 N4 1_555 1_555
C11 O3 1_555 1_555
C12 C11 1_555 1_555
H8 C12 1_555 1_555
C13 C12 1_555 1_555
H9 C13 1_555 1_555
C14 C13 1_555 1_555
C15 C14 1_555 1_555
H10 C15 1_555 1_555
C16 C11 1_555 1_555
H11 C16 1_555 1_555
C17 N6 1_555 1_555
C18 C17 1_555 1_555
H12 C18 1_555 1_555
H13 C18 1_555 1_555
H14 C18 1_555 1_555
C19 N6 1_555 1_555
C20 C19 1_555 1_555
H15 C20 1_555 1_555
C21 C20 1_555 1_555
H16 C21 1_555 1_555
C22 C21 1_555 1_555
C23 C22 1_555 1_555
H17 C23 1_555 1_555
C24 C19 1_555 1_555
H18 C24 1_555 1_555
C25 O5 1_555 1_555
C26 N9 1_555 1_555
C27 O6 1_555 1_555
C28 C27 1_555 1_555
H19 C28 1_555 1_555
C29 C28 1_555 1_555
H20 C29 1_555 1_555
C30 N1 1_555 1_555
C31 C30 1_555 1_555
H21 C31 1_555 1_555
C32 C27 1_555 1_555
H22 C32 1_555 1_555
N11 C33 1_555 1_555
C33 H23 1_555 1_555
H24 C33 1_555 1_555
C34 C33 1_555 1_555
H25 C34 1_555 1_555
H26 C34 1_555 1_555
C35 C34 1_555 1_555
H27 C35 1_555 1_555
H28 C35 1_555 1_555
C36 C35 1_555 1_555
H29 C36 1_555 1_555
H30 C36 1_555 1_555
H31 C36 1_555 1_555
C37 N11 1_555 1_555
H32 C37 1_555 1_555
H33 C37 1_555 1_555
C38 C37 1_555 1_555
H34 C38 1_555 1_555
H35 C38 1_555 1_555
C39 C38 1_555 1_555
H36 C39 1_555 1_555
H37 C39 1_555 1_555
C40 C39 1_555 1_555
H38 C40 1_555 1_555
H39 C40 1_555 1_555
H40 C40 1_555 1_555
C41 N11 1_555 1_555
H41 C41 1_555 1_555
H42 C41 1_555 1_555
C42 C41 1_555 1_555
H43 C42 1_555 1_555
H44 C42 1_555 1_555
C43 C42 1_555 1_555
H45 C43 1_555 1_555
H46 C43 1_555 1_555
C44 C43 1_555 1_555
H47 C44 1_555 1_555
H48 C44 1_555 1_555
H49 C44 1_555 1_555
C45 N11 1_555 1_555
H50 C45 1_555 1_555
H51 C45 1_555 1_555
C46 C45 1_555 1_555
H52 C46 1_555 1_555
H53 C46 1_555 1_555
C47 C46 1_555 1_555
H54 C47 1_555 1_555
H55 C47 1_555 1_555
C48 C47 1_555 1_555
H56 C48 1_555 1_555
H57 C48 1_555 1_555
H58 C48 1_555 1_555
N2 C9 1_555 1_555
N7 C25 1_555 1_555
C5 C6 1_555 1_555
C15 C16 1_555 1_555
C23 C24 1_555 1_555
C29 C30 1_555 1_555
C31 C32 1_555 1_555

#END
