
#######################################################################
#
#                 Cambridge Crystallographic Data Centre
#                                CCDC 
#
#######################################################################
#
# If this CIF has been generated from an entry in the Cambridge 
# Structural Database, then it will include bibliographic, chemical, 
# crystal, experimental, refinement or atomic coordinate data resulting 
# from the CCDC's data processing and validation procedures.
#
#######################################################################

data_DEQSAW
_chemical_formula_moiety         'C32 H22 N10 O6,C16 H36 N1 1+,C1 N1 S1 1-'
_chemical_name_systematic        
"tetra-n-butylammonium 1,1'-[2,7,17,22-tetraoxa-4,5,12,19,20,27,35,36,41,42-decaazaheptacyclo[26.2.2.2^3,6^.2^8,11^.2^13,16^.2^18,21^.2^23,26^]dotetraconta-1(30),3,5,8,10,13,15,18,20,23,25,28,31,33,35,37,39,41-octadecaene-12,27-diyl]bis(ethan-1-one) thiocyanate"
_symmetry_cell_setting           monoclinic
_symmetry_space_group_name_H-M   'P 21/n'
_symmetry_Int_Tables_number      14
_space_group_name_Hall           '-P 2yn'
loop_
_symmetry_equiv_pos_site_id
_symmetry_equiv_pos_as_xyz
1 x,y,z
2 1/2-x,1/2+y,1/2-z
3 -x,-y,-z
4 1/2+x,1/2-y,1/2+z
_cell_length_a                   11.209(3)
_cell_length_b                   25.782(7)
_cell_length_c                   17.261(5)
_cell_angle_alpha                90
_cell_angle_beta                 92.590(5)
_cell_angle_gamma                90
_cell_volume                     4983.17
_exptl_crystal_colour            colorless
_exptl_crystal_description       block
_cell_formula_units_Z            4
loop_
_atom_site_label
_atom_site_type_symbol
_atom_site_fract_x
_atom_site_fract_y
_atom_site_fract_z
O1 O 0.8537(2) 0.87688(11) 0.58303(18)
O2 O 0.8548(2) 0.68831(10) 0.69033(18)
O3 O 0.4157(2) 0.46885(10) 0.57854(17)
O4 O 0.0584(2) 0.65198(11) 0.5376(2)
O5 O 0.0510(2) 0.84227(11) 0.44221(19)
O6 O 0.5705(3) 1.01458(13) 0.32948(19)
N1 N 0.9455(3) 0.81315(13) 0.6506(2)
N2 N 0.9460(3) 0.76504(12) 0.6774(2)
N3 N 0.7552(3) 0.74984(13) 0.6151(2)
N4 N 0.7551(3) 0.79807(13) 0.5871(2)
N5 N 0.4873(2) 0.54826(12) 0.61146(19)
N6 N -0.0447(3) 0.71948(14) 0.4878(2)
N7 N -0.0475(3) 0.76831(14) 0.4642(2)
N8 N 0.1476(3) 0.78162(13) 0.5208(2)
N9 N 0.1500(3) 0.73277(13) 0.5452(2)
N10 N 0.4709(3) 0.95313(13) 0.39579(19)
C1 C 0.8484(3) 0.82751(15) 0.6080(2)
C2 C 0.8481(3) 0.73654(15) 0.6601(2)
C3 C 0.7603(3) 0.65365(15) 0.6695(2)
C4 C 0.7765(3) 0.62013(16) 0.6089(3)
H1 H 0.847998 0.620860 0.581444
C5 C 0.6853(3) 0.58488(16) 0.5885(2)
H2 H 0.692639 0.562315 0.545509
C6 C 0.5846(3) 0.58329(14) 0.6316(2)
C7 C 0.5723(3) 0.61697(15) 0.6930(2)
H3 H 0.503037 0.615056 0.722636
C8 C 0.6591(3) 0.65332(16) 0.7120(3)
H4 H 0.649463 0.677326 0.753033
C9 C 0.4987(3) 0.49512(14) 0.6052(2)
C10 C 0.6150(3) 0.47177(16) 0.6348(3)
H5 H 0.603013 0.435054 0.646908
H6 H 0.643578 0.490124 0.681822
H7 H 0.674321 0.474931 0.595070
C11 C 0.3742(3) 0.57322(14) 0.5908(2)
C12 C 0.2759(3) 0.56557(16) 0.6340(3)
H8 H 0.279142 0.541489 0.675720
C13 C 0.1712(3) 0.59324(16) 0.6166(3)
H9 H 0.103249 0.588886 0.646888
C14 C 0.1681(3) 0.62682(15) 0.5550(3)
C15 C 0.2637(4) 0.63356(17) 0.5086(3)
H10 H 0.258474 0.656073 0.465050
C16 C 0.3680(3) 0.60646(16) 0.5276(2)
H11 H 0.435627 0.610716 0.496967
C17 C 0.0582(3) 0.70302(16) 0.5210(2)
C18 C 0.0543(3) 0.79522(16) 0.4749(2)
C19 C 0.1603(3) 0.86865(15) 0.4330(2)
C20 C 0.1648(3) 0.92002(16) 0.4551(2)
H12 H 0.098354 0.935760 0.478074
C21 C 0.2674(3) 0.94841(16) 0.4435(2)
H13 H 0.273108 0.983554 0.459766
C22 C 0.3617(3) 0.92484(15) 0.4078(2)
C23 C 0.3550(3) 0.87354(16) 0.3858(2)
H14 H 0.420604 0.857799 0.361988
C24 C 0.2531(4) 0.84461(16) 0.3981(3)
H15 H 0.247816 0.809250 0.382919
C25 C 0.4787(4) 0.99103(17) 0.3393(2)
C26 C 0.3658(4) 1.0006(2) 0.2894(3)
H16 H 0.380217 1.028249 0.252038
H17 H 0.301126 1.010872 0.322448
H18 H 0.343323 0.968692 0.261418
C27 C 0.5723(3) 0.93655(15) 0.4435(2)
C28 C 0.6842(3) 0.93051(16) 0.4147(3)
H19 H 0.698047 0.940351 0.362824
C29 C 0.7773(3) 0.90990(16) 0.4618(3)
H20 H 0.854407 0.905393 0.442042
C30 C 0.7561(3) 0.89627(15) 0.5368(2)
C31 C 0.6467(3) 0.90302(16) 0.5675(3)
H21 H 0.634213 0.893904 0.619818
C32 C 0.5538(3) 0.92354(16) 0.5204(2)
H22 H 0.477509 0.928692 0.540930
N11 N 0.2696(3) 0.34016(12) 0.69318(19)
C33 C 0.2163(3) 0.37528(15) 0.6299(2)
H23 H 0.279133 0.399687 0.614481
H24 H 0.194494 0.353559 0.584166
C34 C 0.1076(3) 0.40666(16) 0.6498(2)
H25 H 0.126169 0.428019 0.696489
H26 H 0.040853 0.383097 0.661155
C35 C 0.0715(4) 0.44174(16) 0.5812(2)
H27 H 0.137308 0.466219 0.571857
H28 H 0.058236 0.420242 0.534077
C36 C -0.0411(4) 0.4721(2) 0.5957(3)
H29 H -0.066639 0.490957 0.548463
H30 H -0.025107 0.496862 0.637956
H31 H -0.104405 0.448177 0.609906
C37 C 0.1841(3) 0.29574(16) 0.7069(3)
H32 H 0.178000 0.274093 0.659561
H33 H 0.103972 0.310402 0.714907
C38 C 0.2186(4) 0.26084(17) 0.7758(3)
H34 H 0.196626 0.277964 0.824443
H35 H 0.306090 0.255352 0.778283
C39 C 0.1552(4) 0.20856(18) 0.7682(3)
H36 H 0.158070 0.191308 0.819446
H37 H 0.070152 0.214587 0.752693
C40 C 0.2092(5) 0.1724(2) 0.7093(3)
H38 H 0.198468 0.187354 0.657246
H39 H 0.169352 0.138581 0.710540
H40 H 0.294673 0.167941 0.722201
C41 C 0.3891(3) 0.31923(16) 0.6669(2)
H41 H 0.445047 0.348787 0.663557
H42 H 0.422195 0.295601 0.707649
C42 C 0.3871(4) 0.29030(18) 0.5897(3)
H43 H 0.363095 0.314246 0.546937
H44 H 0.328168 0.261704 0.590274
C43 C 0.5118(4) 0.26835(19) 0.5767(3)
H45 H 0.531305 0.241832 0.616764
H46 H 0.571287 0.296603 0.582940
C44 C 0.5218(4) 0.2437(2) 0.4956(3)
H47 H 0.502511 0.269690 0.455571
H48 H 0.465784 0.214581 0.489887
H49 H 0.603432 0.231068 0.489868
C45 C 0.2917(3) 0.36985(16) 0.7683(2)
H50 H 0.213570 0.380511 0.787562
H51 H 0.329138 0.345968 0.807203
C46 C 0.3697(4) 0.41761(17) 0.7637(2)
H52 H 0.334499 0.441928 0.724601
H53 H 0.450106 0.407579 0.747412
C47 C 0.3801(4) 0.44413(19) 0.8426(3)
H54 H 0.299862 0.455800 0.856861
H55 H 0.409047 0.418597 0.881988
C48 C 0.4636(5) 0.4902(2) 0.8445(4)
H56 H 0.437569 0.514957 0.804131
H57 H 0.544844 0.478441 0.835176
H58 H 0.462432 0.506974 0.895379
S1 S 0.23162(14) 0.64345(5) 0.27729(8)
N12 N 0.1369(4) 0.72880(19) 0.3502(3)
C49 C 0.1754(4) 0.69452(18) 0.3201(3)
loop_
_geom_bond_atom_site_label_1
_geom_bond_atom_site_label_2
_geom_bond_site_symmetry_1
_geom_bond_site_symmetry_2
O1 C1 1_555 1_555
O2 C2 1_555 1_555
O3 C9 1_555 1_555
O4 C14 1_555 1_555
O5 C18 1_555 1_555
O6 C25 1_555 1_555
N1 N2 1_555 1_555
N2 C2 1_555 1_555
N3 N4 1_555 1_555
N4 C1 1_555 1_555
N5 C6 1_555 1_555
N6 N7 1_555 1_555
N7 C18 1_555 1_555
N8 N9 1_555 1_555
N9 C17 1_555 1_555
N10 C22 1_555 1_555
C1 N1 1_555 1_555
C2 N3 1_555 1_555
C3 O2 1_555 1_555
C4 C3 1_555 1_555
H1 C4 1_555 1_555
C5 C4 1_555 1_555
H2 C5 1_555 1_555
C6 C5 1_555 1_555
C7 C6 1_555 1_555
H3 C7 1_555 1_555
C8 C3 1_555 1_555
H4 C8 1_555 1_555
C9 N5 1_555 1_555
C10 C9 1_555 1_555
H5 C10 1_555 1_555
H6 C10 1_555 1_555
H7 C10 1_555 1_555
C11 N5 1_555 1_555
C12 C11 1_555 1_555
H8 C12 1_555 1_555
C13 C12 1_555 1_555
H9 C13 1_555 1_555
C14 C13 1_555 1_555
C15 C14 1_555 1_555
H10 C15 1_555 1_555
C16 C11 1_555 1_555
H11 C16 1_555 1_555
C17 O4 1_555 1_555
C18 N8 1_555 1_555
C19 O5 1_555 1_555
C20 C19 1_555 1_555
H12 C20 1_555 1_555
C21 C20 1_555 1_555
H13 C21 1_555 1_555
C22 C21 1_555 1_555
C23 C22 1_555 1_555
H14 C23 1_555 1_555
C24 C19 1_555 1_555
H15 C24 1_555 1_555
C25 N10 1_555 1_555
C26 C25 1_555 1_555
H16 C26 1_555 1_555
H17 C26 1_555 1_555
H18 C26 1_555 1_555
C27 N10 1_555 1_555
C28 C27 1_555 1_555
H19 C28 1_555 1_555
C29 C28 1_555 1_555
H20 C29 1_555 1_555
C30 O1 1_555 1_555
C31 C30 1_555 1_555
H21 C31 1_555 1_555
C32 C27 1_555 1_555
H22 C32 1_555 1_555
N11 C33 1_555 1_555
C33 H23 1_555 1_555
H24 C33 1_555 1_555
C34 C33 1_555 1_555
H25 C34 1_555 1_555
H26 C34 1_555 1_555
C35 C34 1_555 1_555
H27 C35 1_555 1_555
H28 C35 1_555 1_555
C36 C35 1_555 1_555
H29 C36 1_555 1_555
H30 C36 1_555 1_555
H31 C36 1_555 1_555
C37 N11 1_555 1_555
H32 C37 1_555 1_555
H33 C37 1_555 1_555
C38 C37 1_555 1_555
H34 C38 1_555 1_555
H35 C38 1_555 1_555
C39 C38 1_555 1_555
H36 C39 1_555 1_555
H37 C39 1_555 1_555
C40 C39 1_555 1_555
H38 C40 1_555 1_555
H39 C40 1_555 1_555
H40 C40 1_555 1_555
C41 N11 1_555 1_555
H41 C41 1_555 1_555
H42 C41 1_555 1_555
C42 C41 1_555 1_555
H43 C42 1_555 1_555
H44 C42 1_555 1_555
C43 C42 1_555 1_555
H45 C43 1_555 1_555
H46 C43 1_555 1_555
C44 C43 1_555 1_555
H47 C44 1_555 1_555
H48 C44 1_555 1_555
H49 C44 1_555 1_555
C45 N11 1_555 1_555
H50 C45 1_555 1_555
H51 C45 1_555 1_555
C46 C45 1_555 1_555
H52 C46 1_555 1_555
H53 C46 1_555 1_555
C47 C46 1_555 1_555
H54 C47 1_555 1_555
H55 C47 1_555 1_555
C48 C47 1_555 1_555
H56 C48 1_555 1_555
H57 C48 1_555 1_555
H58 C48 1_555 1_555
S1 C49 1_555 1_555
N12 C49 1_555 1_555
N6 C17 1_555 1_555
C7 C8 1_555 1_555
C15 C16 1_555 1_555
C23 C24 1_555 1_555
C29 C30 1_555 1_555
C31 C32 1_555 1_555

#END
