
#######################################################################
#
#                 Cambridge Crystallographic Data Centre
#                                CCDC 
#
#######################################################################
#
# If this CIF has been generated from an entry in the Cambridge 
# Structural Database, then it will include bibliographic, chemical, 
# crystal, experimental, refinement or atomic coordinate data resulting 
# from the CCDC's data processing and validation procedures.
#
#######################################################################

data_DEQTAX
_chemical_formula_moiety         'C30 H19 N9 O6,2(C2 H6 O1 S1)'
_chemical_name_systematic        
'1-[2,7,12,17,22-pentaoxa-4,5,19,20,27,35,36,41,42-nonaazaheptacyclo[26.2.2.2^3,6^.2^8,11^.2^13,16^.2^18,21^.2^23,26^]dotetraconta-1(30),3,5,8,10,13,15,18,20,23,25,28,31,33,35,37,39,41-octadecaen-27-yl]ethan-1-one dimethyl sulfoxide solvate'
_symmetry_cell_setting           monoclinic
_symmetry_space_group_name_H-M   'P 21'
_symmetry_Int_Tables_number      4
_space_group_name_Hall           'P 2yb'
loop_
_symmetry_equiv_pos_site_id
_symmetry_equiv_pos_as_xyz
1 x,y,z
2 -x,1/2+y,-z
_cell_length_a                   7.975(3)
_cell_length_b                   22.255(7)
_cell_length_c                   20.676(7)
_cell_angle_alpha                90
_cell_angle_beta                 98.222(6)
_cell_angle_gamma                90
_cell_volume                     3631.93
_exptl_crystal_colour            red
_exptl_crystal_description       prism
_cell_formula_units_Z            4
loop_
_atom_site_label
_atom_site_type_symbol
_atom_site_fract_x
_atom_site_fract_y
_atom_site_fract_z
O1 O 0.9878(11) 0.1875(4) 0.6597(4)
O2 O 0.9868(10) 0.0490(4) 0.4572(4)
O3 O 0.5868(10) 0.1083(4) 0.2234(4)
O4 O 0.2086(10) 0.3158(4) 0.2168(4)
O5 O 0.2278(9) 0.4520(3) 0.4221(3)
O6 O 0.7415(10) 0.5213(4) 0.6685(4)
N1 N 1.0840(13) 0.1034(6) 0.6145(5)
N2 N 1.0811(11) 0.0671(5) 0.5639(5)
N3 N 0.8399(10) 0.1185(4) 0.5095(4)
N4 N 0.8434(10) 0.1543(4) 0.5606(4)
N5 N 0.1187(11) 0.3969(5) 0.2660(5)
N6 N 0.1223(10) 0.4309(4) 0.3165(5)
N7 N 0.3540(9) 0.3745(3) 0.3724(4)
N8 N 0.3481(9) 0.3387(3) 0.3198(4)
N9 N 0.7410(11) 0.4224(4) 0.6343(4)
C1 C 0.9743(13) 0.1485(5) 0.6083(6)
C2 C 0.9686(12) 0.0809(6) 0.5105(6)
C3 C 0.8858(12) 0.0668(5) 0.3986(5)
C4 C 0.7581(17) 0.0288(5) 0.3734(6)
H1 H 0.737926 -0.007244 0.395748
C5 C 0.6602(16) 0.0431(5) 0.3160(6)
H2 H 0.570627 0.017112 0.298442
C6 C 0.6897(13) 0.0943(5) 0.2834(5)
C7 C 0.8199(18) 0.1319(7) 0.3076(7)
H3 H 0.841896 0.167634 0.285121
C8 C 0.9151(16) 0.1168(7) 0.3639(8)
H4 H 1.007328 0.142044 0.380393
C9 C 0.4942(12) 0.1603(5) 0.2235(4)
C10 C 0.5410(14) 0.2106(6) 0.1914(5)
H5 H 0.640281 0.209254 0.170925
C11 C 0.4494(14) 0.2614(6) 0.1884(5)
H6 H 0.481104 0.295643 0.165499
C12 C 0.3052(12) 0.2624(5) 0.2204(5)
C13 C 0.2556(14) 0.2120(6) 0.2508(6)
H7 H 0.155803 0.213116 0.271009
C14 C 0.3459(13) 0.1615(6) 0.2524(5)
H8 H 0.309890 0.126563 0.273053
C15 C 0.2268(11) 0.3507(5) 0.2715(5)
C16 C 0.2357(11) 0.4175(4) 0.3696(5)
C17 C 0.3546(12) 0.4452(4) 0.4763(5)
C18 C 0.4875(16) 0.4829(5) 0.4831(5)
H9 H 0.494225 0.513541 0.451530
C19 C 0.6134(17) 0.4775(5) 0.5352(5)
H10 H 0.705673 0.504874 0.539816
C20 C 0.6083(12) 0.4318(4) 0.5824(4)
C21 C 0.4684(12) 0.3940(4) 0.5741(5)
H11 H 0.458802 0.363511 0.605512
C22 C 0.3416(13) 0.3998(5) 0.5204(5)
H12 H 0.248019 0.372998 0.514564
C23 C 0.8061(16) 0.4703(6) 0.6748(6)
C24 C 0.9569(14) 0.4547(7) 0.7241(5)
H13 H 0.998764 0.491001 0.747954
H14 H 1.046429 0.437967 0.701580
H15 H 0.923839 0.424973 0.754859
C25 C 0.8055(11) 0.3628(5) 0.6428(4)
C26 C 0.8945(12) 0.3391(5) 0.5940(4)
H16 H 0.915297 0.363771 0.558484
C27 C 0.9510(12) 0.2807(6) 0.5978(4)
H17 H 1.009974 0.264722 0.564887
C28 C 0.9210(12) 0.2457(5) 0.6498(5)
C29 C 0.8353(13) 0.2685(6) 0.6977(5)
H18 H 0.816694 0.243785 0.733540
C30 C 0.7766(13) 0.3265(5) 0.6941(5)
H19 H 0.716059 0.341655 0.726982
O7 O 0.9990(11) 0.7936(3) -0.0454(4)
O8 O 0.9626(10) 0.5754(4) -0.1324(4)
O9 O 0.7360(11) 0.3908(3) 0.0101(4)
O10 O 0.5168(11) 0.4486(3) 0.2458(4)
O11 O 0.5058(8) 0.6708(3) 0.3185(3)
O12 O 0.5461(11) 0.9275(3) 0.2255(4)
N10 N 1.0684(10) 0.7240(4) -0.1160(4)
N11 N 1.0619(9) 0.6696(4) -0.1376(4)
N12 N 0.8472(10) 0.6470(4) -0.0721(4)
N13 N 0.8582(10) 0.7035(4) -0.0498(4)
N14 N 0.4526(11) 0.5181(4) 0.3175(4)
N15 N 0.4481(11) 0.5744(4) 0.3348(4)
N16 N 0.6222(9) 0.6009(3) 0.2568(4)
N17 N 0.6248(9) 0.5444(3) 0.2377(4)
N18 N 0.6889(11) 0.8620(3) 0.1689(3)
C31 C 0.9721(11) 0.7379(5) -0.0706(4)
C32 C 0.9585(12) 0.6316(5) -0.1111(5)
C33 C 0.9021(14) 0.5296(5) -0.0948(5)
C34 C 0.9624(15) 0.5251(7) -0.0283(6)
H20 H 1.040805 0.553830 -0.007886
C35 C 0.9074(16) 0.4787(6) 0.0076(6)
H21 H 0.947677 0.474878 0.052929
C36 C 0.7923(14) 0.4378(4) -0.0237(5)
C37 C 0.7403(15) 0.4422(5) -0.0901(5)
H22 H 0.667258 0.412507 -0.111802
C38 C 0.7936(15) 0.4890(6) -0.1246(5)
H23 H 0.753461 0.492765 -0.169942
C39 C 0.6805(13) 0.4062(4) 0.0692(5)
C40 C 0.5497(15) 0.4475(5) 0.0690(5)
H24 H 0.499475 0.465689 0.029365
C41 C 0.4934(15) 0.4619(5) 0.1278(6)
H25 H 0.402559 0.489314 0.128948
C42 C 0.5722(15) 0.4355(5) 0.1840(5)
C43 C 0.7038(17) 0.3954(5) 0.1846(6)
H26 H 0.756899 0.378328 0.224434
C44 C 0.7563(16) 0.3806(5) 0.1267(7)
H27 H 0.845676 0.352469 0.126012
C45 C 0.5296(12) 0.5052(4) 0.2648(5)
C46 C 0.5228(11) 0.6125(4) 0.3006(4)
C47 C 0.5541(11) 0.7171(4) 0.2784(4)
C48 C 0.4908(12) 0.7202(4) 0.2136(4)
H28 H 0.418651 0.689557 0.193267
C49 C 0.5346(12) 0.7691(4) 0.1782(4)
H29 H 0.491025 0.772213 0.133100
C50 C 0.6402(12) 0.8132(4) 0.2072(4)
C51 C 0.7036(11) 0.8088(4) 0.2728(4)
H30 H 0.778061 0.838725 0.293170
C52 C 0.6579(12) 0.7604(4) 0.3087(4)
H31 H 0.698406 0.757509 0.354130
C53 C 0.6414(14) 0.9192(5) 0.1821(4)
C54 C 0.7064(17) 0.9711(5) 0.1468(6)
H32 H 0.633701 0.977100 0.104905
H33 H 0.822425 0.962690 0.138967
H34 H 0.705558 1.007512 0.173420
C55 C 0.7717(13) 0.8462(4) 0.1138(4)
C56 C 0.6929(17) 0.8573(5) 0.0507(5)
H35 H 0.585805 0.876699 0.043430
C57 C 0.7733(17) 0.8394(6) -0.0026(5)
H36 H 0.723027 0.848760 -0.045928
C58 C 0.9207(14) 0.8093(5) 0.0074(5)
C59 C 0.9970(13) 0.7970(5) 0.0698(5)
H37 H 1.100601 0.775338 0.076446
C60 C 0.9238(13) 0.8161(5) 0.1232(5)
H38 H 0.978726 0.808419 0.166277
S1 S -0.0969(8) 0.3246(4) 0.4105(3)
O13 O -0.0235(18) 0.3052(7) 0.3453(9)
C61 C -0.270(3) 0.2726(12) 0.4040(14)
H39 H -0.226355 0.231616 0.411115
H40 H -0.343041 0.282195 0.436969
H41 H -0.336346 0.275461 0.360320
C62 C -0.2073(14) 0.3841(10) 0.3970(8)
H42 H -0.252086 0.395850 0.436849
H43 H -0.136252 0.416474 0.383719
H44 H -0.301578 0.376529 0.361998
S3 S 1.3744(6) 0.1628(2) 0.5093(2)
O14 O 1.1816(14) 0.1897(7) 0.5072(6)
C63 C 1.413(2) 0.1469(9) 0.4351(11)
H51 H 1.528361 0.130926 0.437312
H52 H 1.331726 0.116777 0.415342
H53 H 1.402367 0.183416 0.408332
C64 C 1.480(3) 0.2315(7) 0.5216(7)
H54 H 1.602353 0.224975 0.524349
H55 H 1.441805 0.258521 0.484989
H56 H 1.455229 0.249684 0.562372
S6 S 1.0996(4) 0.57851(19) 0.15222(19)
O16 O 1.2775(12) 0.5867(6) 0.1743(6)
C67 C 1.020(3) 0.5394(12) 0.2134(13)
H69 H 1.082140 0.501600 0.221924
H70 H 0.899510 0.530657 0.199536
H71 H 1.032345 0.563687 0.253290
C68 C 0.977(4) 0.6386(12) 0.1435(13)
H72 H 0.998659 0.663395 0.182953
H73 H 0.857822 0.626122 0.136577
H74 H 1.001399 0.661904 0.105727
S7 S 1.3686(7) 0.6687(3) 0.0345(3)
O17 O 1.1907(18) 0.6619(11) 0.0149(17)
C69 C 1.433(5) 0.6058(12) -0.0213(18)
H75 H 1.341955 0.576050 -0.029025
H76 H 1.536839 0.586356 -0.000039
H77 H 1.453430 0.623107 -0.063054
C70 C 1.448(2) 0.7167(11) -0.0164(10)
H78 H 1.489421 0.694081 -0.051659
H79 H 1.542427 0.739319 0.007926
H80 H 1.359629 0.744748 -0.035123
S2? S -0.2175(12) 0.3169(5) 0.3381(5)
H45? H -0.392232 0.275583 0.405652
H46? H -0.240367 0.230526 0.397369
H47? H -0.207483 0.287171 0.445182
H48? H -0.322269 0.398643 0.399301
H49? H -0.154223 0.371507 0.440541
H50? H -0.140290 0.416350 0.381036
S4? S 1.3180(11) 0.2059(4) 0.4748(8)
H57? H 1.506374 0.163051 0.414192
H58? H 1.457066 0.116341 0.467229
H59? H 1.328442 0.128663 0.401792
H60? H 1.569096 0.241699 0.495351
H61? H 1.447753 0.267633 0.544026
H62? H 1.522240 0.200974 0.553999
S5? S 1.065(2) 0.5852(8) 0.2182(8)
C65? C 0.984(9) 0.5315(17) 0.155050
H63? H 0.922187 0.552935 0.117704
H64? H 0.908454 0.503089 0.172488
H65? H 1.079425 0.509593 0.140911
O15? O 1.205(5) 0.6132(17) 0.1932(19)
C66? C 0.940(8) 0.646(2) 0.177(2)
H66? H 0.972483 0.652259 0.133132
H67? H 0.961299 0.683435 0.202134
H68? H 0.819349 0.636291 0.172412
S8? S 1.3654(14) 0.6032(5) 0.0159(5)
O18? O 1.230(3) 0.6462(15) 0.016(3)
C71? C 1.452(3) 0.6111(12) -0.0575(11)
H81? H 1.371175 0.595886 -0.093998
H82? H 1.557705 0.588257 -0.054511
H83? H 1.474909 0.653684 -0.064772
C72? C 1.549(3) 0.6304(14) 0.0669(14)
H84? H 1.533589 0.672871 0.077166
H85? H 1.648365 0.626250 0.044091
H86? H 1.567406 0.607095 0.107526
loop_
_geom_bond_atom_site_label_1
_geom_bond_atom_site_label_2
_geom_bond_site_symmetry_1
_geom_bond_site_symmetry_2
O1 C1 1_555 1_555
O2 C2 1_555 1_555
O3 C6 1_555 1_555
O4 C12 1_555 1_555
O5 C16 1_555 1_555
O6 C23 1_555 1_555
N1 N2 1_555 1_555
N2 C2 1_555 1_555
N3 N4 1_555 1_555
N4 C1 1_555 1_555
N5 N6 1_555 1_555
N6 C16 1_555 1_555
N7 N8 1_555 1_555
N8 C15 1_555 1_555
N9 C20 1_555 1_555
C1 N1 1_555 1_555
C2 N3 1_555 1_555
C3 O2 1_555 1_555
C4 C3 1_555 1_555
H1 C4 1_555 1_555
C5 C4 1_555 1_555
H2 C5 1_555 1_555
C6 C5 1_555 1_555
C7 C6 1_555 1_555
H3 C7 1_555 1_555
C8 C3 1_555 1_555
H4 C8 1_555 1_555
C9 O3 1_555 1_555
C10 C9 1_555 1_555
H5 C10 1_555 1_555
C11 C10 1_555 1_555
H6 C11 1_555 1_555
C12 C11 1_555 1_555
C13 C12 1_555 1_555
H7 C13 1_555 1_555
C14 C9 1_555 1_555
H8 C14 1_555 1_555
C15 O4 1_555 1_555
C16 N7 1_555 1_555
C17 O5 1_555 1_555
C18 C17 1_555 1_555
H9 C18 1_555 1_555
C19 C18 1_555 1_555
H10 C19 1_555 1_555
C20 C19 1_555 1_555
C21 C20 1_555 1_555
H11 C21 1_555 1_555
C22 C17 1_555 1_555
H12 C22 1_555 1_555
C23 N9 1_555 1_555
C24 C23 1_555 1_555
H13 C24 1_555 1_555
H14 C24 1_555 1_555
H15 C24 1_555 1_555
C25 N9 1_555 1_555
C26 C25 1_555 1_555
H16 C26 1_555 1_555
C27 C26 1_555 1_555
H17 C27 1_555 1_555
C28 O1 1_555 1_555
C29 C28 1_555 1_555
H18 C29 1_555 1_555
C30 C25 1_555 1_555
H19 C30 1_555 1_555
O7 C31 1_555 1_555
O8 C32 1_555 1_555
O9 C36 1_555 1_555
O10 C42 1_555 1_555
O11 C46 1_555 1_555
O12 C53 1_555 1_555
N10 N11 1_555 1_555
N11 C32 1_555 1_555
N12 N13 1_555 1_555
N13 C31 1_555 1_555
N14 N15 1_555 1_555
N15 C46 1_555 1_555
N16 N17 1_555 1_555
N17 C45 1_555 1_555
N18 C50 1_555 1_555
C31 N10 1_555 1_555
C32 N12 1_555 1_555
C33 O8 1_555 1_555
C34 C33 1_555 1_555
H20 C34 1_555 1_555
C35 C34 1_555 1_555
H21 C35 1_555 1_555
C36 C35 1_555 1_555
C37 C36 1_555 1_555
H22 C37 1_555 1_555
C38 C33 1_555 1_555
H23 C38 1_555 1_555
C39 O9 1_555 1_555
C40 C39 1_555 1_555
H24 C40 1_555 1_555
C41 C40 1_555 1_555
H25 C41 1_555 1_555
C42 C41 1_555 1_555
C43 C42 1_555 1_555
H26 C43 1_555 1_555
C44 C39 1_555 1_555
H27 C44 1_555 1_555
C45 O10 1_555 1_555
C46 N16 1_555 1_555
C47 O11 1_555 1_555
C48 C47 1_555 1_555
H28 C48 1_555 1_555
C49 C48 1_555 1_555
H29 C49 1_555 1_555
C50 C49 1_555 1_555
C51 C50 1_555 1_555
H30 C51 1_555 1_555
C52 C47 1_555 1_555
H31 C52 1_555 1_555
C53 N18 1_555 1_555
C54 C53 1_555 1_555
H32 C54 1_555 1_555
H33 C54 1_555 1_555
H34 C54 1_555 1_555
C55 N18 1_555 1_555
C56 C55 1_555 1_555
H35 C56 1_555 1_555
C57 C56 1_555 1_555
H36 C57 1_555 1_555
C58 O7 1_555 1_555
C59 C58 1_555 1_555
H37 C59 1_555 1_555
C60 C55 1_555 1_555
H38 C60 1_555 1_555
S1 O13 1_555 1_555
C61 S1 1_555 1_555
H39 C61 1_555 1_555
H40 C61 1_555 1_555
H41 C61 1_555 1_555
C62 S1 1_555 1_555
H42 C62 1_555 1_555
H43 C62 1_555 1_555
H44 C62 1_555 1_555
S3 O14 1_555 1_555
C63 S3 1_555 1_555
H51 C63 1_555 1_555
H52 C63 1_555 1_555
H53 C63 1_555 1_555
C64 S3 1_555 1_555
H54 C64 1_555 1_555
H55 C64 1_555 1_555
H56 C64 1_555 1_555
S6 O16 1_555 1_555
C67 S6 1_555 1_555
H69 C67 1_555 1_555
H70 C67 1_555 1_555
H71 C67 1_555 1_555
C68 S6 1_555 1_555
H72 C68 1_555 1_555
H73 C68 1_555 1_555
H74 C68 1_555 1_555
S7 O17 1_555 1_555
C69 S7 1_555 1_555
H75 C69 1_555 1_555
H76 C69 1_555 1_555
H77 C69 1_555 1_555
C70 S7 1_555 1_555
H78 C70 1_555 1_555
H79 C70 1_555 1_555
H80 C70 1_555 1_555
N5 C15 1_555 1_555
C7 C8 1_555 1_555
C13 C14 1_555 1_555
C21 C22 1_555 1_555
C27 C28 1_555 1_555
C29 C30 1_555 1_555
N14 C45 1_555 1_555
C37 C38 1_555 1_555
C43 C44 1_555 1_555
C51 C52 1_555 1_555
C57 C58 1_555 1_555
C59 C60 1_555 1_555

#END
