
#######################################################################
#
#                 Cambridge Crystallographic Data Centre
#                                CCDC 
#
#######################################################################
#
# If this CIF has been generated from an entry in the Cambridge 
# Structural Database, then it will include bibliographic, chemical, 
# crystal, experimental, refinement or atomic coordinate data resulting 
# from the CCDC's data processing and validation procedures.
#
#######################################################################

data_DEQTAU
_chemical_formula_moiety         'C22 H26 O7,H2 O1'
_chemical_name_systematic        
'12-Hydroxy-12-hydroxymethyl-5,6-dimethoxy-2-(3,4-dimethoxyphenyl)-10-oxatricyclo(7.2.1.0^3,8^)dodeca-3,5,7-triene monohydrate'
_symmetry_cell_setting           monoclinic
_symmetry_space_group_name_H-M   'P 21/c'
_symmetry_Int_Tables_number      14
_space_group_name_Hall           '-P 2ybc'
loop_
_symmetry_equiv_pos_site_id
_symmetry_equiv_pos_as_xyz
1 x,y,z
2 x,1/2-y,1/2+z
3 -x,-y,-z
4 -x,1/2+y,1/2-z
_cell_length_a                   18.630(4)
_cell_length_b                   5.9920(10)
_cell_length_c                   19.637(4)
_cell_angle_alpha                90
_cell_angle_beta                 109.05(3)
_cell_angle_gamma                90
_cell_volume                     2072.04
_exptl_crystal_colour            colorless
_exptl_crystal_description       prism
_chemical_melting_point          148deg.C
_cell_formula_units_Z            4
_exptl_crystal_recrystallization_method methanol
loop_
_atom_site_label
_atom_site_type_symbol
_atom_site_fract_x
_atom_site_fract_y
_atom_site_fract_z
O1 O 0.56354(13) 0.3239(4) 0.15297(15)
O2 O 0.47084(14) 0.6185(4) 0.0771(2)
O3 O 0.18544(14) -0.1807(3) 0.04495(14)
O4 O 0.08253(14) 0.1347(4) -0.03621(14)
H1 H 0.0495(13) 0.0387(42) -0.0431(2)
O5 O 0.00772(14) 0.2319(4) 0.0695(2)
H2 H -0.0124(10) 0.1703(55) 0.0306(8)
O6 O 0.26451(15) 0.0463(4) 0.3796(2)
O7 O 0.16473(14) -0.2671(4) 0.33099(15)
C1 C 0.4887(2) 0.3037(5) 0.1511(2)
C2 C 0.4630(2) 0.1400(5) 0.1865(2)
H3 H 0.4965(2) 0.0349(5) 0.2145(2)
C3 C 0.3856(2) 0.1327(6) 0.1801(2)
H4 H 0.3683(2) 0.0191(6) 0.2031(2)
C4 C 0.3348(2) 0.2894(5) 0.1407(2)
C5 C 0.3625(2) 0.4604(5) 0.1060(2)
H5 H 0.3295(2) 0.5697(5) 0.0799(2)
C6 C 0.4390(2) 0.4660(5) 0.1106(2)
C7 C 0.6134(2) 0.1469(6) 0.1889(2)
H6 H 0.6634(4) 0.1743(22) 0.1868(12)
H7 H 0.5948(8) 0.0075(8) 0.1657(9)
H8 H 0.6155(11) 0.1403(27) 0.2384(4)
C8 C 0.4231(2) 0.7694(6) 0.0267(2)
H9 H 0.4515(4) 0.8406(28) -0.0001(9)
H10 H 0.4043(10) 0.8804(23) 0.0518(3)
H11 H 0.3812(7) 0.6892(8) -0.0058(8)
C9 C 0.2494(2) 0.2791(5) 0.1294(2)
H12 H 0.2336(2) 0.4304(5) 0.1372(2)
C10 C 0.2278(2) 0.1249(5) 0.1827(2)
C11 C 0.1731(2) -0.0396(5) 0.1576(2)
C12 C 0.1356(2) -0.0698(5) 0.0770(2)
H13 H 0.0879(2) -0.1526(5) 0.0670(2)
C13 C 0.1212(2) 0.1579(5) 0.0397(2)
C14 C 0.2050(2) 0.2171(5) 0.0497(2)
H14 H 0.2081(2) 0.3375(5) 0.0170(2)
C15 C 0.2302(2) -0.0079(5) 0.0263(2)
H15 H 0.2214(2) -0.0081(5) -0.0252(2)
H16 H 0.2839(2) -0.0327(5) 0.0510(2)
C16 C 0.0792(2) 0.3246(5) 0.0711(2)
H17 H 0.1094(2) 0.3595(5) 0.1203(2)
H18 H 0.0708(2) 0.4616(5) 0.0433(2)
C17 C 0.2580(2) 0.1585(6) 0.2564(2)
H19 H 0.2933(2) 0.2720(6) 0.2737(2)
C18 C 0.2370(2) 0.0269(6) 0.3057(2)
C19 C 0.1825(2) -0.1422(6) 0.2794(2)
C20 C 0.1508(2) -0.1715(5) 0.2059(2)
H20 H 0.1139(2) -0.2808(5) 0.1882(2)
C21 C 0.3216(2) 0.2126(6) 0.4084(2)
H21 H 0.3338(9) 0.2188(27) 0.4598(3)
H22 H 0.3030(5) 0.3553(9) 0.3880(10)
H23 H 0.3664(5) 0.1750(21) 0.3968(11)
C22 C 0.1108(2) -0.4447(5) 0.3053(2)
H24 H 0.1053(10) -0.5252(25) 0.3456(2)
H25 H 0.1285(7) -0.5442(22) 0.2759(10)
H26 H 0.0626(4) -0.3834(6) 0.2773(11)
O8 O -0.0587(2) 0.5209(6) 0.1320(2)
H27 H -0.0977(29) 0.4555(81) 0.1199(32)
H28 H -0.0712(22) 0.6384(64) 0.1081(24)
loop_
_geom_bond_atom_site_label_1
_geom_bond_atom_site_label_2
_geom_bond_site_symmetry_1
_geom_bond_site_symmetry_2
O1 C1 1_555 1_555
O2 C6 1_555 1_555
O3 C12 1_555 1_555
O4 H1 1_555 1_555
O5 H2 1_555 1_555
O6 C18 1_555 1_555
O7 C19 1_555 1_555
C1 C2 1_555 1_555
C2 H3 1_555 1_555
C3 C2 1_555 1_555
H4 C3 1_555 1_555
C4 C3 1_555 1_555
C5 C4 1_555 1_555
H5 C5 1_555 1_555
C6 C1 1_555 1_555
C7 O1 1_555 1_555
H6 C7 1_555 1_555
H7 C7 1_555 1_555
H8 C7 1_555 1_555
C8 O2 1_555 1_555
H9 C8 1_555 1_555
H10 C8 1_555 1_555
H11 C8 1_555 1_555
C9 C4 1_555 1_555
H12 C9 1_555 1_555
C10 C9 1_555 1_555
C11 C10 1_555 1_555
C12 C11 1_555 1_555
H13 C12 1_555 1_555
C13 O4 1_555 1_555
C14 C9 1_555 1_555
H14 C14 1_555 1_555
C15 O3 1_555 1_555
H15 C15 1_555 1_555
H16 C15 1_555 1_555
C16 O5 1_555 1_555
H17 C16 1_555 1_555
H18 C16 1_555 1_555
C17 C10 1_555 1_555
H19 C17 1_555 1_555
C18 C17 1_555 1_555
C19 C18 1_555 1_555
C20 C11 1_555 1_555
H20 C20 1_555 1_555
C21 O6 1_555 1_555
H21 C21 1_555 1_555
H22 C21 1_555 1_555
H23 C21 1_555 1_555
C22 O7 1_555 1_555
H24 C22 1_555 1_555
H25 C22 1_555 1_555
H26 C22 1_555 1_555
O8 H27 1_555 1_555
H28 O8 1_555 1_555
C5 C6 1_555 1_555
C12 C13 1_555 1_555
C13 C14 1_555 1_555
C13 C16 1_555 1_555
C14 C15 1_555 1_555
C19 C20 1_555 1_555

#END
