
#######################################################################
#
#                 Cambridge Crystallographic Data Centre
#                                CCDC 
#
#######################################################################
#
# If this CIF has been generated from an entry in the Cambridge 
# Structural Database, then it will include bibliographic, chemical, 
# crystal, experimental, refinement or atomic coordinate data resulting 
# from the CCDC's data processing and validation procedures.
#
#######################################################################

data_DEQVON
_chemical_formula_moiety         'C34 H28 O4 S2'
_chemical_name_systematic        
'1-methyl-8-phenyl-2-(1-phenylprop-1-en-2-yl)bicyclo[3.2.1]octa-3,6-diene-3,6-diyl dithiophene-2-carboxylate'
_symmetry_cell_setting           monoclinic
_symmetry_space_group_name_H-M   'P 21'
_symmetry_Int_Tables_number      4
_space_group_name_Hall           'P 2yb'
loop_
_symmetry_equiv_pos_site_id
_symmetry_equiv_pos_as_xyz
1 x,y,z
2 -x,1/2+y,-z
_cell_length_a                   12.9992(18)
_cell_length_b                   7.6753(11)
_cell_length_c                   14.812(2)
_cell_angle_alpha                90
_cell_angle_beta                 106.361(3)
_cell_angle_gamma                90
_cell_volume                     1417.99
_exptl_crystal_colour            colorless
_exptl_crystal_description       prismatic
_cell_formula_units_Z            2
loop_
_atom_site_label
_atom_site_type_symbol
_atom_site_fract_x
_atom_site_fract_y
_atom_site_fract_z
S1 S 0.0377(2) -0.0822(3) 0.6529(2)
S2 S 0.79250(18) 0.6056(5) 0.8574(2)
C1 C -0.1075(14) 0.110(3) 0.5618(13)
H1 H -0.1511 0.2054 0.5399
C2 C 0.6619(16) 0.462(4) 0.7184(10)
H2 H 0.6034 0.4001 0.6816
O1 O 0.0007(3) 0.4190(5) 0.6503(2)
O2 O 0.1216(2) 0.2404(4) 0.74567(19)
O3 O 0.6095(2) 0.5677(5) 0.9382(2)
O4 O 0.5088(2) 0.4223(5) 0.8136(2)
C3 C 0.1798(4) 0.3745(6) 0.8005(3)
C4 C 0.1804(3) 0.5436(6) 0.7880(3)
H3 H 0.1351 0.6039 0.7379
C5 C 0.2658(3) 0.6250(6) 0.8673(3)
C6 C 0.2738(3) 0.4858(6) 0.9462(3)
H4 H 0.3461 0.4914 0.9898
C7 C 0.2654(4) 0.3193(6) 0.8874(3)
H5 H 0.2458 0.2163 0.9180
C8 C 0.3688(4) 0.2988(6) 0.8627(3)
H6 H 0.3980 0.1891 0.8599
C9 C 0.4170(3) 0.4388(7) 0.8452(3)
C10 C 0.3781(3) 0.6226(6) 0.8476(3)
H7 H 0.4282 0.6786 0.9019
C11 C 0.2388(4) 0.8062(6) 0.8909(3)
H8 H 0.2392 0.8832 0.8399
H9 H 0.2910 0.8447 0.9471
H10 H 0.1690 0.8067 0.9009
C12 C 0.3866(3) 0.7216(6) 0.7617(3)
C13 C 0.4501(4) 0.8577(7) 0.7712(3)
H11 H 0.4841 0.8944 0.8322
C14 C 0.4723(4) 0.9583(7) 0.6930(3)
C15 C 0.5721(4) 0.9586(8) 0.6812(4)
H12 H 0.6276 0.8995 0.7236
C16 C 0.5911(6) 1.0469(9) 0.6062(5)
H13 H 0.6597 1.0459 0.5984
C17 C 0.5115(7) 1.1353(9) 0.5435(4)
H14 H 0.5249 1.1918 0.4925
C18 C 0.4136(6) 1.1396(10) 0.5563(4)
H15 H 0.3592 1.2035 0.5155
C19 C 0.3932(5) 1.0500(9) 0.6296(4)
H16 H 0.3243 1.0513 0.6366
C20 C 0.3296(4) 0.6469(8) 0.6672(3)
H17 H 0.2576 0.6910 0.6473
H18 H 0.3279 0.5222 0.6715
H19 H 0.3669 0.6797 0.6223
C21 C 0.1943(3) 0.5030(6) 1.0022(3)
C22 C 0.0932(4) 0.4309(8) 0.9755(3)
H20 H 0.0707 0.3724 0.9183
C23 C 0.0255(4) 0.4429(8) 1.0300(4)
H21 H -0.0423 0.3929 1.0101
C24 C 0.0567(5) 0.5281(8) 1.1139(4)
H22 H 0.0107 0.5350 1.1519
C25 C 0.1557(5) 0.6033(8) 1.1420(4)
H23 H 0.1770 0.6643 1.1984
C26 C 0.2235(4) 0.5881(7) 1.0864(3)
H24 H 0.2915 0.6374 1.1066
C27 C 0.0342(4) 0.2764(7) 0.6740(3)
C28 C -0.0148(3) 0.1177(7) 0.6274(3)
C29 C -0.0590(6) -0.1738(9) 0.5776(5)
C30 C -0.1339(5) -0.0704(9) 0.5273(4)
C31 C 0.5976(4) 0.5090(7) 0.8613(3)
C32 C 0.6743(4) 0.5228(7) 0.8073(3)
C33 C 0.7625(6) 0.5138(11) 0.6907(6)
C34 C 0.8316(5) 0.5855(10) 0.7642(6)
H25 H -0.186(3) -0.116(6) 0.478(2)
H26 H -0.055(5) -0.292(4) 0.571(4)
H27 H 0.778(4) 0.485(9) 0.635(3)
H28 H 0.905(3) 0.613(10) 0.776(4)
S3? S -0.1266(7) 0.1301(17) 0.5407(7)
S4? S 0.6501(10) 0.466(2) 0.6929(6)
C35? C 0.008(2) -0.029(3) 0.645(2)
H29? H 0.0648 -0.0594 0.6966
C36? C 0.7614(18) 0.628(5) 0.832(2)
H30? H 0.7767 0.7100 0.8807
loop_
_geom_bond_atom_site_label_1
_geom_bond_atom_site_label_2
_geom_bond_site_symmetry_1
_geom_bond_site_symmetry_2
S1 C28 1_555 1_555
S2 C32 1_555 1_555
C1 H1 1_555 1_555
C2 H2 1_555 1_555
O1 C27 1_555 1_555
O2 C3 1_555 1_555
O3 C31 1_555 1_555
O4 C9 1_555 1_555
C3 C4 1_555 1_555
C4 H3 1_555 1_555
C5 C4 1_555 1_555
C6 C5 1_555 1_555
H4 C6 1_555 1_555
C7 C3 1_555 1_555
H5 C7 1_555 1_555
C8 C7 1_555 1_555
H6 C8 1_555 1_555
C9 C8 1_555 1_555
C10 C5 1_555 1_555
H7 C10 1_555 1_555
C11 C5 1_555 1_555
H8 C11 1_555 1_555
H9 C11 1_555 1_555
H10 C11 1_555 1_555
C12 C10 1_555 1_555
C13 C12 1_555 1_555
H11 C13 1_555 1_555
C14 C13 1_555 1_555
C15 C14 1_555 1_555
H12 C15 1_555 1_555
C16 C15 1_555 1_555
H13 C16 1_555 1_555
C17 C16 1_555 1_555
H14 C17 1_555 1_555
C18 C17 1_555 1_555
H15 C18 1_555 1_555
C19 C14 1_555 1_555
H16 C19 1_555 1_555
C20 C12 1_555 1_555
H17 C20 1_555 1_555
H18 C20 1_555 1_555
H19 C20 1_555 1_555
C21 C6 1_555 1_555
C22 C21 1_555 1_555
H20 C22 1_555 1_555
C23 C22 1_555 1_555
H21 C23 1_555 1_555
C24 C23 1_555 1_555
H22 C24 1_555 1_555
C25 C24 1_555 1_555
H23 C25 1_555 1_555
C26 C21 1_555 1_555
H24 C26 1_555 1_555
C27 O2 1_555 1_555
C28 C1 1_555 1_555
C29 S1 1_555 1_555
C30 C1 1_555 1_555
C31 O4 1_555 1_555
C32 C2 1_555 1_555
C33 C2 1_555 1_555
C34 S2 1_555 1_555
H25 C30 1_555 1_555
H26 C29 1_555 1_555
H27 C33 1_555 1_555
H28 C34 1_555 1_555
C6 C7 1_555 1_555
C9 C10 1_555 1_555
C18 C19 1_555 1_555
C25 C26 1_555 1_555
C27 C28 1_555 1_555
C29 C30 1_555 1_555
C31 C32 1_555 1_555
C33 C34 1_555 1_555

#END
