
#######################################################################
#
#                 Cambridge Crystallographic Data Centre
#                                CCDC 
#
#######################################################################
#
# If this CIF has been generated from an entry in the Cambridge 
# Structural Database, then it will include bibliographic, chemical, 
# crystal, experimental, refinement or atomic coordinate data resulting 
# from the CCDC's data processing and validation procedures.
#
#######################################################################

data_DEQWEE
_chemical_formula_moiety         'C22 H16 Br1 N1 O2 S1'
_chemical_name_systematic        
'1-[(4-bromophenyl)imino]-5-phenylpenta-2,4-dien-2-yl thiophene-2-carboxylate'
_symmetry_cell_setting           triclinic
_symmetry_space_group_name_H-M   'P -1'
_symmetry_Int_Tables_number      2
_space_group_name_Hall           '-P 1'
loop_
_symmetry_equiv_pos_site_id
_symmetry_equiv_pos_as_xyz
1 x,y,z
2 -x,-y,-z
_cell_length_a                   9.3284(12)
_cell_length_b                   9.7566(12)
_cell_length_c                   11.8026(15)
_cell_angle_alpha                74.214(2)
_cell_angle_beta                 73.175(2)
_cell_angle_gamma                79.296(2)
_cell_volume                     982.736
_exptl_crystal_colour            brown
_exptl_crystal_description       prismatic
_cell_formula_units_Z            2
loop_
_atom_site_label
_atom_site_type_symbol
_atom_site_fract_x
_atom_site_fract_y
_atom_site_fract_z
Br1 Br -0.31553(4) 0.70841(5) 1.77089(3)
N1 N 0.0302(3) 0.8082(3) 1.2369(2)
O1 O 0.3658(3) 0.6903(2) 1.0241(2)
O2 O 0.1617(2) 0.8457(2) 0.99273(17)
C1 C 0.1151(3) 0.9075(3) 1.1852(3)
H1 H 0.1267 0.9664 1.2312
C2 C 0.1938(3) 0.9321(3) 1.0581(2)
C3 C 0.2866(3) 1.0320(3) 0.9998(3)
H2 H 0.3035 1.0889 1.0453
C4 C 0.3631(3) 1.0594(3) 0.8721(3)
H3 H 0.3430 1.0063 0.8251
C5 C 0.4609(3) 1.1561(3) 0.8169(3)
C6 C 0.542(3) 1.206(3) 0.678(2)
C7 C 0.5728(9) 1.3324(8) 0.6249(7)
H4 H 0.5552 1.4008 0.6705
C8 C 0.6330(9) 1.3706(9) 0.4996(9)
H5 H 0.6549 1.4640 0.4621
C9 C 0.662(2) 1.2646(17) 0.4275(13)
H6 H 0.6963 1.2882 0.3432
C10 C 0.6356(8) 1.1316(8) 0.4892(6)
H7 H 0.6619 1.0602 0.4458
C11 C 0.5727(8) 1.0921(7) 0.6123(6)
H8 H 0.5513 0.9989 0.6514
C12 C -0.051(3) 0.779(2) 1.3643(13)
C13 C -0.0773(8) 0.6557(7) 1.4338(6)
H9 H -0.0440 0.5761 1.4001
C14 C -0.1520(8) 0.6329(8) 1.5560(6)
H10 H -0.1732 0.5427 1.6044
C15 C -0.192(3) 0.756(3) 1.599(2)
C16 C -0.1808(7) 0.8845(8) 1.5437(6)
H11 H -0.2220 0.9599 1.5817
C17 C -0.1027(7) 0.9070(7) 1.4217(6)
H12 H -0.0826 0.9986 1.3763
C18 C 0.2565(3) 0.7219(3) 0.9853(2)
C19 C 0.2058(3) 0.6381(3) 0.9222(2)
C20 C 0.1894(4) 0.4499(4) 0.8420(3)
C21 C 0.0662(4) 0.5398(3) 0.8277(3)
S1 S 0.0421(3) 0.6904(2) 0.8747(3)
C22 C 0.2689(11) 0.5094(12) 0.9006(13)
H13 H 0.3570 0.4628 0.9219
H14 H 0.210(3) 0.369(3) 0.819(3)
H15 H -0.008(4) 0.529(3) 0.795(3)
H16 H 0.485(3) 1.207(3) 0.864(3)
C23? C 0.524(3) 1.185(3) 0.696(3)
C24? C 0.6393(10) 1.2843(9) 0.6470(8)
H17? H 0.6690 1.3205 0.7008
C25? C 0.7073(10) 1.3271(10) 0.5197(9)
H18? H 0.7869 1.3827 0.4925
C26? C 0.664(2) 1.2930(19) 0.4500(14)
H19? H 0.7066 1.3289 0.3679
C27? C 0.5446(9) 1.1960(8) 0.4816(7)
H20? H 0.5172 1.1668 0.4228
C28? C 0.4786(8) 1.1532(7) 0.6036(6)
H21? H 0.3980 1.0995 0.6266
C29? C -0.036(3) 0.805(3) 1.3607(14)
C30? C -0.1731(8) 0.7289(8) 1.3986(6)
H22? H -0.2039 0.6985 1.3421
C31? C -0.2538(7) 0.7047(7) 1.5193(6)
H23? H -0.3455 0.6682 1.5390
C32? C -0.210(3) 0.730(3) 1.611(2)
C33? C -0.0640(7) 0.7944(7) 1.5671(5)
H24? H -0.0258 0.8180 1.6229
C34? C 0.0154(7) 0.8198(7) 1.4463(5)
H25? H 0.1107 0.8492 1.4257
S2? S 0.3148(7) 0.4797(8) 0.8934(9)
C35? C 0.083(2) 0.653(2) 0.880(2)
H26? H 0.0104 0.7319 0.8852
loop_
_geom_bond_atom_site_label_1
_geom_bond_atom_site_label_2
_geom_bond_site_symmetry_1
_geom_bond_site_symmetry_2
Br1 C15 1_555 1_555
N1 C1 1_555 1_555
O1 C18 1_555 1_555
O2 C2 1_555 1_555
C1 H1 1_555 1_555
C2 C1 1_555 1_555
C3 C2 1_555 1_555
H2 C3 1_555 1_555
C4 C3 1_555 1_555
H3 C4 1_555 1_555
C5 C4 1_555 1_555
C6 C5 1_555 1_555
C7 C6 1_555 1_555
H4 C7 1_555 1_555
C8 C7 1_555 1_555
H5 C8 1_555 1_555
C9 C8 1_555 1_555
H6 C9 1_555 1_555
C10 C9 1_555 1_555
H7 C10 1_555 1_555
C11 C6 1_555 1_555
H8 C11 1_555 1_555
C12 N1 1_555 1_555
C13 C12 1_555 1_555
H9 C13 1_555 1_555
C14 C13 1_555 1_555
H10 C14 1_555 1_555
C15 C14 1_555 1_555
C16 C15 1_555 1_555
H11 C16 1_555 1_555
C17 C12 1_555 1_555
H12 C17 1_555 1_555
C18 O2 1_555 1_555
C19 C18 1_555 1_555
C20 C21 1_555 1_555
C21 S1 1_555 1_555
S1 C19 1_555 1_555
C22 C19 1_555 1_555
H13 C22 1_555 1_555
H14 C20 1_555 1_555
H15 C21 1_555 1_555
H16 C5 1_555 1_555
C10 C11 1_555 1_555
C16 C17 1_555 1_555
C20 C22 1_555 1_555

#END
