
#######################################################################
#
#                 Cambridge Crystallographic Data Centre
#                                CCDC 
#
#######################################################################
#
# If this CIF has been generated from an entry in the Cambridge 
# Structural Database, then it will include bibliographic, chemical, 
# crystal, experimental, refinement or atomic coordinate data resulting 
# from the CCDC's data processing and validation procedures.
#
#######################################################################

data_DEQXUV
_chemical_formula_moiety         'C26 H24 O8'
_chemical_name_systematic        
3-(3,5-dimethoxyphenyl)-4,6-dimethoxy-3-(4-methoxybenzene-1-carbonyl)-2-benzofuran-1(3H)-one
_symmetry_cell_setting           triclinic
_symmetry_space_group_name_H-M   'P -1'
_symmetry_Int_Tables_number      2
_space_group_name_Hall           '-P 1'
loop_
_symmetry_equiv_pos_site_id
_symmetry_equiv_pos_as_xyz
1 x,y,z
2 -x,-y,-z
_cell_length_a                   8.7780(6)
_cell_length_b                   9.5962(6)
_cell_length_c                   15.1276(11)
_cell_angle_alpha                88.947(3)
_cell_angle_beta                 74.264(3)
_cell_angle_gamma                67.765(3)
_cell_volume                     1130.23
_exptl_crystal_colour            orange
_exptl_crystal_description       block
_cell_formula_units_Z            2
loop_
_atom_site_label
_atom_site_type_symbol
_atom_site_fract_x
_atom_site_fract_y
_atom_site_fract_z
O1 O -0.0166(3) -0.2056(2) 0.06631(16)
O2 O 0.4590(3) -0.0379(2) 0.25397(16)
O3 O -0.1082(3) 0.2209(3) 0.54565(16)
O4 O -0.2211(3) 0.6753(3) 0.40050(16)
O5 O 0.2406(2) 0.2721(2) 0.16046(12)
O6 O 0.3377(3) 0.3861(2) 0.04088(14)
O7 O 0.7980(3) 0.4436(2) 0.20328(14)
O8 O 0.4828(3) 0.1823(2) 0.38624(14)
C1 C -0.1874(5) -0.1213(4) 0.0616(2)
H1 H -0.2189 -0.1802 0.0247
H2 H -0.1924 -0.0291 0.0343
H3 H -0.2655 -0.0979 0.1227
C2 C 0.0563(4) -0.1379(3) 0.1103(2)
C3 C -0.0245(4) 0.0071(3) 0.1531(2)
H4 H -0.1382 0.0638 0.1554
C4 C 0.0635(4) 0.0681(3) 0.1926(2)
H5 H 0.0088 0.1670 0.2201
C5 C 0.2320(4) -0.0151(3) 0.19224(19)
C6 C 0.3100(4) -0.1623(3) 0.1496(2)
H6 H 0.4226 -0.2207 0.1488
C7 C 0.2245(4) -0.2229(3) 0.1089(2)
H7 H 0.2793 -0.3211 0.0804
C8 C 0.3328(4) 0.0450(3) 0.2335(2)
C9 C 0.2806(3) 0.2176(3) 0.24637(18)
C10 C 0.1218(3) 0.2991(3) 0.32742(18)
C11 C 0.0745(4) 0.2242(3) 0.4018(2)
H8 H 0.1376 0.1220 0.4034
C12 C -0.0700(4) 0.3043(4) 0.4750(2)
C13 C -0.2552(5) 0.2955(5) 0.6217(2)
H9 H -0.3536 0.3443 0.5996
H10 H -0.2361 0.3697 0.6540
H11 H -0.2751 0.2228 0.6628
C14 C -0.1644(4) 0.4534(4) 0.4725(2)
H12 H -0.2608 0.5056 0.5213
C15 C -0.1158(4) 0.5268(3) 0.3969(2)
C16 C -0.1837(5) 0.7579(4) 0.3246(3)
H13 H -0.1783 0.7070 0.2691
H14 H -0.0753 0.7650 0.3188
H15 H -0.2723 0.8576 0.3345
C17 C 0.0275(4) 0.4512(3) 0.3246(2)
H16 H 0.0605 0.5016 0.2745
C18 C 0.3481(3) 0.3375(3) 0.1134(2)
C19 C 0.4630(3) 0.3366(3) 0.16832(18)
C20 C 0.5847(3) 0.4003(3) 0.14782(19)
H17 H 0.6057 0.4471 0.0941
C21 C 0.6727(4) 0.3899(3) 0.2123(2)
C22 C 0.8565(4) 0.4965(4) 0.1179(2)
H18 H 0.8936 0.4183 0.0689
H19 H 0.9508 0.5235 0.1188
H20 H 0.7648 0.5836 0.1079
C23 C 0.6386(3) 0.3201(3) 0.2926(2)
H21 H 0.6979 0.3175 0.3354
C24 C 0.5189(4) 0.2542(3) 0.31061(19)
C25 C 0.5820(4) 0.1661(4) 0.4494(2)
H22 H 0.7017 0.1142 0.4175
H23 H 0.5486 0.1089 0.4981
H24 H 0.5626 0.2643 0.4749
C26 C 0.4275(3) 0.2651(3) 0.24557(19)
loop_
_geom_bond_atom_site_label_1
_geom_bond_atom_site_label_2
_geom_bond_site_symmetry_1
_geom_bond_site_symmetry_2
O1 C1 1_555 1_555
O2 C8 1_555 1_555
O3 C12 1_555 1_555
O4 C15 1_555 1_555
O5 C9 1_555 1_555
O6 C18 1_555 1_555
O7 C21 1_555 1_555
O8 C24 1_555 1_555
C1 H1 1_555 1_555
H2 C1 1_555 1_555
H3 C1 1_555 1_555
C2 O1 1_555 1_555
C3 C2 1_555 1_555
H4 C3 1_555 1_555
C4 C3 1_555 1_555
H5 C4 1_555 1_555
C5 C4 1_555 1_555
C6 C5 1_555 1_555
H6 C6 1_555 1_555
C7 C2 1_555 1_555
H7 C7 1_555 1_555
C8 C5 1_555 1_555
C9 C8 1_555 1_555
C10 C9 1_555 1_555
C11 C10 1_555 1_555
H8 C11 1_555 1_555
C12 C11 1_555 1_555
C13 O3 1_555 1_555
H9 C13 1_555 1_555
H10 C13 1_555 1_555
H11 C13 1_555 1_555
C14 C12 1_555 1_555
H12 C14 1_555 1_555
C15 C14 1_555 1_555
C16 O4 1_555 1_555
H13 C16 1_555 1_555
H14 C16 1_555 1_555
H15 C16 1_555 1_555
C17 C10 1_555 1_555
H16 C17 1_555 1_555
C18 O5 1_555 1_555
C19 C18 1_555 1_555
C20 C19 1_555 1_555
H17 C20 1_555 1_555
C21 C20 1_555 1_555
C22 O7 1_555 1_555
H18 C22 1_555 1_555
H19 C22 1_555 1_555
H20 C22 1_555 1_555
C23 C21 1_555 1_555
H21 C23 1_555 1_555
C24 C23 1_555 1_555
C25 O8 1_555 1_555
H22 C25 1_555 1_555
H23 C25 1_555 1_555
H24 C25 1_555 1_555
C26 C9 1_555 1_555
C6 C7 1_555 1_555
C15 C17 1_555 1_555
C19 C26 1_555 1_555
C24 C26 1_555 1_555

#END
