
#######################################################################
#
#                 Cambridge Crystallographic Data Centre
#                                CCDC 
#
#######################################################################
#
# If this CIF has been generated from an entry in the Cambridge 
# Structural Database, then it will include bibliographic, chemical, 
# crystal, experimental, refinement or atomic coordinate data resulting 
# from the CCDC's data processing and validation procedures.
#
#######################################################################

data_DERBIL
_chemical_formula_moiety         'C22 H16 N2 O2'
_chemical_name_systematic        6,6'-bis(2-Hydroxyphenyl)-2,2'-bipyridine
_symmetry_cell_setting           monoclinic
_symmetry_space_group_name_H-M   'P 21/c'
_symmetry_Int_Tables_number      14
_space_group_name_Hall           '-P 2ybc'
loop_
_symmetry_equiv_pos_site_id
_symmetry_equiv_pos_as_xyz
1 x,y,z
2 x,1/2-y,1/2+z
3 -x,-y,-z
4 -x,1/2+y,1/2-z
_cell_length_a                   9.443(3)
_cell_length_b                   5.3346(9)
_cell_length_c                   15.953(3)
_cell_angle_alpha                90
_cell_angle_beta                 100.06(2)
_cell_angle_gamma                90
_cell_volume                     791.271
_exptl_crystal_colour            yellow
_exptl_crystal_description       needle
_cell_formula_units_Z            2
loop_
_atom_site_label
_atom_site_type_symbol
_atom_site_fract_x
_atom_site_fract_y
_atom_site_fract_z
N1 N 0.11313(14) 0.2596(2) 0.04282(8)
C1 C 0.2145(2) 0.4185(3) 0.02371(10)
C2 C 0.2600(2) 0.4013(3) -0.05509(9)
H1 H 0.3314(2) 0.5122(3) -0.06866(9)
C3 C 0.2002(2) 0.2221(3) -0.11271(11)
H2 H 0.2302(2) 0.2095(3) -0.16636(11)
C4 C 0.0965(2) 0.0603(3) -0.09271(10)
H3 H 0.0546(2) -0.0636(3) -0.13213(10)
C5 C 0.0551(2) 0.0833(3) -0.01355(10)
O1 O 0.11633(13) 0.4731(2) 0.18713(7)
H4 H 0.09296(13) 0.3677(2) 0.14803(7)
C6 C 0.2180(2) 0.6288(3) 0.16625(10)
C7 C 0.2708(2) 0.6081(3) 0.08898(10)
C8 C 0.3776(2) 0.7798(3) 0.07610(10)
H5 H 0.4157(2) 0.7701(3) 0.02488(10)
C9 C 0.4292(2) 0.9618(3) 0.13465(11)
H6 H 0.5022(2) 1.0739(3) 0.12394(11)
C10 C 0.3737(2) 0.9801(3) 0.20974(11)
H7 H 0.4082(2) 1.1057(3) 0.25044(11)
C11 C 0.2685(2) 0.8155(3) 0.22480(11)
H8 H 0.2301(2) 0.8296(3) 0.27579(11)
C5B C -0.0551(2) -0.0833(3) 0.01355(10)
N1B N -0.11313(14) -0.2596(2) -0.04282(8)
C1B C -0.2145(2) -0.4185(3) -0.02371(10)
C2B C -0.2600(2) -0.4013(3) 0.05509(9)
H1B H -0.3314(2) -0.5122(3) 0.06866(9)
C3B C -0.2002(2) -0.2221(3) 0.11271(11)
H2B H -0.2302(2) -0.2095(3) 0.16636(11)
C4B C -0.0965(2) -0.0603(3) 0.09271(10)
H3B H -0.0546(2) 0.0636(3) 0.13213(10)
C7B C -0.2708(2) -0.6081(3) -0.08898(10)
C6B C -0.2180(2) -0.6288(3) -0.16625(10)
O1B O -0.11633(13) -0.4731(2) -0.18713(7)
H4B H -0.09296(13) -0.3677(2) -0.14803(7)
C11B C -0.2685(2) -0.8155(3) -0.22480(11)
C10B C -0.3737(2) -0.9801(3) -0.20974(11)
C9B C -0.4292(2) -0.9618(3) -0.13465(11)
C8B C -0.3776(2) -0.7798(3) -0.07610(10)
H5B H -0.4157(2) -0.7701(3) -0.02488(10)
H6B H -0.5022(2) -1.0739(3) -0.12394(11)
H7B H -0.4082(2) -1.1057(3) -0.25044(11)
H8B H -0.2301(2) -0.8296(3) -0.27579(11)
loop_
_geom_bond_atom_site_label_1
_geom_bond_atom_site_label_2
_geom_bond_site_symmetry_1
_geom_bond_site_symmetry_2
N1 C1 1_555 1_555
C1 C2 1_555 1_555
C2 H1 1_555 1_555
C3 C2 1_555 1_555
H2 C3 1_555 1_555
C4 C3 1_555 1_555
H3 C4 1_555 1_555
C5 N1 1_555 1_555
O1 H4 1_555 1_555
C6 O1 1_555 1_555
C7 C1 1_555 1_555
C8 C7 1_555 1_555
H5 C8 1_555 1_555
C9 C8 1_555 1_555
H6 C9 1_555 1_555
C10 C9 1_555 1_555
H7 C10 1_555 1_555
C11 C6 1_555 1_555
H8 C11 1_555 1_555
C5B C5 1_555 1_555
N1B C5B 1_555 1_555
C1B N1B 1_555 1_555
C2B C1B 1_555 1_555
H1B C2B 1_555 1_555
C3B C2B 1_555 1_555
H2B C3B 1_555 1_555
C4B C5B 1_555 1_555
H3B C4B 1_555 1_555
C7B C1B 1_555 1_555
C6B C7B 1_555 1_555
O1B C6B 1_555 1_555
H4B O1B 1_555 1_555
C11B C6B 1_555 1_555
C10B C11B 1_555 1_555
C9B C10B 1_555 1_555
C8B C7B 1_555 1_555
H5B C8B 1_555 1_555
H6B C9B 1_555 1_555
H7B C10B 1_555 1_555
H8B C11B 1_555 1_555
C4 C5 1_555 1_555
C6 C7 1_555 1_555
C10 C11 1_555 1_555
C3B C4B 1_555 1_555
C9B C8B 1_555 1_555

#END
