
#######################################################################
#
#                 Cambridge Crystallographic Data Centre
#                                CCDC 
#
#######################################################################
#
# If this CIF has been generated from an entry in the Cambridge 
# Structural Database, then it will include bibliographic, chemical, 
# crystal, experimental, refinement or atomic coordinate data resulting 
# from the CCDC's data processing and validation procedures.
#
#######################################################################

data_DERHAK
_chemical_compound_source        'flowers of Pueraia lobata'
_chemical_name_common            'Irisolidine monohydrate'
_chemical_formula_moiety         'C17 H14 O6,H2 O1'
_chemical_name_systematic        
"5,7-Dihydroxy-4',6-dimethoxylisoflavone monohydrate"
_chemical_properties_biological  
'source plant is used in traditional Chinese medicine to counter problems associated with alcohol drinking; potent inhibitory activity against Helicobacter pylori; reduces ethanol-induced mortality and serum alanine aminotransferase and aspartate aminotransferase activities'
_symmetry_cell_setting           monoclinic
_symmetry_space_group_name_H-M   'P 21/c'
_symmetry_Int_Tables_number      14
_space_group_name_Hall           '-P 2ybc'
loop_
_symmetry_equiv_pos_site_id
_symmetry_equiv_pos_as_xyz
1 x,y,z
2 -x,1/2+y,1/2-z
3 -x,-y,-z
4 x,1/2-y,1/2+z
_cell_length_a                   15.491(9)
_cell_length_b                   7.895(4)
_cell_length_c                   13.321(7)
_cell_angle_alpha                90
_cell_angle_beta                 110.546(9)
_cell_angle_gamma                90
_cell_volume                     1525.55
_exptl_crystal_colour            yellow
_exptl_crystal_description       prism
_chemical_melting_point          '462-463 K'
_cell_formula_units_Z            4
_exptl_crystal_recrystallization_method '95% ethanol'
loop_
_atom_site_label
_atom_site_type_symbol
_atom_site_fract_x
_atom_site_fract_y
_atom_site_fract_z
O1 O 0.62325(12) 0.4855(2) 0.97482(13)
O2 O 0.62252(11) 0.7119(2) 0.69862(14)
O3 O 0.79056(14) 0.8034(2) 0.79619(16)
O4 O 0.93820(11) 0.8155(2) 0.98076(14)
O5 O 0.93579(12) 0.6411(3) 1.15367(16)
O6 O 0.20064(12) 0.6121(3) 0.45045(17)
C1 C 0.54611(19) 0.4926(3) 0.8856(2)
C2 C 0.53972(17) 0.5678(3) 0.7932(2)
C3 C 0.62197(17) 0.6449(3) 0.7840(2)
C4 C 0.70291(16) 0.6414(3) 0.87935(19)
C5 C 0.78529(17) 0.7229(3) 0.8832(2)
C6 C 0.86103(17) 0.7230(3) 0.9760(2)
C7 C 0.85802(18) 0.6366(3) 1.0665(2)
C8 C 0.77848(18) 0.5553(3) 1.0649(2)
C9 C 0.70229(17) 0.5616(3) 0.9724(2)
C10 C 0.45055(17) 0.5732(3) 0.7027(2)
C11 C 0.37209(19) 0.6432(4) 0.7146(2)
C12 C 0.2902(2) 0.6528(4) 0.6299(3)
C13 C 0.28432(18) 0.5934(3) 0.5300(2)
C14 C 0.36045(18) 0.5205(3) 0.5165(2)
C15 C 0.44257(19) 0.5122(3) 0.6025(2)
C16 C 1.0047(3) 0.7225(5) 0.9505(4)
C17 C 0.1917(3) 0.5599(6) 0.3456(3)
H1 H 0.4956(17) 0.433(3) 0.8998(18)
H2 H 0.733(2) 0.788(4) 0.746(2)
H3 H 0.930(2) 0.565(4) 1.203(2)
H4 H 0.7768(16) 0.495(3) 1.1251(19)
H5 H 0.3785(16) 0.685(3) 0.787(2)
H6 H 0.2352(19) 0.707(3) 0.639(2)
H7 H 0.3571(16) 0.474(3) 0.449(2)
H8 H 0.4957(17) 0.460(3) 0.5913(17)
H9 H 1.035(2) 0.636(4) 1.002(3)
H10 H 0.972(2) 0.668(5) 0.883(3)
H11 H 1.054(2) 0.807(4) 0.954(2)
H12 H 0.235(2) 0.625(4) 0.320(2)
H13 H 0.206(3) 0.433(6) 0.340(3)
H14 H 0.133(3) 0.590(4) 0.304(3)
O7 O 1.07415(15) 0.9298(3) 1.19618(18)
H15 H 1.0275(19) 0.862(4) 1.162(3)
H16 H 1.086(3) 0.991(4) 1.147(2)
loop_
_geom_bond_atom_site_label_1
_geom_bond_atom_site_label_2
_geom_bond_site_symmetry_1
_geom_bond_site_symmetry_2
O1 C1 1_555 1_555
O2 C3 1_555 1_555
O3 C5 1_555 1_555
O4 C6 1_555 1_555
O5 C7 1_555 1_555
O6 C13 1_555 1_555
C1 C2 1_555 1_555
C2 C3 1_555 1_555
C3 C4 1_555 1_555
C4 C5 1_555 1_555
C5 C6 1_555 1_555
C6 C7 1_555 1_555
C7 C8 1_555 1_555
C8 C9 1_555 1_555
C9 O1 1_555 1_555
C10 C2 1_555 1_555
C11 C10 1_555 1_555
C12 C11 1_555 1_555
C13 C12 1_555 1_555
C14 C13 1_555 1_555
C15 C10 1_555 1_555
C16 O4 1_555 1_555
C17 O6 1_555 1_555
H1 C1 1_555 1_555
H2 O3 1_555 1_555
H3 O5 1_555 1_555
H4 C8 1_555 1_555
H5 C11 1_555 1_555
H6 C12 1_555 1_555
H7 C14 1_555 1_555
H8 C15 1_555 1_555
H9 C16 1_555 1_555
H10 C16 1_555 1_555
H11 C16 1_555 1_555
H12 C17 1_555 1_555
H13 C17 1_555 1_555
H14 C17 1_555 1_555
O7 H15 1_555 1_555
H16 O7 1_555 1_555
C4 C9 1_555 1_555
C14 C15 1_555 1_555

#END
