
#######################################################################
#
#                 Cambridge Crystallographic Data Centre
#                                CCDC 
#
#######################################################################
#
# If this CIF has been generated from an entry in the Cambridge 
# Structural Database, then it will include bibliographic, chemical, 
# crystal, experimental, refinement or atomic coordinate data resulting 
# from the CCDC's data processing and validation procedures.
#
#######################################################################

data_DERKOB
_chemical_compound_source        'Malva sylvestris'
_chemical_name_common            'Malvone A monohydrate'
_chemical_formula_moiety         'C12 H10 O5,H2 O1'
_chemical_name_systematic        
'2-Methyl-3-methoxy-5,6-dihydroxy-1,4-naphthoquinone monohydrate'
_chemical_properties_biological  'fungitoxic activity towards V. dahliae'
_symmetry_cell_setting           orthorhombic
_symmetry_space_group_name_H-M   'P 21 21 21'
_symmetry_Int_Tables_number      19
_space_group_name_Hall           'P 2ac 2ab'
loop_
_symmetry_equiv_pos_site_id
_symmetry_equiv_pos_as_xyz
1 x,y,z
2 1/2-x,-y,1/2+z
3 -x,1/2+y,1/2-z
4 1/2+x,1/2-y,-z
_cell_length_a                   3.7095(11)
_cell_length_b                   13.568(4)
_cell_length_c                   41.337(9)
_cell_angle_alpha                90
_cell_angle_beta                 90
_cell_angle_gamma                90
_cell_volume                     2080.51
_exptl_crystal_colour            orange
_exptl_crystal_description       needle
_chemical_melting_point          169.5-172deg.C
_cell_formula_units_Z            8
loop_
_atom_site_label
_atom_site_type_symbol
_atom_site_fract_x
_atom_site_fract_y
_atom_site_fract_z
O1 O -0.109(3) 0.5084(6) 0.1232(2)
O2 O 0.057(2) 0.6305(7) 0.1711(3)
O3 O 0.554(3) 0.8413(7) 0.0971(2)
O4 O 0.138(3) 0.4862(6) 0.0066(2)
H1 H 0.2150 0.5024 -0.0118
O5 O -0.048(2) 0.4514(6) 0.0635(2)
H2 H -0.1104 0.4463 0.0829
C1 C 0.052(4) 0.5857(12) 0.1158(4)
C2 C 0.142(5) 0.6521(11) 0.1413(4)
C3 C 0.300(4) 0.7397(10) 0.1347(4)
C4 C 0.400(4) 0.7650(11) 0.1027(4)
C5 C 0.334(4) 0.6951(8) 0.0763(4)
C6 C 0.430(4) 0.7134(10) 0.0461(3)
H3 H 0.5407 0.7750 0.0415
C7 C 0.378(4) 0.6478(10) 0.0205(4)
H4 H 0.4495 0.6639 -0.0009
C8 C 0.215(4) 0.5567(11) 0.0278(4)
C9 C 0.107(4) 0.5380(11) 0.0588(4)
C10 C 0.161(4) 0.6055(10) 0.0829(3)
C11 C 0.393(4) 0.8092(9) 0.1604(3)
H5 H 0.3121 0.7829 0.1812
H6 H 0.2739 0.8724 0.1562
H7 H 0.6546 0.8188 0.1608
C12 C 0.195(3) 0.5356(10) 0.1821(3)
H8 H 0.1215 0.5244 0.2046
H9 H 0.4592 0.5356 0.1808
H10 H 0.0987 0.4829 0.1684
O6 O -0.142(3) 0.0114(7) 0.1732(2)
O7 O 0.019(2) 0.0537(7) 0.2351(2)
O8 O 0.541(3) 0.3411(6) 0.2009(2)
O9 O 0.138(3) 0.1584(6) 0.0670(3)
H11 H 0.1850 0.2046 0.0542
O10 O -0.073(2) 0.0438(6) 0.11251(19)
H12 H -0.1359 0.0123 0.1291
C13 C 0.036(4) 0.0870(10) 0.1791(4)
C14 C 0.114(4) 0.1116(9) 0.2123(4)
C15 C 0.292(4) 0.1966(10) 0.2185(4)
C16 C 0.391(5) 0.2664(9) 0.1944(4)
C17 C 0.326(4) 0.2390(10) 0.1604(4)
C18 C 0.434(4) 0.3000(10) 0.1363(4)
H13 H 0.5482 0.3607 0.1414
C19 C 0.378(4) 0.2746(11) 0.1045(4)
H14 H 0.4597 0.3165 0.0876
C20 C 0.202(4) 0.1874(11) 0.0973(4)
C21 C 0.089(4) 0.1269(10) 0.1213(4)
C22 C 0.160(4) 0.1489(9) 0.1530(4)
C23 C 0.379(3) 0.2245(8) 0.2527(3)
H15 H 0.2866 0.1738 0.2674
H16 H 0.2661 0.2880 0.2578
H17 H 0.6408 0.2300 0.2552
C24 C 0.204(4) -0.0419(8) 0.2364(3)
H18 H 0.1180 -0.0793 0.2551
H19 H 0.4646 -0.0312 0.2383
H20 H 0.1539 -0.0790 0.2165
O11 O 0.873(3) 0.9664(7) 0.04959(18)
H21 H 0.7072 0.9238 0.0475
H22 H 1.0137 0.9451 0.0643
O12 O 0.256(3) 0.2864(7) 0.0213(2)
H23 H 0.3459 0.3121 0.0044
H24 H 0.0291 0.2820 0.0186
loop_
_geom_bond_atom_site_label_1
_geom_bond_atom_site_label_2
_geom_bond_site_symmetry_1
_geom_bond_site_symmetry_2
O1 C1 1_555 1_555
O2 C2 1_555 1_555
O3 C4 1_555 1_555
O4 H1 1_555 1_555
O5 H2 1_555 1_555
C1 C2 1_555 1_555
C2 C3 1_555 1_555
C3 C4 1_555 1_555
C4 C5 1_555 1_555
C5 C6 1_555 1_555
C6 H3 1_555 1_555
C7 C6 1_555 1_555
H4 C7 1_555 1_555
C8 O4 1_555 1_555
C9 O5 1_555 1_555
C10 C1 1_555 1_555
C11 C3 1_555 1_555
H5 C11 1_555 1_555
H6 C11 1_555 1_555
H7 C11 1_555 1_555
C12 O2 1_555 1_555
H8 C12 1_555 1_555
H9 C12 1_555 1_555
H10 C12 1_555 1_555
O6 C13 1_555 1_555
O7 C14 1_555 1_555
O8 C16 1_555 1_555
O9 H11 1_555 1_555
O10 H12 1_555 1_555
C13 C14 1_555 1_555
C14 C15 1_555 1_555
C15 C16 1_555 1_555
C16 C17 1_555 1_555
C17 C18 1_555 1_555
C18 H13 1_555 1_555
C19 C18 1_555 1_555
H14 C19 1_555 1_555
C20 O9 1_555 1_555
C21 O10 1_555 1_555
C22 C13 1_555 1_555
C23 C15 1_555 1_555
H15 C23 1_555 1_555
H16 C23 1_555 1_555
H17 C23 1_555 1_555
C24 O7 1_555 1_555
H18 C24 1_555 1_555
H19 C24 1_555 1_555
H20 C24 1_555 1_555
O11 H21 1_555 1_555
H22 O11 1_555 1_555
O12 H23 1_555 1_555
H24 O12 1_555 1_555
C5 C10 1_555 1_555
C7 C8 1_555 1_555
C8 C9 1_555 1_555
C9 C10 1_555 1_555
C17 C22 1_555 1_555
C19 C20 1_555 1_555
C20 C21 1_555 1_555
C21 C22 1_555 1_555

#END
