
#######################################################################
#
#                 Cambridge Crystallographic Data Centre
#                                CCDC 
#
#######################################################################
#
# If this CIF has been generated from an entry in the Cambridge 
# Structural Database, then it will include bibliographic, chemical, 
# crystal, experimental, refinement or atomic coordinate data resulting 
# from the CCDC's data processing and validation procedures.
#
#######################################################################

data_DERPIC
_chemical_formula_moiety         'C22 H17 F3 O3 S1'
_chemical_name_systematic        
'[2-hydroxy-4-(4-methylphenyl)-2-(trifluoromethyl)-3,4-dihydro-2H-1-benzopyran-3-yl](thiophen-2-yl)methanone'
_symmetry_cell_setting           monoclinic
_symmetry_space_group_name_H-M   'P 21/n'
_symmetry_Int_Tables_number      14
_space_group_name_Hall           '-P 2yn'
loop_
_symmetry_equiv_pos_site_id
_symmetry_equiv_pos_as_xyz
1 x,y,z
2 1/2-x,1/2+y,1/2-z
3 -x,-y,-z
4 1/2+x,1/2-y,1/2+z
_cell_length_a                   9.3431(3)
_cell_length_b                   10.7986(4)
_cell_length_c                   19.6978(7)
_cell_angle_alpha                90
_cell_angle_beta                 96.3200(10)
_cell_angle_gamma                90
_cell_volume                     1975.28
_exptl_crystal_colour            colorless
_exptl_crystal_description       block
_cell_formula_units_Z            4
loop_
_atom_site_label
_atom_site_type_symbol
_atom_site_fract_x
_atom_site_fract_y
_atom_site_fract_z
C1 C 0.9265(3) 0.2567(3) 0.40050(18)
H1 H 0.994656 0.234921 0.436523
C2 C 0.9197(4) 0.3689(3) 0.3713(2)
H2 H 0.982322 0.433389 0.384999
C3 C 0.8073(3) 0.3789(2) 0.31744(17)
H3 H 0.788006 0.449803 0.291219
C4 C 0.7296(2) 0.27006(18) 0.30859(11)
C5 C 0.6083(2) 0.23909(17) 0.26000(10)
C6 C 0.5460(2) 0.33487(17) 0.20801(10)
H4 H 0.601409 0.411885 0.214270
C7 C 0.3862(2) 0.36027(18) 0.21893(10)
H5 H 0.339173 0.279926 0.223006
C8 C 0.3098(2) 0.42542(18) 0.15750(10)
C9 C 0.1750(2) 0.4801(2) 0.15987(11)
H6 H 0.131690 0.476245 0.200125
C10 C 0.1045(2) 0.5396(2) 0.10386(12)
H7 H 0.013978 0.573936 0.106284
C11 C 0.1687(2) 0.5479(2) 0.04440(12)
H8 H 0.122542 0.590292 0.007119
C12 C 0.3011(2) 0.4938(2) 0.03971(11)
H9 H 0.344346 0.498820 -0.000534
C13 C 0.3684(2) 0.43190(18) 0.09598(10)
C14 C 0.5502(2) 0.28734(19) 0.13475(11)
C15 C 0.7029(2) 0.2623(2) 0.11676(12)
C16 C 0.3766(2) 0.4305(2) 0.28518(10)
C17 C 0.3303(3) 0.3720(3) 0.34094(12)
H10 H 0.304397 0.288858 0.338242
C18 C 0.3223(3) 0.4377(4) 0.40177(13)
H11 H 0.292080 0.396667 0.439157
C19 C 0.3579(3) 0.5610(4) 0.40782(13)
C20 C 0.4033(3) 0.6180(3) 0.35197(15)
H12 H 0.428474 0.701338 0.354765
C21 C 0.4130(2) 0.5548(2) 0.29116(13)
H13 H 0.444290 0.596279 0.254123
C22 C 0.3464(5) 0.6297(5) 0.47379(18)
H14 H 0.246757 0.639414 0.480466
H15 H 0.390328 0.709757 0.471665
H16 H 0.394751 0.583561 0.511182
F1 F 0.76433(16) 0.17087(14) 0.15527(9)
F2 F 0.78807(15) 0.36062(14) 0.12745(9)
F3 F 0.70437(18) 0.22922(17) 0.05199(8)
O1 O 0.55303(17) 0.13590(13) 0.25914(9)
O2 O 0.47011(18) 0.17952(15) 0.12134(9)
H17 H 0.461766 0.143438 0.157324
O3 O 0.50055(15) 0.37857(14) 0.08708(7)
S1 S 0.79921(8) 0.15989(6) 0.36527(4)
loop_
_geom_bond_atom_site_label_1
_geom_bond_atom_site_label_2
_geom_bond_site_symmetry_1
_geom_bond_site_symmetry_2
C1 H1 1_555 1_555
C2 C1 1_555 1_555
H2 C2 1_555 1_555
C3 C2 1_555 1_555
H3 C3 1_555 1_555
C4 C3 1_555 1_555
C5 C4 1_555 1_555
C6 C5 1_555 1_555
H4 C6 1_555 1_555
C7 C6 1_555 1_555
H5 C7 1_555 1_555
C8 C7 1_555 1_555
C9 C8 1_555 1_555
H6 C9 1_555 1_555
C10 C9 1_555 1_555
H7 C10 1_555 1_555
C11 C10 1_555 1_555
H8 C11 1_555 1_555
C12 C11 1_555 1_555
H9 C12 1_555 1_555
C13 C8 1_555 1_555
C14 C6 1_555 1_555
C15 C14 1_555 1_555
C16 C7 1_555 1_555
C17 C16 1_555 1_555
H10 C17 1_555 1_555
C18 C17 1_555 1_555
H11 C18 1_555 1_555
C19 C18 1_555 1_555
C20 C19 1_555 1_555
H12 C20 1_555 1_555
C21 C16 1_555 1_555
H13 C21 1_555 1_555
C22 C19 1_555 1_555
H14 C22 1_555 1_555
H15 C22 1_555 1_555
H16 C22 1_555 1_555
F1 C15 1_555 1_555
F2 C15 1_555 1_555
F3 C15 1_555 1_555
O1 C5 1_555 1_555
O2 C14 1_555 1_555
H17 O2 1_555 1_555
O3 C13 1_555 1_555
S1 C1 1_555 1_555
C4 S1 1_555 1_555
C12 C13 1_555 1_555
C14 O3 1_555 1_555
C20 C21 1_555 1_555

#END
