
#######################################################################
#
#                 Cambridge Crystallographic Data Centre
#                                CCDC 
#
#######################################################################
#
# If this CIF has been generated from an entry in the Cambridge 
# Structural Database, then it will include bibliographic, chemical, 
# crystal, experimental, refinement or atomic coordinate data resulting 
# from the CCDC's data processing and validation procedures.
#
#######################################################################

data_DERTEC
_chemical_formula_moiety         'C18 H12 B2 F4 N4 S2'
_chemical_name_systematic        
5,5,12,12-tetrafluoro-3,10-di(thiophen-2-yl)-5H,12H-pyrrolo[1,2-d]pyrrolo[1',2':4,5][1,2,4,3]triazaborate[2,1-a][1,2,4,3]triazaborate-4,11-diium
_symmetry_cell_setting           monoclinic
_symmetry_space_group_name_H-M   'P 21/c'
_symmetry_Int_Tables_number      14
_space_group_name_Hall           '-P 2ybc'
loop_
_symmetry_equiv_pos_site_id
_symmetry_equiv_pos_as_xyz
1 x,y,z
2 -x,1/2+y,1/2-z
3 -x,-y,-z
4 x,1/2-y,1/2+z
_cell_length_a                   7.0907(10)
_cell_length_b                   16.573(2)
_cell_length_c                   8.3518(12)
_cell_angle_alpha                90
_cell_angle_beta                 111.312(2)
_cell_angle_gamma                90
_cell_volume                     914.338
_exptl_crystal_colour            'metallic reddish red'
_exptl_crystal_description       cube
_cell_formula_units_Z            2
loop_
_atom_site_label
_atom_site_type_symbol
_atom_site_fract_x
_atom_site_fract_y
_atom_site_fract_z
B1 B 0.6589(5) 0.5887(2) 0.1722(4)
C1 C 1.1034(4) 0.62569(18) 0.4559(4)
C2 C 0.9839(5) 0.68853(18) 0.4889(4)
H1 H 0.8446(5) 0.69441(18) 0.4342(4)
C3 C 1.1121(5) 0.7408(2) 0.6190(5)
H2 H 1.0631(5) 0.7856(2) 0.6584(5)
C4 C 1.3087(5) 0.7202(2) 0.6801(5)
H3 H 1.4079(5) 0.7487(2) 0.7659(5)
C5 C 1.0474(4) 0.55710(17) 0.3402(3)
C6 C 1.1776(4) 0.49571(19) 0.3283(4)
H4 H 1.3157(4) 0.49278(19) 0.3917(4)
C7 C 1.0681(4) 0.44079(19) 0.2083(4)
H5 H 1.1172(4) 0.39412(19) 0.1754(4)
C8 C 0.3001(4) 0.56634(17) -0.0223(4)
H6 H 0.2807(4) 0.61512(17) 0.0246(4)
F1 F 0.5933(3) 0.60182(13) 0.3054(2)
F2 F 0.6751(3) 0.66023(11) 0.0953(3)
N1 N 0.8567(3) 0.54055(14) 0.2256(3)
N2 N 0.4859(3) 0.53669(14) 0.0344(3)
C9 C 0.1321(4) 0.53162(17) -0.1445(4)
S1 S 1.35607(12) 0.63721(6) 0.58403(12)
B1B B 0.3411(5) 0.4113(2) -0.1722(4)
C1B C -0.1034(4) 0.37431(18) -0.4559(4)
C2B C 0.0161(5) 0.31147(18) -0.4889(4)
H1B H 0.1554(5) 0.30559(18) -0.4342(4)
C3B C -0.1121(5) 0.2592(2) -0.6190(5)
H2B H -0.0631(5) 0.2144(2) -0.6584(5)
C4B C -0.3087(5) 0.2798(2) -0.6801(5)
H3B H -0.4079(5) 0.2513(2) -0.7659(5)
C5B C -0.0474(4) 0.44290(17) -0.3402(3)
C6B C -0.1776(4) 0.50429(19) -0.3283(4)
H4B H -0.3157(4) 0.50722(19) -0.3917(4)
C7B C -0.0681(4) 0.55921(19) -0.2083(4)
H5B H -0.1172(4) 0.60588(19) -0.1754(4)
C8B C 0.6999(4) 0.43366(17) 0.0223(4)
H6B H 0.7193(4) 0.38488(17) -0.0246(4)
F1B F 0.4067(3) 0.39818(13) -0.3054(2)
F2B F 0.3249(3) 0.33977(11) -0.0953(3)
N1B N 0.1433(3) 0.45945(14) -0.2256(3)
N2B N 0.5141(3) 0.46331(14) -0.0344(3)
C9B C 0.8679(4) 0.46838(17) 0.1445(4)
S1B S -0.35607(12) 0.36279(6) -0.58403(12)
loop_
_geom_bond_atom_site_label_1
_geom_bond_atom_site_label_2
_geom_bond_site_symmetry_1
_geom_bond_site_symmetry_2
B1 F1 1_555 1_555
C1 C2 1_555 1_555
C2 H1 1_555 1_555
C3 C2 1_555 1_555
H2 C3 1_555 1_555
C4 C3 1_555 1_555
H3 C4 1_555 1_555
C5 C1 1_555 1_555
C6 C5 1_555 1_555
H4 C6 1_555 1_555
C7 C6 1_555 1_555
H5 C7 1_555 1_555
C8 H6 1_555 1_555
F2 B1 1_555 1_555
N1 B1 1_555 1_555
N2 B1 1_555 1_555
C9 C8 1_555 1_555
S1 C1 1_555 1_555
B1B F1B 1_555 1_555
C1B C2B 1_555 1_555
C2B H1B 1_555 1_555
C3B C2B 1_555 1_555
H2B C3B 1_555 1_555
C4B C3B 1_555 1_555
H3B C4B 1_555 1_555
C5B C1B 1_555 1_555
C6B C5B 1_555 1_555
H4B C6B 1_555 1_555
C7B C9 1_555 1_555
H5B C7B 1_555 1_555
C8B H6B 1_555 1_555
F2B B1B 1_555 1_555
N1B C9 1_555 1_555
N2B N2 1_555 1_555
C9B C7 1_555 1_555
S1B C1B 1_555 1_555
C4 S1 1_555 1_555
C5 N1 1_555 1_555
C8 N2 1_555 1_555
N1 C9B 1_555 1_555
B1B N1B 1_555 1_555
B1B N2B 1_555 1_555
C4B S1B 1_555 1_555
C5B N1B 1_555 1_555
C6B C7B 1_555 1_555
C8B N2B 1_555 1_555
C8B C9B 1_555 1_555

#END
