
#######################################################################
#
#                 Cambridge Crystallographic Data Centre
#                                CCDC 
#
#######################################################################
#
# If this CIF has been generated from an entry in the Cambridge 
# Structural Database, then it will include bibliographic, chemical, 
# crystal, experimental, refinement or atomic coordinate data resulting 
# from the CCDC's data processing and validation procedures.
#
#######################################################################

data_DERTOM
_chemical_formula_moiety         'C26 H26 B2 F4 N6'
_chemical_name_systematic        
4,4'-(5,5,12,12-tetrafluoro-5,12-dihydro-4\l^5^,11\l^5^,5\l^5^,12\l^5^-pyrrolo[1,2-d]pyrrolo[1',2':4,5][1,2,4,3]triazaborinino[2,1-a][1,2,4,3]triazaborinine-3,10-diyl)bis(N,N-dimethylaniline)
_symmetry_cell_setting           monoclinic
_symmetry_space_group_name_H-M   'P 21/c'
_symmetry_Int_Tables_number      14
_space_group_name_Hall           '-P 2ybc'
loop_
_symmetry_equiv_pos_site_id
_symmetry_equiv_pos_as_xyz
1 x,y,z
2 -x,1/2+y,1/2-z
3 -x,-y,-z
4 x,1/2-y,1/2+z
_cell_length_a                   7.097(2)
_cell_length_b                   8.061(3)
_cell_length_c                   24.763(8)
_cell_angle_alpha                90
_cell_angle_beta                 94.572(4)
_cell_angle_gamma                90
_cell_volume                     1412.16
_exptl_crystal_colour            colorless
_exptl_crystal_description       block
_cell_formula_units_Z            2
loop_
_atom_site_label
_atom_site_type_symbol
_atom_site_fract_x
_atom_site_fract_y
_atom_site_fract_z
N1 N -0.0164(4) 0.1142(4) 0.39963(11)
C1 C 0.0976(5) 0.1784(4) 0.30729(14)
C2 C 0.3340(5) 0.1693(5) 0.21896(14)
C3 C -0.0369(5) 0.1843(4) 0.34883(14)
C4 C 0.2623(5) 0.0829(5) 0.30903(15)
H1 H 0.2957 0.0195 0.3397
C5 C 0.3773(5) 0.0800(5) 0.26640(15)
H2 H 0.4870 0.0163 0.2696
C6 C -0.3049(5) 0.2344(5) 0.38862(16)
H3 H -0.4258 0.2706 0.3948
C7 C -0.1840(5) 0.1440(5) 0.42447(14)
C8 C 0.0566(5) 0.2693(5) 0.26007(16)
H4 H -0.0512 0.3353 0.2573
C9 C 0.1688(6) 0.2656(5) 0.21721(16)
H5 H 0.1344 0.3283 0.1865
C10 C -0.2147(5) 0.2606(5) 0.34288(16)
H6 H -0.2632 0.3195 0.3126
C11 C 0.6209(6) 0.0782(6) 0.17996(18)
H7 H 0.6992 0.1157 0.2110
H8 H 0.6843 0.0976 0.1477
H9 H 0.5965 -0.0383 0.1834
C12 C 0.3845(7) 0.2447(7) 0.12584(18)
H10 H 0.2729 0.1899 0.1103
H11 H 0.4825 0.2369 0.1014
H12 H 0.3566 0.3593 0.1321
C13 C 0.2116(5) -0.0930(5) 0.52436(15)
H13 H 0.3297 -0.1144 0.5121
N2 N 0.0875(4) -0.0161(4) 0.49026(11)
N3 N 0.4470(5) 0.1665(4) 0.17665(13)
B1 B 0.1410(6) 0.0124(6) 0.43033(17)
F1 F 0.3115(3) 0.0926(4) 0.43394(9)
F2 F 0.1580(4) -0.1405(3) 0.40663(10)
N1B N 0.0164(4) -0.1142(4) 0.60037(11)
C1B C -0.0976(5) -0.1784(4) 0.69271(14)
C2B C -0.3340(5) -0.1693(5) 0.78104(14)
C3B C 0.0369(5) -0.1843(4) 0.65117(14)
C4B C -0.2623(5) -0.0829(5) 0.69097(15)
H1B H -0.2957 -0.0195 0.6603
C5B C -0.3773(5) -0.0800(5) 0.73360(15)
H2B H -0.4870 -0.0163 0.7304
C6B C 0.3049(5) -0.2344(5) 0.61138(16)
H3B H 0.4258 -0.2706 0.6052
C7B C 0.1840(5) -0.1440(5) 0.57553(14)
C8B C -0.0566(5) -0.2693(5) 0.73993(16)
H4B H 0.0512 -0.3353 0.7427
C9B C -0.1688(6) -0.2656(5) 0.78279(16)
H5B H -0.1344 -0.3283 0.8135
C10B C 0.2147(5) -0.2606(5) 0.65712(16)
H6B H 0.2632 -0.3195 0.6874
C11B C -0.6209(6) -0.0782(6) 0.82004(18)
H7B H -0.6992 -0.1157 0.7890
H8B H -0.6843 -0.0976 0.8523
H9B H -0.5965 0.0383 0.8166
C12B C -0.3845(7) -0.2447(7) 0.87416(18)
H10B H -0.2729 -0.1899 0.8897
H11B H -0.4825 -0.2369 0.8986
H12B H -0.3566 -0.3593 0.8679
C13B C -0.2116(5) 0.0930(5) 0.47564(15)
H13B H -0.3297 0.1144 0.4879
N2B N -0.0875(4) 0.0161(4) 0.50974(11)
N3B N -0.4470(5) -0.1665(4) 0.82335(13)
B1B B -0.1410(6) -0.0124(6) 0.56967(17)
F1B F -0.3115(3) -0.0926(4) 0.56606(9)
F2B F -0.1580(4) 0.1405(3) 0.59337(10)
loop_
_geom_bond_atom_site_label_1
_geom_bond_atom_site_label_2
_geom_bond_site_symmetry_1
_geom_bond_site_symmetry_2
N1 C3 1_555 1_555
C1 C3 1_555 1_555
C2 C5 1_555 1_555
C3 C10 1_555 1_555
C4 C1 1_555 1_555
H1 C4 1_555 1_555
C5 C4 1_555 1_555
H2 C5 1_555 1_555
C6 H3 1_555 1_555
C7 N1 1_555 1_555
C8 C1 1_555 1_555
H4 C8 1_555 1_555
C9 C2 1_555 1_555
H5 C9 1_555 1_555
C10 C6 1_555 1_555
H6 C10 1_555 1_555
C11 H7 1_555 1_555
H8 C11 1_555 1_555
H9 C11 1_555 1_555
C12 H10 1_555 1_555
H11 C12 1_555 1_555
H12 C12 1_555 1_555
C13 H13 1_555 1_555
N2 C13 1_555 1_555
N3 C2 1_555 1_555
B1 N1 1_555 1_555
F1 B1 1_555 1_555
F2 B1 1_555 1_555
N1B C3B 1_555 1_555
C1B C3B 1_555 1_555
C2B C5B 1_555 1_555
C3B C10B 1_555 1_555
C4B C1B 1_555 1_555
H1B C4B 1_555 1_555
C5B C4B 1_555 1_555
H2B C5B 1_555 1_555
C6B H3B 1_555 1_555
C7B C13 1_555 1_555
C8B C1B 1_555 1_555
H4B C8B 1_555 1_555
C9B C2B 1_555 1_555
H5B C9B 1_555 1_555
C10B C6B 1_555 1_555
H6B C10B 1_555 1_555
C11B H7B 1_555 1_555
H8B C11B 1_555 1_555
H9B C11B 1_555 1_555
C12B H10B 1_555 1_555
H11B C12B 1_555 1_555
H12B C12B 1_555 1_555
C13B C7 1_555 1_555
H13B C13B 1_555 1_555
N2B N2 1_555 1_555
N3B C2B 1_555 1_555
B1B N1B 1_555 1_555
F1B B1B 1_555 1_555
F2B B1B 1_555 1_555
C6 C7 1_555 1_555
C8 C9 1_555 1_555
C11 N3 1_555 1_555
C12 N3 1_555 1_555
N2 B1 1_555 1_555
N1B C7B 1_555 1_555
C6B C7B 1_555 1_555
C8B C9B 1_555 1_555
C11B N3B 1_555 1_555
C12B N3B 1_555 1_555
C13B N2B 1_555 1_555
N2B B1B 1_555 1_555

#END
