
#######################################################################
#
#                 Cambridge Crystallographic Data Centre
#                                CCDC 
#
#######################################################################
#
# If this CIF has been generated from an entry in the Cambridge 
# Structural Database, then it will include bibliographic, chemical, 
# crystal, experimental, refinement or atomic coordinate data resulting 
# from the CCDC's data processing and validation procedures.
#
#######################################################################

data_DERVOO
_chemical_formula_moiety         'C14 H12 O1'
_chemical_name_systematic        
3-(cyclopenta-2,4-dien-1-ylidene)-2,3-dihydro-1H-inden-1-ol
_symmetry_cell_setting           rhombohedral
_symmetry_space_group_name_H-M   'R 3'
_symmetry_Int_Tables_number      146
_space_group_name_Hall           'R 3'
loop_
_symmetry_equiv_pos_site_id
_symmetry_equiv_pos_as_xyz
1 x,y,z
2 -y,x-y,z
3 -x+y,-x,z
4 2/3+x,1/3+y,1/3+z
5 2/3-y,1/3+x-y,1/3+z
6 2/3-x+y,1/3-x,1/3+z
7 1/3+x,2/3+y,2/3+z
8 1/3-y,2/3+x-y,2/3+z
9 1/3-x+y,2/3-x,2/3+z
_cell_length_a                   21.5126(16)
_cell_length_b                   21.5126(16)
_cell_length_c                   5.7918(5)
_cell_angle_alpha                90
_cell_angle_beta                 90
_cell_angle_gamma                120
_cell_volume                     2321.29
_exptl_crystal_colour            colorless
_exptl_crystal_description       block
_cell_formula_units_Z            9
loop_
_atom_site_label
_atom_site_type_symbol
_atom_site_fract_x
_atom_site_fract_y
_atom_site_fract_z
C1 C 0.50231(10) 0.50249(10) 0.6767(3)
C2 C 0.52612(10) 0.56012(10) 0.8624(3)
H1 H 0.484162 0.555653 0.947499
H2 H 0.552692 0.608618 0.793085
C3 C 0.57526(10) 0.54693(10) 1.0250(3)
H3 H 0.545752 0.516965 1.157684
C4 C 0.59641(10) 0.50228(10) 0.8796(3)
C5 C 0.65046(10) 0.48688(10) 0.9251(3)
H4 H 0.679115 0.504993 1.060104
C6 C 0.66205(11) 0.44451(11) 0.7701(4)
H5 H 0.698899 0.433398 0.798677
C7 C 0.61975(11) 0.41823(11) 0.5726(3)
H6 H 0.628163 0.389268 0.467742
C8 C 0.56557(10) 0.43359(10) 0.5263(3)
H7 H 0.537155 0.415545 0.390818
C9 C 0.55341(9) 0.47616(10) 0.6826(3)
C10 C 0.44459(10) 0.48253(10) 0.5381(3)
C11 C 0.40014(9) 0.51654(11) 0.5344(3)
H8 H 0.404091 0.552675 0.637586
C12 C 0.35263(10) 0.48773(11) 0.3593(3)
H9 H 0.318532 0.501370 0.315970
C13 C 0.36211(10) 0.43236(11) 0.2477(3)
H10 H 0.334874 0.403740 0.120696
C14 C 0.41586(10) 0.42826(11) 0.3538(3)
H11 H 0.432270 0.395912 0.315877
O1 O 0.63540(7) 0.61012(7) 1.1149(2)
H12 H 0.6636(14) 0.6333(13) 1.000(5)
loop_
_geom_bond_atom_site_label_1
_geom_bond_atom_site_label_2
_geom_bond_site_symmetry_1
_geom_bond_site_symmetry_2
C1 C2 1_555 1_555
C2 H1 1_555 1_555
H2 C2 1_555 1_555
C3 C2 1_555 1_555
H3 C3 1_555 1_555
C4 C3 1_555 1_555
C5 C4 1_555 1_555
H4 C5 1_555 1_555
C6 C5 1_555 1_555
H5 C6 1_555 1_555
C7 C6 1_555 1_555
H6 C7 1_555 1_555
C8 C7 1_555 1_555
H7 C8 1_555 1_555
C9 C1 1_555 1_555
C10 C1 1_555 1_555
C11 C10 1_555 1_555
H8 C11 1_555 1_555
C12 C11 1_555 1_555
H9 C12 1_555 1_555
C13 C12 1_555 1_555
H10 C13 1_555 1_555
C14 C10 1_555 1_555
H11 C14 1_555 1_555
O1 C3 1_555 1_555
H12 O1 1_555 1_555
C4 C9 1_555 1_555
C8 C9 1_555 1_555
C13 C14 1_555 1_555

#END
