
#######################################################################
#
#                 Cambridge Crystallographic Data Centre
#                                CCDC 
#
#######################################################################
#
# If this CIF has been generated from an entry in the Cambridge 
# Structural Database, then it will include bibliographic, chemical, 
# crystal, experimental, refinement or atomic coordinate data resulting 
# from the CCDC's data processing and validation procedures.
#
#######################################################################

data_DERWEF
_chemical_formula_moiety         'C25 H20 Cl2 N2 O3'
_chemical_name_systematic        
6,7-bis(4-chlorophenyl)-6a-nitro-6,6a,7,8,10,10a-hexahydrophenanthridin-9(5H)-one
_symmetry_cell_setting           monoclinic
_symmetry_space_group_name_H-M   'P 21/n'
_symmetry_Int_Tables_number      14
_space_group_name_Hall           '-P 2yn'
loop_
_symmetry_equiv_pos_site_id
_symmetry_equiv_pos_as_xyz
1 x,y,z
2 1/2-x,1/2+y,1/2-z
3 -x,-y,-z
4 1/2+x,1/2-y,1/2+z
_cell_length_a                   11.7312(3)
_cell_length_b                   13.2225(4)
_cell_length_c                   14.0726(4)
_cell_angle_alpha                90
_cell_angle_beta                 98.4120(10)
_cell_angle_gamma                90
_cell_volume                     2159.4
_exptl_crystal_colour            colorless
_exptl_crystal_description       block
_cell_formula_units_Z            4
loop_
_atom_site_label
_atom_site_type_symbol
_atom_site_fract_x
_atom_site_fract_y
_atom_site_fract_z
H1 H 0.202(3) 0.802(2) 0.647(2)
C1 C 0.6378(3) 0.9896(2) 0.6381(2)
C2 C 0.5222(3) 0.9971(2) 0.6451(2)
H2 H 0.4766 1.0489 0.6119
C3 C 0.4735(2) 0.9280(2) 0.7010(2)
H3 H 0.3940 0.9335 0.7067
C4 C 0.5385(2) 0.85078(19) 0.74903(18)
C5 C 0.6559(2) 0.8476(2) 0.7416(2)
H4 H 0.7027 0.7967 0.7752
C6 C 0.7056(3) 0.9167(3) 0.6865(2)
H5 H 0.7856 0.9135 0.6823
C7 C 0.4811(2) 0.77616(19) 0.80918(17)
H6 H 0.4189 0.8152 0.8342
C8 C 0.5634(2) 0.7417(2) 0.89872(19)
H7 H 0.6318 0.7102 0.8773
H8 H 0.5901 0.8024 0.9369
C9 C 0.5140(2) 0.6686(2) 0.96304(19)
C10 C 0.4322(2) 0.5899(2) 0.91740(19)
H9 H 0.3832 0.5673 0.9649
H10 H 0.4773 0.5307 0.9010
C11 C 0.3536(2) 0.62514(19) 0.82589(17)
H11 H 0.3201 0.5633 0.7917
C12 C 0.41982(19) 0.68288(18) 0.75641(17)
C13 C 0.2536(2) 0.69047(19) 0.84679(17)
C14 C 0.2070(3) 0.6844(2) 0.9327(2)
H12 H 0.2426 0.6415 0.9826
C15 C 0.1106(3) 0.7391(3) 0.9470(2)
H13 H 0.0808 0.7337 1.0060
C16 C 0.0579(3) 0.8014(3) 0.8751(2)
H14 H -0.0094 0.8380 0.8841
C17 C 0.1023(2) 0.8106(2) 0.7905(2)
H15 H 0.0655 0.8537 0.7413
C18 C 0.2011(2) 0.7573(2) 0.77607(17)
C19 C 0.33650(19) 0.71168(18) 0.66392(16)
H16 H 0.3816 0.7533 0.6232
C20 C 0.28856(19) 0.62186(19) 0.60359(17)
C21 C 0.1874(2) 0.57338(19) 0.61877(18)
H17 H 0.1494 0.5940 0.6707
C22 C 0.1413(2) 0.4956(2) 0.55948(19)
H18 H 0.0729 0.4625 0.5712
C23 C 0.1955(2) 0.4666(2) 0.4832(2)
C24 C 0.2961(2) 0.5129(2) 0.4664(2)
H19 H 0.3337 0.4920 0.4143
C25 C 0.3411(2) 0.5898(2) 0.52655(19)
H20 H 0.4102 0.6219 0.5150
N1 N 0.51006(17) 0.61546(17) 0.72049(16)
N2 N 0.24862(18) 0.77647(16) 0.69286(15)
O1 O 0.56961(17) 0.65394(16) 0.66594(16)
O2 O 0.51842(18) 0.52684(15) 0.74411(17)
O3 O 0.54677(18) 0.66724(16) 1.04937(14)
Cl1 Cl 0.13438(7) 0.37181(6) 0.40629(6)
Cl2 Cl 0.69898(9) 1.07511(8) 0.56499(7)
loop_
_geom_bond_atom_site_label_1
_geom_bond_atom_site_label_2
_geom_bond_site_symmetry_1
_geom_bond_site_symmetry_2
H1 N2 1_555 1_555
C1 C2 1_555 1_555
C2 H2 1_555 1_555
C3 C2 1_555 1_555
H3 C3 1_555 1_555
C4 C3 1_555 1_555
C5 C4 1_555 1_555
H4 C5 1_555 1_555
C6 C1 1_555 1_555
H5 C6 1_555 1_555
C7 C4 1_555 1_555
H6 C7 1_555 1_555
C8 C7 1_555 1_555
H7 C8 1_555 1_555
H8 C8 1_555 1_555
C9 C8 1_555 1_555
C10 C9 1_555 1_555
H9 C10 1_555 1_555
H10 C10 1_555 1_555
C11 C10 1_555 1_555
H11 C11 1_555 1_555
C12 C7 1_555 1_555
C13 C11 1_555 1_555
C14 C13 1_555 1_555
H12 C14 1_555 1_555
C15 C14 1_555 1_555
H13 C15 1_555 1_555
C16 C15 1_555 1_555
H14 C16 1_555 1_555
C17 C16 1_555 1_555
H15 C17 1_555 1_555
C18 C13 1_555 1_555
C19 C12 1_555 1_555
H16 C19 1_555 1_555
C20 C19 1_555 1_555
C21 C20 1_555 1_555
H17 C21 1_555 1_555
C22 C21 1_555 1_555
H18 C22 1_555 1_555
C23 C22 1_555 1_555
C24 C23 1_555 1_555
H19 C24 1_555 1_555
C25 C20 1_555 1_555
H20 C25 1_555 1_555
N1 C12 1_555 1_555
N2 C18 1_555 1_555
O1 N1 1_555 1_555
O2 N1 1_555 1_555
O3 C9 1_555 1_555
Cl1 C23 1_555 1_555
Cl2 C1 1_555 1_555
C5 C6 1_555 1_555
C11 C12 1_555 1_555
C17 C18 1_555 1_555
C19 N2 1_555 1_555
C24 C25 1_555 1_555

#END
