
#######################################################################
#
#                 Cambridge Crystallographic Data Centre
#                                CCDC 
#
#######################################################################
#
# If this CIF has been generated from an entry in the Cambridge 
# Structural Database, then it will include bibliographic, chemical, 
# crystal, experimental, refinement or atomic coordinate data resulting 
# from the CCDC's data processing and validation procedures.
#
#######################################################################

data_DERWAY
_chemical_name_common            'Teaching Subset: Fundamental Chemistry'
_chemical_formula_moiety         'C8 H10'
_chemical_name_systematic        trans,trans-1,3,5,7-Octatetraene
_symmetry_cell_setting           monoclinic
_symmetry_space_group_name_H-M   'P 21/c'
_symmetry_Int_Tables_number      14
_space_group_name_Hall           '-P 2ybc'
loop_
_symmetry_equiv_pos_site_id
_symmetry_equiv_pos_as_xyz
1 x,y,z
2 -x,1/2+y,1/2-z
3 -x,-y,-z
4 x,1/2-y,1/2+z
_cell_length_a                   10.228(8)
_cell_length_b                   4.120(1)
_cell_length_c                   8.313(3)
_cell_angle_alpha                90
_cell_angle_beta                 96.53(4)
_cell_angle_gamma                90
_cell_volume                     348.032
_exptl_crystal_colour            'pale yellow'
_cell_formula_units_Z            2
loop_
_atom_site_label
_atom_site_type_symbol
_atom_site_fract_x
_atom_site_fract_y
_atom_site_fract_z
C1 C 0.0657(3) 0.0614(8) 0.0247(3)
C2 C 0.1481(3) -0.0541(8) 0.1461(3)
C3 C 0.2795(3) 0.0693(9) 0.1948(4)
C4 C 0.3614(3) -0.0465(10) 0.3182(4)
H1 H 0.090(3) 0.259(7) -0.036(3)
H2 H 0.125(3) -0.265(7) 0.200(3)
H3 H 0.311(2) 0.221(6) 0.127(3)
H4 H 0.337(3) -0.283(10) 0.387(5)
H5 H 0.440(3) 0.074(7) 0.358(4)
C1B C -0.0657(3) -0.0614(8) -0.0247(3)
C2B C -0.1481(3) 0.0541(8) -0.1461(3)
H1B H -0.090(3) -0.259(7) 0.036(3)
C3B C -0.2795(3) -0.0693(9) -0.1948(4)
H2B H -0.125(3) 0.265(7) -0.200(3)
C4B C -0.3614(3) 0.0465(10) -0.3182(4)
H3B H -0.311(2) -0.221(6) -0.127(3)
H4B H -0.337(3) 0.283(10) -0.387(5)
H5B H -0.440(3) -0.074(7) -0.358(4)
loop_
_geom_bond_atom_site_label_1
_geom_bond_atom_site_label_2
_geom_bond_site_symmetry_1
_geom_bond_site_symmetry_2
C1 C2 1_555 1_555
C2 C3 1_555 1_555
C3 C4 1_555 1_555
C4 H4 1_555 1_555
H1 C1 1_555 1_555
H2 C2 1_555 1_555
H3 C3 1_555 1_555
H5 C4 1_555 1_555
C1B C1 1_555 1_555
C2B C1B 1_555 1_555
H1B C1B 1_555 1_555
C3B C2B 1_555 1_555
H2B C2B 1_555 1_555
C4B C3B 1_555 1_555
H3B C3B 1_555 1_555
H4B C4B 1_555 1_555
H5B C4B 1_555 1_555

#END
