
#######################################################################
#
#                 Cambridge Crystallographic Data Centre
#                                CCDC 
#
#######################################################################
#
# If this CIF has been generated from an entry in the Cambridge 
# Structural Database, then it will include bibliographic, chemical, 
# crystal, experimental, refinement or atomic coordinate data resulting 
# from the CCDC's data processing and validation procedures.
#
#######################################################################

data_DERZIK
_chemical_formula_moiety         'C15 H19 N1 O2 S1'
_chemical_name_systematic        
3-Methyl-1-(p-tolylsulfonyl)-1,2,3,3a,6,6a-hexahydrocyclopenta(b)pyrrole
_symmetry_cell_setting           monoclinic
_symmetry_space_group_name_H-M   'P 21/n'
_symmetry_Int_Tables_number      14
_space_group_name_Hall           '-P 2yn'
loop_
_symmetry_equiv_pos_site_id
_symmetry_equiv_pos_as_xyz
1 x,y,z
2 1/2-x,1/2+y,1/2-z
3 -x,-y,-z
4 1/2+x,1/2-y,1/2+z
_cell_length_a                   10.724(2)
_cell_length_b                   7.7050(15)
_cell_length_c                   16.914(3)
_cell_angle_alpha                90
_cell_angle_beta                 96.15(3)
_cell_angle_gamma                90
_cell_volume                     1389.53
_exptl_crystal_colour            colorless
_exptl_crystal_description       prism
_cell_formula_units_Z            4
_exptl_crystal_recrystallization_method 'ethyl acetate/acetonitrile'
loop_
_atom_site_label
_atom_site_type_symbol
_atom_site_fract_x
_atom_site_fract_y
_atom_site_fract_z
C1 C 0.4690(3) 0.2694(5) 0.4508(2)
H1 H 0.4935 0.3147 0.4019
H2 H 0.4248 0.3572 0.4769
H3 H 0.4153 0.1707 0.4397
C2 C 0.5846(3) 0.2150(4) 0.50431(18)
C3 C 0.6906(3) 0.1536(4) 0.47324(18)
H4 H 0.6898 0.1439 0.4184
C4 C 0.7968(3) 0.1065(4) 0.52112(17)
H5 H 0.8669 0.0665 0.4988
C5 C 0.7987(2) 0.1192(3) 0.60308(17)
C6 C 0.6929(3) 0.1773(4) 0.63599(18)
H6 H 0.6932 0.1844 0.6909
C7 C 0.5876(3) 0.2245(4) 0.58670(19)
H7 H 0.5170 0.2635 0.6089
C8 C 1.0790(2) 0.3338(4) 0.61288(16)
H8 H 1.0367 0.3050 0.5603
C9 C 1.2172(3) 0.2807(4) 0.62164(19)
H9 H 1.2296 0.1706 0.6492
H10 H 1.2490 0.2720 0.5702
C10 C 1.2792(3) 0.4257(5) 0.6698(2)
H11 H 1.3610 0.4212 0.6944
C11 C 1.2049(3) 0.5597(4) 0.67333(19)
H12 H 1.2288 0.6618 0.7001
C12 C 1.0773(3) 0.5314(4) 0.62971(17)
H13 H 1.0681 0.5971 0.5798
C13 C 0.9654(3) 0.5630(4) 0.67649(18)
H14 H 0.9813 0.6651 0.7106
C14 C 0.8448(3) 0.5877(4) 0.6224(2)
H15 H 0.8501 0.6921 0.5920
H16 H 0.7758 0.5962 0.6539
H17 H 0.8322 0.4904 0.5870
C15 C 0.9649(3) 0.4002(4) 0.72759(16)
H18 H 1.0191 0.4144 0.7768
H19 H 0.8807 0.3739 0.7401
N1 N 1.0123(2) 0.2611(3) 0.67821(13)
O1 O 0.90427(19) 0.0247(3) 0.74083(12)
O2 O 1.01533(19) -0.0314(2) 0.62214(13)
S1 S 0.93833(6) 0.07856(8) 0.66505(4)
loop_
_geom_bond_atom_site_label_1
_geom_bond_atom_site_label_2
_geom_bond_site_symmetry_1
_geom_bond_site_symmetry_2
C1 H1 1_555 1_555
H2 C1 1_555 1_555
H3 C1 1_555 1_555
C2 C1 1_555 1_555
C3 C2 1_555 1_555
H4 C3 1_555 1_555
C4 C3 1_555 1_555
H5 C4 1_555 1_555
C5 C4 1_555 1_555
C6 C5 1_555 1_555
H6 C6 1_555 1_555
C7 C2 1_555 1_555
H7 C7 1_555 1_555
C8 H8 1_555 1_555
C9 C8 1_555 1_555
H9 C9 1_555 1_555
H10 C9 1_555 1_555
C10 C9 1_555 1_555
H11 C10 1_555 1_555
C11 C10 1_555 1_555
H12 C11 1_555 1_555
C12 C8 1_555 1_555
H13 C12 1_555 1_555
C13 C12 1_555 1_555
H14 C13 1_555 1_555
C14 C13 1_555 1_555
H15 C14 1_555 1_555
H16 C14 1_555 1_555
H17 C14 1_555 1_555
C15 C13 1_555 1_555
H18 C15 1_555 1_555
H19 C15 1_555 1_555
N1 C8 1_555 1_555
O1 S1 1_555 1_555
O2 S1 1_555 1_555
S1 C5 1_555 1_555
C6 C7 1_555 1_555
C11 C12 1_555 1_555
C15 N1 1_555 1_555
N1 S1 1_555 1_555

#END
