
#######################################################################
#
#                 Cambridge Crystallographic Data Centre
#                                CCDC 
#
#######################################################################
#
# If this CIF has been generated from an entry in the Cambridge 
# Structural Database, then it will include bibliographic, chemical, 
# crystal, experimental, refinement or atomic coordinate data resulting 
# from the CCDC's data processing and validation procedures.
#
#######################################################################

data_DESCOW
_chemical_formula_moiety         'C25 H26 N2 O4'
_chemical_name_systematic        
'methyl N-benzyl-\a-(2-nitro-1-phenylethyl)phenylalaninate'
_symmetry_cell_setting           triclinic
_symmetry_space_group_name_H-M   'P -1'
_symmetry_Int_Tables_number      2
_space_group_name_Hall           '-P 1'
loop_
_symmetry_equiv_pos_site_id
_symmetry_equiv_pos_as_xyz
1 x,y,z
2 -x,-y,-z
_cell_length_a                   7.810(5)
_cell_length_b                   10.638(5)
_cell_length_c                   13.879(5)
_cell_angle_alpha                79.989(5)
_cell_angle_beta                 85.653(5)
_cell_angle_gamma                70.974(5)
_cell_volume                     1073.29
_exptl_crystal_colour            white
_exptl_crystal_description       block
_cell_formula_units_Z            2
loop_
_atom_site_label
_atom_site_type_symbol
_atom_site_fract_x
_atom_site_fract_y
_atom_site_fract_z
O1 O 0.62465(15) -0.18929(11) 0.64662(8)
O2 O 0.16394(17) -0.11657(13) 1.00510(9)
O3 O 0.33729(17) -0.06502(13) 0.61535(9)
O4 O 0.01433(17) -0.19940(15) 0.92286(10)
N1 N 0.36399(19) 0.11188(13) 0.72571(10)
N2 N 0.11846(18) -0.13710(15) 0.92831(11)
C1 C 0.4747(2) -0.02846(16) 0.75279(11)
C2 C 0.7465(2) 0.06208(16) 0.71419(12)
C3 C 0.6682(2) -0.03665(17) 0.77830(12)
C4 C 0.4984(2) -0.25550(16) 0.86779(11)
C5 C 0.2489(2) 0.34424(16) 0.75357(12)
C6 C 0.4662(2) -0.34847(17) 0.81806(12)
H1 H 0.380957 -0.318451 0.768905
C7 C 0.6257(2) -0.30373(17) 0.94164(11)
H2 H 0.648953 -0.243738 0.976145
C8 C 0.4706(2) -0.09418(17) 0.66350(12)
C9 C 0.7179(2) -0.44022(18) 0.96415(12)
H3 H 0.802989 -0.471021 1.013359
C10 C 0.7796(2) 0.16339(17) 0.75322(13)
H4 H 0.750217 0.170663 0.818662
C11 C 0.2534(2) 0.52725(18) 0.62523(14)
H5 H 0.303439 0.559506 0.567097
C12 C 0.1044(2) 0.43215(17) 0.79754(13)
H6 H 0.054132 0.400467 0.855794
C13 C 0.6239(3) -0.25880(19) 0.56574(14)
H7 H 0.524469 -0.294302 0.574240
H8 H 0.735702 -0.331256 0.563915
H9 H 0.611092 -0.196909 0.505461
C14 C 0.3238(2) 0.19853(17) 0.80001(12)
C15 C 0.1946(2) -0.0805(2) 0.83420(13)
C16 C 0.0340(2) 0.56586(18) 0.75632(14)
H10 H -0.063224 0.623405 0.786527
C17 C 0.6845(2) -0.53062(17) 0.91426(13)
H11 H 0.746057 -0.622222 0.929969
C18 C 0.3967(2) -0.10586(17) 0.84411(12)
C19 C 0.3235(2) 0.39346(18) 0.66671(13)
H12 H 0.420820 0.336082 0.636466
C20 C 0.7926(2) 0.05404(18) 0.61601(13)
H13 H 0.772074 -0.012672 0.587662
C21 C 0.8551(2) 0.25405(18) 0.69727(14)
H14 H 0.874852 0.321506 0.725074
C22 C 0.1083(3) 0.61364(18) 0.67023(15)
H15 H 0.061445 0.703623 0.642270
C23 C 0.9008(2) 0.24406(19) 0.60073(14)
H16 H 0.952967 0.303791 0.562948
C24 C 0.5587(2) -0.48441(17) 0.84061(13)
H17 H 0.536482 -0.544954 0.806242
C25 C 0.8684(3) 0.1439(2) 0.56030(14)
H18 H 0.897977 0.137160 0.494801
H19 H 0.237(3) 0.1803(18) 0.8518(14)
H20 H 0.408(2) -0.0605(16) 0.8994(12)
H21 H 0.162(2) -0.1227(17) 0.7824(13)
H22 H 0.440(2) 0.1878(17) 0.8332(13)
H23 H 0.126(3) 0.016(2) 0.8279(14)
H24 H 0.262(3) 0.1161(19) 0.6977(14)
H25 H 0.746(2) -0.1304(19) 0.7781(12)
H26 H 0.664(2) -0.0177(18) 0.8455(13)
loop_
_geom_bond_atom_site_label_1
_geom_bond_atom_site_label_2
_geom_bond_site_symmetry_1
_geom_bond_site_symmetry_2
O1 C8 1_555 1_555
O2 N2 1_555 1_555
O3 C8 1_555 1_555
O4 N2 1_555 1_555
N1 C1 1_555 1_555
N2 C15 1_555 1_555
C1 C3 1_555 1_555
C2 C3 1_555 1_555
C3 H25 1_555 1_555
C4 C6 1_555 1_555
C5 C12 1_555 1_555
C6 H1 1_555 1_555
C7 C4 1_555 1_555
H2 C7 1_555 1_555
C8 C1 1_555 1_555
C9 C7 1_555 1_555
H3 C9 1_555 1_555
C10 C2 1_555 1_555
H4 C10 1_555 1_555
C11 H5 1_555 1_555
C12 H6 1_555 1_555
C13 O1 1_555 1_555
H7 C13 1_555 1_555
H8 C13 1_555 1_555
H9 C13 1_555 1_555
C14 N1 1_555 1_555
C15 C18 1_555 1_555
C16 C12 1_555 1_555
H10 C16 1_555 1_555
C17 C9 1_555 1_555
H11 C17 1_555 1_555
C18 C1 1_555 1_555
C19 C5 1_555 1_555
H12 C19 1_555 1_555
C20 C2 1_555 1_555
H13 C20 1_555 1_555
C21 C10 1_555 1_555
H14 C21 1_555 1_555
C22 C11 1_555 1_555
H15 C22 1_555 1_555
C23 C21 1_555 1_555
H16 C23 1_555 1_555
C24 C6 1_555 1_555
H17 C24 1_555 1_555
C25 C20 1_555 1_555
H18 C25 1_555 1_555
H19 C14 1_555 1_555
H20 C18 1_555 1_555
H21 C15 1_555 1_555
H22 C14 1_555 1_555
H23 C15 1_555 1_555
H24 N1 1_555 1_555
H26 C3 1_555 1_555
C4 C18 1_555 1_555
C5 C14 1_555 1_555
C11 C19 1_555 1_555
C16 C22 1_555 1_555
C17 C24 1_555 1_555
C23 C25 1_555 1_555

#END
