
#######################################################################
#
#                 Cambridge Crystallographic Data Centre
#                                CCDC 
#
#######################################################################
#
# If this CIF has been generated from an entry in the Cambridge 
# Structural Database, then it will include bibliographic, chemical, 
# crystal, experimental, refinement or atomic coordinate data resulting 
# from the CCDC's data processing and validation procedures.
#
#######################################################################

data_DESCUC
_chemical_formula_moiety         'C22 H27 F1 N2 O4'
_chemical_name_systematic        
'methyl N-benzyl-4-fluoro-\a-(2-methylpropyl)-\b-(nitromethyl)phenylalaninate'
_symmetry_cell_setting           triclinic
_symmetry_space_group_name_H-M   'P -1'
_symmetry_Int_Tables_number      2
_space_group_name_Hall           '-P 1'
loop_
_symmetry_equiv_pos_site_id
_symmetry_equiv_pos_as_xyz
1 x,y,z
2 -x,-y,-z
_cell_length_a                   11.123(5)
_cell_length_b                   11.216(5)
_cell_length_c                   18.015(5)
_cell_angle_alpha                104.581(5)
_cell_angle_beta                 101.069(5)
_cell_angle_gamma                97.470(5)
_cell_volume                     2096.65
_exptl_crystal_colour            white
_exptl_crystal_description       block
_cell_formula_units_Z            4
loop_
_atom_site_label
_atom_site_type_symbol
_atom_site_fract_x
_atom_site_fract_y
_atom_site_fract_z
F1 F -0.91579(14) 0.69700(13) 0.94689(9)
O1 O -0.69832(14) 0.35930(14) 0.70517(9)
O2 O -0.59906(15) 0.19744(15) 0.69594(10)
N1 N -0.7886(2) 0.04813(19) 0.71432(12)
O3 O -0.6968(2) 0.19814(18) 0.97742(11)
N2 N -0.6167(2) 0.2513(2) 0.95361(14)
C1 C -0.9221(2) 0.3666(2) 0.87546(14)
H1 H -0.976444 0.291101 0.865963
O4 O -0.5200(2) 0.3183(2) 0.99687(12)
C2 C -0.8040(2) 0.3636(2) 0.86049(14)
C3 C -0.9690(2) 0.1341(2) 0.60904(15)
H2 H -0.974133 0.044145 0.603150
C4 C -0.8638(2) -0.1709(2) 0.70941(15)
C5 C -0.7934(2) 0.1818(2) 0.73692(14)
C6 C -0.7238(2) 0.4780(2) 0.87753(14)
H3 H -0.643946 0.479087 0.868918
C7 C -0.8605(2) -0.0333(2) 0.74761(15)
H4 H -0.945088 -0.017649 0.740866
H5 H -0.824433 -0.013377 0.803752
C8 C -0.7683(2) 0.2376(2) 0.82955(14)
H6 H -0.821268 0.178126 0.846729
C9 C -0.9215(2) 0.2030(2) 0.69633(14)
H7 H -0.982773 0.177992 0.723909
H8 H -0.916148 0.292138 0.702668
C10 C -0.7604(2) 0.5902(2) 0.90698(15)
H9 H -0.705947 0.666255 0.918701
C11 C -0.9612(2) 0.4770(2) 0.90379(15)
H10 H -1.040904 0.477178 0.912642
C12 C -0.8860(2) 0.1700(2) 0.55691(15)
H11 H -0.871574 0.259336 0.566107
H12 H -0.926412 0.129854 0.502499
H13 H -0.807806 0.143447 0.569300
C13 C -0.6868(2) 0.2440(2) 0.70946(14)
C14 C -0.8789(3) 0.5868(2) 0.91850(15)
C15 C -0.6346(2) 0.2326(2) 0.86739(14)
H14 H -0.615452 0.151980 0.843165
H15 H -0.577442 0.297263 0.858005
C16 C -0.8370(2) -0.2131(2) 0.63648(15)
H16 H -0.815454 -0.156062 0.609459
C17 C -0.8422(2) -0.3401(3) 0.60347(17)
H17 H -0.822510 -0.367719 0.554885
C18 C -0.8976(2) -0.2583(2) 0.74784(16)
H18 H -0.916602 -0.231138 0.796702
C19 C -0.6012(2) 0.4204(2) 0.67716(16)
H19 H -0.523031 0.435838 0.714861
H20 H -0.620475 0.498548 0.670469
H21 H -0.595383 0.367373 0.627524
C20 C -1.1002(2) 0.1555(2) 0.58011(15)
H22 H -1.153481 0.128842 0.611243
H23 H -1.131908 0.108090 0.525789
H24 H -1.097779 0.243074 0.585072
C21 C -0.9036(2) -0.3843(2) 0.71487(17)
H25 H -0.925997 -0.441563 0.741551
C22 C -0.8764(3) -0.4257(3) 0.64237(18)
H26 H -0.881108 -0.510867 0.619735
H27 H -0.713(2) 0.036(2) 0.7228(13)
O5 O -0.44047(15) -0.19074(14) 0.78901(10)
O6 O -0.55704(15) -0.04377(15) 0.78329(10)
F2 F -0.22712(16) -0.54514(13) 0.56578(9)
N3 N -0.3721(2) 0.11481(19) 0.76670(13)
O7 O -0.42746(18) -0.10430(17) 0.49746(10)
C23 C -0.3574(2) -0.0159(2) 0.74896(14)
O8 O -0.6161(2) -0.1972(2) 0.48572(12)
C24 C -0.2279(2) -0.0257(2) 0.79316(14)
H28 H -0.229333 -0.112173 0.793598
H29 H -0.167798 -0.005769 0.763489
C25 C -0.2946(2) 0.2002(2) 0.73846(15)
H30 H -0.329180 0.188089 0.682821
H31 H -0.211517 0.180551 0.744103
C26 C -0.5043(2) -0.0786(2) 0.61119(14)
H32 H -0.566012 -0.128322 0.628032
H33 H -0.519683 0.006562 0.622147
C27 C -0.3375(2) -0.2062(2) 0.63365(14)
C28 C -0.2858(2) 0.3357(2) 0.78296(15)
C29 C -0.2182(2) -0.2133(2) 0.62123(14)
H34 H -0.162673 -0.139513 0.628390
C30 C -0.3740(2) -0.0787(2) 0.65753(14)
H35 H -0.316871 -0.022493 0.640619
N4 N -0.5170(2) -0.1309(2) 0.52476(14)
C31 C -0.4624(2) -0.0825(2) 0.77584(14)
C32 C -0.2993(2) 0.4966(2) 0.89640(15)
H36 H -0.316755 0.519153 0.945983
C33 C -0.1815(2) 0.0579(2) 0.87808(14)
H37 H -0.178459 0.145195 0.877133
C34 C -0.3841(3) -0.4324(2) 0.59562(15)
H38 H -0.439841 -0.507040 0.585848
C35 C -0.3103(2) 0.3711(2) 0.85697(15)
H39 H -0.334434 0.310021 0.880549
C36 C -0.5363(2) -0.2553(2) 0.81636(16)
H40 H -0.546552 -0.201939 0.864651
H41 H -0.512636 -0.330685 0.825391
H42 H -0.613531 -0.276201 0.777211
C37 C -0.4196(2) -0.3180(2) 0.61947(14)
H43 H -0.500277 -0.315892 0.626141
C38 C -0.2645(3) -0.4332(2) 0.58673(15)
C39 C -0.1804(2) -0.3262(2) 0.59874(15)
H44 H -0.100052 -0.329512 0.591907
C40 C -0.2628(2) 0.5879(2) 0.86237(16)
H45 H -0.255708 0.672157 0.888649
C41 C -0.2484(2) 0.4287(2) 0.74937(15)
H46 H -0.231269 0.406400 0.699694
C42 C -0.0489(2) 0.0426(2) 0.91018(15)
H47 H -0.017276 0.098255 0.962511
H48 H 0.003372 0.062300 0.876589
H49 H -0.049255 -0.042442 0.911626
C43 C -0.2365(2) 0.5532(2) 0.78859(16)
H50 H -0.210698 0.614469 0.765560
C44 C -0.2648(2) 0.0328(2) 0.93237(15)
H51 H -0.274533 -0.054084 0.931128
H52 H -0.344949 0.052485 0.914992
H53 H -0.227349 0.084021 0.985277
H54 H -0.449(2) 0.119(2) 0.7518(13)
loop_
_geom_bond_atom_site_label_1
_geom_bond_atom_site_label_2
_geom_bond_site_symmetry_1
_geom_bond_site_symmetry_2
F1 C14 1_555 1_555
O1 C13 1_555 1_555
O2 C13 1_555 1_555
N1 C5 1_555 1_555
O3 N2 1_555 1_555
N2 O4 1_555 1_555
C1 H1 1_555 1_555
C2 C1 1_555 1_555
C3 H2 1_555 1_555
C4 C7 1_555 1_555
C5 C8 1_555 1_555
C6 C2 1_555 1_555
H3 C6 1_555 1_555
C7 N1 1_555 1_555
H4 C7 1_555 1_555
H5 C7 1_555 1_555
C8 C2 1_555 1_555
H6 C8 1_555 1_555
C9 C3 1_555 1_555
H7 C9 1_555 1_555
H8 C9 1_555 1_555
C10 C6 1_555 1_555
H9 C10 1_555 1_555
C11 C1 1_555 1_555
H10 C11 1_555 1_555
C12 C3 1_555 1_555
H11 C12 1_555 1_555
H12 C12 1_555 1_555
H13 C12 1_555 1_555
C13 C5 1_555 1_555
C14 C10 1_555 1_555
C15 N2 1_555 1_555
H14 C15 1_555 1_555
H15 C15 1_555 1_555
C16 C4 1_555 1_555
H16 C16 1_555 1_555
C17 C16 1_555 1_555
H17 C17 1_555 1_555
C18 C4 1_555 1_555
H18 C18 1_555 1_555
C19 O1 1_555 1_555
H19 C19 1_555 1_555
H20 C19 1_555 1_555
H21 C19 1_555 1_555
C20 C3 1_555 1_555
H22 C20 1_555 1_555
H23 C20 1_555 1_555
H24 C20 1_555 1_555
C21 C18 1_555 1_555
H25 C21 1_555 1_555
C22 C17 1_555 1_555
H26 C22 1_555 1_555
H27 N1 1_555 1_555
O5 C31 1_555 1_555
O6 C31 1_555 1_555
F2 C38 1_555 1_555
N3 C23 1_555 1_555
O7 N4 1_555 1_555
C23 C24 1_555 1_555
O8 N4 1_555 1_555
C24 H28 1_555 1_555
H29 C24 1_555 1_555
C25 N3 1_555 1_555
H30 C25 1_555 1_555
H31 C25 1_555 1_555
C26 H32 1_555 1_555
H33 C26 1_555 1_555
C27 C29 1_555 1_555
C28 C25 1_555 1_555
C29 H34 1_555 1_555
C30 C23 1_555 1_555
H35 C30 1_555 1_555
N4 C26 1_555 1_555
C31 C23 1_555 1_555
C32 H36 1_555 1_555
C33 C24 1_555 1_555
H37 C33 1_555 1_555
C34 H38 1_555 1_555
C35 C28 1_555 1_555
H39 C35 1_555 1_555
C36 O5 1_555 1_555
H40 C36 1_555 1_555
H41 C36 1_555 1_555
H42 C36 1_555 1_555
C37 C27 1_555 1_555
H43 C37 1_555 1_555
C38 C34 1_555 1_555
C39 C29 1_555 1_555
H44 C39 1_555 1_555
C40 C32 1_555 1_555
H45 C40 1_555 1_555
C41 C28 1_555 1_555
H46 C41 1_555 1_555
C42 C33 1_555 1_555
H47 C42 1_555 1_555
H48 C42 1_555 1_555
H49 C42 1_555 1_555
C43 C40 1_555 1_555
H50 C43 1_555 1_555
C44 C33 1_555 1_555
H51 C44 1_555 1_555
H52 C44 1_555 1_555
H53 C44 1_555 1_555
H54 N3 1_555 1_555
C5 C9 1_555 1_555
C8 C15 1_555 1_555
C11 C14 1_555 1_555
C21 C22 1_555 1_555
C26 C30 1_555 1_555
C27 C30 1_555 1_555
C32 C35 1_555 1_555
C34 C37 1_555 1_555
C38 C39 1_555 1_555
C41 C43 1_555 1_555

#END
