
#######################################################################
#
#                 Cambridge Crystallographic Data Centre
#                                CCDC 
#
#######################################################################
#
# If this CIF has been generated from an entry in the Cambridge 
# Structural Database, then it will include bibliographic, chemical, 
# crystal, experimental, refinement or atomic coordinate data resulting 
# from the CCDC's data processing and validation procedures.
#
#######################################################################

data_DESDUB
_chemical_formula_moiety         'C12 H21 O2 P1'
_chemical_name_systematic        
meso-(4a\b,5a\b,9a\b,9b\b)-5-Oxo-dodecahydro-dibenzophosphol-5-ol
_symmetry_cell_setting           monoclinic
_symmetry_space_group_name_H-M   'P 21/c'
_symmetry_Int_Tables_number      14
_space_group_name_Hall           '-P 2ybc'
loop_
_symmetry_equiv_pos_site_id
_symmetry_equiv_pos_as_xyz
1 x,y,z
2 -x,1/2+y,1/2-z
3 -x,-y,-z
4 x,1/2-y,1/2+z
_cell_length_a                   9.733(2)
_cell_length_b                   6.2980(10)
_cell_length_c                   19.756(4)
_cell_angle_alpha                90
_cell_angle_beta                 101.76(3)
_cell_angle_gamma                90
_cell_volume                     1185.59
_exptl_crystal_colour            colorless
_exptl_crystal_description       prism
_chemical_melting_point          '152-153.5 deg.C'
_cell_formula_units_Z            4
_exptl_crystal_recrystallization_method methanol/water
loop_
_atom_site_label
_atom_site_type_symbol
_atom_site_fract_x
_atom_site_fract_y
_atom_site_fract_z
C1 C 0.6018(2) 0.2853(3) 0.17779(9)
H1 H 0.5094(2) 0.2528(3) 0.18771(9)
C2 C 0.6896(2) 0.0770(3) 0.18664(9)
H2 H 0.6212(2) -0.0381(3) 0.17465(9)
C3 C 0.7652(2) 0.0325(4) 0.26153(10)
H3 H 0.6998(2) -0.0369(4) 0.28539(10)
H4 H 0.8414(2) -0.0660(4) 0.26065(10)
C4 C 0.8247(2) 0.2276(4) 0.30300(10)
H5 H 0.8592(2) 0.1875(4) 0.35085(10)
H6 H 0.9031(2) 0.2827(4) 0.28496(10)
C5 C 0.7142(2) 0.3988(4) 0.29941(10)
H7 H 0.7532(2) 0.5188(4) 0.32773(10)
H8 H 0.6353(2) 0.3443(4) 0.31716(10)
C6 C 0.6649(2) 0.4702(3) 0.22490(10)
H9 H 0.7436(2) 0.5296(3) 0.20807(10)
H10 H 0.5948(2) 0.5808(3) 0.22304(10)
C7 C 0.6798(2) 0.1271(3) 0.06249(9)
H11 H 0.6152(2) 0.0071(3) 0.05091(9)
C8 C 0.7813(2) 0.0693(3) 0.13098(10)
H12 H 0.8112(2) -0.0781(3) 0.12732(10)
C9 C 0.9122(2) 0.2084(3) 0.14364(10)
H13 H 0.9782(2) 0.1563(3) 0.18376(10)
H14 H 0.8867(2) 0.3525(3) 0.15331(10)
C10 C 0.9821(2) 0.2087(4) 0.08105(11)
H15 H 1.0658(2) 0.2962(4) 0.09082(11)
H16 H 1.0100(2) 0.0653(4) 0.07207(11)
C11 C 0.8825(2) 0.2936(4) 0.01784(11)
H17 H 0.9290(2) 0.2936(4) -0.02117(11)
H18 H 0.8578(2) 0.4391(4) 0.02628(11)
C12 C 0.7498(2) 0.1608(4) 0.00026(11)
H19 H 0.7726(2) 0.0235(4) -0.01682(11)
H20 H 0.6837(2) 0.2302(4) -0.03645(11)
O1 O 0.63127(14) 0.5620(2) 0.07201(6)
O2 O 0.41946(14) 0.3131(2) 0.05410(8)
P1 P 0.57798(5) 0.34573(8) 0.08641(2)
H21 H 0.4045(37) 0.3555(55) 0.0089(18)
loop_
_geom_bond_atom_site_label_1
_geom_bond_atom_site_label_2
_geom_bond_site_symmetry_1
_geom_bond_site_symmetry_2
C1 H1 1_555 1_555
C2 C1 1_555 1_555
H2 C2 1_555 1_555
C3 C2 1_555 1_555
H3 C3 1_555 1_555
H4 C3 1_555 1_555
C4 C3 1_555 1_555
H5 C4 1_555 1_555
H6 C4 1_555 1_555
C5 C4 1_555 1_555
H7 C5 1_555 1_555
H8 C5 1_555 1_555
C6 C1 1_555 1_555
H9 C6 1_555 1_555
H10 C6 1_555 1_555
C7 H11 1_555 1_555
C8 C2 1_555 1_555
H12 C8 1_555 1_555
C9 C8 1_555 1_555
H13 C9 1_555 1_555
H14 C9 1_555 1_555
C10 C9 1_555 1_555
H15 C10 1_555 1_555
H16 C10 1_555 1_555
C11 C10 1_555 1_555
H17 C11 1_555 1_555
H18 C11 1_555 1_555
C12 C7 1_555 1_555
H19 C12 1_555 1_555
H20 C12 1_555 1_555
O1 P1 1_555 1_555
O2 P1 1_555 1_555
P1 C1 1_555 1_555
H21 O2 1_555 1_555
C5 C6 1_555 1_555
C7 C8 1_555 1_555
C7 P1 1_555 1_555
C11 C12 1_555 1_555

#END
