
#######################################################################
#
#                 Cambridge Crystallographic Data Centre
#                                CCDC 
#
#######################################################################
#
# If this CIF has been generated from an entry in the Cambridge 
# Structural Database, then it will include bibliographic, chemical, 
# crystal, experimental, refinement or atomic coordinate data resulting 
# from the CCDC's data processing and validation procedures.
#
#######################################################################

data_DESGUG
_chemical_formula_moiety         'C25 H31 Br1 O4 Si1'
_chemical_name_systematic        
'(R,E)-Benzyl 6-(4-Bromophenyl)-2-(tert-butyldimethylsilyl)-2-hydroxy-6-oxohex-4-enoate'
_symmetry_cell_setting           monoclinic
_symmetry_space_group_name_H-M   'P 21'
_symmetry_Int_Tables_number      4
_space_group_name_Hall           'P 2yb'
loop_
_symmetry_equiv_pos_site_id
_symmetry_equiv_pos_as_xyz
1 x,y,z
2 -x,1/2+y,-z
_cell_length_a                   7.4510(15)
_cell_length_b                   10.958(2)
_cell_length_c                   15.857(5)
_cell_angle_alpha                90
_cell_angle_beta                 99.33(3)
_cell_angle_gamma                90
_cell_volume                     1277.57
_exptl_crystal_colour            colorless
_exptl_crystal_description       block
_cell_formula_units_Z            2
loop_
_atom_site_label
_atom_site_type_symbol
_atom_site_fract_x
_atom_site_fract_y
_atom_site_fract_z
Br1 Br 0.88661(7) 0.68153(5) 0.85810(3)
Si1 Si 0.65827(12) 0.80918(8) 0.11932(6)
O1 O 0.9134(4) 1.0707(2) 0.52697(17)
O2 O 0.3797(4) 0.8807(2) 0.28981(18)
O3 O 0.5614(3) 0.71611(19) 0.30054(16)
O4 O 0.6009(4) 1.01279(19) 0.21203(15)
C1 C 0.9022(5) 0.7640(3) 0.7545(2)
C2 C 0.9610(5) 0.8839(3) 0.7578(2)
H1 H 0.9975 0.9226 0.8099
C3 C 0.9644(5) 0.9448(3) 0.6820(2)
H2 H 1.0033 1.0255 0.6834
C4 C 0.9109(4) 0.8882(3) 0.6039(2)
C5 C 0.8568(5) 0.7661(3) 0.6032(2)
H3 H 0.8243 0.7258 0.5513
C6 C 0.8510(4) 0.7047(3) 0.6787(2)
H4 H 0.8127 0.6239 0.6780
C7 C 0.5112(5) 0.5283(4) 0.3688(3)
C8 C 0.5650(6) 0.5031(5) 0.4534(3)
H5 H 0.5534 0.5626 0.4940
C9 C 0.6346(7) 0.3934(7) 0.4789(4)
H6 H 0.6693 0.3778 0.5370
C10 C 0.6549(6) 0.3057(5) 0.4217(5)
H7 H 0.7067 0.2312 0.4402
C11 C 0.5979(6) 0.3267(4) 0.3343(4)
H8 H 0.6077 0.2659 0.2944
C12 C 0.5262(5) 0.4409(4) 0.3083(3)
H9 H 0.4889 0.4576 0.2507
C13 C 0.9072(5) 0.9599(3) 0.5239(2)
C14 C 0.8992(5) 0.8927(3) 0.4424(2)
H10 H 0.9271 0.8099 0.4442
C15 C 0.8539(5) 0.9461(3) 0.3674(2)
H11 H 0.8255 1.0288 0.3669
C16 C 0.8451(5) 0.8839(3) 0.2838(2)
H12 H 0.8820 0.7995 0.2936
H13 H 0.9309 0.9224 0.2522
C17 C 0.6530(5) 0.8872(3) 0.2286(2)
C18 C 0.5148(5) 0.8311(3) 0.2764(2)
C19 C 0.4314(6) 0.6496(4) 0.3437(3)
H14 H 0.3167 0.6400 0.3054
H15 H 0.4092 0.6942 0.3938
C20 C 0.7787(5) 0.6593(3) 0.1367(2)
H16 H 0.7875 0.6229 0.0824
H17 H 0.7118 0.6060 0.1683
H18 H 0.8985 0.6719 0.1682
C21 C 0.7940(5) 0.9131(4) 0.0622(2)
H19 H 0.9131 0.9229 0.0951
H20 H 0.7349 0.9911 0.0545
H21 H 0.8042 0.8790 0.0074
C22 C 0.4229(4) 0.7876(3) 0.0548(2)
C23 C 0.3114(5) 0.9062(4) 0.0506(3)
H22 H 0.2009 0.8963 0.0106
H23 H 0.3810 0.9720 0.0324
H24 H 0.2826 0.9242 0.1061
C24 C 0.4431(6) 0.7515(4) -0.0367(2)
H25 H 0.5174 0.6797 -0.0353
H26 H 0.4994 0.8171 -0.0629
H27 H 0.3253 0.7352 -0.0692
C25 C 0.3177(5) 0.6860(5) 0.0917(2)
H28 H 0.2034 0.6733 0.0550
H29 H 0.2963 0.7090 0.1476
H30 H 0.3874 0.6119 0.0955
loop_
_geom_bond_atom_site_label_1
_geom_bond_atom_site_label_2
_geom_bond_site_symmetry_1
_geom_bond_site_symmetry_2
Br1 C1 1_555 1_555
Si1 C17 1_555 1_555
O1 C13 1_555 1_555
O2 C18 1_555 1_555
O3 C18 1_555 1_555
O4 C17 1_555 1_555
C1 C2 1_555 1_555
C2 H1 1_555 1_555
C3 C2 1_555 1_555
H2 C3 1_555 1_555
C4 C3 1_555 1_555
C5 C4 1_555 1_555
H3 C5 1_555 1_555
C6 C1 1_555 1_555
H4 C6 1_555 1_555
C7 C8 1_555 1_555
C8 H5 1_555 1_555
C9 C8 1_555 1_555
H6 C9 1_555 1_555
C10 C9 1_555 1_555
H7 C10 1_555 1_555
C11 C10 1_555 1_555
H8 C11 1_555 1_555
C12 C7 1_555 1_555
H9 C12 1_555 1_555
C13 C4 1_555 1_555
C14 C13 1_555 1_555
H10 C14 1_555 1_555
C15 C14 1_555 1_555
H11 C15 1_555 1_555
C16 C15 1_555 1_555
H12 C16 1_555 1_555
H13 C16 1_555 1_555
C17 C16 1_555 1_555
C18 C17 1_555 1_555
C19 O3 1_555 1_555
H14 C19 1_555 1_555
H15 C19 1_555 1_555
C20 Si1 1_555 1_555
H16 C20 1_555 1_555
H17 C20 1_555 1_555
H18 C20 1_555 1_555
C21 Si1 1_555 1_555
H19 C21 1_555 1_555
H20 C21 1_555 1_555
H21 C21 1_555 1_555
C22 Si1 1_555 1_555
C23 C22 1_555 1_555
H22 C23 1_555 1_555
H23 C23 1_555 1_555
H24 C23 1_555 1_555
C24 C22 1_555 1_555
H25 C24 1_555 1_555
H26 C24 1_555 1_555
H27 C24 1_555 1_555
C25 C22 1_555 1_555
H28 C25 1_555 1_555
H29 C25 1_555 1_555
H30 C25 1_555 1_555
C5 C6 1_555 1_555
C7 C19 1_555 1_555
C11 C12 1_555 1_555

#END
