
#######################################################################
#
#                 Cambridge Crystallographic Data Centre
#                                CCDC 
#
#######################################################################
#
# If this CIF has been generated from an entry in the Cambridge 
# Structural Database, then it will include bibliographic, chemical, 
# crystal, experimental, refinement or atomic coordinate data resulting 
# from the CCDC's data processing and validation procedures.
#
#######################################################################

data_DESPAT
_chemical_formula_moiety         'C24 H41 N1 O3'
_chemical_name_systematic        
2-(2'-oxo-3'-oximidocyclododecyl)cyclododecanone
_symmetry_cell_setting           monoclinic
_symmetry_space_group_name_H-M   'C 2/c'
_symmetry_Int_Tables_number      15
_space_group_name_Hall           '-C 2yn'
loop_
_symmetry_equiv_pos_site_id
_symmetry_equiv_pos_as_xyz
1 x,y,z
2 -x,y,1/2-z
3 1/2+x,1/2+y,z
4 1/2-x,1/2+y,1/2-z
5 -x,-y,-z
6 x,-y,1/2+z
7 1/2-x,1/2-y,-z
8 1/2+x,1/2-y,1/2+z
_cell_length_a                   11.942(1)
_cell_length_b                   15.419(1)
_cell_length_c                   25.774(2)
_cell_angle_alpha                90
_cell_angle_beta                 95.292(2)
_cell_angle_gamma                90
_cell_volume                     4725.63
_chemical_melting_point          '169-171 deg.C'
_cell_formula_units_Z            8
loop_
_atom_site_label
_atom_site_type_symbol
_atom_site_fract_x
_atom_site_fract_y
_atom_site_fract_z
O1 O 0.8502(1) -0.0088(1) 0.1312(1)
O2 O 0.6547(1) -0.0318(1) 0.2099(1)
O3 O 0.9252(1) 0.0200(1) 0.3410(1)
N1 N 0.8902(1) -0.0241(1) 0.2951(1)
C1 C 0.7688(1) -0.1446(1) 0.1529(1)
C2 C 0.7780(1) -0.0634(1) 0.1207(1)
C3 C 0.6946(1) -0.0521(1) 0.0734(1)
C4 C 0.7361(2) 0.0047(1) 0.0303(1)
C5 C 0.8400(2) -0.0296(1) 0.0072(1)
C6 C 0.8245(2) -0.1148(1) -0.0219(1)
C7 C 0.9337(2) -0.1540(1) -0.0373(1)
C8 C 1.0113(2) -0.1879(1) 0.0080(1)
C9 C 0.9686(2) -0.2709(1) 0.0327(1)
C10 C 1.0032(2) -0.2812(1) 0.0905(1)
C11 C 0.9539(2) -0.2134(1) 0.1257(1)
C12 C 0.8270(1) -0.2202(1) 0.1266(1)
C13 C 0.8107(1) -0.1294(1) 0.2101(1)
C14 C 0.7439(1) -0.0570(1) 0.2319(1)
C15 C 0.7842(1) -0.0146(1) 0.2826(1)
C16 C 0.7014(1) 0.0344(1) 0.3119(1)
C17 C 0.6232(1) -0.0265(1) 0.3376(1)
C18 C 0.6826(2) -0.0846(1) 0.3790(1)
C19 C 0.6106(2) -0.1588(1) 0.3965(1)
C20 C 0.5832(2) -0.2266(1) 0.3548(1)
C21 C 0.6836(2) -0.2804(1) 0.3426(1)
C22 C 0.6773(2) -0.3182(1) 0.2882(1)
C23 C 0.6866(2) -0.2504(1) 0.2454(1)
C24 C 0.8035(1) -0.2110(1) 0.2445(1)
H1 H 0.6887 -0.1591 0.1518
H2 H 0.6263 -0.0268 0.0844
H3 H 0.6756 -0.1089 0.0589
H4 H 0.6759 0.0106 0.0026
H5 H 0.7526 0.0621 0.0444
H6 H 0.8647 0.0137 -0.0166
H7 H 0.8995 -0.0367 0.0351
H8 H 0.7742 -0.1057 -0.0531
H9 H 0.7890 -0.1560 -0.0001
H10 H 0.9155 -0.2012 -0.0614
H11 H 0.9735 -0.1102 -0.0554
H12 H 1.0211 -0.1433 0.0345
H13 H 1.0844 -0.1996 -0.0041
H14 H 0.8871 -0.2716 0.0273
H15 H 0.9960 -0.3205 0.0145
H16 H 1.0846 -0.2785 0.0960
H17 H 0.9804 -0.3384 0.1012
H18 H 0.9889 -0.2202 0.1610
H19 H 0.9724 -0.1559 0.1138
H20 H 0.8104 -0.2735 0.1443
H21 H 0.7938 -0.2250 0.0909
H22 H 0.8896 -0.1113 0.2117
H23 H 0.6573 0.0725 0.2881
H24 H 0.7420 0.0700 0.3384
H25 H 0.5840 -0.0626 0.3110
H26 H 0.5672 0.0078 0.3534
H27 H 0.7073 -0.0495 0.4091
H28 H 0.7491 -0.1088 0.3655
H29 H 0.6498 -0.1865 0.4267
H30 H 0.5409 -0.1352 0.4070
H31 H 0.5523 -0.1979 0.3231
H32 H 0.5257 -0.2650 0.3660
H33 H 0.7504 -0.2445 0.3477
H34 H 0.6926 -0.3277 0.3675
H35 H 0.6064 -0.3487 0.2815
H36 H 0.7373 -0.3602 0.2866
H37 H 0.6655 -0.2773 0.2119
H38 H 0.6333 -0.2042 0.2500
H39 H 0.8532 -0.2549 0.2325
H40 H 0.8313 -0.1961 0.2800
H41 H 0.9968(13) 0.0134(11) 0.3440(6)
loop_
_geom_bond_atom_site_label_1
_geom_bond_atom_site_label_2
_geom_bond_site_symmetry_1
_geom_bond_site_symmetry_2
O1 C2 1_555 1_555
O2 C14 1_555 1_555
O3 N1 1_555 1_555
N1 C15 1_555 1_555
C1 C2 1_555 1_555
C2 C3 1_555 1_555
C3 C4 1_555 1_555
C4 C5 1_555 1_555
C5 C6 1_555 1_555
C6 C7 1_555 1_555
C7 C8 1_555 1_555
C8 C9 1_555 1_555
C9 C10 1_555 1_555
C10 C11 1_555 1_555
C11 C12 1_555 1_555
C12 C1 1_555 1_555
C13 C1 1_555 1_555
C14 C13 1_555 1_555
C15 C14 1_555 1_555
C16 C15 1_555 1_555
C17 C16 1_555 1_555
C18 C17 1_555 1_555
C19 C18 1_555 1_555
C20 C19 1_555 1_555
C21 C20 1_555 1_555
C22 C21 1_555 1_555
C23 C22 1_555 1_555
C24 C13 1_555 1_555
H1 C1 1_555 1_555
H2 C3 1_555 1_555
H3 C3 1_555 1_555
H4 C4 1_555 1_555
H5 C4 1_555 1_555
H6 C5 1_555 1_555
H7 C5 1_555 1_555
H8 C6 1_555 1_555
H9 C6 1_555 1_555
H10 C7 1_555 1_555
H11 C7 1_555 1_555
H12 C8 1_555 1_555
H13 C8 1_555 1_555
H14 C9 1_555 1_555
H15 C9 1_555 1_555
H16 C10 1_555 1_555
H17 C10 1_555 1_555
H18 C11 1_555 1_555
H19 C11 1_555 1_555
H20 C12 1_555 1_555
H21 C12 1_555 1_555
H22 C13 1_555 1_555
H23 C16 1_555 1_555
H24 C16 1_555 1_555
H25 C17 1_555 1_555
H26 C17 1_555 1_555
H27 C18 1_555 1_555
H28 C18 1_555 1_555
H29 C19 1_555 1_555
H30 C19 1_555 1_555
H31 C20 1_555 1_555
H32 C20 1_555 1_555
H33 C21 1_555 1_555
H34 C21 1_555 1_555
H35 C22 1_555 1_555
H36 C22 1_555 1_555
H37 C23 1_555 1_555
H38 C23 1_555 1_555
H39 C24 1_555 1_555
H40 C24 1_555 1_555
H41 O3 1_555 1_555
C23 C24 1_555 1_555

#END
