
#######################################################################
#
#                 Cambridge Crystallographic Data Centre
#                                CCDC 
#
#######################################################################
#
# If this CIF has been generated from an entry in the Cambridge 
# Structural Database, then it will include bibliographic, chemical, 
# crystal, experimental, refinement or atomic coordinate data resulting 
# from the CCDC's data processing and validation procedures.
#
#######################################################################

data_DESPOH
_chemical_formula_moiety         'C24 H22 O8'
_chemical_name_systematic        
'dimethyl 5-(4-(benzyloxy)phenyl)-4-(2-methoxy-2-oxoethyl)furan-2,3-dicarboxylate'
_symmetry_cell_setting           monoclinic
_symmetry_space_group_name_H-M   'P 21/n'
_symmetry_Int_Tables_number      14
_space_group_name_Hall           '-P 2yn'
loop_
_symmetry_equiv_pos_site_id
_symmetry_equiv_pos_as_xyz
1 x,y,z
2 1/2-x,1/2+y,1/2-z
3 -x,-y,-z
4 1/2+x,1/2-y,1/2+z
_cell_length_a                   26.2294(1)
_cell_length_b                   7.6294(1)
_cell_length_c                   10.9734(1)
_cell_angle_alpha                90
_cell_angle_beta                 102.1149(6)
_cell_angle_gamma                90
_cell_volume                     2147.03
_exptl_crystal_colour            colorless
_exptl_crystal_description       platelet
_cell_formula_units_Z            4
loop_
_atom_site_label
_atom_site_type_symbol
_atom_site_fract_x
_atom_site_fract_y
_atom_site_fract_z
O1 O 0.20238(6) 0.0784(2) 0.1486(1)
O2 O 0.2283(1) 0.1876(3) 0.5703(2)
O3 O 0.21596(7) -0.0501(2) 0.6758(2)
O4 O 0.06162(7) -0.0663(3) 0.2731(2)
O5 O 0.11436(7) 0.0020(3) 0.4518(2)
O6 O 0.12638(9) 0.1427(5) -0.0492(2)
O7 O 0.06834(6) 0.1595(3) 0.0696(2)
O8 O 0.44815(6) 0.0118(2) 0.2758(2)
C1 C 0.23300(8) 0.0278(3) 0.2597(2)
C2 C 0.20323(8) -0.0145(3) 0.3421(2)
C3 C 0.22187(8) -0.0921(3) 0.4689(2)
C4 C 0.22163(8) 0.0330(3) 0.5745(2)
C5 C 0.2178(1) 0.0526(4) 0.7871(3)
C6 C 0.14999(8) 0.0120(3) 0.2781(2)
C7 C 0.10353(9) -0.0209(3) 0.3296(2)
C8 C 0.0738(1) -0.0391(6) 0.5165(4)
C9 C 0.15187(8) 0.0688(3) 0.1612(2)
C10 C 0.1144(1) 0.1242(4) 0.0485(2)
C11 C 0.0299(1) 0.2225(5) -0.0351(3)
C12 C 0.28906(8) 0.0270(3) 0.2624(2)
C13 C 0.30685(8) -0.0285(3) 0.1590(2)
C14 C 0.35949(9) -0.0325(3) 0.1592(2)
C15 C 0.39506(8) 0.0169(3) 0.2646(2)
C16 C 0.37802(9) 0.0748(3) 0.3685(3)
C17 C 0.32531(9) 0.0810(3) 0.3669(2)
C18 C 0.4666(1) -0.0564(5) 0.1741(3)
C19 C 0.5246(1) -0.0667(4) 0.2070(3)
C20 C 0.5487(1) -0.2092(5) 0.2728(3)
C21 C 0.6021(2) -0.2187(8) 0.3028(4)
C22 C 0.6316(2) -0.091(1) 0.2657(5)
C23 C 0.6078(2) 0.0506(8) 0.1980(5)
C24 C 0.5543(1) 0.0625(5) 0.1701(4)
H1 H 0.1993 -0.1897 0.4783
H2 H 0.2572 -0.1343 0.4749
H3 H 0.2437 0.1425 0.7913
H4 H 0.1844 0.1055 0.7841
H5 H 0.2266 -0.0208 0.8596
H6 H 0.0526 0.0621 0.5212
H7 H 0.0893 -0.0788 0.5990
H8 H 0.0527 -0.1310 0.4723
H9 H 0.0468 0.2855 -0.0912
H10 H 0.0111 0.1249 -0.0780
H11 H 0.0060 0.2990 -0.0056
H12 H 0.2830 -0.0634 0.0881
H13 H 0.3709 -0.0698 0.0888
H14 H 0.4020 0.1098 0.4392
H15 H 0.3140 0.1220 0.4364
H16 H 0.4525 -0.1732 0.1561
H17 H 0.4558 0.0175 0.1013
H18 H 0.5285 -0.2976 0.2971
H19 H 0.6179 -0.3141 0.3483
H20 H 0.6676 -0.1024 0.2852
H21 H 0.6288 0.1369 0.1742
H22 H 0.5381 0.1593 0.1269
loop_
_geom_bond_atom_site_label_1
_geom_bond_atom_site_label_2
_geom_bond_site_symmetry_1
_geom_bond_site_symmetry_2
O1 C1 1_555 1_555
O2 C4 1_555 1_555
O3 C4 1_555 1_555
O4 C7 1_555 1_555
O5 C7 1_555 1_555
O6 C10 1_555 1_555
O7 C10 1_555 1_555
O8 C15 1_555 1_555
C1 C2 1_555 1_555
C2 C3 1_555 1_555
C3 C4 1_555 1_555
C5 O3 1_555 1_555
C6 C2 1_555 1_555
C7 C6 1_555 1_555
C8 O5 1_555 1_555
C9 O1 1_555 1_555
C10 C9 1_555 1_555
C11 O7 1_555 1_555
C12 C1 1_555 1_555
C13 C12 1_555 1_555
C14 C13 1_555 1_555
C15 C14 1_555 1_555
C16 C15 1_555 1_555
C17 C12 1_555 1_555
C18 O8 1_555 1_555
C19 C18 1_555 1_555
C20 C19 1_555 1_555
C21 C20 1_555 1_555
C22 C21 1_555 1_555
C23 C22 1_555 1_555
C24 C19 1_555 1_555
H1 C3 1_555 1_555
H2 C3 1_555 1_555
H3 C5 1_555 1_555
H4 C5 1_555 1_555
H5 C5 1_555 1_555
H6 C8 1_555 1_555
H7 C8 1_555 1_555
H8 C8 1_555 1_555
H9 C11 1_555 1_555
H10 C11 1_555 1_555
H11 C11 1_555 1_555
H12 C13 1_555 1_555
H13 C14 1_555 1_555
H14 C16 1_555 1_555
H15 C17 1_555 1_555
H16 C18 1_555 1_555
H17 C18 1_555 1_555
H18 C20 1_555 1_555
H19 C21 1_555 1_555
H20 C22 1_555 1_555
H21 C23 1_555 1_555
H22 C24 1_555 1_555
C6 C9 1_555 1_555
C16 C17 1_555 1_555
C23 C24 1_555 1_555

#END
