
#######################################################################
#
#                 Cambridge Crystallographic Data Centre
#                                CCDC 
#
#######################################################################
#
# If this CIF has been generated from an entry in the Cambridge 
# Structural Database, then it will include bibliographic, chemical, 
# crystal, experimental, refinement or atomic coordinate data resulting 
# from the CCDC's data processing and validation procedures.
#
#######################################################################

data_DESROL
_chemical_formula_moiety         'C21 H23 N3 O3 S1'
_chemical_name_systematic        
3-(2-azidopropan-2-yl)-5-[(4-methylphenyl)sulfonyl]-4-phenyl-3,6-dihydro-2H-pyran
_symmetry_cell_setting           triclinic
_symmetry_space_group_name_H-M   'P -1'
_symmetry_Int_Tables_number      2
_space_group_name_Hall           '-P 1'
loop_
_symmetry_equiv_pos_site_id
_symmetry_equiv_pos_as_xyz
1 x,y,z
2 -x,-y,-z
_cell_length_a                   6.1624(2)
_cell_length_b                   10.2576(5)
_cell_length_c                   16.5574(7)
_cell_angle_alpha                75.832(4)
_cell_angle_beta                 79.387(3)
_cell_angle_gamma                75.911(4)
_cell_volume                     975.579
_exptl_crystal_colour            colorless
_exptl_crystal_description       block
_cell_formula_units_Z            2
_exptl_crystal_recrystallization_method 
'Re-crystallisation from solvent: petroleum ether, dichloromethane'
loop_
_atom_site_label
_atom_site_type_symbol
_atom_site_fract_x
_atom_site_fract_y
_atom_site_fract_z
O1 O 0.52434(15) 0.72288(10) 0.50920(5)
C1 C 0.7054(2) 0.69281(14) 0.55810(8)
H1 H 0.755181 0.778497 0.555952
H2 H 0.834831 0.628616 0.534353
C2 C 0.63028(18) 0.62851(12) 0.64909(7)
H3 H 0.752301 0.625599 0.682211
C3 C 0.41950(18) 0.72391(11) 0.68231(7)
C4 C 0.30217(19) 0.81958(12) 0.62652(7)
C5 C 0.3551(2) 0.83347(13) 0.53208(8)
H4 H 0.215910 0.837429 0.509000
H5 H 0.405937 0.920804 0.506870
C6 C 0.59821(19) 0.47754(12) 0.66311(7)
N1 N 0.58061(18) 0.41459(11) 0.75596(7)
N2 N 0.74403(18) 0.41238(10) 0.79002(7)
N3 N 0.8831(2) 0.40692(12) 0.82799(7)
C7 C 0.3772(2) 0.46896(13) 0.63782(8)
H6 H 0.368009 0.372312 0.646760
H7 H 0.371571 0.512531 0.578344
H8 H 0.249984 0.516523 0.672109
C8 C 0.7977(2) 0.38803(14) 0.61862(9)
H9 H 0.939357 0.400394 0.631596
H10 H 0.794379 0.415136 0.557773
H11 H 0.787104 0.291264 0.638015
C9 C 0.36046(18) 0.70393(11) 0.77532(7)
C10 C 0.5063(2) 0.72530(12) 0.82413(8)
H12 H 0.640828 0.755873 0.797806
C11 C 0.4545(2) 0.70189(15) 0.91087(8)
H13 H 0.551979 0.718628 0.943708
C12 C 0.2608(2) 0.65410(15) 0.95006(8)
H14 H 0.227255 0.636633 1.009574
C13 C 0.1167(2) 0.63201(14) 0.90201(8)
H15 H -0.015773 0.599239 0.928660
C14 C 0.1653(2) 0.65760(12) 0.81508(8)
H16 H 0.064718 0.643428 0.782460
S1 S 0.06991(4) 0.94954(3) 0.65397(2)
O2 O 0.06319(16) 1.06039(9) 0.58090(6)
O3 O -0.12920(14) 0.89283(9) 0.68441(6)
C15 C 0.14024(19) 1.00924(11) 0.73505(7)
C16 C 0.3291(2) 1.06785(12) 0.71849(8)
H17 H 0.419991 1.072998 0.665287
C17 C 0.3825(2) 1.11862(13) 0.78091(8)
H18 H 0.513270 1.156779 0.770627
C18 C 0.2476(2) 1.11466(13) 0.85847(8)
C19 C 0.0584(2) 1.05706(14) 0.87291(8)
H19 H -0.035522 1.054730 0.925410
C20 C 0.0039(2) 1.00268(13) 0.81186(8)
H20 H -0.124251 0.961902 0.822636
C21 C 0.3072(3) 1.17401(16) 0.92453(9)
H21 H 0.458795 1.126839 0.937958
H22 H 0.197674 1.161351 0.975357
H23 H 0.303663 1.272324 0.903103
loop_
_geom_bond_atom_site_label_1
_geom_bond_atom_site_label_2
_geom_bond_site_symmetry_1
_geom_bond_site_symmetry_2
O1 C1 1_555 1_555
C1 H1 1_555 1_555
H2 C1 1_555 1_555
C2 C1 1_555 1_555
H3 C2 1_555 1_555
C3 C2 1_555 1_555
C4 C3 1_555 1_555
C5 O1 1_555 1_555
H4 C5 1_555 1_555
H5 C5 1_555 1_555
C6 C2 1_555 1_555
N1 C6 1_555 1_555
N2 N1 1_555 1_555
N3 N2 1_555 1_555
C7 C6 1_555 1_555
H6 C7 1_555 1_555
H7 C7 1_555 1_555
H8 C7 1_555 1_555
C8 C6 1_555 1_555
H9 C8 1_555 1_555
H10 C8 1_555 1_555
H11 C8 1_555 1_555
C9 C3 1_555 1_555
C10 C9 1_555 1_555
H12 C10 1_555 1_555
C11 C10 1_555 1_555
H13 C11 1_555 1_555
C12 C11 1_555 1_555
H14 C12 1_555 1_555
C13 C12 1_555 1_555
H15 C13 1_555 1_555
C14 C9 1_555 1_555
H16 C14 1_555 1_555
S1 C4 1_555 1_555
O2 S1 1_555 1_555
O3 S1 1_555 1_555
C15 S1 1_555 1_555
C16 C15 1_555 1_555
H17 C16 1_555 1_555
C17 C16 1_555 1_555
H18 C17 1_555 1_555
C18 C17 1_555 1_555
C19 C18 1_555 1_555
H19 C19 1_555 1_555
C20 C15 1_555 1_555
H20 C20 1_555 1_555
C21 C18 1_555 1_555
H21 C21 1_555 1_555
H22 C21 1_555 1_555
H23 C21 1_555 1_555
C4 C5 1_555 1_555
C13 C14 1_555 1_555
C19 C20 1_555 1_555

#END
