
#######################################################################
#
#                 Cambridge Crystallographic Data Centre
#                                CCDC 
#
#######################################################################
#
# If this CIF has been generated from an entry in the Cambridge 
# Structural Database, then it will include bibliographic, chemical, 
# crystal, experimental, refinement or atomic coordinate data resulting 
# from the CCDC's data processing and validation procedures.
#
#######################################################################

data_DESWIK
_chemical_formula_moiety         'C22 H19 I1 O4 S1'
_chemical_name_systematic        
3-((4-iodophenyl)sulfonyl)-8a-methyl-4-phenyl-4a,8a-dihydro-2H-chromen-6(5H)-one
_symmetry_cell_setting           triclinic
_symmetry_space_group_name_H-M   'P -1'
_symmetry_Int_Tables_number      2
_space_group_name_Hall           '-P 1'
loop_
_symmetry_equiv_pos_site_id
_symmetry_equiv_pos_as_xyz
1 x,y,z
2 -x,-y,-z
_cell_length_a                   6.7560(3)
_cell_length_b                   11.0385(4)
_cell_length_c                   13.9874(6)
_cell_angle_alpha                93.944(3)
_cell_angle_beta                 92.649(4)
_cell_angle_gamma                100.491(4)
_cell_volume                     1021.42
_exptl_crystal_colour            colorless
_exptl_crystal_description       needle
_cell_formula_units_Z            2
_exptl_crystal_recrystallization_method petrol/dichloromethane
loop_
_atom_site_label
_atom_site_type_symbol
_atom_site_fract_x
_atom_site_fract_y
_atom_site_fract_z
S1 S 0.2914(2) 0.33558(13) 0.92885(11)
O1 O 0.4850(6) 0.3029(4) 0.9167(3)
O2 O 0.2579(7) 0.3997(4) 1.0173(3)
C1 C 0.2335(9) 0.4310(5) 0.8382(5)
C2 C 0.2020(9) 0.5570(6) 0.8781(4)
H1 H 0.0812 0.5465 0.9163
H2 H 0.3196 0.5958 0.9216
O3 O 0.1770(7) 0.6363(4) 0.8048(3)
C3 C 0.0373(10) 0.5769(5) 0.7263(4)
C4 C 0.0111(11) 0.6778(6) 0.6625(5)
H3 H -0.0699 0.7353 0.6834
C5 C 0.0942(11) 0.6914(6) 0.5791(5)
H4 H 0.0574 0.7511 0.5393
C6 C 0.2419(10) 0.6172(6) 0.5458(5)
C7 C 0.3077(10) 0.5335(6) 0.6161(5)
H5 H 0.4186 0.5810 0.6598
H6 H 0.3599 0.4662 0.5808
C8 C 0.1349(10) 0.4777(5) 0.6750(5)
H7 H 0.0293 0.4263 0.6293
C9 C 0.2030(9) 0.3929(5) 0.7445(4)
C10 C 0.1040(9) 0.1997(5) 0.9101(4)
C11 C -0.0935(10) 0.2110(6) 0.9208(5)
H8 H -0.1254 0.2887 0.9411
C12 C -0.2457(10) 0.1078(6) 0.9017(5)
H9 H -0.3826 0.1140 0.9094
C13 C -0.1953(10) -0.0039(5) 0.8714(5)
C14 C 0.0025(9) -0.0168(6) 0.8633(5)
H10 H 0.0345 -0.0953 0.8454
C15 C 0.1548(9) 0.0869(6) 0.8819(5)
H11 H 0.2919 0.0804 0.8753
I1 I -0.43409(6) -0.15423(3) 0.83446(3)
C16 C -0.1688(10) 0.5223(6) 0.7611(5)
H12 H -0.1554 0.4544 0.8010
H13 H -0.2626 0.4911 0.7057
H14 H -0.2205 0.5865 0.7990
O4 O 0.3085(8) 0.6263(5) 0.4663(4)
C17 C 0.2244(10) 0.2682(5) 0.7023(4)
C18 C 0.4105(10) 0.2304(6) 0.7011(5)
H15 H 0.5281 0.2840 0.7290
C19 C 0.4242(12) 0.1157(7) 0.6595(6)
H16 H 0.5520 0.0914 0.6579
C20 C 0.2557(13) 0.0361(7) 0.6206(6)
H17 H 0.2668 -0.0431 0.5926
C21 C 0.0692(12) 0.0712(6) 0.6219(5)
H18 H -0.0481 0.0156 0.5960
C22 C 0.0543(11) 0.1884(6) 0.6615(5)
H19 H -0.0729 0.2137 0.6605
loop_
_geom_bond_atom_site_label_1
_geom_bond_atom_site_label_2
_geom_bond_site_symmetry_1
_geom_bond_site_symmetry_2
S1 O1 1_555 1_555
O2 S1 1_555 1_555
C1 S1 1_555 1_555
C2 C1 1_555 1_555
H1 C2 1_555 1_555
H2 C2 1_555 1_555
O3 C2 1_555 1_555
C3 O3 1_555 1_555
C4 C3 1_555 1_555
H3 C4 1_555 1_555
C5 C4 1_555 1_555
H4 C5 1_555 1_555
C6 C5 1_555 1_555
C7 C6 1_555 1_555
H5 C7 1_555 1_555
H6 C7 1_555 1_555
C8 C3 1_555 1_555
H7 C8 1_555 1_555
C9 C1 1_555 1_555
C10 S1 1_555 1_555
C11 C10 1_555 1_555
H8 C11 1_555 1_555
C12 C11 1_555 1_555
H9 C12 1_555 1_555
C13 C12 1_555 1_555
C14 C13 1_555 1_555
H10 C14 1_555 1_555
C15 C10 1_555 1_555
H11 C15 1_555 1_555
I1 C13 1_555 1_555
C16 C3 1_555 1_555
H12 C16 1_555 1_555
H13 C16 1_555 1_555
H14 C16 1_555 1_555
O4 C6 1_555 1_555
C17 C9 1_555 1_555
C18 C17 1_555 1_555
H15 C18 1_555 1_555
C19 C18 1_555 1_555
H16 C19 1_555 1_555
C20 C19 1_555 1_555
H17 C20 1_555 1_555
C21 C20 1_555 1_555
H18 C21 1_555 1_555
C22 C17 1_555 1_555
H19 C22 1_555 1_555
C7 C8 1_555 1_555
C8 C9 1_555 1_555
C14 C15 1_555 1_555
C21 C22 1_555 1_555

#END
