
#######################################################################
#
#                 Cambridge Crystallographic Data Centre
#                                CCDC 
#
#######################################################################
#
# If this CIF has been generated from an entry in the Cambridge 
# Structural Database, then it will include bibliographic, chemical, 
# crystal, experimental, refinement or atomic coordinate data resulting 
# from the CCDC's data processing and validation procedures.
#
#######################################################################

data_DESXEH
_chemical_formula_moiety         'C18 H22 O6 S1'
_chemical_name_systematic        
7,8-dihydroxy-4,8a-dimethyl-3-((4-methylphenyl)sulfonyl)-4a,7,8,8a-tetrahydro-2H-chromen-6(5H)-one
_symmetry_cell_setting           triclinic
_symmetry_space_group_name_H-M   'P -1'
_symmetry_Int_Tables_number      2
_space_group_name_Hall           '-P 1'
loop_
_symmetry_equiv_pos_site_id
_symmetry_equiv_pos_as_xyz
1 x,y,z
2 -x,-y,-z
_cell_length_a                   7.7254(6)
_cell_length_b                   10.1049(9)
_cell_length_c                   11.4604(8)
_cell_angle_alpha                99.036(7)
_cell_angle_beta                 102.623(6)
_cell_angle_gamma                96.813(7)
_cell_volume                     851.262
_exptl_crystal_colour            colorless
_exptl_crystal_description       block
_cell_formula_units_Z            2
_exptl_crystal_recrystallization_method petrol/dichloromethane
loop_
_atom_site_label
_atom_site_type_symbol
_atom_site_fract_x
_atom_site_fract_y
_atom_site_fract_z
O1 O 0.80203(13) 0.69415(9) 0.18832(8)
C1 C 0.78221(18) 0.57400(14) 0.10113(12)
H1 H 0.8995 0.5652 0.0817
H2 H 0.6965 0.5816 0.0254
C2 C 0.71590(17) 0.44695(13) 0.14376(12)
C3 C 0.70138(17) 0.44533(13) 0.25775(12)
C4 C 0.73842(17) 0.58033(13) 0.34610(12)
H3 H 0.7911 0.5647 0.4297
C5 C 0.55783(17) 0.63415(14) 0.34649(12)
H4 H 0.4854 0.6192 0.2615
H5 H 0.4903 0.5802 0.3918
C6 C 0.57783(17) 0.78262(14) 0.40217(12)
C7 C 0.71048(18) 0.87564(13) 0.36105(12)
H6 H 0.6680 0.8702 0.2713
C8 C 0.89097(17) 0.82401(14) 0.38682(12)
H7 H 0.9843 0.8875 0.3661
C9 C 0.87487(17) 0.68114(14) 0.31195(12)
S1 S 0.68267(4) 0.29733(3) 0.03160(3)
O2 O 0.51150(13) 0.21571(11) 0.02000(10)
O3 O 0.71837(14) 0.34361(10) -0.07512(9)
C10 C 0.85384(18) 0.20674(14) 0.08820(12)
C11 C 0.81285(19) 0.07279(14) 0.09938(12)
H8 H 0.6916 0.0287 0.0781
C12 C 0.9516(2) 0.00397(14) 0.14222(12)
H9 H 0.9246 -0.0885 0.1483
C13 C 1.12983(19) 0.06828(14) 0.17651(12)
C14 C 1.16751(19) 0.20361(15) 0.16380(13)
H10 H 1.2885 0.2484 0.1861
C15 C 1.03151(18) 0.27275(14) 0.11932(13)
H11 H 1.0584 0.3641 0.1100
C16 C 1.2795(2) -0.00498(16) 0.22658(14)
H12 H 1.2362 -0.1029 0.2081
H13 H 1.3197 0.0257 0.3150
H14 H 1.3800 0.0145 0.1893
C17 C 0.66063(19) 0.32062(14) 0.30959(13)
H15 H 0.7716 0.3022 0.3602
H16 H 0.6098 0.2430 0.2430
H17 H 0.5740 0.3355 0.3594
O4 O 0.48872(13) 0.82602(10) 0.47055(9)
O5 O 0.73288(14) 1.01277(10) 0.41983(10)
H18 H 0.649(3) 1.027(2) 0.4508(19)
O6 O 0.94141(14) 0.81801(11) 0.51245(9)
H19 H 1.040(3) 0.868(2) 0.5409(18)
C18 C 1.06005(18) 0.63734(15) 0.32853(13)
H20 H 1.1332 0.6899 0.2866
H21 H 1.0466 0.5405 0.2942
H22 H 1.1191 0.6536 0.4155
loop_
_geom_bond_atom_site_label_1
_geom_bond_atom_site_label_2
_geom_bond_site_symmetry_1
_geom_bond_site_symmetry_2
O1 C1 1_555 1_555
C1 H1 1_555 1_555
H2 C1 1_555 1_555
C2 C1 1_555 1_555
C3 C2 1_555 1_555
C4 C3 1_555 1_555
H3 C4 1_555 1_555
C5 C4 1_555 1_555
H4 C5 1_555 1_555
H5 C5 1_555 1_555
C6 C5 1_555 1_555
C7 C6 1_555 1_555
H6 C7 1_555 1_555
C8 C7 1_555 1_555
H7 C8 1_555 1_555
C9 O1 1_555 1_555
S1 C2 1_555 1_555
O2 S1 1_555 1_555
O3 S1 1_555 1_555
C10 S1 1_555 1_555
C11 C10 1_555 1_555
H8 C11 1_555 1_555
C12 C11 1_555 1_555
H9 C12 1_555 1_555
C13 C12 1_555 1_555
C14 C13 1_555 1_555
H10 C14 1_555 1_555
C15 C10 1_555 1_555
H11 C15 1_555 1_555
C16 C13 1_555 1_555
H12 C16 1_555 1_555
H13 C16 1_555 1_555
H14 C16 1_555 1_555
C17 C3 1_555 1_555
H15 C17 1_555 1_555
H16 C17 1_555 1_555
H17 C17 1_555 1_555
O4 C6 1_555 1_555
O5 C7 1_555 1_555
H18 O5 1_555 1_555
O6 C8 1_555 1_555
H19 O6 1_555 1_555
C18 C9 1_555 1_555
H20 C18 1_555 1_555
H21 C18 1_555 1_555
H22 C18 1_555 1_555
C4 C9 1_555 1_555
C8 C9 1_555 1_555
C14 C15 1_555 1_555

#END
