
#######################################################################
#
#                 Cambridge Crystallographic Data Centre
#                                CCDC 
#
#######################################################################
#
# If this CIF has been generated from an entry in the Cambridge 
# Structural Database, then it will include bibliographic, chemical, 
# crystal, experimental, refinement or atomic coordinate data resulting 
# from the CCDC's data processing and validation procedures.
#
#######################################################################

data_DETCTE01
_chemical_formula_moiety         'C10 H20 N2 S4 Te1'
_chemical_name_systematic        bis(diethylcarbamodithioato)-tellurium
_symmetry_cell_setting           monoclinic
_symmetry_space_group_name_H-M   'P 21/c'
_symmetry_Int_Tables_number      14
_space_group_name_Hall           '-P 2ybc'
loop_
_symmetry_equiv_pos_site_id
_symmetry_equiv_pos_as_xyz
1 x,y,z
2 -x,1/2+y,1/2-z
3 -x,-y,-z
4 x,1/2-y,1/2+z
_cell_length_a                   15.1640(3)
_cell_length_b                   8.4055(2)
_cell_length_c                   14.7887(2)
_cell_angle_alpha                90
_cell_angle_beta                 117.2280(10)
_cell_angle_gamma                90
_cell_volume                     1676.11
_exptl_crystal_colour            orange
_exptl_crystal_description       block
_cell_formula_units_Z            4
loop_
_atom_site_label
_atom_site_type_symbol
_atom_site_fract_x
_atom_site_fract_y
_atom_site_fract_z
Te1 Te 0.196536(12) 0.068698(19) 0.058062(11)
S1 S 0.37157(5) 0.16005(8) 0.11263(4)
S2 S 0.31811(6) 0.08291(9) 0.27629(5)
S3 S 0.19519(5) 0.08752(8) -0.11223(5)
S4 S 0.01007(5) -0.00371(10) -0.10730(5)
N1 N 0.50145(17) 0.1527(3) 0.30682(15)
N2 N 0.02721(17) 0.0280(3) -0.27815(16)
C1 C 0.4064(2) 0.1334(3) 0.24173(17)
C2 C 0.5754(2) 0.2024(4) 0.2740(2)
H1 H 0.6280 0.2604 0.3289
H2 H 0.5442 0.2740 0.2165
C3 C 0.6201(3) 0.0630(4) 0.2440(3)
H3 H 0.6542 -0.0053 0.3017
H4 H 0.6660 0.1018 0.2211
H5 H 0.5683 0.0042 0.1902
C4 C 0.5407(3) 0.1144(4) 0.4159(2)
H6 H 0.6049 0.0637 0.4394
H7 H 0.4965 0.0388 0.4241
C5 C 0.5515(3) 0.2569(5) 0.4808(3)
H8 H 0.5938 0.3335 0.4718
H9 H 0.5803 0.2253 0.5509
H10 H 0.4875 0.3033 0.4613
C6 C 0.07036(19) 0.0355(3) -0.17712(19)
C7 C 0.0797(2) 0.0660(4) -0.3378(2)
H11 H 0.1370 0.1314 -0.2970
H12 H 0.0362 0.1273 -0.3971
C8 C 0.1133(3) -0.0804(4) -0.3718(3)
H13 H 0.1575 -0.1405 -0.3133
H14 H 0.1472 -0.0498 -0.4103
H15 H 0.0567 -0.1445 -0.4134
C9 C -0.0766(2) -0.0242(4) -0.3366(2)
H16 H -0.0926 -0.0965 -0.2951
H17 H -0.0835 -0.0823 -0.3962
C10 C -0.1490(2) 0.1109(5) -0.3699(3)
H18 H -0.1417 0.1703 -0.3115
H19 H -0.2153 0.0698 -0.4050
H20 H -0.1363 0.1792 -0.4148
loop_
_geom_bond_atom_site_label_1
_geom_bond_atom_site_label_2
_geom_bond_site_symmetry_1
_geom_bond_site_symmetry_2
Te1 S1 1_555 1_555
S1 C1 1_555 1_555
S2 Te1 1_555 1_555
S3 Te1 1_555 1_555
S4 Te1 1_555 1_555
N1 C1 1_555 1_555
N2 C6 1_555 1_555
C1 S2 1_555 1_555
C2 N1 1_555 1_555
H1 C2 1_555 1_555
H2 C2 1_555 1_555
C3 C2 1_555 1_555
H3 C3 1_555 1_555
H4 C3 1_555 1_555
H5 C3 1_555 1_555
C4 N1 1_555 1_555
H6 C4 1_555 1_555
H7 C4 1_555 1_555
C5 C4 1_555 1_555
H8 C5 1_555 1_555
H9 C5 1_555 1_555
H10 C5 1_555 1_555
C6 S3 1_555 1_555
C7 N2 1_555 1_555
H11 C7 1_555 1_555
H12 C7 1_555 1_555
C8 C7 1_555 1_555
H13 C8 1_555 1_555
H14 C8 1_555 1_555
H15 C8 1_555 1_555
C9 N2 1_555 1_555
H16 C9 1_555 1_555
H17 C9 1_555 1_555
C10 C9 1_555 1_555
H18 C10 1_555 1_555
H19 C10 1_555 1_555
H20 C10 1_555 1_555
S4 C6 1_555 1_555

#END
