
#######################################################################
#
#                 Cambridge Crystallographic Data Centre
#                                CCDC 
#
#######################################################################
#
# If this CIF has been generated from an entry in the Cambridge 
# Structural Database, then it will include bibliographic, chemical, 
# crystal, experimental, refinement or atomic coordinate data resulting 
# from the CCDC's data processing and validation procedures.
#
#######################################################################

data_DETDEM
_chemical_formula_moiety         'C14 H17 N1 O3'
_chemical_name_systematic        
(2S,3S,5R,6S)-2,6,7-Trimethyl-5-phenyl-1,4-dioxa-7-azaspiro(2.5)octan-8-one
_symmetry_cell_setting           orthorhombic
_symmetry_space_group_name_H-M   'P 21 21 21'
_symmetry_Int_Tables_number      19
_space_group_name_Hall           'P 2ac 2ab'
loop_
_symmetry_equiv_pos_site_id
_symmetry_equiv_pos_as_xyz
1 x,y,z
2 1/2+x,1/2-y,-z
3 -x,1/2+y,1/2-z
4 1/2-x,-y,1/2+z
_cell_length_a                   8.6454(12)
_cell_length_b                   10.7876(17)
_cell_length_c                   13.704(2)
_cell_angle_alpha                90
_cell_angle_beta                 90
_cell_angle_gamma                90
_cell_volume                     1278.08
_exptl_crystal_colour            colorless
_exptl_crystal_description       prism
_cell_formula_units_Z            4
loop_
_atom_site_label
_atom_site_type_symbol
_atom_site_fract_x
_atom_site_fract_y
_atom_site_fract_z
O1 O -0.04806(16) 0.29510(13) 0.49274(9)
O2 O 0.07376(18) 0.11116(12) 0.36193(11)
O3 O 0.05358(14) 0.44230(11) 0.38061(9)
N1 N 0.2450(2) 0.25828(13) 0.31235(11)
C1 C -0.2701(2) 0.4001(2) 0.40667(15)
H1 H -0.3643 0.3744 0.4409
H2 H -0.2950 0.4194 0.3386
H3 H -0.2269 0.4738 0.4384
C2 C -0.1546(2) 0.29754(19) 0.40991(14)
H4 H -0.1923 0.2149 0.3869
C3 C 0.0102(2) 0.32095(17) 0.39673(13)
C4 C 0.1139(2) 0.22086(17) 0.35573(13)
C5 C 0.3466(3) 0.1652(2) 0.26909(18)
H5 H 0.4214 0.1369 0.3180
H6 H 0.4018 0.2015 0.2136
H7 H 0.2847 0.0946 0.2467
C6 C 0.2967(2) 0.38778(16) 0.30894(13)
H8 H 0.4106 0.3886 0.3216
C7 C 0.2701(2) 0.44345(18) 0.20792(13)
H9 H 0.2965 0.3821 0.1579
H10 H 0.3355 0.5169 0.1999
H11 H 0.1612 0.4671 0.2011
C8 C 0.21860(19) 0.45775(16) 0.39176(13)
H12 H 0.2509 0.4198 0.4551
C9 C 0.2533(2) 0.59407(16) 0.39483(12)
C10 C 0.3767(2) 0.63576(19) 0.45148(14)
H13 H 0.4380 0.5784 0.4871
C11 C 0.4095(3) 0.7618(2) 0.45561(15)
H14 H 0.4942 0.7902 0.4937
C12 C 0.3203(3) 0.84583(18) 0.40505(15)
H15 H 0.3434 0.9318 0.4088
C13 C 0.1979(3) 0.80583(17) 0.34906(15)
H16 H 0.1362 0.8640 0.3146
C14 C 0.1649(2) 0.67922(17) 0.34322(14)
H17 H 0.0815 0.6513 0.3038
loop_
_geom_bond_atom_site_label_1
_geom_bond_atom_site_label_2
_geom_bond_site_symmetry_1
_geom_bond_site_symmetry_2
O1 C2 1_555 1_555
O2 C4 1_555 1_555
O3 C3 1_555 1_555
N1 C4 1_555 1_555
C1 H1 1_555 1_555
H2 C1 1_555 1_555
H3 C1 1_555 1_555
C2 C1 1_555 1_555
H4 C2 1_555 1_555
C3 O1 1_555 1_555
C4 C3 1_555 1_555
C5 N1 1_555 1_555
H5 C5 1_555 1_555
H6 C5 1_555 1_555
H7 C5 1_555 1_555
C6 N1 1_555 1_555
H8 C6 1_555 1_555
C7 C6 1_555 1_555
H9 C7 1_555 1_555
H10 C7 1_555 1_555
H11 C7 1_555 1_555
C8 O3 1_555 1_555
H12 C8 1_555 1_555
C9 C8 1_555 1_555
C10 C9 1_555 1_555
H13 C10 1_555 1_555
C11 C10 1_555 1_555
H14 C11 1_555 1_555
C12 C11 1_555 1_555
H15 C12 1_555 1_555
C13 C12 1_555 1_555
H16 C13 1_555 1_555
C14 C9 1_555 1_555
H17 C14 1_555 1_555
C2 C3 1_555 1_555
C6 C8 1_555 1_555
C13 C14 1_555 1_555

#END
