
#######################################################################
#
#                 Cambridge Crystallographic Data Centre
#                                CCDC 
#
#######################################################################
#
# If this CIF has been generated from an entry in the Cambridge 
# Structural Database, then it will include bibliographic, chemical, 
# crystal, experimental, refinement or atomic coordinate data resulting 
# from the CCDC's data processing and validation procedures.
#
#######################################################################

data_DETGOZ
_chemical_formula_moiety         'C29 H26 N4 O5 S1'
_chemical_name_systematic        
'Ethyl (4-(5-(3-methylphenyl)-3-methylsulfanyl-4-oxo-1-phenylpyrazolo(3,4-d)pyrimidin-6-yloxy)phenoxy)acetate'
_symmetry_cell_setting           tetragonal
_symmetry_space_group_name_H-M   'P 41'
_symmetry_Int_Tables_number      76
_space_group_name_Hall           'P 4w'
loop_
_symmetry_equiv_pos_site_id
_symmetry_equiv_pos_as_xyz
1 x,y,z
2 -x,-y,1/2+z
3 -y,x,1/4+z
4 y,-x,3/4+z
_cell_length_a                   14.1908(16)
_cell_length_b                   14.1908(16)
_cell_length_c                   13.760(3)
_cell_angle_alpha                90
_cell_angle_beta                 90
_cell_angle_gamma                90
_cell_volume                     2770.97
_exptl_crystal_colour            colorless
_exptl_crystal_description       plate
_cell_formula_units_Z            4
_exptl_crystal_recrystallization_method chloroform
loop_
_atom_site_label
_atom_site_type_symbol
_atom_site_fract_x
_atom_site_fract_y
_atom_site_fract_z
C1 C 0.3978(3) 0.4015(3) 0.1932(3)
C2 C 0.3289(3) 0.4678(3) 0.1797(4)
H1 H 0.3445 0.5300 0.1662
C3 C 0.2356(3) 0.4405(4) 0.1865(5)
H2 H 0.1886 0.4854 0.1781
C4 C 0.2108(4) 0.3497(4) 0.2052(4)
H3 H 0.1477 0.3327 0.2111
C5 C 0.2809(4) 0.2834(4) 0.2154(4)
H4 H 0.2649 0.2209 0.2268
C6 C 0.3741(3) 0.3080(4) 0.2090(4)
H5 H 0.4208 0.2625 0.2151
C7 C 0.6062(3) 0.5319(3) 0.1794(3)
C8 C 0.6486(3) 0.4423(3) 0.1795(3)
C9 C 0.5747(3) 0.3799(3) 0.1840(3)
C10 C 0.5667(4) 0.7194(3) 0.1725(4)
H6 H 0.5240 0.7024 0.1212
H7 H 0.5886 0.7826 0.1625
H8 H 0.5347 0.7154 0.2338
C11 C 0.7433(3) 0.4079(3) 0.1716(3)
C12 C 0.6656(3) 0.2533(3) 0.1778(3)
C13 C 0.8362(3) 0.2617(3) 0.1623(3)
C14 C 0.8641(4) 0.2286(4) 0.0732(4)
H9 H 0.8250 0.2354 0.0195
C15 C 0.9517(4) 0.1846(4) 0.0638(5)
C16 C 1.0100(4) 0.1753(4) 0.1431(6)
H10 H 1.0691 0.1479 0.1359
C17 C 0.9816(4) 0.2059(5) 0.2311(6)
H11 H 1.0204 0.1974 0.2849
C18 C 0.8939(3) 0.2505(4) 0.2421(4)
H12 H 0.8749 0.2722 0.3028
C19 C 0.9787(6) 0.1461(6) -0.0332(6)
H13 H 1.0447 0.1563 -0.0440
H14 H 0.9431 0.1775 -0.0830
H15 H 0.9655 0.0798 -0.0351
C20 C 0.6056(3) 0.0995(3) 0.1738(4)
C21 C 0.5877(3) 0.0453(3) 0.2539(3)
H16 H 0.6255 0.0509 0.3088
C22 C 0.5140(4) -0.0172(3) 0.2532(3)
H17 H 0.5011 -0.0536 0.3078
C23 C 0.4597(3) -0.0255(3) 0.1716(4)
C24 C 0.4777(4) 0.0270(4) 0.0918(4)
H18 H 0.4399 0.0208 0.0369
C25 C 0.5523(3) 0.0900(3) 0.0912(3)
H19 H 0.5659 0.1252 0.0360
C26 C 0.3469(5) -0.1262(4) 0.2463(6)
H20 H 0.3962 -0.1529 0.2866
H21 H 0.3023 -0.1754 0.2298
C27 C 0.2943(6) -0.0405(8) 0.3026(8)
C28 C 0.2346(9) 0.0121(10) 0.4499(10)
H22 H 0.2176 -0.0166 0.5114
H23 H 0.1769 0.0327 0.4186
C29 C 0.2984(11) 0.1004(9) 0.4700(13)
H24 H 0.3546 0.0809 0.5031
H25 H 0.2646 0.1446 0.5096
H26 H 0.3150 0.1296 0.4094
N1 N 0.4943(2) 0.4300(2) 0.1883(2)
N2 N 0.5141(2) 0.5264(2) 0.1854(2)
N3 N 0.7462(2) 0.3064(2) 0.1718(3)
N4 N 0.5805(2) 0.2832(2) 0.1849(2)
O1 O 0.81497(19) 0.45220(19) 0.1628(2)
O2 O 0.68416(19) 0.16068(19) 0.1759(3)
O3 O 0.3846(3) -0.0868(3) 0.1633(3)
O4 O 0.2606(6) 0.0258(6) 0.2576(7)
O5 O 0.2822(5) -0.0622(6) 0.3857(7)
S1 S 0.66485(8) 0.64038(7) 0.17232(9)
loop_
_geom_bond_atom_site_label_1
_geom_bond_atom_site_label_2
_geom_bond_site_symmetry_1
_geom_bond_site_symmetry_2
C1 C2 1_555 1_555
C2 H1 1_555 1_555
C3 C2 1_555 1_555
H2 C3 1_555 1_555
C4 C3 1_555 1_555
H3 C4 1_555 1_555
C5 C4 1_555 1_555
H4 C5 1_555 1_555
C6 C1 1_555 1_555
H5 C6 1_555 1_555
C7 C8 1_555 1_555
C8 C9 1_555 1_555
C9 N1 1_555 1_555
C10 H6 1_555 1_555
H7 C10 1_555 1_555
H8 C10 1_555 1_555
C11 C8 1_555 1_555
C12 N3 1_555 1_555
C13 C14 1_555 1_555
C14 H9 1_555 1_555
C15 C14 1_555 1_555
C16 C15 1_555 1_555
H10 C16 1_555 1_555
C17 C16 1_555 1_555
H11 C17 1_555 1_555
C18 C13 1_555 1_555
H12 C18 1_555 1_555
C19 C15 1_555 1_555
H13 C19 1_555 1_555
H14 C19 1_555 1_555
H15 C19 1_555 1_555
C20 C21 1_555 1_555
C21 H16 1_555 1_555
C22 C21 1_555 1_555
H17 C22 1_555 1_555
C23 C22 1_555 1_555
C24 C23 1_555 1_555
H18 C24 1_555 1_555
C25 C20 1_555 1_555
H19 C25 1_555 1_555
C26 H20 1_555 1_555
H21 C26 1_555 1_555
C27 C26 1_555 1_555
C28 H22 1_555 1_555
H23 C28 1_555 1_555
C29 C28 1_555 1_555
H24 C29 1_555 1_555
H25 C29 1_555 1_555
H26 C29 1_555 1_555
N1 C1 1_555 1_555
N2 C7 1_555 1_555
N3 C11 1_555 1_555
N4 C9 1_555 1_555
O1 C11 1_555 1_555
O2 C12 1_555 1_555
O3 C23 1_555 1_555
O4 C27 1_555 1_555
O5 C27 1_555 1_555
S1 C7 1_555 1_555
C5 C6 1_555 1_555
C10 S1 1_555 1_555
C12 N4 1_555 1_555
C13 N3 1_555 1_555
C17 C18 1_555 1_555
C20 O2 1_555 1_555
C24 C25 1_555 1_555
C26 O3 1_555 1_555
C28 O5 1_555 1_555
N1 N2 1_555 1_555

#END
