
#######################################################################
#
#                 Cambridge Crystallographic Data Centre
#                                CCDC 
#
#######################################################################
#
# If this CIF has been generated from an entry in the Cambridge 
# Structural Database, then it will include bibliographic, chemical, 
# crystal, experimental, refinement or atomic coordinate data resulting 
# from the CCDC's data processing and validation procedures.
#
#######################################################################

data_DETGUF
_chemical_formula_moiety         'C27 H24 Br2 P1 1+,Br1 1-'
_chemical_name_systematic        
'(5-Dibromomethyl-3-methylbenzyl)triphenylphosphonium bromide'
_symmetry_cell_setting           monoclinic
_symmetry_space_group_name_H-M   'P 21/c'
_symmetry_Int_Tables_number      14
_space_group_name_Hall           '-P 2ybc'
loop_
_symmetry_equiv_pos_site_id
_symmetry_equiv_pos_as_xyz
1 x,y,z
2 -x,1/2+y,1/2-z
3 -x,-y,-z
4 x,1/2-y,1/2+z
_cell_length_a                   12.307(3)
_cell_length_b                   21.789(4)
_cell_length_c                   19.849(3)
_cell_angle_alpha                90
_cell_angle_beta                 91.387(2)
_cell_angle_gamma                90
_cell_volume                     5321.09
_exptl_crystal_colour            yellow
_exptl_crystal_description       block
_cell_formula_units_Z            8
_exptl_crystal_recrystallization_method THF
loop_
_atom_site_label
_atom_site_type_symbol
_atom_site_fract_x
_atom_site_fract_y
_atom_site_fract_z
Br1 Br 0.81894(6) 0.10816(3) 0.52280(3)
Br2 Br 0.68322(6) 0.55868(3) 0.59032(3)
Br3 Br 0.97719(11) 0.81187(6) 0.23683(7)
Br4 Br 0.75011(12) 0.76034(5) 0.28265(7)
P1 P 0.82123(13) 0.89736(7) 0.54084(8)
C1 C 0.8427(5) 0.9352(3) 0.4056(3)
C2 C 0.8543(5) 0.8841(3) 0.3656(3)
H1 H 0.8876 0.8491 0.3832
C3 C 0.8160(6) 0.8846(3) 0.2979(4)
C4 C 0.7651(6) 0.9372(4) 0.2730(4)
H2 H 0.7386 0.9376 0.2287
C5 C 0.7530(6) 0.9883(3) 0.3120(4)
C6 C 0.7913(5) 0.9865(3) 0.3771(3)
H3 H 0.7829 1.0212 0.4038
C7 C 0.8894(5) 0.9385(3) 0.4756(3)
H4 H 0.8925 0.9814 0.4885
H5 H 0.9637 0.9238 0.4745
C8 C 0.8282(8) 0.8314(4) 0.2521(4)
H6 H 0.7956 0.8432 0.2084
C9 C 0.7067(7) 1.0485(4) 0.2820(4)
H7 H 0.7042 1.0792 0.3166
H8 H 0.6347 1.0414 0.2640
H9 H 0.7525 1.0625 0.2466
C10 C 0.6797(5) 0.9166(3) 0.5425(3)
C11 C 0.6098(5) 0.8976(3) 0.4904(3)
H10 H 0.6368 0.8775 0.4530
C12 C 0.5006(6) 0.9090(3) 0.4949(4)
H11 H 0.4530 0.8953 0.4611
C13 C 0.4614(6) 0.9404(4) 0.5490(5)
H12 H 0.3872 0.9475 0.5522
C14 C 0.5311(7) 0.9610(3) 0.5978(4)
H13 H 0.5036 0.9837 0.6332
C15 C 0.6390(6) 0.9498(3) 0.5970(4)
H14 H 0.6851 0.9638 0.6315
C16 C 0.8862(5) 0.9168(3) 0.6196(3)
C17 C 0.9121(5) 0.9771(3) 0.6343(3)
H15 H 0.8935 1.0079 0.6037
C18 C 0.9653(6) 0.9918(3) 0.6936(4)
H16 H 0.9849 1.0323 0.7024
C19 C 0.9889(7) 0.9480(5) 0.7388(4)
H17 H 1.0233 0.9584 0.7794
C20 C 0.9627(8) 0.8870(4) 0.7257(4)
H18 H 0.9798 0.8566 0.7572
C21 C 0.9114(7) 0.8721(3) 0.6660(4)
H19 H 0.8936 0.8315 0.6568
C22 C 0.8332(5) 0.8161(3) 0.5302(3)
C23 C 0.7466(6) 0.7783(3) 0.5442(4)
H20 H 0.6799 0.7952 0.5552
C24 C 0.7592(7) 0.7151(3) 0.5419(4)
H21 H 0.7015 0.6897 0.5529
C25 C 0.8537(7) 0.6904(3) 0.5242(4)
H22 H 0.8608 0.6480 0.5211
C26 C 0.9394(6) 0.7273(3) 0.5106(4)
H23 H 1.0051 0.7096 0.4991
C27 C 0.9318(6) 0.7908(3) 0.5134(3)
H24 H 0.9912 0.8156 0.5042
Br5 Br 0.79682(12) 0.23349(5) 0.34302(6)
Br6 Br 0.54840(10) 0.21582(4) 0.37222(6)
P2 P 0.67387(14) 0.48560(7) 0.37598(8)
C28 C 0.6606(5) 0.3912(3) 0.4728(3)
C29 C 0.6516(5) 0.3393(3) 0.4321(3)
H25 H 0.6177 0.3415 0.3898
C30 C 0.6950(6) 0.2834(3) 0.4565(3)
C31 C 0.7416(6) 0.2801(3) 0.5191(4)
H26 H 0.7694 0.2428 0.5345
C32 C 0.7485(6) 0.3312(3) 0.5603(3)
C33 C 0.7104(5) 0.3864(3) 0.5358(3)
H27 H 0.7183 0.4214 0.5622
C34 C 0.6121(5) 0.4523(3) 0.4482(3)
H28 H 0.6172 0.4816 0.4850
H29 H 0.5355 0.4461 0.4377
C35 C 0.6881(7) 0.2278(3) 0.4115(4)
H30 H 0.7053 0.1917 0.4392
C36 C 0.7990(8) 0.3274(4) 0.6306(4)
H31 H 0.8206 0.2858 0.6398
H32 H 0.7469 0.3402 0.6629
H33 H 0.8615 0.3537 0.6335
C37 C 0.6132(5) 0.5591(3) 0.3607(3)
C38 C 0.5990(8) 0.5783(4) 0.2958(4)
H34 H 0.6186 0.5525 0.2607
C39 C 0.5562(11) 0.6352(6) 0.2813(6)
H35 H 0.5491 0.6486 0.2370
C40 C 0.5239(8) 0.6721(5) 0.3338(7)
H36 H 0.4911 0.7097 0.3242
C41 C 0.5392(7) 0.6544(4) 0.4001(6)
H37 H 0.5197 0.6803 0.4350
C42 C 0.5843(6) 0.5971(4) 0.4138(4)
H38 H 0.5952 0.5842 0.4582
C43 C 0.8169(5) 0.4937(3) 0.3915(3)
C44 C 0.8612(6) 0.5514(3) 0.4067(3)
H39 H 0.8161 0.5856 0.4077
C45 C 0.9723(7) 0.5581(4) 0.4203(4)
H40 H 1.0008 0.5963 0.4318
C46 C 1.0384(7) 0.5084(5) 0.4166(4)
H41 H 1.1129 0.5130 0.4238
C47 C 0.9968(7) 0.4526(4) 0.4025(4)
H42 H 1.0435 0.4191 0.4012
C48 C 0.8856(6) 0.4432(3) 0.3896(4)
H43 H 0.8585 0.4042 0.3800
C49 C 0.6495(6) 0.4396(3) 0.3024(3)
C50 C 0.7316(7) 0.4282(4) 0.2572(4)
H44 H 0.8009 0.4438 0.2654
C51 C 0.7103(9) 0.3937(4) 0.2001(4)
H45 H 0.7646 0.3873 0.1692
C52 C 0.6091(9) 0.3687(4) 0.1890(4)
H46 H 0.5955 0.3440 0.1516
C53 C 0.5283(7) 0.3807(4) 0.2333(4)
H47 H 0.4591 0.3647 0.2249
C54 C 0.5471(6) 0.4156(3) 0.2900(3)
H48 H 0.4913 0.4230 0.3197
loop_
_geom_bond_atom_site_label_1
_geom_bond_atom_site_label_2
_geom_bond_site_symmetry_1
_geom_bond_site_symmetry_2
Br3 C8 1_555 1_555
Br4 C8 1_555 1_555
Br5 C35 1_555 1_555
Br6 C35 1_555 1_555
P1 C7 1_555 1_555
P2 C34 1_555 1_555
C1 C2 1_555 1_555
C2 H1 1_555 1_555
C3 C2 1_555 1_555
C4 C3 1_555 1_555
H2 C4 1_555 1_555
C5 C4 1_555 1_555
C6 C1 1_555 1_555
H3 C6 1_555 1_555
C7 C1 1_555 1_555
H4 C7 1_555 1_555
H5 C7 1_555 1_555
C8 C3 1_555 1_555
H6 C8 1_555 1_555
C9 C5 1_555 1_555
H7 C9 1_555 1_555
H8 C9 1_555 1_555
H9 C9 1_555 1_555
C10 P1 1_555 1_555
C11 C10 1_555 1_555
H10 C11 1_555 1_555
C12 C11 1_555 1_555
H11 C12 1_555 1_555
C13 C12 1_555 1_555
H12 C13 1_555 1_555
C14 C13 1_555 1_555
H13 C14 1_555 1_555
C15 C10 1_555 1_555
H14 C15 1_555 1_555
C16 P1 1_555 1_555
C17 C16 1_555 1_555
H15 C17 1_555 1_555
C18 C17 1_555 1_555
H16 C18 1_555 1_555
C19 C18 1_555 1_555
H17 C19 1_555 1_555
C20 C19 1_555 1_555
H18 C20 1_555 1_555
C21 C16 1_555 1_555
H19 C21 1_555 1_555
C22 P1 1_555 1_555
C23 C22 1_555 1_555
H20 C23 1_555 1_555
C24 C23 1_555 1_555
H21 C24 1_555 1_555
C25 C24 1_555 1_555
H22 C25 1_555 1_555
C26 C25 1_555 1_555
H23 C26 1_555 1_555
C27 C22 1_555 1_555
H24 C27 1_555 1_555
C28 C29 1_555 1_555
C29 H25 1_555 1_555
C30 C29 1_555 1_555
C31 C30 1_555 1_555
H26 C31 1_555 1_555
C32 C31 1_555 1_555
C33 C28 1_555 1_555
H27 C33 1_555 1_555
C34 C28 1_555 1_555
H28 C34 1_555 1_555
H29 C34 1_555 1_555
C35 C30 1_555 1_555
H30 C35 1_555 1_555
C36 C32 1_555 1_555
H31 C36 1_555 1_555
H32 C36 1_555 1_555
H33 C36 1_555 1_555
C37 P2 1_555 1_555
C38 C37 1_555 1_555
H34 C38 1_555 1_555
C39 C38 1_555 1_555
H35 C39 1_555 1_555
C40 C39 1_555 1_555
H36 C40 1_555 1_555
C41 C40 1_555 1_555
H37 C41 1_555 1_555
C42 C37 1_555 1_555
H38 C42 1_555 1_555
C43 P2 1_555 1_555
C44 C43 1_555 1_555
H39 C44 1_555 1_555
C45 C44 1_555 1_555
H40 C45 1_555 1_555
C46 C45 1_555 1_555
H41 C46 1_555 1_555
C47 C46 1_555 1_555
H42 C47 1_555 1_555
C48 C43 1_555 1_555
H43 C48 1_555 1_555
C49 P2 1_555 1_555
C50 C49 1_555 1_555
H44 C50 1_555 1_555
C51 C50 1_555 1_555
H45 C51 1_555 1_555
C52 C51 1_555 1_555
H46 C52 1_555 1_555
C53 C52 1_555 1_555
H47 C53 1_555 1_555
C54 C49 1_555 1_555
H48 C54 1_555 1_555
C5 C6 1_555 1_555
C14 C15 1_555 1_555
C20 C21 1_555 1_555
C26 C27 1_555 1_555
C32 C33 1_555 1_555
C41 C42 1_555 1_555
C47 C48 1_555 1_555
C53 C54 1_555 1_555

#END
