
#######################################################################
#
#                 Cambridge Crystallographic Data Centre
#                                CCDC 
#
#######################################################################
#
# If this CIF has been generated from an entry in the Cambridge 
# Structural Database, then it will include bibliographic, chemical, 
# crystal, experimental, refinement or atomic coordinate data resulting 
# from the CCDC's data processing and validation procedures.
#
#######################################################################

data_DETHOA
_chemical_formula_moiety         'C12 H17 N1 O3'
_chemical_name_systematic        
2-(1-(2-Hydroxypropyliminio)ethyl)-5-methoxyphenolate
_symmetry_cell_setting           triclinic
_symmetry_space_group_name_H-M   'P -1'
_symmetry_Int_Tables_number      2
_space_group_name_Hall           '-P 1'
loop_
_symmetry_equiv_pos_site_id
_symmetry_equiv_pos_as_xyz
1 x,y,z
2 -x,-y,-z
_cell_length_a                   5.714(2)
_cell_length_b                   9.672(4)
_cell_length_c                   10.869(3)
_cell_angle_alpha                98.19(2)
_cell_angle_beta                 96.71(2)
_cell_angle_gamma                93.35(3)
_cell_volume                     588.76
_exptl_crystal_colour            yellow
_exptl_crystal_description       block
_cell_formula_units_Z            2
_exptl_crystal_recrystallization_method methanol
loop_
_atom_site_label
_atom_site_type_symbol
_atom_site_fract_x
_atom_site_fract_y
_atom_site_fract_z
O1 O 0.1251(2) 0.16218(15) 0.37940(13)
O2 O 0.2213(3) 0.37187(15) 0.01565(13)
O3 O 0.1269(3) 0.08674(17) 0.69327(15)
N1 N 0.4475(3) 0.21279(18) 0.56303(15)
C1 C 0.2480(4) 0.2422(2) 0.32170(18)
C2 C 0.1621(4) 0.2657(2) 0.19827(18)
H1 H 0.0150 0.2246 0.1609
C3 C 0.2899(4) 0.3465(2) 0.13438(19)
C4 C 0.5101(4) 0.4122(2) 0.18852(19)
H2 H 0.5966 0.4681 0.1443
C5 C 0.5961(4) 0.3935(2) 0.30633(19)
H3 H 0.7426 0.4375 0.3413
C6 C 0.4737(3) 0.31045(19) 0.37786(18)
C7 C 0.5699(3) 0.2916(2) 0.50153(18)
C8 C 0.8039(3) 0.3596(2) 0.56320(18)
H4 H 0.8356 0.3343 0.6454
H5 H 0.8010 0.4595 0.5697
H6 H 0.9254 0.3288 0.5141
C9 C 0.5161(4) 0.1842(2) 0.69031(18)
H7 H 0.4939 0.2651 0.7504
H8 H 0.6819 0.1661 0.7009
C10 C 0.3682(4) 0.0592(2) 0.71358(19)
H9 H 0.3956 -0.0223 0.6538
C11 C 0.4376(4) 0.0290(2) 0.84557(19)
H10 H 0.4123 0.1086 0.9048
H11 H 0.6014 0.0106 0.8560
H12 H 0.3429 -0.0513 0.8594
C12 C -0.0019(4) 0.3077(3) -0.0468(2)
H13 H -0.0003 0.2077 -0.0542
H14 H -0.0290 0.3342 -0.1289
H15 H -0.1257 0.3384 0.0007
H16 H 0.052(5) 0.0089(17) 0.672(3)
H17 H 0.315(3) 0.176(3) 0.520(3)
H18? H 0.8724 0.4141 0.5074
H19? H 0.9070 0.2889 0.5831
H20? H 0.7826 0.4196 0.6388
loop_
_geom_bond_atom_site_label_1
_geom_bond_atom_site_label_2
_geom_bond_site_symmetry_1
_geom_bond_site_symmetry_2
O1 C1 1_555 1_555
O2 C3 1_555 1_555
O3 C10 1_555 1_555
N1 C7 1_555 1_555
C1 C2 1_555 1_555
C2 H1 1_555 1_555
C3 C2 1_555 1_555
C4 C3 1_555 1_555
H2 C4 1_555 1_555
C5 C4 1_555 1_555
H3 C5 1_555 1_555
C6 C1 1_555 1_555
C7 C6 1_555 1_555
C8 C7 1_555 1_555
H4 C8 1_555 1_555
H5 C8 1_555 1_555
H6 C8 1_555 1_555
C9 N1 1_555 1_555
H7 C9 1_555 1_555
H8 C9 1_555 1_555
C10 C9 1_555 1_555
H9 C10 1_555 1_555
C11 C10 1_555 1_555
H10 C11 1_555 1_555
H11 C11 1_555 1_555
H12 C11 1_555 1_555
C12 O2 1_555 1_555
H13 C12 1_555 1_555
H14 C12 1_555 1_555
H15 C12 1_555 1_555
H16 O3 1_555 1_555
H17 N1 1_555 1_555
C5 C6 1_555 1_555

#END
