
#######################################################################
#
#                 Cambridge Crystallographic Data Centre
#                                CCDC 
#
#######################################################################
#
# If this CIF has been generated from an entry in the Cambridge 
# Structural Database, then it will include bibliographic, chemical, 
# crystal, experimental, refinement or atomic coordinate data resulting 
# from the CCDC's data processing and validation procedures.
#
#######################################################################

data_DETKEV
_chemical_formula_moiety         'C32 H25 N3'
_chemical_name_systematic        
2-(3-methylphenyl)-N,N,1-triphenyl-1H-benzimidazol-5-amine
_symmetry_cell_setting           monoclinic
_symmetry_space_group_name_H-M   'P 21/c'
_symmetry_Int_Tables_number      14
_space_group_name_Hall           '-P 2ybc'
loop_
_symmetry_equiv_pos_site_id
_symmetry_equiv_pos_as_xyz
1 x,y,z
2 -x,1/2+y,1/2-z
3 -x,-y,-z
4 x,1/2-y,1/2+z
_cell_length_a                   9.885(2)
_cell_length_b                   13.724(3)
_cell_length_c                   18.857(4)
_cell_angle_alpha                90
_cell_angle_beta                 102.794(6)
_cell_angle_gamma                90
_cell_volume                     2494.66
_exptl_crystal_colour            yellow
_exptl_crystal_description       Block
_cell_formula_units_Z            4
loop_
_atom_site_label
_atom_site_type_symbol
_atom_site_fract_x
_atom_site_fract_y
_atom_site_fract_z
C1 C -0.0061(5) 0.2135(4) -0.1133(2)
C2 C -0.1221(5) 0.1556(4) -0.1184(3)
H1 H -0.1120 0.0904 -0.1047
C3 C -0.2546(6) 0.1947(5) -0.1440(3)
H2 H -0.3326 0.1553 -0.1488
C4 C -0.2684(6) 0.2899(5) -0.1616(3)
H3 H -0.3565 0.3162 -0.1777
C5 C -0.1545(6) 0.3484(4) -0.1561(3)
H4 H -0.1655 0.4141 -0.1679
C6 C -0.0239(5) 0.3098(4) -0.1329(3)
H5 H 0.0533 0.3494 -0.1305
C7 C 0.1573(5) 0.0730(4) -0.0883(3)
C8 C 0.1080(6) 0.0165(5) -0.1485(3)
H6 H 0.0572 0.0444 -0.1911
C9 C 0.1349(6) -0.0829(5) -0.1452(4)
H7 H 0.1006 -0.1214 -0.1858
C10 C 0.2102(7) -0.1253(5) -0.0839(4)
H8 H 0.2242 -0.1924 -0.0816
C11 C 0.2639(7) -0.0683(5) -0.0267(4)
H9 H 0.3211 -0.0958 0.0142
C12 C 0.2361(7) 0.0301(4) -0.0272(3)
H10 H 0.2709 0.0675 0.0139
C13 C 0.2350(5) 0.2351(3) -0.0456(3)
C14 C 0.2103(5) 0.2876(3) 0.0123(3)
H11 H 0.1226 0.2878 0.0227
C15 C 0.3178(4) 0.3402(3) 0.0548(3)
C16 C 0.4503(4) 0.3385(3) 0.0384(2)
C17 C 0.4765(5) 0.2863(3) -0.0199(2)
H12 H 0.5639 0.2861 -0.0307
C18 C 0.3676(5) 0.2345(3) -0.0614(3)
H13 H 0.3822 0.1983 -0.1007
C19 C 0.6821(4) 0.3982(3) 0.1034(3)
C20 C 0.7405(5) 0.4346(3) 0.0498(3)
H14 H 0.6854 0.4592 0.0071
C21 C 0.8844(7) 0.4342(5) 0.0606(4)
H15 H 0.9264 0.4590 0.0249
C22 C 0.9638(6) 0.3977(5) 0.1232(4)
H16 H 1.0599 0.3986 0.1303
C23 C 0.9042(6) 0.3598(4) 0.1758(4)
H17 H 0.9592 0.3342 0.2182
C24 C 0.7618(5) 0.3597(3) 0.1654(3)
H18 H 0.7200 0.3334 0.2007
C25 C 0.4501(4) 0.4269(3) 0.1376(2)
C26 C 0.5005(5) 0.4882(3) 0.2016(3)
C27 C 0.4357(5) 0.4784(4) 0.2595(3)
H19 H 0.3652 0.4329 0.2574
C28 C 0.4766(6) 0.5369(5) 0.3206(3)
H20 H 0.4331 0.5306 0.3594
C29 C 0.5820(6) 0.6046(4) 0.3241(3)
H21 H 0.6099 0.6427 0.3656
C30 C 0.6457(5) 0.6161(4) 0.2665(3)
C31 C 0.6037(5) 0.5575(4) 0.2058(3)
H22 H 0.6460 0.5649 0.1667
C32 C 0.7584(6) 0.6910(4) 0.2698(3)
H23 H 0.7234 0.7542 0.2780
H24 H 0.7881 0.6911 0.2246
H25 H 0.8356 0.6752 0.3088
N1 N 0.1311(4) 0.1755(3) -0.0895(2)
N2 N 0.5329(3) 0.3949(3) 0.09141(19)
N3 N 0.3216(4) 0.3972(3) 0.11581(19)
loop_
_geom_bond_atom_site_label_1
_geom_bond_atom_site_label_2
_geom_bond_site_symmetry_1
_geom_bond_site_symmetry_2
C1 C2 1_555 1_555
C2 H1 1_555 1_555
C3 C2 1_555 1_555
H2 C3 1_555 1_555
C4 C3 1_555 1_555
H3 C4 1_555 1_555
C5 C4 1_555 1_555
H4 C5 1_555 1_555
C6 C1 1_555 1_555
H5 C6 1_555 1_555
C7 C8 1_555 1_555
C8 H6 1_555 1_555
C9 C8 1_555 1_555
H7 C9 1_555 1_555
C10 C9 1_555 1_555
H8 C10 1_555 1_555
C11 C10 1_555 1_555
H9 C11 1_555 1_555
C12 C7 1_555 1_555
H10 C12 1_555 1_555
C13 C14 1_555 1_555
C14 H11 1_555 1_555
C15 C14 1_555 1_555
C16 C15 1_555 1_555
C17 C16 1_555 1_555
H12 C17 1_555 1_555
C18 C13 1_555 1_555
H13 C18 1_555 1_555
C19 C20 1_555 1_555
C20 H14 1_555 1_555
C21 C20 1_555 1_555
H15 C21 1_555 1_555
C22 C21 1_555 1_555
H16 C22 1_555 1_555
C23 C22 1_555 1_555
H17 C23 1_555 1_555
C24 C19 1_555 1_555
H18 C24 1_555 1_555
C25 C26 1_555 1_555
C26 C27 1_555 1_555
C27 H19 1_555 1_555
C28 C27 1_555 1_555
H20 C28 1_555 1_555
C29 C28 1_555 1_555
H21 C29 1_555 1_555
C30 C29 1_555 1_555
C31 C26 1_555 1_555
H22 C31 1_555 1_555
C32 C30 1_555 1_555
H23 C32 1_555 1_555
H24 C32 1_555 1_555
H25 C32 1_555 1_555
N1 C1 1_555 1_555
N2 C16 1_555 1_555
N3 C15 1_555 1_555
C5 C6 1_555 1_555
C7 N1 1_555 1_555
C11 C12 1_555 1_555
C13 N1 1_555 1_555
C17 C18 1_555 1_555
C19 N2 1_555 1_555
C23 C24 1_555 1_555
C25 N2 1_555 1_555
C25 N3 1_555 1_555
C30 C31 1_555 1_555

#END
