
#######################################################################
#
#                 Cambridge Crystallographic Data Centre
#                                CCDC 
#
#######################################################################
#
# If this CIF has been generated from an entry in the Cambridge 
# Structural Database, then it will include bibliographic, chemical, 
# crystal, experimental, refinement or atomic coordinate data resulting 
# from the CCDC's data processing and validation procedures.
#
#######################################################################

data_DETQEZ
_chemical_compound_source        'Diaporthe sp'
_chemical_formula_moiety         'C32 H41 N1 O4,H2 O1'
_chemical_name_systematic        'Diaporthichalasin monohydrate'
_chemical_properties_biological  
'CYP3A4 inhibitor; no antibacterial activity against Bacillus subtilis ATCC 6633, Staphylococcus aureus ATCC 25923, Escherichia coli ATCC 25922, Pseudomonas aeruginosa ATCC 27853 and Candida albicans ATCC 102 31'
_symmetry_cell_setting           monoclinic
_symmetry_space_group_name_H-M   'P 21'
_symmetry_Int_Tables_number      4
_space_group_name_Hall           'P 2yb'
loop_
_symmetry_equiv_pos_site_id
_symmetry_equiv_pos_as_xyz
1 x,y,z
2 -x,1/2+y,-z
_cell_length_a                   9.31430(10)
_cell_length_b                   9.46640(10)
_cell_length_c                   16.7687(2)
_cell_angle_alpha                90.0
_cell_angle_beta                 98.87
_cell_angle_gamma                90.0
_cell_volume                     1460.86
_exptl_crystal_colour            'pale orange'
_chemical_melting_point          '169-170 deg.C'
_cell_formula_units_Z            2
_exptl_crystal_recrystallization_method acetonitrile
loop_
_atom_site_label
_atom_site_type_symbol
_atom_site_fract_x
_atom_site_fract_y
_atom_site_fract_z
C1 C 1.1281(3) 1.2197(4) 0.84131(18)
H1 H 1.144 1.3035 0.8737
H2 H 1.2097 1.2043 0.8137
H3 H 1.1171 1.1401 0.8754
O1 O 0.2783(6) 0.6439(6) 0.8236(3)
O2 O 0.9187(2) 0.9930(2) 0.92274(12)
H4 H 0.901(5) 1.233(6) 1.015(3)
H6 H 0.962(4) 0.991(5) 0.973(3)
H8 H 0.660(4) 1.175(4) 0.8375(18)
H9 H 0.732(4) 0.938(5) 0.796(2)
H10 H 1.065(4) 1.080(5) 0.699(2)
H11 H 0.628(4) 1.429(5) 0.424(2)
H12 H 0.404(2) 0.561(3) 0.8318(13)
H13 H 1.041(4) 1.458(5) 0.755(2)
H14 H 0.791(4) 1.249(5) 0.620(2)
H15 H 0.837(5) 1.518(6) 0.697(3)
C2 C 0.8918(3) 1.3299(3) 0.90395(14)
C3 C 0.5939(4) 0.9310(4) 0.93557(17)
C4 C 0.6374(7) 0.7931(5) 0.9292(4)
H16 H 0.7299 0.7609 0.9502
C5 C 0.5122(9) 0.6922(5) 0.8818(4)
H17 H 0.5288 0.5982 0.87
C6 C 0.8089(3) 1.0976(3) 0.92329(14)
C7 C 0.7511(3) 1.1425(3) 0.83518(13)
C8 C 0.3830(5) 0.7545(8) 0.8609(2)
C9 C 0.7318(3) 1.0244(3) 0.77137(14)
C10 C 0.3397(7) 0.8779(7) 0.8695(4)
H18 H 0.2445 0.908 0.8539
C11 C 0.8598(3) 1.0092(3) 0.72577(15)
C12 C 0.4497(5) 0.9623(7) 0.9047(2)
H19 H 0.4246 1.0568 0.9088
C13 C 0.9667(3) 1.1035(3) 0.72895(16)
C14 C 0.9884(2) 1.2376(3) 0.77861(14)
C15 C 0.8489(3) 1.2683(3) 0.81854(12)
C16 C 0.6915(3) 1.0474(3) 0.97293(16)
H20 H 0.7397 1.0156 1.0253
H21 H 0.6315 1.1279 0.982
C17 C 0.5890(3) 1.0463(5) 0.71228(18)
H22 H 0.5097 1.0561 0.7422
H23 H 0.5721 0.9664 0.6769
H24 H 0.5966 1.1302 0.681
C18 C 0.8581(5) 0.8778(4) 0.6738(2)
H25 H 0.7734 0.8225 0.6787
H26 H 0.9438 0.8228 0.6913
H27 H 0.8559 0.9048 0.6184
C19 C 1.0008(3) 1.3730(3) 0.72365(15)
C20 C 1.0879(3) 1.3546(3) 0.65491(17)
C21 C 1.0259(3) 1.3694(3) 0.57750(16)
H28 H 1.0868 1.3616 0.5386
C22 C 0.8681(3) 1.3971(3) 0.54761(15)
C23 C 0.8142(3) 1.3037(3) 0.47389(16)
H29 H 0.8349 1.2057 0.4883
H30 H 0.8684 1.3276 0.4308
C24 C 0.6505(3) 1.3187(4) 0.44217(16)
C25 C 0.5611(3) 1.2947(4) 0.51059(18)
H31 H 0.5657 1.1955 0.5253
H32 H 0.4603 1.3178 0.4913
C26 C 0.6149(3) 1.3839(4) 0.58597(16)
H33 H 0.5996 1.4833 0.5735
H34 H 0.5602 1.3598 0.6288
C27 C 0.7768(2) 1.3565(3) 0.61419(14)
C28 C 0.8431(3) 1.4250(3) 0.69580(14)
C29 C 0.7629(3) 1.3809(3) 0.76400(14)
C30 C 1.2501(3) 1.3291(5) 0.6753(2)
H35 H 1.2769 1.3219 0.7327
H36 H 1.3015 1.4063 0.6555
H37 H 1.2746 1.2428 0.6504
C31 C 0.8538(4) 1.5558(4) 0.5231(2)
H38 H 0.7537 1.5774 0.5038
H39 H 0.9109 1.5742 0.4812
H40 H 0.8878 1.6136 0.5692
C32 C 0.6048(5) 1.2144(6) 0.3724(2)
H41 H 0.5028 1.2247 0.3531
H42 H 0.6242 1.1195 0.3913
H43 H 0.6588 1.2338 0.3293
O4 O 0.9387(3) 1.4508(3) 0.92007(12)
O5 O 0.6456(3) 1.4257(3) 0.77562(13)
N1 N 0.8704(3) 1.2308(3) 0.95737(12)
O3 O 1.0111(3) 1.7233(4) 0.86535(18)
H5 H 0.9838 1.7246 0.8278
H7 H 0.9569 1.638 0.8714
loop_
_geom_bond_atom_site_label_1
_geom_bond_atom_site_label_2
_geom_bond_site_symmetry_1
_geom_bond_site_symmetry_2
C1 H1 1_555 1_555
H2 C1 1_555 1_555
H3 C1 1_555 1_555
O1 H12 1_555 1_555
O2 H6 1_555 1_555
O3 H5 1_555 1_555
H4 N1 1_555 1_555
H7 O3 1_555 1_555
H8 C7 1_555 1_555
H9 C9 1_555 1_555
H10 C13 1_555 1_555
H11 C24 1_555 1_555
H13 C19 1_555 1_555
H14 C27 1_555 1_555
H15 C28 1_555 1_555
C2 C15 1_555 1_555
C3 C4 1_555 1_555
C4 H16 1_555 1_555
C5 C4 1_555 1_555
H17 C5 1_555 1_555
C6 O2 1_555 1_555
C7 C6 1_555 1_555
C8 O1 1_555 1_555
C9 C7 1_555 1_555
C10 C8 1_555 1_555
H18 C10 1_555 1_555
C11 C9 1_555 1_555
C12 C3 1_555 1_555
H19 C12 1_555 1_555
C13 C11 1_555 1_555
C14 C1 1_555 1_555
C15 C7 1_555 1_555
C16 C3 1_555 1_555
H20 C16 1_555 1_555
H21 C16 1_555 1_555
C17 C9 1_555 1_555
H22 C17 1_555 1_555
H23 C17 1_555 1_555
H24 C17 1_555 1_555
C18 C11 1_555 1_555
H25 C18 1_555 1_555
H26 C18 1_555 1_555
H27 C18 1_555 1_555
C19 C14 1_555 1_555
C20 C19 1_555 1_555
C21 C20 1_555 1_555
H28 C21 1_555 1_555
C22 C21 1_555 1_555
C23 C22 1_555 1_555
H29 C23 1_555 1_555
H30 C23 1_555 1_555
C24 C23 1_555 1_555
C25 C24 1_555 1_555
H31 C25 1_555 1_555
H32 C25 1_555 1_555
C26 C25 1_555 1_555
H33 C26 1_555 1_555
H34 C26 1_555 1_555
C27 C22 1_555 1_555
C28 C19 1_555 1_555
C29 C15 1_555 1_555
C30 C20 1_555 1_555
H35 C30 1_555 1_555
H36 C30 1_555 1_555
H37 C30 1_555 1_555
C31 C22 1_555 1_555
H38 C31 1_555 1_555
H39 C31 1_555 1_555
H40 C31 1_555 1_555
C32 C24 1_555 1_555
H41 C32 1_555 1_555
H42 C32 1_555 1_555
H43 C32 1_555 1_555
O4 C2 1_555 1_555
O5 C29 1_555 1_555
N1 C2 1_555 1_555
C5 C8 1_555 1_555
C6 C16 1_555 1_555
C6 N1 1_555 1_555
C10 C12 1_555 1_555
C13 C14 1_555 1_555
C14 C15 1_555 1_555
C26 C27 1_555 1_555
C27 C28 1_555 1_555
C28 C29 1_555 1_555

#END
