
#######################################################################
#
#                 Cambridge Crystallographic Data Centre
#                                CCDC 
#
#######################################################################
#
# If this CIF has been generated from an entry in the Cambridge 
# Structural Database, then it will include bibliographic, chemical, 
# crystal, experimental, refinement or atomic coordinate data resulting 
# from the CCDC's data processing and validation procedures.
#
#######################################################################

data_DETSIH
_chemical_formula_moiety         'C20 H17 N3,4.25(H2 O1)'
_chemical_name_systematic        
'pentacyclo[6.6.6.0^2,7^.0^9,14^.0^15,20^]icosa-2,4,6,9,11,13,15,17,19-nonaene-4,12,17-triamine hydrate'
_symmetry_cell_setting           cubic
_symmetry_space_group_name_H-M   'F d -3'
_symmetry_Int_Tables_number      203
_space_group_name_Hall           '-F 2uv 2vw 3'
loop_
_symmetry_equiv_pos_site_id
_symmetry_equiv_pos_as_xyz
1 x,y,z
2 1/4-x,1/4-y,z
3 1/4-x,y,1/4-z
4 x,1/4-y,1/4-z
5 z,x,y
6 z,1/4-x,1/4-y
7 1/4-z,1/4-x,y
8 1/4-z,x,1/4-y
9 y,z,x
10 1/4-y,z,1/4-x
11 y,1/4-z,1/4-x
12 1/4-y,1/4-z,x
13 x,1/2+y,1/2+z
14 1/4-x,3/4-y,1/2+z
15 1/4-x,1/2+y,3/4-z
16 x,3/4-y,3/4-z
17 z,1/2+x,1/2+y
18 z,3/4-x,3/4-y
19 1/4-z,3/4-x,1/2+y
20 1/4-z,1/2+x,3/4-y
21 y,1/2+z,1/2+x
22 1/4-y,1/2+z,3/4-x
23 y,3/4-z,3/4-x
24 1/4-y,3/4-z,1/2+x
25 1/2+x,y,1/2+z
26 3/4-x,1/4-y,1/2+z
27 3/4-x,y,3/4-z
28 1/2+x,1/4-y,3/4-z
29 1/2+z,x,1/2+y
30 1/2+z,1/4-x,3/4-y
31 3/4-z,1/4-x,1/2+y
32 3/4-z,x,3/4-y
33 1/2+y,z,1/2+x
34 3/4-y,z,3/4-x
35 1/2+y,1/4-z,3/4-x
36 3/4-y,1/4-z,1/2+x
37 1/2+x,1/2+y,z
38 3/4-x,3/4-y,z
39 3/4-x,1/2+y,1/4-z
40 1/2+x,3/4-y,1/4-z
41 1/2+z,1/2+x,y
42 1/2+z,3/4-x,1/4-y
43 3/4-z,3/4-x,y
44 3/4-z,1/2+x,1/4-y
45 1/2+y,1/2+z,x
46 3/4-y,1/2+z,1/4-x
47 1/2+y,3/4-z,1/4-x
48 3/4-y,3/4-z,x
49 -x,-y,-z
50 3/4+x,3/4+y,-z
51 3/4+x,-y,3/4+z
52 -x,3/4+y,3/4+z
53 -z,-x,-y
54 -z,3/4+x,3/4+y
55 3/4+z,3/4+x,-y
56 3/4+z,-x,3/4+y
57 -y,-z,-x
58 3/4+y,-z,3/4+x
59 -y,3/4+z,3/4+x
60 3/4+y,3/4+z,-x
61 -x,1/2-y,1/2-z
62 3/4+x,1/4+y,1/2-z
63 3/4+x,1/2-y,1/4+z
64 -x,1/4+y,1/4+z
65 -z,1/2-x,1/2-y
66 -z,1/4+x,1/4+y
67 3/4+z,1/4+x,1/2-y
68 3/4+z,1/2-x,1/4+y
69 -y,1/2-z,1/2-x
70 3/4+y,1/2-z,1/4+x
71 -y,1/4+z,1/4+x
72 3/4+y,1/4+z,1/2-x
73 1/2-x,-y,1/2-z
74 1/4+x,3/4+y,1/2-z
75 1/4+x,-y,1/4+z
76 1/2-x,3/4+y,1/4+z
77 1/2-z,-x,1/2-y
78 1/2-z,3/4+x,1/4+y
79 1/4+z,3/4+x,1/2-y
80 1/4+z,-x,1/4+y
81 1/2-y,-z,1/2-x
82 1/4+y,-z,1/4+x
83 1/2-y,3/4+z,1/4+x
84 1/4+y,3/4+z,1/2-x
85 1/2-x,1/2-y,-z
86 1/4+x,1/4+y,-z
87 1/4+x,1/2-y,3/4+z
88 1/2-x,1/4+y,3/4+z
89 1/2-z,1/2-x,-y
90 1/2-z,1/4+x,3/4+y
91 1/4+z,1/4+x,-y
92 1/4+z,1/2-x,3/4+y
93 1/2-y,1/2-z,-x
94 1/4+y,1/2-z,3/4+x
95 1/2-y,1/4+z,3/4+x
96 1/4+y,1/4+z,-x
_cell_length_a                   25.5160(3)
_cell_length_b                   25.5160(3)
_cell_length_c                   25.5160(3)
_cell_angle_alpha                90
_cell_angle_beta                 90
_cell_angle_gamma                90
_cell_volume                     16612.6
_exptl_crystal_colour            yellow
_exptl_crystal_description       block
_cell_formula_units_Z            32
loop_
_atom_site_label
_atom_site_type_symbol
_atom_site_fract_x
_atom_site_fract_y
_atom_site_fract_z
N1 N 0.89483(15) 0.25746(15) -0.38332(17)
H1 H 0.9063 0.2475 -0.4143
H2 H 0.9148 0.2769 -0.3630
C1 C 0.77853(13) 0.24015(13) -0.29929(14)
C2 C 0.82768(15) 0.25649(14) -0.31606(16)
H3 H 0.8494 0.2770 -0.2938
C3 C 0.84486(14) 0.24235(13) -0.36634(15)
C4 C 0.81275(18) 0.21200(16) -0.39711(16)
H4 H 0.8242 0.2022 -0.4312
C5 C 0.76416(16) 0.19530(16) -0.37975(16)
H5 H 0.7428 0.1741 -0.4016
C6 C 0.74694(14) 0.20971(13) -0.33045(14)
C7 C 0.75361(15) 0.25361(15) -0.24639(15)
H6 H 0.7762 0.2762 -0.2238
C8 C 0.69551(16) 0.19551(16) -0.30449(16)
H7 H 0.6729 0.1729 -0.3271
N1P N 0.61668(17) 0.39483(15) -0.24254(15)
H1P H 0.5857 0.4063 -0.2525
H2P H 0.6370 0.4148 -0.2231
C1P C 0.70071(14) 0.27853(13) -0.25985(13)
C2P C 0.68394(16) 0.32768(15) -0.24351(14)
H3P H 0.7062 0.3494 -0.2230
C3P C 0.63366(15) 0.34486(14) -0.25765(13)
C4P C 0.60289(16) 0.31275(18) -0.28800(16)
H4P H 0.5688 0.3242 -0.2978
C5P C 0.62025(16) 0.26416(16) -0.30470(16)
H5P H 0.5984 0.2428 -0.3259
C6P C 0.66955(14) 0.24694(14) -0.29029(13)
N1RA N 0.75746(15) 0.11668(17) -0.10517(15)
H1RA H 0.7475 0.0857 -0.0937
H2RA H 0.7769 0.1370 -0.0852
C1RA C 0.74015(13) 0.20071(14) -0.22147(13)
C2RA C 0.75649(14) 0.18394(16) -0.17232(15)
H3RA H 0.7770 0.2062 -0.1506
C3RA C 0.74235(13) 0.13366(15) -0.15514(14)
C4RA C 0.71200(16) 0.10289(16) -0.18725(18)
H4RA H 0.7022 0.0688 -0.1758
C5RA C 0.69530(16) 0.12025(16) -0.23584(16)
H5RA H 0.6741 0.0984 -0.2572
C6RA C 0.70971(13) 0.16955(14) -0.25306(14)
O1 O 0.93875(13) 0.31125(13) -0.18875(13)
O2 O 0.90467(14) 0.20769(14) -0.17144(13)
H8 H 0.8909 0.1927 -0.1978
H9 H 0.8804 0.2305 -0.1721
O3? O 0.8750 0.3750 -0.1250
H10? H 0.8749 0.3750 -0.0917
H11? H 0.9579 0.2921 -0.2080
H12? H 0.9263 0.2935 -0.1634
loop_
_geom_bond_atom_site_label_1
_geom_bond_atom_site_label_2
_geom_bond_site_symmetry_1
_geom_bond_site_symmetry_2
N1 H1 1_555 1_555
H2 N1 1_555 1_555
C1 C2 1_555 1_555
C2 H3 1_555 1_555
C3 N1 1_555 1_555
C4 C3 1_555 1_555
H4 C4 1_555 1_555
C5 C4 1_555 1_555
H5 C5 1_555 1_555
C6 C1 1_555 1_555
C7 C1 1_555 1_555
H6 C7 1_555 1_555
C8 C6 1_555 1_555
H7 C8 1_555 1_555
O2 H8 1_555 1_555
H9 O2 1_555 1_555
N1P H1P 1_555 1_555
H2P N1P 1_555 1_555
C1P C7 1_555 1_555
C2P C1P 1_555 1_555
H3P C2P 1_555 1_555
C3P N1P 1_555 1_555
C4P C3P 1_555 1_555
H4P C4P 1_555 1_555
C5P C4P 1_555 1_555
H5P C5P 1_555 1_555
C6P C8 1_555 1_555
N1RA H1RA 1_555 1_555
H2RA N1RA 1_555 1_555
C1RA C7 1_555 1_555
C2RA C1RA 1_555 1_555
H3RA C2RA 1_555 1_555
C3RA N1RA 1_555 1_555
C4RA C3RA 1_555 1_555
H4RA C4RA 1_555 1_555
C5RA C4RA 1_555 1_555
H5RA C5RA 1_555 1_555
C6RA C8 1_555 1_555
C2 C3 1_555 1_555
C5 C6 1_555 1_555
C1P C6P 1_555 1_555
C2P C3P 1_555 1_555
C5P C6P 1_555 1_555
C1RA C6RA 1_555 1_555
C2RA C3RA 1_555 1_555
C5RA C6RA 1_555 1_555

#END
