
#######################################################################
#
#                 Cambridge Crystallographic Data Centre
#                                CCDC 
#
#######################################################################
#
# If this CIF has been generated from an entry in the Cambridge 
# Structural Database, then it will include bibliographic, chemical, 
# crystal, experimental, refinement or atomic coordinate data resulting 
# from the CCDC's data processing and validation procedures.
#
#######################################################################

data_DETTUU
_chemical_compound_source        'leaves and stems of Premna szemaoensis'
_chemical_name_common            'szemaoenoid C unknown solvate hydrate'
_chemical_formula_moiety         'C26 H36 O11,0.25(H2 O1)'
_chemical_name_systematic        
'5,8-dihydroxy-1-(hydroxymethyl)-7-(2-hydroxypropyl)-2,4a-dimethyl-6-{[3,4,5-trihydroxy-6-(hydroxymethyl)oxan-2-yl]oxy}-4,4a,10,10a-tetrahydrophenanthren-9(3H)-one unknown solvate hydrate'
_symmetry_cell_setting           orthorhombic
_symmetry_space_group_name_H-M   'P 21 21 21'
_symmetry_Int_Tables_number      19
_space_group_name_Hall           'P 2ac 2ab'
loop_
_symmetry_equiv_pos_site_id
_symmetry_equiv_pos_as_xyz
1 x,y,z
2 1/2+x,1/2-y,-z
3 -x,1/2+y,1/2-z
4 1/2-x,-y,1/2+z
_cell_length_a                   17.5477(6)
_cell_length_b                   21.7199(7)
_cell_length_c                   33.3592(12)
_cell_angle_alpha                90
_cell_angle_beta                 90
_cell_angle_gamma                90
_cell_volume                     12714.3
_exptl_crystal_colour            yellow
_exptl_crystal_description       block
_cell_formula_units_Z            16
loop_
_atom_site_label
_atom_site_type_symbol
_atom_site_fract_x
_atom_site_fract_y
_atom_site_fract_z
C1 C -0.0170(2) 0.4140(2) 0.71270(15)
H1 H -0.0686 0.4061 0.7235
H2 H -0.0216 0.4224 0.6836
C2 C 0.1086(3) 0.3771(2) 0.65467(13)
H3 H 0.0854 0.3402 0.6429
H4 H 0.1600 0.3826 0.6438
H5 H 0.0774 0.4132 0.6482
O1 O 0.5506(2) 0.4114(2) 0.83484(12)
H6 H 0.5890 0.4306 0.8431
C3 C 0.1242(3) 0.2537(2) 0.69247(15)
H7 H 0.1379 0.2529 0.6637
H8 H 0.1470 0.2168 0.7051
O2 O -0.1243(3) 0.3118(2) 0.67861(15)
H9 H -0.1544 0.2845 0.6705
O3 O 0.4907(3) 0.5753(2) 0.83549(15)
H10 H 0.4970 0.6027 0.8529
O4 O 0.08941(18) 0.57312(14) 0.76866(9)
H11 H 0.0436 0.5680 0.7621
O5 O -0.02525(17) 0.50825(16) 0.74897(11)
O6 O 0.33331(15) 0.49970(14) 0.73187(9)
O7 O 0.39906(18) 0.50612(15) 0.79006(9)
O8 O 0.5570(3) 0.3719(3) 0.75373(16)
H12 H 0.5848 0.3979 0.7421
O9 O 0.3009(2) 0.63641(14) 0.71407(10)
H13 H 0.3437 0.6276 0.7238
O10 O 0.42121(19) 0.40033(19) 0.70816(11)
H14 H 0.4470 0.4064 0.6873
O11 O 0.27109(17) 0.40199(14) 0.69502(10)
H15 H 0.3156 0.4163 0.6952
C4 C 0.0993(2) 0.4742(2) 0.73599(12)
C5 C 0.1320(2) 0.52777(19) 0.75292(12)
C6 C 0.2551(2) 0.4924(2) 0.73513(12)
C7 C 0.0183(2) 0.4695(2) 0.73382(13)
C8 C 0.3768(2) 0.4656(2) 0.75992(13)
H16 H 0.3454 0.4315 0.7714
C9 C -0.0018(3) 0.2963(2) 0.70796(15)
C10 C 0.2484(3) 0.6486(2) 0.74583(14)
H17 H 0.1967 0.6553 0.7339
C11 C 0.1591(2) 0.31075(18) 0.71137(13)
H18 H 0.2123 0.3154 0.7019
H19 H 0.1603 0.3058 0.7409
C12 C 0.2447(3) 0.5931(2) 0.77346(13)
H20 H 0.2966 0.5837 0.7833
H21 H 0.2127 0.6034 0.7970
C13 C 0.2124(2) 0.5366(2) 0.75325(12)
C14 C 0.1469(2) 0.42777(19) 0.71813(12)
C15 C 0.2247(2) 0.43982(19) 0.71560(12)
C16 C 0.1132(2) 0.36946(19) 0.70057(12)
C17 C 0.0333(2) 0.3588(2) 0.71950(14)
H22 H 0.0419 0.3569 0.7491
C18 C 0.0400(3) 0.2499(2) 0.69620(14)
C19 C 0.4430(3) 0.4760(2) 0.82084(13)
H23 H 0.4106 0.4430 0.8330
C20 C 0.2722(3) 0.7071(2) 0.76792(19)
H24 H 0.3262 0.7043 0.7752
H25 H 0.2415 0.7116 0.7923
H26 H 0.2642 0.7428 0.7505
C21 C 0.4469(3) 0.4395(3) 0.73877(16)
H27 H 0.4789 0.4734 0.7275
C22 C 0.4572(3) 0.5250(2) 0.85265(16)
H28 H 0.4084 0.5371 0.8652
H29 H 0.4909 0.5083 0.8738
C23 C 0.5143(3) 0.4460(3) 0.80413(16)
H30 H 0.5498 0.4782 0.7937
C24 C -0.0856(3) 0.2904(3) 0.71366(18)
H31 H -0.0989 0.2468 0.7187
H32 H -0.1017 0.3149 0.7372
C25 C 0.4922(3) 0.4023(3) 0.77070(18)
H33 H 0.4576 0.3702 0.7821
C26 C 0.0081(4) 0.1873(3) 0.68316(18)
H34 H 0.0103 0.1586 0.7057
H35 H 0.0386 0.1712 0.6609
H36 H -0.0449 0.1923 0.6745
O12 O 0.2427(2) 0.26191(15) 1.00176(12)
O13 O 0.0975(4) 0.6718(2) 1.10047(17)
H37 H 0.0714 0.6459 1.0878
O14 O 0.2704(3) 0.75775(18) 0.98972(14)
H38 H 0.3158 0.7675 0.9849
C27 C 0.6214(3) 0.3448(2) 0.92910(15)
H39 H 0.6504 0.3222 0.9495
H40 H 0.6476 0.3835 0.9229
H41 H 0.6176 0.3198 0.9047
O15 O 0.4753(2) 0.22474(17) 0.90950(11)
H42 H 0.4762 0.2527 0.8921
O16 O 0.1818(2) 0.60230(16) 1.04362(10)
O17 O 0.32057(17) 0.51742(13) 0.94709(9)
H43 H 0.3663 0.5173 0.9546
O18 O 0.2591(3) 0.75019(19) 1.07545(13)
H44 H 0.3029 0.7379 1.0819
O19 O 0.2755(2) 0.63920(18) 0.95016(11)
H45 H 0.3167 0.6222 0.9567
O20 O 0.1433(2) 0.34114(17) 1.02086(10)
H46 H 0.1332 0.3142 1.0036
O21 O 0.18666(18) 0.54932(14) 0.98493(9)
C28 C 0.3801(2) 0.3973(2) 0.90673(12)
H47 H 0.3416 0.3675 0.8980
H48 H 0.4295 0.3866 0.8950
H49 H 0.3653 0.4387 0.8979
C29 C 0.1897(3) 0.3839(2) 1.00468(13)
C30 C 0.2815(3) 0.3018(2) 0.98499(14)
C31 C 0.5427(3) 0.3585(2) 0.94478(13)
C32 C 0.2121(3) 0.4883(2) 0.98728(13)
C33 C 0.4914(3) 0.3150(2) 0.95275(13)
C34 C 0.2600(3) 0.3675(2) 0.98772(13)
C35 C 0.3079(2) 0.41369(18) 0.97057(11)
C36 C 0.3862(2) 0.39618(18) 0.95326(12)
C37 C 0.5269(2) 0.4256(2) 0.95005(13)
H50 H 0.5314 0.4460 0.9236
H51 H 0.5666 0.4432 0.9677
O22 O -0.0310(4) 0.5107(6) 1.0118(3)
H52 H -0.0137 0.5462 1.0159
C38 C 0.4487(2) 0.44080(19) 0.96768(13)
H53 H 0.4346 0.4833 0.9600
H54 H 0.4518 0.4391 0.9973
C39 C 0.2804(2) 0.4733(2) 0.96819(12)
C40 C 0.3503(3) 0.2842(2) 0.96130(15)
H55 H 0.3373 0.2819 0.9325
H56 H 0.3691 0.2434 0.9700
C41 C 0.2255(3) 0.5925(2) 1.00886(14)
H57 H 0.2772 0.5766 1.0161
C42 C 0.1659(2) 0.4446(2) 1.00543(13)
C43 C 0.4108(3) 0.33244(19) 0.96808(13)
H58 H 0.4158 0.3363 0.9978
C44 C 0.2173(4) 0.6466(2) 1.07065(15)
H59 H 0.2692 0.6313 1.0780
C45 C 0.2689(3) 0.7016(2) 1.01029(18)
H60 H 0.3225 0.6892 1.0164
C46 C 0.0914(3) 0.4643(3) 1.02445(16)
H61 H 0.0997 0.5032 1.0392
H62 H 0.0757 0.4326 1.0441
C47 C 0.2322(3) 0.6513(3) 0.98490(15)
H63 H 0.1800 0.6649 0.9767
C48 C 0.2251(3) 0.7071(2) 1.04975(17)
H64 H 0.1727 0.7223 1.0433
C49 C 0.5069(3) 0.2478(2) 0.94662(16)
H65 H 0.5627 0.2408 0.9466
H66 H 0.4849 0.2243 0.9693
C50 C 0.1686(5) 0.6479(3) 1.10772(18)
H67 H 0.1632 0.6055 1.1183
H68 H 0.1942 0.6731 1.1285
C51 C -0.0043(4) 0.4137(4) 0.97856(18)
H69 H 0.0380 0.3873 0.9702
H70 H -0.0377 0.4217 0.9556
H71 H -0.0334 0.3932 0.9998
C52 C 0.0265(4) 0.4736(4) 0.9941(2)
H72 H 0.0478 0.4969 0.9708
O23 O 0.5447(3) 0.6105(2) 0.06746(17)
H73 H 0.5254 0.5773 0.0756
C53 C 0.1175(3) 0.4337(2) 0.13537(14)
H74 H 0.0893 0.3947 0.1361
H75 H 0.0904 0.4631 0.1183
H76 H 0.1217 0.4504 0.1626
O24 O 0.7962(2) 0.3775(2) 0.04260(17)
H77 H 0.8323 0.3667 0.0576
C54 C 0.7237(3) 0.3238(3) 0.09388(15)
H78 H 0.7396 0.2864 0.0798
H79 H 0.6718 0.3184 0.1042
H80 H 0.7585 0.3318 0.1163
O25 O 0.6582(4) 0.5172(2) 0.00375(17)
O26 O 0.60907(17) 0.49311(14) 0.06384(10)
O27 O 0.18644(17) 0.27935(13) 0.15426(9)
H81 H 0.1709 0.2429 0.1525
O28 O 0.47246(17) 0.50942(13) 0.09868(9)
H82 H 0.4989 0.5358 0.0866
O29 O 0.43455(19) 0.23817(14) 0.07359(11)
O30 O 0.56032(19) 0.27982(13) 0.04752(10)
H83 H 0.5450 0.2719 0.0242
C55 C 0.3054(2) 0.35909(17) 0.09644(12)
H84 H 0.3017 0.3585 0.0665
C56 C 0.3446(2) 0.29868(18) 0.10808(13)
H85 H 0.3559 0.2989 0.1371
H86 H 0.3100 0.2637 0.1025
C57 C 0.1958(2) 0.42256(19) 0.11867(13)
C58 C 0.2249(2) 0.36656(19) 0.11139(12)
C59 C 0.3586(2) 0.41364(18) 0.10678(12)
C60 C 0.4621(2) 0.34507(18) 0.07671(12)
C61 C 0.5601(2) 0.44257(19) 0.06576(12)
O31 O 0.6248(3) 0.7012(2) 0.01820(18)
H87 H 0.5863 0.7229 0.0131
C62 C 0.6619(3) 0.3760(2) 0.03486(14)
H88 H 0.6708 0.4085 0.0146
H89 H 0.6626 0.3358 0.0208
C63 C 0.3691(2) 0.42056(18) 0.15255(12)
H90 H 0.4043 0.3889 0.1623
H91 H 0.3197 0.4158 0.1659
H92 H 0.3899 0.4614 0.1585
C64 C 0.5856(2) 0.3853(2) 0.05320(12)
C65 C 0.1778(3) 0.3096(2) 0.11595(14)
H93 H 0.1235 0.3205 0.1122
H94 H 0.1919 0.2802 0.0945
C66 C 0.4376(2) 0.40434(18) 0.08763(12)
C67 C 0.2405(2) 0.48058(19) 0.11098(13)
H95 H 0.2502 0.5012 0.1369
H96 H 0.2091 0.5087 0.0945
C68 C 0.5350(2) 0.33654(18) 0.05862(12)
C69 C 0.6482(8) 0.5563(4) -0.0336(2)
H97 H 0.5941 0.5556 -0.0430
C70 C 0.3163(2) 0.47061(18) 0.08992(13)
H98 H 0.3486 0.5076 0.0934
H99 H 0.3073 0.4649 0.0609
C71 C 0.4883(2) 0.45253(19) 0.08387(12)
C72 C 0.4162(2) 0.29078(19) 0.08516(13)
C73 C 0.6023(4) 0.5308(3) 0.03066(16)
H100 H 0.5513 0.5244 0.0179
C74 C 0.7255(3) 0.3774(3) 0.06531(17)
H101 H 0.7220 0.4165 0.0810
C75 C 0.6098(3) 0.5974(2) 0.04388(17)
H102 H 0.6575 0.6034 0.0599
O32 O 0.6659(6) 0.6536(3) -0.05852(16)
H103 H 0.6842 0.6890 -0.0550
C76 C 0.6097(5) 0.6388(3) 0.0074(2)
H104 H 0.5589 0.6363 -0.0061
C77 C 0.6712(7) 0.6191(3) -0.0218(2)
H105 H 0.7233 0.6205 -0.0097
C78 C 0.6999(9) 0.5336(5) -0.0651(4)
H106 H 0.6877 0.4903 -0.0718
H107 H 0.6947 0.5588 -0.0896
O33 O 0.7770(7) 0.5382(5) -0.0493(4)
H108 H 0.7756 0.5378 -0.0241
C79 C 0.0994(3) 0.0722(2) 0.83703(15)
H109 H 0.0502 0.0645 0.8240
H110 H 0.0960 0.1096 0.8533
H111 H 0.1125 0.0372 0.8542
C80 C 0.1116(3) 0.5711(2) 0.88061(16)
H112 H 0.0595 0.5812 0.8889
H113 H 0.1278 0.5995 0.8594
H114 H 0.1459 0.5749 0.9037
O34 O -0.0707(3) 0.4911(2) 0.88733(17)
H115 H -0.0588 0.5162 0.9055
O35 O 0.27508(17) 0.19814(13) 0.79659(9)
O36 O 0.5149(2) 0.24714(17) 0.73663(15)
H116 H 0.5333 0.2763 0.7232
O37 O 0.27234(16) 0.30514(14) 0.83792(9)
H117 H 0.3066 0.2783 0.8356
O38 O 0.40573(18) 0.26843(16) 0.80057(11)
H118 H 0.4422 0.2575 0.8153
O39 O 0.4380(3) 0.2341(2) 0.65861(14)
H119 H 0.4674 0.2635 0.6640
O40 O 0.17207(19) 0.02349(14) 0.78514(12)
H120 H 0.1346 0.0160 0.7703
O41 O 0.3347(3) 0.0925(2) 0.67024(14)
H121 H 0.3370 0.0864 0.6951
O42 O 0.29596(19) 0.17897(15) 0.73067(10)
O43 O -0.06648(17) 0.28155(16) 0.82048(11)
O44 O 0.00593(18) 0.19121(14) 0.79327(10)
H122 H -0.0179 0.1822 0.8143
C81 C 0.0703(2) 0.22207(18) 0.80285(12)
C82 C 0.2045(2) 0.28171(19) 0.82450(12)
C83 C 0.1428(3) 0.36443(19) 0.89725(12)
H123 H 0.1949 0.3504 0.9026
H124 H 0.1065 0.3329 0.9061
H125 H 0.1332 0.4028 0.9118
C84 C 0.0674(2) 0.28138(18) 0.82150(12)
C85 C 0.1394(3) 0.19399(18) 0.79394(12)
C86 C -0.0057(2) 0.3081(2) 0.83059(13)
C87 C 0.3116(2) 0.2207(2) 0.76184(14)
H126 H 0.2908 0.2622 0.7549
C88 C 0.0517(3) 0.4744(2) 0.85477(14)
C89 C 0.3959(3) 0.2254(2) 0.76966(16)
H127 H 0.4161 0.1844 0.7783
C90 C 0.1601(3) 0.0803(2) 0.80550(15)
H128 H 0.2086 0.0917 0.8193
C91 C 0.1141(3) 0.5061(2) 0.86504(13)
C92 C 0.1420(3) 0.13054(19) 0.77472(13)
H129 H 0.1813 0.1302 0.7534
H130 H 0.0921 0.1217 0.7621
C93 C 0.1370(2) 0.31230(18) 0.83167(11)
C94 C 0.2053(2) 0.22536(19) 0.80465(12)
C95 C 0.1329(2) 0.37575(17) 0.85173(11)
C96 C -0.0098(2) 0.3675(2) 0.85216(14)
H131 H -0.0090 0.3601 0.8814
H132 H -0.0580 0.3887 0.8454
C97 C 0.1922(3) 0.48068(19) 0.86043(13)
H133 H 0.2146 0.4746 0.8874
H134 H 0.2240 0.5113 0.8461
C98 C 0.1956(2) 0.42016(19) 0.83787(12)
H135 H 0.2460 0.4008 0.8422
H136 H 0.1897 0.4281 0.8088
C99 C 0.0579(2) 0.40809(19) 0.84040(13)
H137 H 0.0573 0.4101 0.8105
C100 C 0.3270(4) 0.1983(3) 0.69268(16)
H138 H 0.3036 0.2386 0.6851
C101 C -0.0264(3) 0.5030(2) 0.85260(17)
H139 H -0.0210 0.5481 0.8492
H140 H -0.0534 0.4868 0.8288
C102 C 0.4345(3) 0.2450(2) 0.73100(18)
H141 H 0.4174 0.2881 0.7253
C103 C 0.3013(5) 0.1495(3) 0.66293(17)
H142 H 0.2452 0.1453 0.6644
H143 H 0.3146 0.1631 0.6355
C104 C 0.4117(4) 0.2062(3) 0.6954(2)
H144 H 0.4358 0.1646 0.6981
O45 O 0.0406(3) 0.2177(3) 0.15916(16)
loop_
_geom_bond_atom_site_label_1
_geom_bond_atom_site_label_2
_geom_bond_site_symmetry_1
_geom_bond_site_symmetry_2
C1 H1 1_555 1_555
H2 C1 1_555 1_555
C2 H3 1_555 1_555
H4 C2 1_555 1_555
H5 C2 1_555 1_555
O1 H6 1_555 1_555
C3 H7 1_555 1_555
H8 C3 1_555 1_555
O2 H9 1_555 1_555
O3 H10 1_555 1_555
O4 H11 1_555 1_555
O5 C7 1_555 1_555
O6 C6 1_555 1_555
O7 C8 1_555 1_555
O8 H12 1_555 1_555
O9 H13 1_555 1_555
O10 H14 1_555 1_555
O11 H15 1_555 1_555
C4 C5 1_555 1_555
C5 O4 1_555 1_555
C6 C13 1_555 1_555
C7 C1 1_555 1_555
C8 O6 1_555 1_555
H16 C8 1_555 1_555
C9 C17 1_555 1_555
C10 O9 1_555 1_555
H17 C10 1_555 1_555
C11 C3 1_555 1_555
H18 C11 1_555 1_555
H19 C11 1_555 1_555
C12 C10 1_555 1_555
H20 C12 1_555 1_555
H21 C12 1_555 1_555
C13 C5 1_555 1_555
C14 C4 1_555 1_555
C15 O11 1_555 1_555
C16 C2 1_555 1_555
C17 C1 1_555 1_555
H22 C17 1_555 1_555
C18 C3 1_555 1_555
C19 O7 1_555 1_555
H23 C19 1_555 1_555
C20 C10 1_555 1_555
H24 C20 1_555 1_555
H25 C20 1_555 1_555
H26 C20 1_555 1_555
C21 O10 1_555 1_555
H27 C21 1_555 1_555
C22 O3 1_555 1_555
H28 C22 1_555 1_555
H29 C22 1_555 1_555
C23 O1 1_555 1_555
H30 C23 1_555 1_555
C24 O2 1_555 1_555
H31 C24 1_555 1_555
H32 C24 1_555 1_555
C25 O8 1_555 1_555
H33 C25 1_555 1_555
C26 C18 1_555 1_555
H34 C26 1_555 1_555
H35 C26 1_555 1_555
H36 C26 1_555 1_555
O12 C30 1_555 1_555
O13 H37 1_555 1_555
O14 H38 1_555 1_555
C27 H39 1_555 1_555
H40 C27 1_555 1_555
H41 C27 1_555 1_555
O15 H42 1_555 1_555
O16 C41 1_555 1_555
O17 H43 1_555 1_555
O18 H44 1_555 1_555
O19 H45 1_555 1_555
O20 H46 1_555 1_555
O21 C32 1_555 1_555
C28 H47 1_555 1_555
H48 C28 1_555 1_555
H49 C28 1_555 1_555
C29 O20 1_555 1_555
C30 C34 1_555 1_555
C31 C27 1_555 1_555
C32 C39 1_555 1_555
C33 C31 1_555 1_555
C34 C29 1_555 1_555
C35 C34 1_555 1_555
C36 C28 1_555 1_555
C37 C31 1_555 1_555
H50 C37 1_555 1_555
H51 C37 1_555 1_555
O22 H52 1_555 1_555
C38 C36 1_555 1_555
H53 C38 1_555 1_555
H54 C38 1_555 1_555
C39 O17 1_555 1_555
C40 C30 1_555 1_555
H55 C40 1_555 1_555
H56 C40 1_555 1_555
C41 O21 1_555 1_555
H57 C41 1_555 1_555
C42 C29 1_555 1_555
C43 C33 1_555 1_555
H58 C43 1_555 1_555
C44 O16 1_555 1_555
H59 C44 1_555 1_555
C45 O14 1_555 1_555
H60 C45 1_555 1_555
C46 C42 1_555 1_555
H61 C46 1_555 1_555
H62 C46 1_555 1_555
C47 O19 1_555 1_555
H63 C47 1_555 1_555
C48 O18 1_555 1_555
H64 C48 1_555 1_555
C49 O15 1_555 1_555
H65 C49 1_555 1_555
H66 C49 1_555 1_555
C50 O13 1_555 1_555
H67 C50 1_555 1_555
H68 C50 1_555 1_555
C51 H69 1_555 1_555
H70 C51 1_555 1_555
H71 C51 1_555 1_555
C52 O22 1_555 1_555
H72 C52 1_555 1_555
O23 H73 1_555 1_555
C53 H74 1_555 1_555
H75 C53 1_555 1_555
H76 C53 1_555 1_555
O24 H77 1_555 1_555
C54 H78 1_555 1_555
H79 C54 1_555 1_555
H80 C54 1_555 1_555
O25 C69 1_555 1_555
O26 C61 1_555 1_555
O27 H81 1_555 1_555
O28 H82 1_555 1_555
O29 C72 1_555 1_555
O30 H83 1_555 1_555
C55 H84 1_555 1_555
C56 C55 1_555 1_555
H85 C56 1_555 1_555
H86 C56 1_555 1_555
C57 C53 1_555 1_555
C58 C55 1_555 1_555
C59 C55 1_555 1_555
C60 C66 1_555 1_555
C61 C64 1_555 1_555
O31 H87 1_555 1_555
C62 H88 1_555 1_555
H89 C62 1_555 1_555
C63 C59 1_555 1_555
H90 C63 1_555 1_555
H91 C63 1_555 1_555
H92 C63 1_555 1_555
C64 C62 1_555 1_555
C65 O27 1_555 1_555
H93 C65 1_555 1_555
H94 C65 1_555 1_555
C66 C59 1_555 1_555
C67 C57 1_555 1_555
H95 C67 1_555 1_555
H96 C67 1_555 1_555
C68 O30 1_555 1_555
C69 H97 1_555 1_555
C70 C59 1_555 1_555
H98 C70 1_555 1_555
H99 C70 1_555 1_555
C71 O28 1_555 1_555
C72 C56 1_555 1_555
C73 O25 1_555 1_555
H100 C73 1_555 1_555
C74 O24 1_555 1_555
H101 C74 1_555 1_555
C75 O23 1_555 1_555
H102 C75 1_555 1_555
O32 H103 1_555 1_555
C76 O31 1_555 1_555
H104 C76 1_555 1_555
C77 C69 1_555 1_555
H105 C77 1_555 1_555
C78 C69 1_555 1_555
H106 C78 1_555 1_555
H107 C78 1_555 1_555
O33 C78 1_555 1_555
H108 O33 1_555 1_555
C79 H109 1_555 1_555
H110 C79 1_555 1_555
H111 C79 1_555 1_555
C80 H112 1_555 1_555
H113 C80 1_555 1_555
H114 C80 1_555 1_555
O34 H115 1_555 1_555
O35 C87 1_555 1_555
O36 H116 1_555 1_555
O37 H117 1_555 1_555
O38 H118 1_555 1_555
O39 H119 1_555 1_555
O40 H120 1_555 1_555
O41 H121 1_555 1_555
O42 C87 1_555 1_555
O43 C86 1_555 1_555
O44 H122 1_555 1_555
C81 O44 1_555 1_555
C82 O37 1_555 1_555
C83 H123 1_555 1_555
H124 C83 1_555 1_555
H125 C83 1_555 1_555
C84 C81 1_555 1_555
C85 C81 1_555 1_555
C86 C84 1_555 1_555
C87 H126 1_555 1_555
C88 C91 1_555 1_555
C89 O38 1_555 1_555
H127 C89 1_555 1_555
C90 C79 1_555 1_555
H128 C90 1_555 1_555
C91 C80 1_555 1_555
C92 C85 1_555 1_555
H129 C92 1_555 1_555
H130 C92 1_555 1_555
C93 C82 1_555 1_555
C94 O35 1_555 1_555
C95 C83 1_555 1_555
C96 C86 1_555 1_555
H131 C96 1_555 1_555
H132 C96 1_555 1_555
C97 C91 1_555 1_555
H133 C97 1_555 1_555
H134 C97 1_555 1_555
C98 C95 1_555 1_555
H135 C98 1_555 1_555
H136 C98 1_555 1_555
C99 C88 1_555 1_555
H137 C99 1_555 1_555
C100 O42 1_555 1_555
H138 C100 1_555 1_555
C101 O34 1_555 1_555
H139 C101 1_555 1_555
H140 C101 1_555 1_555
C102 O36 1_555 1_555
H141 C102 1_555 1_555
C103 O41 1_555 1_555
H142 C103 1_555 1_555
H143 C103 1_555 1_555
C104 O39 1_555 1_555
H144 C104 1_555 1_555
C4 C7 1_555 1_555
C6 C15 1_555 1_555
C8 C21 1_555 1_555
C9 C18 1_555 1_555
C9 C24 1_555 1_555
C11 C16 1_555 1_555
C12 C13 1_555 1_555
C14 C15 1_555 1_555
C14 C16 1_555 1_555
C16 C17 1_555 1_555
C19 C22 1_555 1_555
C19 C23 1_555 1_555
C21 C25 1_555 1_555
C23 C25 1_555 1_555
C32 C42 1_555 1_555
C33 C49 1_555 1_555
C35 C36 1_555 1_555
C35 C39 1_555 1_555
C36 C43 1_555 1_555
C37 C38 1_555 1_555
C40 C43 1_555 1_555
C41 C47 1_555 1_555
C44 C48 1_555 1_555
C44 C50 1_555 1_555
C45 C47 1_555 1_555
C45 C48 1_555 1_555
C46 C52 1_555 1_555
C51 C52 1_555 1_555
C54 C74 1_555 1_555
O26 C73 1_555 1_555
C57 C58 1_555 1_555
C58 C65 1_555 1_555
C60 C68 1_555 1_555
C60 C72 1_555 1_555
C61 C71 1_555 1_555
C62 C74 1_555 1_555
C64 C68 1_555 1_555
C66 C71 1_555 1_555
C67 C70 1_555 1_555
C73 C75 1_555 1_555
C75 C76 1_555 1_555
O32 C77 1_555 1_555
C76 C77 1_555 1_555
O40 C90 1_555 1_555
C82 C94 1_555 1_555
C84 C93 1_555 1_555
C85 C94 1_555 1_555
C87 C89 1_555 1_555
C88 C101 1_555 1_555
C89 C102 1_555 1_555
C90 C92 1_555 1_555
C93 C95 1_555 1_555
C95 C99 1_555 1_555
C96 C99 1_555 1_555
C97 C98 1_555 1_555
C100 C103 1_555 1_555
C100 C104 1_555 1_555
C102 C104 1_555 1_555

#END
