
#######################################################################
#
#                 Cambridge Crystallographic Data Centre
#                                CCDC 
#
#######################################################################
#
# If this CIF has been generated from an entry in the Cambridge 
# Structural Database, then it will include bibliographic, chemical, 
# crystal, experimental, refinement or atomic coordinate data resulting 
# from the CCDC's data processing and validation procedures.
#
#######################################################################

data_DETWUV
_chemical_formula_moiety         'C30 H32 N4'
_chemical_name_systematic        
2,3-Dihydro-2-spiro-4'-(2'-nonyl-4'H-perimidine)perimidine
_symmetry_cell_setting           monoclinic
_symmetry_space_group_name_H-M   'P 21/c'
_symmetry_Int_Tables_number      14
_space_group_name_Hall           '-P 2ybc'
loop_
_symmetry_equiv_pos_site_id
_symmetry_equiv_pos_as_xyz
1 x,y,z
2 -x,1/2+y,1/2-z
3 -x,-y,-z
4 x,1/2-y,1/2+z
_cell_length_a                   14.761(4)
_cell_length_b                   19.822(6)
_cell_length_c                   8.316(2)
_cell_angle_alpha                90
_cell_angle_beta                 94.638(5)
_cell_angle_gamma                90
_cell_volume                     2425.23
_exptl_crystal_colour            orange
_exptl_crystal_description       plate
_cell_formula_units_Z            4
_chemical_properties_physical    light-sensitive
_exptl_crystal_preparation       'photochromic, fluorescent'
loop_
_atom_site_label
_atom_site_type_symbol
_atom_site_fract_x
_atom_site_fract_y
_atom_site_fract_z
C1 C 0.28603(18) 0.98368(11) 0.3448(3)
C2 C 0.35964(19) 0.98279(13) 0.2463(4)
H1 H 0.4177 0.9967 0.2883
C3 C 0.34602(19) 0.96164(13) 0.0897(4)
H2 H 0.3951 0.9616 0.0243
C4 C 0.26055(18) 0.94009(12) 0.0249(3)
H3 H 0.2529 0.9257 -0.0831
C5 C 0.18857(17) 0.93966(11) 0.1162(3)
C6 C 0.20064(16) 0.96263(11) 0.2779(3)
C7 C 0.12601(17) 0.96026(11) 0.3748(3)
C8 C 0.1383(2) 0.97807(13) 0.5343(3)
H4 H 0.0897 0.9750 0.6004
C9 C 0.2228(2) 1.00078(13) 0.5980(3)
H5 H 0.2299 1.0143 0.7067
C10 C 0.2948(2) 1.00403(12) 0.5085(3)
H6 H 0.3510 1.0199 0.5549
C11 C 0.03346(17) 0.89780(12) 0.1615(3)
C12 C -0.05845(17) 0.90572(14) 0.0741(3)
H7 H -0.0783 0.9496 0.0465
C13 C -0.11362(18) 0.85469(14) 0.0333(3)
H8 H -0.1699 0.8639 -0.0236
C14 C -0.09028(17) 0.78494(13) 0.0733(3)
C15 C -0.14552(18) 0.73113(15) 0.0297(4)
H9 H -0.2012 0.7383 -0.0310
C16 C -0.11867(19) 0.66508(15) 0.0761(4)
H10 H -0.1569 0.6287 0.0446
C17 C -0.03943(18) 0.65292(13) 0.1645(3)
H11 H -0.0233 0.6085 0.1940
C18 C 0.01929(16) 0.70705(11) 0.2127(3)
C19 C -0.00742(15) 0.77265(12) 0.1636(3)
C20 C 0.05264(16) 0.82449(11) 0.2127(3)
C21 C 0.14969(15) 0.74914(11) 0.3438(3)
C22 C 0.23775(16) 0.73903(11) 0.4423(3)
H12 H 0.2715 0.7030 0.3932
H13 H 0.2248 0.7239 0.5503
C23 C 0.29795(16) 0.80145(11) 0.4594(3)
H14 H 0.3115 0.8164 0.3517
H15 H 0.2642 0.8377 0.5080
C24 C 0.38605(16) 0.79049(12) 0.5603(3)
H16 H 0.4148 0.7493 0.5236
H17 H 0.3729 0.7835 0.6727
C25 C 0.45239(17) 0.84858(13) 0.5532(3)
H18 H 0.4211 0.8905 0.5777
H19 H 0.4706 0.8522 0.4428
C26 C 0.53730(17) 0.84227(13) 0.6678(3)
H20 H 0.5599 0.7959 0.6638
H21 H 0.5843 0.8720 0.6305
C27 C 0.52285(17) 0.85976(13) 0.8415(3)
H22 H 0.5080 0.9078 0.8478
H23 H 0.4706 0.8342 0.8743
C28 C 0.60369(18) 0.84514(13) 0.9584(3)
H24 H 0.6560 0.8703 0.9247
H25 H 0.6181 0.7970 0.9524
C29 C 0.59065(19) 0.86287(14) 1.1325(3)
H26 H 0.5839 0.9119 1.1417
H27 H 0.5343 0.8420 1.1630
C30 C 0.6682(2) 0.84003(14) 1.2483(3)
H28 H 0.6759 0.7916 1.2388
H29 H 0.6552 0.8511 1.3577
H30 H 0.7236 0.8626 1.2230
N1 N 0.10164(15) 0.92094(10) 0.0539(3)
H31 H 0.1015(16) 0.8976(13) -0.040(3)
N2 N 0.04105(15) 0.94272(10) 0.3013(3)
H32 H -0.0041(17) 0.9310(13) 0.377(3)
N3 N 0.12941(13) 0.81364(9) 0.3006(2)
N4 N 0.09872(14) 0.69552(9) 0.3038(2)
loop_
_geom_bond_atom_site_label_1
_geom_bond_atom_site_label_2
_geom_bond_site_symmetry_1
_geom_bond_site_symmetry_2
C1 C2 1_555 1_555
C2 H1 1_555 1_555
C3 C2 1_555 1_555
H2 C3 1_555 1_555
C4 C3 1_555 1_555
H3 C4 1_555 1_555
C5 C4 1_555 1_555
C6 C1 1_555 1_555
C7 C6 1_555 1_555
C8 C7 1_555 1_555
H4 C8 1_555 1_555
C9 C8 1_555 1_555
H5 C9 1_555 1_555
C10 C1 1_555 1_555
H6 C10 1_555 1_555
C11 C12 1_555 1_555
C12 H7 1_555 1_555
C13 C12 1_555 1_555
H8 C13 1_555 1_555
C14 C13 1_555 1_555
C15 C14 1_555 1_555
H9 C15 1_555 1_555
C16 C15 1_555 1_555
H10 C16 1_555 1_555
C17 C16 1_555 1_555
H11 C17 1_555 1_555
C18 C17 1_555 1_555
C19 C14 1_555 1_555
C20 C11 1_555 1_555
C21 C22 1_555 1_555
C22 H12 1_555 1_555
H13 C22 1_555 1_555
C23 C22 1_555 1_555
H14 C23 1_555 1_555
H15 C23 1_555 1_555
C24 C23 1_555 1_555
H16 C24 1_555 1_555
H17 C24 1_555 1_555
C25 C24 1_555 1_555
H18 C25 1_555 1_555
H19 C25 1_555 1_555
C26 C25 1_555 1_555
H20 C26 1_555 1_555
H21 C26 1_555 1_555
C27 C26 1_555 1_555
H22 C27 1_555 1_555
H23 C27 1_555 1_555
C28 C27 1_555 1_555
H24 C28 1_555 1_555
H25 C28 1_555 1_555
C29 C28 1_555 1_555
H26 C29 1_555 1_555
H27 C29 1_555 1_555
C30 C29 1_555 1_555
H28 C30 1_555 1_555
H29 C30 1_555 1_555
H30 C30 1_555 1_555
N1 C5 1_555 1_555
H31 N1 1_555 1_555
N2 C7 1_555 1_555
H32 N2 1_555 1_555
N3 C20 1_555 1_555
N4 C18 1_555 1_555
C5 C6 1_555 1_555
C9 C10 1_555 1_555
C11 N1 1_555 1_555
C11 N2 1_555 1_555
C18 C19 1_555 1_555
C19 C20 1_555 1_555
C21 N3 1_555 1_555
C21 N4 1_555 1_555

#END
