
#######################################################################
#
#                 Cambridge Crystallographic Data Centre
#                                CCDC 
#
#######################################################################
#
# If this CIF has been generated from an entry in the Cambridge 
# Structural Database, then it will include bibliographic, chemical, 
# crystal, experimental, refinement or atomic coordinate data resulting 
# from the CCDC's data processing and validation procedures.
#
#######################################################################

data_DEVBIS
_chemical_formula_moiety         'C22 H20 N2 O3'
_chemical_name_systematic        
'(E)-methyl 3-(5-methyl-2-(2-oxo-2-(quinolin-8-ylamino)ethyl)phenyl)acrylate'
_symmetry_cell_setting           monoclinic
_symmetry_space_group_name_H-M   'P 21/c'
_symmetry_Int_Tables_number      14
_space_group_name_Hall           '-P 2ybc'
loop_
_symmetry_equiv_pos_site_id
_symmetry_equiv_pos_as_xyz
1 x,y,z
2 -x,1/2+y,1/2-z
3 -x,-y,-z
4 x,1/2-y,1/2+z
_cell_length_a                   14.303(2)
_cell_length_b                   4.9876(8)
_cell_length_c                   25.631(4)
_cell_angle_alpha                90
_cell_angle_beta                 90.893(2)
_cell_angle_gamma                90
_cell_volume                     1828.23
_exptl_crystal_colour            colorless
_exptl_crystal_description       block
_chemical_melting_point          '116-118 deg.C'
_cell_formula_units_Z            4
loop_
_atom_site_label
_atom_site_type_symbol
_atom_site_fract_x
_atom_site_fract_y
_atom_site_fract_z
O1 O 0.54061(9) -0.0654(3) 0.15543(5)
O2 O 0.49180(10) 0.2528(3) 0.20999(6)
O3 O 0.80793(12) 0.4771(3) 0.33652(6)
N1 N 0.76213(11) 0.8381(3) 0.38229(5)
H1 H 0.7426 1.0004 0.3789
N2 N 0.65858(12) 1.0653(4) 0.45615(6)
C1 C 0.77472(11) 0.5714(3) 0.20725(6)
C2 C 0.68090(12) 0.4523(4) 0.21008(7)
H2 H 0.6382 0.5380 0.2314
C3 C 0.80443(12) 0.7708(3) 0.24199(7)
C4 C 0.65144(12) 0.2351(4) 0.18523(7)
H3 H 0.6943 0.1342 0.1666
C5 C 0.77713(13) 0.7039(4) 0.33746(7)
C6 C 0.83429(12) 0.4955(4) 0.16688(7)
H4 H 0.8146 0.3616 0.1440
C7 C 0.55392(13) 0.1479(4) 0.18597(7)
C8 C 0.75010(13) 0.8579(4) 0.28868(7)
H5 H 0.6839 0.8326 0.2815
H6 H 0.7607 1.0476 0.2947
C9 C 0.77445(14) 0.7457(4) 0.43376(7)
C10 C 0.92077(13) 0.6109(4) 0.15966(7)
C11 C 0.89085(14) 0.8892(4) 0.23404(8)
H7 H 0.9108 1.0247 0.2565
C12 C 0.71890(13) 0.8703(4) 0.47232(7)
C13 C 0.72796(15) 0.7880(5) 0.52489(8)
C14 C 0.94803(14) 0.8125(4) 0.19394(8)
H8 H 1.0055 0.8967 0.1898
C15 C 0.83686(16) 0.5512(5) 0.44786(8)
H9 H 0.8732 0.4687 0.4227
C16 C 0.66878(18) 0.9142(6) 0.56092(9)
H10 H 0.6708 0.8636 0.5958
C17 C 0.79293(19) 0.5890(5) 0.53810(9)
H11 H 0.7997 0.5339 0.5726
C18 C 0.60684(16) 1.1786(5) 0.49190(9)
H12 H 0.5660 1.3142 0.4815
C19 C 0.98313(16) 0.5184(6) 0.11647(10)
H13 H 0.9742 0.3299 0.1108
H14 H 1.0472 0.5520 0.1260
H15 H 0.9677 0.6145 0.0850
C20 C 0.44665(15) -0.1663(5) 0.15191(10)
H16 H 0.4265 -0.2192 0.1859
H17 H 0.4447 -0.3184 0.1290
H18 H 0.4060 -0.0288 0.1385
C21 C 0.60968(18) 1.1068(6) 0.54491(9)
H19 H 0.5710 1.1919 0.5686
C22 C 0.84617(19) 0.4759(5) 0.50058(10)
H20 H 0.8898 0.3455 0.5100
loop_
_geom_bond_atom_site_label_1
_geom_bond_atom_site_label_2
_geom_bond_site_symmetry_1
_geom_bond_site_symmetry_2
O1 C7 1_555 1_555
O2 C7 1_555 1_555
O3 C5 1_555 1_555
N1 H1 1_555 1_555
N2 C12 1_555 1_555
C1 C2 1_555 1_555
C2 H2 1_555 1_555
C3 C1 1_555 1_555
C4 C2 1_555 1_555
H3 C4 1_555 1_555
C5 N1 1_555 1_555
C6 C1 1_555 1_555
H4 C6 1_555 1_555
C7 C4 1_555 1_555
C8 C3 1_555 1_555
H5 C8 1_555 1_555
H6 C8 1_555 1_555
C9 N1 1_555 1_555
C10 C6 1_555 1_555
C11 C3 1_555 1_555
H7 C11 1_555 1_555
C12 C9 1_555 1_555
C13 C12 1_555 1_555
C14 C10 1_555 1_555
H8 C14 1_555 1_555
C15 C9 1_555 1_555
H9 C15 1_555 1_555
C16 C13 1_555 1_555
H10 C16 1_555 1_555
C17 C13 1_555 1_555
H11 C17 1_555 1_555
C18 N2 1_555 1_555
H12 C18 1_555 1_555
C19 C10 1_555 1_555
H13 C19 1_555 1_555
H14 C19 1_555 1_555
H15 C19 1_555 1_555
C20 O1 1_555 1_555
H16 C20 1_555 1_555
H17 C20 1_555 1_555
H18 C20 1_555 1_555
C21 C16 1_555 1_555
H19 C21 1_555 1_555
C22 C15 1_555 1_555
H20 C22 1_555 1_555
C5 C8 1_555 1_555
C11 C14 1_555 1_555
C17 C22 1_555 1_555
C18 C21 1_555 1_555

#END
