
#######################################################################
#
#                 Cambridge Crystallographic Data Centre
#                                CCDC 
#
#######################################################################
#
# If this CIF has been generated from an entry in the Cambridge 
# Structural Database, then it will include bibliographic, chemical, 
# crystal, experimental, refinement or atomic coordinate data resulting 
# from the CCDC's data processing and validation procedures.
#
#######################################################################

data_DEVBEO
_chemical_formula_moiety         'C10 H15 N1 O2'
_chemical_name_systematic        
(6S,9aS)-6-Hydroxymethyl-1,2,3,6,9,9a-hexahydro-4H-quinolizin-4-one
_symmetry_cell_setting           orthorhombic
_symmetry_space_group_name_H-M   'P b c a'
_symmetry_Int_Tables_number      61
_space_group_name_Hall           '-P 2ac 2ab'
loop_
_symmetry_equiv_pos_site_id
_symmetry_equiv_pos_as_xyz
1 x,y,z
2 1/2+x,1/2-y,-z
3 -x,1/2+y,1/2-z
4 1/2-x,-y,1/2+z
5 -x,-y,-z
6 1/2-x,1/2+y,z
7 x,1/2-y,1/2+z
8 1/2+x,y,1/2-z
_cell_length_a                   8.2766(4)
_cell_length_b                   10.6866(6)
_cell_length_c                   21.7923(11)
_cell_angle_alpha                90
_cell_angle_beta                 90
_cell_angle_gamma                90
_cell_volume                     1927.5
_exptl_crystal_colour            colorless
_exptl_crystal_description       prism
_cell_formula_units_Z            8
_exptl_crystal_recrystallization_method 'ethyl acetate/ hexane'
loop_
_atom_site_label
_atom_site_type_symbol
_atom_site_fract_x
_atom_site_fract_y
_atom_site_fract_z
C1 C 0.07513(19) 0.65520(16) 0.45076(8)
C2 C 0.2158(3) 0.5715(2) 0.46683(13)
H1 H 0.2901 0.6198 0.4918
H2 H 0.1751 0.5041 0.4923
C3 C 0.3103(3) 0.5144(3) 0.41573(18)
H3 H 0.3496 0.4329 0.4284
H4 H 0.4033 0.5666 0.4068
C4 C 0.2097(3) 0.5002(2) 0.35843(15)
H5 H 0.2771 0.4705 0.3251
H6 H 0.1253 0.4388 0.3654
C5 C 0.1351(2) 0.62291(19) 0.34113(9)
H7 H 0.2229 0.6834 0.3358
N1 N 0.03151(16) 0.66843(13) 0.39175(6)
C6 C -0.10646(19) 0.75363(16) 0.37916(7)
H8 H -0.0984 0.8252 0.4071
C7 C -0.1058(2) 0.8024(2) 0.31479(9)
H9 H -0.1523 0.8799 0.3068
C8 C -0.0421(3) 0.7394(3) 0.26933(9)
H10 H -0.0482 0.7702 0.2295
C9 C 0.0399(3) 0.6188(3) 0.28167(10)
H11 H 0.1125 0.5996 0.2480
H12 H -0.0401 0.5527 0.2840
C10 C -0.2653(2) 0.68526(18) 0.39268(8)
H13 H -0.2788 0.6167 0.3640
H14 H -0.2620 0.6507 0.4338
O1 O -0.39750(16) 0.76857(17) 0.38750(7)
H15 H -0.430(3) 0.781(2) 0.4257(12)
O2 O -0.00038(16) 0.70724(14) 0.49242(6)
loop_
_geom_bond_atom_site_label_1
_geom_bond_atom_site_label_2
_geom_bond_site_symmetry_1
_geom_bond_site_symmetry_2
C1 C2 1_555 1_555
C2 H1 1_555 1_555
H2 C2 1_555 1_555
C3 C2 1_555 1_555
H3 C3 1_555 1_555
H4 C3 1_555 1_555
C4 C3 1_555 1_555
H5 C4 1_555 1_555
H6 C4 1_555 1_555
C5 C4 1_555 1_555
H7 C5 1_555 1_555
N1 C1 1_555 1_555
C6 N1 1_555 1_555
H8 C6 1_555 1_555
C7 C6 1_555 1_555
H9 C7 1_555 1_555
C8 C7 1_555 1_555
H10 C8 1_555 1_555
C9 C5 1_555 1_555
H11 C9 1_555 1_555
H12 C9 1_555 1_555
C10 C6 1_555 1_555
H13 C10 1_555 1_555
H14 C10 1_555 1_555
O1 C10 1_555 1_555
H15 O1 1_555 1_555
O2 C1 1_555 1_555
C5 N1 1_555 1_555
C8 C9 1_555 1_555

#END
