
#######################################################################
#
#                 Cambridge Crystallographic Data Centre
#                                CCDC 
#
#######################################################################
#
# If this CIF has been generated from an entry in the Cambridge 
# Structural Database, then it will include bibliographic, chemical, 
# crystal, experimental, refinement or atomic coordinate data resulting 
# from the CCDC's data processing and validation procedures.
#
#######################################################################

data_DEVCOW01
_chemical_formula_moiety         'C12 H18 O6'
_chemical_name_systematic        
'cis,cis-1,3,5-Trimethylcyclohexane-1,3,5-tricarboxylic acid'
_symmetry_cell_setting           monoclinic
_symmetry_space_group_name_H-M   'P 21/n'
_symmetry_Int_Tables_number      14
_space_group_name_Hall           '-P 2yn'
loop_
_symmetry_equiv_pos_site_id
_symmetry_equiv_pos_as_xyz
1 x,y,z
2 1/2-x,1/2+y,1/2-z
3 -x,-y,-z
4 1/2+x,1/2-y,1/2+z
_cell_length_a                   8.465(2)
_cell_length_b                   12.136(2)
_cell_length_c                   12.892(2)
_cell_angle_alpha                90
_cell_angle_beta                 101.78(1)
_cell_angle_gamma                90
_cell_volume                     1296.52
_exptl_crystal_colour            colorless
_cell_formula_units_Z            4
loop_
_atom_site_label
_atom_site_type_symbol
_atom_site_fract_x
_atom_site_fract_y
_atom_site_fract_z
O1 O 0.1312(2) 0.8053(1) 0.5466(1)
O2 O -0.1133(2) 0.8531(1) 0.4592(1)
O3 O -0.1392(2) 1.0478(1) 0.2957(1)
O4 O 0.1102(2) 1.0122(1) 0.3813(1)
O5 O 0.4229(2) 0.8778(1) 0.4840(1)
O6 O 0.4320(2) 0.9997(1) 0.3566(1)
C1 C 0.0440(2) 0.7440(2) 0.3652(2)
C2 C -0.0600(2) 0.7946(2) 0.2649(1)
C3 C 0.0051(2) 0.9037(2) 0.2281(1)
C4 C 0.1800(3) 0.8859(2) 0.2151(1)
C5 C 0.2987(2) 0.8285(2) 0.3052(2)
C6 C 0.2186(2) 0.7311(2) 0.3505(1)
C7 C 0.0285(2) 0.8057(2) 0.4655(2)
C8 C -0.0219(3) 0.6279(2) 0.3826(2)
C9 C -0.0038(2) 0.9931(2) 0.3078(2)
C10 C -0.0999(3) 0.9355(2) 0.1203(2)
C11 C 0.3851(2) 0.9058(2) 0.3913(2)
C12 C 0.4397(3) 0.7829(2) 0.2574(2)
H1 H -0.1268 0.8969 0.5263
H2 H -0.1375 1.1089 0.3525
H3 H 0.4916 1.0430 0.4164
H4 H -0.0678 0.7420 0.2085
H5 H -0.1655 0.8084 0.2786
H6 H 0.1755 0.8425 0.1523
H7 H 0.2239 0.9572 0.2053
H8 H 0.2837 0.7145 0.4188
H9 H 0.2204 0.6697 0.3038
H10 H -0.0170 0.5821 0.3226
H11 H -0.1318 0.6339 0.3907
H12 H 0.0422 0.5958 0.4454
H13 H -0.0940 0.8784 0.0696
H14 H -0.0612 1.0034 0.0965
H15 H -0.2098 0.9445 0.1275
H16 H 0.3980 0.7323 0.2013
H17 H 0.5153 0.7455 0.3116
H18 H 0.4929 0.8428 0.2299
loop_
_geom_bond_atom_site_label_1
_geom_bond_atom_site_label_2
_geom_bond_site_symmetry_1
_geom_bond_site_symmetry_2
O1 C7 1_555 1_555
O2 C7 1_555 1_555
O3 C9 1_555 1_555
O4 C9 1_555 1_555
O5 C11 1_555 1_555
O6 C11 1_555 1_555
C1 C2 1_555 1_555
C2 C3 1_555 1_555
C3 C4 1_555 1_555
C4 C5 1_555 1_555
C5 C6 1_555 1_555
C6 C1 1_555 1_555
C7 C1 1_555 1_555
C8 C1 1_555 1_555
C9 C3 1_555 1_555
C10 C3 1_555 1_555
C11 C5 1_555 1_555
C12 C5 1_555 1_555
H1 O2 1_555 1_555
H2 O3 1_555 1_555
H3 O6 1_555 1_555
H4 C2 1_555 1_555
H5 C2 1_555 1_555
H6 C4 1_555 1_555
H7 C4 1_555 1_555
H8 C6 1_555 1_555
H9 C6 1_555 1_555
H10 C8 1_555 1_555
H11 C8 1_555 1_555
H12 C8 1_555 1_555
H13 C10 1_555 1_555
H14 C10 1_555 1_555
H15 C10 1_555 1_555
H16 C12 1_555 1_555
H17 C12 1_555 1_555
H18 C12 1_555 1_555

#END
