
#######################################################################
#
#                 Cambridge Crystallographic Data Centre
#                                CCDC 
#
#######################################################################
#
# If this CIF has been generated from an entry in the Cambridge 
# Structural Database, then it will include bibliographic, chemical, 
# crystal, experimental, refinement or atomic coordinate data resulting 
# from the CCDC's data processing and validation procedures.
#
#######################################################################

data_DEVCEM
_chemical_formula_moiety         'C28 H48 O1'
_chemical_name_systematic        (13R,17R,20S,24R)-Diacampestan-16-one
_symmetry_cell_setting           orthorhombic
_symmetry_space_group_name_H-M   'P 21 21 21'
_symmetry_Int_Tables_number      19
_space_group_name_Hall           'P 2ac 2ab'
loop_
_symmetry_equiv_pos_site_id
_symmetry_equiv_pos_as_xyz
1 x,y,z
2 1/2+x,1/2-y,-z
3 -x,1/2+y,1/2-z
4 1/2-x,-y,1/2+z
_cell_length_a                   7.388(2)
_cell_length_b                   18.156(4)
_cell_length_c                   18.311(3)
_cell_angle_alpha                90
_cell_angle_beta                 90
_cell_angle_gamma                90
_cell_volume                     2456.17
_chemical_melting_point          110-111deg.C
_cell_formula_units_Z            4
loop_
_atom_site_label
_atom_site_type_symbol
_atom_site_fract_x
_atom_site_fract_y
_atom_site_fract_z
C1 C 0.9844(5) 1.0162(2) 0.7980(2)
C2 C 1.0315(6) 0.9430(2) 0.8340(3)
C3 C 0.8693(5) 0.8896(2) 0.8362(2)
C4 C 0.7049(6) 0.9270(2) 0.8691(2)
C5 C 0.6529(5) 0.9996(2) 0.8311(2)
C6 C 0.4977(5) 1.0349(2) 0.8729(2)
C7 C 0.4505(5) 1.1109(2) 0.8443(2)
C8 C 0.6118(5) 1.1630(2) 0.8466(2)
C9 C 0.7772(5) 1.1307(2) 0.8057(2)
C10 C 0.8190(5) 1.0520(2) 0.8340(2)
C11 C 0.9386(5) 1.1817(2) 0.8139(2)
C12 C 0.8975(5) 1.2606(2) 0.7894(2)
C13 C 0.7321(5) 1.2936(2) 0.8277(2)
C14 C 0.5638(5) 1.2427(2) 0.8222(2)
C15 C 0.4384(5) 1.2781(2) 0.8787(2)
C16 C 0.5594(6) 1.3045(2) 0.9382(2)
C17 C 0.7520(5) 1.3114(2) 0.9095(2)
C18 C 0.4821(6) 1.2447(2) 0.7452(2)
C19 C 0.5924(5) 0.9830(2) 0.7530(2)
C20 C 0.8362(5) 1.3848(2) 0.9333(2)
C21 C 1.0406(5) 1.3882(2) 0.9200(2)
C22 C 0.7392(6) 1.4516(2) 0.9010(2)
C23 C 0.7816(6) 1.5235(2) 0.9413(2)
C24 C 0.6892(6) 1.5919(2) 0.9098(2)
C25 C 0.7857(6) 1.6644(2) 0.9310(2)
C26 C 0.9707(7) 1.6699(3) 0.8966(3)
C27 C 0.7956(8) 1.6755(2) 1.0129(2)
C28 C 0.4886(6) 1.5936(2) 0.9291(2)
O1 O 0.5143(4) 1.3188(2) 1.0002(2)
H1 H 1.0859 1.0489 0.8023
H2 H 0.9587 1.0077 0.7473
H3 H 1.1281 0.9204 0.8070
H4 H 1.0707 0.9523 0.8831
H5 H 0.9006 0.8475 0.8652
H6 H 0.8413 0.8742 0.7873
H7 H 0.6041 0.8938 0.8656
H8 H 0.7298 0.9372 0.9195
H9 H 0.5316 1.0390 0.9234
H10 H 0.3931 1.0038 0.8687
H11 H 0.4097 1.1065 0.7947
H12 H 0.3552 1.1311 0.8738
H13 H 0.6468 1.1675 0.8968
H14 H 0.7500 1.1268 0.7545
H15 H 0.8490 1.0593 0.8845
H16 H 1.0364 1.1630 0.7849
H17 H 1.0008 1.2909 0.8000
H18 H 0.8758 1.2605 0.7378
H19 H 0.7189 1.3391 0.8016
H20 H 0.3538 1.2426 0.8971
H21 H 0.8404 1.2781 0.9292
H22 H 0.5540 1.2200 0.7091
H23 H 0.4716 1.2959 0.7328
H24 H 0.3638 1.2229 0.7469
H25 H 0.6914 0.9589 0.7290
H26 H 0.6590 1.0263 0.7261
H27 H 0.4908 0.9501 0.7554
H28 H 0.8190 1.3870 0.9852
H29 H 1.0931 1.3441 0.9397
H30 H 1.0938 1.4303 0.9433
H31 H 1.0632 1.3903 0.8685
H32 H 0.7751 1.4568 0.8509
H33 H 0.6111 1.4431 0.9035
H34 H 0.7439 1.5181 0.9911
H35 H 0.9101 1.5311 0.9395
H36 H 0.7122 1.7036 0.9119
H37 H 1.0167 1.7193 0.8991
H38 H 0.9630 1.6543 0.8465
H39 H 1.0505 1.6374 0.9225
H40 H 0.6746 1.6736 1.0319
H41 H 0.8436 1.7242 1.0194
H42 H 0.8701 1.6407 1.0386
H43 H 0.4321 1.5494 0.9116
H44 H 0.4351 1.6356 0.9055
H45 H 0.4713 1.5974 0.9809
loop_
_geom_bond_atom_site_label_1
_geom_bond_atom_site_label_2
_geom_bond_site_symmetry_1
_geom_bond_site_symmetry_2
C1 C2 1_555 1_555
C2 C3 1_555 1_555
C3 C4 1_555 1_555
C4 C5 1_555 1_555
C5 C6 1_555 1_555
C6 C7 1_555 1_555
C7 C8 1_555 1_555
C8 C9 1_555 1_555
C9 C10 1_555 1_555
C10 C1 1_555 1_555
C11 C9 1_555 1_555
C12 C11 1_555 1_555
C13 C12 1_555 1_555
C14 C8 1_555 1_555
C15 C14 1_555 1_555
C16 C15 1_555 1_555
C17 C13 1_555 1_555
C18 C14 1_555 1_555
C19 C5 1_555 1_555
C20 C17 1_555 1_555
C21 C20 1_555 1_555
C22 C20 1_555 1_555
C23 C22 1_555 1_555
C24 C23 1_555 1_555
C25 C24 1_555 1_555
C26 C25 1_555 1_555
C27 C25 1_555 1_555
C28 C24 1_555 1_555
O1 C16 1_555 1_555
H1 C1 1_555 1_555
H2 C1 1_555 1_555
H3 C2 1_555 1_555
H4 C2 1_555 1_555
H5 C3 1_555 1_555
H6 C3 1_555 1_555
H7 C4 1_555 1_555
H8 C4 1_555 1_555
H9 C6 1_555 1_555
H10 C6 1_555 1_555
H11 C7 1_555 1_555
H12 C7 1_555 1_555
H13 C8 1_555 1_555
H14 C9 1_555 1_555
H15 C10 1_555 1_555
H16 C11 1_555 1_555
H17 C12 1_555 1_555
H18 C12 1_555 1_555
H19 C13 1_555 1_555
H20 C15 1_555 1_555
H21 C17 1_555 1_555
H22 C18 1_555 1_555
H23 C18 1_555 1_555
H24 C18 1_555 1_555
H25 C19 1_555 1_555
H26 C19 1_555 1_555
H27 C19 1_555 1_555
H28 C20 1_555 1_555
H29 C21 1_555 1_555
H30 C21 1_555 1_555
H31 C21 1_555 1_555
H32 C22 1_555 1_555
H33 C22 1_555 1_555
H34 C23 1_555 1_555
H35 C23 1_555 1_555
H36 C25 1_555 1_555
H37 C26 1_555 1_555
H38 C26 1_555 1_555
H39 C26 1_555 1_555
H40 C27 1_555 1_555
H41 C27 1_555 1_555
H42 C27 1_555 1_555
H43 C28 1_555 1_555
H44 C28 1_555 1_555
H45 C28 1_555 1_555
C5 C10 1_555 1_555
C13 C14 1_555 1_555
C16 C17 1_555 1_555

#END
