
#######################################################################
#
#                 Cambridge Crystallographic Data Centre
#                                CCDC 
#
#######################################################################
#
# If this CIF has been generated from an entry in the Cambridge 
# Structural Database, then it will include bibliographic, chemical, 
# crystal, experimental, refinement or atomic coordinate data resulting 
# from the CCDC's data processing and validation procedures.
#
#######################################################################

data_DEVGOB
_chemical_formula_moiety         'C38 H34'
_chemical_name_systematic        
cis,cis-2,5-Diphenyl-1,4-bis(3',5'-dimethylstyryl)benzene
_symmetry_cell_setting           monoclinic
_symmetry_space_group_name_H-M   'P 21/c'
_symmetry_Int_Tables_number      14
_space_group_name_Hall           '-P 2ybc'
loop_
_symmetry_equiv_pos_site_id
_symmetry_equiv_pos_as_xyz
1 x,y,z
2 -x,1/2+y,1/2-z
3 -x,-y,-z
4 x,1/2-y,1/2+z
_cell_length_a                   13.600(3)
_cell_length_b                   18.604(4)
_cell_length_c                   5.6750(11)
_cell_angle_alpha                90
_cell_angle_beta                 90.36(3)
_cell_angle_gamma                90
_cell_volume                     1435.83
_exptl_crystal_colour            colorless
_exptl_crystal_description       block
_cell_formula_units_Z            2
_chemical_properties_physical    light-sensitive
_exptl_crystal_recrystallization_method chloroform/methanol
loop_
_atom_site_label
_atom_site_type_symbol
_atom_site_fract_x
_atom_site_fract_y
_atom_site_fract_z
C1 C 0.79842(14) 0.64343(10) 0.2834(4)
C2 C 0.47906(11) 0.57458(9) 0.0007(3)
C3 C 0.56345(11) 0.54805(9) 0.1145(3)
C4 C 0.63427(12) 0.59647(9) 0.2382(3)
C5 C 0.58229(12) 0.47497(9) 0.1125(3)
C6 C 0.45902(13) 0.65241(9) -0.0121(3)
C7 C 0.27415(12) 0.65527(9) 0.0200(3)
C8 C 0.60593(15) 0.63810(11) 0.4292(3)
C9 C 0.25587(14) 0.60409(9) 0.1935(3)
C10 C 0.37245(13) 0.68575(10) -0.0148(3)
C11 C 0.19547(14) 0.67804(11) -0.1190(3)
C12 C 0.73130(13) 0.59999(10) 0.1659(4)
C13 C 0.16419(14) 0.57454(10) 0.2236(3)
C14 C 0.76885(15) 0.68335(10) 0.4730(4)
C15 C 0.10218(14) 0.64950(11) -0.0933(4)
C16 C 0.08799(16) 0.59742(11) 0.0774(4)
C17 C 0.67339(16) 0.68097(11) 0.5454(4)
C18 C 0.1473(3) 0.51782(17) 0.4092(6)
C19 C 0.0187(2) 0.6745(2) -0.2488(7)
H1 H 0.6423(13) 0.4582(9) 0.197(3)
H2 H 0.2087(13) 0.7141(11) -0.238(3)
H3 H 0.3122(12) 0.5891(9) 0.297(3)
H4 H 0.5199(13) 0.6821(9) -0.025(3)
H5 H 0.5394(15) 0.6353(10) 0.481(3)
H6 H 0.3748(12) 0.7362(10) -0.041(3)
H7 H 0.7531(15) 0.5718(11) 0.028(4)
H8 H 0.8690(16) 0.6422(11) 0.227(4)
H9 H 0.6522(16) 0.7082(13) 0.681(4)
H10 H 0.0209(15) 0.5750(11) 0.095(3)
H11 H 0.8155(15) 0.7139(11) 0.550(3)
H12 H 0.084(3) 0.494(2) 0.371(7)
H13 H 0.029(3) 0.666(2) -0.402(8)
H14 H -0.039(3) 0.6519(18) -0.224(6)
H15 H 0.135(3) 0.535(2) 0.560(8)
H16 H 0.011(2) 0.724(2) -0.248(6)
H17 H 0.206(3) 0.4878(19) 0.420(6)
C1B C 0.20158(14) 0.35657(10) -0.2834(4)
C2B C 0.52094(11) 0.42542(9) -0.0007(3)
C3B C 0.43655(11) 0.45195(9) -0.1145(3)
C4B C 0.36573(12) 0.40353(9) -0.2382(3)
C5B C 0.41771(12) 0.52503(9) -0.1125(3)
C6B C 0.54098(13) 0.34759(9) 0.0121(3)
C7B C 0.72585(12) 0.34473(9) -0.0200(3)
C8B C 0.39407(15) 0.36190(11) -0.4292(3)
C9B C 0.74413(14) 0.39591(9) -0.1935(3)
C10B C 0.62755(13) 0.31425(10) 0.0148(3)
C11B C 0.80453(14) 0.32196(11) 0.1190(3)
C12B C 0.26870(13) 0.40001(10) -0.1659(4)
C13B C 0.83581(14) 0.42546(10) -0.2236(3)
C14B C 0.23115(15) 0.31665(10) -0.4730(4)
C15B C 0.89782(14) 0.35050(11) 0.0933(4)
C16B C 0.91201(16) 0.40258(11) -0.0774(4)
C17B C 0.32661(16) 0.31903(11) -0.5454(4)
C18B C 0.8527(3) 0.48218(17) -0.4092(6)
C19B C 0.9813(2) 0.3255(2) 0.2488(7)
H1B H 0.3577(13) 0.5418(9) -0.197(3)
H2B H 0.7913(13) 0.2859(11) 0.238(3)
H3B H 0.6878(12) 0.4109(9) -0.297(3)
H4B H 0.4801(13) 0.3179(9) 0.025(3)
H5B H 0.4606(15) 0.3647(10) -0.481(3)
H6B H 0.6252(12) 0.2638(10) 0.041(3)
H7B H 0.2469(15) 0.4282(11) -0.028(4)
H8B H 0.1310(16) 0.3578(11) -0.227(4)
H9B H 0.3478(16) 0.2918(13) -0.681(4)
H10B H 0.9791(15) 0.4250(11) -0.095(3)
H11B H 0.1845(15) 0.2861(11) -0.550(3)
H12B H 0.916(3) 0.506(2) -0.371(7)
H13B H 0.971(3) 0.334(2) 0.402(8)
H14B H 1.039(3) 0.3481(18) 0.224(6)
H15B H 0.865(3) 0.465(2) -0.560(8)
H16B H 0.989(2) 0.276(2) 0.248(6)
H17B H 0.794(3) 0.5122(19) -0.420(6)
loop_
_geom_bond_atom_site_label_1
_geom_bond_atom_site_label_2
_geom_bond_site_symmetry_1
_geom_bond_site_symmetry_2
C1 C12 1_555 1_555
C2 C3 1_555 1_555
C3 C4 1_555 1_555
C4 C8 1_555 1_555
C5 C3 1_555 1_555
C6 C2 1_555 1_555
C7 C9 1_555 1_555
C8 C17 1_555 1_555
C9 C13 1_555 1_555
C10 C6 1_555 1_555
C11 C7 1_555 1_555
C12 C4 1_555 1_555
C13 C16 1_555 1_555
C14 C1 1_555 1_555
C15 C11 1_555 1_555
C16 C15 1_555 1_555
C17 C14 1_555 1_555
C18 C13 1_555 1_555
C19 C15 1_555 1_555
H1 C5 1_555 1_555
H2 C11 1_555 1_555
H3 C9 1_555 1_555
H4 C6 1_555 1_555
H5 C8 1_555 1_555
H6 C10 1_555 1_555
H7 C12 1_555 1_555
H8 C1 1_555 1_555
H9 C17 1_555 1_555
H10 C16 1_555 1_555
H11 C14 1_555 1_555
H12 C18 1_555 1_555
H13 C19 1_555 1_555
H14 C19 1_555 1_555
H15 C18 1_555 1_555
H16 C19 1_555 1_555
H17 C18 1_555 1_555
C1B C12B 1_555 1_555
C2B C5 1_555 1_555
C3B C2B 1_555 1_555
C4B C3B 1_555 1_555
C5B C2 1_555 1_555
C6B C2B 1_555 1_555
C7B C9B 1_555 1_555
C8B C4B 1_555 1_555
C9B C13B 1_555 1_555
C10B C6B 1_555 1_555
C11B C7B 1_555 1_555
C12B C4B 1_555 1_555
C13B C16B 1_555 1_555
C14B C1B 1_555 1_555
C15B C11B 1_555 1_555
C16B C15B 1_555 1_555
C17B C8B 1_555 1_555
C18B C13B 1_555 1_555
C19B C15B 1_555 1_555
H1B C5B 1_555 1_555
H2B C11B 1_555 1_555
H3B C9B 1_555 1_555
H4B C6B 1_555 1_555
H5B C8B 1_555 1_555
H6B C10B 1_555 1_555
H7B C12B 1_555 1_555
H8B C1B 1_555 1_555
H9B C17B 1_555 1_555
H10B C16B 1_555 1_555
H11B C14B 1_555 1_555
H12B C18B 1_555 1_555
H13B C19B 1_555 1_555
H14B C19B 1_555 1_555
H15B C18B 1_555 1_555
H16B C19B 1_555 1_555
H17B C18B 1_555 1_555
C7 C10 1_555 1_555
C3B C5B 1_555 1_555
C7B C10B 1_555 1_555
C14B C17B 1_555 1_555

#END
