
#######################################################################
#
#                 Cambridge Crystallographic Data Centre
#                                CCDC 
#
#######################################################################
#
# If this CIF has been generated from an entry in the Cambridge 
# Structural Database, then it will include bibliographic, chemical, 
# crystal, experimental, refinement or atomic coordinate data resulting 
# from the CCDC's data processing and validation procedures.
#
#######################################################################

data_DEVGER
_chemical_formula_moiety         'C36 H30'
_chemical_name_systematic        
cis,cis-2,5-Diphenyl-1,4-di-p-methylstyrylbenzene
_symmetry_cell_setting           monoclinic
_symmetry_space_group_name_H-M   'P 21/n'
_symmetry_Int_Tables_number      14
_space_group_name_Hall           '-P 2yn'
loop_
_symmetry_equiv_pos_site_id
_symmetry_equiv_pos_as_xyz
1 x,y,z
2 1/2-x,1/2+y,1/2-z
3 -x,-y,-z
4 1/2+x,1/2-y,1/2+z
_cell_length_a                   9.9754(5)
_cell_length_b                   10.8854(9)
_cell_length_c                   25.8049(17)
_cell_angle_alpha                90
_cell_angle_beta                 98.230(4)
_cell_angle_gamma                90
_cell_volume                     2773.2
_exptl_crystal_colour            colorless
_exptl_crystal_description       block
_cell_formula_units_Z            4
_chemical_properties_physical    light-sensitive
_exptl_crystal_recrystallization_method chloroform/methanol
loop_
_atom_site_label
_atom_site_type_symbol
_atom_site_fract_x
_atom_site_fract_y
_atom_site_fract_z
C1 C 0.6398(3) 0.2275(3) 0.38349(15)
H1 H 0.6470 0.2928 0.3608
C2 C 0.6803(5) 0.2419(6) 0.4373(2)
C3 C 0.6714(5) 0.1479(6) 0.4712(2)
C4 C 0.6221(4) 0.0359(5) 0.45303(18)
C5 C 0.5825(4) 0.0223(4) 0.40009(17)
C6 C 0.5887(3) 0.1154(3) 0.36403(14)
C7 C 0.5454(3) 0.0947(3) 0.30721(13)
C8 C 0.4723(4) 0.5473(4) 0.06457(16)
H2 H 0.5258 0.6210 0.0670
H3 H 0.3871 0.5625 0.0431
H4 H 0.5195 0.4832 0.0492
C9 C 0.3057(3) 0.4914(3) 0.18577(17)
H5 H 0.2223 0.5069 0.1966
C10 C 0.3258(4) 0.5261(4) 0.13644(19)
C11 C 0.4478(4) 0.5087(3) 0.11871(16)
C12 C 0.5496(4) 0.4538(4) 0.15279(17)
C13 C 0.5291(3) 0.4178(3) 0.20226(15)
H6 H 0.5998 0.3815 0.2244
C14 C 0.4047(3) 0.4346(3) 0.21958(14)
C15 C 0.3777(3) 0.3959(3) 0.27191(14)
H7 H 0.3343 0.4534 0.2904
C16 C 0.4079(3) 0.2887(3) 0.29614(14)
H8 H 0.3915 0.2841 0.3307
C17 C 0.4636(3) 0.1771(3) 0.27514(13)
C18 C 0.4273(3) 0.1461(3) 0.22269(13)
H9 H 0.3733 0.2009 0.2013
C19 C 0.3703(3) -0.0943(4) 0.12449(14)
H10 H 0.3587 -0.1575 0.1477
C20 C 0.3325(4) -0.1120(4) 0.07114(19)
H11 H 0.2936 -0.1859 0.0588
C21 C 0.3528(4) -0.0208(6) 0.0368(2)
C22 C 0.4050(4) 0.0892(5) 0.05407(18)
C23 C 0.4415(3) 0.1100(4) 0.10769(16)
C24 C 0.4253(3) 0.0174(3) 0.14353(14)
C25 C 0.4669(3) 0.0386(3) 0.20044(13)
C26 C 0.5017(4) -0.4060(4) 0.44036(15)
H12 H 0.5379 -0.4862 0.4494
H13 H 0.4054 -0.4069 0.4400
H14 H 0.5419 -0.3474 0.4657
C27 C 0.6850(3) -0.3641(3) 0.32220(14)
H15 H 0.7688 -0.3841 0.3127
C28 C 0.6562(4) -0.3966(3) 0.37142(16)
H16 H 0.7219 -0.4369 0.3945
C29 C 0.5330(3) -0.3708(3) 0.38696(15)
C30 C 0.4385(4) -0.3128(3) 0.35111(16)
C31 C 0.4653(3) -0.2790(3) 0.30193(14)
H17 H 0.3985 -0.2404 0.2787
C32 C 0.5906(3) -0.3022(3) 0.28694(14)
C33 C 0.6248(3) -0.2658(3) 0.23576(14)
H18 H 0.6677 -0.3250 0.2180
C34 C 0.6017(3) -0.1575(3) 0.21151(13)
H19 H 0.6222 -0.1527 0.1775
C35 C 0.5475(3) -0.0449(3) 0.23271(13)
C36 C 0.5849(3) -0.0134(3) 0.28505(13)
H20 H 0.6394 -0.0678 0.3064
H21 H 0.350(3) -0.287(3) 0.3611(12)
H22 H 0.485(3) 0.188(3) 0.1217(14)
H23 H 0.424(3) 0.156(3) 0.0310(14)
H24 H 0.326(3) -0.039(3) 0.0012(15)
H25 H 0.638(3) 0.433(3) 0.1392(12)
H26 H 0.258(3) 0.565(3) 0.1085(14)
H27 H 0.548(2) -0.050(2) 0.3866(10)
H28 H 0.620(4) -0.041(4) 0.4780(16)
H29 H 0.699(3) 0.163(3) 0.5092(16)
H30 H 0.711(3) 0.318(3) 0.4437(14)
loop_
_geom_bond_atom_site_label_1
_geom_bond_atom_site_label_2
_geom_bond_site_symmetry_1
_geom_bond_site_symmetry_2
C1 H1 1_555 1_555
C2 C1 1_555 1_555
C3 C2 1_555 1_555
C4 C3 1_555 1_555
C5 C4 1_555 1_555
C6 C1 1_555 1_555
C7 C6 1_555 1_555
C8 H2 1_555 1_555
H3 C8 1_555 1_555
H4 C8 1_555 1_555
C9 H5 1_555 1_555
C10 C9 1_555 1_555
C11 C8 1_555 1_555
C12 C11 1_555 1_555
C13 C12 1_555 1_555
H6 C13 1_555 1_555
C14 C9 1_555 1_555
C15 C14 1_555 1_555
H7 C15 1_555 1_555
C16 C15 1_555 1_555
H8 C16 1_555 1_555
C17 C7 1_555 1_555
C18 C17 1_555 1_555
H9 C18 1_555 1_555
C19 H10 1_555 1_555
C20 C19 1_555 1_555
H11 C20 1_555 1_555
C21 C20 1_555 1_555
C22 C21 1_555 1_555
C23 C22 1_555 1_555
C24 C19 1_555 1_555
C25 C18 1_555 1_555
C26 H12 1_555 1_555
H13 C26 1_555 1_555
H14 C26 1_555 1_555
C27 H15 1_555 1_555
C28 C27 1_555 1_555
H16 C28 1_555 1_555
C29 C26 1_555 1_555
C30 C29 1_555 1_555
C31 C30 1_555 1_555
H17 C31 1_555 1_555
C32 C27 1_555 1_555
C33 C32 1_555 1_555
H18 C33 1_555 1_555
C34 C33 1_555 1_555
H19 C34 1_555 1_555
C35 C25 1_555 1_555
C36 C7 1_555 1_555
H20 C36 1_555 1_555
H21 C30 1_555 1_555
H22 C23 1_555 1_555
H23 C22 1_555 1_555
H24 C21 1_555 1_555
H25 C12 1_555 1_555
H26 C10 1_555 1_555
H27 C5 1_555 1_555
H28 C4 1_555 1_555
H29 C3 1_555 1_555
H30 C2 1_555 1_555
C5 C6 1_555 1_555
C10 C11 1_555 1_555
C13 C14 1_555 1_555
C16 C17 1_555 1_555
C23 C24 1_555 1_555
C24 C25 1_555 1_555
C28 C29 1_555 1_555
C31 C32 1_555 1_555
C34 C35 1_555 1_555
C35 C36 1_555 1_555

#END
