
#######################################################################
#
#                 Cambridge Crystallographic Data Centre
#                                CCDC 
#
#######################################################################
#
# If this CIF has been generated from an entry in the Cambridge 
# Structural Database, then it will include bibliographic, chemical, 
# crystal, experimental, refinement or atomic coordinate data resulting 
# from the CCDC's data processing and validation procedures.
#
#######################################################################

data_DEVHUK
_chemical_name_common            
'2-(4-N,N-dimethylaminophenyl)-1,3-diazaazulene trifluoroacetic salt'
_chemical_formula_moiety         'C16 H16 N3 1+,C2 F3 O2 1-'
_chemical_name_systematic        
'2-[4-(dimethylamino)phenyl]cyclohepta[d]imidazol-1-ium trifluoroacetate'
_symmetry_cell_setting           triclinic
_symmetry_space_group_name_H-M   'P -1'
_symmetry_Int_Tables_number      2
_space_group_name_Hall           '-P 1'
loop_
_symmetry_equiv_pos_site_id
_symmetry_equiv_pos_as_xyz
1 x,y,z
2 -x,-y,-z
_cell_length_a                   7.7734(11)
_cell_length_b                   8.4021(12)
_cell_length_c                   13.635(2)
_cell_angle_alpha                75.311(13)
_cell_angle_beta                 73.682(14)
_cell_angle_gamma                76.135(13)
_cell_volume                     813.02
_exptl_crystal_colour            gold
_exptl_crystal_description       sheet
_cell_formula_units_Z            2
_exptl_crystal_recrystallization_method chloroform
loop_
_atom_site_label
_atom_site_type_symbol
_atom_site_fract_x
_atom_site_fract_y
_atom_site_fract_z
O1 O 0.42040(16) 0.81140(14) 0.22861(9)
O2 O 0.21491(16) 0.63888(15) 0.27743(9)
F1 F 0.17461(17) 0.71490(19) 0.08234(9)
F2 F 0.45925(17) 0.61325(14) 0.06483(9)
F3 F 0.36952(18) 0.87855(14) 0.03456(9)
C1 C 0.3164(2) 0.72961(19) 0.21465(13)
C2 C 0.3278(2) 0.7376(2) 0.09855(14)
N1 N 0.47775(18) 0.77458(15) 0.41880(10)
H1 H 0.4577 0.7927 0.3577
C3 C 0.8872(2) 0.95231(19) 0.39977(13)
H2 H 0.8922 0.9181 0.4695
N2 N 1.12879(19) 1.19569(17) 0.15839(11)
C4 C 0.2268(2) 0.62736(19) 0.51397(13)
H3 H 0.1920 0.6409 0.4520
N3 N 0.61071(18) 0.77573(16) 0.54527(11)
C5 C 0.6159(2) 0.82208(18) 0.44247(12)
C6 C 0.7504(2) 0.91068(19) 0.36688(13)
C7 C 1.0100(2) 1.09873(19) 0.22488(13)
C8 C 1.2743(2) 1.2325(2) 0.19251(14)
H4 H 1.2223 1.2906 0.2492
H5 H 1.3448 1.3012 0.1356
H6 H 1.3517 1.1298 0.2151
C9 C 0.4158(2) 0.62614(19) 0.69447(13)
H7 H 0.4858 0.6397 0.7360
C10 C 1.0138(2) 1.04223(19) 0.33157(13)
H8 H 1.1033 1.0664 0.3558
C11 C 0.2748(2) 0.5388(2) 0.74509(13)
H9 H 0.2651 0.4988 0.8162
C12 C 0.7502(2) 0.96036(19) 0.26041(13)
H10 H 0.6639 0.9310 0.2362
C13 C 0.3780(2) 0.69410(18) 0.50814(13)
C14 C 0.4651(2) 0.69622(18) 0.58844(13)
C15 C 0.1230(2) 0.5423(2) 0.60390(13)
H11 H 0.0247 0.5077 0.5945
C16 C 0.1448(2) 0.50171(19) 0.70526(13)
H12 H 0.0611 0.4412 0.7537
C17 C 0.8752(2) 1.05174(19) 0.19128(13)
H13 H 0.8713 1.0833 0.1213
C18 C 1.1197(3) 1.2594(2) 0.04989(14)
H14 H 1.1515 1.1679 0.0141
H15 H 1.2033 1.3354 0.0172
H16 H 0.9981 1.3170 0.0468
loop_
_geom_bond_atom_site_label_1
_geom_bond_atom_site_label_2
_geom_bond_site_symmetry_1
_geom_bond_site_symmetry_2
O1 C1 1_555 1_555
O2 C1 1_555 1_555
F1 C2 1_555 1_555
F2 C2 1_555 1_555
F3 C2 1_555 1_555
C1 C2 1_555 1_555
N1 H1 1_555 1_555
C3 H2 1_555 1_555
N2 C7 1_555 1_555
C4 H3 1_555 1_555
N3 C5 1_555 1_555
C5 N1 1_555 1_555
C6 C3 1_555 1_555
C7 C10 1_555 1_555
C8 N2 1_555 1_555
H4 C8 1_555 1_555
H5 C8 1_555 1_555
H6 C8 1_555 1_555
C9 H7 1_555 1_555
C10 C3 1_555 1_555
H8 C10 1_555 1_555
C11 C9 1_555 1_555
H9 C11 1_555 1_555
C12 C6 1_555 1_555
H10 C12 1_555 1_555
C13 N1 1_555 1_555
C14 N3 1_555 1_555
C15 C4 1_555 1_555
H11 C15 1_555 1_555
C16 C11 1_555 1_555
H12 C16 1_555 1_555
C17 C7 1_555 1_555
H13 C17 1_555 1_555
C18 N2 1_555 1_555
H14 C18 1_555 1_555
H15 C18 1_555 1_555
H16 C18 1_555 1_555
C4 C13 1_555 1_555
C5 C6 1_555 1_555
C9 C14 1_555 1_555
C12 C17 1_555 1_555
C13 C14 1_555 1_555
C15 C16 1_555 1_555

#END
