
#######################################################################
#
#                 Cambridge Crystallographic Data Centre
#                                CCDC 
#
#######################################################################
#
# If this CIF has been generated from an entry in the Cambridge 
# Structural Database, then it will include bibliographic, chemical, 
# crystal, experimental, refinement or atomic coordinate data resulting 
# from the CCDC's data processing and validation procedures.
#
#######################################################################

data_DEVNIC
_chemical_name_common            
'1,3,7-trimethyl-2,6-dioxo-3,7-dihydro-1H-purin-9-ium perchlorate monohydrate'
_chemical_formula_moiety         'C8 H11 N4 O2 1+,Cl1 O4 1-,H2 O1'
_chemical_name_systematic        'caffeinium perchlorate monohydrate'
_chemical_properties_biological  
'Caffeine is a therapeutic agent with analeptic activity'
_symmetry_cell_setting           monoclinic
_symmetry_space_group_name_H-M   'P 21/c'
_symmetry_Int_Tables_number      14
_space_group_name_Hall           '-P 2ybc'
loop_
_symmetry_equiv_pos_site_id
_symmetry_equiv_pos_as_xyz
1 x,y,z
2 -x,1/2+y,1/2-z
3 -x,-y,-z
4 x,1/2-y,1/2+z
_cell_length_a                   13.061(2)
_cell_length_b                   6.5080(10)
_cell_length_c                   16.963(4)
_cell_angle_alpha                90
_cell_angle_beta                 112.200(10)
_cell_angle_gamma                90
_cell_volume                     1334.99
_exptl_crystal_colour            colorless
_exptl_crystal_description       block
_cell_formula_units_Z            4
loop_
_atom_site_label
_atom_site_type_symbol
_atom_site_fract_x
_atom_site_fract_y
_atom_site_fract_z
C1 C 0.4427(3) 0.2846(6) 0.0902(2)
N1 N 0.4594(3) 0.4684(5) 0.13449(19)
N2 N 0.3509(2) 0.1703(5) 0.08373(18)
N3 N 0.1985(3) 0.1392(6) 0.1333(2)
N4 N 0.2318(3) 0.4163(6) 0.2121(2)
C2 C 0.2890(3) 0.2325(6) 0.1271(2)
C3 C 0.3107(3) 0.4073(6) 0.1755(2)
C4 C 0.3992(3) 0.5393(7) 0.1818(2)
C5 C 0.1677(3) 0.2558(7) 0.1862(3)
H1 H 0.1087 0.2260 0.2023
C6 C 0.5575(4) 0.5850(8) 0.1406(3)
H2 H 0.5471 0.7270 0.1509
H3 H 0.5692 0.5724 0.0882
H4 H 0.6206 0.5322 0.1866
C7 C 0.3219(4) -0.0157(6) 0.0300(3)
H5 H 0.3286 -0.1343 0.0652
H6 H 0.3710 -0.0291 0.0001
H7 H 0.2472 -0.0046 -0.0103
C8 C 0.2238(4) 0.5748(8) 0.2715(3)
H8 H 0.1647 0.5409 0.2898
H9 H 0.2094 0.7058 0.2434
H10 H 0.2921 0.5810 0.3201
O1 O 0.4228(3) 0.7006(5) 0.2220(2)
O2 O 0.5053(2) 0.2290(5) 0.05687(18)
H11 H 0.172(4) -0.003(7) 0.109(3)
Cl1 Cl -0.1223(4) 0.5288(11) 0.1107(4)
O3 O -0.1144(7) 0.616(2) 0.0360(6)
O4 O -0.2264(6) 0.579(2) 0.1146(7)
O5 O -0.0354(7) 0.608(2) 0.1844(6)
O6 O -0.1108(10) 0.3103(11) 0.1085(9)
O7 O 0.0969(4) -0.2098(7) 0.0653(3)
Cl2? Cl -0.1314(2) 0.5264(4) 0.10773(14)
O8? O -0.1188(10) 0.7436(7) 0.1048(8)
O9? O -0.2411(4) 0.4677(16) 0.0547(6)
O10? O -0.1081(11) 0.464(2) 0.1935(3)
O11? O -0.0546(7) 0.427(2) 0.0778(8)
loop_
_geom_bond_atom_site_label_1
_geom_bond_atom_site_label_2
_geom_bond_site_symmetry_1
_geom_bond_site_symmetry_2
C1 N1 1_555 1_555
N1 C4 1_555 1_555
N2 C1 1_555 1_555
N3 C2 1_555 1_555
N4 C3 1_555 1_555
C2 N2 1_555 1_555
C3 C2 1_555 1_555
C4 C3 1_555 1_555
C5 N3 1_555 1_555
H1 C5 1_555 1_555
C6 N1 1_555 1_555
H2 C6 1_555 1_555
H3 C6 1_555 1_555
H4 C6 1_555 1_555
C7 N2 1_555 1_555
H5 C7 1_555 1_555
H6 C7 1_555 1_555
H7 C7 1_555 1_555
C8 N4 1_555 1_555
H8 C8 1_555 1_555
H9 C8 1_555 1_555
H10 C8 1_555 1_555
O1 C4 1_555 1_555
O2 C1 1_555 1_555
H11 N3 1_555 1_555
Cl1 O3 1_555 1_555
O4 Cl1 1_555 1_555
O5 Cl1 1_555 1_555
O6 Cl1 1_555 1_555
N4 C5 1_555 1_555

#END
