
#######################################################################
#
#                 Cambridge Crystallographic Data Centre
#                                CCDC 
#
#######################################################################
#
# If this CIF has been generated from an entry in the Cambridge 
# Structural Database, then it will include bibliographic, chemical, 
# crystal, experimental, refinement or atomic coordinate data resulting 
# from the CCDC's data processing and validation procedures.
#
#######################################################################

data_DEVQED
_chemical_formula_moiety         'C14 H9 N3 O2'
_chemical_name_systematic        9-methoxy-6H-2,4,10c-triazaaceanthrylen-6-one
_symmetry_cell_setting           monoclinic
_symmetry_space_group_name_H-M   'P 21/c'
_symmetry_Int_Tables_number      14
_space_group_name_Hall           '-P 2ybc'
loop_
_symmetry_equiv_pos_site_id
_symmetry_equiv_pos_as_xyz
1 x,y,z
2 -x,1/2+y,1/2-z
3 -x,-y,-z
4 x,1/2-y,1/2+z
_cell_length_a                   3.83987(18)
_cell_length_b                   13.1669(5)
_cell_length_c                   21.6058(8)
_cell_angle_alpha                90
_cell_angle_beta                 92.864(4)
_cell_angle_gamma                90
_cell_volume                     1091.01
_exptl_crystal_colour            yellow
_exptl_crystal_description       prism
_cell_formula_units_Z            4
loop_
_atom_site_label
_atom_site_type_symbol
_atom_site_fract_x
_atom_site_fract_y
_atom_site_fract_z
C1 C 0.7363(5) 0.24152(14) 0.69063(8)
C2 C 0.6038(4) 0.32976(14) 0.65458(8)
C3 C 0.6465(5) 0.43002(15) 0.66905(9)
H1 H 0.7720 0.4463 0.7056
C4 C 0.3369(6) 0.48489(15) 0.58141(10)
H2 H 0.2475 0.5375 0.5567
C5 C 0.2753(5) 0.38454(14) 0.56223(9)
C6 C 0.1341(5) 0.24171(14) 0.52153(9)
H3 H 0.0382 0.1936 0.4941
C7 C 0.3296(5) 0.21699(13) 0.57563(8)
C8 C 0.4474(4) 0.12752(14) 0.60877(8)
C9 C 0.6391(4) 0.14073(14) 0.66615(8)
C10 C 0.7432(5) 0.05380(15) 0.69939(8)
H4 H 0.8646 0.0614 0.7374
C11 C 0.6722(5) -0.04209(15) 0.67770(9)
H5 H 0.7443 -0.0986 0.7008
C12 C 0.4903(5) -0.05418(14) 0.62051(9)
C13 C 0.3810(5) 0.03001(14) 0.58654(8)
H6 H 0.2617 0.0213 0.5484
C14 C 0.5145(5) -0.23651(15) 0.62589(10)
H7 H 0.4379 -0.2942 0.6017
H8 H 0.4135 -0.2390 0.6656
H9 H 0.7641 -0.2376 0.6314
N1 N 0.5171(5) 0.50774(13) 0.63332(8)
N2 N 0.4133(4) 0.30905(11) 0.60064(6)
N3 N 0.0992(4) 0.34286(13) 0.51323(7)
O1 O 0.9251(4) 0.25438(11) 0.73750(6)
O2 O 0.4073(4) -0.14508(10) 0.59442(6)
loop_
_geom_bond_atom_site_label_1
_geom_bond_atom_site_label_2
_geom_bond_site_symmetry_1
_geom_bond_site_symmetry_2
C1 C2 1_555 1_555
C2 C3 1_555 1_555
C3 H1 1_555 1_555
C4 H2 1_555 1_555
C5 C4 1_555 1_555
C6 H3 1_555 1_555
C7 C6 1_555 1_555
C8 C7 1_555 1_555
C9 C1 1_555 1_555
C10 C9 1_555 1_555
H4 C10 1_555 1_555
C11 C10 1_555 1_555
H5 C11 1_555 1_555
C12 C11 1_555 1_555
C13 C8 1_555 1_555
H6 C13 1_555 1_555
C14 H7 1_555 1_555
H8 C14 1_555 1_555
H9 C14 1_555 1_555
N1 C3 1_555 1_555
N2 C2 1_555 1_555
N3 C5 1_555 1_555
O1 C1 1_555 1_555
O2 C12 1_555 1_555
C4 N1 1_555 1_555
C5 N2 1_555 1_555
C6 N3 1_555 1_555
C7 N2 1_555 1_555
C8 C9 1_555 1_555
C12 C13 1_555 1_555
C14 O2 1_555 1_555

#END
