
#######################################################################
#
#                 Cambridge Crystallographic Data Centre
#                                CCDC 
#
#######################################################################
#
# If this CIF has been generated from an entry in the Cambridge 
# Structural Database, then it will include bibliographic, chemical, 
# crystal, experimental, refinement or atomic coordinate data resulting 
# from the CCDC's data processing and validation procedures.
#
#######################################################################

data_DEVRII
_chemical_formula_moiety         'C54 H30 F36 N3 O6 P3'
_chemical_name_systematic        
2,2,4,4,6,6-hexakis{[3,5-bis(trifluoromethyl)phenyl]methoxy}-1,3,5,2,4,6-triazatriphosphinine
_symmetry_cell_setting           orthorhombic
_symmetry_space_group_name_H-M   'P 21 21 2'
_symmetry_Int_Tables_number      18
_space_group_name_Hall           'P 2 2ab'
loop_
_symmetry_equiv_pos_site_id
_symmetry_equiv_pos_as_xyz
1 x,y,z
2 1/2+x,1/2-y,-z
3 1/2-x,1/2+y,-z
4 -x,-y,z
_cell_length_a                   14.4925(8)
_cell_length_b                   24.5484(14)
_cell_length_c                   8.4275(5)
_cell_angle_alpha                90
_cell_angle_beta                 90
_cell_angle_gamma                90
_cell_volume                     2998.23
_exptl_crystal_colour            white
_exptl_crystal_description       block
_cell_formula_units_Z            2
loop_
_atom_site_label
_atom_site_type_symbol
_atom_site_fract_x
_atom_site_fract_y
_atom_site_fract_z
P1 P 0.5000 0.5000 0.30382(19)
O1 O 0.4723(2) 0.45173(12) 0.1893(4)
C1 C 0.5402(4) 0.43426(18) 0.0738(6)
C2 C 0.5246(3) 0.37491(18) 0.0355(6)
C3 C 0.4923(3) 0.3603(2) -0.1121(6)
C4 C 0.4837(3) 0.30471(19) -0.1514(6)
C5 C 0.5085(4) 0.2655(2) -0.0431(6)
C6 C 0.5388(4) 0.2804(2) 0.1060(6)
C7 C 0.5471(4) 0.3352(2) 0.1453(6)
H1 H 0.5688 0.3453 0.2475
C8 C 0.5657(6) 0.2374(3) 0.2208(9)
F1 F 0.4946(4) 0.2098(2) 0.2695(7)
F2 F 0.6257(5) 0.2030(2) 0.1637(6)
F3 F 0.6029(4) 0.25500(18) 0.3516(5)
H2 H 0.5043 0.2281 -0.0708
C9 C 0.4461(5) 0.2901(2) -0.3115(7)
F4 F 0.4763(3) 0.32368(13) -0.4248(4)
F5 F 0.3534(3) 0.29337(19) -0.3132(5)
F6 F 0.4694(3) 0.24026(14) -0.3541(4)
H3 H 0.4761 0.3875 -0.1873
H4 H 0.6032 0.4393 0.1170
H5 H 0.5346 0.4564 -0.0240
N1 N 0.5902(3) 0.48623(15) 0.3997(4)
P2 P 0.59210(8) 0.48438(5) 0.58760(14)
O2 O 0.6189(2) 0.42649(13) 0.6517(4)
C10 C 0.7001(4) 0.3988(2) 0.5885(7)
C11 C 0.7298(3) 0.3579(2) 0.7105(6)
C12 C 0.7294(3) 0.3027(2) 0.6777(6)
C13 C 0.7542(3) 0.26614(19) 0.7947(6)
C14 C 0.7785(3) 0.2832(2) 0.9452(6)
C15 C 0.7794(3) 0.33893(19) 0.9749(6)
C16 C 0.7563(3) 0.37567(19) 0.8596(6)
H6 H 0.7581 0.4136 0.8817
C17 C 0.8092(4) 0.3581(2) 1.1365(7)
F7 F 0.9007(2) 0.36203(16) 1.1469(4)
F8 F 0.7820(3) 0.32478(16) 1.2517(4)
F9 F 0.7751(3) 0.40689(14) 1.1733(4)
H7 H 0.7948 0.2577 1.0253
C18 C 0.7500(5) 0.2058(2) 0.7587(10)
F10 F 0.8014(5) 0.19250(18) 0.6416(7)
F11 F 0.6690(4) 0.18845(17) 0.7394(9)
F12 F 0.7816(5) 0.17596(16) 0.8757(7)
H8 H 0.7118 0.2901 0.5755
H9 H 0.7502 0.4253 0.5681
H10 H 0.6848 0.3802 0.4876
O3 O 0.6768(2) 0.51845(14) 0.6494(4)
C19 C 0.6963(4) 0.5724(2) 0.5873(7)
C20 C 0.7798(3) 0.57003(18) 0.4822(6)
C21 C 0.7716(4) 0.55948(18) 0.3198(6)
C22 C 0.8490(4) 0.55598(19) 0.2258(6)
C23 C 0.9362(4) 0.5635(2) 0.2904(6)
C24 C 0.9437(3) 0.57447(19) 0.4505(6)
C25 C 0.8665(3) 0.57772(19) 0.5448(6)
H11 H 0.8730 0.5856 0.6546
C26 C 1.0383(4) 0.5832(2) 0.5205(7)
F13 F 1.0665(2) 0.63431(14) 0.5085(5)
F14 F 1.1030(2) 0.55494(14) 0.4426(5)
F15 F 1.0431(3) 0.5701(3) 0.6710(5)
H12 H 0.9897 0.5612 0.2256
C27 C 0.8401(5) 0.5446(3) 0.0519(7)
F16 F 0.7560(3) 0.5325(3) 0.0075(5)
F17 F 0.8702(5) 0.58435(19) -0.0342(5)
F18 F 0.8900(4) 0.5017(2) 0.0081(5)
H13 H 0.7122 0.5547 0.2743
H14 H 0.7072 0.5982 0.6756
H15 H 0.6426 0.5855 0.5254
N2 N 0.5000 0.5000 0.6776(6)
O1C O 0.5277(2) 0.54827(12) 0.1893(4)
C1C C 0.4598(4) 0.56574(18) 0.0738(6)
C2C C 0.4754(3) 0.62509(18) 0.0355(6)
C3C C 0.5077(3) 0.6397(2) -0.1121(6)
C4C C 0.5163(3) 0.69529(19) -0.1514(6)
C5C C 0.4915(4) 0.7345(2) -0.0431(6)
C6C C 0.4612(4) 0.7196(2) 0.1060(6)
C7C C 0.4529(4) 0.6648(2) 0.1453(6)
H1C H 0.4312 0.6547 0.2475
C8C C 0.4343(6) 0.7626(3) 0.2208(9)
F1C F 0.5054(4) 0.7902(2) 0.2695(7)
F2C F 0.3743(5) 0.7970(2) 0.1637(6)
F3C F 0.3971(4) 0.74500(18) 0.3516(5)
H2C H 0.4957 0.7719 -0.0708
C9C C 0.5539(5) 0.7099(2) -0.3115(7)
F4C F 0.5237(3) 0.67632(13) -0.4248(4)
F5C F 0.6466(3) 0.70663(19) -0.3132(5)
F6C F 0.5306(3) 0.75974(14) -0.3541(4)
H3C H 0.5239 0.6125 -0.1873
H4C H 0.3968 0.5607 0.1170
H5C H 0.4654 0.5436 -0.0240
N1C N 0.4098(3) 0.51377(15) 0.3997(4)
P2C P 0.40790(8) 0.51562(5) 0.58760(14)
O2C O 0.3811(2) 0.57351(13) 0.6517(4)
C10C C 0.2999(4) 0.6012(2) 0.5885(7)
C11C C 0.2702(3) 0.6421(2) 0.7105(6)
C12C C 0.2706(3) 0.6973(2) 0.6777(6)
C13C C 0.2458(3) 0.73386(19) 0.7947(6)
C14C C 0.2215(3) 0.7168(2) 0.9452(6)
C15C C 0.2206(3) 0.66107(19) 0.9749(6)
C16C C 0.2437(3) 0.62433(19) 0.8596(6)
H6C H 0.2419 0.5864 0.8817
C17C C 0.1908(4) 0.6419(2) 1.1365(7)
F7C F 0.0993(2) 0.63797(16) 1.1469(4)
F8C F 0.2180(3) 0.67522(16) 1.2517(4)
F9C F 0.2249(3) 0.59311(14) 1.1733(4)
H7C H 0.2052 0.7423 1.0253
C18C C 0.2500(5) 0.7942(2) 0.7587(10)
F10C F 0.1986(5) 0.80750(18) 0.6416(7)
F11C F 0.3310(4) 0.81155(17) 0.7394(9)
F12C F 0.2184(5) 0.82404(16) 0.8757(7)
H8C H 0.2882 0.7099 0.5755
H9C H 0.2498 0.5747 0.5681
H10C H 0.3152 0.6198 0.4876
O3C O 0.3232(2) 0.48155(14) 0.6494(4)
C19C C 0.3037(4) 0.4276(2) 0.5873(7)
C20C C 0.2202(3) 0.42997(18) 0.4822(6)
C21C C 0.2284(4) 0.44052(18) 0.3198(6)
C22C C 0.1510(4) 0.44402(19) 0.2258(6)
C23C C 0.0638(4) 0.4365(2) 0.2904(6)
C24C C 0.0563(3) 0.42553(19) 0.4505(6)
C25C C 0.1335(3) 0.42228(19) 0.5448(6)
H11C H 0.1270 0.4144 0.6546
C26C C -0.0383(4) 0.4168(2) 0.5205(7)
F13C F -0.0665(2) 0.36569(14) 0.5085(5)
F14C F -0.1030(2) 0.44506(14) 0.4426(5)
F15C F -0.0431(3) 0.4299(3) 0.6710(5)
H12C H 0.0103 0.4388 0.2256
C27C C 0.1599(5) 0.4554(3) 0.0519(7)
F16C F 0.2440(3) 0.4675(3) 0.0075(5)
F17C F 0.1298(5) 0.41565(19) -0.0342(5)
F18C F 0.1100(4) 0.4983(2) 0.0081(5)
H13C H 0.2878 0.4453 0.2743
H14C H 0.2928 0.4018 0.6756
H15C H 0.3574 0.4145 0.5254
loop_
_geom_bond_atom_site_label_1
_geom_bond_atom_site_label_2
_geom_bond_site_symmetry_1
_geom_bond_site_symmetry_2
P1 O1 1_555 1_555
O1 C1 1_555 1_555
C1 C2 1_555 1_555
C2 C3 1_555 1_555
C3 C4 1_555 1_555
C4 C5 1_555 1_555
C5 C6 1_555 1_555
C6 C7 1_555 1_555
C7 C2 1_555 1_555
H1 C7 1_555 1_555
C8 C6 1_555 1_555
F1 C8 1_555 1_555
F2 C8 1_555 1_555
F3 C8 1_555 1_555
H2 C5 1_555 1_555
C9 C4 1_555 1_555
F4 C9 1_555 1_555
F5 C9 1_555 1_555
F6 C9 1_555 1_555
H3 C3 1_555 1_555
H4 C1 1_555 1_555
H5 C1 1_555 1_555
N1 P1 1_555 1_555
P2 N1 1_555 1_555
O2 P2 1_555 1_555
C10 O2 1_555 1_555
C11 C10 1_555 1_555
C12 C11 1_555 1_555
C13 C12 1_555 1_555
C14 C13 1_555 1_555
C15 C14 1_555 1_555
C16 C11 1_555 1_555
H6 C16 1_555 1_555
C17 C15 1_555 1_555
F7 C17 1_555 1_555
F8 C17 1_555 1_555
F9 C17 1_555 1_555
H7 C14 1_555 1_555
C18 C13 1_555 1_555
F10 C18 1_555 1_555
F11 C18 1_555 1_555
F12 C18 1_555 1_555
H8 C12 1_555 1_555
H9 C10 1_555 1_555
H10 C10 1_555 1_555
O3 P2 1_555 1_555
C19 O3 1_555 1_555
C20 C19 1_555 1_555
C21 C20 1_555 1_555
C22 C21 1_555 1_555
C23 C22 1_555 1_555
C24 C23 1_555 1_555
C25 C20 1_555 1_555
H11 C25 1_555 1_555
C26 C24 1_555 1_555
F13 C26 1_555 1_555
F14 C26 1_555 1_555
F15 C26 1_555 1_555
H12 C23 1_555 1_555
C27 C22 1_555 1_555
F16 C27 1_555 1_555
F17 C27 1_555 1_555
F18 C27 1_555 1_555
H13 C21 1_555 1_555
H14 C19 1_555 1_555
H15 C19 1_555 1_555
N2 P2 1_555 1_555
O1C P1 1_555 1_555
C1C O1C 1_555 1_555
C2C C1C 1_555 1_555
C3C C2C 1_555 1_555
C4C C3C 1_555 1_555
C5C C4C 1_555 1_555
C6C C5C 1_555 1_555
C7C C2C 1_555 1_555
H1C C7C 1_555 1_555
C8C C6C 1_555 1_555
F1C C8C 1_555 1_555
F2C C8C 1_555 1_555
F3C C8C 1_555 1_555
H2C C5C 1_555 1_555
C9C C4C 1_555 1_555
F4C C9C 1_555 1_555
F5C C9C 1_555 1_555
F6C C9C 1_555 1_555
H3C C3C 1_555 1_555
H4C C1C 1_555 1_555
H5C C1C 1_555 1_555
N1C P1 1_555 1_555
P2C N2 1_555 1_555
O2C P2C 1_555 1_555
C10C O2C 1_555 1_555
C11C C10C 1_555 1_555
C12C C11C 1_555 1_555
C13C C12C 1_555 1_555
C14C C13C 1_555 1_555
C15C C14C 1_555 1_555
C16C C11C 1_555 1_555
H6C C16C 1_555 1_555
C17C C15C 1_555 1_555
F7C C17C 1_555 1_555
F8C C17C 1_555 1_555
F9C C17C 1_555 1_555
H7C C14C 1_555 1_555
C18C C13C 1_555 1_555
F10C C18C 1_555 1_555
F11C C18C 1_555 1_555
F12C C18C 1_555 1_555
H8C C12C 1_555 1_555
H9C C10C 1_555 1_555
H10C C10C 1_555 1_555
O3C P2C 1_555 1_555
C19C O3C 1_555 1_555
C20C C19C 1_555 1_555
C21C C20C 1_555 1_555
C22C C21C 1_555 1_555
C23C C22C 1_555 1_555
C24C C23C 1_555 1_555
C25C C20C 1_555 1_555
H11C C25C 1_555 1_555
C26C C24C 1_555 1_555
F13C C26C 1_555 1_555
F14C C26C 1_555 1_555
F15C C26C 1_555 1_555
H12C C23C 1_555 1_555
C27C C22C 1_555 1_555
F16C C27C 1_555 1_555
F17C C27C 1_555 1_555
F18C C27C 1_555 1_555
H13C C21C 1_555 1_555
H14C C19C 1_555 1_555
H15C C19C 1_555 1_555
C15 C16 1_555 1_555
C24 C25 1_555 1_555
C6C C7C 1_555 1_555
N1C P2C 1_555 1_555
C15C C16C 1_555 1_555
C24C C25C 1_555 1_555

#END
