
#######################################################################
#
#                 Cambridge Crystallographic Data Centre
#                                CCDC 
#
#######################################################################
#
# If this CIF has been generated from an entry in the Cambridge 
# Structural Database, then it will include bibliographic, chemical, 
# crystal, experimental, refinement or atomic coordinate data resulting 
# from the CCDC's data processing and validation procedures.
#
#######################################################################

data_DEVVUY
_chemical_formula_moiety         'C28 H30 Cl1 N1 O3'
_chemical_name_systematic        
1-benzyl-5-chloro-3-hydroxy-3-[2-oxo-4-(2,6,6-trimethylcyclohex-1-en-1-yl)but-3-en-1-yl]-1,3-dihydro-2H-indol-2-one
_symmetry_cell_setting           triclinic
_symmetry_space_group_name_H-M   'P -1'
_symmetry_Int_Tables_number      2
_space_group_name_Hall           '-P 1'
loop_
_symmetry_equiv_pos_site_id
_symmetry_equiv_pos_as_xyz
1 x,y,z
2 -x,-y,-z
_cell_length_a                   10.3777(10)
_cell_length_b                   10.8164(10)
_cell_length_c                   11.2222(10)
_cell_angle_alpha                78.5650(10)
_cell_angle_beta                 89.2910(10)
_cell_angle_gamma                74.2930(10)
_cell_volume                     1187.44
_exptl_crystal_colour            colorless
_exptl_crystal_description       prism
_cell_formula_units_Z            2
loop_
_atom_site_label
_atom_site_type_symbol
_atom_site_fract_x
_atom_site_fract_y
_atom_site_fract_z
Cl1 Cl 0.41890(2) 0.18595(3) 1.07024(2)
O1 O 0.82063(7) 0.45683(7) 1.08121(6)
H1 H 0.8517(15) 0.5183(15) 1.0560(14)
O2 O 1.09457(7) 0.32303(7) 1.00748(6)
O3 O 0.91974(8) 0.25228(7) 0.79861(6)
N1 N 0.99194(8) 0.16134(7) 1.08224(7)
C1 C 1.15064(10) 0.07503(11) 1.52597(9)
H2 H 1.1636 0.0772 1.6091
C2 C 1.17134(11) -0.04422(11) 1.49010(9)
H3 H 1.1968 -0.1238 1.5490
C3 C 1.15472(10) -0.04733(9) 1.36761(9)
H4 H 1.1686 -0.1292 1.3436
C4 C 1.11789(9) 0.06856(9) 1.28018(8)
C5 C 1.10849(9) 0.06341(9) 1.14646(8)
H5 H 1.1907 0.0778 1.1074
H6 H 1.1036 -0.0250 1.1393
C6 C 0.99368(9) 0.28449(9) 1.02465(8)
C7 C 0.84694(9) 0.37026(8) 0.99768(8)
C8 C 0.81847(10) 0.44923(8) 0.86755(8)
H7 H 0.7226 0.4988 0.8577
H8 H 0.8717 0.5137 0.8543
C9 C 0.85037(9) 0.36654(9) 0.77064(8)
C10 C 0.80166(10) 0.42429(9) 0.64424(8)
H9 H 0.8244 0.3714 0.5848
C11 C 0.72565(9) 0.54973(9) 0.60860(8)
H10 H 0.7057 0.5971 0.6724
C12 C 0.66908(9) 0.62483(9) 0.48895(8)
C13 C 0.58057(10) 0.74446(9) 0.48596(8)
C14 C 0.51034(11) 0.83034(10) 0.37019(9)
H11 H 0.5534 0.9019 0.3436
H12 H 0.4160 0.8709 0.3868
C15 C 0.51248(11) 0.75714(11) 0.26748(9)
H13 H 0.4808 0.8202 0.1900
H14 H 0.4524 0.6991 0.2845
C16 C 1.09441(11) 0.18824(10) 1.31773(9)
H15 H 1.0670 0.2681 1.2594
C17 C 1.11097(11) 0.19111(11) 1.43994(10)
H16 H 1.0950 0.2729 1.4646
C18 C 0.85986(9) 0.14945(8) 1.08696(8)
C19 C 0.76984(9) 0.26974(8) 1.03557(8)
C20 C 0.54196(11) 0.80496(10) 0.59655(9)
H17 H 0.4927 0.7530 0.6509
H18 H 0.4851 0.8949 0.5706
H19 H 0.6231 0.8061 0.6397
C21 C 0.65532(10) 0.67617(9) 0.25744(8)
H20 H 0.7142 0.7354 0.2417
H21 H 0.6588 0.6329 0.1871
C22 C 0.70947(9) 0.57042(9) 0.37305(8)
C23 C 0.86309(10) 0.53090(10) 0.36466(9)
H22 H 0.8971 0.6064 0.3678
H23 H 0.8867 0.5020 0.2879
H24 H 0.9032 0.4591 0.4330
C24 C 0.65412(11) 0.45180(10) 0.37057(9)
H25 H 0.6836 0.3858 0.4455
H26 H 0.6877 0.4135 0.3002
H27 H 0.5560 0.4809 0.3644
C25 C 0.63376(9) 0.28288(9) 1.02930(8)
H28 H 0.5719 0.3645 0.9952
C26 C 0.59036(9) 0.17136(10) 1.07514(8)
C27 C 0.67963(10) 0.05100(10) 1.12342(8)
H29 H 0.6470 -0.0231 1.1518
C28 C 0.81787(10) 0.03795(9) 1.13067(8)
H30 H 0.8800 -0.0437 1.1641
loop_
_geom_bond_atom_site_label_1
_geom_bond_atom_site_label_2
_geom_bond_site_symmetry_1
_geom_bond_site_symmetry_2
Cl1 C26 1_555 1_555
O1 H1 1_555 1_555
O2 C6 1_555 1_555
O3 C9 1_555 1_555
N1 C5 1_555 1_555
C1 H2 1_555 1_555
C2 C1 1_555 1_555
H3 C2 1_555 1_555
C3 C2 1_555 1_555
H4 C3 1_555 1_555
C4 C3 1_555 1_555
C5 C4 1_555 1_555
H5 C5 1_555 1_555
H6 C5 1_555 1_555
C6 N1 1_555 1_555
C7 O1 1_555 1_555
C8 C7 1_555 1_555
H7 C8 1_555 1_555
H8 C8 1_555 1_555
C9 C8 1_555 1_555
C10 C9 1_555 1_555
H9 C10 1_555 1_555
C11 C10 1_555 1_555
H10 C11 1_555 1_555
C12 C11 1_555 1_555
C13 C12 1_555 1_555
C14 C13 1_555 1_555
H11 C14 1_555 1_555
H12 C14 1_555 1_555
C15 C14 1_555 1_555
H13 C15 1_555 1_555
H14 C15 1_555 1_555
C16 C4 1_555 1_555
H15 C16 1_555 1_555
C17 C1 1_555 1_555
H16 C17 1_555 1_555
C18 N1 1_555 1_555
C19 C7 1_555 1_555
C20 C13 1_555 1_555
H17 C20 1_555 1_555
H18 C20 1_555 1_555
H19 C20 1_555 1_555
C21 C15 1_555 1_555
H20 C21 1_555 1_555
H21 C21 1_555 1_555
C22 C12 1_555 1_555
C23 C22 1_555 1_555
H22 C23 1_555 1_555
H23 C23 1_555 1_555
H24 C23 1_555 1_555
C24 C22 1_555 1_555
H25 C24 1_555 1_555
H26 C24 1_555 1_555
H27 C24 1_555 1_555
C25 C19 1_555 1_555
H28 C25 1_555 1_555
C26 C25 1_555 1_555
C27 C26 1_555 1_555
H29 C27 1_555 1_555
C28 C18 1_555 1_555
H30 C28 1_555 1_555
C6 C7 1_555 1_555
C16 C17 1_555 1_555
C18 C19 1_555 1_555
C21 C22 1_555 1_555
C27 C28 1_555 1_555

#END
