
#######################################################################
#
#                 Cambridge Crystallographic Data Centre
#                                CCDC 
#
#######################################################################
#
# If this CIF has been generated from an entry in the Cambridge 
# Structural Database, then it will include bibliographic, chemical, 
# crystal, experimental, refinement or atomic coordinate data resulting 
# from the CCDC's data processing and validation procedures.
#
#######################################################################

data_DEVWAF
_chemical_formula_moiety         'C20 H14 Br1 N3,C3 H7 N1 O1'
_chemical_name_systematic        
'6-(2-bromophenyl)-5,6-dihydrobenzimidazo[1,2-c]quinazoline N,N-dimethylformamide solvate'
_symmetry_cell_setting           monoclinic
_symmetry_space_group_name_H-M   'P 21/c'
_symmetry_Int_Tables_number      14
_space_group_name_Hall           '-P 2ybc'
loop_
_symmetry_equiv_pos_site_id
_symmetry_equiv_pos_as_xyz
1 x,y,z
2 -x,1/2+y,1/2-z
3 -x,-y,-z
4 x,1/2-y,1/2+z
_cell_length_a                   15.502(5)
_cell_length_b                   9.912(3)
_cell_length_c                   14.652(4)
_cell_angle_alpha                90
_cell_angle_beta                 110.649(9)
_cell_angle_gamma                90
_cell_volume                     2106.73
_exptl_crystal_colour            colorless
_cell_formula_units_Z            4
loop_
_atom_site_label
_atom_site_type_symbol
_atom_site_fract_x
_atom_site_fract_y
_atom_site_fract_z
O1 O 0.8458(9) 0.8553(14) 0.4237(10)
N1 N 0.8589(10) 1.0697(16) 0.4818(9)
C1 C 0.8284(13) 0.9735(19) 0.4131(11)
H1 H 0.7901 1.0013 0.3515
C2 C 0.9168(17) 1.027(3) 0.5780(15)
H2 H 0.9293 0.9325 0.5772
H3 H 0.8860 1.0446 0.6233
H4 H 0.9738 1.0765 0.5974
C3 C 0.8299(19) 1.208(2) 0.4604(18)
H5 H 0.7919 1.2158 0.3928
H6 H 0.8831 1.2647 0.4738
H7 H 0.7954 1.2352 0.5002
Br1 Br 0.59818(13) 0.96744(16) 0.43252(11)
N2 N 0.7613(7) 0.6638(12) 0.5185(8)
H8 H 0.7640 0.6952 0.4649
N3 N 0.6632(6) 0.5811(9) 0.5999(6)
N4 N 0.6897(7) 0.3913(10) 0.6871(8)
C4 C 0.8312(9) 0.5816(15) 0.5782(9)
C5 C 0.9210(8) 0.594(2) 0.5731(11)
H9 H 0.9344 0.6607 0.5356
C6 C 0.9863(10) 0.504(3) 0.6257(18)
H10 H 1.0446 0.5095 0.6211
C7 C 0.9709(12) 0.405(3) 0.6861(14)
H11 H 1.0172 0.3439 0.7187
C8 C 0.8847(8) 0.3985(16) 0.6965(10)
H12 H 0.8736 0.3386 0.7399
C9 C 0.8164(8) 0.4847(14) 0.6397(10)
C10 C 0.7258(8) 0.4801(10) 0.6455(10)
C11 C 0.6001(8) 0.4364(12) 0.6726(10)
C12 C 0.5338(9) 0.3842(14) 0.7032(10)
H13 H 0.5450 0.3061 0.7407
C13 C 0.4509(13) 0.448(2) 0.6782(12)
H14 H 0.4044 0.4106 0.6967
C14 C 0.4350(9) 0.567(2) 0.6255(15)
H15 H 0.3787 0.6099 0.6129
C15 C 0.5002(9) 0.6266(14) 0.5894(9)
H16 H 0.4881 0.7033 0.5503
C16 C 0.5841(6) 0.5580(12) 0.6190(8)
C17 C 0.6839(8) 0.6954(11) 0.5484(7)
H17 H 0.6301 0.7104 0.4891
C18 C 0.6983(7) 0.8233(11) 0.6107(8)
C19 C 0.6664(8) 0.9469(12) 0.5685(9)
C20 C 0.6817(10) 1.0638(14) 0.6260(11)
H18 H 0.6582 1.1460 0.5973
C21 C 0.7293(9) 1.0581(15) 0.7212(12)
H19 H 0.7406 1.1370 0.7578
C22 C 0.7642(9) 0.9297(14) 0.7691(10)
H20 H 0.7957 0.9236 0.8360
C23 C 0.7477(7) 0.8187(13) 0.7092(9)
H21 H 0.7711 0.7359 0.7368
loop_
_geom_bond_atom_site_label_1
_geom_bond_atom_site_label_2
_geom_bond_site_symmetry_1
_geom_bond_site_symmetry_2
O1 C1 1_555 1_555
N1 C1 1_555 1_555
C1 H1 1_555 1_555
C2 N1 1_555 1_555
H2 C2 1_555 1_555
H3 C2 1_555 1_555
H4 C2 1_555 1_555
C3 N1 1_555 1_555
H5 C3 1_555 1_555
H6 C3 1_555 1_555
H7 C3 1_555 1_555
Br1 C19 1_555 1_555
N2 H8 1_555 1_555
N3 C10 1_555 1_555
N4 C10 1_555 1_555
C4 N2 1_555 1_555
C5 C4 1_555 1_555
H9 C5 1_555 1_555
C6 C5 1_555 1_555
H10 C6 1_555 1_555
C7 C6 1_555 1_555
H11 C7 1_555 1_555
C8 C7 1_555 1_555
H12 C8 1_555 1_555
C9 C4 1_555 1_555
C10 C9 1_555 1_555
C11 N4 1_555 1_555
C12 C11 1_555 1_555
H13 C12 1_555 1_555
C13 C12 1_555 1_555
H14 C13 1_555 1_555
C14 C13 1_555 1_555
H15 C14 1_555 1_555
C15 C14 1_555 1_555
H16 C15 1_555 1_555
C16 N3 1_555 1_555
C17 N2 1_555 1_555
H17 C17 1_555 1_555
C18 C17 1_555 1_555
C19 C18 1_555 1_555
C20 C19 1_555 1_555
H18 C20 1_555 1_555
C21 C20 1_555 1_555
H19 C21 1_555 1_555
C22 C21 1_555 1_555
H20 C22 1_555 1_555
C23 C18 1_555 1_555
H21 C23 1_555 1_555
N3 C17 1_555 1_555
C8 C9 1_555 1_555
C11 C16 1_555 1_555
C15 C16 1_555 1_555
C22 C23 1_555 1_555

#END
