
#######################################################################
#
#                 Cambridge Crystallographic Data Centre
#                                CCDC 
#
#######################################################################
#
# If this CIF has been generated from an entry in the Cambridge 
# Structural Database, then it will include bibliographic, chemical, 
# crystal, experimental, refinement or atomic coordinate data resulting 
# from the CCDC's data processing and validation procedures.
#
#######################################################################

data_DEVYUZ
_chemical_formula_moiety         'H6 B14 O26 4-,2(C4 H14 N2 2+)'
_chemical_name_systematic        
'bis(1,4-Butanediammonium) 5,9,13,19,23,27-hexahydroxy-1,3,5,7,9,11,13,15,17,19,21,23,25,27-tetradecabory-2,4,6,8,10,12,14,16,18,20,22,24,26,28,29,30,31,32,33,34-icosaoxy-[028.1^1,25^1^3,7^1^7,11^1^11,15^1^17,21^1^21,25^]heptacycle'
_symmetry_cell_setting           triclinic
_symmetry_space_group_name_H-M   'P -1'
_symmetry_Int_Tables_number      2
_space_group_name_Hall           '-P 1'
loop_
_symmetry_equiv_pos_site_id
_symmetry_equiv_pos_as_xyz
1 x,y,z
2 -x,-y,-z
_cell_length_a                   8.8769(3)
_cell_length_b                   9.3204(2)
_cell_length_c                   10.2204(5)
_cell_angle_alpha                74.474(2)
_cell_angle_beta                 85.292(5)
_cell_angle_gamma                72.730(2)
_cell_volume                     778.006
_exptl_crystal_colour            white
_exptl_crystal_description       block
_cell_formula_units_Z            1
loop_
_atom_site_label
_atom_site_type_symbol
_atom_site_fract_x
_atom_site_fract_y
_atom_site_fract_z
B1 B 0.9624(5) 0.8171(5) 0.2930(4)
B2 B 0.8131(5) 1.0478(5) 0.1421(4)
B3 B 0.6742(4) 0.8553(4) 0.2685(4)
B4 B 0.4450(4) 0.8408(4) 0.4252(4)
B5 B 0.4742(4) 0.7176(4) 0.2336(4)
B6 B 0.7046(5) 1.2715(5) -0.0498(4)
B7 B 0.5599(5) 1.5186(5) -0.1822(4)
O1 O 1.1024(3) 0.7245(3) 0.3513(3)
H1 H 1.1689 0.7720 0.3322
O2 O 0.9547(3) 0.9606(3) 0.2053(3)
O3 O 0.8121(3) 1.1875(3) 0.0527(3)
O4 O 0.6821(3) 1.0015(3) 0.1697(2)
O5 O 0.8345(3) 0.7640(3) 0.3226(3)
O6 O 0.5716(3) 0.8960(3) 0.3826(2)
O7 O 0.3639(3) 0.8698(3) 0.5405(2)
H2 H 0.3864 0.9406 0.5601
O8 O 0.3949(3) 0.7571(3) 0.3576(3)
O9 O 0.6159(3) 0.7631(3) 0.2037(2)
O10 O 0.6400(3) 1.1990(3) -0.1187(2)
O11 O 0.6698(3) 1.4301(3) -0.0811(3)
O12 O 0.5083(3) 0.5478(3) 0.2536(3)
O13 O 0.5254(4) 1.6752(3) -0.2049(3)
H3 H 0.4808 1.7174 -0.2783
B1A B 0.0376(5) 1.1829(5) -0.2930(4)
B2A B 0.1869(5) 0.9522(5) -0.1421(4)
B3A B 0.3258(4) 1.1447(4) -0.2685(4)
B4A B 0.5550(4) 1.1592(4) -0.4252(4)
B5A B 0.5258(4) 1.2824(4) -0.2336(4)
B6A B 0.2954(5) 0.7285(5) 0.0498(4)
B7A B 0.4401(5) 0.4814(5) 0.1822(4)
O1A O -0.1024(3) 1.2755(3) -0.3513(3)
H1A H -0.1689 1.2280 -0.3322
O2A O 0.0453(3) 1.0394(3) -0.2053(3)
O3A O 0.1879(3) 0.8125(3) -0.0527(3)
O4A O 0.3179(3) 0.9985(3) -0.1697(2)
O5A O 0.1655(3) 1.2360(3) -0.3226(3)
O6A O 0.4284(3) 1.1040(3) -0.3826(2)
O7A O 0.6361(3) 1.1302(3) -0.5405(2)
H2A H 0.6136 1.0594 -0.5601
O8A O 0.6051(3) 1.2429(3) -0.3576(3)
O9A O 0.3841(3) 1.2369(3) -0.2037(2)
O10A O 0.3600(3) 0.8010(3) 0.1187(2)
O11A O 0.3302(3) 0.5699(3) 0.0811(3)
O12A O 0.4917(3) 1.4522(3) -0.2536(3)
O13A O 0.4746(4) 0.3248(3) 0.2049(3)
H3A H 0.5192 0.2826 0.2783
N1 N 0.1969(4) 0.5437(4) 0.6194(4)
H4 H 0.2987 0.5284 0.6335
H5 H 0.1755 0.5848 0.5314
H6 H 0.1743 0.4533 0.6461
N2 N -0.3437(3) 0.8681(4) 0.9286(3)
H7 H -0.3526 0.8407 1.0186
H8 H -0.4249 0.8566 0.8910
H9 H -0.3432 0.9670 0.9015
C1 C 0.0978(7) 0.6541(7) 0.7003(7)
H10 H 0.1204 0.6105 0.7965
H11 H 0.1217 0.7530 0.6723
C2 C -0.0712(8) 0.6766(8) 0.6741(6)
H12 H -0.0992 0.5816 0.7167
H13 H -0.0887 0.7010 0.5772
C3 C -0.1769(6) 0.8129(6) 0.7332(5)
H14 H -0.1314 0.8991 0.7075
H15 H -0.2809 0.8482 0.6926
C4 C -0.1943(5) 0.7680(5) 0.8862(4)
H16 H -0.1940 0.6601 0.9167
H17 H -0.1057 0.7794 0.9280
loop_
_geom_bond_atom_site_label_1
_geom_bond_atom_site_label_2
_geom_bond_site_symmetry_1
_geom_bond_site_symmetry_2
B1 O1 1_555 1_555
B2 O2 1_555 1_555
B3 O4 1_555 1_555
B4 O6 1_555 1_555
B5 O8 1_555 1_555
B6 O3 1_555 1_555
B7 O11 1_555 1_555
O1 H1 1_555 1_555
O2 B1 1_555 1_555
O3 B2 1_555 1_555
O4 B2 1_555 1_555
O5 B1 1_555 1_555
O6 B3 1_555 1_555
O7 B4 1_555 1_555
H2 O7 1_555 1_555
O8 B4 1_555 1_555
O9 B3 1_555 1_555
O10 B6 1_555 1_555
O11 B6 1_555 1_555
O12 B5 1_555 1_555
O13 B7 1_555 1_555
H3 O13 1_555 1_555
N1 H4 1_555 1_555
H5 N1 1_555 1_555
H6 N1 1_555 1_555
N2 H7 1_555 1_555
H8 N2 1_555 1_555
H9 N2 1_555 1_555
C1 N1 1_555 1_555
H10 C1 1_555 1_555
H11 C1 1_555 1_555
C2 C1 1_555 1_555
H12 C2 1_555 1_555
H13 C2 1_555 1_555
C3 C2 1_555 1_555
H14 C3 1_555 1_555
H15 C3 1_555 1_555
C4 N2 1_555 1_555
H16 C4 1_555 1_555
H17 C4 1_555 1_555
B1A O1A 1_555 1_555
B2A O2A 1_555 1_555
B3A O4A 1_555 1_555
B4A O6A 1_555 1_555
B5A O10 1_555 1_555
B6A O3A 1_555 1_555
B7A O12 1_555 1_555
O1A H1A 1_555 1_555
O2A B1A 1_555 1_555
O3A B2A 1_555 1_555
O4A B2A 1_555 1_555
O5A B1A 1_555 1_555
O6A B3A 1_555 1_555
O7A B4A 1_555 1_555
H2A O7A 1_555 1_555
O8A B4A 1_555 1_555
O9A B3A 1_555 1_555
O10A B5 1_555 1_555
O11A B6A 1_555 1_555
O12A B7 1_555 1_555
O13A B7A 1_555 1_555
H3A O13A 1_555 1_555
B3 O5 1_555 1_555
B5 O9 1_555 1_555
C3 C4 1_555 1_555
B3A O5A 1_555 1_555
B5A O8A 1_555 1_555
B5A O9A 1_555 1_555
B5A O12A 1_555 1_555
B6A O10A 1_555 1_555
B7A O11A 1_555 1_555

#END
