
#######################################################################
#
#                 Cambridge Crystallographic Data Centre
#                                CCDC 
#
#######################################################################
#
# If this CIF has been generated from an entry in the Cambridge 
# Structural Database, then it will include bibliographic, chemical, 
# crystal, experimental, refinement or atomic coordinate data resulting 
# from the CCDC's data processing and validation procedures.
#
#######################################################################

data_DEWLID
_chemical_formula_moiety         'C13 H9 N1 S6'
_chemical_name_systematic        
4-[2-(5,6-dihydro-2H-[1,3]dithiolo[4,5-b][1,4]dithiin-2-ylidene)-2H-1,3-dithiol-4-yl]pyridine
_symmetry_cell_setting           monoclinic
_symmetry_space_group_name_H-M   'P 21/c'
_symmetry_Int_Tables_number      14
_space_group_name_Hall           '-P 2ybc'
loop_
_symmetry_equiv_pos_site_id
_symmetry_equiv_pos_as_xyz
1 x,y,z
2 -x,1/2+y,1/2-z
3 -x,-y,-z
4 x,1/2-y,1/2+z
_cell_length_a                   6.5057(3)
_cell_length_b                   31.7763(15)
_cell_length_c                   7.3552(4)
_cell_angle_alpha                90
_cell_angle_beta                 104.829(2)
_cell_angle_gamma                90
_cell_volume                     1469.88
_exptl_crystal_description       block
_cell_formula_units_Z            4
loop_
_atom_site_label
_atom_site_type_symbol
_atom_site_fract_x
_atom_site_fract_y
_atom_site_fract_z
S1 S 0.46323(14) 0.64135(3) 0.65918(16)
S2 S 0.78515(14) 0.76339(3) 0.74325(15)
S3 S 0.33369(15) 0.73835(3) 0.63349(16)
S4 S 0.91870(14) 0.66408(3) 0.76607(16)
S5 S 0.53549(16) 0.54961(3) 0.67086(19)
S6 S 1.07622(16) 0.57764(3) 0.79928(19)
N1 N 0.8212(7) 0.93116(10) 0.7309(6)
C1 C 0.5961(6) 0.80395(10) 0.6945(5)
C2 C 0.6544(5) 0.68137(10) 0.7069(5)
C3 C 0.6732(6) 0.84735(10) 0.7107(5)
C4 C 0.8536(6) 0.61029(10) 0.7520(6)
C5 C 0.6011(5) 0.72217(10) 0.6968(5)
C6 C 0.6489(6) 0.60008(10) 0.7027(6)
C7 C 0.3926(6) 0.79133(11) 0.6459(6)
H1 H 0.2836 0.8111 0.6190
C8 C 0.8880(7) 0.85696(12) 0.7740(6)
H2 H 0.9879 0.8356 0.8110
C9 C 0.5359(7) 0.88119(12) 0.6593(6)
H3 H 0.3903 0.8767 0.6158
C10 C 0.9514(8) 0.89856(13) 0.7815(7)
H4 H 1.0960 0.9042 0.8251
C11 C 0.6159(9) 0.92142(13) 0.6729(7)
H5 H 0.5195 0.9434 0.6391
C12 C 0.9576(8) 0.52913(14) 0.7116(10)
H6 H 0.9349 0.5296 0.5760
H7 H 1.0606 0.5071 0.7593
C13 C 0.7648(8) 0.51703(14) 0.7497(11)
H8 H 0.7908 0.5141 0.8849
H9 H 0.7290 0.4893 0.6958
loop_
_geom_bond_atom_site_label_1
_geom_bond_atom_site_label_2
_geom_bond_site_symmetry_1
_geom_bond_site_symmetry_2
S1 C2 1_555 1_555
S2 C1 1_555 1_555
S3 C5 1_555 1_555
S4 C2 1_555 1_555
S5 C6 1_555 1_555
S6 C4 1_555 1_555
N1 C10 1_555 1_555
C1 C3 1_555 1_555
C2 C5 1_555 1_555
C3 C8 1_555 1_555
C4 S4 1_555 1_555
C5 S2 1_555 1_555
C6 S1 1_555 1_555
C7 S3 1_555 1_555
H1 C7 1_555 1_555
C8 H2 1_555 1_555
C9 C3 1_555 1_555
H3 C9 1_555 1_555
C10 C8 1_555 1_555
H4 C10 1_555 1_555
C11 N1 1_555 1_555
H5 C11 1_555 1_555
C12 S6 1_555 1_555
H6 C12 1_555 1_555
H7 C12 1_555 1_555
C13 S5 1_555 1_555
H8 C13 1_555 1_555
H9 C13 1_555 1_555
C1 C7 1_555 1_555
C4 C6 1_555 1_555
C9 C11 1_555 1_555
C12 C13 1_555 1_555

#END
