
#######################################################################
#
#                 Cambridge Crystallographic Data Centre
#                                CCDC 
#
#######################################################################
#
# If this CIF has been generated from an entry in the Cambridge 
# Structural Database, then it will include bibliographic, chemical, 
# crystal, experimental, refinement or atomic coordinate data resulting 
# from the CCDC's data processing and validation procedures.
#
#######################################################################

data_DEWNUP
_chemical_formula_moiety         'C18 H17 N3 O3'
_chemical_name_systematic        
4-[(1E)-(2,3-dihydroxybenzylidene)amino]-1,5-dimethyl-2-phenyl-2,3-dihydro-1H-pyrazol-3-one
_symmetry_cell_setting           monoclinic
_symmetry_space_group_name_H-M   'P 21/c'
_symmetry_Int_Tables_number      14
_space_group_name_Hall           '-P 2ybc'
loop_
_symmetry_equiv_pos_site_id
_symmetry_equiv_pos_as_xyz
1 x,y,z
2 -x,1/2+y,1/2-z
3 -x,-y,-z
4 x,1/2-y,1/2+z
_cell_length_a                   16.420(3)
_cell_length_b                   7.3608(15)
_cell_length_c                   13.517(3)
_cell_angle_alpha                90
_cell_angle_beta                 103.92(3)
_cell_angle_gamma                90
_cell_volume                     1585.74
_exptl_crystal_colour            orange
_exptl_crystal_description       Prismatic
_cell_formula_units_Z            4
_exptl_crystal_recrystallization_method ethanol
loop_
_atom_site_label
_atom_site_type_symbol
_atom_site_fract_x
_atom_site_fract_y
_atom_site_fract_z
O1 O -0.78728(11) 0.9466(2) 1.19886(15)
O2 O -1.09716(13) 0.5822(2) 1.14854(16)
H1 H -1.041(2) 0.592(4) 1.148(3)
O3 O -1.26314(12) 0.6514(3) 1.12123(18)
H2 H -1.240(2) 0.573(4) 1.164(3)
N1 N -0.75566(13) 0.5008(2) 1.13333(16)
N2 N -0.72598(13) 0.6743(2) 1.16929(17)
N3 N -0.95000(12) 0.7038(2) 1.14282(16)
C1 C -0.79438(15) 0.7830(3) 1.17541(19)
C2 C -0.86564(15) 0.6662(3) 1.14963(18)
C3 C -0.83845(15) 0.4972(3) 1.12977(19)
C4 C -0.88938(17) 0.3285(3) 1.1090(2)
H3 H -0.8546 0.2298 1.0974
H4 H -0.9344 0.3458 1.0496
H5 H -0.9120 0.3010 1.1664
C5 C -0.69823(17) 0.3464(3) 1.1611(2)
H6 H -0.7258 0.2371 1.1320
H7 H -0.6820 0.3349 1.2340
H8 H -0.6492 0.3662 1.1355
C6 C -0.65043(15) 0.7407(3) 1.1497(2)
C7 C -0.62128(17) 0.6803(3) 1.0672(2)
H9 H -0.6512 0.5941 1.0226
C8 C -0.5468(2) 0.7508(5) 1.0526(3)
H10 H -0.5263 0.7096 0.9982
C9 C -0.5030(2) 0.8796(5) 1.1166(3)
H11 H -0.4531 0.9256 1.1057
C10 C -0.5329(2) 0.9410(4) 1.1971(3)
H12 H -0.5038 1.0309 1.2396
C11 C -0.60542(17) 0.8710(3) 1.2154(2)
H13 H -0.6243 0.9104 1.2714
C12 C -0.97930(16) 0.8661(3) 1.13678(19)
H14 H -0.9429 0.9639 1.1398
C13 C -1.06794(16) 0.8998(3) 1.1253(2)
C14 C -1.12334(16) 0.7566(3) 1.13038(19)
C15 C -1.20923(16) 0.7903(3) 1.1153(2)
C16 C -1.23946(18) 0.9632(4) 1.0908(2)
H15 H -1.2968 0.9848 1.0783
C17 C -1.18543(18) 1.1058(4) 1.0845(2)
H16 H -1.2065 1.2222 1.0684
C18 C -1.10122(17) 1.0742(3) 1.1021(2)
H17 H -1.0653 1.1702 1.0986
loop_
_geom_bond_atom_site_label_1
_geom_bond_atom_site_label_2
_geom_bond_site_symmetry_1
_geom_bond_site_symmetry_2
O1 C1 1_555 1_555
O2 H1 1_555 1_555
O3 H2 1_555 1_555
N1 N2 1_555 1_555
N2 C1 1_555 1_555
N3 C2 1_555 1_555
C1 C2 1_555 1_555
C2 C3 1_555 1_555
C3 N1 1_555 1_555
C4 C3 1_555 1_555
H3 C4 1_555 1_555
H4 C4 1_555 1_555
H5 C4 1_555 1_555
C5 N1 1_555 1_555
H6 C5 1_555 1_555
H7 C5 1_555 1_555
H8 C5 1_555 1_555
C6 N2 1_555 1_555
C7 C6 1_555 1_555
H9 C7 1_555 1_555
C8 C7 1_555 1_555
H10 C8 1_555 1_555
C9 C8 1_555 1_555
H11 C9 1_555 1_555
C10 C9 1_555 1_555
H12 C10 1_555 1_555
C11 C6 1_555 1_555
H13 C11 1_555 1_555
C12 N3 1_555 1_555
H14 C12 1_555 1_555
C13 C12 1_555 1_555
C14 O2 1_555 1_555
C15 O3 1_555 1_555
C16 C15 1_555 1_555
H15 C16 1_555 1_555
C17 C16 1_555 1_555
H16 C17 1_555 1_555
C18 C13 1_555 1_555
H17 C18 1_555 1_555
C10 C11 1_555 1_555
C13 C14 1_555 1_555
C14 C15 1_555 1_555
C17 C18 1_555 1_555

#END
