
#######################################################################
#
#                 Cambridge Crystallographic Data Centre
#                                CCDC 
#
#######################################################################
#
# If this CIF has been generated from an entry in the Cambridge 
# Structural Database, then it will include bibliographic, chemical, 
# crystal, experimental, refinement or atomic coordinate data resulting 
# from the CCDC's data processing and validation procedures.
#
#######################################################################

data_DEWNOJ
_chemical_name_common            'bis(indomethacin) lidocaine'
_chemical_formula_moiety         
'C14 H23 N2 O1 1+,C19 H15 Cl1 N1 O4 1-,C19 H16 Cl1 N1 O4'
_chemical_name_systematic        
'bis([1-(4-chlorobenzoyl)-5-methoxy-2-methyl-1H-indol-3-yl]acetic acid) 2-diethylamino-N-(2,6-dimethylphenyl)acetamide'
_chemical_properties_biological  
'constituents constitute an antiinflammatory and a local anaesthetic and antiarrhythmic drug'
_symmetry_cell_setting           triclinic
_symmetry_space_group_name_H-M   'P -1'
_symmetry_Int_Tables_number      2
_space_group_name_Hall           '-P 1'
loop_
_symmetry_equiv_pos_site_id
_symmetry_equiv_pos_as_xyz
1 x,y,z
2 -x,-y,-z
_cell_length_a                   12.8479(2)
_cell_length_b                   14.2054(3)
_cell_length_c                   15.2458(3)
_cell_angle_alpha                94.9609(12)
_cell_angle_beta                 113.6968(11)
_cell_angle_gamma                108.4726(12)
_cell_volume                     2342.24
_exptl_crystal_colour            colorless
_exptl_crystal_description       block
_cell_formula_units_Z            2
_exptl_crystal_recrystallization_method ethanol
loop_
_atom_site_label
_atom_site_type_symbol
_atom_site_fract_x
_atom_site_fract_y
_atom_site_fract_z
Cl1 Cl 0.66237(4) 0.45783(3) 0.01575(3)
O1 O 0.25468(12) 0.35975(9) 0.19458(10)
O2 O -0.09452(11) -0.14922(9) 0.21011(9)
O3 O 0.07174(11) -0.00455(9) 0.29737(9)
O4 O 0.33005(12) -0.14713(10) 0.07918(11)
N1 N 0.22245(12) 0.19395(10) 0.13926(10)
C1 C 0.10803(12) 0.14568(12) 0.14106(12)
C2 C 0.07859(12) 0.04331(12) 0.12353(12)
C3 C 0.17669(12) 0.02277(12) 0.11361(12)
C4 C 0.19264(16) -0.06930(12) 0.09699(12)
C5 C 0.30091(16) -0.06381(12) 0.09492(12)
C6 C 0.39292(17) 0.03091(12) 0.11139(12)
C7 C 0.37738(16) 0.12146(12) 0.12709(12)
C8 C 0.26618(12) 0.11645(12) 0.12505(12)
C9 C 0.03760(16) 0.20363(12) 0.15994(12)
C10 C -0.03245(12) -0.03673(12) 0.12006(12)
C11 C -0.01133(12) -0.06121(12) 0.21936(12)
C12 C 0.23354(17) -0.24555(12) 0.04220(12)
C13 C 0.28038(12) 0.29891(12) 0.15461(12)
C14 C 0.37477(16) 0.33511(12) 0.11851(12)
C15 C 0.34918(16) 0.29749(12) 0.02154(12)
C16 C 0.43717(16) 0.33552(12) -0.01067(12)
C17 C 0.55051(16) 0.40988(12) 0.05496(12)
C18 C 0.57783(16) 0.44926(12) 0.15154(12)
C19 C 0.48809(16) 0.41208(12) 0.18273(12)
H1 H 0.1310 -0.1333 0.0875
H2 H 0.4676 0.0327 0.1117
H3 H -0.0819 -0.1592 0.2664
H4 H 0.4405 0.1854 0.1389
H5 H 0.0788 0.2390 0.2301
H6 H -0.0461 0.1560 0.1422
H7 H 0.0337 0.2540 0.1200
H8 H -0.0569 -0.1001 0.0712
H9 H -0.1014 -0.0130 0.0972
H10 H 0.2064 -0.2619 0.0926
H11 H 0.2633 -0.2967 0.0257
H12 H 0.1643 -0.2460 -0.0172
H13 H 0.2712 0.2457 -0.0225
H14 H 0.4199 0.3108 -0.0770
H15 H 0.6562 0.5006 0.1955
H16 H 0.5042 0.4393 0.2481
Cl2 Cl -0.06541(4) 0.63541(4) 0.04367(3)
O5 O 0.12648(12) 0.54049(10) 0.49241(10)
O6 O 0.19082(11) 0.11875(9) 0.63169(9)
O7 O 0.05320(11) 0.18587(9) 0.62384(9)
O8 O -0.35138(11) 0.03195(9) 0.11698(10)
N2 N 0.03034(12) 0.37510(11) 0.39908(10)
C20 C 0.09342(16) 0.32653(12) 0.46744(12)
C21 C 0.03089(12) 0.22364(12) 0.43356(12)
C22 C -0.07612(12) 0.20340(12) 0.34150(12)
C23 C -0.16788(12) 0.11064(12) 0.27579(12)
C24 C -0.25921(12) 0.11538(12) 0.19020(12)
C25 C -0.26259(16) 0.21023(12) 0.17252(12)
C26 C -0.17269(16) 0.30177(12) 0.23732(12)
C27 C -0.07625(12) 0.29769(12) 0.32098(12)
C28 C 0.21667(16) 0.38501(12) 0.55389(12)
C29 C 0.06784(17) 0.14096(12) 0.47561(12)
C30 C 0.10863(12) 0.15065(12) 0.58572(12)
C31 C -0.35942(17) -0.06661(12) 0.13427(12)
C32 C 0.06597(16) 0.48098(12) 0.41129(12)
C33 C 0.03143(12) 0.51774(12) 0.31866(12)
C34 C -0.01958(16) 0.59154(12) 0.30946(12)
C35 C -0.05100(16) 0.62717(12) 0.22443(12)
C36 C -0.02580(16) 0.59094(12) 0.15123(12)
C37 C 0.02889(16) 0.52007(12) 0.15980(12)
C38 C 0.05601(16) 0.48251(12) 0.24367(12)
H17 H -0.1674 0.0468 0.2895
H18 H -0.3282 0.2114 0.1147
H19 H -0.1763 0.3655 0.2254
H20 H 0.2723 0.4282 0.5314
H21 H 0.2507 0.3370 0.5850
H22 H 0.2078 0.4282 0.6020
H23 H 0.1360 0.1380 0.4620
H24 H -0.0028 0.0747 0.4393
H25 H -0.2855 -0.0771 0.1398
H26 H -0.4324 -0.1195 0.0791
H27 H -0.3659 -0.0710 0.1958
H28 H -0.0330 0.6177 0.3618
H29 H -0.0890 0.6754 0.2166
H30 H 0.0474 0.4978 0.1093
H31 H 0.0915 0.4325 0.2502
O9 O 0.43863(11) 0.06942(9) 0.48141(9)
N3 N 0.35891(12) 0.14816(10) 0.55977(10)
N4 N 0.30083(12) -0.12021(10) 0.47314(11)
C39 C 0.43864(12) 0.25046(12) 0.57300(12)
C40 C 0.44026(16) 0.28716(12) 0.49117(12)
C41 C 0.52654(17) 0.38529(12) 0.50999(12)
C42 C 0.60366(18) 0.44510(12) 0.60507(12)
C43 C 0.59536(17) 0.40917(12) 0.68447(12)
C44 C 0.51245(16) 0.31106(12) 0.66963(12)
C45 C 0.34985(17) 0.22740(12) 0.38688(12)
C46 C 0.50337(18) 0.27104(12) 0.75562(12)
C47 C 0.36647(12) 0.06687(12) 0.51620(12)
C48 C 0.27754(17) -0.03510(12) 0.51452(12)
C49 C 0.2636(2) -0.21397(12) 0.51009(16)
C50 C 0.3523(2) -0.20038(18) 0.61537(17)
C51 C 0.22975(18) -0.14417(12) 0.36087(12)
C52 C 0.2734(2) -0.20503(17) 0.31055(12)
H32 H 0.3030 0.1386 0.5811
H33 H 0.3845 -0.0984 0.4910
H34 H 0.5323 0.4114 0.4561
H35 H 0.6626 0.5111 0.6160
H36 H 0.6466 0.4517 0.7496
H37 H 0.3828 0.1831 0.3630
H38 H 0.3361 0.2748 0.3446
H39 H 0.2717 0.1853 0.3850
H40 H 0.4185 0.2506 0.7462
H41 H 0.5589 0.3248 0.8169
H42 H 0.5268 0.2117 0.7597
H43 H 0.2890 -0.0371 0.5825
H44 H 0.1916 -0.0426 0.4736
H45 H 0.1804 -0.2288 0.5048
H46 H 0.2597 -0.2733 0.4679
H47 H 0.4355 -0.1826 0.6214
H48 H 0.3282 -0.2643 0.6354
H49 H 0.3513 -0.1454 0.6581
H50 H 0.1412 -0.1825 0.3402
H51 H 0.2386 -0.0792 0.3400
H52 H 0.3609 -0.1672 0.3304
H53 H 0.2260 -0.2176 0.2388
H54 H 0.2621 -0.2706 0.3291
loop_
_geom_bond_atom_site_label_1
_geom_bond_atom_site_label_2
_geom_bond_site_symmetry_1
_geom_bond_site_symmetry_2
Cl1 C17 1_555 1_555
O1 C13 1_555 1_555
O2 C11 1_555 1_555
O3 C11 1_555 1_555
O4 C5 1_555 1_555
N1 C1 1_555 1_555
C1 C2 1_555 1_555
C2 C3 1_555 1_555
C3 C4 1_555 1_555
C4 C5 1_555 1_555
C5 C6 1_555 1_555
C6 C7 1_555 1_555
C7 C8 1_555 1_555
C8 N1 1_555 1_555
C9 C1 1_555 1_555
C10 C2 1_555 1_555
C11 C10 1_555 1_555
C12 O4 1_555 1_555
C13 N1 1_555 1_555
C14 C13 1_555 1_555
C15 C14 1_555 1_555
C16 C15 1_555 1_555
C17 C16 1_555 1_555
C18 C17 1_555 1_555
C19 C14 1_555 1_555
H1 C4 1_555 1_555
H2 C6 1_555 1_555
H3 O2 1_555 1_555
H4 C7 1_555 1_555
H5 C9 1_555 1_555
H6 C9 1_555 1_555
H7 C9 1_555 1_555
H8 C10 1_555 1_555
H9 C10 1_555 1_555
H10 C12 1_555 1_555
H11 C12 1_555 1_555
H12 C12 1_555 1_555
H13 C15 1_555 1_555
H14 C16 1_555 1_555
H15 C18 1_555 1_555
H16 C19 1_555 1_555
Cl2 C36 1_555 1_555
O5 C32 1_555 1_555
O6 C30 1_555 1_555
O7 C30 1_555 1_555
O8 C24 1_555 1_555
N2 C20 1_555 1_555
C20 C21 1_555 1_555
C21 C22 1_555 1_555
C22 C23 1_555 1_555
C23 C24 1_555 1_555
C24 C25 1_555 1_555
C25 C26 1_555 1_555
C26 C27 1_555 1_555
C27 N2 1_555 1_555
C28 C20 1_555 1_555
C29 C21 1_555 1_555
C30 C29 1_555 1_555
C31 O8 1_555 1_555
C32 N2 1_555 1_555
C33 C32 1_555 1_555
C34 C33 1_555 1_555
C35 C34 1_555 1_555
C36 C35 1_555 1_555
C37 C36 1_555 1_555
C38 C33 1_555 1_555
H17 C23 1_555 1_555
H18 C25 1_555 1_555
H19 C26 1_555 1_555
H20 C28 1_555 1_555
H21 C28 1_555 1_555
H22 C28 1_555 1_555
H23 C29 1_555 1_555
H24 C29 1_555 1_555
H25 C31 1_555 1_555
H26 C31 1_555 1_555
H27 C31 1_555 1_555
H28 C34 1_555 1_555
H29 C35 1_555 1_555
H30 C37 1_555 1_555
H31 C38 1_555 1_555
O9 C47 1_555 1_555
N3 C39 1_555 1_555
N4 C48 1_555 1_555
C39 C40 1_555 1_555
C40 C41 1_555 1_555
C41 C42 1_555 1_555
C42 C43 1_555 1_555
C43 C44 1_555 1_555
C44 C39 1_555 1_555
C45 C40 1_555 1_555
C46 C44 1_555 1_555
C47 N3 1_555 1_555
C48 C47 1_555 1_555
C49 N4 1_555 1_555
C50 C49 1_555 1_555
C51 N4 1_555 1_555
C52 C51 1_555 1_555
H32 N3 1_555 1_555
H33 N4 1_555 1_555
H34 C41 1_555 1_555
H35 C42 1_555 1_555
H36 C43 1_555 1_555
H37 C45 1_555 1_555
H38 C45 1_555 1_555
H39 C45 1_555 1_555
H40 C46 1_555 1_555
H41 C46 1_555 1_555
H42 C46 1_555 1_555
H43 C48 1_555 1_555
H44 C48 1_555 1_555
H45 C49 1_555 1_555
H46 C49 1_555 1_555
H47 C50 1_555 1_555
H48 C50 1_555 1_555
H49 C50 1_555 1_555
H50 C51 1_555 1_555
H51 C51 1_555 1_555
H52 C52 1_555 1_555
H53 C52 1_555 1_555
H54 C52 1_555 1_555
C3 C8 1_555 1_555
C18 C19 1_555 1_555
C22 C27 1_555 1_555
C37 C38 1_555 1_555

#END
