
#######################################################################
#
#                 Cambridge Crystallographic Data Centre
#                                CCDC 
#
#######################################################################
#
# If this CIF has been generated from an entry in the Cambridge 
# Structural Database, then it will include bibliographic, chemical, 
# crystal, experimental, refinement or atomic coordinate data resulting 
# from the CCDC's data processing and validation procedures.
#
#######################################################################

data_DEWRON
_chemical_formula_moiety         'C12 H17 N1 O3 Si1'
_chemical_name_systematic        1-Hydro-3-phenylsilatrane
_symmetry_cell_setting           monoclinic
_symmetry_space_group_name_H-M   'P 21/c'
_symmetry_Int_Tables_number      14
_space_group_name_Hall           '-P 2ybc'
loop_
_symmetry_equiv_pos_site_id
_symmetry_equiv_pos_as_xyz
1 x,y,z
2 -x,1/2+y,1/2-z
3 -x,-y,-z
4 x,1/2-y,1/2+z
_cell_length_a                   9.549(3)
_cell_length_b                   9.900(3)
_cell_length_c                   13.085(5)
_cell_angle_alpha                90
_cell_angle_beta                 99.36(3)
_cell_angle_gamma                90
_cell_volume                     1220.52
_exptl_crystal_colour            colorless
_exptl_crystal_description       block
_cell_formula_units_Z            4
loop_
_atom_site_label
_atom_site_type_symbol
_atom_site_fract_x
_atom_site_fract_y
_atom_site_fract_z
Si1 Si 0.23151(8) 0.21410(7) 0.27875(5)
N1 N 0.24558(19) 0.39757(19) 0.19527(14)
O1 O 0.07158(19) 0.20442(17) 0.20698(13)
C1 C 0.0073(3) 0.3140(3) 0.14521(19)
C2 C 0.1259(3) 0.3939(3) 0.1090(2)
O2 O 0.2601(2) 0.31331(19) 0.38220(12)
C3 C 0.3012(3) 0.4502(3) 0.3755(2)
C4 C 0.2334(3) 0.5051(3) 0.2715(2)
O3 O 0.3713(2) 0.16913(19) 0.22685(15)
C5 C 0.4155(4) 0.2445(3) 0.1460(2)
C6 C 0.3848(3) 0.3915(3) 0.1617(2)
C7 C -0.0977(3) 0.2616(2) 0.05506(18)
C8 C -0.2853(4) 0.1684(4) -0.1141(2)
C9 C -0.1487(4) 0.1259(4) -0.0981(2)
C10 C -0.0545(3) 0.1722(3) -0.0148(2)
C11 C -0.3309(3) 0.2584(3) -0.0466(3)
C12 C -0.2365(3) 0.3044(3) 0.0388(2)
H1 H 0.459(3) 0.430(3) 0.216(2)
H2 H -0.044(2) 0.375(2) 0.1886(18)
H3 H 0.231(2) 0.084(2) 0.3382(17)
H4 H 0.093(3) 0.481(3) 0.093(2)
H5 H 0.407(3) 0.455(3) 0.3872(19)
H6 H 0.384(3) 0.443(3) 0.102(2)
H7 H 0.129(3) 0.520(3) 0.2668(19)
H8 H 0.517(3) 0.229(3) 0.147(2)
H9 H -0.351(4) 0.136(4) -0.171(3)
H10 H 0.281(3) 0.593(3) 0.258(2)
H11 H -0.268(3) 0.365(3) 0.079(2)
H12 H 0.158(3) 0.342(3) 0.047(2)
H13 H 0.266(3) 0.499(3) 0.428(2)
H14 H 0.358(3) 0.211(3) 0.080(3)
H15 H -0.424(4) 0.286(3) -0.054(2)
H16 H -0.119(4) 0.060(4) -0.140(3)
H17 H 0.047(3) 0.145(3) -0.005(2)
loop_
_geom_bond_atom_site_label_1
_geom_bond_atom_site_label_2
_geom_bond_site_symmetry_1
_geom_bond_site_symmetry_2
Si1 N1 1_555 1_555
N1 C2 1_555 1_555
O1 Si1 1_555 1_555
C1 O1 1_555 1_555
C2 C1 1_555 1_555
O2 Si1 1_555 1_555
C3 O2 1_555 1_555
C4 N1 1_555 1_555
O3 Si1 1_555 1_555
C5 O3 1_555 1_555
C6 N1 1_555 1_555
C7 C1 1_555 1_555
C8 C9 1_555 1_555
C9 C10 1_555 1_555
C10 C7 1_555 1_555
C11 C8 1_555 1_555
C12 C7 1_555 1_555
H1 C6 1_555 1_555
H2 C1 1_555 1_555
H3 Si1 1_555 1_555
H4 C2 1_555 1_555
H5 C3 1_555 1_555
H6 C6 1_555 1_555
H7 C4 1_555 1_555
H8 C5 1_555 1_555
H9 C8 1_555 1_555
H10 C4 1_555 1_555
H11 C12 1_555 1_555
H12 C2 1_555 1_555
H13 C3 1_555 1_555
H14 C5 1_555 1_555
H15 C11 1_555 1_555
H16 C9 1_555 1_555
H17 C10 1_555 1_555
C3 C4 1_555 1_555
C5 C6 1_555 1_555
C11 C12 1_555 1_555

#END
