
#######################################################################
#
#                 Cambridge Crystallographic Data Centre
#                                CCDC 
#
#######################################################################
#
# If this CIF has been generated from an entry in the Cambridge 
# Structural Database, then it will include bibliographic, chemical, 
# crystal, experimental, refinement or atomic coordinate data resulting 
# from the CCDC's data processing and validation procedures.
#
#######################################################################

data_DEWRUT
_chemical_formula_moiety         'C16 H31 N1 O4 Si1,C1 H1 Cl3'
_chemical_name_systematic        
'1-(1R,2S,5R-Menthyloxy)silatrane chloroform solvate'
_symmetry_cell_setting           orthorhombic
_symmetry_space_group_name_H-M   'P 21 21 21'
_symmetry_Int_Tables_number      19
_space_group_name_Hall           'P 2ac 2ab'
loop_
_symmetry_equiv_pos_site_id
_symmetry_equiv_pos_as_xyz
1 x,y,z
2 1/2-x,-y,1/2+z
3 -x,1/2+y,1/2-z
4 1/2+x,1/2-y,-z
_cell_length_a                   10.634(3)
_cell_length_b                   10.681(3)
_cell_length_c                   19.977(11)
_cell_angle_alpha                90
_cell_angle_beta                 90
_cell_angle_gamma                90
_cell_volume                     2269.02
_exptl_crystal_colour            colorless
_exptl_crystal_description       block
_cell_formula_units_Z            4
loop_
_atom_site_label
_atom_site_type_symbol
_atom_site_fract_x
_atom_site_fract_y
_atom_site_fract_z
Si1 Si -0.90440(10) -0.25319(8) 0.04850(4)
N1 N -0.8882(3) -0.3934(3) -0.02680(14)
O1 O -0.7706(2) -0.3127(2) 0.07577(12)
C1 C -0.7172(4) -0.4232(4) 0.0485(2)
H1 H -0.7471 -0.4959 0.0729
H2 H -0.6263 -0.4202 0.0523
C2 C -0.7551(4) -0.4325(4) -0.0244(2)
H3 H -0.7036 -0.3777 -0.0518
H4 H -0.7458 -0.5176 -0.0405
O2 O -1.0369(2) -0.3277(2) 0.06631(11)
C3 C -1.0836(4) -0.4275(4) 0.02746(19)
H5 H -1.1438 -0.3960 -0.0049
H6 H -1.1262 -0.4873 0.0561
C4 C -0.9768(4) -0.4904(4) -0.0082(2)
H7 H -0.9368 -0.5511 0.0209
H8 H -1.0073 -0.5334 -0.0478
O3 O -0.9021(3) -0.1559(2) -0.01595(10)
C5 C -0.8786(4) -0.1961(3) -0.08261(17)
H9 H -0.7894 -0.1906 -0.0924
H10 H -0.9235 -0.1430 -0.1140
C6 C -0.9221(5) -0.3282(4) -0.08943(17)
H11 H -1.0123 -0.3308 -0.0963
H12 H -0.8814 -0.3679 -0.1274
O4 O -0.9165(3) -0.1373(2) 0.10326(10)
C7 C -1.2527(4) -0.1063(5) 0.2706(2)
H13 H -1.2722 -0.1073 0.3176
H14 H -1.3008 -0.1697 0.2482
H15 H -1.2732 -0.0257 0.2523
C8 C -1.1129(4) -0.1319(4) 0.26086(17)
H16 H -1.0952 -0.2158 0.2784
C9 C -1.0771(4) -0.1310(4) 0.18689(16)
H17 H -1.1258 -0.1947 0.1640
H18 H -1.1004 -0.0506 0.1680
C10 C -0.9399(4) -0.1535(3) 0.17322(15)
H19 H -0.9190 -0.2397 0.1858
C11 C -0.8561(4) -0.0641(4) 0.21248(19)
H20 H -0.8751 0.0204 0.1962
C12 C -0.8919(5) -0.0663(5) 0.28710(19)
H21 H -0.8713 -0.1477 0.3057
H22 H -0.8428 -0.0039 0.3108
C13 C -1.0305(4) -0.0405(4) 0.2979(2)
H23 H -1.0491 -0.0451 0.3454
H24 H -1.0495 0.0438 0.2829
C14 C -0.7155(4) -0.0848(4) 0.2012(2)
H25 H -0.7039 -0.0909 0.1526
C15 C -0.6645(5) -0.2089(5) 0.2309(2)
H26 H -0.5769 -0.2172 0.2203
H27 H -0.7101 -0.2782 0.2123
H28 H -0.6750 -0.2082 0.2787
C16 C -0.6350(5) 0.0249(5) 0.2242(3)
H29 H -0.6675 0.1012 0.2056
H30 H -0.5500 0.0129 0.2094
H31 H -0.6367 0.0299 0.2722
C17 C -0.9070(5) -0.8720(4) 0.0277(2)
H32 H -0.9079 -0.9627 0.0352
Cl1 Cl -1.0347(5) -0.8026(4) 0.0760(3)
Cl2 Cl -0.7650(7) -0.8126(6) 0.0584(4)
Cl3 Cl -0.9262(5) -0.8448(4) -0.05692(19)
Cl4? Cl -1.0087(12) -0.8057(13) 0.0836(8)
Cl5? Cl -0.7684(9) -0.8091(8) 0.0325(4)
Cl6? Cl -0.9743(7) -0.8470(7) -0.0572(4)
Cl7? Cl -1.0383(7) -0.8081(6) 0.0534(3)
Cl8? Cl -0.7677(14) -0.8120(13) 0.0722(6)
Cl9? Cl -0.8703(6) -0.8401(6) -0.0580(3)
loop_
_geom_bond_atom_site_label_1
_geom_bond_atom_site_label_2
_geom_bond_site_symmetry_1
_geom_bond_site_symmetry_2
Si1 N1 1_555 1_555
N1 C2 1_555 1_555
O1 Si1 1_555 1_555
C1 O1 1_555 1_555
H1 C1 1_555 1_555
H2 C1 1_555 1_555
C2 C1 1_555 1_555
H3 C2 1_555 1_555
H4 C2 1_555 1_555
O2 Si1 1_555 1_555
C3 O2 1_555 1_555
H5 C3 1_555 1_555
H6 C3 1_555 1_555
C4 N1 1_555 1_555
H7 C4 1_555 1_555
H8 C4 1_555 1_555
O3 Si1 1_555 1_555
C5 O3 1_555 1_555
H9 C5 1_555 1_555
H10 C5 1_555 1_555
C6 N1 1_555 1_555
H11 C6 1_555 1_555
H12 C6 1_555 1_555
O4 Si1 1_555 1_555
C7 H13 1_555 1_555
H14 C7 1_555 1_555
H15 C7 1_555 1_555
C8 C7 1_555 1_555
H16 C8 1_555 1_555
C9 C8 1_555 1_555
H17 C9 1_555 1_555
H18 C9 1_555 1_555
C10 O4 1_555 1_555
H19 C10 1_555 1_555
C11 C10 1_555 1_555
H20 C11 1_555 1_555
C12 C11 1_555 1_555
H21 C12 1_555 1_555
H22 C12 1_555 1_555
C13 C8 1_555 1_555
H23 C13 1_555 1_555
H24 C13 1_555 1_555
C14 C11 1_555 1_555
H25 C14 1_555 1_555
C15 C14 1_555 1_555
H26 C15 1_555 1_555
H27 C15 1_555 1_555
H28 C15 1_555 1_555
C16 C14 1_555 1_555
H29 C16 1_555 1_555
H30 C16 1_555 1_555
H31 C16 1_555 1_555
C17 H32 1_555 1_555
Cl1 C17 1_555 1_555
Cl2 C17 1_555 1_555
Cl3 C17 1_555 1_555
C3 C4 1_555 1_555
C5 C6 1_555 1_555
C9 C10 1_555 1_555
C12 C13 1_555 1_555

#END
