
#######################################################################
#
#                 Cambridge Crystallographic Data Centre
#                                CCDC 
#
#######################################################################
#
# If this CIF has been generated from an entry in the Cambridge 
# Structural Database, then it will include bibliographic, chemical, 
# crystal, experimental, refinement or atomic coordinate data resulting 
# from the CCDC's data processing and validation procedures.
#
#######################################################################

data_DEWTUX
_chemical_formula_moiety         'C17 H20 O2'
_chemical_name_systematic        
2,2-dimethyl-2H,8'H-spiro[1-benzofuran-3,7'-bicyclo[4.2.0]octan]-8'-one
_symmetry_cell_setting           monoclinic
_symmetry_space_group_name_H-M   'P 21/c'
_symmetry_Int_Tables_number      14
_space_group_name_Hall           '-P 2ybc'
loop_
_symmetry_equiv_pos_site_id
_symmetry_equiv_pos_as_xyz
1 x,y,z
2 -x,1/2+y,1/2-z
3 -x,-y,-z
4 x,1/2-y,1/2+z
_cell_length_a                   15.4418(19)
_cell_length_b                   9.8930(7)
_cell_length_c                   9.6848(11)
_cell_angle_alpha                90
_cell_angle_beta                 98.673(10)
_cell_angle_gamma                90
_cell_volume                     1462.59
_exptl_crystal_colour            colorless
_exptl_crystal_description       block
_cell_formula_units_Z            4
loop_
_atom_site_label
_atom_site_type_symbol
_atom_site_fract_x
_atom_site_fract_y
_atom_site_fract_z
O1 O 0.87735(19) 0.9535(3) 0.1587(3)
O2 O 0.6395(2) 0.8986(3) 0.1174(3)
C1 C 0.8817(3) 0.8211(4) 0.1218(4)
C2 C 0.9420(3) 0.7310(5) 0.1863(4)
H1 H 0.9831 0.7558 0.2624
C3 C 0.9385(3) 0.6019(6) 0.1327(6)
H2 H 0.9793 0.5384 0.1723
C4 C 0.8769(3) 0.5645(4) 0.0230(5)
H3 H 0.8763 0.4762 -0.0100
C5 C 0.8152(3) 0.6565(4) -0.0400(4)
H4 H 0.7733 0.6314 -0.1149
C6 C 0.8183(2) 0.7859(4) 0.0123(4)
C7 C 0.8202(3) 1.0231(4) 0.0450(4)
C8 C 0.8808(3) 1.0807(4) -0.0509(5)
H5 H 0.9268 1.1315 0.0035
H6 H 0.8480 1.1388 -0.1190
H7 H 0.9058 1.0080 -0.0975
C9 C 0.7747(3) 1.1343(4) 0.1134(5)
H8 H 0.7386 1.0953 0.1754
H9 H 0.7389 1.1861 0.0429
H10 H 0.8178 1.1922 0.1653
C10 C 0.7610(2) 0.9083(3) -0.0272(4)
C11 C 0.6696(3) 0.8824(4) 0.0120(5)
C12 C 0.6331(3) 0.8419(4) -0.1340(5)
H11 H 0.6394 0.7438 -0.1418
C13 C 0.7150(2) 0.9103(3) -0.1829(4)
H12 H 0.7440 0.8506 -0.2425
C14 C 0.6927(3) 1.0476(4) -0.2505(4)
H13 H 0.6888 1.1141 -0.1781
H14 H 0.7394 1.0750 -0.3010
C15 C 0.6072(3) 1.0451(5) -0.3498(5)
H15 H 0.6104 0.9786 -0.4225
H16 H 0.5966 1.1329 -0.3938
C16 C 0.5330(4) 1.0099(7) -0.2703(7)
H17 H 0.5296 1.0790 -0.2003
H18 H 0.4784 1.0118 -0.3347
C17 C 0.5413(3) 0.8803(6) -0.2025(7)
H19 H 0.5205 0.8117 -0.2711
H20 H 0.5031 0.8789 -0.1317
loop_
_geom_bond_atom_site_label_1
_geom_bond_atom_site_label_2
_geom_bond_site_symmetry_1
_geom_bond_site_symmetry_2
O1 C1 1_555 1_555
O2 C11 1_555 1_555
C1 C2 1_555 1_555
C2 H1 1_555 1_555
C3 C2 1_555 1_555
H2 C3 1_555 1_555
C4 C3 1_555 1_555
H3 C4 1_555 1_555
C5 C4 1_555 1_555
H4 C5 1_555 1_555
C6 C1 1_555 1_555
C7 O1 1_555 1_555
C8 C7 1_555 1_555
H5 C8 1_555 1_555
H6 C8 1_555 1_555
H7 C8 1_555 1_555
C9 C7 1_555 1_555
H8 C9 1_555 1_555
H9 C9 1_555 1_555
H10 C9 1_555 1_555
C10 C6 1_555 1_555
C11 C10 1_555 1_555
C12 C11 1_555 1_555
H11 C12 1_555 1_555
C13 C10 1_555 1_555
H12 C13 1_555 1_555
C14 C13 1_555 1_555
H13 C14 1_555 1_555
H14 C14 1_555 1_555
C15 C14 1_555 1_555
H15 C15 1_555 1_555
H16 C15 1_555 1_555
C16 C15 1_555 1_555
H17 C16 1_555 1_555
H18 C16 1_555 1_555
C17 C12 1_555 1_555
H19 C17 1_555 1_555
H20 C17 1_555 1_555
C5 C6 1_555 1_555
C7 C10 1_555 1_555
C12 C13 1_555 1_555
C16 C17 1_555 1_555

#END
