
#######################################################################
#
#                 Cambridge Crystallographic Data Centre
#                                CCDC 
#
#######################################################################
#
# If this CIF has been generated from an entry in the Cambridge 
# Structural Database, then it will include bibliographic, chemical, 
# crystal, experimental, refinement or atomic coordinate data resulting 
# from the CCDC's data processing and validation procedures.
#
#######################################################################

data_DEWVEJ
_chemical_formula_moiety         'C19 H18 O2'
_chemical_name_systematic        
2,2-dimethyl-4'-phenyl-2H,2'H-spiro[1-benzofuran-3,1'-cyclobutan]-2'-one
_symmetry_cell_setting           monoclinic
_symmetry_space_group_name_H-M   'P 21'
_symmetry_Int_Tables_number      4
_space_group_name_Hall           'P 2yb'
loop_
_symmetry_equiv_pos_site_id
_symmetry_equiv_pos_as_xyz
1 x,y,z
2 -x,1/2+y,-z
_cell_length_a                   14.7920(12)
_cell_length_b                   6.5197(4)
_cell_length_c                   15.9490(14)
_cell_angle_alpha                90
_cell_angle_beta                 102.573(9)
_cell_angle_gamma                90
_cell_volume                     1501.23
_exptl_crystal_colour            'light yellow'
_exptl_crystal_description       block
_cell_formula_units_Z            4
loop_
_atom_site_label
_atom_site_type_symbol
_atom_site_fract_x
_atom_site_fract_y
_atom_site_fract_z
O1 O 0.8739(2) 0.3482(5) 0.07715(18)
O2 O 0.8053(3) 0.6202(6) 0.2592(3)
C1 C 0.9549(3) 0.4413(7) 0.1165(3)
C2 C 1.0106(3) 0.5488(8) 0.0738(3)
H1 H 0.9957 0.5606 0.0143
C3 C 1.0898(4) 0.6393(8) 0.1222(3)
H2 H 1.1283 0.7155 0.0951
C4 C 1.1114(3) 0.6172(8) 0.2093(3)
H3 H 1.1656 0.6757 0.2407
C5 C 1.0543(3) 0.5093(7) 0.2521(3)
H4 H 1.0692 0.4980 0.3117
C6 C 0.9755(3) 0.4195(6) 0.2050(3)
C7 C 0.8940(3) 0.3074(7) 0.2288(3)
C8 C 0.8465(3) 0.2123(8) 0.1401(3)
C9 C 0.8870(4) 0.0029(9) 0.1286(3)
H5 H 0.8657 -0.0417 0.0703
H6 H 0.8676 -0.0937 0.1666
H7 H 0.9534 0.0115 0.1418
C10 C 0.7428(4) 0.2124(12) 0.1216(4)
H8 H 0.7209 0.3489 0.1280
H9 H 0.7219 0.1224 0.1611
H10 H 0.7191 0.1658 0.0639
C11 C 0.8299(3) 0.4434(9) 0.2704(3)
C12 C 0.8213(3) 0.2848(8) 0.3361(3)
H11 H 0.7622 0.2138 0.3242
H12 H 0.8363 0.3353 0.3947
C13 C 0.9008(3) 0.1619(7) 0.3101(3)
H13 H 0.8802 0.0228 0.2921
C14 C 0.9937(3) 0.1567(7) 0.3723(3)
C15 C 1.0171(3) 0.2738(8) 0.4449(3)
H14 H 0.9731 0.3615 0.4589
C16 C 1.1039(4) 0.2657(10) 0.4980(3)
H15 H 1.1182 0.3490 0.5464
C17 C 1.1697(4) 0.1338(10) 0.4792(3)
H16 H 1.2284 0.1256 0.5149
C18 C 1.1466(4) 0.0157(10) 0.4071(4)
H17 H 1.1908 -0.0717 0.3932
C19 C 1.0600(4) 0.0227(9) 0.3547(3)
H18 H 1.0455 -0.0629 0.3070
O3 O 0.5792(2) 0.3753(5) 0.92499(19)
O4 O 0.4219(3) 0.6315(6) 0.7436(3)
C20 C 0.4420(4) 0.4550(9) 0.7333(3)
C21 C 0.6411(3) 0.4623(8) 0.8820(3)
C22 C 0.7181(4) 0.5709(8) 0.9235(3)
H19 H 0.7318 0.5894 0.9828
C23 C 0.7732(4) 0.6499(9) 0.8726(4)
H20 H 0.8261 0.7235 0.8977
C24 C 0.7519(3) 0.6223(8) 0.7850(3)
H21 H 0.7911 0.6770 0.7524
C25 C 0.6737(3) 0.5157(8) 0.7438(3)
H22 H 0.6595 0.4995 0.6844
C26 C 0.6175(3) 0.4341(7) 0.7947(3)
C27 C 0.5256(3) 0.3225(6) 0.7738(3)
C28 C 0.5220(3) 0.2304(7) 0.8653(3)
C29 C 0.5709(5) 0.0241(9) 0.8797(3)
H23 H 0.6287 0.0319 0.8618
H24 H 0.5325 -0.0792 0.8467
H25 H 0.5822 -0.0106 0.9395
C30 C 0.4273(4) 0.2251(12) 0.8864(4)
H26 H 0.4334 0.1896 0.9458
H27 H 0.3896 0.1246 0.8511
H28 H 0.3988 0.3576 0.8758
C31 C 0.4003(3) 0.2943(9) 0.6708(3)
H29 H 0.3860 0.3407 0.6116
H30 H 0.3476 0.2256 0.6853
C32 C 0.4923(3) 0.1706(8) 0.6957(3)
H31 H 0.4809 0.0334 0.7162
C33 C 0.5532(3) 0.1592(7) 0.6318(3)
C34 C 0.5401(4) 0.2728(9) 0.5575(3)
H32 H 0.4891 0.3595 0.5433
C35 C 0.6018(4) 0.2604(9) 0.5031(4)
H33 H 0.5917 0.3397 0.4535
C36 C 0.6760(4) 0.1347(10) 0.5214(3)
H34 H 0.7170 0.1270 0.4848
C37 C 0.6903(4) 0.0176(10) 0.5954(4)
H35 H 0.7411 -0.0699 0.6088
C38 C 0.6292(4) 0.0304(9) 0.6495(3)
H36 H 0.6394 -0.0495 0.6990
loop_
_geom_bond_atom_site_label_1
_geom_bond_atom_site_label_2
_geom_bond_site_symmetry_1
_geom_bond_site_symmetry_2
O1 C1 1_555 1_555
O2 C11 1_555 1_555
C1 C2 1_555 1_555
C2 H1 1_555 1_555
C3 C2 1_555 1_555
H2 C3 1_555 1_555
C4 C3 1_555 1_555
H3 C4 1_555 1_555
C5 C4 1_555 1_555
H4 C5 1_555 1_555
C6 C1 1_555 1_555
C7 C6 1_555 1_555
C8 O1 1_555 1_555
C9 C8 1_555 1_555
H5 C9 1_555 1_555
H6 C9 1_555 1_555
H7 C9 1_555 1_555
C10 C8 1_555 1_555
H8 C10 1_555 1_555
H9 C10 1_555 1_555
H10 C10 1_555 1_555
C11 C7 1_555 1_555
C12 C11 1_555 1_555
H11 C12 1_555 1_555
H12 C12 1_555 1_555
C13 C7 1_555 1_555
H13 C13 1_555 1_555
C14 C13 1_555 1_555
C15 C14 1_555 1_555
H14 C15 1_555 1_555
C16 C15 1_555 1_555
H15 C16 1_555 1_555
C17 C16 1_555 1_555
H16 C17 1_555 1_555
C18 C17 1_555 1_555
H17 C18 1_555 1_555
C19 C14 1_555 1_555
H18 C19 1_555 1_555
O3 C21 1_555 1_555
O4 C20 1_555 1_555
C20 C27 1_555 1_555
C21 C22 1_555 1_555
C22 H19 1_555 1_555
C23 C22 1_555 1_555
H20 C23 1_555 1_555
C24 C23 1_555 1_555
H21 C24 1_555 1_555
C25 C24 1_555 1_555
H22 C25 1_555 1_555
C26 C21 1_555 1_555
C27 C26 1_555 1_555
C28 O3 1_555 1_555
C29 C28 1_555 1_555
H23 C29 1_555 1_555
H24 C29 1_555 1_555
H25 C29 1_555 1_555
C30 C28 1_555 1_555
H26 C30 1_555 1_555
H27 C30 1_555 1_555
H28 C30 1_555 1_555
C31 C20 1_555 1_555
H29 C31 1_555 1_555
H30 C31 1_555 1_555
C32 C27 1_555 1_555
H31 C32 1_555 1_555
C33 C32 1_555 1_555
C34 C33 1_555 1_555
H32 C34 1_555 1_555
C35 C34 1_555 1_555
H33 C35 1_555 1_555
C36 C35 1_555 1_555
H34 C36 1_555 1_555
C37 C36 1_555 1_555
H35 C37 1_555 1_555
C38 C33 1_555 1_555
H36 C38 1_555 1_555
C5 C6 1_555 1_555
C7 C8 1_555 1_555
C12 C13 1_555 1_555
C18 C19 1_555 1_555
C25 C26 1_555 1_555
C27 C28 1_555 1_555
C31 C32 1_555 1_555
C37 C38 1_555 1_555

#END
