
#######################################################################
#
#                 Cambridge Crystallographic Data Centre
#                                CCDC 
#
#######################################################################
#
# If this CIF has been generated from an entry in the Cambridge 
# Structural Database, then it will include bibliographic, chemical, 
# crystal, experimental, refinement or atomic coordinate data resulting 
# from the CCDC's data processing and validation procedures.
#
#######################################################################

data_DEWVAF
_chemical_formula_moiety         'C19 H18 O2'
_chemical_name_systematic        
2,2-dimethyl-4'-phenyl-2H,2'H-spiro[1-benzofuran-3,1'-cyclobutan]-2'-one
_symmetry_cell_setting           monoclinic
_symmetry_space_group_name_H-M   'P 21/c'
_symmetry_Int_Tables_number      14
_space_group_name_Hall           '-P 2ybc'
loop_
_symmetry_equiv_pos_site_id
_symmetry_equiv_pos_as_xyz
1 x,y,z
2 -x,1/2+y,1/2-z
3 -x,-y,-z
4 x,1/2-y,1/2+z
_cell_length_a                   9.4110(5)
_cell_length_b                   9.0861(4)
_cell_length_c                   17.7936(9)
_cell_angle_alpha                90
_cell_angle_beta                 98.499(5)
_cell_angle_gamma                90
_cell_volume                     1504.81
_exptl_crystal_colour            colorless
_exptl_crystal_description       block
_cell_formula_units_Z            4
loop_
_atom_site_label
_atom_site_type_symbol
_atom_site_fract_x
_atom_site_fract_y
_atom_site_fract_z
O1 O 0.36252(14) 0.20237(14) 0.04246(8)
O2 O 0.31309(16) 0.19833(15) 0.24276(8)
C1 C 0.5046(2) 0.22208(19) 0.07165(11)
C2 C 0.6181(2) 0.1487(2) 0.04746(12)
H1 H 0.6032 0.0799 0.0084
C3 C 0.7552(2) 0.1819(2) 0.08377(12)
H2 H 0.8337 0.1338 0.0689
C4 C 0.7776(2) 0.2848(2) 0.14147(11)
H3 H 0.8707 0.3058 0.1645
C5 C 0.66163(19) 0.3575(2) 0.16529(11)
H4 H 0.6761 0.4265 0.2043
C6 C 0.52450(19) 0.32474(18) 0.12973(10)
C7 C 0.37717(17) 0.37550(19) 0.14406(10)
C8 C 0.28246(19) 0.32803(19) 0.06904(10)
C9 C 0.37684(19) 0.53281(19) 0.18160(10)
H5 H 0.4609 0.5907 0.1731
C10 C 0.3998(2) 0.4578(2) 0.26106(10)
H6 H 0.4986 0.4594 0.2861
H7 H 0.3347 0.4921 0.2948
C11 C 0.35549(19) 0.3142(2) 0.22198(11)
C12 C 0.2404(2) 0.6228(2) 0.16707(10)
C13 C 0.1134(2) 0.5774(2) 0.19148(12)
H8 H 0.1113 0.4875 0.2163
C14 C -0.0095(3) 0.6629(3) 0.17966(14)
H9 H -0.0934 0.6295 0.1959
C15 C -0.0082(3) 0.7958(3) 0.14434(15)
H10 H -0.0909 0.8532 0.1366
C16 C 0.1158(3) 0.8447(3) 0.12021(14)
H11 H 0.1171 0.9358 0.0965
C17 C 0.2400(3) 0.7580(2) 0.13123(12)
H12 H 0.3231 0.7916 0.1143
C18 C 0.1344(2) 0.2705(2) 0.07657(12)
H13 H 0.0924 0.2263 0.0295
H14 H 0.0750 0.3503 0.0887
H15 H 0.1420 0.1982 0.1163
C19 C 0.2747(2) 0.4466(2) 0.00875(11)
H16 H 0.3696 0.4825 0.0058
H17 H 0.2157 0.5261 0.0218
H18 H 0.2338 0.4063 -0.0395
loop_
_geom_bond_atom_site_label_1
_geom_bond_atom_site_label_2
_geom_bond_site_symmetry_1
_geom_bond_site_symmetry_2
O1 C1 1_555 1_555
O2 C11 1_555 1_555
C1 C2 1_555 1_555
C2 H1 1_555 1_555
C3 C2 1_555 1_555
H2 C3 1_555 1_555
C4 C3 1_555 1_555
H3 C4 1_555 1_555
C5 C4 1_555 1_555
H4 C5 1_555 1_555
C6 C1 1_555 1_555
C7 C6 1_555 1_555
C8 O1 1_555 1_555
C9 C7 1_555 1_555
H5 C9 1_555 1_555
C10 C9 1_555 1_555
H6 C10 1_555 1_555
H7 C10 1_555 1_555
C11 C7 1_555 1_555
C12 C9 1_555 1_555
C13 C12 1_555 1_555
H8 C13 1_555 1_555
C14 C13 1_555 1_555
H9 C14 1_555 1_555
C15 C14 1_555 1_555
H10 C15 1_555 1_555
C16 C15 1_555 1_555
H11 C16 1_555 1_555
C17 C12 1_555 1_555
H12 C17 1_555 1_555
C18 C8 1_555 1_555
H13 C18 1_555 1_555
H14 C18 1_555 1_555
H15 C18 1_555 1_555
C19 C8 1_555 1_555
H16 C19 1_555 1_555
H17 C19 1_555 1_555
H18 C19 1_555 1_555
C5 C6 1_555 1_555
C7 C8 1_555 1_555
C10 C11 1_555 1_555
C16 C17 1_555 1_555

#END
