
#######################################################################
#
#                 Cambridge Crystallographic Data Centre
#                                CCDC 
#
#######################################################################
#
# If this CIF has been generated from an entry in the Cambridge 
# Structural Database, then it will include bibliographic, chemical, 
# crystal, experimental, refinement or atomic coordinate data resulting 
# from the CCDC's data processing and validation procedures.
#
#######################################################################

data_DEWXIO
_chemical_formula_moiety         'C18 H28 O7,C18 H30 N1 O2 1+,F6 P1 1-'
_chemical_name_systematic        
'N-(3,5-Dimethylbenzyl)-5-(isobutyryloxy)pentan-1-aminium hexafluorophosphate 2,3,5,6,8,9,11,12,14,15,17,18-dodecahydro-1,4,7,10,13,16,19-benzoheptaoxacyclohenicosine'
_symmetry_cell_setting           monoclinic
_symmetry_space_group_name_H-M   'P 21/n'
_symmetry_Int_Tables_number      14
_space_group_name_Hall           '-P 2yn'
loop_
_symmetry_equiv_pos_site_id
_symmetry_equiv_pos_as_xyz
1 x,y,z
2 1/2-x,1/2+y,1/2-z
3 -x,-y,-z
4 1/2+x,1/2-y,1/2+z
_cell_length_a                   9.3855(6)
_cell_length_b                   21.1336(13)
_cell_length_c                   20.3716(13)
_cell_angle_alpha                90
_cell_angle_beta                 96.470(5)
_cell_angle_gamma                90
_cell_volume                     4014.96
_exptl_crystal_colour            colorless
_exptl_crystal_description       block
_cell_formula_units_Z            4
loop_
_atom_site_label
_atom_site_type_symbol
_atom_site_fract_x
_atom_site_fract_y
_atom_site_fract_z
P1 P 0.21795(11) 0.23589(5) 0.05147(6)
F1 F 0.2584(4) 0.25014(14) 0.12737(15)
F2 F 0.0548(3) 0.24012(17) 0.0623(2)
F3 F 0.2162(3) 0.30921(12) 0.03431(16)
F4 F 0.1724(4) 0.21926(14) -0.02348(14)
F5 F 0.3779(3) 0.22968(19) 0.0418(2)
F6 F 0.2154(4) 0.16262(12) 0.06810(14)
O1 O 0.6801(2) 0.10316(10) 0.09940(11)
O2 O 0.6794(3) 0.15810(11) 0.23249(12)
O3 O 0.6229(3) 0.08612(12) 0.35203(11)
O4 O 0.6116(3) -0.04847(12) 0.37359(11)
O5 O 0.5594(2) -0.14909(11) 0.27564(11)
O6 O 0.5941(2) -0.12660(10) 0.14170(10)
O7 O 0.6389(2) -0.01494(10) 0.05945(10)
C1 C 0.7278(3) 0.02135(16) 0.02532(15)
C2 C 0.7932(3) -0.00045(18) -0.02814(16)
H1 H 0.7769 -0.0426 -0.0433
C3 C 0.8825(4) 0.0392(2) -0.05958(18)
H2 H 0.9271 0.0240 -0.0961
C4 C 0.9062(4) 0.1000(2) -0.03800(19)
H3 H 0.9677 0.1267 -0.0595
C5 C 0.8409(4) 0.12280(19) 0.01510(18)
H4 H 0.8578 0.1651 0.0297
C6 C 0.7510(3) 0.08408(16) 0.04700(15)
C7 C 0.6928(4) 0.16868(16) 0.11651(19)
H5 H 0.6571 0.1949 0.0778
H6 H 0.7949 0.1794 0.1292
C8 C 0.6083(4) 0.18285(17) 0.17261(19)
H7 H 0.5968 0.2292 0.1767
H8 H 0.5117 0.1638 0.1639
C9 C 0.6188(4) 0.18095(18) 0.2889(2)
H9 H 0.5139 0.1739 0.2830
H10 H 0.6362 0.2270 0.2935
C10 C 0.6833(4) 0.1479(2) 0.34997(19)
H11 H 0.7885 0.1448 0.3499
H12 H 0.6636 0.1722 0.3895
C11 C 0.6589(5) 0.0566(2) 0.41455(17)
H13 H 0.6402 0.0860 0.4504
H14 H 0.7621 0.0456 0.4203
C12 C 0.5716(5) -0.0015(2) 0.41816(17)
H15 H 0.5850 -0.0183 0.4638
H16 H 0.4689 0.0091 0.4072
C13 C 0.5452(5) -0.1080(2) 0.38324(19)
H17 H 0.4409 -0.1051 0.3692
H18 H 0.5589 -0.1194 0.4307
C14 C 0.6101(5) -0.15759(19) 0.34383(18)
H19 H 0.7159 -0.1541 0.3504
H20 H 0.5830 -0.2001 0.3586
C15 C 0.6196(4) -0.19417(16) 0.23559(17)
H21 H 0.6016 -0.2375 0.2513
H22 H 0.7246 -0.1878 0.2379
C16 C 0.5520(4) -0.18610(15) 0.16604(17)
H23 H 0.5830 -0.2207 0.1381
H24 H 0.4463 -0.1879 0.1646
C17 C 0.5206(3) -0.11321(15) 0.07720(15)
H25 H 0.4346 -0.0872 0.0818
H26 H 0.4886 -0.1533 0.0552
C18 C 0.6167(4) -0.07884(15) 0.03591(15)
H27 H 0.7100 -0.1010 0.0378
H28 H 0.5732 -0.0783 -0.0107
O8 O 0.1557(4) 0.17670(15) 0.3122(2)
O9 O 0.0410(4) 0.1135(2) 0.3759(2)
N1 N 0.6217(2) -0.02084(12) 0.23216(12)
H29 H 0.6212 -0.0258 0.2770
H30 H 0.6073 -0.0601 0.2130
C19 C 0.7657(3) 0.00291(15) 0.21919(16)
H31 H 0.7791 0.0466 0.2363
H32 H 0.7714 0.0039 0.1710
C20 C 0.9372(3) -0.02729(16) 0.31739(16)
H33 H 0.8997 0.0069 0.3404
C21 C 1.0455(4) -0.06476(18) 0.34970(17)
C22 C 1.1005(4) -0.11322(17) 0.3146(2)
H34 H 1.1738 -0.1393 0.3361
C23 C 1.0518(3) -0.12491(16) 0.24887(19)
C24 C 0.9415(3) -0.08761(15) 0.21812(17)
H35 H 0.9059 -0.0956 0.1734
C25 C 0.8830(3) -0.03900(15) 0.25204(15)
C26 C 1.1028(5) -0.0508(2) 0.4208(2)
H36 H 1.1622 -0.0126 0.4225
H37 H 1.1608 -0.0866 0.4390
H38 H 1.0225 -0.0442 0.4469
C27 C 1.1191(5) -0.17639(19) 0.2107(3)
H39 H 1.2020 -0.1592 0.1915
H40 H 1.0485 -0.1921 0.1754
H41 H 1.1503 -0.2113 0.2407
C28 C 0.4998(3) 0.02129(15) 0.20690(15)
H42 H 0.5008 0.0277 0.1588
H43 H 0.5123 0.0631 0.2287
C29 C 0.3554(3) -0.00667(18) 0.21981(18)
H44 H 0.3301 -0.0412 0.1878
H45 H 0.3649 -0.0253 0.2647
C30 C 0.2361(5) 0.0408(3) 0.2144(3)
H46 H 0.2415 0.0665 0.1741
H47 H 0.1435 0.0179 0.2091
C31 C 0.2383(5) 0.0825(3) 0.2700(3)
H48 H 0.3339 0.1025 0.2787
H49 H 0.2201 0.0581 0.3096
C32 C 0.1172(6) 0.1366(3) 0.2554(3)
H50 H 0.1258 0.1590 0.2134
H51 H 0.0191 0.1192 0.2549
C33 C 0.1216(5) 0.1565(2) 0.3699(4)
C34 C 0.1961(6) 0.1931(2) 0.4276(4)
H52 H 0.1834 0.2394 0.4184
C35 C 0.1386(7) 0.1784(4) 0.4916(4)
H53 H 0.0358 0.1881 0.4877
H54 H 0.1889 0.2042 0.5269
H55 H 0.1534 0.1335 0.5021
C36 C 0.3541(6) 0.1775(4) 0.4319(3)
H56 H 0.3670 0.1315 0.4348
H57 H 0.4046 0.1975 0.4713
H58 H 0.3932 0.1934 0.3924
H59? H 0.1703 0.0239 0.1771
H60? H 0.1883 0.0315 0.2542
H61? H 0.0500 0.1624 0.2254
H62? H 0.0585 0.1024 0.2719
C37? C 0.2170(15) 0.1017(7) 0.2078(7)
H63? H 0.1761 0.1099 0.1616
H64? H 0.3125 0.1221 0.2140
loop_
_geom_bond_atom_site_label_1
_geom_bond_atom_site_label_2
_geom_bond_site_symmetry_1
_geom_bond_site_symmetry_2
P1 F1 1_555 1_555
F2 P1 1_555 1_555
F3 P1 1_555 1_555
F4 P1 1_555 1_555
F5 P1 1_555 1_555
F6 P1 1_555 1_555
O1 C6 1_555 1_555
O2 C8 1_555 1_555
O3 C10 1_555 1_555
O4 C12 1_555 1_555
O5 C14 1_555 1_555
O6 C16 1_555 1_555
O7 C1 1_555 1_555
C1 C2 1_555 1_555
C2 H1 1_555 1_555
C3 C2 1_555 1_555
H2 C3 1_555 1_555
C4 C3 1_555 1_555
H3 C4 1_555 1_555
C5 C4 1_555 1_555
H4 C5 1_555 1_555
C6 C1 1_555 1_555
C7 O1 1_555 1_555
H5 C7 1_555 1_555
H6 C7 1_555 1_555
C8 C7 1_555 1_555
H7 C8 1_555 1_555
H8 C8 1_555 1_555
C9 O2 1_555 1_555
H9 C9 1_555 1_555
H10 C9 1_555 1_555
C10 C9 1_555 1_555
H11 C10 1_555 1_555
H12 C10 1_555 1_555
C11 O3 1_555 1_555
H13 C11 1_555 1_555
H14 C11 1_555 1_555
C12 C11 1_555 1_555
H15 C12 1_555 1_555
H16 C12 1_555 1_555
C13 O4 1_555 1_555
H17 C13 1_555 1_555
H18 C13 1_555 1_555
C14 C13 1_555 1_555
H19 C14 1_555 1_555
H20 C14 1_555 1_555
C15 O5 1_555 1_555
H21 C15 1_555 1_555
H22 C15 1_555 1_555
C16 C15 1_555 1_555
H23 C16 1_555 1_555
H24 C16 1_555 1_555
C17 O6 1_555 1_555
H25 C17 1_555 1_555
H26 C17 1_555 1_555
C18 O7 1_555 1_555
H27 C18 1_555 1_555
H28 C18 1_555 1_555
O8 C32 1_555 1_555
O9 C33 1_555 1_555
N1 H29 1_555 1_555
H30 N1 1_555 1_555
C19 N1 1_555 1_555
H31 C19 1_555 1_555
H32 C19 1_555 1_555
C20 H33 1_555 1_555
C21 C20 1_555 1_555
C22 C21 1_555 1_555
H34 C22 1_555 1_555
C23 C22 1_555 1_555
C24 C23 1_555 1_555
H35 C24 1_555 1_555
C25 C19 1_555 1_555
C26 C21 1_555 1_555
H36 C26 1_555 1_555
H37 C26 1_555 1_555
H38 C26 1_555 1_555
C27 C23 1_555 1_555
H39 C27 1_555 1_555
H40 C27 1_555 1_555
H41 C27 1_555 1_555
C28 N1 1_555 1_555
H42 C28 1_555 1_555
H43 C28 1_555 1_555
C29 C28 1_555 1_555
H44 C29 1_555 1_555
H45 C29 1_555 1_555
C30 C29 1_555 1_555
H46 C30 1_555 1_555
H47 C30 1_555 1_555
C31 C30 1_555 1_555
H48 C31 1_555 1_555
H49 C31 1_555 1_555
C32 C31 1_555 1_555
H50 C32 1_555 1_555
H51 C32 1_555 1_555
C33 O8 1_555 1_555
C34 C33 1_555 1_555
H52 C34 1_555 1_555
C35 C34 1_555 1_555
H53 C35 1_555 1_555
H54 C35 1_555 1_555
H55 C35 1_555 1_555
C36 C34 1_555 1_555
H56 C36 1_555 1_555
H57 C36 1_555 1_555
H58 C36 1_555 1_555
C5 C6 1_555 1_555
C17 C18 1_555 1_555
C20 C25 1_555 1_555
C24 C25 1_555 1_555

#END
