
#######################################################################
#
#                 Cambridge Crystallographic Data Centre
#                                CCDC 
#
#######################################################################
#
# If this CIF has been generated from an entry in the Cambridge 
# Structural Database, then it will include bibliographic, chemical, 
# crystal, experimental, refinement or atomic coordinate data resulting 
# from the CCDC's data processing and validation procedures.
#
#######################################################################

data_DEWXUA
_chemical_formula_moiety         'C18 H28 O7,C17 H28 N1 O2 1+,F6 P1 1-'
_chemical_name_systematic        
'N-(3,5-Dimethylbenzyl)-5-(propionyloxy)pentan-1-aminium hexafluorophosphate 2,3,5,6,8,9,11,12,14,15,17,18-dodecahydro-1,4,7,10,13,16,19-benzoheptaoxacyclohenicosine'
_symmetry_cell_setting           monoclinic
_symmetry_space_group_name_H-M   'P 21/n'
_symmetry_Int_Tables_number      14
_space_group_name_Hall           '-P 2yn'
loop_
_symmetry_equiv_pos_site_id
_symmetry_equiv_pos_as_xyz
1 x,y,z
2 1/2-x,1/2+y,1/2-z
3 -x,-y,-z
4 1/2+x,1/2-y,1/2+z
_cell_length_a                   12.7822(7)
_cell_length_b                   15.4270(8)
_cell_length_c                   19.5317(10)
_cell_angle_alpha                90
_cell_angle_beta                 91.937(5)
_cell_angle_gamma                90
_cell_volume                     3849.27
_exptl_crystal_colour            colorless
_exptl_crystal_description       block
_cell_formula_units_Z            4
loop_
_atom_site_label
_atom_site_type_symbol
_atom_site_fract_x
_atom_site_fract_y
_atom_site_fract_z
P1 P 1.22550(6) 0.40422(5) 0.07834(4)
F1 F 1.11029(17) 0.39472(16) 0.09847(18)
F2 F 1.2091(2) 0.50383(14) 0.06452(13)
F3 F 1.2529(2) 0.4227(2) 0.15659(12)
F4 F 1.2029(2) 0.38526(16) 0.00066(11)
F5 F 1.24102(18) 0.30303(14) 0.09152(11)
F6 F 1.34565(18) 0.4121(2) 0.06273(15)
O1 O 0.96567(14) 0.67050(11) 0.38978(9)
O2 O 1.00382(14) 0.63753(12) 0.24500(9)
O3 O 0.93480(14) 0.49074(12) 0.15738(9)
O4 O 0.80975(14) 0.34310(12) 0.18252(9)
O5 O 0.79266(14) 0.28329(11) 0.31982(9)
O6 O 0.80223(14) 0.38726(11) 0.44569(9)
O7 O 0.86495(14) 0.56933(11) 0.47289(9)
C1 C 0.9113(2) 0.71102(17) 0.44015(13)
C2 C 0.8539(2) 0.65697(17) 0.48304(13)
C3 C 0.7919(2) 0.6938(2) 0.53214(14)
H1 H 0.7507 0.6579 0.5602
C4 C 0.7901(3) 0.7838(2) 0.54026(16)
H2 H 0.7474 0.8088 0.5739
C5 C 0.8486(3) 0.8360(2) 0.50052(16)
H3 H 0.8481 0.8970 0.5073
C6 C 0.9093(2) 0.80009(18) 0.45007(15)
H4 H 0.9497 0.8368 0.4222
C7 C 1.0244(2) 0.72593(18) 0.34602(15)
H5 H 1.0770 0.7588 0.3739
H6 H 0.9767 0.7680 0.3228
C8 C 1.0782(2) 0.67309(19) 0.29377(15)
H7 H 1.1287 0.7099 0.2698
H8 H 1.1176 0.6255 0.3168
C9 C 1.0537(2) 0.60726(19) 0.18550(15)
H9 H 1.1051 0.5617 0.1987
H10 H 1.0921 0.6557 0.1645
C10 C 0.9751(2) 0.57114(19) 0.13421(14)
H11 H 0.9169 0.6129 0.1271
H12 H 1.0086 0.5625 0.0898
C11 C 0.8812(2) 0.4430(2) 0.10387(14)
H13 H 0.9199 0.4478 0.0610
H14 H 0.8103 0.4673 0.0955
C12 C 0.8732(2) 0.34968(19) 0.12422(13)
H15 H 0.8417 0.3156 0.0859
H16 H 0.9438 0.3261 0.1352
C13 C 0.7866(2) 0.25601(17) 0.19947(14)
H17 H 0.8523 0.2227 0.2066
H18 H 0.7450 0.2286 0.1617
C14 C 0.7259(2) 0.25559(18) 0.26360(15)
H19 H 0.6651 0.2951 0.2584
H20 H 0.6994 0.1965 0.2724
C15 C 0.7528(2) 0.25928(18) 0.38432(14)
H21 H 0.7511 0.1953 0.3881
H22 H 0.6803 0.2810 0.3877
C16 C 0.8196(2) 0.29590(17) 0.44169(14)
H23 H 0.8017 0.2681 0.4854
H24 H 0.8943 0.2843 0.4335
C17 C 0.8457(2) 0.42164(18) 0.50823(13)
H25 H 0.9230 0.4198 0.5074
H26 H 0.8233 0.3858 0.5472
C18 C 0.8102(2) 0.51312(18) 0.51768(13)
H27 H 0.7340 0.5173 0.5076
H28 H 0.8239 0.5311 0.5658
O8 O 1.05504(16) 0.16285(14) 0.19490(11)
O9 O 1.16815(19) 0.08788(17) 0.13310(13)
N1 N 0.88294(16) 0.45103(13) 0.29565(10)
H29 H 0.8541 0.3969 0.3012
H30 H 0.8964 0.4576 0.2500
C19 C 0.5624(2) 0.5448(2) 0.10721(15)
H31 H 0.5407 0.6057 0.1082
H32 H 0.5064 0.5099 0.0856
H33 H 0.6261 0.5393 0.0810
C20 C 0.4410(2) 0.3907(2) 0.31759(18)
H34 H 0.4181 0.4241 0.3570
H35 H 0.4693 0.3348 0.3333
H36 H 0.3813 0.3808 0.2857
C21 C 0.6796(2) 0.52930(16) 0.21308(13)
H37 H 0.7327 0.5591 0.1897
C22 C 0.5838(2) 0.51334(17) 0.17926(14)
C23 C 0.5082(2) 0.46829(17) 0.21419(15)
H38 H 0.4430 0.4560 0.1915
C24 C 0.5253(2) 0.44064(17) 0.28150(15)
C25 C 0.6213(2) 0.45900(16) 0.31430(14)
H39 H 0.6336 0.4415 0.3605
C26 C 0.69929(19) 0.50255(15) 0.28043(13)
C27 C 0.8043(2) 0.51817(16) 0.31532(13)
H40 H 0.8300 0.5763 0.3026
H41 H 0.7967 0.5171 0.3656
C28 C 0.98417(19) 0.45549(17) 0.33620(13)
H42 H 0.9744 0.4307 0.3823
H43 H 1.0051 0.5169 0.3420
C29 C 1.0709(2) 0.40626(17) 0.30142(13)
H44 H 1.0776 0.4297 0.2546
H45 H 1.1377 0.4175 0.3269
C30 C 1.0548(2) 0.30897(17) 0.29648(14)
H46 H 0.9933 0.2970 0.2657
H47 H 1.0393 0.2861 0.3424
C31 C 1.1497(2) 0.26158(18) 0.26963(15)
H48 H 1.1724 0.2910 0.2276
H49 H 1.2079 0.2654 0.3043
C32 C 1.1285(2) 0.16746(19) 0.25360(16)
H50 H 1.1945 0.1377 0.2429
H51 H 1.0983 0.1385 0.2937
C33 C 1.0856(3) 0.1238(2) 0.13823(17)
C34 C 1.0022(3) 0.1301(3) 0.08239(19)
H52 H 0.9755 0.0712 0.0721
H53 H 0.9433 0.1646 0.0996
C35 C 1.0360(5) 0.1689(5) 0.0195(3)
H54 H 1.0624 0.2275 0.0289
H55 H 0.9768 0.1719 -0.0136
H56 H 1.0919 0.1336 0.0006
H57? H 0.9364 0.1059 0.0996
H58? H 0.9896 0.1921 0.0719
C36? C 1.0265(9) 0.0859(8) 0.0196(5)
H59? H 1.0982 0.0999 0.0073
H60? H 0.9776 0.1047 -0.0172
H61? H 1.0200 0.0232 0.0262
loop_
_geom_bond_atom_site_label_1
_geom_bond_atom_site_label_2
_geom_bond_site_symmetry_1
_geom_bond_site_symmetry_2
P1 F1 1_555 1_555
F2 P1 1_555 1_555
F3 P1 1_555 1_555
F4 P1 1_555 1_555
F5 P1 1_555 1_555
F6 P1 1_555 1_555
O1 C1 1_555 1_555
O2 C8 1_555 1_555
O3 C10 1_555 1_555
O4 C12 1_555 1_555
O5 C14 1_555 1_555
O6 C16 1_555 1_555
O7 C2 1_555 1_555
C1 C2 1_555 1_555
C2 C3 1_555 1_555
C3 H1 1_555 1_555
C4 C3 1_555 1_555
H2 C4 1_555 1_555
C5 C4 1_555 1_555
H3 C5 1_555 1_555
C6 C1 1_555 1_555
H4 C6 1_555 1_555
C7 O1 1_555 1_555
H5 C7 1_555 1_555
H6 C7 1_555 1_555
C8 C7 1_555 1_555
H7 C8 1_555 1_555
H8 C8 1_555 1_555
C9 O2 1_555 1_555
H9 C9 1_555 1_555
H10 C9 1_555 1_555
C10 C9 1_555 1_555
H11 C10 1_555 1_555
H12 C10 1_555 1_555
C11 O3 1_555 1_555
H13 C11 1_555 1_555
H14 C11 1_555 1_555
C12 C11 1_555 1_555
H15 C12 1_555 1_555
H16 C12 1_555 1_555
C13 O4 1_555 1_555
H17 C13 1_555 1_555
H18 C13 1_555 1_555
C14 C13 1_555 1_555
H19 C14 1_555 1_555
H20 C14 1_555 1_555
C15 O5 1_555 1_555
H21 C15 1_555 1_555
H22 C15 1_555 1_555
C16 C15 1_555 1_555
H23 C16 1_555 1_555
H24 C16 1_555 1_555
C17 O6 1_555 1_555
H25 C17 1_555 1_555
H26 C17 1_555 1_555
C18 O7 1_555 1_555
H27 C18 1_555 1_555
H28 C18 1_555 1_555
O8 C32 1_555 1_555
O9 C33 1_555 1_555
N1 H29 1_555 1_555
H30 N1 1_555 1_555
C19 H31 1_555 1_555
H32 C19 1_555 1_555
H33 C19 1_555 1_555
C20 H34 1_555 1_555
H35 C20 1_555 1_555
H36 C20 1_555 1_555
C21 H37 1_555 1_555
C22 C19 1_555 1_555
C23 C22 1_555 1_555
H38 C23 1_555 1_555
C24 C20 1_555 1_555
C25 C24 1_555 1_555
H39 C25 1_555 1_555
C26 C21 1_555 1_555
C27 N1 1_555 1_555
H40 C27 1_555 1_555
H41 C27 1_555 1_555
C28 N1 1_555 1_555
H42 C28 1_555 1_555
H43 C28 1_555 1_555
C29 C28 1_555 1_555
H44 C29 1_555 1_555
H45 C29 1_555 1_555
C30 C29 1_555 1_555
H46 C30 1_555 1_555
H47 C30 1_555 1_555
C31 C30 1_555 1_555
H48 C31 1_555 1_555
H49 C31 1_555 1_555
C32 C31 1_555 1_555
H50 C32 1_555 1_555
H51 C32 1_555 1_555
C33 O8 1_555 1_555
C34 C33 1_555 1_555
H52 C34 1_555 1_555
H53 C34 1_555 1_555
C35 C34 1_555 1_555
H54 C35 1_555 1_555
H55 C35 1_555 1_555
H56 C35 1_555 1_555
C5 C6 1_555 1_555
C17 C18 1_555 1_555
C21 C22 1_555 1_555
C23 C24 1_555 1_555
C25 C26 1_555 1_555
C26 C27 1_555 1_555

#END
