
#######################################################################
#
#                 Cambridge Crystallographic Data Centre
#                                CCDC 
#
#######################################################################
#
# If this CIF has been generated from an entry in the Cambridge 
# Structural Database, then it will include bibliographic, chemical, 
# crystal, experimental, refinement or atomic coordinate data resulting 
# from the CCDC's data processing and validation procedures.
#
#######################################################################

data_DEWYAH
_chemical_formula_moiety         'C18 H28 O7,C16 H26 N1 O2 1+,F6 P1 1-'
_chemical_name_systematic        
'5-Acetoxy-N-(3,5-dimethylbenzyl)pentan-1-aminium hexafluorophosphate 2,3,5,6,8,9,11,12,14,15,17,18-dodecahydro-1,4,7,10,13,16,19-benzoheptaoxacyclohenicosine'
_symmetry_cell_setting           monoclinic
_symmetry_space_group_name_H-M   'P 21/c'
_symmetry_Int_Tables_number      14
_space_group_name_Hall           '-P 2ybc'
loop_
_symmetry_equiv_pos_site_id
_symmetry_equiv_pos_as_xyz
1 x,y,z
2 -x,1/2+y,1/2-z
3 -x,-y,-z
4 x,1/2-y,1/2+z
_cell_length_a                   22.3036(6)
_cell_length_b                   15.0552(5)
_cell_length_c                   31.5788(9)
_cell_angle_alpha                90
_cell_angle_beta                 132.268(2)
_cell_angle_gamma                90
_cell_volume                     7846.81
_exptl_crystal_colour            colorless
_exptl_crystal_description       block
_cell_formula_units_Z            8
loop_
_atom_site_label
_atom_site_type_symbol
_atom_site_fract_x
_atom_site_fract_y
_atom_site_fract_z
P1 P 0.67301(9) 0.71314(10) 0.93154(6)
F1 F 0.6382(3) 0.7577(3) 0.87383(19)
F2 F 0.6113(5) 0.6407(5) 0.8989(4)
F3 F 0.7303(5) 0.6584(5) 0.9326(3)
F4 F 0.7357(5) 0.7851(6) 0.9646(3)
F5 F 0.6133(5) 0.7658(5) 0.9294(4)
F6 F 0.7043(3) 0.6660(4) 0.98790(19)
P2 P 0.81912(8) 0.75291(10) 0.75412(6)
F7 F 0.8184(3) 0.7125(5) 0.7087(2)
F8 F 0.7244(2) 0.7618(4) 0.70797(17)
F9 F 0.8210(3) 0.7996(5) 0.79800(19)
F10 F 0.9107(3) 0.7458(6) 0.7990(2)
F11 F 0.8214(5) 0.8450(4) 0.7327(4)
F12 F 0.8127(7) 0.6651(4) 0.7694(5)
O1 O 0.50293(17) 0.8281(2) 0.49767(12)
O2 O 0.58680(16) 0.6541(2) 0.54854(12)
O3 O 0.5578(2) 0.5236(2) 0.60509(14)
O4 O 0.42639(19) 0.51510(19) 0.60194(13)
O5 O 0.33006(18) 0.6593(2) 0.58610(13)
O6 O 0.32277(19) 0.8255(2) 0.53829(14)
O7 O 0.39076(18) 0.8995(2) 0.49279(13)
C1 C 0.4535(3) 0.8895(3) 0.45541(18)
C2 C 0.4588(4) 0.9148(4) 0.4157(2)
H1 H 0.4965 0.8877 0.4160
C3 C 0.4084(5) 0.9803(5) 0.3758(3)
H2 H 0.4134 0.9978 0.3501
C4 C 0.3518(5) 1.0190(4) 0.3738(2)
H3 H 0.3186 1.0632 0.3470
C5 C 0.3430(3) 0.9928(4) 0.4120(2)
H4 H 0.3030 1.0182 0.4098
C6 C 0.3943(3) 0.9288(3) 0.45291(18)
C7 C 0.3362(3) 0.9454(3) 0.4944(2)
H5 H 0.2807 0.9340 0.4594
H6 H 0.3458 1.0089 0.4971
C8 C 0.3482(3) 0.9150(3) 0.5445(2)
H7 H 0.4050 0.9201 0.5788
H8 H 0.3177 0.9532 0.5489
C9 C 0.2861(3) 0.8088(4) 0.5606(2)
H9 H 0.2393 0.8470 0.5419
H10 H 0.3243 0.8217 0.6013
C10 C 0.2608(3) 0.7146(4) 0.5510(2)
H11 H 0.2273 0.7055 0.5600
H12 H 0.2290 0.6994 0.5111
C11 C 0.3106(3) 0.5692(4) 0.5840(2)
H13 H 0.2770 0.5473 0.5451
H14 H 0.2803 0.5636 0.5958
C12 C 0.3861(3) 0.5157(4) 0.6226(2)
H15 H 0.4216 0.5406 0.6608
H16 H 0.3730 0.4553 0.6246
C13 C 0.4924(3) 0.4543(3) 0.6326(2)
H17 H 0.4750 0.3974 0.6354
H18 H 0.5358 0.4764 0.6710
C14 C 0.5227(3) 0.4429(3) 0.6028(2)
H19 H 0.5629 0.3959 0.6211
H20 H 0.4783 0.4263 0.5632
C15 C 0.6041(3) 0.5124(3) 0.5895(2)
H21 H 0.5691 0.4922 0.5502
H22 H 0.6453 0.4675 0.6138
C16 C 0.6432(3) 0.5974(3) 0.5958(2)
H23 H 0.6644 0.6267 0.6309
H24 H 0.6882 0.5854 0.5982
C17 C 0.6221(3) 0.7372(3) 0.5540(2)
H25 H 0.6714 0.7268 0.5615
H26 H 0.6363 0.7696 0.5862
C18 C 0.5664(3) 0.7908(3) 0.5021(2)
H27 H 0.5962 0.8383 0.5026
H28 H 0.5426 0.7540 0.4688
O8 O 0.59040(18) 0.5712(2) 0.78063(14)
O9 O 0.6738(2) 0.4594(3) 0.8357(2)
N1 N 0.43368(18) 0.6931(2) 0.56120(13)
H29 H 0.3944 0.7239 0.5557
H30 H 0.4412 0.6422 0.5792
C19 C 0.2990(2) 0.5543(3) 0.46283(17)
H31 H 0.3394 0.5142 0.4895
C20 C 0.2182(3) 0.5265(3) 0.42389(19)
C21 C 0.1599(3) 0.5866(3) 0.3844(2)
H32 H 0.1060 0.5684 0.3583
C22 C 0.1782(3) 0.6733(3) 0.3818(2)
C23 C 0.2591(3) 0.6989(3) 0.42142(19)
H33 H 0.2728 0.7567 0.4205
C24 C 0.3198(2) 0.6406(3) 0.46220(16)
C25 C 0.1964(4) 0.4317(4) 0.4253(3)
H34 H 0.2440 0.4013 0.4577
H35 H 0.1750 0.4017 0.3908
H36 H 0.1564 0.4323 0.4284
C26 C 0.1128(4) 0.7368(5) 0.3371(3)
H37 H 0.0639 0.7241 0.3292
H38 H 0.1032 0.7301 0.3027
H39 H 0.1296 0.7966 0.3509
C27 C 0.4059(2) 0.6711(3) 0.50430(17)
H40 H 0.4403 0.6248 0.5091
H41 H 0.4117 0.7232 0.4892
C28 C 0.5097(2) 0.7455(3) 0.59863(16)
H42 H 0.5011 0.8014 0.5799
H43 H 0.5517 0.7133 0.6034
C29 C 0.5388(3) 0.7644(3) 0.65691(17)
H44 H 0.4944 0.7892 0.6520
H45 H 0.5814 0.8088 0.6759
C30 C 0.5713(3) 0.6815(3) 0.69546(18)
H46 H 0.5259 0.6447 0.6825
H47 H 0.6042 0.6471 0.6915
C31 C 0.6216(3) 0.7039(3) 0.75793(18)
H48 H 0.6651 0.7436 0.7705
H49 H 0.5879 0.7344 0.7625
C32 C 0.6568(3) 0.6219(3) 0.7946(2)
H50 H 0.6854 0.5869 0.7871
H51 H 0.6948 0.6381 0.8348
C33 C 0.6080(3) 0.4935(4) 0.8058(2)
C34 C 0.5373(3) 0.4522(5) 0.7931(3)
H52 H 0.4972 0.4377 0.7531
H53 H 0.5147 0.4929 0.8025
H54 H 0.5541 0.3990 0.8154
O10 O 1.00512(18) 0.30897(19) 1.02099(12)
O11 O 1.06683(18) 0.1336(2) 1.02099(14)
O12 O 1.01943(19) 0.0452(2) 0.91880(14)
O13 O 0.88401(19) 0.0808(2) 0.80095(14)
O14 O 0.8155(2) 0.2542(3) 0.75180(16)
O15 O 0.8345(2) 0.4014(2) 0.81686(16)
O16 O 0.91600(17) 0.4251(2) 0.93887(14)
C35 C 0.9118(2) 0.4272(3) 0.9800(2)
C36 C 0.8655(3) 0.4886(4) 0.9813(3)
H55 H 0.8360 0.5320 0.9531
C37 C 0.8635(4) 0.4849(5) 1.0234(3)
H56 H 0.8323 0.5254 1.0238
C38 C 0.9066(4) 0.4228(5) 1.0643(3)
H57 H 0.9049 0.4212 1.0929
C39 C 0.9545(3) 0.3600(4) 1.0655(2)
H58 H 0.9831 0.3167 1.0939
C40 C 0.9577(2) 0.3645(3) 1.0232(2)
C41 C 1.0587(3) 0.2513(3) 1.0681(2)
H59 H 1.0279 0.2086 1.0699
H60 H 1.0922 0.2853 1.1034
C42 C 1.1109(3) 0.2039(3) 1.0619(2)
H61 H 1.1299 0.2454 1.0496
H62 H 1.1578 0.1796 1.0986
C43 C 1.1171(3) 0.0806(3) 1.0184(2)
H63 H 1.1602 0.0542 1.0555
H64 H 1.1417 0.1175 1.0084
C44 C 1.0682(3) 0.0093(3) 0.9748(2)
H65 H 1.1039 -0.0358 0.9803
H66 H 1.0338 -0.0187 0.9796
C45 C 0.9768(3) -0.0217(3) 0.8760(2)
H67 H 0.9328 -0.0443 0.8724
H68 H 1.0130 -0.0707 0.8868
C46 C 0.9435(3) 0.0157(3) 0.8198(2)
H69 H 0.9869 0.0423 0.8240
H70 H 0.9195 -0.0314 0.7916
C47 C 0.8381(4) 0.1044(5) 0.7422(2)
H71 H 0.8120 0.0519 0.7184
H72 H 0.8742 0.1279 0.7379
C48 C 0.7764(4) 0.1713(5) 0.7236(2)
H73 H 0.7397 0.1791 0.6824
H74 H 0.7451 0.1515 0.7329
C49 C 0.7634(4) 0.3274(6) 0.7291(3)
H75 H 0.7214 0.3160 0.7300
H76 H 0.7375 0.3358 0.6896
C50 C 0.8074(5) 0.4083(5) 0.7616(3)
H77 H 0.8534 0.4163 0.7648
H78 H 0.7722 0.4595 0.7419
C51 C 0.8778(3) 0.4786(4) 0.8520(3)
H79 H 0.8574 0.5309 0.8279
H80 H 0.9348 0.4723 0.8723
C52 C 0.8680(3) 0.4899(3) 0.8939(2)
H81 H 0.8849 0.5492 0.9101
H82 H 0.8114 0.4829 0.8746
O17 O 1.0310(4) 0.4192(3) 0.7982(3)
O18 O 1.1100(5) 0.5348(4) 0.8288(3)
N2 N 0.9193(2) 0.2284(2) 0.87438(15)
H83 H 0.9212 0.1774 0.8605
H84 H 0.8855 0.2654 0.8446
C53 C 0.7881(2) 0.0812(3) 0.84576(17)
H85 H 0.8325 0.0431 0.8683
C54 C 0.7114(3) 0.0459(3) 0.80284(19)
C55 C 0.6469(3) 0.1048(3) 0.7706(2)
H86 H 0.5951 0.0824 0.7413
C56 C 0.6561(3) 0.1948(3) 0.7802(3)
C57 C 0.7340(3) 0.2269(3) 0.8234(2)
H87 H 0.7418 0.2876 0.8309
C58 C 0.8000(2) 0.1713(3) 0.85560(16)
C59 C 0.6989(4) -0.0525(3) 0.7916(3)
H88 H 0.7146 -0.0698 0.7710
H89 H 0.6428 -0.0665 0.7692
H90 H 0.7313 -0.0839 0.8273
C60 C 0.5835(4) 0.2559(5) 0.7433(4)
H91 H 0.5468 0.2347 0.7045
H92 H 0.6012 0.3148 0.7444
H93 H 0.5566 0.2572 0.7574
C61 C 0.8844(2) 0.2091(3) 0.90000(17)
H94 H 0.8825 0.2633 0.9157
H95 H 0.9187 0.1670 0.9311
C62 C 1.0007(3) 0.2681(4) 0.9129(3)
H96 H 1.0390 0.2300 0.9457
H97 H 1.0002 0.3258 0.9263
C63 C 1.0242(5) 0.2774(7) 0.8745(5)
H98 H 1.0158 0.2203 0.8569
H99 H 0.9873 0.3194 0.8439
C64 C 1.1037(6) 0.3051(8) 0.9041(5)
H100 H 1.1426 0.2674 0.9370
H101 H 1.1119 0.3661 0.9168
C65 C 1.1115(6) 0.2958(7) 0.8583(4)
H102 H 1.1629 0.2679 0.8759
H103 H 1.0686 0.2576 0.8275
C66 C 1.1073(6) 0.3710(7) 0.8377(5)
H104 H 1.1272 0.3624 0.8185
H105 H 1.1454 0.4101 0.8699
C67 C 1.0418(6) 0.5037(5) 0.7989(4)
C68 C 0.9706(6) 0.5559(5) 0.7653(4)
H106 H 0.9253 0.5200 0.7355
H107 H 0.9766 0.6044 0.7487
H108 H 0.9616 0.5788 0.7890
loop_
_geom_bond_atom_site_label_1
_geom_bond_atom_site_label_2
_geom_bond_site_symmetry_1
_geom_bond_site_symmetry_2
P1 F1 1_555 1_555
F2 P1 1_555 1_555
F3 P1 1_555 1_555
F4 P1 1_555 1_555
F5 P1 1_555 1_555
F6 P1 1_555 1_555
P2 F7 1_555 1_555
F8 P2 1_555 1_555
F9 P2 1_555 1_555
F10 P2 1_555 1_555
F11 P2 1_555 1_555
F12 P2 1_555 1_555
O1 C1 1_555 1_555
O2 C16 1_555 1_555
O3 C14 1_555 1_555
O4 C12 1_555 1_555
O5 C10 1_555 1_555
O6 C8 1_555 1_555
O7 C6 1_555 1_555
C1 C2 1_555 1_555
C2 H1 1_555 1_555
C3 C2 1_555 1_555
H2 C3 1_555 1_555
C4 C3 1_555 1_555
H3 C4 1_555 1_555
C5 C4 1_555 1_555
H4 C5 1_555 1_555
C6 C1 1_555 1_555
C7 O7 1_555 1_555
H5 C7 1_555 1_555
H6 C7 1_555 1_555
C8 C7 1_555 1_555
H7 C8 1_555 1_555
H8 C8 1_555 1_555
C9 O6 1_555 1_555
H9 C9 1_555 1_555
H10 C9 1_555 1_555
C10 C9 1_555 1_555
H11 C10 1_555 1_555
H12 C10 1_555 1_555
C11 O5 1_555 1_555
H13 C11 1_555 1_555
H14 C11 1_555 1_555
C12 C11 1_555 1_555
H15 C12 1_555 1_555
H16 C12 1_555 1_555
C13 O4 1_555 1_555
H17 C13 1_555 1_555
H18 C13 1_555 1_555
C14 C13 1_555 1_555
H19 C14 1_555 1_555
H20 C14 1_555 1_555
C15 O3 1_555 1_555
H21 C15 1_555 1_555
H22 C15 1_555 1_555
C16 C15 1_555 1_555
H23 C16 1_555 1_555
H24 C16 1_555 1_555
C17 O2 1_555 1_555
H25 C17 1_555 1_555
H26 C17 1_555 1_555
C18 O1 1_555 1_555
H27 C18 1_555 1_555
H28 C18 1_555 1_555
O8 C32 1_555 1_555
O9 C33 1_555 1_555
N1 H29 1_555 1_555
H30 N1 1_555 1_555
C19 H31 1_555 1_555
C20 C19 1_555 1_555
C21 C20 1_555 1_555
H32 C21 1_555 1_555
C22 C21 1_555 1_555
C23 C22 1_555 1_555
H33 C23 1_555 1_555
C24 C19 1_555 1_555
C25 C20 1_555 1_555
H34 C25 1_555 1_555
H35 C25 1_555 1_555
H36 C25 1_555 1_555
C26 C22 1_555 1_555
H37 C26 1_555 1_555
H38 C26 1_555 1_555
H39 C26 1_555 1_555
C27 N1 1_555 1_555
H40 C27 1_555 1_555
H41 C27 1_555 1_555
C28 N1 1_555 1_555
H42 C28 1_555 1_555
H43 C28 1_555 1_555
C29 C28 1_555 1_555
H44 C29 1_555 1_555
H45 C29 1_555 1_555
C30 C29 1_555 1_555
H46 C30 1_555 1_555
H47 C30 1_555 1_555
C31 C30 1_555 1_555
H48 C31 1_555 1_555
H49 C31 1_555 1_555
C32 C31 1_555 1_555
H50 C32 1_555 1_555
H51 C32 1_555 1_555
C33 O8 1_555 1_555
C34 C33 1_555 1_555
H52 C34 1_555 1_555
H53 C34 1_555 1_555
H54 C34 1_555 1_555
O10 C40 1_555 1_555
O11 C42 1_555 1_555
O12 C44 1_555 1_555
O13 C46 1_555 1_555
O14 C48 1_555 1_555
O15 C50 1_555 1_555
O16 C35 1_555 1_555
C35 C36 1_555 1_555
C36 H55 1_555 1_555
C37 C36 1_555 1_555
H56 C37 1_555 1_555
C38 C37 1_555 1_555
H57 C38 1_555 1_555
C39 C38 1_555 1_555
H58 C39 1_555 1_555
C40 C35 1_555 1_555
C41 O10 1_555 1_555
H59 C41 1_555 1_555
H60 C41 1_555 1_555
C42 C41 1_555 1_555
H61 C42 1_555 1_555
H62 C42 1_555 1_555
C43 O11 1_555 1_555
H63 C43 1_555 1_555
H64 C43 1_555 1_555
C44 C43 1_555 1_555
H65 C44 1_555 1_555
H66 C44 1_555 1_555
C45 O12 1_555 1_555
H67 C45 1_555 1_555
H68 C45 1_555 1_555
C46 C45 1_555 1_555
H69 C46 1_555 1_555
H70 C46 1_555 1_555
C47 O13 1_555 1_555
H71 C47 1_555 1_555
H72 C47 1_555 1_555
C48 C47 1_555 1_555
H73 C48 1_555 1_555
H74 C48 1_555 1_555
C49 O14 1_555 1_555
H75 C49 1_555 1_555
H76 C49 1_555 1_555
C50 C49 1_555 1_555
H77 C50 1_555 1_555
H78 C50 1_555 1_555
C51 O15 1_555 1_555
H79 C51 1_555 1_555
H80 C51 1_555 1_555
C52 O16 1_555 1_555
H81 C52 1_555 1_555
H82 C52 1_555 1_555
O17 C66 1_555 1_555
O18 C67 1_555 1_555
N2 H83 1_555 1_555
H84 N2 1_555 1_555
C53 H85 1_555 1_555
C54 C53 1_555 1_555
C55 C54 1_555 1_555
H86 C55 1_555 1_555
C56 C55 1_555 1_555
C57 C56 1_555 1_555
H87 C57 1_555 1_555
C58 C53 1_555 1_555
C59 C54 1_555 1_555
H88 C59 1_555 1_555
H89 C59 1_555 1_555
H90 C59 1_555 1_555
C60 C56 1_555 1_555
H91 C60 1_555 1_555
H92 C60 1_555 1_555
H93 C60 1_555 1_555
C61 N2 1_555 1_555
H94 C61 1_555 1_555
H95 C61 1_555 1_555
C62 N2 1_555 1_555
H96 C62 1_555 1_555
H97 C62 1_555 1_555
C63 C62 1_555 1_555
H98 C63 1_555 1_555
H99 C63 1_555 1_555
C64 C63 1_555 1_555
H100 C64 1_555 1_555
H101 C64 1_555 1_555
C65 C64 1_555 1_555
H102 C65 1_555 1_555
H103 C65 1_555 1_555
C66 C65 1_555 1_555
H104 C66 1_555 1_555
H105 C66 1_555 1_555
C67 O17 1_555 1_555
C68 C67 1_555 1_555
H106 C68 1_555 1_555
H107 C68 1_555 1_555
H108 C68 1_555 1_555
C5 C6 1_555 1_555
C17 C18 1_555 1_555
C23 C24 1_555 1_555
C24 C27 1_555 1_555
C39 C40 1_555 1_555
C51 C52 1_555 1_555
C57 C58 1_555 1_555
C58 C61 1_555 1_555

#END
