
#######################################################################
#
#                 Cambridge Crystallographic Data Centre
#                                CCDC 
#
#######################################################################
#
# If this CIF has been generated from an entry in the Cambridge 
# Structural Database, then it will include bibliographic, chemical, 
# crystal, experimental, refinement or atomic coordinate data resulting 
# from the CCDC's data processing and validation procedures.
#
#######################################################################

data_DEWYEM
_chemical_formula_moiety         'C19 H18 Br1 N1 O1 S1'
_chemical_name_systematic        
5-benzylidene-3-[(4-bromophenyl)methyl]-4,4-dimethyl-1,3-thiazolidin-2-one
_symmetry_cell_setting           monoclinic
_symmetry_space_group_name_H-M   'P 21/c'
_symmetry_Int_Tables_number      14
_space_group_name_Hall           '-P 2ybc'
loop_
_symmetry_equiv_pos_site_id
_symmetry_equiv_pos_as_xyz
1 x,y,z
2 -x,1/2+y,1/2-z
3 -x,-y,-z
4 x,1/2-y,1/2+z
_cell_length_a                   19.792(4)
_cell_length_b                   6.8257(14)
_cell_length_c                   13.277(3)
_cell_angle_alpha                90
_cell_angle_beta                 97.248(4)
_cell_angle_gamma                90
_cell_volume                     1779.31
_exptl_crystal_colour            'pale yellow'
_exptl_crystal_description       prism
_cell_formula_units_Z            4
loop_
_atom_site_label
_atom_site_type_symbol
_atom_site_fract_x
_atom_site_fract_y
_atom_site_fract_z
Br1 Br 1.10006(2) 0.32464(8) 0.62051(4)
C1 C 0.75397(16) 0.4704(6) 0.8061(2)
C2 C 0.74173(16) 0.5705(5) 0.6300(2)
C3 C 0.69912(15) 0.7236(5) 0.6785(2)
C4 C 0.66118(17) 0.8591(5) 0.6260(3)
H1 H 0.6606 0.8509 0.5559
C5 C 0.61981(11) 1.0206(3) 0.66059(18)
C6 C 0.56759(13) 1.0942(4) 0.59108(17)
H2 H 0.5596 1.0411 0.5262
C7 C 0.52737(13) 1.2473(5) 0.6186(3)
H3 H 0.4924 1.2966 0.5721
C8 C 0.53937(15) 1.3267(4) 0.7156(3)
H4 H 0.5125 1.4291 0.7340
C9 C 0.59159(16) 1.2530(4) 0.7851(2)
H5 H 0.5996 1.3062 0.8500
C10 C 0.63181(12) 1.1000(4) 0.75761(17)
H6 H 0.6668 1.0507 0.8041
C11 C 0.8027(2) 0.6771(6) 0.5941(3)
H7 H 0.8298 0.7355 0.6513
H8 H 0.7865 0.7774 0.5464
H9 H 0.8298 0.5851 0.5621
C12 C 0.6983(2) 0.4668(6) 0.5425(3)
H10 H 0.7262 0.3767 0.5106
H11 H 0.6794 0.5621 0.4938
H12 H 0.6622 0.3966 0.5683
C13 C 0.79846(18) 0.2427(6) 0.6906(3)
H13 H 0.7731 0.1827 0.6312
H14 H 0.7960 0.1552 0.7476
C14 C 0.87213(17) 0.2620(5) 0.6727(3)
C15 C 0.92085(17) 0.3294(5) 0.7497(3)
H15 H 0.9079 0.3619 0.8125
C16 C 0.98823(18) 0.3486(5) 0.7339(3)
H16 H 1.0205 0.3938 0.7857
C17 C 1.00696(17) 0.3003(5) 0.6415(3)
C18 C 0.9602(2) 0.2324(6) 0.5641(3)
H17 H 0.9736 0.2004 0.5015
C19 C 0.8931(2) 0.2121(6) 0.5804(3)
H18 H 0.8615 0.1642 0.5286
N1 N 0.76529(13) 0.4296(4) 0.7113(2)
O1 O 0.77050(15) 0.3737(5) 0.8825(2)
S1 S 0.70879(5) 0.69593(15) 0.81049(6)
loop_
_geom_bond_atom_site_label_1
_geom_bond_atom_site_label_2
_geom_bond_site_symmetry_1
_geom_bond_site_symmetry_2
Br1 C17 1_555 1_555
C1 N1 1_555 1_555
C2 C3 1_555 1_555
C3 C4 1_555 1_555
C4 H1 1_555 1_555
C5 C4 1_555 1_555
C6 C5 1_555 1_555
H2 C6 1_555 1_555
C7 C6 1_555 1_555
H3 C7 1_555 1_555
C8 C7 1_555 1_555
H4 C8 1_555 1_555
C9 C8 1_555 1_555
H5 C9 1_555 1_555
C10 C5 1_555 1_555
H6 C10 1_555 1_555
C11 C2 1_555 1_555
H7 C11 1_555 1_555
H8 C11 1_555 1_555
H9 C11 1_555 1_555
C12 C2 1_555 1_555
H10 C12 1_555 1_555
H11 C12 1_555 1_555
H12 C12 1_555 1_555
C13 H13 1_555 1_555
H14 C13 1_555 1_555
C14 C13 1_555 1_555
C15 C14 1_555 1_555
H15 C15 1_555 1_555
C16 C15 1_555 1_555
H16 C16 1_555 1_555
C17 C16 1_555 1_555
C18 C17 1_555 1_555
H17 C18 1_555 1_555
C19 C14 1_555 1_555
H18 C19 1_555 1_555
N1 C2 1_555 1_555
O1 C1 1_555 1_555
S1 C1 1_555 1_555
C3 S1 1_555 1_555
C9 C10 1_555 1_555
C13 N1 1_555 1_555
C18 C19 1_555 1_555

#END
