
#######################################################################
#
#                 Cambridge Crystallographic Data Centre
#                                CCDC 
#
#######################################################################
#
# If this CIF has been generated from an entry in the Cambridge 
# Structural Database, then it will include bibliographic, chemical, 
# crystal, experimental, refinement or atomic coordinate data resulting 
# from the CCDC's data processing and validation procedures.
#
#######################################################################

data_DEWZOX
_chemical_formula_moiety         'C26 H32 N4 O6'
_chemical_name_systematic        
'dibenzyl [{[2-(2,5-dioxopyrrolidin-1-yl)ethyl]azanediyl}bis(ethane-2,1-diyl)]biscarbamate'
_symmetry_cell_setting           triclinic
_symmetry_space_group_name_H-M   'P -1'
_symmetry_Int_Tables_number      2
_space_group_name_Hall           '-P 1'
loop_
_symmetry_equiv_pos_site_id
_symmetry_equiv_pos_as_xyz
1 x,y,z
2 -x,-y,-z
_cell_length_a                   8.9203(2)
_cell_length_b                   11.4717(3)
_cell_length_c                   13.1042(4)
_cell_angle_alpha                97.871(2)
_cell_angle_beta                 97.724(2)
_cell_angle_gamma                109.218(2)
_cell_volume                     1231
_exptl_crystal_colour            colorless
_exptl_crystal_description       plates
_cell_formula_units_Z            2
loop_
_atom_site_label
_atom_site_type_symbol
_atom_site_fract_x
_atom_site_fract_y
_atom_site_fract_z
N1 N 0.41012(11) 0.52832(9) 0.20043(7)
C1 C 0.52238(13) 0.47843(12) 0.15286(9)
H1 H 0.6245 0.5485 0.1555
H2 H 0.4744 0.4399 0.0782
C2 C 0.55899(13) 0.38091(12) 0.20908(9)
H3 H 0.6387 0.3525 0.1773
H4 H 0.6067 0.4189 0.2839
N2 N 0.41119(11) 0.27325(9) 0.20141(7)
C3 C 0.33063(13) 0.24914(11) 0.28365(9)
O1 O 0.38087(10) 0.30803(8) 0.37332(6)
C4 C 0.17548(14) 0.13929(12) 0.24321(9)
H5 H 0.0810 0.1651 0.2494
H6 H 0.1703 0.0710 0.2829
C5 C 0.17812(14) 0.09599(12) 0.12828(9)
H7 H 0.1792 0.0092 0.1158
H8 H 0.0824 0.0984 0.0819
C6 C 0.33172(14) 0.18792(12) 0.10883(9)
O2 O 0.38202(11) 0.19033(9) 0.02703(7)
C7 C 0.31097(14) 0.56487(12) 0.12083(9)
H9 H 0.3808 0.6115 0.0762
H10 H 0.2630 0.6218 0.1562
C8 C 0.17728(14) 0.45183(12) 0.05243(9)
H11 H 0.1164 0.4794 -0.0023
H12 H 0.2245 0.3943 0.0170
N3 N 0.06826(12) 0.38598(10) 0.11601(8)
H13 H 0.0910(15) 0.4052(13) 0.1832(9)
C9 C -0.05923(13) 0.28188(12) 0.07324(9)
O3 O -0.10332(10) 0.23559(9) -0.01986(6)
O4 O -0.13550(9) 0.23122(8) 0.14861(6)
C10 C -0.27406(14) 0.11848(12) 0.11171(9)
H14 H -0.2402 0.0493 0.0817
H15 H -0.3498 0.1318 0.0559
C11 C -0.35669(13) 0.08383(11) 0.20146(9)
C12 C -0.30651(14) 0.15993(12) 0.30098(9)
H16 H -0.2145 0.2352 0.3148
C13 C -0.39152(15) 0.12553(13) 0.38020(9)
H17 H -0.3554 0.1764 0.4486
C14 C -0.52782(15) 0.01818(13) 0.36030(10)
H18 H -0.5869 -0.0036 0.4143
C15 C -0.57814(15) -0.05765(13) 0.26153(10)
H19 H -0.6720 -0.1316 0.2475
C16 C -0.49171(14) -0.02570(12) 0.18319(10)
H20 H -0.5251 -0.0793 0.1160
C17 C 0.50208(14) 0.63507(11) 0.28680(9)
H21 H 0.5513 0.7099 0.2564
H22 H 0.5913 0.6155 0.3254
C18 C 0.40356(15) 0.66820(12) 0.36458(9)
H23 H 0.4650 0.7542 0.4053
H24 H 0.3019 0.6696 0.3247
N4 N 0.36282(12) 0.58367(10) 0.43778(8)
H25 H 0.4296(15) 0.5994(13) 0.4973(9)
C19 C 0.22095(13) 0.48950(11) 0.42250(9)
O5 O 0.11351(9) 0.45714(8) 0.34458(6)
O6 O 0.20676(9) 0.43390(8) 0.50737(6)
C20 C 0.05914(13) 0.32566(12) 0.49409(9)
H26 H 0.0445 0.2669 0.4277
H27 H -0.0354 0.3530 0.4914
C21 C 0.07271(13) 0.26191(12) 0.58514(9)
C22 C 0.12220(15) 0.15851(12) 0.57628(10)
H28 H 0.1440 0.1269 0.5112
C23 C 0.14009(16) 0.10122(13) 0.66104(12)
H29 H 0.1745 0.0309 0.6541
C24 C 0.10804(16) 0.14613(14) 0.75536(11)
H30 H 0.1213 0.1073 0.8138
C25 C 0.05648(15) 0.24795(15) 0.76529(10)
H31 H 0.0327 0.2780 0.8301
C26 C 0.03967(13) 0.30589(13) 0.68054(9)
H32 H 0.0053 0.3762 0.6878
loop_
_geom_bond_atom_site_label_1
_geom_bond_atom_site_label_2
_geom_bond_site_symmetry_1
_geom_bond_site_symmetry_2
N1 C1 1_555 1_555
C1 H1 1_555 1_555
H2 C1 1_555 1_555
C2 C1 1_555 1_555
H3 C2 1_555 1_555
H4 C2 1_555 1_555
N2 C2 1_555 1_555
C3 N2 1_555 1_555
O1 C3 1_555 1_555
C4 C3 1_555 1_555
H5 C4 1_555 1_555
H6 C4 1_555 1_555
C5 C4 1_555 1_555
H7 C5 1_555 1_555
H8 C5 1_555 1_555
C6 N2 1_555 1_555
O2 C6 1_555 1_555
C7 N1 1_555 1_555
H9 C7 1_555 1_555
H10 C7 1_555 1_555
C8 C7 1_555 1_555
H11 C8 1_555 1_555
H12 C8 1_555 1_555
N3 C8 1_555 1_555
H13 N3 1_555 1_555
C9 N3 1_555 1_555
O3 C9 1_555 1_555
O4 C9 1_555 1_555
C10 O4 1_555 1_555
H14 C10 1_555 1_555
H15 C10 1_555 1_555
C11 C10 1_555 1_555
C12 C11 1_555 1_555
H16 C12 1_555 1_555
C13 C12 1_555 1_555
H17 C13 1_555 1_555
C14 C13 1_555 1_555
H18 C14 1_555 1_555
C15 C14 1_555 1_555
H19 C15 1_555 1_555
C16 C11 1_555 1_555
H20 C16 1_555 1_555
C17 N1 1_555 1_555
H21 C17 1_555 1_555
H22 C17 1_555 1_555
C18 C17 1_555 1_555
H23 C18 1_555 1_555
H24 C18 1_555 1_555
N4 C18 1_555 1_555
H25 N4 1_555 1_555
C19 N4 1_555 1_555
O5 C19 1_555 1_555
O6 C19 1_555 1_555
C20 O6 1_555 1_555
H26 C20 1_555 1_555
H27 C20 1_555 1_555
C21 C20 1_555 1_555
C22 C21 1_555 1_555
H28 C22 1_555 1_555
C23 C22 1_555 1_555
H29 C23 1_555 1_555
C24 C23 1_555 1_555
H30 C24 1_555 1_555
C25 C24 1_555 1_555
H31 C25 1_555 1_555
C26 C21 1_555 1_555
H32 C26 1_555 1_555
C5 C6 1_555 1_555
C15 C16 1_555 1_555
C25 C26 1_555 1_555

#END
