
#######################################################################
#
#                 Cambridge Crystallographic Data Centre
#                                CCDC 
#
#######################################################################
#
# If this CIF has been generated from an entry in the Cambridge 
# Structural Database, then it will include bibliographic, chemical, 
# crystal, experimental, refinement or atomic coordinate data resulting 
# from the CCDC's data processing and validation procedures.
#
#######################################################################

data_DEXCIV
_chemical_formula_moiety         'C36 H35 N3 O2'
_chemical_name_systematic        
"t-butyl {2-[2'-(diphenylmethyl)[1H,1'H-[2,3'-biindole]]-3-yl]ethyl}carbamate"
_symmetry_cell_setting           monoclinic
_symmetry_space_group_name_H-M   'C c'
_symmetry_Int_Tables_number      9
_space_group_name_Hall           'C -2yc'
loop_
_symmetry_equiv_pos_site_id
_symmetry_equiv_pos_as_xyz
1 x,y,z
2 x,-y,1/2+z
3 1/2+x,1/2+y,z
4 1/2+x,1/2-y,1/2+z
_cell_length_a                   14.9636(17)
_cell_length_b                   12.2439(14)
_cell_length_c                   33.362(4)
_cell_angle_alpha                90
_cell_angle_beta                 96.500(2)
_cell_angle_gamma                90
_cell_volume                     6073.06
_exptl_crystal_colour            colorless
_exptl_crystal_description       prismatic
_cell_formula_units_Z            8
loop_
_atom_site_label
_atom_site_type_symbol
_atom_site_fract_x
_atom_site_fract_y
_atom_site_fract_z
N1 N 0.6253(3) 0.4121(4) 0.02581(15)
N2 N 0.3868(3) 0.3773(4) 0.10274(16)
N3 N 0.4254(3) -0.0227(4) 0.00380(17)
O1 O 0.3918(3) -0.1038(3) -0.05469(14)
O2 O 0.2802(3) -0.0592(3) -0.01717(13)
C1 C 0.4903(3) 0.4839(4) 0.03106(18)
C2 C 0.4224(4) 0.5626(5) 0.0244(2)
H1 H 0.3672 0.5525 0.0342
C3 C 0.4390(4) 0.6547(5) 0.0033(2)
H2 H 0.3953 0.7089 -0.0004
C4 C 0.5204(4) 0.6690(5) -0.0129(2)
H3 H 0.5290 0.7318 -0.0276
C5 C 0.5883(4) 0.5924(4) -0.00744(18)
H4 H 0.6425 0.6017 -0.0182
C6 C 0.5713(3) 0.5007(4) 0.01497(17)
C7 C 0.5814(3) 0.3401(4) 0.04845(18)
C8 C 0.4974(3) 0.3808(4) 0.05190(17)
C9 C 0.4245(3) 0.3283(4) 0.07083(18)
C10 C 0.3758(3) 0.2367(4) 0.05930(17)
C11 C 0.3041(3) 0.2301(4) 0.08417(18)
C12 C 0.3118(4) 0.3196(4) 0.11056(19)
C13 C 0.2496(4) 0.3416(5) 0.1375(2)
H5 H 0.2563 0.4004 0.1551
C14 C 0.1779(4) 0.2715(5) 0.1364(2)
H6 H 0.1352 0.2834 0.1541
C15 C 0.1664(4) 0.1838(5) 0.1101(2)
H7 H 0.1156 0.1400 0.1099
C16 C 0.2290(4) 0.1609(5) 0.08450(19)
H8 H 0.2221 0.1005 0.0675
C17 C 0.3883(4) 0.1630(4) 0.02475(18)
H9 H 0.4375 0.1902 0.0110
H10 H 0.3343 0.1644 0.0057
C18 C 0.4084(4) 0.0452(4) 0.03786(19)
H11 H 0.4605 0.0437 0.0580
H12 H 0.3576 0.0159 0.0501
C19 C 0.3593(4) -0.0608(4) -0.02227(19)
C20 C 0.3336(5) -0.1352(6) -0.0915(2)
C21 C 0.4009(7) -0.1662(8) -0.1194(3)
H13 H 0.4423 -0.1071 -0.1212
H14 H 0.3703 -0.1814 -0.1457
H15 H 0.4331 -0.2300 -0.1092
C22 C 0.2801(7) -0.0379(9) -0.1070(3)
H16 H 0.2348 -0.0225 -0.0896
H17 H 0.2518 -0.0527 -0.1338
H18 H 0.3192 0.0241 -0.1077
C23 C 0.2762(7) -0.2302(8) -0.0827(3)
H19 H 0.3126 -0.2844 -0.0678
H20 H 0.2490 -0.2612 -0.1076
H21 H 0.2300 -0.2061 -0.0670
C24 C 0.6281(4) 0.2424(4) 0.06815(18)
H22 H 0.5897 0.2162 0.0880
C25 C 0.7148(4) 0.2801(4) 0.09194(19)
C26 C 0.7970(4) 0.2695(5) 0.0766(2)
H23 H 0.8002 0.2314 0.0527
C27 C 0.8742(4) 0.3152(5) 0.0967(2)
H24 H 0.9288 0.3075 0.0862
C28 C 0.8707(5) 0.3710(5) 0.1317(2)
H25 H 0.9227 0.4012 0.1452
C29 C 0.7896(6) 0.3826(6) 0.1471(2)
H26 H 0.7868 0.4214 0.1709
C30 C 0.7139(5) 0.3377(5) 0.1277(2)
H27 H 0.6599 0.3456 0.1387
C31 C 0.6402(3) 0.1459(4) 0.04013(19)
C32 C 0.6544(4) 0.0426(5) 0.0572(2)
H28 H 0.6578 0.0344 0.0850
C33 C 0.6636(5) -0.0477(5) 0.0333(3)
H29 H 0.6716 -0.1164 0.0451
C34 C 0.6609(4) -0.0368(6) -0.0077(3)
H30 H 0.6680 -0.0975 -0.0238
C35 C 0.6476(4) 0.0645(5) -0.0247(2)
H31 H 0.6457 0.0727 -0.0525
C36 C 0.6371(4) 0.1547(5) -0.0007(2)
H32 H 0.6278 0.2229 -0.0127
H33 H 0.6793(17) 0.409(4) 0.0239(14)
H34 H 0.408(3) 0.434(3) 0.1138(14)
H35 H 0.476(3) -0.019(5) -0.005(2)
N4 N 0.1157(3) 1.1723(4) 0.28593(18)
N5 N 0.3522(3) 1.1547(4) 0.20822(17)
N6 N 0.3241(4) 0.7526(4) 0.30627(18)
O3 O 0.4657(3) 0.7063(4) 0.32900(13)
O4 O 0.3501(3) 0.6721(3) 0.36506(14)
C37 C 0.2488(3) 1.2505(4) 0.27903(18)
C38 C 0.3136(4) 1.3323(5) 0.2843(2)
H36 H 0.3675 1.3260 0.2731
C39 C 0.2958(5) 1.4234(5) 0.3068(2)
H37 H 0.3391 1.4780 0.3111
C40 C 0.2151(5) 1.4350(5) 0.3229(2)
H38 H 0.2046 1.4982 0.3371
C41 C 0.1505(4) 1.3557(5) 0.3186(2)
H39 H 0.0972 1.3627 0.3302
C42 C 0.1676(3) 1.2640(4) 0.29602(18)
C43 C 0.1618(3) 1.1030(4) 0.26371(19)
C44 C 0.2443(3) 1.1465(4) 0.25873(18)
C45 C 0.3189(3) 1.0985(4) 0.23956(18)
C46 C 0.3744(3) 1.0131(4) 0.25118(17)
C47 C 0.4473(4) 1.0165(5) 0.22607(18)
C48 C 0.4303(3) 1.1042(5) 0.19931(19)
C49 C 0.4897(4) 1.1343(6) 0.1717(2)
H40 H 0.4772 1.1914 0.1535
C50 C 0.5678(5) 1.0740(6) 0.1730(2)
H41 H 0.6099 1.0922 0.1556
C51 C 0.5857(4) 0.9882(6) 0.1990(2)
H42 H 0.6395 0.9502 0.1988
C52 C 0.5252(4) 0.9562(5) 0.22575(19)
H43 H 0.5370 0.8965 0.2427
C53 C 0.3650(4) 0.9376(4) 0.28501(18)
H44 H 0.3169 0.9639 0.2997
H45 H 0.4202 0.9394 0.3033
C54 C 0.3451(4) 0.8192(4) 0.2726(2)
H46 H 0.2947 0.8175 0.2516
H47 H 0.3969 0.7887 0.2616
C55 C 0.3875(4) 0.7102(4) 0.3334(2)
C56 C 0.4047(5) 0.6343(7) 0.4016(2)
C57 C 0.4637(7) 0.7241(8) 0.4193(3)
H48 H 0.5117 0.7359 0.4030
H49 H 0.4883 0.7046 0.4462
H50 H 0.4290 0.7899 0.4202
C58 C 0.4573(7) 0.5335(7) 0.3928(3)
H51 H 0.4184 0.4831 0.3773
H52 H 0.4811 0.4998 0.4178
H53 H 0.5059 0.5537 0.3779
C59 C 0.3343(7) 0.6080(9) 0.4289(3)
H54 H 0.2990 0.6720 0.4324
H55 H 0.3629 0.5842 0.4546
H56 H 0.2960 0.5510 0.4170
C60 C 0.1197(4) 0.9990(4) 0.24606(19)
H57 H 0.1595 0.9719 0.2269
C61 C 0.0302(4) 1.0283(5) 0.2211(2)
C62 C -0.0502(4) 1.0276(5) 0.2372(2)
H58 H -0.0522 1.0026 0.2634
C63 C -0.1286(5) 1.0634(6) 0.2150(3)
H59 H -0.1829 1.0630 0.2261
C64 C -0.1241(5) 1.0999(6) 0.1757(3)
H60 H -0.1759 1.1254 0.1605
C65 C -0.0441(6) 1.0989(6) 0.1592(3)
H61 H -0.0417 1.1230 0.1329
C66 C 0.0320(5) 1.0620(5) 0.1818(2)
H62 H 0.0860 1.0596 0.1705
C67 C 0.1097(3) 0.9062(5) 0.2757(2)
C68 C 0.1137(4) 0.9207(5) 0.3167(2)
H63 H 0.1229 0.9901 0.3277
C69 C 0.1043(5) 0.8331(6) 0.3413(3)
H64 H 0.1070 0.8444 0.3690
C70 C 0.0911(5) 0.7296(7) 0.3266(3)
H65 H 0.0839 0.6715 0.3439
C71 C 0.0886(5) 0.7135(6) 0.2867(3)
H66 H 0.0820 0.6430 0.2764
C72 C 0.0957(4) 0.8014(5) 0.2604(2)
H67 H 0.0911 0.7895 0.2327
H68 H 0.069(3) 1.158(5) 0.2966(17)
H69 H 0.271(2) 0.753(5) 0.312(2)
H70 H 0.323(3) 1.197(3) 0.1923(13)
loop_
_geom_bond_atom_site_label_1
_geom_bond_atom_site_label_2
_geom_bond_site_symmetry_1
_geom_bond_site_symmetry_2
N1 C6 1_555 1_555
N2 C9 1_555 1_555
N3 C18 1_555 1_555
O1 C19 1_555 1_555
O2 C19 1_555 1_555
C1 C2 1_555 1_555
C2 H1 1_555 1_555
C3 C2 1_555 1_555
H2 C3 1_555 1_555
C4 C3 1_555 1_555
H3 C4 1_555 1_555
C5 C4 1_555 1_555
H4 C5 1_555 1_555
C6 C1 1_555 1_555
C7 N1 1_555 1_555
C8 C1 1_555 1_555
C9 C8 1_555 1_555
C10 C9 1_555 1_555
C11 C10 1_555 1_555
C12 N2 1_555 1_555
C13 C12 1_555 1_555
H5 C13 1_555 1_555
C14 C13 1_555 1_555
H6 C14 1_555 1_555
C15 C14 1_555 1_555
H7 C15 1_555 1_555
C16 C11 1_555 1_555
H8 C16 1_555 1_555
C17 C10 1_555 1_555
H9 C17 1_555 1_555
H10 C17 1_555 1_555
C18 C17 1_555 1_555
H11 C18 1_555 1_555
H12 C18 1_555 1_555
C19 N3 1_555 1_555
C20 O1 1_555 1_555
C21 C20 1_555 1_555
H13 C21 1_555 1_555
H14 C21 1_555 1_555
H15 C21 1_555 1_555
C22 C20 1_555 1_555
H16 C22 1_555 1_555
H17 C22 1_555 1_555
H18 C22 1_555 1_555
C23 C20 1_555 1_555
H19 C23 1_555 1_555
H20 C23 1_555 1_555
H21 C23 1_555 1_555
C24 C7 1_555 1_555
H22 C24 1_555 1_555
C25 C24 1_555 1_555
C26 C25 1_555 1_555
H23 C26 1_555 1_555
C27 C26 1_555 1_555
H24 C27 1_555 1_555
C28 C27 1_555 1_555
H25 C28 1_555 1_555
C29 C28 1_555 1_555
H26 C29 1_555 1_555
C30 C25 1_555 1_555
H27 C30 1_555 1_555
C31 C24 1_555 1_555
C32 C31 1_555 1_555
H28 C32 1_555 1_555
C33 C32 1_555 1_555
H29 C33 1_555 1_555
C34 C33 1_555 1_555
H30 C34 1_555 1_555
C35 C34 1_555 1_555
H31 C35 1_555 1_555
C36 C31 1_555 1_555
H32 C36 1_555 1_555
H33 N1 1_555 1_555
H34 N2 1_555 1_555
H35 N3 1_555 1_555
N4 C42 1_555 1_555
N5 C45 1_555 1_555
N6 C54 1_555 1_555
O3 C55 1_555 1_555
O4 C55 1_555 1_555
C37 C38 1_555 1_555
C38 H36 1_555 1_555
C39 C38 1_555 1_555
H37 C39 1_555 1_555
C40 C39 1_555 1_555
H38 C40 1_555 1_555
C41 C40 1_555 1_555
H39 C41 1_555 1_555
C42 C37 1_555 1_555
C43 N4 1_555 1_555
C44 C37 1_555 1_555
C45 C44 1_555 1_555
C46 C45 1_555 1_555
C47 C46 1_555 1_555
C48 N5 1_555 1_555
C49 C48 1_555 1_555
H40 C49 1_555 1_555
C50 C49 1_555 1_555
H41 C50 1_555 1_555
C51 C50 1_555 1_555
H42 C51 1_555 1_555
C52 C47 1_555 1_555
H43 C52 1_555 1_555
C53 C46 1_555 1_555
H44 C53 1_555 1_555
H45 C53 1_555 1_555
C54 C53 1_555 1_555
H46 C54 1_555 1_555
H47 C54 1_555 1_555
C55 N6 1_555 1_555
C56 O4 1_555 1_555
C57 C56 1_555 1_555
H48 C57 1_555 1_555
H49 C57 1_555 1_555
H50 C57 1_555 1_555
C58 C56 1_555 1_555
H51 C58 1_555 1_555
H52 C58 1_555 1_555
H53 C58 1_555 1_555
C59 C56 1_555 1_555
H54 C59 1_555 1_555
H55 C59 1_555 1_555
H56 C59 1_555 1_555
C60 C43 1_555 1_555
H57 C60 1_555 1_555
C61 C60 1_555 1_555
C62 C61 1_555 1_555
H58 C62 1_555 1_555
C63 C62 1_555 1_555
H59 C63 1_555 1_555
C64 C63 1_555 1_555
H60 C64 1_555 1_555
C65 C64 1_555 1_555
H61 C65 1_555 1_555
C66 C61 1_555 1_555
H62 C66 1_555 1_555
C67 C60 1_555 1_555
C68 C67 1_555 1_555
H63 C68 1_555 1_555
C69 C68 1_555 1_555
H64 C69 1_555 1_555
C70 C69 1_555 1_555
H65 C70 1_555 1_555
C71 C70 1_555 1_555
H66 C71 1_555 1_555
C72 C67 1_555 1_555
H67 C72 1_555 1_555
H68 N4 1_555 1_555
H69 N6 1_555 1_555
H70 N5 1_555 1_555
C5 C6 1_555 1_555
C7 C8 1_555 1_555
C11 C12 1_555 1_555
C15 C16 1_555 1_555
C29 C30 1_555 1_555
C35 C36 1_555 1_555
C41 C42 1_555 1_555
C43 C44 1_555 1_555
C47 C48 1_555 1_555
C51 C52 1_555 1_555
C65 C66 1_555 1_555
C71 C72 1_555 1_555

#END
