
#######################################################################
#
#                 Cambridge Crystallographic Data Centre
#                                CCDC 
#
#######################################################################
#
# If this CIF has been generated from an entry in the Cambridge 
# Structural Database, then it will include bibliographic, chemical, 
# crystal, experimental, refinement or atomic coordinate data resulting 
# from the CCDC's data processing and validation procedures.
#
#######################################################################

data_DEXCER
_chemical_formula_moiety         'C32 H28 N2 O2'
_chemical_name_systematic        
"2-[2'-(diphenylmethyl)-7-methoxy[1H,1'H-[2,3'-biindole]]-3-yl]ethan-1-ol unknown solvate"
_symmetry_cell_setting           monoclinic
_symmetry_space_group_name_H-M   'P 21/n'
_symmetry_Int_Tables_number      14
_space_group_name_Hall           '-P 2yn'
loop_
_symmetry_equiv_pos_site_id
_symmetry_equiv_pos_as_xyz
1 x,y,z
2 1/2-x,1/2+y,1/2-z
3 -x,-y,-z
4 1/2+x,1/2-y,1/2+z
_cell_length_a                   13.672(3)
_cell_length_b                   17.459(4)
_cell_length_c                   23.660(5)
_cell_angle_alpha                90
_cell_angle_beta                 92.451(3)
_cell_angle_gamma                90
_cell_volume                     5642.46
_exptl_crystal_colour            colorless
_exptl_crystal_description       block
_cell_formula_units_Z            8
loop_
_atom_site_label
_atom_site_type_symbol
_atom_site_fract_x
_atom_site_fract_y
_atom_site_fract_z
O1 O 0.91700(14) 0.70539(12) 0.54955(9)
O2 O 0.6057(7) 0.4685(7) 0.7369(4)
H1 H 0.665096 0.461910 0.737611
N1 N 0.9693(2) 0.35761(15) 0.69706(11)
H2 H 1.010882 0.342707 0.723058
N2 N 0.86799(16) 0.56162(13) 0.60136(9)
H3 H 0.930626 0.563687 0.599550
C1 C 0.9320(2) 0.31303(18) 0.65314(13)
C2 C 0.9482(3) 0.2364(2) 0.64001(16)
H4 H 0.991488 0.206287 0.661743
C3 C 0.8972(3) 0.2072(2) 0.59344(18)
H5 H 0.905074 0.155897 0.584213
C4 C 0.8342(3) 0.2523(2) 0.55966(17)
H6 H 0.801906 0.230847 0.528112
C5 C 0.8192(2) 0.3282(2) 0.57234(13)
H7 H 0.777575 0.358224 0.549490
C6 C 0.8672(2) 0.35889(17) 0.61980(12)
C7 C 0.8678(2) 0.43361(16) 0.64557(12)
C8 C 0.9292(2) 0.42992(17) 0.69259(12)
C9 C 0.8159(2) 0.50136(17) 0.62400(11)
C10 C 0.7188(2) 0.5184(2) 0.62039(14)
C11 C 0.7097(2) 0.5919(2) 0.59375(15)
C12 C 0.6307(3) 0.6398(3) 0.5796(2)
H8 H 0.567245 0.625347 0.587488
C13 C 0.6480(3) 0.7075(3) 0.5544(3)
H9 H 0.595024 0.738626 0.544045
C14 C 0.7424(3) 0.7328(2) 0.54304(19)
H10 H 0.751419 0.780102 0.525940
C15 C 0.8211(2) 0.68744(18) 0.55732(13)
C16 C 0.80391(19) 0.61718(17) 0.58241(12)
C17 C 0.9375(3) 0.7769(2) 0.52335(17)
H11 H 0.905086 0.778890 0.486581
H12 H 1.006866 0.781949 0.519628
H13 H 0.914409 0.817989 0.546216
C18 C 0.9468(3) 0.49105(18) 0.73690(13)
H14 H 0.926312 0.539016 0.718428
C19 C 0.8804(3) 0.4823(2) 0.78632(14)
C20 C 0.8379(4) 0.4144(3) 0.80104(18)
H15 H 0.851770 0.370263 0.780888
C21 C 0.7742(5) 0.4099(3) 0.8455(2)
H16 H 0.747671 0.362799 0.855005
C22 C 0.7506(5) 0.4735(4) 0.8749(2)
H17 H 0.706463 0.470893 0.903670
C23 C 0.7936(5) 0.5420(4) 0.8612(2)
H18 H 0.779466 0.585858 0.881632
C24 C 0.8579(4) 0.5464(3) 0.8173(2)
H19 H 0.886059 0.593181 0.808639
C25 C 1.0553(3) 0.50173(18) 0.75254(14)
C26 C 1.0978(3) 0.4857(2) 0.80513(15)
H20 H 1.059784 0.467169 0.833800
C27 C 1.1980(4) 0.4973(2) 0.8152(2)
H21 H 1.226082 0.486006 0.850681
C28 C 1.2558(4) 0.5247(3) 0.7743(2)
H22 H 1.322518 0.532019 0.781716
C29 C 1.2144(3) 0.5414(3) 0.72217(19)
H23 H 1.252623 0.560530 0.693819
C30 C 1.1159(3) 0.5296(2) 0.71192(16)
H24 H 1.088741 0.540759 0.676155
C31 C 0.6369(3) 0.4710(3) 0.6407(2)
H25 H 0.656047 0.417650 0.644262
H26 H 0.579787 0.474672 0.615068
C32 C 0.5725(9) 0.4945(9) 0.6809(5)
H27 H 0.507923 0.473853 0.671635
H28 H 0.567905 0.549915 0.680638
O4 O 0.42236(14) 0.02301(11) 0.93702(9)
O5 O 0.1081(4) 0.2832(3) 0.7874(2)
H34 H 0.133569 0.245558 0.773486
N3 N 0.4703(2) 0.38616(15) 0.81653(11)
H35 H 0.507703 0.401269 0.790416
N4 N 0.37342(17) 0.17751(13) 0.90120(9)
H36 H 0.435200 0.170955 0.897653
C34 C 0.4437(2) 0.42945(18) 0.86190(13)
C35 C 0.4679(3) 0.5051(2) 0.87650(17)
H37 H 0.508235 0.534550 0.854458
C36 C 0.4295(3) 0.5337(3) 0.92481(19)
H38 H 0.443353 0.584024 0.935283
C37 C 0.3708(3) 0.4899(3) 0.95839(17)
H39 H 0.347095 0.511036 0.991214
C38 C 0.3468(3) 0.4157(2) 0.94398(14)
H40 H 0.306822 0.386854 0.966632
C39 C 0.3834(2) 0.38437(18) 0.89482(12)
C40 C 0.3743(2) 0.31147(18) 0.86742(12)
C41 C 0.4279(2) 0.31487(17) 0.81939(12)
C42 C 0.3223(2) 0.24395(18) 0.88751(11)
C43 C 0.2266(2) 0.2332(2) 0.89777(14)
C44 C 0.2172(2) 0.1570(2) 0.92027(15)
C45 C 0.1392(2) 0.1141(3) 0.9401(2)
H41 H 0.076591 0.134824 0.940685
C46 C 0.1570(3) 0.0414(3) 0.9586(2)
H42 H 0.105498 0.013253 0.972539
C47 C 0.2491(3) 0.0074(2) 0.95757(16)
H43 H 0.257828 -0.043116 0.969212
C48 C 0.3274(2) 0.04935(19) 0.93907(12)
C49 C 0.3105(2) 0.12386(18) 0.92123(12)
C50 C 0.4384(3) -0.05589(18) 0.94810(14)
H44 H 0.406405 -0.085862 0.918762
H45 H 0.412383 -0.068945 0.983891
H46 H 0.507446 -0.066304 0.949170
C51 C 0.4363(2) 0.25614(17) 0.77351(12)
H47 H 0.418654 0.207197 0.790603
C52 C 0.5420(3) 0.24703(17) 0.75682(13)
C53 C 0.6101(3) 0.2192(2) 0.79620(16)
H48 H 0.589465 0.206565 0.831968
C54 C 0.7068(3) 0.2094(3) 0.7851(2)
H49 H 0.750527 0.190098 0.812726
C55 C 0.7379(4) 0.2285(3) 0.7328(3)
H50 H 0.803404 0.222109 0.724698
C56 C 0.6743(4) 0.2564(3) 0.6930(2)
H51 H 0.696432 0.269477 0.657596
C57 C 0.5743(4) 0.2663(2) 0.70411(17)
H52 H 0.530753 0.285427 0.676327
C58 C 0.3630(3) 0.26774(19) 0.72351(14)
C59 C 0.3388(4) 0.2071(2) 0.6886(2)
H53 H 0.368960 0.160083 0.695319
C60 C 0.2722(5) 0.2138(3) 0.6446(2)
H54 H 0.257111 0.171382 0.622117
C61 C 0.2271(5) 0.2821(3) 0.6331(2)
H55 H 0.181167 0.286856 0.603135
C62 C 0.2513(5) 0.3428(3) 0.6666(2)
H56 H 0.222789 0.390174 0.658737
C63 C 0.3164(4) 0.3357(2) 0.71143(18)
H57 H 0.329642 0.378039 0.734406
C64 C 0.1432(3) 0.2882(3) 0.8854(2)
H58 H 0.106152 0.293715 0.919236
H59 H 0.170252 0.338028 0.876791
C65 C 0.0760(4) 0.2651(4) 0.8384(3)
H60 H 0.066087 0.210144 0.840183
H61 H 0.013066 0.289517 0.843040
O3? O 0.5204(5) 0.4711(5) 0.7186(4)
H29? H 0.475652 0.502353 0.716063
H30? H 0.596962 0.457322 0.607342
H31? H 0.666167 0.423767 0.654878
C33? C 0.6140(8) 0.5090(9) 0.7047(6)
H32? H 0.665807 0.496832 0.732513
H33? H 0.606377 0.564169 0.702420
loop_
_geom_bond_atom_site_label_1
_geom_bond_atom_site_label_2
_geom_bond_site_symmetry_1
_geom_bond_site_symmetry_2
O1 C15 1_555 1_555
O2 H1 1_555 1_555
N1 H2 1_555 1_555
N2 H3 1_555 1_555
C1 N1 1_555 1_555
C2 C1 1_555 1_555
H4 C2 1_555 1_555
C3 C2 1_555 1_555
H5 C3 1_555 1_555
C4 C3 1_555 1_555
H6 C4 1_555 1_555
C5 C4 1_555 1_555
H7 C5 1_555 1_555
C6 C1 1_555 1_555
C7 C6 1_555 1_555
C8 N1 1_555 1_555
C9 N2 1_555 1_555
C10 C9 1_555 1_555
C11 C10 1_555 1_555
C12 C11 1_555 1_555
H8 C12 1_555 1_555
C13 C12 1_555 1_555
H9 C13 1_555 1_555
C14 C13 1_555 1_555
H10 C14 1_555 1_555
C15 C14 1_555 1_555
C16 N2 1_555 1_555
C17 O1 1_555 1_555
H11 C17 1_555 1_555
H12 C17 1_555 1_555
H13 C17 1_555 1_555
C18 C8 1_555 1_555
H14 C18 1_555 1_555
C19 C18 1_555 1_555
C20 C19 1_555 1_555
H15 C20 1_555 1_555
C21 C20 1_555 1_555
H16 C21 1_555 1_555
C22 C21 1_555 1_555
H17 C22 1_555 1_555
C23 C22 1_555 1_555
H18 C23 1_555 1_555
C24 C19 1_555 1_555
H19 C24 1_555 1_555
C25 C18 1_555 1_555
C26 C25 1_555 1_555
H20 C26 1_555 1_555
C27 C26 1_555 1_555
H21 C27 1_555 1_555
C28 C27 1_555 1_555
H22 C28 1_555 1_555
C29 C28 1_555 1_555
H23 C29 1_555 1_555
C30 C25 1_555 1_555
H24 C30 1_555 1_555
C31 C10 1_555 1_555
H25 C31 1_555 1_555
H26 C31 1_555 1_555
C32 O2 1_555 1_555
H27 C32 1_555 1_555
H28 C32 1_555 1_555
O4 C48 1_555 1_555
O5 H34 1_555 1_555
N3 H35 1_555 1_555
N4 H36 1_555 1_555
C34 N3 1_555 1_555
C35 C34 1_555 1_555
H37 C35 1_555 1_555
C36 C35 1_555 1_555
H38 C36 1_555 1_555
C37 C36 1_555 1_555
H39 C37 1_555 1_555
C38 C37 1_555 1_555
H40 C38 1_555 1_555
C39 C34 1_555 1_555
C40 C39 1_555 1_555
C41 N3 1_555 1_555
C42 N4 1_555 1_555
C43 C42 1_555 1_555
C44 C43 1_555 1_555
C45 C44 1_555 1_555
H41 C45 1_555 1_555
C46 C45 1_555 1_555
H42 C46 1_555 1_555
C47 C46 1_555 1_555
H43 C47 1_555 1_555
C48 C47 1_555 1_555
C49 N4 1_555 1_555
C50 O4 1_555 1_555
H44 C50 1_555 1_555
H45 C50 1_555 1_555
H46 C50 1_555 1_555
C51 C41 1_555 1_555
H47 C51 1_555 1_555
C52 C51 1_555 1_555
C53 C52 1_555 1_555
H48 C53 1_555 1_555
C54 C53 1_555 1_555
H49 C54 1_555 1_555
C55 C54 1_555 1_555
H50 C55 1_555 1_555
C56 C55 1_555 1_555
H51 C56 1_555 1_555
C57 C52 1_555 1_555
H52 C57 1_555 1_555
C58 C51 1_555 1_555
C59 C58 1_555 1_555
H53 C59 1_555 1_555
C60 C59 1_555 1_555
H54 C60 1_555 1_555
C61 C60 1_555 1_555
H55 C61 1_555 1_555
C62 C61 1_555 1_555
H56 C62 1_555 1_555
C63 C58 1_555 1_555
H57 C63 1_555 1_555
C64 C43 1_555 1_555
H58 C64 1_555 1_555
H59 C64 1_555 1_555
C65 O5 1_555 1_555
H60 C65 1_555 1_555
H61 C65 1_555 1_555
C5 C6 1_555 1_555
C7 C8 1_555 1_555
C7 C9 1_555 1_555
C11 C16 1_555 1_555
C15 C16 1_555 1_555
C23 C24 1_555 1_555
C29 C30 1_555 1_555
C31 C32 1_555 1_555
C38 C39 1_555 1_555
C40 C41 1_555 1_555
C40 C42 1_555 1_555
C44 C49 1_555 1_555
C48 C49 1_555 1_555
C56 C57 1_555 1_555
C62 C63 1_555 1_555
C64 C65 1_555 1_555

#END
