
#######################################################################
#
#                 Cambridge Crystallographic Data Centre
#                                CCDC 
#
#######################################################################
#
# If this CIF has been generated from an entry in the Cambridge 
# Structural Database, then it will include bibliographic, chemical, 
# crystal, experimental, refinement or atomic coordinate data resulting 
# from the CCDC's data processing and validation procedures.
#
#######################################################################

data_DEXQOO
_chemical_formula_moiety         
'2(C16 H36 N1 1+),C38 H30 N10 O8,2(C7 H5 O2 1-)'
_chemical_name_systematic        
"bis(Tetra-n-butylammonium) 3,3'-naphthalene-1,5-diylbis(1-(2-(((4-nitrophenyl)carbamoyl)amino)phenyl)urea) dibenzoate"
_symmetry_cell_setting           monoclinic
_symmetry_space_group_name_H-M   'P 21/c'
_symmetry_Int_Tables_number      14
_space_group_name_Hall           '-P 2ybc'
loop_
_symmetry_equiv_pos_site_id
_symmetry_equiv_pos_as_xyz
1 x,y,z
2 -x,1/2+y,1/2-z
3 -x,-y,-z
4 x,1/2-y,1/2+z
_cell_length_a                   8.627(3)
_cell_length_b                   35.844(11)
_cell_length_c                   13.660(4)
_cell_angle_alpha                90
_cell_angle_beta                 102.017(4)
_cell_angle_gamma                90
_cell_volume                     4131.46
_exptl_crystal_colour            'light yellow'
_exptl_crystal_description       plate
_cell_formula_units_Z            2
loop_
_atom_site_label
_atom_site_type_symbol
_atom_site_fract_x
_atom_site_fract_y
_atom_site_fract_z
O1 O -0.0805(5) 0.35672(11) 0.2695(3)
O2 O 0.0029(6) 0.35861(10) 0.1313(3)
O3 O 0.2856(3) 0.19186(8) 0.4600(2)
O4 O 0.2688(3) 0.01512(7) 0.3336(2)
N1 N -0.0062(6) 0.34357(11) 0.2104(3)
N2 N 0.2964(4) 0.20514(9) 0.2965(2)
H1 H 0.3342 0.1964 0.2460
N3 N 0.3735(4) 0.14842(8) 0.3605(2)
H2 H 0.3713 0.1429 0.2974
N4 N 0.3542(3) 0.07370(8) 0.3050(2)
H3 H 0.3533 0.0907 0.2583
N5 N 0.2219(4) 0.03883(8) 0.1745(2)
H4 H 0.2326 0.0589 0.1396
C1 C 0.0762(5) 0.30783(11) 0.2352(3)
C2 C 0.1565(5) 0.29198(12) 0.1677(3)
H5 H 0.1599 0.3041 0.1063
C3 C 0.2310(5) 0.25843(11) 0.1916(3)
H6 H 0.2876 0.2473 0.1465
C4 C 0.2246(5) 0.24028(11) 0.2823(3)
C5 C 0.1465(5) 0.25746(11) 0.3487(3)
H7 H 0.1446 0.2460 0.4111
C6 C 0.0712(5) 0.29130(12) 0.3247(3)
H8 H 0.0165 0.3030 0.3701
C7 C 0.3153(4) 0.18264(11) 0.3798(3)
C8 C 0.4368(4) 0.12100(10) 0.4328(3)
C9 C 0.5127(5) 0.13032(12) 0.5295(3)
H9 H 0.5158 0.1557 0.5501
C10 C 0.5838(5) 0.10338(12) 0.5964(3)
H10 H 0.6353 0.1102 0.6624
C11 C 0.5798(5) 0.06632(12) 0.5670(3)
H11 H 0.6295 0.0477 0.6124
C12 C 0.5033(4) 0.05660(11) 0.4714(3)
H12 H 0.5009 0.0312 0.4517
C13 C 0.4296(4) 0.08323(11) 0.4034(3)
C14 C 0.2821(4) 0.04027(10) 0.2756(3)
C15 C 0.1437(4) 0.00787(10) 0.1210(3)
C16 C 0.0391(4) 0.01547(10) 0.0286(3)
C17 C 0.0066(5) 0.05201(11) -0.0102(3)
H13 H 0.0580 0.0727 0.0261
C18 C -0.0962(5) 0.05776(11) -0.0979(3)
H14 H -0.1164 0.0826 -0.1217
C19 C 0.1736(5) -0.02819(11) 0.1548(3)
H15 H 0.2461 -0.0329 0.2161
O1B O 0.0805(5) -0.35672(11) -0.2695(3)
O2B O -0.0029(6) -0.35861(10) -0.1313(3)
O3B O -0.2856(3) -0.19186(8) -0.4600(2)
O4B O -0.2688(3) -0.01512(7) -0.3336(2)
N1B N 0.0062(6) -0.34357(11) -0.2104(3)
N2B N -0.2964(4) -0.20514(9) -0.2965(2)
H1B H -0.3342 -0.1964 -0.2460
N3B N -0.3735(4) -0.14842(8) -0.3605(2)
H2B H -0.3713 -0.1429 -0.2974
N4B N -0.3542(3) -0.07370(8) -0.3050(2)
H3B H -0.3533 -0.0907 -0.2583
N5B N -0.2219(4) -0.03883(8) -0.1745(2)
H4B H -0.2326 -0.0589 -0.1396
C1B C -0.0762(5) -0.30783(11) -0.2352(3)
C2B C -0.1565(5) -0.29198(12) -0.1677(3)
H5B H -0.1599 -0.3041 -0.1063
C3B C -0.2310(5) -0.25843(11) -0.1916(3)
H6B H -0.2876 -0.2473 -0.1465
C4B C -0.2246(5) -0.24028(11) -0.2823(3)
C5B C -0.1465(5) -0.25746(11) -0.3487(3)
H7B H -0.1446 -0.2460 -0.4111
C6B C -0.0712(5) -0.29130(12) -0.3247(3)
H8B H -0.0165 -0.3030 -0.3701
C7B C -0.3153(4) -0.18264(11) -0.3798(3)
C8B C -0.4368(4) -0.12100(10) -0.4328(3)
C9B C -0.5127(5) -0.13032(12) -0.5295(3)
H9B H -0.5158 -0.1557 -0.5501
C10B C -0.5838(5) -0.10338(12) -0.5964(3)
H10B H -0.6353 -0.1102 -0.6624
C11B C -0.5798(5) -0.06632(12) -0.5670(3)
H11B H -0.6295 -0.0477 -0.6124
C12B C -0.5033(4) -0.05660(11) -0.4714(3)
H12B H -0.5009 -0.0312 -0.4517
C13B C -0.4296(4) -0.08323(11) -0.4034(3)
C14B C -0.2821(4) -0.04027(10) -0.2756(3)
C15B C -0.1437(4) -0.00787(10) -0.1210(3)
C16B C -0.0391(4) -0.01547(10) -0.0286(3)
C17B C -0.0066(5) -0.05201(11) 0.0102(3)
H13B H -0.0580 -0.0727 -0.0261
C18B C 0.0962(5) -0.05776(11) 0.0979(3)
H14B H 0.1164 -0.0826 0.1217
C19B C -0.1736(5) 0.02819(11) -0.1548(3)
H15B H -0.2461 0.0329 -0.2161
O5 O 0.4384(3) 0.16418(8) 1.1635(2)
O6 O 0.2957(4) 0.11301(8) 1.1240(2)
C20 C 0.3731(5) 0.14018(11) 1.1012(3)
C21 C 0.3917(5) 0.14398(11) 0.9944(3)
C22 C 0.3397(6) 0.11651(13) 0.9254(3)
H16 H 0.2884 0.0951 0.9446
C23 C 0.3611(7) 0.11964(16) 0.8282(4)
H17 H 0.3245 0.1005 0.7811
C24 C 0.4344(7) 0.15018(18) 0.8002(4)
H18 H 0.4498 0.1521 0.7336
C25 C 0.4863(6) 0.17826(17) 0.8667(4)
H19 H 0.5367 0.1996 0.8463
C26 C 0.4649(5) 0.17527(13) 0.9642(3)
H20 H 0.5004 0.1947 1.0107
N6 N 0.8605(4) 0.39321(9) 0.7900(2)
C27 C 0.9323(5) 0.38009(12) 0.7028(3)
H21 H 0.9924 0.4011 0.6818
H22 H 1.0090 0.3599 0.7272
C28 C 0.8163(5) 0.36599(13) 0.6121(3)
H23 H 0.7583 0.3874 0.5759
H24 H 0.7381 0.3494 0.6339
C29 C 0.9008(5) 0.34453(12) 0.5415(4)
H25 H 0.8286 0.3422 0.4753
H26 H 0.9948 0.3589 0.5325
C30 C 0.9525(8) 0.30626(17) 0.5800(5)
H27 H 1.0172 0.3082 0.6478
H28 H 1.0151 0.2947 0.5360
H29 H 0.8590 0.2909 0.5812
C31 C 0.7865(5) 0.36093(12) 0.8351(3)
H30 H 0.7345 0.3709 0.8878
H31 H 0.7026 0.3500 0.7824
C32 C 0.8980(6) 0.33013(13) 0.8802(4)
H32 H 0.9821 0.3405 0.9338
H33 H 0.9494 0.3194 0.8281
C33 C 0.8100(8) 0.29942(18) 0.9234(6)
H34 H 0.8874 0.2838 0.9694
H35 H 0.7379 0.3109 0.9626
C34 C 0.7184(11) 0.2759(3) 0.8451(7)
H36 H 0.6400 0.2912 0.8003
H37 H 0.6640 0.2565 0.8756
H38 H 0.7897 0.2643 0.8068
C35 C 0.9936(5) 0.41077(12) 0.8667(3)
H39 H 1.0773 0.3918 0.8872
H40 H 1.0401 0.4313 0.8336
C36 C 0.9485(5) 0.42626(12) 0.9603(3)
H41 H 0.8968 0.4066 0.9930
H42 H 0.8726 0.4471 0.9422
C37 C 1.0969(5) 0.44012(14) 1.0322(3)
H43 H 1.1712 0.4190 1.0507
H44 H 1.1500 0.4591 0.9979
C38 C 1.0605(6) 0.45693(15) 1.1261(4)
H45 H 0.9891 0.4783 1.1084
H46 H 1.1592 0.4653 1.1699
H47 H 1.0096 0.4382 1.1610
C39 C 0.7293(4) 0.42108(11) 0.7540(3)
H48 H 0.6872 0.4292 0.8127
H49 H 0.6425 0.4080 0.7081
C40 C 0.7709(5) 0.45558(12) 0.7011(3)
H50 H 0.8073 0.4483 0.6397
H51 H 0.8581 0.4692 0.7453
C41 C 0.6257(6) 0.48097(13) 0.6734(4)
H52 H 0.5360 0.4662 0.6355
H53 H 0.5957 0.4897 0.7358
C42 C 0.6504(6) 0.51431(14) 0.6123(4)
H54 H 0.7453 0.5278 0.6461
H55 H 0.5581 0.5308 0.6046
H56 H 0.6641 0.5061 0.5462
loop_
_geom_bond_atom_site_label_1
_geom_bond_atom_site_label_2
_geom_bond_site_symmetry_1
_geom_bond_site_symmetry_2
O1 N1 1_555 1_555
O2 N1 1_555 1_555
O3 C7 1_555 1_555
O4 C14 1_555 1_555
N1 C1 1_555 1_555
N2 H1 1_555 1_555
N3 H2 1_555 1_555
N4 H3 1_555 1_555
N5 H4 1_555 1_555
C1 C2 1_555 1_555
C2 H5 1_555 1_555
C3 C2 1_555 1_555
H6 C3 1_555 1_555
C4 N2 1_555 1_555
C5 C4 1_555 1_555
H7 C5 1_555 1_555
C6 C1 1_555 1_555
H8 C6 1_555 1_555
C7 N2 1_555 1_555
C8 N3 1_555 1_555
C9 C8 1_555 1_555
H9 C9 1_555 1_555
C10 C9 1_555 1_555
H10 C10 1_555 1_555
C11 C10 1_555 1_555
H11 C11 1_555 1_555
C12 C11 1_555 1_555
H12 C12 1_555 1_555
C13 N4 1_555 1_555
C14 N4 1_555 1_555
C15 N5 1_555 1_555
C16 C15 1_555 1_555
C17 C16 1_555 1_555
H13 C17 1_555 1_555
C18 C17 1_555 1_555
H14 C18 1_555 1_555
C19 C15 1_555 1_555
H15 C19 1_555 1_555
O5 C20 1_555 1_555
O6 C20 1_555 1_555
C20 C21 1_555 1_555
C21 C22 1_555 1_555
C22 H16 1_555 1_555
C23 C22 1_555 1_555
H17 C23 1_555 1_555
C24 C23 1_555 1_555
H18 C24 1_555 1_555
C25 C24 1_555 1_555
H19 C25 1_555 1_555
C26 C21 1_555 1_555
H20 C26 1_555 1_555
N6 C27 1_555 1_555
C27 H21 1_555 1_555
H22 C27 1_555 1_555
C28 C27 1_555 1_555
H23 C28 1_555 1_555
H24 C28 1_555 1_555
C29 C28 1_555 1_555
H25 C29 1_555 1_555
H26 C29 1_555 1_555
C30 C29 1_555 1_555
H27 C30 1_555 1_555
H28 C30 1_555 1_555
H29 C30 1_555 1_555
C31 N6 1_555 1_555
H30 C31 1_555 1_555
H31 C31 1_555 1_555
C32 C31 1_555 1_555
H32 C32 1_555 1_555
H33 C32 1_555 1_555
C33 C32 1_555 1_555
H34 C33 1_555 1_555
H35 C33 1_555 1_555
C34 C33 1_555 1_555
H36 C34 1_555 1_555
H37 C34 1_555 1_555
H38 C34 1_555 1_555
C35 N6 1_555 1_555
H39 C35 1_555 1_555
H40 C35 1_555 1_555
C36 C35 1_555 1_555
H41 C36 1_555 1_555
H42 C36 1_555 1_555
C37 C36 1_555 1_555
H43 C37 1_555 1_555
H44 C37 1_555 1_555
C38 C37 1_555 1_555
H45 C38 1_555 1_555
H46 C38 1_555 1_555
H47 C38 1_555 1_555
C39 N6 1_555 1_555
H48 C39 1_555 1_555
H49 C39 1_555 1_555
C40 C39 1_555 1_555
H50 C40 1_555 1_555
H51 C40 1_555 1_555
C41 C40 1_555 1_555
H52 C41 1_555 1_555
H53 C41 1_555 1_555
C42 C41 1_555 1_555
H54 C42 1_555 1_555
H55 C42 1_555 1_555
H56 C42 1_555 1_555
O1B N1B 1_555 1_555
O2B N1B 1_555 1_555
O3B C7B 1_555 1_555
O4B C14B 1_555 1_555
N1B C1B 1_555 1_555
N2B H1B 1_555 1_555
N3B H2B 1_555 1_555
N4B H3B 1_555 1_555
N5B H4B 1_555 1_555
C1B C2B 1_555 1_555
C2B H5B 1_555 1_555
C3B C2B 1_555 1_555
H6B C3B 1_555 1_555
C4B N2B 1_555 1_555
C5B C4B 1_555 1_555
H7B C5B 1_555 1_555
C6B C1B 1_555 1_555
H8B C6B 1_555 1_555
C7B N2B 1_555 1_555
C8B N3B 1_555 1_555
C9B C8B 1_555 1_555
H9B C9B 1_555 1_555
C10B C9B 1_555 1_555
H10B C10B 1_555 1_555
C11B C10B 1_555 1_555
H11B C11B 1_555 1_555
C12B C11B 1_555 1_555
H12B C12B 1_555 1_555
C13B N4B 1_555 1_555
C14B N4B 1_555 1_555
C15B N5B 1_555 1_555
C16B C16 1_555 1_555
C17B C16B 1_555 1_555
H13B C17B 1_555 1_555
C18B C19 1_555 1_555
H14B C18B 1_555 1_555
C19B C18 1_555 1_555
H15B C19B 1_555 1_555
N3 C7 1_555 1_555
N5 C14 1_555 1_555
C3 C4 1_555 1_555
C5 C6 1_555 1_555
C8 C13 1_555 1_555
C12 C13 1_555 1_555
C25 C26 1_555 1_555
N3B C7B 1_555 1_555
N5B C14B 1_555 1_555
C3B C4B 1_555 1_555
C5B C6B 1_555 1_555
C8B C13B 1_555 1_555
C12B C13B 1_555 1_555
C15B C16B 1_555 1_555
C15B C19B 1_555 1_555
C17B C18B 1_555 1_555

#END
