
#######################################################################
#
#                 Cambridge Crystallographic Data Centre
#                                CCDC 
#
#######################################################################
#
# If this CIF has been generated from an entry in the Cambridge 
# Structural Database, then it will include bibliographic, chemical, 
# crystal, experimental, refinement or atomic coordinate data resulting 
# from the CCDC's data processing and validation procedures.
#
#######################################################################

data_DEXQAA
_chemical_formula_moiety         '2(C16 H36 N1 1+),C38 H30 N10 O8,2(Br1 1-)'
_chemical_name_systematic        
"bis(Tetra-n-butylammonium) 3,3'-naphthalene-1,5-diylbis(1-(2-(((4-nitrophenyl)carbamoyl)amino)phenyl)urea) dibromide"
_symmetry_cell_setting           triclinic
_symmetry_space_group_name_H-M   'P -1'
_symmetry_Int_Tables_number      2
_space_group_name_Hall           '-P 1'
loop_
_symmetry_equiv_pos_site_id
_symmetry_equiv_pos_as_xyz
1 x,y,z
2 -x,-y,-z
_cell_length_a                   8.9484(19)
_cell_length_b                   9.473(2)
_cell_length_c                   21.594(5)
_cell_angle_alpha                83.826(3)
_cell_angle_beta                 84.847(2)
_cell_angle_gamma                80.815(3)
_cell_volume                     1791.6
_exptl_crystal_colour            'light yellow'
_exptl_crystal_description       plate
_cell_formula_units_Z            1
loop_
_atom_site_label
_atom_site_type_symbol
_atom_site_fract_x
_atom_site_fract_y
_atom_site_fract_z
O1 O 0.8590(5) 1.2530(5) -0.08385(17)
O2 O 0.6720(5) 1.4152(5) -0.05746(18)
O3 O 0.6588(3) 0.6763(3) 0.11468(12)
O4 O 0.6155(3) 0.5559(3) 0.40536(11)
N1 N 0.7412(5) 1.2915(5) -0.05255(17)
N2 N 0.5055(3) 0.8927(3) 0.12697(13)
H1 H 0.4232 0.9305 0.1484
N3 N 0.4694(3) 0.6967(3) 0.19321(13)
H2 H 0.3951 0.7577 0.2092
N4 N 0.4865(3) 0.6569(3) 0.32062(12)
H3 H 0.4426 0.7390 0.3027
N5 N 0.5069(3) 0.7924(3) 0.39954(13)
H4 H 0.4529 0.8585 0.3755
C1 C 0.6826(5) 1.1861(5) -0.00526(17)
C2 C 0.7588(5) 1.0492(5) 0.00166(17)
H5 H 0.8475 1.0242 -0.0232
C3 C 0.7055(4) 0.9470(5) 0.04518(16)
H6 H 0.7580 0.8541 0.0503
C4 C 0.5711(4) 0.9873(4) 0.08103(14)
C5 C 0.4953(5) 1.1274(4) 0.07384(17)
H7 H 0.4067 1.1538 0.0985
C6 C 0.5512(5) 1.2285(5) 0.02999(17)
H8 H 0.5008 1.3223 0.0248
C7 C 0.5550(4) 0.7480(4) 0.14208(15)
C8 C 0.4907(4) 0.5556(4) 0.22253(15)
C9 C 0.5014(4) 0.4372(4) 0.18884(17)
H9 H 0.5027 0.4503 0.1455
C10 C 0.5100(4) 0.3002(4) 0.21888(18)
H10 H 0.5184 0.2217 0.1957
C11 C 0.5061(4) 0.2793(4) 0.28339(18)
H11 H 0.5089 0.1872 0.3035
C12 C 0.4981(4) 0.3964(4) 0.31814(16)
H12 H 0.4959 0.3823 0.3615
C13 C 0.4934(4) 0.5342(4) 0.28805(15)
C14 C 0.5421(4) 0.6591(4) 0.37816(15)
C15 C 0.5466(4) 0.8362(4) 0.45536(14)
C16 C 0.6478(4) 0.7487(4) 0.49339(16)
H13 H 0.6881 0.6564 0.4836
C17 C 0.6884(5) 0.8011(4) 0.54670(17)
H14 H 0.7597 0.7436 0.5709
C18 C 0.6279(4) 0.9326(4) 0.56453(15)
H15 H 0.6564 0.9627 0.6007
C19 C 0.4787(3) 0.9760(4) 0.47200(14)
O1A O 0.1410(5) 0.7470(5) 1.08385(17)
O2A O 0.3280(5) 0.5848(5) 1.05746(18)
O3A O 0.3412(3) 1.3237(3) 0.88532(12)
O4A O 0.3845(3) 1.4441(3) 0.59464(11)
N1A N 0.2588(5) 0.7085(5) 1.05255(17)
N2A N 0.4945(3) 1.1073(3) 0.87303(13)
H1A H 0.5768 1.0695 0.8516
N3A N 0.5306(3) 1.3033(3) 0.80679(13)
H2A H 0.6049 1.2423 0.7908
N4A N 0.5135(3) 1.3431(3) 0.67938(12)
H3A H 0.5574 1.2610 0.6973
N5A N 0.4931(3) 1.2076(3) 0.60046(13)
H4A H 0.5471 1.1415 0.6245
C1A C 0.3174(5) 0.8139(5) 1.00526(17)
C2A C 0.2412(5) 0.9508(5) 0.99834(17)
H5A H 0.1525 0.9758 1.0232
C3A C 0.2945(4) 1.0530(5) 0.95482(16)
H6A H 0.2420 1.1459 0.9497
C4A C 0.4289(4) 1.0127(4) 0.91897(14)
C5A C 0.5047(5) 0.8726(4) 0.92616(17)
H7A H 0.5933 0.8462 0.9015
C6A C 0.4488(5) 0.7715(5) 0.97001(17)
H8A H 0.4992 0.6777 0.9752
C7A C 0.4450(4) 1.2520(4) 0.85792(15)
C8A C 0.5093(4) 1.4444(4) 0.77747(15)
C9A C 0.4986(4) 1.5628(4) 0.81116(17)
H9A H 0.4973 1.5497 0.8545
C10A C 0.4900(4) 1.6998(4) 0.78112(18)
H10A H 0.4816 1.7783 0.8043
C11A C 0.4939(4) 1.7207(4) 0.71661(18)
H11A H 0.4911 1.8128 0.6965
C12A C 0.5019(4) 1.6036(4) 0.68186(16)
H12A H 0.5041 1.6177 0.6385
C13A C 0.5066(4) 1.4658(4) 0.71195(15)
C14A C 0.4579(4) 1.3409(4) 0.62184(15)
C15A C 0.4534(4) 1.1638(4) 0.54464(14)
C16A C 0.3522(4) 1.2513(4) 0.50661(16)
H13A H 0.3119 1.3436 0.5164
C17A C 0.3116(5) 1.1989(4) 0.45330(17)
H14A H 0.2403 1.2564 0.4291
C18A C 0.3721(4) 1.0674(4) 0.43547(15)
H15A H 0.3436 1.0373 0.3993
C19A C 0.5213(3) 1.0240(4) 0.52800(14)
N6 N 0.9827(3) 0.5097(3) 0.27496(12)
C20 C 1.0706(4) 0.4529(4) 0.21690(16)
H16 H 1.1374 0.5208 0.1996
H17 H 1.1340 0.3633 0.2294
C21 C 0.9755(4) 0.4270(4) 0.16591(16)
H18 H 0.9251 0.5182 0.1476
H19 H 0.8982 0.3702 0.1836
C22 C 1.0751(5) 0.3483(5) 0.11552(18)
H20 H 1.1209 0.2550 0.1336
H21 H 1.1562 0.4024 0.0998
C23 C 0.9840(7) 0.3287(6) 0.0616(2)
H22 H 0.9294 0.4198 0.0467
H23 H 0.9136 0.2634 0.0757
H24 H 1.0518 0.2904 0.0283
C24 C 0.8726(4) 0.6451(4) 0.25812(15)
H25 H 0.8023 0.6224 0.2304
H26 H 0.8142 0.6740 0.2959
C25 C 0.9451(4) 0.7714(4) 0.22712(18)
H27 H 0.9901 0.7499 0.1860
H28 H 1.0252 0.7878 0.2517
C26 C 0.8274(5) 0.9060(4) 0.2212(2)
H29 H 0.7444 0.8865 0.1990
H30 H 0.7866 0.9293 0.2626
C27 C 0.8905(5) 1.0337(5) 0.1873(2)
H31 H 0.9293 1.0120 0.1460
H32 H 0.9708 1.0552 0.2096
H33 H 0.8114 1.1151 0.1848
C28 C 1.0981(4) 0.5386(4) 0.31749(15)
H34 H 1.1585 0.6063 0.2947
H35 H 1.1659 0.4496 0.3268
C29 C 1.0345(4) 0.5976(4) 0.37925(15)
H36 H 0.9651 0.6861 0.3711
H37 H 0.9786 0.5288 0.4040
C30 C 1.1622(5) 0.6258(5) 0.41498(18)
H38 H 1.2156 0.6961 0.3900
H39 H 1.2334 0.5376 0.4207
C31 C 1.1136(5) 0.6795(5) 0.47821(17)
H40 H 1.0692 0.6070 0.5048
H41 H 1.0402 0.7650 0.4734
H42 H 1.2003 0.7007 0.4965
C32 C 0.8858(3) 0.4009(4) 0.30806(15)
H43 H 0.8216 0.4466 0.3411
H44 H 0.8194 0.3795 0.2783
C33 C 0.9688(4) 0.2594(4) 0.33633(17)
H45 H 1.0295 0.2770 0.3689
H46 H 1.0362 0.2125 0.3044
C34 C 0.8534(4) 0.1622(4) 0.36373(18)
H47 H 0.7807 0.2134 0.3927
H48 H 0.7982 0.1395 0.3303
C35 C 0.9278(5) 0.0239(5) 0.3974(2)
H49 H 0.9734 0.0453 0.4332
H50 H 1.0045 -0.0241 0.3697
H51 H 0.8527 -0.0371 0.4106
Br1 Br 0.29284(4) 0.97294(4) 0.267242(15)
loop_
_geom_bond_atom_site_label_1
_geom_bond_atom_site_label_2
_geom_bond_site_symmetry_1
_geom_bond_site_symmetry_2
O1 N1 1_555 1_555
O2 N1 1_555 1_555
O3 C7 1_555 1_555
O4 C14 1_555 1_555
N1 C1 1_555 1_555
N2 H1 1_555 1_555
N3 H2 1_555 1_555
N4 H3 1_555 1_555
N5 H4 1_555 1_555
C1 C2 1_555 1_555
C2 H5 1_555 1_555
C3 C2 1_555 1_555
H6 C3 1_555 1_555
C4 N2 1_555 1_555
C5 C4 1_555 1_555
H7 C5 1_555 1_555
C6 C1 1_555 1_555
H8 C6 1_555 1_555
C7 N2 1_555 1_555
C8 N3 1_555 1_555
C9 C8 1_555 1_555
H9 C9 1_555 1_555
C10 C9 1_555 1_555
H10 C10 1_555 1_555
C11 C10 1_555 1_555
H11 C11 1_555 1_555
C12 C11 1_555 1_555
H12 C12 1_555 1_555
C13 N4 1_555 1_555
C14 N4 1_555 1_555
C15 N5 1_555 1_555
C16 C15 1_555 1_555
H13 C16 1_555 1_555
C17 C16 1_555 1_555
H14 C17 1_555 1_555
C18 C17 1_555 1_555
H15 C18 1_555 1_555
C19 C15 1_555 1_555
N6 C20 1_555 1_555
C20 H16 1_555 1_555
H17 C20 1_555 1_555
C21 C20 1_555 1_555
H18 C21 1_555 1_555
H19 C21 1_555 1_555
C22 C21 1_555 1_555
H20 C22 1_555 1_555
H21 C22 1_555 1_555
C23 C22 1_555 1_555
H22 C23 1_555 1_555
H23 C23 1_555 1_555
H24 C23 1_555 1_555
C24 N6 1_555 1_555
H25 C24 1_555 1_555
H26 C24 1_555 1_555
C25 C24 1_555 1_555
H27 C25 1_555 1_555
H28 C25 1_555 1_555
C26 C25 1_555 1_555
H29 C26 1_555 1_555
H30 C26 1_555 1_555
C27 C26 1_555 1_555
H31 C27 1_555 1_555
H32 C27 1_555 1_555
H33 C27 1_555 1_555
C28 N6 1_555 1_555
H34 C28 1_555 1_555
H35 C28 1_555 1_555
C29 C28 1_555 1_555
H36 C29 1_555 1_555
H37 C29 1_555 1_555
C30 C29 1_555 1_555
H38 C30 1_555 1_555
H39 C30 1_555 1_555
C31 C30 1_555 1_555
H40 C31 1_555 1_555
H41 C31 1_555 1_555
H42 C31 1_555 1_555
C32 N6 1_555 1_555
H43 C32 1_555 1_555
H44 C32 1_555 1_555
C33 C32 1_555 1_555
H45 C33 1_555 1_555
H46 C33 1_555 1_555
C34 C33 1_555 1_555
H47 C34 1_555 1_555
H48 C34 1_555 1_555
C35 C34 1_555 1_555
H49 C35 1_555 1_555
H50 C35 1_555 1_555
H51 C35 1_555 1_555
O1A N1A 1_555 1_555
O2A N1A 1_555 1_555
O3A C7A 1_555 1_555
O4A C14A 1_555 1_555
N1A C1A 1_555 1_555
N2A H1A 1_555 1_555
N3A H2A 1_555 1_555
N4A H3A 1_555 1_555
N5A H4A 1_555 1_555
C1A C2A 1_555 1_555
C2A H5A 1_555 1_555
C3A C2A 1_555 1_555
H6A C3A 1_555 1_555
C4A N2A 1_555 1_555
C5A C4A 1_555 1_555
H7A C5A 1_555 1_555
C6A C1A 1_555 1_555
H8A C6A 1_555 1_555
C7A N2A 1_555 1_555
C8A N3A 1_555 1_555
C9A C8A 1_555 1_555
H9A C9A 1_555 1_555
C10A C9A 1_555 1_555
H10A C10A 1_555 1_555
C11A C10A 1_555 1_555
H11A C11A 1_555 1_555
C12A C11A 1_555 1_555
H12A C12A 1_555 1_555
C13A N4A 1_555 1_555
C14A N4A 1_555 1_555
C15A N5A 1_555 1_555
C16A C15A 1_555 1_555
H13A C16A 1_555 1_555
C17A C16A 1_555 1_555
H14A C17A 1_555 1_555
C18A C19 1_555 1_555
H15A C18A 1_555 1_555
C19A C18 1_555 1_555
N3 C7 1_555 1_555
N5 C14 1_555 1_555
C3 C4 1_555 1_555
C5 C6 1_555 1_555
C8 C13 1_555 1_555
C12 C13 1_555 1_555
C19 C19A 1_555 1_555
N3A C7A 1_555 1_555
N5A C14A 1_555 1_555
C3A C4A 1_555 1_555
C5A C6A 1_555 1_555
C8A C13A 1_555 1_555
C12A C13A 1_555 1_555
C15A C19A 1_555 1_555
C17A C18A 1_555 1_555

#END
