
#######################################################################
#
#                 Cambridge Crystallographic Data Centre
#                                CCDC 
#
#######################################################################
#
# If this CIF has been generated from an entry in the Cambridge 
# Structural Database, then it will include bibliographic, chemical, 
# crystal, experimental, refinement or atomic coordinate data resulting 
# from the CCDC's data processing and validation procedures.
#
#######################################################################

data_DEXRAB01
_chemical_formula_moiety         'C38 H30 N10 O8,4(C16 H36 N1 1+),2(O4 S1 2-)'
_chemical_name_systematic        
"tetrakis(tetrabutylammonium) 3,3'-naphthalene-1,5-diylbis(1-(2-(((4-nitrophenyl)carbamoyl)amino)phenyl)urea) bis(sulfate)"
_symmetry_cell_setting           triclinic
_symmetry_space_group_name_H-M   'P -1'
_symmetry_Int_Tables_number      2
_space_group_name_Hall           '-P 1'
loop_
_symmetry_equiv_pos_site_id
_symmetry_equiv_pos_as_xyz
1 x,y,z
2 -x,-y,-z
_cell_length_a                   9.538(12)
_cell_length_b                   13.957(17)
_cell_length_c                   22.00(3)
_cell_angle_alpha                94.690(15)
_cell_angle_beta                 100.617(17)
_cell_angle_gamma                99.018(16)
_cell_volume                     2824.44
_exptl_crystal_colour            orange
_exptl_crystal_description       needle
_cell_formula_units_Z            1
loop_
_atom_site_label
_atom_site_type_symbol
_atom_site_fract_x
_atom_site_fract_y
_atom_site_fract_z
S1 S 0.54319(12) 0.87063(7) 0.22414(5)
O1 O 0.5792(3) 0.78856(18) 0.18296(12)
O2 O 0.4104(3) 0.9024(2) 0.18989(14)
O3 O 0.5130(4) 0.8290(2) 0.28261(13)
O4 O 0.6688(3) 0.95186(19) 0.23940(15)
O5 O 1.0849(5) 0.6328(3) 0.54827(18)
O6 O 1.0973(5) 0.7902(3) 0.5491(2)
O7 O 0.5363(3) 0.48901(19) 0.27751(14)
O8 O 0.2402(3) 0.6710(2) -0.00813(13)
N1 N 1.0552(9) 0.7069(5) 0.5217(4)
N2 N 0.6119(4) 0.6572(2) 0.30334(15)
H1 H 0.5954 0.7137 0.2913
N3 N 0.4482(4) 0.5995(2) 0.21252(15)
H2 H 0.4676 0.6611 0.2061
N4 N 0.3455(4) 0.6673(2) 0.09691(15)
H3 H 0.4106 0.7019 0.1276
N5 N 0.3804(4) 0.8105(2) 0.05221(16)
H4 H 0.4257 0.8331 0.0905
C1 C 0.9319(6) 0.6906(3) 0.4681(2)
C2 C 0.8777(5) 0.5960(3) 0.4377(2)
H5 H 0.9130 0.5415 0.4542
C3 C 0.7703(5) 0.5817(3) 0.3824(2)
H6 H 0.7350 0.5178 0.3615
C4 C 0.7153(5) 0.6618(3) 0.35818(19)
C5 C 0.7723(5) 0.7571(3) 0.3906(2)
H7 H 0.7359 0.8118 0.3751
C6 C 0.8797(6) 0.7716(3) 0.4445(2)
H8 H 0.9172 0.8355 0.4650
C7 C 0.5307(5) 0.5734(3) 0.26489(19)
C8 C 0.3331(4) 0.5380(3) 0.16648(19)
C9 C 0.2675(5) 0.4461(3) 0.1799(2)
H9 H 0.2993 0.4239 0.2190
C10 C 0.1546(5) 0.3871(3) 0.1352(2)
H10 H 0.1111 0.3254 0.1444
C11 C 0.1065(5) 0.4191(3) 0.0774(2)
H11 H 0.0313 0.3789 0.0475
C12 C 0.1694(5) 0.5101(3) 0.0641(2)
H12 H 0.1360 0.5316 0.0250
C13 C 0.2837(4) 0.5716(3) 0.10846(19)
C14 C 0.3143(5) 0.7122(3) 0.0423(2)
C15 C 0.3825(5) 0.8786(3) 0.0066(2)
C16 C 0.4999(5) 0.9631(3) 0.02136(18)
C17 C 0.6126(5) 0.9759(3) 0.07669(19)
H13 H 0.6149 0.9268 0.1042
C18 C 0.7173(5) 1.0599(3) 0.0896(2)
H14 H 0.7886 1.0683 0.1269
C19 C 0.7213(5) 1.1336(3) 0.0490(2)
H15 H 0.7935 1.1907 0.0593
O5A O -0.0849(5) 1.3672(3) -0.54827(18)
O6A O -0.0973(5) 1.2098(3) -0.5491(2)
O7A O 0.4637(3) 1.51099(19) -0.27751(14)
O8A O 0.7598(3) 1.3290(2) 0.00813(13)
N1A N -0.0552(9) 1.2931(5) -0.5217(4)
N2A N 0.3881(4) 1.3428(2) -0.30334(15)
H1A H 0.4046 1.2863 -0.2913
N3A N 0.5518(4) 1.4005(2) -0.21252(15)
H2A H 0.5324 1.3389 -0.2061
N4A N 0.6545(4) 1.3327(2) -0.09691(15)
H3A H 0.5894 1.2981 -0.1276
N5A N 0.6196(4) 1.1895(2) -0.05221(16)
H4A H 0.5743 1.1669 -0.0905
C1A C 0.0681(6) 1.3094(3) -0.4681(2)
C2A C 0.1223(5) 1.4040(3) -0.4377(2)
H5A H 0.0870 1.4585 -0.4542
C3A C 0.2297(5) 1.4183(3) -0.3824(2)
H6A H 0.2650 1.4822 -0.3615
C4A C 0.2847(5) 1.3382(3) -0.35818(19)
C5A C 0.2277(5) 1.2429(3) -0.3906(2)
H7A H 0.2641 1.1882 -0.3751
C6A C 0.1203(6) 1.2284(3) -0.4445(2)
H8A H 0.0828 1.1645 -0.4650
C7A C 0.4693(5) 1.4266(3) -0.26489(19)
C8A C 0.6669(4) 1.4620(3) -0.16648(19)
C9A C 0.7325(5) 1.5539(3) -0.1799(2)
H9A H 0.7007 1.5761 -0.2190
C10A C 0.8454(5) 1.6129(3) -0.1352(2)
H10A H 0.8889 1.6746 -0.1444
C11A C 0.8935(5) 1.5809(3) -0.0774(2)
H11A H 0.9687 1.6211 -0.0475
C12A C 0.8306(5) 1.4899(3) -0.0641(2)
H12A H 0.8640 1.4684 -0.0250
C13A C 0.7163(4) 1.4284(3) -0.10846(19)
C14A C 0.6857(5) 1.2878(3) -0.0423(2)
C15A C 0.6175(5) 1.1214(3) -0.0066(2)
C16A C 0.5001(5) 1.0369(3) -0.02136(18)
C17A C 0.3874(5) 1.0241(3) -0.07669(19)
H13A H 0.3851 1.0732 -0.1042
C18A C 0.2827(5) 0.9401(3) -0.0896(2)
H14A H 0.2114 0.9317 -0.1269
C19A C 0.2787(5) 0.8664(3) -0.0490(2)
H15A H 0.2065 0.8093 -0.0593
N7 N 0.0077(4) 0.7493(2) 0.20977(18)
C20 C 0.0520(5) 0.7789(3) 0.1489(2)
H16 H 0.0822 0.7224 0.1279
H17 H 0.1375 0.8320 0.1599
C21 C -0.0668(6) 0.8137(4) 0.1019(3)
H18 H -0.1448 0.7578 0.0837
H19 H -0.1098 0.8632 0.1237
C22 C 0.0010(6) 0.8584(3) 0.0497(3)
H20 H -0.0775 0.8661 0.0151
H21 H 0.0586 0.8128 0.0334
C23 C 0.1005(6) 0.9595(3) 0.0724(3)
H22 H 0.0449 1.0045 0.0897
H23 H 0.1366 0.9860 0.0372
H24 H 0.1825 0.9515 0.1045
C24 C -0.0358(5) 0.8356(3) 0.2463(2)
H25 H -0.0619 0.8141 0.2852
H26 H -0.1229 0.8537 0.2211
C25 C 0.0870(6) 0.9281(3) 0.2632(3)
H27 H 0.1700 0.9126 0.2926
H28 H 0.1211 0.9455 0.2250
C26 C 0.0347(7) 1.0157(4) 0.2926(3)
H29 H 0.1105 1.0744 0.2969
H30 H -0.0532 1.0278 0.2647
C27 C 0.0018(8) 1.0005(5) 0.3536(3)
H31 H -0.0943 0.9601 0.3485
H32 H 0.0028 1.0638 0.3768
H33 H 0.0746 0.9676 0.3767
C28 C 0.1389(5) 0.7152(3) 0.2480(2)
H34 H 0.1579 0.6571 0.2240
H35 H 0.2244 0.7673 0.2519
C29 C 0.1272(5) 0.6892(3) 0.3136(2)
H36 H 0.0405 0.6385 0.3111
H37 H 0.1158 0.7478 0.3396
C30 C 0.2647(6) 0.6508(3) 0.3446(2)
H38 H 0.2705 0.5894 0.3200
H39 H 0.3513 0.6991 0.3428
C31 C 0.2690(7) 0.6317(5) 0.4122(3)
H40 H 0.2599 0.6914 0.4368
H41 H 0.3611 0.6118 0.4291
H42 H 0.1886 0.5796 0.4142
C32 C -0.1280(5) 0.6676(3) 0.1951(2)
H43 H -0.2091 0.6932 0.1706
H44 H -0.1557 0.6518 0.2348
C33 C -0.1091(5) 0.5716(3) 0.1586(2)
H45 H -0.0411 0.5388 0.1856
H46 H -0.0671 0.5875 0.1219
C34 C -0.2575(6) 0.5013(3) 0.1366(2)
H47 H -0.2394 0.4356 0.1233
H48 H -0.3070 0.4956 0.1723
C35 C -0.3582(6) 0.5348(4) 0.0828(2)
H49 H -0.3809 0.5983 0.0963
H50 H -0.4480 0.4868 0.0706
H51 H -0.3100 0.5407 0.0473
N8 N 0.5680(4) 0.2060(2) 0.29034(16)
C36 C 0.7093(5) 0.2769(3) 0.2901(2)
H52 H 0.6853 0.3293 0.2644
H53 H 0.7500 0.3079 0.3332
C37 C 0.8254(6) 0.2305(4) 0.2659(3)
H54 H 0.8677 0.1907 0.2973
H55 H 0.7794 0.1861 0.2276
C38 C 0.9441(8) 0.3028(5) 0.2517(4)
H56 H 0.9099 0.3214 0.2097
H57 H 1.0267 0.2687 0.2489
C39 C 1.0021(8) 0.3961(5) 0.2950(4)
H58 H 0.9238 0.4334 0.2969
H59 H 1.0797 0.4352 0.2795
H60 H 1.0403 0.3802 0.3367
C40 C 0.6087(5) 0.1272(3) 0.3331(2)
H61 H 0.6668 0.0867 0.3125
H62 H 0.6715 0.1608 0.3723
C41 C 0.4830(6) 0.0590(3) 0.3495(2)
H63 H 0.4278 0.0158 0.3120
H64 H 0.4165 0.0975 0.3659
C42 C 0.5479(6) -0.0030(3) 0.3998(2)
H65 H 0.6185 -0.0377 0.3834
H66 H 0.6012 0.0415 0.4371
C43 C 0.4338(7) -0.0780(4) 0.4192(3)
H67 H 0.3683 -0.0440 0.4388
H68 H 0.4821 -0.1170 0.4489
H69 H 0.3782 -0.1210 0.3824
C44 C 0.4955(5) 0.1585(3) 0.2233(2)
H70 H 0.5499 0.1076 0.2112
H71 H 0.3959 0.1256 0.2236
C45 C 0.4877(6) 0.2295(3) 0.1736(2)
H72 H 0.5864 0.2519 0.1664
H73 H 0.4509 0.2874 0.1891
C46 C 0.3878(5) 0.1822(3) 0.1110(2)
H74 H 0.4185 0.1207 0.0973
H75 H 0.2868 0.1660 0.1169
C47 C 0.3947(6) 0.2526(4) 0.0601(2)
H76 H 0.3568 0.3111 0.0721
H77 H 0.3363 0.2198 0.0203
H78 H 0.4955 0.2713 0.0558
C48 C 0.4648(6) 0.2648(3) 0.3160(2)
H79 H 0.3696 0.2217 0.3110
H80 H 0.4507 0.3185 0.2901
C49 C 0.5113(7) 0.3093(4) 0.3844(3)
H81 H 0.6004 0.3589 0.3898
H82 H 0.5318 0.2577 0.4114
C50 C 0.3838(8) 0.3582(5) 0.4028(3)
H83 H 0.3646 0.4083 0.3745
H84 H 0.2954 0.3075 0.3950
C51 C 0.4060(18) 0.4045(10) 0.4673(5)
H85 H 0.3626 0.3582 0.4926
H86 H 0.3602 0.4626 0.4677
H87 H 0.5101 0.4234 0.4844
N6? N 1.021(2) 0.6966(13) 0.5350(8)
loop_
_geom_bond_atom_site_label_1
_geom_bond_atom_site_label_2
_geom_bond_site_symmetry_1
_geom_bond_site_symmetry_2
S1 O1 1_555 1_555
O2 S1 1_555 1_555
O3 S1 1_555 1_555
O4 S1 1_555 1_555
O5 N1 1_555 1_555
O6 N1 1_555 1_555
O7 C7 1_555 1_555
O8 C14 1_555 1_555
N1 C1 1_555 1_555
N2 H1 1_555 1_555
N3 H2 1_555 1_555
N4 H3 1_555 1_555
N5 H4 1_555 1_555
C1 C2 1_555 1_555
C2 H5 1_555 1_555
C3 C2 1_555 1_555
H6 C3 1_555 1_555
C4 N2 1_555 1_555
C5 C4 1_555 1_555
H7 C5 1_555 1_555
C6 C1 1_555 1_555
H8 C6 1_555 1_555
C7 N2 1_555 1_555
C8 N3 1_555 1_555
C9 C8 1_555 1_555
H9 C9 1_555 1_555
C10 C9 1_555 1_555
H10 C10 1_555 1_555
C11 C10 1_555 1_555
H11 C11 1_555 1_555
C12 C11 1_555 1_555
H12 C12 1_555 1_555
C13 N4 1_555 1_555
C14 N4 1_555 1_555
C15 N5 1_555 1_555
C16 C15 1_555 1_555
C17 C16 1_555 1_555
H13 C17 1_555 1_555
C18 C17 1_555 1_555
H14 C18 1_555 1_555
C19 C18 1_555 1_555
H15 C19 1_555 1_555
N7 C20 1_555 1_555
C20 H16 1_555 1_555
H17 C20 1_555 1_555
C21 C20 1_555 1_555
H18 C21 1_555 1_555
H19 C21 1_555 1_555
C22 C21 1_555 1_555
H20 C22 1_555 1_555
H21 C22 1_555 1_555
C23 C22 1_555 1_555
H22 C23 1_555 1_555
H23 C23 1_555 1_555
H24 C23 1_555 1_555
C24 N7 1_555 1_555
H25 C24 1_555 1_555
H26 C24 1_555 1_555
C25 C24 1_555 1_555
H27 C25 1_555 1_555
H28 C25 1_555 1_555
C26 C25 1_555 1_555
H29 C26 1_555 1_555
H30 C26 1_555 1_555
C27 C26 1_555 1_555
H31 C27 1_555 1_555
H32 C27 1_555 1_555
H33 C27 1_555 1_555
C28 N7 1_555 1_555
H34 C28 1_555 1_555
H35 C28 1_555 1_555
C29 C28 1_555 1_555
H36 C29 1_555 1_555
H37 C29 1_555 1_555
C30 C29 1_555 1_555
H38 C30 1_555 1_555
H39 C30 1_555 1_555
C31 C30 1_555 1_555
H40 C31 1_555 1_555
H41 C31 1_555 1_555
H42 C31 1_555 1_555
C32 N7 1_555 1_555
H43 C32 1_555 1_555
H44 C32 1_555 1_555
C33 C32 1_555 1_555
H45 C33 1_555 1_555
H46 C33 1_555 1_555
C34 C33 1_555 1_555
H47 C34 1_555 1_555
H48 C34 1_555 1_555
C35 C34 1_555 1_555
H49 C35 1_555 1_555
H50 C35 1_555 1_555
H51 C35 1_555 1_555
N8 C36 1_555 1_555
C36 H52 1_555 1_555
H53 C36 1_555 1_555
C37 C36 1_555 1_555
H54 C37 1_555 1_555
H55 C37 1_555 1_555
C38 C37 1_555 1_555
H56 C38 1_555 1_555
H57 C38 1_555 1_555
C39 C38 1_555 1_555
H58 C39 1_555 1_555
H59 C39 1_555 1_555
H60 C39 1_555 1_555
C40 N8 1_555 1_555
H61 C40 1_555 1_555
H62 C40 1_555 1_555
C41 C40 1_555 1_555
H63 C41 1_555 1_555
H64 C41 1_555 1_555
C42 C41 1_555 1_555
H65 C42 1_555 1_555
H66 C42 1_555 1_555
C43 C42 1_555 1_555
H67 C43 1_555 1_555
H68 C43 1_555 1_555
H69 C43 1_555 1_555
C44 N8 1_555 1_555
H70 C44 1_555 1_555
H71 C44 1_555 1_555
C45 C44 1_555 1_555
H72 C45 1_555 1_555
H73 C45 1_555 1_555
C46 C45 1_555 1_555
H74 C46 1_555 1_555
H75 C46 1_555 1_555
C47 C46 1_555 1_555
H76 C47 1_555 1_555
H77 C47 1_555 1_555
H78 C47 1_555 1_555
C48 N8 1_555 1_555
H79 C48 1_555 1_555
H80 C48 1_555 1_555
C49 C48 1_555 1_555
H81 C49 1_555 1_555
H82 C49 1_555 1_555
C50 C49 1_555 1_555
H83 C50 1_555 1_555
H84 C50 1_555 1_555
C51 C50 1_555 1_555
H85 C51 1_555 1_555
H86 C51 1_555 1_555
H87 C51 1_555 1_555
O5A N1A 1_555 1_555
O6A N1A 1_555 1_555
O7A C7A 1_555 1_555
O8A C14A 1_555 1_555
N1A C1A 1_555 1_555
N2A H1A 1_555 1_555
N3A H2A 1_555 1_555
N4A H3A 1_555 1_555
N5A H4A 1_555 1_555
C1A C2A 1_555 1_555
C2A H5A 1_555 1_555
C3A C2A 1_555 1_555
H6A C3A 1_555 1_555
C4A N2A 1_555 1_555
C5A C4A 1_555 1_555
H7A C5A 1_555 1_555
C6A C1A 1_555 1_555
H8A C6A 1_555 1_555
C7A N2A 1_555 1_555
C8A N3A 1_555 1_555
C9A C8A 1_555 1_555
H9A C9A 1_555 1_555
C10A C9A 1_555 1_555
H10A C10A 1_555 1_555
C11A C10A 1_555 1_555
H11A C11A 1_555 1_555
C12A C11A 1_555 1_555
H12A C12A 1_555 1_555
C13A N4A 1_555 1_555
C14A N4A 1_555 1_555
C15A C19 1_555 1_555
C16A C16 1_555 1_555
C17A C16A 1_555 1_555
H13A C17A 1_555 1_555
C18A C17A 1_555 1_555
H14A C18A 1_555 1_555
C19A C15 1_555 1_555
H15A C19A 1_555 1_555
N3 C7 1_555 1_555
N5 C14 1_555 1_555
C3 C4 1_555 1_555
C5 C6 1_555 1_555
C8 C13 1_555 1_555
C12 C13 1_555 1_555
N3A C7A 1_555 1_555
N5A C14A 1_555 1_555
N5A C15A 1_555 1_555
C3A C4A 1_555 1_555
C5A C6A 1_555 1_555
C8A C13A 1_555 1_555
C12A C13A 1_555 1_555
C15A C16A 1_555 1_555
C18A C19A 1_555 1_555

#END
