
#######################################################################
#
#                 Cambridge Crystallographic Data Centre
#                                CCDC 
#
#######################################################################
#
# If this CIF has been generated from an entry in the Cambridge 
# Structural Database, then it will include bibliographic, chemical, 
# crystal, experimental, refinement or atomic coordinate data resulting 
# from the CCDC's data processing and validation procedures.
#
#######################################################################

data_DEXRIJ
_chemical_formula_moiety         '2(C16 H36 N1 1+),C38 H30 N10 O8,O4 S1 2-'
_chemical_name_systematic        
"bis(Tetra-n-butylammonium) 3,3'-naphthalene-1,5-diylbis(1-(2-(((4-nitrophenyl)carbamoyl)amino)phenyl)urea) sulfate"
_symmetry_cell_setting           monoclinic
_symmetry_space_group_name_H-M   'P 21/c'
_symmetry_Int_Tables_number      14
_space_group_name_Hall           '-P 2ybc'
loop_
_symmetry_equiv_pos_site_id
_symmetry_equiv_pos_as_xyz
1 x,y,z
2 -x,1/2+y,1/2-z
3 -x,-y,-z
4 x,1/2-y,1/2+z
_cell_length_a                   12.501(6)
_cell_length_b                   19.167(9)
_cell_length_c                   16.971(6)
_cell_angle_alpha                90
_cell_angle_beta                 120.12(2)
_cell_angle_gamma                90
_cell_volume                     3517.31
_exptl_crystal_colour            yellow
_exptl_crystal_description       block
_cell_formula_units_Z            2
loop_
_atom_site_label
_atom_site_type_symbol
_atom_site_fract_x
_atom_site_fract_y
_atom_site_fract_z
O1 O -0.1588(7) 0.4735(3) -0.0043(5)
O2 O -0.2000(7) 0.5797(4) -0.0546(4)
O3 O 0.2848(4) 0.7416(2) 0.3116(3)
O4 O 0.8482(6) 0.7103(3) 0.5141(4)
N1 N -0.1377(8) 0.5365(4) 0.0045(5)
N2 N 0.2679(5) 0.6252(3) 0.3340(4)
H1 H 0.2981 0.5930 0.3748
N3 N 0.4315(5) 0.6883(3) 0.4420(4)
H2 H 0.4541 0.6489 0.4698
N4 N 0.6829(5) 0.6712(3) 0.5258(5)
H3 H 0.6469 0.6352 0.5321
N5 N 0.7987(5) 0.5940(3) 0.4996(4)
H4 H 0.7545 0.5625 0.5057
C1 C -0.0319(7) 0.5610(4) 0.0888(5)
C2 C 0.0496(8) 0.5125(4) 0.1517(6)
H5 H 0.0363 0.4639 0.1398
C3 C 0.1483(7) 0.5358(4) 0.2304(6)
H6 H 0.2061 0.5031 0.2720
C4 C 0.1668(6) 0.6073(3) 0.2515(5)
C5 C 0.0838(6) 0.6547(4) 0.1872(5)
H7 H 0.0945 0.7033 0.1996
C6 C -0.0129(7) 0.6312(4) 0.1065(5)
H8 H -0.0673 0.6638 0.0623
C7 C 0.3245(6) 0.6897(3) 0.3595(4)
C8 C 0.5078(6) 0.7458(3) 0.4842(4)
C9 C 0.4596(7) 0.8111(3) 0.4855(5)
H9 H 0.3725 0.8170 0.4562
C10 C 0.5354(8) 0.8673(4) 0.5282(5)
H10 H 0.5007 0.9119 0.5260
C11 C 0.6611(8) 0.8587(4) 0.5740(6)
H11 H 0.7138 0.8971 0.6045
C12 C 0.7113(8) 0.7943(5) 0.5759(6)
H12 H 0.7985 0.7882 0.6100
C13 C 0.6350(7) 0.7381(4) 0.5281(5)
C14 C 0.7833(7) 0.6609(5) 0.5143(5)
C15 C 0.8887(6) 0.5735(4) 0.4742(4)
C16 C 0.9560(6) 0.5124(3) 0.5116(4)
C17 C 0.9910(7) 0.5877(4) 0.3868(5)
H13 H 1.0015 0.6150 0.3444
C18 C 0.9039(7) 0.6093(4) 0.4121(5)
H14 H 0.8553 0.6498 0.3848
C19 C 1.0592(6) 0.5295(4) 0.4214(5)
H15 H 1.1164 0.5155 0.4031
O1B O 2.1588(7) 0.5265(3) 1.0043(5)
O2B O 2.2000(7) 0.4203(4) 1.0546(4)
O3B O 1.7152(4) 0.2584(2) 0.6884(3)
O4B O 1.1518(6) 0.2897(3) 0.4859(4)
N1B N 2.1377(8) 0.4635(4) 0.9955(5)
N2B N 1.7321(5) 0.3748(3) 0.6660(4)
H1B H 1.7019 0.4070 0.6252
N3B N 1.5685(5) 0.3117(3) 0.5580(4)
H2B H 1.5459 0.3511 0.5302
N4B N 1.3171(5) 0.3288(3) 0.4742(5)
H3B H 1.3531 0.3648 0.4679
N5B N 1.2013(5) 0.4060(3) 0.5004(4)
H4B H 1.2455 0.4375 0.4943
C1B C 2.0319(7) 0.4390(4) 0.9112(5)
C2B C 1.9504(8) 0.4875(4) 0.8483(6)
H5B H 1.9637 0.5361 0.8602
C3B C 1.8517(7) 0.4642(4) 0.7696(6)
H6B H 1.7939 0.4969 0.7280
C4B C 1.8332(6) 0.3927(3) 0.7485(5)
C5B C 1.9162(6) 0.3453(4) 0.8128(5)
H7B H 1.9055 0.2967 0.8004
C6B C 2.0129(7) 0.3688(4) 0.8935(5)
H8B H 2.0673 0.3362 0.9377
C7B C 1.6755(6) 0.3103(3) 0.6405(4)
C8B C 1.4922(6) 0.2542(3) 0.5158(4)
C9B C 1.5404(7) 0.1889(3) 0.5145(5)
H9B H 1.6275 0.1830 0.5438
C10B C 1.4646(8) 0.1327(4) 0.4718(5)
H10B H 1.4993 0.0881 0.4740
C11B C 1.3389(8) 0.1413(4) 0.4260(6)
H11B H 1.2862 0.1029 0.3955
C12B C 1.2887(8) 0.2057(5) 0.4241(6)
H12B H 1.2015 0.2118 0.3900
C13B C 1.3650(7) 0.2619(4) 0.4719(5)
C14B C 1.2167(7) 0.3391(5) 0.4857(5)
C15B C 1.1113(6) 0.4265(4) 0.5258(4)
C16B C 1.0440(6) 0.4876(3) 0.4884(4)
C17B C 1.0090(7) 0.4123(4) 0.6132(5)
H13B H 0.9985 0.3850 0.6556
C18B C 1.0961(7) 0.3907(4) 0.5879(5)
H14B H 1.1447 0.3502 0.6152
C19B C 0.9408(6) 0.4705(4) 0.5786(5)
H15B H 0.8836 0.4845 0.5969
N6 N 0.5948(5) 0.4024(3) 0.2787(4)
C20 C 0.6646(6) 0.4029(4) 0.2264(4)
H16 H 0.6979 0.3555 0.2291
H17 H 0.6052 0.4133 0.1617
C21 C 0.7701(7) 0.4545(4) 0.2605(5)
H18 H 0.8254 0.4483 0.3269
H19 H 0.7367 0.5026 0.2499
C22 C 0.8437(7) 0.4445(4) 0.2121(6)
H20 H 0.8971 0.4858 0.2231
H21 H 0.7859 0.4410 0.1456
C23 C 0.9241(8) 0.3789(4) 0.2450(6)
H22 H 0.8710 0.3375 0.2253
H23 H 0.9741 0.3796 0.3116
H24 H 0.9787 0.3777 0.2191
C24 C 0.6757(7) 0.3764(4) 0.3749(5)
H25 H 0.7425 0.4109 0.4079
H26 H 0.6252 0.3753 0.4049
C25 C 0.7331(9) 0.3074(6) 0.3863(6)
H27 H 0.6692 0.2744 0.3439
H28 H 0.7971 0.3108 0.3684
C26 C 0.7901(10) 0.2783(5) 0.4782(6)
H29 H 0.7245 0.2749 0.4945
H30 H 0.8506 0.3131 0.5199
C27 C 0.8538(10) 0.2105(7) 0.4997(7)
H31 H 0.9404 0.2175 0.5165
H32 H 0.8133 0.1801 0.4461
H33 H 0.8502 0.1888 0.5506
C28 C 0.4842(6) 0.3546(3) 0.2265(6)
H34 H 0.4421 0.3683 0.1615
H35 H 0.5155 0.3065 0.2307
C29 C 0.3916(8) 0.3532(5) 0.2555(8)
H36 H 0.3507 0.3993 0.2440
H37 H 0.4330 0.3439 0.3218
C30 C 0.2921(8) 0.2957(4) 0.2031(7)
H38 H 0.2675 0.2974 0.1379
H39 H 0.3292 0.2493 0.2269
C31 C 0.1827(9) 0.3036(6) 0.2113(9)
H40 H 0.1325 0.3423 0.1727
H41 H 0.2075 0.3134 0.2749
H42 H 0.1343 0.2604 0.1918
C32 C 0.5545(8) 0.4763(4) 0.2855(6)
H43 H 0.6293 0.5049 0.3225
H44 H 0.5075 0.4745 0.3181
C33 C 0.4748(9) 0.5127(4) 0.1939(8)
H45 H 0.4057 0.4814 0.1537
H46 H 0.5255 0.5204 0.1648
C34 C 0.4211(10) 0.5832(5) 0.2011(9)
H47 H 0.3674 0.6019 0.1389
H48 H 0.3687 0.5753 0.2287
C35 C 0.5097(10) 0.6324(5) 0.2519(8)
H49 H 0.5660 0.6380 0.2279
H50 H 0.5567 0.6170 0.3155
H51 H 0.4695 0.6770 0.2485
S1 S 0.5000 0.5000 0.5000
O5 O 0.3778(8) 0.5250(5) 0.4809(6)
O6 O 0.5469(9) 0.5525(4) 0.4536(6)
O5B O 0.6222(8) 0.4750(5) 0.5191(6)
O6B O 0.4531(9) 0.4475(4) 0.5464(6)
O7? O 0.5175(7) 0.5666(4) 0.5504(5)
O8? O 0.4116(8) 0.5045(5) 0.4072(5)
loop_
_geom_bond_atom_site_label_1
_geom_bond_atom_site_label_2
_geom_bond_site_symmetry_1
_geom_bond_site_symmetry_2
O1 N1 1_555 1_555
O2 N1 1_555 1_555
O3 C7 1_555 1_555
O4 C14 1_555 1_555
N1 C1 1_555 1_555
N2 H1 1_555 1_555
N3 H2 1_555 1_555
N4 H3 1_555 1_555
N5 H4 1_555 1_555
C1 C2 1_555 1_555
C2 H5 1_555 1_555
C3 C2 1_555 1_555
H6 C3 1_555 1_555
C4 N2 1_555 1_555
C5 C4 1_555 1_555
H7 C5 1_555 1_555
C6 C1 1_555 1_555
H8 C6 1_555 1_555
C7 N2 1_555 1_555
C8 N3 1_555 1_555
C9 C8 1_555 1_555
H9 C9 1_555 1_555
C10 C9 1_555 1_555
H10 C10 1_555 1_555
C11 C10 1_555 1_555
H11 C11 1_555 1_555
C12 C11 1_555 1_555
H12 C12 1_555 1_555
C13 N4 1_555 1_555
C14 N4 1_555 1_555
C15 N5 1_555 1_555
C16 C15 1_555 1_555
C17 H13 1_555 1_555
C18 C15 1_555 1_555
H14 C18 1_555 1_555
C19 C17 1_555 1_555
H15 C19 1_555 1_555
N6 C20 1_555 1_555
C20 H16 1_555 1_555
H17 C20 1_555 1_555
C21 C20 1_555 1_555
H18 C21 1_555 1_555
H19 C21 1_555 1_555
C22 C21 1_555 1_555
H20 C22 1_555 1_555
H21 C22 1_555 1_555
C23 C22 1_555 1_555
H22 C23 1_555 1_555
H23 C23 1_555 1_555
H24 C23 1_555 1_555
C24 N6 1_555 1_555
H25 C24 1_555 1_555
H26 C24 1_555 1_555
C25 C24 1_555 1_555
H27 C25 1_555 1_555
H28 C25 1_555 1_555
C26 C25 1_555 1_555
H29 C26 1_555 1_555
H30 C26 1_555 1_555
C27 C26 1_555 1_555
H31 C27 1_555 1_555
H32 C27 1_555 1_555
H33 C27 1_555 1_555
C28 N6 1_555 1_555
H34 C28 1_555 1_555
H35 C28 1_555 1_555
C29 C28 1_555 1_555
H36 C29 1_555 1_555
H37 C29 1_555 1_555
C30 C29 1_555 1_555
H38 C30 1_555 1_555
H39 C30 1_555 1_555
C31 C30 1_555 1_555
H40 C31 1_555 1_555
H41 C31 1_555 1_555
H42 C31 1_555 1_555
C32 N6 1_555 1_555
H43 C32 1_555 1_555
H44 C32 1_555 1_555
C33 C32 1_555 1_555
H45 C33 1_555 1_555
H46 C33 1_555 1_555
C34 C33 1_555 1_555
H47 C34 1_555 1_555
H48 C34 1_555 1_555
C35 C34 1_555 1_555
H49 C35 1_555 1_555
H50 C35 1_555 1_555
H51 C35 1_555 1_555
S1 O5 1_555 1_555
O6 S1 1_555 1_555
O1B N1B 1_555 1_555
O2B N1B 1_555 1_555
O3B C7B 1_555 1_555
O4B C14B 1_555 1_555
N1B C1B 1_555 1_555
N2B H1B 1_555 1_555
N3B H2B 1_555 1_555
N4B H3B 1_555 1_555
N5B H4B 1_555 1_555
C1B C2B 1_555 1_555
C2B H5B 1_555 1_555
C3B C2B 1_555 1_555
H6B C3B 1_555 1_555
C4B N2B 1_555 1_555
C5B C4B 1_555 1_555
H7B C5B 1_555 1_555
C6B C1B 1_555 1_555
H8B C6B 1_555 1_555
C7B N2B 1_555 1_555
C8B N3B 1_555 1_555
C9B C8B 1_555 1_555
H9B C9B 1_555 1_555
C10B C9B 1_555 1_555
H10B C10B 1_555 1_555
C11B C10B 1_555 1_555
H11B C11B 1_555 1_555
C12B C11B 1_555 1_555
H12B C12B 1_555 1_555
C13B N4B 1_555 1_555
C14B N4B 1_555 1_555
C15B N5B 1_555 1_555
C16B C16 1_555 1_555
C17B H13B 1_555 1_555
C18B C15B 1_555 1_555
H14B C18B 1_555 1_555
C19B C16 1_555 1_555
H15B C19B 1_555 1_555
O5B S1 1_555 1_555
O6B S1 1_555 1_555
N3 C7 1_555 1_555
N5 C14 1_555 1_555
C3 C4 1_555 1_555
C5 C6 1_555 1_555
C8 C13 1_555 1_555
C12 C13 1_555 1_555
C17 C18 1_555 1_555
C19 C16B 1_555 1_555
N3B C7B 1_555 1_555
N5B C14B 1_555 1_555
C3B C4B 1_555 1_555
C5B C6B 1_555 1_555
C8B C13B 1_555 1_555
C12B C13B 1_555 1_555
C15B C16B 1_555 1_555
C17B C18B 1_555 1_555
C17B C19B 1_555 1_555

#END
