
#######################################################################
#
#                 Cambridge Crystallographic Data Centre
#                                CCDC 
#
#######################################################################
#
# If this CIF has been generated from an entry in the Cambridge 
# Structural Database, then it will include bibliographic, chemical, 
# crystal, experimental, refinement or atomic coordinate data resulting 
# from the CCDC's data processing and validation procedures.
#
#######################################################################

data_DEXSOP
_chemical_formula_moiety         'C6 H9 N1 O3'
_chemical_name_systematic        N-(Methylacryloyl)glycine
_symmetry_cell_setting           monoclinic
_symmetry_space_group_name_H-M   'P 21/c'
_symmetry_Int_Tables_number      14
_space_group_name_Hall           '-P 2ybc'
loop_
_symmetry_equiv_pos_site_id
_symmetry_equiv_pos_as_xyz
1 x,y,z
2 -x,1/2+y,1/2-z
3 -x,-y,-z
4 x,1/2-y,1/2+z
_cell_length_a                   8.6340(17)
_cell_length_b                   10.343(2)
_cell_length_c                   9.1600(18)
_cell_angle_alpha                90
_cell_angle_beta                 115.04(3)
_cell_angle_gamma                90
_cell_volume                     741.12
_exptl_crystal_colour            colorless
_exptl_crystal_description       needle
_chemical_melting_point          378K
_cell_formula_units_Z            4
_exptl_crystal_recrystallization_method 'ethyl acetate'
loop_
_atom_site_label
_atom_site_type_symbol
_atom_site_fract_x
_atom_site_fract_y
_atom_site_fract_z
O1 O 0.1054(2) 0.55882(19) 0.1893(2)
O2 O -0.1712(2) 0.59658(19) 0.1158(2)
H1 H -0.1689 0.5272 0.1600
O3 O 0.1730(2) 0.87281(18) 0.2427(2)
C1 C 0.4856(4) 0.9678(4) 0.2699(4)
H2 H 0.5935 0.9949 0.2834
H3 H 0.4377 1.0007 0.3360
C2 C 0.4676(4) 0.8267(4) 0.0486(4)
H4 H 0.5790 0.8621 0.0745
H5 H 0.3929 0.8472 -0.0611
H6 H 0.4760 0.7345 0.0617
C3 C 0.3993(3) 0.8816(3) 0.1557(3)
C4 C 0.2274(3) 0.8423(2) 0.1408(3)
N1 N 0.1305(3) 0.7701(2) 0.0152(2)
H7 H 0.1671 0.7499 -0.0557
C5 C -0.0341(3) 0.7256(3) -0.0036(3)
H8 H -0.0976 0.6947 -0.1130
H9 H -0.0970 0.7975 0.0131
C6 C -0.0215(3) 0.6177(2) 0.1137(3)
loop_
_geom_bond_atom_site_label_1
_geom_bond_atom_site_label_2
_geom_bond_site_symmetry_1
_geom_bond_site_symmetry_2
O1 C6 1_555 1_555
O2 H1 1_555 1_555
O3 C4 1_555 1_555
C1 H2 1_555 1_555
H3 C1 1_555 1_555
C2 H4 1_555 1_555
H5 C2 1_555 1_555
H6 C2 1_555 1_555
C3 C1 1_555 1_555
C4 C3 1_555 1_555
N1 C4 1_555 1_555
H7 N1 1_555 1_555
C5 N1 1_555 1_555
H8 C5 1_555 1_555
H9 C5 1_555 1_555
C6 O2 1_555 1_555
C2 C3 1_555 1_555
C5 C6 1_555 1_555

#END
