
#######################################################################
#
#                 Cambridge Crystallographic Data Centre
#                                CCDC 
#
#######################################################################
#
# If this CIF has been generated from an entry in the Cambridge 
# Structural Database, then it will include bibliographic, chemical, 
# crystal, experimental, refinement or atomic coordinate data resulting 
# from the CCDC's data processing and validation procedures.
#
#######################################################################

data_DEXVAE
_chemical_formula_moiety         'C15 H14 N2 O4'
_chemical_name_systematic        N-Benzyl-2-(4-nitrophenoxy)acetamide
_symmetry_cell_setting           triclinic
_symmetry_space_group_name_H-M   'P -1'
_symmetry_Int_Tables_number      2
_space_group_name_Hall           '-P 1'
loop_
_symmetry_equiv_pos_site_id
_symmetry_equiv_pos_as_xyz
1 x,y,z
2 -x,-y,-z
_cell_length_a                   5.821(2)
_cell_length_b                   8.960(3)
_cell_length_c                   26.909(3)
_cell_angle_alpha                96.397(3)
_cell_angle_beta                 92.116(3)
_cell_angle_gamma                98.070(3)
_cell_volume                     1378.95
_exptl_crystal_colour            yellow
_exptl_crystal_description       block
_cell_formula_units_Z            4
_exptl_crystal_recrystallization_method methanol
loop_
_atom_site_label
_atom_site_type_symbol
_atom_site_fract_x
_atom_site_fract_y
_atom_site_fract_z
O1 O 0.4420(3) 0.16512(17) 0.25666(6)
O2 O 0.5887(3) 0.44600(17) 0.17662(6)
O3 O 0.5393(4) 0.7992(3) -0.00817(7)
O4 O 0.1953(4) 0.6789(2) -0.01445(8)
N1 N 0.7641(3) 0.33481(19) 0.25186(6)
H1 H 0.8233 0.4134 0.2385
N2 N 0.3885(5) 0.7093(2) 0.00606(8)
C1 C 0.5497(4) 0.2709(2) 0.23749(8)
C2 C 0.4319(4) 0.3317(2) 0.19511(8)
H3 H 0.3813 0.2501 0.1685
H4 H 0.2960 0.3738 0.2067
C3 C 0.5256(4) 0.5045(2) 0.13427(8)
C4 C 0.3091(4) 0.4720(3) 0.11031(9)
H5 H 0.1932 0.4055 0.1225
C5 C 0.2659(4) 0.5392(3) 0.06799(9)
H6 H 0.1202 0.5182 0.0513
C6 C 0.4383(4) 0.6371(2) 0.05063(8)
C7 C 0.6552(4) 0.6713(3) 0.07424(9)
H7 H 0.7700 0.7388 0.0621
C8 C 0.6990(4) 0.6031(2) 0.11628(9)
H8 H 0.8455 0.6234 0.1326
C9 C 0.9033(4) 0.2774(2) 0.28921(8)
H9 H 1.0517 0.2632 0.2756
H10 H 0.8259 0.1786 0.2954
C10 C 0.9478(4) 0.3771(2) 0.33854(8)
C11 C 1.1432(4) 0.3710(3) 0.36829(10)
H11 H 1.2508 0.3092 0.3570
C12 C 1.1807(5) 0.4558(3) 0.41473(11)
H12 H 1.3124 0.4497 0.4346
C13 C 1.0262(6) 0.5483(3) 0.43159(10)
H13 H 1.0529 0.6060 0.4627
C14 C 0.8323(5) 0.5557(3) 0.40251(11)
H14 H 0.7257 0.6181 0.4139
C15 C 0.7940(4) 0.4706(3) 0.35620(9)
H15 H 0.6615 0.4767 0.3366
O5 O 0.0881(3) 0.60285(18) 0.23664(7)
O6 O 0.5682(3) 0.83668(18) 0.30762(6)
O7 O 0.5059(4) 1.2628(3) 0.50351(8)
O8 O 0.1608(5) 1.1455(3) 0.49740(9)
N3 N 0.1875(3) 0.8564(2) 0.24511(7)
H2 H 0.2945 0.9310 0.2554
N4 N 0.3558(5) 1.1666(3) 0.48283(9)
C16 C 0.2190(4) 0.7182(3) 0.25354(8)
C17 C 0.4291(4) 0.7004(3) 0.28526(9)
H16 H 0.3776 0.6407 0.3118
H17 H 0.5267 0.6425 0.2647
C18 C 0.5048(4) 0.9079(3) 0.35164(9)
C19 C 0.6704(4) 1.0218(3) 0.37482(9)
H18 H 0.8145 1.0416 0.3612
C20 C 0.6227(5) 1.1060(3) 0.41794(10)
H19 H 0.7334 1.1835 0.4336
C21 C 0.4104(5) 1.0746(3) 0.43764(9)
C22 C 0.2469(4) 0.9583(3) 0.41602(9)
H20 H 0.1054 0.9363 0.4305
C23 C 0.2947(4) 0.8733(3) 0.37211(9)
H21 H 0.1856 0.7941 0.3569
C24 C -0.0198(4) 0.8876(3) 0.21925(8)
H22 H -0.0919 0.9586 0.2413
H23 H -0.1281 0.7940 0.2131
C25 C 0.0165(4) 0.9513(2) 0.17036(8)
C26 C 0.1980(4) 0.9251(2) 0.14061(8)
H24 H 0.3076 0.8676 0.1512
C27 C 0.2186(4) 0.9833(3) 0.09516(9)
H25 H 0.3428 0.9661 0.0756
C28 C 0.0560(5) 1.0664(3) 0.07896(9)
H26 H 0.0689 1.1042 0.0482
C29 C -0.1246(5) 1.0936(3) 0.10784(10)
H27 H -0.2344 1.1504 0.0970
C30 C -0.1436(4) 1.0367(3) 0.15312(9)
H28 H -0.2670 1.0560 0.1727
loop_
_geom_bond_atom_site_label_1
_geom_bond_atom_site_label_2
_geom_bond_site_symmetry_1
_geom_bond_site_symmetry_2
O1 C1 1_555 1_555
O2 C2 1_555 1_555
O3 N2 1_555 1_555
O4 N2 1_555 1_555
O5 C16 1_555 1_555
O6 C17 1_555 1_555
O7 N4 1_555 1_555
O8 N4 1_555 1_555
N1 H1 1_555 1_555
N2 C6 1_555 1_555
N3 H2 1_555 1_555
N4 C21 1_555 1_555
C1 N1 1_555 1_555
C2 C1 1_555 1_555
H3 C2 1_555 1_555
H4 C2 1_555 1_555
C3 O2 1_555 1_555
C4 C3 1_555 1_555
H5 C4 1_555 1_555
C5 C4 1_555 1_555
H6 C5 1_555 1_555
C6 C5 1_555 1_555
C7 C6 1_555 1_555
H7 C7 1_555 1_555
C8 C3 1_555 1_555
H8 C8 1_555 1_555
C9 N1 1_555 1_555
H9 C9 1_555 1_555
H10 C9 1_555 1_555
C10 C9 1_555 1_555
C11 C10 1_555 1_555
H11 C11 1_555 1_555
C12 C11 1_555 1_555
H12 C12 1_555 1_555
C13 C12 1_555 1_555
H13 C13 1_555 1_555
C14 C13 1_555 1_555
H14 C14 1_555 1_555
C15 C10 1_555 1_555
H15 C15 1_555 1_555
C16 N3 1_555 1_555
C17 C16 1_555 1_555
H16 C17 1_555 1_555
H17 C17 1_555 1_555
C18 O6 1_555 1_555
C19 C18 1_555 1_555
H18 C19 1_555 1_555
C20 C19 1_555 1_555
H19 C20 1_555 1_555
C21 C20 1_555 1_555
C22 C21 1_555 1_555
H20 C22 1_555 1_555
C23 C18 1_555 1_555
H21 C23 1_555 1_555
C24 N3 1_555 1_555
H22 C24 1_555 1_555
H23 C24 1_555 1_555
C25 C24 1_555 1_555
C26 C25 1_555 1_555
H24 C26 1_555 1_555
C27 C26 1_555 1_555
H25 C27 1_555 1_555
C28 C27 1_555 1_555
H26 C28 1_555 1_555
C29 C28 1_555 1_555
H27 C29 1_555 1_555
C30 C25 1_555 1_555
H28 C30 1_555 1_555
C7 C8 1_555 1_555
C14 C15 1_555 1_555
C22 C23 1_555 1_555
C29 C30 1_555 1_555

#END
