
#######################################################################
#
#                 Cambridge Crystallographic Data Centre
#                                CCDC 
#
#######################################################################
#
# If this CIF has been generated from an entry in the Cambridge 
# Structural Database, then it will include bibliographic, chemical, 
# crystal, experimental, refinement or atomic coordinate data resulting 
# from the CCDC's data processing and validation procedures.
#
#######################################################################

data_DEXVUY
_chemical_formula_moiety         'C15 H12 N2 O4'
_chemical_name_systematic        4-Benzyl-2H-1,4-benzoxazin-3(4H)-one
_symmetry_cell_setting           monoclinic
_symmetry_space_group_name_H-M   'P 21/n'
_symmetry_Int_Tables_number      14
_space_group_name_Hall           '-P 2yn'
loop_
_symmetry_equiv_pos_site_id
_symmetry_equiv_pos_as_xyz
1 x,y,z
2 1/2-x,1/2+y,1/2-z
3 -x,-y,-z
4 1/2+x,1/2-y,1/2+z
_cell_length_a                   7.933(2)
_cell_length_b                   9.615(3)
_cell_length_c                   17.514(3)
_cell_angle_alpha                90
_cell_angle_beta                 97.973(5)
_cell_angle_gamma                90
_cell_volume                     1322.98
_exptl_crystal_colour            yellow
_exptl_crystal_description       block
_cell_formula_units_Z            4
_exptl_crystal_recrystallization_method methanol
loop_
_atom_site_label
_atom_site_type_symbol
_atom_site_fract_x
_atom_site_fract_y
_atom_site_fract_z
N1 N 0.3482(2) 0.79655(17) 0.10238(10)
N2 N 0.0689(3) 1.2493(2) 0.07533(14)
O1 O 0.4643(3) 0.58069(17) 0.10566(10)
O2 O 0.3995(2) 0.81765(17) -0.05145(9)
O3 O 0.0246(3) 1.23423(18) 0.13863(11)
O4 O 0.0417(4) 1.3553(2) 0.03762(13)
C1 C 0.4100(3) 0.6832(3) 0.06919(14)
C2 C 0.4011(4) 0.6851(3) -0.01682(14)
H1 H 0.4978 0.6338 -0.0305
H2 H 0.2991 0.6358 -0.0388
C3 C 0.3146(3) 0.9197(2) -0.01902(12)
C4 C 0.2648(3) 1.0345(3) -0.06369(13)
H3 H 0.2845 1.0375 -0.1148
C5 C 0.1861(3) 1.1444(3) -0.03313(14)
H4 H 0.1535 1.2228 -0.0626
C6 C 0.1571(3) 1.1356(2) 0.04213(13)
C7 C 0.2046(3) 1.0219(2) 0.08781(12)
H5 H 0.1815 1.0188 0.1384
C8 C 0.2871(3) 0.9126(2) 0.05766(12)
C9 C 0.3389(3) 0.7933(2) 0.18553(12)
H6 H 0.3698 0.8841 0.2072
H7 H 0.4215 0.7267 0.2097
C10 C 0.1656(3) 0.7549(2) 0.20439(12)
C11 C 0.0867(3) 0.8347(2) 0.25456(13)
H8 H 0.1401 0.9144 0.2761
C12 C -0.0706(4) 0.7973(3) 0.27316(15)
H9 H -0.1221 0.8516 0.3073
C13 C -0.1514(4) 0.6802(3) 0.24151(16)
H10 H -0.2576 0.6551 0.2540
C14 C -0.0743(4) 0.6005(3) 0.19140(15)
H11 H -0.1283 0.5211 0.1698
C15 C 0.0825(3) 0.6376(2) 0.17302(13)
H12 H 0.1335 0.5829 0.1389
loop_
_geom_bond_atom_site_label_1
_geom_bond_atom_site_label_2
_geom_bond_site_symmetry_1
_geom_bond_site_symmetry_2
N1 C1 1_555 1_555
N2 O3 1_555 1_555
O1 C1 1_555 1_555
O2 C2 1_555 1_555
O4 N2 1_555 1_555
C1 C2 1_555 1_555
C2 H1 1_555 1_555
H2 C2 1_555 1_555
C3 O2 1_555 1_555
C4 C3 1_555 1_555
H3 C4 1_555 1_555
C5 C4 1_555 1_555
H4 C5 1_555 1_555
C6 N2 1_555 1_555
C7 C6 1_555 1_555
H5 C7 1_555 1_555
C8 N1 1_555 1_555
C9 N1 1_555 1_555
H6 C9 1_555 1_555
H7 C9 1_555 1_555
C10 C9 1_555 1_555
C11 C10 1_555 1_555
H8 C11 1_555 1_555
C12 C11 1_555 1_555
H9 C12 1_555 1_555
C13 C12 1_555 1_555
H10 C13 1_555 1_555
C14 C13 1_555 1_555
H11 C14 1_555 1_555
C15 C10 1_555 1_555
H12 C15 1_555 1_555
C3 C8 1_555 1_555
C5 C6 1_555 1_555
C7 C8 1_555 1_555
C14 C15 1_555 1_555

#END
