
#######################################################################
#
#                 Cambridge Crystallographic Data Centre
#                                CCDC 
#
#######################################################################
#
# If this CIF has been generated from an entry in the Cambridge 
# Structural Database, then it will include bibliographic, chemical, 
# crystal, experimental, refinement or atomic coordinate data resulting 
# from the CCDC's data processing and validation procedures.
#
#######################################################################

data_DEXWOU01
_chemical_formula_moiety         'C18 H11 F1'
_chemical_name_systematic        6-fluorochrysene
_symmetry_cell_setting           monoclinic
_symmetry_space_group_name_H-M   'P 21/c'
_symmetry_Int_Tables_number      14
_space_group_name_Hall           '-P 2ybc'
loop_
_symmetry_equiv_pos_site_id
_symmetry_equiv_pos_as_xyz
1 x,y,z
2 -x,1/2+y,1/2-z
3 -x,-y,-z
4 x,1/2-y,1/2+z
_cell_length_a                   9.604(3)
_cell_length_b                   8.740(2)
_cell_length_c                   13.695(3)
_cell_angle_alpha                90
_cell_angle_beta                 96.535(4)
_cell_angle_gamma                90
_cell_volume                     1142.07
_exptl_crystal_colour            colorless
_exptl_crystal_description       thin
_cell_formula_units_Z            4
loop_
_atom_site_label
_atom_site_type_symbol
_atom_site_fract_x
_atom_site_fract_y
_atom_site_fract_z
C1 C 0.0409(3) 0.1845(3) 0.41781(19)
C2 C -0.0849(3) 0.1894(3) 0.46706(19)
C3 C -0.1987(3) 0.0940(3) 0.43273(19)
C4 C -0.1870(3) -0.0063(3) 0.3517(2)
C5 C -0.0691(3) -0.0090(3) 0.3064(2)
C6 C 0.0482(3) 0.0859(3) 0.33772(19)
C7 C 0.1897(3) -0.0157(3) 0.2078(2)
C8 C 0.3110(3) -0.0190(3) 0.1645(2)
C9 C 0.4255(3) 0.0728(3) 0.1998(2)
C10 C 0.4152(3) 0.1687(3) 0.2780(2)
C11 C 0.2902(3) 0.1745(3) 0.32286(19)
C12 C 0.1747(3) 0.0815(3) 0.28880(19)
C13 C 0.1599(3) 0.2787(3) 0.4504(2)
C14 C 0.2758(3) 0.2715(3) 0.4049(2)
C15 C -0.3214(3) 0.0956(3) 0.4804(2)
C16 C -0.2209(3) 0.2851(3) 0.5925(2)
C17 C -0.1007(3) 0.2855(3) 0.5479(2)
C18 C -0.3330(3) 0.1896(3) 0.5583(2)
F1 F 0.3860(2) 0.3598(2) 0.43693(15)
H1 H 0.317(3) -0.091(3) 0.107(2)
H2 H 0.518(3) 0.067(4) 0.164(2)
H3 H 0.490(3) 0.231(4) 0.304(2)
H4 H 0.114(3) -0.078(3) 0.1868(19)
H5 H 0.163(3) 0.349(3) 0.504(2)
H6 H -0.027(3) 0.347(3) 0.584(2)
H7 H -0.414(3) 0.189(3) 0.589(2)
H8 H -0.402(3) 0.036(3) 0.458(2)
H9 H -0.229(3) 0.342(3) 0.649(2)
H10 H -0.065(3) -0.075(4) 0.255(2)
F2? F -0.2859(11) -0.0752(11) 0.3260(7)
loop_
_geom_bond_atom_site_label_1
_geom_bond_atom_site_label_2
_geom_bond_site_symmetry_1
_geom_bond_site_symmetry_2
C1 C2 1_555 1_555
C2 C3 1_555 1_555
C3 C4 1_555 1_555
C4 C5 1_555 1_555
C5 C6 1_555 1_555
C6 C1 1_555 1_555
C7 C8 1_555 1_555
C8 C9 1_555 1_555
C9 C10 1_555 1_555
C10 C11 1_555 1_555
C11 C12 1_555 1_555
C12 C6 1_555 1_555
C13 C1 1_555 1_555
C14 C11 1_555 1_555
C15 C3 1_555 1_555
C16 C17 1_555 1_555
C17 C2 1_555 1_555
C18 C15 1_555 1_555
F1 C14 1_555 1_555
H1 C8 1_555 1_555
H2 C9 1_555 1_555
H3 C10 1_555 1_555
H4 C7 1_555 1_555
H5 C13 1_555 1_555
H6 C17 1_555 1_555
H7 C18 1_555 1_555
H8 C15 1_555 1_555
H9 C16 1_555 1_555
H10 C5 1_555 1_555
C7 C12 1_555 1_555
C13 C14 1_555 1_555
C16 C18 1_555 1_555

#END
