
#######################################################################
#
#                 Cambridge Crystallographic Data Centre
#                                CCDC 
#
#######################################################################
#
# If this CIF has been generated from an entry in the Cambridge 
# Structural Database, then it will include bibliographic, chemical, 
# crystal, experimental, refinement or atomic coordinate data resulting 
# from the CCDC's data processing and validation procedures.
#
#######################################################################

data_DEXXUZ
_chemical_formula_moiety         'C14 H16 O2'
_chemical_name_systematic        Naphthalene-1,8-diethanol
_symmetry_cell_setting           monoclinic
_symmetry_space_group_name_H-M   'I a'
_symmetry_Int_Tables_number      9
_space_group_name_Hall           'I -2ya'
loop_
_symmetry_equiv_pos_site_id
_symmetry_equiv_pos_as_xyz
1 x,y,z
2 1/2+x,-y,z
3 1/2+x,1/2+y,1/2+z
4 x,1/2-y,1/2+z
_cell_length_a                   7.525(3)
_cell_length_b                   22.580(6)
_cell_length_c                   7.530(4)
_cell_angle_alpha                90
_cell_angle_beta                 111.18(4)
_cell_angle_gamma                90
_cell_volume                     1193.03
_exptl_crystal_colour            colorless
_exptl_crystal_description       plate
_chemical_melting_point          112deg.C
_cell_formula_units_Z            4
_exptl_crystal_recrystallization_method dichloromethane
loop_
_atom_site_label
_atom_site_type_symbol
_atom_site_fract_x
_atom_site_fract_y
_atom_site_fract_z
C1 C 0.5207(7) 0.36453(19) 0.9504(6)
C2 C 0.6186(11) 0.3281(3) 1.1035(8)
H1 H 0.745(10) 0.337(3) 1.161(10)
C3 C 0.5297(16) 0.2842(3) 1.1712(10)
H2 H 0.607(11) 0.269(3) 1.274(10)
C4 C 0.3418(15) 0.2775(3) 1.0939(10)
H3 H 0.288(10) 0.248(3) 1.122(10)
C5 C 0.0325(11) 0.3007(3) 0.8546(11)
H4 H -0.031(10) 0.276(3) 0.894(10)
C6 C -0.0811(11) 0.3308(3) 0.7050(11)
H5 H -0.208(11) 0.327(3) 0.654(9)
C7 C 0.0022(8) 0.3731(3) 0.6250(8)
H6 H -0.072(9) 0.400(3) 0.524(8)
C8 C 0.1930(7) 0.38651(19) 0.6929(6)
C9 C 0.3183(6) 0.35609(18) 0.8589(6)
C10 C 0.2307(8) 0.3116(2) 0.9381(6)
C11 C 0.6306(9) 0.4146(3) 0.9106(8)
H7 H 0.595(9) 0.419(3) 0.766(9)
H8 H 0.765(9) 0.404(3) 0.962(8)
C12 C 0.6041(9) 0.4718(2) 1.0016(8)
H9 H 0.660(10) 0.500(3) 0.968(9)
H10 H 0.467(9) 0.480(2) 0.970(8)
O1 O 0.6884(6) 0.4681(2) 1.2059(6)
H11 H 0.610(11) 0.461(4) 1.236(10)
C13 C 0.2555(8) 0.4295(2) 0.5753(8)
H12 H 0.339(8) 0.460(2) 0.630(7)
H13 H 0.150(8) 0.457(2) 0.502(8)
C14 C 0.3346(9) 0.3991(2) 0.4399(8)
H14 H 0.426(8) 0.372(3) 0.504(8)
H15 H 0.219(8) 0.379(2) 0.329(8)
O2 O 0.4224(7) 0.4413(2) 0.3556(5)
H16 H 0.350(12) 0.429(3) 0.272(10)
loop_
_geom_bond_atom_site_label_1
_geom_bond_atom_site_label_2
_geom_bond_site_symmetry_1
_geom_bond_site_symmetry_2
C1 C2 1_555 1_555
C2 H1 1_555 1_555
C3 C2 1_555 1_555
H2 C3 1_555 1_555
C4 C3 1_555 1_555
H3 C4 1_555 1_555
C5 H4 1_555 1_555
C6 C5 1_555 1_555
H5 C6 1_555 1_555
C7 C6 1_555 1_555
H6 C7 1_555 1_555
C8 C7 1_555 1_555
C9 C1 1_555 1_555
C10 C4 1_555 1_555
C11 C1 1_555 1_555
H7 C11 1_555 1_555
H8 C11 1_555 1_555
C12 C11 1_555 1_555
H9 C12 1_555 1_555
H10 C12 1_555 1_555
O1 C12 1_555 1_555
H11 O1 1_555 1_555
C13 C8 1_555 1_555
H12 C13 1_555 1_555
H13 C13 1_555 1_555
C14 C13 1_555 1_555
H14 C14 1_555 1_555
H15 C14 1_555 1_555
O2 C14 1_555 1_555
H16 O2 1_555 1_555
C5 C10 1_555 1_555
C8 C9 1_555 1_555
C9 C10 1_555 1_555

#END
