
#######################################################################
#
#                 Cambridge Crystallographic Data Centre
#                                CCDC 
#
#######################################################################
#
# If this CIF has been generated from an entry in the Cambridge 
# Structural Database, then it will include bibliographic, chemical, 
# crystal, experimental, refinement or atomic coordinate data resulting 
# from the CCDC's data processing and validation procedures.
#
#######################################################################

data_DEYBIV
_chemical_formula_moiety         'C23 H25 N1 O2'
_chemical_name_systematic        
"methyl 1,2',4,6-tetramethyl-1,2-dihydro-4'H-spiro[indole-3,1'-naphthalene]-2-carboxylate"
_symmetry_cell_setting           triclinic
_symmetry_space_group_name_H-M   'P -1'
_symmetry_Int_Tables_number      2
_space_group_name_Hall           '-P 1'
loop_
_symmetry_equiv_pos_site_id
_symmetry_equiv_pos_as_xyz
1 x,y,z
2 -x,-y,-z
_cell_length_a                   8.5712(3)
_cell_length_b                   9.5542(3)
_cell_length_c                   12.0362(4)
_cell_angle_alpha                91.908(3)
_cell_angle_beta                 103.104(3)
_cell_angle_gamma                97.556(3)
_cell_volume                     949.619
_exptl_crystal_description       block
_cell_formula_units_Z            2
loop_
_atom_site_label
_atom_site_type_symbol
_atom_site_fract_x
_atom_site_fract_y
_atom_site_fract_z
O1 O 0.74778(11) 0.25693(10) 0.42452(9)
O2 O 0.72801(12) 0.48847(10) 0.42926(10)
N1 N 0.42468(12) 0.18463(11) 0.41586(9)
C1 C 0.25916(14) 0.22172(12) 0.24270(10)
C2 C 0.27536(14) 0.14293(12) 0.33915(10)
C3 C 0.40939(14) 0.33180(12) 0.25459(10)
C4 C 0.48408(14) 0.32593(12) 0.38708(10)
H1 H 0.4381 0.3945 0.4279
C5 C 0.66600(15) 0.36697(13) 0.41678(11)
C6 C 0.37089(15) 0.48092(13) 0.23048(11)
C7 C 0.12490(16) 0.19002(14) 0.15179(11)
C8 C 0.15430(16) 0.03604(13) 0.35023(12)
H2 H 0.1656 -0.0153 0.4152
C9 C 0.52182(16) 0.28477(14) 0.18277(11)
C10 C 0.46815(17) 0.57599(14) 0.18063(11)
C11 C 0.23631(18) 0.52511(15) 0.26023(13)
H3 H 0.1719 0.4635 0.2951
C12 C 0.01566(16) 0.00743(13) 0.26192(13)
C13 C 0.00352(16) 0.08213(15) 0.16445(13)
H4 H -0.0884 0.0600 0.1052
C14 C 0.61746(18) 0.37974(16) 0.14106(13)
H5 H 0.6904 0.3464 0.1037
C15 C 0.43862(19) 0.16713(17) 0.53728(12)
H6 H 0.3701 0.2247 0.5651
H7 H 0.5489 0.1955 0.5781
H8 H 0.4061 0.0696 0.5487
C16 C 0.4255(2) 0.71061(15) 0.15972(13)
H9 H 0.4900 0.7739 0.1260
C17 C 0.5273(2) 0.12891(16) 0.16687(15)
H10 H 0.5466 0.0890 0.2400
H11 H 0.6130 0.1146 0.1302
H12 H 0.4260 0.0836 0.1202
C18 C 0.61654(19) 0.53524(16) 0.14969(14)
H13 H 0.6247 0.5728 0.0770
H14 H 0.7111 0.5784 0.2069
C19 C 0.2913(2) 0.75165(16) 0.18762(14)
H15 H 0.2643 0.8413 0.1721
C20 C 0.1968(2) 0.65894(17) 0.23880(15)
H16 H 0.1063 0.6863 0.2590
C21 C 0.1067(2) 0.26670(19) 0.04385(14)
H17 H 0.0717 0.3562 0.0560
H18 H 0.0279 0.2110 -0.0163
H19 H 0.2089 0.2820 0.0228
C22 C -0.12311(19) -0.10192(17) 0.27362(17)
H20 H -0.0851 -0.1631 0.3324
H21 H -0.1658 -0.1569 0.2024
H22 H -0.2066 -0.0553 0.2935
C23 C 0.92047(19) 0.2931(2) 0.44038(19)
H23 H 0.9433 0.3445 0.3774
H24 H 0.9696 0.2081 0.4440
H25 H 0.9635 0.3506 0.5103
loop_
_geom_bond_atom_site_label_1
_geom_bond_atom_site_label_2
_geom_bond_site_symmetry_1
_geom_bond_site_symmetry_2
O1 C5 1_555 1_555
O2 C5 1_555 1_555
N1 C2 1_555 1_555
C1 C2 1_555 1_555
C2 C8 1_555 1_555
C3 C1 1_555 1_555
C4 N1 1_555 1_555
H1 C4 1_555 1_555
C5 C4 1_555 1_555
C6 C3 1_555 1_555
C7 C1 1_555 1_555
C8 H2 1_555 1_555
C9 C3 1_555 1_555
C10 C6 1_555 1_555
C11 C6 1_555 1_555
H3 C11 1_555 1_555
C12 C8 1_555 1_555
C13 C7 1_555 1_555
H4 C13 1_555 1_555
C14 C9 1_555 1_555
H5 C14 1_555 1_555
C15 N1 1_555 1_555
H6 C15 1_555 1_555
H7 C15 1_555 1_555
H8 C15 1_555 1_555
C16 C10 1_555 1_555
H9 C16 1_555 1_555
C17 C9 1_555 1_555
H10 C17 1_555 1_555
H11 C17 1_555 1_555
H12 C17 1_555 1_555
C18 C10 1_555 1_555
H13 C18 1_555 1_555
H14 C18 1_555 1_555
C19 C16 1_555 1_555
H15 C19 1_555 1_555
C20 C11 1_555 1_555
H16 C20 1_555 1_555
C21 C7 1_555 1_555
H17 C21 1_555 1_555
H18 C21 1_555 1_555
H19 C21 1_555 1_555
C22 C12 1_555 1_555
H20 C22 1_555 1_555
H21 C22 1_555 1_555
H22 C22 1_555 1_555
C23 O1 1_555 1_555
H23 C23 1_555 1_555
H24 C23 1_555 1_555
H25 C23 1_555 1_555
C3 C4 1_555 1_555
C12 C13 1_555 1_555
C14 C18 1_555 1_555
C19 C20 1_555 1_555

#END
