
#######################################################################
#
#                 Cambridge Crystallographic Data Centre
#                                CCDC 
#
#######################################################################
#
# If this CIF has been generated from an entry in the Cambridge 
# Structural Database, then it will include bibliographic, chemical, 
# crystal, experimental, refinement or atomic coordinate data resulting 
# from the CCDC's data processing and validation procedures.
#
#######################################################################

data_DEYGEU
_chemical_formula_moiety         'C22 H28 Br1 N1 O4'
_chemical_name_systematic        
(Z)-5-(4-Bromophenyl)-1,3-bis(t-butoxycarbonyl)-3-cyanopentene
_symmetry_cell_setting           orthorhombic
_symmetry_space_group_name_H-M   'P 21 21 21'
_symmetry_Int_Tables_number      19
_space_group_name_Hall           'P 2ac 2ab'
loop_
_symmetry_equiv_pos_site_id
_symmetry_equiv_pos_as_xyz
1 x,y,z
2 1/2+x,1/2-y,-z
3 -x,1/2+y,1/2-z
4 1/2-x,-y,1/2+z
_cell_length_a                   5.8517(3)
_cell_length_b                   18.9534(6)
_cell_length_c                   20.9196(6)
_cell_angle_alpha                90
_cell_angle_beta                 90
_cell_angle_gamma                90
_cell_volume                     2320.18
_exptl_crystal_colour            colorless
_exptl_crystal_description       needle
_cell_formula_units_Z            4
_exptl_crystal_recrystallization_method dichloromethane/hexane
loop_
_atom_site_label
_atom_site_type_symbol
_atom_site_fract_x
_atom_site_fract_y
_atom_site_fract_z
Br1 Br 1.41690(15) 0.13598(3) 0.44674(3)
O1 O 0.6866(5) 0.41137(14) 0.75558(14)
O2 O 0.6919(6) 0.37245(18) 0.96990(15)
O3 O 0.3840(5) 0.33956(15) 0.73841(14)
O4 O 0.4886(5) 0.34429(16) 0.88157(15)
N1 N 0.5177(8) 0.1827(2) 0.8171(2)
C1 C 0.5778(9) 0.3504(2) 0.75529(19)
C2 C 1.0912(9) 0.1809(2) 0.6468(2)
C3 C 0.9268(8) 0.3120(2) 0.8213(2)
C4 C 0.8932(9) 0.3377(2) 0.8803(2)
C5 C 0.6055(9) 0.2305(2) 0.7983(2)
C6 C 0.8574(8) 0.2683(2) 0.7086(2)
C7 C 0.9914(11) 0.1336(2) 0.6048(2)
C8 C 0.7447(8) 0.29065(19) 0.7734(2)
C9 C 1.2834(9) 0.1531(2) 0.5278(2)
C10 C 0.5714(8) 0.4788(2) 0.7382(2)
C11 C 0.9860(9) 0.1973(2) 0.7106(2)
C12 C 1.3854(10) 0.2019(2) 0.5673(2)
C13 C 0.4932(10) 0.3873(2) 1.0104(2)
C14 C 1.0884(12) 0.1194(2) 0.5454(2)
C15 C 0.3562(11) 0.4493(2) 0.9834(2)
C16 C 0.4698(10) 0.4745(2) 0.6715(2)
C17 C 0.3531(10) 0.3198(3) 1.0186(2)
C18 C 0.7683(10) 0.5305(2) 0.7409(3)
C19 C 0.3920(11) 0.4941(2) 0.7889(2)
C20 C 1.2866(10) 0.2145(2) 0.6267(2)
C21 C 0.6058(14) 0.4094(4) 1.0732(2)
C22 C 0.6680(8) 0.3515(2) 0.9090(2)
H1 H 1.0812 0.3065 0.8080
H2 H 1.0245 0.3477 0.9054
H3 H 0.8539 0.1104 0.6168
H4 H 1.5195 0.2263 0.5544
H5 H 1.0187 0.0864 0.5174
H6 H 1.3569 0.2477 0.6544
H7 H 0.7367 0.2654 0.6755
H8 H 0.9659 0.3056 0.6953
H9 H 1.1072 0.1994 0.7436
H10 H 0.8784 0.1592 0.7226
H11 H 0.4144 0.4935 1.0015
H12 H 0.1947 0.4438 0.9948
H13 H 0.3718 0.4504 0.9368
H14 H 0.5832 0.4902 0.6402
H15 H 0.3345 0.5048 0.6691
H16 H 0.4261 0.4256 0.6623
H17 H 0.2377 0.3170 0.9848
H18 H 0.2774 0.3205 1.0604
H19 H 0.4544 0.2788 1.0160
H20 H 0.7811 0.5497 0.7843
H21 H 0.7408 0.5690 0.7107
H22 H 0.9105 0.5062 0.7296
H23 H 0.2459 0.4732 0.7761
H24 H 0.3738 0.5453 0.7935
H25 H 0.4406 0.4739 0.8298
H26 H 0.6295 0.3678 1.1001
H27 H 0.5067 0.4431 1.0955
H28 H 0.7534 0.4318 1.0642
loop_
_geom_bond_atom_site_label_1
_geom_bond_atom_site_label_2
_geom_bond_site_symmetry_1
_geom_bond_site_symmetry_2
Br1 C9 1_555 1_555
O1 C1 1_555 1_555
O2 C13 1_555 1_555
O3 C1 1_555 1_555
O4 C22 1_555 1_555
N1 C5 1_555 1_555
C1 C8 1_555 1_555
C2 C7 1_555 1_555
C3 C4 1_555 1_555
C4 C22 1_555 1_555
C5 C8 1_555 1_555
C6 C8 1_555 1_555
C7 C14 1_555 1_555
C8 C3 1_555 1_555
C9 C12 1_555 1_555
C10 O1 1_555 1_555
C11 C2 1_555 1_555
C12 C20 1_555 1_555
C13 C15 1_555 1_555
C14 C9 1_555 1_555
C15 H11 1_555 1_555
C16 C10 1_555 1_555
C17 C13 1_555 1_555
C18 C10 1_555 1_555
C19 C10 1_555 1_555
C20 C2 1_555 1_555
C21 C13 1_555 1_555
C22 O2 1_555 1_555
H1 C3 1_555 1_555
H2 C4 1_555 1_555
H3 C7 1_555 1_555
H4 C12 1_555 1_555
H5 C14 1_555 1_555
H6 C20 1_555 1_555
H7 C6 1_555 1_555
H8 C6 1_555 1_555
H9 C11 1_555 1_555
H10 C11 1_555 1_555
H12 C15 1_555 1_555
H13 C15 1_555 1_555
H14 C16 1_555 1_555
H15 C16 1_555 1_555
H16 C16 1_555 1_555
H17 C17 1_555 1_555
H18 C17 1_555 1_555
H19 C17 1_555 1_555
H20 C18 1_555 1_555
H21 C18 1_555 1_555
H22 C18 1_555 1_555
H23 C19 1_555 1_555
H24 C19 1_555 1_555
H25 C19 1_555 1_555
H26 C21 1_555 1_555
H27 C21 1_555 1_555
H28 C21 1_555 1_555
C6 C11 1_555 1_555

#END
