
#######################################################################
#
#                 Cambridge Crystallographic Data Centre
#                                CCDC 
#
#######################################################################
#
# If this CIF has been generated from an entry in the Cambridge 
# Structural Database, then it will include bibliographic, chemical, 
# crystal, experimental, refinement or atomic coordinate data resulting 
# from the CCDC's data processing and validation procedures.
#
#######################################################################

data_DEYQEF
_chemical_compound_source        'aerial parts of Isodon tenuifolius'
_chemical_name_common            'Tenuifolin L'
_chemical_formula_moiety         'C23 H34 O8'
_chemical_name_systematic        
'1,3,7-Trihydroxy-17-methoxy-6,15-dioxokauran-11-yl acetate'
_symmetry_cell_setting           monoclinic
_symmetry_space_group_name_H-M   'C 2'
_symmetry_Int_Tables_number      5
_space_group_name_Hall           'C 2y'
loop_
_symmetry_equiv_pos_site_id
_symmetry_equiv_pos_as_xyz
1 x,y,z
2 -x,y,-z
3 1/2+x,1/2+y,z
4 1/2-x,1/2+y,-z
_cell_length_a                   25.4016(6)
_cell_length_b                   6.6022(2)
_cell_length_c                   14.2850(3)
_cell_angle_alpha                90
_cell_angle_beta                 116.2140(10)
_cell_angle_gamma                90
_cell_volume                     2149.29
_exptl_crystal_colour            colorless
_exptl_crystal_description       prism
_cell_formula_units_Z            4
loop_
_atom_site_label
_atom_site_type_symbol
_atom_site_fract_x
_atom_site_fract_y
_atom_site_fract_z
O1 O 0.99304(5) 0.3221(2) 0.73694(10)
O2 O 0.64933(5) 0.6040(2) 0.03337(10)
H1 H 0.6662 0.6468 -0.0017
O3 O 0.87110(5) 0.7143(2) 0.49978(9)
O4 O 0.68986(5) 0.2095(2) 0.36011(9)
O5 O 0.74972(5) 0.67706(19) 0.38294(9)
H2 H 0.7784 0.7494 0.4211
O6 O 0.80741(5) 0.2977(2) 0.09196(9)
H3 H 0.8360 0.3780 0.1166
O7 O 0.92226(5) 0.49791(19) 0.35724(9)
O8 O 0.88812(5) 0.5898(2) 0.18872(10)
C1 C 1.00981(8) 0.3298(4) 0.84623(14)
H4 H 1.0113 0.4712 0.8681
H5 H 1.0486 0.2679 0.8843
H6 H 0.9811 0.2555 0.8614
C2 C 0.93567(7) 0.4019(3) 0.67831(13)
H7 H 0.9335 0.5426 0.7003
H8 H 0.9064 0.3188 0.6891
C3 C 0.92366(7) 0.3972(3) 0.56347(13)
H9 H 0.9594 0.4426 0.5568
C4 C 0.87161(7) 0.5318(3) 0.49658(12)
C5 C 0.82055(7) 0.3963(3) 0.42331(12)
C6 C 0.76131(7) 0.4722(3) 0.41579(12)
H10 H 0.7605 0.4555 0.4847
C7 C 0.71500(7) 0.3376(3) 0.33491(13)
C8 C 0.70938(7) 0.3713(3) 0.22627(12)
H11 H 0.7118 0.5216 0.2206
C9 C 0.64908(7) 0.3135(3) 0.13557(13)
C10 C 0.65008(7) 0.3883(3) 0.03417(13)
H12 H 0.6140 0.3382 -0.0266
C11 C 0.90454(7) 0.1889(3) 0.51296(13)
H13 H 0.9244 0.0776 0.5639
C12 C 0.83825(7) 0.1904(3) 0.47911(12)
H14 H 0.8294 0.1837 0.5399
H15 H 0.8184 0.0770 0.4311
C13 C 0.82083(7) 0.3961(3) 0.31392(12)
H16 H 0.8184 0.5418 0.2931
C14 C 0.76696(7) 0.2887(3) 0.22245(12)
C15 C 0.70391(7) 0.3094(3) 0.02398(13)
H17 H 0.7017 0.1598 0.0185
H18 H 0.7034 0.3631 -0.0411
C16 C 0.76152(7) 0.3694(3) 0.11612(12)
H19 H 0.7636 0.5206 0.1197
C17 C 0.63190(8) 0.0880(3) 0.12441(14)
H20 H 0.5902 0.0739 0.0762
H21 H 0.6391 0.0334 0.1928
H22 H 0.6555 0.0132 0.0971
C18 C 0.60137(7) 0.4328(3) 0.15156(14)
H23 H 0.5643 0.4263 0.0877
H24 H 0.6136 0.5745 0.1675
H25 H 0.5960 0.3734 0.2096
C19 C 0.77151(7) 0.0566(3) 0.22655(13)
H26 H 0.7473 0.0008 0.1571
H27 H 0.7577 0.0044 0.2760
H28 H 0.8125 0.0164 0.2492
C20 C 0.88229(7) 0.3217(3) 0.32835(13)
H29 H 0.8784 0.2660 0.2605
C21 C 0.92157(7) 0.6141(3) 0.28015(14)
C22 C 0.96670(8) 0.7798(3) 0.31805(16)
H30 H 0.9986 0.7472 0.2997
H31 H 0.9824 0.7923 0.3940
H32 H 0.9485 0.9082 0.2852
C23 C 0.91317(7) 0.1648(3) 0.41389(13)
H33 H 0.9557 0.1703 0.4338
H34 H 0.8991 0.0286 0.3844
loop_
_geom_bond_atom_site_label_1
_geom_bond_atom_site_label_2
_geom_bond_site_symmetry_1
_geom_bond_site_symmetry_2
O1 C1 1_555 1_555
O2 H1 1_555 1_555
O3 C4 1_555 1_555
O4 C7 1_555 1_555
O5 H2 1_555 1_555
O6 H3 1_555 1_555
O7 C20 1_555 1_555
O8 C21 1_555 1_555
C1 H4 1_555 1_555
H5 C1 1_555 1_555
H6 C1 1_555 1_555
C2 O1 1_555 1_555
H7 C2 1_555 1_555
H8 C2 1_555 1_555
C3 C2 1_555 1_555
H9 C3 1_555 1_555
C4 C3 1_555 1_555
C5 C4 1_555 1_555
C6 O5 1_555 1_555
H10 C6 1_555 1_555
C7 C6 1_555 1_555
C8 C7 1_555 1_555
H11 C8 1_555 1_555
C9 C8 1_555 1_555
C10 O2 1_555 1_555
H12 C10 1_555 1_555
C11 C3 1_555 1_555
H13 C11 1_555 1_555
C12 C5 1_555 1_555
H14 C12 1_555 1_555
H15 C12 1_555 1_555
C13 C5 1_555 1_555
H16 C13 1_555 1_555
C14 C8 1_555 1_555
C15 C10 1_555 1_555
H17 C15 1_555 1_555
H18 C15 1_555 1_555
C16 O6 1_555 1_555
H19 C16 1_555 1_555
C17 C9 1_555 1_555
H20 C17 1_555 1_555
H21 C17 1_555 1_555
H22 C17 1_555 1_555
C18 C9 1_555 1_555
H23 C18 1_555 1_555
H24 C18 1_555 1_555
H25 C18 1_555 1_555
C19 C14 1_555 1_555
H26 C19 1_555 1_555
H27 C19 1_555 1_555
H28 C19 1_555 1_555
C20 C13 1_555 1_555
H29 C20 1_555 1_555
C21 O7 1_555 1_555
C22 C21 1_555 1_555
H30 C22 1_555 1_555
H31 C22 1_555 1_555
H32 C22 1_555 1_555
C23 C11 1_555 1_555
H33 C23 1_555 1_555
H34 C23 1_555 1_555
C5 C6 1_555 1_555
C9 C10 1_555 1_555
C11 C12 1_555 1_555
C13 C14 1_555 1_555
C14 C16 1_555 1_555
C15 C16 1_555 1_555
C20 C23 1_555 1_555

#END
