
#######################################################################
#
#                 Cambridge Crystallographic Data Centre
#                                CCDC 
#
#######################################################################
#
# If this CIF has been generated from an entry in the Cambridge 
# Structural Database, then it will include bibliographic, chemical, 
# crystal, experimental, refinement or atomic coordinate data resulting 
# from the CCDC's data processing and validation procedures.
#
#######################################################################

data_DEYQAB
_chemical_compound_source        'aerial parts of Isodon tenuifolius'
_chemical_name_common            'Isoabietenin A'
_chemical_formula_moiety         'C20 H28 O3'
_chemical_name_systematic        
1,11-Epoxyabi\h-8(14),9(11),12-triene-7,18-diol
_chemical_properties_biological  
'tested for inhibitory activity against NO production'
_symmetry_cell_setting           monoclinic
_symmetry_space_group_name_H-M   'P 21'
_symmetry_Int_Tables_number      4
_space_group_name_Hall           'P 2yb'
loop_
_symmetry_equiv_pos_site_id
_symmetry_equiv_pos_as_xyz
1 x,y,z
2 -x,1/2+y,-z
_cell_length_a                   10.2652(3)
_cell_length_b                   8.4425(3)
_cell_length_c                   19.5390(6)
_cell_angle_alpha                90
_cell_angle_beta                 96.6360(10)
_cell_angle_gamma                90
_cell_volume                     1681.98
_exptl_crystal_colour            colorless
_exptl_crystal_description       needle
_cell_formula_units_Z            4
loop_
_atom_site_label
_atom_site_type_symbol
_atom_site_fract_x
_atom_site_fract_y
_atom_site_fract_z
O1 O 0.23087(17) 0.5172(2) 0.70459(9)
H1 H 0.2682 0.4459 0.6841
O2 O 0.26020(17) 1.1919(2) 0.69360(9)
H2 H 0.3318 1.2083 0.7180
O3 O 0.56634(15) 0.7197(2) 0.55780(9)
C1 C 0.1219(2) 0.5774(3) 0.66010(13)
H3 H 0.0773 0.6594 0.6852
H4 H 0.0587 0.4904 0.6485
C2 C 0.1600(2) 0.6502(3) 0.59251(12)
C3 C 0.2527(2) 0.7929(3) 0.60925(12)
H5 H 0.3121 0.7607 0.6511
C4 C 0.3447(2) 0.8283(3) 0.55334(12)
C5 C 0.4482(2) 0.9292(3) 0.59132(11)
C6 C 0.5696(2) 0.8611(3) 0.59172(11)
C7 C 0.6797(2) 0.9273(3) 0.62975(12)
H6 H 0.7648 0.8845 0.6279
C8 C 0.6598(2) 1.0594(3) 0.67085(12)
C9 C 0.7766(2) 1.1281(3) 0.71776(13)
H7 H 0.7435 1.2212 0.7422
C10 C 0.8276(4) 1.0062(4) 0.77287(16)
H8 H 0.8587 0.9119 0.7505
H9 H 0.7565 0.9765 0.7998
H10 H 0.9000 1.0525 0.8035
C11 C 0.0284(2) 0.6900(3) 0.54971(14)
H11 H -0.0174 0.5916 0.5352
H12 H 0.0448 0.7512 0.5090
H13 H -0.0259 0.7525 0.5778
C12 C 0.4252(2) 1.0534(3) 0.63410(12)
C13 C 0.2826(2) 1.0972(3) 0.63564(12)
H14 H 0.2573 1.1638 0.5939
C14 C 0.1892(2) 0.9490(3) 0.62899(13)
H15 H 0.1538 0.9335 0.6735
H16 H 0.1143 0.9725 0.5939
C15 C 0.5341(2) 1.1206(3) 0.67357(12)
H17 H 0.5223 1.2087 0.7024
C16 C 0.4277(2) 0.6816(3) 0.53548(12)
H18 H 0.4164 0.6667 0.4844
C17 C 0.3834(2) 0.5309(3) 0.56902(12)
H19 H 0.4093 0.5338 0.6194
H20 H 0.4241 0.4368 0.5499
C18 C 0.2327(2) 0.5230(3) 0.55326(12)
H21 H 0.2026 0.4165 0.5658
H22 H 0.2084 0.5372 0.5031
C19 C 0.8866(3) 1.1868(4) 0.67833(16)
H23 H 0.9184 1.0992 0.6519
H24 H 0.9587 1.2272 0.7109
H25 H 0.8536 1.2718 0.6468
C20 C 0.2773(2) 0.9047(3) 0.48734(12)
H26 H 0.2335 1.0026 0.4990
H27 H 0.2122 0.8312 0.4646
H28 H 0.3429 0.9292 0.4563
O4 O 0.30015(18) -0.0197(2) 0.80145(9)
H29 H 0.2623 -0.0949 0.8192
O5 O -0.05810(15) 0.1458(2) 0.94106(8)
O6 O 0.24586(15) 0.6605(2) 0.82990(8)
H30 H 0.1754 0.6812 0.8052
C21 C 0.4026(2) 0.0399(3) 0.84997(13)
H31 H 0.4481 0.1264 0.8281
H32 H 0.4672 -0.0456 0.8619
C22 C 0.3552(2) 0.1033(3) 0.91694(12)
C23 C 0.2575(2) 0.2413(3) 0.90016(12)
H33 H 0.2015 0.2076 0.8573
C24 C 0.1607(2) 0.2648(3) 0.95471(12)
C25 C 0.0572(2) 0.3671(3) 0.91701(11)
C26 C -0.0626(2) 0.2926(3) 0.91137(11)
C27 C -0.1725(2) 0.3607(3) 0.87403(11)
H34 H -0.2563 0.3120 0.8718
C28 C -0.1545(2) 0.5036(3) 0.83996(11)
C29 C -0.2700(2) 0.5892(3) 0.79883(13)
H35 H -0.2605 0.7043 0.8103
C30 C -0.4043(2) 0.5382(4) 0.81689(14)
H36 H -0.4721 0.6059 0.7926
H37 H -0.4067 0.5481 0.8667
H38 H -0.4204 0.4277 0.8030
C31 C 0.2831(2) -0.0323(3) 0.95183(12)
H39 H 0.3180 -0.1354 0.9382
H40 H 0.3028 -0.0224 1.0025
C32 C 0.1330(2) -0.0316(3) 0.93296(12)
H41 H 0.1109 -0.0259 0.8824
H42 H 0.0942 -0.1295 0.9498
C33 C 0.0805(2) 0.1124(3) 0.96696(12)
H43 H 0.0865 0.0926 1.0177
C34 C -0.2652(3) 0.5740(3) 0.72084(13)
H44 H -0.2804 0.4635 0.7069
H45 H -0.1788 0.6077 0.7095
H46 H -0.3331 0.6412 0.6964
C35 C -0.0292(2) 0.5702(3) 0.84068(12)
H47 H -0.0179 0.6640 0.8152
C36 C 0.0790(2) 0.4997(3) 0.87864(11)
C37 C 0.2209(2) 0.3338(3) 1.02405(12)
H48 H 0.2692 0.4308 1.0159
H49 H 0.2809 0.2562 1.0480
H50 H 0.1509 0.3583 1.0525
C38 C 0.3157(2) 0.4030(3) 0.88203(12)
H51 H 0.3459 0.3943 0.8359
H52 H 0.3938 0.4242 0.9154
C39 C 0.2214(2) 0.5493(3) 0.88167(12)
H53 H 0.2435 0.6041 0.9269
C40 C 0.4804(2) 0.1492(3) 0.96358(13)
H54 H 0.5291 0.0532 0.9788
H55 H 0.4567 0.2069 1.0039
H56 H 0.5353 0.2167 0.9378
loop_
_geom_bond_atom_site_label_1
_geom_bond_atom_site_label_2
_geom_bond_site_symmetry_1
_geom_bond_site_symmetry_2
O1 H1 1_555 1_555
O2 H2 1_555 1_555
O3 C6 1_555 1_555
C1 O1 1_555 1_555
H3 C1 1_555 1_555
H4 C1 1_555 1_555
C2 C1 1_555 1_555
C3 C2 1_555 1_555
H5 C3 1_555 1_555
C4 C3 1_555 1_555
C5 C4 1_555 1_555
C6 C5 1_555 1_555
C7 C6 1_555 1_555
H6 C7 1_555 1_555
C8 C7 1_555 1_555
C9 C8 1_555 1_555
H7 C9 1_555 1_555
C10 C9 1_555 1_555
H8 C10 1_555 1_555
H9 C10 1_555 1_555
H10 C10 1_555 1_555
C11 C2 1_555 1_555
H11 C11 1_555 1_555
H12 C11 1_555 1_555
H13 C11 1_555 1_555
C12 C5 1_555 1_555
C13 O2 1_555 1_555
H14 C13 1_555 1_555
C14 C3 1_555 1_555
H15 C14 1_555 1_555
H16 C14 1_555 1_555
C15 C8 1_555 1_555
H17 C15 1_555 1_555
C16 O3 1_555 1_555
H18 C16 1_555 1_555
C17 C16 1_555 1_555
H19 C17 1_555 1_555
H20 C17 1_555 1_555
C18 C2 1_555 1_555
H21 C18 1_555 1_555
H22 C18 1_555 1_555
C19 C9 1_555 1_555
H23 C19 1_555 1_555
H24 C19 1_555 1_555
H25 C19 1_555 1_555
C20 C4 1_555 1_555
H26 C20 1_555 1_555
H27 C20 1_555 1_555
H28 C20 1_555 1_555
O4 H29 1_555 1_555
O5 C26 1_555 1_555
O6 H30 1_555 1_555
C21 O4 1_555 1_555
H31 C21 1_555 1_555
H32 C21 1_555 1_555
C22 C21 1_555 1_555
C23 C22 1_555 1_555
H33 C23 1_555 1_555
C24 C23 1_555 1_555
C25 C24 1_555 1_555
C26 C25 1_555 1_555
C27 C26 1_555 1_555
H34 C27 1_555 1_555
C28 C27 1_555 1_555
C29 C28 1_555 1_555
H35 C29 1_555 1_555
C30 C29 1_555 1_555
H36 C30 1_555 1_555
H37 C30 1_555 1_555
H38 C30 1_555 1_555
C31 C22 1_555 1_555
H39 C31 1_555 1_555
H40 C31 1_555 1_555
C32 C31 1_555 1_555
H41 C32 1_555 1_555
H42 C32 1_555 1_555
C33 O5 1_555 1_555
H43 C33 1_555 1_555
C34 C29 1_555 1_555
H44 C34 1_555 1_555
H45 C34 1_555 1_555
H46 C34 1_555 1_555
C35 C28 1_555 1_555
H47 C35 1_555 1_555
C36 C25 1_555 1_555
C37 C24 1_555 1_555
H48 C37 1_555 1_555
H49 C37 1_555 1_555
H50 C37 1_555 1_555
C38 C23 1_555 1_555
H51 C38 1_555 1_555
H52 C38 1_555 1_555
C39 O6 1_555 1_555
H53 C39 1_555 1_555
C40 C22 1_555 1_555
H54 C40 1_555 1_555
H55 C40 1_555 1_555
H56 C40 1_555 1_555
C4 C16 1_555 1_555
C12 C13 1_555 1_555
C12 C15 1_555 1_555
C13 C14 1_555 1_555
C17 C18 1_555 1_555
C24 C33 1_555 1_555
C32 C33 1_555 1_555
C35 C36 1_555 1_555
C36 C39 1_555 1_555
C38 C39 1_555 1_555

#END
