
#######################################################################
#
#                 Cambridge Crystallographic Data Centre
#                                CCDC 
#
#######################################################################
#
# If this CIF has been generated from an entry in the Cambridge 
# Structural Database, then it will include bibliographic, chemical, 
# crystal, experimental, refinement or atomic coordinate data resulting 
# from the CCDC's data processing and validation procedures.
#
#######################################################################

data_DEYTIL
_chemical_formula_moiety         'C21 H18 O3'
_chemical_name_systematic        3-(2-Furyl)-1,5-diphenylpentane-1,5-dione
_symmetry_cell_setting           monoclinic
_symmetry_space_group_name_H-M   'P 21/c'
_symmetry_Int_Tables_number      14
_space_group_name_Hall           '-P 2ybc'
loop_
_symmetry_equiv_pos_site_id
_symmetry_equiv_pos_as_xyz
1 x,y,z
2 -x,1/2+y,1/2-z
3 -x,-y,-z
4 x,1/2-y,1/2+z
_cell_length_a                   13.598(6)
_cell_length_b                   12.066(6)
_cell_length_c                   10.218(5)
_cell_angle_alpha                90
_cell_angle_beta                 91.264(6)
_cell_angle_gamma                90
_cell_volume                     1676.09
_exptl_crystal_colour            colorless
_exptl_crystal_description       block
_cell_formula_units_Z            4
_exptl_crystal_recrystallization_method ethanol
loop_
_atom_site_label
_atom_site_type_symbol
_atom_site_fract_x
_atom_site_fract_y
_atom_site_fract_z
O1 O 0.36509(13) 0.90464(15) 0.3884(2)
O2 O 0.09151(13) 0.83103(17) 0.6092(2)
O3 O 0.26445(15) 0.57783(17) 0.6106(2)
C1 C 0.23793(17) 0.7318(2) 0.4645(3)
H1 H 0.2617 0.7775 0.5379
C2 C 0.32210(18) 0.7145(2) 0.3704(3)
H2 H 0.3672 0.6606 0.4088
H3 H 0.2952 0.6826 0.2901
C3 C 0.37982(18) 0.8163(2) 0.3358(3)
C4 C 0.45760(17) 0.8051(2) 0.2350(3)
C5 C 0.4837(2) 0.7052(2) 0.1827(3)
H4 H 0.4516 0.6412 0.2092
C6 C 0.5563(2) 0.6977(3) 0.0919(3)
H5 H 0.5740 0.6287 0.0592
C7 C 0.6022(2) 0.7901(3) 0.0497(3)
H6 H 0.6515 0.7853 -0.0118
C8 C 0.5753(2) 0.8904(3) 0.0985(4)
H7 H 0.6058 0.9545 0.0689
C9 C 0.5039(2) 0.8981(2) 0.1907(3)
H8 H 0.4867 0.9672 0.2235
C10 C 0.15104(18) 0.7902(2) 0.3985(3)
H9 H 0.1745 0.8560 0.3544
H10 H 0.1223 0.7415 0.3325
C11 C 0.07224(18) 0.8234(2) 0.4933(3)
C12 C -0.02828(18) 0.8475(2) 0.4427(3)
C13 C -0.0965(2) 0.8895(2) 0.5285(3)
H11 H -0.0784 0.9022 0.6155
C14 C -0.1910(2) 0.9125(3) 0.4855(4)
H12 H -0.2359 0.9422 0.5433
C15 C -0.2189(2) 0.8924(3) 0.3604(4)
H13 H -0.2832 0.9072 0.3326
C16 C -0.1534(2) 0.8505(3) 0.2744(4)
H14 H -0.1729 0.8361 0.1883
C17 C -0.0580(2) 0.8296(3) 0.3155(3)
H15 H -0.0130 0.8029 0.2559
C18 C 0.20565(19) 0.6229(2) 0.5163(3)
C19 C 0.1343(3) 0.5527(3) 0.4896(4)
H16 H 0.0836 0.5629 0.4282
C20 C 0.1481(3) 0.4581(3) 0.5711(5)
H17 H 0.1087 0.3951 0.5730
C21 C 0.2258(3) 0.4771(3) 0.6417(3)
H18 H 0.2519 0.4292 0.7047
loop_
_geom_bond_atom_site_label_1
_geom_bond_atom_site_label_2
_geom_bond_site_symmetry_1
_geom_bond_site_symmetry_2
O1 C3 1_555 1_555
O2 C11 1_555 1_555
O3 C18 1_555 1_555
C1 H1 1_555 1_555
C2 C1 1_555 1_555
H2 C2 1_555 1_555
H3 C2 1_555 1_555
C3 C2 1_555 1_555
C4 C3 1_555 1_555
C5 C4 1_555 1_555
H4 C5 1_555 1_555
C6 C5 1_555 1_555
H5 C6 1_555 1_555
C7 C6 1_555 1_555
H6 C7 1_555 1_555
C8 C7 1_555 1_555
H7 C8 1_555 1_555
C9 C4 1_555 1_555
H8 C9 1_555 1_555
C10 C1 1_555 1_555
H9 C10 1_555 1_555
H10 C10 1_555 1_555
C11 C10 1_555 1_555
C12 C11 1_555 1_555
C13 C12 1_555 1_555
H11 C13 1_555 1_555
C14 C13 1_555 1_555
H12 C14 1_555 1_555
C15 C14 1_555 1_555
H13 C15 1_555 1_555
C16 C15 1_555 1_555
H14 C16 1_555 1_555
C17 C12 1_555 1_555
H15 C17 1_555 1_555
C18 C1 1_555 1_555
C19 C18 1_555 1_555
H16 C19 1_555 1_555
C20 C19 1_555 1_555
H17 C20 1_555 1_555
C21 O3 1_555 1_555
H18 C21 1_555 1_555
C8 C9 1_555 1_555
C16 C17 1_555 1_555
C20 C21 1_555 1_555

#END
