
#######################################################################
#
#                 Cambridge Crystallographic Data Centre
#                                CCDC 
#
#######################################################################
#
# If this CIF has been generated from an entry in the Cambridge 
# Structural Database, then it will include bibliographic, chemical, 
# crystal, experimental, refinement or atomic coordinate data resulting 
# from the CCDC's data processing and validation procedures.
#
#######################################################################

data_DEYXOW
_chemical_formula_moiety         'C12 H10 Br2 O3,0.25(C2 H4 Cl2)'
_chemical_name_systematic        
"5',7'-Dibromo-6'-hydroxy-2',3'-dihydrospiro[cyclopropane-1,1'-indene]-2-carboxylic acid 1,2-dichloroethane solvate"
_symmetry_cell_setting           monoclinic
_symmetry_space_group_name_H-M   'P 21'
_symmetry_Int_Tables_number      4
_space_group_name_Hall           'P 2yb'
loop_
_symmetry_equiv_pos_site_id
_symmetry_equiv_pos_as_xyz
1 x,y,z
2 -x,1/2+y,-z
_cell_length_a                   7.3477(6)
_cell_length_b                   32.069(3)
_cell_length_c                   22.4998(19)
_cell_angle_alpha                90
_cell_angle_beta                 99.0290(10)
_cell_angle_gamma                90
_cell_volume                     5236.01
_exptl_crystal_colour            colorless
_exptl_crystal_description       needle
_cell_formula_units_Z            16
loop_
_atom_site_label
_atom_site_type_symbol
_atom_site_fract_x
_atom_site_fract_y
_atom_site_fract_z
C1 C 0.8226(10) 0.7254(2) -0.1694(3)
C2 C 0.8435(12) 0.6853(2) -0.1311(3)
H1 H 0.7229 0.6763 -0.1211
H2 H 0.9300 0.6897 -0.0932
C3 C 0.9201(11) 0.6526(2) -0.1711(4)
H3 H 1.0558 0.6505 -0.1607
H4 H 0.8656 0.6248 -0.1662
C4 C 0.8662(10) 0.6681(2) -0.2337(3)
C5 C 0.8631(10) 0.6465(2) -0.2867(3)
H5 H 0.8990 0.6180 -0.2860
C6 C 0.8069(10) 0.6668(2) -0.3414(3)
C7 C 0.7608(10) 0.7094(2) -0.3429(3)
C8 C 0.7683(9) 0.7308(2) -0.2892(3)
C9 C 0.8140(10) 0.7102(2) -0.2332(3)
C10 C 0.9108(10) 0.7646(3) -0.1457(4)
H6 H 0.9608 0.7832 -0.1743
H7 H 0.9831 0.7640 -0.1046
C11 C 0.7053(11) 0.7609(2) -0.1513(3)
H8 H 0.6343 0.7767 -0.1857
C12 C 0.6147(10) 0.7575(2) -0.0977(3)
O1 O 0.7116(8) 0.72727(17) -0.3977(2)
H9 H 0.7007 0.7531 -0.3936
O2 O 0.7065(8) 0.7517(2) -0.0470(2)
O3 O 0.4355(7) 0.76036(19) -0.1066(3)
H10 H 0.3954 0.7577 -0.1434
Br1 Br 0.79104(12) 0.63727(3) -0.41436(4)
Br2 Br 0.71250(9) 0.78871(2) -0.29482(3)
C13 C 0.1832(9) 0.7506(2) -0.4084(3)
C14 C 0.1486(13) 0.7222(3) -0.4632(4)
H11 H 0.1883 0.7358 -0.4985
H12 H 0.0161 0.7152 -0.4732
C15 C 0.2630(12) 0.6829(3) -0.4456(4)
H13 H 0.1986 0.6576 -0.4631
H14 H 0.3853 0.6847 -0.4586
C16 C 0.2798(10) 0.6832(2) -0.3785(3)
C17 C 0.3379(10) 0.6508(2) -0.3393(4)
H15 H 0.3657 0.6243 -0.3545
C18 C 0.3552(9) 0.6573(2) -0.2776(3)
C19 C 0.3143(9) 0.6957(2) -0.2539(3)
C20 C 0.2608(9) 0.7285(2) -0.2944(3)
C21 C 0.2370(9) 0.7225(2) -0.3565(4)
C22 C 0.0803(9) 0.7913(3) -0.4105(3)
H16 H 0.0313 0.7998 -0.3738
H17 H 0.0007 0.7987 -0.4488
C23 C 0.2853(10) 0.7936(2) -0.4090(3)
H18 H 0.3577 0.8023 -0.3695
C24 C 0.3706(10) 0.8032(2) -0.4616(4)
O4 O 0.3360(8) 0.69995(16) -0.1938(2)
H19 H 0.3171 0.7249 -0.1851
O5 O 0.2802(7) 0.80774(19) -0.5136(2)
O6 O 0.5497(7) 0.80534(18) -0.4511(3)
H20 H 0.5932 0.7819 -0.4400
Br3 Br 0.43407(12) 0.61359(2) -0.22350(4)
Br4 Br 0.22225(9) 0.78140(2) -0.26010(3)
C25 C 0.4888(10) 0.9332(2) -0.3299(3)
C26 C 0.4635(11) 0.9740(2) -0.3668(3)
H21 H 0.5024 0.9702 -0.4067
H22 H 0.3331 0.9831 -0.3728
C27 C 0.5857(10) 1.0056(2) -0.3294(4)
H23 H 0.7088 1.0070 -0.3420
H24 H 0.5292 1.0337 -0.3328
C28 C 0.5988(9) 0.9888(2) -0.2659(3)
C29 C 0.6555(10) 1.0109(2) -0.2133(3)
H25 H 0.6915 1.0393 -0.2146
C30 C 0.6585(10) 0.9906(2) -0.1588(3)
C31 C 0.6146(9) 0.9478(2) -0.1557(3)
C32 C 0.5581(9) 0.9274(2) -0.2100(3)
C33 C 0.5457(9) 0.9474(2) -0.2655(3)
C34 C 0.5570(10) 0.8936(2) -0.3539(4)
H26 H 0.6398 0.8758 -0.3255
H27 H 0.5854 0.8940 -0.3955
C35 C 0.3570(10) 0.8957(2) -0.3461(3)
H28 H 0.3215 0.8797 -0.3115
C36 C 0.2146(9) 0.8991(2) -0.4006(3)
O7 O 0.6235(7) 0.92967(16) -0.1013(2)
H29 H 0.5571 0.9430 -0.0806
O8 O 0.2499(8) 0.90603(19) -0.4514(2)
O9 O 0.0457(7) 0.89511(18) -0.3895(2)
H30 H -0.0285 0.8969 -0.4218
Br5 Br 0.72845(12) 1.02002(3) -0.08557(4)
Br6 Br 0.50994(9) 0.86913(2) -0.20369(3)
C37 C 0.1004(10) 0.9069(2) -0.0884(3)
C38 C 0.1255(11) 0.9358(2) -0.0334(3)
H31 H 0.0049 0.9426 -0.0215
H32 H 0.2045 0.9225 0.0011
C39 C 0.2160(12) 0.9745(3) -0.0529(3)
H33 H 0.1684 0.9998 -0.0352
H34 H 0.3513 0.9733 -0.0408
C40 C 0.1658(10) 0.9747(2) -0.1199(3)
C41 C 0.1747(10) 1.0067(2) -0.1600(3)
H35 H 0.2145 1.0335 -0.1455
C42 C 0.1263(10) 1.0002(2) -0.2211(4)
C43 C 0.0671(9) 0.9609(2) -0.2432(3)
C44 C 0.0591(9) 0.9290(2) -0.2025(3)
C45 C 0.1014(9) 0.9353(2) -0.1411(3)
C46 C -0.0031(10) 0.8669(2) -0.0849(3)
H36 H -0.0897 0.8582 -0.1210
H37 H -0.0440 0.8601 -0.0461
C47 C 0.2009(10) 0.8640(2) -0.0876(3)
H38 H 0.2328 0.8548 -0.1272
C48 C 0.3374(10) 0.8538(2) -0.0351(3)
O10 O 0.0211(7) 0.95694(17) -0.3042(2)
H39 H 0.1045 0.9674 -0.3211
O11 O 0.3012(7) 0.85029(17) 0.0162(2)
O12 O 0.5058(7) 0.85201(18) -0.0478(2)
H40 H 0.5771 0.8426 -0.0180
Br7 Br 0.12962(12) 1.04489(2) -0.27562(4)
Br8 Br -0.01453(9) 0.87571(2) -0.23637(3)
C49 C 0.7919(10) 0.7379(2) 0.3481(3)
C50 C 0.8148(11) 0.7083(3) 0.4017(3)
H41 H 0.9460 0.7008 0.4138
H42 H 0.7694 0.7214 0.4365
C51 C 0.7010(11) 0.6698(2) 0.3809(4)
H43 H 0.7645 0.6440 0.3970
H44 H 0.5781 0.6710 0.3937
C52 C 0.6850(9) 0.6717(2) 0.3133(3)
C53 C 0.6196(10) 0.6413(2) 0.2713(4)
H45 H 0.5844 0.6146 0.2840
C54 C 0.6064(10) 0.6506(2) 0.2100(3)
C55 C 0.6509(10) 0.6896(2) 0.1896(3)
C56 C 0.7121(9) 0.7205(2) 0.2327(3)
C57 C 0.7326(9) 0.7114(2) 0.2940(3)
C58 C 0.9014(10) 0.7779(2) 0.3522(3)
H46 H 0.9520 0.7868 0.3160
H47 H 0.9817 0.7840 0.3908
C59 C 0.6954(9) 0.7816(2) 0.3506(3)
H48 H 0.6247 0.7915 0.3116
C60 C 0.6163(10) 0.7924(2) 0.4035(4)
O13 O 0.6293(8) 0.69605(16) 0.1300(2)
H49 H 0.6432 0.7215 0.1232
O14 O 0.7086(7) 0.79881(18) 0.4541(2)
O15 O 0.4353(7) 0.79543(17) 0.3928(2)
H50 H 0.3964 0.8027 0.4244
Br9 Br 0.52191(11) 0.60878(2) 0.15308(4)
Br10 Br 0.75569(10) 0.77382(2) 0.20202(3)
C61 C 0.1472(9) 0.7250(2) 0.1063(3)
C62 C 0.1158(12) 0.6867(3) 0.0661(3)
H51 H 0.2327 0.6777 0.0534
H52 H 0.0252 0.6929 0.0298
C63 C 0.0420(10) 0.6527(2) 0.1041(3)
H53 H -0.0938 0.6504 0.0944
H54 H 0.0974 0.6252 0.0976
C64 C 0.0996(9) 0.6673(2) 0.1668(3)
C65 C 0.1057(9) 0.6435(2) 0.2200(4)
H55 H 0.0721 0.6149 0.2181
C66 C 0.1608(10) 0.6624(2) 0.2741(3)
C67 C 0.2121(10) 0.7043(2) 0.2791(3)
C68 C 0.2078(9) 0.7271(2) 0.2263(3)
C69 C 0.1562(9) 0.7092(2) 0.1691(3)
C70 C 0.0676(10) 0.7663(2) 0.0857(3)
H56 H 0.0212 0.7843 0.1158
H57 H -0.0037 0.7680 0.0446
C71 C 0.2719(9) 0.7603(2) 0.0914(3)
H58 H 0.3471 0.7742 0.1268
C72 C 0.3610(11) 0.7568(2) 0.0370(3)
O16 O 0.2672(7) 0.72022(17) 0.3350(2)
H59 H 0.3020 0.7450 0.3321
O17 O 0.2703(7) 0.75040(18) -0.0139(2)
O18 O 0.5397(7) 0.76170(18) 0.0469(2)
H60 H 0.5835 0.7547 0.0160
Br11 Br 0.17669(11) 0.63038(2) 0.34616(4)
Br12 Br 0.26525(9) 0.78496(2) 0.23591(3)
C73 C 0.9417(10) 0.9166(2) 0.1526(3)
C74 C 0.9103(10) 0.9471(2) 0.0994(3)
H61 H 1.0289 0.9544 0.0864
H62 H 0.8284 0.9345 0.0649
C75 C 0.8222(11) 0.9852(3) 0.1215(4)
H63 H 0.6865 0.9842 0.1101
H64 H 0.8690 1.0109 0.1046
C76 C 0.8763(9) 0.9840(2) 0.1890(3)
C77 C 0.8682(9) 1.0147(2) 0.2304(4)
H65 H 0.8275 1.0418 0.2177
C78 C 0.9196(9) 1.0063(2) 0.2914(4)
C79 C 0.9761(9) 0.9668(2) 0.3112(3)
C80 C 0.9880(10) 0.9358(2) 0.2687(3)
C81 C 0.9435(9) 0.9435(2) 0.2075(3)
C82 C 1.0533(10) 0.8781(2) 0.1473(3)
H66 H 1.1432 0.8698 0.1828
H67 H 1.0931 0.8725 0.1080
C83 C 0.8521(10) 0.8733(2) 0.1511(3)
H68 H 0.8246 0.8631 0.1908
C84 C 0.7155(10) 0.8618(2) 0.0989(4)
O19 O 1.0223(7) 0.96002(17) 0.3718(2)
H69 H 0.9441 0.9714 0.3900
O20 O 0.7537(7) 0.85658(18) 0.0480(2)
O21 O 0.5454(7) 0.85898(17) 0.1111(2)
H70 H 0.5484 0.8576 0.1485
Br13 Br 0.91198(12) 1.04905(2) 0.34863(4)
Br14 Br 1.05901(10) 0.88152(2) 0.29915(3)
C85 C 0.5553(9) 0.9366(2) 0.3949(3)
C86 C 0.5793(11) 0.9761(2) 0.4332(3)
H71 H 0.7099 0.9850 0.4402
H72 H 0.5394 0.9712 0.4727
C87 C 0.4583(10) 1.0092(2) 0.3975(3)
H73 H 0.3348 1.0104 0.4098
H74 H 0.5163 1.0371 0.4026
C88 C 0.4465(10) 0.9938(2) 0.3329(4)
C89 C 0.3868(10) 1.0155(2) 0.2808(3)
H75 H 0.3470 1.0436 0.2827
C90 C 0.3846(10) 0.9965(2) 0.2258(3)
C91 C 0.4339(9) 0.9547(2) 0.2214(3)
C92 C 0.4892(9) 0.9329(2) 0.2748(3)
C93 C 0.4989(9) 0.9519(2) 0.3314(3)
C94 C 0.4829(9) 0.8969(2) 0.4182(4)
H76 H 0.4003 0.8794 0.3893
H77 H 0.4530 0.8971 0.4596
C95 C 0.6854(10) 0.8989(2) 0.4111(3)
H78 H 0.7200 0.8831 0.3762
C96 C 0.8241(10) 0.9007(2) 0.4640(3)
O22 O 0.4272(7) 0.93760(16) 0.1663(2)
H79 H 0.4961 0.9166 0.1686
O23 O 0.7938(8) 0.9074(2) 0.5158(3)
O24 O 0.9936(7) 0.89448(19) 0.4530(2)
H80 H 1.0677 0.8953 0.4854
Br15 Br 0.31408(11) 1.02694(2) 0.15359(4)
Br16 Br 0.53856(9) 0.87491(2) 0.26646(3)
C97 C -0.0574(15) 1.0195(4) -0.4488(5)
H81 H -0.0069 1.0221 -0.4055
H82 H -0.1321 0.9937 -0.4542
C98 C 0.0962(14) 1.0161(3) -0.4835(4)
H83 H 0.0461 1.0166 -0.5270
H84 H 0.1583 0.9889 -0.4745
Cl1 Cl -0.2024(5) 1.06334(15) -0.47130(19)
Cl2 Cl 0.2609(4) 1.05657(11) -0.46737(15)
C101 C 0.458(5) 1.0793(11) 0.0219(16)
H89 H 0.4961 1.0566 0.0511
H90 H 0.4732 1.0704 -0.0191
C102 C 0.546(5) 1.1159(18) 0.0382(19)
H91 H 0.5265 1.1251 0.0787
H92 H 0.5076 1.1383 0.0087
Cl5 Cl 0.2516(7) 1.09674(15) 0.0255(2)
Cl6 Cl 0.7816(6) 1.10054(12) 0.03756(17)
C99? C 0.422(3) 1.1391(9) 0.0128(10)
H85? H 0.4481 1.1360 -0.0288
H86? H 0.3592 1.1663 0.0149
C100? C 0.603(3) 1.1413(7) 0.0542(9)
H87? H 0.5810 1.1375 0.0961
H88? H 0.6561 1.1695 0.0511
Cl3? Cl 0.2516(7) 1.09674(15) 0.0255(2)
Cl4? Cl 0.7816(6) 1.10054(12) 0.03756(17)
loop_
_geom_bond_atom_site_label_1
_geom_bond_atom_site_label_2
_geom_bond_site_symmetry_1
_geom_bond_site_symmetry_2
C1 C2 1_555 1_555
C2 H1 1_555 1_555
H2 C2 1_555 1_555
C3 C2 1_555 1_555
H3 C3 1_555 1_555
H4 C3 1_555 1_555
C4 C3 1_555 1_555
C5 C4 1_555 1_555
H5 C5 1_555 1_555
C6 C5 1_555 1_555
C7 C6 1_555 1_555
C8 C7 1_555 1_555
C9 C1 1_555 1_555
C10 C1 1_555 1_555
H6 C10 1_555 1_555
H7 C10 1_555 1_555
C11 C1 1_555 1_555
H8 C11 1_555 1_555
C12 C11 1_555 1_555
O1 C7 1_555 1_555
H9 O1 1_555 1_555
O2 C12 1_555 1_555
O3 C12 1_555 1_555
H10 O3 1_555 1_555
Br1 C6 1_555 1_555
Br2 C8 1_555 1_555
C13 C14 1_555 1_555
C14 H11 1_555 1_555
H12 C14 1_555 1_555
C15 C14 1_555 1_555
H13 C15 1_555 1_555
H14 C15 1_555 1_555
C16 C15 1_555 1_555
C17 C16 1_555 1_555
H15 C17 1_555 1_555
C18 C17 1_555 1_555
C19 C18 1_555 1_555
C20 C19 1_555 1_555
C21 C13 1_555 1_555
C22 C13 1_555 1_555
H16 C22 1_555 1_555
H17 C22 1_555 1_555
C23 C13 1_555 1_555
H18 C23 1_555 1_555
C24 C23 1_555 1_555
O4 C19 1_555 1_555
H19 O4 1_555 1_555
O5 C24 1_555 1_555
O6 C24 1_555 1_555
H20 O6 1_555 1_555
Br3 C18 1_555 1_555
Br4 C20 1_555 1_555
C25 C26 1_555 1_555
C26 H21 1_555 1_555
H22 C26 1_555 1_555
C27 C26 1_555 1_555
H23 C27 1_555 1_555
H24 C27 1_555 1_555
C28 C27 1_555 1_555
C29 C28 1_555 1_555
H25 C29 1_555 1_555
C30 C29 1_555 1_555
C31 C30 1_555 1_555
C32 C31 1_555 1_555
C33 C25 1_555 1_555
C34 C25 1_555 1_555
H26 C34 1_555 1_555
H27 C34 1_555 1_555
C35 C25 1_555 1_555
H28 C35 1_555 1_555
C36 C35 1_555 1_555
O7 C31 1_555 1_555
H29 O7 1_555 1_555
O8 C36 1_555 1_555
O9 C36 1_555 1_555
H30 O9 1_555 1_555
Br5 C30 1_555 1_555
Br6 C32 1_555 1_555
C37 C38 1_555 1_555
C38 H31 1_555 1_555
H32 C38 1_555 1_555
C39 C38 1_555 1_555
H33 C39 1_555 1_555
H34 C39 1_555 1_555
C40 C39 1_555 1_555
C41 C40 1_555 1_555
H35 C41 1_555 1_555
C42 C41 1_555 1_555
C43 C42 1_555 1_555
C44 C43 1_555 1_555
C45 C37 1_555 1_555
C46 C37 1_555 1_555
H36 C46 1_555 1_555
H37 C46 1_555 1_555
C47 C37 1_555 1_555
H38 C47 1_555 1_555
C48 C47 1_555 1_555
O10 C43 1_555 1_555
H39 O10 1_555 1_555
O11 C48 1_555 1_555
O12 C48 1_555 1_555
H40 O12 1_555 1_555
Br7 C42 1_555 1_555
Br8 C44 1_555 1_555
C49 C50 1_555 1_555
C50 H41 1_555 1_555
H42 C50 1_555 1_555
C51 C50 1_555 1_555
H43 C51 1_555 1_555
H44 C51 1_555 1_555
C52 C51 1_555 1_555
C53 C52 1_555 1_555
H45 C53 1_555 1_555
C54 C53 1_555 1_555
C55 C54 1_555 1_555
C56 C55 1_555 1_555
C57 C49 1_555 1_555
C58 C49 1_555 1_555
H46 C58 1_555 1_555
H47 C58 1_555 1_555
C59 C49 1_555 1_555
H48 C59 1_555 1_555
C60 C59 1_555 1_555
O13 C55 1_555 1_555
H49 O13 1_555 1_555
O14 C60 1_555 1_555
O15 C60 1_555 1_555
H50 O15 1_555 1_555
Br9 C54 1_555 1_555
Br10 C56 1_555 1_555
C61 C62 1_555 1_555
C62 H51 1_555 1_555
H52 C62 1_555 1_555
C63 C62 1_555 1_555
H53 C63 1_555 1_555
H54 C63 1_555 1_555
C64 C63 1_555 1_555
C65 C64 1_555 1_555
H55 C65 1_555 1_555
C66 C65 1_555 1_555
C67 C66 1_555 1_555
C68 C67 1_555 1_555
C69 C61 1_555 1_555
C70 C61 1_555 1_555
H56 C70 1_555 1_555
H57 C70 1_555 1_555
C71 C61 1_555 1_555
H58 C71 1_555 1_555
C72 C71 1_555 1_555
O16 C67 1_555 1_555
H59 O16 1_555 1_555
O17 C72 1_555 1_555
O18 C72 1_555 1_555
H60 O18 1_555 1_555
Br11 C66 1_555 1_555
Br12 C68 1_555 1_555
C73 C74 1_555 1_555
C74 H61 1_555 1_555
H62 C74 1_555 1_555
C75 C74 1_555 1_555
H63 C75 1_555 1_555
H64 C75 1_555 1_555
C76 C75 1_555 1_555
C77 C76 1_555 1_555
H65 C77 1_555 1_555
C78 C77 1_555 1_555
C79 C78 1_555 1_555
C80 C79 1_555 1_555
C81 C73 1_555 1_555
C82 C73 1_555 1_555
H66 C82 1_555 1_555
H67 C82 1_555 1_555
C83 C73 1_555 1_555
H68 C83 1_555 1_555
C84 C83 1_555 1_555
O19 C79 1_555 1_555
H69 O19 1_555 1_555
O20 C84 1_555 1_555
O21 C84 1_555 1_555
H70 O21 1_555 1_555
Br13 C78 1_555 1_555
Br14 C80 1_555 1_555
C85 C86 1_555 1_555
C86 H71 1_555 1_555
H72 C86 1_555 1_555
C87 C86 1_555 1_555
H73 C87 1_555 1_555
H74 C87 1_555 1_555
C88 C87 1_555 1_555
C89 C88 1_555 1_555
H75 C89 1_555 1_555
C90 C89 1_555 1_555
C91 C90 1_555 1_555
C92 C91 1_555 1_555
C93 C85 1_555 1_555
C94 C85 1_555 1_555
H76 C94 1_555 1_555
H77 C94 1_555 1_555
C95 C85 1_555 1_555
H78 C95 1_555 1_555
C96 C95 1_555 1_555
O22 C91 1_555 1_555
H79 O22 1_555 1_555
O23 C96 1_555 1_555
O24 C96 1_555 1_555
H80 O24 1_555 1_555
Br15 C90 1_555 1_555
Br16 C92 1_555 1_555
C97 H81 1_555 1_555
H82 C97 1_555 1_555
C98 C97 1_555 1_555
H83 C98 1_555 1_555
H84 C98 1_555 1_555
Cl1 C97 1_555 1_555
Cl2 C98 1_555 1_555
C101 H89 1_555 1_555
H90 C101 1_555 1_555
C102 C101 1_555 1_555
H91 C102 1_555 1_555
H92 C102 1_555 1_555
Cl5 C101 1_555 1_555
Cl6 C102 1_555 1_555
C4 C9 1_555 1_555
C8 C9 1_555 1_555
C10 C11 1_555 1_555
C16 C21 1_555 1_555
C20 C21 1_555 1_555
C22 C23 1_555 1_555
C28 C33 1_555 1_555
C32 C33 1_555 1_555
C34 C35 1_555 1_555
C40 C45 1_555 1_555
C44 C45 1_555 1_555
C46 C47 1_555 1_555
C52 C57 1_555 1_555
C56 C57 1_555 1_555
C58 C59 1_555 1_555
C64 C69 1_555 1_555
C68 C69 1_555 1_555
C70 C71 1_555 1_555
C76 C81 1_555 1_555
C80 C81 1_555 1_555
C82 C83 1_555 1_555
C88 C93 1_555 1_555
C92 C93 1_555 1_555
C94 C95 1_555 1_555

#END
