
#######################################################################
#
#                 Cambridge Crystallographic Data Centre
#                                CCDC 
#
#######################################################################
#
# If this CIF has been generated from an entry in the Cambridge 
# Structural Database, then it will include bibliographic, chemical, 
# crystal, experimental, refinement or atomic coordinate data resulting 
# from the CCDC's data processing and validation procedures.
#
#######################################################################

data_DEZBIV
_chemical_formula_moiety         'C1 H5 N6 1+,C1 N5 O2 1-'
_chemical_name_systematic        
'2H-Tetrazol-5-ylhydrazinium 5-nitrotetrazol-1-ide'
_symmetry_cell_setting           triclinic
_symmetry_space_group_name_H-M   'P -1'
_symmetry_Int_Tables_number      2
_space_group_name_Hall           '-P 1'
loop_
_symmetry_equiv_pos_site_id
_symmetry_equiv_pos_as_xyz
1 x,y,z
2 -x,-y,-z
_cell_length_a                   7.108(2)
_cell_length_b                   7.3045(19)
_cell_length_c                   8.780(2)
_cell_angle_alpha                68.351(7)
_cell_angle_beta                 86.953(11)
_cell_angle_gamma                80.308(10)
_cell_volume                     417.638
_exptl_crystal_colour            colorless
_cell_formula_units_Z            2
loop_
_atom_site_label
_atom_site_type_symbol
_atom_site_fract_x
_atom_site_fract_y
_atom_site_fract_z
O1 O 0.51126(13) -0.09978(13) 0.19965(12)
O2 O 0.70505(14) 0.11662(15) 0.14865(13)
N1 N 0.47684(14) 0.31283(14) 0.31654(12)
N2 N 0.33618(14) 0.35165(14) 0.41324(12)
N3 N 0.22671(14) 0.21121(14) 0.45450(12)
N4 N 0.29253(13) 0.07738(13) 0.38514(11)
N5 N 0.56161(14) 0.04756(15) 0.20962(12)
C1 C 0.44279(15) 0.14690(15) 0.30324(13)
N6 N 0.88683(13) 0.56858(14) 0.26809(11)
N7 N 0.76717(14) 0.54447(14) 0.16639(12)
N8 N 0.77292(15) 0.66534(14) 0.01432(12)
N9 N 0.90378(14) 0.77780(14) 0.00835(12)
N10 N 1.11294(14) 0.79495(15) 0.20467(11)
N11 N 1.13431(14) 0.74397(14) 0.37769(11)
C2 C 0.96895(15) 0.71550(15) 0.16379(13)
H1 H 0.678(2) 0.460(2) 0.201(2)
H2 H 1.105(2) 0.931(2) 0.150(2)
H3 H 1.209(2) 0.615(2) 0.421(2)
H4 H 1.015(2) 0.747(2) 0.4309(19)
H5 H 1.201(2) 0.843(2) 0.3909(18)
loop_
_geom_bond_atom_site_label_1
_geom_bond_atom_site_label_2
_geom_bond_site_symmetry_1
_geom_bond_site_symmetry_2
O1 N5 1_555 1_555
O2 N5 1_555 1_555
N1 N2 1_555 1_555
N2 N3 1_555 1_555
N3 N4 1_555 1_555
N4 C1 1_555 1_555
N5 C1 1_555 1_555
C1 N1 1_555 1_555
N6 N7 1_555 1_555
N7 N8 1_555 1_555
N8 N9 1_555 1_555
N9 C2 1_555 1_555
N10 N11 1_555 1_555
N11 H3 1_555 1_555
C2 N6 1_555 1_555
H1 N7 1_555 1_555
H2 N10 1_555 1_555
H4 N11 1_555 1_555
H5 N11 1_555 1_555
N10 C2 1_555 1_555

#END
