
#######################################################################
#
#                 Cambridge Crystallographic Data Centre
#                                CCDC 
#
#######################################################################
#
# If this CIF has been generated from an entry in the Cambridge 
# Structural Database, then it will include bibliographic, chemical, 
# crystal, experimental, refinement or atomic coordinate data resulting 
# from the CCDC's data processing and validation procedures.
#
#######################################################################

data_DEZHAS
_chemical_formula_moiety         'C9 H13 N1 O1 S1'
_chemical_name_systematic        3-(t-Butyl)-sulfinylpyridine
_symmetry_cell_setting           orthorhombic
_symmetry_space_group_name_H-M   'P 21 21 21'
_symmetry_Int_Tables_number      19
_space_group_name_Hall           'P 2ac 2ab'
loop_
_symmetry_equiv_pos_site_id
_symmetry_equiv_pos_as_xyz
1 x,y,z
2 1/2-x,-y,1/2+z
3 -x,1/2+y,1/2-z
4 1/2+x,1/2-y,-z
_cell_length_a                   6.2116(9)
_cell_length_b                   9.9401(14)
_cell_length_c                   16.310(2)
_cell_angle_alpha                90
_cell_angle_beta                 90
_cell_angle_gamma                90
_cell_volume                     1007.04
_exptl_crystal_colour            colorless
_exptl_crystal_description       block
_chemical_melting_point          92deg.C
_cell_formula_units_Z            4
_exptl_crystal_recrystallization_method 'ethyl acetate/ether'
loop_
_atom_site_label
_atom_site_type_symbol
_atom_site_fract_x
_atom_site_fract_y
_atom_site_fract_z
S1 S -0.05480(7) 0.59598(5) 0.56305(3)
O1 O -0.2915(2) 0.60281(15) 0.57925(8)
N1 N 0.3488(3) 0.3786(2) 0.70413(10)
C1 C 0.0472(3) 0.47107(18) 0.63173(10)
C2 C -0.0913(3) 0.3859(2) 0.67194(11)
H1 H -0.2388 0.3895 0.6623
C3 C -0.0062(4) 0.2950(2) 0.72693(13)
H2 H -0.0953 0.2347 0.7543
C4 C 0.2119(4) 0.2947(2) 0.74068(13)
H3 H 0.2672 0.2323 0.7776
C5 C 0.2642(3) 0.4658(2) 0.65095(12)
H4 H 0.3561 0.5265 0.6253
C6 C -0.0218(3) 0.51043(18) 0.46303(10)
C7 C -0.1312(3) 0.6062(2) 0.40292(12)
H5 H -0.1136 0.5730 0.3481
H6 H -0.0670 0.6938 0.4073
H7 H -0.2818 0.6121 0.4156
C8 C -0.1340(4) 0.3749(2) 0.46466(14)
H8 H -0.1428 0.3397 0.4099
H9 H -0.2764 0.3854 0.4866
H10 H -0.0537 0.3138 0.4985
C9 C 0.2175(3) 0.4999(2) 0.44501(13)
H11 H 0.2833 0.4394 0.4835
H12 H 0.2825 0.5872 0.4499
H13 H 0.2380 0.4665 0.3903
loop_
_geom_bond_atom_site_label_1
_geom_bond_atom_site_label_2
_geom_bond_site_symmetry_1
_geom_bond_site_symmetry_2
S1 O1 1_555 1_555
N1 C4 1_555 1_555
C1 S1 1_555 1_555
C2 C1 1_555 1_555
H1 C2 1_555 1_555
C3 C2 1_555 1_555
H2 C3 1_555 1_555
C4 C3 1_555 1_555
H3 C4 1_555 1_555
C5 N1 1_555 1_555
H4 C5 1_555 1_555
C6 S1 1_555 1_555
C7 C6 1_555 1_555
H5 C7 1_555 1_555
H6 C7 1_555 1_555
H7 C7 1_555 1_555
C8 C6 1_555 1_555
H8 C8 1_555 1_555
H9 C8 1_555 1_555
H10 C8 1_555 1_555
C9 C6 1_555 1_555
H11 C9 1_555 1_555
H12 C9 1_555 1_555
H13 C9 1_555 1_555
C1 C5 1_555 1_555

#END
