
#######################################################################
#
#                 Cambridge Crystallographic Data Centre
#                                CCDC 
#
#######################################################################
#
# If this CIF has been generated from an entry in the Cambridge 
# Structural Database, then it will include bibliographic, chemical, 
# crystal, experimental, refinement or atomic coordinate data resulting 
# from the CCDC's data processing and validation procedures.
#
#######################################################################

data_DEZJUO
_chemical_formula_moiety         'C30 H27 N1'
_chemical_name_systematic        
2-Phenyl-4-p-tolyl-8-(4-methylbenzylidene)-5,6,7,8-tetrahydroquinoline
_symmetry_cell_setting           triclinic
_symmetry_space_group_name_H-M   'P -1'
_symmetry_Int_Tables_number      2
_space_group_name_Hall           '-P 1'
loop_
_symmetry_equiv_pos_site_id
_symmetry_equiv_pos_as_xyz
1 x,y,z
2 -x,-y,-z
_cell_length_a                   10.0240(17)
_cell_length_b                   10.7729(18)
_cell_length_c                   11.1615(19)
_cell_angle_alpha                81.470(2)
_cell_angle_beta                 89.328(2)
_cell_angle_gamma                69.720(2)
_cell_volume                     1117.06
_chemical_melting_point          '388-419 K'
_cell_formula_units_Z            2
loop_
_atom_site_label
_atom_site_type_symbol
_atom_site_fract_x
_atom_site_fract_y
_atom_site_fract_z
C1 C 0.08434(19) -0.08736(17) 0.18092(15)
C2 C -0.0139(2) 0.01859(18) 0.22779(16)
H1 H -0.0731 0.0017 0.2879
C3 C -0.02404(19) 0.14955(18) 0.18526(16)
C4 C 0.06889(19) 0.17143(17) 0.09704(16)
C5 C 0.16761(19) 0.05919(17) 0.05608(15)
C6 C 0.27200(19) 0.07441(17) -0.03464(16)
C7 C 0.3036(2) 0.20387(18) -0.04991(17)
H2 H 0.2745 0.2506 -0.1317
H3 H 0.4056 0.1822 -0.0400
C8 C 0.2294(2) 0.29683(18) 0.03931(18)
H4 H 0.2781 0.2630 0.1183
H5 H 0.2343 0.3850 0.0126
C9 C 0.0749(2) 0.30797(17) 0.04972(17)
H6 H 0.0286 0.3703 0.1046
H7 H 0.0255 0.3412 -0.0291
C10 C 0.32974(19) -0.02442(18) -0.10114(16)
H8 H 0.2985 -0.0965 -0.0821
C11 C 0.43166(19) -0.04047(18) -0.19721(15)
C12 C 0.4490(2) -0.14467(18) -0.26360(17)
H9 H 0.3946 -0.1990 -0.2456
C13 C 0.5445(2) -0.16997(19) -0.35539(17)
H10 H 0.5518 -0.2399 -0.3979
C14 C 0.6293(2) -0.0932(2) -0.38500(17)
C15 C 0.6139(2) 0.0093(2) -0.31936(17)
H11 H 0.6699 0.0623 -0.3370
C16 C 0.5184(2) 0.03592(19) -0.22842(17)
H12 H 0.5115 0.1064 -0.1868
C17 C 0.7346(2) -0.1215(2) -0.48352(18)
H13 H 0.7742 -0.0516 -0.4983
H14 H 0.6873 -0.1253 -0.5564
H15 H 0.8095 -0.2057 -0.4586
C18 C 0.0978(2) -0.22920(18) 0.22310(15)
C19 C 0.2214(2) -0.33221(19) 0.20258(18)
H16 H 0.2952 -0.3116 0.1635
C20 C 0.2362(3) -0.4640(2) 0.2393(2)
H17 H 0.3194 -0.5316 0.2245
C21 C 0.1283(3) -0.4964(2) 0.2978(2)
H18 H 0.1389 -0.5857 0.3231
C22 C 0.0051(3) -0.3965(2) 0.3185(2)
H19 H -0.0684 -0.4180 0.3574
C23 C -0.0101(2) -0.2637(2) 0.28146(17)
H20 H -0.0938 -0.1965 0.2960
C24 C -0.13120(19) 0.26155(18) 0.23604(17)
C25 C -0.2296(2) 0.36810(19) 0.16196(18)
H21 H -0.2305 0.3692 0.0785
C26 C -0.3262(2) 0.47269(19) 0.2105(2)
H22 H -0.3921 0.5422 0.1591
C27 C -0.3270(2) 0.4761(2) 0.3334(2)
C28 C -0.2315(2) 0.3688(2) 0.4078(2)
H23 H -0.2316 0.3678 0.4913
C29 C -0.1356(2) 0.2627(2) 0.36035(18)
H24 H -0.0731 0.1912 0.4125
C30 C -0.4246(3) 0.5953(2) 0.3850(2)
H25 H -0.4182 0.5758 0.4719
H26 H -0.5208 0.6144 0.3568
H27 H -0.3969 0.6716 0.3591
N1 N 0.17371(16) -0.06686(14) 0.09711(13)
loop_
_geom_bond_atom_site_label_1
_geom_bond_atom_site_label_2
_geom_bond_site_symmetry_1
_geom_bond_site_symmetry_2
C1 C2 1_555 1_555
C2 H1 1_555 1_555
C3 C2 1_555 1_555
C4 C3 1_555 1_555
C5 C4 1_555 1_555
C6 C5 1_555 1_555
C7 C6 1_555 1_555
H2 C7 1_555 1_555
H3 C7 1_555 1_555
C8 C7 1_555 1_555
H4 C8 1_555 1_555
H5 C8 1_555 1_555
C9 C4 1_555 1_555
H6 C9 1_555 1_555
H7 C9 1_555 1_555
C10 C6 1_555 1_555
H8 C10 1_555 1_555
C11 C10 1_555 1_555
C12 C11 1_555 1_555
H9 C12 1_555 1_555
C13 C12 1_555 1_555
H10 C13 1_555 1_555
C14 C13 1_555 1_555
C15 C14 1_555 1_555
H11 C15 1_555 1_555
C16 C11 1_555 1_555
H12 C16 1_555 1_555
C17 C14 1_555 1_555
H13 C17 1_555 1_555
H14 C17 1_555 1_555
H15 C17 1_555 1_555
C18 C1 1_555 1_555
C19 C18 1_555 1_555
H16 C19 1_555 1_555
C20 C19 1_555 1_555
H17 C20 1_555 1_555
C21 C20 1_555 1_555
H18 C21 1_555 1_555
C22 C21 1_555 1_555
H19 C22 1_555 1_555
C23 C18 1_555 1_555
H20 C23 1_555 1_555
C24 C3 1_555 1_555
C25 C24 1_555 1_555
H21 C25 1_555 1_555
C26 C25 1_555 1_555
H22 C26 1_555 1_555
C27 C26 1_555 1_555
C28 C27 1_555 1_555
H23 C28 1_555 1_555
C29 C24 1_555 1_555
H24 C29 1_555 1_555
C30 C27 1_555 1_555
H25 C30 1_555 1_555
H26 C30 1_555 1_555
H27 C30 1_555 1_555
N1 C1 1_555 1_555
C5 N1 1_555 1_555
C8 C9 1_555 1_555
C15 C16 1_555 1_555
C22 C23 1_555 1_555
C28 C29 1_555 1_555

#END
