
#######################################################################
#
#                 Cambridge Crystallographic Data Centre
#                                CCDC 
#
#######################################################################
#
# If this CIF has been generated from an entry in the Cambridge 
# Structural Database, then it will include bibliographic, chemical, 
# crystal, experimental, refinement or atomic coordinate data resulting 
# from the CCDC's data processing and validation procedures.
#
#######################################################################

data_DEZLIE
_chemical_formula_moiety         'C27 H25 Cl1 O6'
_chemical_name_systematic        
'anti-Dibenzyl 3-(2-chlorophenyl)-2-hydroxy-2-(2-oxopropyl)succinate'
_symmetry_cell_setting           triclinic
_symmetry_space_group_name_H-M   'P 1'
_symmetry_Int_Tables_number      1
_space_group_name_Hall           'P 1'
loop_
_symmetry_equiv_pos_site_id
_symmetry_equiv_pos_as_xyz
1 x,y,z
_cell_length_a                   5.7585(11)
_cell_length_b                   12.377(2)
_cell_length_c                   17.297(3)
_cell_angle_alpha                97.499(19)
_cell_angle_beta                 97.56(2)
_cell_angle_gamma                103.09(2)
_cell_volume                     1173.82
_exptl_crystal_colour            colorless
_exptl_crystal_description       block
_chemical_melting_point          36-38deg.C
_cell_formula_units_Z            2
loop_
_atom_site_label
_atom_site_type_symbol
_atom_site_fract_x
_atom_site_fract_y
_atom_site_fract_z
Cl1 Cl 0.3154(3) 0.70280(14) 0.84106(10)
O1 O 0.4751(7) 1.0287(3) 0.7219(3)
O2 O 0.2235(6) 0.9231(3) 0.6163(2)
O3 O 0.6740(7) 0.8247(3) 0.5933(2)
H1 H 0.8122 0.8291 0.6166
O4 O 0.4933(9) 0.5721(4) 0.5085(3)
O5 O 0.8337(6) 0.6753(3) 0.6702(2)
O6 O 0.4552(6) 0.5895(3) 0.6847(2)
C1 C 0.6280(10) 0.8493(4) 0.7741(3)
C2 C 0.5910(11) 0.7954(5) 0.8397(3)
C3 C 0.7738(11) 0.8127(5) 0.9052(4)
H3 H 0.7468 0.7755 0.9484
C4 C 0.9940(12) 0.8851(6) 0.9052(4)
H4 H 1.1175 0.8974 0.9491
C5 C 1.0367(11) 0.9395(5) 0.8426(4)
H5 H 1.1881 0.9886 0.8435
C6 C 0.8567(10) 0.9218(5) 0.7783(3)
H6 H 0.8878 0.9597 0.7356
C7 C 0.3880(10) 0.9386(5) 0.6814(3)
C8 C 0.4359(9) 0.8281(4) 0.7008(3)
H7 H 0.2842 0.7837 0.7136
C9 C 0.1596(10) 1.0252(5) 0.5981(4)
H8 H 0.1453 1.0705 0.6473
H9 H 0.0012 1.0047 0.5639
C10 C 0.3422(10) 1.0961(5) 0.5574(3)
C11 C 0.3416(11) 1.2078(5) 0.5581(3)
H10 H 0.2336 1.2386 0.5848
C12 C 0.5018(12) 1.2751(5) 0.5192(4)
H11 H 0.5015 1.3511 0.5201
C13 C 0.6580(11) 1.2309(5) 0.4800(4)
H12 H 0.7666 1.2766 0.4545
C14 C 0.6564(11) 1.1182(5) 0.4780(4)
H13 H 0.7616 1.0868 0.4502
C15 C 0.4996(10) 1.0528(5) 0.5171(4)
H14 H 0.5004 0.9767 0.5161
C16 C 0.5019(9) 0.7548(4) 0.6286(3)
C17 C 0.2790(9) 0.6971(4) 0.5660(3)
H15 H 0.1411 0.6747 0.5931
H16 H 0.2430 0.7524 0.5335
C18 C 0.2995(11) 0.5947(5) 0.5116(3)
C19 C 0.0670(11) 0.5224(6) 0.4654(4)
H17 H 0.1000 0.4719 0.4227
H18 H -0.0297 0.5694 0.4435
H19 H -0.0207 0.4788 0.4998
C20 C 0.6200(9) 0.6686(4) 0.6618(3)
C21 C 0.5520(10) 0.5100(5) 0.7250(4)
H20 H 0.6487 0.5482 0.7762
H21 H 0.6571 0.4781 0.6933
C22 C 0.3488(10) 0.4183(4) 0.7370(3)
C23 C 0.1144(11) 0.4002(5) 0.6973(4)
H22 H 0.0771 0.4498 0.6635
C24 C -0.0662(11) 0.3093(5) 0.7067(4)
H23 H -0.2242 0.2977 0.6792
C25 C -0.0143(11) 0.2362(5) 0.7563(4)
H24 H -0.1371 0.1750 0.7626
C26 C 0.2132(12) 0.2522(5) 0.7961(4)
H25 H 0.2480 0.2024 0.8300
C27 C 0.3985(12) 0.3442(5) 0.7865(4)
H26 H 0.5563 0.3549 0.8139
Cl2 Cl 0.2476(3) 0.69921(14) 0.33851(10)
O7 O 0.0710(7) 0.8611(3) 0.0950(2)
O8 O 0.3651(7) 0.9861(3) 0.1793(2)
O9 O 0.5728(6) 0.7820(3) 0.0774(2)
H2 H 0.7149 0.7860 0.0967
O10 O 0.4408(10) 0.5274(4) 0.0102(3)
O11 O 0.7630(7) 0.6496(3) 0.1678(2)
O12 O 0.3945(6) 0.5611(3) 0.1869(2)
C28 C 0.5356(10) 0.8322(5) 0.2571(3)
C29 C 0.5170(11) 0.7916(5) 0.3273(3)
C30 C 0.7021(12) 0.8180(5) 0.3906(4)
H27 H 0.6832 0.7876 0.4370
C31 C 0.9177(12) 0.8909(6) 0.3841(4)
H28 H 1.0464 0.9104 0.4269
C32 C 0.9456(11) 0.9347(5) 0.3163(4)
H29 H 1.0931 0.9835 0.3126
C33 C 0.7567(11) 0.9071(5) 0.2534(3)
H30 H 0.7760 0.9387 0.2074
C34 C 0.3385(9) 0.7925(4) 0.1846(3)
H31 H 0.1991 0.7446 0.2019
C35 C 0.2431(10) 0.8807(5) 0.1472(3)
C36 C 0.2772(12) 1.0750(5) 0.1452(4)
H32 H 0.2983 1.1398 0.1870
H33 H 0.1039 1.0473 0.1245
C37 C 0.4090(10) 1.1127(4) 0.0793(3)
C38 C 0.3804(12) 1.2114(5) 0.0549(4)
H34 H 0.2778 1.2502 0.0782
C39 C 0.4982(14) 1.2540(6) -0.0026(4)
H35 H 0.4810 1.3226 -0.0173
C40 C 0.6449(13) 1.1936(6) -0.0390(4)
H36 H 0.7237 1.2203 -0.0796
C41 C 0.6719(13) 1.0955(6) -0.0147(4)
H37 H 0.7723 1.0557 -0.0385
C42 C 0.5559(11) 1.0538(5) 0.0435(4)
H38 H 0.5756 0.9860 0.0591
C43 C 0.4150(9) 0.7148(4) 0.1178(3)
C44 C 0.1965(10) 0.6457(5) 0.0561(3)
H39 H 0.0657 0.6146 0.0839
H40 H 0.1392 0.6965 0.0234
C45 C 0.2462(13) 0.5507(5) 0.0025(4)
C46 C 0.0357(13) 0.4865(6) -0.0591(4)
H41 H 0.0879 0.4337 -0.0953
H42 H -0.0276 0.5384 -0.0882
H43 H -0.0895 0.4458 -0.0339
C47 C 0.5461(10) 0.6394(4) 0.1585(3)
C48 C 0.5004(11) 0.4899(5) 0.2330(4)
H44 H 0.5972 0.5345 0.2825
H45 H 0.6064 0.4553 0.2034
C49 C 0.2990(10) 0.4001(5) 0.2504(3)
C50 C 0.0709(11) 0.3709(5) 0.2059(4)
H46 H 0.0362 0.4090 0.1639
C51 C -0.1096(11) 0.2848(5) 0.2228(4)
H47 H -0.2657 0.2657 0.1927
C52 C -0.0575(13) 0.2282(5) 0.2836(4)
H48 H -0.1769 0.1692 0.2946
C53 C 0.1664(13) 0.2577(6) 0.3276(4)
H49 H 0.2006 0.2196 0.3696
C54 C 0.3474(11) 0.3437(5) 0.3118(4)
H50 H 0.5021 0.3632 0.3429
loop_
_geom_bond_atom_site_label_1
_geom_bond_atom_site_label_2
_geom_bond_site_symmetry_1
_geom_bond_site_symmetry_2
Cl1 C2 1_555 1_555
Cl2 C29 1_555 1_555
O1 C7 1_555 1_555
O2 C7 1_555 1_555
O3 H1 1_555 1_555
O4 C18 1_555 1_555
O5 C20 1_555 1_555
O6 C20 1_555 1_555
O7 C35 1_555 1_555
O8 C35 1_555 1_555
O9 H2 1_555 1_555
O10 C45 1_555 1_555
O11 C47 1_555 1_555
O12 C47 1_555 1_555
C1 C2 1_555 1_555
C2 C3 1_555 1_555
C3 H3 1_555 1_555
C4 C3 1_555 1_555
H4 C4 1_555 1_555
C5 C4 1_555 1_555
H5 C5 1_555 1_555
C6 C1 1_555 1_555
H6 C6 1_555 1_555
C7 C8 1_555 1_555
C8 C1 1_555 1_555
H7 C8 1_555 1_555
C9 O2 1_555 1_555
H8 C9 1_555 1_555
H9 C9 1_555 1_555
C10 C9 1_555 1_555
C11 C10 1_555 1_555
H10 C11 1_555 1_555
C12 C11 1_555 1_555
H11 C12 1_555 1_555
C13 C12 1_555 1_555
H12 C13 1_555 1_555
C14 C13 1_555 1_555
H13 C14 1_555 1_555
C15 C10 1_555 1_555
H14 C15 1_555 1_555
C16 O3 1_555 1_555
C17 C16 1_555 1_555
H15 C17 1_555 1_555
H16 C17 1_555 1_555
C18 C17 1_555 1_555
C19 C18 1_555 1_555
H17 C19 1_555 1_555
H18 C19 1_555 1_555
H19 C19 1_555 1_555
C20 C16 1_555 1_555
C21 O6 1_555 1_555
H20 C21 1_555 1_555
H21 C21 1_555 1_555
C22 C21 1_555 1_555
C23 C22 1_555 1_555
H22 C23 1_555 1_555
C24 C23 1_555 1_555
H23 C24 1_555 1_555
C25 C24 1_555 1_555
H24 C25 1_555 1_555
C26 C25 1_555 1_555
H25 C26 1_555 1_555
C27 C22 1_555 1_555
H26 C27 1_555 1_555
C28 C29 1_555 1_555
C29 C30 1_555 1_555
C30 H27 1_555 1_555
C31 C30 1_555 1_555
H28 C31 1_555 1_555
C32 C31 1_555 1_555
H29 C32 1_555 1_555
C33 C28 1_555 1_555
H30 C33 1_555 1_555
C34 C28 1_555 1_555
H31 C34 1_555 1_555
C35 C34 1_555 1_555
C36 O8 1_555 1_555
H32 C36 1_555 1_555
H33 C36 1_555 1_555
C37 C36 1_555 1_555
C38 C37 1_555 1_555
H34 C38 1_555 1_555
C39 C38 1_555 1_555
H35 C39 1_555 1_555
C40 C39 1_555 1_555
H36 C40 1_555 1_555
C41 C40 1_555 1_555
H37 C41 1_555 1_555
C42 C37 1_555 1_555
H38 C42 1_555 1_555
C43 O9 1_555 1_555
C44 C43 1_555 1_555
H39 C44 1_555 1_555
H40 C44 1_555 1_555
C45 C44 1_555 1_555
C46 C45 1_555 1_555
H41 C46 1_555 1_555
H42 C46 1_555 1_555
H43 C46 1_555 1_555
C47 C43 1_555 1_555
C48 O12 1_555 1_555
H44 C48 1_555 1_555
H45 C48 1_555 1_555
C49 C48 1_555 1_555
C50 C49 1_555 1_555
H46 C50 1_555 1_555
C51 C50 1_555 1_555
H47 C51 1_555 1_555
C52 C51 1_555 1_555
H48 C52 1_555 1_555
C53 C52 1_555 1_555
H49 C53 1_555 1_555
C54 C49 1_555 1_555
H50 C54 1_555 1_555
C5 C6 1_555 1_555
C8 C16 1_555 1_555
C14 C15 1_555 1_555
C26 C27 1_555 1_555
C32 C33 1_555 1_555
C34 C43 1_555 1_555
C41 C42 1_555 1_555
C53 C54 1_555 1_555

#END
