
#######################################################################
#
#                 Cambridge Crystallographic Data Centre
#                                CCDC 
#
#######################################################################
#
# If this CIF has been generated from an entry in the Cambridge 
# Structural Database, then it will include bibliographic, chemical, 
# crystal, experimental, refinement or atomic coordinate data resulting 
# from the CCDC's data processing and validation procedures.
#
#######################################################################

data_DEZPAB
_chemical_formula_moiety         'C24 H23 F1'
_chemical_name_systematic        
3-(2-(3-Fluorophenyl)-1-phenylvinyl)-1,2,4,5-tetramethylbenzene
_symmetry_cell_setting           triclinic
_symmetry_space_group_name_H-M   'P -1'
_symmetry_Int_Tables_number      2
_space_group_name_Hall           '-P 1'
loop_
_symmetry_equiv_pos_site_id
_symmetry_equiv_pos_as_xyz
1 x,y,z
2 -x,-y,-z
_cell_length_a                   7.376(3)
_cell_length_b                   11.191(4)
_cell_length_c                   11.652(4)
_cell_angle_alpha                80.957(5)
_cell_angle_beta                 80.697(5)
_cell_angle_gamma                80.763(5)
_cell_volume                     928.313
_cell_formula_units_Z            2
loop_
_atom_site_label
_atom_site_type_symbol
_atom_site_fract_x
_atom_site_fract_y
_atom_site_fract_z
F1 F 0.6781(6) 0.2787(3) 0.0923(3)
C1 C 0.1390(4) 0.5818(3) 0.5743(2)
H1 H 0.1979 0.5047 0.5597
C2 C 0.0176(5) 0.5945(4) 0.6770(3)
H2 H -0.0042 0.5256 0.7305
C3 C -0.0705(4) 0.7066(4) 0.7009(2)
H3 H -0.1512 0.7141 0.7703
C4 C -0.0393(4) 0.8073(3) 0.6222(3)
H4 H -0.0996 0.8839 0.6376
C5 C 0.0812(4) 0.7961(3) 0.5197(2)
H5 H 0.1012 0.8659 0.4671
C6 C 0.1737(3) 0.6838(2) 0.49280(19)
C7 C 0.3055(3) 0.6788(2) 0.3813(2)
C8 C 0.3554(3) 0.7986(2) 0.3157(2)
C9 C 0.4963(3) 0.8492(2) 0.3506(2)
C10 C 0.5408(4) 0.9616(2) 0.2932(3)
C11 C 0.4441(4) 1.0188(2) 0.2029(3)
H6 H 0.4740 1.0939 0.1646
C12 C 0.3055(4) 0.9704(2) 0.1665(2)
C13 C 0.2592(3) 0.8578(2) 0.2240(2)
C14 C 0.6006(4) 0.7811(3) 0.4475(3)
H7 H 0.5292 0.7214 0.4937
H8 H 0.6212 0.8376 0.4965
H9 H 0.7177 0.7409 0.4141
C15 C 0.6908(5) 1.0208(3) 0.3281(4)
H10 H 0.6550 1.0394 0.4070
H11 H 0.7074 1.0947 0.2758
H12 H 0.8050 0.9657 0.3237
C16 C 0.2071(6) 1.0398(3) 0.0665(3)
H13 H 0.2149 0.9882 0.0069
H14 H 0.2649 1.1109 0.0339
H15 H 0.0792 1.0642 0.0954
C17 C 0.1105(4) 0.7996(3) 0.1874(3)
H16 H 0.1621 0.7572 0.1214
H17 H 0.0115 0.8618 0.1658
H18 H 0.0633 0.7428 0.2515
C18 C 0.3737(3) 0.5725(2) 0.3421(2)
H19 H 0.3321 0.5043 0.3891
C19 C 0.5048(3) 0.5455(2) 0.2361(2)
C20 C 0.5312(4) 0.4255(2) 0.2123(2)
H20 H 0.4675 0.3679 0.2621
C21 C 0.6498(4) 0.3914(3) 0.1167(3)
C22 C 0.7473(4) 0.4704(3) 0.0406(3)
H21 H 0.8263 0.4460 -0.0248
C23 C 0.7237(4) 0.5872(3) 0.0649(3)
H22 H 0.7870 0.6445 0.0144
C24 C 0.6068(4) 0.6269(2) 0.1591(2)
H23 H 0.5954 0.7079 0.1718
F2? F 0.8085(9) 0.6618(4) -0.0034(5)
H24? H 0.6650 0.3103 0.1034
loop_
_geom_bond_atom_site_label_1
_geom_bond_atom_site_label_2
_geom_bond_site_symmetry_1
_geom_bond_site_symmetry_2
F1 C21 1_555 1_555
C1 H1 1_555 1_555
C2 C1 1_555 1_555
H2 C2 1_555 1_555
C3 C2 1_555 1_555
H3 C3 1_555 1_555
C4 C3 1_555 1_555
H4 C4 1_555 1_555
C5 C4 1_555 1_555
H5 C5 1_555 1_555
C6 C1 1_555 1_555
C7 C6 1_555 1_555
C8 C7 1_555 1_555
C9 C8 1_555 1_555
C10 C9 1_555 1_555
C11 C10 1_555 1_555
H6 C11 1_555 1_555
C12 C11 1_555 1_555
C13 C8 1_555 1_555
C14 C9 1_555 1_555
H7 C14 1_555 1_555
H8 C14 1_555 1_555
H9 C14 1_555 1_555
C15 C10 1_555 1_555
H10 C15 1_555 1_555
H11 C15 1_555 1_555
H12 C15 1_555 1_555
C16 C12 1_555 1_555
H13 C16 1_555 1_555
H14 C16 1_555 1_555
H15 C16 1_555 1_555
C17 C13 1_555 1_555
H16 C17 1_555 1_555
H17 C17 1_555 1_555
H18 C17 1_555 1_555
C18 C7 1_555 1_555
H19 C18 1_555 1_555
C19 C18 1_555 1_555
C20 C19 1_555 1_555
H20 C20 1_555 1_555
C21 C20 1_555 1_555
C22 C21 1_555 1_555
H21 C22 1_555 1_555
C23 C22 1_555 1_555
H22 C23 1_555 1_555
C24 C19 1_555 1_555
H23 C24 1_555 1_555
C5 C6 1_555 1_555
C12 C13 1_555 1_555
C23 C24 1_555 1_555

#END
