
#######################################################################
#
#                 Cambridge Crystallographic Data Centre
#                                CCDC 
#
#######################################################################
#
# If this CIF has been generated from an entry in the Cambridge 
# Structural Database, then it will include bibliographic, chemical, 
# crystal, experimental, refinement or atomic coordinate data resulting 
# from the CCDC's data processing and validation procedures.
#
#######################################################################

data_DEZQUU
_chemical_formula_moiety         'C18 H21 N8 O7 P1 S1'
_chemical_name_systematic        
'bis(2-Azidoethyl) [(3-nitrophenyl)-(p-toluenesulfonamido)methyl]phosphonate'
_chemical_properties_biological  'potential biological activity'
_symmetry_cell_setting           monoclinic
_symmetry_space_group_name_H-M   'P 21/c'
_symmetry_Int_Tables_number      14
_space_group_name_Hall           '-P 2ybc'
loop_
_symmetry_equiv_pos_site_id
_symmetry_equiv_pos_as_xyz
1 x,y,z
2 -x,1/2+y,1/2-z
3 -x,-y,-z
4 x,1/2-y,1/2+z
_cell_length_a                   19.477(4)
_cell_length_b                   17.178(3)
_cell_length_c                   15.262(3)
_cell_angle_alpha                90
_cell_angle_beta                 107.23(3)
_cell_angle_gamma                90
_cell_volume                     4877.14
_exptl_crystal_colour            'light yellow'
_exptl_crystal_description       needle
_cell_formula_units_Z            8
_exptl_crystal_recrystallization_method 'aqueous alcohol'
loop_
_atom_site_label
_atom_site_type_symbol
_atom_site_fract_x
_atom_site_fract_y
_atom_site_fract_z
P1 P 0.13374(2) 0.05760(2) 0.12083(2)
S1 S 0.09362(2) 0.10675(2) 0.36720(3)
O1 O 0.14491(6) 0.15538(6) 0.43065(8)
O2 O 0.02375(5) 0.13590(6) 0.31898(8)
O3 O 0.21179(4) 0.04276(5) 0.14959(6)
O4 O 0.08976(4) 0.01097(5) 0.03411(6)
O5 O 0.10920(5) 0.14337(5) 0.09394(7)
O6 O 0.26097(6) -0.18037(6) 0.37240(9)
O7 O 0.19991(7) -0.28346(7) 0.35101(13)
N1 N 0.13239(5) 0.08178(5) 0.29019(7)
H1 H 0.17826 0.09555 0.29697
N2 N 0.10970(8) -0.04859(10) -0.13653(10)
N3 N 0.14278(8) -0.04952(11) -0.19138(10)
N4 N 0.16678(12) -0.0480(2) -0.24915(14)
N5 N 0.14279(9) 0.29203(11) 0.1839(2)
N6 N 0.16514(10) 0.31573(11) 0.2644(2)
N7 N 0.17681(12) 0.3457(2) 0.3346(2)
N8 N 0.20463(6) -0.21446(6) 0.34141(9)
C1 C 0.08285(6) 0.02029(8) 0.42300(9)
C2 C 0.14140(7) -0.01191(10) 0.48758(10)
H2 H 0.18497 0.01758 0.50990
C3 C 0.13648(8) -0.08557(11) 0.52130(11)
H3 H 0.17732 -0.10778 0.56596
C4 C 0.07387(8) -0.12847(10) 0.49118(11)
C5 C 0.01559(8) -0.09409(9) 0.42917(11)
H4 H -0.02872 -0.12261 0.40951
C6 C 0.01900(7) -0.02078(8) 0.39474(10)
H5 H -0.02242 0.00185 0.35154
C7 C 0.06966(11) -0.20998(11) 0.5232(2)
H6 H 0.02231 -0.23030 0.4951
H7 H 0.10430 -0.24149 0.5060
H8 H 0.07976 -0.21067 0.5887
C8 C 0.09193(6) 0.03627(7) 0.20990(9)
H9 H 0.04371 0.05613 0.19016
C9 C 0.08782(6) -0.05077(6) 0.22489(8)
C10 C 0.14738(6) -0.09193(7) 0.27622(8)
H10 H 0.19233 -0.06603 0.30345
C11 C 0.14089(6) -0.17135(7) 0.28719(8)
C12 C 0.07754(6) -0.21184(7) 0.24862(9)
H11 H 0.07481 -0.26683 0.25832
C13 C 0.01904(7) -0.17059(7) 0.19674(10)
H12 H -0.02532 -0.19728 0.16856
C14 C 0.02370(6) -0.09137(7) 0.18434(9)
H13 H -0.01749 -0.06350 0.14751
C15 C 0.10642(9) -0.06956(9) 0.01769(11)
H14 H 0.06239 -0.09717 -0.00943
H15 H 0.13042 -0.09383 0.07529
C16 C 0.14994(9) -0.07455(11) -0.04368(12)
H16 H 0.19165 -0.04245 -0.01978
H17 H 0.16576 -0.12722 -0.04607
C17 C 0.15558(10) 0.19982(9) 0.07110(13)
H18 H 0.12710 0.23472 0.02557
H19 H 0.18917 0.17398 0.04593
C18 C 0.19128(10) 0.24877(12) 0.1486(2)
H20 H 0.21586 0.21354 0.1964
H21 H 0.22617 0.28264 0.1354
P2 P 0.35312(2) 0.03903(2) 0.41795(2)
S2 S 0.39848(2) 0.11646(2) 0.18414(2)
O8 O 0.35291(5) 0.17928(5) 0.13918(7)
O9 O 0.47162(5) 0.13077(6) 0.23607(7)
O10 O 0.27460(4) 0.03033(5) 0.38286(6)
O11 O 0.39257(4) -0.02122(5) 0.49355(6)
O12 O 0.38036(4) 0.12022(5) 0.46123(6)
O13 O 0.30221(7) -0.27904(7) 0.13686(12)
O14 O 0.23868(6) -0.17830(7) 0.12714(10)
N9 N 0.35906(5) 0.07974(5) 0.25526(7)
H22 H 0.31285 0.09168 0.24891
N10 N 0.33038(9) 0.03466(10) 0.63043(12)
N11 N 0.33896(12) 0.06765(12) 0.69994(13)
N12 N 0.3452(2) 0.1080(2) 0.7601(2)
N13 N 0.42699(8) 0.27945(8) 0.46172(14)
N14 N 0.47400(8) 0.24352(9) 0.44114(12)
N15 N 0.52357(10) 0.21601(14) 0.4321(2)
N16 N 0.29560(6) -0.21218(6) 0.15584(9)
C19 C 0.39753(6) 0.04526(7) 0.10049(9)
C20 C 0.33933(8) 0.03989(10) 0.02316(11)
H23 H 0.29974 0.07533 0.01418
C21 C 0.33815(8) -0.01686(12) -0.04058(11)
H24 H 0.29859 -0.01960 -0.09580
C22 C 0.39462(8) -0.07053(10) -0.02798(11)
C23 C 0.45202(9) -0.06290(9) 0.04892(11)
H25 H 0.49172 -0.09819 0.05786
C24 C 0.45498(7) -0.00542(8) 0.11321(10)
H26 H 0.49635 -0.00084 0.16609
C25 C 0.39127(11) -0.13316(12) -0.09821(13)
H27 H 0.43356 -0.16502 -0.07865
H28 H 0.34944 -0.16476 -0.10445
H29 H 0.38860 -0.10969 -0.15621
C26 C 0.39803(6) 0.02701(7) 0.32993(8)
H30 H 0.44603 0.04679 0.35419
C27 C 0.40373(6) -0.05687(6) 0.30273(8)
C28 C 0.34662(6) -0.09461(7) 0.24151(8)
H31 H 0.30165 -0.06860 0.21480
C29 C 0.35645(6) -0.17136(7) 0.21907(9)
C30 C 0.41978(7) -0.21216(8) 0.25427(10)
H32 H 0.42447 -0.26500 0.23639
C31 C 0.47554(7) -0.17376(8) 0.31577(11)
H33 H 0.52034 -0.20029 0.34181
C32 C 0.46786(6) -0.09774(8) 0.34074(10)
H34 H 0.50719 -0.07249 0.38477
C33 C 0.35274(8) -0.07149(8) 0.53991(10)
H35 H 0.36940 -0.12421 0.54135
H36 H 0.30246 -0.07053 0.50679
C34 C 0.36278(9) -0.04310(10) 0.63459(11)
H37 H 0.34076 -0.07799 0.66742
H38 H 0.41322 -0.04013 0.66651
C35 C 0.33388(7) 0.18434(8) 0.46706(12)
H39 H 0.34068 0.19703 0.53033
H40 H 0.28445 0.17034 0.43957
C36 C 0.35409(10) 0.25310(10) 0.41980(15)
H41 H 0.34953 0.23865 0.35757
H42 H 0.32134 0.29514 0.41855
loop_
_geom_bond_atom_site_label_1
_geom_bond_atom_site_label_2
_geom_bond_site_symmetry_1
_geom_bond_site_symmetry_2
P1 O3 1_555 1_555
S1 O1 1_555 1_555
O2 S1 1_555 1_555
O4 P1 1_555 1_555
O5 P1 1_555 1_555
O6 N8 1_555 1_555
O7 N8 1_555 1_555
N1 S1 1_555 1_555
H1 N1 1_555 1_555
N2 N3 1_555 1_555
N3 N4 1_555 1_555
N5 N6 1_555 1_555
N6 N7 1_555 1_555
N8 C11 1_555 1_555
C1 S1 1_555 1_555
C2 C1 1_555 1_555
H2 C2 1_555 1_555
C3 C2 1_555 1_555
H3 C3 1_555 1_555
C4 C3 1_555 1_555
C5 C4 1_555 1_555
H4 C5 1_555 1_555
C6 C1 1_555 1_555
H5 C6 1_555 1_555
C7 C4 1_555 1_555
H6 C7 1_555 1_555
H7 C7 1_555 1_555
H8 C7 1_555 1_555
C8 P1 1_555 1_555
H9 C8 1_555 1_555
C9 C8 1_555 1_555
C10 C9 1_555 1_555
H10 C10 1_555 1_555
C11 C10 1_555 1_555
C12 C11 1_555 1_555
H11 C12 1_555 1_555
C13 C12 1_555 1_555
H12 C13 1_555 1_555
C14 C9 1_555 1_555
H13 C14 1_555 1_555
C15 O4 1_555 1_555
H14 C15 1_555 1_555
H15 C15 1_555 1_555
C16 N2 1_555 1_555
H16 C16 1_555 1_555
H17 C16 1_555 1_555
C17 O5 1_555 1_555
H18 C17 1_555 1_555
H19 C17 1_555 1_555
C18 N5 1_555 1_555
H20 C18 1_555 1_555
H21 C18 1_555 1_555
P2 O10 1_555 1_555
S2 O8 1_555 1_555
O9 S2 1_555 1_555
O11 P2 1_555 1_555
O12 P2 1_555 1_555
O13 N16 1_555 1_555
O14 N16 1_555 1_555
N9 S2 1_555 1_555
H22 N9 1_555 1_555
N10 N11 1_555 1_555
N11 N12 1_555 1_555
N13 N14 1_555 1_555
N14 N15 1_555 1_555
N16 C29 1_555 1_555
C19 S2 1_555 1_555
C20 C19 1_555 1_555
H23 C20 1_555 1_555
C21 C20 1_555 1_555
H24 C21 1_555 1_555
C22 C21 1_555 1_555
C23 C22 1_555 1_555
H25 C23 1_555 1_555
C24 C19 1_555 1_555
H26 C24 1_555 1_555
C25 C22 1_555 1_555
H27 C25 1_555 1_555
H28 C25 1_555 1_555
H29 C25 1_555 1_555
C26 P2 1_555 1_555
H30 C26 1_555 1_555
C27 C26 1_555 1_555
C28 C27 1_555 1_555
H31 C28 1_555 1_555
C29 C28 1_555 1_555
C30 C29 1_555 1_555
H32 C30 1_555 1_555
C31 C30 1_555 1_555
H33 C31 1_555 1_555
C32 C27 1_555 1_555
H34 C32 1_555 1_555
C33 O11 1_555 1_555
H35 C33 1_555 1_555
H36 C33 1_555 1_555
C34 N10 1_555 1_555
H37 C34 1_555 1_555
H38 C34 1_555 1_555
C35 O12 1_555 1_555
H39 C35 1_555 1_555
H40 C35 1_555 1_555
C36 N13 1_555 1_555
H41 C36 1_555 1_555
H42 C36 1_555 1_555
N1 C8 1_555 1_555
C5 C6 1_555 1_555
C13 C14 1_555 1_555
C15 C16 1_555 1_555
C17 C18 1_555 1_555
N9 C26 1_555 1_555
C23 C24 1_555 1_555
C31 C32 1_555 1_555
C33 C34 1_555 1_555
C35 C36 1_555 1_555

#END
