
#######################################################################
#
#                 Cambridge Crystallographic Data Centre
#                                CCDC 
#
#######################################################################
#
# If this CIF has been generated from an entry in the Cambridge 
# Structural Database, then it will include bibliographic, chemical, 
# crystal, experimental, refinement or atomic coordinate data resulting 
# from the CCDC's data processing and validation procedures.
#
#######################################################################

data_DEZRUW
_chemical_compound_source        'leaves and twigs of Daphniphyllum calycillium'
_chemical_formula_moiety         'C23 H31 N1 O4'
_chemical_name_systematic        Calydaphninone
_symmetry_cell_setting           orthorhombic
_symmetry_space_group_name_H-M   'P 21 21 21'
_symmetry_Int_Tables_number      19
_space_group_name_Hall           'P 2ac 2ab'
loop_
_symmetry_equiv_pos_site_id
_symmetry_equiv_pos_as_xyz
1 x,y,z
2 1/2-x,-y,1/2+z
3 1/2+x,1/2-y,-z
4 -x,1/2+y,1/2-z
_cell_length_a                   6.4800(2)
_cell_length_b                   14.6780(8)
_cell_length_c                   21.037(1)
_cell_angle_alpha                90
_cell_angle_beta                 90
_cell_angle_gamma                90
_cell_volume                     2000.9
_chemical_melting_point          202-204deg.C
_cell_formula_units_Z            4
_exptl_crystal_recrystallization_method acetone
loop_
_atom_site_label
_atom_site_type_symbol
_atom_site_fract_x
_atom_site_fract_y
_atom_site_fract_z
O1 O 0.8221(5) 0.6864(2) 0.2361(1)
O2 O 0.1672(4) 0.5137(2) 0.1275(1)
H1 H 0.1054 0.4741 0.1474
O3 O 0.2527(7) 0.5971(4) 0.4197(2)
O4 O 0.4874(6) 0.6810(2) 0.4683(1)
N1 N 0.7429(4) 0.5616(2) 0.1117(1)
C1 C 0.6890(5) 0.6384(2) 0.2134(1)
C2 C 0.6363(5) 0.6412(2) 0.1431(1)
C3 C 0.4033(5) 0.6436(2) 0.1340(1)
H2 H 0.3733 0.6376 0.0890
H3 H 0.3523 0.7025 0.1477
C4 C 0.2849(5) 0.5681(2) 0.1705(1)
H4 H 0.1876 0.5983 0.1993
C5 C 0.4275(5) 0.5070(2) 0.2115(1)
C6 C 0.5554(5) 0.4397(2) 0.1680(1)
H5 H 0.4617 0.3892 0.1583
C7 C 0.6181(5) 0.4802(2) 0.1030(1)
H6 H 0.6957 0.4353 0.0790
H7 H 0.4951 0.4953 0.0789
C8 C 0.5602(5) 0.5727(2) 0.2537(1)
C9 C 0.6930(5) 0.5266(2) 0.3037(1)
C10 C 0.7551(5) 0.4413(2) 0.3127(1)
C11 C 0.7483(6) 0.3637(2) 0.2663(2)
H8 H 0.6247 0.3281 0.2739
H9 H 0.8664 0.3244 0.2735
C12 C 0.7495(6) 0.3953(2) 0.1969(2)
H10 H 0.7833 0.3428 0.1709
H11 H 0.8620 0.4384 0.1922
C13 C 0.4224(6) 0.6350(3) 0.2982(1)
H12 H 0.3905 0.6918 0.2768
H13 H 0.2937 0.6043 0.3080
C14 C 0.5438(6) 0.6541(2) 0.3601(1)
H14 H 0.5961 0.7168 0.3591
C15 C 0.7290(6) 0.5868(2) 0.3602(1)
H15 H 0.8573 0.6210 0.3539
C16 C 0.7605(7) 0.5164(3) 0.4141(1)
H16 H 0.8588 0.5385 0.4453
H17 H 0.6311 0.5027 0.4352
C17 C 0.8444(6) 0.4326(3) 0.3791(2)
H18 H 0.9941 0.4333 0.3780
H19 H 0.7985 0.3768 0.3994
C18 C 0.7624(6) 0.7053(2) 0.0990(1)
H20 H 0.8941 0.7206 0.1192
C19 C 0.7900(6) 0.6216(2) 0.0560(1)
H21 H 0.6891 0.6176 0.0220
H22 H 0.9291 0.6145 0.0396
C20 C 0.6657(8) 0.7908(3) 0.0714(2)
H23 H 0.6578 0.8369 0.1037
H24 H 0.5295 0.7771 0.0562
H25 H 0.7488 0.8125 0.0368
C21 C 0.2853(6) 0.4472(3) 0.2537(2)
H26 H 0.2049 0.4857 0.2810
H27 H 0.3681 0.4069 0.2790
H28 H 0.1948 0.4121 0.2271
C22 C 0.4078(7) 0.6421(3) 0.4173(2)
C23 C 0.3819(11) 0.6671(5) 0.5283(2)
H29 H 0.4539 0.6990 0.5614
H30 H 0.3785 0.6032 0.5380
H31 H 0.2434 0.6899 0.5252
loop_
_geom_bond_atom_site_label_1
_geom_bond_atom_site_label_2
_geom_bond_site_symmetry_1
_geom_bond_site_symmetry_2
O1 C1 1_555 1_555
O2 H1 1_555 1_555
O3 C22 1_555 1_555
O4 C22 1_555 1_555
N1 C2 1_555 1_555
C1 C2 1_555 1_555
C2 C3 1_555 1_555
C3 H2 1_555 1_555
H3 C3 1_555 1_555
C4 O2 1_555 1_555
H4 C4 1_555 1_555
C5 C4 1_555 1_555
C6 C5 1_555 1_555
H5 C6 1_555 1_555
C7 N1 1_555 1_555
H6 C7 1_555 1_555
H7 C7 1_555 1_555
C8 C1 1_555 1_555
C9 C8 1_555 1_555
C10 C9 1_555 1_555
C11 C10 1_555 1_555
H8 C11 1_555 1_555
H9 C11 1_555 1_555
C12 C6 1_555 1_555
H10 C12 1_555 1_555
H11 C12 1_555 1_555
C13 C8 1_555 1_555
H12 C13 1_555 1_555
H13 C13 1_555 1_555
C14 C13 1_555 1_555
H14 C14 1_555 1_555
C15 C9 1_555 1_555
H15 C15 1_555 1_555
C16 C15 1_555 1_555
H16 C16 1_555 1_555
H17 C16 1_555 1_555
C17 C10 1_555 1_555
H18 C17 1_555 1_555
H19 C17 1_555 1_555
C18 C2 1_555 1_555
H20 C18 1_555 1_555
C19 N1 1_555 1_555
H21 C19 1_555 1_555
H22 C19 1_555 1_555
C20 C18 1_555 1_555
H23 C20 1_555 1_555
H24 C20 1_555 1_555
H25 C20 1_555 1_555
C21 C5 1_555 1_555
H26 C21 1_555 1_555
H27 C21 1_555 1_555
H28 C21 1_555 1_555
C22 C14 1_555 1_555
C23 O4 1_555 1_555
H29 C23 1_555 1_555
H30 C23 1_555 1_555
H31 C23 1_555 1_555
C3 C4 1_555 1_555
C5 C8 1_555 1_555
C6 C7 1_555 1_555
C11 C12 1_555 1_555
C14 C15 1_555 1_555
C16 C17 1_555 1_555
C18 C19 1_555 1_555

#END
