
#######################################################################
#
#                 Cambridge Crystallographic Data Centre
#                                CCDC 
#
#######################################################################
#
# If this CIF has been generated from an entry in the Cambridge 
# Structural Database, then it will include bibliographic, chemical, 
# crystal, experimental, refinement or atomic coordinate data resulting 
# from the CCDC's data processing and validation procedures.
#
#######################################################################

data_DEZRAD01
_chemical_name_common            
Phenyl-1-(3-nitrophenyl)-4,5-dihydro-1H-pyrazol-5-one
_chemical_formula_moiety         'C15 H11 N3 O3'
_chemical_name_systematic        
2-(3-Nitrophenyl)-5-phenyl-2,4-dihydro-3H-pyrazol-3-one
_symmetry_cell_setting           triclinic
_symmetry_space_group_name_H-M   'P -1'
_symmetry_Int_Tables_number      2
_space_group_name_Hall           '-P 1'
loop_
_symmetry_equiv_pos_site_id
_symmetry_equiv_pos_as_xyz
1 x,y,z
2 -x,-y,-z
_cell_length_a                   7.1042(3)
_cell_length_b                   7.1200(2)
_cell_length_c                   13.5241(6)
_cell_angle_alpha                78.613(3)
_cell_angle_beta                 87.337(2)
_cell_angle_gamma                71.473(3)
_cell_volume                     635.757
_exptl_crystal_colour            green
_exptl_crystal_description       block
_cell_formula_units_Z            2
loop_
_atom_site_label
_atom_site_type_symbol
_atom_site_fract_x
_atom_site_fract_y
_atom_site_fract_z
N1 N 0.51479(16) 0.72196(16) 0.02816(8)
O1 O 0.03255(14) 0.83154(16) -0.06445(7)
C1 C 0.41684(19) 0.88776(19) -0.14432(10)
N2 N 0.36531(16) 0.80307(17) -0.04752(8)
C2 C 0.54997(19) 0.55878(19) 0.20355(10)
N3 N 0.18112(18) 1.13737(18) -0.39580(9)
O2 O 0.00607(15) 1.16677(18) -0.37256(8)
C3 C 0.43536(19) 0.65268(19) 0.10934(10)
C4 C 0.5595(2) 0.4122(2) 0.38111(11)
H1 H 0.4931 0.3726 0.4403
C5 C 0.4544(2) 0.4998(2) 0.29101(10)
H2 H 0.3157 0.5200 0.2888
O3 O 0.23505(17) 1.18103(18) -0.48256(8)
C6 C 0.6127(2) 0.88592(19) -0.16253(10)
H3 H 0.7092 0.8323 -0.1094
C7 C 0.27408(19) 0.97113(19) -0.22133(10)
H4 H 0.1399 0.9756 -0.2098
C8 C 0.3340(2) 1.04737(19) -0.31536(10)
C9 C 0.22051(19) 0.6790(2) 0.09490(10)
H5 H 0.1362 0.7653 0.1396
H6 H 0.1954 0.5473 0.1076
C10 C 0.5270(2) 1.0443(2) -0.33721(11)
H7 H 0.5631 1.0956 -0.4031
C11 C 0.18487(19) 0.7806(2) -0.01451(10)
C12 C 0.6660(2) 0.9626(2) -0.25832(11)
H8 H 0.7997 0.9593 -0.2703
C13 C 0.7542(2) 0.5279(2) 0.20774(11)
H9 H 0.8212 0.5670 0.1487
C14 C 0.8589(2) 0.4402(2) 0.29811(11)
H10 H 0.9976 0.4197 0.3007
C15 C 0.7625(2) 0.3822(2) 0.38485(11)
H11 H 0.8350 0.3222 0.4465
loop_
_geom_bond_atom_site_label_1
_geom_bond_atom_site_label_2
_geom_bond_site_symmetry_1
_geom_bond_site_symmetry_2
N1 N2 1_555 1_555
O1 C11 1_555 1_555
C1 N2 1_555 1_555
N2 C11 1_555 1_555
C2 C3 1_555 1_555
N3 O2 1_555 1_555
C3 N1 1_555 1_555
C4 H1 1_555 1_555
C5 C2 1_555 1_555
H2 C5 1_555 1_555
O3 N3 1_555 1_555
C6 C1 1_555 1_555
H3 C6 1_555 1_555
C7 C1 1_555 1_555
H4 C7 1_555 1_555
C8 N3 1_555 1_555
C9 C3 1_555 1_555
H5 C9 1_555 1_555
H6 C9 1_555 1_555
C10 C8 1_555 1_555
H7 C10 1_555 1_555
C11 C9 1_555 1_555
C12 C6 1_555 1_555
H8 C12 1_555 1_555
C13 C2 1_555 1_555
H9 C13 1_555 1_555
C14 C13 1_555 1_555
H10 C14 1_555 1_555
C15 C4 1_555 1_555
H11 C15 1_555 1_555
C4 C5 1_555 1_555
C7 C8 1_555 1_555
C10 C12 1_555 1_555
C14 C15 1_555 1_555

#END
