
#######################################################################
#
#                 Cambridge Crystallographic Data Centre
#                                CCDC 
#
#######################################################################
#
# If this CIF has been generated from an entry in the Cambridge 
# Structural Database, then it will include bibliographic, chemical, 
# crystal, experimental, refinement or atomic coordinate data resulting 
# from the CCDC's data processing and validation procedures.
#
#######################################################################

data_DEZSUW
_chemical_formula_moiety         'C17 H17 Cl2 N2 O2 P1 S1'
_chemical_name_systematic        
2-Diethylamino-3-(2,4-dichlorophenyl)-2,3-dihydro-4H-1,3,2-benzoxazaphosphorin-4-one-2-sulfide
_symmetry_cell_setting           monoclinic
_symmetry_space_group_name_H-M   'P 21/a'
_symmetry_Int_Tables_number      14
_space_group_name_Hall           '-P 2yab'
loop_
_symmetry_equiv_pos_site_id
_symmetry_equiv_pos_as_xyz
1 x,y,z
2 1/2-x,1/2+y,-z
3 -x,-y,-z
4 1/2+x,1/2-y,z
_cell_length_a                   26.622(7)
_cell_length_b                   7.711(2)
_cell_length_c                   9.461(3)
_cell_angle_alpha                90
_cell_angle_beta                 94.90(4)
_cell_angle_gamma                90
_cell_volume                     1935.08
_exptl_crystal_colour            colorless
_cell_formula_units_Z            4
loop_
_atom_site_label
_atom_site_type_symbol
_atom_site_fract_x
_atom_site_fract_y
_atom_site_fract_z
Cl1 Cl 0.3154 0.2037(1) 0.3482(1)
Cl2 Cl 0.1324 -0.0863(2) 0.2998(1)
P1 P 0.3835 -0.2343(1) 0.2096(1)
S1 S 0.3746 -0.4772(2) 0.1752(1)
O1 O 0.4397(1) -0.1775(3) 0.2557(2)
O2 O 0.3538(1) -0.1304(4) 0.5931(2)
N1 N 0.3547(1) -0.1624(4) 0.3550(3)
N2 N 0.3668(1) -0.1079(4) 0.0771(3)
C1 C 0.4619(1) -0.2075(5) 0.3923(4)
C2 C 0.5120(1) -0.2407(6) 0.4071(4)
C3 C 0.5353(1) -0.2771(6) 0.5417(5)
C4 C 0.5065(1) -0.2760(6) 0.6582(4)
C5 C 0.4562(1) -0.2378(5) 0.6426(4)
C6 C 0.4324(1) -0.2028(4) 0.5077(4)
C7 C 0.3783(1) -0.1620(4) 0.4928(3)
C8 C 0.3010(1) -0.1441(4) 0.3411(3)
C9 C 0.2701(1) -0.2895(5) 0.3328(4)
C10 C 0.2185(1) -0.2747(5) 0.3185(4)
C11 C 0.1976(1) -0.1102(5) 0.3150(4)
C12 C 0.2267(1) 0.0382(5) 0.3253(4)
C13 C 0.2780(1) 0.0185(4) 0.3375(3)
C14 C 0.3331(2) -0.1655(5) -0.0467(4)
C15 C 0.2792(2) -0.1088(6) -0.0394(4)
C16 C 0.3847(1) 0.0740(5) 0.0734(4)
C17 C 0.4266(2) 0.0962(7) -0.0233(5)
H1 H 0.531(2) -0.240(6) 0.320(5)
H2 H 0.573(2) -0.311(6) 0.544(5)
H3 H 0.520(2) -0.286(7) 0.766(5)
H4 H 0.437(2) -0.230(5) 0.722(4)
H5 H 0.284(27) -0.395(6) 0.341(4)
H6 H 0.198(2) -0.374(6) 0.322(4)
H7 H 0.210(1) 0.152(5) 0.327(4)
H8 H 0.334(1) -0.293(5) -0.055(4)
H9 H 0.349(2) -0.115(6) -0.131(5)
H10 H 0.404(2) 0.114(6) 0.165(5)
H11 H 0.350(2) 0.137(6) 0.040(5)
H12 H 0.253(2) -0.148(6) -0.129(5)
H13 H 0.275(1) 0.007(6) -0.031(4)
H14 H 0.263(2) -0.158(7) 0.054(5)
H15 H 0.439(2) 0.221(7) -0.022(5)
H16 H 0.414(2) 0.049(6) -0.118(5)
H17 H 0.459(2) 0.041(6) 0.020(5)
loop_
_geom_bond_atom_site_label_1
_geom_bond_atom_site_label_2
_geom_bond_site_symmetry_1
_geom_bond_site_symmetry_2
Cl1 C13 1_555 1_555
Cl2 C11 1_555 1_555
P1 S1 1_555 1_555
O1 P1 1_555 1_555
O2 C7 1_555 1_555
N1 P1 1_555 1_555
N2 P1 1_555 1_555
C1 O1 1_555 1_555
C2 C1 1_555 1_555
C3 C2 1_555 1_555
C4 C3 1_555 1_555
C5 C4 1_555 1_555
C6 C1 1_555 1_555
C7 N1 1_555 1_555
C8 N1 1_555 1_555
C9 C8 1_555 1_555
C10 C9 1_555 1_555
C11 C10 1_555 1_555
C12 C11 1_555 1_555
C13 C8 1_555 1_555
C14 N2 1_555 1_555
C15 C14 1_555 1_555
C16 N2 1_555 1_555
C17 C16 1_555 1_555
H1 C2 1_555 1_555
H2 C3 1_555 1_555
H3 C4 1_555 1_555
H4 C5 1_555 1_555
H5 C9 1_555 1_555
H6 C10 1_555 1_555
H7 C12 1_555 1_555
H8 C14 1_555 1_555
H9 C14 1_555 1_555
H10 C16 1_555 1_555
H11 C16 1_555 1_555
H12 C15 1_555 1_555
H13 C15 1_555 1_555
H14 C15 1_555 1_555
H15 C17 1_555 1_555
H16 C17 1_555 1_555
H17 C17 1_555 1_555
C5 C6 1_555 1_555
C6 C7 1_555 1_555
C12 C13 1_555 1_555

#END
