
#######################################################################
#
#                 Cambridge Crystallographic Data Centre
#                                CCDC 
#
#######################################################################
#
# If this CIF has been generated from an entry in the Cambridge 
# Structural Database, then it will include bibliographic, chemical, 
# crystal, experimental, refinement or atomic coordinate data resulting 
# from the CCDC's data processing and validation procedures.
#
#######################################################################

data_DEZSEG
_chemical_formula_moiety         'C21 H17 Cl1 N2 O3'
_chemical_name_systematic        
1,3-bis(N-(2-Hydroxyphenyl)-iminomethyl)-2-methoxy-5-chlorobenzene
_symmetry_cell_setting           monoclinic
_symmetry_space_group_name_H-M   'P 21/c'
_symmetry_Int_Tables_number      14
_space_group_name_Hall           '-P 2ybc'
loop_
_symmetry_equiv_pos_site_id
_symmetry_equiv_pos_as_xyz
1 x,y,z
2 -x,1/2+y,1/2-z
3 -x,-y,-z
4 x,1/2-y,1/2+z
_cell_length_a                   10.499
_cell_length_b                   14.965
_cell_length_c                   12.178
_cell_angle_alpha                90
_cell_angle_beta                 108.44
_cell_angle_gamma                90
_cell_volume                     1815.14
_exptl_crystal_colour            yellow
_chemical_melting_point          203-204deg.C
_cell_formula_units_Z            4
loop_
_atom_site_label
_atom_site_type_symbol
_atom_site_fract_x
_atom_site_fract_y
_atom_site_fract_z
Cl1 Cl 0.4330(7) 0.3147(4) 0.4145(1)
O1 O 0.3744(1) 0.6681(1) 0.1967(1)
O2 O -0.1762(1) 0.4427(1) 0.2114(2)
O3 O 0.9533(2) 0.5751(1) 0.5843(1)
N1 N 0.0360(2) 0.5230(1) 0.1715(2)
N2 N 0.7489(2) 0.5900(1) 0.3921(1)
C1 C 0.4162(2) 0.4207(1) 0.3529(2)
C2 C 0.5295(2) 0.4713(1) 0.3645(2)
C3 C 0.5163(2) 0.5553(1) 0.3124(2)
C4 C 0.3882(2) 0.5861(1) 0.2508(2)
C5 C 0.2741(2) 0.5344(1) 0.2397(2)
C6 C 0.2898(2) 0.4506(1) 0.2914(2)
C7 C 0.3733(2) 0.7414(2) 0.2707(2)
C8 C 0.1395(2) 0.5671(2) 0.1740(2)
C9 C -0.0930(2) 0.5527(1) 0.1071(2)
C10 C -0.1236(2) 0.6201(2) 0.0243(2)
C11 C -0.2547(2) 0.6439(2) -0.0316(2)
C12 C -0.3571(2) 0.6005(2) -0.0057(2)
C13 C -0.3298(2) 0.5331(2) 0.0748(2)
C14 C -0.1989(2) 0.5084(1) 0.1307(2)
C15 C 0.6359(2) 0.6090(1) 0.3201(2)
C16 C 0.8650(2) 0.6392(1) 0.3968(2)
C17 C 0.8842(1) 0.6936(2) 0.3110(2)
C18 C 1.0048(2) 0.7371(2) 0.3282(2)
C19 C 1.1079(2) 0.7258(2) 0.4310(2)
C20 C 1.0914(2) 0.6709(2) 0.5163(2)
C21 C 0.9703(2) 0.6281(2) 0.4986(2)
loop_
_geom_bond_atom_site_label_1
_geom_bond_atom_site_label_2
_geom_bond_site_symmetry_1
_geom_bond_site_symmetry_2
Cl1 C1 1_555 1_555
O1 C4 1_555 1_555
O2 C14 1_555 1_555
O3 C21 1_555 1_555
N1 C8 1_555 1_555
N2 C15 1_555 1_555
C1 C2 1_555 1_555
C2 C3 1_555 1_555
C3 C4 1_555 1_555
C4 C5 1_555 1_555
C5 C6 1_555 1_555
C6 C1 1_555 1_555
C7 O1 1_555 1_555
C8 C5 1_555 1_555
C9 N1 1_555 1_555
C10 C9 1_555 1_555
C11 C10 1_555 1_555
C12 C11 1_555 1_555
C13 C12 1_555 1_555
C14 C9 1_555 1_555
C15 C3 1_555 1_555
C16 N2 1_555 1_555
C17 C16 1_555 1_555
C18 C17 1_555 1_555
C19 C18 1_555 1_555
C20 C19 1_555 1_555
C21 C16 1_555 1_555
C13 C14 1_555 1_555
C20 C21 1_555 1_555

#END
