
#######################################################################
#
#                 Cambridge Crystallographic Data Centre
#                                CCDC 
#
#######################################################################
#
# If this CIF has been generated from an entry in the Cambridge 
# Structural Database, then it will include bibliographic, chemical, 
# crystal, experimental, refinement or atomic coordinate data resulting 
# from the CCDC's data processing and validation procedures.
#
#######################################################################

data_DEZTUY
_chemical_formula_moiety         'C35 H37 N5 O2 S1,C2 H3 N1'
_chemical_name_systematic        
"1-(2-[3',6'-bis(Ethylamino)-2',7'-dimethyl-3-oxospiro[isoindole-1,9'-xanthen]-2(3H)-yl]ethyl)-3-phenylthiourea acetonitrile solvate"
_symmetry_cell_setting           triclinic
_symmetry_space_group_name_H-M   'P -1'
_symmetry_Int_Tables_number      2
_space_group_name_Hall           '-P 1'
loop_
_symmetry_equiv_pos_site_id
_symmetry_equiv_pos_as_xyz
1 x,y,z
2 -x,-y,-z
_cell_length_a                   12.1732(10)
_cell_length_b                   12.2995(10)
_cell_length_c                   12.9091(11)
_cell_angle_alpha                98.217(2)
_cell_angle_beta                 112.027(2)
_cell_angle_gamma                101.3310(10)
_cell_volume                     1706.19
_exptl_crystal_colour            colorless
_exptl_crystal_description       stick
_cell_formula_units_Z            2
_exptl_crystal_recrystallization_method hexane/acetonitrile
loop_
_atom_site_label
_atom_site_type_symbol
_atom_site_fract_x
_atom_site_fract_y
_atom_site_fract_z
N1 N 0.76591(17) 0.72177(15) 0.91212(17)
H1 H 0.7148 0.7031 0.8409
N2 N 0.87000(18) 0.87249(15) 0.86823(17)
H2 H 0.9159 0.9417 0.8942
N3 N 0.78466(15) 0.48016(14) 0.88636(16)
N4 N 0.26654(18) 0.58201(18) 0.65874(19)
H3 H 0.2647 0.6199 0.6074
N5 N 0.6075(2) 0.11182(19) 1.1381(2)
H4 H 0.6640 0.0797 1.1699
O1 O 0.45694(14) 0.35088(14) 0.89400(15)
O2 O 0.96208(15) 0.54573(16) 0.86188(19)
S1 S 0.95772(7) 0.86821(5) 1.08741(6)
C1 C 0.46322(19) 0.41579(17) 0.81706(19)
C2 C 0.36692(19) 0.46522(18) 0.7780(2)
H5 H 0.3047 0.4523 0.8037
C3 C 0.36276(19) 0.53399(18) 0.70079(19)
C4 C 0.45829(19) 0.55259(17) 0.66218(18)
C5 C 0.55125(18) 0.50120(17) 0.70385(18)
H6 H 0.6136 0.5130 0.6783
C6 C 0.55798(18) 0.43251(16) 0.78196(18)
C7 C 0.66837(18) 0.38542(17) 0.83018(18)
C8 C 0.65206(19) 0.31438(17) 0.91316(18)
C9 C 0.7389(2) 0.25730(18) 0.9655(2)
H7 H 0.8082 0.2653 0.9497
C10 C 0.7270(2) 0.18981(19) 1.0392(2)
C11 C 0.6222(2) 0.17796(19) 1.0639(2)
C12 C 0.5349(2) 0.23401(19) 1.0131(2)
H8 H 0.4656 0.2269 1.0288
C13 C 0.55085(19) 0.30056(18) 0.93907(19)
C14 C 0.4566(2) 0.6265(2) 0.5788(2)
H9 H 0.5242 0.6254 0.5577
H10 H 0.4642 0.7033 0.6141
H11 H 0.3805 0.5979 0.5112
C15 C 0.1690(2) 0.5714(2) 0.6971(3)
H12 H 0.2035 0.6026 0.7796
H13 H 0.1266 0.4914 0.6813
C16 C 0.0787(3) 0.6343(3) 0.6364(3)
H14 H 0.1204 0.7139 0.6539
H15 H 0.0136 0.6256 0.6619
H16 H 0.0449 0.6034 0.5549
C17 C 0.8226(3) 0.1285(3) 1.0900(3)
H17 H 0.8835 0.1420 1.0595
H18 H 0.7839 0.0480 1.0708
H19 H 0.8613 0.1563 1.1722
C18 C 0.5015(3) 0.0945(2) 1.1644(3)
H20 H 0.4275 0.0627 1.0936
H21 H 0.4970 0.1675 1.2002
C19 C 0.5070(3) 0.0157(3) 1.2436(3)
H22 H 0.5110 -0.0567 1.2081
H23 H 0.4347 0.0051 1.2587
H24 H 0.5789 0.0482 1.3146
C20 C 0.6915(2) 0.31921(18) 0.73537(19)
C21 C 0.6174(2) 0.2194(2) 0.6545(2)
H25 H 0.5410 0.1842 0.6516
C22 C 0.6603(3) 0.1736(2) 0.5780(3)
H26 H 0.6124 0.1058 0.5234
C23 C 0.7725(4) 0.2261(3) 0.5809(3)
H27 H 0.7992 0.1934 0.5283
C24 C 0.8455(3) 0.3261(3) 0.6602(3)
H28 H 0.9210 0.3620 0.6618
C25 C 0.8037(2) 0.3725(2) 0.7386(2)
C26 C 0.8632(2) 0.4761(2) 0.8340(2)
C27 C 0.8177(2) 0.55965(19) 0.9944(2)
H29 H 0.9048 0.5985 1.0257
H30 H 0.8047 0.5168 1.0483
C28 C 0.7462(2) 0.64851(19) 0.9855(2)
H31 H 0.6591 0.6101 0.9554
H32 H 0.7706 0.6951 1.0618
C29 C 0.8589(2) 0.81702(17) 0.9485(2)
C30 C 0.8164(2) 0.83205(19) 0.7475(2)
C31 C 0.8188(2) 0.7264(2) 0.6957(2)
H33 H 0.8531 0.6788 0.7408
C32 C 0.7707(2) 0.6916(2) 0.5777(2)
H34 H 0.7710 0.6200 0.5433
C33 C 0.7221(3) 0.7618(3) 0.5105(2)
H35 H 0.6887 0.7376 0.4307
C34 C 0.7229(3) 0.8682(3) 0.5615(3)
H36 H 0.6922 0.9167 0.5159
C35 C 0.7690(2) 0.9036(2) 0.6796(2)
H37 H 0.7681 0.9753 0.7135
N6 N 0.1706(6) -0.0282(6) 0.6413(6)
C36 C 0.1387(6) 0.0502(6) 0.6490(5)
C37 C 0.0928(7) 0.1497(5) 0.6519(5)
H38 H 0.0789 0.1736 0.5815
H39 H 0.1521 0.2103 0.7157
H40 H 0.0167 0.1313 0.6605
loop_
_geom_bond_atom_site_label_1
_geom_bond_atom_site_label_2
_geom_bond_site_symmetry_1
_geom_bond_site_symmetry_2
N1 H1 1_555 1_555
N2 H2 1_555 1_555
N3 C7 1_555 1_555
N4 H3 1_555 1_555
N5 H4 1_555 1_555
O1 C1 1_555 1_555
O2 C26 1_555 1_555
S1 C29 1_555 1_555
C1 C2 1_555 1_555
C2 H5 1_555 1_555
C3 N4 1_555 1_555
C4 C3 1_555 1_555
C5 C4 1_555 1_555
H6 C5 1_555 1_555
C6 C1 1_555 1_555
C7 C6 1_555 1_555
C8 C7 1_555 1_555
C9 C8 1_555 1_555
H7 C9 1_555 1_555
C10 C9 1_555 1_555
C11 N5 1_555 1_555
C12 C11 1_555 1_555
H8 C12 1_555 1_555
C13 O1 1_555 1_555
C14 C4 1_555 1_555
H9 C14 1_555 1_555
H10 C14 1_555 1_555
H11 C14 1_555 1_555
C15 N4 1_555 1_555
H12 C15 1_555 1_555
H13 C15 1_555 1_555
C16 C15 1_555 1_555
H14 C16 1_555 1_555
H15 C16 1_555 1_555
H16 C16 1_555 1_555
C17 C10 1_555 1_555
H17 C17 1_555 1_555
H18 C17 1_555 1_555
H19 C17 1_555 1_555
C18 N5 1_555 1_555
H20 C18 1_555 1_555
H21 C18 1_555 1_555
C19 C18 1_555 1_555
H22 C19 1_555 1_555
H23 C19 1_555 1_555
H24 C19 1_555 1_555
C20 C7 1_555 1_555
C21 C20 1_555 1_555
H25 C21 1_555 1_555
C22 C21 1_555 1_555
H26 C22 1_555 1_555
C23 C22 1_555 1_555
H27 C23 1_555 1_555
C24 C23 1_555 1_555
H28 C24 1_555 1_555
C25 C20 1_555 1_555
C26 N3 1_555 1_555
C27 N3 1_555 1_555
H29 C27 1_555 1_555
H30 C27 1_555 1_555
C28 N1 1_555 1_555
H31 C28 1_555 1_555
H32 C28 1_555 1_555
C29 N1 1_555 1_555
C30 N2 1_555 1_555
C31 C30 1_555 1_555
H33 C31 1_555 1_555
C32 C31 1_555 1_555
H34 C32 1_555 1_555
C33 C32 1_555 1_555
H35 C33 1_555 1_555
C34 C33 1_555 1_555
H36 C34 1_555 1_555
C35 C30 1_555 1_555
H37 C35 1_555 1_555
N6 C36 1_555 1_555
C36 C37 1_555 1_555
C37 H38 1_555 1_555
H39 C37 1_555 1_555
H40 C37 1_555 1_555
N2 C29 1_555 1_555
C2 C3 1_555 1_555
C5 C6 1_555 1_555
C8 C13 1_555 1_555
C10 C11 1_555 1_555
C12 C13 1_555 1_555
C24 C25 1_555 1_555
C25 C26 1_555 1_555
C27 C28 1_555 1_555
C34 C35 1_555 1_555

#END
