
#######################################################################
#
#                 Cambridge Crystallographic Data Centre
#                                CCDC 
#
#######################################################################
#
# If this CIF has been generated from an entry in the Cambridge 
# Structural Database, then it will include bibliographic, chemical, 
# crystal, experimental, refinement or atomic coordinate data resulting 
# from the CCDC's data processing and validation procedures.
#
#######################################################################

data_DEZTOS
_chemical_compound_source        'Chloranthus holostegius'
_chemical_formula_moiety         'C33 H36 O8'
_chemical_name_systematic        'Chlorahololide A'
_chemical_properties_biological  
'potent and selective inhibition of the delayed rectifier (I!K$) K+ current'
_symmetry_cell_setting           monoclinic
_symmetry_space_group_name_H-M   'C 2'
_symmetry_Int_Tables_number      5
_space_group_name_Hall           'C 2y'
loop_
_symmetry_equiv_pos_site_id
_symmetry_equiv_pos_as_xyz
1 x,y,z
2 -x,y,-z
3 1/2+x,1/2+y,z
4 1/2-x,1/2+y,-z
_cell_length_a                   17.216(6)
_cell_length_b                   11.078(6)
_cell_length_c                   16.173(7)
_cell_angle_alpha                90
_cell_angle_beta                 108.63(4)
_cell_angle_gamma                90
_cell_volume                     2922.87
_exptl_crystal_colour            colorless
_exptl_crystal_description       prismatic
_chemical_melting_point          223-225deg.C
_cell_formula_units_Z            4
_exptl_crystal_recrystallization_method methanol
loop_
_atom_site_label
_atom_site_type_symbol
_atom_site_fract_x
_atom_site_fract_y
_atom_site_fract_z
O1 O 0.83503(16) 0.9543(2) 0.89626(17)
H1 H 0.8454 0.9900 0.9429
O2 O 0.80754(17) 1.4881(3) 0.7215(2)
O3 O 0.9089(2) 1.5752(3) 0.8945(2)
O4 O 0.97998(17) 1.5933(3) 0.8003(2)
O5 O 0.92669(17) 1.3007(3) 0.62865(18)
O6 O 1.0495(2) 1.3629(4) 0.6279(3)
O7 O 1.12964(15) 1.0661(3) 0.93749(17)
O8 O 0.99353(14) 1.0639(2) 0.87532(15)
C1 C 0.6745(2) 1.1658(4) 0.8307(3)
H2 H 0.6197 1.1933 0.7959
C2 C 0.6820(2) 1.0816(4) 0.9044(3)
H3 H 0.6320 1.0568 0.9150
H4 H 0.7291 1.0908 0.9565
C3 C 0.6968(2) 1.0353(4) 0.8235(3)
H5 H 0.6569 0.9809 0.7842
C4 C 0.7870(2) 1.0291(3) 0.8283(2)
C5 C 0.8132(2) 1.1597(3) 0.8334(2)
C6 C 0.8792(2) 1.1964(3) 0.8126(2)
C7 C 0.8882(2) 1.3290(3) 0.8055(2)
C8 C 0.8086(2) 1.3916(4) 0.7561(3)
C9 C 0.7318(2) 1.3280(4) 0.7573(3)
H6 H 0.7112 1.2789 0.7052
H7 H 0.6903 1.3875 0.7567
C10 C 0.7469(2) 1.2475(4) 0.8380(2)
C11 C 0.9525(2) 1.3985(3) 0.8471(2)
C12 C 0.9480(2) 1.5325(4) 0.8409(3)
C13 C 1.0312(2) 1.3555(4) 0.9111(2)
H8 H 1.0724 1.3504 0.8828
H9 H 1.0232 1.2773 0.9325
H10 H 1.0487 1.4112 0.9589
C14 C 0.7679(2) 1.3263(4) 0.9203(3)
H11 H 0.7840 1.2757 0.9711
H12 H 0.7207 1.3729 0.9197
H13 H 0.8122 1.3797 0.9214
C15 C 0.7985(2) 0.9790(4) 0.7458(3)
H14 H 0.7644 1.0245 0.6961
H15 H 0.7800 0.8958 0.7385
C16 C 0.8978(5) 1.7046(5) 0.8941(5)
H16 H 0.8665 1.7305 0.8364
H17 H 0.9503 1.7436 0.9115
H18 H 0.8691 1.7256 0.9342
C17 C 0.8274(3) 0.8935(5) 0.5899(3)
H19 H 0.7874 0.8534 0.6121
C18 C 0.8410(4) 0.8434(7) 0.5096(4)
H20 H 0.8962 0.8465 0.5061
H21 H 0.8094 0.7731 0.4828
C19 C 0.7966(3) 0.9591(7) 0.5049(3)
H22 H 0.7375 0.9613 0.4743
C20 C 0.8452(3) 1.0740(6) 0.5137(3)
C21 C 0.8830(2) 1.0949(5) 0.6113(2)
H23 H 0.8392 1.1316 0.6293
C22 C 0.9559(2) 1.1778(4) 0.6472(2)
H24 H 0.9973 1.1606 0.6191
C23 C 0.9901(2) 1.1534(3) 0.7432(2)
C24 C 0.9349(2) 1.1017(3) 0.7921(2)
C25 C 0.8874(2) 0.9843(4) 0.7466(2)
H25 H 0.9155 0.9155 0.7815
C26 C 0.8960(3) 0.9684(4) 0.6542(3)
C27 C 1.0680(2) 1.1456(4) 0.7934(2)
C28 C 1.0706(2) 1.0897(4) 0.8759(2)
C29 C 1.1468(2) 1.1793(5) 0.7777(3)
H26 H 1.1347 1.2194 0.7224
H27 H 1.1781 1.1078 0.7775
H28 H 1.1778 1.2324 0.8233
C30 C 0.9799(3) 0.9093(5) 0.6626(3)
H29 H 0.9963 0.9311 0.6132
H30 H 0.9750 0.8231 0.6648
H31 H 1.0202 0.9370 0.7151
C31 C 0.8514(4) 1.1442(7) 0.4521(3)
H32 H 0.8235 1.1255 0.3941
H33 H 0.8836 1.2133 0.4659
C32 C 0.9795(3) 1.3848(5) 0.6181(3)
C33 C 0.9411(4) 1.5035(5) 0.5948(4)
H34 H 0.9060 1.5023 0.5352
H35 H 0.9828 1.5637 0.6017
H36 H 0.9092 1.5223 0.6322
loop_
_geom_bond_atom_site_label_1
_geom_bond_atom_site_label_2
_geom_bond_site_symmetry_1
_geom_bond_site_symmetry_2
O1 H1 1_555 1_555
O2 C8 1_555 1_555
O3 C12 1_555 1_555
O4 C12 1_555 1_555
O5 C22 1_555 1_555
O6 C32 1_555 1_555
O7 C28 1_555 1_555
O8 C24 1_555 1_555
C1 H2 1_555 1_555
C2 C1 1_555 1_555
H3 C2 1_555 1_555
H4 C2 1_555 1_555
C3 C1 1_555 1_555
H5 C3 1_555 1_555
C4 O1 1_555 1_555
C5 C4 1_555 1_555
C6 C5 1_555 1_555
C7 C6 1_555 1_555
C8 C7 1_555 1_555
C9 C8 1_555 1_555
H6 C9 1_555 1_555
H7 C9 1_555 1_555
C10 C1 1_555 1_555
C11 C7 1_555 1_555
C12 C11 1_555 1_555
C13 C11 1_555 1_555
H8 C13 1_555 1_555
H9 C13 1_555 1_555
H10 C13 1_555 1_555
C14 C10 1_555 1_555
H11 C14 1_555 1_555
H12 C14 1_555 1_555
H13 C14 1_555 1_555
C15 C4 1_555 1_555
H14 C15 1_555 1_555
H15 C15 1_555 1_555
C16 O3 1_555 1_555
H16 C16 1_555 1_555
H17 C16 1_555 1_555
H18 C16 1_555 1_555
C17 H19 1_555 1_555
C18 C17 1_555 1_555
H20 C18 1_555 1_555
H21 C18 1_555 1_555
C19 C17 1_555 1_555
H22 C19 1_555 1_555
C20 C19 1_555 1_555
C21 C20 1_555 1_555
H23 C21 1_555 1_555
C22 C21 1_555 1_555
H24 C22 1_555 1_555
C23 C22 1_555 1_555
C24 C6 1_555 1_555
C25 C15 1_555 1_555
H25 C25 1_555 1_555
C26 C17 1_555 1_555
C27 C23 1_555 1_555
C28 O8 1_555 1_555
C29 C27 1_555 1_555
H26 C29 1_555 1_555
H27 C29 1_555 1_555
H28 C29 1_555 1_555
C30 C26 1_555 1_555
H29 C30 1_555 1_555
H30 C30 1_555 1_555
H31 C30 1_555 1_555
C31 C20 1_555 1_555
H32 C31 1_555 1_555
H33 C31 1_555 1_555
C32 O5 1_555 1_555
C33 C32 1_555 1_555
H34 C33 1_555 1_555
H35 C33 1_555 1_555
H36 C33 1_555 1_555
C2 C3 1_555 1_555
C3 C4 1_555 1_555
C5 C10 1_555 1_555
C9 C10 1_555 1_555
C18 C19 1_555 1_555
C21 C26 1_555 1_555
C23 C24 1_555 1_555
C24 C25 1_555 1_555
C25 C26 1_555 1_555
C27 C28 1_555 1_555

#END
