
#######################################################################
#
#                 Cambridge Crystallographic Data Centre
#                                CCDC 
#
#######################################################################
#
# If this CIF has been generated from an entry in the Cambridge 
# Structural Database, then it will include bibliographic, chemical, 
# crystal, experimental, refinement or atomic coordinate data resulting 
# from the CCDC's data processing and validation procedures.
#
#######################################################################

data_DEZWOX
_chemical_name_common            
1-[(4-bromophenyl)sulfonyl]-7-methyl-9-[(4-methylphenyl)sulfonyl]-3,4-diphenyl-3,9,10,10a-tetrahydropyrrolo[2,3-b]carbazol-2(1H)-one
_chemical_formula_moiety         'C40 H31 Br1 N2 O5 S2'
_chemical_name_systematic        
(3S,10aS)-1-((4-bromophenyl)sulfonyl)-7-methyl-3,4-diphenyl-9-tosyl-3,9,10,10a-tetrahydropyrrolo[2,3-b]carbazol-2(1H)-one
_symmetry_cell_setting           triclinic
_symmetry_space_group_name_H-M   'P -1'
_symmetry_Int_Tables_number      2
_space_group_name_Hall           '-P 1'
loop_
_symmetry_equiv_pos_site_id
_symmetry_equiv_pos_as_xyz
1 x,y,z
2 -x,-y,-z
_cell_length_a                   10.1352(5)
_cell_length_b                   13.2429(7)
_cell_length_c                   16.5954(8)
_cell_angle_alpha                110.962(5)
_cell_angle_beta                 96.295(4)
_cell_angle_gamma                91.276(4)
_cell_volume                     2062.93
_exptl_crystal_colour            white
_cell_formula_units_Z            2
_exptl_crystal_recrystallization_method 'hexane/ethyl acetate'
loop_
_atom_site_label
_atom_site_type_symbol
_atom_site_fract_x
_atom_site_fract_y
_atom_site_fract_z
Br1 Br 1.1959(2) 0.8640(2) 0.07030(19)
S1 S 0.2398(4) 0.7333(3) 0.3917(2)
O1 O 0.6588(10) 0.5645(8) -0.0025(6)
N1 N 0.5954(11) 0.6453(9) 0.1325(7)
O2 O 0.2282(11) 0.7779(9) 0.3255(6)
O3 O 0.5890(12) 0.8345(8) 0.2241(8)
S2 S 0.6042(4) 0.7734(3) 0.1385(3)
N2 N 0.3000(11) 0.6125(9) 0.3497(7)
O4 O 0.1227(10) 0.7152(9) 0.4267(7)
C1 C 0.6348(13) 0.5601(11) 0.0653(9)
C2 C 0.4410(12) 0.4886(11) 0.2797(8)
C3 C 0.5576(13) 0.6171(10) 0.2067(8)
H1 H 0.6183 0.6560 0.2597
C4 C 0.3861(13) 0.5829(11) 0.2838(8)
C5 C 0.5790(12) 0.4938(10) 0.1747(8)
C6 C 0.3944(13) 0.4593(11) 0.3500(8)
C7 C 0.6562(12) 0.4649(10) 0.0979(8)
H2 H 0.6199 0.3961 0.0528
C8 C 0.5208(12) 0.4330(10) 0.2096(8)
C9 C 0.8064(13) 0.4633(11) 0.1199(9)
C10 C 0.5229(13) 0.3136(11) 0.1806(8)
C11 C 0.3107(13) 0.5369(11) 0.3912(9)
C12 C 0.4278(16) 0.3757(12) 0.3804(10)
H3 H 0.4886 0.3261 0.3552
C13 C 0.4076(15) 0.2495(12) 0.1663(9)
H4 H 0.3281 0.2827 0.1768
C14 C 0.4153(13) 0.6384(11) 0.2227(9)
H5 H 0.4050 0.7156 0.2486
H6 H 0.3557 0.6089 0.1687
C15 C 0.7682(14) 0.7958(11) 0.1199(9)
C16 C 0.8802(15) 0.4230(13) 0.0514(10)
H7 H 0.8396 0.3962 -0.0059
C17 C 0.3668(17) 0.3703(14) 0.4493(10)
H8 H 0.3837 0.3134 0.4686
C18 C 0.8644(15) 0.5013(14) 0.2012(10)
H9 H 0.8115 0.5274 0.2456
C19 C 0.2498(16) 0.5314(12) 0.4615(9)
H10 H 0.1908 0.5824 0.4873
C20 C 0.3630(17) 0.8074(12) 0.4774(10)
C21 C 0.2787(17) 0.4491(14) 0.4921(10)
C22 C 0.6437(17) 0.2589(13) 0.1628(12)
H11 H 0.7230 0.2992 0.1692
C23 C 0.7867(16) 0.8331(13) 0.0525(10)
H12 H 0.7134 0.8429 0.0178
C24 C 0.8728(17) 0.7802(16) 0.1712(11)
H13 H 0.8581 0.7550 0.2152
C25 C 0.337(2) 0.8271(14) 0.5611(12)
H14 H 0.2572 0.8017 0.5716
C26 C 0.4785(18) 0.8438(14) 0.4586(11)
H15 H 0.4917 0.8307 0.4013
C27 C 0.405(2) 0.1385(13) 0.1374(10)
H16 H 0.3248 0.0982 0.1276
C28 C 1.0825(18) 0.4637(15) 0.1604(14)
H17 H 1.1737 0.4617 0.1738
C29 C 0.553(2) 0.9216(14) 0.6121(13)
C30 C 1.024(2) 0.8392(14) 0.0927(13)
C31 C 0.643(2) 0.1505(15) 0.1372(13)
H18 H 0.7231 0.1169 0.1289
C32 C 1.0229(17) 0.4240(14) 0.0719(13)
H19 H 1.0759 0.3987 0.0274
C33 C 1.0068(19) 0.8026(17) 0.1579(13)
H20 H 1.0794 0.7923 0.1929
C34 C 1.0059(17) 0.5039(16) 0.2240(13)
H21 H 1.0436 0.5330 0.2818
C35 C 0.522(2) 0.0863(14) 0.1226(11)
H22 H 0.5211 0.0112 0.1035
C36 C 0.434(2) 0.8862(16) 0.6307(13)
H23 H 0.4189 0.9012 0.6880
C37 C 0.227(2) 0.4436(17) 0.5720(10)
H24 H 0.1886 0.3719 0.5597
H25 H 0.1601 0.4949 0.5887
H26 H 0.2987 0.4606 0.6185
C38 C 0.576(2) 0.9005(15) 0.5266(14)
H27 H 0.6561 0.9245 0.5149
C39 C 0.663(2) 0.9807(17) 0.6842(14)
H28 H 0.6395 1.0533 0.7140
H29 H 0.7443 0.9828 0.6601
H30 H 0.6745 0.9436 0.7245
O5 O 0.5141(10) 0.7849(9) 0.0712(8)
C40 C 0.912(2) 0.8547(16) 0.0379(12)
H31 H 0.9249 0.8792 -0.0069
loop_
_geom_bond_atom_site_label_1
_geom_bond_atom_site_label_2
_geom_bond_site_symmetry_1
_geom_bond_site_symmetry_2
Br1 C30 1_555 1_555
S1 O2 1_555 1_555
O1 C1 1_555 1_555
N1 S2 1_555 1_555
O3 S2 1_555 1_555
S2 C15 1_555 1_555
N2 S1 1_555 1_555
O4 S1 1_555 1_555
C1 N1 1_555 1_555
C2 C4 1_555 1_555
C3 N1 1_555 1_555
H1 C3 1_555 1_555
C4 N2 1_555 1_555
C5 C3 1_555 1_555
C6 C2 1_555 1_555
C7 C1 1_555 1_555
H2 C7 1_555 1_555
C8 C2 1_555 1_555
C9 C7 1_555 1_555
C10 C8 1_555 1_555
C11 N2 1_555 1_555
C12 C6 1_555 1_555
H3 C12 1_555 1_555
C13 C10 1_555 1_555
H4 C13 1_555 1_555
C14 C3 1_555 1_555
H5 C14 1_555 1_555
H6 C14 1_555 1_555
C15 C23 1_555 1_555
C16 C9 1_555 1_555
H7 C16 1_555 1_555
C17 C12 1_555 1_555
H8 C17 1_555 1_555
C18 C9 1_555 1_555
H9 C18 1_555 1_555
C19 C11 1_555 1_555
H10 C19 1_555 1_555
C20 S1 1_555 1_555
C21 C17 1_555 1_555
C22 C10 1_555 1_555
H11 C22 1_555 1_555
C23 H12 1_555 1_555
C24 C15 1_555 1_555
H13 C24 1_555 1_555
C25 C20 1_555 1_555
H14 C25 1_555 1_555
C26 C20 1_555 1_555
H15 C26 1_555 1_555
C27 C13 1_555 1_555
H16 C27 1_555 1_555
C28 H17 1_555 1_555
C29 C36 1_555 1_555
C30 C33 1_555 1_555
C31 C22 1_555 1_555
H18 C31 1_555 1_555
C32 C16 1_555 1_555
H19 C32 1_555 1_555
C33 C24 1_555 1_555
H20 C33 1_555 1_555
C34 C18 1_555 1_555
H21 C34 1_555 1_555
C35 C27 1_555 1_555
H22 C35 1_555 1_555
C36 C25 1_555 1_555
H23 C36 1_555 1_555
C37 C21 1_555 1_555
H24 C37 1_555 1_555
H25 C37 1_555 1_555
H26 C37 1_555 1_555
C38 C26 1_555 1_555
H27 C38 1_555 1_555
C39 C29 1_555 1_555
H28 C39 1_555 1_555
H29 C39 1_555 1_555
H30 C39 1_555 1_555
O5 S2 1_555 1_555
C40 C23 1_555 1_555
H31 C40 1_555 1_555
C4 C14 1_555 1_555
C5 C7 1_555 1_555
C5 C8 1_555 1_555
C6 C11 1_555 1_555
C19 C21 1_555 1_555
C28 C32 1_555 1_555
C28 C34 1_555 1_555
C29 C38 1_555 1_555
C30 C40 1_555 1_555
C31 C35 1_555 1_555

#END
