
#######################################################################
#
#                 Cambridge Crystallographic Data Centre
#                                CCDC 
#
#######################################################################
#
# If this CIF has been generated from an entry in the Cambridge 
# Structural Database, then it will include bibliographic, chemical, 
# crystal, experimental, refinement or atomic coordinate data resulting 
# from the CCDC's data processing and validation procedures.
#
#######################################################################

data_DEZWIP
_chemical_name_common            
3-Hydroxy-5-phenyl-3-(trifluoromethyl)cyclohexanone
_chemical_formula_moiety         'C13 H13 F3 O2'
_chemical_name_systematic        
3-Hydroxy-3-(trifluoromethyl)-5-phenylcyclohexanone
_symmetry_cell_setting           triclinic
_symmetry_space_group_name_H-M   'P -1'
_symmetry_Int_Tables_number      2
_space_group_name_Hall           '-P 1'
loop_
_symmetry_equiv_pos_site_id
_symmetry_equiv_pos_as_xyz
1 x,y,z
2 -x,-y,-z
_cell_length_a                   5.638(7)
_cell_length_b                   10.936(13)
_cell_length_c                   11.297(13)
_cell_angle_alpha                62.895(19)
_cell_angle_beta                 88.760(19)
_cell_angle_gamma                81.63(2)
_cell_volume                     612.648
_exptl_crystal_colour            colorless
_exptl_crystal_description       prismatic
_chemical_melting_point          140-141deg.C
_cell_formula_units_Z            2
loop_
_atom_site_label
_atom_site_type_symbol
_atom_site_fract_x
_atom_site_fract_y
_atom_site_fract_z
O1 O 0.6860(6) 0.0883(3) 1.0506(3)
O2 O 1.1739(5) 0.1959(3) 0.8407(3)
F1 F 1.2179(6) 0.2946(3) 0.5698(3)
F2 F 0.8555(6) 0.2768(4) 0.5367(3)
F3 F 1.1063(6) 0.0941(3) 0.6576(3)
C1 C 0.6895(7) 0.1831(4) 0.9390(4)
C2 C 0.7656(7) 0.1590(4) 0.8213(4)
H1 H 0.6301 0.1879 0.7581
H2 H 0.8206 0.0608 0.8509
C3 C 0.9695(7) 0.2431(4) 0.7541(4)
C4 C 0.8912(8) 0.3973(4) 0.7140(4)
H3 H 0.7559 0.4334 0.6497
H4 H 1.0218 0.4483 0.6721
C5 C 0.8198(8) 0.4192(4) 0.8359(4)
C6 C 0.6198(8) 0.3342(4) 0.9088(5)
H5 H 0.5919 0.3400 0.9913
H6 H 0.4720 0.3729 0.8538
C7 C 1.0347(9) 0.2275(4) 0.6286(5)
C8 C 0.7553(8) 0.5732(4) 0.7947(4)
C9 C 0.5461(8) 0.6507(4) 0.7214(5)
H7 H 0.4373 0.6064 0.7005
C10 C 0.4938(9) 0.7934(5) 0.6780(5)
H8 H 0.3518 0.8433 0.6285
C11 C 0.6534(10) 0.8607(5) 0.7085(5)
H9 H 0.6194 0.9560 0.6797
C12 C 0.8616(10) 0.7864(5) 0.7813(6)
H10 H 0.9690 0.8311 0.8028
C13 C 0.9133(9) 0.6426(4) 0.8237(5)
H11 H 1.0564 0.5931 0.8721
H12 H 1.200(10) 0.111(7) 0.878(6)
H13 H 0.957(7) 0.387(4) 0.890(4)
loop_
_geom_bond_atom_site_label_1
_geom_bond_atom_site_label_2
_geom_bond_site_symmetry_1
_geom_bond_site_symmetry_2
O1 C1 1_555 1_555
O2 C3 1_555 1_555
F1 C7 1_555 1_555
F2 C7 1_555 1_555
F3 C7 1_555 1_555
C1 C2 1_555 1_555
C2 H1 1_555 1_555
H2 C2 1_555 1_555
C3 C2 1_555 1_555
C4 C3 1_555 1_555
H3 C4 1_555 1_555
H4 C4 1_555 1_555
C5 C4 1_555 1_555
C6 C1 1_555 1_555
H5 C6 1_555 1_555
H6 C6 1_555 1_555
C7 C3 1_555 1_555
C8 C5 1_555 1_555
C9 C8 1_555 1_555
H7 C9 1_555 1_555
C10 C9 1_555 1_555
H8 C10 1_555 1_555
C11 C10 1_555 1_555
H9 C11 1_555 1_555
C12 C11 1_555 1_555
H10 C12 1_555 1_555
C13 C8 1_555 1_555
H11 C13 1_555 1_555
H12 O2 1_555 1_555
H13 C5 1_555 1_555
C5 C6 1_555 1_555
C12 C13 1_555 1_555

#END
