
#######################################################################
#
#                 Cambridge Crystallographic Data Centre
#                                CCDC 
#
#######################################################################
#
# If this CIF has been generated from an entry in the Cambridge 
# Structural Database, then it will include bibliographic, chemical, 
# crystal, experimental, refinement or atomic coordinate data resulting 
# from the CCDC's data processing and validation procedures.
#
#######################################################################

data_DEZXAK
_chemical_name_common            
1-[(4-methylphenyl)sulfonyl]-3,4-diphenyl-1,3,9,9a-tetrahydro-2H-benzo[f]indol-2-one
_chemical_formula_moiety         'C31 H25 N1 O3 S1'
_chemical_name_systematic        
(3R,9aS)-3,4-diphenyl-1-tosyl-9,9a-dihydro-1H-benzo[f]indol-2(3H)-one
_symmetry_cell_setting           monoclinic
_symmetry_space_group_name_H-M   'P 21/n'
_symmetry_Int_Tables_number      14
_space_group_name_Hall           '-P 2yn'
loop_
_symmetry_equiv_pos_site_id
_symmetry_equiv_pos_as_xyz
1 x,y,z
2 1/2-x,1/2+y,1/2-z
3 -x,-y,-z
4 1/2+x,1/2-y,1/2+z
_cell_length_a                   11.7246(4)
_cell_length_b                   12.2563(6)
_cell_length_c                   16.5665(7)
_cell_angle_alpha                90
_cell_angle_beta                 98.550(4)
_cell_angle_gamma                90
_cell_volume                     2354.15
_exptl_crystal_colour            'light yellow'
_exptl_crystal_description       block
_cell_formula_units_Z            4
_exptl_crystal_recrystallization_method 'hexane/ethyl acetate'
loop_
_atom_site_label
_atom_site_type_symbol
_atom_site_fract_x
_atom_site_fract_y
_atom_site_fract_z
S1 S 0.15673(4) 0.77916(4) 0.46266(3)
O1 O 0.04972(12) 0.79958(12) 0.49033(8)
O2 O 0.23303(12) 0.86718(12) 0.45266(9)
O3 O 0.07640(12) 0.60079(13) 0.57119(9)
N1 N 0.23197(13) 0.69434(14) 0.53094(10)
C1 C 0.13474(16) 0.70197(17) 0.37223(12)
C2 C 0.19984(17) 0.72449(17) 0.31063(12)
H1 H 0.2555 0.7814 0.3169
C3 C 0.51250(16) 0.46993(17) 0.68694(12)
C4 C 0.27197(16) 0.54734(17) 0.71084(12)
C5 C 0.58474(17) 0.61349(17) 0.59205(12)
C6 C 0.38111(17) 0.58282(17) 0.59240(12)
C7 C 0.17836(16) 0.61294(17) 0.57246(12)
C8 C 0.10296(17) 0.57736(18) 0.23098(12)
C9 C 0.49075(17) 0.55540(17) 0.62220(12)
C10 C 0.47926(17) 0.36276(17) 0.67107(13)
H2 H 0.4528 0.3405 0.6166
C11 C 0.27229(16) 0.54130(17) 0.61921(12)
H3 H 0.2595 0.4639 0.6009
C12 C 0.69839(17) 0.57450(19) 0.60455(13)
H4 H 0.7160 0.5091 0.6346
C13 C 0.05393(17) 0.61842(18) 0.36471(12)
H5 H 0.0094 0.6043 0.4070
C14 C 0.55553(17) 0.49958(18) 0.76736(12)
H6 H 0.5828 0.5717 0.7789
C15 C 0.56010(17) 0.71117(18) 0.54804(12)
C16 C 0.18222(18) 0.66260(18) 0.23986(13)
H7 H 0.2249 0.6786 0.1968
C17 C 0.64928(17) 0.76641(19) 0.51841(13)
H8 H 0.6333 0.8328 0.4894
C18 C 0.03973(17) 0.55614(18) 0.29421(13)
H9 H -0.0142 0.4978 0.2888
C19 C 0.76068(17) 0.72594(18) 0.53065(12)
H10 H 0.8204 0.7640 0.5095
C20 C 0.25726(19) 0.45923(19) 0.83872(13)
H11 H 0.2419 0.3957 0.8681
C21 C 0.24987(17) 0.45541(18) 0.75430(13)
H12 H 0.2295 0.3890 0.7262
C22 C 0.78498(17) 0.62960(19) 0.57389(13)
H13 H 0.8614 0.6016 0.5823
C23 C 0.35498(17) 0.67073(19) 0.53053(15)
H14 H 0.3585 0.6346 0.4768
C24 C 0.3086(2) 0.6482(2) 0.83673(14)
H15 H 0.3288 0.7146 0.8649
C25 C 0.52181(18) 0.3190(2) 0.81369(14)
H16 H 0.5224 0.2681 0.8570
C26 C 0.30060(19) 0.64406(19) 0.75263(13)
H17 H 0.3148 0.7079 0.7232
C27 C 0.55861(18) 0.4248(2) 0.82990(13)
H18 H 0.5862 0.4463 0.8844
C28 C 0.48423(18) 0.28761(18) 0.73417(14)
H19 H 0.4616 0.2142 0.7226
C29 C 0.0865(2) 0.5077(2) 0.15513(14)
H20 H 0.0091 0.5198 0.1249
H21 H 0.0952 0.4306 0.1705
H22 H 0.1443 0.5273 0.1206
C30 C 0.2870(2) 0.5556(2) 0.87991(13)
H23 H 0.2925 0.5583 0.9377
C31 C 0.44039(19) 0.7550(2) 0.53668(18)
H24 H 0.4311 0.8029 0.5834
H25 H 0.4278 0.7999 0.4865
loop_
_geom_bond_atom_site_label_1
_geom_bond_atom_site_label_2
_geom_bond_site_symmetry_1
_geom_bond_site_symmetry_2
S1 O1 1_555 1_555
O2 S1 1_555 1_555
O3 C7 1_555 1_555
N1 S1 1_555 1_555
C1 S1 1_555 1_555
C2 C1 1_555 1_555
H1 C2 1_555 1_555
C3 C9 1_555 1_555
C4 C11 1_555 1_555
C5 C9 1_555 1_555
C6 C9 1_555 1_555
C7 N1 1_555 1_555
C8 C16 1_555 1_555
C10 C3 1_555 1_555
H2 C10 1_555 1_555
C11 C6 1_555 1_555
H3 C11 1_555 1_555
C12 C5 1_555 1_555
H4 C12 1_555 1_555
C13 C1 1_555 1_555
H5 C13 1_555 1_555
C14 C3 1_555 1_555
H6 C14 1_555 1_555
C15 C5 1_555 1_555
C16 C2 1_555 1_555
H7 C16 1_555 1_555
C17 C15 1_555 1_555
H8 C17 1_555 1_555
C18 C8 1_555 1_555
H9 C18 1_555 1_555
C19 C17 1_555 1_555
H10 C19 1_555 1_555
C20 H11 1_555 1_555
C21 C4 1_555 1_555
H12 C21 1_555 1_555
C22 C12 1_555 1_555
H13 C22 1_555 1_555
C23 N1 1_555 1_555
H14 C23 1_555 1_555
C24 H15 1_555 1_555
C25 H16 1_555 1_555
C26 C4 1_555 1_555
H17 C26 1_555 1_555
C27 C14 1_555 1_555
H18 C27 1_555 1_555
C28 C10 1_555 1_555
H19 C28 1_555 1_555
C29 C8 1_555 1_555
H20 C29 1_555 1_555
H21 C29 1_555 1_555
H22 C29 1_555 1_555
C30 C20 1_555 1_555
H23 C30 1_555 1_555
C31 C15 1_555 1_555
H24 C31 1_555 1_555
H25 C31 1_555 1_555
C6 C23 1_555 1_555
C7 C11 1_555 1_555
C13 C18 1_555 1_555
C19 C22 1_555 1_555
C20 C21 1_555 1_555
C23 C31 1_555 1_555
C24 C26 1_555 1_555
C24 C30 1_555 1_555
C25 C27 1_555 1_555
C25 C28 1_555 1_555

#END
