
#######################################################################
#
#                 Cambridge Crystallographic Data Centre
#                                CCDC 
#
#######################################################################
#
# If this CIF has been generated from an entry in the Cambridge 
# Structural Database, then it will include bibliographic, chemical, 
# crystal, experimental, refinement or atomic coordinate data resulting 
# from the CCDC's data processing and validation procedures.
#
#######################################################################

data_DEZZOA
_chemical_formula_moiety         'C58 H48 N4 O4 S2,C1 H2 Cl2'
_chemical_name_systematic        
"N,N'-{[2,3-bis(5-methylthiophen-2-yl)quinoxaline-5,8-diyl]bis(4,1-phenylene)}bis[4-methoxy-N-(4-methoxyphenyl)aniline] dichloromethane solvate"
_symmetry_cell_setting           orthorhombic
_symmetry_space_group_name_H-M   'P n a 21'
_symmetry_Int_Tables_number      33
_space_group_name_Hall           'P 2c -2n'
loop_
_symmetry_equiv_pos_site_id
_symmetry_equiv_pos_as_xyz
1 x,y,z
2 -x,-y,1/2+z
3 1/2+x,1/2-y,z
4 1/2-x,1/2+y,1/2+z
_cell_length_a                   25.387(2)
_cell_length_b                   27.537(3)
_cell_length_c                   21.8595(19)
_cell_angle_alpha                90
_cell_angle_beta                 90
_cell_angle_gamma                90
_cell_volume                     15281.6
_exptl_crystal_colour            red
_exptl_crystal_description       prismatic
_cell_formula_units_Z            12
loop_
_atom_site_label
_atom_site_type_symbol
_atom_site_fract_x
_atom_site_fract_y
_atom_site_fract_z
S1 S 0.63593(11) 0.47363(9) 0.24904(14)
S2 S 0.65462(12) 0.24386(10) 0.28960(13)
N1 N 0.5688(3) 0.4098(3) 0.3183(4)
N2 N 0.5708(3) 0.3089(3) 0.3290(4)
N3 N 0.5095(4) 0.1067(3) 0.4492(5)
N4 N 0.4663(4) 0.6193(3) 0.3463(4)
O1 O 0.3902(5) -0.0279(4) 0.3207(9)
O2 O 0.6792(4) 0.0271(3) 0.5758(5)
O3 O 0.4564(3) 0.6998(3) 0.1110(4)
O4 O 0.5113(5) 0.7486(4) 0.5368(4)
C1 C 0.7007(4) 0.4860(4) 0.2296(5)
C2 C 0.7305(5) 0.4456(4) 0.2372(5)
H1 H 0.7674 0.4452 0.2301
C3 C 0.7018(4) 0.4035(4) 0.2571(5)
H2 H 0.7173 0.3726 0.2637
C4 C 0.6497(4) 0.4131(3) 0.2652(4)
C5 C 0.6065(4) 0.3843(3) 0.2911(5)
C6 C 0.5305(4) 0.3864(4) 0.3505(5)
C7 C 0.5345(4) 0.3359(4) 0.3605(5)
C8 C 0.6053(4) 0.3316(3) 0.2938(5)
C9 C 0.6393(4) 0.2998(3) 0.2585(5)
C10 C 0.6585(5) 0.3034(4) 0.1999(5)
H3 H 0.6549 0.3316 0.1751
C11 C 0.6844(5) 0.2602(4) 0.1803(6)
H4 H 0.6987 0.2563 0.1405
C12 C 0.6867(5) 0.2249(4) 0.2241(5)
C13 C 0.7122(5) 0.1760(4) 0.2217(6)
H5 H 0.6851 0.1508 0.2247
H6 H 0.7369 0.1727 0.2559
H7 H 0.7313 0.1725 0.1830
C14 C 0.7162(5) 0.5348(4) 0.2083(6)
H8 H 0.7143 0.5578 0.2424
H9 H 0.6924 0.5453 0.1756
H10 H 0.7524 0.5337 0.1926
C15 C 0.4885(4) 0.4141(4) 0.3782(5)
C16 C 0.4546(4) 0.3886(4) 0.4161(5)
H11 H 0.4267 0.4055 0.4356
C17 C 0.4602(4) 0.3392(4) 0.4266(5)
H12 H 0.4357 0.3241 0.4535
C18 C 0.4985(4) 0.3108(4) 0.4009(5)
C19 C 0.5027(4) 0.2584(4) 0.4129(5)
C20 C 0.5506(4) 0.2360(4) 0.4279(5)
H13 H 0.5817 0.2551 0.4294
C21 C 0.5539(4) 0.1874(4) 0.4403(5)
H14 H 0.5869 0.1734 0.4505
C22 C 0.5078(5) 0.1577(4) 0.4379(6)
C23 C 0.4601(5) 0.1795(4) 0.4233(6)
H15 H 0.4288 0.1607 0.4213
C24 C 0.4586(4) 0.2294(4) 0.4117(5)
H16 H 0.4256 0.2440 0.4025
C25 C 0.5532(4) 0.0862(4) 0.4800(6)
C26 C 0.5674(5) 0.1019(4) 0.5390(7)
H17 H 0.5479 0.1270 0.5582
C27 C 0.6091(6) 0.0811(5) 0.5690(6)
H18 H 0.6180 0.0917 0.6091
C28 C 0.6384(5) 0.0449(5) 0.5413(7)
C29 C 0.6265(5) 0.0294(4) 0.4853(7)
H19 H 0.6468 0.0046 0.4665
C30 C 0.5829(5) 0.0505(4) 0.4539(6)
H20 H 0.5743 0.0394 0.4140
C31 C 0.7121(6) -0.0074(6) 0.5486(10)
H21 H 0.6947 -0.0392 0.5489
H22 H 0.7452 -0.0094 0.5715
H23 H 0.7195 0.0022 0.5063
C32 C 0.4768(4) 0.0749(4) 0.4138(8)
C33 C 0.4476(6) 0.0405(5) 0.4457(8)
H24 H 0.4474 0.0408 0.4891
C34 C 0.4185(7) 0.0054(6) 0.4143(11)
H25 H 0.3985 -0.0184 0.4354
C35 C 0.4199(6) 0.0068(5) 0.3495(13)
C36 C 0.4474(5) 0.0420(5) 0.3183(8)
H26 H 0.4470 0.0433 0.2749
C37 C 0.4757(5) 0.0755(5) 0.3522(8)
H27 H 0.4951 0.0999 0.3313
C38 C 0.3821(7) -0.0233(6) 0.2581(12)
H28 H 0.3643 0.0075 0.2496
H29 H 0.3602 -0.0503 0.2436
H30 H 0.4161 -0.0239 0.2369
C39 C 0.4826(4) 0.4673(4) 0.3685(5)
C40 C 0.4636(4) 0.4965(4) 0.4152(5)
H31 H 0.4544 0.4820 0.4532
C41 C 0.4574(4) 0.5469(4) 0.4078(5)
H32 H 0.4437 0.5658 0.4404
C42 C 0.4712(4) 0.5691(4) 0.3533(5)
C43 C 0.4882(4) 0.5395(4) 0.3045(5)
H33 H 0.4956 0.5535 0.2658
C44 C 0.4941(4) 0.4902(4) 0.3132(5)
H34 H 0.5066 0.4711 0.2800
C45 C 0.4645(4) 0.6408(4) 0.2867(5)
C46 C 0.4980(4) 0.6780(4) 0.2701(5)
H35 H 0.5226 0.6897 0.2994
C47 C 0.4972(4) 0.6991(4) 0.2128(5)
H36 H 0.5204 0.7250 0.2031
C48 C 0.4617(4) 0.6816(4) 0.1696(5)
C49 C 0.4269(5) 0.6444(4) 0.1847(5)
H37 H 0.4029 0.6323 0.1550
C50 C 0.4273(4) 0.6248(4) 0.2446(6)
H38 H 0.4022 0.6008 0.2560
C51 C 0.4919(6) 0.7382(6) 0.0937(6)
H39 H 0.4844 0.7672 0.1183
H40 H 0.4871 0.7457 0.0503
H41 H 0.5283 0.7278 0.1009
C52 C 0.4777(4) 0.6516(4) 0.3974(5)
C53 C 0.5190(4) 0.6419(4) 0.4369(5)
H42 H 0.5395 0.6133 0.4315
C54 C 0.5306(5) 0.6731(4) 0.4835(5)
H43 H 0.5588 0.6660 0.5107
C55 C 0.5014(5) 0.7150(4) 0.4912(5)
C56 C 0.4610(5) 0.7260(4) 0.4519(5)
H44 H 0.4417 0.7554 0.4563
C57 C 0.4486(4) 0.6933(4) 0.4054(5)
H45 H 0.4198 0.6999 0.3789
C58 C 0.5458(8) 0.7398(7) 0.5784(9)
H46 H 0.5409 0.7068 0.5939
H47 H 0.5417 0.7631 0.6120
H48 H 0.5812 0.7429 0.5609
S3 S 0.38945(11) 0.41117(10) 0.81077(13)
S4 S 0.34984(12) 0.18015(10) 0.81695(14)
N5 N 0.3728(3) 0.3448(3) 0.7114(4)
N6 N 0.3595(3) 0.2439(3) 0.7133(4)
N7 N 0.4270(4) 0.5463(3) 0.5843(4)
N8 N 0.2724(4) 0.0486(3) 0.5774(4)
O5 O 0.6296(3) 0.6124(3) 0.6354(4)
O6 O 0.2741(3) 0.6905(3) 0.5470(4)
O7 O 0.1731(3) -0.0592(3) 0.7605(4)
O8 O 0.2693(4) -0.0441(3) 0.3492(4)
C59 C 0.3669(4) 0.4271(4) 0.8823(5)
C60 C 0.3403(5) 0.3906(4) 0.9075(5)
H49 H 0.3236 0.3927 0.9463
C61 C 0.3394(4) 0.3485(4) 0.8712(5)
H50 H 0.3227 0.3193 0.8837
C62 C 0.3645(4) 0.3532(4) 0.8169(5)
C63 C 0.3684(4) 0.3215(4) 0.7629(4)
C64 C 0.3666(4) 0.2681(4) 0.7638(5)
C65 C 0.3728(4) 0.2388(4) 0.8195(5)
C66 C 0.3962(4) 0.2481(4) 0.8752(5)
H51 H 0.4113 0.2786 0.8857
C67 C 0.3954(5) 0.2084(4) 0.9147(6)
H52 H 0.4105 0.2088 0.9545
C68 C 0.3706(5) 0.1684(4) 0.8902(6)
C69 C 0.3617(6) 0.1197(4) 0.9185(6)
H53 H 0.3731 0.0943 0.8900
H54 H 0.3242 0.1157 0.9276
H55 H 0.3821 0.1173 0.9564
C70 C 0.3772(5) 0.4771(4) 0.9081(6)
H56 H 0.3564 0.4816 0.9454
H57 H 0.3672 0.5017 0.8779
H58 H 0.4147 0.4804 0.9178
C71 C 0.3697(4) 0.3190(4) 0.6570(5)
C72 C 0.3578(4) 0.2683(4) 0.6589(5)
C73 C 0.3467(4) 0.2431(4) 0.6025(5)
C74 C 0.3497(4) 0.2700(4) 0.5494(5)
H59 H 0.3417 0.2543 0.5118
C75 C 0.3638(4) 0.3186(4) 0.5479(5)
H60 H 0.3658 0.3348 0.5096
C76 C 0.3750(4) 0.3441(4) 0.6011(5)
C77 C 0.3887(4) 0.3964(4) 0.5980(5)
C78 C 0.3612(4) 0.4277(4) 0.5601(5)
H61 H 0.3322 0.4153 0.5375
C79 C 0.3743(4) 0.4765(4) 0.5537(5)
H62 H 0.3560 0.4962 0.5250
C80 C 0.4138(4) 0.4964(4) 0.5889(5)
C81 C 0.4421(4) 0.4652(4) 0.6273(5)
H63 H 0.4706 0.4779 0.6505
C82 C 0.4302(4) 0.4168(4) 0.6326(5)
H64 H 0.4500 0.3969 0.6597
C83 C 0.4797(4) 0.5617(4) 0.5970(5)
C84 C 0.4888(5) 0.5938(4) 0.6445(5)
H65 H 0.4605 0.6045 0.6697
C85 C 0.5401(5) 0.6103(4) 0.6552(6)
H66 H 0.5468 0.6331 0.6869
C86 C 0.5804(5) 0.5938(4) 0.6200(5)
C87 C 0.5716(5) 0.5613(4) 0.5737(5)
H67 H 0.5998 0.5493 0.5496
C88 C 0.5201(4) 0.5463(4) 0.5629(6)
H68 H 0.5134 0.5244 0.5303
C89 C 0.6721(5) 0.6050(5) 0.5914(6)
H69 H 0.6797 0.5702 0.5879
H70 H 0.7037 0.6221 0.6055
H71 H 0.6615 0.6177 0.5514
C90 C 0.3873(4) 0.5823(4) 0.5752(5)
C91 C 0.3358(5) 0.5753(4) 0.5965(5)
H72 H 0.3275 0.5461 0.6175
C92 C 0.2969(4) 0.6096(4) 0.5879(5)
H73 H 0.2620 0.6039 0.6017
C93 C 0.3102(5) 0.6533(4) 0.5582(5)
C94 C 0.3612(4) 0.6622(4) 0.5405(5)
H74 H 0.3704 0.6925 0.5227
C95 C 0.3993(4) 0.6266(4) 0.5488(5)
H75 H 0.4344 0.6328 0.5360
C96 C 0.2217(6) 0.6812(5) 0.5592(8)
H76 H 0.2096 0.6543 0.5335
H77 H 0.2008 0.7102 0.5503
H78 H 0.2176 0.6724 0.6024
C97 C 0.3302(4) 0.1917(4) 0.6015(5)
C98 C 0.2931(4) 0.1714(4) 0.6407(5)
H79 H 0.2806 0.1902 0.6740
C99 C 0.2742(5) 0.1258(4) 0.6330(5)
H80 H 0.2485 0.1139 0.6608
C100 C 0.2912(4) 0.0959(4) 0.5858(5)
C101 C 0.3307(4) 0.1145(4) 0.5469(5)
H81 H 0.3446 0.0947 0.5152
C102 C 0.3494(4) 0.1609(4) 0.5543(5)
H82 H 0.3757 0.1727 0.5272
C103 C 0.2443(5) 0.0238(4) 0.6254(5)
C104 C 0.2722(5) -0.0085(4) 0.6624(5)
H83 H 0.3093 -0.0113 0.6574
C105 C 0.2472(5) -0.0362(4) 0.7059(5)
H84 H 0.2660 -0.0597 0.7291
C106 C 0.1944(5) -0.0291(4) 0.7151(5)
C107 C 0.1660(5) 0.0036(4) 0.6823(6)
H85 H 0.1297 0.0082 0.6910
C108 C 0.1898(5) 0.0302(4) 0.6359(6)
H86 H 0.1699 0.0522 0.6118
C109 C 0.1210(5) -0.0503(5) 0.7772(6)
H87 H 0.1192 -0.0202 0.8012
H88 H 0.1078 -0.0774 0.8019
H89 H 0.0993 -0.0469 0.7404
C110 C 0.2717(5) 0.0248(4) 0.5186(5)
C111 C 0.2857(6) -0.0235(4) 0.5137(6)
H90 H 0.2964 -0.0407 0.5494
C112 C 0.2845(5) -0.0474(4) 0.4584(5)
H91 H 0.2934 -0.0808 0.4567
C113 C 0.2708(5) -0.0235(4) 0.4057(5)
C114 C 0.2575(5) 0.0248(4) 0.4091(6)
H92 H 0.2480 0.0420 0.3730
C115 C 0.2579(5) 0.0491(4) 0.4660(5)
H93 H 0.2486 0.0825 0.4680
C116 C 0.2885(6) -0.0931(4) 0.3439(6)
H94 H 0.3262 -0.0939 0.3531
H95 H 0.2826 -0.1049 0.3021
H96 H 0.2696 -0.1140 0.3728
S5 S 0.12377(12) 0.57676(11) 0.21735(16)
S6 S 0.09701(11) 0.36541(10) 0.30407(15)
N9 N 0.1906(3) 0.5297(3) 0.3206(4)
N10 N 0.1819(3) 0.4288(3) 0.3362(4)
N11 N 0.3027(4) 0.7331(3) 0.3358(4)
N12 N 0.2575(3) 0.2204(3) 0.4089(4)
O9 O 0.3122(3) 0.8201(3) 0.1053(4)
O10 O 0.3027(4) 0.8455(3) 0.5491(4)
O11 O 0.3667(4) 0.1060(3) 0.2406(4)
O12 O 0.1127(3) 0.1136(3) 0.5478(3)
C117 C 0.0598(5) 0.5958(4) 0.2100(6)
C118 C 0.0279(5) 0.5713(4) 0.2474(6)
H97 H -0.0090 0.5768 0.2496
C119 C 0.0549(4) 0.5356(4) 0.2844(6)
H98 H 0.0379 0.5152 0.3133
C120 C 0.1078(4) 0.5349(4) 0.2729(5)
C121 C 0.1489(4) 0.5055(4) 0.2999(5)
C122 C 0.1469(4) 0.4529(4) 0.3043(5)
C123 C 0.1061(4) 0.4232(4) 0.2752(5)
C124 C 0.0761(5) 0.4296(4) 0.2240(6)
H99 H 0.0754 0.4589 0.2010
C125 C 0.0465(5) 0.3888(4) 0.2092(6)
H100 H 0.0239 0.3876 0.1746
C126 C 0.0526(5) 0.3510(4) 0.2479(6)
C127 C 0.0252(6) 0.3020(5) 0.2476(8)
H101 H -0.0008 0.3009 0.2806
H102 H 0.0513 0.2763 0.2536
H103 H 0.0075 0.2973 0.2082
C128 C 0.0463(6) 0.6364(5) 0.1658(8)
H104 H 0.0587 0.6279 0.1247
H105 H 0.0634 0.6665 0.1792
H106 H 0.0080 0.6411 0.1650
C129 C 0.2300(4) 0.5039(4) 0.3496(5)
C130 C 0.2245(4) 0.4530(4) 0.3594(5)
C131 C 0.2640(4) 0.4266(4) 0.3917(5)
C132 C 0.3070(4) 0.4525(4) 0.4101(5)
H107 H 0.3342 0.4358 0.4312
C133 C 0.3134(4) 0.5031(4) 0.3997(5)
H108 H 0.3440 0.5190 0.4146
C134 C 0.2766(4) 0.5291(4) 0.3688(5)
C135 C 0.2833(4) 0.5818(4) 0.3585(5)
C136 C 0.3009(4) 0.6115(4) 0.4055(5)
H109 H 0.3090 0.5972 0.4439
C137 C 0.3071(4) 0.6613(4) 0.3987(5)
H110 H 0.3180 0.6806 0.4324
C138 C 0.2974(4) 0.6824(4) 0.3427(5)
C139 C 0.2822(4) 0.6527(4) 0.2928(5)
H111 H 0.2771 0.6666 0.2534
C140 C 0.2749(4) 0.6038(4) 0.3018(5)
H112 H 0.2637 0.5843 0.2684
C141 C 0.3048(4) 0.7557(4) 0.2764(5)
C142 C 0.2700(4) 0.7928(4) 0.2629(5)
H113 H 0.2458 0.8034 0.2932
C143 C 0.2700(4) 0.8150(4) 0.2055(5)
H114 H 0.2448 0.8393 0.1959
C144 C 0.3072(5) 0.8009(4) 0.1628(5)
C145 C 0.3427(5) 0.7646(4) 0.1768(6)
H115 H 0.3675 0.7543 0.1470
C146 C 0.3422(4) 0.7431(4) 0.2341(5)
H116 H 0.3680 0.7195 0.2441
C147 C 0.2726(6) 0.8544(5) 0.0878(6)
H117 H 0.2377 0.8399 0.0932
H118 H 0.2775 0.8634 0.0448
H119 H 0.2755 0.8835 0.1135
C148 C 0.3018(5) 0.7632(4) 0.3889(5)
C149 C 0.2596(5) 0.7633(4) 0.4280(6)
H120 H 0.2295 0.7441 0.4192
C150 C 0.2611(6) 0.7922(4) 0.4817(6)
H121 H 0.2318 0.7926 0.5088
C151 C 0.3046(6) 0.8193(4) 0.4945(5)
C152 C 0.3463(5) 0.8212(4) 0.4552(6)
H122 H 0.3756 0.8416 0.4636
C153 C 0.3453(5) 0.7926(4) 0.4021(5)
H123 H 0.3744 0.7931 0.3748
C154 C 0.3510(6) 0.8646(6) 0.5718(7)
H124 H 0.3755 0.8379 0.5799
H125 H 0.3444 0.8825 0.6097
H126 H 0.3663 0.8865 0.5413
C155 C 0.2613(4) 0.3737(4) 0.3992(5)
C156 C 0.3053(4) 0.3455(4) 0.3858(5)
H127 H 0.3370 0.3608 0.3732
C157 C 0.3035(4) 0.2955(4) 0.3906(5)
H128 H 0.3342 0.2771 0.3817
C158 C 0.2579(4) 0.2714(4) 0.4081(5)
C159 C 0.2142(4) 0.2992(4) 0.4231(5)
H129 H 0.1828 0.2837 0.4364
C160 C 0.2160(4) 0.3486(4) 0.4189(5)
H130 H 0.1855 0.3667 0.4297
C161 C 0.2866(4) 0.1922(4) 0.3651(5)
C162 C 0.2874(4) 0.2060(4) 0.3043(5)
H131 H 0.2690 0.2343 0.2915
C163 C 0.3150(4) 0.1785(4) 0.2620(5)
H132 H 0.3170 0.1885 0.2205
C164 C 0.3396(5) 0.1365(4) 0.2808(6)
C165 C 0.3381(5) 0.1230(5) 0.3418(6)
H133 H 0.3553 0.0941 0.3547
C166 C 0.3120(4) 0.1507(4) 0.3829(5)
H134 H 0.3113 0.1413 0.4247
C167 C 0.3768(8) 0.1220(6) 0.1828(8)
H135 H 0.3435 0.1299 0.1624
H136 H 0.3951 0.0966 0.1598
H137 H 0.3989 0.1511 0.1847
C168 C 0.2181(4) 0.1944(4) 0.4440(5)
C169 C 0.1870(4) 0.1593(4) 0.4159(5)
H138 H 0.1907 0.1537 0.3732
C170 C 0.1508(4) 0.1325(4) 0.4490(5)
H139 H 0.1297 0.1088 0.4290
C171 C 0.1453(4) 0.1402(4) 0.5105(5)
C172 C 0.1751(5) 0.1756(4) 0.5382(5)
H140 H 0.1706 0.1815 0.5806
C173 C 0.2118(5) 0.2031(4) 0.5057(5)
H141 H 0.2321 0.2273 0.5257
C174 C 0.0700(5) 0.0889(5) 0.5201(7)
H142 H 0.0492 0.1119 0.4960
H143 H 0.0478 0.0745 0.5519
H144 H 0.0836 0.0633 0.4934
Cl1 Cl 0.0864(2) 0.7937(2) 0.7685(3)
Cl2 Cl 0.1507(5) 0.7746(2) 0.6599(3)
C175 C 0.1420(7) 0.8047(7) 0.7283(8)
H145 H 0.1723 0.7968 0.7550
H146 H 0.1436 0.8400 0.7199
Cl3 Cl 0.9464(2) 0.6820(2) 0.2784(3)
Cl4 Cl 0.9751(2) 0.6305(2) 0.3879(3)
C176 C 0.9942(6) 0.6734(7) 0.3303(8)
H147 H 1.0028 0.7048 0.3500
H148 H 1.0263 0.6615 0.3093
Cl5 Cl 0.0061(6) 0.5178(5) 0.5986(6)
Cl6 Cl 0.0256(6) 0.6066(6) 0.5450(5)
C177 C 0.0032(17) 0.5633(14) 0.538(2)
H149 H 0.0188 0.5485 0.5010
H150 H -0.0345 0.5691 0.5290
loop_
_geom_bond_atom_site_label_1
_geom_bond_atom_site_label_2
_geom_bond_site_symmetry_1
_geom_bond_site_symmetry_2
S1 C1 1_555 1_555
S2 C9 1_555 1_555
N1 C5 1_555 1_555
N2 C7 1_555 1_555
N3 C22 1_555 1_555
N4 C42 1_555 1_555
O1 C35 1_555 1_555
O2 C28 1_555 1_555
O3 C48 1_555 1_555
O4 C55 1_555 1_555
C1 C2 1_555 1_555
C2 H1 1_555 1_555
C3 C2 1_555 1_555
H2 C3 1_555 1_555
C4 S1 1_555 1_555
C5 C4 1_555 1_555
C6 N1 1_555 1_555
C7 C6 1_555 1_555
C8 N2 1_555 1_555
C9 C8 1_555 1_555
C10 C9 1_555 1_555
H3 C10 1_555 1_555
C11 C10 1_555 1_555
H4 C11 1_555 1_555
C12 S2 1_555 1_555
C13 C12 1_555 1_555
H5 C13 1_555 1_555
H6 C13 1_555 1_555
H7 C13 1_555 1_555
C14 C1 1_555 1_555
H8 C14 1_555 1_555
H9 C14 1_555 1_555
H10 C14 1_555 1_555
C15 C6 1_555 1_555
C16 C15 1_555 1_555
H11 C16 1_555 1_555
C17 C16 1_555 1_555
H12 C17 1_555 1_555
C18 C7 1_555 1_555
C19 C18 1_555 1_555
C20 C19 1_555 1_555
H13 C20 1_555 1_555
C21 C20 1_555 1_555
H14 C21 1_555 1_555
C22 C21 1_555 1_555
C23 C22 1_555 1_555
H15 C23 1_555 1_555
C24 C19 1_555 1_555
H16 C24 1_555 1_555
C25 N3 1_555 1_555
C26 C25 1_555 1_555
H17 C26 1_555 1_555
C27 C26 1_555 1_555
H18 C27 1_555 1_555
C28 C27 1_555 1_555
C29 C28 1_555 1_555
H19 C29 1_555 1_555
C30 C25 1_555 1_555
H20 C30 1_555 1_555
C31 O2 1_555 1_555
H21 C31 1_555 1_555
H22 C31 1_555 1_555
H23 C31 1_555 1_555
C32 N3 1_555 1_555
C33 C32 1_555 1_555
H24 C33 1_555 1_555
C34 C33 1_555 1_555
H25 C34 1_555 1_555
C35 C34 1_555 1_555
C36 C35 1_555 1_555
H26 C36 1_555 1_555
C37 C32 1_555 1_555
H27 C37 1_555 1_555
C38 O1 1_555 1_555
H28 C38 1_555 1_555
H29 C38 1_555 1_555
H30 C38 1_555 1_555
C39 C15 1_555 1_555
C40 C39 1_555 1_555
H31 C40 1_555 1_555
C41 C40 1_555 1_555
H32 C41 1_555 1_555
C42 C41 1_555 1_555
C43 C42 1_555 1_555
H33 C43 1_555 1_555
C44 C39 1_555 1_555
H34 C44 1_555 1_555
C45 N4 1_555 1_555
C46 C45 1_555 1_555
H35 C46 1_555 1_555
C47 C46 1_555 1_555
H36 C47 1_555 1_555
C48 C47 1_555 1_555
C49 C48 1_555 1_555
H37 C49 1_555 1_555
C50 C45 1_555 1_555
H38 C50 1_555 1_555
C51 O3 1_555 1_555
H39 C51 1_555 1_555
H40 C51 1_555 1_555
H41 C51 1_555 1_555
C52 N4 1_555 1_555
C53 C52 1_555 1_555
H42 C53 1_555 1_555
C54 C53 1_555 1_555
H43 C54 1_555 1_555
C55 C54 1_555 1_555
C56 C55 1_555 1_555
H44 C56 1_555 1_555
C57 C52 1_555 1_555
H45 C57 1_555 1_555
C58 O4 1_555 1_555
H46 C58 1_555 1_555
H47 C58 1_555 1_555
H48 C58 1_555 1_555
S3 C59 1_555 1_555
S4 C65 1_555 1_555
N5 C63 1_555 1_555
N6 C64 1_555 1_555
N7 C80 1_555 1_555
N8 C100 1_555 1_555
O5 C86 1_555 1_555
O6 C93 1_555 1_555
O7 C106 1_555 1_555
O8 C113 1_555 1_555
C59 C60 1_555 1_555
C60 H49 1_555 1_555
C61 C60 1_555 1_555
H50 C61 1_555 1_555
C62 S3 1_555 1_555
C63 C62 1_555 1_555
C64 C63 1_555 1_555
C65 C64 1_555 1_555
C66 C65 1_555 1_555
H51 C66 1_555 1_555
C67 C66 1_555 1_555
H52 C67 1_555 1_555
C68 S4 1_555 1_555
C69 C68 1_555 1_555
H53 C69 1_555 1_555
H54 C69 1_555 1_555
H55 C69 1_555 1_555
C70 C59 1_555 1_555
H56 C70 1_555 1_555
H57 C70 1_555 1_555
H58 C70 1_555 1_555
C71 N5 1_555 1_555
C72 N6 1_555 1_555
C73 C72 1_555 1_555
C74 C73 1_555 1_555
H59 C74 1_555 1_555
C75 C74 1_555 1_555
H60 C75 1_555 1_555
C76 C71 1_555 1_555
C77 C76 1_555 1_555
C78 C77 1_555 1_555
H61 C78 1_555 1_555
C79 C78 1_555 1_555
H62 C79 1_555 1_555
C80 C79 1_555 1_555
C81 C80 1_555 1_555
H63 C81 1_555 1_555
C82 C77 1_555 1_555
H64 C82 1_555 1_555
C83 N7 1_555 1_555
C84 C83 1_555 1_555
H65 C84 1_555 1_555
C85 C84 1_555 1_555
H66 C85 1_555 1_555
C86 C85 1_555 1_555
C87 C86 1_555 1_555
H67 C87 1_555 1_555
C88 C83 1_555 1_555
H68 C88 1_555 1_555
C89 O5 1_555 1_555
H69 C89 1_555 1_555
H70 C89 1_555 1_555
H71 C89 1_555 1_555
C90 N7 1_555 1_555
C91 C90 1_555 1_555
H72 C91 1_555 1_555
C92 C91 1_555 1_555
H73 C92 1_555 1_555
C93 C92 1_555 1_555
C94 C93 1_555 1_555
H74 C94 1_555 1_555
C95 C90 1_555 1_555
H75 C95 1_555 1_555
C96 O6 1_555 1_555
H76 C96 1_555 1_555
H77 C96 1_555 1_555
H78 C96 1_555 1_555
C97 C73 1_555 1_555
C98 C97 1_555 1_555
H79 C98 1_555 1_555
C99 C98 1_555 1_555
H80 C99 1_555 1_555
C100 C99 1_555 1_555
C101 C100 1_555 1_555
H81 C101 1_555 1_555
C102 C97 1_555 1_555
H82 C102 1_555 1_555
C103 N8 1_555 1_555
C104 C103 1_555 1_555
H83 C104 1_555 1_555
C105 C104 1_555 1_555
H84 C105 1_555 1_555
C106 C105 1_555 1_555
C107 C106 1_555 1_555
H85 C107 1_555 1_555
C108 C103 1_555 1_555
H86 C108 1_555 1_555
C109 O7 1_555 1_555
H87 C109 1_555 1_555
H88 C109 1_555 1_555
H89 C109 1_555 1_555
C110 N8 1_555 1_555
C111 C110 1_555 1_555
H90 C111 1_555 1_555
C112 C111 1_555 1_555
H91 C112 1_555 1_555
C113 C112 1_555 1_555
C114 C113 1_555 1_555
H92 C114 1_555 1_555
C115 C110 1_555 1_555
H93 C115 1_555 1_555
C116 O8 1_555 1_555
H94 C116 1_555 1_555
H95 C116 1_555 1_555
H96 C116 1_555 1_555
S5 C117 1_555 1_555
S6 C123 1_555 1_555
N9 C121 1_555 1_555
N10 C122 1_555 1_555
N11 C138 1_555 1_555
N12 C158 1_555 1_555
O9 C144 1_555 1_555
O10 C151 1_555 1_555
O11 C164 1_555 1_555
O12 C171 1_555 1_555
C117 C118 1_555 1_555
C118 H97 1_555 1_555
C119 C118 1_555 1_555
H98 C119 1_555 1_555
C120 S5 1_555 1_555
C121 C120 1_555 1_555
C122 C121 1_555 1_555
C123 C122 1_555 1_555
C124 C123 1_555 1_555
H99 C124 1_555 1_555
C125 C124 1_555 1_555
H100 C125 1_555 1_555
C126 S6 1_555 1_555
C127 C126 1_555 1_555
H101 C127 1_555 1_555
H102 C127 1_555 1_555
H103 C127 1_555 1_555
C128 C117 1_555 1_555
H104 C128 1_555 1_555
H105 C128 1_555 1_555
H106 C128 1_555 1_555
C129 N9 1_555 1_555
C130 N10 1_555 1_555
C131 C130 1_555 1_555
C132 C131 1_555 1_555
H107 C132 1_555 1_555
C133 C132 1_555 1_555
H108 C133 1_555 1_555
C134 C129 1_555 1_555
C135 C134 1_555 1_555
C136 C135 1_555 1_555
H109 C136 1_555 1_555
C137 C136 1_555 1_555
H110 C137 1_555 1_555
C138 C137 1_555 1_555
C139 C138 1_555 1_555
H111 C139 1_555 1_555
C140 C135 1_555 1_555
H112 C140 1_555 1_555
C141 N11 1_555 1_555
C142 C141 1_555 1_555
H113 C142 1_555 1_555
C143 C142 1_555 1_555
H114 C143 1_555 1_555
C144 C143 1_555 1_555
C145 C144 1_555 1_555
H115 C145 1_555 1_555
C146 C141 1_555 1_555
H116 C146 1_555 1_555
C147 O9 1_555 1_555
H117 C147 1_555 1_555
H118 C147 1_555 1_555
H119 C147 1_555 1_555
C148 N11 1_555 1_555
C149 C148 1_555 1_555
H120 C149 1_555 1_555
C150 C149 1_555 1_555
H121 C150 1_555 1_555
C151 C150 1_555 1_555
C152 C151 1_555 1_555
H122 C152 1_555 1_555
C153 C148 1_555 1_555
H123 C153 1_555 1_555
C154 O10 1_555 1_555
H124 C154 1_555 1_555
H125 C154 1_555 1_555
H126 C154 1_555 1_555
C155 C131 1_555 1_555
C156 C155 1_555 1_555
H127 C156 1_555 1_555
C157 C156 1_555 1_555
H128 C157 1_555 1_555
C158 C157 1_555 1_555
C159 C158 1_555 1_555
H129 C159 1_555 1_555
C160 C155 1_555 1_555
H130 C160 1_555 1_555
C161 N12 1_555 1_555
C162 C161 1_555 1_555
H131 C162 1_555 1_555
C163 C162 1_555 1_555
H132 C163 1_555 1_555
C164 C163 1_555 1_555
C165 C164 1_555 1_555
H133 C165 1_555 1_555
C166 C161 1_555 1_555
H134 C166 1_555 1_555
C167 O11 1_555 1_555
H135 C167 1_555 1_555
H136 C167 1_555 1_555
H137 C167 1_555 1_555
C168 N12 1_555 1_555
C169 C168 1_555 1_555
H138 C169 1_555 1_555
C170 C169 1_555 1_555
H139 C170 1_555 1_555
C171 C170 1_555 1_555
C172 C171 1_555 1_555
H140 C172 1_555 1_555
C173 C168 1_555 1_555
H141 C173 1_555 1_555
C174 O12 1_555 1_555
H142 C174 1_555 1_555
H143 C174 1_555 1_555
H144 C174 1_555 1_555
Cl1 C175 1_555 1_555
Cl2 C175 1_555 1_555
C175 H145 1_555 1_555
H146 C175 1_555 1_555
Cl3 C176 1_555 1_555
Cl4 C176 1_555 1_555
C176 H147 1_555 1_555
H148 C176 1_555 1_555
Cl5 C177 1_555 1_555
Cl6 C177 1_555 1_555
C177 H149 1_555 1_555
H150 C177 1_555 1_555
C3 C4 1_555 1_555
C5 C8 1_555 1_555
C11 C12 1_555 1_555
C17 C18 1_555 1_555
C23 C24 1_555 1_555
C29 C30 1_555 1_555
C36 C37 1_555 1_555
C43 C44 1_555 1_555
C49 C50 1_555 1_555
C56 C57 1_555 1_555
C61 C62 1_555 1_555
C67 C68 1_555 1_555
C71 C72 1_555 1_555
C75 C76 1_555 1_555
C81 C82 1_555 1_555
C87 C88 1_555 1_555
C94 C95 1_555 1_555
C101 C102 1_555 1_555
C107 C108 1_555 1_555
C114 C115 1_555 1_555
C119 C120 1_555 1_555
C125 C126 1_555 1_555
C129 C130 1_555 1_555
C133 C134 1_555 1_555
C139 C140 1_555 1_555
C145 C146 1_555 1_555
C152 C153 1_555 1_555
C159 C160 1_555 1_555
C165 C166 1_555 1_555
C172 C173 1_555 1_555

#END
