
#######################################################################
#
#                 Cambridge Crystallographic Data Centre
#                                CCDC 
#
#######################################################################
#
# If this CIF has been generated from an entry in the Cambridge 
# Structural Database, then it will include bibliographic, chemical, 
# crystal, experimental, refinement or atomic coordinate data resulting 
# from the CCDC's data processing and validation procedures.
#
#######################################################################

data_DHAGLA10
_chemical_formula_moiety         'C21 H28 O8'
_chemical_name_systematic        'Dihydro-desacetoxy-glaucolide A'
_symmetry_cell_setting           orthorhombic
_symmetry_space_group_name_H-M   'P 21 21 21'
_symmetry_Int_Tables_number      19
_space_group_name_Hall           'P 2ac 2ab'
loop_
_symmetry_equiv_pos_site_id
_symmetry_equiv_pos_as_xyz
1 x,y,z
2 1/2+x,1/2-y,-z
3 -x,1/2+y,1/2-z
4 1/2-x,-y,1/2+z
_cell_length_a                   11.682(6)
_cell_length_b                   17.899(6)
_cell_length_c                   10.242(6)
_cell_angle_alpha                90
_cell_angle_beta                 90
_cell_angle_gamma                90
_cell_volume                     2141.56
_cell_formula_units_Z            4
loop_
_atom_site_label
_atom_site_type_symbol
_atom_site_fract_x
_atom_site_fract_y
_atom_site_fract_z
C1 C 0.24310 0.32210 -0.38960
C10 C 0.14510 0.29720 -0.30610
C11 C 0.29190 0.35500 0.11400
C12 C 0.36040 0.41750 0.16520
C13 C 0.19690 0.32480 0.19340
C14 C 0.53050 0.35270 -0.30300
C15 C 0.12360 0.21420 -0.32150
C2 C 0.25700 0.40700 -0.41160
C21 C 0.33960 0.17320 -0.02220
C22 C 0.30200 0.09820 0.02090
C23 C 0.27510 0.05500 -0.09910
C24 C 0.39190 0.05880 0.09100
C27 C 0.00640 0.34290 -0.45940
C28 C -0.09870 0.38740 -0.47280
C3 C 0.37830 0.43590 -0.40940
C4 C 0.44680 0.41330 -0.28670
C5 C 0.40220 0.43570 -0.15650
C6 C 0.42230 0.39150 -0.04040
C7 C 0.32360 0.34060 -0.00450
C8 C 0.27770 0.28890 -0.10870
C9 C 0.16860 0.32160 -0.16570
O16 O 0.43580 0.43830 0.07220
O17 O 0.35470 0.44920 0.26730
O18 O 0.31110 0.27940 -0.43380
O19 O 0.49310 0.47580 -0.21360
O20 O 0.24990 0.21740 -0.05230
O25 O 0.43460 0.19640 -0.03020
O26 O 0.04320 0.34030 -0.33600
O29 O 0.06230 0.31620 -0.54700
loop_
_geom_bond_atom_site_label_1
_geom_bond_atom_site_label_2
_geom_bond_site_symmetry_1
_geom_bond_site_symmetry_2
C1 C10 1_555 1_555
C10 C15 1_555 1_555
C11 C12 1_555 1_555
C12 O16 1_555 1_555
C13 C11 1_555 1_555
C14 C4 1_555 1_555
C2 C1 1_555 1_555
C21 C22 1_555 1_555
C22 C23 1_555 1_555
C24 C22 1_555 1_555
C27 C28 1_555 1_555
C3 C2 1_555 1_555
C4 C3 1_555 1_555
C5 C4 1_555 1_555
C6 C5 1_555 1_555
C7 C11 1_555 1_555
C8 C7 1_555 1_555
C9 C10 1_555 1_555
O16 C6 1_555 1_555
O17 C12 1_555 1_555
O18 C1 1_555 1_555
O19 C4 1_555 1_555
O20 C21 1_555 1_555
O25 C21 1_555 1_555
O26 C10 1_555 1_555
O29 C27 1_555 1_555
C27 O26 1_555 1_555
C5 O19 1_555 1_555
C6 C7 1_555 1_555
C8 C9 1_555 1_555
C8 O20 1_555 1_555

#END
