
#######################################################################
#
#                 Cambridge Crystallographic Data Centre
#                                CCDC 
#
#######################################################################
#
# If this CIF has been generated from an entry in the Cambridge 
# Structural Database, then it will include bibliographic, chemical, 
# crystal, experimental, refinement or atomic coordinate data resulting 
# from the CCDC's data processing and validation procedures.
#
#######################################################################

data_DHDTIZ15
_chemical_formula_moiety         'C13 H10 N4 S1'
_chemical_name_systematic        2,3-Diphenyltetrazole-5-thione
_symmetry_cell_setting           monoclinic
_symmetry_space_group_name_H-M   'C 2/c'
_symmetry_Int_Tables_number      15
_space_group_name_Hall           '-C 2yn'
loop_
_symmetry_equiv_pos_site_id
_symmetry_equiv_pos_as_xyz
1 x,y,z
2 -x,y,1/2-z
3 1/2+x,1/2+y,z
4 1/2-x,1/2+y,1/2-z
5 -x,-y,-z
6 x,-y,1/2+z
7 1/2-x,1/2-y,-z
8 1/2+x,1/2-y,1/2+z
_cell_length_a                   14.746(3)
_cell_length_b                   12.197(3)
_cell_length_c                   6.9793(15)
_cell_angle_alpha                90
_cell_angle_beta                 97.383(6)
_cell_angle_gamma                90
_cell_volume                     1244.87
_exptl_crystal_colour            colorless
_exptl_crystal_description       block
_cell_formula_units_Z            4
loop_
_atom_site_label
_atom_site_type_symbol
_atom_site_fract_x
_atom_site_fract_y
_atom_site_fract_z
S1 S 0.5000 0.35803(5) 0.2500
N1 N 0.57618(9) 0.56068(11) 0.2823(2)
N2 N 0.54547(9) 0.66182(11) 0.2696(2)
C1 C 0.5000 0.4964(2) 0.2500
C2 C 0.60316(11) 0.75589(14) 0.3110(2)
C3 C 0.68452(12) 0.75814(17) 0.2343(3)
H1 H 0.6995 0.7031 0.1517
C4 C 0.74368(13) 0.84527(19) 0.2841(4)
H2 H 0.7996 0.8484 0.2359
C5 C 0.72024(15) 0.92623(19) 0.4032(4)
H3 H 0.7602 0.9843 0.4351
C6 C 0.63862(15) 0.92279(17) 0.4762(3)
H4 H 0.6230 0.9793 0.5553
C7 C 0.57913(13) 0.83611(15) 0.4335(3)
H5 H 0.5244 0.8321 0.4860
N1A N 0.42382(9) 0.56068(11) 0.2177(2)
N2A N 0.45453(9) 0.66182(11) 0.2304(2)
C2A C 0.39684(11) 0.75589(14) 0.1890(2)
C3A C 0.31548(12) 0.75814(17) 0.2657(3)
H1A H 0.3005 0.7031 0.3483
C4A C 0.25632(13) 0.84527(19) 0.2159(4)
H2A H 0.2004 0.8484 0.2641
C5A C 0.27976(15) 0.92623(19) 0.0968(4)
H3A H 0.2398 0.9843 0.0649
C6A C 0.36138(15) 0.92279(17) 0.0238(3)
H4A H 0.3770 0.9793 -0.0553
C7A C 0.42087(13) 0.83611(15) 0.0665(3)
H5A H 0.4756 0.8321 0.0140
loop_
_geom_bond_atom_site_label_1
_geom_bond_atom_site_label_2
_geom_bond_site_symmetry_1
_geom_bond_site_symmetry_2
S1 C1 1_555 1_555
N1 N2 1_555 1_555
N2 C2 1_555 1_555
C1 N1 1_555 1_555
C2 C3 1_555 1_555
C3 H1 1_555 1_555
C4 C3 1_555 1_555
H2 C4 1_555 1_555
C5 C4 1_555 1_555
H3 C5 1_555 1_555
C6 C5 1_555 1_555
H4 C6 1_555 1_555
C7 C2 1_555 1_555
H5 C7 1_555 1_555
N1A C1 1_555 1_555
N2A N2 1_555 1_555
C2A N2A 1_555 1_555
C3A C2A 1_555 1_555
H1A C3A 1_555 1_555
C4A C3A 1_555 1_555
H2A C4A 1_555 1_555
C5A C4A 1_555 1_555
H3A C5A 1_555 1_555
C6A C5A 1_555 1_555
H4A C6A 1_555 1_555
C7A C2A 1_555 1_555
H5A C7A 1_555 1_555
C6 C7 1_555 1_555
N1A N2A 1_555 1_555
C6A C7A 1_555 1_555

#END
