
#######################################################################
#
#                 Cambridge Crystallographic Data Centre
#                                CCDC 
#
#######################################################################
#
# If this CIF has been generated from an entry in the Cambridge 
# Structural Database, then it will include bibliographic, chemical, 
# crystal, experimental, refinement or atomic coordinate data resulting 
# from the CCDC's data processing and validation procedures.
#
#######################################################################

data_DHDTIZ12
_chemical_formula_moiety         'C13 H10 N4 S1'
_chemical_name_systematic        2,3-Diphenyltetrazole-5-thione
_symmetry_cell_setting           monoclinic
_symmetry_space_group_name_H-M   'C 2/c'
_symmetry_Int_Tables_number      15
_space_group_name_Hall           '-C 2yn'
loop_
_symmetry_equiv_pos_site_id
_symmetry_equiv_pos_as_xyz
1 x,y,z
2 1/2+x,1/2+y,z
3 -x,y,1/2-z
4 1/2-x,1/2+y,1/2-z
5 -x,-y,-z
6 1/2-x,1/2-y,-z
7 x,-y,1/2+z
8 1/2+x,1/2-y,1/2+z
_cell_length_a                   14.755(3)
_cell_length_b                   12.198(2)
_cell_length_c                   6.9800(14)
_cell_angle_alpha                90
_cell_angle_beta                 97.27(3)
_cell_angle_gamma                90
_cell_volume                     1246.17
_exptl_crystal_colour            red
_chemical_melting_point          '167-169 deg.C'
_cell_formula_units_Z            4
_exptl_crystal_recrystallization_method ethanol
loop_
_atom_site_label
_atom_site_type_symbol
_atom_site_fract_x
_atom_site_fract_y
_atom_site_fract_z
S1 S 0.0000 0.14212(6) 0.2500
N1 N -0.07613(11) -0.06074(14) 0.2182(2)
N2 N -0.04553(10) -0.16204(13) 0.2305(2)
C1 C -0.10316(13) -0.25620(17) 0.1887(3)
C2 C -0.07936(15) -0.33665(18) 0.0670(3)
H1 H -0.0244 -0.3331 0.0150
C3 C -0.13896(19) -0.4231(2) 0.0237(4)
H2 H -0.1234 -0.4795 -0.0556
C4 C -0.22066(18) -0.4261(2) 0.0965(4)
H3 H -0.2607 -0.4841 0.0645
C5 C -0.24422(16) -0.3447(2) 0.2162(4)
H4 H -0.3002 -0.3476 0.2642
C6 C -0.18487(14) -0.25801(19) 0.2660(4)
H5 H -0.1997 -0.2029 0.3488
C7 C 0.0000 0.0031(2) 0.2500
N1B N 0.07613(11) -0.06074(14) 0.2818(2)
N2B N 0.04553(10) -0.16204(13) 0.2695(2)
C1B C 0.10316(13) -0.25620(17) 0.3113(3)
C2B C 0.07936(15) -0.33665(18) 0.4330(3)
H1B H 0.0244 -0.3331 0.4850
C3B C 0.13896(19) -0.4231(2) 0.4763(4)
H2B H 0.1234 -0.4795 0.5556
C4B C 0.22066(18) -0.4261(2) 0.4035(4)
H3B H 0.2607 -0.4841 0.4355
C5B C 0.24422(16) -0.3447(2) 0.2838(4)
H4B H 0.3002 -0.3476 0.2358
C6B C 0.18487(14) -0.25801(19) 0.2340(4)
H5B H 0.1997 -0.2029 0.1512
loop_
_geom_bond_atom_site_label_1
_geom_bond_atom_site_label_2
_geom_bond_site_symmetry_1
_geom_bond_site_symmetry_2
S1 C7 1_555 1_555
N1 N2 1_555 1_555
N2 C1 1_555 1_555
C1 C2 1_555 1_555
C2 H1 1_555 1_555
C3 C2 1_555 1_555
H2 C3 1_555 1_555
C4 C3 1_555 1_555
H3 C4 1_555 1_555
C5 C4 1_555 1_555
H4 C5 1_555 1_555
C6 C1 1_555 1_555
H5 C6 1_555 1_555
C7 N1 1_555 1_555
N1B C7 1_555 1_555
N2B N2 1_555 1_555
C1B N2B 1_555 1_555
C2B C1B 1_555 1_555
H1B C2B 1_555 1_555
C3B C2B 1_555 1_555
H2B C3B 1_555 1_555
C4B C3B 1_555 1_555
H3B C4B 1_555 1_555
C5B C4B 1_555 1_555
H4B C5B 1_555 1_555
C6B C1B 1_555 1_555
H5B C6B 1_555 1_555
C5 C6 1_555 1_555
N1B N2B 1_555 1_555
C5B C6B 1_555 1_555

#END
