
#######################################################################
#
#                 Cambridge Crystallographic Data Centre
#                                CCDC 
#
#######################################################################
#
# If this CIF has been generated from an entry in the Cambridge 
# Structural Database, then it will include bibliographic, chemical, 
# crystal, experimental, refinement or atomic coordinate data resulting 
# from the CCDC's data processing and validation procedures.
#
#######################################################################

data_DHNIMB10
_chemical_formula_moiety         'C30 H38 O9'
_chemical_name_systematic        Dihydronimbin
_symmetry_cell_setting           monoclinic
_symmetry_space_group_name_H-M   'P 21'
_symmetry_Int_Tables_number      4
_space_group_name_Hall           'P 2yb'
loop_
_symmetry_equiv_pos_site_id
_symmetry_equiv_pos_as_xyz
1 x,y,z
2 -x,1/2+y,-z
_cell_length_a                   16.24(1)
_cell_length_b                   7.61(1)
_cell_length_c                   11.47(2)
_cell_angle_alpha                90
_cell_angle_beta                 95.9(2)
_cell_angle_gamma                90
_cell_volume                     1410.03
_cell_formula_units_Z            2
loop_
_atom_site_label
_atom_site_type_symbol
_atom_site_fract_x
_atom_site_fract_y
_atom_site_fract_z
C1 C 0.24810 -0.37420 -0.43010
C2 C 0.33310 -0.41610 -0.45580
C3 C 0.37730 -0.24580 -0.48510
C4 C 0.38830 -0.11930 -0.38100
C5 C 0.32700 -0.16290 -0.28430
C6 C 0.31970 -0.02560 -0.19130
C7 C 0.27590 -0.09390 -0.08420
C8 C 0.19140 -0.18320 -0.11800
C9 C 0.19690 -0.30860 -0.22860
C10 C 0.23820 -0.22490 -0.33860
C11 C 0.10940 -0.38870 -0.25800
C12 C 0.11020 -0.56460 -0.30620
C13 C 0.14220 -0.31780 0.07970
C14 C 0.19070 -0.28690 -0.00410
C15 C 0.27690 -0.34160 0.02850
C16 C 0.28040 -0.34860 0.16940
C17 C 0.19120 -0.39260 0.18890
C18 C 0.04980 -0.27390 0.08680
C19 C 0.18630 -0.08620 -0.40200
C20 C 0.17490 -0.58340 0.19680
C21 C 0.17690 -0.70010 0.11420
C22 C 0.15980 -0.67810 0.29520
C23 C 0.14490 -0.83960 0.27680
C24 C 0.47820 -0.13530 -0.33120
C25 C 0.37650 0.06590 -0.43080
C26 C 0.12240 -0.04730 -0.13730
C27 C 0.40990 0.19780 -0.11680
C28 C 0.50050 0.23130 -0.08450
C29 C 0.02470 -0.76770 -0.47120
O1 O 0.18900 -0.42650 -0.48340
O2 O 0.49400 -0.28280 -0.27080
O3 O 0.53170 -0.03470 -0.34010
O4 O 0.40100 0.02460 -0.15060
O5 O 0.35150 0.28890 -0.11390
O6 O 0.32830 -0.21600 -0.01800
O7 O 0.15870 -0.85510 0.14990
O8 O 0.16020 -0.67160 -0.28330
O9 O 0.03600 -0.59780 -0.37050
H1 H 0.37000 -0.44100 -0.39700
H2 H 0.33200 -0.50700 -0.51100
H3 H 0.43000 -0.24900 -0.51100
H4 H 0.35200 -0.21200 -0.55700
H5 H 0.35900 -0.28700 -0.23500
H6 H 0.28500 0.09400 -0.22800
H7 H 0.25700 0.01100 -0.02900
H8 H 0.24000 -0.38800 -0.20900
H9 H 0.08400 -0.42700 -0.18700
H10 H 0.06800 -0.30800 -0.32200
H11 H 0.29500 -0.44100 -0.01300
H12 H 0.28500 -0.24900 0.17700
H13 H 0.33000 -0.39900 0.19500
H14 H 0.18000 -0.31600 0.26900
C30 C 0.57860 -0.30920 -0.22450
loop_
_geom_bond_atom_site_label_1
_geom_bond_atom_site_label_2
_geom_bond_site_symmetry_1
_geom_bond_site_symmetry_2
C1 C2 1_555 1_555
C2 C3 1_555 1_555
C3 C4 1_555 1_555
C4 C5 1_555 1_555
C5 C6 1_555 1_555
C6 C7 1_555 1_555
C7 C8 1_555 1_555
C8 C9 1_555 1_555
C9 C10 1_555 1_555
C10 C1 1_555 1_555
C11 C9 1_555 1_555
C12 C11 1_555 1_555
C13 C14 1_555 1_555
C14 C8 1_555 1_555
C15 C14 1_555 1_555
C16 C15 1_555 1_555
C17 C13 1_555 1_555
C18 C13 1_555 1_555
C19 C10 1_555 1_555
C20 C17 1_555 1_555
C21 C20 1_555 1_555
C22 C20 1_555 1_555
C23 C22 1_555 1_555
C24 C4 1_555 1_555
C25 C4 1_555 1_555
C26 C8 1_555 1_555
C27 C28 1_555 1_555
C29 O9 1_555 1_555
O1 C1 1_555 1_555
O2 C24 1_555 1_555
O3 C24 1_555 1_555
O4 C6 1_555 1_555
O5 C27 1_555 1_555
O6 C7 1_555 1_555
O7 C21 1_555 1_555
O8 C12 1_555 1_555
O9 C12 1_555 1_555
H1 C2 1_555 1_555
H2 C2 1_555 1_555
H3 C3 1_555 1_555
H4 C3 1_555 1_555
H5 C5 1_555 1_555
H6 C6 1_555 1_555
H7 C7 1_555 1_555
H8 C9 1_555 1_555
H9 C11 1_555 1_555
H10 C11 1_555 1_555
H11 C15 1_555 1_555
H12 C16 1_555 1_555
H13 C16 1_555 1_555
H14 C17 1_555 1_555
C30 O2 1_555 1_555
C5 C10 1_555 1_555
C15 O6 1_555 1_555
C16 C17 1_555 1_555
C23 O7 1_555 1_555
C27 O4 1_555 1_555

#END
