
#######################################################################
#
#                 Cambridge Crystallographic Data Centre
#                                CCDC 
#
#######################################################################
#
# If this CIF has been generated from an entry in the Cambridge 
# Structural Database, then it will include bibliographic, chemical, 
# crystal, experimental, refinement or atomic coordinate data resulting 
# from the CCDC's data processing and validation procedures.
#
#######################################################################

data_DIBCOI
_chemical_formula_moiety         'C22 H35 P1'
_chemical_name_systematic        
trans-but-3-en-2-ylidene(2,4,6-tri-t-butylphenyl)phosphine
_symmetry_cell_setting           triclinic
_symmetry_space_group_name_H-M   'P -1'
_symmetry_Int_Tables_number      2
_space_group_name_Hall           '-P 1'
loop_
_symmetry_equiv_pos_site_id
_symmetry_equiv_pos_as_xyz
1 x,y,z
2 -x,-y,-z
_cell_length_a                   6.1568(9)
_cell_length_b                   12.7549(19)
_cell_length_c                   13.3762(19)
_cell_angle_alpha                91.676(2)
_cell_angle_beta                 95.369(2)
_cell_angle_gamma                91.575(2)
_cell_volume                     1044.89
_exptl_crystal_colour            colorless
_exptl_crystal_description       block
_cell_formula_units_Z            2
loop_
_atom_site_label
_atom_site_type_symbol
_atom_site_fract_x
_atom_site_fract_y
_atom_site_fract_z
P1 P 0.4819(2) 0.25590(10) 0.07212(9)
C1 C 0.3815(7) 0.4679(3) 0.2000(3)
C2 C 0.1354(11) 0.2223(4) -0.1906(4)
H1 H -0.0140 0.2186 -0.1783
H2 H 0.1749 0.2178 -0.2575
C3 C 0.2885(9) 0.2337(4) -0.1145(4)
H3 H 0.4355 0.2369 -0.1307
C4 C 0.2542(8) 0.2417(3) -0.0082(3)
C5 C 0.3747(7) 0.2614(4) 0.1976(3)
C6 C 0.3416(7) 0.1675(4) 0.2485(3)
C7 C 0.2267(7) 0.1727(4) 0.3346(3)
H4 H 0.2000 0.1098 0.3684
C8 C 0.1511(7) 0.2658(4) 0.3719(3)
C9 C 0.0241(8) 0.2710(4) 0.4656(3)
C10 C 0.1586(9) 0.3386(4) 0.5475(4)
H5 H 0.0821 0.3408 0.6085
H6 H 0.1777 0.4099 0.5238
H7 H 0.3019 0.3080 0.5624
C11 C -0.0173(9) 0.1633(4) 0.5075(4)
H8 H -0.0972 0.1180 0.4553
H9 H -0.1039 0.1705 0.5650
H10 H 0.1224 0.1322 0.5290
C12 C -0.1961(8) 0.3225(4) 0.4396(4)
H11 H -0.2817 0.2808 0.3864
H12 H -0.1707 0.3936 0.4165
H13 H -0.2764 0.3260 0.4995
C13 C 0.2028(7) 0.3574(4) 0.3252(3)
H14 H 0.1584 0.4221 0.3523
C14 C 0.3179(7) 0.3589(3) 0.2397(3)
C15 C 0.3445(10) 0.5572(4) 0.2758(4)
H15 H 0.3947 0.6241 0.2504
H16 H 0.4266 0.5443 0.3403
H17 H 0.1886 0.5601 0.2848
C16 C 0.2461(8) 0.4930(4) 0.1017(4)
H18 H 0.0905 0.4882 0.1116
H19 H 0.2774 0.4426 0.0486
H20 H 0.2842 0.5642 0.0823
C17 C 0.6272(8) 0.4739(4) 0.1861(4)
H21 H 0.6700 0.5459 0.1713
H22 H 0.6570 0.4266 0.1302
H23 H 0.7109 0.4528 0.2478
C18 C 0.4277(8) 0.0587(4) 0.2178(4)
C19 C 0.4122(10) -0.0220(4) 0.3012(4)
H24 H 0.2584 -0.0370 0.3102
H25 H 0.4871 0.0069 0.3643
H26 H 0.4811 -0.0869 0.2818
C20 C 0.2967(8) 0.0098(4) 0.1231(4)
H27 H 0.3203 0.0526 0.0651
H28 H 0.1410 0.0074 0.1331
H29 H 0.3455 -0.0615 0.1108
C21 C 0.6733(8) 0.0676(4) 0.2015(4)
H30 H 0.7301 -0.0027 0.1928
H31 H 0.7533 0.1036 0.2600
H32 H 0.6917 0.1077 0.1413
C22 C 0.0232(8) 0.2363(4) 0.0179(4)
H33 H 0.0212 0.2425 0.0910
H34 H -0.0455 0.1691 -0.0067
H35 H -0.0574 0.2939 -0.0134
H36? H -0.0757 0.2278 -0.0438
H37? H -0.0090 0.3012 0.0539
H38? H 0.0029 0.1764 0.0607
loop_
_geom_bond_atom_site_label_1
_geom_bond_atom_site_label_2
_geom_bond_site_symmetry_1
_geom_bond_site_symmetry_2
P1 C4 1_555 1_555
C1 C14 1_555 1_555
C2 H1 1_555 1_555
H2 C2 1_555 1_555
C3 C2 1_555 1_555
H3 C3 1_555 1_555
C4 C3 1_555 1_555
C5 P1 1_555 1_555
C6 C5 1_555 1_555
C7 C6 1_555 1_555
H4 C7 1_555 1_555
C8 C7 1_555 1_555
C9 C8 1_555 1_555
C10 C9 1_555 1_555
H5 C10 1_555 1_555
H6 C10 1_555 1_555
H7 C10 1_555 1_555
C11 C9 1_555 1_555
H8 C11 1_555 1_555
H9 C11 1_555 1_555
H10 C11 1_555 1_555
C12 C9 1_555 1_555
H11 C12 1_555 1_555
H12 C12 1_555 1_555
H13 C12 1_555 1_555
C13 C8 1_555 1_555
H14 C13 1_555 1_555
C14 C5 1_555 1_555
C15 C1 1_555 1_555
H15 C15 1_555 1_555
H16 C15 1_555 1_555
H17 C15 1_555 1_555
C16 C1 1_555 1_555
H18 C16 1_555 1_555
H19 C16 1_555 1_555
H20 C16 1_555 1_555
C17 C1 1_555 1_555
H21 C17 1_555 1_555
H22 C17 1_555 1_555
H23 C17 1_555 1_555
C18 C6 1_555 1_555
C19 C18 1_555 1_555
H24 C19 1_555 1_555
H25 C19 1_555 1_555
H26 C19 1_555 1_555
C20 C18 1_555 1_555
H27 C20 1_555 1_555
H28 C20 1_555 1_555
H29 C20 1_555 1_555
C21 C18 1_555 1_555
H30 C21 1_555 1_555
H31 C21 1_555 1_555
H32 C21 1_555 1_555
C22 C4 1_555 1_555
H33 C22 1_555 1_555
H34 C22 1_555 1_555
H35 C22 1_555 1_555
C13 C14 1_555 1_555

#END
