
#######################################################################
#
#                 Cambridge Crystallographic Data Centre
#                                CCDC 
#
#######################################################################
#
# If this CIF has been generated from an entry in the Cambridge 
# Structural Database, then it will include bibliographic, chemical, 
# crystal, experimental, refinement or atomic coordinate data resulting 
# from the CCDC's data processing and validation procedures.
#
#######################################################################

data_DIBFUS
_chemical_formula_moiety         'C66 H64 O12'
_chemical_name_systematic        
10,16,36,42-tetrabutoxy-13,28,39,50,54,56-hexaoxatridecacyclo[43.7.1.1^3,51^.1^23,27^.1^25,29^.0^2,7^.0^6,11^.0^15,20^.0^19,24^.0^32,37^.0^33,55^.0^41,46^.0^49,53^]hexapentaconta-2,4,6,8,10,15,17,19,21,23,29(55),30,32,34,36,41,43,45(53),46,48-icosaene-12,38-dione
_symmetry_cell_setting           triclinic
_symmetry_space_group_name_H-M   'P -1'
_symmetry_Int_Tables_number      2
_space_group_name_Hall           '-P 1'
loop_
_symmetry_equiv_pos_site_id
_symmetry_equiv_pos_as_xyz
1 x,y,z
2 -x,-y,-z
_cell_length_a                   9.3274(4)
_cell_length_b                   12.0859(5)
_cell_length_c                   12.4207(5)
_cell_angle_alpha                110.921(2)
_cell_angle_beta                 90.774(2)
_cell_angle_gamma                98.445(3)
_cell_volume                     1290.4
_exptl_crystal_colour            colorless
_exptl_crystal_description       block
_cell_formula_units_Z            1
loop_
_atom_site_label
_atom_site_type_symbol
_atom_site_fract_x
_atom_site_fract_y
_atom_site_fract_z
C1 C 0.2283(2) 0.98417(18) 0.85951(17)
H1 H 0.1652 1.0384 0.9101
C2 C 0.3752(2) 1.05651(17) 0.86682(16)
H2 H 0.4174 1.0907 0.9477
H3 H 0.3677 1.1234 0.8398
C3 C 0.4708(2) 0.97287(16) 0.79035(15)
H4 H 0.5708 1.0171 0.7923
C4 C 0.3547(2) 0.83203(17) 0.87976(15)
C5 C 0.4759(2) 0.86995(16) 0.83344(15)
C6 C 0.5962(2) 0.80653(16) 0.82293(14)
C7 C 0.7329(2) 0.84737(17) 0.79125(15)
H5 H 0.7477 0.9224 0.7811
C8 C 0.8445(2) 0.78283(17) 0.77462(17)
H6 H 0.9351 0.8133 0.7536
C9 C 0.8253(2) 0.67132(17) 0.78859(16)
C10 C 0.6998(2) 0.63229(16) 0.82965(15)
C11 C 0.5831(2) 0.69968(16) 0.84915(15)
C12 C 0.4524(2) 0.66385(17) 0.89322(16)
H7 H 0.4412 0.5928 0.9106
C13 C 0.3427(2) 0.72979(18) 0.91105(16)
H8 H 0.2579 0.7070 0.9446
C14 C 1.0406(2) 0.62206(18) 0.69146(18)
H9 H 1.1086 0.6963 0.7356
H10 H 0.9953 0.6334 0.6244
C15 C 1.1217(2) 0.51755(18) 0.65036(19)
H11 H 1.0522 0.4432 0.6095
H12 H 1.1687 0.5082 0.7179
C16 C 1.2371(2) 0.53470(18) 0.5694(2)
H13 H 1.3087 0.6073 0.6115
H14 H 1.1904 0.5478 0.5039
C17 C 1.3166(2) 0.42701(19) 0.5223(2)
H15 H 1.3818 0.4384 0.4646
H16 H 1.2455 0.3537 0.4864
H17 H 1.3733 0.4199 0.5858
C18 C 0.6830(2) 0.51646(17) 0.85026(17)
C19 C 0.5916(3) 0.30954(18) 0.75491(19)
H18 H 0.5306 0.3080 0.8191
H19 H 0.6849 0.2845 0.7673
C20 C 0.2508(2) 0.89986(17) 0.65401(16)
C21 C 0.1751(2) 0.83663(18) 0.54569(18)
H20 H 0.0719 0.8243 0.5391
C22 C 0.2499(2) 0.79302(17) 0.45021(18)
H21 H 0.1981 0.7461 0.3781
C23 C 0.4035(2) 0.81644(16) 0.45666(16)
C24 C 0.4844(3) 0.77363(17) 0.35821(16)
C25 C 0.6334(3) 0.80251(18) 0.36785(17)
C26 C 0.7066(2) 0.87972(17) 0.47310(16)
H22 H 0.8087 0.9047 0.4777
C27 C 0.6305(2) 0.91874(16) 0.56887(16)
H23 H 0.6818 0.9701 0.6399
C28 C 0.4788(2) 0.88582(16) 0.56656(16)
C29 C 0.3994(2) 0.92116(16) 0.66773(16)
C30 C 0.8742(5) 0.7574(5) 0.2932(4)
H24 H 0.8886 0.7233 0.3534
H25 H 0.9305 0.8396 0.3193
C31 C 0.9263(4) 0.6796(3) 0.1793(3)
H26 H 1.0207 0.6583 0.1952
H27 H 0.8560 0.6041 0.1466
C32 C 0.9443(4) 0.7375(3) 0.0897(3)
H28 H 0.8505 0.7602 0.0746
H29 H 0.9685 0.6778 0.0167
C33 C 1.0611(6) 0.8482(6) 0.1246(5)
H30 H 1.0691 0.8793 0.0617
H31 H 1.1545 0.8268 0.1404
H32 H 1.0352 0.9098 0.1942
O1 O 0.23274(14) 0.88777(12) 0.89857(11)
O2 O 0.16171(14) 0.93660(12) 0.74462(11)
O3 O 0.92991(15) 0.59825(12) 0.76416(12)
O4 O 0.61655(17) 0.42507(11) 0.75130(11)
O5 O 0.6937(4) 0.5025(3) 0.9374(3)
O6 O 0.7230(4) 0.7609(6) 0.2757(5)
C1A C 0.7717(2) 0.01583(18) 0.14049(17)
H1A H 0.8348 -0.0384 0.0899
C2A C 0.6248(2) -0.05651(17) 0.13318(16)
H2A H 0.5826 -0.0907 0.0523
H3A H 0.6323 -0.1234 0.1602
C3A C 0.5292(2) 0.02713(16) 0.20965(15)
H4A H 0.4292 -0.0171 0.2077
C4A C 0.6453(2) 0.16797(17) 0.12024(15)
C5A C 0.5241(2) 0.13005(16) 0.16656(15)
C6A C 0.4038(2) 0.19347(16) 0.17707(14)
C7A C 0.2671(2) 0.15263(17) 0.20875(15)
H5A H 0.2523 0.0776 0.2189
C8A C 0.1555(2) 0.21717(17) 0.22538(17)
H6A H 0.0649 0.1867 0.2464
C9A C 0.1747(2) 0.32868(17) 0.21141(16)
C10A C 0.3002(2) 0.36771(16) 0.17035(15)
C11A C 0.4169(2) 0.30032(16) 0.15085(15)
C12A C 0.5476(2) 0.33615(17) 0.10678(16)
H7A H 0.5588 0.4072 0.0894
C13A C 0.6573(2) 0.27021(18) 0.08895(16)
H8A H 0.7421 0.2930 0.0554
C14A C -0.0406(2) 0.37794(18) 0.30854(18)
H9A H -0.1086 0.3037 0.2644
H10A H 0.0047 0.3666 0.3756
C15A C -0.1217(2) 0.48245(18) 0.34964(19)
H11A H -0.0522 0.5568 0.3905
H12A H -0.1687 0.4918 0.2821
C16A C -0.2371(2) 0.46530(18) 0.4306(2)
H13A H -0.3087 0.3927 0.3885
H14A H -0.1904 0.4522 0.4961
C17A C -0.3166(2) 0.57299(19) 0.4777(2)
H15A H -0.3818 0.5616 0.5354
H16A H -0.2455 0.6463 0.5136
H17A H -0.3733 0.5801 0.4142
C18A C 0.3170(2) 0.48354(17) 0.14974(17)
C19A C 0.4084(3) 0.69046(18) 0.24509(19)
H18A H 0.4694 0.6920 0.1809
H19A H 0.3151 0.7155 0.2327
C20A C 0.7492(2) 0.10014(17) 0.34599(16)
C21A C 0.8249(2) 0.16337(18) 0.45431(18)
H20A H 0.9281 0.1757 0.4609
C22A C 0.7501(2) 0.20698(17) 0.54979(18)
H21A H 0.8019 0.2539 0.6219
C23A C 0.5965(2) 0.18356(16) 0.54334(16)
C24A C 0.5156(3) 0.22637(17) 0.64179(16)
C25A C 0.3666(3) 0.19749(18) 0.63215(17)
C26A C 0.2934(2) 0.12028(17) 0.52690(16)
H22A H 0.1913 0.0953 0.5223
C27A C 0.3695(2) 0.08126(16) 0.43113(16)
H23A H 0.3182 0.0299 0.3601
C28A C 0.5212(2) 0.11418(16) 0.43344(16)
C29A C 0.6006(2) 0.07884(16) 0.33227(16)
C30A C 0.1258(5) 0.2426(5) 0.7068(4)
H24A H 0.1114 0.2767 0.6466
H25A H 0.0695 0.1604 0.6807
C31A C 0.0737(4) 0.3204(3) 0.8207(3)
H26A H -0.0207 0.3417 0.8048
H27A H 0.1440 0.3959 0.8534
C32A C 0.0557(4) 0.2625(3) 0.9103(3)
H28A H 0.1495 0.2398 0.9254
H29A H 0.0315 0.3222 0.9833
C33A C -0.0611(6) 0.1518(6) 0.8754(5)
H30A H -0.0691 0.1207 0.9383
H31A H -0.1545 0.1732 0.8596
H32A H -0.0352 0.0902 0.8058
O1A O 0.76726(14) 0.11223(12) 0.10143(11)
O2A O 0.83829(14) 0.06340(12) 0.25538(11)
O3A O 0.07009(15) 0.40175(12) 0.23584(12)
O4A O 0.38345(17) 0.57493(11) 0.24870(11)
O5A O 0.3063(4) 0.4975(3) 0.0626(3)
O6A O 0.2770(4) 0.2391(6) 0.7243(5)
C34? C 0.8275(9) 0.7627(8) 0.2608(6)
H33? H 0.8730 0.7359 0.3177
H34? H 0.8629 0.8494 0.2803
C35? C 0.8611(6) 0.6901(5) 0.1382(5)
H35? H 0.8178 0.6048 0.1185
H36? H 0.8166 0.7199 0.0832
C36? C 1.0241(5) 0.6995(4) 0.1260(4)
H37? H 1.0416 0.6480 0.0467
H38? H 1.0677 0.6687 0.1805
C37? C 1.0999(9) 0.8280(8) 0.1495(9)
H39? H 1.0642 0.8563 0.0910
H40? H 1.2050 0.8295 0.1462
H41? H 1.0789 0.8805 0.2263
O7? O 0.6705(8) 0.7391(9) 0.2592(8)
O8? O 0.6407(4) 0.2859(3) 0.8262(3)
H42? H 0.6230 0.5216 0.9165
H43? H 0.7795 0.4999 0.8685
loop_
_geom_bond_atom_site_label_1
_geom_bond_atom_site_label_2
_geom_bond_site_symmetry_1
_geom_bond_site_symmetry_2
C1 H1 1_555 1_555
C2 C1 1_555 1_555
H2 C2 1_555 1_555
H3 C2 1_555 1_555
C3 C2 1_555 1_555
H4 C3 1_555 1_555
C4 C5 1_555 1_555
C5 C3 1_555 1_555
C6 C5 1_555 1_555
C7 C6 1_555 1_555
H5 C7 1_555 1_555
C8 C7 1_555 1_555
H6 C8 1_555 1_555
C9 C8 1_555 1_555
C10 C9 1_555 1_555
C11 C6 1_555 1_555
C12 C11 1_555 1_555
H7 C12 1_555 1_555
C13 C4 1_555 1_555
H8 C13 1_555 1_555
C14 H9 1_555 1_555
H10 C14 1_555 1_555
C15 C14 1_555 1_555
H11 C15 1_555 1_555
H12 C15 1_555 1_555
C16 C15 1_555 1_555
H13 C16 1_555 1_555
H14 C16 1_555 1_555
C17 C16 1_555 1_555
H15 C17 1_555 1_555
H16 C17 1_555 1_555
H17 C17 1_555 1_555
C18 C10 1_555 1_555
C19 H18 1_555 1_555
H19 C19 1_555 1_555
C20 C21 1_555 1_555
C21 H20 1_555 1_555
C22 C21 1_555 1_555
H21 C22 1_555 1_555
C23 C22 1_555 1_555
C24 C23 1_555 1_555
C25 C24 1_555 1_555
C26 C25 1_555 1_555
H22 C26 1_555 1_555
C27 C26 1_555 1_555
H23 C27 1_555 1_555
C28 C23 1_555 1_555
C29 C3 1_555 1_555
C30 H24 1_555 1_555
H25 C30 1_555 1_555
C31 C30 1_555 1_555
H26 C31 1_555 1_555
H27 C31 1_555 1_555
C32 C31 1_555 1_555
H28 C32 1_555 1_555
H29 C32 1_555 1_555
C33 C32 1_555 1_555
H30 C33 1_555 1_555
H31 C33 1_555 1_555
H32 C33 1_555 1_555
O1 C1 1_555 1_555
O2 C1 1_555 1_555
O3 C9 1_555 1_555
O4 C18 1_555 1_555
O5 C18 1_555 1_555
O6 C25 1_555 1_555
C1A H1A 1_555 1_555
C2A C1A 1_555 1_555
H2A C2A 1_555 1_555
H3A C2A 1_555 1_555
C3A C2A 1_555 1_555
H4A C3A 1_555 1_555
C4A C5A 1_555 1_555
C5A C3A 1_555 1_555
C6A C5A 1_555 1_555
C7A C6A 1_555 1_555
H5A C7A 1_555 1_555
C8A C7A 1_555 1_555
H6A C8A 1_555 1_555
C9A C8A 1_555 1_555
C10A C9A 1_555 1_555
C11A C6A 1_555 1_555
C12A C11A 1_555 1_555
H7A C12A 1_555 1_555
C13A C4A 1_555 1_555
H8A C13A 1_555 1_555
C14A H9A 1_555 1_555
H10A C14A 1_555 1_555
C15A C14A 1_555 1_555
H11A C15A 1_555 1_555
H12A C15A 1_555 1_555
C16A C15A 1_555 1_555
H13A C16A 1_555 1_555
H14A C16A 1_555 1_555
C17A C16A 1_555 1_555
H15A C17A 1_555 1_555
H16A C17A 1_555 1_555
H17A C17A 1_555 1_555
C18A C10A 1_555 1_555
C19A C24 1_555 1_555
H18A C19A 1_555 1_555
H19A C19A 1_555 1_555
C20A C21A 1_555 1_555
C21A H20A 1_555 1_555
C22A C21A 1_555 1_555
H21A C22A 1_555 1_555
C23A C22A 1_555 1_555
C24A C19 1_555 1_555
C25A C24A 1_555 1_555
C26A C25A 1_555 1_555
H22A C26A 1_555 1_555
C27A C26A 1_555 1_555
H23A C27A 1_555 1_555
C28A C23A 1_555 1_555
C29A C3A 1_555 1_555
C30A H24A 1_555 1_555
H25A C30A 1_555 1_555
C31A C30A 1_555 1_555
H26A C31A 1_555 1_555
H27A C31A 1_555 1_555
C32A C31A 1_555 1_555
H28A C32A 1_555 1_555
H29A C32A 1_555 1_555
C33A C32A 1_555 1_555
H30A C33A 1_555 1_555
H31A C33A 1_555 1_555
H32A C33A 1_555 1_555
O1A C1A 1_555 1_555
O2A C1A 1_555 1_555
O3A C9A 1_555 1_555
O4A C18A 1_555 1_555
O5A C18A 1_555 1_555
O6A C25A 1_555 1_555
C4 O1 1_555 1_555
C10 C11 1_555 1_555
C12 C13 1_555 1_555
C14 O3 1_555 1_555
C19 O4 1_555 1_555
C20 C29 1_555 1_555
C20 O2 1_555 1_555
C27 C28 1_555 1_555
C28 C29 1_555 1_555
C30 O6 1_555 1_555
C4A O1A 1_555 1_555
C10A C11A 1_555 1_555
C12A C13A 1_555 1_555
C14A O3A 1_555 1_555
C19A O4A 1_555 1_555
C20A C29A 1_555 1_555
C20A O2A 1_555 1_555
C23A C24A 1_555 1_555
C27A C28A 1_555 1_555
C28A C29A 1_555 1_555
C30A O6A 1_555 1_555

#END
