
#######################################################################
#
#                 Cambridge Crystallographic Data Centre
#                                CCDC 
#
#######################################################################
#
# If this CIF has been generated from an entry in the Cambridge 
# Structural Database, then it will include bibliographic, chemical, 
# crystal, experimental, refinement or atomic coordinate data resulting 
# from the CCDC's data processing and validation procedures.
#
#######################################################################

data_DIBGAZ
_chemical_formula_moiety         'C66 H64 O12,C1 H2 Cl2'
_chemical_name_systematic        
'10,16,36,42-tetrabutoxy-13,28,39,50,54,56-hexaoxatridecacyclo[43.7.1.1^3,51^.1^23,27^.1^25,29^.0^2,7^.0^6,11^.0^15,20^.0^19,24^.0^32,37^.0^33,55^.0^41,46^.0^49,53^]hexapentaconta-2,4,6,8,10,15,17,19,21,23,29(55),30,32,34,36,41,43,45(53),46,48-icosaene-12,40-dione dichloromethane solvate'
_symmetry_cell_setting           triclinic
_symmetry_space_group_name_H-M   'P -1'
_symmetry_Int_Tables_number      2
_space_group_name_Hall           '-P 1'
loop_
_symmetry_equiv_pos_site_id
_symmetry_equiv_pos_as_xyz
1 x,y,z
2 -x,-y,-z
_cell_length_a                   12.3158(4)
_cell_length_b                   12.7690(4)
_cell_length_c                   19.5858(6)
_cell_angle_alpha                85.884(2)
_cell_angle_beta                 73.714(2)
_cell_angle_gamma                80.961(2)
_cell_volume                     2918.52
_exptl_crystal_colour            colorless
_exptl_crystal_description       block
_cell_formula_units_Z            2
loop_
_atom_site_label
_atom_site_type_symbol
_atom_site_fract_x
_atom_site_fract_y
_atom_site_fract_z
C1 C -0.0039(5) 0.6265(5) 0.2905(3)
H1 H -0.0817 0.6499 0.2838
C2 C -0.0097(5) 0.5309(5) 0.3385(3)
H2 H -0.0314 0.4729 0.3164
H3 H -0.0680 0.5472 0.3842
C3 C 0.1082(4) 0.4965(4) 0.3515(2)
H4 H 0.1090 0.4308 0.3825
C4 C 0.1725(5) 0.5379(5) 0.2208(3)
C5 C 0.1947(4) 0.4788(4) 0.2782(2)
C6 C 0.2976(4) 0.4057(4) 0.2675(2)
C7 C 0.3249(4) 0.3362(4) 0.3212(2)
H5 H 0.2711 0.3367 0.3668
C8 C 0.4249(5) 0.2679(4) 0.3111(2)
H6 H 0.4384 0.2200 0.3482
C9 C 0.5076(4) 0.2694(4) 0.2448(2)
C10 C 0.4853(4) 0.3316(4) 0.1898(2)
C11 C 0.3797(4) 0.4005(4) 0.1991(2)
C12 C 0.3528(5) 0.4659(4) 0.1435(2)
H7 H 0.4064 0.4636 0.0979
C13 C 0.2522(5) 0.5325(5) 0.1531(3)
H8 H 0.2359 0.5750 0.1144
C14 C 0.6536(4) 0.1732(4) 0.2939(2)
H9 H 0.6167 0.1122 0.3187
H10 H 0.6351 0.2317 0.3276
C15 C 0.7799(5) 0.1417(4) 0.2690(3)
H11 H 0.7965 0.0817 0.2365
H12 H 0.8086 0.1163 0.3105
C16 C 0.8436(5) 0.2297(4) 0.2311(3)
H13 H 0.8186 0.2519 0.1877
H14 H 0.9263 0.2024 0.2159
C17 C 0.8257(5) 0.3257(5) 0.2762(3)
H15 H 0.8784 0.3751 0.2515
H16 H 0.8404 0.3031 0.3220
H17 H 0.7468 0.3611 0.2841
C18 C 0.5771(4) 0.3365(4) 0.1214(2)
C19 C 0.7093(5) 0.4494(4) 0.0619(2)
H18 H 0.6687 0.4636 0.0244
H19 H 0.7757 0.3937 0.0455
C20 C 0.0975(4) 0.6892(4) 0.3654(2)
C21 C 0.1266(4) 0.7815(4) 0.3876(2)
H20 H 0.0985 0.8500 0.3722
C22 C 0.1960(4) 0.7696(4) 0.4317(2)
H21 H 0.2205 0.8306 0.4443
C23 C 0.2325(3) 0.6696(3) 0.4592(2)
C24 C 0.3030(3) 0.6571(3) 0.5069(2)
C25 C 0.3298(4) 0.5591(4) 0.5362(2)
C26 C 0.2893(4) 0.4693(4) 0.5191(2)
H22 H 0.3065 0.4018 0.5404
C27 C 0.2249(4) 0.4812(4) 0.4717(2)
H23 H 0.1979 0.4204 0.4607
C28 C 0.1970(3) 0.5780(4) 0.4385(2)
C29 C 0.1328(4) 0.5900(4) 0.3865(2)
C30 C 0.4073(4) 0.4526(4) 0.6221(2)
H24 H 0.4406 0.3936 0.5890
H25 H 0.3307 0.4387 0.6510
C31 C 0.4806(4) 0.4576(4) 0.6691(3)
H26 H 0.4464 0.5153 0.7031
H27 H 0.5568 0.4729 0.6404
C32 C 0.4931(6) 0.3507(5) 0.7100(3)
H28 H 0.4174 0.3409 0.7425
H29 H 0.5153 0.2931 0.6754
C33 C 0.5753(6) 0.3391(5) 0.7515(3)
H30 H 0.6516 0.3447 0.7198
H31 H 0.5760 0.2696 0.7763
H32 H 0.5540 0.3951 0.7865
C34 C 0.3468(4) 0.7517(4) 0.5243(2)
C35 C 0.4999(4) 0.8524(3) 0.4776(2)
H33 H 0.5426 0.8354 0.5138
H34 H 0.4448 0.9176 0.4914
C36 C 0.5807(4) 0.8690(3) 0.4062(2)
C37 C 0.5392(4) 0.9060(3) 0.3470(2)
C38 C 0.4233(4) 0.9482(3) 0.3548(2)
H35 H 0.3707 0.9487 0.4007
C39 C 0.3861(5) 0.9873(4) 0.2991(2)
H36 H 0.3082 1.0168 0.3059
C40 C 0.4625(5) 0.9852(4) 0.2298(2)
C41 C 0.5749(5) 0.9418(4) 0.2176(2)
C42 C 0.6167(4) 0.9073(3) 0.2772(2)
C43 C 0.7343(4) 0.8783(4) 0.2720(3)
H37 H 0.7875 0.8782 0.2262
C44 C 0.7735(4) 0.8511(4) 0.3289(3)
H38 H 0.8535 0.8372 0.3235
C45 C 0.6964(4) 0.8428(3) 0.3970(3)
C46 C 0.8057(4) 0.8729(4) 0.4730(3)
H39 H 0.7599 0.9433 0.4854
H40 H 0.8719 0.8828 0.4318
C47 C 0.8467(5) 0.8271(4) 0.5338(3)
H41 H 0.8945 0.7580 0.5200
H42 H 0.7799 0.8133 0.5735
C48 C 0.9141(5) 0.8938(4) 0.5598(3)
H43 H 0.8646 0.9607 0.5774
H44 H 0.9778 0.9124 0.5194
C49 C 0.9627(7) 0.8410(6) 0.6186(4)
H45 H 1.0256 0.7849 0.5987
H46 H 0.9028 0.8101 0.6547
H47 H 0.9914 0.8937 0.6403
C50 C 0.6481(5) 0.9363(4) 0.1394(2)
H48 H 0.7305 0.9367 0.1363
C51 C 0.6033(7) 1.0314(5) 0.0989(3)
H49 H 0.6111 1.0980 0.1188
H50 H 0.6473 1.0298 0.0481
C52 C 0.4801(7) 1.0263(4) 0.1058(3)
H51 H 0.4501 1.0892 0.0796
C53 C 0.5393(6) 0.8427(4) 0.0804(2)
C54 C 0.5116(5) 0.7527(5) 0.0542(2)
H52 H 0.4473 0.7596 0.0356
C55 C 0.5760(5) 0.6572(4) 0.0556(2)
H53 H 0.5536 0.5964 0.0412
C56 C 0.6775(5) 0.6467(4) 0.0785(2)
C57 C 0.7482(5) 0.5484(4) 0.07683(19)
C58 C 0.8510(5) 0.5413(4) 0.0930(2)
C59 C 0.8842(5) 0.6327(4) 0.1144(2)
H54 H 0.9557 0.6283 0.1248
C60 C 0.8131(5) 0.7261(4) 0.1200(2)
H55 H 0.8351 0.7860 0.1359
C61 C 0.7080(5) 0.7377(4) 0.10301(19)
C62 C 0.6327(5) 0.8359(4) 0.1072(2)
C63 C 1.0255(6) 0.4278(4) 0.1004(2)
H56 H 1.0170 0.4412 0.1510
H57 H 1.0756 0.4765 0.0702
C64 C 1.0758(6) 0.3132(4) 0.0836(2)
H58 H 1.0172 0.2671 0.1061
H59 H 1.0958 0.3048 0.0315
C65 C 1.1797(7) 0.2775(7) 0.1088(4)
H60 H 1.2264 0.2214 0.0763
H61 H 1.2233 0.3382 0.0998
C66 C 1.1786(9) 0.2384(8) 0.1786(6)
H62 H 1.1392 0.2936 0.2128
H63 H 1.2573 0.2183 0.1816
H64 H 1.1385 0.1762 0.1896
O1 O 0.0731(4) 0.6058(3) 0.22301(18)
O2 O 0.0288(3) 0.7120(3) 0.31865(18)
O3 O 0.6122(3) 0.2069(3) 0.23305(15)
O4 O 0.3967(3) 0.5517(2) 0.58191(16)
O5 O 0.5787(7) 0.3101(7) 0.0648(3)
O6 O 0.6377(2) 0.4173(2) 0.12399(12)
O7 O 0.4421(2) 0.7687(2) 0.47330(15)
O8 O 0.4126(4) 1.0293(3) 0.17791(18)
O9 O 0.4637(4) 0.9333(3) 0.07641(18)
O10 O 0.7377(3) 0.8053(2) 0.45434(19)
O11 O 0.9166(4) 0.4436(3) 0.08613(17)
O12 O 0.2817(5) 0.8376(5) 0.5497(3)
C67 C 0.1833(6) 0.8602(6) 0.1762(4)
H65 H 0.2539 0.8925 0.1690
H66 H 0.1894 0.7957 0.2069
Cl1 Cl 0.0663(2) 0.94980(18) 0.22024(14)
Cl2 Cl 0.1755(3) 0.8237(3) 0.09499(16)
H67? H 1.2437 0.3128 0.0791
H68? H 1.1645 0.2992 0.1585
C68? C 1.2112(11) 0.1685(10) 0.1055(7)
H69? H 1.1454 0.1332 0.1305
H70? H 1.2732 0.1473 0.1281
H71? H 1.2372 0.1480 0.0557
O13? O 0.4909(7) 0.8871(5) 0.5261(3)
H72? H 0.2878 0.8149 0.5275
H73? H 0.3641 0.7396 0.5708
O14? O 0.7024(9) 0.4184(6) 0.0089(3)
H74? H 0.6289 0.2682 0.1142
H75? H 0.5426 0.3496 0.0810
loop_
_geom_bond_atom_site_label_1
_geom_bond_atom_site_label_2
_geom_bond_site_symmetry_1
_geom_bond_site_symmetry_2
C1 H1 1_555 1_555
C2 C1 1_555 1_555
H2 C2 1_555 1_555
H3 C2 1_555 1_555
C3 C2 1_555 1_555
H4 C3 1_555 1_555
C4 C5 1_555 1_555
C5 C3 1_555 1_555
C6 C5 1_555 1_555
C7 C6 1_555 1_555
H5 C7 1_555 1_555
C8 C7 1_555 1_555
H6 C8 1_555 1_555
C9 C8 1_555 1_555
C10 C9 1_555 1_555
C11 C6 1_555 1_555
C12 C11 1_555 1_555
H7 C12 1_555 1_555
C13 C4 1_555 1_555
H8 C13 1_555 1_555
C14 H9 1_555 1_555
H10 C14 1_555 1_555
C15 C14 1_555 1_555
H11 C15 1_555 1_555
H12 C15 1_555 1_555
C16 C15 1_555 1_555
H13 C16 1_555 1_555
H14 C16 1_555 1_555
C17 C16 1_555 1_555
H15 C17 1_555 1_555
H16 C17 1_555 1_555
H17 C17 1_555 1_555
C18 C10 1_555 1_555
C19 H18 1_555 1_555
H19 C19 1_555 1_555
C20 C21 1_555 1_555
C21 H20 1_555 1_555
C22 C21 1_555 1_555
H21 C22 1_555 1_555
C23 C22 1_555 1_555
C24 C23 1_555 1_555
C25 C24 1_555 1_555
C26 C25 1_555 1_555
H22 C26 1_555 1_555
C27 C26 1_555 1_555
H23 C27 1_555 1_555
C28 C23 1_555 1_555
C29 C3 1_555 1_555
C30 H24 1_555 1_555
H25 C30 1_555 1_555
C31 C30 1_555 1_555
H26 C31 1_555 1_555
H27 C31 1_555 1_555
C32 C31 1_555 1_555
H28 C32 1_555 1_555
H29 C32 1_555 1_555
C33 C32 1_555 1_555
H30 C33 1_555 1_555
H31 C33 1_555 1_555
H32 C33 1_555 1_555
C34 C24 1_555 1_555
C35 H33 1_555 1_555
H34 C35 1_555 1_555
C36 C35 1_555 1_555
C37 C36 1_555 1_555
C38 C37 1_555 1_555
H35 C38 1_555 1_555
C39 C38 1_555 1_555
H36 C39 1_555 1_555
C40 C39 1_555 1_555
C41 C40 1_555 1_555
C42 C37 1_555 1_555
C43 C42 1_555 1_555
H37 C43 1_555 1_555
C44 C43 1_555 1_555
H38 C44 1_555 1_555
C45 C36 1_555 1_555
C46 H39 1_555 1_555
H40 C46 1_555 1_555
C47 C46 1_555 1_555
H41 C47 1_555 1_555
H42 C47 1_555 1_555
C48 C47 1_555 1_555
H43 C48 1_555 1_555
H44 C48 1_555 1_555
C49 C48 1_555 1_555
H45 C49 1_555 1_555
H46 C49 1_555 1_555
H47 C49 1_555 1_555
C50 C41 1_555 1_555
H48 C50 1_555 1_555
C51 C50 1_555 1_555
H49 C51 1_555 1_555
H50 C51 1_555 1_555
C52 C51 1_555 1_555
H51 C52 1_555 1_555
C53 C54 1_555 1_555
C54 H52 1_555 1_555
C55 C54 1_555 1_555
H53 C55 1_555 1_555
C56 C55 1_555 1_555
C57 C19 1_555 1_555
C58 C57 1_555 1_555
C59 C58 1_555 1_555
H54 C59 1_555 1_555
C60 C59 1_555 1_555
H55 C60 1_555 1_555
C61 C56 1_555 1_555
C62 C50 1_555 1_555
C63 H56 1_555 1_555
H57 C63 1_555 1_555
C64 C63 1_555 1_555
H58 C64 1_555 1_555
H59 C64 1_555 1_555
C65 C64 1_555 1_555
H60 C65 1_555 1_555
H61 C65 1_555 1_555
C66 C65 1_555 1_555
H62 C66 1_555 1_555
H63 C66 1_555 1_555
H64 C66 1_555 1_555
O1 C1 1_555 1_555
O2 C1 1_555 1_555
O3 C9 1_555 1_555
O4 C25 1_555 1_555
O5 C18 1_555 1_555
O6 C18 1_555 1_555
O7 C34 1_555 1_555
O8 C40 1_555 1_555
O9 C52 1_555 1_555
O10 C45 1_555 1_555
O11 C58 1_555 1_555
O12 C34 1_555 1_555
C67 H65 1_555 1_555
H66 C67 1_555 1_555
Cl1 C67 1_555 1_555
Cl2 C67 1_555 1_555
C4 O1 1_555 1_555
C10 C11 1_555 1_555
C12 C13 1_555 1_555
C14 O3 1_555 1_555
C19 O6 1_555 1_555
C20 C29 1_555 1_555
C20 O2 1_555 1_555
C27 C28 1_555 1_555
C28 C29 1_555 1_555
C30 O4 1_555 1_555
C35 O7 1_555 1_555
C41 C42 1_555 1_555
C44 C45 1_555 1_555
C46 O10 1_555 1_555
C52 O8 1_555 1_555
C53 C62 1_555 1_555
C53 O9 1_555 1_555
C56 C57 1_555 1_555
C60 C61 1_555 1_555
C61 C62 1_555 1_555
C63 O11 1_555 1_555

#END
