
#######################################################################
#
#                 Cambridge Crystallographic Data Centre
#                                CCDC 
#
#######################################################################
#
# If this CIF has been generated from an entry in the Cambridge 
# Structural Database, then it will include bibliographic, chemical, 
# crystal, experimental, refinement or atomic coordinate data resulting 
# from the CCDC's data processing and validation procedures.
#
#######################################################################

data_DIBLAE
_chemical_formula_moiety         'C15 H14 O4'
_chemical_name_systematic        
8'-hydroxy-4-methoxy-3',4'-dihydro-1'H,2H-spiro[cyclopent-3-ene-1,2'-naphthalene]-1',2-dione
_symmetry_cell_setting           orthorhombic
_symmetry_space_group_name_H-M   'P b c a'
_symmetry_Int_Tables_number      61
_space_group_name_Hall           '-P 2ac 2ab'
loop_
_symmetry_equiv_pos_site_id
_symmetry_equiv_pos_as_xyz
1 x,y,z
2 1/2-x,-y,1/2+z
3 -x,1/2+y,1/2-z
4 1/2+x,1/2-y,-z
5 -x,-y,-z
6 1/2+x,y,1/2-z
7 x,1/2-y,1/2+z
8 1/2-x,1/2+y,z
_cell_length_a                   10.287(2)
_cell_length_b                   11.291(2)
_cell_length_c                   20.866(4)
_cell_angle_alpha                90
_cell_angle_beta                 90
_cell_angle_gamma                90
_cell_volume                     2423.6
_exptl_crystal_colour            colorless
_exptl_crystal_description       Columns
_cell_formula_units_Z            8
loop_
_atom_site_label
_atom_site_type_symbol
_atom_site_fract_x
_atom_site_fract_y
_atom_site_fract_z
C1 C 0.12163(11) 0.16539(9) 0.44155(5)
C2 C 0.09264(11) 0.16455(10) 0.37288(5)
C3 C 0.30432(11) 0.17598(10) 0.57019(6)
C4 C 0.37812(11) 0.11040(10) 0.53004(6)
C5 C 0.23726(10) 0.23698(9) 0.46576(5)
C6 C 0.22159(12) 0.26576(11) 0.53726(6)
C7 C 0.35303(10) 0.14741(9) 0.46497(6)
C8 C 0.16033(12) 0.23878(11) 0.32954(6)
C9 C 0.25952(13) 0.34715(10) 0.42424(7)
C10 C -0.00578(12) 0.08794(11) 0.34951(6)
C11 C 0.26560(14) 0.32096(12) 0.35276(7)
C12 C -0.03508(15) 0.08606(14) 0.28431(7)
C13 C 0.12847(16) 0.23408(14) 0.26504(7)
C14 C 0.03205(17) 0.15897(15) 0.24307(7)
O1 O 0.29838(9) 0.17275(8) 0.63349(4)
C15 C 0.37044(14) 0.07873(14) 0.66373(6)
O2 O 0.05788(8) 0.10603(8) 0.47973(4)
O3 O 0.40794(8) 0.11408(8) 0.41622(4)
O4 O -0.07355(9) 0.01418(9) 0.38774(5)
H1 H 0.3336(16) 0.0039(16) 0.6503(8)
H2 H 0.3585(18) 0.0898(16) 0.7092(9)
H3 H 0.4641(19) 0.0808(17) 0.6534(9)
H4 H 0.4404(14) 0.0495(14) 0.5402(7)
H5 H 0.1314(17) 0.2609(15) 0.5512(8)
H6 H 0.2529(17) 0.3450(16) 0.5478(7)
H7 H 0.2573(18) 0.3953(16) 0.3306(8)
H8 H 0.3527(16) 0.2862(15) 0.3432(8)
H9 H 0.1832(15) 0.4025(14) 0.4332(7)
H10 H 0.1750(18) 0.2859(17) 0.2358(9)
H11 H 0.3402(16) 0.3877(15) 0.4395(8)
H12 H 0.013(2) 0.1580(19) 0.1986(11)
H13 H -0.041(2) 0.030(2) 0.4290(11)
H14 H -0.103(2) 0.0352(17) 0.2701(9)
loop_
_geom_bond_atom_site_label_1
_geom_bond_atom_site_label_2
_geom_bond_site_symmetry_1
_geom_bond_site_symmetry_2
C1 C2 1_555 1_555
C2 C8 1_555 1_555
C3 C4 1_555 1_555
C4 C7 1_555 1_555
C5 C1 1_555 1_555
C6 C3 1_555 1_555
C7 C5 1_555 1_555
C8 C11 1_555 1_555
C9 C5 1_555 1_555
C10 C2 1_555 1_555
C11 C9 1_555 1_555
C12 C10 1_555 1_555
C13 C8 1_555 1_555
C14 C12 1_555 1_555
O1 C3 1_555 1_555
C15 O1 1_555 1_555
O2 C1 1_555 1_555
O3 C7 1_555 1_555
O4 C10 1_555 1_555
H1 C15 1_555 1_555
H2 C15 1_555 1_555
H3 C15 1_555 1_555
H4 C4 1_555 1_555
H5 C6 1_555 1_555
H6 C6 1_555 1_555
H7 C11 1_555 1_555
H8 C11 1_555 1_555
H9 C9 1_555 1_555
H10 C13 1_555 1_555
H11 C9 1_555 1_555
H12 C14 1_555 1_555
H13 O4 1_555 1_555
H14 C12 1_555 1_555
C5 C6 1_555 1_555
C13 C14 1_555 1_555

#END
