
#######################################################################
#
#                 Cambridge Crystallographic Data Centre
#                                CCDC 
#
#######################################################################
#
# If this CIF has been generated from an entry in the Cambridge 
# Structural Database, then it will include bibliographic, chemical, 
# crystal, experimental, refinement or atomic coordinate data resulting 
# from the CCDC's data processing and validation procedures.
#
#######################################################################

data_DIBRUE
_chemical_formula_moiety         'C8 H2 N14 O8'
_chemical_name_systematic        
4,4'-[diazene-1,2-diylbis(1,3,4-oxadiazole-5,2-diyl)]bis(N-nitro-1,2,5-oxadiazol-3-amine)
_symmetry_cell_setting           monoclinic
_symmetry_space_group_name_H-M   'P 21/c'
_symmetry_Int_Tables_number      14
_space_group_name_Hall           '-P 2ybc'
loop_
_symmetry_equiv_pos_site_id
_symmetry_equiv_pos_as_xyz
1 x,y,z
2 -x,1/2+y,1/2-z
3 -x,-y,-z
4 x,1/2-y,1/2+z
_cell_length_a                   10.2812(11)
_cell_length_b                   7.4941(8)
_cell_length_c                   11.3241(13)
_cell_angle_alpha                90
_cell_angle_beta                 114.592(3)
_cell_angle_gamma                90
_cell_volume                     793.362
_exptl_crystal_colour            yellow
_exptl_crystal_description       Block
_cell_formula_units_Z            2
loop_
_atom_site_label
_atom_site_type_symbol
_atom_site_fract_x
_atom_site_fract_y
_atom_site_fract_z
C1 C 0.47300(18) 0.5080(2) 0.83835(16)
C2 C 0.33445(18) 0.4316(2) 0.65076(15)
C3 C 0.21656(18) 0.3408(2) 0.54853(15)
C4 C 0.16614(19) 0.3563(2) 0.41132(16)
N1 N 0.52543(17) 0.5740(2) 0.76256(14)
N2 N 0.43294(16) 0.5236(2) 0.63753(13)
N3 N 0.53446(15) 0.5359(2) 0.97182(13)
N4 N 0.0654(2) 0.2398(3) 0.35613(15)
N5 N 0.14495(18) 0.2156(3) 0.57454(14)
N6 N 0.21567(18) 0.4600(2) 0.33786(14)
H1 H 0.2413 0.4106 0.2824
N7 N 0.22386(18) 0.6415(2) 0.35348(16)
O1 O 0.35090(12) 0.41437(15) 0.77513(10)
O2 O 0.05176(18) 0.1500(2) 0.45645(13)
O3 O 0.26260(19) 0.7205(2) 0.28005(18)
O4 O 0.1938(2) 0.7037(2) 0.43735(15)
C1B C 0.52700(18) 0.4920(2) 1.16165(16)
C2B C 0.66555(18) 0.5684(2) 1.34924(15)
C3B C 0.78344(18) 0.6592(2) 1.45147(15)
C4B C 0.83386(19) 0.6437(2) 1.58868(16)
N1B N 0.47457(17) 0.4260(2) 1.23744(14)
N2B N 0.56706(16) 0.4764(2) 1.36247(13)
N3B N 0.46554(15) 0.4641(2) 1.02818(13)
N4B N 0.9346(2) 0.7602(3) 1.64387(15)
N5B N 0.85505(18) 0.7844(3) 1.42546(14)
N6B N 0.78433(18) 0.5400(2) 1.66214(14)
H1B H 0.7587 0.5894 1.7176
N7B N 0.77614(18) 0.3585(2) 1.64652(16)
O1B O 0.64910(12) 0.58563(15) 1.22487(10)
O2B O 0.94824(18) 0.8500(2) 1.54355(13)
O3B O 0.73740(19) 0.2795(2) 1.71995(18)
O4B O 0.8062(2) 0.2963(2) 1.56265(15)
loop_
_geom_bond_atom_site_label_1
_geom_bond_atom_site_label_2
_geom_bond_site_symmetry_1
_geom_bond_site_symmetry_2
C1 N1 1_555 1_555
C2 C3 1_555 1_555
C3 C4 1_555 1_555
C4 N4 1_555 1_555
N1 N2 1_555 1_555
N2 C2 1_555 1_555
N3 C1 1_555 1_555
N4 O2 1_555 1_555
N5 C3 1_555 1_555
N6 C4 1_555 1_555
H1 N6 1_555 1_555
N7 N6 1_555 1_555
O1 C1 1_555 1_555
O2 N5 1_555 1_555
O3 N7 1_555 1_555
O4 N7 1_555 1_555
C1B N1B 1_555 1_555
C2B C3B 1_555 1_555
C3B C4B 1_555 1_555
C4B N4B 1_555 1_555
N1B N2B 1_555 1_555
N2B C2B 1_555 1_555
N3B N3 1_555 1_555
N4B O2B 1_555 1_555
N5B C3B 1_555 1_555
N6B C4B 1_555 1_555
H1B N6B 1_555 1_555
N7B N6B 1_555 1_555
O1B C1B 1_555 1_555
O2B N5B 1_555 1_555
O3B N7B 1_555 1_555
O4B N7B 1_555 1_555
C2 O1 1_555 1_555
C1B N3B 1_555 1_555
C2B O1B 1_555 1_555

#END
