
#######################################################################
#
#                 Cambridge Crystallographic Data Centre
#                                CCDC 
#
#######################################################################
#
# If this CIF has been generated from an entry in the Cambridge 
# Structural Database, then it will include bibliographic, chemical, 
# crystal, experimental, refinement or atomic coordinate data resulting 
# from the CCDC's data processing and validation procedures.
#
#######################################################################

data_DIBTUE
_chemical_formula_moiety         'C14 H4 O6,2(C7 H8 N2 O2)'
_chemical_name_systematic        
'1,4,5,8-Naphthalenetetracarboxylic dianhydride bis(2-methyl-4-nitroaniline)'
_symmetry_cell_setting           triclinic
_symmetry_space_group_name_H-M   'P -1'
_symmetry_Int_Tables_number      2
_space_group_name_Hall           '-P 1'
loop_
_symmetry_equiv_pos_site_id
_symmetry_equiv_pos_as_xyz
1 x,y,z
2 -x,-y,-z
_cell_length_a                   8.307(2)
_cell_length_b                   8.894(2)
_cell_length_c                   9.179(2)
_cell_angle_alpha                110.230(4)
_cell_angle_beta                 103.873(5)
_cell_angle_gamma                97.109(5)
_cell_volume                     601.662
_exptl_crystal_colour            purple
_exptl_crystal_description       plate
_cell_formula_units_Z            1
loop_
_atom_site_label
_atom_site_type_symbol
_atom_site_fract_x
_atom_site_fract_y
_atom_site_fract_z
O1 O 0.3514(5) 0.9479(5) 0.6671(5)
O2 O 0.3404(6) 0.6050(6) 0.9161(6)
O3 O 0.3429(5) 0.7688(5) 0.7831(5)
C1 C 0.4525(8) 0.3595(8) 0.6871(8)
H1 H 0.4262 0.3303 0.7703
C2 C 0.4278(8) 0.5076(7) 0.6777(8)
C3 C 0.4674(7) 0.5538(7) 0.5570(7)
C4 C 0.4452(7) 0.7038(7) 0.5439(8)
C5 C 0.4839(8) 0.7470(8) 0.4258(8)
H2 H 0.4679 0.8490 0.4200
C6 C 0.3680(8) 0.6241(8) 0.8010(8)
C7 C 0.3777(8) 0.8180(8) 0.6639(8)
O1A O 0.6486(5) 0.0521(5) 0.3329(5)
O2A O 0.6596(6) 0.3950(6) 0.0839(6)
O3A O 0.6571(5) 0.2312(5) 0.2169(5)
C1A C 0.5475(8) 0.6405(8) 0.3129(8)
H1A H 0.5738 0.6697 0.2297
C2A C 0.5722(8) 0.4924(7) 0.3223(8)
C3A C 0.5326(7) 0.4462(7) 0.4430(7)
C4A C 0.5548(7) 0.2962(7) 0.4561(8)
C5A C 0.5161(8) 0.2530(8) 0.5742(8)
H2A H 0.5321 0.1510 0.5800
C6A C 0.6320(8) 0.3759(8) 0.1990(8)
C7A C 0.6223(8) 0.1820(8) 0.3361(8)
N1 N 0.0860(7) 0.5491(7) 0.2390(7)
N2 N 0.2306(6) -0.0704(6) 0.1093(7)
H3 H 0.2780 -0.1108 0.0325
H4 H 0.2086 -0.1266 0.1672
O4 O 0.1241(5) 0.6296(5) 0.1629(6)
O5 O 0.0214(6) 0.6050(6) 0.3515(7)
C8 C 0.1191(8) 0.3875(8) 0.2044(8)
C9 C 0.1899(8) 0.3227(8) 0.0777(8)
H5 H 0.2127 0.3828 0.0143
C10 C 0.2247(7) 0.1710(7) 0.0485(7)
H6 H 0.2735 0.1262 -0.0360
C11 C 0.1912(7) 0.0792(7) 0.1385(8)
C12 C 0.1171(7) 0.1457(7) 0.2666(7)
C13 C 0.0825(7) 0.2984(7) 0.2945(7)
H7 H 0.0323 0.3441 0.3776
C14 C 0.0799(8) 0.0522(8) 0.3657(8)
H8 H 0.1863 0.0351 0.4251
H9 H 0.0030 -0.0547 0.2939
H10 H 0.0258 0.1144 0.4435
loop_
_geom_bond_atom_site_label_1
_geom_bond_atom_site_label_2
_geom_bond_site_symmetry_1
_geom_bond_site_symmetry_2
O1 C7 1_555 1_555
O2 C6 1_555 1_555
O3 C6 1_555 1_555
C1 H1 1_555 1_555
C2 C1 1_555 1_555
C3 C2 1_555 1_555
C4 C3 1_555 1_555
C5 C4 1_555 1_555
H2 C5 1_555 1_555
C6 C2 1_555 1_555
C7 O3 1_555 1_555
N1 O4 1_555 1_555
N2 H3 1_555 1_555
H4 N2 1_555 1_555
O5 N1 1_555 1_555
C8 N1 1_555 1_555
C9 C8 1_555 1_555
H5 C9 1_555 1_555
C10 C9 1_555 1_555
H6 C10 1_555 1_555
C11 N2 1_555 1_555
C12 C11 1_555 1_555
C13 C8 1_555 1_555
H7 C13 1_555 1_555
C14 C12 1_555 1_555
H8 C14 1_555 1_555
H9 C14 1_555 1_555
H10 C14 1_555 1_555
O1A C7A 1_555 1_555
O2A C6A 1_555 1_555
O3A C6A 1_555 1_555
C1A C5 1_555 1_555
H1A C1A 1_555 1_555
C2A C1A 1_555 1_555
C3A C3 1_555 1_555
C4A C3A 1_555 1_555
C5A C1 1_555 1_555
H2A C5A 1_555 1_555
C6A C2A 1_555 1_555
C7A O3A 1_555 1_555
C4 C7 1_555 1_555
C10 C11 1_555 1_555
C12 C13 1_555 1_555
C2A C3A 1_555 1_555
C4A C5A 1_555 1_555
C4A C7A 1_555 1_555

#END
