
#######################################################################
#
#                 Cambridge Crystallographic Data Centre
#                                CCDC 
#
#######################################################################
#
# If this CIF has been generated from an entry in the Cambridge 
# Structural Database, then it will include bibliographic, chemical, 
# crystal, experimental, refinement or atomic coordinate data resulting 
# from the CCDC's data processing and validation procedures.
#
#######################################################################

data_DIBUCC
_chemical_name_common            'Cinchocaine hydrochloride monohydrate'
_chemical_formula_moiety         'C20 H30 N3 O2 1+,H2 O1,Cl1 1-'
_chemical_name_systematic        'Dibucaine hydrochloride monohydrate'
_symmetry_cell_setting           monoclinic
_symmetry_space_group_name_H-M   'P 21/c'
_symmetry_Int_Tables_number      14
_space_group_name_Hall           '-P 2ybc'
loop_
_symmetry_equiv_pos_site_id
_symmetry_equiv_pos_as_xyz
1 x,y,z
2 -x,1/2+y,1/2-z
3 -x,-y,-z
4 x,1/2-y,1/2+z
_cell_length_a                   10.669(3)
_cell_length_b                   35.981(5)
_cell_length_c                   11.417(2)
_cell_angle_alpha                90
_cell_angle_beta                 89.654(3)
_cell_angle_gamma                90
_cell_volume                     4382.69
_cell_formula_units_Z            8
loop_
_atom_site_label
_atom_site_type_symbol
_atom_site_fract_x
_atom_site_fract_y
_atom_site_fract_z
Cl1 Cl 0.44020 0.76890 0.93840
C1 C 0.85180 0.88690 0.58980
C2 C 0.92000 0.91980 0.60190
N1 N 0.88790 0.94880 0.65830
C3 C 0.77320 0.94700 0.71510
C4 C 0.73640 0.97770 0.78100
C5 C 0.62380 0.97730 0.83970
C6 C 0.54950 0.94570 0.83310
C7 C 0.57920 0.91510 0.76950
C8 C 0.69550 0.91550 0.70870
C9 C 0.73610 0.88440 0.64150
C10 C 0.65780 0.85060 0.62610
O1 O 0.55190 0.85250 0.58330
N2 N 0.70830 0.81880 0.66330
C11 C 0.64090 0.78420 0.65900
C12 C 0.72610 0.75370 0.62530
N3 N 0.66290 0.71800 0.60260
C13 C 0.74870 0.69110 0.54190
C14 C 0.68630 0.65750 0.49180
C15 C 0.59730 0.70060 0.70380
C16 C 0.68220 0.69040 0.80790
O2 O 1.03250 0.91890 0.54590
C17 C 1.11020 0.95110 0.55580
C18 C 1.22770 0.94230 0.48610
C19 C 1.33820 0.96290 0.51370
C20 C 1.44770 0.94930 0.45440
H1 H 0.87700 0.86600 0.55000
H2 H 0.77900 1.00400 0.78000
H3 H 0.60000 1.00500 0.87200
H4 H 0.47400 0.94800 0.85600
H5 H 0.53400 0.88800 0.76400
H6 H 0.79600 0.82400 0.71300
H7 H 0.60200 0.77300 0.73500
H8 H 0.57000 0.78600 0.58500
H9 H 0.76800 0.76400 0.55100
H10 H 0.78300 0.74700 0.68100
H11 H 0.79500 0.70300 0.49700
H12 H 0.80800 0.68200 0.61000
H13 H 0.54800 0.71700 0.71400
H14 H 1.11900 0.95300 0.63500
H15 H 1.06600 0.97500 0.53500
H16 H 1.28500 0.91200 0.50700
H17 H 1.29600 0.98000 0.46300
H18 H 1.35400 0.95600 0.59200
Cl2 Cl 0.96110 0.80400 0.81460
C21 C 0.67700 0.36250 0.33800
C22 C 0.61530 0.39670 0.35420
N4 N 0.66140 0.42510 0.40860
C23 C 0.78300 0.42130 0.45150
C24 C 0.83570 0.45170 0.51420
C25 C 0.95680 0.44990 0.56020
C26 C 1.02720 0.41840 0.54910
C27 C 0.97600 0.38750 0.48780
C28 C 0.85260 0.38900 0.43880
C29 C 0.79700 0.35890 0.38000
C30 C 0.86230 0.32260 0.36170
O3 O 0.96680 0.32120 0.31280
N5 N 0.80470 0.29290 0.40290
C31 C 0.85510 0.25530 0.40010
C32 C 0.76210 0.22980 0.34320
N6 N 0.80590 0.19050 0.33170
C33 C 0.70880 0.16690 0.26870
C34 C 0.75730 0.12970 0.23200
C35 C 0.84630 0.17320 0.44580
C36 C 0.74320 0.17220 0.53890
O4 O 0.49800 0.39740 0.30870
C37 C 0.42690 0.43030 0.32860
C38 C 0.29860 0.42480 0.26870
C39 C 0.21200 0.45800 0.28620
C40 C 0.08680 0.45280 0.22540
H19 H 0.63400 0.33900 0.29200
H20 H 0.78400 0.48000 0.51400
H21 H 0.97600 0.47500 0.60600
H22 H 1.02500 0.36700 0.47300
H23 H 0.72100 0.29700 0.42500
H24 H 0.94200 0.25200 0.36400
H25 H 0.88600 0.24700 0.48400
H26 H 0.68400 0.22400 0.37000
H27 H 0.75600 0.23700 0.27200
H28 H 0.64000 0.16000 0.35000
H29 H 0.69900 0.18000 0.23300
H30 H 0.85600 0.14200 0.42400
H31 H 0.91800 0.18700 0.46400
H32 H 0.42300 0.43200 0.42200
H33 H 0.48200 0.45000 0.28600
H34 H 0.32800 0.42100 0.17900
H35 H 0.26600 0.39300 0.30200
H36 H 0.18200 0.45600 0.39300
H37 H 0.24800 0.47500 0.25600
O5 O 0.04860 0.27930 0.11430
loop_
_geom_bond_atom_site_label_1
_geom_bond_atom_site_label_2
_geom_bond_site_symmetry_1
_geom_bond_site_symmetry_2
C1 C2 1_555 1_555
C2 N1 1_555 1_555
N1 C3 1_555 1_555
C3 C4 1_555 1_555
C4 C5 1_555 1_555
C5 C6 1_555 1_555
C6 C7 1_555 1_555
C7 C8 1_555 1_555
C8 C3 1_555 1_555
C9 C1 1_555 1_555
C10 C9 1_555 1_555
O1 C10 1_555 1_555
N2 C10 1_555 1_555
C11 N2 1_555 1_555
C12 C11 1_555 1_555
N3 C12 1_555 1_555
C13 N3 1_555 1_555
C14 C13 1_555 1_555
C15 N3 1_555 1_555
C16 C15 1_555 1_555
O2 C2 1_555 1_555
C17 O2 1_555 1_555
C18 C17 1_555 1_555
C19 C18 1_555 1_555
C20 C19 1_555 1_555
H1 C1 1_555 1_555
H2 C4 1_555 1_555
H3 C5 1_555 1_555
H4 C6 1_555 1_555
H5 C7 1_555 1_555
H6 N2 1_555 1_555
H7 C11 1_555 1_555
H8 C11 1_555 1_555
H9 C12 1_555 1_555
H10 C12 1_555 1_555
H11 C13 1_555 1_555
H12 C13 1_555 1_555
H13 C15 1_555 1_555
H14 C17 1_555 1_555
H15 C17 1_555 1_555
H16 C18 1_555 1_555
H17 C19 1_555 1_555
H18 C19 1_555 1_555
C21 C22 1_555 1_555
C22 N4 1_555 1_555
N4 C23 1_555 1_555
C23 C24 1_555 1_555
C24 C25 1_555 1_555
C25 C26 1_555 1_555
C26 C27 1_555 1_555
C27 C28 1_555 1_555
C28 C23 1_555 1_555
C29 C21 1_555 1_555
C30 C29 1_555 1_555
O3 C30 1_555 1_555
N5 C30 1_555 1_555
C31 N5 1_555 1_555
C32 C31 1_555 1_555
N6 C32 1_555 1_555
C33 N6 1_555 1_555
C34 C33 1_555 1_555
C35 N6 1_555 1_555
C36 C35 1_555 1_555
O4 C22 1_555 1_555
C37 O4 1_555 1_555
C38 C37 1_555 1_555
C39 C38 1_555 1_555
C40 C39 1_555 1_555
H19 C21 1_555 1_555
H20 C24 1_555 1_555
H21 C25 1_555 1_555
H22 C27 1_555 1_555
H23 N5 1_555 1_555
H24 C31 1_555 1_555
H25 C31 1_555 1_555
H26 C32 1_555 1_555
H27 C32 1_555 1_555
H28 C33 1_555 1_555
H29 C33 1_555 1_555
H30 C35 1_555 1_555
H31 C35 1_555 1_555
H32 C37 1_555 1_555
H33 C37 1_555 1_555
H34 C38 1_555 1_555
H35 C38 1_555 1_555
H36 C39 1_555 1_555
H37 C39 1_555 1_555
C8 C9 1_555 1_555
C28 C29 1_555 1_555

#END
