
#######################################################################
#
#                 Cambridge Crystallographic Data Centre
#                                CCDC 
#
#######################################################################
#
# If this CIF has been generated from an entry in the Cambridge 
# Structural Database, then it will include bibliographic, chemical, 
# crystal, experimental, refinement or atomic coordinate data resulting 
# from the CCDC's data processing and validation procedures.
#
#######################################################################

data_DIBVAN
_chemical_formula_moiety         'C33 H26 N2 O3'
_chemical_name_systematic        
(4-(tris(4-methoxyphenyl)vinyl)benzylidene)malononitrile
_symmetry_cell_setting           monoclinic
_symmetry_space_group_name_H-M   'P 21'
_symmetry_Int_Tables_number      4
_space_group_name_Hall           'P 2yb'
loop_
_symmetry_equiv_pos_site_id
_symmetry_equiv_pos_as_xyz
1 x,y,z
2 -x,1/2+y,-z
_cell_length_a                   9.637(2)
_cell_length_b                   16.834(5)
_cell_length_c                   16.319(5)
_cell_angle_alpha                90
_cell_angle_beta                 91.280(5)
_cell_angle_gamma                90
_cell_volume                     2646.76
_exptl_crystal_colour            orange
_exptl_crystal_description       plate
_cell_formula_units_Z            4
loop_
_atom_site_label
_atom_site_type_symbol
_atom_site_fract_x
_atom_site_fract_y
_atom_site_fract_z
O1 O 0.5129(3) -0.25165(16) 0.78476(13)
O2 O 0.0007(3) -0.2803(2) 0.26766(18)
O3 O 0.9864(3) 0.05524(17) 0.56296(17)
N1 N 0.1595(4) 0.2160(3) -0.0092(2)
N2 N 0.5417(4) 0.0805(3) 0.0320(2)
C1 C 0.4189(4) -0.1342(2) 0.46343(19)
C2 C 0.4858(4) -0.0702(2) 0.43247(19)
C3 C 0.4487(3) -0.16407(19) 0.54803(18)
C4 C 0.4618(4) -0.1121(2) 0.61365(19)
H1 H 0.4557 -0.0566 0.6037
C5 C 0.4834(3) -0.1386(2) 0.69338(19)
H2 H 0.4923 -0.1015 0.7371
C6 C 0.4921(3) -0.2188(2) 0.70875(18)
C7 C 0.4794(3) -0.2722(2) 0.6445(2)
H3 H 0.4863 -0.3276 0.6549
C8 C 0.4566(3) -0.2451(2) 0.56539(19)
H4 H 0.4462 -0.2824 0.5220
C9 C 0.5131(4) -0.1991(3) 0.8532(2)
H5 H 0.5864 -0.1593 0.8471
H6 H 0.5302 -0.2294 0.9037
H7 H 0.4229 -0.1725 0.8558
C10 C 0.3143(4) -0.1785(2) 0.41337(19)
C11 C 0.1856(4) -0.1992(2) 0.4439(2)
H8 H 0.1670 -0.1900 0.5000
C12 C 0.0847(4) -0.2327(2) 0.3938(2)
H9 H -0.0025 -0.2464 0.4158
C13 C 0.1088(4) -0.2466(2) 0.3120(2)
C14 C 0.2373(4) -0.2303(2) 0.2811(2)
H10 H 0.2567 -0.2423 0.2256
C15 C 0.3387(4) -0.1958(2) 0.3319(2)
H11 H 0.4269 -0.1839 0.3101
C16 C 0.0167(6) -0.2870(3) 0.1836(3)
H12 H -0.0680 -0.3094 0.1585
H13 H 0.0954 -0.3219 0.1726
H14 H 0.0339 -0.2343 0.1603
C17 C 0.6178(4) -0.03855(19) 0.46859(19)
C18 C 0.6375(4) 0.0421(2) 0.4813(2)
H15 H 0.5647 0.0780 0.4673
C19 C 0.7589(4) 0.0710(2) 0.5134(2)
H16 H 0.7687 0.1264 0.5232
C20 C 0.8686(4) 0.0200(2) 0.5318(2)
C21 C 0.8528(4) -0.0600(2) 0.5187(2)
H17 H 0.9266 -0.0956 0.5317
C22 C 0.7290(4) -0.0882(2) 0.4866(2)
H18 H 0.7196 -0.1435 0.4764
C23 C 1.0977(5) 0.0047(3) 0.5875(3)
H19 H 1.1319 -0.0237 0.5396
H20 H 1.0651 -0.0337 0.6279
H21 H 1.1729 0.0367 0.6119
C24 C 0.4294(4) -0.0277(2) 0.35952(19)
C25 C 0.2884(4) -0.0087(2) 0.3535(2)
H22 H 0.2283 -0.0249 0.3958
C26 C 0.2347(4) 0.0330(2) 0.2873(2)
H23 H 0.1387 0.0458 0.2845
C27 C 0.3211(4) 0.0562(2) 0.2250(2)
C28 C 0.4621(4) 0.0391(2) 0.2302(2)
H24 H 0.5217 0.0556 0.1879
C29 C 0.5164(4) -0.0025(2) 0.2983(2)
H25 H 0.6130 -0.0134 0.3023
C30 C 0.2565(4) 0.1028(2) 0.1589(2)
H26 H 0.1657 0.1213 0.1697
C31 C 0.3042(4) 0.1232(2) 0.0864(2)
C32 C 0.2245(4) 0.1745(3) 0.0329(2)
C33 C 0.4362(5) 0.1003(2) 0.0563(2)
O4 O -0.4868(3) 0.26848(17) -0.10725(17)
O5 O 0.0176(3) 0.24532(17) 0.40245(14)
O6 O 0.1325(3) 0.52955(17) -0.26405(15)
N3 N 0.6758(4) 0.7030(4) 0.3971(3)
N4 N 0.7346(5) 0.5628(4) 0.1787(3)
C34 C 0.0494(3) 0.4407(2) 0.0646(2)
C35 C -0.0413(3) 0.3839(2) 0.08870(19)
C36 C 0.0614(3) 0.4659(2) -0.0222(2)
C37 C 0.0828(4) 0.5456(2) -0.0425(2)
H27 H 0.0812 0.5848 -0.0006
C38 C 0.1064(4) 0.5685(2) -0.1227(2)
H28 H 0.1210 0.6229 -0.1353
C39 C 0.1085(4) 0.5128(2) -0.1835(2)
C40 C 0.0852(4) 0.4335(2) -0.1650(2)
H29 H 0.0845 0.3947 -0.2073
C41 C 0.0633(4) 0.4114(2) -0.0856(2)
H30 H 0.0489 0.3568 -0.0736
C42 C 0.1607(5) 0.6099(3) -0.2857(3)
H31 H 0.1752 0.6134 -0.3448
H32 H 0.2443 0.6281 -0.2560
H33 H 0.0818 0.6434 -0.2710
C43 C -0.1584(3) 0.3559(2) 0.03684(19)
C44 C -0.2558(4) 0.4074(2) 0.0029(2)
H34 H -0.2464 0.4627 0.0130
C45 C -0.3663(4) 0.3811(2) -0.0453(2)
H35 H -0.4314 0.4179 -0.0677
C46 C -0.3813(3) 0.3013(2) -0.0605(2)
C47 C -0.2867(4) 0.2478(2) -0.0271(2)
H36 H -0.2966 0.1926 -0.0377
C48 C -0.1779(3) 0.2751(2) 0.0217(2)
H37 H -0.1148 0.2380 0.0455
C49 C -0.5932(4) 0.3194(3) -0.1364(3)
H38 H -0.5536 0.3597 -0.1724
H39 H -0.6368 0.3455 -0.0899
H40 H -0.6629 0.2884 -0.1671
C50 C -0.0253(3) 0.3456(2) 0.17057(19)
C51 C -0.1332(3) 0.3435(2) 0.2255(2)
H41 H -0.2209 0.3652 0.2099
C52 C -0.1155(4) 0.3106(2) 0.3021(2)
H42 H -0.1904 0.3107 0.3390
C53 C 0.0103(4) 0.2774(2) 0.3261(2)
C54 C 0.1185(3) 0.2771(2) 0.2720(2)
H43 H 0.2051 0.2539 0.2874
C55 C 0.0997(3) 0.3110(2) 0.1953(2)
H44 H 0.1746 0.3106 0.1584
C56 C 0.1413(4) 0.2062(3) 0.4265(2)
H45 H 0.1600 0.1631 0.3879
H46 H 0.1315 0.1842 0.4817
H47 H 0.2185 0.2441 0.4266
C57 C 0.1494(3) 0.4785(2) 0.12241(19)
C58 C 0.1068(4) 0.5072(2) 0.1984(2)
H48 H 0.0131 0.5008 0.2140
C59 C 0.1998(4) 0.5446(2) 0.2506(2)
H49 H 0.1696 0.5636 0.3021
C60 C 0.3381(4) 0.5552(2) 0.2289(2)
C61 C 0.3800(4) 0.5277(2) 0.1527(2)
H50 H 0.4732 0.5347 0.1364
C62 C 0.2858(4) 0.4903(2) 0.1011(2)
H51 H 0.3154 0.4721 0.0492
C63 C 0.4276(4) 0.5989(2) 0.2858(2)
H52 H 0.3821 0.6198 0.3321
C64 C 0.5648(4) 0.6147(3) 0.2837(3)
C65 C 0.6268(5) 0.6635(3) 0.3468(3)
C66 C 0.6565(5) 0.5860(3) 0.2254(3)
loop_
_geom_bond_atom_site_label_1
_geom_bond_atom_site_label_2
_geom_bond_site_symmetry_1
_geom_bond_site_symmetry_2
O1 C6 1_555 1_555
O2 C13 1_555 1_555
O3 C20 1_555 1_555
N1 C32 1_555 1_555
N2 C33 1_555 1_555
C1 C2 1_555 1_555
C2 C17 1_555 1_555
C3 C1 1_555 1_555
C4 C3 1_555 1_555
H1 C4 1_555 1_555
C5 C4 1_555 1_555
H2 C5 1_555 1_555
C6 C5 1_555 1_555
C7 C6 1_555 1_555
H3 C7 1_555 1_555
C8 C3 1_555 1_555
H4 C8 1_555 1_555
C9 O1 1_555 1_555
H5 C9 1_555 1_555
H6 C9 1_555 1_555
H7 C9 1_555 1_555
C10 C1 1_555 1_555
C11 C10 1_555 1_555
H8 C11 1_555 1_555
C12 C11 1_555 1_555
H9 C12 1_555 1_555
C13 C12 1_555 1_555
C14 C13 1_555 1_555
H10 C14 1_555 1_555
C15 C10 1_555 1_555
H11 C15 1_555 1_555
C16 O2 1_555 1_555
H12 C16 1_555 1_555
H13 C16 1_555 1_555
H14 C16 1_555 1_555
C17 C18 1_555 1_555
C18 H15 1_555 1_555
C19 C18 1_555 1_555
H16 C19 1_555 1_555
C20 C19 1_555 1_555
C21 C20 1_555 1_555
H17 C21 1_555 1_555
C22 C17 1_555 1_555
H18 C22 1_555 1_555
C23 O3 1_555 1_555
H19 C23 1_555 1_555
H20 C23 1_555 1_555
H21 C23 1_555 1_555
C24 C2 1_555 1_555
C25 C24 1_555 1_555
H22 C25 1_555 1_555
C26 C25 1_555 1_555
H23 C26 1_555 1_555
C27 C26 1_555 1_555
C28 C27 1_555 1_555
H24 C28 1_555 1_555
C29 C24 1_555 1_555
H25 C29 1_555 1_555
C30 C27 1_555 1_555
H26 C30 1_555 1_555
C31 C30 1_555 1_555
C32 C31 1_555 1_555
C33 C31 1_555 1_555
O4 C46 1_555 1_555
O5 C53 1_555 1_555
O6 C39 1_555 1_555
N3 C65 1_555 1_555
N4 C66 1_555 1_555
C34 C35 1_555 1_555
C35 C43 1_555 1_555
C36 C34 1_555 1_555
C37 C36 1_555 1_555
H27 C37 1_555 1_555
C38 C37 1_555 1_555
H28 C38 1_555 1_555
C39 C38 1_555 1_555
C40 C39 1_555 1_555
H29 C40 1_555 1_555
C41 C36 1_555 1_555
H30 C41 1_555 1_555
C42 O6 1_555 1_555
H31 C42 1_555 1_555
H32 C42 1_555 1_555
H33 C42 1_555 1_555
C43 C44 1_555 1_555
C44 H34 1_555 1_555
C45 C44 1_555 1_555
H35 C45 1_555 1_555
C46 C45 1_555 1_555
C47 C46 1_555 1_555
H36 C47 1_555 1_555
C48 C43 1_555 1_555
H37 C48 1_555 1_555
C49 O4 1_555 1_555
H38 C49 1_555 1_555
H39 C49 1_555 1_555
H40 C49 1_555 1_555
C50 C35 1_555 1_555
C51 C50 1_555 1_555
H41 C51 1_555 1_555
C52 C51 1_555 1_555
H42 C52 1_555 1_555
C53 C52 1_555 1_555
C54 C53 1_555 1_555
H43 C54 1_555 1_555
C55 C50 1_555 1_555
H44 C55 1_555 1_555
C56 O5 1_555 1_555
H45 C56 1_555 1_555
H46 C56 1_555 1_555
H47 C56 1_555 1_555
C57 C34 1_555 1_555
C58 C57 1_555 1_555
H48 C58 1_555 1_555
C59 C58 1_555 1_555
H49 C59 1_555 1_555
C60 C59 1_555 1_555
C61 C60 1_555 1_555
H50 C61 1_555 1_555
C62 C57 1_555 1_555
H51 C62 1_555 1_555
C63 C60 1_555 1_555
H52 C63 1_555 1_555
C64 C63 1_555 1_555
C65 C64 1_555 1_555
C66 C64 1_555 1_555
C7 C8 1_555 1_555
C14 C15 1_555 1_555
C21 C22 1_555 1_555
C28 C29 1_555 1_555
C40 C41 1_555 1_555
C47 C48 1_555 1_555
C54 C55 1_555 1_555
C61 C62 1_555 1_555

#END
