
#######################################################################
#
#                 Cambridge Crystallographic Data Centre
#                                CCDC 
#
#######################################################################
#
# If this CIF has been generated from an entry in the Cambridge 
# Structural Database, then it will include bibliographic, chemical, 
# crystal, experimental, refinement or atomic coordinate data resulting 
# from the CCDC's data processing and validation procedures.
#
#######################################################################

data_DIBVIU
_chemical_formula_moiety         'C28 H14 N2 O8,2.5(C5 H5 N1)'
_chemical_name_systematic        
'2,7-bis(3-Carboxyphenyl)benzo(lmn)(3,8)phenanthroline-1,3,6,8(2H,7H)-tetrone bis(pyridine) pyridine solvate'
_symmetry_cell_setting           triclinic
_symmetry_space_group_name_H-M   'P -1'
_symmetry_Int_Tables_number      2
_space_group_name_Hall           '-P 1'
loop_
_symmetry_equiv_pos_site_id
_symmetry_equiv_pos_as_xyz
1 x,y,z
2 -x,-y,-z
_cell_length_a                   7.1569(14)
_cell_length_b                   8.1962(17)
_cell_length_c                   15.448(3)
_cell_angle_alpha                98.287(4)
_cell_angle_beta                 102.202(4)
_cell_angle_gamma                96.564(4)
_cell_volume                     866.576
_exptl_crystal_colour            colorless
_exptl_crystal_description       plate
_cell_formula_units_Z            1
loop_
_atom_site_label
_atom_site_type_symbol
_atom_site_fract_x
_atom_site_fract_y
_atom_site_fract_z
O1 O 0.0010(5) -0.1863(4) 0.9407(2)
H1 H 0.0960 -0.2083 0.9770
O2 O 0.2289(5) -0.0943(4) 0.8726(2)
O3 O -0.0116(5) 0.4480(4) 0.7649(2)
O4 O -0.2167(5) 0.0174(4) 0.5290(2)
N1 N -0.1153(6) 0.2332(5) 0.6469(3)
C1 C -0.0913(7) -0.0377(5) 0.8225(3)
C2 C -0.0366(7) 0.0591(5) 0.7624(3)
H2 H 0.0950 0.0787 0.7592
C3 C -0.1753(7) 0.1267(5) 0.7072(3)
C4 C -0.3678(7) 0.0989(6) 0.7107(3)
H3 H -0.4624 0.1446 0.6724
C5 C -0.4200(8) 0.0026(6) 0.7714(3)
H4 H -0.5517 -0.0179 0.7743
C6 C -0.2820(7) -0.0638(5) 0.8277(3)
H5 H -0.3190 -0.1272 0.8699
C7 C 0.0621(8) -0.1083(5) 0.8819(3)
C8 C -0.0365(7) 0.3995(6) 0.6843(3)
C9 C 0.0140(6) 0.5095(5) 0.6222(3)
C10 C 0.0909(7) 0.6743(6) 0.6553(3)
H6 H 0.1149 0.7158 0.7179
C11 C 0.1336(7) 0.7805(5) 0.5964(3)
H7 H 0.1856 0.8942 0.6195
C12 C 0.1014(7) 0.7231(5) 0.5060(3)
C13 C -0.1484(7) 0.1631(6) 0.5556(3)
C14 C -0.0215(7) 0.4464(5) 0.5292(3)
O1A O -0.0010(5) 1.1863(4) 0.0593(2)
H1A H -0.0960 1.2083 0.0230
O2A O -0.2289(5) 1.0943(4) 0.1274(2)
O3A O 0.0116(5) 0.5520(4) 0.2351(2)
O4A O 0.2167(5) 0.9826(4) 0.4710(2)
N1A N 0.1153(6) 0.7668(5) 0.3531(3)
C1A C 0.0913(7) 1.0377(5) 0.1775(3)
C2A C 0.0366(7) 0.9409(5) 0.2376(3)
H2A H -0.0950 0.9213 0.2408
C3A C 0.1753(7) 0.8733(5) 0.2928(3)
C4A C 0.3678(7) 0.9011(6) 0.2893(3)
H3A H 0.4624 0.8554 0.3276
C5A C 0.4200(8) 0.9974(6) 0.2286(3)
H4A H 0.5517 1.0179 0.2257
C6A C 0.2820(7) 1.0638(5) 0.1723(3)
H5A H 0.3190 1.1272 0.1301
C7A C -0.0621(8) 1.1083(5) 0.1181(3)
C8A C 0.0365(7) 0.6005(6) 0.3157(3)
C9A C -0.0140(6) 0.4905(5) 0.3778(3)
C10A C -0.0909(7) 0.3257(6) 0.3447(3)
H6A H -0.1149 0.2842 0.2821
C11A C -0.1336(7) 0.2195(5) 0.4036(3)
H7A H -0.1856 0.1058 0.3805
C12A C -0.1014(7) 0.2769(5) 0.4940(3)
C13A C 0.1484(7) 0.8369(6) 0.4444(3)
C14A C 0.0215(7) 0.5536(5) 0.4708(3)
N2 N 0.7236(6) 0.3044(5) 0.9642(3)
C15 C 0.7665(8) 0.4116(6) 0.9120(3)
H8 H 0.8984 0.4421 0.9116
C16 C 0.6288(8) 0.4804(6) 0.8585(3)
H9 H 0.6649 0.5551 0.8211
C17 C 0.4364(8) 0.4388(6) 0.8600(4)
H10 H 0.3386 0.4873 0.8253
C18 C 0.3896(8) 0.3249(6) 0.9131(4)
H11 H 0.2587 0.2914 0.9141
C19 C 0.5368(8) 0.2610(6) 0.9644(4)
H12 H 0.5049 0.1838 1.0013
N3? N 0.4337(9) 0.3585(7) 0.5266(5)
C20? C 0.5071(8) 0.4914(9) 0.5896(4)
C21? C 0.4257(8) 0.3596(8) 0.4389(5)
loop_
_geom_bond_atom_site_label_1
_geom_bond_atom_site_label_2
_geom_bond_site_symmetry_1
_geom_bond_site_symmetry_2
O1 H1 1_555 1_555
O2 C7 1_555 1_555
O3 C8 1_555 1_555
O4 C13 1_555 1_555
N1 C3 1_555 1_555
C1 C2 1_555 1_555
C2 H2 1_555 1_555
C3 C2 1_555 1_555
C4 C3 1_555 1_555
H3 C4 1_555 1_555
C5 C4 1_555 1_555
H4 C5 1_555 1_555
C6 C1 1_555 1_555
H5 C6 1_555 1_555
C7 O1 1_555 1_555
C8 N1 1_555 1_555
C9 C8 1_555 1_555
C10 C9 1_555 1_555
H6 C10 1_555 1_555
C11 C10 1_555 1_555
H7 C11 1_555 1_555
C12 C11 1_555 1_555
C13 N1 1_555 1_555
C14 C9 1_555 1_555
N2 C15 1_555 1_555
C15 H8 1_555 1_555
C16 C15 1_555 1_555
H9 C16 1_555 1_555
C17 C16 1_555 1_555
H10 C17 1_555 1_555
C18 C17 1_555 1_555
H11 C18 1_555 1_555
C19 N2 1_555 1_555
H12 C19 1_555 1_555
O1A H1A 1_555 1_555
O2A C7A 1_555 1_555
O3A C8A 1_555 1_555
O4A C13A 1_555 1_555
N1A C3A 1_555 1_555
C1A C2A 1_555 1_555
C2A H2A 1_555 1_555
C3A C2A 1_555 1_555
C4A C3A 1_555 1_555
H3A C4A 1_555 1_555
C5A C4A 1_555 1_555
H4A C5A 1_555 1_555
C6A C1A 1_555 1_555
H5A C6A 1_555 1_555
C7A O1A 1_555 1_555
C8A N1A 1_555 1_555
C9A C8A 1_555 1_555
C10A C9A 1_555 1_555
H6A C10A 1_555 1_555
C11A C10A 1_555 1_555
H7A C11A 1_555 1_555
C12A C13 1_555 1_555
C13A C12 1_555 1_555
C14A C12 1_555 1_555
C1 C7 1_555 1_555
C5 C6 1_555 1_555
C14 C12A 1_555 1_555
C14 C14A 1_555 1_555
C18 C19 1_555 1_555
N1A C13A 1_555 1_555
C1A C7A 1_555 1_555
C5A C6A 1_555 1_555
C9A C14A 1_555 1_555
C11A C12A 1_555 1_555

#END
