
#######################################################################
#
#                 Cambridge Crystallographic Data Centre
#                                CCDC 
#
#######################################################################
#
# If this CIF has been generated from an entry in the Cambridge 
# Structural Database, then it will include bibliographic, chemical, 
# crystal, experimental, refinement or atomic coordinate data resulting 
# from the CCDC's data processing and validation procedures.
#
#######################################################################

data_DIBYOE
_chemical_formula_moiety         'C16 H18 N16 O4 Sr1,H2 O1'
_chemical_name_systematic        
Tetra-aqua-(1,10-phenanthroline)-(3,6-bis(tetrazol-1-ato-5-ylamino)-1,2,4,5-tetrazine)-strontium
_symmetry_cell_setting           triclinic
_symmetry_space_group_name_H-M   'P -1'
_symmetry_Int_Tables_number      2
_space_group_name_Hall           '-P 1'
loop_
_symmetry_equiv_pos_site_id
_symmetry_equiv_pos_as_xyz
1 x,y,z
2 -x,-y,-z
_cell_length_a                   6.9305(14)
_cell_length_b                   10.296(2)
_cell_length_c                   17.171(4)
_cell_angle_alpha                86.264(4)
_cell_angle_beta                 87.143(4)
_cell_angle_gamma                71.531(3)
_cell_volume                     1159.13
_exptl_crystal_colour            red
_exptl_crystal_description       nubbly
_cell_formula_units_Z            2
loop_
_atom_site_label
_atom_site_type_symbol
_atom_site_fract_x
_atom_site_fract_y
_atom_site_fract_z
Sr1 Sr 0.98176(9) 0.58023(6) 0.24260(4)
N1 N 1.1126(8) 0.3441(6) 0.1613(3)
N2 N 0.9860(7) 0.3356(5) 0.3159(3)
N3 N 1.1509(8) 0.8401(6) 0.0189(3)
N4 N 1.2936(10) 0.7149(6) 0.0179(4)
N5 N 1.2759(11) 0.6439(6) 0.0817(4)
N6 N 1.1184(9) 0.7180(6) 0.1272(3)
N7 N 0.8979(8) 0.9511(5) 0.1101(3)
H1 H 0.8476 1.0140 0.0745
N8 N 0.8327(7) 0.8691(5) 0.2363(3)
N9 N 0.7568(7) 0.9002(5) 0.3082(3)
N10 N 0.6456(7) 1.1392(5) 0.2693(3)
N11 N 0.7280(7) 1.1067(5) 0.1989(3)
N12 N 0.5925(7) 1.0563(5) 0.3970(3)
H2 H 0.6118 0.9840 0.4275
N13 N 0.4428(8) 1.1769(5) 0.5068(3)
N14 N 0.3444(9) 1.3099(5) 0.5205(3)
N15 N 0.3395(8) 1.3847(5) 0.4560(3)
N16 N 0.4327(8) 1.3041(5) 0.3968(3)
C1 C 1.1684(13) 0.3437(10) 0.0859(4)
H3 H 1.1405 0.4281 0.0584
C2 C 1.2643(16) 0.2282(13) 0.0453(5)
H4 H 1.2961 0.2347 -0.0078
C3 C 1.3108(13) 0.1043(12) 0.0856(6)
H5 H 1.3795 0.0247 0.0604
C4 C 1.2551(10) 0.0965(8) 0.1653(5)
C5 C 1.3008(11) -0.0304(9) 0.2105(6)
H6 H 1.3711 -0.1114 0.1868
C6 C 1.2445(12) -0.0357(7) 0.2864(6)
H7 H 1.2768 -0.1199 0.3144
C7 C 1.1348(9) 0.0875(6) 0.3249(4)
C8 C 1.0709(11) 0.0893(8) 0.4037(4)
H8 H 1.1035 0.0078 0.4343
C9 C 0.9621(11) 0.2084(8) 0.4356(4)
H9 H 0.9141 0.2089 0.4872
C10 C 0.9235(10) 0.3295(7) 0.3900(4)
H10 H 0.8499 0.4109 0.4125
C11 C 1.0888(9) 0.2161(6) 0.2824(4)
C12 C 1.1547(9) 0.2193(7) 0.2011(4)
C13 C 1.0504(9) 0.8372(6) 0.0866(3)
C14 C 0.8178(9) 0.9750(6) 0.1843(3)
C15 C 0.6655(8) 1.0329(6) 0.3221(3)
C16 C 0.4927(8) 1.1777(6) 0.4309(3)
O1 O 0.7185(9) 0.6019(8) 0.1409(4)
H11 H 0.5981 0.6187 0.1541
H12 H 0.7540 0.5922 0.0948
O2 O 1.3736(6) 0.4755(4) 0.2625(2)
H13 H 1.4327 0.4498 0.2197
H14 H 1.3915 0.4139 0.2984
O3 O 1.0555(7) 0.6254(4) 0.3826(3)
H15 H 1.0223 0.7121 0.3975
H16 H 1.1141 0.5549 0.4164
O4 O 0.6223(7) 0.6342(5) 0.3113(3)
H17 H 0.6068 0.6643 0.3550
H18 H 0.5523 0.5898 0.2970
O5 O 0.6113(10) 0.3851(7) 0.1280(4)
H19 H 0.6351 0.3196 0.1617
H20 H 0.5631 0.4007 0.0832
loop_
_geom_bond_atom_site_label_1
_geom_bond_atom_site_label_2
_geom_bond_site_symmetry_1
_geom_bond_site_symmetry_2
Sr1 N1 1_555 1_555
N1 C1 1_555 1_555
N2 Sr1 1_555 1_555
N3 N4 1_555 1_555
N4 N5 1_555 1_555
N5 N6 1_555 1_555
N6 Sr1 1_555 1_555
N7 H1 1_555 1_555
N8 Sr1 1_555 1_555
N9 N8 1_555 1_555
N10 N11 1_555 1_555
N11 C14 1_555 1_555
N12 H2 1_555 1_555
N13 N14 1_555 1_555
N14 N15 1_555 1_555
N15 N16 1_555 1_555
N16 C16 1_555 1_555
C1 H3 1_555 1_555
C2 C1 1_555 1_555
H4 C2 1_555 1_555
C3 C2 1_555 1_555
H5 C3 1_555 1_555
C4 C3 1_555 1_555
C5 C4 1_555 1_555
H6 C5 1_555 1_555
C6 C5 1_555 1_555
H7 C6 1_555 1_555
C7 C6 1_555 1_555
C8 C7 1_555 1_555
H8 C8 1_555 1_555
C9 C8 1_555 1_555
H9 C9 1_555 1_555
C10 N2 1_555 1_555
H10 C10 1_555 1_555
C11 N2 1_555 1_555
C12 N1 1_555 1_555
C13 N3 1_555 1_555
C14 N7 1_555 1_555
C15 N9 1_555 1_555
C16 N12 1_555 1_555
O1 Sr1 1_555 1_555
H11 O1 1_555 1_555
H12 O1 1_555 1_555
O2 Sr1 1_555 1_555
H13 O2 1_555 1_555
H14 O2 1_555 1_555
O3 Sr1 1_555 1_555
H15 O3 1_555 1_555
H16 O3 1_555 1_555
O4 Sr1 1_555 1_555
H17 O4 1_555 1_555
H18 O4 1_555 1_555
O5 H19 1_555 1_555
H20 O5 1_555 1_555
N6 C13 1_555 1_555
N7 C13 1_555 1_555
N8 C14 1_555 1_555
N10 C15 1_555 1_555
N12 C15 1_555 1_555
N13 C16 1_555 1_555
C4 C12 1_555 1_555
C7 C11 1_555 1_555
C9 C10 1_555 1_555
C11 C12 1_555 1_555

#END
