
#######################################################################
#
#                 Cambridge Crystallographic Data Centre
#                                CCDC 
#
#######################################################################
#
# If this CIF has been generated from an entry in the Cambridge 
# Structural Database, then it will include bibliographic, chemical, 
# crystal, experimental, refinement or atomic coordinate data resulting 
# from the CCDC's data processing and validation procedures.
#
#######################################################################

data_DICCID
_chemical_formula_moiety         'C40 H42 O2,C4 H8 O2'
_chemical_name_systematic        
"6,6'-bis(adamantan-1-yl)-1,1'-binaphthalene-2,2'-diol ethyl acetate solvate"
_symmetry_cell_setting           orthorhombic
_symmetry_space_group_name_H-M   'P 21 21 2'
_symmetry_Int_Tables_number      18
_space_group_name_Hall           'P 2 2ab'
loop_
_symmetry_equiv_pos_site_id
_symmetry_equiv_pos_as_xyz
1 x,y,z
2 -x,-y,z
3 1/2-x,1/2+y,-z
4 1/2+x,1/2-y,-z
_cell_length_a                   16.244(3)
_cell_length_b                   32.064(5)
_cell_length_c                   6.7023(10)
_cell_angle_alpha                90
_cell_angle_beta                 90
_cell_angle_gamma                90
_cell_volume                     3490.88
_exptl_crystal_colour            colorless
_exptl_crystal_description       Prism
_cell_formula_units_Z            4
loop_
_atom_site_label
_atom_site_type_symbol
_atom_site_fract_x
_atom_site_fract_y
_atom_site_fract_z
O1 O 0.73265(13) 0.32762(7) 0.4805(3)
O2 O 0.72418(17) 0.33543(7) -0.1060(4)
C1 C 0.66863(17) 0.35140(9) 0.4094(4)
C2 C 0.64902(19) 0.38658(9) 0.5269(5)
H1 H 0.6802 0.3926 0.6433
C3 C 0.58543(18) 0.41182(9) 0.4736(5)
H2 H 0.5715 0.4350 0.5550
C4 C 0.53972(17) 0.40378(8) 0.2974(5)
C5 C 0.47462(17) 0.43045(9) 0.2404(5)
H3 H 0.4621 0.4538 0.3224
C6 C 0.42856(18) 0.42403(9) 0.0710(5)
C7 C 0.44964(19) 0.38858(9) -0.0468(5)
H4 H 0.4191 0.3832 -0.1649
C8 C 0.51263(18) 0.36191(9) 0.0042(5)
H5 H 0.5244 0.3386 -0.0787
C9 C 0.56014(17) 0.36866(8) 0.1783(5)
C10 C 0.62553(17) 0.34147(8) 0.2395(4)
C11 C 0.64195(17) 0.30113(8) 0.1335(4)
C12 C 0.60971(16) 0.26301(8) 0.2131(4)
C13 C 0.56302(19) 0.26147(9) 0.3908(5)
H6 H 0.5519 0.2866 0.4611
C14 C 0.53344(19) 0.22448(9) 0.4637(5)
H7 H 0.5017 0.2248 0.5828
C15 C 0.54832(18) 0.18593(9) 0.3682(5)
C16 C 0.59349(19) 0.18707(9) 0.1946(5)
H8 H 0.6041 0.1616 0.1265
C17 C 0.62471(18) 0.22453(9) 0.1138(5)
C18 C 0.6708(2) 0.22523(9) -0.0669(5)
H9 H 0.6801 0.1999 -0.1372
C19 C 0.7015(2) 0.26137(10) -0.1400(5)
H10 H 0.7319 0.2612 -0.2611
C20 C 0.68873(18) 0.29934(9) -0.0375(4)
C21 C 0.35847(17) 0.45280(9) 0.0111(5)
C22 C 0.3762(2) 0.47213(11) -0.1952(5)
H11 H 0.3827 0.4496 -0.2950
H12 H 0.4283 0.4881 -0.1897
C23 C 0.2772(2) 0.42871(10) 0.0007(6)
H13 H 0.2644 0.4167 0.1333
H14 H 0.2825 0.4055 -0.0956
C24 C 0.3473(2) 0.48901(10) 0.1613(5)
H15 H 0.3993 0.5050 0.1707
H16 H 0.3350 0.4775 0.2950
C25 C 0.3047(2) 0.50169(11) -0.2606(5)
H17 H 0.3165 0.5138 -0.3952
C26 C 0.2275(2) 0.47527(11) -0.2682(5)
H18 H 0.1811 0.4924 -0.3184
H19 H 0.2359 0.4519 -0.3624
C27 C 0.2058(2) 0.45813(12) -0.0655(6)
H20 H 0.1530 0.4422 -0.0730
C28 C 0.1986(2) 0.49266(13) 0.0879(6)
H21 H 0.1513 0.5108 0.0537
H22 H 0.1880 0.4803 0.2208
C29 C 0.2764(2) 0.51868(11) 0.0965(5)
H23 H 0.2700 0.5419 0.1947
C30 C 0.2984(3) 0.53579(11) -0.1082(5)
H24 H 0.2559 0.5561 -0.1506
H25 H 0.3517 0.5507 -0.1001
C31 C 0.51388(17) 0.14495(9) 0.4496(5)
C32 C 0.5793(4) 0.1109(2) 0.4695(14)
H26 H 0.6228 0.1205 0.5621
H27 H 0.6050 0.1060 0.3377
C33 C 0.4639(5) 0.14749(19) 0.6450(12)
H28 H 0.4163 0.1661 0.6223
H29 H 0.4989 0.1607 0.7481
C34 C 0.4519(4) 0.1267(2) 0.2985(10)
H30 H 0.4794 0.1244 0.1671
H31 H 0.4056 0.1466 0.2836
C35 C 0.5433(7) 0.0698(4) 0.5469(19)
H32 H 0.5895 0.0495 0.5648
C36 C 0.5009(7) 0.0751(4) 0.7446(18)
H33 H 0.4805 0.0477 0.7913
H34 H 0.5410 0.0856 0.8440
C37 C 0.4308(10) 0.1048(7) 0.730(5)
H35 H 0.4010 0.1082 0.8600
C38 C 0.3709(5) 0.0887(3) 0.5521(18)
H36 H 0.3460 0.0617 0.5913
H37 H 0.3257 0.1090 0.5336
C39 C 0.4163(6) 0.0832(3) 0.3556(14)
H38 H 0.3782 0.0727 0.2496
C40 C 0.4871(8) 0.0533(3) 0.3866(15)
H39 H 0.4657 0.0256 0.4260
H40 H 0.5182 0.0500 0.2604
H41 H 0.745(2) 0.3082(13) 0.397(6)
H42 H 0.737(3) 0.3292(15) -0.210(8)
O3 O 0.8157(8) 0.2565(3) 0.3635(14)
O4 O 0.8926(6) 0.19962(17) 0.3189(9)
C50 C 0.8950(11) 0.2504(4) 0.0695(18)
H58 H 0.8913 0.2808 0.0594
H59 H 0.8624 0.2376 -0.0374
H60 H 0.9526 0.2417 0.0567
C51 C 0.8629(5) 0.2369(2) 0.2636(13)
C52 C 0.8717(5) 0.1849(3) 0.5201(9)
H61 H 0.8666 0.2088 0.6126
H62 H 0.9153 0.1661 0.5707
C53 C 0.7916(5) 0.1621(4) 0.507(2)
H63 H 0.7980 0.1377 0.4195
H64 H 0.7494 0.1807 0.4514
H65 H 0.7748 0.1529 0.6400
C41? C 0.5575(7) 0.1085(3) 0.355(2)
H43? H 0.6178 0.1114 0.3726
H44? H 0.5456 0.1077 0.2100
C42? C 0.5334(11) 0.1453(3) 0.6766(14)
H45? H 0.5937 0.1449 0.6986
H46? H 0.5104 0.1706 0.7399
C43? C 0.4222(3) 0.1431(3) 0.407(2)
H47? H 0.3939 0.1673 0.4680
H48? H 0.4120 0.1435 0.2616
C44? C 0.5268(8) 0.0669(4) 0.457(3)
H49? H 0.5558 0.0420 0.4011
C45? C 0.5335(11) 0.0686(5) 0.684(3)
H50? H 0.5075 0.0434 0.7416
H51? H 0.5923 0.0685 0.7226
C46? C 0.4937(13) 0.1059(4) 0.7665(15)
H52? H 0.4977 0.1062 0.9154
C47? C 0.4041(16) 0.1041(8) 0.700(5)
H53? H 0.3787 0.0788 0.7584
H54? H 0.3750 0.1285 0.7556
C48? C 0.3909(6) 0.1033(3) 0.496(3)
H55? H 0.3305 0.1008 0.4699
C49? C 0.4343(8) 0.0653(3) 0.414(2)
H56? H 0.4252 0.0637 0.2684
H57? H 0.4107 0.0399 0.4756
O5? O 0.8233(9) 0.2675(3) 0.3033(18)
O6? O 0.8497(5) 0.1996(2) 0.2845(11)
C54? C 0.9062(10) 0.2428(4) 0.0382(18)
H66? H 0.9620 0.2517 0.0745
H67? H 0.8816 0.2634 -0.0514
H68? H 0.9088 0.2157 -0.0293
C55? C 0.8560(5) 0.2391(2) 0.2188(13)
C56? C 0.8130(6) 0.1952(3) 0.4842(13)
H69? H 0.7524 0.1980 0.4760
H70? H 0.8342 0.2172 0.5740
C57? C 0.8354(9) 0.1532(3) 0.5631(19)
H71? H 0.8950 0.1491 0.5512
H72? H 0.8067 0.1316 0.4862
H73? H 0.8193 0.1512 0.7037
loop_
_geom_bond_atom_site_label_1
_geom_bond_atom_site_label_2
_geom_bond_site_symmetry_1
_geom_bond_site_symmetry_2
O1 C1 1_555 1_555
O2 C20 1_555 1_555
C1 C2 1_555 1_555
C2 H1 1_555 1_555
C3 C2 1_555 1_555
H2 C3 1_555 1_555
C4 C3 1_555 1_555
C5 C4 1_555 1_555
H3 C5 1_555 1_555
C6 C5 1_555 1_555
C7 C6 1_555 1_555
H4 C7 1_555 1_555
C8 C7 1_555 1_555
H5 C8 1_555 1_555
C9 C4 1_555 1_555
C10 C1 1_555 1_555
C11 C10 1_555 1_555
C12 C11 1_555 1_555
C13 C12 1_555 1_555
H6 C13 1_555 1_555
C14 C13 1_555 1_555
H7 C14 1_555 1_555
C15 C14 1_555 1_555
C16 C15 1_555 1_555
H8 C16 1_555 1_555
C17 C12 1_555 1_555
C18 C17 1_555 1_555
H9 C18 1_555 1_555
C19 C18 1_555 1_555
H10 C19 1_555 1_555
C20 C11 1_555 1_555
C21 C6 1_555 1_555
C22 C21 1_555 1_555
H11 C22 1_555 1_555
H12 C22 1_555 1_555
C23 C21 1_555 1_555
H13 C23 1_555 1_555
H14 C23 1_555 1_555
C24 C21 1_555 1_555
H15 C24 1_555 1_555
H16 C24 1_555 1_555
C25 C22 1_555 1_555
H17 C25 1_555 1_555
C26 C25 1_555 1_555
H18 C26 1_555 1_555
H19 C26 1_555 1_555
C27 C23 1_555 1_555
H20 C27 1_555 1_555
C28 C27 1_555 1_555
H21 C28 1_555 1_555
H22 C28 1_555 1_555
C29 C24 1_555 1_555
H23 C29 1_555 1_555
C30 C25 1_555 1_555
H24 C30 1_555 1_555
H25 C30 1_555 1_555
C31 C15 1_555 1_555
C32 C31 1_555 1_555
H26 C32 1_555 1_555
H27 C32 1_555 1_555
C33 C31 1_555 1_555
H28 C33 1_555 1_555
H29 C33 1_555 1_555
C34 C31 1_555 1_555
H30 C34 1_555 1_555
H31 C34 1_555 1_555
C35 C32 1_555 1_555
H32 C35 1_555 1_555
C36 C35 1_555 1_555
H33 C36 1_555 1_555
H34 C36 1_555 1_555
C37 C33 1_555 1_555
H35 C37 1_555 1_555
C38 C37 1_555 1_555
H36 C38 1_555 1_555
H37 C38 1_555 1_555
C39 C34 1_555 1_555
H38 C39 1_555 1_555
C40 C35 1_555 1_555
H39 C40 1_555 1_555
H40 C40 1_555 1_555
H41 O1 1_555 1_555
H42 O2 1_555 1_555
O3 C51 1_555 1_555
O4 C51 1_555 1_555
C50 H58 1_555 1_555
H59 C50 1_555 1_555
H60 C50 1_555 1_555
C51 C50 1_555 1_555
C52 O4 1_555 1_555
H61 C52 1_555 1_555
H62 C52 1_555 1_555
C53 C52 1_555 1_555
H63 C53 1_555 1_555
H64 C53 1_555 1_555
H65 C53 1_555 1_555
C8 C9 1_555 1_555
C9 C10 1_555 1_555
C16 C17 1_555 1_555
C19 C20 1_555 1_555
C26 C27 1_555 1_555
C28 C29 1_555 1_555
C29 C30 1_555 1_555
C36 C37 1_555 1_555
C38 C39 1_555 1_555
C39 C40 1_555 1_555

#END
