
#######################################################################
#
#                 Cambridge Crystallographic Data Centre
#                                CCDC 
#
#######################################################################
#
# If this CIF has been generated from an entry in the Cambridge 
# Structural Database, then it will include bibliographic, chemical, 
# crystal, experimental, refinement or atomic coordinate data resulting 
# from the CCDC's data processing and validation procedures.
#
#######################################################################

data_DICCEX
_chemical_formula_moiety         'C6 H8 N1 1+,Cl1 1-'
_chemical_name_systematic        '4-Methylpyridinium chloride'
_symmetry_cell_setting           monoclinic
_symmetry_space_group_name_H-M   'C 2/c'
_symmetry_Int_Tables_number      15
_space_group_name_Hall           '-C 2yn'
loop_
_symmetry_equiv_pos_site_id
_symmetry_equiv_pos_as_xyz
1 x,y,z
2 1/2+x,1/2+y,z
3 -x,y,1/2-z
4 1/2-x,1/2+y,1/2-z
5 -x,-y,-z
6 1/2-x,1/2-y,-z
7 x,-y,1/2+z
8 1/2+x,1/2-y,1/2+z
_cell_length_a                   7.8759(2)
_cell_length_b                   13.4002(3)
_cell_length_c                   7.2779(1)
_cell_angle_alpha                90
_cell_angle_beta                 110.632(1)
_cell_angle_gamma                90
_cell_volume                     718.836
_exptl_crystal_colour            colorless
_exptl_crystal_description       plate
_cell_formula_units_Z            4
_chemical_properties_physical    'air- and moisture-sensitive'
loop_
_atom_site_label
_atom_site_type_symbol
_atom_site_fract_x
_atom_site_fract_y
_atom_site_fract_z
Cl1 Cl 0.5000 0.17188(4) 0.2500
N1 N 0.5000 0.39569(14) 0.2500
H1 H 0.5000 0.331(2) 0.2500
C1 C 0.3512(2) 0.44369(12) 0.1368(2)
H2 H 0.2482 0.4071 0.0575
C2 C 0.3477(2) 0.54652(12) 0.1356(2)
H3 H 0.2416 0.5809 0.0567
C3 C 0.5000 0.60008(15) 0.2500
C4 C 0.5000 0.71249(18) 0.2500
C2B C 0.6523(2) 0.54652(12) 0.3644(2)
C1B C 0.6488(2) 0.44369(12) 0.3632(2)
H2B H 0.7518 0.4071 0.4425
H3B H 0.7584 0.5809 0.4433
H4? H 0.4996 0.7369 0.1229
H5? H 0.6087 0.7369 0.3546
H6? H 0.3916 0.7369 0.2725
loop_
_geom_bond_atom_site_label_1
_geom_bond_atom_site_label_2
_geom_bond_site_symmetry_1
_geom_bond_site_symmetry_2
N1 H1 1_555 1_555
C1 N1 1_555 1_555
H2 C1 1_555 1_555
C2 C1 1_555 1_555
H3 C2 1_555 1_555
C3 C2 1_555 1_555
C4 C3 1_555 1_555
C2B C3 1_555 1_555
C1B N1 1_555 1_555
H2B C1B 1_555 1_555
H3B C2B 1_555 1_555
C2B C1B 1_555 1_555

#END
