
#######################################################################
#
#                 Cambridge Crystallographic Data Centre
#                                CCDC 
#
#######################################################################
#
# If this CIF has been generated from an entry in the Cambridge 
# Structural Database, then it will include bibliographic, chemical, 
# crystal, experimental, refinement or atomic coordinate data resulting 
# from the CCDC's data processing and validation procedures.
#
#######################################################################

data_DICCEX01
_chemical_name_common            'gamma-Picolinium chloride'
_chemical_formula_moiety         'C6 H8 N1 1+,Cl1 1-'
_chemical_name_systematic        '4-Methylpyridinium chloride'
_symmetry_cell_setting           monoclinic
_symmetry_space_group_name_H-M   'C m'
_symmetry_Int_Tables_number      8
_space_group_name_Hall           'C -2y'
loop_
_symmetry_equiv_pos_site_id
_symmetry_equiv_pos_as_xyz
1 x,y,z
2 x,-y,z
3 1/2+x,1/2+y,z
4 1/2+x,1/2-y,z
_cell_length_a                   8.579(5)
_cell_length_b                   7.977(5)
_cell_length_c                   4.791(3)
_cell_angle_alpha                90
_cell_angle_beta                 103.65(3)
_cell_angle_gamma                90
_cell_volume                     318.61
_exptl_crystal_colour            colorless
_cell_formula_units_Z            2
loop_
_atom_site_label
_atom_site_type_symbol
_atom_site_fract_x
_atom_site_fract_y
_atom_site_fract_z
Cl1 Cl 0.7681 0.5000 0.0000
N1 N 0.4984(2) 0.5000 0.2986(4)
H1 H 0.579(4) 0.5000 0.216(7)
C1 C 0.4455(2) 0.35300(18) 0.3771(4)
H2 H 0.480(3) 0.257(3) 0.308(5)
C2 C 0.33280(19) 0.34935(19) 0.5400(3)
H3 H 0.304(3) 0.243(3) 0.601(5)
C3 C 0.2733(3) 0.5000 0.6234(4)
C4 C 0.1447(3) 0.5000 0.7881(5)
H4 H 0.152(4) 0.408(4) 0.908(6)
H5 H 0.046(6) 0.5000 0.663(9)
C2A C 0.33280(19) 0.65065(19) 0.5400(3)
C1A C 0.4455(2) 0.64700(18) 0.3771(4)
H2A H 0.480(3) 0.743(3) 0.308(5)
H3A H 0.304(3) 0.757(3) 0.601(5)
H4A H 0.152(4) 0.592(4) 0.908(6)
loop_
_geom_bond_atom_site_label_1
_geom_bond_atom_site_label_2
_geom_bond_site_symmetry_1
_geom_bond_site_symmetry_2
N1 H1 1_555 1_555
C1 N1 1_555 1_555
H2 C1 1_555 1_555
C2 C1 1_555 1_555
H3 C2 1_555 1_555
C3 C2 1_555 1_555
C4 C3 1_555 1_555
H4 C4 1_555 1_555
H5 C4 1_555 1_555
C2A C3 1_555 1_555
C1A N1 1_555 1_555
H2A C1A 1_555 1_555
H3A C2A 1_555 1_555
H4A C4 1_555 1_555
C2A C1A 1_555 1_555

#END
