
#######################################################################
#
#                 Cambridge Crystallographic Data Centre
#                                CCDC 
#
#######################################################################
#
# If this CIF has been generated from an entry in the Cambridge 
# Structural Database, then it will include bibliographic, chemical, 
# crystal, experimental, refinement or atomic coordinate data resulting 
# from the CCDC's data processing and validation procedures.
#
#######################################################################

data_DICHAZ
_chemical_formula_moiety         'C15 H21 N1 O2'
_chemical_name_systematic        
't-Butyl rel-(2S,3R)-3-(2-phenylethyl)-2-aziridinecarboxylate'
_symmetry_cell_setting           monoclinic
_symmetry_space_group_name_H-M   'P 21/c'
_symmetry_Int_Tables_number      14
_space_group_name_Hall           '-P 2ybc'
loop_
_symmetry_equiv_pos_site_id
_symmetry_equiv_pos_as_xyz
1 x,y,z
2 -x,1/2+y,1/2-z
3 -x,-y,-z
4 x,1/2-y,1/2+z
_cell_length_a                   10.021(10)
_cell_length_b                   5.522(3)
_cell_length_c                   26.62(3)
_cell_angle_alpha                90
_cell_angle_beta                 101.39(6)
_cell_angle_gamma                90
_cell_volume                     1444.03
_exptl_crystal_colour            colorless
_exptl_crystal_description       lath
_cell_formula_units_Z            4
_exptl_crystal_recrystallization_method dichloromethane/heptane
loop_
_atom_site_label
_atom_site_type_symbol
_atom_site_fract_x
_atom_site_fract_y
_atom_site_fract_z
N1 N 0.4299(2) 0.3481(4) 0.23392(8)
C1 C 0.3457(3) 0.2915(4) 0.18290(8)
H1 H 0.3523 0.1236 0.1695
C2 C 0.2823(3) 0.3190(5) 0.22879(9)
H2 H 0.2297 0.4718 0.2304
C3 C 0.2358(3) 0.1029(5) 0.25545(9)
H3 H 0.2906 -0.0410 0.2504
H4 H 0.1391 0.0674 0.2408
C4 C 0.2527(4) 0.1579(6) 0.31268(11)
H5 H 0.3494 0.1975 0.3264
H6 H 0.1981 0.3032 0.3169
C5 C 0.2107(3) -0.0459(5) 0.34426(10)
C6 C 0.3070(3) -0.2016(6) 0.37197(10)
H7 H 0.4004 -0.1803 0.3708
C7 C 0.2689(3) -0.3885(5) 0.40143(10)
H8 H 0.3361 -0.4918 0.4206
C8 C 0.1340(3) -0.4224(5) 0.40268(10)
H9 H 0.1072 -0.5502 0.4225
C9 C 0.0375(3) -0.2704(6) 0.37512(11)
H10 H -0.0560 -0.2944 0.3758
C10 C 0.0757(3) -0.0830(6) 0.34648(12)
H11 H 0.0080 0.0217 0.3281
C11 C 0.3218(3) 0.4904(4) 0.14461(8)
O1 O 0.30261(18) 0.4006(3) 0.09693(6)
C12 C 0.2763(3) 0.5637(4) 0.05163(8)
C13 C 0.3993(3) 0.7248(6) 0.05198(11)
H12 H 0.4065 0.8429 0.0799
H13 H 0.3889 0.8104 0.0192
H14 H 0.4818 0.6253 0.0571
C14 C 0.1466(3) 0.7075(6) 0.05061(11)
H15 H 0.0732 0.5973 0.0551
H16 H 0.1210 0.7911 0.0176
H17 H 0.1618 0.8269 0.0784
C15 C 0.2577(4) 0.3839(5) 0.00755(10)
H18 H 0.3415 0.2900 0.0094
H19 H 0.2373 0.4717 -0.0251
H20 H 0.1823 0.2742 0.0099
O2 O 0.3215(2) 0.7038(3) 0.15527(7)
H21 H 0.465(3) 0.521(6) 0.2401(12)
loop_
_geom_bond_atom_site_label_1
_geom_bond_atom_site_label_2
_geom_bond_site_symmetry_1
_geom_bond_site_symmetry_2
N1 C1 1_555 1_555
C1 H1 1_555 1_555
C2 N1 1_555 1_555
H2 C2 1_555 1_555
C3 C2 1_555 1_555
H3 C3 1_555 1_555
H4 C3 1_555 1_555
C4 C3 1_555 1_555
H5 C4 1_555 1_555
H6 C4 1_555 1_555
C5 C4 1_555 1_555
C6 C5 1_555 1_555
H7 C6 1_555 1_555
C7 C6 1_555 1_555
H8 C7 1_555 1_555
C8 C7 1_555 1_555
H9 C8 1_555 1_555
C9 C8 1_555 1_555
H10 C9 1_555 1_555
C10 C5 1_555 1_555
H11 C10 1_555 1_555
C11 C1 1_555 1_555
O1 C11 1_555 1_555
C12 O1 1_555 1_555
C13 C12 1_555 1_555
H12 C13 1_555 1_555
H13 C13 1_555 1_555
H14 C13 1_555 1_555
C14 C12 1_555 1_555
H15 C14 1_555 1_555
H16 C14 1_555 1_555
H17 C14 1_555 1_555
C15 C12 1_555 1_555
H18 C15 1_555 1_555
H19 C15 1_555 1_555
H20 C15 1_555 1_555
O2 C11 1_555 1_555
H21 N1 1_555 1_555
C1 C2 1_555 1_555
C9 C10 1_555 1_555

#END
