
#######################################################################
#
#                 Cambridge Crystallographic Data Centre
#                                CCDC 
#
#######################################################################
#
# If this CIF has been generated from an entry in the Cambridge 
# Structural Database, then it will include bibliographic, chemical, 
# crystal, experimental, refinement or atomic coordinate data resulting 
# from the CCDC's data processing and validation procedures.
#
#######################################################################

data_DICJOP
_chemical_formula_moiety         'C13 H9 B1 F2 N2 S1'
_chemical_name_systematic        N,N'-Difluoroboryl-5-(2-thienyl)dipyrrin
_symmetry_cell_setting           orthorhombic
_symmetry_space_group_name_H-M   'P 21 21 21'
_symmetry_Int_Tables_number      19
_space_group_name_Hall           'P 2ac 2ab'
loop_
_symmetry_equiv_pos_site_id
_symmetry_equiv_pos_as_xyz
1 x,y,z
2 1/2-x,-y,1/2+z
3 -x,1/2+y,1/2-z
4 1/2+x,1/2-y,-z
_cell_length_a                   10.684(10)
_cell_length_b                   15.208(13)
_cell_length_c                   7.256(6)
_cell_angle_alpha                90
_cell_angle_beta                 90
_cell_angle_gamma                90
_cell_volume                     1178.97
_exptl_crystal_colour            orange
_exptl_crystal_description       needle
_cell_formula_units_Z            4
_exptl_crystal_recrystallization_method chloroform
_exptl_crystal_preparation       fluorescent
loop_
_atom_site_label
_atom_site_type_symbol
_atom_site_fract_x
_atom_site_fract_y
_atom_site_fract_z
B1 B 0.0671(3) 0.38930(18) 0.7416(4)
F1 F -0.02357(13) 0.39521(9) 0.6042(2)
F2 F 0.00757(12) 0.37589(9) 0.9101(2)
N1 N 0.14658(17) 0.47353(13) 0.7471(3)
C1 C 0.1044(2) 0.55672(16) 0.7531(4)
H1 H 0.009(2) 0.5669(15) 0.742(4)
C2 C 0.2030(2) 0.61592(16) 0.7757(4)
H2 H 0.1941(18) 0.6856(14) 0.785(3)
C3 C 0.3107(3) 0.56615(16) 0.7883(4)
H3 H 0.399(2) 0.5876(15) 0.819(3)
C4 C 0.2773(2) 0.47709(16) 0.7681(3)
C5 C 0.3467(2) 0.39923(15) 0.7618(3)
N2 N 0.15883(18) 0.31415(13) 0.7004(3)
C6 C 0.2892(2) 0.31801(16) 0.7246(3)
C7 C 0.3377(3) 0.23564(17) 0.6755(4)
H4 H 0.425(3) 0.2158(14) 0.674(3)
C8 C 0.2388(3) 0.18274(19) 0.6218(4)
H5 H 0.246(2) 0.1245(16) 0.574(3)
C9 C 0.1310(3) 0.23278(18) 0.6396(4)
H6 H 0.041(2) 0.2199(15) 0.602(4)
C10 C 0.4831(3) 0.40062(17) 0.7884(4)
C11 C 0.5681(11) 0.4696(8) 0.7115(15)
H7 H 0.5430 0.5172 0.6400
C12 C 0.6927(6) 0.4509(4) 0.7646(9)
H8 H 0.7611 0.4854 0.7321
C13 C 0.7012(7) 0.3772(5) 0.8679(10)
H9 H 0.7767 0.3562 0.9144
S1 S 0.56127(19) 0.32593(14) 0.9056(3)
C14? C 0.5536(15) 0.3278(12) 0.895(2)
H10? H 0.5179 0.2773 0.9442
C15? C 0.6809(8) 0.3512(5) 0.9045(11)
H11? H 0.7406 0.3187 0.9682
C16? C 0.7075(9) 0.4267(5) 0.8102(11)
H12? H 0.7879 0.4496 0.7999
S2? S 0.5792(3) 0.47523(15) 0.7130(5)
loop_
_geom_bond_atom_site_label_1
_geom_bond_atom_site_label_2
_geom_bond_site_symmetry_1
_geom_bond_site_symmetry_2
B1 F1 1_555 1_555
F2 B1 1_555 1_555
N1 B1 1_555 1_555
C1 N1 1_555 1_555
H1 C1 1_555 1_555
C2 C1 1_555 1_555
H2 C2 1_555 1_555
C3 C2 1_555 1_555
H3 C3 1_555 1_555
C4 N1 1_555 1_555
C5 C4 1_555 1_555
N2 B1 1_555 1_555
C6 C5 1_555 1_555
C7 C6 1_555 1_555
H4 C7 1_555 1_555
C8 C7 1_555 1_555
H5 C8 1_555 1_555
C9 N2 1_555 1_555
H6 C9 1_555 1_555
C10 C5 1_555 1_555
C11 C10 1_555 1_555
H7 C11 1_555 1_555
C12 C11 1_555 1_555
H8 C12 1_555 1_555
C13 C12 1_555 1_555
H9 C13 1_555 1_555
S1 C10 1_555 1_555
C3 C4 1_555 1_555
N2 C6 1_555 1_555
C8 C9 1_555 1_555
C13 S1 1_555 1_555

#END
