
#######################################################################
#
#                 Cambridge Crystallographic Data Centre
#                                CCDC 
#
#######################################################################
#
# If this CIF has been generated from an entry in the Cambridge 
# Structural Database, then it will include bibliographic, chemical, 
# crystal, experimental, refinement or atomic coordinate data resulting 
# from the CCDC's data processing and validation procedures.
#
#######################################################################

data_DICKUY
_chemical_formula_moiety         'C22 H23 F1 O1'
_chemical_name_systematic        
(E)-2-(4-(4-fluorophenyl)-2-methylbut-3-en-1-yl)-2-phenylcyclopentan-1-one
_symmetry_cell_setting           monoclinic
_symmetry_space_group_name_H-M   'P 21/c'
_symmetry_Int_Tables_number      14
_space_group_name_Hall           '-P 2ybc'
loop_
_symmetry_equiv_pos_site_id
_symmetry_equiv_pos_as_xyz
1 x,y,z
2 -x,1/2+y,1/2-z
3 -x,-y,-z
4 x,1/2-y,1/2+z
_cell_length_a                   12.6134(3)
_cell_length_b                   8.4407(3)
_cell_length_c                   17.1212(5)
_cell_angle_alpha                90
_cell_angle_beta                 94.760(2)
_cell_angle_gamma                90
_cell_volume                     1816.54
_exptl_crystal_colour            colorless
_exptl_crystal_description       block
_chemical_melting_point          '64.5-66.3 deg.C'
_cell_formula_units_Z            4
loop_
_atom_site_label
_atom_site_type_symbol
_atom_site_fract_x
_atom_site_fract_y
_atom_site_fract_z
F1 F 0.44376(13) -0.02901(19) 0.41636(8)
O1 O 0.14426(13) 0.13656(18) 0.02998(8)
C1 C 0.17507(12) 0.09544(19) -0.14922(9)
C2 C 0.21397(18) 0.0770(3) -0.22198(11)
H1 H 0.2723 0.0114 -0.2270
C3 C 0.1674(2) 0.1546(4) -0.28731(12)
H2 H 0.1944 0.1389 -0.3357
C4 C 0.0841(2) 0.2520(4) -0.28228(16)
H3 H 0.0549 0.3059 -0.3263
C5 C 0.34375(13) -0.0223(2) -0.07963(12)
H4 H 0.3691 -0.1056 -0.0438
H5 H 0.3609 -0.0499 -0.1321
C6 C 0.0430(2) 0.2706(3) -0.21199(18)
H6 H -0.0158 0.3356 -0.2082
C7 C 0.08859(16) 0.1930(3) -0.14544(13)
H7 H 0.0598 0.2076 -0.0977
C8 C 0.22300(11) 0.00378(18) -0.07691(9)
C9 C 0.22030(15) 0.1138(2) -0.00577(10)
C10 C 0.3284(2) 0.1870(3) 0.01151(14)
H8 H 0.3232 0.3016 0.0135
H9 H 0.3613 0.1493 0.0613
C11 C 0.39189(15) 0.1361(3) -0.05471(15)
H10 H 0.4666 0.1250 -0.0371
H11 H 0.3847 0.2118 -0.0975
C12 C 0.15694(12) -0.1467(2) -0.06871(9)
H12 H 0.1460 -0.1951 -0.1201
H13 H 0.0876 -0.1148 -0.0537
C13 C 0.19992(13) -0.2748(2) -0.01098(10)
H14 H 0.2654 -0.3174 -0.0299
C14 C 0.22550(13) -0.2155(2) 0.07086(10)
H15 H 0.1726 -0.1601 0.0940
C15 C 0.31691(13) -0.2356(2) 0.11261(10)
H16 H 0.3685 -0.2921 0.0886
C16 C 0.34730(14) -0.17948(19) 0.19286(10)
C17 C 0.44630(15) -0.2191(2) 0.22868(12)
H17 H 0.4916 -0.2819 0.2017
C18 C 0.47958(17) -0.1680(3) 0.30345(13)
H18 H 0.5465 -0.1947 0.3266
C19 C 0.41209(19) -0.0781(2) 0.34209(12)
C20 C 0.31466(19) -0.0355(3) 0.31001(13)
H19 H 0.2701 0.0268 0.3379
C21 C 0.28254(16) -0.0860(2) 0.23535(12)
H20 H 0.2158 -0.0567 0.2129
C22 C 0.11830(18) -0.4092(2) -0.01179(14)
H21 H 0.0536 -0.3704 0.0071
H22 H 0.1461 -0.4937 0.0214
H23 H 0.1041 -0.4478 -0.0644
loop_
_geom_bond_atom_site_label_1
_geom_bond_atom_site_label_2
_geom_bond_site_symmetry_1
_geom_bond_site_symmetry_2
F1 C19 1_555 1_555
O1 C9 1_555 1_555
C1 C2 1_555 1_555
C2 H1 1_555 1_555
C3 C2 1_555 1_555
H2 C3 1_555 1_555
C4 C3 1_555 1_555
H3 C4 1_555 1_555
C5 H4 1_555 1_555
H5 C5 1_555 1_555
C6 C4 1_555 1_555
H6 C6 1_555 1_555
C7 C1 1_555 1_555
H7 C7 1_555 1_555
C8 C1 1_555 1_555
C9 C8 1_555 1_555
C10 C9 1_555 1_555
H8 C10 1_555 1_555
H9 C10 1_555 1_555
C11 C5 1_555 1_555
H10 C11 1_555 1_555
H11 C11 1_555 1_555
C12 C8 1_555 1_555
H12 C12 1_555 1_555
H13 C12 1_555 1_555
C13 C12 1_555 1_555
H14 C13 1_555 1_555
C14 C13 1_555 1_555
H15 C14 1_555 1_555
C15 C14 1_555 1_555
H16 C15 1_555 1_555
C16 C15 1_555 1_555
C17 C16 1_555 1_555
H17 C17 1_555 1_555
C18 C17 1_555 1_555
H18 C18 1_555 1_555
C19 C18 1_555 1_555
C20 C19 1_555 1_555
H19 C20 1_555 1_555
C21 C16 1_555 1_555
H20 C21 1_555 1_555
C22 C13 1_555 1_555
H21 C22 1_555 1_555
H22 C22 1_555 1_555
H23 C22 1_555 1_555
C5 C8 1_555 1_555
C6 C7 1_555 1_555
C10 C11 1_555 1_555
C20 C21 1_555 1_555

#END
