
#######################################################################
#
#                 Cambridge Crystallographic Data Centre
#                                CCDC 
#
#######################################################################
#
# If this CIF has been generated from an entry in the Cambridge 
# Structural Database, then it will include bibliographic, chemical, 
# crystal, experimental, refinement or atomic coordinate data resulting 
# from the CCDC's data processing and validation procedures.
#
#######################################################################

data_DICPAJ
_chemical_formula_moiety         'C20 H13 N1 O3'
_chemical_name_systematic        2-nitro-10-phenyldibenzo[b,f]oxepine
_symmetry_cell_setting           monoclinic
_symmetry_space_group_name_H-M   'P 21'
_symmetry_Int_Tables_number      4
_space_group_name_Hall           'P 2yb'
loop_
_symmetry_equiv_pos_site_id
_symmetry_equiv_pos_as_xyz
1 x,y,z
2 -x,1/2+y,-z
_cell_length_a                   7.2086(2)
_cell_length_b                   12.6711(4)
_cell_length_c                   8.3699(3)
_cell_angle_alpha                90
_cell_angle_beta                 98.408(3)
_cell_angle_gamma                90
_cell_volume                     756.297
_exptl_crystal_colour            yellow
_exptl_crystal_description       needle
_cell_formula_units_Z            2
loop_
_atom_site_label
_atom_site_type_symbol
_atom_site_fract_x
_atom_site_fract_y
_atom_site_fract_z
O1 O 0.1321(2) 0.67919(12) 0.4664(2)
N1 N -0.1449(3) 0.3526(2) 0.0550(3)
O2 O -0.1909(4) 0.3717(2) -0.0878(3)
O3 O -0.1469(5) 0.2641(2) 0.1112(4)
C1 C 0.0635(3) 0.59692(19) 0.3659(3)
C2 C -0.0318(3) 0.4172(2) 0.3267(3)
H1 H -0.0512 0.3500 0.3659
C3 C 0.1080(3) 0.4735(2) 0.6024(3)
H2 H 0.0351 0.4272 0.6531
C4 C -0.0782(3) 0.4393(2) 0.1644(3)
C5 C 0.3199(3) 0.4771(2) 0.8609(3)
C6 C 0.0446(3) 0.49679(19) 0.4316(3)
C7 C 0.3252(3) 0.66669(19) 0.5153(3)
C8 C 0.2633(3) 0.51340(18) 0.6927(3)
C9 C 0.0124(4) 0.6181(2) 0.2037(3)
H3 H 0.0263 0.6858 0.1644
C10 C -0.0594(4) 0.5384(2) 0.0996(3)
H4 H -0.0939 0.5511 -0.0102
C11 C 0.3963(4) 0.5480(3) 0.9804(3)
H5 H 0.4130 0.6183 0.9538
C12 C 0.3903(3) 0.58801(19) 0.6259(3)
C13 C 0.4477(4) 0.5144(3) 1.1390(4)
H6 H 0.4975 0.5624 1.2178
C14 C 0.4447(4) 0.7355(2) 0.4521(3)
H7 H 0.3970 0.7873 0.3787
C15 C 0.7060(4) 0.6486(3) 0.6077(4)
H8 H 0.8347 0.6423 0.6393
C16 C 0.5854(4) 0.5805(2) 0.6689(3)
H9 H 0.6345 0.5280 0.7406
C17 C 0.6371(4) 0.7261(3) 0.5000(4)
H10 H 0.7190 0.7721 0.4592
C18 C 0.2993(4) 0.3719(3) 0.9049(4)
H11 H 0.2508 0.3231 0.8268
C19 C 0.3499(5) 0.3392(3) 1.0625(5)
H12 H 0.3335 0.2691 1.0904
C20 C 0.4253(5) 0.4110(4) 1.1794(4)
H13 H 0.4607 0.3888 1.2853
loop_
_geom_bond_atom_site_label_1
_geom_bond_atom_site_label_2
_geom_bond_site_symmetry_1
_geom_bond_site_symmetry_2
O1 C1 1_555 1_555
N1 O2 1_555 1_555
O3 N1 1_555 1_555
C1 C6 1_555 1_555
C2 H1 1_555 1_555
C3 H2 1_555 1_555
C4 N1 1_555 1_555
C5 C8 1_555 1_555
C6 C2 1_555 1_555
C7 O1 1_555 1_555
C8 C3 1_555 1_555
C9 C1 1_555 1_555
H3 C9 1_555 1_555
C10 C4 1_555 1_555
H4 C10 1_555 1_555
C11 C5 1_555 1_555
H5 C11 1_555 1_555
C12 C7 1_555 1_555
C13 C11 1_555 1_555
H6 C13 1_555 1_555
C14 C7 1_555 1_555
H7 C14 1_555 1_555
C15 H8 1_555 1_555
C16 C12 1_555 1_555
H9 C16 1_555 1_555
C17 C14 1_555 1_555
H10 C17 1_555 1_555
C18 C5 1_555 1_555
H11 C18 1_555 1_555
C19 C18 1_555 1_555
H12 C19 1_555 1_555
C20 C13 1_555 1_555
H13 C20 1_555 1_555
C2 C4 1_555 1_555
C3 C6 1_555 1_555
C8 C12 1_555 1_555
C9 C10 1_555 1_555
C15 C16 1_555 1_555
C15 C17 1_555 1_555
C19 C20 1_555 1_555

#END
