
#######################################################################
#
#                 Cambridge Crystallographic Data Centre
#                                CCDC 
#
#######################################################################
#
# If this CIF has been generated from an entry in the Cambridge 
# Structural Database, then it will include bibliographic, chemical, 
# crystal, experimental, refinement or atomic coordinate data resulting 
# from the CCDC's data processing and validation procedures.
#
#######################################################################

data_DICPEK01
_chemical_formula_moiety         'C40 H26 N2 O6'
_chemical_name_systematic        
2,9-bis[(4-methoxyphenyl)methyl]isoquinolino[4',5',6':6,5,10]anthra[2,1,9-def]isoquinoline-1,3,8,10(2H,9H)-tetrone
_symmetry_cell_setting           triclinic
_symmetry_space_group_name_H-M   'P -1'
_symmetry_Int_Tables_number      2
_space_group_name_Hall           '-P 1'
loop_
_symmetry_equiv_pos_site_id
_symmetry_equiv_pos_as_xyz
1 x,y,z
2 -x,-y,-z
_cell_length_a                   4.5671(2)
_cell_length_b                   17.5924(9)
_cell_length_c                   18.2091(9)
_cell_angle_alpha                96.309(4)
_cell_angle_beta                 92.989(4)
_cell_angle_gamma                90.443(4)
_cell_volume                     1452.06
_exptl_crystal_colour            black
_exptl_crystal_description       ribbon
_cell_formula_units_Z            2
loop_
_atom_site_label
_atom_site_type_symbol
_atom_site_fract_x
_atom_site_fract_y
_atom_site_fract_z
O1 O 0.9159(4) 0.62284(11) 0.74119(10)
O2 O 0.7599(4) 0.78826(11) 0.56924(10)
N1 N 0.8375(4) 0.70594(12) 0.65552(11)
O3 O 0.4467(6) 0.93985(14) 0.92216(12)
C1 C 0.4235(4) 0.60301(13) 0.57735(12)
C2 C 0.2120(4) 0.55153(13) 0.53873(12)
C3 C 0.4907(5) 0.67207(14) 0.54968(12)
C4 C 0.0722(5) 0.57119(13) 0.47176(12)
C5 C 0.1463(4) 0.48185(13) 0.56821(12)
C6 C 0.5649(5) 0.58407(14) 0.64377(12)
C7 C 0.7851(5) 0.63722(15) 0.68438(13)
C8 C 0.4966(5) 0.51677(15) 0.67067(13)
H1 H 0.589947 0.504713 0.714430
C9 C 0.2906(5) 0.46658(15) 0.63361(13)
H2 H 0.247825 0.421346 0.653136
C10 C 0.7035(5) 0.72703(16) 0.59038(13)
C11 C 0.3524(5) 0.68957(15) 0.48503(13)
H3 H 0.396812 0.735453 0.466897
C12 C 0.1478(5) 0.63988(15) 0.44649(13)
H4 H 0.058791 0.652852 0.402560
C13 C 0.8818(5) 0.81086(15) 0.75763(14)
C14 C 1.0381(5) 0.76216(16) 0.69954(14)
H5 H 1.125524 0.794751 0.666750
H6 H 1.194924 0.735175 0.723135
C15 C 0.8933(6) 0.79444(17) 0.83041(15)
H7 H 1.001580 0.752978 0.843525
C16 C 0.5842(7) 0.89978(18) 0.86506(15)
C17 C 0.7192(6) 0.87264(17) 0.74036(15)
H8 H 0.710178 0.885013 0.691942
C18 C 0.5679(7) 0.91702(17) 0.79347(15)
H9 H 0.456788 0.958027 0.780476
C19 C 0.7470(7) 0.83853(18) 0.88373(16)
H10 H 0.758265 0.826886 0.932389
C20 C 0.2940(9) 1.0075(2) 0.9077(2)
H11 H 0.145681 0.995129 0.868773
H12 H 0.429677 1.044123 0.892831
H13 H 0.203888 1.028776 0.951645
O1A O -0.9159(4) 0.37716(11) 0.25881(10)
O2A O -0.7599(4) 0.21174(11) 0.43076(10)
N1A N -0.8375(4) 0.29406(12) 0.34448(11)
O3A O -0.4467(6) 0.06015(14) 0.07784(12)
C1A C -0.4235(4) 0.39699(13) 0.42265(12)
C2A C -0.2120(4) 0.44847(13) 0.46127(12)
C3A C -0.4907(5) 0.32793(14) 0.45032(12)
C4A C -0.0722(5) 0.42881(13) 0.52824(12)
C5A C -0.1463(4) 0.51815(13) 0.43179(12)
C6A C -0.5649(5) 0.41593(14) 0.35623(12)
C7A C -0.7851(5) 0.36278(15) 0.31562(13)
C8A C -0.4966(5) 0.48323(15) 0.32933(13)
H1A H -0.589947 0.495287 0.285570
C9A C -0.2906(5) 0.53342(15) 0.36639(13)
H2A H -0.247825 0.578654 0.346864
C10A C -0.7035(5) 0.27297(16) 0.40962(13)
C11A C -0.3524(5) 0.31043(15) 0.51497(13)
H3A H -0.396812 0.264547 0.533103
C12A C -0.1478(5) 0.36012(15) 0.55351(13)
H4A H -0.058791 0.347148 0.597440
C13A C -0.8818(5) 0.18914(15) 0.24237(14)
C14A C -1.0381(5) 0.23784(16) 0.30046(14)
H5A H -1.125524 0.205249 0.333250
H6A H -1.194924 0.264825 0.276865
C15A C -0.8933(6) 0.20556(17) 0.16959(15)
H7A H -1.001580 0.247022 0.156475
C16A C -0.5842(7) 0.10022(18) 0.13494(15)
C17A C -0.7192(6) 0.12736(17) 0.25964(15)
H8A H -0.710178 0.114987 0.308058
C18A C -0.5679(7) 0.08298(17) 0.20653(15)
H9A H -0.456788 0.041973 0.219524
C19A C -0.7470(7) 0.16147(18) 0.11627(16)
H10A H -0.758265 0.173114 0.067611
C20A C -0.2940(9) -0.0075(2) 0.0923(2)
H11A H -0.145681 0.004871 0.131227
H12A H -0.429677 -0.044123 0.107169
H13A H -0.203888 -0.028776 0.048355
O4 O 1.3295(4) 0.36536(13) 0.76870(11)
O5 O 0.7436(5) 0.06269(13) 0.55362(13)
O6 O 1.0694(5) 0.19099(14) 0.92056(12)
N2 N 1.1972(4) 0.27748(14) 0.84384(12)
C21 C 0.5216(5) 0.42364(16) 1.02243(13)
C22 C 0.6765(5) 0.44402(16) 0.96091(13)
C23 C 0.6593(5) 0.51884(16) 0.93788(13)
C24 C 0.8507(5) 0.38824(16) 0.92228(13)
C25 C 1.0070(5) 0.40787(17) 0.86149(13)
C26 C 0.8710(5) 0.31395(17) 0.94384(13)
C27 C 0.9859(5) 0.48008(17) 0.84064(14)
H14 H 1.088318 0.492661 0.800728
C28 C 1.1883(6) 0.35041(18) 0.82093(14)
C29 C 1.2054(6) 0.17911(17) 0.73487(15)
C30 C 0.8149(6) 0.53488(17) 0.87785(14)
H15 H 0.804125 0.583417 0.862233
C31 C 0.9009(6) 0.10338(17) 0.61060(17)
C32 C 0.5503(6) 0.34977(17) 1.04166(14)
H16 H 0.452002 0.336121 1.081811
C33 C 1.0484(6) 0.25550(19) 0.90358(15)
C34 C 1.0908(6) 0.16300(17) 0.60312(16)
H17 H 1.119911 0.178115 0.556654
C35 C 1.2370(6) 0.19996(18) 0.66514(16)
H18 H 1.362126 0.240661 0.659603
C36 C 0.7202(6) 0.29557(18) 1.00317(14)
H19 H 0.732327 0.246507 1.017507
C37 C 1.3734(6) 0.21942(19) 0.80138(15)
H20 H 1.439621 0.181891 0.833588
H21 H 1.545646 0.244127 0.785223
C38 C 1.0137(7) 0.1190(2) 0.74109(18)
H22 H 0.985795 0.103583 0.787493
C39 C 0.8651(7) 0.0820(2) 0.68041(19)
H23 H 0.737951 0.041736 0.686108
C40 C 0.7793(8) 0.08030(19) 0.48001(18)
H24 H 0.668815 0.044215 0.445775
H25 H 0.983042 0.077569 0.469549
H26 H 0.710117 0.130989 0.475145
O4A O -0.3295(4) 0.63464(13) 1.23130(11)
O5A O 0.2564(5) 0.93731(13) 1.44638(13)
O6A O -0.0694(5) 0.80901(14) 1.07944(12)
N2A N -0.1972(4) 0.72252(14) 1.15616(12)
C21A C 0.4784(5) 0.57636(16) 0.97757(13)
C22A C 0.3235(5) 0.55598(16) 1.03909(13)
C23A C 0.3407(5) 0.48116(16) 1.06212(13)
C24A C 0.1493(5) 0.61176(16) 1.07772(13)
C25A C -0.0070(5) 0.59213(17) 1.13851(13)
C26A C 0.1290(5) 0.68605(17) 1.05616(13)
C27A C 0.0141(5) 0.51992(17) 1.15936(14)
H14A H -0.088318 0.507339 1.199272
C28A C -0.1883(6) 0.64959(18) 1.17907(14)
C29A C -0.2054(6) 0.82089(17) 1.26513(15)
C30A C 0.1851(6) 0.46512(17) 1.12215(14)
H15A H 0.195875 0.416583 1.137767
C31A C 0.0991(6) 0.89662(17) 1.38940(17)
C32A C 0.4497(6) 0.65023(17) 0.95834(14)
H16A H 0.547998 0.663879 0.918189
C33A C -0.0484(6) 0.74450(19) 1.09642(15)
C34A C -0.0908(6) 0.83700(17) 1.39688(16)
H17A H -0.119911 0.821885 1.443346
C35A C -0.2370(6) 0.80004(18) 1.33486(16)
H18A H -0.362126 0.759339 1.340397
C36A C 0.2798(6) 0.70443(18) 0.99683(14)
H19A H 0.267673 0.753493 0.982493
C37A C -0.3734(6) 0.78058(19) 1.19862(15)
H20A H -0.439621 0.818109 1.166412
H21A H -0.545646 0.755873 1.214777
C38A C -0.0137(7) 0.8810(2) 1.25891(18)
H22A H 0.014205 0.896417 1.212507
C39A C 0.1349(7) 0.9180(2) 1.31959(19)
H23A H 0.262049 0.958264 1.313892
C40A C 0.2207(8) 0.91970(19) 1.51999(18)
H24A H 0.331185 0.955785 1.554225
H25A H 0.016958 0.922431 1.530451
H26A H 0.289883 0.869011 1.524855
loop_
_geom_bond_atom_site_label_1
_geom_bond_atom_site_label_2
_geom_bond_site_symmetry_1
_geom_bond_site_symmetry_2
O1 C7 1_555 1_555
O2 C10 1_555 1_555
N1 C7 1_555 1_555
O3 C16 1_555 1_555
C1 C2 1_555 1_555
C2 C4 1_555 1_555
C3 C1 1_555 1_555
C4 C12 1_555 1_555
C5 C2 1_555 1_555
C6 C1 1_555 1_555
C7 C6 1_555 1_555
C8 C6 1_555 1_555
H1 C8 1_555 1_555
C9 C5 1_555 1_555
H2 C9 1_555 1_555
C10 N1 1_555 1_555
C11 C3 1_555 1_555
H3 C11 1_555 1_555
C12 C11 1_555 1_555
H4 C12 1_555 1_555
C13 C14 1_555 1_555
C14 N1 1_555 1_555
H5 C14 1_555 1_555
H6 C14 1_555 1_555
C15 C13 1_555 1_555
H7 C15 1_555 1_555
C16 C18 1_555 1_555
C17 C13 1_555 1_555
H8 C17 1_555 1_555
C18 C17 1_555 1_555
H9 C18 1_555 1_555
C19 C15 1_555 1_555
H10 C19 1_555 1_555
C20 O3 1_555 1_555
H11 C20 1_555 1_555
H12 C20 1_555 1_555
H13 C20 1_555 1_555
O4 C28 1_555 1_555
O5 C31 1_555 1_555
O6 C33 1_555 1_555
N2 C28 1_555 1_555
C21 C22 1_555 1_555
C22 C23 1_555 1_555
C23 C30 1_555 1_555
C24 C22 1_555 1_555
C25 C24 1_555 1_555
C26 C24 1_555 1_555
C27 C25 1_555 1_555
H14 C27 1_555 1_555
C28 C25 1_555 1_555
C29 C35 1_555 1_555
C30 C27 1_555 1_555
H15 C30 1_555 1_555
C31 C34 1_555 1_555
C32 C21 1_555 1_555
H16 C32 1_555 1_555
C33 N2 1_555 1_555
C34 H17 1_555 1_555
C35 C34 1_555 1_555
H18 C35 1_555 1_555
C36 C26 1_555 1_555
H19 C36 1_555 1_555
C37 N2 1_555 1_555
H20 C37 1_555 1_555
H21 C37 1_555 1_555
C38 C29 1_555 1_555
H22 C38 1_555 1_555
C39 C31 1_555 1_555
H23 C39 1_555 1_555
C40 O5 1_555 1_555
H24 C40 1_555 1_555
H25 C40 1_555 1_555
H26 C40 1_555 1_555
O1A C7A 1_555 1_555
O2A C10A 1_555 1_555
N1A C7A 1_555 1_555
O3A C16A 1_555 1_555
C1A C2A 1_555 1_555
C2A C4A 1_555 1_555
C3A C1A 1_555 1_555
C4A C5 1_555 1_555
C5A C4 1_555 1_555
C6A C1A 1_555 1_555
C7A C6A 1_555 1_555
C8A C6A 1_555 1_555
H1A C8A 1_555 1_555
C9A C5A 1_555 1_555
H2A C9A 1_555 1_555
C10A N1A 1_555 1_555
C11A C3A 1_555 1_555
H3A C11A 1_555 1_555
C12A C4A 1_555 1_555
H4A C12A 1_555 1_555
C13A C14A 1_555 1_555
C14A N1A 1_555 1_555
H5A C14A 1_555 1_555
H6A C14A 1_555 1_555
C15A C13A 1_555 1_555
H7A C15A 1_555 1_555
C16A C18A 1_555 1_555
C17A C13A 1_555 1_555
H8A C17A 1_555 1_555
C18A C17A 1_555 1_555
H9A C18A 1_555 1_555
C19A C15A 1_555 1_555
H10A C19A 1_555 1_555
C20A O3A 1_555 1_555
H11A C20A 1_555 1_555
H12A C20A 1_555 1_555
H13A C20A 1_555 1_555
O4A C28A 1_555 1_555
O5A C31A 1_555 1_555
O6A C33A 1_555 1_555
N2A C28A 1_555 1_555
C21A C23 1_555 1_555
C22A C21A 1_555 1_555
C23A C21 1_555 1_555
C24A C22A 1_555 1_555
C25A C24A 1_555 1_555
C26A C24A 1_555 1_555
C27A C25A 1_555 1_555
H14A C27A 1_555 1_555
C28A C25A 1_555 1_555
C29A C35A 1_555 1_555
C30A C23A 1_555 1_555
H15A C30A 1_555 1_555
C31A C34A 1_555 1_555
C32A C21A 1_555 1_555
H16A C32A 1_555 1_555
C33A N2A 1_555 1_555
C34A H17A 1_555 1_555
C35A C34A 1_555 1_555
H18A C35A 1_555 1_555
C36A C26A 1_555 1_555
H19A C36A 1_555 1_555
C37A N2A 1_555 1_555
H20A C37A 1_555 1_555
H21A C37A 1_555 1_555
C38A C29A 1_555 1_555
H22A C38A 1_555 1_555
C39A C31A 1_555 1_555
H23A C39A 1_555 1_555
C40A O5A 1_555 1_555
H24A C40A 1_555 1_555
H25A C40A 1_555 1_555
H26A C40A 1_555 1_555
C3 C10 1_555 1_555
C8 C9 1_555 1_555
C16 C19 1_555 1_555
C26 C33 1_555 1_555
C29 C37 1_555 1_555
C32 C36 1_555 1_555
C38 C39 1_555 1_555
C2A C5A 1_555 1_555
C3A C10A 1_555 1_555
C8A C9A 1_555 1_555
C11A C12A 1_555 1_555
C16A C19A 1_555 1_555
C22A C23A 1_555 1_555
C26A C33A 1_555 1_555
C27A C30A 1_555 1_555
C29A C37A 1_555 1_555
C32A C36A 1_555 1_555
C38A C39A 1_555 1_555

#END
