
#######################################################################
#
#                 Cambridge Crystallographic Data Centre
#                                CCDC 
#
#######################################################################
#
# If this CIF has been generated from an entry in the Cambridge 
# Structural Database, then it will include bibliographic, chemical, 
# crystal, experimental, refinement or atomic coordinate data resulting 
# from the CCDC's data processing and validation procedures.
#
#######################################################################

data_DICVUH
_chemical_formula_moiety         'C20 H14 O2,C14 H16 N2'
_chemical_name_systematic        
"(R,R)-(-)-1,2-Diamino-1,2-diphenylethane (S)-(-)-1,1'-bi-2-naphthol"
_symmetry_cell_setting           orthorhombic
_symmetry_space_group_name_H-M   'P 21 21 21'
_symmetry_Int_Tables_number      19
_space_group_name_Hall           'P 2ac 2ab'
loop_
_symmetry_equiv_pos_site_id
_symmetry_equiv_pos_as_xyz
1 x,y,z
2 1/2-x,-y,1/2+z
3 -x,1/2+y,1/2-z
4 1/2+x,1/2-y,-z
_cell_length_a                   8.910(4)
_cell_length_b                   12.350(3)
_cell_length_c                   24.196(6)
_cell_angle_alpha                90
_cell_angle_beta                 90
_cell_angle_gamma                90
_cell_volume                     2662.49
_exptl_crystal_colour            colorless
_cell_formula_units_Z            4
loop_
_atom_site_label
_atom_site_type_symbol
_atom_site_fract_x
_atom_site_fract_y
_atom_site_fract_z
O1 O 0.8588(5) 0.0007(4) 0.10813(18)
H1 H 0.8924 0.0623 0.1051
C1 C 0.6946(8) 0.0864(5) 0.1732(3)
C2 C 0.7328(8) 0.0029(6) 0.1395(3)
C3 C 0.6423(9) -0.0891(5) 0.1337(3)
H2 H 0.6711 -0.1443 0.1098
C4 C 0.5139(9) -0.0978(5) 0.1626(3)
H3 H 0.4547 -0.1593 0.1582
C5 C 0.3326(9) -0.0237(7) 0.2290(3)
H4 H 0.2724 -0.0848 0.2250
C6 C 0.2879(9) 0.0554(6) 0.2633(3)
H5 H 0.2009 0.0473 0.2841
C7 C 0.3729(9) 0.1501(6) 0.2674(3)
H6 H 0.3383 0.2064 0.2895
C8 C 0.5054(9) 0.1620(6) 0.2400(3)
H7 H 0.5615 0.2251 0.2438
C9 C 0.5570(8) 0.0760(6) 0.2050(3)
C10 C 0.4677(9) -0.0173(6) 0.1988(3)
O2 O 0.7255(5) 0.2381(4) 0.08364(17)
H8 H 0.6505 0.2009 0.0887
C11 C 0.7897(7) 0.1862(5) 0.1767(3)
C12 C 0.7986(8) 0.2519(5) 0.1321(3)
C13 C 0.8980(8) 0.3424(6) 0.1325(3)
H9 H 0.9054 0.3864 0.1015
C14 C 0.9820(9) 0.3650(6) 0.1780(3)
H10 H 1.0507 0.4216 0.1770
C15 C 1.0410(8) 0.3315(5) 0.2755(3)
H11 H 1.1036 0.3918 0.2759
C16 C 1.0243(9) 0.2727(6) 0.3222(3)
H12 H 1.0715 0.2940 0.3546
C17 C 0.9350(8) 0.1790(6) 0.3213(3)
H13 H 0.9259 0.1371 0.3530
C18 C 0.8618(8) 0.1487(6) 0.2745(3)
H14 H 0.8034 0.0863 0.2747
C19 C 0.8729(8) 0.2102(5) 0.2257(3)
C20 C 0.9659(8) 0.3037(6) 0.2264(3)
N1 N 1.1219(9) 0.1236(6) 0.1149(3)
H15 H 1.172(9) 0.087(6) 0.134(3)
H16 H 1.132(9) 0.206(6) 0.123(3)
C21 C 1.1742(8) 0.1268(5) 0.0575(3)
H17 H 1.0986 0.1660 0.0360
C22 C 1.1904(8) 0.0157(5) 0.0324(3)
C23 C 1.1894(10) 0.0044(7) -0.0240(3)
H18 H 1.1728 0.0643 -0.0464
C24 C 1.2129(13) -0.0954(7) -0.0471(4)
H19 H 1.2107 -0.1022 -0.0854
C25 C 1.2387(14) -0.1831(8) -0.0163(4)
H20 H 1.2615 -0.2490 -0.0330
C26 C 1.2312(12) -0.1748(6) 0.0400(4)
H21 H 1.2434 -0.2357 0.0621
C27 C 1.2054(10) -0.0755(6) 0.0635(3)
H22 H 1.1980 -0.0703 0.1017
C28 C 1.3293(8) 0.1879(5) 0.0495(3)
H23 H 1.3491 0.1931 0.0098
N2 N 1.4554(7) 0.1263(5) 0.0753(3)
H24 H 1.471(7) 0.066(5) 0.053(2)
H25 H 1.433(11) 0.111(7) 0.113(3)
C29 C 1.3286(8) 0.2999(6) 0.0727(3)
C30 C 1.3787(8) 0.3266(6) 0.1244(3)
H26 H 1.4105 0.2717 0.1479
C31 C 1.3838(10) 0.4329(8) 0.1429(3)
H27 H 1.4203 0.4484 0.1781
C32 C 1.3348(10) 0.5150(7) 0.1093(4)
H28 H 1.3352 0.5864 0.1215
C33 C 1.2854(12) 0.4899(6) 0.0575(4)
H29 H 1.2556 0.5450 0.0337
C34 C 1.2789(10) 0.3821(6) 0.0398(3)
H30 H 1.2401 0.3663 0.0051
loop_
_geom_bond_atom_site_label_1
_geom_bond_atom_site_label_2
_geom_bond_site_symmetry_1
_geom_bond_site_symmetry_2
O1 H1 1_555 1_555
C1 C2 1_555 1_555
C2 O1 1_555 1_555
C3 C2 1_555 1_555
H2 C3 1_555 1_555
C4 C3 1_555 1_555
H3 C4 1_555 1_555
C5 H4 1_555 1_555
C6 C5 1_555 1_555
H5 C6 1_555 1_555
C7 C6 1_555 1_555
H6 C7 1_555 1_555
C8 C7 1_555 1_555
H7 C8 1_555 1_555
C9 C1 1_555 1_555
C10 C4 1_555 1_555
O2 H8 1_555 1_555
C11 C1 1_555 1_555
C12 O2 1_555 1_555
C13 C12 1_555 1_555
H9 C13 1_555 1_555
C14 C13 1_555 1_555
H10 C14 1_555 1_555
C15 H11 1_555 1_555
C16 C15 1_555 1_555
H12 C16 1_555 1_555
C17 C16 1_555 1_555
H13 C17 1_555 1_555
C18 C17 1_555 1_555
H14 C18 1_555 1_555
C19 C11 1_555 1_555
C20 C14 1_555 1_555
N1 H15 1_555 1_555
H16 N1 1_555 1_555
C21 N1 1_555 1_555
H17 C21 1_555 1_555
C22 C21 1_555 1_555
C23 C22 1_555 1_555
H18 C23 1_555 1_555
C24 C23 1_555 1_555
H19 C24 1_555 1_555
C25 C24 1_555 1_555
H20 C25 1_555 1_555
C26 C25 1_555 1_555
H21 C26 1_555 1_555
C27 C22 1_555 1_555
H22 C27 1_555 1_555
C28 C21 1_555 1_555
H23 C28 1_555 1_555
N2 C28 1_555 1_555
H24 N2 1_555 1_555
H25 N2 1_555 1_555
C29 C28 1_555 1_555
C30 C29 1_555 1_555
H26 C30 1_555 1_555
C31 C30 1_555 1_555
H27 C31 1_555 1_555
C32 C31 1_555 1_555
H28 C32 1_555 1_555
C33 C32 1_555 1_555
H29 C33 1_555 1_555
C34 C29 1_555 1_555
H30 C34 1_555 1_555
C5 C10 1_555 1_555
C8 C9 1_555 1_555
C9 C10 1_555 1_555
C11 C12 1_555 1_555
C15 C20 1_555 1_555
C18 C19 1_555 1_555
C19 C20 1_555 1_555
C26 C27 1_555 1_555
C33 C34 1_555 1_555

#END
