
#######################################################################
#
#                 Cambridge Crystallographic Data Centre
#                                CCDC 
#
#######################################################################
#
# If this CIF has been generated from an entry in the Cambridge 
# Structural Database, then it will include bibliographic, chemical, 
# crystal, experimental, refinement or atomic coordinate data resulting 
# from the CCDC's data processing and validation procedures.
#
#######################################################################

data_DICWOD
_chemical_formula_moiety         'C20 H18 N2 O3'
_chemical_name_systematic        
'Methyl 3-acetyl-1-(2,2-dicyano-1-(4-methylphenyl)vinyl)cyclopent-3-ene-1-carboxylate'
_symmetry_cell_setting           monoclinic
_symmetry_space_group_name_H-M   'P 21/n'
_symmetry_Int_Tables_number      14
_space_group_name_Hall           '-P 2yn'
loop_
_symmetry_equiv_pos_site_id
_symmetry_equiv_pos_as_xyz
1 x,y,z
2 1/2-x,1/2+y,1/2-z
3 -x,-y,-z
4 1/2+x,1/2-y,1/2+z
_cell_length_a                   10.5224(9)
_cell_length_b                   8.7192(7)
_cell_length_c                   20.0164(17)
_cell_angle_alpha                90
_cell_angle_beta                 102.322(2)
_cell_angle_gamma                90
_cell_volume                     1794.14
_exptl_crystal_colour            colorless
_exptl_crystal_description       prismatic
_cell_formula_units_Z            4
loop_
_atom_site_label
_atom_site_type_symbol
_atom_site_fract_x
_atom_site_fract_y
_atom_site_fract_z
N1 N 0.61567(17) 0.9575(2) 0.36725(9)
N2 N 0.21336(17) 1.0419(2) 0.35717(9)
O1 O 0.47103(15) 0.79983(18) -0.02387(7)
O2 O 0.68671(11) 1.04791(14) 0.20614(7)
O3 O 0.50690(10) 1.18997(12) 0.18461(6)
C1 C 0.43392(15) 0.89095(18) 0.10722(8)
H1 H 0.3473 0.8472 0.0957
H2 H 0.4356 0.9845 0.0812
C2 C 0.47642(13) 0.92181(17) 0.18548(8)
C3 C 0.55310(15) 0.77396(18) 0.21268(8)
H3 H 0.6258 0.7973 0.2500
H4 H 0.4971 0.6996 0.2282
C4 C 0.59890(15) 0.71630(18) 0.15187(8)
H5 H 0.6653 0.6448 0.1541
C5 C 0.53416(14) 0.77855(17) 0.09418(8)
C6 C 0.54608(17) 0.7430(2) 0.02387(9)
C7 C 0.6516(2) 0.6377(3) 0.01275(12)
H6 H 0.6460 0.6248 -0.0354
H7 H 0.6420 0.5399 0.0332
H8 H 0.7347 0.6808 0.0334
C8 C 0.36430(14) 0.95792(16) 0.22069(8)
C9 C 0.38692(15) 0.96948(18) 0.28934(8)
C10 C 0.51448(17) 0.9594(2) 0.33269(9)
C11 C 0.28756(16) 1.0092(2) 0.32587(9)
C12 C 0.23069(14) 0.98431(18) 0.18021(8)
C13 C 0.20659(16) 1.0987(2) 0.13065(9)
H9 H 0.2749 1.1578 0.1220
C14 C 0.08136(17) 1.1247(2) 0.09438(10)
H10 H 0.0666 1.2027 0.0620
C15 C -0.02294(16) 1.0380(2) 0.10477(10)
C16 C 0.00246(17) 0.9240(2) 0.15370(10)
H11 H -0.0657 0.8635 0.1614
C17 C 0.12644(15) 0.8976(2) 0.19145(9)
H12 H 0.1403 0.8212 0.2246
C18 C -0.15841(19) 1.0689(3) 0.06421(12)
H13 H -0.2107 0.9785 0.0637
H14 H -0.1547 1.0961 0.0182
H15 H -0.1962 1.1518 0.0849
C19 C 0.57114(14) 1.05808(17) 0.19416(8)
C20 C 0.58358(17) 1.32632(19) 0.18168(10)
H16 H 0.6397 1.3438 0.2255
H17 H 0.5268 1.4128 0.1697
H18 H 0.6351 1.3130 0.1479
loop_
_geom_bond_atom_site_label_1
_geom_bond_atom_site_label_2
_geom_bond_site_symmetry_1
_geom_bond_site_symmetry_2
N1 C10 1_555 1_555
N2 C11 1_555 1_555
O1 C6 1_555 1_555
O2 C19 1_555 1_555
O3 C19 1_555 1_555
C1 H1 1_555 1_555
H2 C1 1_555 1_555
C2 C1 1_555 1_555
C3 C2 1_555 1_555
H3 C3 1_555 1_555
H4 C3 1_555 1_555
C4 C3 1_555 1_555
H5 C4 1_555 1_555
C5 C1 1_555 1_555
C6 C5 1_555 1_555
C7 C6 1_555 1_555
H6 C7 1_555 1_555
H7 C7 1_555 1_555
H8 C7 1_555 1_555
C8 C2 1_555 1_555
C9 C8 1_555 1_555
C10 C9 1_555 1_555
C11 C9 1_555 1_555
C12 C8 1_555 1_555
C13 C12 1_555 1_555
H9 C13 1_555 1_555
C14 C13 1_555 1_555
H10 C14 1_555 1_555
C15 C14 1_555 1_555
C16 C15 1_555 1_555
H11 C16 1_555 1_555
C17 C12 1_555 1_555
H12 C17 1_555 1_555
C18 C15 1_555 1_555
H13 C18 1_555 1_555
H14 C18 1_555 1_555
H15 C18 1_555 1_555
C19 C2 1_555 1_555
C20 O3 1_555 1_555
H16 C20 1_555 1_555
H17 C20 1_555 1_555
H18 C20 1_555 1_555
C4 C5 1_555 1_555
C16 C17 1_555 1_555

#END
