
#######################################################################
#
#                 Cambridge Crystallographic Data Centre
#                                CCDC 
#
#######################################################################
#
# If this CIF has been generated from an entry in the Cambridge 
# Structural Database, then it will include bibliographic, chemical, 
# crystal, experimental, refinement or atomic coordinate data resulting 
# from the CCDC's data processing and validation procedures.
#
#######################################################################

data_DICYOG
_chemical_name_common            ICM-102
_chemical_formula_moiety         'C4 H8 N6 O4 2+,2(C2 F3 O2 1-)'
_chemical_name_systematic        
'2,4,6-triamino-1,3-dihydroxy-5-nitropyrimidine-1,3-diium bis(trifluoroacetate)'
_symmetry_cell_setting           monoclinic
_symmetry_space_group_name_H-M   'P 21/c'
_symmetry_Int_Tables_number      14
_space_group_name_Hall           '-P 2ybc'
loop_
_symmetry_equiv_pos_site_id
_symmetry_equiv_pos_as_xyz
1 x,y,z
2 -x,1/2+y,1/2-z
3 -x,-y,-z
4 x,1/2-y,1/2+z
_cell_length_a                   12.659(3)
_cell_length_b                   5.8144(15)
_cell_length_c                   20.117(5)
_cell_angle_alpha                90
_cell_angle_beta                 92.309(6)
_cell_angle_gamma                90
_cell_volume                     1479.5
_exptl_crystal_colour            colorless
_exptl_crystal_description       block
_chemical_melting_point          '284 deg.C (dec.)'
_cell_formula_units_Z            4
_chemical_properties_physical    explosive
loop_
_atom_site_label
_atom_site_type_symbol
_atom_site_fract_x
_atom_site_fract_y
_atom_site_fract_z
O1 O 0.8768(2) 0.5398(5) 0.52236(13)
F1 F 0.8545(3) 0.8007(6) 0.62794(13)
O2 O 0.7981(3) 0.8066(6) 0.45688(14)
F2 F 0.7015(3) 0.8545(6) 0.58545(15)
F3 F 0.8239(4) 1.0873(5) 0.56552(16)
C1 C 0.8295(4) 0.7282(7) 0.5107(2)
C2 C 0.8036(4) 0.8700(8) 0.5727(2)
O3 O 0.9051(2) 0.2971(5) 0.42170(14)
O4 O 0.8261(2) 1.0758(5) 0.23830(14)
O5 O 0.5987(2) 0.4084(6) 0.29208(15)
O6 O 0.9771(2) 0.9989(5) 0.28694(14)
N1 N 0.6999(3) 0.4795(6) 0.30855(16)
N2 N 0.8526(3) 0.4215(6) 0.37175(16)
N3 N 0.8843(3) 0.9470(6) 0.27331(16)
N4 N 0.7093(3) 0.1801(6) 0.38418(16)
H1 H 0.7457 0.0988 0.4141
H2 H 0.6437 0.1419 0.3731
N5 N 0.6715(3) 0.7717(7) 0.23616(17)
N6 N 0.9987(3) 0.6438(6) 0.36679(16)
H3 H 1.0289 0.5507 0.3964
H4 H 1.0342 0.7614 0.3515
C3 C 0.7377(3) 0.6737(7) 0.27926(18)
C4 C 0.9022(3) 0.6076(7) 0.34568(19)
C5 C 0.7526(3) 0.3563(7) 0.35646(19)
C6 C 0.8425(3) 0.7409(7) 0.29816(18)
H5 H 0.685(3) 0.917(8) 0.2224(19)
H6 H 0.614(4) 0.696(8) 0.230(2)
H7 H 0.892(4) 0.385(8) 0.4531(19)
H8 H 0.608(5) 0.333(10) 0.256(2)
O7 O 0.6111(2) 0.2170(5) 0.18456(14)
O8 O 0.4896(3) 0.4815(6) 0.15595(15)
C7 C 0.5415(4) 0.3083(8) 0.1450(2)
C8 C 0.5265(5) 0.1872(10) 0.0780(3)
F4 F 0.5413(8) -0.0406(11) 0.0842(3)
F5 F 0.5773(8) 0.2684(17) 0.0330(3)
F6 F 0.4209(5) 0.1930(17) 0.0607(4)
F7? F 0.6213(9) 0.132(3) 0.0527(6)
F8? F 0.4695(13) 0.027(3) 0.0763(6)
F9? F 0.4910(14) 0.341(2) 0.0301(5)
loop_
_geom_bond_atom_site_label_1
_geom_bond_atom_site_label_2
_geom_bond_site_symmetry_1
_geom_bond_site_symmetry_2
O1 C1 1_555 1_555
F1 C2 1_555 1_555
O2 C1 1_555 1_555
F2 C2 1_555 1_555
F3 C2 1_555 1_555
C1 C2 1_555 1_555
O3 N2 1_555 1_555
O4 N3 1_555 1_555
O5 N1 1_555 1_555
O6 N3 1_555 1_555
N1 C3 1_555 1_555
N2 C4 1_555 1_555
N3 C6 1_555 1_555
N4 H1 1_555 1_555
H2 N4 1_555 1_555
N5 C3 1_555 1_555
N6 H3 1_555 1_555
H4 N6 1_555 1_555
C3 C6 1_555 1_555
C4 N6 1_555 1_555
C5 N1 1_555 1_555
C6 C4 1_555 1_555
H5 N5 1_555 1_555
H6 N5 1_555 1_555
H7 O3 1_555 1_555
H8 O5 1_555 1_555
O7 C7 1_555 1_555
O8 C7 1_555 1_555
C7 C8 1_555 1_555
C8 F4 1_555 1_555
F5 C8 1_555 1_555
F6 C8 1_555 1_555
N2 C5 1_555 1_555
N4 C5 1_555 1_555

#END
