
#######################################################################
#
#                 Cambridge Crystallographic Data Centre
#                                CCDC 
#
#######################################################################
#
# If this CIF has been generated from an entry in the Cambridge 
# Structural Database, then it will include bibliographic, chemical, 
# crystal, experimental, refinement or atomic coordinate data resulting 
# from the CCDC's data processing and validation procedures.
#
#######################################################################

data_DIDGIG
_chemical_formula_moiety         'C18 H20'
_chemical_name_systematic        cis-9,10-Diethyl-9,10-dihydroanthracene
_symmetry_cell_setting           monoclinic
_symmetry_space_group_name_H-M   'P 21/c'
_symmetry_Int_Tables_number      14
_space_group_name_Hall           '-P 2ybc'
loop_
_symmetry_equiv_pos_site_id
_symmetry_equiv_pos_as_xyz
1 x,y,z
2 -x,1/2+y,1/2-z
3 -x,-y,-z
4 x,1/2-y,1/2+z
_cell_length_a                   12.405(4)
_cell_length_b                   7.658(1)
_cell_length_c                   15.046(5)
_cell_angle_alpha                90
_cell_angle_beta                 106.73(2)
_cell_angle_gamma                90
_cell_volume                     1368.83
_cell_formula_units_Z            4
loop_
_atom_site_label
_atom_site_type_symbol
_atom_site_fract_x
_atom_site_fract_y
_atom_site_fract_z
C1 C 0.49912(10) 0.5436(2) 0.21017(9)
C2 C 0.39735(11) 0.4858(2) 0.15264(10)
C3 C 0.39530(10) 0.3761(2) 0.07918(9)
C4 C 0.49528(10) 0.3251(1) 0.06380(8)
C5 C 0.88240(11) 0.4723(2) 0.09209(9)
C6 C 0.96571(11) 0.5978(3) 0.11895(10)
C7 C 0.96690(11) 0.7095(2) 0.19086(10)
C8 C 0.88497(10) 0.6947(2) 0.23606(9)
C9 C 0.71091(10) 0.5556(2) 0.26031(8)
C10 C 0.70697(9) 0.3209(15) 0.10408(8)
C11 C 0.60074(9) 0.4906(1) 0.19610(8)
C12 C 0.59873(9) 0.3787(1) 0.12268(8)
C13 C 0.79868(9) 0.4562(1) 0.13696(8)
C14 C 0.80047(9) 0.5681(1) 0.21054(8)
C15 C 0.74757(11) 0.4430(2) 0.34922(9)
C16 C 0.84790(12) 0.5136(3) 0.42413(9)
C17 C 0.74674(10) 0.1386(2) 0.14462(8)
C18 C 0.66621(11) -0.0084(2) 0.10100(10)
H1 H 0.5009(2) 0.628(2) 0.2602(11)
H2 H 0.3252(13) 0.525(3) 0.1628(11)
H3 H 0.3238(11) 0.335(2) 0.0361(10)
H4 H 0.4942(11) 0.252(2) 0.0100(9)
H5 H 0.8804(12) 0.391(3) 0.0406(12)
H6 H 1.0233(13) 0.606(3) 0.0880(12)
H7 H 1.0224(13) 0.801(3) 0.2083(1)
H8 H 0.8842(11) 0.778(2) 0.2859(9)
H9 H 0.6988(11) 0.673(2) 0.2819(10)
H10 H 0.6927(11) 0.306(2) 0.0353(10)
H11 H 0.7650(12) 0.320(2) 0.3307(10)
H12 H 0.6810(12) 0.432(2) 0.3730(10)
H13 H 0.8658(13) 0.441(3) 0.4823(12)
H14 H 0.8347(13) 0.636(3) 0.4396(12)
H15 H 0.9179(13) 0.518(3) 0.4031(12)
H16 H 0.7578(11) 0.143(2) 0.2135(10)
H17 H 0.8235(11) 0.113(2) 0.1330(10)
H18 H 0.6963(13) -0.122(3) 0.1217(12)
H19 H 0.6513(13) -0.007(3) 0.0282(11)
loop_
_geom_bond_atom_site_label_1
_geom_bond_atom_site_label_2
_geom_bond_site_symmetry_1
_geom_bond_site_symmetry_2
C1 C2 1_555 1_555
C2 C3 1_555 1_555
C3 C4 1_555 1_555
C4 C12 1_555 1_555
C5 C6 1_555 1_555
C6 C7 1_555 1_555
C7 C8 1_555 1_555
C8 C14 1_555 1_555
C9 C11 1_555 1_555
C10 C12 1_555 1_555
C11 C1 1_555 1_555
C12 C11 1_555 1_555
C13 C5 1_555 1_555
C14 C9 1_555 1_555
C15 C9 1_555 1_555
C16 C15 1_555 1_555
C17 C10 1_555 1_555
C18 C17 1_555 1_555
H1 C1 1_555 1_555
H2 C2 1_555 1_555
H3 C3 1_555 1_555
H4 C4 1_555 1_555
H5 C5 1_555 1_555
H6 C6 1_555 1_555
H7 C7 1_555 1_555
H8 C8 1_555 1_555
H9 C9 1_555 1_555
H10 C10 1_555 1_555
H11 C15 1_555 1_555
H12 C15 1_555 1_555
H13 C16 1_555 1_555
H14 C16 1_555 1_555
H15 C16 1_555 1_555
H16 C17 1_555 1_555
H17 C17 1_555 1_555
H18 C18 1_555 1_555
H19 C18 1_555 1_555
C10 C13 1_555 1_555
C13 C14 1_555 1_555

#END
