
#######################################################################
#
#                 Cambridge Crystallographic Data Centre
#                                CCDC 
#
#######################################################################
#
# If this CIF has been generated from an entry in the Cambridge 
# Structural Database, then it will include bibliographic, chemical, 
# crystal, experimental, refinement or atomic coordinate data resulting 
# from the CCDC's data processing and validation procedures.
#
#######################################################################

data_DIDJEH
_chemical_formula_moiety         'C13 H17 N3 O5,1.7(H2 O1)'
_chemical_name_systematic        
'2-((((2-((2-Hydroxyethyl)ammonio)ethyl)amino)(oxo)acetyl)amino)benzoate hydrate'
_symmetry_cell_setting           monoclinic
_symmetry_space_group_name_H-M   'P 21/n'
_symmetry_Int_Tables_number      14
_space_group_name_Hall           '-P 2yn'
loop_
_symmetry_equiv_pos_site_id
_symmetry_equiv_pos_as_xyz
1 x,y,z
2 1/2-x,1/2+y,1/2-z
3 -x,-y,-z
4 1/2+x,1/2-y,1/2+z
_cell_length_a                   12.7747(2)
_cell_length_b                   19.1528(3)
_cell_length_c                   14.0693(2)
_cell_angle_alpha                90
_cell_angle_beta                 110.2870(10)
_cell_angle_gamma                90
_cell_volume                     3228.82
_cell_formula_units_Z            8
loop_
_atom_site_label
_atom_site_type_symbol
_atom_site_fract_x
_atom_site_fract_y
_atom_site_fract_z
O1 O 0.32014(16) 0.37868(9) 0.51216(14)
O2 O 0.1690(2) 0.43513(12) 0.5105(2)
O3 O 0.57793(17) 0.46532(11) 0.34932(16)
O4 O 0.58292(15) 0.33164(9) 0.52003(14)
O5 O 0.65644(16) 0.16928(11) 0.12578(15)
H1 H 0.6652 0.1327 0.0823
N1 N 0.44597(17) 0.43432(10) 0.41917(15)
N2 N 0.70048(19) 0.35213(12) 0.43424(18)
N3 N 0.68058(19) 0.21822(12) 0.32202(16)
C1 C 0.2514(2) 0.42745(14) 0.4820(2)
C2 C 0.2647(2) 0.47934(13) 0.40659(19)
C3 C 0.3584(2) 0.48172(12) 0.37635(17)
C4 C 0.3627(2) 0.53083(13) 0.30369(19)
H2 H 0.4245 0.5326 0.2832
C5 C 0.2755(2) 0.57609(14) 0.2632(2)
H3 H 0.2784 0.6082 0.2145
C6 C 0.1847(3) 0.57507(15) 0.2927(2)
H4 H 0.1267 0.6067 0.2653
C7 C 0.1794(3) 0.52689(15) 0.3634(2)
H5 H 0.1169 0.5262 0.3828
C8 C 0.5427(2) 0.42825(12) 0.40301(18)
C9 C 0.6115(2) 0.36546(13) 0.45986(19)
C10 C 0.7709(2) 0.29248(16) 0.4735(2)
H6 H 0.7942 0.2927 0.5469
H7 H 0.8374 0.2964 0.4555
C11 C 0.7139(2) 0.22378(14) 0.43408(19)
H8 H 0.7640 0.1857 0.4654
H9 H 0.6480 0.2193 0.4531
C12 C 0.6295(2) 0.14912(14) 0.2846(2)
H10 H 0.5732 0.1385 0.3143
H11 H 0.6864 0.1132 0.3055
C13 C 0.5775(2) 0.14922(17) 0.1720(2)
H12 H 0.5492 0.1029 0.1488
H13 H 0.5150 0.1814 0.1516
H14 H 0.434(2) 0.4012(15) 0.466(2)
H15 H 0.708(3) 0.3767(18) 0.383(3)
H16 H 0.632(3) 0.2554(16) 0.283(2)
H17 H 0.739(3) 0.2215(14) 0.303(2)
O6 O 0.52688(16) 0.31482(11) 0.20702(17)
O7 O 0.58156(17) 0.39039(12) 0.11628(18)
O8 O 0.18148(15) 0.32216(11) 0.27594(15)
O9 O 0.42707(16) 0.22257(10) 0.35050(15)
O10 O 0.39900(16) 0.31340(11) 0.83754(14)
H18 H 0.4640 0.2924 0.8886
N4 N 0.33307(18) 0.32642(11) 0.22364(16)
N5 N 0.2900(2) 0.22540(12) 0.41786(16)
N6 N 0.39519(17) 0.26566(11) 0.63758(16)
C14 C 0.5099(2) 0.36626(15) 0.1495(2)
C15 C 0.3963(2) 0.40039(13) 0.11550(19)
C16 C 0.3107(2) 0.38041(13) 0.15199(18)
C17 C 0.2078(2) 0.41350(15) 0.1156(2)
H19 H 0.1518 0.4011 0.1405
C18 C 0.1884(3) 0.46466(16) 0.0427(2)
H20 H 0.1189 0.4861 0.0179
C19 C 0.2706(3) 0.48436(17) 0.0062(3)
H21 H 0.2569 0.5190 -0.0430
C20 C 0.3731(3) 0.45263(15) 0.0427(2)
H22 H 0.4287 0.4665 0.0180
C21 C 0.2738(2) 0.30299(14) 0.27864(18)
C22 C 0.3388(2) 0.24592(13) 0.35292(18)
C23 C 0.3447(2) 0.17742(14) 0.4991(2)
H23 H 0.3750 0.1389 0.4721
H24 H 0.2897 0.1585 0.5253
C24 C 0.4377(2) 0.21061(14) 0.5852(2)
H25 H 0.4756 0.1748 0.6337
H26 H 0.4916 0.2311 0.5589
C25 C 0.4880(2) 0.30591(14) 0.71217(19)
H27 H 0.5256 0.3338 0.6762
H28 H 0.5420 0.2737 0.7558
C26 C 0.4445(2) 0.35264(15) 0.7754(2)
H29 H 0.5047 0.3818 0.8178
H30 H 0.3873 0.3830 0.7314
H31 H 0.404(2) 0.3073(13) 0.2390(19)
H32 H 0.225(2) 0.2433(13) 0.414(2)
H33 H 0.354(2) 0.3002(14) 0.593(2)
H34 H 0.348(2) 0.2463(13) 0.672(2)
O11 O 0.78904(18) 0.33146(13) 0.23012(17)
H35 H 0.7216 0.3544 0.1976
H36 H 0.8455 0.3679 0.2593
O12 O 0.59163(18) 0.27781(13) -0.01082(16)
H37 H 0.6130 0.2400 0.0351
H38 H 0.5974 0.3143 0.0283
O13 O 0.7514(6) 0.4952(3) 0.2672(6)
H39 H 0.7066 0.4951 0.3010
H40 H 0.7124 0.4700 0.2101
O14 O 0.9195(5) 0.4269(3) 0.3973(4)
H41 H 0.9839 0.4477 0.4299
H42 H 0.8784 0.4587 0.3576
loop_
_geom_bond_atom_site_label_1
_geom_bond_atom_site_label_2
_geom_bond_site_symmetry_1
_geom_bond_site_symmetry_2
O1 C1 1_555 1_555
O2 C1 1_555 1_555
O3 C8 1_555 1_555
O4 C9 1_555 1_555
O5 H1 1_555 1_555
N1 C3 1_555 1_555
N2 C9 1_555 1_555
N3 C11 1_555 1_555
C1 C2 1_555 1_555
C2 C3 1_555 1_555
C3 C4 1_555 1_555
C4 H2 1_555 1_555
C5 C4 1_555 1_555
H3 C5 1_555 1_555
C6 C5 1_555 1_555
H4 C6 1_555 1_555
C7 C2 1_555 1_555
H5 C7 1_555 1_555
C8 N1 1_555 1_555
C9 C8 1_555 1_555
C10 N2 1_555 1_555
H6 C10 1_555 1_555
H7 C10 1_555 1_555
C11 C10 1_555 1_555
H8 C11 1_555 1_555
H9 C11 1_555 1_555
C12 N3 1_555 1_555
H10 C12 1_555 1_555
H11 C12 1_555 1_555
C13 O5 1_555 1_555
H12 C13 1_555 1_555
H13 C13 1_555 1_555
H14 N1 1_555 1_555
H15 N2 1_555 1_555
H16 N3 1_555 1_555
H17 N3 1_555 1_555
O6 C14 1_555 1_555
O7 C14 1_555 1_555
O8 C21 1_555 1_555
O9 C22 1_555 1_555
O10 H18 1_555 1_555
N4 C16 1_555 1_555
N5 C22 1_555 1_555
N6 C24 1_555 1_555
C14 C15 1_555 1_555
C15 C16 1_555 1_555
C16 C17 1_555 1_555
C17 H19 1_555 1_555
C18 C17 1_555 1_555
H20 C18 1_555 1_555
C19 C18 1_555 1_555
H21 C19 1_555 1_555
C20 C15 1_555 1_555
H22 C20 1_555 1_555
C21 N4 1_555 1_555
C22 C21 1_555 1_555
C23 N5 1_555 1_555
H23 C23 1_555 1_555
H24 C23 1_555 1_555
C24 C23 1_555 1_555
H25 C24 1_555 1_555
H26 C24 1_555 1_555
C25 N6 1_555 1_555
H27 C25 1_555 1_555
H28 C25 1_555 1_555
C26 O10 1_555 1_555
H29 C26 1_555 1_555
H30 C26 1_555 1_555
H31 N4 1_555 1_555
H32 N5 1_555 1_555
H33 N6 1_555 1_555
H34 N6 1_555 1_555
O11 H35 1_555 1_555
H36 O11 1_555 1_555
O12 H37 1_555 1_555
H38 O12 1_555 1_555
O13 H39 1_555 1_555
H40 O13 1_555 1_555
O14 H41 1_555 1_555
H42 O14 1_555 1_555
C6 C7 1_555 1_555
C12 C13 1_555 1_555
C19 C20 1_555 1_555
C25 C26 1_555 1_555

#END
