
#######################################################################
#
#                 Cambridge Crystallographic Data Centre
#                                CCDC 
#
#######################################################################
#
# If this CIF has been generated from an entry in the Cambridge 
# Structural Database, then it will include bibliographic, chemical, 
# crystal, experimental, refinement or atomic coordinate data resulting 
# from the CCDC's data processing and validation procedures.
#
#######################################################################

data_DIDKIN
_chemical_formula_moiety         'C17 H26 O7'
_chemical_name_systematic        
'isopropyl 7-ethoxy-2,2-dimethyl-4-oxohexahydro-2H-furo[2,3-e][1,3]benzodioxole-8b(3aH)-carboxylate'
_symmetry_cell_setting           orthorhombic
_symmetry_space_group_name_H-M   'P 21 21 21'
_symmetry_Int_Tables_number      19
_space_group_name_Hall           'P 2ac 2ab'
loop_
_symmetry_equiv_pos_site_id
_symmetry_equiv_pos_as_xyz
1 x,y,z
2 1/2-x,-y,1/2+z
3 -x,1/2+y,1/2-z
4 1/2+x,1/2-y,-z
_cell_length_a                   8.9598(3)
_cell_length_b                   11.7903(3)
_cell_length_c                   17.2249(5)
_cell_angle_alpha                90
_cell_angle_beta                 90
_cell_angle_gamma                90
_cell_volume                     1819.62
_exptl_crystal_colour            colorless
_cell_formula_units_Z            4
loop_
_atom_site_label
_atom_site_type_symbol
_atom_site_fract_x
_atom_site_fract_y
_atom_site_fract_z
O1 O 0.3030(2) 0.47611(14) 0.59272(10)
O2 O 0.3477(2) 0.63097(14) 0.67106(11)
O3 O 0.1446(2) 0.33004(16) 0.70078(12)
O4 O 0.5718(2) 0.36927(16) 0.59128(11)
O5 O 0.4687(3) 0.60606(18) 0.82491(12)
O6 O 0.6207(2) 0.4490(2) 0.70618(13)
O7 O 0.0505(2) 0.37318(19) 0.82309(12)
C1 C 0.4082(3) 0.5276(2) 0.79328(15)
C2 C 0.5356(3) 0.4216(2) 0.65605(15)
C3 C 0.3263(3) 0.53446(19) 0.71762(14)
H1 H 0.2194 0.5289 0.7290
C4 C 0.3656(3) 0.4383(2) 0.66331(14)
C5 C 0.3042(3) 0.3276(2) 0.69510(16)
H2 H 0.3348 0.2647 0.6614
C6 C 0.3014(3) 0.5981(2) 0.59404(16)
C7 C 0.0986(4) 0.2866(2) 0.77396(18)
H3 H 0.0193 0.2302 0.7670
C8 C 0.3898(4) 0.4125(3) 0.83072(16)
H4 H 0.3069 0.4177 0.8668
H5 H 0.4786 0.3980 0.8613
C9 C 0.3627(3) 0.3067(2) 0.77862(17)
H6 H 0.4547 0.2619 0.7761
C10 C 0.7275(3) 0.3309(3) 0.58342(19)
H7 H 0.7611 0.2998 0.6332
C11 C 0.2358(4) 0.2318(2) 0.80855(18)
H8 H 0.2469 0.1542 0.7906
H9 H 0.2318 0.2322 0.8648
C12 C 0.1447(4) 0.6350(3) 0.5775(2)
H10 H 0.1134 0.6047 0.5284
H11 H 0.1404 0.7163 0.5758
H12 H 0.0798 0.6077 0.6177
C13 C 0.4168(5) 0.6439(3) 0.5381(2)
H13 H 0.5131 0.6136 0.5511
H14 H 0.4196 0.7252 0.5417
H15 H 0.3910 0.6221 0.4861
C14 C 0.7225(5) 0.2376(4) 0.5245(2)
H16 H 0.6540 0.1800 0.5414
H17 H 0.8202 0.2052 0.5189
H18 H 0.6901 0.2676 0.4755
C15 C -0.0874(5) 0.4231(4) 0.7994(2)
H19 H -0.1633 0.3649 0.7942
H20 H -0.0753 0.4600 0.7494
C16 C 0.8261(5) 0.4277(4) 0.5614(3)
H21 H 0.7969 0.4562 0.5114
H22 H 0.9278 0.4023 0.5593
H23 H 0.8170 0.4870 0.5993
C17 C -0.1328(8) 0.5060(6) 0.8578(3)
H24 H -0.2157 0.5493 0.8386
H25 H -0.0508 0.5560 0.8688
H26 H -0.1616 0.4673 0.9045
loop_
_geom_bond_atom_site_label_1
_geom_bond_atom_site_label_2
_geom_bond_site_symmetry_1
_geom_bond_site_symmetry_2
O1 C4 1_555 1_555
O2 C3 1_555 1_555
O3 C5 1_555 1_555
O4 C2 1_555 1_555
O5 C1 1_555 1_555
O6 C2 1_555 1_555
O7 C7 1_555 1_555
C1 C3 1_555 1_555
C2 C4 1_555 1_555
C3 H1 1_555 1_555
C4 C3 1_555 1_555
C5 C4 1_555 1_555
H2 C5 1_555 1_555
C6 O1 1_555 1_555
C7 O3 1_555 1_555
H3 C7 1_555 1_555
C8 C1 1_555 1_555
H4 C8 1_555 1_555
H5 C8 1_555 1_555
C9 C5 1_555 1_555
H6 C9 1_555 1_555
C10 O4 1_555 1_555
H7 C10 1_555 1_555
C11 C7 1_555 1_555
H8 C11 1_555 1_555
H9 C11 1_555 1_555
C12 C6 1_555 1_555
H10 C12 1_555 1_555
H11 C12 1_555 1_555
H12 C12 1_555 1_555
C13 C6 1_555 1_555
H13 C13 1_555 1_555
H14 C13 1_555 1_555
H15 C13 1_555 1_555
C14 C10 1_555 1_555
H16 C14 1_555 1_555
H17 C14 1_555 1_555
H18 C14 1_555 1_555
C15 O7 1_555 1_555
H19 C15 1_555 1_555
H20 C15 1_555 1_555
C16 C10 1_555 1_555
H21 C16 1_555 1_555
H22 C16 1_555 1_555
H23 C16 1_555 1_555
C17 C15 1_555 1_555
H24 C17 1_555 1_555
H25 C17 1_555 1_555
H26 C17 1_555 1_555
O2 C6 1_555 1_555
C8 C9 1_555 1_555
C9 C11 1_555 1_555

#END
