
#######################################################################
#
#                 Cambridge Crystallographic Data Centre
#                                CCDC 
#
#######################################################################
#
# If this CIF has been generated from an entry in the Cambridge 
# Structural Database, then it will include bibliographic, chemical, 
# crystal, experimental, refinement or atomic coordinate data resulting 
# from the CCDC's data processing and validation procedures.
#
#######################################################################

data_DIDLIO
_chemical_formula_moiety         'C16 H32 Li1 O8 1+,C12 H20 P1 1-'
_chemical_name_systematic        
'bis(12-crown-4)-lithium 3,4-diethyl-2,5-bis(trimethylsilyl)phosphol-1-ide'
_symmetry_cell_setting           triclinic
_symmetry_space_group_name_H-M   'P -1'
_symmetry_Int_Tables_number      2
_space_group_name_Hall           '-P 1'
loop_
_symmetry_equiv_pos_site_id
_symmetry_equiv_pos_as_xyz
1 x,y,z
2 -x,-y,-z
_cell_length_a                   9.9417(4)
_cell_length_b                   10.6701(4)
_cell_length_c                   15.8451(7)
_cell_angle_alpha                73.850(4)
_cell_angle_beta                 77.502(4)
_cell_angle_gamma                70.750(4)
_cell_volume                     1509.75
_exptl_crystal_colour            'metallic colorless'
_exptl_crystal_description       block
_cell_formula_units_Z            2
loop_
_atom_site_label
_atom_site_type_symbol
_atom_site_fract_x
_atom_site_fract_y
_atom_site_fract_z
O1 O -0.16624(12) 0.46398(12) 0.33377(8)
O2 O 0.00094(11) 0.60020(11) 0.36839(8)
O3 O 0.04816(11) 0.72437(12) 0.19121(8)
O4 O -0.12155(11) 0.59010(12) 0.15498(8)
O5 O -0.33238(11) 0.70547(11) 0.42153(8)
O6 O -0.17553(11) 0.88944(11) 0.33490(7)
O7 O -0.24746(11) 0.89472(11) 0.17556(8)
O8 O -0.40249(11) 0.71238(11) 0.26049(8)
C1 C -0.16213(18) 0.46696(17) 0.18347(12)
H1 H -0.1237 0.4146 0.1380
H2 H -0.2662 0.4888 0.1913
C2 C -0.10796(19) 0.38216(17) 0.26922(12)
H3 H -0.1391 0.3003 0.2881
H4 H -0.0037 0.3557 0.2617
C3 C -0.09454(18) 0.41341(17) 0.41049(12)
H5 H -0.0714 0.3148 0.4265
H6 H -0.1582 0.4485 0.4597
C4 C 0.04104(18) 0.45457(16) 0.39427(13)
H7 H 0.0862 0.4231 0.4478
H8 H 0.1083 0.4154 0.3477
C5 C 0.12101(16) 0.65251(17) 0.33232(12)
H9 H 0.1999 0.6004 0.3662
H10 H 0.0950 0.7464 0.3373
C6 C 0.16906(16) 0.64558(18) 0.23654(12)
H11 H 0.2497 0.6829 0.2125
H12 H 0.1981 0.5520 0.2305
C7 C 0.05997(17) 0.70071(18) 0.10518(11)
H13 H 0.1576 0.6929 0.0755
H14 H -0.0040 0.7777 0.0702
C8 C 0.02245(17) 0.57307(18) 0.11081(12)
H15 H 0.0293 0.5592 0.0519
H16 H 0.0877 0.4947 0.1439
C9 C -0.51539(16) 0.74187(17) 0.33119(11)
H17 H -0.5954 0.7116 0.3275
H18 H -0.5494 0.8392 0.3279
C10 C -0.45478(17) 0.66724(17) 0.41701(11)
H19 H -0.5281 0.6879 0.4667
H20 H -0.4275 0.5698 0.4214
C11 C -0.36917(17) 0.83365(16) 0.44597(11)
H21 H -0.4067 0.8243 0.5085
H22 H -0.4418 0.9013 0.4119
C12 C -0.23369(17) 0.87580(17) 0.42652(11)
H23 H -0.2541 0.9620 0.4428
H24 H -0.1631 0.8084 0.4621
C13 C -0.24122(16) 1.01777(15) 0.28072(11)
H25 H -0.2061 1.0883 0.2881
H26 H -0.3448 1.0425 0.2970
C14 C -0.20229(17) 1.00259(16) 0.18621(11)
H27 H -0.2479 1.0872 0.1474
H28 H -0.0990 0.9837 0.1695
C15 C -0.39777(15) 0.93367(17) 0.16734(11)
H29 H -0.4163 0.9935 0.1099
H30 H -0.4553 0.9806 0.2133
C16 C -0.43286(17) 0.80318(17) 0.17718(11)
H31 H -0.5339 0.8234 0.1726
H32 H -0.3769 0.7595 0.1295
Li1 Li -0.1775(3) 0.7003(3) 0.2812(2)
P1 P 0.33057(4) 0.16060(4) 0.31845(3)
C17 C 0.23295(15) 0.11891(15) 0.25477(10)
C18 C 0.24646(15) 0.18905(16) 0.16636(10)
C19 C 0.33625(15) 0.27626(15) 0.14826(11)
C20 C 0.39091(15) 0.27214(15) 0.22371(11)
C21 C 0.14292(16) 0.02125(17) 0.29239(11)
H33 H 0.1922 -0.0623 0.2722
H34 H 0.0523 0.0606 0.2685
C22 C 0.11124(19) -0.01410(19) 0.39305(12)
H35 H 0.0531 -0.0757 0.4111
H36 H 0.0606 0.0675 0.4140
H37 H 0.2000 -0.0565 0.4176
C23 C 0.16913(17) 0.17529(17) 0.09807(11)
H38 H 0.1690 0.2511 0.0472
H39 H 0.0698 0.1815 0.1235
C24 C 0.23547(19) 0.04260(19) 0.06634(12)
H40 H 0.1860 0.0442 0.0201
H41 H 0.2269 -0.0328 0.1150
H42 H 0.3352 0.0330 0.0439
C25 C 0.37254(17) 0.36196(17) 0.05737(11)
H43 H 0.3758 0.4484 0.0642
H44 H 0.2963 0.3808 0.0224
C26 C 0.51537(17) 0.29487(18) 0.00679(11)
H45 H 0.5305 0.3532 -0.0505
H46 H 0.5133 0.2091 -0.0004
H47 H 0.5922 0.2801 0.0394
C27 C 0.49191(16) 0.35210(16) 0.22395(11)
H48 H 0.4588 0.4434 0.1882
H49 H 0.5869 0.3093 0.1962
C28 C 0.50407(17) 0.36238(18) 0.31616(12)
H50 H 0.5627 0.4207 0.3106
H51 H 0.5471 0.2733 0.3500
H52 H 0.4099 0.3996 0.3457
loop_
_geom_bond_atom_site_label_1
_geom_bond_atom_site_label_2
_geom_bond_site_symmetry_1
_geom_bond_site_symmetry_2
O1 C2 1_555 1_555
O2 C4 1_555 1_555
O3 C6 1_555 1_555
O4 C1 1_555 1_555
O5 C10 1_555 1_555
O6 C12 1_555 1_555
O7 C14 1_555 1_555
O8 C9 1_555 1_555
C1 H1 1_555 1_555
H2 C1 1_555 1_555
C2 C1 1_555 1_555
H3 C2 1_555 1_555
H4 C2 1_555 1_555
C3 O1 1_555 1_555
H5 C3 1_555 1_555
H6 C3 1_555 1_555
C4 C3 1_555 1_555
H7 C4 1_555 1_555
H8 C4 1_555 1_555
C5 O2 1_555 1_555
H9 C5 1_555 1_555
H10 C5 1_555 1_555
C6 C5 1_555 1_555
H11 C6 1_555 1_555
H12 C6 1_555 1_555
C7 O3 1_555 1_555
H13 C7 1_555 1_555
H14 C7 1_555 1_555
C8 O4 1_555 1_555
H15 C8 1_555 1_555
H16 C8 1_555 1_555
C9 H17 1_555 1_555
H18 C9 1_555 1_555
C10 C9 1_555 1_555
H19 C10 1_555 1_555
H20 C10 1_555 1_555
C11 O5 1_555 1_555
H21 C11 1_555 1_555
H22 C11 1_555 1_555
C12 C11 1_555 1_555
H23 C12 1_555 1_555
H24 C12 1_555 1_555
C13 O6 1_555 1_555
H25 C13 1_555 1_555
H26 C13 1_555 1_555
C14 C13 1_555 1_555
H27 C14 1_555 1_555
H28 C14 1_555 1_555
C15 O7 1_555 1_555
H29 C15 1_555 1_555
H30 C15 1_555 1_555
C16 O8 1_555 1_555
H31 C16 1_555 1_555
H32 C16 1_555 1_555
Li1 O1 1_555 1_555
P1 C17 1_555 1_555
C17 C18 1_555 1_555
C18 C19 1_555 1_555
C19 C20 1_555 1_555
C20 P1 1_555 1_555
C21 C17 1_555 1_555
H33 C21 1_555 1_555
H34 C21 1_555 1_555
C22 C21 1_555 1_555
H35 C22 1_555 1_555
H36 C22 1_555 1_555
H37 C22 1_555 1_555
C23 C18 1_555 1_555
H38 C23 1_555 1_555
H39 C23 1_555 1_555
C24 C23 1_555 1_555
H40 C24 1_555 1_555
H41 C24 1_555 1_555
H42 C24 1_555 1_555
C25 C19 1_555 1_555
H43 C25 1_555 1_555
H44 C25 1_555 1_555
C26 C25 1_555 1_555
H45 C26 1_555 1_555
H46 C26 1_555 1_555
H47 C26 1_555 1_555
C27 C20 1_555 1_555
H48 C27 1_555 1_555
H49 C27 1_555 1_555
C28 C27 1_555 1_555
H50 C28 1_555 1_555
H51 C28 1_555 1_555
H52 C28 1_555 1_555
O2 Li1 1_555 1_555
O3 Li1 1_555 1_555
O4 Li1 1_555 1_555
O5 Li1 1_555 1_555
O6 Li1 1_555 1_555
O7 Li1 1_555 1_555
O8 Li1 1_555 1_555
C7 C8 1_555 1_555
C15 C16 1_555 1_555

#END
