
#######################################################################
#
#                 Cambridge Crystallographic Data Centre
#                                CCDC 
#
#######################################################################
#
# If this CIF has been generated from an entry in the Cambridge 
# Structural Database, then it will include bibliographic, chemical, 
# crystal, experimental, refinement or atomic coordinate data resulting 
# from the CCDC's data processing and validation procedures.
#
#######################################################################

data_DIDMAH
_chemical_formula_moiety         'C21 H28 N2 O2'
_chemical_name_systematic        
'n-butyl [4-(dimethylamino)phenyl][(4-methylphenyl)amino]acetate'
_symmetry_cell_setting           monoclinic
_symmetry_space_group_name_H-M   'C 2/c'
_symmetry_Int_Tables_number      15
_space_group_name_Hall           '-C 2yn'
loop_
_symmetry_equiv_pos_site_id
_symmetry_equiv_pos_as_xyz
1 x,y,z
2 -x,y,1/2-z
3 1/2+x,1/2+y,z
4 1/2-x,1/2+y,1/2-z
5 -x,-y,-z
6 x,-y,1/2+z
7 1/2-x,1/2-y,-z
8 1/2+x,1/2-y,1/2+z
_cell_length_a                   23.0931(6)
_cell_length_b                   6.0038(2)
_cell_length_c                   29.1140(7)
_cell_angle_alpha                90
_cell_angle_beta                 99.6740(10)
_cell_angle_gamma                90
_cell_volume                     3979.15
_cell_formula_units_Z            8
loop_
_atom_site_label
_atom_site_type_symbol
_atom_site_fract_x
_atom_site_fract_y
_atom_site_fract_z
C1 C 0.12279(14) 0.6755(5) 0.75161(10)
H1 H 0.1477 0.8047 0.7552
H2 H 0.1060 0.6546 0.7793
H3 H 0.0919 0.6960 0.7254
C2 C 0.18221(8) 0.4674(3) 0.70467(6)
C3 C 0.17992(9) 0.6409(3) 0.67249(7)
H4 H 0.1605 0.7720 0.6776
C4 C 0.20580(9) 0.6221(3) 0.63341(7)
H5 H 0.2036 0.7410 0.6127
C5 C 0.23506(7) 0.4306(3) 0.62415(5)
C6 C 0.26100(7) 0.4093(3) 0.57973(6)
H6 H 0.2839 0.2713 0.5815
C7 C 0.21208(8) 0.3935(3) 0.53791(6)
C8 C 0.12636(9) 0.1914(4) 0.50663(7)
H7 H 0.1380 0.1792 0.4762
H8 H 0.0997 0.3165 0.5062
C9 C 0.09726(10) -0.0197(4) 0.51847(9)
H9 H 0.0655 -0.0544 0.4932
H10 H 0.1256 -0.1400 0.5204
C10 C 0.07341(12) -0.0118(5) 0.56247(10)
H11 H 0.0444 0.1061 0.5605
H12 H 0.1049 0.0240 0.5879
C11 C 0.04534(15) -0.2297(6) 0.57319(14)
H13 H 0.0145 -0.2673 0.5480
H14 H 0.0293 -0.2144 0.6014
H15 H 0.0744 -0.3454 0.5770
C12 C 0.35346(7) 0.6239(3) 0.59832(6)
C13 C 0.38387(8) 0.8190(3) 0.59308(7)
H16 H 0.3668 0.9274 0.5723
C14 C 0.43901(9) 0.8539(4) 0.61825(7)
H17 H 0.4584 0.9860 0.6140
C15 C 0.46652(9) 0.6996(4) 0.64969(7)
C16 C 0.52707(11) 0.7399(6) 0.67759(11)
H18 H 0.5249 0.7391 0.7102
H19 H 0.5414 0.8817 0.6692
H20 H 0.5533 0.6245 0.6710
C17 C 0.43611(8) 0.5070(4) 0.65490(7)
H21 H 0.4535 0.3995 0.6758
C18 C 0.38058(8) 0.4678(3) 0.63009(6)
H22 H 0.3612 0.3360 0.6347
C19 C 0.21235(8) 0.2756(3) 0.69540(6)
H23 H 0.2154 0.1570 0.7162
C20 C 0.23760(8) 0.2594(3) 0.65596(6)
H24 H 0.2570 0.1286 0.6506
C21 C 0.15894(12) 0.3062(4) 0.77661(8)
H25 H 0.1386 0.1793 0.7616
H26 H 0.1406 0.3515 0.8024
H27 H 0.1992 0.2674 0.7877
N1 N 0.29877(6) 0.5910(3) 0.57184(5)
H28 H 0.2867 0.6829 0.5496
N2 N 0.15656(8) 0.4847(3) 0.74404(6)
O1 O 0.17759(6) 0.2220(3) 0.54251(4)
O2 O 0.20548(6) 0.5158(3) 0.50552(5)
loop_
_geom_bond_atom_site_label_1
_geom_bond_atom_site_label_2
_geom_bond_site_symmetry_1
_geom_bond_site_symmetry_2
C1 H1 1_555 1_555
H2 C1 1_555 1_555
H3 C1 1_555 1_555
C2 C3 1_555 1_555
C3 H4 1_555 1_555
C4 C3 1_555 1_555
H5 C4 1_555 1_555
C5 C4 1_555 1_555
C6 C5 1_555 1_555
H6 C6 1_555 1_555
C7 C6 1_555 1_555
C8 H7 1_555 1_555
H8 C8 1_555 1_555
C9 C8 1_555 1_555
H9 C9 1_555 1_555
H10 C9 1_555 1_555
C10 C9 1_555 1_555
H11 C10 1_555 1_555
H12 C10 1_555 1_555
C11 C10 1_555 1_555
H13 C11 1_555 1_555
H14 C11 1_555 1_555
H15 C11 1_555 1_555
C12 C13 1_555 1_555
C13 H16 1_555 1_555
C14 C13 1_555 1_555
H17 C14 1_555 1_555
C15 C14 1_555 1_555
C16 C15 1_555 1_555
H18 C16 1_555 1_555
H19 C16 1_555 1_555
H20 C16 1_555 1_555
C17 C15 1_555 1_555
H21 C17 1_555 1_555
C18 C12 1_555 1_555
H22 C18 1_555 1_555
C19 C2 1_555 1_555
H23 C19 1_555 1_555
C20 C5 1_555 1_555
H24 C20 1_555 1_555
C21 H25 1_555 1_555
H26 C21 1_555 1_555
H27 C21 1_555 1_555
N1 C6 1_555 1_555
H28 N1 1_555 1_555
N2 C1 1_555 1_555
O1 C7 1_555 1_555
O2 C7 1_555 1_555
C2 N2 1_555 1_555
C8 O1 1_555 1_555
C12 N1 1_555 1_555
C17 C18 1_555 1_555
C19 C20 1_555 1_555
C21 N2 1_555 1_555

#END
