
#######################################################################
#
#                 Cambridge Crystallographic Data Centre
#                                CCDC 
#
#######################################################################
#
# If this CIF has been generated from an entry in the Cambridge 
# Structural Database, then it will include bibliographic, chemical, 
# crystal, experimental, refinement or atomic coordinate data resulting 
# from the CCDC's data processing and validation procedures.
#
#######################################################################

data_DIDNAI01
_chemical_formula_moiety         'C20 H14 O2,C12 H8 N2'
_chemical_name_systematic        "[1,1'-binaphthalene]-2,2'-diol phenazine"
_symmetry_cell_setting           monoclinic
_symmetry_space_group_name_H-M   'P 21'
_symmetry_Int_Tables_number      4
_space_group_name_Hall           'P 2yb'
loop_
_symmetry_equiv_pos_site_id
_symmetry_equiv_pos_as_xyz
1 x,y,z
2 -x,1/2+y,-z
_cell_length_a                   10.765(5)
_cell_length_b                   9.327(4)
_cell_length_c                   11.384(5)
_cell_angle_alpha                90
_cell_angle_beta                 93.444(6)
_cell_angle_gamma                90
_cell_volume                     1140.95
_exptl_crystal_colour            yellow
_exptl_crystal_description       plate
_cell_formula_units_Z            2
loop_
_atom_site_label
_atom_site_type_symbol
_atom_site_fract_x
_atom_site_fract_y
_atom_site_fract_z
O1 O 0.8581(2) 0.6706(2) 0.8718(2)
H1 H 0.805(4) 0.708(5) 0.811(4)
O2 O 0.7656(2) 0.4620(3) 0.55161(19)
H2 H 0.8156 0.4293 0.6045
C1 C 0.8312(3) 0.5265(3) 0.8781(3)
C2 C 0.9037(3) 0.4471(4) 0.9626(3)
H3 H 0.9644 0.4943 1.0128
C3 C 0.8868(3) 0.3023(4) 0.9725(3)
H4 H 0.9374 0.2492 1.0281
C4 C 0.7946(3) 0.2311(4) 0.9006(3)
C5 C 0.7734(3) 0.0810(4) 0.9109(3)
H5 H 0.8254 0.0253 0.9636
C6 C 0.6782(3) 0.0163(4) 0.8451(3)
H6 H 0.6651 -0.0840 0.8520
C7 C 0.5997(3) 0.0975(4) 0.7674(3)
H7 H 0.5332 0.0522 0.7231
C8 C 0.6191(3) 0.2418(3) 0.7555(3)
H8 H 0.5653 0.2957 0.7031
C9 C 0.7177(3) 0.3120(3) 0.8198(3)
C10 C 0.7394(3) 0.4630(3) 0.8070(3)
C11 C 0.6773(3) 0.5430(3) 0.6018(3)
C12 C 0.6010(3) 0.6247(3) 0.5204(3)
H9 H 0.6142 0.6203 0.4387
C13 C 0.5086(3) 0.7094(3) 0.5596(3)
H10 H 0.4577 0.7626 0.5042
C14 C 0.4870(3) 0.7198(3) 0.6806(3)
C15 C 0.3918(3) 0.8081(4) 0.7229(3)
H11 H 0.3390 0.8606 0.6686
C16 C 0.3753(3) 0.8185(4) 0.8395(3)
H12 H 0.3119 0.8790 0.8664
C17 C 0.4519(3) 0.7396(4) 0.9213(3)
H13 H 0.4402 0.7482 1.0030
C18 C 0.5428(3) 0.6510(3) 0.8838(3)
H14 H 0.5918 0.5964 0.9397
C19 C 0.5646(3) 0.6398(3) 0.7627(3)
C20 C 0.6612(3) 0.5494(3) 0.7209(3)
N1 N 1.1254(3) 0.0610(3) 0.7315(3)
N2 N 0.9485(3) 0.2706(3) 0.6491(2)
C21 C 1.1452(3) 0.2022(4) 0.7486(3)
C22 C 1.2583(4) 0.2470(5) 0.8069(3)
H15 H 1.3181 0.1778 0.8342
C23 C 1.2818(4) 0.3894(5) 0.8240(4)
H16 H 1.3575 0.4192 0.8637
C24 C 1.1927(4) 0.4938(4) 0.7825(3)
H17 H 1.2107 0.5926 0.7944
C25 C 1.0842(4) 0.4558(4) 0.7268(3)
H18 H 1.0262 0.5273 0.7006
C26 C 1.0560(3) 0.3076(4) 0.7071(3)
C27 C 0.9295(3) 0.1283(3) 0.6294(3)
C28 C 0.8210(3) 0.0834(4) 0.5639(3)
H19 H 0.7622 0.1523 0.5340
C29 C 0.8005(4) -0.0601(4) 0.5434(3)
H20 H 0.7273 -0.0903 0.4995
C30 C 0.8884(4) -0.1639(4) 0.5878(3)
H21 H 0.8723 -0.2627 0.5735
C31 C 0.9937(4) -0.1251(4) 0.6494(3)
H22 H 1.0514 -0.1961 0.6774
C32 C 1.0187(3) 0.0242(4) 0.6730(3)
loop_
_geom_bond_atom_site_label_1
_geom_bond_atom_site_label_2
_geom_bond_site_symmetry_1
_geom_bond_site_symmetry_2
O1 H1 1_555 1_555
O2 H2 1_555 1_555
C1 O1 1_555 1_555
C2 C1 1_555 1_555
H3 C2 1_555 1_555
C3 C2 1_555 1_555
H4 C3 1_555 1_555
C4 C3 1_555 1_555
C5 C4 1_555 1_555
H5 C5 1_555 1_555
C6 C5 1_555 1_555
H6 C6 1_555 1_555
C7 C6 1_555 1_555
H7 C7 1_555 1_555
C8 C7 1_555 1_555
H8 C8 1_555 1_555
C9 C4 1_555 1_555
C10 C1 1_555 1_555
C11 O2 1_555 1_555
C12 C11 1_555 1_555
H9 C12 1_555 1_555
C13 C12 1_555 1_555
H10 C13 1_555 1_555
C14 C13 1_555 1_555
C15 C14 1_555 1_555
H11 C15 1_555 1_555
C16 C15 1_555 1_555
H12 C16 1_555 1_555
C17 C16 1_555 1_555
H13 C17 1_555 1_555
C18 C17 1_555 1_555
H14 C18 1_555 1_555
C19 C14 1_555 1_555
C20 C10 1_555 1_555
N1 C21 1_555 1_555
N2 C26 1_555 1_555
C21 C22 1_555 1_555
C22 H15 1_555 1_555
C23 C22 1_555 1_555
H16 C23 1_555 1_555
C24 C23 1_555 1_555
H17 C24 1_555 1_555
C25 C24 1_555 1_555
H18 C25 1_555 1_555
C26 C21 1_555 1_555
C27 N2 1_555 1_555
C28 C27 1_555 1_555
H19 C28 1_555 1_555
C29 C28 1_555 1_555
H20 C29 1_555 1_555
C30 C29 1_555 1_555
H21 C30 1_555 1_555
C31 C30 1_555 1_555
H22 C31 1_555 1_555
C32 N1 1_555 1_555
C8 C9 1_555 1_555
C9 C10 1_555 1_555
C11 C20 1_555 1_555
C18 C19 1_555 1_555
C19 C20 1_555 1_555
C25 C26 1_555 1_555
C27 C32 1_555 1_555
C31 C32 1_555 1_555

#END
