
#######################################################################
#
#                 Cambridge Crystallographic Data Centre
#                                CCDC 
#
#######################################################################
#
# If this CIF has been generated from an entry in the Cambridge 
# Structural Database, then it will include bibliographic, chemical, 
# crystal, experimental, refinement or atomic coordinate data resulting 
# from the CCDC's data processing and validation procedures.
#
#######################################################################

data_DIDQOY
_chemical_formula_moiety         'C25 H22 N4 O1 S1'
_chemical_name_systematic        
3-(4-(Benzylideneamino)-3-methyl-5-thioxo-4,5-dihydro-1H-1,2,4-triazol-1-yl)-1,3-diphenylpropan-1-one
_symmetry_cell_setting           triclinic
_symmetry_space_group_name_H-M   'P -1'
_symmetry_Int_Tables_number      2
_space_group_name_Hall           '-P 1'
loop_
_symmetry_equiv_pos_site_id
_symmetry_equiv_pos_as_xyz
1 x,y,z
2 -x,-y,-z
_cell_length_a                   12.011(3)
_cell_length_b                   12.349(2)
_cell_length_c                   15.519(3)
_cell_angle_alpha                94.890(3)
_cell_angle_beta                 105.327(4)
_cell_angle_gamma                99.582(2)
_cell_volume                     2168.69
_exptl_crystal_colour            colorless
_exptl_crystal_description       Prism
_cell_formula_units_Z            4
loop_
_atom_site_label
_atom_site_type_symbol
_atom_site_fract_x
_atom_site_fract_y
_atom_site_fract_z
S1 S 0.57687(3) 0.78994(3) 0.26507(2)
O1 O 0.86756(9) 0.80895(9) 0.22251(7)
N1 N 0.78891(10) 0.79098(10) 0.38361(7)
N2 N 0.86632(11) 0.84475(10) 0.46499(7)
N3 N 0.71567(11) 0.92812(10) 0.42036(7)
N4 N 0.64721(11) 1.00367(10) 0.43689(8)
C1 C 1.08871(13) 0.88707(12) 0.20175(9)
H1 H 1.0269 0.9235 0.1753
C2 C 1.19795(14) 0.91563(13) 0.18730(9)
H2 H 1.2111 0.9721 0.1512
C3 C 1.28846(14) 0.86263(13) 0.22501(10)
H3 H 1.3626 0.8816 0.2135
C4 C 1.27101(13) 0.78165(13) 0.27970(9)
H4 H 1.3334 0.7461 0.3064
C5 C 1.16190(13) 0.75329(12) 0.29489(9)
H5 H 1.1500 0.6984 0.3326
C6 C 1.06939(13) 0.80420(12) 0.25552(9)
C7 C 0.95006(13) 0.77358(12) 0.26708(9)
C8 C 0.93107(13) 0.69677(12) 0.33555(9)
H6 H 0.9892 0.7263 0.3946
H7 H 0.9449 0.6229 0.3162
C9 C 0.80732(13) 0.68411(12) 0.34666(9)
H8 H 0.7502 0.6620 0.2853
C10 C 0.77781(13) 0.59748(12) 0.40542(9)
C11 C 0.66094(14) 0.54426(12) 0.38774(10)
H9 H 0.6032 0.5588 0.3374
C12 C 0.62794(15) 0.46970(13) 0.44345(11)
H10 H 0.5480 0.4338 0.4312
C13 C 0.71180(16) 0.44833(13) 0.51629(10)
H11 H 0.6896 0.3972 0.5540
C14 C 0.82802(16) 0.50100(14) 0.53471(10)
H12 H 0.8855 0.4863 0.5852
C15 C 0.86060(14) 0.57533(13) 0.47939(10)
H13 H 0.9406 0.6115 0.4924
C16 C 0.69346(13) 0.83696(12) 0.35435(9)
C17 C 0.81794(13) 0.92619(12) 0.48558(9)
C18 C 0.86278(14) 1.00798(13) 0.56855(9)
H14 H 0.9354 0.9913 0.6066
H15 H 0.8035 1.0040 0.6017
H16 H 0.8790 1.0827 0.5522
C19 C 0.57375(13) 1.02983(12) 0.37007(10)
H17 H 0.5666 0.9987 0.3103
C20 C 0.50054(13) 1.10846(12) 0.38678(9)
C21 C 0.51307(14) 1.16001(12) 0.47360(10)
H18 H 0.5708 1.1448 0.5236
C22 C 0.44147(14) 1.23311(13) 0.48671(10)
H19 H 0.4519 1.2694 0.5456
C23 C 0.35487(14) 1.25386(13) 0.41483(11)
H20 H 0.3043 1.3022 0.4246
C24 C 0.34239(14) 1.20384(13) 0.32872(11)
H21 H 0.2839 1.2185 0.2790
C25 C 0.41567(14) 1.13195(12) 0.31503(10)
H22 H 0.4074 1.0985 0.2556
S2 S 0.34414(4) 0.74120(3) 1.02002(3)
O2 O 0.38673(10) 1.06096(9) 1.07228(6)
N5 N 0.21285(11) 0.88450(10) 0.94337(8)
N6 N 0.10141(11) 0.90910(10) 0.92366(8)
N7 N 0.11161(11) 0.76560(10) 0.99925(7)
N8 N 0.06062(11) 0.68487(10) 1.04194(7)
C26 C 0.40613(13) 1.28720(13) 1.12238(10)
H23 H 0.4219 1.2414 1.1686
C27 C 0.41930(15) 1.39963(14) 1.14530(11)
H24 H 0.4445 1.4308 1.2070
C28 C 0.39603(15) 1.46737(14) 1.07912(11)
H25 H 0.4049 1.5450 1.0950
C29 C 0.35962(14) 1.42102(13) 0.98935(11)
H26 H 0.3434 1.4673 0.9436
C30 C 0.34651(13) 1.30792(13) 0.96552(10)
H27 H 0.3215 1.2771 0.9037
C31 C 0.36994(12) 1.23936(12) 1.03215(9)
C32 C 0.35884(13) 1.11689(13) 1.01141(9)
C33 C 0.31083(13) 1.06404(12) 0.91420(9)
H28 H 0.3630 1.0972 0.8795
H29 H 0.2321 1.0815 0.8890
C34 C 0.30029(13) 0.93921(12) 0.90149(9)
H30 H 0.3786 0.9224 0.9324
C35 C 0.26517(13) 0.88591(12) 0.80319(9)
C36 C 0.31757(14) 0.79932(13) 0.78140(10)
H31 H 0.3780 0.7788 0.8264
C37 C 0.28241(15) 0.74243(13) 0.69446(10)
H32 H 0.3193 0.6838 0.6800
C38 C 0.19431(15) 0.77111(13) 0.62951(10)
H33 H 0.1700 0.7320 0.5701
C39 C 0.14068(14) 0.85697(13) 0.65034(10)
H34 H 0.0794 0.8763 0.6053
C40 C 0.17624(14) 0.91467(13) 0.73684(9)
H35 H 0.1398 0.9739 0.7508
C41 C 0.22409(13) 0.79623(12) 0.98853(9)
C42 C 0.04226(13) 0.83661(12) 0.95865(9)
C43 C -0.08294(13) 0.82760(13) 0.95699(9)
H36 H -0.1158 0.8842 0.9235
H37 H -0.0885 0.8387 1.0189
H38 H -0.1273 0.7539 0.9275
C44 C 0.12293(14) 0.62140(12) 1.08436(9)
H39 H 0.2035 0.6279 1.0864
C45 C 0.06692(14) 0.53820(12) 1.12989(9)
C46 C -0.05269(14) 0.52275(13) 1.12436(9)
H40 H -0.1006 0.5669 1.0901
C47 C -0.10194(15) 0.44317(13) 1.16873(10)
H41 H -0.1835 0.4328 1.1645
C48 C -0.03255(16) 0.37866(14) 1.21916(10)
H42 H -0.0664 0.3242 1.2495
C49 C 0.08631(16) 0.39407(14) 1.22512(10)
H43 H 0.1342 0.3504 1.2600
C50 C 0.13555(15) 0.47296(13) 1.18036(10)
H44 H 0.2169 0.4825 1.1842
loop_
_geom_bond_atom_site_label_1
_geom_bond_atom_site_label_2
_geom_bond_site_symmetry_1
_geom_bond_site_symmetry_2
S1 C16 1_555 1_555
O1 C7 1_555 1_555
N1 N2 1_555 1_555
N2 C17 1_555 1_555
N3 N4 1_555 1_555
N4 C19 1_555 1_555
C1 H1 1_555 1_555
C2 C1 1_555 1_555
H2 C2 1_555 1_555
C3 C2 1_555 1_555
H3 C3 1_555 1_555
C4 C3 1_555 1_555
H4 C4 1_555 1_555
C5 C4 1_555 1_555
H5 C5 1_555 1_555
C6 C1 1_555 1_555
C7 C6 1_555 1_555
C8 C7 1_555 1_555
H6 C8 1_555 1_555
H7 C8 1_555 1_555
C9 N1 1_555 1_555
H8 C9 1_555 1_555
C10 C9 1_555 1_555
C11 C10 1_555 1_555
H9 C11 1_555 1_555
C12 C11 1_555 1_555
H10 C12 1_555 1_555
C13 C12 1_555 1_555
H11 C13 1_555 1_555
C14 C13 1_555 1_555
H12 C14 1_555 1_555
C15 C10 1_555 1_555
H13 C15 1_555 1_555
C16 N1 1_555 1_555
C17 N3 1_555 1_555
C18 C17 1_555 1_555
H14 C18 1_555 1_555
H15 C18 1_555 1_555
H16 C18 1_555 1_555
C19 H17 1_555 1_555
C20 C19 1_555 1_555
C21 C20 1_555 1_555
H18 C21 1_555 1_555
C22 C21 1_555 1_555
H19 C22 1_555 1_555
C23 C22 1_555 1_555
H20 C23 1_555 1_555
C24 C23 1_555 1_555
H21 C24 1_555 1_555
C25 C20 1_555 1_555
H22 C25 1_555 1_555
S2 C41 1_555 1_555
O2 C32 1_555 1_555
N5 N6 1_555 1_555
N6 C42 1_555 1_555
N7 N8 1_555 1_555
N8 C44 1_555 1_555
C26 H23 1_555 1_555
C27 C26 1_555 1_555
H24 C27 1_555 1_555
C28 C27 1_555 1_555
H25 C28 1_555 1_555
C29 C28 1_555 1_555
H26 C29 1_555 1_555
C30 C29 1_555 1_555
H27 C30 1_555 1_555
C31 C26 1_555 1_555
C32 C31 1_555 1_555
C33 C32 1_555 1_555
H28 C33 1_555 1_555
H29 C33 1_555 1_555
C34 N5 1_555 1_555
H30 C34 1_555 1_555
C35 C34 1_555 1_555
C36 C35 1_555 1_555
H31 C36 1_555 1_555
C37 C36 1_555 1_555
H32 C37 1_555 1_555
C38 C37 1_555 1_555
H33 C38 1_555 1_555
C39 C38 1_555 1_555
H34 C39 1_555 1_555
C40 C35 1_555 1_555
H35 C40 1_555 1_555
C41 N5 1_555 1_555
C42 N7 1_555 1_555
C43 C42 1_555 1_555
H36 C43 1_555 1_555
H37 C43 1_555 1_555
H38 C43 1_555 1_555
C44 H39 1_555 1_555
C45 C44 1_555 1_555
C46 C45 1_555 1_555
H40 C46 1_555 1_555
C47 C46 1_555 1_555
H41 C47 1_555 1_555
C48 C47 1_555 1_555
H42 C48 1_555 1_555
C49 C48 1_555 1_555
H43 C49 1_555 1_555
C50 C45 1_555 1_555
H44 C50 1_555 1_555
N3 C16 1_555 1_555
C5 C6 1_555 1_555
C8 C9 1_555 1_555
C14 C15 1_555 1_555
C24 C25 1_555 1_555
N7 C41 1_555 1_555
C30 C31 1_555 1_555
C33 C34 1_555 1_555
C39 C40 1_555 1_555
C49 C50 1_555 1_555

#END
