
#######################################################################
#
#                 Cambridge Crystallographic Data Centre
#                                CCDC 
#
#######################################################################
#
# If this CIF has been generated from an entry in the Cambridge 
# Structural Database, then it will include bibliographic, chemical, 
# crystal, experimental, refinement or atomic coordinate data resulting 
# from the CCDC's data processing and validation procedures.
#
#######################################################################

data_DIDWUK
_chemical_formula_moiety         'C23 H25 N7 O5,0.15(H2 O1)'
_chemical_name_systematic        
"6-(2-Hydroxyethyl)-2,4,11-trimethyl-8-(4-methylphenyl)-8,9-dihydro-2H-pyrimido[5',4':5,6][1,3]diazepino[2,1-f]purine-1,3,7,10(4H,6H,7aH,11H)-tetrone hydrate"
_symmetry_cell_setting           monoclinic
_symmetry_space_group_name_H-M   'C 2/c'
_symmetry_Int_Tables_number      15
_space_group_name_Hall           '-C 2yn'
loop_
_symmetry_equiv_pos_site_id
_symmetry_equiv_pos_as_xyz
1 x,y,z
2 -x,y,1/2-z
3 1/2+x,1/2+y,z
4 1/2-x,1/2+y,1/2-z
5 -x,-y,-z
6 x,-y,1/2+z
7 1/2-x,1/2-y,-z
8 1/2+x,1/2-y,1/2+z
_cell_length_a                   30.6911(18)
_cell_length_b                   7.7047(2)
_cell_length_c                   26.4352(16)
_cell_angle_alpha                90
_cell_angle_beta                 124.748(9)
_cell_angle_gamma                90
_cell_volume                     5136.25
_cell_formula_units_Z            16
loop_
_atom_site_label
_atom_site_type_symbol
_atom_site_fract_x
_atom_site_fract_y
_atom_site_fract_z
O1 O 0.31830(7) 0.1204(3) 0.57665(10)
O2 O 0.15837(7) -0.1338(3) 0.42432(8)
O3 O 0.07275(13) 0.3200(5) 0.34463(19)
H1 H 0.1021 0.3514 0.3738
O4 O 0.10528(7) 0.3816(3) 0.60838(9)
O5 O -0.07420(7) 0.2959(3) 0.50056(10)
N1 N 0.26226(8) -0.1049(2) 0.55098(9)
H2 H 0.2880 -0.1861 0.5571
N2 N 0.24163(7) 0.1693(2) 0.56885(10)
N3 N 0.09904(7) 0.1842(2) 0.50228(9)
N4 N 0.09462(8) 0.0217(3) 0.42064(9)
N5 N 0.01991(7) 0.0843(3) 0.42330(9)
N6 N 0.01573(8) 0.3347(3) 0.55463(10)
N7 N -0.03321(7) 0.1984(3) 0.45680(10)
C1 C 0.17303(8) -0.0610(3) 0.52201(10)
H3 H 0.1489 -0.0987 0.5329
C2 C 0.22075(8) -0.1834(3) 0.55356(10)
H4 H 0.2099 -0.2905 0.5292
C3 C 0.27672(9) 0.0635(3) 0.56633(11)
C4 C 0.18925(8) 0.1231(3) 0.54384(10)
C5 C 0.15276(8) 0.2371(3) 0.53597(11)
H5 H 0.1626 0.3485 0.5523
C6 C 0.07157(9) 0.0937(3) 0.44847(11)
C7 C 0.14251(9) -0.0634(3) 0.45224(11)
C8 C 0.01426(9) 0.1743(3) 0.46332(11)
C9 C 0.06092(8) 0.2365(3) 0.51264(11)
C10 C 0.06530(9) 0.3231(3) 0.56264(11)
C11 C -0.03326(9) 0.2773(3) 0.50360(12)
C12 C 0.23855(8) -0.2324(3) 0.61848(10)
C13 C 0.20385(9) -0.3198(3) 0.62755(10)
H6 H 0.1698 -0.3454 0.5938
C14 C 0.21900(10) -0.3691(3) 0.68566(11)
H7 H 0.1950 -0.4277 0.6903
C15 C 0.26964(11) -0.3329(3) 0.73758(12)
C16 C 0.30464(10) -0.2487(4) 0.72859(12)
H8 H 0.3388 -0.2245 0.7623
C17 C 0.28958(10) -0.1997(3) 0.67008(12)
H9 H 0.3139 -0.1442 0.6653
C18 C 0.28522(14) -0.3789(4) 0.80119(14)
H10 H 0.2577 -0.4470 0.7982
H11 H 0.2904 -0.2746 0.8238
H12 H 0.3176 -0.4446 0.8221
C19 C 0.25780(11) 0.3486(3) 0.58929(16)
H13 H 0.2947 0.3621 0.6057
H14 H 0.2521 0.3757 0.6206
H15 H 0.2372 0.4257 0.5550
C20 C 0.06170(11) 0.0167(4) 0.35254(12)
H16 H 0.0247 0.0307 0.3373
H17 H 0.0656 -0.0958 0.3391
C21 C 0.07651(16) 0.1540(8) 0.32581(18)
H18 H 0.1126 0.1346 0.3383
H19 H 0.0534 0.1472 0.2813
C22 C 0.01536(11) 0.4039(4) 0.60619(14)
H20 H 0.0140 0.3095 0.6289
H21 H -0.0151 0.4769 0.5905
H22 H 0.0470 0.4703 0.6328
C23 C -0.08311(10) 0.1444(4) 0.40070(14)
H23 H -0.1116 0.1630 0.4053
H24 H -0.0813 0.0234 0.3934
H25 H -0.0893 0.2112 0.3665
O7 O 0.0921(10) 0.493(4) 0.4109(14)
H37 H 0.1115 0.4081 0.4151
H38 H 0.1096 0.5871 0.4192
O1A O -0.31830(7) 0.1204(3) -0.07665(10)
O2A O -0.15837(7) -0.1338(3) 0.07568(8)
O3A O -0.07275(13) 0.3200(5) 0.15537(19)
H1A H -0.1021 0.3514 0.1262
O4A O -0.10528(7) 0.3816(3) -0.10838(9)
O5A O 0.07420(7) 0.2959(3) -0.00056(10)
N1A N -0.26226(8) -0.1049(2) -0.05098(9)
H2A H -0.2880 -0.1861 -0.0571
N2A N -0.24163(7) 0.1693(2) -0.06885(10)
N3A N -0.09904(7) 0.1842(2) -0.00228(9)
N4A N -0.09462(8) 0.0217(3) 0.07936(9)
N5A N -0.01991(7) 0.0843(3) 0.07670(9)
N6A N -0.01573(8) 0.3347(3) -0.05463(10)
N7A N 0.03321(7) 0.1984(3) 0.04320(10)
C1A C -0.17303(8) -0.0610(3) -0.02201(10)
H3A H -0.1489 -0.0987 -0.0329
C2A C -0.22075(8) -0.1834(3) -0.05356(10)
H4A H -0.2099 -0.2905 -0.0292
C3A C -0.27672(9) 0.0635(3) -0.06633(11)
C4A C -0.18925(8) 0.1231(3) -0.04384(10)
C5A C -0.15276(8) 0.2371(3) -0.03597(11)
H5A H -0.1626 0.3485 -0.0523
C6A C -0.07157(9) 0.0937(3) 0.05153(11)
C7A C -0.14251(9) -0.0634(3) 0.04776(11)
C8A C -0.01426(9) 0.1743(3) 0.03668(11)
C9A C -0.06092(8) 0.2365(3) -0.01264(11)
C10A C -0.06530(9) 0.3231(3) -0.06264(11)
C11A C 0.03326(9) 0.2773(3) -0.00360(12)
C12A C -0.23855(8) -0.2324(3) -0.11848(10)
C13A C -0.20385(9) -0.3198(3) -0.12755(10)
H6A H -0.1698 -0.3454 -0.0938
C14A C -0.21900(10) -0.3691(3) -0.18566(11)
H7A H -0.1950 -0.4277 -0.1903
C15A C -0.26964(11) -0.3329(3) -0.23758(12)
C16A C -0.30464(10) -0.2487(4) -0.22859(12)
H8A H -0.3388 -0.2245 -0.2623
C17A C -0.28958(10) -0.1997(3) -0.17008(12)
H9A H -0.3139 -0.1442 -0.1653
C18A C -0.28522(14) -0.3789(4) -0.30119(14)
H10A H -0.2577 -0.4470 -0.2982
H11A H -0.2904 -0.2746 -0.3238
H12A H -0.3176 -0.4446 -0.3221
C19A C -0.25780(11) 0.3486(3) -0.08929(16)
H13A H -0.2947 0.3621 -0.1057
H14A H -0.2521 0.3757 -0.1206
H15A H -0.2372 0.4257 -0.0550
C20A C -0.06170(11) 0.0167(4) 0.14746(12)
H16A H -0.0247 0.0307 0.1627
H17A H -0.0656 -0.0958 0.1609
C21A C -0.07651(16) 0.1540(8) 0.17419(18)
H18A H -0.1126 0.1346 0.1617
H19A H -0.0534 0.1472 0.2187
C22A C -0.01536(11) 0.4039(4) -0.10619(14)
H20A H -0.0140 0.3095 -0.1289
H21A H 0.0151 0.4769 -0.0905
H22A H -0.0470 0.4703 -0.1328
C23A C 0.08311(10) 0.1444(4) 0.09930(14)
H23A H 0.1116 0.1630 0.0947
H24A H 0.0813 0.0234 0.1066
H25A H 0.0893 0.2112 0.1335
O6? O 0.0375(14) -0.128(4) 0.2605(8)
H26? H 0.0339 -0.0258 0.2500
H27? H 0.3194 -0.3304 0.8312
H28? H 0.2867 -0.5029 0.8056
H29? H 0.2595 -0.3329 0.8073
H30? H 0.0841 0.0612 0.3405
H31? H 0.0341 0.1028 0.3394
C24? C 0.0340(16) -0.140(3) 0.3122(15)
H32? H 0.0510 -0.2461 0.3351
H33? H -0.0028 -0.1428 0.2983
H34? H -0.0765 0.1021 0.3715
H35? H -0.1069 0.2416 0.3834
H36? H -0.0988 0.0539 0.4103
loop_
_geom_bond_atom_site_label_1
_geom_bond_atom_site_label_2
_geom_bond_site_symmetry_1
_geom_bond_site_symmetry_2
O1 C3 1_555 1_555
O2 C7 1_555 1_555
O3 H1 1_555 1_555
O4 C10 1_555 1_555
O5 C11 1_555 1_555
N1 H2 1_555 1_555
N2 C3 1_555 1_555
N3 C5 1_555 1_555
N4 C6 1_555 1_555
N5 C6 1_555 1_555
N6 C10 1_555 1_555
N7 C8 1_555 1_555
C1 H3 1_555 1_555
C2 N1 1_555 1_555
H4 C2 1_555 1_555
C3 N1 1_555 1_555
C4 N2 1_555 1_555
C5 C4 1_555 1_555
H5 C5 1_555 1_555
C6 N3 1_555 1_555
C7 N4 1_555 1_555
C8 N5 1_555 1_555
C9 N3 1_555 1_555
C10 C9 1_555 1_555
C11 N6 1_555 1_555
C12 C2 1_555 1_555
C13 C12 1_555 1_555
H6 C13 1_555 1_555
C14 C13 1_555 1_555
H7 C14 1_555 1_555
C15 C14 1_555 1_555
C16 C15 1_555 1_555
H8 C16 1_555 1_555
C17 C12 1_555 1_555
H9 C17 1_555 1_555
C18 C15 1_555 1_555
H10 C18 1_555 1_555
H11 C18 1_555 1_555
H12 C18 1_555 1_555
C19 N2 1_555 1_555
H13 C19 1_555 1_555
H14 C19 1_555 1_555
H15 C19 1_555 1_555
C20 N4 1_555 1_555
H16 C20 1_555 1_555
H17 C20 1_555 1_555
C21 O3 1_555 1_555
H18 C21 1_555 1_555
H19 C21 1_555 1_555
C22 N6 1_555 1_555
H20 C22 1_555 1_555
H21 C22 1_555 1_555
H22 C22 1_555 1_555
C23 N7 1_555 1_555
H23 C23 1_555 1_555
H24 C23 1_555 1_555
H25 C23 1_555 1_555
O7 H37 1_555 1_555
H38 O7 1_555 1_555
O1A C3A 1_555 1_555
O2A C7A 1_555 1_555
O3A H1A 1_555 1_555
O4A C10A 1_555 1_555
O5A C11A 1_555 1_555
N1A H2A 1_555 1_555
N2A C3A 1_555 1_555
N3A C5A 1_555 1_555
N4A C6A 1_555 1_555
N5A C6A 1_555 1_555
N6A C10A 1_555 1_555
N7A C8A 1_555 1_555
C1A H3A 1_555 1_555
C2A N1A 1_555 1_555
H4A C2A 1_555 1_555
C3A N1A 1_555 1_555
C4A N2A 1_555 1_555
C5A C4A 1_555 1_555
H5A C5A 1_555 1_555
C6A N3A 1_555 1_555
C7A N4A 1_555 1_555
C8A N5A 1_555 1_555
C9A N3A 1_555 1_555
C10A C9A 1_555 1_555
C11A N6A 1_555 1_555
C12A C2A 1_555 1_555
C13A C12A 1_555 1_555
H6A C13A 1_555 1_555
C14A C13A 1_555 1_555
H7A C14A 1_555 1_555
C15A C14A 1_555 1_555
C16A C15A 1_555 1_555
H8A C16A 1_555 1_555
C17A C12A 1_555 1_555
H9A C17A 1_555 1_555
C18A C15A 1_555 1_555
H10A C18A 1_555 1_555
H11A C18A 1_555 1_555
H12A C18A 1_555 1_555
C19A N2A 1_555 1_555
H13A C19A 1_555 1_555
H14A C19A 1_555 1_555
H15A C19A 1_555 1_555
C20A N4A 1_555 1_555
H16A C20A 1_555 1_555
H17A C20A 1_555 1_555
C21A O3A 1_555 1_555
H18A C21A 1_555 1_555
H19A C21A 1_555 1_555
C22A N6A 1_555 1_555
H20A C22A 1_555 1_555
H21A C22A 1_555 1_555
H22A C22A 1_555 1_555
C23A N7A 1_555 1_555
H23A C23A 1_555 1_555
H24A C23A 1_555 1_555
H25A C23A 1_555 1_555
N7 C11 1_555 1_555
C1 C2 1_555 1_555
C1 C4 1_555 1_555
C1 C7 1_555 1_555
C8 C9 1_555 1_555
C16 C17 1_555 1_555
C20 C21 1_555 1_555
N7A C11A 1_555 1_555
C1A C2A 1_555 1_555
C1A C4A 1_555 1_555
C1A C7A 1_555 1_555
C8A C9A 1_555 1_555
C16A C17A 1_555 1_555
C20A C21A 1_555 1_555

#END
