
#######################################################################
#
#                 Cambridge Crystallographic Data Centre
#                                CCDC 
#
#######################################################################
#
# If this CIF has been generated from an entry in the Cambridge 
# Structural Database, then it will include bibliographic, chemical, 
# crystal, experimental, refinement or atomic coordinate data resulting 
# from the CCDC's data processing and validation procedures.
#
#######################################################################

data_DIDXAR
_chemical_formula_moiety         'C23 H25 N7 O5,2.5(H2 O1)'
_chemical_name_systematic        
"6-(2-Hydroxyethyl)-2,4,11-trimethyl-8-(4-methylphenyl)-8,9-dihydro-2H-pyrimido[5',4':5,6][1,3]diazepino[2,1-f]purine-1,3,7,10(4H,6H,7aH,11H)-tetrone hydrate"
_symmetry_cell_setting           triclinic
_symmetry_space_group_name_H-M   'P -1'
_symmetry_Int_Tables_number      2
_space_group_name_Hall           '-P 1'
loop_
_symmetry_equiv_pos_site_id
_symmetry_equiv_pos_as_xyz
1 x,y,z
2 -x,-y,-z
_cell_length_a                   7.617(12)
_cell_length_b                   13.23(2)
_cell_length_c                   14.04(2)
_cell_angle_alpha                108.55(2)
_cell_angle_beta                 100.363(9)
_cell_angle_gamma                97.580(14)
_cell_volume                     1292.04
_cell_formula_units_Z            2
loop_
_atom_site_label
_atom_site_type_symbol
_atom_site_fract_x
_atom_site_fract_y
_atom_site_fract_z
O1 O 0.0970(3) 0.51909(16) 0.36449(14)
O2 O 0.4393(3) 0.52883(14) 0.67571(13)
O3 O 0.4331(8) 0.4841(6) 0.9608(5)
H1 H 0.3795 0.4274 0.9138
O4 O 0.0783(3) 1.01638(15) 0.78975(13)
O5 O 0.2684(2) 1.14414(15) 1.14372(14)
N1 N 0.3719(3) 0.57980(14) 0.47960(14)
H2 H 0.4145 0.5351 0.4357
N2 N 0.1243(2) 0.65975(15) 0.51554(14)
N3 N 0.2214(3) 0.80933(15) 0.79504(14)
N4 N 0.3409(3) 0.64871(16) 0.79946(15)
N5 N 0.3548(3) 0.80143(17) 0.94946(15)
N6 N 0.1760(3) 1.07995(16) 0.96734(15)
N7 N 0.3089(3) 0.97511(17) 1.05762(15)
C1 C 0.4048(3) 0.70039(17) 0.65421(16)
H3 H 0.4763 0.7718 0.7057
C2 C 0.4972(3) 0.66882(16) 0.56391(16)
H4 H 0.6072 0.6409 0.5865
C3 C 0.1938(3) 0.58267(18) 0.44801(18)
C4 C 0.2128(3) 0.71375(17) 0.61930(16)
C5 C 0.1316(3) 0.77198(18) 0.68945(17)
H5 H 0.0158 0.7877 0.6683
C6 C 0.3087(3) 0.75184(19) 0.84738(18)
C7 C 0.3984(3) 0.61739(18) 0.70855(17)
C8 C 0.2919(3) 0.89512(19) 0.96380(17)
C9 C 0.2104(3) 0.90479(19) 0.87254(17)
C10 C 0.1475(3) 0.99984(19) 0.86762(18)
C11 C 0.2524(3) 1.07049(19) 1.06151(18)
C12 C 0.5610(3) 0.76610(17) 0.53301(17)
C13 C 0.6816(3) 0.85779(18) 0.60600(17)
H6 H 0.7190 0.8604 0.6752
C14 C 0.7483(3) 0.94545(19) 0.5794(2)
H7 H 0.8302 1.0073 0.6304
C15 C 0.6951(3) 0.9431(2) 0.4776(2)
C16 C 0.5770(4) 0.8513(2) 0.4058(2)
H8 H 0.5401 0.8481 0.3364
C17 C 0.5103(3) 0.7628(2) 0.43236(19)
H9 H 0.4301 0.7004 0.3812
C18 C 0.7667(4) 1.0387(2) 0.4485(3)
H10 H 0.6678 1.0763 0.4347
H11 H 0.8137 1.0125 0.3865
H12 H 0.8649 1.0892 0.5056
C19 C -0.0654(3) 0.6682(2) 0.48176(19)
H13 H -0.0728 0.7450 0.4986
H14 H -0.1421 0.6349 0.5172
H15 H -0.1078 0.6302 0.4069
C20 C 0.2958(10) 0.5668(6) 0.8468(6)
H16 H 0.2522 0.4936 0.7927
H17 H 0.1982 0.5843 0.8836
C21 C 0.4633(10) 0.5683(7) 0.9205(6)
H18 H 0.5640 0.5589 0.8847
H19 H 0.4995 0.6395 0.9777
C22 C 0.1311(4) 1.1860(2) 0.9727(2)
H20 H 0.0553 1.2063 1.0224
H21 H 0.0643 1.1811 0.9043
H22 H 0.2437 1.2412 0.9949
C23 C 0.3811(4) 0.9578(2) 1.15459(19)
H23 H 0.4820 1.0183 1.1979
H24 H 0.4250 0.8893 1.1388
H25 H 0.2843 0.9543 1.1916
O6 O -0.1202(7) 0.6460(4) 0.8125(4)
H26 H -0.1591 0.5963 0.7533
H27 H -0.1633 0.7020 0.8120
O7 O 0.1144(12) 0.2128(6) 0.7302(7)
H28 H 0.0866 0.1917 0.6645
H29 H 0.0753 0.1610 0.7493
O8 O -0.1315(13) 0.3509(7) 0.7926(7)
H30 H -0.0260 0.3857 0.8289
H31 H -0.2058 0.3548 0.8315
O9? O 0.0480(9) 0.5345(7) 0.8411(6)
H32? H -0.0305 0.5006 0.7855
C24? C 0.3789(11) 0.5808(6) 0.8676(5)
H33? H 0.4855 0.5476 0.8552
H34? H 0.4036 0.6265 0.9416
C25? C 0.2078(10) 0.4933(6) 0.8375(6)
H35? H 0.1966 0.4424 0.7666
H36? H 0.2208 0.4514 0.8846
O10? O 0.4958(16) 0.3014(7) 0.8345(6)
H37? H 0.4647 0.3630 0.8494
H38? H 0.6111 0.3109 0.8448
O11? O 0.1069(15) 0.4636(9) 1.0080(10)
H39? H 0.0603 0.3984 0.9682
H40? H 0.1218 0.4670 1.0705
loop_
_geom_bond_atom_site_label_1
_geom_bond_atom_site_label_2
_geom_bond_site_symmetry_1
_geom_bond_site_symmetry_2
O1 C3 1_555 1_555
O2 C7 1_555 1_555
O3 H1 1_555 1_555
O4 C10 1_555 1_555
O5 C11 1_555 1_555
N1 H2 1_555 1_555
N2 C3 1_555 1_555
N3 C5 1_555 1_555
N4 C6 1_555 1_555
N5 C6 1_555 1_555
N6 C10 1_555 1_555
N7 C8 1_555 1_555
C1 H3 1_555 1_555
C2 N1 1_555 1_555
H4 C2 1_555 1_555
C3 N1 1_555 1_555
C4 N2 1_555 1_555
C5 C4 1_555 1_555
H5 C5 1_555 1_555
C6 N3 1_555 1_555
C7 N4 1_555 1_555
C8 N5 1_555 1_555
C9 N3 1_555 1_555
C10 C9 1_555 1_555
C11 N6 1_555 1_555
C12 C2 1_555 1_555
C13 C12 1_555 1_555
H6 C13 1_555 1_555
C14 C13 1_555 1_555
H7 C14 1_555 1_555
C15 C14 1_555 1_555
C16 C15 1_555 1_555
H8 C16 1_555 1_555
C17 C12 1_555 1_555
H9 C17 1_555 1_555
C18 C15 1_555 1_555
H10 C18 1_555 1_555
H11 C18 1_555 1_555
H12 C18 1_555 1_555
C19 N2 1_555 1_555
H13 C19 1_555 1_555
H14 C19 1_555 1_555
H15 C19 1_555 1_555
C20 N4 1_555 1_555
H16 C20 1_555 1_555
H17 C20 1_555 1_555
C21 O3 1_555 1_555
H18 C21 1_555 1_555
H19 C21 1_555 1_555
C22 N6 1_555 1_555
H20 C22 1_555 1_555
H21 C22 1_555 1_555
H22 C22 1_555 1_555
C23 N7 1_555 1_555
H23 C23 1_555 1_555
H24 C23 1_555 1_555
H25 C23 1_555 1_555
O6 H26 1_555 1_555
H27 O6 1_555 1_555
O7 H28 1_555 1_555
H29 O7 1_555 1_555
O8 H30 1_555 1_555
H31 O8 1_555 1_555
N7 C11 1_555 1_555
C1 C2 1_555 1_555
C1 C4 1_555 1_555
C1 C7 1_555 1_555
C8 C9 1_555 1_555
C16 C17 1_555 1_555
C20 C21 1_555 1_555

#END
