
#######################################################################
#
#                 Cambridge Crystallographic Data Centre
#                                CCDC 
#
#######################################################################
#
# If this CIF has been generated from an entry in the Cambridge 
# Structural Database, then it will include bibliographic, chemical, 
# crystal, experimental, refinement or atomic coordinate data resulting 
# from the CCDC's data processing and validation procedures.
#
#######################################################################

data_DIDXUL
_chemical_formula_moiety         'C14 H10 N2 O1'
_chemical_name_systematic        3-Benzylideneimidazo[1,2-a]pyridin-2(3H)-one
_symmetry_cell_setting           triclinic
_symmetry_space_group_name_H-M   'P -1'
_symmetry_Int_Tables_number      2
_space_group_name_Hall           '-P 1'
loop_
_symmetry_equiv_pos_site_id
_symmetry_equiv_pos_as_xyz
1 x,y,z
2 -x,-y,-z
_cell_length_a                   6.6621(12)
_cell_length_b                   8.0504(12)
_cell_length_c                   10.3207(16)
_cell_angle_alpha                93.941(12)
_cell_angle_beta                 97.492(14)
_cell_angle_gamma                104.510(15)
_cell_volume                     528.323
_cell_formula_units_Z            2
loop_
_atom_site_label
_atom_site_type_symbol
_atom_site_fract_x
_atom_site_fract_y
_atom_site_fract_z
C1 C 0.2886(2) 0.84213(18) 0.10579(14)
C2 C 0.5069(2) 1.00455(17) 0.26738(13)
C3 C 0.6004(2) 1.11469(19) 0.38167(14)
H1 H 0.5178 1.1569 0.4348
C4 C 0.8127(2) 1.1599(2) 0.41487(15)
H2 H 0.8748 1.2323 0.4913
C5 C 0.9390(2) 1.09821(19) 0.33495(15)
H3 H 1.0841 1.1294 0.3585
C6 C 0.84939(11) 0.99388(9) 0.22412(7)
H4 H 0.9321 0.9528 0.1705
C7 C 0.50585(11) 0.83573(9) 0.08274(7)
C8 C 0.58663(11) 0.75635(9) -0.00742(7)
H5 H 0.7325 0.7858 0.0059
C9 C 0.4921(2) 0.63301(16) -0.12240(13)
C10 C 0.6291(2) 0.58872(18) -0.20153(14)
H6 H 0.7726 0.6386 -0.1795
C11 C 0.5548(3) 0.4720(2) -0.31208(15)
H7 H 0.6480 0.4449 -0.3646
C12 C 0.3431(3) 0.3953(2) -0.34489(15)
H8 H 0.2928 0.3179 -0.4201
C13 C 0.2062(3) 0.4339(2) -0.26589(16)
H9 H 0.0636 0.3796 -0.2868
C14 C 0.2781(2) 0.55221(18) -0.15598(14)
H10 H 0.1837 0.5783 -0.1041
N1 N 0.30341(17) 0.94368(15) 0.21999(12)
N2 N 0.63689(16) 0.94879(13) 0.19088(10)
O1 O 0.12299(15) 0.77211(14) 0.03267(10)
loop_
_geom_bond_atom_site_label_1
_geom_bond_atom_site_label_2
_geom_bond_site_symmetry_1
_geom_bond_site_symmetry_2
C1 C7 1_555 1_555
C2 C3 1_555 1_555
C3 H1 1_555 1_555
C4 C3 1_555 1_555
H2 C4 1_555 1_555
C5 C4 1_555 1_555
H3 C5 1_555 1_555
C6 C5 1_555 1_555
H4 C6 1_555 1_555
C7 C8 1_555 1_555
C8 H5 1_555 1_555
C9 C8 1_555 1_555
C10 C9 1_555 1_555
H6 C10 1_555 1_555
C11 C10 1_555 1_555
H7 C11 1_555 1_555
C12 C11 1_555 1_555
H8 C12 1_555 1_555
C13 C12 1_555 1_555
H9 C13 1_555 1_555
C14 C9 1_555 1_555
H10 C14 1_555 1_555
N1 C1 1_555 1_555
N2 C2 1_555 1_555
O1 C1 1_555 1_555
C2 N1 1_555 1_555
C6 N2 1_555 1_555
C7 N2 1_555 1_555
C13 C14 1_555 1_555

#END
