
#######################################################################
#
#                 Cambridge Crystallographic Data Centre
#                                CCDC 
#
#######################################################################
#
# If this CIF has been generated from an entry in the Cambridge 
# Structural Database, then it will include bibliographic, chemical, 
# crystal, experimental, refinement or atomic coordinate data resulting 
# from the CCDC's data processing and validation procedures.
#
#######################################################################

data_DIDZIB
_chemical_formula_moiety         'C28 H39 P1'
_chemical_name_systematic        
(4-Phenylbut-3-en-2-ylidene)(2,4,6-tri-t-butylphenyl)phosphine
_symmetry_cell_setting           monoclinic
_symmetry_space_group_name_H-M   'P 21/c'
_symmetry_Int_Tables_number      14
_space_group_name_Hall           '-P 2ybc'
loop_
_symmetry_equiv_pos_site_id
_symmetry_equiv_pos_as_xyz
1 x,y,z
2 -x,1/2+y,1/2-z
3 -x,-y,-z
4 x,1/2-y,1/2+z
_cell_length_a                   21.851(3)
_cell_length_b                   6.2362(8)
_cell_length_c                   18.59(2)
_cell_angle_alpha                90
_cell_angle_beta                 100.271(2)
_cell_angle_gamma                90
_cell_volume                     2492.61
_exptl_crystal_colour            colorless
_exptl_crystal_description       block
_cell_formula_units_Z            4
loop_
_atom_site_label
_atom_site_type_symbol
_atom_site_fract_x
_atom_site_fract_y
_atom_site_fract_z
P1 P 0.21185(2) 0.26864(7) 0.16409(3)
C1 C 0.27104(8) 0.1451(3) 0.11739(9)
C2 C 0.25371(8) 0.0670(3) 0.04421(9)
C3 C 0.29588(8) -0.0629(3) 0.01627(9)
H1 H 0.2840 -0.1188 -0.0317
C4 C 0.35427(8) -0.1145(3) 0.05498(9)
C5 C 0.37210(8) -0.0191(3) 0.12276(9)
H2 H 0.4130 -0.0446 0.1487
C6 C 0.33277(8) 0.1129(3) 0.15481(9)
C7 C 0.19159(8) 0.1229(3) -0.00713(10)
C8 C 0.19299(9) 0.0609(4) -0.08718(10)
H3 H 0.1957 -0.0954 -0.0911
H4 H 0.2292 0.1270 -0.1026
H5 H 0.1549 0.1117 -0.1186
C9 C 0.17980(9) 0.3671(3) -0.00806(11)
H6 H 0.1406 0.3991 -0.0409
H7 H 0.2140 0.4412 -0.0253
H8 H 0.1773 0.4160 0.0414
C10 C 0.13627(9) 0.0010(3) 0.01464(11)
H9 H 0.1316 0.0428 0.0642
H10 H 0.1439 -0.1537 0.0132
H11 H 0.0981 0.0365 -0.0197
C11 C 0.39720(8) -0.2631(3) 0.02058(10)
C12 C 0.36448(9) -0.4791(3) 0.00039(11)
H12 H 0.3269 -0.4555 -0.0363
H13 H 0.3530 -0.5436 0.0442
H14 H 0.3927 -0.5756 -0.0195
C13 C 0.41201(10) -0.1569(4) -0.04873(11)
H15 H 0.4330 -0.0196 -0.0360
H16 H 0.3733 -0.1321 -0.0834
H17 H 0.4392 -0.2510 -0.0711
C14 C 0.45837(9) -0.3069(3) 0.07274(11)
H18 H 0.4842 -0.4033 0.0491
H19 H 0.4496 -0.3740 0.1175
H20 H 0.4805 -0.1714 0.0850
C15 C 0.36089(9) 0.2193(3) 0.22924(10)
C16 C 0.43236(9) 0.2080(4) 0.24376(12)
H21 H 0.4489 0.2915 0.2876
H22 H 0.4481 0.2671 0.2017
H23 H 0.4456 0.0583 0.2512
C17 C 0.34491(10) 0.4600(3) 0.22937(11)
H24 H 0.3002 0.4774 0.2285
H25 H 0.3562 0.5285 0.1861
H26 H 0.3682 0.5271 0.2736
C18 C 0.33909(10) 0.1064(3) 0.29371(10)
H27 H 0.3496 -0.0464 0.2933
H28 H 0.2940 0.1226 0.2892
H29 H 0.3598 0.1708 0.3397
C19 C 0.18347(8) 0.0585(3) 0.20532(10)
C20 C 0.13465(8) 0.1103(3) 0.24641(9)
H30 H 0.1218 0.2557 0.2470
C21 C 0.10630(9) -0.0334(3) 0.28371(10)
H31 H 0.1205 -0.1773 0.2833
C22 C 0.05635(8) 0.0071(3) 0.32461(9)
C23 C 0.02748(8) 0.2071(3) 0.32653(10)
H32 H 0.0400 0.3239 0.2997
C24 C -0.01933(9) 0.2364(3) 0.36737(11)
H33 H -0.0382 0.3732 0.3686
C25 C -0.03868(9) 0.0672(3) 0.40632(11)
H34 H -0.0707 0.0878 0.4341
C26 C -0.01111(9) -0.1309(3) 0.40447(11)
H35 H -0.0242 -0.2471 0.4311
C27 C 0.03578(9) -0.1617(3) 0.36393(10)
H36 H 0.0542 -0.2995 0.3629
C28 C 0.20293(9) -0.1723(3) 0.20243(11)
H37 H 0.2195 -0.2228 0.2520
H38 H 0.2351 -0.1848 0.1721
H39 H 0.1669 -0.2595 0.1814
loop_
_geom_bond_atom_site_label_1
_geom_bond_atom_site_label_2
_geom_bond_site_symmetry_1
_geom_bond_site_symmetry_2
P1 C1 1_555 1_555
C1 C2 1_555 1_555
C2 C3 1_555 1_555
C3 H1 1_555 1_555
C4 C3 1_555 1_555
C5 C4 1_555 1_555
H2 C5 1_555 1_555
C6 C1 1_555 1_555
C7 C2 1_555 1_555
C8 C7 1_555 1_555
H3 C8 1_555 1_555
H4 C8 1_555 1_555
H5 C8 1_555 1_555
C9 C7 1_555 1_555
H6 C9 1_555 1_555
H7 C9 1_555 1_555
H8 C9 1_555 1_555
C10 C7 1_555 1_555
H9 C10 1_555 1_555
H10 C10 1_555 1_555
H11 C10 1_555 1_555
C11 C4 1_555 1_555
C12 C11 1_555 1_555
H12 C12 1_555 1_555
H13 C12 1_555 1_555
H14 C12 1_555 1_555
C13 C11 1_555 1_555
H15 C13 1_555 1_555
H16 C13 1_555 1_555
H17 C13 1_555 1_555
C14 C11 1_555 1_555
H18 C14 1_555 1_555
H19 C14 1_555 1_555
H20 C14 1_555 1_555
C15 C6 1_555 1_555
C16 C15 1_555 1_555
H21 C16 1_555 1_555
H22 C16 1_555 1_555
H23 C16 1_555 1_555
C17 C15 1_555 1_555
H24 C17 1_555 1_555
H25 C17 1_555 1_555
H26 C17 1_555 1_555
C18 C15 1_555 1_555
H27 C18 1_555 1_555
H28 C18 1_555 1_555
H29 C18 1_555 1_555
C19 P1 1_555 1_555
C20 C19 1_555 1_555
H30 C20 1_555 1_555
C21 C20 1_555 1_555
H31 C21 1_555 1_555
C22 C21 1_555 1_555
C23 C22 1_555 1_555
H32 C23 1_555 1_555
C24 C23 1_555 1_555
H33 C24 1_555 1_555
C25 C24 1_555 1_555
H34 C25 1_555 1_555
C26 C25 1_555 1_555
H35 C26 1_555 1_555
C27 C22 1_555 1_555
H36 C27 1_555 1_555
C28 C19 1_555 1_555
H37 C28 1_555 1_555
H38 C28 1_555 1_555
H39 C28 1_555 1_555
C5 C6 1_555 1_555
C26 C27 1_555 1_555

#END
