
#######################################################################
#
#                 Cambridge Crystallographic Data Centre
#                                CCDC 
#
#######################################################################
#
# If this CIF has been generated from an entry in the Cambridge 
# Structural Database, then it will include bibliographic, chemical, 
# crystal, experimental, refinement or atomic coordinate data resulting 
# from the CCDC's data processing and validation procedures.
#
#######################################################################

data_DIFCON
_chemical_formula_moiety         'C4 H6 N6 O4,H2 O1'
_chemical_name_systematic        
'6-amino-2,4-diiminio-5-nitropyrimidine-1,3(2H,4H)-diolate monohydrate'
_symmetry_cell_setting           monoclinic
_symmetry_space_group_name_H-M   'P 21/c'
_symmetry_Int_Tables_number      14
_space_group_name_Hall           '-P 2ybc'
loop_
_symmetry_equiv_pos_site_id
_symmetry_equiv_pos_as_xyz
1 x,y,z
2 -x,1/2+y,1/2-z
3 -x,-y,-z
4 x,1/2-y,1/2+z
_cell_length_a                   10.714(2)
_cell_length_b                   8.8863(18)
_cell_length_c                   18.946(4)
_cell_angle_alpha                90
_cell_angle_beta                 118.500(10)
_cell_angle_gamma                90
_cell_volume                     1585.22
_exptl_crystal_colour            colorless
_exptl_crystal_description       block
_cell_formula_units_Z            8
loop_
_atom_site_label
_atom_site_type_symbol
_atom_site_fract_x
_atom_site_fract_y
_atom_site_fract_z
O1 O 0.8859(2) 0.1633(3) 0.46152(14)
O2 O 0.3919(2) -0.2358(3) 0.29385(14)
O3 O 0.4239(3) 0.3210(3) 0.30272(15)
O4 O 0.6050(3) -0.3088(3) 0.37622(16)
N1 N 0.5127(3) 0.2044(3) 0.33573(16)
N2 N 0.7483(3) 0.1259(3) 0.41557(16)
N3 N 0.8147(3) -0.1182(3) 0.44050(16)
H1 H 0.9022 -0.0853 0.4695
H2 H 0.7974 -0.2155 0.4357
N4 N 0.5181(3) -0.2070(3) 0.34080(17)
N5 N 0.3260(3) 0.0474(3) 0.27219(16)
H3 H 0.2727 0.1283 0.2534
H4 H 0.2872 -0.0425 0.2593
N6 N 0.6923(3) 0.3776(4) 0.39175(17)
H5 H 0.7825 0.4010 0.4214
H6 H 0.6286 0.4491 0.3690
C1 C 0.7102(3) -0.0223(4) 0.40437(19)
C2 C 0.4626(3) 0.0610(4) 0.31920(19)
C3 C 0.5641(3) -0.0574(4) 0.35503(19)
C4 C 0.6532(3) 0.2374(4) 0.38153(18)
O5 O -0.0810(2) 0.7232(3) 0.30426(14)
O6 O -0.0985(2) 1.2814(3) 0.29610(14)
O7 O 0.3836(2) 0.8669(3) 0.45926(15)
N7 N 0.0115(3) 0.8384(3) 0.33666(16)
N8 N 0.2489(3) 0.9103(3) 0.41461(16)
O8 O 0.1186(3) 1.3483(3) 0.37529(16)
N9 N 0.3236(3) 1.1523(3) 0.43893(16)
H7 H 0.4101 1.1163 0.4674
H8 H 0.3096 1.2502 0.4342
N10 N -0.1725(3) 0.9987(3) 0.27461(16)
H9 H -0.2273 0.9187 0.2569
H10 H -0.2099 1.0892 0.2616
N11 N 0.0272(3) 1.2493(4) 0.34157(17)
N12 N 0.1879(3) 0.6611(3) 0.39279(17)
H11 H 0.2780 0.6369 0.4217
H12 H 0.1233 0.5902 0.3713
C5 C 0.0690(3) 1.0976(4) 0.35502(18)
C6 C 0.2150(3) 1.0595(4) 0.40328(18)
C7 C 0.1506(3) 0.8006(4) 0.38193(19)
C8 C -0.0349(4) 0.9829(4) 0.32039(19)
O9 O 0.9138(3) 0.5872(3) 0.43329(17)
H13 H 0.9100 0.6343 0.3933
H14 H 0.9651 0.5107 0.4385
O10 O 0.4170(4) 0.4750(5) 0.4237(2)
H15 H 0.4926 0.5272 0.4446
H16 H 0.4189 0.4298 0.3847
loop_
_geom_bond_atom_site_label_1
_geom_bond_atom_site_label_2
_geom_bond_site_symmetry_1
_geom_bond_site_symmetry_2
O1 N2 1_555 1_555
O2 N4 1_555 1_555
O3 N1 1_555 1_555
O4 N4 1_555 1_555
N1 C2 1_555 1_555
N2 C1 1_555 1_555
N3 H1 1_555 1_555
H2 N3 1_555 1_555
N4 C3 1_555 1_555
N5 H3 1_555 1_555
H4 N5 1_555 1_555
N6 H5 1_555 1_555
H6 N6 1_555 1_555
C1 N3 1_555 1_555
C2 N5 1_555 1_555
C3 C1 1_555 1_555
C4 N1 1_555 1_555
O5 N7 1_555 1_555
O6 N11 1_555 1_555
O7 N8 1_555 1_555
N7 C7 1_555 1_555
N8 C6 1_555 1_555
O8 N11 1_555 1_555
N9 H7 1_555 1_555
H8 N9 1_555 1_555
N10 H9 1_555 1_555
H10 N10 1_555 1_555
N11 C5 1_555 1_555
N12 H11 1_555 1_555
H12 N12 1_555 1_555
C5 C6 1_555 1_555
C6 N9 1_555 1_555
C7 N8 1_555 1_555
C8 N7 1_555 1_555
O9 H13 1_555 1_555
H14 O9 1_555 1_555
O10 H15 1_555 1_555
H16 O10 1_555 1_555
N2 C4 1_555 1_555
N6 C4 1_555 1_555
C2 C3 1_555 1_555
N10 C8 1_555 1_555
N12 C7 1_555 1_555
C5 C8 1_555 1_555

#END
