
#######################################################################
#
#                 Cambridge Crystallographic Data Centre
#                                CCDC 
#
#######################################################################
#
# If this CIF has been generated from an entry in the Cambridge 
# Structural Database, then it will include bibliographic, chemical, 
# crystal, experimental, refinement or atomic coordinate data resulting 
# from the CCDC's data processing and validation procedures.
#
#######################################################################

data_DIFCIG
_chemical_formula_moiety         'C56 H74 N4,x(C7 H8)'
_chemical_name_systematic        
"N^1^,N^4^,N'^1^,N'^4^-tetrakis(2,6-Di-isopropylphenyl)benzene-1,4-dicarboximidamide toluene solvate"
_symmetry_cell_setting           triclinic
_symmetry_space_group_name_H-M   'P -1'
_symmetry_Int_Tables_number      2
_space_group_name_Hall           '-P 1'
loop_
_symmetry_equiv_pos_site_id
_symmetry_equiv_pos_as_xyz
1 x,y,z
2 -x,-y,-z
_cell_length_a                   15.22(3)
_cell_length_b                   15.72(3)
_cell_length_c                   18.26(3)
_cell_angle_alpha                84.17(3)
_cell_angle_beta                 75.17(2)
_cell_angle_gamma                77.17(3)
_cell_volume                     4113.24
_exptl_crystal_colour            colorless
_exptl_crystal_description       block
_cell_formula_units_Z            3
loop_
_atom_site_label
_atom_site_type_symbol
_atom_site_fract_x
_atom_site_fract_y
_atom_site_fract_z
C57 C 0.9793(3) 0.2285(2) 0.0816(2)
C58 C 1.0678(3) 0.2198(3) 0.0348(2)
C59 C 1.0836(4) 0.2814(3) -0.0244(3)
H75 H 1.1426 0.2759 -0.0567
C60 C 1.0163(5) 0.3492(4) -0.0369(3)
H76 H 1.0284 0.3882 -0.0782
C61 C 0.9314(4) 0.3601(3) 0.0110(3)
H77 H 0.8862 0.4085 0.0036
C62 C 0.9097(3) 0.3008(3) 0.0712(2)
C63 C 1.1469(3) 0.1482(3) 0.0458(3)
H78 H 1.1221 0.1076 0.0861
C64 C 1.1900(3) 0.0981(3) -0.0250(3)
H79 H 1.2190 0.1353 -0.0644
H80 H 1.1427 0.0784 -0.0409
H81 H 1.2358 0.0486 -0.0147
C65 C 1.2170(4) 0.1861(4) 0.0727(4)
H82 H 1.2354 0.2325 0.0378
H83 H 1.2705 0.1411 0.0750
H84 H 1.1889 0.2085 0.1221
C66 C 0.8156(4) 0.3128(3) 0.1223(3)
H85 H 0.8204 0.2742 0.1674
C67 C 0.7810(4) 0.4060(4) 0.1497(4)
H86 H 0.8287 0.4234 0.1667
H87 H 0.7267 0.4080 0.1907
H88 H 0.7659 0.4450 0.1086
C68 C 0.7466(4) 0.2872(4) 0.0895(4)
H89 H 0.7423 0.3216 0.0436
H90 H 0.6872 0.2970 0.1251
H91 H 0.7656 0.2265 0.0786
C69 C 0.9556(2) 0.0895(2) 0.13761(19)
C70 C 0.9777(2) 0.0443(2) 0.06682(19)
C71 C 1.0369(2) -0.0356(2) 0.0593(2)
H92 H 1.0626 -0.0605 0.0995
C72 C 1.0591(2) -0.0795(2) -0.00569(19)
H93 H 1.0994 -0.1337 -0.0091
C73 C 0.9098(3) 0.0629(2) 0.2766(2)
C74 C 0.9784(3) 0.0626(2) 0.3132(2)
C75 C 0.9514(4) 0.0827(3) 0.3891(3)
H94 H 0.9964 0.0832 0.4152
C76 C 0.8619(5) 0.1012(3) 0.4252(3)
H95 H 0.8450 0.1135 0.4763
C77 C 0.7972(4) 0.1020(3) 0.3885(3)
H96 H 0.7351 0.1163 0.4144
C78 C 0.8184(3) 0.0825(3) 0.3129(3)
C79 C 1.0781(3) 0.0387(3) 0.2748(3)
H97 H 1.0813 0.0424 0.2203
C80 C 1.1191(4) -0.0548(4) 0.2937(4)
H98 H 1.1253 -0.0603 0.3451
H99 H 1.1791 -0.0720 0.2600
H100 H 1.0790 -0.0918 0.2881
C81 C 1.1366(4) 0.0987(4) 0.2865(4)
H101 H 1.1122 0.1572 0.2700
H102 H 1.1992 0.0803 0.2576
H103 H 1.1359 0.0973 0.3393
C82 C 0.7432(4) 0.0818(5) 0.2721(3)
H104 H 0.7716 0.0830 0.2175
C83 C 0.7038(5) -0.0005(6) 0.2919(5)
H105 H 0.7478 -0.0459 0.3100
H106 H 0.6914 -0.0188 0.2476
H107 H 0.6471 0.0112 0.3307
C84 C 0.6644(5) 0.1620(6) 0.2877(4)
H108 H 0.6240 0.1642 0.2546
H109 H 0.6898 0.2139 0.2789
H110 H 0.6298 0.1585 0.3395
N5 N 0.9551(2) 0.17041(18) 0.14466(15)
N6 N 0.9351(2) 0.03619(19) 0.20053(17)
H111 H 0.930(2) -0.0137(15) 0.190(2)
C57A C 1.0207(3) -0.2285(2) -0.0816(2)
C58A C 0.9322(3) -0.2198(3) -0.0348(2)
C59A C 0.9164(4) -0.2814(3) 0.0244(3)
H75A H 0.8574 -0.2759 0.0567
C60A C 0.9837(5) -0.3492(4) 0.0369(3)
H76A H 0.9716 -0.3882 0.0782
C61A C 1.0686(4) -0.3601(3) -0.0110(3)
H77A H 1.1138 -0.4085 -0.0036
C62A C 1.0903(3) -0.3008(3) -0.0712(2)
C63A C 0.8531(3) -0.1482(3) -0.0458(3)
H78A H 0.8779 -0.1076 -0.0861
C64A C 0.8100(3) -0.0981(3) 0.0250(3)
H79A H 0.7810 -0.1353 0.0644
H80A H 0.8573 -0.0784 0.0409
H81A H 0.7642 -0.0486 0.0147
C65A C 0.7830(4) -0.1861(4) -0.0727(4)
H82A H 0.7646 -0.2325 -0.0378
H83A H 0.7295 -0.1411 -0.0750
H84A H 0.8111 -0.2085 -0.1221
C66A C 1.1844(4) -0.3128(3) -0.1223(3)
H85A H 1.1796 -0.2742 -0.1674
C67A C 1.2190(4) -0.4060(4) -0.1497(4)
H86A H 1.1713 -0.4234 -0.1667
H87A H 1.2733 -0.4080 -0.1907
H88A H 1.2341 -0.4450 -0.1086
C68A C 1.2534(4) -0.2872(4) -0.0895(4)
H89A H 1.2577 -0.3216 -0.0436
H90A H 1.3128 -0.2970 -0.1251
H91A H 1.2344 -0.2265 -0.0786
C69A C 1.0444(2) -0.0895(2) -0.13761(19)
C70A C 1.0223(2) -0.0443(2) -0.06682(19)
C71A C 0.9631(2) 0.0356(2) -0.0593(2)
H92A H 0.9374 0.0605 -0.0995
C72A C 0.9409(2) 0.0795(2) 0.00569(19)
H93A H 0.9006 0.1337 0.0091
C73A C 1.0902(3) -0.0629(2) -0.2766(2)
C74A C 1.0216(3) -0.0626(2) -0.3132(2)
C75A C 1.0486(4) -0.0827(3) -0.3891(3)
H94A H 1.0036 -0.0832 -0.4152
C76A C 1.1381(5) -0.1012(3) -0.4252(3)
H95A H 1.1550 -0.1135 -0.4763
C77A C 1.2028(4) -0.1020(3) -0.3885(3)
H96A H 1.2649 -0.1163 -0.4144
C78A C 1.1816(3) -0.0825(3) -0.3129(3)
C79A C 0.9219(3) -0.0387(3) -0.2748(3)
H97A H 0.9187 -0.0424 -0.2203
C80A C 0.8809(4) 0.0548(4) -0.2937(4)
H98A H 0.8747 0.0603 -0.3451
H99A H 0.8209 0.0720 -0.2600
H100A H 0.9210 0.0918 -0.2881
C81A C 0.8634(4) -0.0987(4) -0.2865(4)
H101A H 0.8878 -0.1572 -0.2700
H102A H 0.8008 -0.0803 -0.2576
H103A H 0.8641 -0.0973 -0.3393
C82A C 1.2568(4) -0.0818(5) -0.2721(3)
H104A H 1.2284 -0.0830 -0.2175
C83A C 1.2962(5) 0.0005(6) -0.2919(5)
H105A H 1.2522 0.0459 -0.3100
H106A H 1.3086 0.0188 -0.2476
H107A H 1.3529 -0.0112 -0.3307
C84A C 1.3356(5) -0.1620(6) -0.2877(4)
H108A H 1.3760 -0.1642 -0.2546
H109A H 1.3102 -0.2139 -0.2789
H110A H 1.3702 -0.1585 -0.3395
N5A N 1.0449(2) -0.17041(18) -0.14466(15)
N6A N 1.0649(2) -0.03619(19) -0.20053(17)
H111A H 1.070(2) 0.0137(15) -0.190(2)
C1 C 1.0529(2) 0.7119(2) 0.3314(2)
C2 C 1.0448(3) 0.7307(2) 0.4060(2)
C3 C 1.1256(3) 0.7324(3) 0.4272(3)
H1 H 1.1223 0.7446 0.4767
C4 C 1.2090(3) 0.7166(3) 0.3771(4)
H2 H 1.2625 0.7180 0.3923
C5 C 1.2152(3) 0.6990(3) 0.3058(3)
H3 H 1.2734 0.6892 0.2721
C6 C 1.1385(3) 0.6946(2) 0.2799(2)
C7 C 0.9521(3) 0.7529(2) 0.4597(2)
H4 H 0.9109 0.7225 0.4437
C8 C 0.9513(3) 0.7224(3) 0.5416(2)
H5 H 0.9768 0.6609 0.5440
H6 H 0.8886 0.7337 0.5718
H7 H 0.9879 0.7534 0.5605
C9 C 0.9125(3) 0.8494(3) 0.4524(3)
H8 H 0.9542 0.8818 0.4627
H9 H 0.8534 0.8634 0.4880
H10 H 0.9048 0.8645 0.4018
C10 C 1.1471(3) 0.6769(3) 0.1992(2)
H11 H 1.0904 0.6586 0.1970
C11 C 1.1528(4) 0.7601(4) 0.1493(3)
H12 H 1.0970 0.8031 0.1657
H13 H 1.1595 0.7477 0.0976
H14 H 1.2053 0.7822 0.1533
C12 C 1.2281(3) 0.6044(4) 0.1692(3)
H15 H 1.2851 0.6235 0.1641
H16 H 1.2245 0.5893 0.1205
H17 H 1.2262 0.5542 0.2037
C13 C 0.9286(3) 0.4942(2) 0.3433(2)
C14 C 0.9704(3) 0.4321(2) 0.2904(2)
C15 C 0.9327(4) 0.3575(3) 0.2956(3)
H18 H 0.9594 0.3150 0.2601
C16 C 0.8581(4) 0.3466(3) 0.3514(3)
H19 H 0.8339 0.2967 0.3541
C17 C 0.8181(3) 0.4078(3) 0.4038(3)
H20 H 0.7663 0.3995 0.4416
C18 C 0.8532(3) 0.4827(2) 0.4019(2)
C19 C 1.0551(3) 0.4419(3) 0.2300(3)
H21 H 1.0593 0.5036 0.2264
C20 C 1.0523(4) 0.4185(4) 0.1521(3)
H22 H 1.0531 0.3572 0.1525
H23 H 1.1054 0.4320 0.1152
H24 H 0.9967 0.4515 0.1394
C21 C 1.1419(4) 0.3892(4) 0.2524(3)
H25 H 1.1363 0.3293 0.2631
H26 H 1.1488 0.4125 0.2967
H27 H 1.1953 0.3927 0.2115
C22 C 0.8120(3) 0.5464(3) 0.4629(3)
H28 H 0.8335 0.6007 0.4440
C23 C 0.7067(4) 0.5685(4) 0.4815(4)
H29 H 0.6862 0.5822 0.4353
H30 H 0.6845 0.6180 0.5129
H31 H 0.6828 0.5194 0.5079
C24 C 0.8477(5) 0.5145(4) 0.5330(3)
H32 H 0.8307 0.4596 0.5516
H33 H 0.8210 0.5566 0.5714
H34 H 0.9141 0.5072 0.5205
C25 C 0.9314(2) 0.6522(2) 0.31213(18)
C26 C 0.8419(2) 0.6682(2) 0.29044(17)
C27 C 0.8258(2) 0.6239(2) 0.23670(19)
H35 H 0.8709 0.5770 0.2152
C28 C 0.7443(2) 0.6467(2) 0.2133(2)
H36 H 0.7356 0.6170 0.1750
C29 C 0.6755(2) 0.7142(2) 0.24695(18)
C30 C 0.6906(2) 0.7565(2) 0.3018(2)
H37 H 0.6439 0.8008 0.3259
C31 C 0.7739(2) 0.7353(2) 0.3229(2)
H38 H 0.7837 0.7668 0.3595
C32 C 0.5905(2) 0.7397(2) 0.2184(2)
C33 C 0.5287(3) 0.7695(3) 0.1090(2)
C34 C 0.5179(4) 0.7026(5) 0.0714(3)
C35 C 0.4492(5) 0.7176(5) 0.0295(4)
H39 H 0.4410 0.6746 0.0019
C36 C 0.3960(5) 0.7998(6) 0.0327(4)
H40 H 0.3495 0.8099 0.0063
C37 C 0.4015(4) 0.8683(5) 0.0687(3)
H41 H 0.3613 0.9222 0.0678
C38 C 0.4730(3) 0.8521(4) 0.1080(3)
C39 C 0.5784(6) 0.6133(5) 0.0715(4)
H42 H 0.6084 0.6092 0.1135
C40 C 0.6528(6) 0.6025(5) 0.0013(5)
H43 H 0.6260 0.6104 -0.0417
H44 H 0.6907 0.5449 0.0021
H45 H 0.6904 0.6451 -0.0022
C41 C 0.5256(6) 0.5420(6) 0.0852(5)
H46 H 0.4824 0.5527 0.0534
H47 H 0.4924 0.5399 0.1374
H48 H 0.5679 0.4872 0.0735
C42 C 0.4880(4) 0.9253(4) 0.1467(3)
H49 H 0.5128 0.8991 0.1901
C43 C 0.5594(5) 0.9733(5) 0.0967(4)
H50 H 0.6148 0.9319 0.0759
H51 H 0.5738 1.0130 0.1264
H52 H 0.5348 1.0054 0.0563
C44 C 0.4032(5) 0.9930(5) 0.1770(5)
H53 H 0.3702 1.0125 0.1380
H54 H 0.4213 1.0416 0.1927
H55 H 0.3637 0.9681 0.2195
C45 C 0.4856(2) 0.7227(3) 0.3448(2)
C46 C 0.4537(3) 0.7864(3) 0.3975(2)
C47 C 0.4275(3) 0.7593(3) 0.4723(2)
H56 H 0.4063 0.8011 0.5089
C48 C 0.4313(3) 0.6746(4) 0.4948(3)
H57 H 0.4125 0.6590 0.5461
C49 C 0.4623(3) 0.6120(3) 0.4433(3)
H58 H 0.4649 0.5536 0.4593
C50 C 0.4904(3) 0.6348(3) 0.3660(2)
C51 C 0.4439(3) 0.8822(3) 0.3751(3)
H59 H 0.4805 0.8876 0.3228
C52 C 0.4790(4) 0.9333(4) 0.4242(3)
H60 H 0.4388 0.9360 0.4742
H61 H 0.4794 0.9915 0.4023
H62 H 0.5408 0.9047 0.4269
C53 C 0.3437(4) 0.9203(3) 0.3757(4)
H63 H 0.3269 0.8957 0.3365
H64 H 0.3353 0.9825 0.3670
H65 H 0.3050 0.9069 0.4241
C54 C 0.5210(3) 0.5646(3) 0.3111(3)
H66 H 0.5486 0.5906 0.2619
C55 C 0.5916(5) 0.4907(4) 0.3296(4)
H67 H 0.6407 0.5125 0.3407
H68 H 0.6164 0.4539 0.2872
H69 H 0.5637 0.4576 0.3730
C56 C 0.4395(5) 0.5290(5) 0.3012(4)
H70 H 0.4004 0.5182 0.3501
H71 H 0.4625 0.4755 0.2752
H72 H 0.4043 0.5710 0.2721
N1 N 0.97047(18) 0.71833(17) 0.30611(15)
N2 N 0.96679(19) 0.57102(18) 0.33804(17)
H73 H 1.0190(15) 0.568(2) 0.3463(19)
N3 N 0.60259(19) 0.7533(2) 0.14520(16)
N4 N 0.5072(2) 0.7490(2) 0.26604(17)
H74 H 0.4588(17) 0.768(2) 0.255(2)
loop_
_geom_bond_atom_site_label_1
_geom_bond_atom_site_label_2
_geom_bond_site_symmetry_1
_geom_bond_site_symmetry_2
C1 C2 1_555 1_555
C2 C3 1_555 1_555
C3 H1 1_555 1_555
C4 C3 1_555 1_555
H2 C4 1_555 1_555
C5 C4 1_555 1_555
H3 C5 1_555 1_555
C6 C1 1_555 1_555
C7 C2 1_555 1_555
H4 C7 1_555 1_555
C8 C7 1_555 1_555
H5 C8 1_555 1_555
H6 C8 1_555 1_555
H7 C8 1_555 1_555
C9 C7 1_555 1_555
H8 C9 1_555 1_555
H9 C9 1_555 1_555
H10 C9 1_555 1_555
C10 C6 1_555 1_555
H11 C10 1_555 1_555
C11 C10 1_555 1_555
H12 C11 1_555 1_555
H13 C11 1_555 1_555
H14 C11 1_555 1_555
C12 C10 1_555 1_555
H15 C12 1_555 1_555
H16 C12 1_555 1_555
H17 C12 1_555 1_555
C13 C14 1_555 1_555
C14 C15 1_555 1_555
C15 H18 1_555 1_555
C16 C15 1_555 1_555
H19 C16 1_555 1_555
C17 C16 1_555 1_555
H20 C17 1_555 1_555
C18 C13 1_555 1_555
C19 C14 1_555 1_555
H21 C19 1_555 1_555
C20 C19 1_555 1_555
H22 C20 1_555 1_555
H23 C20 1_555 1_555
H24 C20 1_555 1_555
C21 C19 1_555 1_555
H25 C21 1_555 1_555
H26 C21 1_555 1_555
H27 C21 1_555 1_555
C22 C18 1_555 1_555
H28 C22 1_555 1_555
C23 C22 1_555 1_555
H29 C23 1_555 1_555
H30 C23 1_555 1_555
H31 C23 1_555 1_555
C24 C22 1_555 1_555
H32 C24 1_555 1_555
H33 C24 1_555 1_555
H34 C24 1_555 1_555
C25 C26 1_555 1_555
C26 C27 1_555 1_555
C27 H35 1_555 1_555
C28 C27 1_555 1_555
H36 C28 1_555 1_555
C29 C28 1_555 1_555
C30 C29 1_555 1_555
H37 C30 1_555 1_555
C31 C26 1_555 1_555
H38 C31 1_555 1_555
C32 C29 1_555 1_555
C33 C34 1_555 1_555
C34 C35 1_555 1_555
C35 H39 1_555 1_555
C36 C35 1_555 1_555
H40 C36 1_555 1_555
C37 C36 1_555 1_555
H41 C37 1_555 1_555
C38 C33 1_555 1_555
C39 C34 1_555 1_555
H42 C39 1_555 1_555
C40 C39 1_555 1_555
H43 C40 1_555 1_555
H44 C40 1_555 1_555
H45 C40 1_555 1_555
C41 C39 1_555 1_555
H46 C41 1_555 1_555
H47 C41 1_555 1_555
H48 C41 1_555 1_555
C42 C38 1_555 1_555
H49 C42 1_555 1_555
C43 C42 1_555 1_555
H50 C43 1_555 1_555
H51 C43 1_555 1_555
H52 C43 1_555 1_555
C44 C42 1_555 1_555
H53 C44 1_555 1_555
H54 C44 1_555 1_555
H55 C44 1_555 1_555
C45 C46 1_555 1_555
C46 C47 1_555 1_555
C47 H56 1_555 1_555
C48 C47 1_555 1_555
H57 C48 1_555 1_555
C49 C48 1_555 1_555
H58 C49 1_555 1_555
C50 C45 1_555 1_555
C51 C46 1_555 1_555
H59 C51 1_555 1_555
C52 C51 1_555 1_555
H60 C52 1_555 1_555
H61 C52 1_555 1_555
H62 C52 1_555 1_555
C53 C51 1_555 1_555
H63 C53 1_555 1_555
H64 C53 1_555 1_555
H65 C53 1_555 1_555
C54 C50 1_555 1_555
H66 C54 1_555 1_555
C55 C54 1_555 1_555
H67 C55 1_555 1_555
H68 C55 1_555 1_555
H69 C55 1_555 1_555
C56 C54 1_555 1_555
H70 C56 1_555 1_555
H71 C56 1_555 1_555
H72 C56 1_555 1_555
N1 C1 1_555 1_555
N2 C13 1_555 1_555
H73 N2 1_555 1_555
N3 C32 1_555 1_555
N4 C32 1_555 1_555
H74 N4 1_555 1_555
C57 C58 1_555 1_555
C58 C59 1_555 1_555
C59 H75 1_555 1_555
C60 C59 1_555 1_555
H76 C60 1_555 1_555
C61 C60 1_555 1_555
H77 C61 1_555 1_555
C62 C57 1_555 1_555
C63 C58 1_555 1_555
H78 C63 1_555 1_555
C64 C63 1_555 1_555
H79 C64 1_555 1_555
H80 C64 1_555 1_555
H81 C64 1_555 1_555
C65 C63 1_555 1_555
H82 C65 1_555 1_555
H83 C65 1_555 1_555
H84 C65 1_555 1_555
C66 C62 1_555 1_555
H85 C66 1_555 1_555
C67 C66 1_555 1_555
H86 C67 1_555 1_555
H87 C67 1_555 1_555
H88 C67 1_555 1_555
C68 C66 1_555 1_555
H89 C68 1_555 1_555
H90 C68 1_555 1_555
H91 C68 1_555 1_555
C69 C70 1_555 1_555
C70 C71 1_555 1_555
C71 H92 1_555 1_555
C72 C71 1_555 1_555
H93 C72 1_555 1_555
C73 C74 1_555 1_555
C74 C75 1_555 1_555
C75 H94 1_555 1_555
C76 C75 1_555 1_555
H95 C76 1_555 1_555
C77 C76 1_555 1_555
H96 C77 1_555 1_555
C78 C73 1_555 1_555
C79 C74 1_555 1_555
H97 C79 1_555 1_555
C80 C79 1_555 1_555
H98 C80 1_555 1_555
H99 C80 1_555 1_555
H100 C80 1_555 1_555
C81 C79 1_555 1_555
H101 C81 1_555 1_555
H102 C81 1_555 1_555
H103 C81 1_555 1_555
C82 C78 1_555 1_555
H104 C82 1_555 1_555
C83 C82 1_555 1_555
H105 C83 1_555 1_555
H106 C83 1_555 1_555
H107 C83 1_555 1_555
C84 C82 1_555 1_555
H108 C84 1_555 1_555
H109 C84 1_555 1_555
H110 C84 1_555 1_555
N5 C57 1_555 1_555
N6 C69 1_555 1_555
H111 N6 1_555 1_555
C57A C58A 1_555 1_555
C58A C59A 1_555 1_555
C59A H75A 1_555 1_555
C60A C59A 1_555 1_555
H76A C60A 1_555 1_555
C61A C60A 1_555 1_555
H77A C61A 1_555 1_555
C62A C57A 1_555 1_555
C63A C58A 1_555 1_555
H78A C63A 1_555 1_555
C64A C63A 1_555 1_555
H79A C64A 1_555 1_555
H80A C64A 1_555 1_555
H81A C64A 1_555 1_555
C65A C63A 1_555 1_555
H82A C65A 1_555 1_555
H83A C65A 1_555 1_555
H84A C65A 1_555 1_555
C66A C62A 1_555 1_555
H85A C66A 1_555 1_555
C67A C66A 1_555 1_555
H86A C67A 1_555 1_555
H87A C67A 1_555 1_555
H88A C67A 1_555 1_555
C68A C66A 1_555 1_555
H89A C68A 1_555 1_555
H90A C68A 1_555 1_555
H91A C68A 1_555 1_555
C69A C70A 1_555 1_555
C70A C72 1_555 1_555
C71A C70A 1_555 1_555
H92A C71A 1_555 1_555
C72A C70 1_555 1_555
H93A C72A 1_555 1_555
C73A C74A 1_555 1_555
C74A C75A 1_555 1_555
C75A H94A 1_555 1_555
C76A C75A 1_555 1_555
H95A C76A 1_555 1_555
C77A C76A 1_555 1_555
H96A C77A 1_555 1_555
C78A C73A 1_555 1_555
C79A C74A 1_555 1_555
H97A C79A 1_555 1_555
C80A C79A 1_555 1_555
H98A C80A 1_555 1_555
H99A C80A 1_555 1_555
H100A C80A 1_555 1_555
C81A C79A 1_555 1_555
H101A C81A 1_555 1_555
H102A C81A 1_555 1_555
H103A C81A 1_555 1_555
C82A C78A 1_555 1_555
H104A C82A 1_555 1_555
C83A C82A 1_555 1_555
H105A C83A 1_555 1_555
H106A C83A 1_555 1_555
H107A C83A 1_555 1_555
C84A C82A 1_555 1_555
H108A C84A 1_555 1_555
H109A C84A 1_555 1_555
H110A C84A 1_555 1_555
N5A C57A 1_555 1_555
N6A C69A 1_555 1_555
H111A N6A 1_555 1_555
C5 C6 1_555 1_555
C17 C18 1_555 1_555
C25 N1 1_555 1_555
C25 N2 1_555 1_555
C30 C31 1_555 1_555
C33 N3 1_555 1_555
C37 C38 1_555 1_555
C45 N4 1_555 1_555
C49 C50 1_555 1_555
C61 C62 1_555 1_555
C69 N5 1_555 1_555
C73 N6 1_555 1_555
C77 C78 1_555 1_555
C61A C62A 1_555 1_555
C69A N5A 1_555 1_555
C71A C72A 1_555 1_555
C73A N6A 1_555 1_555
C77A C78A 1_555 1_555

#END
