
#######################################################################
#
#                 Cambridge Crystallographic Data Centre
#                                CCDC 
#
#######################################################################
#
# If this CIF has been generated from an entry in the Cambridge 
# Structural Database, then it will include bibliographic, chemical, 
# crystal, experimental, refinement or atomic coordinate data resulting 
# from the CCDC's data processing and validation procedures.
#
#######################################################################

data_DIFDEE
_chemical_formula_moiety         'C32 H64 Li2 O2 P2 Si4'
_chemical_name_systematic        
(\m-3,4-dimethyl-2,5-bis(trimethylsilyl)-1-phosphacyclopentadienyl)-(3,4-dimethyl-2,5-bis(trimethylsilyl)-1-phosphacyclopentadienyl)-bis(tetrahydrofuran)-di-lithium
_symmetry_cell_setting           triclinic
_symmetry_space_group_name_H-M   'P -1'
_symmetry_Int_Tables_number      2
_space_group_name_Hall           '-P 1'
loop_
_symmetry_equiv_pos_site_id
_symmetry_equiv_pos_as_xyz
1 x,y,z
2 -x,-y,-z
_cell_length_a                   11.0220(2)
_cell_length_b                   17.4678(3)
_cell_length_c                   22.0770(4)
_cell_angle_alpha                77.466(2)
_cell_angle_beta                 86.7340(10)
_cell_angle_gamma                89.5730(10)
_cell_volume                     4142.39
_exptl_crystal_colour            'metallic colorless'
_exptl_crystal_description       block
_cell_formula_units_Z            4
loop_
_atom_site_label
_atom_site_type_symbol
_atom_site_fract_x
_atom_site_fract_y
_atom_site_fract_z
P1 P 0.36974(4) 0.81314(3) -0.10145(2)
P2 P 0.26859(4) 0.73901(3) 0.11011(2)
Si1 Si 0.12290(4) 0.82691(3) -0.16783(2)
Si2 Si 0.58058(4) 0.71321(3) -0.03079(2)
Si3 Si 0.26426(4) 0.92664(3) 0.06919(2)
Si4 Si 0.13390(5) 0.57408(3) 0.12915(2)
O1 O -0.11496(12) 0.78121(8) 0.17510(7)
C1 C 0.23313(15) 0.76878(10) -0.11614(8)
C2 C 0.23612(16) 0.68621(10) -0.09243(8)
C3 C 0.34370(16) 0.66045(10) -0.06190(8)
C4 C 0.42652(15) 0.72236(10) -0.06162(8)
C5 C 0.19808(15) 0.82735(10) 0.07317(8)
C6 C 0.08503(15) 0.81155(10) 0.05007(8)
C7 C 0.05538(15) 0.73045(10) 0.06220(8)
C8 C 0.14512(16) 0.68170(10) 0.09563(8)
C9 C 0.13486(17) 0.63126(11) -0.10026(9)
H1 H 0.1688 0.5818 -0.1044
H2 H 0.0929 0.6538 -0.1368
H3 H 0.0788 0.6235 -0.0645
C10 C 0.37114(17) 0.57533(11) -0.03344(9)
H4 H 0.4530 0.5636 -0.0456
H5 H 0.3158 0.5419 -0.0478
H6 H 0.3620 0.5668 0.0110
C11 C 0.00224(17) 0.87389(11) 0.01625(9)
H7 H 0.0136 0.8774 -0.0277
H8 H 0.0213 0.9235 0.0255
H9 H -0.0808 0.8603 0.0295
C12 C -0.06096(17) 0.70036(11) 0.04216(9)
H10 H -0.0553 0.7046 -0.0020
H11 H -0.1282 0.7309 0.0530
H12 H -0.0732 0.6464 0.0628
C13 C 0.14177(18) 0.80536(12) -0.24781(9)
H13 H 0.2247 0.8146 -0.2634
H14 H 0.0894 0.8389 -0.2751
H15 H 0.1208 0.7516 -0.2457
C14 C 0.15352(19) 0.93359(11) -0.17274(9)
H16 H 0.1424 0.9447 -0.1321
H17 H 0.0983 0.9646 -0.2000
H18 H 0.2355 0.9460 -0.1887
C15 C -0.04193(17) 0.80773(13) -0.14231(9)
H19 H -0.0633 0.7556 -0.1453
H20 H -0.0914 0.8449 -0.1685
H21 H -0.0552 0.8129 -0.1000
C16 C 0.68682(17) 0.66394(12) -0.07986(10)
H22 H 0.6551 0.6132 -0.0807
H23 H 0.7652 0.6582 -0.0625
H24 H 0.6945 0.6953 -0.1214
C17 C 0.64037(18) 0.81427(12) -0.03404(10)
H25 H 0.6422 0.8440 -0.0761
H26 H 0.7211 0.8108 -0.0195
H27 H 0.5885 0.8398 -0.0082
C18 C 0.58311(18) 0.65517(12) 0.05147(9)
H28 H 0.5270 0.6776 0.0776
H29 H 0.6635 0.6565 0.0658
H30 H 0.5601 0.6018 0.0531
C19 C 0.28216(19) 0.98519(11) -0.01268(9)
H31 H 0.3311 0.9565 -0.0375
H32 H 0.3210 1.0343 -0.0131
H33 H 0.2036 0.9947 -0.0294
C20 C 0.41702(17) 0.91625(13) 0.10273(10)
H34 H 0.4085 0.8899 0.1457
H35 H 0.4520 0.9673 0.0993
H36 H 0.4689 0.8862 0.0804
C21 C 0.16241(17) 0.98161(11) 0.11610(9)
H37 H 0.0829 0.9862 0.1001
H38 H 0.1955 1.0330 0.1135
H39 H 0.1568 0.9537 0.1587
C22 C 0.09942(19) 0.51429(12) 0.07163(10)
H40 H 0.0204 0.5278 0.0564
H41 H 0.1007 0.4596 0.0913
H42 H 0.1594 0.5247 0.0375
C23 C 0.28118(19) 0.54062(12) 0.16401(10)
H43 H 0.3459 0.5509 0.1323
H44 H 0.2768 0.4854 0.1817
H45 H 0.2964 0.5684 0.1959
C24 C 0.0070(2) 0.55436(13) 0.19162(10)
H46 H 0.0218 0.5831 0.2230
H47 H 0.0033 0.4993 0.2100
H48 H -0.0688 0.5707 0.1737
C25 C -0.1539(2) 0.85683(13) 0.18531(13)
H49 H -0.1168 0.8985 0.1535
H50 H -0.1306 0.8634 0.2256
C26 C -0.2900(2) 0.85925(15) 0.18253(14)
H51 H -0.3276 0.8716 0.2200
H52 H -0.3137 0.8985 0.1470
C27 C -0.3269(2) 0.78036(16) 0.1767(2)
H53 H -0.3497 0.7812 0.1347
H54 H -0.3955 0.7613 0.2054
C28 C -0.21796(19) 0.72919(13) 0.19196(12)
H55 H -0.2206 0.7049 0.2359
H56 H -0.2144 0.6884 0.1683
Li1 Li 0.2415(3) 0.74633(18) -0.00652(14)
Li2 Li 0.0600(3) 0.7676(2) 0.16139(15)
O2 O 0.1122(5) 0.7806(3) 0.2426(2)
C29 C 0.2337(7) 0.7897(3) 0.2597(4)
H57 H 0.2517 0.8452 0.2541
H58 H 0.2898 0.7684 0.2322
C30 C 0.2533(5) 0.7506(3) 0.3241(2)
H59 H 0.3368 0.7334 0.3289
H60 H 0.2333 0.7849 0.3524
C31 C 0.1703(6) 0.6844(4) 0.3345(3)
H61 H 0.1483 0.6649 0.3783
H62 H 0.2026 0.6420 0.3165
C32 C 0.0601(7) 0.7273(4) 0.2979(4)
H63 H 0.0075 0.6892 0.2862
H64 H 0.0125 0.7562 0.3237
P3 P 0.25489(4) 0.22714(3) 0.62552(2)
P4 P 0.37808(4) 0.31930(3) 0.41534(2)
Si5 Si 0.11113(5) 0.07126(3) 0.62615(2)
Si6 Si 0.27995(5) 0.41270(3) 0.59173(3)
Si7 Si 0.58182(4) 0.20764(3) 0.48378(2)
Si8 Si 0.14255(5) 0.34629(3) 0.33783(2)
O4 O 0.40927(12) 0.15140(8) 0.28851(7)
C37 C 0.13689(16) 0.17798(10) 0.59776(8)
C38 C 0.06006(16) 0.23347(11) 0.56081(8)
C39 C 0.09786(17) 0.31221(11) 0.55453(8)
C40 C 0.20426(17) 0.31980(11) 0.58615(8)
C41 C 0.43237(16) 0.22374(10) 0.44709(8)
C42 C 0.35016(16) 0.16532(10) 0.43771(8)
C43 C 0.24677(16) 0.19672(10) 0.40552(8)
C44 C 0.24714(16) 0.28023(10) 0.38897(8)
C45 C -0.05206(18) 0.20965(12) 0.53242(10)
H73 H -0.1218 0.2103 0.5604
H74 H -0.0413 0.1578 0.5251
H75 H -0.0640 0.2458 0.4938
C46 C 0.0305(2) 0.38184(12) 0.51837(10)
H76 H 0.0279 0.4231 0.5409
H77 H -0.0508 0.3663 0.5129
H78 H 0.0719 0.4002 0.4784
C47 C 0.37235(18) 0.07794(11) 0.45902(10)
H79 H 0.3443 0.0610 0.5018
H80 H 0.4577 0.0676 0.4547
H81 H 0.3291 0.0500 0.4340
C48 C 0.14687(18) 0.14595(11) 0.39026(10)
H82 H 0.0923 0.1296 0.4261
H83 H 0.1821 0.1006 0.3783
H84 H 0.1030 0.1755 0.3566
C49 C -0.02560(18) 0.05156(12) 0.68290(9)
H85 H -0.0154 0.0778 0.7163
H86 H -0.0336 -0.0039 0.6993
H87 H -0.0973 0.0708 0.6620
C50 C 0.25029(18) 0.02777(12) 0.66479(10)
H88 H 0.3191 0.0372 0.6354
H89 H 0.2388 -0.0277 0.6796
H90 H 0.2644 0.0515 0.6991
C51 C 0.0816(2) 0.01666(13) 0.56410(10)
H91 H 0.0026 0.0300 0.5489
H92 H 0.0851 -0.0387 0.5810
H93 H 0.1421 0.0308 0.5305
C52 C 0.1813(2) 0.46817(14) 0.63960(12)
H94 H 0.1033 0.4773 0.6221
H95 H 0.2191 0.5175 0.6396
H96 H 0.1711 0.4380 0.6815
C53 C 0.4253(2) 0.38971(15) 0.63195(13)
H97 H 0.4081 0.3577 0.6727
H98 H 0.4636 0.4376 0.6354
H99 H 0.4786 0.3620 0.6083
C54 C 0.3155(3) 0.47926(13) 0.51400(12)
H100 H 0.3556 0.4500 0.4866
H101 H 0.3677 0.5210 0.5188
H102 H 0.2415 0.5008 0.4968
C55 C 0.64049(19) 0.30557(12) 0.49071(10)
H103 H 0.6637 0.3361 0.4501
H104 H 0.7098 0.2983 0.5158
H105 H 0.5780 0.3325 0.5098
C56 C 0.69227(18) 0.16276(13) 0.43352(10)
H106 H 0.6632 0.1119 0.4310
H107 H 0.7702 0.1576 0.4513
H108 H 0.6998 0.1958 0.3926
C57 C 0.56946(19) 0.14154(13) 0.56319(10)
H109 H 0.5152 0.1643 0.5899
H110 H 0.6483 0.1353 0.5800
H111 H 0.5386 0.0913 0.5603
C58 C 0.18352(19) 0.45026(11) 0.33718(10)
H112 H 0.1797 0.4580 0.3790
H113 H 0.1274 0.4849 0.3132
H114 H 0.2644 0.4612 0.3190
C59 C 0.1642(2) 0.32979(12) 0.25636(9)
H115 H 0.2476 0.3395 0.2418
H116 H 0.1129 0.3648 0.2296
H117 H 0.1433 0.2766 0.2562
C60 C -0.02331(18) 0.33094(13) 0.36079(10)
H118 H -0.0454 0.2778 0.3609
H119 H -0.0700 0.3663 0.3316
H120 H -0.0394 0.3409 0.4016
C61 C 0.5099(2) 0.09836(14) 0.28770(12)
H121 H 0.5416 0.0830 0.3286
H122 H 0.5747 0.1228 0.2585
C62 C 0.4596(3) 0.02853(16) 0.26797(16)
H123 H 0.5189 0.0081 0.2415
H124 H 0.4371 -0.0127 0.3039
C63 C 0.3516(3) 0.05764(17) 0.23358(16)
H125 H 0.2818 0.0244 0.2496
H126 H 0.3661 0.0579 0.1898
C64 C 0.3294(2) 0.13837(16) 0.24238(12)
H127 H 0.3462 0.1761 0.2036
H128 H 0.2454 0.1440 0.2562
Li3 Li 0.2484(3) 0.24350(19) 0.50856(15)
Li4 Li 0.4248(3) 0.23340(19) 0.33558(15)
O5 O 0.5478(4) 0.3050(3) 0.2830(2)
C65 C 0.6258(6) 0.3623(4) 0.3006(3)
H129 H 0.5788 0.3936 0.3247
H130 H 0.6895 0.3359 0.3258
C66 C 0.6772(4) 0.4108(3) 0.2451(2)
H131 H 0.7507 0.3891 0.2294
H132 H 0.6917 0.4641 0.2492
C67 C 0.5578(6) 0.4033(4) 0.2036(3)
H133 H 0.4868 0.4293 0.2176
H134 H 0.5754 0.4239 0.1596
C68 C 0.5426(6) 0.3144(4) 0.2187(3)
H135 H 0.4653 0.2979 0.2069
H136 H 0.6087 0.2882 0.2006
O3? O 0.1164(6) 0.7638(3) 0.2435(3)
C33? C 0.2317(11) 0.8020(6) 0.2574(6)
H65? H 0.2168 0.8425 0.2807
H66? H 0.2849 0.8213 0.2208
C34? C 0.2764(5) 0.7199(4) 0.2996(3)
H67? H 0.3225 0.6897 0.2742
H68? H 0.3267 0.7292 0.3319
C35? C 0.1533(8) 0.6747(6) 0.3291(4)
H69? H 0.1564 0.6206 0.3248
H70? H 0.1430 0.6751 0.3730
C36? C 0.0558(9) 0.7140(5) 0.2969(4)
H71? H 0.0099 0.7445 0.3220
H72? H 0.0015 0.6772 0.2848
O6? O 0.5586(5) 0.2886(3) 0.2858(2)
C69? C 0.6401(5) 0.3444(3) 0.3031(2)
H137? H 0.7244 0.3334 0.2930
H138? H 0.6297 0.3441 0.3471
C70? C 0.5958(6) 0.4300(3) 0.2596(3)
H139? H 0.5193 0.4468 0.2762
H140? H 0.6565 0.4705 0.2575
C71? C 0.5826(6) 0.4132(4) 0.1990(3)
H141? H 0.6591 0.4189 0.1745
H142? H 0.5221 0.4466 0.1763
C72? C 0.5420(8) 0.3305(4) 0.2164(3)
H143? H 0.5866 0.3013 0.1898
H144? H 0.4566 0.3283 0.2083
loop_
_geom_bond_atom_site_label_1
_geom_bond_atom_site_label_2
_geom_bond_site_symmetry_1
_geom_bond_site_symmetry_2
P1 C1 1_555 1_555
P2 C5 1_555 1_555
Si1 C1 1_555 1_555
Si2 C4 1_555 1_555
Si3 C5 1_555 1_555
Si4 C8 1_555 1_555
O1 C25 1_555 1_555
C1 C2 1_555 1_555
C2 C3 1_555 1_555
C3 C4 1_555 1_555
C4 P1 1_555 1_555
C5 C6 1_555 1_555
C6 C7 1_555 1_555
C7 C8 1_555 1_555
C8 P2 1_555 1_555
C9 C2 1_555 1_555
H1 C9 1_555 1_555
H2 C9 1_555 1_555
H3 C9 1_555 1_555
C10 C3 1_555 1_555
H4 C10 1_555 1_555
H5 C10 1_555 1_555
H6 C10 1_555 1_555
C11 C6 1_555 1_555
H7 C11 1_555 1_555
H8 C11 1_555 1_555
H9 C11 1_555 1_555
C12 C7 1_555 1_555
H10 C12 1_555 1_555
H11 C12 1_555 1_555
H12 C12 1_555 1_555
C13 Si1 1_555 1_555
H13 C13 1_555 1_555
H14 C13 1_555 1_555
H15 C13 1_555 1_555
C14 Si1 1_555 1_555
H16 C14 1_555 1_555
H17 C14 1_555 1_555
H18 C14 1_555 1_555
C15 Si1 1_555 1_555
H19 C15 1_555 1_555
H20 C15 1_555 1_555
H21 C15 1_555 1_555
C16 Si2 1_555 1_555
H22 C16 1_555 1_555
H23 C16 1_555 1_555
H24 C16 1_555 1_555
C17 Si2 1_555 1_555
H25 C17 1_555 1_555
H26 C17 1_555 1_555
H27 C17 1_555 1_555
C18 Si2 1_555 1_555
H28 C18 1_555 1_555
H29 C18 1_555 1_555
H30 C18 1_555 1_555
C19 Si3 1_555 1_555
H31 C19 1_555 1_555
H32 C19 1_555 1_555
H33 C19 1_555 1_555
C20 Si3 1_555 1_555
H34 C20 1_555 1_555
H35 C20 1_555 1_555
H36 C20 1_555 1_555
C21 Si3 1_555 1_555
H37 C21 1_555 1_555
H38 C21 1_555 1_555
H39 C21 1_555 1_555
C22 Si4 1_555 1_555
H40 C22 1_555 1_555
H41 C22 1_555 1_555
H42 C22 1_555 1_555
C23 Si4 1_555 1_555
H43 C23 1_555 1_555
H44 C23 1_555 1_555
H45 C23 1_555 1_555
C24 Si4 1_555 1_555
H46 C24 1_555 1_555
H47 C24 1_555 1_555
H48 C24 1_555 1_555
C25 H49 1_555 1_555
H50 C25 1_555 1_555
C26 C25 1_555 1_555
H51 C26 1_555 1_555
H52 C26 1_555 1_555
C27 C26 1_555 1_555
H53 C27 1_555 1_555
H54 C27 1_555 1_555
C28 O1 1_555 1_555
H55 C28 1_555 1_555
H56 C28 1_555 1_555
Li1 P1 1_555 1_555
Li2 P2 1_555 1_555
O2 Li2 1_555 1_555
C29 O2 1_555 1_555
H57 C29 1_555 1_555
H58 C29 1_555 1_555
C30 C29 1_555 1_555
H59 C30 1_555 1_555
H60 C30 1_555 1_555
C31 C30 1_555 1_555
H61 C31 1_555 1_555
H62 C31 1_555 1_555
C32 O2 1_555 1_555
H63 C32 1_555 1_555
H64 C32 1_555 1_555
P3 C37 1_555 1_555
P4 C41 1_555 1_555
Si5 C37 1_555 1_555
Si6 C40 1_555 1_555
Si7 C41 1_555 1_555
Si8 C44 1_555 1_555
O4 C61 1_555 1_555
C37 C38 1_555 1_555
C38 C39 1_555 1_555
C39 C40 1_555 1_555
C40 P3 1_555 1_555
C41 C42 1_555 1_555
C42 C43 1_555 1_555
C43 C44 1_555 1_555
C44 P4 1_555 1_555
C45 C38 1_555 1_555
H73 C45 1_555 1_555
H74 C45 1_555 1_555
H75 C45 1_555 1_555
C46 C39 1_555 1_555
H76 C46 1_555 1_555
H77 C46 1_555 1_555
H78 C46 1_555 1_555
C47 C42 1_555 1_555
H79 C47 1_555 1_555
H80 C47 1_555 1_555
H81 C47 1_555 1_555
C48 C43 1_555 1_555
H82 C48 1_555 1_555
H83 C48 1_555 1_555
H84 C48 1_555 1_555
C49 Si5 1_555 1_555
H85 C49 1_555 1_555
H86 C49 1_555 1_555
H87 C49 1_555 1_555
C50 Si5 1_555 1_555
H88 C50 1_555 1_555
H89 C50 1_555 1_555
H90 C50 1_555 1_555
C51 Si5 1_555 1_555
H91 C51 1_555 1_555
H92 C51 1_555 1_555
H93 C51 1_555 1_555
C52 Si6 1_555 1_555
H94 C52 1_555 1_555
H95 C52 1_555 1_555
H96 C52 1_555 1_555
C53 Si6 1_555 1_555
H97 C53 1_555 1_555
H98 C53 1_555 1_555
H99 C53 1_555 1_555
C54 Si6 1_555 1_555
H100 C54 1_555 1_555
H101 C54 1_555 1_555
H102 C54 1_555 1_555
C55 Si7 1_555 1_555
H103 C55 1_555 1_555
H104 C55 1_555 1_555
H105 C55 1_555 1_555
C56 Si7 1_555 1_555
H106 C56 1_555 1_555
H107 C56 1_555 1_555
H108 C56 1_555 1_555
C57 Si7 1_555 1_555
H109 C57 1_555 1_555
H110 C57 1_555 1_555
H111 C57 1_555 1_555
C58 Si8 1_555 1_555
H112 C58 1_555 1_555
H113 C58 1_555 1_555
H114 C58 1_555 1_555
C59 Si8 1_555 1_555
H115 C59 1_555 1_555
H116 C59 1_555 1_555
H117 C59 1_555 1_555
C60 Si8 1_555 1_555
H118 C60 1_555 1_555
H119 C60 1_555 1_555
H120 C60 1_555 1_555
C61 H121 1_555 1_555
H122 C61 1_555 1_555
C62 C61 1_555 1_555
H123 C62 1_555 1_555
H124 C62 1_555 1_555
C63 C62 1_555 1_555
H125 C63 1_555 1_555
H126 C63 1_555 1_555
C64 O4 1_555 1_555
H127 C64 1_555 1_555
H128 C64 1_555 1_555
Li3 P3 1_555 1_555
Li4 P4 1_555 1_555
O5 Li4 1_555 1_555
C65 O5 1_555 1_555
H129 C65 1_555 1_555
H130 C65 1_555 1_555
C66 C65 1_555 1_555
H131 C66 1_555 1_555
H132 C66 1_555 1_555
C67 C66 1_555 1_555
H133 C67 1_555 1_555
H134 C67 1_555 1_555
C68 O5 1_555 1_555
H135 C68 1_555 1_555
H136 C68 1_555 1_555
P2 Li1 1_555 1_555
O1 Li2 1_555 1_555
C1 Li1 1_555 1_555
C2 Li1 1_555 1_555
C3 Li1 1_555 1_555
C4 Li1 1_555 1_555
C5 Li1 1_555 1_555
C5 Li2 1_555 1_555
C6 Li1 1_555 1_555
C6 Li2 1_555 1_555
C7 Li1 1_555 1_555
C7 Li2 1_555 1_555
C8 Li1 1_555 1_555
C8 Li2 1_555 1_555
C27 C28 1_555 1_555
C31 C32 1_555 1_555
P4 Li3 1_555 1_555
O4 Li4 1_555 1_555
C37 Li3 1_555 1_555
C38 Li3 1_555 1_555
C39 Li3 1_555 1_555
C40 Li3 1_555 1_555
C41 Li3 1_555 1_555
C41 Li4 1_555 1_555
C42 Li3 1_555 1_555
C42 Li4 1_555 1_555
C43 Li3 1_555 1_555
C43 Li4 1_555 1_555
C44 Li3 1_555 1_555
C44 Li4 1_555 1_555
C63 C64 1_555 1_555
C67 C68 1_555 1_555

#END
