
#######################################################################
#
#                 Cambridge Crystallographic Data Centre
#                                CCDC 
#
#######################################################################
#
# If this CIF has been generated from an entry in the Cambridge 
# Structural Database, then it will include bibliographic, chemical, 
# crystal, experimental, refinement or atomic coordinate data resulting 
# from the CCDC's data processing and validation procedures.
#
#######################################################################

data_DIFKUA
_chemical_formula_moiety         'C28 H34 N6 O2'
_chemical_name_systematic        
10,21-Di-t-butyl-3,4,5,14,15,16-hexa-azapentacyclo[17.3.1.1^3,6^.1^8,12^.1^14,17^]hexacosa-1(23),4,6(26),8(25),9,11,15,17(24),19,21-decaene-23,25-diol
_symmetry_cell_setting           triclinic
_symmetry_space_group_name_H-M   'P -1'
_symmetry_Int_Tables_number      2
_space_group_name_Hall           '-P 1'
loop_
_symmetry_equiv_pos_site_id
_symmetry_equiv_pos_as_xyz
1 x,y,z
2 -x,-y,-z
_cell_length_a                   7.6982(11)
_cell_length_b                   8.8544(13)
_cell_length_c                   11.1100(17)
_cell_angle_alpha                71.988(5)
_cell_angle_beta                 84.495(5)
_cell_angle_gamma                76.940(5)
_cell_volume                     701.271
_exptl_crystal_colour            colorless
_exptl_crystal_description       block
_cell_formula_units_Z            1
loop_
_atom_site_label
_atom_site_type_symbol
_atom_site_fract_x
_atom_site_fract_y
_atom_site_fract_z
C1 C 0.9353(4) 0.7512(4) 0.5168(3)
H1 H 0.9694 0.6353 0.5359
H2 H 0.8728 0.7786 0.5887
H3 H 1.0401 0.7970 0.4973
C2 C 0.6538(4) 0.7349(4) 0.4333(3)
H4 H 0.5704 0.7837 0.3662
H5 H 0.5965 0.7468 0.5115
H6 H 0.6945 0.6217 0.4409
C3 C 0.8140(4) 0.8192(3) 0.4033(3)
C4 C 0.7466(5) 1.0021(4) 0.3829(3)
H7 H 0.8455 1.0558 0.3605
H8 H 0.6894 1.0198 0.4595
H9 H 0.6627 1.0451 0.3159
C5 C 0.9102(3) 0.7902(3) 0.2826(2)
C6 C 1.0801(3) 0.6938(3) 0.2820(2)
H10 H 1.1394 0.6475 0.3581
C7 C 0.8265(3) 0.8580(3) 0.1668(2)
H11 H 0.7121 0.9218 0.1642
C8 C 1.1661(3) 0.6633(3) 0.1728(2)
C9 C 1.0787(3) 0.7364(3) 0.0573(2)
C10 C 0.9069(3) 0.8341(3) 0.0553(2)
C11 C 1.3476(3) 0.5498(3) 0.1821(2)
H12 H 1.4327 0.6076 0.1277
H13 H 1.3872 0.5167 0.2684
C12 C 0.8128(3) 0.9122(3) -0.0682(2)
H14 H 0.7248 1.0074 -0.0624
H15 H 0.8985 0.9473 -0.1351
C13 C 0.7238(2) 0.7995(2) -0.10047(19)
C14 C 0.7962(3) 0.6672(3) -0.1381(2)
H16 H 0.9160 0.6301 -0.1559
N1 N 0.5469(2) 0.8145(2) -0.0827(2)
N2 N 0.5050(2) 0.6913(2) -0.1104(2)
N3 N 0.6549(3) 0.5990(3) -0.1444(2)
O1 O 1.1476(2) 0.71509(19) -0.05518(16)
H17 H 1.2561 0.7064 -0.0573
C1A C 1.0647(4) 0.2488(4) -0.5168(3)
H1A H 1.0306 0.3647 -0.5359
H2A H 1.1272 0.2214 -0.5887
H3A H 0.9599 0.2030 -0.4973
C2A C 1.3462(4) 0.2651(4) -0.4333(3)
H4A H 1.4296 0.2163 -0.3662
H5A H 1.4035 0.2532 -0.5115
H6A H 1.3055 0.3783 -0.4409
C3A C 1.1860(4) 0.1808(3) -0.4033(3)
C4A C 1.2534(5) -0.0021(4) -0.3829(3)
H7A H 1.1545 -0.0558 -0.3605
H8A H 1.3106 -0.0198 -0.4595
H9A H 1.3373 -0.0451 -0.3159
C5A C 1.0898(3) 0.2098(3) -0.2826(2)
C6A C 0.9199(3) 0.3062(3) -0.2820(2)
H10A H 0.8606 0.3525 -0.3581
C7A C 1.1735(3) 0.1420(3) -0.1668(2)
H11A H 1.2879 0.0782 -0.1642
C8A C 0.8339(3) 0.3367(3) -0.1728(2)
C9A C 0.9213(3) 0.2636(3) -0.0573(2)
C10A C 1.0931(3) 0.1659(3) -0.0553(2)
C11A C 0.6524(3) 0.4502(3) -0.1821(2)
H12A H 0.5673 0.3924 -0.1277
H13A H 0.6128 0.4833 -0.2684
C12A C 1.1872(3) 0.0878(3) 0.0682(2)
H14A H 1.2752 -0.0074 0.0624
H15A H 1.1015 0.0527 0.1351
C13A C 1.2762(2) 0.2005(2) 0.10047(19)
C14A C 1.2038(3) 0.3328(3) 0.1381(2)
H16A H 1.0840 0.3699 0.1559
N1A N 1.4531(2) 0.1855(2) 0.0827(2)
N2A N 1.4950(2) 0.3087(2) 0.1104(2)
N3A N 1.3451(3) 0.4010(3) 0.1444(2)
O1A O 0.8524(2) 0.28491(19) 0.05518(16)
H17A H 0.7439 0.2936 0.0573
loop_
_geom_bond_atom_site_label_1
_geom_bond_atom_site_label_2
_geom_bond_site_symmetry_1
_geom_bond_site_symmetry_2
C1 H1 1_555 1_555
H2 C1 1_555 1_555
H3 C1 1_555 1_555
C2 H4 1_555 1_555
H5 C2 1_555 1_555
H6 C2 1_555 1_555
C3 C1 1_555 1_555
C4 C3 1_555 1_555
H7 C4 1_555 1_555
H8 C4 1_555 1_555
H9 C4 1_555 1_555
C5 C3 1_555 1_555
C6 C5 1_555 1_555
H10 C6 1_555 1_555
C7 C5 1_555 1_555
H11 C7 1_555 1_555
C8 C6 1_555 1_555
C9 C8 1_555 1_555
C10 C7 1_555 1_555
C11 C8 1_555 1_555
H12 C11 1_555 1_555
H13 C11 1_555 1_555
C12 C10 1_555 1_555
H14 C12 1_555 1_555
H15 C12 1_555 1_555
C13 C12 1_555 1_555
C14 C13 1_555 1_555
H16 C14 1_555 1_555
N1 C13 1_555 1_555
N2 N1 1_555 1_555
N3 C14 1_555 1_555
O1 C9 1_555 1_555
H17 O1 1_555 1_555
C1A H1A 1_555 1_555
H2A C1A 1_555 1_555
H3A C1A 1_555 1_555
C2A H4A 1_555 1_555
H5A C2A 1_555 1_555
H6A C2A 1_555 1_555
C3A C1A 1_555 1_555
C4A C3A 1_555 1_555
H7A C4A 1_555 1_555
H8A C4A 1_555 1_555
H9A C4A 1_555 1_555
C5A C3A 1_555 1_555
C6A C5A 1_555 1_555
H10A C6A 1_555 1_555
C7A C5A 1_555 1_555
H11A C7A 1_555 1_555
C8A C6A 1_555 1_555
C9A C8A 1_555 1_555
C10A C7A 1_555 1_555
C11A N3 1_555 1_555
H12A C11A 1_555 1_555
H13A C11A 1_555 1_555
C12A C10A 1_555 1_555
H14A C12A 1_555 1_555
H15A C12A 1_555 1_555
C13A C12A 1_555 1_555
C14A C13A 1_555 1_555
H16A C14A 1_555 1_555
N1A C13A 1_555 1_555
N2A N1A 1_555 1_555
N3A C11 1_555 1_555
O1A C9A 1_555 1_555
H17A O1A 1_555 1_555
C2 C3 1_555 1_555
C9 C10 1_555 1_555
N2 N3 1_555 1_555
C2A C3A 1_555 1_555
C8A C11A 1_555 1_555
C9A C10A 1_555 1_555
C14A N3A 1_555 1_555
N2A N3A 1_555 1_555

#END
