
#######################################################################
#
#                 Cambridge Crystallographic Data Centre
#                                CCDC 
#
#######################################################################
#
# If this CIF has been generated from an entry in the Cambridge 
# Structural Database, then it will include bibliographic, chemical, 
# crystal, experimental, refinement or atomic coordinate data resulting 
# from the CCDC's data processing and validation procedures.
#
#######################################################################

data_DIFKAH
_chemical_formula_moiety         'C28 H26 N2 O6 S1,H2 O1'
_chemical_name_systematic        
'N-{1-[5-(5-formylfuran-2-yl)-2-methylphenyl]-3-(2-methylphenyl)propan-2-yl}-4-nitrobenzene-1-sulfonamide monohydrate'
_symmetry_cell_setting           monoclinic
_symmetry_space_group_name_H-M   'P 21'
_symmetry_Int_Tables_number      4
_space_group_name_Hall           'P 2yb'
loop_
_symmetry_equiv_pos_site_id
_symmetry_equiv_pos_as_xyz
1 x,y,z
2 -x,1/2+y,-z
_cell_length_a                   12.891(9)
_cell_length_b                   7.214(5)
_cell_length_c                   28.37(2)
_cell_angle_alpha                90
_cell_angle_beta                 97.295(15)
_cell_angle_gamma                90
_cell_volume                     2616.93
_exptl_crystal_colour            colorless
_exptl_crystal_description       blade
_cell_formula_units_Z            4
loop_
_atom_site_label
_atom_site_type_symbol
_atom_site_fract_x
_atom_site_fract_y
_atom_site_fract_z
S1 S 1.0662(2) -0.0934(4) 0.66479(10)
O1 O 0.7481(5) 0.4279(9) 0.6719(2)
O2 O 1.0942(5) -0.1959(8) 0.6250(2)
C1 C 0.7926(8) 0.3433(13) 0.5949(4)
O3 O 0.7589(6) 0.5536(14) 0.7647(3)
N1 N 1.1014(6) 0.1156(11) 0.6584(2)
O4 O 0.5504(7) -0.1292(14) 0.6099(4)
C2 C 0.6620(7) 0.4305(15) 0.6959(4)
C3 C 1.3760(9) 0.2125(18) 0.5122(4)
H1 H 1.3852 0.1259 0.4879
O5 O 1.1015(6) -0.1509(9) 0.7126(2)
N2 N 0.5994(8) -0.1031(15) 0.6482(4)
C4 C 0.9743(7) 0.3415(11) 0.5814(3)
C5 C 0.8972(8) 0.3702(12) 0.6110(4)
H2 H 0.9171 0.4090 0.6428
C6 C 1.3158(8) 0.2815(15) 0.5879(4)
C7 C 1.3477(7) 0.4684(14) 0.5843(4)
C8 C 1.0246(9) 0.2566(16) 0.5003(4)
H3 H 0.9891 0.2076 0.4703
H4 H 1.0777 0.1680 0.5139
H5 H 1.0582 0.3748 0.4944
C9 C 1.0872(7) 0.3706(13) 0.6006(3)
H6 H 1.0913 0.4565 0.6279
H7 H 1.1234 0.4298 0.5757
C10 C 0.7629(8) 0.2849(14) 0.5491(3)
H8 H 0.6912 0.2634 0.5381
C11 C 0.7145(8) -0.1008(15) 0.6531(4)
C12 C 1.3935(8) 0.5168(15) 0.5448(4)
H9 H 1.4157 0.6416 0.5421
C13 C 1.1438(7) 0.1900(12) 0.6164(3)
H10 H 1.1306 0.0977 0.5900
O6 O 0.5594(7) -0.0778(15) 0.6850(4)
C14 C 1.3340(7) 0.6130(15) 0.6209(3)
H11 H 1.2597 0.6436 0.6197
H12 H 1.3732 0.7246 0.6145
H13 H 1.3603 0.5653 0.6526
C15 C 0.6078(8) 0.3360(15) 0.6229(4)
H14 H 0.5641 0.2931 0.5956
C16 C 0.6761(9) 0.4961(17) 0.7441(4)
H15 H 0.6172 0.4947 0.7611
C17 C 0.9450(8) 0.2869(14) 0.5349(3)
C18 C 0.8389(8) 0.2574(14) 0.5189(3)
H16 H 0.8185 0.2182 0.4871
C19 C 0.8705(9) -0.1350(13) 0.6175(4)
H17 H 0.9052 -0.1627 0.5907
C20 C 0.7608(9) -0.1367(15) 0.6133(4)
H18 H 0.7200 -0.1620 0.5837
C21 C 0.7139(8) 0.3686(12) 0.6261(4)
C22 C 1.3294(8) 0.1583(17) 0.5515(3)
H19 H 1.3062 0.0339 0.5536
C23 C 1.2631(7) 0.2143(14) 0.6289(3)
H20 H 1.2768 0.3037 0.6554
H21 H 1.2942 0.0940 0.6400
C24 C 0.5764(8) 0.3762(16) 0.6661(4)
H22 H 0.5070 0.3677 0.6739
C25 C 1.4090(7) 0.3958(19) 0.5089(4)
H23 H 1.4416 0.4360 0.4824
C26 C 0.8790(9) -0.0573(16) 0.7004(4)
H24 H 0.9200 -0.0312 0.7300
C27 C 0.7716(9) -0.0600(17) 0.6968(4)
H25 H 0.7369 -0.0344 0.7237
C28 C 0.9266(8) -0.0936(14) 0.6600(3)
H26 H 1.106(7) 0.186(11) 0.684(2)
S2 S 1.4703(2) 0.1468(4) 0.84463(11)
O7 O 1.1500(5) -0.4341(8) 0.8236(2)
O8 O 1.5170(6) 0.2312(9) 0.8885(3)
O9 O 0.9530(6) 0.0836(11) 0.8168(3)
O10 O 1.1028(6) -0.6043(10) 0.7336(2)
N3 N 1.0098(7) 0.1116(13) 0.8542(4)
O11 O 0.9805(6) 0.1342(12) 0.8928(3)
O12 O 1.4753(5) 0.2405(10) 0.8004(3)
C29 C 1.3343(7) 0.1262(14) 0.8484(4)
C30 C 1.2394(7) -0.3221(13) 0.8977(3)
C31 C 1.3355(7) -0.3439(13) 0.8821(3)
H27 H 1.3384 -0.3861 0.8506
C32 C 1.1254(8) 0.1142(13) 0.8523(3)
C33 C 1.2669(8) 0.0570(14) 0.8098(3)
H28 H 1.2946 0.0154 0.7821
C34 C 1.7676(7) -0.2577(14) 0.9094(3)
C35 C 1.1411(8) -0.3595(13) 0.8676(3)
C36 C 1.7963(8) -0.4423(15) 0.9148(4)
C37 C 1.2966(8) 0.1819(14) 0.8888(4)
H29 H 1.3435 0.2218 0.9155
C38 C 1.5829(7) -0.1510(12) 0.8795(3)
H30 H 1.5877 -0.0693 0.9082
C39 C 1.4289(7) -0.3061(12) 0.9112(3)
C40 C 1.1609(8) 0.0491(13) 0.8117(4)
H31 H 1.1142 0.0008 0.7860
C41 C 1.5308(7) -0.3309(12) 0.8916(3)
H32 H 1.5185 -0.4080 0.8626
H33 H 1.5795 -0.3996 0.9152
N4 N 1.5201(6) -0.0531(11) 0.8403(3)
C42 C 1.0496(8) -0.4520(13) 0.8007(3)
C43 C 1.5220(8) -0.2149(16) 0.9918(3)
H34 H 1.5722 -0.3144 0.9884
H35 H 1.5047 -0.2134 1.0245
H36 H 1.5527 -0.0955 0.9846
C44 C 1.8057(7) -0.1310(15) 0.9450(4)
H37 H 1.7854 -0.0046 0.9417
C45 C 1.6934(7) -0.1800(13) 0.8673(3)
H38 H 1.7211 -0.0602 0.8573
H39 H 1.6911 -0.2669 0.8401
C46 C 1.8715(8) -0.1847(17) 0.9845(4)
H40 H 1.8957 -0.0963 1.0082
C47 C 1.4246(7) -0.2475(14) 0.9581(3)
C48 C 1.1902(8) 0.1804(14) 0.8911(4)
H41 H 1.1625 0.2236 0.9186
C49 C 1.2356(8) -0.2617(14) 0.9441(3)
H42 H 1.1700 -0.2430 0.9553
C50 C 1.3274(8) -0.2290(13) 0.9739(3)
H43 H 1.3238 -0.1932 1.0059
C51 C 1.9019(8) -0.3652(18) 0.9897(4)
H44 H 1.9474 -0.4032 1.0170
C52 C 1.0401(8) -0.3330(15) 0.8723(4)
H45 H 1.0128 -0.2832 0.8992
C53 C 1.0351(9) -0.5384(13) 0.7550(4)
H46 H 0.9653 -0.5454 0.7396
C54 C 1.7588(8) -0.5905(16) 0.8800(3)
H47 H 1.6915 -0.6385 0.8873
H48 H 1.8101 -0.6914 0.8820
H49 H 1.7502 -0.5388 0.8478
C55 C 0.9819(8) -0.3943(15) 0.8292(4)
H50 H 0.9079 -0.3940 0.8221
C56 C 1.8656(8) -0.4946(16) 0.9545(4)
H51 H 1.8884 -0.6197 0.9578
H52 H 1.504(7) -0.112(12) 0.813(2)
O13 O 1.3256(7) 0.4627(12) 0.7420(3)
H53 H 1.3622 0.3917 0.7626
H54 H 1.2594 0.4396 0.7422
O14 O 1.4367(8) -0.2181(12) 0.7543(2)
H55 H 1.4668 -0.1722 0.7312
H56 H 1.4111 -0.3236 0.7435
loop_
_geom_bond_atom_site_label_1
_geom_bond_atom_site_label_2
_geom_bond_site_symmetry_1
_geom_bond_site_symmetry_2
S1 O2 1_555 1_555
O1 C2 1_555 1_555
C1 C5 1_555 1_555
O3 C16 1_555 1_555
N1 S1 1_555 1_555
O4 N2 1_555 1_555
C2 C16 1_555 1_555
C3 H1 1_555 1_555
O5 S1 1_555 1_555
N2 C11 1_555 1_555
C4 C5 1_555 1_555
C5 H2 1_555 1_555
C6 C7 1_555 1_555
C7 C12 1_555 1_555
C8 H3 1_555 1_555
H4 C8 1_555 1_555
H5 C8 1_555 1_555
C9 C4 1_555 1_555
H6 C9 1_555 1_555
H7 C9 1_555 1_555
C10 C1 1_555 1_555
H8 C10 1_555 1_555
C11 C20 1_555 1_555
C12 H9 1_555 1_555
C13 N1 1_555 1_555
H10 C13 1_555 1_555
O6 N2 1_555 1_555
C14 C7 1_555 1_555
H11 C14 1_555 1_555
H12 C14 1_555 1_555
H13 C14 1_555 1_555
C15 H14 1_555 1_555
C16 H15 1_555 1_555
C17 C4 1_555 1_555
C18 C10 1_555 1_555
H16 C18 1_555 1_555
C19 H17 1_555 1_555
C20 C19 1_555 1_555
H18 C20 1_555 1_555
C21 O1 1_555 1_555
C22 C3 1_555 1_555
H19 C22 1_555 1_555
C23 C6 1_555 1_555
H20 C23 1_555 1_555
H21 C23 1_555 1_555
C24 C2 1_555 1_555
H22 C24 1_555 1_555
C25 C3 1_555 1_555
H23 C25 1_555 1_555
C26 H24 1_555 1_555
C27 C11 1_555 1_555
H25 C27 1_555 1_555
C28 S1 1_555 1_555
H26 N1 1_555 1_555
S2 O8 1_555 1_555
O7 C35 1_555 1_555
O9 N3 1_555 1_555
O10 C53 1_555 1_555
N3 O11 1_555 1_555
O12 S2 1_555 1_555
C29 S2 1_555 1_555
C30 C31 1_555 1_555
C31 H27 1_555 1_555
C32 N3 1_555 1_555
C33 C29 1_555 1_555
H28 C33 1_555 1_555
C34 C36 1_555 1_555
C35 C30 1_555 1_555
C36 C54 1_555 1_555
C37 C29 1_555 1_555
H29 C37 1_555 1_555
C38 H30 1_555 1_555
C39 C31 1_555 1_555
C40 C32 1_555 1_555
H31 C40 1_555 1_555
C41 C38 1_555 1_555
H32 C41 1_555 1_555
H33 C41 1_555 1_555
N4 S2 1_555 1_555
C42 O7 1_555 1_555
C43 H34 1_555 1_555
H35 C43 1_555 1_555
H36 C43 1_555 1_555
C44 C34 1_555 1_555
H37 C44 1_555 1_555
C45 C34 1_555 1_555
H38 C45 1_555 1_555
H39 C45 1_555 1_555
C46 C44 1_555 1_555
H40 C46 1_555 1_555
C47 C39 1_555 1_555
C48 C32 1_555 1_555
H41 C48 1_555 1_555
C49 C30 1_555 1_555
H42 C49 1_555 1_555
C50 C47 1_555 1_555
H43 C50 1_555 1_555
C51 C46 1_555 1_555
H44 C51 1_555 1_555
C52 C35 1_555 1_555
H45 C52 1_555 1_555
C53 C42 1_555 1_555
H46 C53 1_555 1_555
C54 H47 1_555 1_555
H48 C54 1_555 1_555
H49 C54 1_555 1_555
C55 C42 1_555 1_555
H50 C55 1_555 1_555
C56 C36 1_555 1_555
H51 C56 1_555 1_555
H52 N4 1_555 1_555
O13 H53 1_555 1_555
H54 O13 1_555 1_555
O14 H55 1_555 1_555
H56 O14 1_555 1_555
C1 C21 1_555 1_555
C6 C22 1_555 1_555
C8 C17 1_555 1_555
C9 C13 1_555 1_555
C12 C25 1_555 1_555
C13 C23 1_555 1_555
C15 C21 1_555 1_555
C15 C24 1_555 1_555
C17 C18 1_555 1_555
C19 C28 1_555 1_555
C26 C27 1_555 1_555
C26 C28 1_555 1_555
C33 C40 1_555 1_555
C37 C48 1_555 1_555
C38 N4 1_555 1_555
C38 C45 1_555 1_555
C39 C41 1_555 1_555
C43 C47 1_555 1_555
C49 C50 1_555 1_555
C51 C56 1_555 1_555
C52 C55 1_555 1_555

#END
