
#######################################################################
#
#                 Cambridge Crystallographic Data Centre
#                                CCDC 
#
#######################################################################
#
# If this CIF has been generated from an entry in the Cambridge 
# Structural Database, then it will include bibliographic, chemical, 
# crystal, experimental, refinement or atomic coordinate data resulting 
# from the CCDC's data processing and validation procedures.
#
#######################################################################

data_DIFLUZ
_chemical_formula_moiety         'C24 H30 N2 O6 S1'
_chemical_name_systematic        
'Methyl 2-methoxycarbonyl-\a-(2-(1-tosyl-3,4,4-trimethyl)imidazolinyl)-1-phenylacetate'
_symmetry_cell_setting           monoclinic
_symmetry_space_group_name_H-M   'C 2/c'
_symmetry_Int_Tables_number      15
_space_group_name_Hall           '-C 2yn'
loop_
_symmetry_equiv_pos_site_id
_symmetry_equiv_pos_as_xyz
1 x,y,z
2 1/2+x,1/2+y,z
3 -x,y,1/2-z
4 1/2-x,1/2+y,1/2-z
5 -x,-y,-z
6 1/2-x,1/2-y,-z
7 x,-y,1/2+z
8 1/2+x,1/2-y,1/2+z
_cell_length_a                   30.885(3)
_cell_length_b                   8.734(1)
_cell_length_c                   18.350(4)
_cell_angle_alpha                90
_cell_angle_beta                 97.077
_cell_angle_gamma                90
_cell_volume                     4912.19
_chemical_melting_point          138-139deg.C
_cell_formula_units_Z            8
loop_
_atom_site_label
_atom_site_type_symbol
_atom_site_fract_x
_atom_site_fract_y
_atom_site_fract_z
C1 C 0.2050(40) 0.3477(13) 0.3614(5)
C2 C 0.2425(30) 0.4314(14) 0.3641(6)
C3 C 0.2607(4) 0.5021(15) 0.4265(6)
C4 C 0.2404(5) 0.4885(14) 0.4910(6)
C5 C 0.2021(4) 0.4048(13) 0.4871(6)
C6 C 0.1848(4) 0.3327(14) 0.4235(6)
C7 C 0.2596(5) 0.5654(16) 0.5616(7)
C8 C 0.1697(3) 0.5256(12) 0.1973(5)
C9 C 0.1459(3) 0.6621(11) 0.2237(6)
C10 C 0.1073(3) 0.4334(11) 0.2512(5)
C11 C 0.1667(4) 0.7213(13) 0.2969(7)
C12 C 0.1417(3) 0.7902(14) 0.1655(7)
C13 C 0.0715(4) 0.6780(10) 0.2642(5)
C14 C 0.0703(3) 0.3336(11) 0.2073(5)
C15 C 0.0609(3) 0.1882(11) 0.2452(6)
C16 C 0.0516(5) 0.0924(15) 0.3628(7)
C17 C 0.0790(13) 0.3174(11) 0.1290(5)
C18 C 0.1052(4) 0.1954(12) 0.1096(6)
C19 C 0.1178(4) 0.1817(16) 0.0423(7)
C20 C 0.1058(4) 0.2903(17) -0.0126(6)
C21 C 0.0811(4) 0.4143(15) 0.0040(6)
C22 C 0.0666(4) 0.4245(11) 0.0731(5)
C23 C 0.0374(3) 0.5532(13) 0.0870(5)
C24 C 0.0199(5) 0.8190(14) 0.0642(7)
O1 O 0.2163(3) 0.2334(10) 0.23610(4)
O2 O 0.1524(3) 0.1464(8) 0.2950(4)
O3 O 0.0559(3) 0.0645(8) 0.2196(15)
O4 O 0.0584(3) 0.2180(9) 0.3164(5)
O5 O 0.0064(2) 0.5455(9) 0.1235(4)
O6 O 0.0462(3) 0.6833(9) 0.0545(4)
N1 N 0.1518(3) 0.3947(9) 0.2324(4)
N2 N 0.1019(2) 0.5914(8) 0.2249(4)
S1 S 0.1813(1) 0.2658(3) 0.2779(2)
H1 H 0.260 0.436 0.315
H2 H 0.291 0.571 0.428
H3 H 0.186 0.399 0.538
H4 H 0.155 0.265 0.424
H5 H 0.296 0.568 0.564
H6 H 0.248 0.685 0.565
H7 H 0.251 0.504 0.610
H8 H 0.163 0.506 0.142
H9 H 0.201 0.546 0.210
H10 H 0.104 0.427 0.310
H11 H 0.163 0.638 0.339
H12 H 0.201 0.750 0.298
H13 H 0.150 0.829 0.309
H14 H 0.130 0.758 0.111
H15 H 0.174 0.841 0.166
H16 H 0.119 0.875 0.184
H17 H 0.044 0.631 0.246
H18 H 0.072 0.800 0.250
H19 H 0.079 0.665 0.323
H20 H 0.043 0.414 0.208
H21 H 0.032 0.017 0.342
H22 H 0.042 0.128 0.415
H23 H 0.084 0.029 0.377
H24 H 0.117 0.108 0.151
H25 H 0.137 0.081 0.029
H26 H 0.116 0.278 -0.069
H27 H 0.073 0.505 -0.037
H28 H -0.014 0.806 0.041
H29 H 0.021 0.843 0.124
H30 H 0.035 0.919 0.040
loop_
_geom_bond_atom_site_label_1
_geom_bond_atom_site_label_2
_geom_bond_site_symmetry_1
_geom_bond_site_symmetry_2
C1 C2 1_555 1_555
C2 C3 1_555 1_555
C3 C4 1_555 1_555
C4 C5 1_555 1_555
C5 C6 1_555 1_555
C6 C1 1_555 1_555
C7 C4 1_555 1_555
C8 C9 1_555 1_555
C9 C11 1_555 1_555
C10 C14 1_555 1_555
C11 H11 1_555 1_555
C12 C9 1_555 1_555
C13 N2 1_555 1_555
C14 C15 1_555 1_555
C15 O3 1_555 1_555
C16 O4 1_555 1_555
C17 C14 1_555 1_555
C18 C17 1_555 1_555
C19 C18 1_555 1_555
C20 C19 1_555 1_555
C21 C20 1_555 1_555
C22 C17 1_555 1_555
C23 C22 1_555 1_555
C24 O6 1_555 1_555
O1 S1 1_555 1_555
O2 S1 1_555 1_555
O4 C15 1_555 1_555
O5 C23 1_555 1_555
O6 C23 1_555 1_555
N1 C8 1_555 1_555
N2 C9 1_555 1_555
S1 C1 1_555 1_555
H1 C2 1_555 1_555
H2 C3 1_555 1_555
H3 C5 1_555 1_555
H4 C6 1_555 1_555
H5 C7 1_555 1_555
H6 C7 1_555 1_555
H7 C7 1_555 1_555
H8 C8 1_555 1_555
H9 C8 1_555 1_555
H10 C10 1_555 1_555
H12 C11 1_555 1_555
H13 C11 1_555 1_555
H14 C12 1_555 1_555
H15 C12 1_555 1_555
H16 C12 1_555 1_555
H17 C13 1_555 1_555
H18 C13 1_555 1_555
H19 C13 1_555 1_555
H20 C14 1_555 1_555
H21 C16 1_555 1_555
H22 C16 1_555 1_555
H23 C16 1_555 1_555
H24 C18 1_555 1_555
H25 C19 1_555 1_555
H26 C20 1_555 1_555
H27 C21 1_555 1_555
H28 C24 1_555 1_555
H29 C24 1_555 1_555
H30 C24 1_555 1_555
C10 N1 1_555 1_555
C10 N2 1_555 1_555
C21 C22 1_555 1_555
N1 S1 1_555 1_555

#END
