
#######################################################################
#
#                 Cambridge Crystallographic Data Centre
#                                CCDC 
#
#######################################################################
#
# If this CIF has been generated from an entry in the Cambridge 
# Structural Database, then it will include bibliographic, chemical, 
# crystal, experimental, refinement or atomic coordinate data resulting 
# from the CCDC's data processing and validation procedures.
#
#######################################################################

data_DIFLUB
_chemical_formula_moiety         'C41 H46 Cl1 N2 1+,F6 P1 1-'
_chemical_name_systematic        
'3-Butyl-2-(5-(3-butyl-1,1-dimethyl-1,3-dihydro-2H-benzo[e]indol-2-ylidene)-3-chloropenta-1,3-dien-1-yl)-1,1-dimethyl-1H-benzo[e]indolium hexafluorophosphate'
_symmetry_cell_setting           orthorhombic
_symmetry_space_group_name_H-M   'P 21 21 21'
_symmetry_Int_Tables_number      19
_space_group_name_Hall           'P 2ac 2ab'
loop_
_symmetry_equiv_pos_site_id
_symmetry_equiv_pos_as_xyz
1 x,y,z
2 1/2-x,-y,1/2+z
3 -x,1/2+y,1/2-z
4 1/2+x,1/2-y,-z
_cell_length_a                   10.059(2)
_cell_length_b                   15.098(4)
_cell_length_c                   24.989(6)
_cell_angle_alpha                90
_cell_angle_beta                 90
_cell_angle_gamma                90
_cell_volume                     3795.1
_cell_formula_units_Z            4
loop_
_atom_site_label
_atom_site_type_symbol
_atom_site_fract_x
_atom_site_fract_y
_atom_site_fract_z
Cl1 Cl 0.9089(3) 0.84668(18) 0.06556(10)
N1 N 0.7215(7) 0.5615(5) -0.0188(3)
N2 N 0.8667(8) 1.0254(5) 0.2397(3)
C1 C 0.6610(9) 0.4802(6) -0.0247(4)
C2 C 0.6352(10) 0.4344(7) -0.0744(3)
H1 H 0.6618 0.4580 -0.1070
C3 C 0.5724(10) 0.3578(6) -0.0716(4)
H2 H 0.5505 0.3291 -0.1034
C4 C 0.5372(9) 0.3177(7) -0.0231(4)
C5 C 0.4691(11) 0.2380(8) -0.0208(4)
H3 H 0.4461 0.2106 -0.0529
C6 C 0.4347(11) 0.1985(7) 0.0250(5)
H4 H 0.3894 0.1448 0.0248
C7 C 0.4681(11) 0.2395(8) 0.0735(5)
H5 H 0.4444 0.2124 0.1055
C8 C 0.5324(10) 0.3157(7) 0.0748(4)
H6 H 0.5533 0.3410 0.1077
C9 C 0.5714(9) 0.3608(6) 0.0259(4)
C10 C 0.6331(9) 0.4430(7) 0.0225(3)
C11 C 0.6768(8) 0.5086(6) 0.0657(4)
C12 C 0.7917(10) 0.4691(6) 0.1000(3)
H7 H 0.8639 0.4525 0.0769
H8 H 0.7602 0.4178 0.1188
H9 H 0.8219 0.5126 0.1252
C13 C 0.5571(10) 0.5395(7) 0.1003(4)
H10 H 0.5870 0.5816 0.1264
H11 H 0.5187 0.4893 0.1182
H12 H 0.4914 0.5666 0.0777
C14 C 0.7345(9) 0.5851(6) 0.0330(4)
C15 C 0.7886(9) 0.6638(7) 0.0492(4)
H13 H 0.8222 0.7002 0.0224
C16 C 0.7990(9) 0.6954(6) 0.1018(4)
H14 H 0.7739 0.6574 0.1293
C17 C 0.8435(10) 0.7786(6) 0.1157(4)
C18 C 0.8339(9) 0.8157(6) 0.1664(3)
H15 H 0.8068 0.7774 0.1934
C19 C 0.8591(9) 0.9019(6) 0.1820(4)
H16 H 0.8882 0.9392 0.1548
C20 C 0.8479(9) 0.9410(7) 0.2315(4)
C21 C 0.8188(9) 0.8960(6) 0.2849(4)
C22 C 0.6778(10) 0.8571(7) 0.2857(4)
H17 H 0.6546 0.8409 0.3216
H18 H 0.6747 0.8056 0.2632
H19 H 0.6160 0.9004 0.2727
C23 C 0.9249(11) 0.8255(6) 0.2968(4)
H20 H 1.0117 0.8510 0.2928
H21 H 0.9150 0.7770 0.2723
H22 H 0.9141 0.8044 0.3328
C24 C 0.8317(8) 0.9717(7) 0.3228(4)
C25 C 0.8213(9) 0.9758(7) 0.3785(4)
C26 C 0.7903(10) 0.9038(7) 0.4129(4)
H23 H 0.7797 0.8479 0.3979
C27 C 0.7755(12) 0.9126(9) 0.4665(5)
H24 H 0.7514 0.8641 0.4873
C28 C 0.7974(12) 0.9973(11) 0.4908(5)
H25 H 0.7924 1.0025 0.5278
C29 C 0.8254(10) 1.0701(9) 0.4610(5)
H26 H 0.8343 1.1255 0.4769
C30 C 0.8407(9) 1.0592(9) 0.4044(4)
C31 C 0.8697(9) 1.1350(8) 0.3720(5)
H27 H 0.8828 1.1895 0.3885
C32 C 0.8785(10) 1.1300(7) 0.3189(5)
H28 H 0.8958 1.1801 0.2984
C33 C 0.8606(9) 1.0456(7) 0.2944(4)
C34 C 0.8860(12) 1.0938(7) 0.1968(4)
H29 H 0.9506 1.0724 0.1710
H30 H 0.9210 1.1476 0.2127
C35 C 0.7544(17) 1.1150(13) 0.1678(8)
H31 H 0.7728 1.1504 0.1363
H32 H 0.7131 1.0602 0.1561
C36 C 0.6646(17) 1.1619(14) 0.2020(8)
H33 H 0.6624 1.1323 0.2364
H34 H 0.5761 1.1582 0.1868
C37 C 0.6994(17) 1.2640(13) 0.2117(7)
H35 H 0.7770 1.2685 0.2339
H36 H 0.6259 1.2926 0.2291
H37 H 0.7161 1.2923 0.1780
C38 C 0.7697(10) 0.6160(6) -0.0646(4)
H38 H 0.7622 0.6784 -0.0558
H39 H 0.7150 0.6047 -0.0958
C39 C 0.9122(13) 0.5942(8) -0.0771(4)
H40 H 0.9176 0.5311 -0.0841
H41 H 0.9645 0.6057 -0.0453
C40 C 0.9804(18) 0.6440(13) -0.1254(10)
H42 H 1.0759 0.6400 -0.1206
H43 H 0.9588 0.6120 -0.1579
C41 C 0.949(2) 0.7308(13) -0.1333(9)
H44 H 0.8557 0.7362 -0.1401
H45 H 0.9982 0.7531 -0.1634
H46 H 0.9719 0.7643 -0.1019
P1 P 0.2822(4) 0.0590(2) 0.23377(12)
F1 F 0.3418(12) -0.0122(5) 0.2699(3)
F2 F 0.3915(10) 0.0455(8) 0.1936(4)
F3 F 0.3637(9) 0.1300(5) 0.2659(3)
F4 F 0.2261(14) 0.1321(6) 0.1977(3)
F5 F 0.1971(8) -0.0113(5) 0.2014(3)
F6 F 0.1697(9) 0.0728(9) 0.2735(3)
loop_
_geom_bond_atom_site_label_1
_geom_bond_atom_site_label_2
_geom_bond_site_symmetry_1
_geom_bond_site_symmetry_2
Cl1 C17 1_555 1_555
N1 C1 1_555 1_555
N2 C20 1_555 1_555
C1 C2 1_555 1_555
C2 H1 1_555 1_555
C3 C2 1_555 1_555
H2 C3 1_555 1_555
C4 C3 1_555 1_555
C5 C4 1_555 1_555
H3 C5 1_555 1_555
C6 C5 1_555 1_555
H4 C6 1_555 1_555
C7 C6 1_555 1_555
H5 C7 1_555 1_555
C8 C7 1_555 1_555
H6 C8 1_555 1_555
C9 C4 1_555 1_555
C10 C1 1_555 1_555
C11 C10 1_555 1_555
C12 C11 1_555 1_555
H7 C12 1_555 1_555
H8 C12 1_555 1_555
H9 C12 1_555 1_555
C13 C11 1_555 1_555
H10 C13 1_555 1_555
H11 C13 1_555 1_555
H12 C13 1_555 1_555
C14 N1 1_555 1_555
C15 C14 1_555 1_555
H13 C15 1_555 1_555
C16 C15 1_555 1_555
H14 C16 1_555 1_555
C17 C16 1_555 1_555
C18 C17 1_555 1_555
H15 C18 1_555 1_555
C19 C18 1_555 1_555
H16 C19 1_555 1_555
C20 C19 1_555 1_555
C21 C20 1_555 1_555
C22 C21 1_555 1_555
H17 C22 1_555 1_555
H18 C22 1_555 1_555
H19 C22 1_555 1_555
C23 C21 1_555 1_555
H20 C23 1_555 1_555
H21 C23 1_555 1_555
H22 C23 1_555 1_555
C24 C21 1_555 1_555
C25 C24 1_555 1_555
C26 C25 1_555 1_555
H23 C26 1_555 1_555
C27 C26 1_555 1_555
H24 C27 1_555 1_555
C28 C27 1_555 1_555
H25 C28 1_555 1_555
C29 C28 1_555 1_555
H26 C29 1_555 1_555
C30 C25 1_555 1_555
C31 C30 1_555 1_555
H27 C31 1_555 1_555
C32 C31 1_555 1_555
H28 C32 1_555 1_555
C33 N2 1_555 1_555
C34 N2 1_555 1_555
H29 C34 1_555 1_555
H30 C34 1_555 1_555
C35 C34 1_555 1_555
H31 C35 1_555 1_555
H32 C35 1_555 1_555
C36 C35 1_555 1_555
H33 C36 1_555 1_555
H34 C36 1_555 1_555
C37 C36 1_555 1_555
H35 C37 1_555 1_555
H36 C37 1_555 1_555
H37 C37 1_555 1_555
C38 N1 1_555 1_555
H38 C38 1_555 1_555
H39 C38 1_555 1_555
C39 C38 1_555 1_555
H40 C39 1_555 1_555
H41 C39 1_555 1_555
C40 C39 1_555 1_555
H42 C40 1_555 1_555
H43 C40 1_555 1_555
C41 C40 1_555 1_555
H44 C41 1_555 1_555
H45 C41 1_555 1_555
H46 C41 1_555 1_555
P1 F1 1_555 1_555
F2 P1 1_555 1_555
F3 P1 1_555 1_555
F4 P1 1_555 1_555
F5 P1 1_555 1_555
F6 P1 1_555 1_555
C8 C9 1_555 1_555
C9 C10 1_555 1_555
C11 C14 1_555 1_555
C24 C33 1_555 1_555
C29 C30 1_555 1_555
C32 C33 1_555 1_555

#END
