
#######################################################################
#
#                 Cambridge Crystallographic Data Centre
#                                CCDC 
#
#######################################################################
#
# If this CIF has been generated from an entry in the Cambridge 
# Structural Database, then it will include bibliographic, chemical, 
# crystal, experimental, refinement or atomic coordinate data resulting 
# from the CCDC's data processing and validation procedures.
#
#######################################################################

data_DIFPOZ
_chemical_formula_moiety         'C19 H19 N5 O3'
_chemical_name_systematic        
8-(2-Hydroxyethyl)-1,3-dimethyl-7-[(E)-2-phenylethenyl]-1H-imidazo[2,1-f]purine-2,4(3H,8H)-dione
_symmetry_cell_setting           monoclinic
_symmetry_space_group_name_H-M   'P 21/c'
_symmetry_Int_Tables_number      14
_space_group_name_Hall           '-P 2ybc'
loop_
_symmetry_equiv_pos_site_id
_symmetry_equiv_pos_as_xyz
1 x,y,z
2 -x,1/2+y,1/2-z
3 -x,-y,-z
4 x,1/2-y,1/2+z
_cell_length_a                   11.7353(5)
_cell_length_b                   8.7383(3)
_cell_length_c                   17.0007(7)
_cell_angle_alpha                90
_cell_angle_beta                 101.699(4)
_cell_angle_gamma                90
_cell_volume                     1707.15
_chemical_melting_point          '511 K'
_cell_formula_units_Z            4
loop_
_atom_site_label
_atom_site_type_symbol
_atom_site_fract_x
_atom_site_fract_y
_atom_site_fract_z
O1 O -0.07815(9) 0.66903(13) 0.67127(6)
O2 O 0.17724(8) 0.87162(11) 0.52755(6)
O3 O 0.40877(9) -0.06440(12) 0.55965(7)
H1 H 0.3307(17) -0.095(2) 0.5472(12)
N1 N 0.03343(10) 0.50099(14) 0.61772(7)
N2 N 0.05099(10) 0.76865(14) 0.60084(7)
N3 N 0.16175(10) 0.34211(13) 0.55730(7)
N4 N 0.24588(10) 0.53997(13) 0.50127(7)
N5 N 0.31593(10) 0.31675(13) 0.47594(7)
C1 C -0.00287(12) 0.64733(17) 0.63237(8)
C2 C 0.13570(12) 0.75571(16) 0.55388(8)
C3 C 0.16533(11) 0.60413(16) 0.54185(8)
C4 C 0.11803(11) 0.47980(16) 0.57390(8)
C5 C 0.23987(12) 0.38677(16) 0.51366(8)
C6 C 0.32535(11) 0.56896(17) 0.45317(8)
H2 H 0.3455 0.6663 0.4351
C7 C 0.36935(12) 0.43038(16) 0.43669(8)
C8 C 0.45544(12) 0.39261(17) 0.38962(8)
H3 H 0.4784 0.2885 0.3885
C9 C 0.50492(12) 0.49282(17) 0.34776(8)
H4 H 0.4805 0.5963 0.3486
C10 C 0.59368(11) 0.45862(17) 0.30043(8)
C11 C 0.62911(12) 0.30950(17) 0.28740(8)
H5 H 0.5946 0.2254 0.3092
C12 C 0.71392(13) 0.28312(18) 0.24302(9)
H6 H 0.7370 0.1813 0.2345
C13 C 0.76539(13) 0.40510(19) 0.21083(9)
H7 H 0.8232 0.3866 0.1801
C14 C 0.73210(12) 0.55345(18) 0.22370(8)
H8 H 0.7677 0.6371 0.2024
C15 C 0.64688(12) 0.57975(18) 0.26763(8)
H9 H 0.6240 0.6819 0.2757
C16 C -0.01697(13) 0.36837(18) 0.65120(9)
H10 H -0.0333 0.2874 0.6106
H11 H -0.0894 0.3988 0.6671
H12 H 0.0382 0.3303 0.6983
C17 C 0.01421(14) 0.92397(18) 0.61739(9)
H13 H -0.0015 0.9280 0.6718
H14 H -0.0566 0.9508 0.5784
H15 H 0.0762 0.9967 0.6130
C18 C 0.33374(12) 0.15151(15) 0.47809(8)
H16 H 0.3769 0.1223 0.4360
H17 H 0.2572 0.0996 0.4660
C19 C 0.40063(13) 0.09810(17) 0.55893(9)
H18 H 0.4796 0.1433 0.5696
H19 H 0.3605 0.1325 0.6017
loop_
_geom_bond_atom_site_label_1
_geom_bond_atom_site_label_2
_geom_bond_site_symmetry_1
_geom_bond_site_symmetry_2
O1 C1 1_555 1_555
O2 C2 1_555 1_555
O3 H1 1_555 1_555
N1 C1 1_555 1_555
N2 C1 1_555 1_555
N3 C4 1_555 1_555
N4 C3 1_555 1_555
N5 C5 1_555 1_555
C2 N2 1_555 1_555
C3 C2 1_555 1_555
C4 N1 1_555 1_555
C5 N3 1_555 1_555
C6 N4 1_555 1_555
H2 C6 1_555 1_555
C7 N5 1_555 1_555
C8 C7 1_555 1_555
H3 C8 1_555 1_555
C9 C8 1_555 1_555
H4 C9 1_555 1_555
C10 C9 1_555 1_555
C11 C10 1_555 1_555
H5 C11 1_555 1_555
C12 C11 1_555 1_555
H6 C12 1_555 1_555
C13 C12 1_555 1_555
H7 C13 1_555 1_555
C14 C13 1_555 1_555
H8 C14 1_555 1_555
C15 C10 1_555 1_555
H9 C15 1_555 1_555
C16 N1 1_555 1_555
H10 C16 1_555 1_555
H11 C16 1_555 1_555
H12 C16 1_555 1_555
C17 N2 1_555 1_555
H13 C17 1_555 1_555
H14 C17 1_555 1_555
H15 C17 1_555 1_555
C18 N5 1_555 1_555
H16 C18 1_555 1_555
H17 C18 1_555 1_555
C19 O3 1_555 1_555
H18 C19 1_555 1_555
H19 C19 1_555 1_555
N4 C5 1_555 1_555
C3 C4 1_555 1_555
C6 C7 1_555 1_555
C14 C15 1_555 1_555
C18 C19 1_555 1_555

#END
