
#######################################################################
#
#                 Cambridge Crystallographic Data Centre
#                                CCDC 
#
#######################################################################
#
# If this CIF has been generated from an entry in the Cambridge 
# Structural Database, then it will include bibliographic, chemical, 
# crystal, experimental, refinement or atomic coordinate data resulting 
# from the CCDC's data processing and validation procedures.
#
#######################################################################

data_DIFQAL
_chemical_formula_moiety         'C13 H19 N1 O1'
_chemical_name_systematic        
1-Hydroxy-1-methyl-6-methylene-octahydronaphthalene-4a(2H)-carbonitrile
_symmetry_cell_setting           monoclinic
_symmetry_space_group_name_H-M   'P 21/n'
_symmetry_Int_Tables_number      14
_space_group_name_Hall           '-P 2yn'
loop_
_symmetry_equiv_pos_site_id
_symmetry_equiv_pos_as_xyz
1 x,y,z
2 1/2-x,1/2+y,1/2-z
3 -x,-y,-z
4 1/2+x,1/2-y,1/2+z
_cell_length_a                   9.6636(3)
_cell_length_b                   7.7296(2)
_cell_length_c                   15.8534(4)
_cell_angle_alpha                90
_cell_angle_beta                 102.349(1)
_cell_angle_gamma                90
_cell_volume                     1156.78
_cell_formula_units_Z            4
loop_
_atom_site_label
_atom_site_type_symbol
_atom_site_fract_x
_atom_site_fract_y
_atom_site_fract_z
C1 C 0.41966(10) 0.24357(12) 0.77303(6)
H1 H 0.3228 0.1983 0.7575
O1 O 0.36337(10) 0.46069(10) 0.87249(6)
H2 H 0.4049 0.5443 0.8579
C2 C 0.44506(12) 0.30702(13) 0.86859(7)
C3 C 0.52176(11) 0.09489(13) 0.75924(7)
C4 C 0.42988(13) 0.39508(14) 0.71184(7)
H3 H 0.3596 0.4814 0.7175
H4 H 0.5226 0.4482 0.7291
C5 C 0.50087(14) 0.04751(15) 0.66156(8)
H5 H 0.5728 -0.0354 0.6544
H6 H 0.4091 -0.0070 0.6424
C6 C 0.67675(12) 0.14155(15) 0.79845(8)
H7 H 0.7364 0.0426 0.7939
H8 H 0.7058 0.2358 0.7657
C7 C 0.60180(13) 0.34550(16) 0.90400(8)
H9 H 0.6286 0.4462 0.8747
H10 H 0.6158 0.3732 0.9649
C8 C 0.69818(13) 0.19488(17) 0.89286(9)
H11 H 0.7962 0.2282 0.9142
H12 H 0.6782 0.0971 0.9267
C9 C 0.50978(14) 0.20204(17) 0.60663(8)
C10 C 0.48964(13) -0.06856(14) 0.79977(8)
C11 C 0.40705(15) 0.34031(18) 0.61721(8)
H13 H 0.3111 0.2978 0.5977
H14 H 0.4194 0.4395 0.5821
N1 N 0.46912(16) -0.20063(14) 0.82647(9)
C12 C 0.38645(15) 0.18123(16) 0.92617(8)
H15 H 0.2873 0.1632 0.9031
H16 H 0.3995 0.2284 0.9834
H17 H 0.4357 0.0729 0.9283
C13 C 0.59930(19) 0.2136(2) 0.55408(11)
H18 H 0.6605 0.1226 0.5502
H19 H 0.6009 0.3128 0.5211
loop_
_geom_bond_atom_site_label_1
_geom_bond_atom_site_label_2
_geom_bond_site_symmetry_1
_geom_bond_site_symmetry_2
C1 H1 1_555 1_555
O1 H2 1_555 1_555
C2 C1 1_555 1_555
C3 C1 1_555 1_555
C4 C1 1_555 1_555
H3 C4 1_555 1_555
H4 C4 1_555 1_555
C5 C3 1_555 1_555
H5 C5 1_555 1_555
H6 C5 1_555 1_555
C6 C3 1_555 1_555
H7 C6 1_555 1_555
H8 C6 1_555 1_555
C7 C2 1_555 1_555
H9 C7 1_555 1_555
H10 C7 1_555 1_555
C8 C6 1_555 1_555
H11 C8 1_555 1_555
H12 C8 1_555 1_555
C9 C5 1_555 1_555
C10 C3 1_555 1_555
C11 C4 1_555 1_555
H13 C11 1_555 1_555
H14 C11 1_555 1_555
N1 C10 1_555 1_555
C12 C2 1_555 1_555
H15 C12 1_555 1_555
H16 C12 1_555 1_555
H17 C12 1_555 1_555
C13 C9 1_555 1_555
H18 C13 1_555 1_555
H19 C13 1_555 1_555
O1 C2 1_555 1_555
C7 C8 1_555 1_555
C9 C11 1_555 1_555

#END
