
#######################################################################
#
#                 Cambridge Crystallographic Data Centre
#                                CCDC 
#
#######################################################################
#
# If this CIF has been generated from an entry in the Cambridge 
# Structural Database, then it will include bibliographic, chemical, 
# crystal, experimental, refinement or atomic coordinate data resulting 
# from the CCDC's data processing and validation procedures.
#
#######################################################################

data_DIFRAO
_chemical_formula_moiety         'C7 H7 Cl1 N2 O1'
_chemical_name_systematic        N-(4-chloropyridin-2-yl)acetamide
_symmetry_cell_setting           monoclinic
_symmetry_space_group_name_H-M   'P 21/c'
_symmetry_Int_Tables_number      14
_space_group_name_Hall           '-P 2ybc'
loop_
_symmetry_equiv_pos_site_id
_symmetry_equiv_pos_as_xyz
1 x,y,z
2 -x,1/2+y,1/2-z
3 -x,-y,-z
4 x,1/2-y,1/2+z
_cell_length_a                   7.1103(2)
_cell_length_b                   12.4242(3)
_cell_length_c                   9.4164(3)
_cell_angle_alpha                90
_cell_angle_beta                 111.211(3)
_cell_angle_gamma                90
_cell_volume                     775.489
_exptl_crystal_colour            colorless
_exptl_crystal_description       prism
_cell_formula_units_Z            4
loop_
_atom_site_label
_atom_site_type_symbol
_atom_site_fract_x
_atom_site_fract_y
_atom_site_fract_z
C1 C 0.74877(19) 0.42636(11) 0.63780(14)
C2 C 0.74290(19) 0.49073(11) 0.51443(14)
H1 H 0.681143 0.466523 0.412311
C3 C 0.8309(2) 0.59093(11) 0.54802(15)
C4 C 0.9210(2) 0.62614(12) 0.69715(16)
H2 H 0.984939 0.694411 0.720871
C5 C 0.9130(2) 0.55661(12) 0.80959(16)
H3 H 0.970285 0.580094 0.912372
C6 C 0.6150(2) 0.25885(11) 0.49449(14)
C7 C 0.5372(2) 0.14877(12) 0.51147(16)
H4 H 0.391644 0.145558 0.453848
H5 H 0.563373 0.134657 0.619351
H6 H 0.605808 0.094442 0.472276
N1 N 0.82960(18) 0.45825(10) 0.78316(13)
N2 N 0.66842(16) 0.32226(9) 0.62091(12)
H7 H 0.650353 0.294639 0.701080
O1 O 0.62909(16) 0.28835(8) 0.37414(10)
Cl1 Cl 0.82690(5) 0.67518(3) 0.40019(4)
loop_
_geom_bond_atom_site_label_1
_geom_bond_atom_site_label_2
_geom_bond_site_symmetry_1
_geom_bond_site_symmetry_2
C1 C2 1_555 1_555
C2 H1 1_555 1_555
C3 C2 1_555 1_555
C4 C3 1_555 1_555
H2 C4 1_555 1_555
C5 C4 1_555 1_555
H3 C5 1_555 1_555
C6 C7 1_555 1_555
C7 H4 1_555 1_555
H5 C7 1_555 1_555
H6 C7 1_555 1_555
N1 C1 1_555 1_555
N2 C1 1_555 1_555
H7 N2 1_555 1_555
O1 C6 1_555 1_555
Cl1 C3 1_555 1_555
C5 N1 1_555 1_555
C6 N2 1_555 1_555

#END
