
#######################################################################
#
#                 Cambridge Crystallographic Data Centre
#                                CCDC 
#
#######################################################################
#
# If this CIF has been generated from an entry in the Cambridge 
# Structural Database, then it will include bibliographic, chemical, 
# crystal, experimental, refinement or atomic coordinate data resulting 
# from the CCDC's data processing and validation procedures.
#
#######################################################################

data_DIFSES
_chemical_formula_moiety         'C23 H25 N7 O4,0.75(C1 H4 O1)'
_chemical_name_systematic        
"2,4,11-Trimethyl-8-phenyl-6-propyl-8,12-dihydro-2H-pyrimido[5',4':5,6][1,3]diazepino[2,1-f]purine-1,3,7,10(4H,6H,9H,11H)-tetrone methanol solvate"
_symmetry_cell_setting           triclinic
_symmetry_space_group_name_H-M   'P -1'
_symmetry_Int_Tables_number      2
_space_group_name_Hall           '-P 1'
loop_
_symmetry_equiv_pos_site_id
_symmetry_equiv_pos_as_xyz
1 x,y,z
2 -x,-y,-z
_cell_length_a                   12.929(2)
_cell_length_b                   13.015(2)
_cell_length_c                   15.276(3)
_cell_angle_alpha                77.504(10)
_cell_angle_beta                 67.191(10)
_cell_angle_gamma                82.078(10)
_cell_volume                     2309.21
_cell_formula_units_Z            4
loop_
_atom_site_label
_atom_site_type_symbol
_atom_site_fract_x
_atom_site_fract_y
_atom_site_fract_z
O1 O 0.0466(4) 0.0177(3) 1.1779(3)
O2 O 0.1892(4) -0.1090(3) 0.8948(3)
O3 O 0.2065(4) 0.3527(3) 0.5545(3)
O4 O 0.0633(4) -0.0870(3) 0.5726(3)
N1 N 0.0819(4) 0.1387(4) 1.0394(3)
N2 N 0.1159(4) -0.0440(4) 1.0359(4)
N3 N 0.1971(4) 0.1210(4) 0.7940(3)
N4 N 0.1279(4) 0.2525(4) 0.8811(3)
N5 N 0.1935(5) 0.2968(4) 0.7088(3)
N6 N 0.1662(4) -0.0092(4) 0.6293(3)
N7 N 0.0604(5) 0.0907(4) 0.5456(4)
H1 H 0.036(5) 0.101(4) 0.505(4)
C1 C 0.1230(5) 0.1561(5) 0.9409(4)
C2 C 0.0787(5) 0.0365(5) 1.0910(5)
C3 C 0.1612(5) -0.0312(5) 0.9338(4)
C4 C 0.1638(5) 0.0757(4) 0.8898(4)
C5 C 0.1739(5) 0.2254(5) 0.7930(4)
C6 C 0.1873(6) 0.2807(5) 0.6230(5)
C7 C 0.1544(5) 0.1790(5) 0.6149(4)
C8 C 0.1913(5) 0.0832(5) 0.6485(4)
C9 C 0.2608(6) 0.0739(5) 0.7095(4)
H2 H 0.2803 0.0002 0.7291
H3 H 0.3298 0.1095 0.6725
C10 C 0.0935(6) -0.0049(6) 0.5810(4)
C11 C 0.0867(5) 0.1947(5) 0.5505(4)
H4 H 0.1334 0.2281 0.4855
C12 C 0.0353(6) 0.2271(5) 1.0918(4)
H5 H 0.0849 0.2839 1.0628
H6 H 0.0277 0.2044 1.158
H7 H -0.0371 0.2508 1.0887
C13 C 0.1120(6) -0.1525(5) 1.0914(4)
H8 H 0.1721 -0.166 1.1152
H9 H 0.12 -0.2018 1.0503
H10 H 0.0413 -0.1601 1.1448
C14 C 0.2053(5) 0.4082(5) 0.7109(4)
H11 H 0.2628 0.438 0.6508
H12 H 0.2297 0.4101 0.7631
C15 C 0.0956(6) 0.4753(5) 0.7246(5)
H13 H 0.0412 0.4522 0.7887
H14 H 0.0654 0.4656 0.6781
C16 C 0.1133(8) 0.5929(5) 0.7119(6)
H15 H 0.1387 0.6033 0.7604
H16 H 0.0436 0.6333 0.718
H17 H 0.1686 0.6154 0.6491
C17 C 0.2080(6) -0.1145(4) 0.6664(4)
H18 H 0.2884 -0.121 0.6363
H19 H 0.176 -0.1679 0.6518
H20 H 0.1868 -0.123 0.735
C18 C -0.0191(6) 0.2621(5) 0.5849(4)
C19 C -0.0352(6) 0.3578(5) 0.5288(5)
H21 H 0.0205 0.3808 0.4694
C20 C -0.1360(7) 0.4195(6) 0.5621(6)
H22 H -0.1475 0.4825 0.5237
C21 C -0.2168(6) 0.3882(5) 0.6500(5)
H23 H -0.2819 0.4311 0.6721
C22 C -0.2027(6) 0.2928(5) 0.7069(5)
H24 H -0.2577 0.2707 0.7669
C23 C -0.1036(5) 0.2306(5) 0.6715(4)
H25 H -0.0946 0.1654 0.7082
O5 O 0.4535(4) 0.0330(3) -0.1936(3)
O6 O 0.3384(4) -0.1057(3) 0.1282(3)
O7 O 0.2335(4) 0.3553(3) 0.3282(3)
O8 O 0.4405(4) -0.0772(3) 0.4585(3)
N8 N 0.3964(4) 0.1486(4) -0.0903(4)
N9 N 0.3958(4) -0.0355(4) -0.0335(4)
N10 N 0.2860(4) 0.1224(4) 0.1611(3)
N11 N 0.3303(4) 0.2577(4) 0.0338(3)
N12 N 0.2534(5) 0.2962(4) 0.1937(3)
N13 N 0.3293(4) -0.0041(4) 0.3733(3)
N14 N 0.4262(5) 0.1002(4) 0.4185(4)
H26 H 0.449(5) 0.098(4) 0.465(4)
C24 C 0.3523(5) 0.1604(5) 0.0052(4)
C25 C 0.4173(5) 0.0478(5) -0.1103(4)
C26 C 0.3511(5) -0.0281(5) 0.0657(5)
C27 C 0.3260(5) 0.0787(5) 0.0789(4)
C28 C 0.2914(5) 0.2273(5) 0.1307(4)
C29 C 0.2635(6) 0.2835(5) 0.2833(5)
C30 C 0.3152(5) 0.1833(5) 0.3235(4)
C31 C 0.2951(5) 0.0873(5) 0.3210(4)
C32 C 0.2308(5) 0.0708(5) 0.2600(4)
H27 H 0.2288 -0.004 0.2623
H28 H 0.1541 0.0999 0.2855
C33 C 0.4024(6) 0.0047(6) 0.4192(4)
C34 C 0.3798(5) 0.2016(4) 0.3822(4)
H29 H 0.3273 0.2323 0.4375
C35 C 0.4287(6) 0.2405(5) -0.1682(4)
H30 H 0.425 0.2252 -0.2256
H31 H 0.5041 0.2563 -0.1807
H32 H 0.3783 0.3001 -0.1492
C36 C 0.4199(6) -0.1419(4) -0.0569(5)
H33 H 0.3559 -0.1633 -0.0641
H34 H 0.4357 -0.1901 -0.0059
H35 H 0.4838 -0.1418 -0.1161
C37 C 0.2246(7) 0.4070(5) 0.1540(5)
H36 H 0.1674 0.4386 0.2055
H37 H 0.1936 0.4062 0.1056
C38 C 0.3244(9) 0.4733(6) 0.1095(5)
H38 H 0.3818 0.4432 0.0571
H39 H 0.3558 0.4753 0.1573
C39 C 0.2861(11) 0.5869(6) 0.0708(6)
H40 H 0.2514 0.5838 0.0262
H41 H 0.3503 0.6289 0.0386
H42 H 0.2332 0.6179 0.1237
C40 C 0.2989(6) -0.1116(4) 0.3759(5)
H43 H 0.2194 -0.1111 0.3913
H44 H 0.3189 -0.1612 0.4242
H45 H 0.3387 -0.1318 0.314
C41 C 0.4710(5) 0.2760(4) 0.3248(4)
C42 C 0.4596(6) 0.3800(5) 0.3357(5)
H46 H 0.3961 0.4028 0.3841
C43 C 0.5379(7) 0.4507(6) 0.2780(5)
H47 H 0.5259 0.5205 0.2867
C44 C 0.6339(7) 0.4201(6) 0.2078(5)
H48 H 0.6866 0.4687 0.1683
C45 C 0.6519(6) 0.3139(6) 0.1961(5)
H49 H 0.7182 0.2908 0.1506
C46 C 0.5700(6) 0.2445(5) 0.2526(4)
H50 H 0.5805 0.1751 0.2428
C47 C 0.4617(9) -0.3464(7) 0.4575(7)
H51 H 0.5027 -0.4129 0.4651
H52 H 0.4172 -0.3495 0.4204
H53 H 0.4133 -0.3313 0.5198
O9 O 0.5378(6) -0.2662(5) 0.4091(4)
C48? C 0.0000 0.5000 1.0000
O10? O -0.1162(15) 0.5559(12) 1.0496(12)
loop_
_geom_bond_atom_site_label_1
_geom_bond_atom_site_label_2
_geom_bond_site_symmetry_1
_geom_bond_site_symmetry_2
O1 C2 1_555 1_555
O2 C3 1_555 1_555
O3 C6 1_555 1_555
O4 C10 1_555 1_555
N1 C1 1_555 1_555
N2 C2 1_555 1_555
N3 C4 1_555 1_555
N4 C1 1_555 1_555
N5 C5 1_555 1_555
N6 C8 1_555 1_555
N7 H1 1_555 1_555
C1 C4 1_555 1_555
C2 N1 1_555 1_555
C3 N2 1_555 1_555
C4 C3 1_555 1_555
C5 N3 1_555 1_555
C6 N5 1_555 1_555
C7 C6 1_555 1_555
C8 C7 1_555 1_555
C9 N3 1_555 1_555
H2 C9 1_555 1_555
H3 C9 1_555 1_555
C10 N6 1_555 1_555
C11 N7 1_555 1_555
H4 C11 1_555 1_555
C12 N1 1_555 1_555
H5 C12 1_555 1_555
H6 C12 1_555 1_555
H7 C12 1_555 1_555
C13 N2 1_555 1_555
H8 C13 1_555 1_555
H9 C13 1_555 1_555
H10 C13 1_555 1_555
C14 N5 1_555 1_555
H11 C14 1_555 1_555
H12 C14 1_555 1_555
C15 C14 1_555 1_555
H13 C15 1_555 1_555
H14 C15 1_555 1_555
C16 C15 1_555 1_555
H15 C16 1_555 1_555
H16 C16 1_555 1_555
H17 C16 1_555 1_555
C17 N6 1_555 1_555
H18 C17 1_555 1_555
H19 C17 1_555 1_555
H20 C17 1_555 1_555
C18 C11 1_555 1_555
C19 C18 1_555 1_555
H21 C19 1_555 1_555
C20 C19 1_555 1_555
H22 C20 1_555 1_555
C21 C20 1_555 1_555
H23 C21 1_555 1_555
C22 C21 1_555 1_555
H24 C22 1_555 1_555
C23 C18 1_555 1_555
H25 C23 1_555 1_555
O5 C25 1_555 1_555
O6 C26 1_555 1_555
O7 C29 1_555 1_555
O8 C33 1_555 1_555
N8 C24 1_555 1_555
N9 C25 1_555 1_555
N10 C27 1_555 1_555
N11 C24 1_555 1_555
N12 C28 1_555 1_555
N13 C31 1_555 1_555
N14 H26 1_555 1_555
C24 C27 1_555 1_555
C25 N8 1_555 1_555
C26 N9 1_555 1_555
C27 C26 1_555 1_555
C28 N10 1_555 1_555
C29 N12 1_555 1_555
C30 C29 1_555 1_555
C31 C30 1_555 1_555
C32 N10 1_555 1_555
H27 C32 1_555 1_555
H28 C32 1_555 1_555
C33 N13 1_555 1_555
C34 N14 1_555 1_555
H29 C34 1_555 1_555
C35 N8 1_555 1_555
H30 C35 1_555 1_555
H31 C35 1_555 1_555
H32 C35 1_555 1_555
C36 N9 1_555 1_555
H33 C36 1_555 1_555
H34 C36 1_555 1_555
H35 C36 1_555 1_555
C37 N12 1_555 1_555
H36 C37 1_555 1_555
H37 C37 1_555 1_555
C38 C37 1_555 1_555
H38 C38 1_555 1_555
H39 C38 1_555 1_555
C39 C38 1_555 1_555
H40 C39 1_555 1_555
H41 C39 1_555 1_555
H42 C39 1_555 1_555
C40 N13 1_555 1_555
H43 C40 1_555 1_555
H44 C40 1_555 1_555
H45 C40 1_555 1_555
C41 C34 1_555 1_555
C42 C41 1_555 1_555
H46 C42 1_555 1_555
C43 C42 1_555 1_555
H47 C43 1_555 1_555
C44 C43 1_555 1_555
H48 C44 1_555 1_555
C45 C44 1_555 1_555
H49 C45 1_555 1_555
C46 C41 1_555 1_555
H50 C46 1_555 1_555
C47 H51 1_555 1_555
H52 C47 1_555 1_555
H53 C47 1_555 1_555
O9 C47 1_555 1_555
N4 C5 1_555 1_555
N7 C10 1_555 1_555
C7 C11 1_555 1_555
C8 C9 1_555 1_555
C22 C23 1_555 1_555
N11 C28 1_555 1_555
N14 C33 1_555 1_555
C30 C34 1_555 1_555
C31 C32 1_555 1_555
C45 C46 1_555 1_555

#END
