
#######################################################################
#
#                 Cambridge Crystallographic Data Centre
#                                CCDC 
#
#######################################################################
#
# If this CIF has been generated from an entry in the Cambridge 
# Structural Database, then it will include bibliographic, chemical, 
# crystal, experimental, refinement or atomic coordinate data resulting 
# from the CCDC's data processing and validation procedures.
#
#######################################################################

data_DIFVAS
_chemical_formula_moiety         'C9 H9 Cl1 N2 O1'
_chemical_name_systematic        1-(2-chloropyridin-4-yl)pyrrolidin-2-one
_symmetry_cell_setting           monoclinic
_symmetry_space_group_name_H-M   'P 21/c'
_symmetry_Int_Tables_number      14
_space_group_name_Hall           '-P 2ybc'
loop_
_symmetry_equiv_pos_site_id
_symmetry_equiv_pos_as_xyz
1 x,y,z
2 -x,1/2+y,1/2-z
3 -x,-y,-z
4 x,1/2-y,1/2+z
_cell_length_a                   7.99800(10)
_cell_length_b                   9.6670(2)
_cell_length_c                   22.9943(4)
_cell_angle_alpha                90
_cell_angle_beta                 99.009(2)
_cell_angle_gamma                90
_cell_volume                     1755.91
_exptl_crystal_colour            colorless
_exptl_crystal_description       rod
_cell_formula_units_Z            8
loop_
_atom_site_label
_atom_site_type_symbol
_atom_site_fract_x
_atom_site_fract_y
_atom_site_fract_z
C1 C 0.08861(17) 0.64327(14) 0.58418(5)
H1 H 0.021884 0.604156 0.548017
H2 H 0.205988 0.659766 0.577172
C2 C 0.00830(19) 0.77692(15) 0.60235(6)
H3 H 0.064030 0.858982 0.588151
H4 H -0.114037 0.779935 0.586421
C3 C 0.0365(2) 0.77180(16) 0.66933(6)
H5 H 0.139906 0.823599 0.685823
H6 H -0.061299 0.812019 0.684944
C4 C 0.05563(17) 0.62022(16) 0.68462(6)
C5 C 0.13843(15) 0.41307(13) 0.63245(5)
C6 C 0.20904(16) 0.36792(13) 0.58373(5)
H7 H 0.221143 0.428384 0.552086
C7 C 0.26035(16) 0.23124(14) 0.58382(6)
C8 C 0.18138(19) 0.18398(15) 0.67109(7)
H8 H 0.171366 0.120207 0.701785
C9 C 0.12369(17) 0.31680(15) 0.67693(6)
H9 H 0.074882 0.342584 0.710439
N1 N 0.08604(14) 0.55042(11) 0.63467(4)
N2 N 0.25095(15) 0.13803(12) 0.62501(6)
O1 O 0.05008(14) 0.56839(12) 0.73242(4)
Cl1 Cl 0.34755(4) 0.17254(3) 0.52289(2)
C10 C 0.29530(17) 0.81422(13) 0.35967(6)
H10 H 0.219935 0.816534 0.321180
H11 H 0.408384 0.849011 0.354397
C11 C 0.2217(2) 0.90103(14) 0.40528(6)
H12 H 0.298680 0.978508 0.419132
H13 H 0.110381 0.939669 0.387916
C12 C 0.20256(17) 0.80495(13) 0.45598(6)
H14 H 0.276293 0.835394 0.492377
H15 H 0.083798 0.804196 0.463259
C13 C 0.25401(16) 0.66296(13) 0.43809(6)
C14 C 0.37477(15) 0.56527(13) 0.35417(5)
C15 C 0.40139(16) 0.43201(13) 0.37769(5)
H16 H 0.370562 0.408230 0.414674
C16 C 0.47454(17) 0.33677(13) 0.34463(6)
C17 C 0.49569(18) 0.48570(15) 0.27150(6)
H17 H 0.528650 0.505450 0.234440
C18 C 0.42249(16) 0.59099(13) 0.29916(5)
H18 H 0.404749 0.679394 0.281216
N3 N 0.30740(14) 0.67282(10) 0.38397(5)
N4 N 0.52386(15) 0.35729(12) 0.29307(5)
O2 O 0.24894(13) 0.55701(10) 0.46635(4)
Cl2 Cl 0.51300(5) 0.16988(3) 0.37363(2)
loop_
_geom_bond_atom_site_label_1
_geom_bond_atom_site_label_2
_geom_bond_site_symmetry_1
_geom_bond_site_symmetry_2
C1 H1 1_555 1_555
H2 C1 1_555 1_555
C2 C1 1_555 1_555
H3 C2 1_555 1_555
H4 C2 1_555 1_555
C3 C2 1_555 1_555
H5 C3 1_555 1_555
H6 C3 1_555 1_555
C4 C3 1_555 1_555
C5 C6 1_555 1_555
C6 H7 1_555 1_555
C7 C6 1_555 1_555
C8 H8 1_555 1_555
C9 C5 1_555 1_555
H9 C9 1_555 1_555
N1 C1 1_555 1_555
N2 C7 1_555 1_555
O1 C4 1_555 1_555
Cl1 C7 1_555 1_555
C10 H10 1_555 1_555
H11 C10 1_555 1_555
C11 C10 1_555 1_555
H12 C11 1_555 1_555
H13 C11 1_555 1_555
C12 C11 1_555 1_555
H14 C12 1_555 1_555
H15 C12 1_555 1_555
C13 C12 1_555 1_555
C14 C15 1_555 1_555
C15 H16 1_555 1_555
C16 C15 1_555 1_555
C17 H17 1_555 1_555
C18 C14 1_555 1_555
H18 C18 1_555 1_555
N3 C10 1_555 1_555
N4 C16 1_555 1_555
O2 C13 1_555 1_555
Cl2 C16 1_555 1_555
C4 N1 1_555 1_555
C5 N1 1_555 1_555
C8 C9 1_555 1_555
C8 N2 1_555 1_555
C13 N3 1_555 1_555
C14 N3 1_555 1_555
C17 C18 1_555 1_555
C17 N4 1_555 1_555

#END
