
#######################################################################
#
#                 Cambridge Crystallographic Data Centre
#                                CCDC 
#
#######################################################################
#
# If this CIF has been generated from an entry in the Cambridge 
# Structural Database, then it will include bibliographic, chemical, 
# crystal, experimental, refinement or atomic coordinate data resulting 
# from the CCDC's data processing and validation procedures.
#
#######################################################################

data_DIFWEV
_chemical_formula_moiety         'C29 H23 O2 P1'
_chemical_name_systematic        
"(S)-4-(4-Methoxyphenyl)-4,5-dihydro-3H-dinaphtho(2,1-c:1',2'-e)phosphepine oxide"
_symmetry_cell_setting           monoclinic
_symmetry_space_group_name_H-M   'P 21'
_symmetry_Int_Tables_number      4
_space_group_name_Hall           'P 2yb'
loop_
_symmetry_equiv_pos_site_id
_symmetry_equiv_pos_as_xyz
1 x,y,z
2 -x,1/2+y,-z
_cell_length_a                   9.4450(19)
_cell_length_b                   16.801(3)
_cell_length_c                   14.081(3)
_cell_angle_alpha                90
_cell_angle_beta                 91.75(3)
_cell_angle_gamma                90
_cell_volume                     2233.41
_exptl_crystal_colour            colorless
_exptl_crystal_description       prism
_chemical_melting_point          '112-115 deg.C'
_cell_formula_units_Z            4
loop_
_atom_site_label
_atom_site_type_symbol
_atom_site_fract_x
_atom_site_fract_y
_atom_site_fract_z
C1 C -0.5333(4) -0.3051(2) -0.6481(2)
C2 C -0.6315(4) -0.3050(2) -0.7229(3)
H1 H -0.7177 -0.3336 -0.7180
C3 C -0.6038(4) -0.2628(2) -0.8061(3)
H2 H -0.6719 -0.2621 -0.8571
C4 C -0.4782(4) -0.2225(2) -0.8141(2)
C5 C -0.3788(4) -0.2217(2) -0.7390(3)
H3 H -0.2923 -0.1934 -0.7441
C6 C -0.4080(4) -0.2627(2) -0.6568(2)
H4 H -0.3409 -0.2619 -0.6052
C7 C -0.3318(5) -0.1448(3) -0.9132(3)
H5 H -0.3348 -0.1190 -0.9756
H6 H -0.2552 -0.1841 -0.9106
H7 H -0.3149 -0.1047 -0.8636
C8 C -0.4058(4) -0.4036(2) -0.4983(2)
H8 H -0.3797 -0.4515 -0.5347
H9 H -0.3317 -0.3628 -0.5075
C9 C -0.4094(4) -0.4245(2) -0.3944(2)
C10 C -0.4158(4) -0.5055(2) -0.3659(3)
H10 H -0.4175 -0.5464 -0.4125
C11 C -0.4195(4) -0.5249(2) -0.2717(3)
H11 H -0.4211 -0.5793 -0.2534
C12 C -0.4209(4) -0.4656(2) -0.2015(3)
C13 C -0.4283(4) -0.4845(2) -0.1026(3)
H12 H -0.4262 -0.5386 -0.0829
C14 C -0.4382(4) -0.4257(2) -0.0361(3)
H13 H -0.4432 -0.4393 0.0292
C15 C -0.4410(4) -0.3455(2) -0.0633(2)
H14 H -0.4514 -0.3051 -0.0167
C16 C -0.4289(4) -0.3252(2) -0.1565(2)
H15 H -0.4277 -0.2705 -0.1736
C17 C -0.4180(4) -0.38382(19) -0.2289(2)
C18 C -0.4081(3) -0.3643(2) -0.3273(2)
C19 C -0.4017(4) -0.27879(19) -0.3572(2)
C20 C -0.2815(4) -0.2309(2) -0.3305(2)
C21 C -0.1597(4) -0.2620(2) -0.2801(2)
H16 H -0.1573 -0.3167 -0.2630
C22 C -0.0482(5) -0.2149(2) -0.2564(3)
H17 H 0.0321 -0.2370 -0.2238
C23 C -0.0500(5) -0.1338(2) -0.2794(3)
H18 H 0.0282 -0.1012 -0.2610
C24 C -0.1634(5) -0.1011(2) -0.3281(3)
H19 H -0.1635 -0.0460 -0.3431
C25 C -0.2808(4) -0.1493(2) -0.3563(2)
C26 C -0.3969(4) -0.1178(2) -0.4085(2)
H20 H -0.3990 -0.0627 -0.4237
C27 C -0.5063(4) -0.1656(2) -0.4373(2)
H21 H -0.5819 -0.1435 -0.4748
C28 C -0.5106(4) -0.24709(19) -0.4130(2)
C29 C -0.6299(4) -0.2980(2) -0.4504(2)
H22 H -0.7072 -0.2633 -0.4751
H23 H -0.6673 -0.3298 -0.3976
O1 O -0.6804(4) -0.42544(18) -0.5702(2)
O2 O -0.4618(3) -0.18305(16) -0.89844(18)
P1 P -0.57631(10) -0.36543(6) -0.54516(6)
C30 C 0.0899(4) -0.4070(2) -1.1221(2)
C31 C 0.2038(4) -0.4129(2) -1.1805(3)
H24 H 0.2890 -0.3858 -1.1634
C32 C 0.1976(4) -0.4575(2) -1.2638(3)
H25 H 0.2778 -0.4616 -1.3027
C33 C 0.0714(4) -0.4960(2) -1.2890(2)
C34 C -0.0449(4) -0.4887(2) -1.2322(3)
H26 H -0.1315 -0.5140 -1.2505
C35 C -0.0361(4) -0.4450(2) -1.1488(3)
H27 H -0.1161 -0.4410 -1.1098
C36 C 0.1742(5) -0.5574(3) -1.4237(3)
H28 H 0.1466 -0.5918 -1.4773
H29 H 0.2479 -0.5838 -1.3846
H30 H 0.2108 -0.5069 -1.4477
C37 C -0.0473(4) -0.3167(2) -0.9721(2)
H31 H -0.0657 -0.2648 -1.0034
H32 H -0.1247 -0.3536 -0.9912
C38 C -0.0427(4) -0.3064(2) -0.8660(3)
C39 C -0.0023(4) -0.2310(2) -0.8262(3)
H33 H 0.0166 -0.1877 -0.8673
C40 C 0.0095(4) -0.2205(2) -0.7311(3)
H34 H 0.0342 -0.1696 -0.7064
C41 C -0.0144(4) -0.2837(2) -0.6681(3)
C42 C -0.0009(5) -0.2741(3) -0.5682(3)
H35 H 0.0220 -0.2233 -0.5425
C43 C -0.0203(5) -0.3365(3) -0.5086(3)
H36 H -0.0124 -0.3285 -0.4419
C44 C -0.0519(5) -0.4129(3) -0.5446(3)
H37 H -0.0619 -0.4567 -0.5026
C45 C -0.0683(4) -0.4237(2) -0.6412(3)
H38 H -0.0920 -0.4751 -0.6650
C46 C -0.0510(4) -0.3610(2) -0.7057(2)
C47 C -0.0652(4) -0.3706(2) -0.8065(2)
C48 C -0.0928(4) -0.4504(2) -0.8504(2)
C49 C -0.2253(4) -0.4913(2) -0.8404(2)
C50 C -0.3379(4) -0.4600(2) -0.7872(2)
H39 H -0.3267 -0.4099 -0.7565
C51 C -0.4625(5) -0.5009(2) -0.7794(3)
H40 H -0.5368 -0.4787 -0.7440
C52 C -0.4817(5) -0.5759(2) -0.8237(3)
H41 H -0.5684 -0.6039 -0.8178
C53 C -0.3753(5) -0.6079(2) -0.8748(3)
H42 H -0.3887 -0.6583 -0.9043
C54 C -0.2454(4) -0.5672(2) -0.8847(2)
C55 C -0.1369(5) -0.5993(2) -0.9407(3)
H43 H -0.1504 -0.6492 -0.9712
C56 C -0.0132(4) -0.5588(2) -0.9510(2)
H44 H 0.0586 -0.5812 -0.9885
C57 C 0.0109(4) -0.4833(2) -0.9067(2)
C58 C 0.1459(4) -0.4396(2) -0.9241(3)
H45 H 0.2160 -0.4773 -0.9493
H46 H 0.1846 -0.4186 -0.8630
O3 O 0.2304(5) -0.2991(3) -1.0107(3)
O4 O 0.0527(3) -0.54226(15) -1.36710(16)
P2 P 0.12173(11) -0.35635(6) -1.00870(6)
loop_
_geom_bond_atom_site_label_1
_geom_bond_atom_site_label_2
_geom_bond_site_symmetry_1
_geom_bond_site_symmetry_2
C1 C2 1_555 1_555
C2 H1 1_555 1_555
C3 C2 1_555 1_555
H2 C3 1_555 1_555
C4 C3 1_555 1_555
C5 C4 1_555 1_555
H3 C5 1_555 1_555
C6 C1 1_555 1_555
H4 C6 1_555 1_555
C7 H5 1_555 1_555
H6 C7 1_555 1_555
H7 C7 1_555 1_555
C8 H8 1_555 1_555
H9 C8 1_555 1_555
C9 C8 1_555 1_555
C10 C9 1_555 1_555
H10 C10 1_555 1_555
C11 C10 1_555 1_555
H11 C11 1_555 1_555
C12 C11 1_555 1_555
C13 C12 1_555 1_555
H12 C13 1_555 1_555
C14 C13 1_555 1_555
H13 C14 1_555 1_555
C15 C14 1_555 1_555
H14 C15 1_555 1_555
C16 C15 1_555 1_555
H15 C16 1_555 1_555
C17 C12 1_555 1_555
C18 C9 1_555 1_555
C19 C18 1_555 1_555
C20 C19 1_555 1_555
C21 C20 1_555 1_555
H16 C21 1_555 1_555
C22 C21 1_555 1_555
H17 C22 1_555 1_555
C23 C22 1_555 1_555
H18 C23 1_555 1_555
C24 C23 1_555 1_555
H19 C24 1_555 1_555
C25 C20 1_555 1_555
C26 C25 1_555 1_555
H20 C26 1_555 1_555
C27 C26 1_555 1_555
H21 C27 1_555 1_555
C28 C19 1_555 1_555
C29 C28 1_555 1_555
H22 C29 1_555 1_555
H23 C29 1_555 1_555
C30 C31 1_555 1_555
C31 H24 1_555 1_555
C32 C31 1_555 1_555
H25 C32 1_555 1_555
C33 C32 1_555 1_555
C34 C33 1_555 1_555
H26 C34 1_555 1_555
C35 C30 1_555 1_555
H27 C35 1_555 1_555
C36 H28 1_555 1_555
H29 C36 1_555 1_555
H30 C36 1_555 1_555
C37 H31 1_555 1_555
H32 C37 1_555 1_555
C38 C37 1_555 1_555
C39 C38 1_555 1_555
H33 C39 1_555 1_555
C40 C39 1_555 1_555
H34 C40 1_555 1_555
C41 C40 1_555 1_555
C42 C41 1_555 1_555
H35 C42 1_555 1_555
C43 C42 1_555 1_555
H36 C43 1_555 1_555
C44 C43 1_555 1_555
H37 C44 1_555 1_555
C45 C44 1_555 1_555
H38 C45 1_555 1_555
C46 C41 1_555 1_555
C47 C38 1_555 1_555
C48 C47 1_555 1_555
C49 C48 1_555 1_555
C50 C49 1_555 1_555
H39 C50 1_555 1_555
C51 C50 1_555 1_555
H40 C51 1_555 1_555
C52 C51 1_555 1_555
H41 C52 1_555 1_555
C53 C52 1_555 1_555
H42 C53 1_555 1_555
C54 C49 1_555 1_555
C55 C54 1_555 1_555
H43 C55 1_555 1_555
C56 C55 1_555 1_555
H44 C56 1_555 1_555
C57 C48 1_555 1_555
C58 C57 1_555 1_555
H45 C58 1_555 1_555
H46 C58 1_555 1_555
O1 P1 1_555 1_555
O2 C4 1_555 1_555
O3 P2 1_555 1_555
O4 C33 1_555 1_555
P1 C1 1_555 1_555
P2 C30 1_555 1_555
C5 C6 1_555 1_555
C7 O2 1_555 1_555
C8 P1 1_555 1_555
C16 C17 1_555 1_555
C17 C18 1_555 1_555
C24 C25 1_555 1_555
C27 C28 1_555 1_555
C29 P1 1_555 1_555
C34 C35 1_555 1_555
C36 O4 1_555 1_555
C37 P2 1_555 1_555
C45 C46 1_555 1_555
C46 C47 1_555 1_555
C53 C54 1_555 1_555
C56 C57 1_555 1_555
C58 P2 1_555 1_555

#END
