
#######################################################################
#
#                 Cambridge Crystallographic Data Centre
#                                CCDC 
#
#######################################################################
#
# If this CIF has been generated from an entry in the Cambridge 
# Structural Database, then it will include bibliographic, chemical, 
# crystal, experimental, refinement or atomic coordinate data resulting 
# from the CCDC's data processing and validation procedures.
#
#######################################################################

data_DIFXEV
_chemical_compound_source        'Abies nephrolepis Maxim'
_chemical_formula_moiety         'C15 H26 O1'
_chemical_name_systematic        (+)-\b-Tsedrole
_symmetry_cell_setting           orthorhombic
_symmetry_space_group_name_H-M   'P 21 21 21'
_symmetry_Int_Tables_number      19
_space_group_name_Hall           'P 2ac 2ab'
loop_
_symmetry_equiv_pos_site_id
_symmetry_equiv_pos_as_xyz
1 x,y,z
2 1/2+x,1/2-y,-z
3 -x,1/2+y,1/2-z
4 1/2-x,-y,1/2+z
_cell_length_a                   11.220(4)
_cell_length_b                   15.554(5)
_cell_length_c                   15.837(6)
_cell_angle_alpha                90
_cell_angle_beta                 90
_cell_angle_gamma                90
_cell_volume                     2763.81
_chemical_melting_point          82-84deg.C
_cell_formula_units_Z            8
loop_
_atom_site_label
_atom_site_type_symbol
_atom_site_fract_x
_atom_site_fract_y
_atom_site_fract_z
C1 C 0.0903(11) 0.4093(8) 0.7708(8)
C2 C 0.1834(13) 0.3904(9) 0.8422(9)
C3 C 0.2367(14) 0.4784(11) 0.8578(10)
C4 C 0.1352(16) 0.5415(10) 0.8521(9)
C5 C 0.0474(11) 0.5031(8) 0.7847(8)
C6 C 0.0396(11) 0.5426(8) 0.6938(8)
C7 C 0.0555(11) 0.4659(8) 0.6335(7)
C8 C -0.0549(12) 0.4087(8) 0.6190(8)
C9 C -0.1081(11) 0.3766(8) 0.7032(8)
C10 C -0.0134(13) 0.3479(8) 0.7668(8)
C11 C 0.1504(11) 0.4129(8) 0.6837(8)
C12 C 0.1346(15) 0.3508(9) 0.9218(9)
C13 C -0.0797(12) 0.5961(9) 0.6837(9)
C14 C 0.1447(15) 0.6072(10) 0.6698(9)
O1 O -0.1437(7) 0.4563(5) 0.5749(5)
C15 C 0.4001(11) 0.2085(8) 0.5341(8)
C16 C 0.3213(12) 0.1274(9) 0.5278(9)
C17 C 0.2468(28) 0.1320(17) 0.6048(20)
C18 C 0.3381(13) 0.1607(10) 0.6744(8)
C19 C 0.3946(11) 0.2371(9) 0.6281(8)
C20 C 0.5239(11) 0.2708(8) 0.6520(7)
C21 C 0.5881(10) 0.2736(8) 0.5651(8)
C22 C 0.5666(11) 0.3534(8) 0.5081(8)
C23 C 0.4332(11) 0.3679(8) 0.4952(9)
C24 C 0.3657(12) 0.2857(10) 0.4768(9)
C25 C 0.5325(12) 0.1951(8) 0.5220(8)
C26 C 0.2363(20) 0.1297(15) 0.4520(16)
C27 C 0.5217(11) 0.3541(9) 0.7041(7)
C28 C 0.5897(12) 0.2042(9) 0.7074(8)
O2 O 0.6168(8) 0.4290(6) 0.5511(5)
loop_
_geom_bond_atom_site_label_1
_geom_bond_atom_site_label_2
_geom_bond_site_symmetry_1
_geom_bond_site_symmetry_2
C1 C2 1_555 1_555
C2 C3 1_555 1_555
C3 C4 1_555 1_555
C4 C5 1_555 1_555
C5 C1 1_555 1_555
C6 C5 1_555 1_555
C7 C6 1_555 1_555
C8 C7 1_555 1_555
C9 C8 1_555 1_555
C10 C1 1_555 1_555
C11 C1 1_555 1_555
C12 C2 1_555 1_555
C13 C6 1_555 1_555
C14 C6 1_555 1_555
O1 C8 1_555 1_555
C15 C16 1_555 1_555
C16 C17 1_555 1_555
C17 C18 1_555 1_555
C18 C19 1_555 1_555
C19 C15 1_555 1_555
C20 C19 1_555 1_555
C21 C20 1_555 1_555
C22 C21 1_555 1_555
C23 C22 1_555 1_555
C24 C15 1_555 1_555
C25 C15 1_555 1_555
C26 C16 1_555 1_555
C27 C20 1_555 1_555
C28 C20 1_555 1_555
O2 C22 1_555 1_555
C7 C11 1_555 1_555
C9 C10 1_555 1_555
C21 C25 1_555 1_555
C23 C24 1_555 1_555

#END
