
#######################################################################
#
#                 Cambridge Crystallographic Data Centre
#                                CCDC 
#
#######################################################################
#
# If this CIF has been generated from an entry in the Cambridge 
# Structural Database, then it will include bibliographic, chemical, 
# crystal, experimental, refinement or atomic coordinate data resulting 
# from the CCDC's data processing and validation procedures.
#
#######################################################################

data_DIGGEH
_chemical_formula_moiety         'C22 H20 O3'
_chemical_name_systematic        2,7-Dimethoxy-9-(3-methoxyphenyl)-9H-fluorene
_symmetry_cell_setting           monoclinic
_symmetry_space_group_name_H-M   'P 21/c'
_symmetry_Int_Tables_number      14
_space_group_name_Hall           '-P 2ybc'
loop_
_symmetry_equiv_pos_site_id
_symmetry_equiv_pos_as_xyz
1 x,y,z
2 -x,1/2+y,1/2-z
3 -x,-y,-z
4 x,1/2-y,1/2+z
_cell_length_a                   15.412(2)
_cell_length_b                   5.8149(9)
_cell_length_c                   19.488(3)
_cell_angle_alpha                90
_cell_angle_beta                 96.633(2)
_cell_angle_gamma                90
_cell_volume                     1734.81
_exptl_crystal_colour            colorless
_exptl_crystal_description       block
_cell_formula_units_Z            4
loop_
_atom_site_label
_atom_site_type_symbol
_atom_site_fract_x
_atom_site_fract_y
_atom_site_fract_z
O1 O 0.05541(8) 0.4720(2) 0.43440(6)
C1 C 0.22121(11) 0.4194(3) 0.17065(8)
C2 C 0.16196(10) 0.4062(3) 0.27674(8)
C3 C 0.16549(11) 0.6082(3) 0.17419(8)
C4 C 0.22091(10) 0.2698(3) 0.23478(8)
H1 H 0.1912 0.1254 0.2208
C5 C 0.12989(10) 0.6016(3) 0.24064(8)
C6 C 0.31054(11) 0.2107(3) 0.27149(8)
C7 C 0.08299(11) 0.5044(3) 0.37070(9)
C8 C 0.13867(11) 0.3547(3) 0.34161(8)
H2 H 0.1598 0.2232 0.3651
C9 C 0.05092(11) 0.6996(3) 0.33551(9)
H3 H 0.0135 0.7977 0.3557
O2 O 0.29859(9) 0.4902(3) 0.00476(6)
C10 C 0.26539(12) 0.3848(3) 0.11419(9)
H4 H 0.3027 0.2598 0.1125
C11 C 0.15339(11) 0.7596(3) 0.11919(9)
H5 H 0.1159 0.8845 0.1207
C12 C 0.07416(11) 0.7494(3) 0.27082(9)
H6 H 0.0527 0.8809 0.2475
C13 C 0.35392(11) 0.3633(3) 0.31747(9)
H7 H 0.3281 0.5033 0.3261
O3 O 0.47230(9) 0.4759(3) 0.39565(7)
C14 C 0.43622(12) 0.3099(4) 0.35121(9)
C15 C 0.25317(12) 0.5409(3) 0.05940(9)
C16 C 0.43193(13) -0.0474(4) 0.29212(10)
H8 H 0.4582 -0.1866 0.2832
C17 C 0.35003(13) 0.0040(3) 0.25849(9)
H9 H 0.3217 -0.1000 0.2273
C18 C 0.47500(13) 0.1037(4) 0.33838(10)
H10 H 0.5298 0.0669 0.3608
C19 C 0.19730(12) 0.7245(3) 0.06183(9)
H11 H 0.1889 0.8259 0.0247
C20 C 0.28794(14) 0.6397(4) -0.05400(10)
H12 H 0.2275 0.6436 -0.0726
H13 H 0.3224 0.5839 -0.0885
H14 H 0.3068 0.7919 -0.0402
C21 C 0.07950(14) 0.2656(4) 0.46993(10)
H15 H 0.0567 0.1368 0.4427
H16 H 0.0561 0.2648 0.5135
H17 H 0.1420 0.2550 0.4777
C22 C 0.55693(14) 0.4329(5) 0.43030(13)
H18 H 0.5553 0.2981 0.4586
H19 H 0.5755 0.5624 0.4589
H20 H 0.5972 0.4092 0.3969
loop_
_geom_bond_atom_site_label_1
_geom_bond_atom_site_label_2
_geom_bond_site_symmetry_1
_geom_bond_site_symmetry_2
O1 C7 1_555 1_555
C1 C3 1_555 1_555
C2 C4 1_555 1_555
C3 C5 1_555 1_555
C4 C1 1_555 1_555
H1 C4 1_555 1_555
C5 C2 1_555 1_555
C6 C4 1_555 1_555
C7 C8 1_555 1_555
C8 C2 1_555 1_555
H2 C8 1_555 1_555
C9 C7 1_555 1_555
H3 C9 1_555 1_555
O2 C15 1_555 1_555
C10 C1 1_555 1_555
H4 C10 1_555 1_555
C11 C3 1_555 1_555
H5 C11 1_555 1_555
C12 C5 1_555 1_555
H6 C12 1_555 1_555
C13 C6 1_555 1_555
H7 C13 1_555 1_555
O3 C14 1_555 1_555
C14 C13 1_555 1_555
C15 C10 1_555 1_555
C16 H8 1_555 1_555
C17 C6 1_555 1_555
H9 C17 1_555 1_555
C18 C14 1_555 1_555
H10 C18 1_555 1_555
C19 C11 1_555 1_555
H11 C19 1_555 1_555
C20 O2 1_555 1_555
H12 C20 1_555 1_555
H13 C20 1_555 1_555
H14 C20 1_555 1_555
C21 O1 1_555 1_555
H15 C21 1_555 1_555
H16 C21 1_555 1_555
H17 C21 1_555 1_555
C22 O3 1_555 1_555
H18 C22 1_555 1_555
H19 C22 1_555 1_555
H20 C22 1_555 1_555
C9 C12 1_555 1_555
C15 C19 1_555 1_555
C16 C17 1_555 1_555
C16 C18 1_555 1_555

#END
