
#######################################################################
#
#                 Cambridge Crystallographic Data Centre
#                                CCDC 
#
#######################################################################
#
# If this CIF has been generated from an entry in the Cambridge 
# Structural Database, then it will include bibliographic, chemical, 
# crystal, experimental, refinement or atomic coordinate data resulting 
# from the CCDC's data processing and validation procedures.
#
#######################################################################

data_DIGGIL
_chemical_formula_moiety         'C27 H18'
_chemical_name_systematic        13-Phenyl-13H-dibenzo[a,i]fluorene
_symmetry_cell_setting           triclinic
_symmetry_space_group_name_H-M   'P -1'
_symmetry_Int_Tables_number      2
_space_group_name_Hall           '-P 1'
loop_
_symmetry_equiv_pos_site_id
_symmetry_equiv_pos_as_xyz
1 x,y,z
2 -x,-y,-z
_cell_length_a                   12.975(3)
_cell_length_b                   7.2022(15)
_cell_length_c                   19.200(4)
_cell_angle_alpha                90.00
_cell_angle_beta                 94.338(3)
_cell_angle_gamma                90.00
_cell_volume                     1789.07
_exptl_crystal_colour            colorless
_exptl_crystal_description       needle
_cell_formula_units_Z            4
loop_
_atom_site_label
_atom_site_type_symbol
_atom_site_fract_x
_atom_site_fract_y
_atom_site_fract_z
C1 C 0.4145(3) 0.9080(4) 0.40201(15)
C2 C -0.0203(3) 1.0577(4) 0.26657(17)
C3 C 0.2891(3) 1.1270(4) 0.34957(16)
C4 C 0.1808(3) 1.1279(4) 0.31993(16)
C5 C 0.1372(2) 0.9579(4) 0.33168(15)
C6 C 0.0345(3) 0.9130(4) 0.30544(16)
C7 C 0.2158(2) 0.8323(4) 0.37262(15)
H1 H 0.2286 0.7207 0.3454
C8 C 0.4909(3) 1.0477(4) 0.39740(17)
C9 C 0.3114(2) 0.9565(4) 0.37720(15)
C10 C 0.1799(2) 0.7779(4) 0.44391(16)
C11 C 0.0251(3) 1.2278(5) 0.25632(17)
H2 H -0.0122 1.3178 0.2305
C12 C 0.1246(3) 1.2687(4) 0.28329(17)
H3 H 0.1532 1.3855 0.2774
C13 C 0.1482(3) 0.9155(5) 0.48804(17)
H4 H 0.1507 1.0396 0.4749
C14 C 0.4440(3) 0.7296(5) 0.42544(16)
H5 H 0.3945 0.6372 0.4284
C15 C 0.3650(3) 1.2671(5) 0.34708(17)
H6 H 0.3482 1.3845 0.3294
C16 C 0.4632(3) 1.2247(5) 0.37136(18)
H7 H 0.5139 1.3158 0.3708
C17 C -0.1205(3) 1.0128(5) 0.23614(18)
H8 H -0.1568 1.1013 0.2089
C18 C 0.5467(3) 0.6916(5) 0.44402(18)
H9 H 0.5661 0.5735 0.4595
C19 C -0.0132(3) 0.7440(5) 0.31484(18)
H10 H 0.0218 0.6533 0.3417
C20 C -0.1109(3) 0.7065(5) 0.2855(2)
H11 H -0.1412 0.5913 0.2920
C21 C 0.5957(3) 1.0024(5) 0.41810(19)
H12 H 0.6464 1.0934 0.4166
C22 C 0.6223(3) 0.8304(5) 0.43967(19)
H13 H 0.6914 0.8027 0.4518
C23 C 0.1127(3) 0.8669(6) 0.55184(18)
H14 H 0.0907 0.9591 0.5812
C24 C 0.1770(3) 0.5958(4) 0.46480(19)
H15 H 0.1992 0.5029 0.4358
C25 C -0.1647(3) 0.8447(5) 0.2457(2)
H16 H -0.2309 0.8207 0.2257
C26 C 0.1411(3) 0.5495(6) 0.5290(2)
H17 H 0.1386 0.4258 0.5425
C27 C 0.1097(3) 0.6856(6) 0.5721(2)
H18 H 0.0862 0.6547 0.6152
C28 C 0.0871(3) 0.4079(4) 0.09879(16)
C29 C 0.3194(3) 0.6290(4) 0.17969(16)
C30 C 0.2114(3) 0.6268(4) 0.15042(16)
C31 C 0.5209(3) 0.5561(4) 0.23373(17)
C32 C 0.4651(2) 0.4144(4) 0.19409(16)
C33 C 0.1877(2) 0.4550(4) 0.12237(15)
C34 C 0.3623(3) 0.4562(4) 0.16803(15)
C35 C 0.0101(3) 0.5498(5) 0.10283(16)
C36 C 0.2846(2) 0.3330(4) 0.12734(15)
H19 H 0.2721 0.2215 0.1547
C37 C 0.3201(2) 0.2764(4) 0.05630(16)
C38 C 0.0374(3) 0.7241(5) 0.12908(18)
H20 H -0.0132 0.8153 0.1300
C39 C 0.0554(3) 0.2312(5) 0.07412(17)
H21 H 0.1056 0.1405 0.0701
C40 C 0.4740(3) 0.7305(5) 0.24396(17)
H22 H 0.5109 0.8222 0.2692
C41 C 0.3756(3) 0.7659(5) 0.21740(17)
H23 H 0.3459 0.8812 0.2244
C42 C 0.1348(3) 0.7652(4) 0.15327(17)
H24 H 0.1513 0.8821 0.1714
C43 C 0.3528(2) 0.4123(5) 0.01216(17)
H25 H 0.3517 0.5361 0.0259
C44 C -0.0466(3) 0.1858(5) 0.05561(17)
H26 H -0.0656 0.0667 0.0410
C45 C -0.0942(3) 0.5005(5) 0.08211(19)
H27 H -0.1453 0.5905 0.0841
C46 C 0.6212(3) 0.5141(5) 0.26352(18)
H28 H 0.6586 0.6035 0.2897
C47 C 0.5128(2) 0.2435(4) 0.18473(17)
H29 H 0.4779 0.1511 0.1586
C48 C 0.6102(3) 0.2112(5) 0.2136(2)
H30 H 0.6416 0.0978 0.2059
C49 C -0.1215(3) 0.3301(5) 0.05999(19)
H31 H -0.1907 0.3050 0.0472
C50 C 0.3873(3) 0.3669(6) -0.05226(18)
H32 H 0.4081 0.4595 -0.0819
C51 C 0.3226(3) 0.0957(5) 0.03513(19)
H33 H 0.3004 0.0029 0.0642
C52 C 0.6634(3) 0.3436(5) 0.2542(2)
H34 H 0.7285 0.3160 0.2752
C53 C 0.3904(3) 0.1840(6) -0.0717(2)
H35 H 0.4151 0.1525 -0.1144
C54 C 0.3578(3) 0.0477(6) -0.0293(2)
H36 H 0.3589 -0.0760 -0.0432
loop_
_geom_bond_atom_site_label_1
_geom_bond_atom_site_label_2
_geom_bond_site_symmetry_1
_geom_bond_site_symmetry_2
C1 C8 1_555 1_555
C2 C6 1_555 1_555
C3 C4 1_555 1_555
C4 C5 1_555 1_555
C5 C6 1_555 1_555
C6 C19 1_555 1_555
C7 C5 1_555 1_555
H1 C7 1_555 1_555
C8 C16 1_555 1_555
C9 C1 1_555 1_555
C10 C7 1_555 1_555
C11 C2 1_555 1_555
H2 C11 1_555 1_555
C12 C4 1_555 1_555
H3 C12 1_555 1_555
C13 C10 1_555 1_555
H4 C13 1_555 1_555
C14 C1 1_555 1_555
H5 C14 1_555 1_555
C15 C3 1_555 1_555
H6 C15 1_555 1_555
C16 C15 1_555 1_555
H7 C16 1_555 1_555
C17 C2 1_555 1_555
H8 C17 1_555 1_555
C18 C14 1_555 1_555
H9 C18 1_555 1_555
C19 H10 1_555 1_555
C20 C19 1_555 1_555
H11 C20 1_555 1_555
C21 C8 1_555 1_555
H12 C21 1_555 1_555
C22 C18 1_555 1_555
H13 C22 1_555 1_555
C23 C13 1_555 1_555
H14 C23 1_555 1_555
C24 C10 1_555 1_555
H15 C24 1_555 1_555
C25 C17 1_555 1_555
H16 C25 1_555 1_555
C26 C24 1_555 1_555
H17 C26 1_555 1_555
C27 C23 1_555 1_555
H18 C27 1_555 1_555
C28 C33 1_555 1_555
C29 C30 1_555 1_555
C30 C33 1_555 1_555
C31 C32 1_555 1_555
C32 C34 1_555 1_555
C33 C36 1_555 1_555
C34 C29 1_555 1_555
C35 C28 1_555 1_555
C36 C34 1_555 1_555
H19 C36 1_555 1_555
C37 C36 1_555 1_555
C38 C35 1_555 1_555
H20 C38 1_555 1_555
C39 C28 1_555 1_555
H21 C39 1_555 1_555
C40 C31 1_555 1_555
H22 C40 1_555 1_555
C41 C29 1_555 1_555
H23 C41 1_555 1_555
C42 C30 1_555 1_555
H24 C42 1_555 1_555
C43 C37 1_555 1_555
H25 C43 1_555 1_555
C44 C39 1_555 1_555
H26 C44 1_555 1_555
C45 C35 1_555 1_555
H27 C45 1_555 1_555
C46 C31 1_555 1_555
H28 C46 1_555 1_555
C47 C32 1_555 1_555
H29 C47 1_555 1_555
C48 C47 1_555 1_555
H30 C48 1_555 1_555
C49 C44 1_555 1_555
H31 C49 1_555 1_555
C50 C43 1_555 1_555
H32 C50 1_555 1_555
C51 C37 1_555 1_555
H33 C51 1_555 1_555
C52 C46 1_555 1_555
H34 C52 1_555 1_555
C53 C50 1_555 1_555
H35 C53 1_555 1_555
C54 C51 1_555 1_555
H36 C54 1_555 1_555
C3 C9 1_555 1_555
C7 C9 1_555 1_555
C11 C12 1_555 1_555
C20 C25 1_555 1_555
C21 C22 1_555 1_555
C26 C27 1_555 1_555
C38 C42 1_555 1_555
C40 C41 1_555 1_555
C45 C49 1_555 1_555
C48 C52 1_555 1_555
C53 C54 1_555 1_555

#END
