
#######################################################################
#
#                 Cambridge Crystallographic Data Centre
#                                CCDC 
#
#######################################################################
#
# If this CIF has been generated from an entry in the Cambridge 
# Structural Database, then it will include bibliographic, chemical, 
# crystal, experimental, refinement or atomic coordinate data resulting 
# from the CCDC's data processing and validation procedures.
#
#######################################################################

data_DIGLUC
_chemical_formula_moiety         'C36 H34 O2'
_chemical_name_systematic        9,10-bis(2-(2-propoxyphenyl)vinyl)anthracene
_symmetry_cell_setting           triclinic
_symmetry_space_group_name_H-M   'P -1'
_symmetry_Int_Tables_number      2
_space_group_name_Hall           '-P 1'
loop_
_symmetry_equiv_pos_site_id
_symmetry_equiv_pos_as_xyz
1 x,y,z
2 -x,-y,-z
_cell_length_a                   5.105(12)
_cell_length_b                   8.65(2)
_cell_length_c                   15.66(4)
_cell_angle_alpha                85.57(3)
_cell_angle_beta                 82.78(3)
_cell_angle_gamma                85.67(3)
_cell_volume                     682.471
_exptl_crystal_colour            yellow
_exptl_crystal_description       block
_cell_formula_units_Z            1
loop_
_atom_site_label
_atom_site_type_symbol
_atom_site_fract_x
_atom_site_fract_y
_atom_site_fract_z
O1 O 1.3011(4) 0.1531(2) 0.32542(12)
C1 C 0.7878(6) 0.4992(3) 0.06730(16)
C2 C 0.8264(6) 0.6347(3) 0.00923(17)
C3 C 1.1482(6) 0.0334(3) 0.31664(17)
C4 C 0.9629(6) 0.3665(3) 0.05758(17)
C5 C 1.0123(5) 0.0487(3) 0.24409(17)
C6 C 1.1205(6) -0.0943(3) 0.37515(18)
H1 H 1.2111 -0.1037 0.4234
C7 C 0.9232(6) 0.2268(3) 0.11770(18)
H2 H 0.7945 0.1628 0.1068
C8 C 0.6448(6) 0.7666(3) 0.02283(19)
H3 H 0.6682 0.8565 -0.0131
C9 C 0.8214(6) -0.1955(3) 0.2908(2)
H4 H 0.7102 -0.2719 0.2825
C10 C 1.0451(6) 0.1847(3) 0.18233(18)
H5 H 1.1741 0.2494 0.1920
C11 C 0.5708(6) 0.5043(4) 0.13363(18)
H6 H 0.5448 0.4179 0.1721
C12 C 0.9575(6) -0.2074(3) 0.3613(2)
H7 H 0.9395 -0.2933 0.4006
C13 C 0.8519(6) -0.0686(3) 0.23242(18)
H8 H 0.7625 -0.0614 0.1839
C14 C 1.4370(6) 0.1511(3) 0.40005(18)
H9 H 1.5671 0.0635 0.4010
H10 H 1.3127 0.1424 0.4521
C15 C 0.4397(7) 0.7647(4) 0.0865(2)
H11 H 0.3236 0.8522 0.0933
C16 C 0.4012(7) 0.6314(4) 0.14222(19)
H12 H 0.2582 0.6305 0.1853
C17 C 1.5706(7) 0.3012(4) 0.3948(2)
H13 H 1.6910 0.3086 0.3418
H14 H 1.6746 0.3001 0.4426
C18 C 1.3790(7) 0.4428(4) 0.3970(2)
H15 H 1.2804 0.4472 0.3485
H16 H 1.4751 0.5345 0.3946
H17 H 1.2595 0.4367 0.4495
O1A O 0.6989(4) 0.8469(2) -0.32542(12)
C1A C 1.2122(6) 0.5008(3) -0.06730(16)
C2A C 1.1736(6) 0.3653(3) -0.00923(17)
C3A C 0.8518(6) 0.9666(3) -0.31664(17)
C4A C 1.0371(6) 0.6335(3) -0.05758(17)
C5A C 0.9877(5) 0.9513(3) -0.24409(17)
C6A C 0.8795(6) 1.0943(3) -0.37515(18)
H1A H 0.7889 1.1037 -0.4234
C7A C 1.0768(6) 0.7732(3) -0.11770(18)
H2A H 1.2055 0.8372 -0.1068
C8A C 1.3552(6) 0.2334(3) -0.02283(19)
H3A H 1.3318 0.1435 0.0131
C9A C 1.1786(6) 1.1955(3) -0.2908(2)
H4A H 1.2898 1.2719 -0.2825
C10A C 0.9549(6) 0.8153(3) -0.18233(18)
H5A H 0.8259 0.7506 -0.1920
C11A C 1.4292(6) 0.4957(4) -0.13363(18)
H6A H 1.4552 0.5821 -0.1721
C12A C 1.0425(6) 1.2074(3) -0.3613(2)
H7A H 1.0605 1.2933 -0.4006
C13A C 1.1481(6) 1.0686(3) -0.23242(18)
H8A H 1.2375 1.0614 -0.1839
C14A C 0.5630(6) 0.8489(3) -0.40005(18)
H9A H 0.4329 0.9365 -0.4010
H10A H 0.6873 0.8576 -0.4521
C15A C 1.5603(7) 0.2353(4) -0.0865(2)
H11A H 1.6764 0.1478 -0.0933
C16A C 1.5988(7) 0.3686(4) -0.14222(19)
H12A H 1.7418 0.3695 -0.1853
C17A C 0.4294(7) 0.6988(4) -0.3948(2)
H13A H 0.3090 0.6914 -0.3418
H14A H 0.3254 0.6999 -0.4426
C18A C 0.6210(7) 0.5572(4) -0.3970(2)
H15A H 0.7196 0.5528 -0.3485
H16A H 0.5249 0.4655 -0.3946
H17A H 0.7405 0.5633 -0.4495
loop_
_geom_bond_atom_site_label_1
_geom_bond_atom_site_label_2
_geom_bond_site_symmetry_1
_geom_bond_site_symmetry_2
O1 C3 1_555 1_555
C1 C2 1_555 1_555
C2 C8 1_555 1_555
C3 C5 1_555 1_555
C4 C1 1_555 1_555
C5 C10 1_555 1_555
C6 C3 1_555 1_555
H1 C6 1_555 1_555
C7 C4 1_555 1_555
H2 C7 1_555 1_555
C8 H3 1_555 1_555
C9 H4 1_555 1_555
C10 C7 1_555 1_555
H5 C10 1_555 1_555
C11 C1 1_555 1_555
H6 C11 1_555 1_555
C12 C6 1_555 1_555
H7 C12 1_555 1_555
C13 C5 1_555 1_555
H8 C13 1_555 1_555
C14 O1 1_555 1_555
H9 C14 1_555 1_555
H10 C14 1_555 1_555
C15 C8 1_555 1_555
H11 C15 1_555 1_555
C16 C11 1_555 1_555
H12 C16 1_555 1_555
C17 C14 1_555 1_555
H13 C17 1_555 1_555
H14 C17 1_555 1_555
C18 C17 1_555 1_555
H15 C18 1_555 1_555
H16 C18 1_555 1_555
H17 C18 1_555 1_555
O1A C3A 1_555 1_555
C1A C2A 1_555 1_555
C2A C4 1_555 1_555
C3A C5A 1_555 1_555
C4A C2 1_555 1_555
C5A C10A 1_555 1_555
C6A C3A 1_555 1_555
H1A C6A 1_555 1_555
C7A C4A 1_555 1_555
H2A C7A 1_555 1_555
C8A C2A 1_555 1_555
H3A C8A 1_555 1_555
C9A H4A 1_555 1_555
C10A C7A 1_555 1_555
H5A C10A 1_555 1_555
C11A C1A 1_555 1_555
H6A C11A 1_555 1_555
C12A C6A 1_555 1_555
H7A C12A 1_555 1_555
C13A C5A 1_555 1_555
H8A C13A 1_555 1_555
C14A O1A 1_555 1_555
H9A C14A 1_555 1_555
H10A C14A 1_555 1_555
C15A C8A 1_555 1_555
H11A C15A 1_555 1_555
C16A C11A 1_555 1_555
H12A C16A 1_555 1_555
C17A C14A 1_555 1_555
H13A C17A 1_555 1_555
H14A C17A 1_555 1_555
C18A C17A 1_555 1_555
H15A C18A 1_555 1_555
H16A C18A 1_555 1_555
H17A C18A 1_555 1_555
C9 C12 1_555 1_555
C9 C13 1_555 1_555
C15 C16 1_555 1_555
C1A C4A 1_555 1_555
C9A C12A 1_555 1_555
C9A C13A 1_555 1_555
C15A C16A 1_555 1_555

#END
