
#######################################################################
#
#                 Cambridge Crystallographic Data Centre
#                                CCDC 
#
#######################################################################
#
# If this CIF has been generated from an entry in the Cambridge 
# Structural Database, then it will include bibliographic, chemical, 
# crystal, experimental, refinement or atomic coordinate data resulting 
# from the CCDC's data processing and validation procedures.
#
#######################################################################

data_DIGNEO
_chemical_formula_moiety         'C43 H28 N4 O1 S1'
_chemical_name_systematic        
5,10,15,20-Tetraphenyl-2-oxa-3-thionoporphyrin
_symmetry_cell_setting           monoclinic
_symmetry_space_group_name_H-M   'P 21/n'
_symmetry_Int_Tables_number      14
_space_group_name_Hall           '-P 2yn'
loop_
_symmetry_equiv_pos_site_id
_symmetry_equiv_pos_as_xyz
1 x,y,z
2 1/2-x,1/2+y,1/2-z
3 -x,-y,-z
4 1/2+x,1/2-y,1/2+z
_cell_length_a                   14.4595(18)
_cell_length_b                   16.894(2)
_cell_length_c                   14.8193(18)
_cell_angle_alpha                90
_cell_angle_beta                 117.621(2)
_cell_angle_gamma                90
_cell_volume                     3207.48
_exptl_crystal_colour            black
_exptl_crystal_description       plate
_cell_formula_units_Z            4
loop_
_atom_site_label
_atom_site_type_symbol
_atom_site_fract_x
_atom_site_fract_y
_atom_site_fract_z
N1 N -0.02402(16) 0.62650(12) 0.60073(15)
H1 H 0.0338 0.6116 0.5996
C1 C -0.0347(2) 0.64637(15) 0.68494(19)
C2 C -0.1396(12) 0.6678(15) 0.6592(11)
H2 H -0.1662 0.6821 0.7047
C3 C -0.1943(15) 0.663(2) 0.5543(13)
H3 H -0.2656 0.6762 0.5127
C4 C -0.11972(19) 0.63414(15) 0.51946(19)
C5 C -0.1483(2) 0.61804(14) 0.4169(2)
N2 N 0.03009(16) 0.59886(13) 0.43757(16)
C6 C -0.07642(19) 0.59777(14) 0.38205(19)
C7 C 0.0736(2) 0.58086(15) 0.37527(19)
C8 C 0.1792(2) 0.57992(16) 0.4021(2)
N3 N 0.24836(17) 0.60708(13) 0.58603(15)
H4 H 0.1891 0.6098 0.5891
C9 C 0.2603(2) 0.59364(15) 0.50115(19)
C10 C 0.3684(5) 0.5978(3) 0.5269(5)
H5 H 0.3964 0.5924 0.4805
C11 C 0.4247(6) 0.6108(3) 0.6291(5)
H6 H 0.4983 0.6157 0.6682
C12 C 0.34608(19) 0.61538(15) 0.66500(19)
C13 C 0.3728(2) 0.62481(14) 0.7679(2)
N4 N 0.19388(15) 0.62674(13) 0.75033(15)
C14 C 0.30050(18) 0.62950(15) 0.80653(19)
C15 C 0.3263(2) 0.64240(18) 0.9112(2)
H7 H 0.3945 0.6471 0.9666
C16 C 0.2350(2) 0.64662(19) 0.9164(2)
H8 H 0.2280 0.6536 0.9765
C17 C 0.1507(2) 0.63857(15) 0.81428(19)
C18 C 0.0443(2) 0.64721(15) 0.78573(19)
C19 C -0.2608(2) 0.62482(15) 0.3412(2)
C20 C -0.3376(2) 0.58330(17) 0.3539(2)
H9 H -0.3178 0.5498 0.4114
C21 C -0.4418(2) 0.59021(19) 0.2842(2)
H10 H -0.4927 0.5611 0.2938
C22 C -0.4722(3) 0.63907(19) 0.2008(2)
H11 H -0.5441 0.6442 0.1534
C23 C -0.3979(3) 0.68041(18) 0.1865(2)
H12 H -0.4187 0.7135 0.1285
C24 C -0.2927(2) 0.67414(16) 0.2562(2)
H13 H -0.2422 0.7035 0.2460
C25 C 0.2108(14) 0.5638(4) 0.3206(10)
C26 C 0.1783(6) 0.6171(4) 0.2398(4)
H14 H 0.1379 0.6621 0.2376
C27 C 0.2055(6) 0.6040(5) 0.1623(4)
H15 H 0.1823 0.6396 0.1064
C28 C 0.2663(11) 0.5393(4) 0.1662(6)
H16 H 0.2892 0.5328 0.1161
C29 C 0.2927(5) 0.4856(3) 0.2419(5)
H17 H 0.3296 0.4391 0.2418
C30 C 0.2661(5) 0.4979(3) 0.3199(5)
H18 H 0.2865 0.4603 0.3733
C31 C 0.4851(2) 0.63010(15) 0.8448(2)
C32 C 0.5438(2) 0.69742(17) 0.8520(3)
H19 H 0.5130 0.7403 0.8063
C33 C 0.6472(3) 0.70192(19) 0.9261(3)
H20 H 0.6870 0.7477 0.9300
C34 C 0.6929(2) 0.64071(18) 0.9941(2)
H21 H 0.7634 0.6447 1.0455
C35 C 0.6354(2) 0.57367(17) 0.9871(2)
H22 H 0.6665 0.5312 1.0334
C36 C 0.5327(2) 0.56814(15) 0.9127(2)
H23 H 0.4941 0.5214 0.9078
C37 C 0.0156(2) 0.66270(17) 0.8686(2)
C38 C 0.0424(3) 0.7345(2) 0.9215(3)
H24 H 0.0800 0.7731 0.9052
C39 C 0.0146(3) 0.7500(2) 0.9976(3)
H25 H 0.0334 0.7988 1.0335
C40 C -0.0408(3) 0.6938(3) 1.0209(3)
H26 H -0.0620 0.7046 1.0715
C41 C -0.0650(3) 0.6224(3) 0.9708(3)
H27 H -0.1013 0.5835 0.9883
C42 C -0.0371(3) 0.6068(2) 0.8952(2)
H28 H -0.0543 0.5572 0.8613
O1 O -0.1108(15) 0.5781(4) 0.2895(12)
S1 S -0.0467(10) 0.5404(8) 0.1646(7)
C43 C -0.0262(18) 0.5666(5) 0.2776(15)
N5? N -0.02402(16) 0.62650(12) 0.60073(15)
C44? C -0.0347(2) 0.64637(15) 0.68494(19)
C45? C -0.1464(17) 0.675(2) 0.6427(16)
S2? S -0.20978(14) 0.71316(13) 0.70124(14)
O2? O -0.1912(13) 0.660(2) 0.5434(12)
C46? C -0.11972(19) 0.63414(15) 0.51946(19)
N6? N -0.02402(16) 0.62650(12) 0.60073(15)
C47? C -0.11972(19) 0.63414(15) 0.51946(19)
C48? C -0.1851(16) 0.6637(8) 0.5683(19)
S3? S -0.3081(9) 0.6887(15) 0.5223(14)
O3? O -0.1253(13) 0.6687(8) 0.6685(15)
C49? C -0.0347(2) 0.64637(15) 0.68494(19)
H29? H 0.0652 0.6095 0.5030
N7? N 0.03009(16) 0.59886(13) 0.43757(16)
C50? C -0.07642(19) 0.59777(14) 0.38205(19)
C51? C -0.0798(17) 0.5659(5) 0.2853(14)
S4? S -0.1754(6) 0.5400(5) 0.1795(5)
O4? O 0.0128(14) 0.5576(4) 0.2876(11)
C52? C 0.0736(2) 0.58086(15) 0.37527(19)
N8? N 0.03009(16) 0.59886(13) 0.43757(16)
C53? C 0.0736(2) 0.58086(15) 0.37527(19)
C54? C -0.07642(19) 0.59777(14) 0.38205(19)
N9? N 0.24836(17) 0.60708(13) 0.58603(15)
C55? C 0.2603(2) 0.59364(15) 0.50115(19)
C56? C 0.3783(17) 0.5867(3) 0.5401(18)
S5? S 0.4566(4) 0.5664(3) 0.4871(4)
O5? O 0.4195(14) 0.6012(3) 0.6397(14)
C57? C 0.34608(19) 0.61538(15) 0.66500(19)
N10? N 0.24836(17) 0.60708(13) 0.58603(15)
C58? C 0.34608(19) 0.61538(15) 0.66500(19)
C59? C 0.4157(16) 0.6045(5) 0.6153(17)
S6? S 0.5433(5) 0.6076(7) 0.6715(6)
O6? O 0.3560(12) 0.5919(5) 0.5171(14)
C60? C 0.2603(2) 0.59364(15) 0.50115(19)
H30? H 0.1590 0.6187 0.6842
N11? N 0.19388(15) 0.62674(13) 0.75033(15)
C61? C 0.30050(18) 0.62950(15) 0.80653(19)
C62? C 0.3091(18) 0.6551(6) 0.9079(15)
S7? S 0.4139(11) 0.6768(12) 1.0114(10)
O7? O 0.2162(14) 0.6587(6) 0.9046(12)
C63? C 0.1507(2) 0.63857(15) 0.81428(19)
N12? N 0.19388(15) 0.62674(13) 0.75033(15)
C64? C 0.1507(2) 0.63857(15) 0.81428(19)
C65? C 0.2481(18) 0.6329(8) 0.9159(16)
S8? S 0.2584(17) 0.6326(17) 1.0299(9)
O8? O 0.3325(15) 0.6278(8) 0.9028(12)
C66? C 0.30050(18) 0.62950(15) 0.80653(19)
C67? C 0.207(7) 0.5778(15) 0.315(5)
C68? C 0.240(3) 0.6399(12) 0.276(2)
H31? H 0.2446 0.6913 0.3038
C69? C 0.267(3) 0.6299(12) 0.198(2)
H32? H 0.2928 0.6726 0.1750
C70? C 0.254(5) 0.5549(16) 0.156(3)
H33? H 0.2457 0.5476 0.0890
C71? C 0.255(2) 0.4926(15) 0.213(2)
H34? H 0.2733 0.4414 0.2005
C72? C 0.2277(19) 0.5036(13) 0.2918(18)
H35? H 0.2238 0.4592 0.3292
C73? C 0.0156(2) 0.66270(17) 0.8686(2)
C74? C -0.038(3) 0.7304(18) 0.869(3)
H36? H -0.0577 0.7684 0.8156
C75? C -0.062(4) 0.741(3) 0.948(3)
H37? H -0.1117 0.7798 0.9444
C76? C -0.011(6) 0.693(3) 1.033(3)
H38? H 0.0100 0.7124 1.1001
C77? C 0.008(5) 0.616(3) 1.015(3)
H39? H 0.0087 0.5745 1.0587
C78? C 0.026(4) 0.6008(17) 0.933(3)
H40? H 0.0445 0.5493 0.9211
C79? C -0.1035(3) 0.5750(2) 0.2788(3)
H41? H -0.1719 0.5679 0.2245
C80? C -0.0126(3) 0.5657(2) 0.2745(3)
H42? H -0.0062 0.5517 0.2156
loop_
_geom_bond_atom_site_label_1
_geom_bond_atom_site_label_2
_geom_bond_site_symmetry_1
_geom_bond_site_symmetry_2
N1 H1 1_555 1_555
C1 N1 1_555 1_555
C2 C1 1_555 1_555
H2 C2 1_555 1_555
C3 C2 1_555 1_555
H3 C3 1_555 1_555
C4 N1 1_555 1_555
C5 C4 1_555 1_555
N2 C6 1_555 1_555
C6 C5 1_555 1_555
C7 N2 1_555 1_555
C8 C7 1_555 1_555
N3 H4 1_555 1_555
C9 C8 1_555 1_555
C10 C9 1_555 1_555
H5 C10 1_555 1_555
C11 C10 1_555 1_555
H6 C11 1_555 1_555
C12 N3 1_555 1_555
C13 C12 1_555 1_555
N4 C14 1_555 1_555
C14 C13 1_555 1_555
C15 C14 1_555 1_555
H7 C15 1_555 1_555
C16 C15 1_555 1_555
H8 C16 1_555 1_555
C17 N4 1_555 1_555
C18 C1 1_555 1_555
C19 C5 1_555 1_555
C20 C19 1_555 1_555
H9 C20 1_555 1_555
C21 C20 1_555 1_555
H10 C21 1_555 1_555
C22 C21 1_555 1_555
H11 C22 1_555 1_555
C23 C22 1_555 1_555
H12 C23 1_555 1_555
C24 C19 1_555 1_555
H13 C24 1_555 1_555
C25 C8 1_555 1_555
C26 C25 1_555 1_555
H14 C26 1_555 1_555
C27 C26 1_555 1_555
H15 C27 1_555 1_555
C28 C27 1_555 1_555
H16 C28 1_555 1_555
C29 C28 1_555 1_555
H17 C29 1_555 1_555
C30 C25 1_555 1_555
H18 C30 1_555 1_555
C31 C13 1_555 1_555
C32 C31 1_555 1_555
H19 C32 1_555 1_555
C33 C32 1_555 1_555
H20 C33 1_555 1_555
C34 C33 1_555 1_555
H21 C34 1_555 1_555
C35 C34 1_555 1_555
H22 C35 1_555 1_555
C36 C31 1_555 1_555
H23 C36 1_555 1_555
C37 C18 1_555 1_555
C38 C37 1_555 1_555
H24 C38 1_555 1_555
C39 C38 1_555 1_555
H25 C39 1_555 1_555
C40 C39 1_555 1_555
H26 C40 1_555 1_555
C41 C40 1_555 1_555
H27 C41 1_555 1_555
C42 C37 1_555 1_555
H28 C42 1_555 1_555
O1 C6 1_555 1_555
S1 C43 1_555 1_555
C43 C7 1_555 1_555
C3 C4 1_555 1_555
N3 C9 1_555 1_555
C11 C12 1_555 1_555
C16 C17 1_555 1_555
C17 C18 1_555 1_555
C23 C24 1_555 1_555
C29 C30 1_555 1_555
C35 C36 1_555 1_555
C41 C42 1_555 1_555
O1 C43 1_555 1_555

#END
