
#######################################################################
#
#                 Cambridge Crystallographic Data Centre
#                                CCDC 
#
#######################################################################
#
# If this CIF has been generated from an entry in the Cambridge 
# Structural Database, then it will include bibliographic, chemical, 
# crystal, experimental, refinement or atomic coordinate data resulting 
# from the CCDC's data processing and validation procedures.
#
#######################################################################

data_DIGPIT
_chemical_formula_moiety         
'C16 H36 N1 1+,C4 H3 O4 1-,C4 H4 O4,C1 H4 N2 S1'
_chemical_name_systematic        
'tetra-n-butylammonium fumarate fumaric acid thiourea'
_symmetry_cell_setting           triclinic
_symmetry_space_group_name_H-M   'P -1'
_symmetry_Int_Tables_number      2
_space_group_name_Hall           '-P 1'
loop_
_symmetry_equiv_pos_site_id
_symmetry_equiv_pos_as_xyz
1 x,y,z
2 -x,-y,-z
_cell_length_a                   8.799(2)
_cell_length_b                   9.590(1)
_cell_length_c                   18.684(4)
_cell_angle_alpha                89.63
_cell_angle_beta                 79.56
_cell_angle_gamma                79.74
_cell_volume                     1525.16
_exptl_crystal_colour            colorless
_exptl_crystal_description       block
_cell_formula_units_Z            2
loop_
_atom_site_label
_atom_site_type_symbol
_atom_site_fract_x
_atom_site_fract_y
_atom_site_fract_z
S1 S 1.16170(13) 0.94899(11) 0.61481(5)
C1 C 1.0694(4) 0.8724(4) 0.68749(19)
N1 N 1.0216(3) 0.9433(3) 0.75081(15)
H1 H 1.0384 1.0326 0.7544
H2 H 0.9730 0.9028 0.7899
N2 N 1.0421(3) 0.7406(3) 0.68394(16)
H3 H 1.0707 0.6914 0.6413
H4 H 0.9934 0.7015 0.7235
O1 O 1.0053(3) 0.7320(3) 0.23558(13)
O2 O 1.1219(4) 0.5138(3) 0.25578(13)
C2 C 1.0684(5) 0.6414(5) 0.27368(18)
C3 C 1.0848(4) 0.6908(4) 0.34738(17)
H5 H 1.0574 0.7904 0.3543
C4 C 1.1170(4) 0.6105(4) 0.40091(17)
H6 H 1.1334 0.5097 0.3932
C5 C 1.1291(4) 0.6667(4) 0.47292(19)
O3 O 1.1464(3) 0.8000(3) 0.47110(12)
H7 H 1.1506 0.8408 0.5107
O4 O 1.1246(3) 0.5994(3) 0.52729(13)
O5 O 0.9137(3) 0.7041(3) 0.11323(14)
H8 H 0.9432 0.7141 0.1535
O6 O 0.9403(4) 0.9283(3) 0.09793(15)
C6 C 0.9226(5) 0.8178(5) 0.0748(2)
C7 C 0.9070(4) 0.7959(4) -0.0021(2)
H9 H 0.9240 0.8713 -0.0349
C8 C 0.8746(4) 0.6823(4) -0.02843(19)
H10 H 0.8559 0.6065 0.0040
C9 C 0.8638(5) 0.6666(5) -0.1066(2)
O7 O 0.8303(4) 0.5448(3) -0.12120(13)
H11 H 0.8471 0.5252 -0.1666
O8 O 0.8785(4) 0.7572(3) -0.15073(15)
N3 N 0.4802(3) 0.9680(3) 0.25510(16)
C10 C 0.5897(4) 1.0689(4) 0.2260(2)
H12 H 0.6693 1.0206 0.1878
H13 H 0.6404 1.0918 0.2646
C11 C 0.5171(5) 1.2081(4) 0.1960(2)
H14 H 0.4384 1.2600 0.2333
H15 H 0.4690 1.1888 0.1558
C12 C 0.6477(6) 1.2938(5) 0.1721(3)
H16 H 0.7244 1.2406 0.1344
H17 H 0.6982 1.3070 0.2123
C13 C 0.5871(6) 1.4343(5) 0.1426(3)
H18 H 0.6718 1.4849 0.1274
H19 H 0.5378 1.4209 0.1019
H20 H 0.5114 1.4879 0.1805
C14 C 0.3546(4) 1.0355(4) 0.3174(2)
H21 H 0.2910 0.9661 0.3344
H22 H 0.2883 1.1133 0.2995
C15 C 0.4103(5) 1.0879(4) 0.3819(2)
H23 H 0.4852 1.1480 0.3653
H24 H 0.4605 1.0096 0.4065
C16 C 0.2774(5) 1.1678(4) 0.4356(2)
H25 H 0.2033 1.1070 0.4522
H26 H 0.2265 1.2447 0.4103
C17 C 0.3269(5) 1.2270(4) 0.5003(2)
H27 H 0.2385 1.2795 0.5328
H28 H 0.3770 1.1496 0.5255
H29 H 0.4004 1.2882 0.4833
C18 C 0.5854(4) 0.8396(4) 0.27959(19)
H30 H 0.6434 0.8712 0.3133
H31 H 0.6595 0.7988 0.2376
C19 C 0.5040(4) 0.7240(4) 0.3154(2)
H32 H 0.4404 0.6945 0.2838
H33 H 0.4376 0.7593 0.3605
C20 C 0.6252(5) 0.5969(4) 0.3292(2)
H34 H 0.6940 0.6296 0.3572
H35 H 0.6867 0.5585 0.2836
C21 C 0.5479(5) 0.4834(4) 0.3696(2)
H36 H 0.6270 0.4055 0.3782
H37 H 0.4874 0.5223 0.4154
H38 H 0.4800 0.4507 0.3412
C22 C 0.3931(5) 0.9268(4) 0.1972(2)
H39 H 0.3277 1.0101 0.1835
H40 H 0.3258 0.8629 0.2180
C23 C 0.4922(5) 0.8572(5) 0.1272(2)
H41 H 0.5535 0.7680 0.1366
H42 H 0.5592 0.9180 0.1024
C24 C 0.3671(9) 0.8256(15) 0.0877(5)
H43 H 0.3119 0.7576 0.1150
H44 H 0.2916 0.9119 0.0856
C25 C 0.4308(15) 0.7677(16) 0.0120(4)
H45 H 0.3460 0.7499 -0.0105
H46 H 0.5036 0.6808 0.0136
H47 H 0.4838 0.8353 -0.0158
C26? C 0.430(2) 0.8615(19) 0.0572(5)
H48? H 0.3704 0.9539 0.0498
H49? H 0.5138 0.8348 0.0155
C27? C 0.328(2) 0.752(2) 0.0723(11)
H50? H 0.2784 0.7420 0.0312
H51? H 0.2483 0.7807 0.1146
H52? H 0.3902 0.6628 0.0808
loop_
_geom_bond_atom_site_label_1
_geom_bond_atom_site_label_2
_geom_bond_site_symmetry_1
_geom_bond_site_symmetry_2
S1 C1 1_555 1_555
C1 N1 1_555 1_555
N1 H1 1_555 1_555
H2 N1 1_555 1_555
N2 C1 1_555 1_555
H3 N2 1_555 1_555
H4 N2 1_555 1_555
O1 C2 1_555 1_555
O2 C2 1_555 1_555
C2 C3 1_555 1_555
C3 H5 1_555 1_555
C4 C3 1_555 1_555
H6 C4 1_555 1_555
C5 C4 1_555 1_555
O3 C5 1_555 1_555
H7 O3 1_555 1_555
O4 C5 1_555 1_555
O5 H8 1_555 1_555
O6 C6 1_555 1_555
C6 O5 1_555 1_555
C7 C6 1_555 1_555
H9 C7 1_555 1_555
C8 C7 1_555 1_555
H10 C8 1_555 1_555
C9 C8 1_555 1_555
O7 C9 1_555 1_555
H11 O7 1_555 1_555
O8 C9 1_555 1_555
N3 C10 1_555 1_555
C10 H12 1_555 1_555
H13 C10 1_555 1_555
C11 C10 1_555 1_555
H14 C11 1_555 1_555
H15 C11 1_555 1_555
C12 C11 1_555 1_555
H16 C12 1_555 1_555
H17 C12 1_555 1_555
C13 C12 1_555 1_555
H18 C13 1_555 1_555
H19 C13 1_555 1_555
H20 C13 1_555 1_555
C14 N3 1_555 1_555
H21 C14 1_555 1_555
H22 C14 1_555 1_555
C15 C14 1_555 1_555
H23 C15 1_555 1_555
H24 C15 1_555 1_555
C16 C15 1_555 1_555
H25 C16 1_555 1_555
H26 C16 1_555 1_555
C17 C16 1_555 1_555
H27 C17 1_555 1_555
H28 C17 1_555 1_555
H29 C17 1_555 1_555
C18 N3 1_555 1_555
H30 C18 1_555 1_555
H31 C18 1_555 1_555
C19 C18 1_555 1_555
H32 C19 1_555 1_555
H33 C19 1_555 1_555
C20 C19 1_555 1_555
H34 C20 1_555 1_555
H35 C20 1_555 1_555
C21 C20 1_555 1_555
H36 C21 1_555 1_555
H37 C21 1_555 1_555
H38 C21 1_555 1_555
C22 N3 1_555 1_555
H39 C22 1_555 1_555
H40 C22 1_555 1_555
C23 C22 1_555 1_555
H41 C23 1_555 1_555
H42 C23 1_555 1_555
C24 C23 1_555 1_555
H43 C24 1_555 1_555
H44 C24 1_555 1_555
C25 C24 1_555 1_555
H45 C25 1_555 1_555
H46 C25 1_555 1_555
H47 C25 1_555 1_555

#END
