
#######################################################################
#
#                 Cambridge Crystallographic Data Centre
#                                CCDC 
#
#######################################################################
#
# If this CIF has been generated from an entry in the Cambridge 
# Structural Database, then it will include bibliographic, chemical, 
# crystal, experimental, refinement or atomic coordinate data resulting 
# from the CCDC's data processing and validation procedures.
#
#######################################################################

data_DIGQAO
_chemical_formula_moiety         'C22 H25 N3 O3'
_chemical_name_systematic        
4-(2-(9,9-dimethyl-7-nitro-2,3-dihydro[1,3]oxazolo[3,2-a]indol-9a(9H)-yl)vinyl)-N,N-dimethylaniline
_symmetry_cell_setting           monoclinic
_symmetry_space_group_name_H-M   'P 21/c'
_symmetry_Int_Tables_number      14
_space_group_name_Hall           '-P 2ybc'
loop_
_symmetry_equiv_pos_site_id
_symmetry_equiv_pos_as_xyz
1 x,y,z
2 -x,1/2+y,1/2-z
3 -x,-y,-z
4 x,1/2-y,1/2+z
_cell_length_a                   21.333(13)
_cell_length_b                   7.865(5)
_cell_length_c                   11.834(8)
_cell_angle_alpha                90
_cell_angle_beta                 100.552(14)
_cell_angle_gamma                90
_cell_volume                     1951.98
_exptl_crystal_colour            colorless
_exptl_crystal_description       Block
_cell_formula_units_Z            4
loop_
_atom_site_label
_atom_site_type_symbol
_atom_site_fract_x
_atom_site_fract_y
_atom_site_fract_z
C1 C 0.4832(3) 0.7169(7) 0.9511(5)
C2 C 0.4826(3) 0.6419(7) 0.8436(5)
H1 H 0.5194 0.6405 0.8121
C3 C 0.4288(3) 0.5722(8) 0.7865(5)
H2 H 0.4281 0.5220 0.7151
C4 C 0.3736(3) 0.5754(7) 0.8353(5)
C5 C 0.3743(3) 0.6437(6) 0.9434(5)
C6 C 0.4302(3) 0.7160(7) 1.0036(5)
H3 H 0.4319 0.7620 1.0765
C7 C 0.3045(3) 0.3625(8) 0.7248(6)
H4 H 0.3439 0.3307 0.7006
H5 H 0.2705 0.3653 0.6582
C8 C 0.2887(3) 0.2386(7) 0.8163(6)
H6 H 0.2487 0.1810 0.7883
H7 H 0.3220 0.1538 0.8348
C9 C 0.2746(2) 0.5116(6) 0.8776(4)
C10 C 0.3093(2) 0.6305(7) 0.9748(5)
C11 C 0.2802(3) 0.8123(8) 0.9638(6)
H8 H 0.3087 0.8896 1.0104
H9 H 0.2400 0.8115 0.9892
H10 H 0.2739 0.8481 0.8850
C12 C 0.3091(3) 0.5641(9) 1.0952(5)
H11 H 0.3303 0.4559 1.1048
H12 H 0.2659 0.5512 1.1064
H13 H 0.3310 0.6431 1.1506
C13 C 0.2049(2) 0.5404(7) 0.8389(5)
H14 H 0.1780 0.4988 0.8859
C14 C 0.1777(3) 0.6201(7) 0.7432(5)
H15 H 0.2050 0.6661 0.6982
C15 C 0.1091(2) 0.6427(6) 0.7013(5)
C16 C 0.0882(3) 0.7342(7) 0.5995(5)
H16 H 0.1183 0.7852 0.5627
C17 C 0.0245(3) 0.7506(7) 0.5527(5)
H17 H 0.0124 0.8126 0.4853
C18 C -0.0223(3) 0.6754(7) 0.6050(5)
C19 C -0.0021(3) 0.5849(8) 0.7061(5)
H18 H -0.0320 0.5355 0.7441
C20 C 0.0620(3) 0.5683(8) 0.7502(5)
H19 H 0.0741 0.5036 0.8164
C21 C -0.1329(3) 0.5912(10) 0.6022(7)
H20 H -0.1279 0.4744 0.5818
H21 H -0.1750 0.6291 0.5693
H22 H -0.1265 0.6015 0.6843
C22 C -0.1065(3) 0.7699(9) 0.4483(6)
H23 H -0.0930 0.8865 0.4516
H24 H -0.1521 0.7646 0.4266
H25 H -0.0873 0.7101 0.3926
N1 N 0.5408(2) 0.8012(7) 1.0094(5)
N2 N 0.3109(2) 0.5259(6) 0.7832(4)
N3 N -0.0872(2) 0.6926(7) 0.5593(5)
O1 O 0.5864(2) 0.8165(7) 0.9614(4)
O2 O 0.5421(2) 0.8586(7) 1.1074(4)
O3 O 0.28418(18) 0.3372(4) 0.9148(4)
loop_
_geom_bond_atom_site_label_1
_geom_bond_atom_site_label_2
_geom_bond_site_symmetry_1
_geom_bond_site_symmetry_2
C1 C2 1_555 1_555
C2 H1 1_555 1_555
C3 C2 1_555 1_555
H2 C3 1_555 1_555
C4 C3 1_555 1_555
C5 C4 1_555 1_555
C6 C1 1_555 1_555
H3 C6 1_555 1_555
C7 H4 1_555 1_555
H5 C7 1_555 1_555
C8 C7 1_555 1_555
H6 C8 1_555 1_555
H7 C8 1_555 1_555
C9 C10 1_555 1_555
C10 C5 1_555 1_555
C11 C10 1_555 1_555
H8 C11 1_555 1_555
H9 C11 1_555 1_555
H10 C11 1_555 1_555
C12 C10 1_555 1_555
H11 C12 1_555 1_555
H12 C12 1_555 1_555
H13 C12 1_555 1_555
C13 C9 1_555 1_555
H14 C13 1_555 1_555
C14 C13 1_555 1_555
H15 C14 1_555 1_555
C15 C14 1_555 1_555
C16 C15 1_555 1_555
H16 C16 1_555 1_555
C17 C16 1_555 1_555
H17 C17 1_555 1_555
C18 C17 1_555 1_555
C19 C18 1_555 1_555
H18 C19 1_555 1_555
C20 C15 1_555 1_555
H19 C20 1_555 1_555
C21 H20 1_555 1_555
H21 C21 1_555 1_555
H22 C21 1_555 1_555
C22 H23 1_555 1_555
H24 C22 1_555 1_555
H25 C22 1_555 1_555
N1 C1 1_555 1_555
N2 C4 1_555 1_555
N3 C18 1_555 1_555
O1 N1 1_555 1_555
O2 N1 1_555 1_555
O3 C8 1_555 1_555
C5 C6 1_555 1_555
C7 N2 1_555 1_555
C9 N2 1_555 1_555
C9 O3 1_555 1_555
C19 C20 1_555 1_555
C21 N3 1_555 1_555
C22 N3 1_555 1_555

#END
