
#######################################################################
#
#                 Cambridge Crystallographic Data Centre
#                                CCDC 
#
#######################################################################
#
# If this CIF has been generated from an entry in the Cambridge 
# Structural Database, then it will include bibliographic, chemical, 
# crystal, experimental, refinement or atomic coordinate data resulting 
# from the CCDC's data processing and validation procedures.
#
#######################################################################

data_DIGQIU
_chemical_formula_moiety         'C20 H28 O3'
_chemical_name_systematic        
(+-)-(1S,5R,7S)-7-Allyl-4-methoxy-8,8-dimethyl-5-prenylbicyclo[3.3.1]non-3-ene-2,9-dione
_symmetry_cell_setting           triclinic
_symmetry_space_group_name_H-M   'P -1'
_symmetry_Int_Tables_number      2
_space_group_name_Hall           '-P 1'
loop_
_symmetry_equiv_pos_site_id
_symmetry_equiv_pos_as_xyz
1 x,y,z
2 -x,-y,-z
_cell_length_a                   7.786(2)
_cell_length_b                   8.516(2)
_cell_length_c                   14.740(3)
_cell_angle_alpha                77.603(4)
_cell_angle_beta                 81.969(4)
_cell_angle_gamma                85.596(4)
_cell_volume                     944.087
_exptl_crystal_colour            colorless
_exptl_crystal_description       tablet
_chemical_melting_point          90-92deg.C
_cell_formula_units_Z            2
loop_
_atom_site_label
_atom_site_type_symbol
_atom_site_fract_x
_atom_site_fract_y
_atom_site_fract_z
C1 C 0.26373(16) 0.55322(15) 0.74635(9)
H1 H 0.1368 0.5812 0.7453
C2 C 0.34488(17) 0.53830(16) 0.64779(9)
O1 O 0.25904(12) 0.48878(12) 0.59693(6)
C3 C 0.52287(16) 0.58118(14) 0.61840(8)
H2 H 0.5752 0.5742 0.5571
C4 C 0.61577(16) 0.63078(14) 0.67621(8)
O2 O 0.78611(11) 0.65687(10) 0.65845(6)
C5 C 0.54157(16) 0.66087(14) 0.77211(8)
C6 C 0.57033(17) 0.50508(14) 0.84656(8)
H3 H 0.6966 0.4789 0.8453
H4 H 0.5255 0.5259 0.9093
C7 C 0.48219(16) 0.35910(15) 0.83202(8)
H5 H 0.5393 0.3344 0.7712
C8 C 0.28648(16) 0.39393(16) 0.82219(9)
C9 C 0.34504(17) 0.68636(16) 0.77482(8)
O3 O 0.26229(12) 0.79661(11) 0.80293(7)
C10 C 0.62334(19) 0.80643(15) 0.79283(9)
H6 H 0.5647 0.8297 0.8529
H7 H 0.7474 0.7791 0.7998
C11 C 0.60922(19) 0.95392(15) 0.71708(9)
H8 H 0.4947 0.9945 0.7074
C12 C 0.7369(2) 1.03507(16) 0.66172(10)
C13 C 0.6962(3) 1.17627(19) 0.58583(13)
H9 H 0.5700 1.1952 0.5884
H10 H 0.7442 1.1535 0.5247
H11 H 0.7478 1.2722 0.5950
C14 C 0.9268(2) 0.99857(19) 0.66715(12)
H12 H 0.9427 0.9086 0.7197
H13 H 0.9798 1.0937 0.6765
H14 H 0.9824 0.9695 0.6087
C15 C 0.51914(17) 0.21118(15) 0.90865(9)
H15 H 0.4803 0.2373 0.9708
H16 H 0.4509 0.1213 0.9027
C16 C 0.70606(18) 0.15842(15) 0.90328(10)
H17 H 0.7594 0.1323 0.8460
C17 C 0.8037(2) 0.14467(17) 0.97006(11)
H18 H 0.7560 0.1695 1.0286
H19 H 0.9225 0.1099 0.9601
C18 C 0.21098(18) 0.25650(18) 0.79096(10)
H20 H 0.2776 0.2389 0.7322
H21 H 0.0894 0.2845 0.7815
H22 H 0.2176 0.1580 0.8392
C19 C 0.18013(18) 0.41960(18) 0.91468(9)
H23 H 0.2273 0.5074 0.9355
H24 H 0.1868 0.3205 0.9626
H25 H 0.0587 0.4471 0.9048
C20 C 0.87131(18) 0.64910(18) 0.56634(9)
H26 H 0.9944 0.6702 0.5623
H27 H 0.8170 0.7301 0.5197
H28 H 0.8606 0.5418 0.5542
loop_
_geom_bond_atom_site_label_1
_geom_bond_atom_site_label_2
_geom_bond_site_symmetry_1
_geom_bond_site_symmetry_2
C1 H1 1_555 1_555
C2 C1 1_555 1_555
O1 C2 1_555 1_555
C3 C2 1_555 1_555
H2 C3 1_555 1_555
C4 C3 1_555 1_555
O2 C4 1_555 1_555
C5 C4 1_555 1_555
C6 C5 1_555 1_555
H3 C6 1_555 1_555
H4 C6 1_555 1_555
C7 C6 1_555 1_555
H5 C7 1_555 1_555
C8 C1 1_555 1_555
C9 C1 1_555 1_555
O3 C9 1_555 1_555
C10 C5 1_555 1_555
H6 C10 1_555 1_555
H7 C10 1_555 1_555
C11 C10 1_555 1_555
H8 C11 1_555 1_555
C12 C11 1_555 1_555
C13 C12 1_555 1_555
H9 C13 1_555 1_555
H10 C13 1_555 1_555
H11 C13 1_555 1_555
C14 C12 1_555 1_555
H12 C14 1_555 1_555
H13 C14 1_555 1_555
H14 C14 1_555 1_555
C15 C7 1_555 1_555
H15 C15 1_555 1_555
H16 C15 1_555 1_555
C16 C15 1_555 1_555
H17 C16 1_555 1_555
C17 C16 1_555 1_555
H18 C17 1_555 1_555
H19 C17 1_555 1_555
C18 C8 1_555 1_555
H20 C18 1_555 1_555
H21 C18 1_555 1_555
H22 C18 1_555 1_555
C19 C8 1_555 1_555
H23 C19 1_555 1_555
H24 C19 1_555 1_555
H25 C19 1_555 1_555
C20 O2 1_555 1_555
H26 C20 1_555 1_555
H27 C20 1_555 1_555
H28 C20 1_555 1_555
C5 C9 1_555 1_555
C7 C8 1_555 1_555

#END
