
#######################################################################
#
#                 Cambridge Crystallographic Data Centre
#                                CCDC 
#
#######################################################################
#
# If this CIF has been generated from an entry in the Cambridge 
# Structural Database, then it will include bibliographic, chemical, 
# crystal, experimental, refinement or atomic coordinate data resulting 
# from the CCDC's data processing and validation procedures.
#
#######################################################################

data_DIGQEQ
_chemical_formula_moiety         'C22 H32 O3'
_chemical_name_systematic        
2-Methoxy-8,8-dimethyl-5,7-bis(prenyl)bicyclo[3.3.1]non-3-ene-4,9-dione
_symmetry_cell_setting           triclinic
_symmetry_space_group_name_H-M   'P -1'
_symmetry_Int_Tables_number      2
_space_group_name_Hall           '-P 1'
loop_
_symmetry_equiv_pos_site_id
_symmetry_equiv_pos_as_xyz
1 x,y,z
2 -x,-y,-z
_cell_length_a                   8.5226(9)
_cell_length_b                   9.5572(10)
_cell_length_c                   13.0166(14)
_cell_angle_alpha                79.425(2)
_cell_angle_beta                 84.405(2)
_cell_angle_gamma                72.404(2)
_cell_volume                     992.46
_exptl_crystal_colour            colorless
_exptl_crystal_description       block
_cell_formula_units_Z            2
loop_
_atom_site_label
_atom_site_type_symbol
_atom_site_fract_x
_atom_site_fract_y
_atom_site_fract_z
C1 C 0.49196(17) 0.63691(15) 0.14888(10)
H1 H 0.5501 0.5731 0.0958
C2 C 0.46293(16) 0.53762(13) 0.24821(10)
O1 O 0.44382(13) 0.41123(10) 0.22830(7)
C3 C 0.46043(16) 0.57400(14) 0.34371(10)
H2 H 0.4435 0.5067 0.4042
C4 C 0.48324(15) 0.71445(13) 0.35538(10)
O2 O 0.46394(13) 0.75660(11) 0.44037(7)
C5 C 0.53232(16) 0.81362(14) 0.25849(10)
C6 C 0.37310(16) 0.92879(13) 0.21414(10)
H3 H 0.3171 0.9883 0.2690
H4 H 0.4047 0.9976 0.1549
C7 C 0.24932(16) 0.86311(13) 0.17626(10)
H5 H 0.2049 0.8077 0.2394
C8 C 0.32971(18) 0.75020(14) 0.10100(10)
C9 C 0.60233(18) 0.72399(15) 0.17134(10)
O3 O 0.72633(13) 0.72973(14) 0.11918(8)
C10 C 0.65007(17) 0.89315(15) 0.28730(12)
H6 H 0.6739 0.9608 0.2245
H7 H 0.5940 0.9549 0.3410
C11 C 0.80921(17) 0.79042(16) 0.32794(12)
H8 H 0.8667 0.7150 0.2881
C12 C 0.87921(17) 0.79389(16) 0.41498(11)
C13 C 1.0445(2) 0.6867(2) 0.44184(14)
H9 H 1.0846 0.6247 0.3871
H10 H 1.0346 0.6232 0.5090
H11 H 1.1224 0.7421 0.4470
C14 C 0.8062(2) 0.90380(19) 0.48787(13)
H12 H 0.8538 0.9871 0.4701
H13 H 0.8306 0.8552 0.5600
H14 H 0.6866 0.9410 0.4811
C15 C 0.10263(19) 0.99006(15) 0.12834(11)
H15 H 0.1444 1.0510 0.0684
H16 H 0.0270 0.9462 0.1011
C16 C 0.00776(16) 1.08920(15) 0.20366(11)
H17 H -0.0489 1.0447 0.2606
C17 C -0.00640(16) 1.23195(15) 0.20011(10)
C18 C 0.0779(2) 1.32219(17) 0.12083(13)
H18 H 0.1323 1.2641 0.0659
H19 H 0.1603 1.3486 0.1547
H20 H -0.0035 1.4131 0.0899
C19 C -0.1119(2) 1.3184(2) 0.28003(15)
H21 H -0.1552 1.2513 0.3334
H22 H -0.2037 1.3964 0.2457
H23 H -0.0455 1.3640 0.3131
C20 C 0.2114(2) 0.66361(16) 0.08512(12)
H24 H 0.1102 0.7333 0.0554
H25 H 0.1845 0.6091 0.1526
H26 H 0.2639 0.5931 0.0372
C21 C 0.3787(2) 0.82606(18) -0.00677(11)
H27 H 0.2805 0.8975 -0.0390
H28 H 0.4285 0.7507 -0.0516
H29 H 0.4583 0.8783 0.0016
C22 C 0.4129(2) 0.30647(17) 0.31689(13)
H30 H 0.4012 0.2192 0.2925
H31 H 0.3112 0.3534 0.3549
H32 H 0.5052 0.2756 0.3634
loop_
_geom_bond_atom_site_label_1
_geom_bond_atom_site_label_2
_geom_bond_site_symmetry_1
_geom_bond_site_symmetry_2
C1 H1 1_555 1_555
C2 C1 1_555 1_555
O1 C2 1_555 1_555
C3 C2 1_555 1_555
H2 C3 1_555 1_555
C4 C3 1_555 1_555
O2 C4 1_555 1_555
C5 C4 1_555 1_555
C6 C5 1_555 1_555
H3 C6 1_555 1_555
H4 C6 1_555 1_555
C7 C6 1_555 1_555
H5 C7 1_555 1_555
C8 C1 1_555 1_555
C9 C1 1_555 1_555
O3 C9 1_555 1_555
C10 C5 1_555 1_555
H6 C10 1_555 1_555
H7 C10 1_555 1_555
C11 C10 1_555 1_555
H8 C11 1_555 1_555
C12 C11 1_555 1_555
C13 C12 1_555 1_555
H9 C13 1_555 1_555
H10 C13 1_555 1_555
H11 C13 1_555 1_555
C14 C12 1_555 1_555
H12 C14 1_555 1_555
H13 C14 1_555 1_555
H14 C14 1_555 1_555
C15 C7 1_555 1_555
H15 C15 1_555 1_555
H16 C15 1_555 1_555
C16 C15 1_555 1_555
H17 C16 1_555 1_555
C17 C16 1_555 1_555
C18 C17 1_555 1_555
H18 C18 1_555 1_555
H19 C18 1_555 1_555
H20 C18 1_555 1_555
C19 C17 1_555 1_555
H21 C19 1_555 1_555
H22 C19 1_555 1_555
H23 C19 1_555 1_555
C20 C8 1_555 1_555
H24 C20 1_555 1_555
H25 C20 1_555 1_555
H26 C20 1_555 1_555
C21 C8 1_555 1_555
H27 C21 1_555 1_555
H28 C21 1_555 1_555
H29 C21 1_555 1_555
C22 O1 1_555 1_555
H30 C22 1_555 1_555
H31 C22 1_555 1_555
H32 C22 1_555 1_555
C5 C9 1_555 1_555
C7 C8 1_555 1_555

#END
