
#######################################################################
#
#                 Cambridge Crystallographic Data Centre
#                                CCDC 
#
#######################################################################
#
# If this CIF has been generated from an entry in the Cambridge 
# Structural Database, then it will include bibliographic, chemical, 
# crystal, experimental, refinement or atomic coordinate data resulting 
# from the CCDC's data processing and validation procedures.
#
#######################################################################

data_DIGSIY
_chemical_formula_moiety         'C20 H15 N5 O1 S1'
_chemical_name_systematic        
4-{[(3-phenoxyphenyl)methylidene]amino}-5-(pyridin-4-yl)-2,4-dihydro-3H-1,2,4-triazole-3-thione
_symmetry_cell_setting           monoclinic
_symmetry_space_group_name_H-M   'P 21/n'
_symmetry_Int_Tables_number      14
_space_group_name_Hall           '-P 2yn'
loop_
_symmetry_equiv_pos_site_id
_symmetry_equiv_pos_as_xyz
1 x,y,z
2 1/2-x,1/2+y,1/2-z
3 -x,-y,-z
4 1/2+x,1/2-y,1/2+z
_cell_length_a                   9.808(7)
_cell_length_b                   12.837(9)
_cell_length_c                   13.937(10)
_cell_angle_alpha                90
_cell_angle_beta                 93.077(11)
_cell_angle_gamma                90
_cell_volume                     1752.21
_cell_formula_units_Z            4
loop_
_atom_site_label
_atom_site_type_symbol
_atom_site_fract_x
_atom_site_fract_y
_atom_site_fract_z
S1 S 0.23282(6) 0.53266(4) 0.51855(4)
N1 N 0.37149(17) 0.27353(12) 0.42366(11)
N2 N 0.30479(17) 0.33606(12) 0.48470(11)
H1 H 0.2620 0.3122 0.5323
N3 N 0.39138(15) 0.43852(11) 0.38670(10)
N4 N 0.41975(16) 0.51823(11) 0.32432(11)
N5 N 0.66077(17) 0.23512(13) 0.13936(11)
O1 O 0.56511(18) 0.73674(12) 0.04885(11)
C1 C 0.61765(19) 0.35906(14) 0.26007(13)
H2 H 0.6435 0.4204 0.2916
C2 C 0.6929(2) 0.32001(16) 0.18850(13)
H3 H 0.7715 0.3556 0.1736
C3 C 0.5489(2) 0.18494(16) 0.16221(14)
H4 H 0.5241 0.1252 0.1278
C4 C 0.4683(2) 0.21650(15) 0.23359(13)
H5 H 0.3912 0.1785 0.2477
C5 C 0.50302(19) 0.30564(14) 0.28442(12)
C6 C 0.42192(19) 0.33751(13) 0.36390(12)
C7 C 0.31130(19) 0.43674(15) 0.46457(12)
C8 C 0.4163(2) 0.61134(15) 0.35411(14)
H6 H 0.3974 0.6257 0.4174
C9 C 0.44240(19) 0.69501(15) 0.28795(14)
C10 C 0.4045(2) 0.79575(16) 0.30983(17)
H7 H 0.3688 0.8106 0.3688
C11 C 0.4202(2) 0.87357(16) 0.24394(18)
H8 H 0.3926 0.9410 0.2577
C12 C 0.4757(2) 0.85292(16) 0.15855(17)
H9 H 0.4866 0.9061 0.1143
C13 C 0.5156(2) 0.75294(16) 0.13796(15)
C14 C 0.4987(2) 0.67432(15) 0.20169(14)
H10 H 0.5252 0.6069 0.1870
C15 C 0.6490(2) 0.65247(16) 0.03536(15)
C16 C 0.7627(2) 0.6355(2) 0.09333(17)
H11 H 0.7836 0.6801 0.1447
C17 C 0.8459(3) 0.5538(2) 0.07646(19)
H12 H 0.9231 0.5421 0.1167
C18 C 0.8170(3) 0.4889(2) 0.00111(19)
H13 H 0.8740 0.4329 -0.0105
C19 C 0.7053(3) 0.5065(2) -0.05647(19)
H14 H 0.6855 0.4626 -0.1084
C20 C 0.6195(3) 0.5887(2) -0.03979(16)
H15 H 0.5420 0.6001 -0.0799
loop_
_geom_bond_atom_site_label_1
_geom_bond_atom_site_label_2
_geom_bond_site_symmetry_1
_geom_bond_site_symmetry_2
S1 C7 1_555 1_555
N1 N2 1_555 1_555
N2 H1 1_555 1_555
N3 N4 1_555 1_555
N4 C8 1_555 1_555
N5 C2 1_555 1_555
O1 C13 1_555 1_555
C1 H2 1_555 1_555
C2 C1 1_555 1_555
H3 C2 1_555 1_555
C3 N5 1_555 1_555
H4 C3 1_555 1_555
C4 C3 1_555 1_555
H5 C4 1_555 1_555
C5 C1 1_555 1_555
C6 N1 1_555 1_555
C7 N2 1_555 1_555
C8 H6 1_555 1_555
C9 C8 1_555 1_555
C10 C9 1_555 1_555
H7 C10 1_555 1_555
C11 C10 1_555 1_555
H8 C11 1_555 1_555
C12 C11 1_555 1_555
H9 C12 1_555 1_555
C13 C12 1_555 1_555
C14 C9 1_555 1_555
H10 C14 1_555 1_555
C15 O1 1_555 1_555
C16 C15 1_555 1_555
H11 C16 1_555 1_555
C17 C16 1_555 1_555
H12 C17 1_555 1_555
C18 C17 1_555 1_555
H13 C18 1_555 1_555
C19 C18 1_555 1_555
H14 C19 1_555 1_555
C20 C15 1_555 1_555
H15 C20 1_555 1_555
N3 C6 1_555 1_555
N3 C7 1_555 1_555
C4 C5 1_555 1_555
C5 C6 1_555 1_555
C13 C14 1_555 1_555
C19 C20 1_555 1_555

#END
