
#######################################################################
#
#                 Cambridge Crystallographic Data Centre
#                                CCDC 
#
#######################################################################
#
# If this CIF has been generated from an entry in the Cambridge 
# Structural Database, then it will include bibliographic, chemical, 
# crystal, experimental, refinement or atomic coordinate data resulting 
# from the CCDC's data processing and validation procedures.
#
#######################################################################

data_DIGVIA
_chemical_formula_moiety         'C24 H20 N2 O2 S1'
_chemical_name_systematic        
(R,R)-4-(Hydroxyimino)-1'-methyl-6-(2-naphthylsulfanyl)spiro[cyclohex-2-ene-1,3'-indol]-2'(1'H)-one
_symmetry_cell_setting           orthorhombic
_symmetry_space_group_name_H-M   'P 21 21 21'
_symmetry_Int_Tables_number      19
_space_group_name_Hall           'P 2ac 2ab'
loop_
_symmetry_equiv_pos_site_id
_symmetry_equiv_pos_as_xyz
1 x,y,z
2 1/2-x,-y,1/2+z
3 -x,1/2+y,1/2-z
4 1/2+x,1/2-y,-z
_cell_length_a                   8.8678(9)
_cell_length_b                   9.3161(9)
_cell_length_c                   24.972(3)
_cell_angle_alpha                90
_cell_angle_beta                 90
_cell_angle_gamma                90
_cell_volume                     2063.02
_exptl_crystal_description       block
_cell_formula_units_Z            4
loop_
_atom_site_label
_atom_site_type_symbol
_atom_site_fract_x
_atom_site_fract_y
_atom_site_fract_z
C1 C 0.6520(2) 0.3239(2) 0.82297(7)
C2 C 0.6165(3) 0.2343(2) 0.77921(8)
H1 H 0.5179 0.2300 0.7666
C3 C 0.7255(3) 0.1541(3) 0.75529(9)
H2 H 0.7005 0.0966 0.7262
C4 C 0.8751(3) 0.1563(2) 0.77372(8)
C5 C 0.9936(3) 0.0792(3) 0.74865(11)
H3 H 0.9721 0.0201 0.7196
C6 C 1.1373(3) 0.0902(3) 0.76634(11)
H4 H 1.2134 0.0393 0.7491
C7 C 1.1724(3) 0.1766(3) 0.80988(9)
H5 H 1.2717 0.1833 0.8216
C8 C 1.0625(2) 0.2511(2) 0.83528(8)
H6 H 1.0871 0.3081 0.8646
C9 C 0.9114(2) 0.2434(2) 0.81796(7)
C10 C 0.7964(2) 0.3273(2) 0.84154(7)
H7 H 0.8198 0.3863 0.8704
C11 C 0.5217(2) 0.41364(18) 0.91966(7)
H8 H 0.6271 0.3928 0.9285
C12 C 0.4770(2) 0.5541(2) 0.94816(7)
C13 C 0.4648(3) 0.5280(2) 1.00737(8)
H9 H 0.4745 0.6060 1.0303
C14 C 0.4410(3) 0.3996(2) 1.02860(8)
H10 H 0.4373 0.3914 1.0657
C15 C 0.4206(2) 0.2718(2) 0.99675(8)
C16 C 0.4270(2) 0.2861(2) 0.93689(7)
H11 H 0.3254 0.2971 0.9230
H12 H 0.4692 0.1991 0.9217
C17 C 0.5994(2) 0.6655(2) 0.93567(8)
C18 C 0.3806(2) 0.7537(2) 0.90105(8)
C19 C 0.3378(2) 0.6263(2) 0.92525(8)
C20 C 0.1885(2) 0.5873(3) 0.92517(9)
H13 H 0.1567 0.5049 0.9429
C21 C 0.0862(3) 0.6731(3) 0.89809(10)
H14 H -0.0148 0.6463 0.8967
C22 C 0.1318(3) 0.7971(3) 0.87328(11)
H15 H 0.0611 0.8529 0.8553
C23 C 0.2806(3) 0.8409(3) 0.87446(10)
H16 H 0.3117 0.9255 0.8580
C24 C 0.6235(3) 0.8939(3) 0.88665(13)
H17 H 0.5784 0.9826 0.8979
H18 H 0.6241 0.8891 0.8483
H19 H 0.7251 0.8889 0.8998
N1 N 0.3901(2) 0.15466(19) 1.02197(7)
N2 N 0.53759(19) 0.77519(16) 0.90782(7)
O1 O 0.3691(2) 0.04104(16) 0.98624(6)
H20 H 0.3324 -0.0275 1.0022
O2 O 0.73307(16) 0.65662(15) 0.94753(7)
S1 S 0.50903(6) 0.43956(6) 0.847163(19)
loop_
_geom_bond_atom_site_label_1
_geom_bond_atom_site_label_2
_geom_bond_site_symmetry_1
_geom_bond_site_symmetry_2
C1 C2 1_555 1_555
C2 H1 1_555 1_555
C3 C2 1_555 1_555
H2 C3 1_555 1_555
C4 C3 1_555 1_555
C5 C4 1_555 1_555
H3 C5 1_555 1_555
C6 C5 1_555 1_555
H4 C6 1_555 1_555
C7 C6 1_555 1_555
H5 C7 1_555 1_555
C8 C7 1_555 1_555
H6 C8 1_555 1_555
C9 C4 1_555 1_555
C10 C1 1_555 1_555
H7 C10 1_555 1_555
C11 H8 1_555 1_555
C12 C11 1_555 1_555
C13 C12 1_555 1_555
H9 C13 1_555 1_555
C14 C13 1_555 1_555
H10 C14 1_555 1_555
C15 C14 1_555 1_555
C16 C11 1_555 1_555
H11 C16 1_555 1_555
H12 C16 1_555 1_555
C17 C12 1_555 1_555
C18 C19 1_555 1_555
C19 C12 1_555 1_555
C20 C19 1_555 1_555
H13 C20 1_555 1_555
C21 C20 1_555 1_555
H14 C21 1_555 1_555
C22 C21 1_555 1_555
H15 C22 1_555 1_555
C23 C18 1_555 1_555
H16 C23 1_555 1_555
C24 H17 1_555 1_555
H18 C24 1_555 1_555
H19 C24 1_555 1_555
N1 C15 1_555 1_555
N2 C17 1_555 1_555
O1 N1 1_555 1_555
H20 O1 1_555 1_555
O2 C17 1_555 1_555
S1 C1 1_555 1_555
C8 C9 1_555 1_555
C9 C10 1_555 1_555
C11 S1 1_555 1_555
C15 C16 1_555 1_555
C18 N2 1_555 1_555
C22 C23 1_555 1_555
C24 N2 1_555 1_555

#END
