
#######################################################################
#
#                 Cambridge Crystallographic Data Centre
#                                CCDC 
#
#######################################################################
#
# If this CIF has been generated from an entry in the Cambridge 
# Structural Database, then it will include bibliographic, chemical, 
# crystal, experimental, refinement or atomic coordinate data resulting 
# from the CCDC's data processing and validation procedures.
#
#######################################################################

data_DIGYUO
_chemical_formula_moiety         'C20 H23 N1 O3'
_chemical_name_systematic        
2-Benzyl-10-hydroxy-3-methyl-2,5a,6,7,8,9,9a,10-octahydro-1H-chromeno[3,2-c]pyridin-1-one
_symmetry_cell_setting           monoclinic
_symmetry_space_group_name_H-M   'P 21/c'
_symmetry_Int_Tables_number      14
_space_group_name_Hall           '-P 2ybc'
loop_
_symmetry_equiv_pos_site_id
_symmetry_equiv_pos_as_xyz
1 x,y,z
2 -x,1/2+y,1/2-z
3 -x,-y,-z
4 x,1/2-y,1/2+z
_cell_length_a                   11.4926(11)
_cell_length_b                   8.8020(8)
_cell_length_c                   16.9803(16)
_cell_angle_alpha                90
_cell_angle_beta                 97.566(2)
_cell_angle_gamma                90
_cell_volume                     1702.74
_exptl_crystal_colour            colorless
_exptl_crystal_description       block
_cell_formula_units_Z            4
loop_
_atom_site_label
_atom_site_type_symbol
_atom_site_fract_x
_atom_site_fract_y
_atom_site_fract_z
C1 C 0.47513(14) 0.30665(17) 0.27309(9)
H1 H 0.4996 0.2378 0.3183
H2 H 0.4380 0.2439 0.2283
C2 C 0.38502(15) 0.41749(18) 0.29674(9)
C3 C 0.27064(16) 0.4131(2) 0.25840(11)
H3 H 0.2507 0.3440 0.2158
C4 C 0.18477(19) 0.5089(3) 0.28159(13)
H4 H 0.1068 0.5053 0.2549
C5 C 0.2138(2) 0.6090(2) 0.34367(15)
H5 H 0.1553 0.6739 0.3599
C6 C 0.3268(2) 0.6153(2) 0.38220(13)
H6 H 0.3464 0.6848 0.4247
C7 C 0.41231(18) 0.51954(19) 0.35874(11)
H7 H 0.4902 0.5241 0.3855
N1 N 0.58057(13) 0.3808(2) 0.24937(9)
C8 C 0.56425(15) 0.44679(18) 0.17393(9)
O1 O 0.46351(11) 0.44571(15) 0.13632(8)
C9 C 0.66437(15) 0.5123(2) 0.14517(10)
C10 C 0.65022(14) 0.58128(18) 0.06365(9)
H8 H 0.5757 0.6412 0.0552
O2 O 0.64395(10) 0.45987(12) 0.00730(6)
H9 H 0.6084 0.4896 -0.0364
C11 C 0.75419(14) 0.68659(18) 0.05659(9)
H10 H 0.7483 0.7758 0.0923
C12 C 0.75675(16) 0.7456(2) -0.02781(10)
H11 H 0.6860 0.8080 -0.0440
H12 H 0.7553 0.6585 -0.0648
C13 C 0.86650(17) 0.8412(2) -0.03348(12)
H13 H 0.8674 0.8743 -0.0891
H14 H 0.8647 0.9331 -0.0001
C14 C 0.97675(16) 0.7505(2) -0.00610(12)
H15 H 1.0466 0.8152 -0.0087
H16 H 0.9816 0.6628 -0.0420
C15 C 0.97647(16) 0.6935(2) 0.07873(12)
H17 H 1.0465 0.6294 0.0942
H18 H 0.9802 0.7811 0.1155
C16 C 0.86659(14) 0.6022(2) 0.08531(10)
H19 H 0.8691 0.5074 0.0531
O3 O 0.87198(11) 0.55983(16) 0.16865(8)
C17 C 0.77102(16) 0.5067(3) 0.19179(12)
C18 C 0.78257(17) 0.4405(3) 0.26823(12)
H20 H 0.8567 0.4409 0.3005
C19 C 0.68873(17) 0.3766(3) 0.29590(12)
C20 C 0.7003(2) 0.2951(3) 0.37409(13)
H21 H 0.7791 0.3121 0.4026
H22 H 0.6879 0.1861 0.3649
H23 H 0.6416 0.3340 0.4059
N2? N 0.5782(9) 0.368(3) 0.2400(9)
C21? C 0.5659(8) 0.4234(15) 0.1622(8)
O4? O 0.4702(11) 0.403(2) 0.1197(10)
C22? C 0.6640(9) 0.500(3) 0.1361(9)
C23? C 0.6561(8) 0.5477(14) 0.0509(7)
H24? H 0.6216 0.4630 0.0161
O5? O 0.5799(10) 0.6766(13) 0.0403(7)
H25? H 0.5499 0.6821 -0.0075
C24? C 0.7785(8) 0.5848(13) 0.0302(6)
H26? H 0.8221 0.4873 0.0265
C25? C 0.7748(11) 0.669(2) -0.0490(7)
H27? H 0.7383 0.6026 -0.0925
H28? H 0.7258 0.7611 -0.0480
C26? C 0.8980(13) 0.714(2) -0.0652(8)
H29? H 0.9454 0.6219 -0.0705
H30? H 0.8925 0.7714 -0.1158
C27? C 0.9574(17) 0.812(2) 0.0021(9)
H31? H 0.9129 0.9076 0.0048
H32? H 1.0376 0.8382 -0.0086
C28? C 0.9642(13) 0.729(3) 0.0814(8)
H33? H 1.0160 0.6392 0.0808
H34? H 0.9984 0.7972 0.1247
C29? C 0.8433(11) 0.6787(16) 0.0966(6)
H35? H 0.7955 0.7713 0.1039
O6? O 0.8596(12) 0.595(3) 0.1713(7)
C30? C 0.7649(12) 0.515(3) 0.1882(10)
C31? C 0.7731(12) 0.458(4) 0.2664(10)
H36? H 0.8440 0.4698 0.3015
C32? C 0.6809(12) 0.385(3) 0.2917(10)
C33? C 0.688(2) 0.323(5) 0.3744(12)
H37? H 0.7686 0.3301 0.4007
H38? H 0.6625 0.2168 0.3722
H39? H 0.6361 0.3824 0.4044
loop_
_geom_bond_atom_site_label_1
_geom_bond_atom_site_label_2
_geom_bond_site_symmetry_1
_geom_bond_site_symmetry_2
C1 H1 1_555 1_555
H2 C1 1_555 1_555
C2 C1 1_555 1_555
C3 C2 1_555 1_555
H3 C3 1_555 1_555
C4 C3 1_555 1_555
H4 C4 1_555 1_555
C5 C4 1_555 1_555
H5 C5 1_555 1_555
C6 C5 1_555 1_555
H6 C6 1_555 1_555
C7 C2 1_555 1_555
H7 C7 1_555 1_555
N1 C1 1_555 1_555
C8 N1 1_555 1_555
O1 C8 1_555 1_555
C9 C8 1_555 1_555
C10 C9 1_555 1_555
H8 C10 1_555 1_555
O2 C10 1_555 1_555
H9 O2 1_555 1_555
C11 C10 1_555 1_555
H10 C11 1_555 1_555
C12 C11 1_555 1_555
H11 C12 1_555 1_555
H12 C12 1_555 1_555
C13 C12 1_555 1_555
H13 C13 1_555 1_555
H14 C13 1_555 1_555
C14 C13 1_555 1_555
H15 C14 1_555 1_555
H16 C14 1_555 1_555
C15 C14 1_555 1_555
H17 C15 1_555 1_555
H18 C15 1_555 1_555
C16 C11 1_555 1_555
H19 C16 1_555 1_555
O3 C16 1_555 1_555
C17 C9 1_555 1_555
C18 C17 1_555 1_555
H20 C18 1_555 1_555
C19 N1 1_555 1_555
C20 C19 1_555 1_555
H21 C20 1_555 1_555
H22 C20 1_555 1_555
H23 C20 1_555 1_555
C6 C7 1_555 1_555
C15 C16 1_555 1_555
O3 C17 1_555 1_555
C18 C19 1_555 1_555

#END
