
#######################################################################
#
#                 Cambridge Crystallographic Data Centre
#                                CCDC 
#
#######################################################################
#
# If this CIF has been generated from an entry in the Cambridge 
# Structural Database, then it will include bibliographic, chemical, 
# crystal, experimental, refinement or atomic coordinate data resulting 
# from the CCDC's data processing and validation procedures.
#
#######################################################################

data_DIGYAU
_chemical_formula_moiety         'C22 H26 N2 O5'
_chemical_name_systematic        
'(6-Acetyl-2,3,7,7a,8,9,10,11-octahydro-1H-pyrrolo[2,1-j]quinolin-3-yl)methyl 4-nitrobenzoate'
_symmetry_cell_setting           monoclinic
_symmetry_space_group_name_H-M   'P 21/n'
_symmetry_Int_Tables_number      14
_space_group_name_Hall           '-P 2yn'
loop_
_symmetry_equiv_pos_site_id
_symmetry_equiv_pos_as_xyz
1 x,y,z
2 1/2-x,1/2+y,1/2-z
3 -x,-y,-z
4 1/2+x,1/2-y,1/2+z
_cell_length_a                   13.722(4)
_cell_length_b                   8.222(3)
_cell_length_c                   17.994(6)
_cell_angle_alpha                90
_cell_angle_beta                 102.732(6)
_cell_angle_gamma                90
_cell_volume                     1980.21
_exptl_crystal_colour            orange
_exptl_crystal_description       Block
_cell_formula_units_Z            4
loop_
_atom_site_label
_atom_site_type_symbol
_atom_site_fract_x
_atom_site_fract_y
_atom_site_fract_z
O1 O 0.28361(11) 0.50154(18) 0.35480(8)
O2 O 0.22671(11) 0.2809(2) 0.01512(8)
O3 O 0.17869(13) 0.4330(2) -0.08976(9)
O4 O -0.25523(12) 0.1212(3) 0.02839(11)
O5 O -0.30732(12) 0.3002(2) -0.05822(11)
N1 N 0.40718(13) 0.3146(2) 0.14631(10)
N2 N -0.24091(14) 0.2230(3) -0.01688(11)
C1 C 0.16342(16) 0.3776(3) 0.25819(13)
H1 H 0.1198 0.4064 0.2926
H2 H 0.1628 0.2594 0.2511
H3 H 0.1393 0.4309 0.2089
C2 C 0.26853(15) 0.4330(2) 0.29213(11)
C3 C 0.34864(14) 0.4069(3) 0.25424(11)
C4 C 0.33469(15) 0.3331(3) 0.18444(12)
H4 H 0.2700 0.2929 0.1619
C5 C 0.45147(15) 0.4577(3) 0.29438(12)
H5 H 0.4600 0.4376 0.3497
H6 H 0.4594 0.5758 0.2869
C6 C 0.53257(17) 0.3656(3) 0.26518(13)
H7 H 0.5311 0.2493 0.2811
C7 C 0.63802(19) 0.4338(4) 0.29832(15)
H8 H 0.6505 0.4329 0.3547
H9 H 0.6883 0.3624 0.2830
C8 C 0.6503(2) 0.6036(5) 0.27166(16)
H10 H 0.7199 0.6397 0.2920
H11 H 0.6055 0.6772 0.2921
C9 C 0.6267(2) 0.6165(5) 0.18535(17)
H12 H 0.6785 0.5582 0.1652
H13 H 0.6281 0.7323 0.1705
C10 C 0.52420(18) 0.5445(4) 0.15031(14)
H14 H 0.4720 0.6149 0.1635
H15 H 0.5146 0.5446 0.0941
C11 C 0.51058(15) 0.3716(3) 0.17698(12)
C12 C 0.5700(2) 0.2456(4) 0.14367(16)
H16 H 0.5814 0.1467 0.1758
H17 H 0.6354 0.2901 0.1388
C13 C 0.50328(19) 0.2080(4) 0.06483(15)
H18 H 0.5140 0.2889 0.0267
H19 H 0.5178 0.0982 0.0474
C14 C 0.39566(17) 0.2172(3) 0.07636(13)
H20 H 0.3706 0.1059 0.0846
C15 C 0.32941(16) 0.2955(3) 0.00807(13)
H21 H 0.3474 0.4117 0.0053
H22 H 0.3381 0.2411 -0.0391
C16 C 0.15836(16) 0.3507(3) -0.04015(12)
C17 C 0.05544(16) 0.3142(3) -0.03230(11)
C18 C 0.03606(16) 0.2125(3) 0.02432(12)
H23 H 0.0897 0.1633 0.0596
C19 C -0.06132(16) 0.1832(3) 0.02918(12)
H24 H -0.0755 0.1141 0.0678
C20 C -0.13770(15) 0.2555(3) -0.02284(12)
C21 C -0.12047(17) 0.3569(3) -0.07957(12)
H25 H -0.1745 0.4055 -0.1147
C22 C -0.02318(17) 0.3863(3) -0.08413(12)
H26 H -0.0096 0.4560 -0.1227
H27? H 0.1614 0.3247 0.2091
H28? H 0.1185 0.4717 0.2506
H29? H 0.1420 0.3002 0.2928
loop_
_geom_bond_atom_site_label_1
_geom_bond_atom_site_label_2
_geom_bond_site_symmetry_1
_geom_bond_site_symmetry_2
O1 C2 1_555 1_555
O2 C15 1_555 1_555
O3 C16 1_555 1_555
O4 N2 1_555 1_555
O5 N2 1_555 1_555
N1 C4 1_555 1_555
N2 C20 1_555 1_555
C1 H1 1_555 1_555
H2 C1 1_555 1_555
H3 C1 1_555 1_555
C2 C1 1_555 1_555
C3 C2 1_555 1_555
C4 C3 1_555 1_555
H4 C4 1_555 1_555
C5 C3 1_555 1_555
H5 C5 1_555 1_555
H6 C5 1_555 1_555
C6 C5 1_555 1_555
H7 C6 1_555 1_555
C7 C6 1_555 1_555
H8 C7 1_555 1_555
H9 C7 1_555 1_555
C8 C7 1_555 1_555
H10 C8 1_555 1_555
H11 C8 1_555 1_555
C9 C8 1_555 1_555
H12 C9 1_555 1_555
H13 C9 1_555 1_555
C10 C9 1_555 1_555
H14 C10 1_555 1_555
H15 C10 1_555 1_555
C11 N1 1_555 1_555
C12 C11 1_555 1_555
H16 C12 1_555 1_555
H17 C12 1_555 1_555
C13 C12 1_555 1_555
H18 C13 1_555 1_555
H19 C13 1_555 1_555
C14 N1 1_555 1_555
H20 C14 1_555 1_555
C15 C14 1_555 1_555
H21 C15 1_555 1_555
H22 C15 1_555 1_555
C16 O2 1_555 1_555
C17 C16 1_555 1_555
C18 C17 1_555 1_555
H23 C18 1_555 1_555
C19 C18 1_555 1_555
H24 C19 1_555 1_555
C20 C19 1_555 1_555
C21 C20 1_555 1_555
H25 C21 1_555 1_555
C22 C17 1_555 1_555
H26 C22 1_555 1_555
C6 C11 1_555 1_555
C10 C11 1_555 1_555
C13 C14 1_555 1_555
C21 C22 1_555 1_555

#END
