
#######################################################################
#
#                 Cambridge Crystallographic Data Centre
#                                CCDC 
#
#######################################################################
#
# If this CIF has been generated from an entry in the Cambridge 
# Structural Database, then it will include bibliographic, chemical, 
# crystal, experimental, refinement or atomic coordinate data resulting 
# from the CCDC's data processing and validation procedures.
#
#######################################################################

data_DIGZAW
_chemical_formula_moiety         'C14 H14 O3'
_chemical_name_systematic        'Ethyl 4-methoxy-1-naphthoate'
_symmetry_cell_setting           monoclinic
_symmetry_space_group_name_H-M   'P 21/n'
_symmetry_Int_Tables_number      14
_space_group_name_Hall           '-P 2yn'
loop_
_symmetry_equiv_pos_site_id
_symmetry_equiv_pos_as_xyz
1 x,y,z
2 1/2-x,1/2+y,1/2-z
3 -x,-y,-z
4 1/2+x,1/2-y,1/2+z
_cell_length_a                   7.9533(14)
_cell_length_b                   14.366(2)
_cell_length_c                   19.923(3)
_cell_angle_alpha                90
_cell_angle_beta                 99.525(4)
_cell_angle_gamma                90
_cell_volume                     2244.96
_exptl_crystal_colour            colorless
_exptl_crystal_description       columnar
_cell_formula_units_Z            8
loop_
_atom_site_label
_atom_site_type_symbol
_atom_site_fract_x
_atom_site_fract_y
_atom_site_fract_z
O1 O 0.93122(14) 0.80901(7) 0.34425(5)
O2 O 0.40811(14) 0.70827(7) 0.08268(5)
O3 O 0.87200(15) 0.95640(8) 0.31433(6)
C1 C 1.1089(2) 0.76226(11) 0.44661(8)
H1 H 1.0159 0.7246 0.4589
H2 H 1.1823 0.7839 0.4881
H3 H 1.1762 0.7245 0.4198
C2 C 1.0362(2) 0.84459(11) 0.40535(8)
H4 H 0.9666 0.8829 0.4317
H5 H 1.1291 0.8838 0.3933
C3 C 0.85184(19) 0.87432(11) 0.30190(7)
C4 C 0.7397(2) 0.83261(10) 0.24215(7)
C5 C 0.7258(2) 0.73724(11) 0.23751(8)
H6 H 0.7928 0.7005 0.2715
C6 C 0.6175(2) 0.69187(11) 0.18504(8)
H7 H 0.6116 0.6258 0.1837
C7 C 0.5197(2) 0.74432(11) 0.13551(7)
C8 C 0.3865(2) 0.60960(11) 0.08153(8)
H8 H 0.4948 0.5795 0.0773
H9 H 0.2998 0.5922 0.0427
H10 H 0.3499 0.5893 0.1238
C9 C 0.5301(2) 0.84349(11) 0.13651(8)
C10 C 0.64111(19) 0.88937(10) 0.19011(7)
C11 C 0.6449(2) 0.98801(11) 0.18892(8)
H11 H 0.7182 1.0204 0.2237
C12 C 0.5454(2) 1.03734(12) 0.13891(8)
H12 H 0.5498 1.1034 0.1397
C13 C 0.4367(2) 0.99190(12) 0.08633(8)
H13 H 0.3682 1.0271 0.0517
C14 C 0.4297(2) 0.89718(11) 0.08513(8)
H14 H 0.3565 0.8666 0.0493
O4 O 0.59652(14) 0.94288(7) 0.42334(5)
O5 O 0.07912(14) 0.84805(7) 0.15888(5)
O6 O 0.13020(15) 0.69992(8) 0.18875(6)
C15 C 0.6155(2) 1.04205(11) 0.42714(8)
H15 H 0.6580 1.0646 0.3867
H16 H 0.6967 1.0585 0.4680
H17 H 0.5048 1.0708 0.4294
C16 C 0.4883(2) 0.90801(11) 0.36891(7)
C17 C 0.3930(2) 0.96161(11) 0.31950(8)
H18 H 0.4003 1.0276 0.3214
C18 C 0.2848(2) 0.91756(11) 0.26630(7)
H19 H 0.2192 0.9552 0.2324
C19 C 0.2689(2) 0.82239(11) 0.26083(8)
C20 C 0.1551(2) 0.78192(11) 0.20107(8)
C21 C -0.0251(2) 0.81378(11) 0.09735(8)
H20 H -0.1202 0.7757 0.1087
H21 H 0.0441 0.7747 0.0714
C22 C -0.0933(2) 0.89706(11) 0.05590(8)
H22 H -0.1695 0.9323 0.0805
H23 H -0.1565 0.8763 0.0120
H24 H 0.0017 0.9369 0.0482
C23 C 0.3685(2) 0.76469(10) 0.31170(7)
C24 C 0.4804(2) 0.80874(11) 0.36586(7)
C25 C 0.5861(2) 0.75335(11) 0.41482(7)
H25 H 0.6602 0.7827 0.4509
C26 C 0.5824(2) 0.65859(11) 0.41054(8)
H26 H 0.6560 0.6223 0.4427
C27 C 0.4695(2) 0.61488(12) 0.35845(8)
H27 H 0.4654 0.5488 0.3563
C28 C 0.3655(2) 0.66588(11) 0.31086(8)
H28 H 0.2894 0.6346 0.2764
loop_
_geom_bond_atom_site_label_1
_geom_bond_atom_site_label_2
_geom_bond_site_symmetry_1
_geom_bond_site_symmetry_2
O1 C2 1_555 1_555
O2 C7 1_555 1_555
O3 C3 1_555 1_555
C1 H1 1_555 1_555
H2 C1 1_555 1_555
H3 C1 1_555 1_555
C2 C1 1_555 1_555
H4 C2 1_555 1_555
H5 C2 1_555 1_555
C3 O1 1_555 1_555
C4 C3 1_555 1_555
C5 C4 1_555 1_555
H6 C5 1_555 1_555
C6 C5 1_555 1_555
H7 C6 1_555 1_555
C7 C6 1_555 1_555
C8 O2 1_555 1_555
H8 C8 1_555 1_555
H9 C8 1_555 1_555
H10 C8 1_555 1_555
C9 C7 1_555 1_555
C10 C4 1_555 1_555
C11 C10 1_555 1_555
H11 C11 1_555 1_555
C12 C11 1_555 1_555
H12 C12 1_555 1_555
C13 C12 1_555 1_555
H13 C13 1_555 1_555
C14 C9 1_555 1_555
H14 C14 1_555 1_555
O4 C15 1_555 1_555
O5 C20 1_555 1_555
O6 C20 1_555 1_555
C15 H15 1_555 1_555
H16 C15 1_555 1_555
H17 C15 1_555 1_555
C16 O4 1_555 1_555
C17 C16 1_555 1_555
H18 C17 1_555 1_555
C18 C17 1_555 1_555
H19 C18 1_555 1_555
C19 C18 1_555 1_555
C20 C19 1_555 1_555
C21 O5 1_555 1_555
H20 C21 1_555 1_555
H21 C21 1_555 1_555
C22 C21 1_555 1_555
H22 C22 1_555 1_555
H23 C22 1_555 1_555
H24 C22 1_555 1_555
C23 C19 1_555 1_555
C24 C16 1_555 1_555
C25 C24 1_555 1_555
H25 C25 1_555 1_555
C26 C25 1_555 1_555
H26 C26 1_555 1_555
C27 C26 1_555 1_555
H27 C27 1_555 1_555
C28 C23 1_555 1_555
H28 C28 1_555 1_555
C9 C10 1_555 1_555
C13 C14 1_555 1_555
C23 C24 1_555 1_555
C27 C28 1_555 1_555

#END
