
#######################################################################
#
#                 Cambridge Crystallographic Data Centre
#                                CCDC 
#
#######################################################################
#
# If this CIF has been generated from an entry in the Cambridge 
# Structural Database, then it will include bibliographic, chemical, 
# crystal, experimental, refinement or atomic coordinate data resulting 
# from the CCDC's data processing and validation procedures.
#
#######################################################################

data_DIHGUY
_chemical_formula_moiety         'C11 H12 B1 N1'
_chemical_name_systematic        1-methyl-3-phenyl-1,3-azaborine
_symmetry_cell_setting           orthorhombic
_symmetry_space_group_name_H-M   'P c a 21'
_symmetry_Int_Tables_number      29
_space_group_name_Hall           'P 2c -2ac'
loop_
_symmetry_equiv_pos_site_id
_symmetry_equiv_pos_as_xyz
1 x,y,z
2 -x,-y,1/2+z
3 1/2-x,y,1/2+z
4 1/2+x,-y,z
_cell_length_a                   10.9603(3)
_cell_length_b                   7.5248(2)
_cell_length_c                   11.3795(3)
_cell_angle_alpha                90
_cell_angle_beta                 90
_cell_angle_gamma                90
_cell_volume                     938.514
_exptl_crystal_colour            colorless
_exptl_crystal_description       block
_cell_formula_units_Z            4
loop_
_atom_site_label
_atom_site_type_symbol
_atom_site_fract_x
_atom_site_fract_y
_atom_site_fract_z
N1 N 0.26320(17) 0.2562(2) 0.33941(18)
B1 B 0.0414(2) 0.2777(3) 0.2907(3)
C1 C 0.2454(2) 0.3360(3) 0.4449(2)
H1 H 0.3128 0.3541 0.4960
C2 C 0.1311(2) 0.3910(3) 0.4789(2)
H2 H 0.1217 0.4481 0.5527
C3 C 0.02976(19) 0.3658(3) 0.4089(2)
H3 H -0.0480 0.4043 0.4356
C4 C 0.1710(2) 0.2237(3) 0.2640(2)
H4 H 0.1882 0.1651 0.1920
C5 C 0.3888(2) 0.2035(3) 0.3078(2)
H5 H 0.4445 0.2361 0.3716
H6 H 0.4133 0.2647 0.2356
H7 H 0.3919 0.0747 0.2954
C6 C -0.0681(2) 0.2392(3) 0.2037(2)
C7 C -0.0512(2) 0.1464(3) 0.0978(2)
H8 H 0.0285 0.1069 0.0781
C8 C -0.1460(2) 0.1101(3) 0.0208(2)
H9 H -0.1310 0.0472 -0.0501
C9 C -0.2639(2) 0.1669(3) 0.0486(2)
H10 H -0.3297 0.1431 -0.0034
C10 C -0.2839(2) 0.2580(3) 0.1522(2)
H11 H -0.3639 0.2970 0.1714
C11 C -0.1877(2) 0.2933(3) 0.2288(2)
H12 H -0.2035 0.3555 0.2998
loop_
_geom_bond_atom_site_label_1
_geom_bond_atom_site_label_2
_geom_bond_site_symmetry_1
_geom_bond_site_symmetry_2
N1 C1 1_555 1_555
B1 C3 1_555 1_555
C1 H1 1_555 1_555
C2 C1 1_555 1_555
H2 C2 1_555 1_555
C3 C2 1_555 1_555
H3 C3 1_555 1_555
C4 N1 1_555 1_555
H4 C4 1_555 1_555
C5 N1 1_555 1_555
H5 C5 1_555 1_555
H6 C5 1_555 1_555
H7 C5 1_555 1_555
C6 B1 1_555 1_555
C7 C6 1_555 1_555
H8 C7 1_555 1_555
C8 C7 1_555 1_555
H9 C8 1_555 1_555
C9 C8 1_555 1_555
H10 C9 1_555 1_555
C10 C9 1_555 1_555
H11 C10 1_555 1_555
C11 C6 1_555 1_555
H12 C11 1_555 1_555
B1 C4 1_555 1_555
C10 C11 1_555 1_555

#END
