
#######################################################################
#
#                 Cambridge Crystallographic Data Centre
#                                CCDC 
#
#######################################################################
#
# If this CIF has been generated from an entry in the Cambridge 
# Structural Database, then it will include bibliographic, chemical, 
# crystal, experimental, refinement or atomic coordinate data resulting 
# from the CCDC's data processing and validation procedures.
#
#######################################################################

data_DIHGIL
_chemical_formula_moiety         'C50 H26 Cl4 N2 O4,2(C1 H2 Cl2),C4 H10 O1'
_chemical_name_systematic        
'cis-(1^3^,1^5^,5^3^,5^5^-Tetrachloro-2,4,6,8-tetraoxo-1,5(2,6)-dipyridina-3,7(2,7)ditryptycenaoctacyclophane) dichloromethane diethyl ether solvate'
_symmetry_cell_setting           monoclinic
_symmetry_space_group_name_H-M   'C 2/c'
_symmetry_Int_Tables_number      15
_space_group_name_Hall           '-C 2yn'
loop_
_symmetry_equiv_pos_site_id
_symmetry_equiv_pos_as_xyz
1 x,y,z
2 1/2+x,1/2+y,z
3 -x,y,1/2-z
4 1/2-x,1/2+y,1/2-z
5 -x,-y,-z
6 1/2-x,1/2-y,-z
7 x,-y,1/2+z
8 1/2+x,1/2-y,1/2+z
_cell_length_a                   25.454(3)
_cell_length_b                   11.0665(14)
_cell_length_c                   18.796(2)
_cell_angle_alpha                90
_cell_angle_beta                 103.541(2)
_cell_angle_gamma                90
_cell_volume                     5147.41
_cell_formula_units_Z            4
loop_
_atom_site_label
_atom_site_type_symbol
_atom_site_fract_x
_atom_site_fract_y
_atom_site_fract_z
Cl1 Cl 0.24666(4) 0.49066(12) 0.34170(7)
Cl2 Cl 0.40074(5) 0.44448(11) 0.59057(6)
N1 N 0.38710(11) 0.3214(3) 0.38990(16)
O1 O 0.31975(10) 0.3387(3) 0.28296(14)
O2 O 0.54641(10) 0.3046(3) 0.00224(14)
C1 C 0.36939(13) 0.2102(3) 0.05542(19)
H1 H 0.3565 0.2888 0.0343
C2 C 0.36504(13) 0.1959(3) 0.13469(18)
C3 C 0.34540(13) 0.2803(3) 0.1758(2)
H2 H 0.3339 0.3557 0.1563
C4 C 0.34307(13) 0.2509(3) 0.2463(2)
C5 C 0.35901(14) 0.1388(3) 0.2759(2)
H3 H 0.3555 0.1193 0.3227
C6 C 0.38024(13) 0.0558(3) 0.23519(19)
H4 H 0.3924 -0.0188 0.2553
C7 C 0.38335(13) 0.0839(3) 0.16458(19)
C8 C 0.40334(13) 0.0034(3) 0.11130(19)
H5 H 0.4162 -0.0752 0.1324
C9 C 0.44703(13) 0.0751(3) 0.08651(18)
C10 C 0.50018(13) 0.0416(3) 0.09153(19)
H6 H 0.5129 -0.0319 0.1127
C11 C 0.53429(14) 0.1177(4) 0.0650(2)
H7 H 0.5698 0.0951 0.0673
C12 C 0.51511(15) 0.2270(4) 0.03513(19)
C13 C 0.46253(14) 0.2631(3) 0.03021(19)
H8 H 0.4502 0.3373 0.0098
C14 C 0.42861(13) 0.1867(3) 0.05626(19)
C15 C 0.33815(13) 0.1039(3) 0.01395(19)
C16 C 0.29608(15) 0.1092(4) -0.0468(2)
H9 H 0.2834 0.1834 -0.0669
C17 C 0.27248(17) 0.0022(5) -0.0780(3)
H10 H 0.2447 0.0052 -0.1200
C18 C 0.28971(16) -0.1069(4) -0.0474(3)
H11 H 0.2732 -0.1778 -0.0681
C19 C 0.33158(15) -0.1118(4) 0.0141(2)
H12 H 0.3430 -0.1861 0.0352
C20 C 0.35663(13) -0.0077(3) 0.0446(2)
C21 C 0.33965(14) 0.3631(3) 0.3549(2)
C22 C 0.30814(14) 0.4360(3) 0.3891(2)
C23 C 0.32672(15) 0.4620(3) 0.4618(2)
H13 H 0.3062 0.5090 0.4861
C24 C 0.37634(15) 0.4173(3) 0.4986(2)
C25 C 0.40513(14) 0.3474(3) 0.4595(2)
Cl1B Cl 0.75334(4) 0.49066(12) 0.15830(7)
Cl2B Cl 0.59926(5) 0.44448(11) -0.09057(6)
N1B N 0.61290(11) 0.3214(3) 0.11010(16)
O1B O 0.68025(10) 0.3387(3) 0.21704(14)
O2B O 0.45359(10) 0.3046(3) 0.49776(14)
C1B C 0.63061(13) 0.2102(3) 0.44458(19)
H1B H 0.6435 0.2888 0.4657
C2B C 0.63496(13) 0.1959(3) 0.36531(18)
C3B C 0.65460(13) 0.2803(3) 0.3242(2)
H2B H 0.6661 0.3557 0.3437
C4B C 0.65693(13) 0.2509(3) 0.2537(2)
C5B C 0.64099(14) 0.1388(3) 0.2241(2)
H3B H 0.6445 0.1193 0.1773
C6B C 0.61976(13) 0.0558(3) 0.26481(19)
H4B H 0.6076 -0.0188 0.2447
C7B C 0.61665(13) 0.0839(3) 0.33542(19)
C8B C 0.59666(13) 0.0034(3) 0.38870(19)
H5B H 0.5838 -0.0752 0.3676
C9B C 0.55297(13) 0.0751(3) 0.41349(18)
C10B C 0.49982(13) 0.0416(3) 0.40847(19)
H6B H 0.4871 -0.0319 0.3873
C11B C 0.46571(14) 0.1177(4) 0.4350(2)
H7B H 0.4302 0.0951 0.4327
C12B C 0.48489(15) 0.2270(4) 0.46487(19)
C13B C 0.53747(14) 0.2631(3) 0.46979(19)
H8B H 0.5498 0.3373 0.4902
C14B C 0.57139(13) 0.1867(3) 0.44374(19)
C15B C 0.66185(13) 0.1039(3) 0.48605(19)
C16B C 0.70392(15) 0.1092(4) 0.5468(2)
H9B H 0.7166 0.1834 0.5669
C17B C 0.72752(17) 0.0022(5) 0.5780(3)
H10B H 0.7553 0.0052 0.6200
C18B C 0.71029(16) -0.1069(4) 0.5474(3)
H11B H 0.7268 -0.1778 0.5681
C19B C 0.66842(15) -0.1118(4) 0.4859(2)
H12B H 0.6570 -0.1861 0.4648
C20B C 0.64337(13) -0.0077(3) 0.4554(2)
C21B C 0.66035(14) 0.3631(3) 0.1451(2)
C22B C 0.69186(14) 0.4360(3) 0.1109(2)
C23B C 0.67328(15) 0.4620(3) 0.0382(2)
H13B H 0.6938 0.5090 0.0139
C24B C 0.62366(15) 0.4173(3) 0.0014(2)
C25B C 0.59487(14) 0.3474(3) 0.0405(2)
Cl3? Cl 0.54914(18) 0.4835(3) 0.2124(3)
Cl4? Cl 0.4825(3) 0.3377(5) 0.2794(4)
C26? C 0.5142(14) 0.3499(18) 0.2085(15)
H14? H 0.5385 0.2831 0.2099
H15? H 0.4875 0.3463 0.1631
C27? C 0.4961(9) 0.7788(9) 0.246(2)
H16? H 0.4591 0.7565 0.2259
H17? H 0.5066 0.7541 0.2961
H18? H 0.4999 0.8648 0.2427
C28? C 0.5324(4) 0.7164(13) 0.2022(8)
H19? H 0.5217 0.7402 0.1517
H20? H 0.5284 0.6304 0.2047
C29? C 0.6255(5) 0.6701(16) 0.2073(10)
H21? H 0.6143 0.5878 0.2100
H22? H 0.6243 0.6879 0.1569
C30? C 0.6835(5) 0.686(3) 0.2512(17)
H23? H 0.7066 0.6320 0.2325
H24? H 0.6952 0.7676 0.2478
H25? H 0.6851 0.6664 0.3014
O3? O 0.5884(4) 0.7491(8) 0.2316(6)
Cl5? Cl 0.62239(15) 0.7491(4) 0.14692(18)
Cl6? Cl 0.67068(18) 0.7045(4) 0.2962(2)
C31? C 0.6798(4) 0.7555(11) 0.2147(4)
H26? H 0.6924 0.8375 0.2203
H27? H 0.7072 0.7076 0.2008
loop_
_geom_bond_atom_site_label_1
_geom_bond_atom_site_label_2
_geom_bond_site_symmetry_1
_geom_bond_site_symmetry_2
Cl1 C22 1_555 1_555
Cl2 C24 1_555 1_555
N1 C21 1_555 1_555
O1 C4 1_555 1_555
O2 C12 1_555 1_555
C1 H1 1_555 1_555
C2 C1 1_555 1_555
C3 C2 1_555 1_555
H2 C3 1_555 1_555
C4 C3 1_555 1_555
C5 C4 1_555 1_555
H3 C5 1_555 1_555
C6 C5 1_555 1_555
H4 C6 1_555 1_555
C7 C2 1_555 1_555
C8 C7 1_555 1_555
H5 C8 1_555 1_555
C9 C8 1_555 1_555
C10 C9 1_555 1_555
H6 C10 1_555 1_555
C11 C10 1_555 1_555
H7 C11 1_555 1_555
C12 C11 1_555 1_555
C13 C12 1_555 1_555
H8 C13 1_555 1_555
C14 C1 1_555 1_555
C15 C1 1_555 1_555
C16 C15 1_555 1_555
H9 C16 1_555 1_555
C17 C16 1_555 1_555
H10 C17 1_555 1_555
C18 C17 1_555 1_555
H11 C18 1_555 1_555
C19 C18 1_555 1_555
H12 C19 1_555 1_555
C20 C8 1_555 1_555
C21 O1 1_555 1_555
C22 C21 1_555 1_555
C23 C22 1_555 1_555
H13 C23 1_555 1_555
C24 C23 1_555 1_555
C25 N1 1_555 1_555
Cl1B C22B 1_555 1_555
Cl2B C24B 1_555 1_555
N1B C21B 1_555 1_555
O1B C4B 1_555 1_555
O2B C25 1_555 1_555
C1B H1B 1_555 1_555
C2B C1B 1_555 1_555
C3B C2B 1_555 1_555
H2B C3B 1_555 1_555
C4B C3B 1_555 1_555
C5B C4B 1_555 1_555
H3B C5B 1_555 1_555
C6B C5B 1_555 1_555
H4B C6B 1_555 1_555
C7B C2B 1_555 1_555
C8B C7B 1_555 1_555
H5B C8B 1_555 1_555
C9B C8B 1_555 1_555
C10B C9B 1_555 1_555
H6B C10B 1_555 1_555
C11B C10B 1_555 1_555
H7B C11B 1_555 1_555
C12B O2B 1_555 1_555
C13B C12B 1_555 1_555
H8B C13B 1_555 1_555
C14B C1B 1_555 1_555
C15B C1B 1_555 1_555
C16B C15B 1_555 1_555
H9B C16B 1_555 1_555
C17B C16B 1_555 1_555
H10B C17B 1_555 1_555
C18B C17B 1_555 1_555
H11B C18B 1_555 1_555
C19B C18B 1_555 1_555
H12B C19B 1_555 1_555
C20B C8B 1_555 1_555
C21B O1B 1_555 1_555
C22B C21B 1_555 1_555
C23B C22B 1_555 1_555
H13B C23B 1_555 1_555
C24B C23B 1_555 1_555
C25B O2 1_555 1_555
C6 C7 1_555 1_555
C9 C14 1_555 1_555
C13 C14 1_555 1_555
C15 C20 1_555 1_555
C19 C20 1_555 1_555
C24 C25 1_555 1_555
N1B C25B 1_555 1_555
C6B C7B 1_555 1_555
C9B C14B 1_555 1_555
C11B C12B 1_555 1_555
C13B C14B 1_555 1_555
C15B C20B 1_555 1_555
C19B C20B 1_555 1_555
C24B C25B 1_555 1_555

#END
