
#######################################################################
#
#                 Cambridge Crystallographic Data Centre
#                                CCDC 
#
#######################################################################
#
# If this CIF has been generated from an entry in the Cambridge 
# Structural Database, then it will include bibliographic, chemical, 
# crystal, experimental, refinement or atomic coordinate data resulting 
# from the CCDC's data processing and validation procedures.
#
#######################################################################

data_DIHGEH
_chemical_formula_moiety         'C50 H26 Cl4 N2 O4,2(C1 H2 Cl2)'
_chemical_name_systematic        
'trans-(1^3^,1^5^,5^3^,5^5^-Tetrachloro-2,4,6,8-tetraoxo-1,5(2,6)-dipyridina-3,7(2,7)ditryptycenaoctacyclophane) dichloromethane solvate'
_symmetry_cell_setting           triclinic
_symmetry_space_group_name_H-M   'P -1'
_symmetry_Int_Tables_number      2
_space_group_name_Hall           '-P 1'
loop_
_symmetry_equiv_pos_site_id
_symmetry_equiv_pos_as_xyz
1 x,y,z
2 -x,-y,-z
_cell_length_a                   8.7116(17)
_cell_length_b                   9.7063(19)
_cell_length_c                   13.761(3)
_cell_angle_alpha                95.19(3)
_cell_angle_beta                 93.16(3)
_cell_angle_gamma                96.43(3)
_cell_volume                     1149.03
_exptl_crystal_colour            colorless
_exptl_crystal_description       'thin plate'
_chemical_melting_point          'above 300 deg.C'
_cell_formula_units_Z            1
loop_
_atom_site_label
_atom_site_type_symbol
_atom_site_fract_x
_atom_site_fract_y
_atom_site_fract_z
Cl1 Cl 1.07928(13) -0.13437(12) 0.94418(7)
Cl2 Cl 0.94369(18) -0.53813(13) 0.64534(10)
O1 O 0.8663(3) 0.0095(3) 0.8274(2)
O2 O 0.7166(4) -0.3513(3) 0.5853(2)
N1 N 0.7965(4) -0.1696(4) 0.7041(3)
C1 C 0.2040(5) 0.3922(5) 0.9327(3)
H1 H 0.1199 0.3354 0.9517
C2 C 0.2417(6) 0.5273(6) 0.9774(3)
H2 H 0.1829 0.5602 1.0270
C3 C 0.3653(6) 0.6130(5) 0.9492(3)
H3 H 0.3878 0.7036 0.9789
C4 C 0.4565(5) 0.5643(4) 0.8764(3)
H4 H 0.5402 0.6216 0.8575
C5 C 0.4206(5) 0.4295(4) 0.8325(3)
C6 C 0.2933(5) 0.3434(4) 0.8597(3)
C7 C 0.2693(5) 0.2001(4) 0.8025(3)
H5 H 0.1808 0.1399 0.8223
C8 C 0.2555(4) 0.2256(4) 0.6946(3)
C9 C 0.1357(4) 0.1761(4) 0.6250(3)
H6 H 0.0515 0.1178 0.6422
C10 C 0.1411(5) 0.2133(4) 0.5294(3)
H7 H 0.0616 0.1798 0.4824
C11 C 0.3908(5) 0.3501(4) 0.5737(3)
H8 H 0.4758 0.4067 0.5559
C12 C 0.3834(4) 0.3122(4) 0.6677(3)
C13 C 0.5076(4) 0.3594(4) 0.7519(3)
H9 H 0.5959 0.4200 0.7323
C14 C 0.5531(4) 0.2242(4) 0.7885(3)
C15 C 0.4245(5) 0.1400(4) 0.8171(3)
C16 C 0.4455(5) 0.0145(4) 0.8534(3)
H10 H 0.3625 -0.0403 0.8753
C17 C 0.5942(5) -0.0290(4) 0.8565(3)
H11 H 0.6099 -0.1130 0.8808
C18 C 0.7159(5) 0.0520(4) 0.8241(3)
C19 C 0.6991(4) 0.1805(4) 0.7914(3)
H12 H 0.7837 0.2361 0.7719
C20 C 0.8798(4) -0.1226(4) 0.7868(3)
C21 C 0.9820(4) -0.1994(4) 0.8331(3)
C22 C 1.0031(5) -0.3287(4) 0.7899(3)
H13 H 1.0726 -0.3816 0.8185
C23 C 0.9193(5) -0.3786(4) 0.7034(3)
C24 C 0.8157(5) -0.2966(4) 0.6646(3)
C25 C 0.2669(5) 0.3009(4) 0.5061(3)
Cl1A Cl -0.07928(13) 0.13437(12) 0.05582(7)
Cl2A Cl 0.05631(18) 0.53813(13) 0.35466(10)
O1A O 0.1337(3) -0.0095(3) 0.1726(2)
O2A O 0.2834(4) 0.3513(3) 0.4147(2)
N1A N 0.2035(4) 0.1696(4) 0.2959(3)
C1A C 0.7960(5) -0.3922(5) 0.0673(3)
H1A H 0.8801 -0.3354 0.0483
C2A C 0.7583(6) -0.5273(6) 0.0226(3)
H2A H 0.8171 -0.5602 -0.0270
C3A C 0.6347(6) -0.6130(5) 0.0508(3)
H3A H 0.6122 -0.7036 0.0211
C4A C 0.5435(5) -0.5643(4) 0.1236(3)
H4A H 0.4598 -0.6216 0.1425
C5A C 0.5794(5) -0.4295(4) 0.1675(3)
C6A C 0.7067(5) -0.3434(4) 0.1403(3)
C7A C 0.7307(5) -0.2001(4) 0.1975(3)
H5A H 0.8192 -0.1399 0.1777
C8A C 0.7445(4) -0.2256(4) 0.3054(3)
C9A C 0.8643(4) -0.1761(4) 0.3750(3)
H6A H 0.9485 -0.1178 0.3578
C10A C 0.8589(5) -0.2133(4) 0.4706(3)
H7A H 0.9384 -0.1798 0.5176
C11A C 0.6092(5) -0.3501(4) 0.4263(3)
H8A H 0.5242 -0.4067 0.4441
C12A C 0.6166(4) -0.3122(4) 0.3323(3)
C13A C 0.4924(4) -0.3594(4) 0.2481(3)
H9A H 0.4041 -0.4200 0.2677
C14A C 0.4469(4) -0.2242(4) 0.2115(3)
C15A C 0.5755(5) -0.1400(4) 0.1829(3)
C16A C 0.5545(5) -0.0145(4) 0.1466(3)
H10A H 0.6375 0.0403 0.1247
C17A C 0.4058(5) 0.0290(4) 0.1435(3)
H11A H 0.3901 0.1130 0.1192
C18A C 0.2841(5) -0.0520(4) 0.1759(3)
C19A C 0.3009(4) -0.1805(4) 0.2086(3)
H12A H 0.2163 -0.2361 0.2281
C20A C 0.1202(4) 0.1226(4) 0.2132(3)
C21A C 0.0180(4) 0.1994(4) 0.1669(3)
C22A C -0.0031(5) 0.3287(4) 0.2101(3)
H13A H -0.0726 0.3816 0.1815
C23A C 0.0807(5) 0.3786(4) 0.2966(3)
C24A C 0.1843(5) 0.2966(4) 0.3354(3)
C25A C 0.7331(5) -0.3009(4) 0.4939(3)
C26 C 1.3934(8) -0.1273(7) 0.5915(5)
Cl3 Cl 1.3303(11) -0.2884(6) 0.6418(4)
Cl4 Cl 1.3092(2) -0.12122(19) 0.47283(14)
Cl5? Cl 1.266(3) -0.223(3) 0.6506(8)
loop_
_geom_bond_atom_site_label_1
_geom_bond_atom_site_label_2
_geom_bond_site_symmetry_1
_geom_bond_site_symmetry_2
Cl1 C21 1_555 1_555
Cl2 C23 1_555 1_555
O1 C18 1_555 1_555
O2 C24 1_555 1_555
N1 C20 1_555 1_555
C1 H1 1_555 1_555
C2 C1 1_555 1_555
H2 C2 1_555 1_555
C3 C2 1_555 1_555
H3 C3 1_555 1_555
C4 C3 1_555 1_555
H4 C4 1_555 1_555
C5 C4 1_555 1_555
C6 C1 1_555 1_555
C7 C6 1_555 1_555
H5 C7 1_555 1_555
C8 C7 1_555 1_555
C9 C8 1_555 1_555
H6 C9 1_555 1_555
C10 C9 1_555 1_555
H7 C10 1_555 1_555
C11 H8 1_555 1_555
C12 C8 1_555 1_555
C13 C5 1_555 1_555
H9 C13 1_555 1_555
C14 C13 1_555 1_555
C15 C7 1_555 1_555
C16 C15 1_555 1_555
H10 C16 1_555 1_555
C17 C16 1_555 1_555
H11 C17 1_555 1_555
C18 C17 1_555 1_555
C19 C14 1_555 1_555
H12 C19 1_555 1_555
C20 O1 1_555 1_555
C21 C20 1_555 1_555
C22 C21 1_555 1_555
H13 C22 1_555 1_555
C23 C22 1_555 1_555
C24 N1 1_555 1_555
C25 C10 1_555 1_555
C26 Cl3 1_555 1_555
Cl4 C26 1_555 1_555
Cl1A C21A 1_555 1_555
Cl2A C23A 1_555 1_555
O1A C18A 1_555 1_555
O2A C25 1_555 1_555
N1A C20A 1_555 1_555
C1A H1A 1_555 1_555
C2A C1A 1_555 1_555
H2A C2A 1_555 1_555
C3A C2A 1_555 1_555
H3A C3A 1_555 1_555
C4A C3A 1_555 1_555
H4A C4A 1_555 1_555
C5A C4A 1_555 1_555
C6A C1A 1_555 1_555
C7A C6A 1_555 1_555
H5A C7A 1_555 1_555
C8A C7A 1_555 1_555
C9A C8A 1_555 1_555
H6A C9A 1_555 1_555
C10A C9A 1_555 1_555
H7A C10A 1_555 1_555
C11A H8A 1_555 1_555
C12A C8A 1_555 1_555
C13A C5A 1_555 1_555
H9A C13A 1_555 1_555
C14A C13A 1_555 1_555
C15A C7A 1_555 1_555
C16A C15A 1_555 1_555
H10A C16A 1_555 1_555
C17A C16A 1_555 1_555
H11A C17A 1_555 1_555
C18A C17A 1_555 1_555
C19A C14A 1_555 1_555
H12A C19A 1_555 1_555
C20A O1A 1_555 1_555
C21A C20A 1_555 1_555
C22A C21A 1_555 1_555
H13A C22A 1_555 1_555
C23A C22A 1_555 1_555
C24A O2A 1_555 1_555
C25A O2 1_555 1_555
C5 C6 1_555 1_555
C11 C12 1_555 1_555
C11 C25 1_555 1_555
C12 C13 1_555 1_555
C14 C15 1_555 1_555
C18 C19 1_555 1_555
C23 C24 1_555 1_555
N1A C24A 1_555 1_555
C5A C6A 1_555 1_555
C10A C25A 1_555 1_555
C11A C12A 1_555 1_555
C11A C25A 1_555 1_555
C12A C13A 1_555 1_555
C14A C15A 1_555 1_555
C18A C19A 1_555 1_555
C23A C24A 1_555 1_555

#END
