
#######################################################################
#
#                 Cambridge Crystallographic Data Centre
#                                CCDC 
#
#######################################################################
#
# If this CIF has been generated from an entry in the Cambridge 
# Structural Database, then it will include bibliographic, chemical, 
# crystal, experimental, refinement or atomic coordinate data resulting 
# from the CCDC's data processing and validation procedures.
#
#######################################################################

data_DIHKIR
_chemical_compound_source        
'endophytic fungus Penicillium commune QQF-3 from fresh fruit of the mangrove plant Kandelia candel'
_chemical_name_common            'Peniisocoumarin F monohydrate'
_chemical_formula_moiety         'C13 H13 Cl1 O6,H2 O1'
_chemical_name_systematic        
'3-(2-chloro-3-hydroxypropyl)-5,8-dihydroxy-6-methoxy-1H-2-benzopyran-1-one monohydrate'
_chemical_properties_biological  'Inhibitory effect against alpha-Glucosidase'
_symmetry_cell_setting           triclinic
_symmetry_space_group_name_H-M   'P 1'
_symmetry_Int_Tables_number      1
_space_group_name_Hall           'P 1'
loop_
_symmetry_equiv_pos_site_id
_symmetry_equiv_pos_as_xyz
1 x,y,z
_cell_length_a                   5.0238(4)
_cell_length_b                   5.5679(4)
_cell_length_c                   12.8812(14)
_cell_angle_alpha                99.395(7)
_cell_angle_beta                 94.679(8)
_cell_angle_gamma                105.645(7)
_cell_volume                     339.305
_exptl_crystal_colour            colorless
_exptl_crystal_description       block
_chemical_melting_point          '154-155 deg.C'
_cell_formula_units_Z            1
loop_
_atom_site_label
_atom_site_type_symbol
_atom_site_fract_x
_atom_site_fract_y
_atom_site_fract_z
Cl1 Cl -0.3968(3) -0.6676(3) -0.09682(17)
O1 O 0.1972(10) -0.3073(9) 0.1009(4)
O2 O 0.3352(10) -0.3828(9) 0.2560(5)
O3 O 0.2169(11) -0.1638(10) 0.4313(4)
H1 H 0.2959 -0.2493 0.3941
C1 C 0.0610(14) -0.1007(12) 0.2595(6)
C2 C -0.2250(14) 0.1851(12) 0.2452(6)
O4 O -0.3630(11) 0.2988(9) 0.1815(4)
H2 H -0.4423 0.3857 0.2178
C3 C -0.0862(14) 0.0211(13) 0.1954(6)
C4 C 0.2040(15) -0.2690(12) 0.2059(6)
C5 C 0.0497(13) -0.1897(13) 0.0381(6)
C6 C -0.0895(14) -0.0336(13) 0.0836(7)
H3 H -0.1900 0.0399 0.0409
C7 C -0.0672(14) 0.1086(13) 0.4178(6)
H4 H -0.0651 0.1369 0.4910
C8 C 0.0701(14) -0.2636(13) -0.0742(7)
H5 H 0.2640 -0.2046 -0.0851
H6 H -0.0338 -0.1778 -0.1145
C9 C -0.2111(14) 0.2288(12) 0.3543(6)
O5 O -0.3540(10) 0.3924(9) 0.3951(4)
O6 O -0.0901(12) -0.8786(11) -0.2768(5)
C10 C -0.3377(17) 0.4584(14) 0.5067(7)
H7 H -0.4376 0.5810 0.5243
H8 H -0.1458 0.5300 0.5372
H9 H -0.4184 0.3092 0.5345
C11 C 0.0708(14) -0.0528(13) 0.3684(6)
C12 C -0.0206(16) -0.6137(14) -0.2361(7)
H10 H -0.1456 -0.5425 -0.2743
H11 H 0.1675 -0.5341 -0.2490
C13 C -0.0380(13) -0.5494(12) -0.1184(6)
H12 H 0.0742 -0.6353 -0.0806
H13 H -0.27(2) -0.97(2) -0.285(9)
O7 O -0.6520(13) 0.9274(12) 0.6568(6)
H14 H -0.681(17) 0.900(16) 0.588(8)
H15 H -0.76(2) 0.99(2) 0.684(9)
loop_
_geom_bond_atom_site_label_1
_geom_bond_atom_site_label_2
_geom_bond_site_symmetry_1
_geom_bond_site_symmetry_2
Cl1 C13 1_555 1_555
O1 C4 1_555 1_555
O2 C4 1_555 1_555
O3 H1 1_555 1_555
C1 C3 1_555 1_555
C2 O4 1_555 1_555
O4 H2 1_555 1_555
C3 C2 1_555 1_555
C4 C1 1_555 1_555
C5 O1 1_555 1_555
C6 C3 1_555 1_555
H3 C6 1_555 1_555
C7 H4 1_555 1_555
C8 C5 1_555 1_555
H5 C8 1_555 1_555
H6 C8 1_555 1_555
C9 C2 1_555 1_555
O5 C9 1_555 1_555
O6 C12 1_555 1_555
C10 O5 1_555 1_555
H7 C10 1_555 1_555
H8 C10 1_555 1_555
H9 C10 1_555 1_555
C11 O3 1_555 1_555
C12 H10 1_555 1_555
H11 C12 1_555 1_555
C13 C8 1_555 1_555
H12 C13 1_555 1_555
H13 O6 1_555 1_555
O7 H14 1_555 1_555
H15 O7 1_555 1_555
C1 C11 1_555 1_555
C5 C6 1_555 1_555
C7 C9 1_555 1_555
C7 C11 1_555 1_555
C12 C13 1_555 1_555

#END
