
#######################################################################
#
#                 Cambridge Crystallographic Data Centre
#                                CCDC 
#
#######################################################################
#
# If this CIF has been generated from an entry in the Cambridge 
# Structural Database, then it will include bibliographic, chemical, 
# crystal, experimental, refinement or atomic coordinate data resulting 
# from the CCDC's data processing and validation procedures.
#
#######################################################################

data_DIHNOY
_chemical_formula_moiety         'C14 H12 N2 O3'
_chemical_name_systematic        'O-(4-Nitrophenyl)acetophenone oxime'
_symmetry_cell_setting           monoclinic
_symmetry_space_group_name_H-M   'P 21/n'
_symmetry_Int_Tables_number      14
_space_group_name_Hall           '-P 2yn'
loop_
_symmetry_equiv_pos_site_id
_symmetry_equiv_pos_as_xyz
1 x,y,z
2 1/2-x,1/2+y,1/2-z
3 -x,-y,-z
4 1/2+x,1/2-y,1/2+z
_cell_length_a                   7.356(3)
_cell_length_b                   6.447(3)
_cell_length_c                   26.303(10)
_cell_angle_alpha                90
_cell_angle_beta                 91.214(7)
_cell_angle_gamma                90
_cell_volume                     1247.12
_exptl_crystal_colour            colorless
_exptl_crystal_description       Block
_chemical_melting_point          '81-84 deg.C'
_cell_formula_units_Z            4
loop_
_atom_site_label
_atom_site_type_symbol
_atom_site_fract_x
_atom_site_fract_y
_atom_site_fract_z
O1 O 0.1233(3) 0.2236(3) 0.07468(6)
C1 C 0.0584(3) 0.1671(4) 0.15545(9)
N1 N 0.1095(3) 0.3079(3) 0.12499(8)
C2 C 0.3034(3) 0.6177(4) -0.03510(9)
C3 C 0.1874(3) 0.3628(4) 0.04034(9)
C4 C 0.0314(3) 0.2338(4) 0.20871(9)
O2 O 0.4130(3) 0.9284(3) -0.06474(8)
C5 C 0.2518(3) 0.5587(4) 0.05268(10)
H1 H 0.2555 0.6036 0.0863
O3 O 0.3664(3) 0.6857(3) -0.11904(8)
C6 C 0.2424(3) 0.4211(4) -0.04755(10)
H2 H 0.2413 0.3756 -0.0811
N2 N 0.3645(3) 0.7514(4) -0.07557(9)
C7 C 0.3100(3) 0.6855(4) 0.01425(9)
H3 H 0.354 0.8174 0.0218
C8 C 0.1837(4) 0.2946(4) -0.00947(9)
H4 H 0.1412 0.1622 -0.0172
C9 C 0.0766(4) 0.1047(4) 0.24873(10)
H5 H 0.1243 -0.026 0.2423
C10 C -0.0425(4) 0.4271(4) 0.21905(11)
H6 H -0.0749 0.5159 0.1925
C11 C -0.0676(4) 0.4872(5) 0.26876(13)
H7 H -0.1183 0.6161 0.2757
C12 C 0.0227(5) -0.0541(4) 0.14132(11)
H8 H 0.0119 -0.0659 0.105
H9 H -0.0883 -0.0993 0.1564
H10 H 0.1214 -0.1391 0.1535
C13 C 0.0522(4) 0.1666(5) 0.29803(11)
H11 H 0.0837 0.078 0.3247
C14 C -0.0182(4) 0.3575(6) 0.30801(12)
H12 H -0.0328 0.3999 0.3415
loop_
_geom_bond_atom_site_label_1
_geom_bond_atom_site_label_2
_geom_bond_site_symmetry_1
_geom_bond_site_symmetry_2
O1 N1 1_555 1_555
C1 N1 1_555 1_555
C2 C6 1_555 1_555
C3 O1 1_555 1_555
C4 C1 1_555 1_555
O2 N2 1_555 1_555
C5 C3 1_555 1_555
H1 C5 1_555 1_555
O3 N2 1_555 1_555
C6 H2 1_555 1_555
N2 C2 1_555 1_555
C7 C2 1_555 1_555
H3 C7 1_555 1_555
C8 C3 1_555 1_555
H4 C8 1_555 1_555
C9 C4 1_555 1_555
H5 C9 1_555 1_555
C10 C4 1_555 1_555
H6 C10 1_555 1_555
C11 C10 1_555 1_555
H7 C11 1_555 1_555
C12 C1 1_555 1_555
H8 C12 1_555 1_555
H9 C12 1_555 1_555
H10 C12 1_555 1_555
C13 C9 1_555 1_555
H11 C13 1_555 1_555
C14 C11 1_555 1_555
H12 C14 1_555 1_555
C5 C7 1_555 1_555
C6 C8 1_555 1_555
C13 C14 1_555 1_555

#END
