
#######################################################################
#
#                 Cambridge Crystallographic Data Centre
#                                CCDC 
#
#######################################################################
#
# If this CIF has been generated from an entry in the Cambridge 
# Structural Database, then it will include bibliographic, chemical, 
# crystal, experimental, refinement or atomic coordinate data resulting 
# from the CCDC's data processing and validation procedures.
#
#######################################################################

data_DIHPOA
_chemical_formula_moiety         'C27 H48 O3 Si1'
_chemical_name_systematic        
14-Methoxy-1-methyl-11-(tri-isopropylsilyloxy)bicyclo(10.3.1)hexadeca-12,14-dien-16-one
_symmetry_cell_setting           triclinic
_symmetry_space_group_name_H-M   'P -1'
_symmetry_Int_Tables_number      2
_space_group_name_Hall           '-P 1'
loop_
_symmetry_equiv_pos_site_id
_symmetry_equiv_pos_as_xyz
1 x,y,z
2 -x,-y,-z
_cell_length_a                   11.714(2)
_cell_length_b                   12.064(2)
_cell_length_c                   12.691(3)
_cell_angle_alpha                117.10(3)
_cell_angle_beta                 112.07(3)
_cell_angle_gamma                95.88(3)
_cell_volume                     1395.83
_cell_formula_units_Z            2
loop_
_atom_site_label
_atom_site_type_symbol
_atom_site_fract_x
_atom_site_fract_y
_atom_site_fract_z
C1 C 0.87840(15) 0.34352(13) 0.53521(14)
H1 H 0.8773(15) 0.3494(15) 0.4614(16)
C2 C 1.02099(15) 0.38265(14) 0.63823(15)
H2 H 1.0647 0.4748 0.6762
H3 H 1.0639 0.3312 0.5916
C3 C 1.03805(15) 0.36274(14) 0.75391(15)
H4 H 0.9849 0.4033 0.7926
H5 H 1.0068 0.2690 0.7180
C4 C 1.18062(16) 0.42192(18) 0.86547(18)
H6 H 1.2359 0.3957 0.8241
H7 H 1.1893 0.3851 0.9208
C5 C 1.22973(16) 0.57351(18) 0.95667(17)
H8 H 1.3244 0.6052 1.0050
H9 H 1.2025 0.6103 0.9011
C6 C 1.17784(17) 0.62228(18) 1.05843(16)
H10 H 1.0857 0.5722 1.0118
H11 H 1.2219 0.6025 1.1261
C7 C 1.19386(18) 0.76960(18) 1.13044(16)
H12 H 1.2864 0.8200 1.1835
H13 H 1.1585 0.7885 1.1923
C8 C 1.12761(17) 0.81759(16) 1.03713(17)
H14 H 1.1310 0.9073 1.0917
H15 H 1.1766 0.8191 0.9906
C9 C 0.98486(16) 0.73203(15) 0.93223(16)
H16 H 0.9816 0.6426 0.8765
H17 H 0.9361 0.7292 0.9786
C10 C 0.91865(18) 0.78163(14) 0.84125(16)
H18 H 0.9821 0.8171 0.8232
H19 H 0.8914 0.8532 0.8892
C11 C 0.79809(17) 0.67409(15) 0.70491(17)
C12 C 0.7392(2) 0.7370(2) 0.6228(2)
H20 H 0.8038 0.7722 0.6068
H21 H 0.7127 0.8066 0.6727
H22 H 0.6649 0.6708 0.5382
C13 C 0.69580(16) 0.61807(17) 0.72922(17)
H23 H 0.6575 0.6736 0.7726
C14 C 0.65866(15) 0.49081(15) 0.69010(16)
O1 O 0.56578(11) 0.42960(12) 0.70618(13)
C15 C 0.5036(2) 0.5122(2) 0.7713(3)
H24 H 0.4409 0.4610 0.7774
H25 H 0.4602 0.5480 0.7199
H26 H 0.5681 0.5830 0.8601
C16 C 0.71801(14) 0.39903(14) 0.62471(14)
H27 H 0.6909 0.3123 0.6017
C17 C 0.81015(14) 0.43499(13) 0.59653(13)
C18 C 0.85053(16) 0.57165(14) 0.62778(15)
O2 O 0.92766(14) 0.60517(11) 0.59498(13)
O3 O 0.80858(10) 0.20999(9) 0.48577(9)
Si1 Si 0.74128(4) 0.08020(3) 0.32952(4)
C19 C 0.60532(18) 0.10157(16) 0.20800(16)
H28 H 0.5670 0.0186 0.1202
C20 C 0.49377(19) 0.1223(2) 0.2438(2)
H29 H 0.4641 0.0532 0.2550
H30 H 0.4228 0.1204 0.1726
H31 H 0.5252 0.2061 0.3261
C21 C 0.6540(2) 0.21125(19) 0.1883(2)
H32 H 0.7231 0.1971 0.1660
H33 H 0.6859 0.2957 0.2700
H34 H 0.5833 0.2090 0.1167
C22 C 0.86921(18) 0.05576(15) 0.27248(17)
H35 H 0.9107 0.1407 0.2886
C23 C 0.9784(2) 0.0233(2) 0.3548(3)
H36 H 1.0121 0.0867 0.4491
H37 H 1.0472 0.0265 0.3315
H38 H 0.9442 -0.0634 0.3353
C24 C 0.8137(3) -0.04588(19) 0.1208(2)
H39 H 0.7453 -0.0250 0.0700
H40 H 0.7792 -0.1326 0.1013
H41 H 0.8819 -0.0433 0.0967
C25 C 0.68234(18) -0.06130(16) 0.34410(17)
H42 H 0.7592 -0.0864 0.3762
C26 C 0.6351(3) -0.0270(2) 0.4479(2)
H43 H 0.6997 0.0498 0.5323
H44 H 0.6210 -0.0998 0.4592
H45 H 0.5547 -0.0094 0.4176
C27 C 0.58201(18) -0.18577(16) 0.20675(19)
H46 H 0.6147 -0.2055 0.1436
H47 H 0.5010 -0.1701 0.1739
H48 H 0.5681 -0.2590 0.2175
loop_
_geom_bond_atom_site_label_1
_geom_bond_atom_site_label_2
_geom_bond_site_symmetry_1
_geom_bond_site_symmetry_2
C1 H1 1_555 1_555
C2 C1 1_555 1_555
H2 C2 1_555 1_555
H3 C2 1_555 1_555
C3 C2 1_555 1_555
H4 C3 1_555 1_555
H5 C3 1_555 1_555
C4 C3 1_555 1_555
H6 C4 1_555 1_555
H7 C4 1_555 1_555
C5 C4 1_555 1_555
H8 C5 1_555 1_555
H9 C5 1_555 1_555
C6 C5 1_555 1_555
H10 C6 1_555 1_555
H11 C6 1_555 1_555
C7 C6 1_555 1_555
H12 C7 1_555 1_555
H13 C7 1_555 1_555
C8 C7 1_555 1_555
H14 C8 1_555 1_555
H15 C8 1_555 1_555
C9 C8 1_555 1_555
H16 C9 1_555 1_555
H17 C9 1_555 1_555
C10 C9 1_555 1_555
H18 C10 1_555 1_555
H19 C10 1_555 1_555
C11 C10 1_555 1_555
C12 C11 1_555 1_555
H20 C12 1_555 1_555
H21 C12 1_555 1_555
H22 C12 1_555 1_555
C13 C11 1_555 1_555
H23 C13 1_555 1_555
C14 C13 1_555 1_555
O1 C14 1_555 1_555
C15 O1 1_555 1_555
H24 C15 1_555 1_555
H25 C15 1_555 1_555
H26 C15 1_555 1_555
C16 C14 1_555 1_555
H27 C16 1_555 1_555
C17 C1 1_555 1_555
C18 C11 1_555 1_555
O2 C18 1_555 1_555
O3 C1 1_555 1_555
Si1 O3 1_555 1_555
C19 Si1 1_555 1_555
H28 C19 1_555 1_555
C20 C19 1_555 1_555
H29 C20 1_555 1_555
H30 C20 1_555 1_555
H31 C20 1_555 1_555
C21 C19 1_555 1_555
H32 C21 1_555 1_555
H33 C21 1_555 1_555
H34 C21 1_555 1_555
C22 Si1 1_555 1_555
H35 C22 1_555 1_555
C23 C22 1_555 1_555
H36 C23 1_555 1_555
H37 C23 1_555 1_555
H38 C23 1_555 1_555
C24 C22 1_555 1_555
H39 C24 1_555 1_555
H40 C24 1_555 1_555
H41 C24 1_555 1_555
C25 Si1 1_555 1_555
H42 C25 1_555 1_555
C26 C25 1_555 1_555
H43 C26 1_555 1_555
H44 C26 1_555 1_555
H45 C26 1_555 1_555
C27 C25 1_555 1_555
H46 C27 1_555 1_555
H47 C27 1_555 1_555
H48 C27 1_555 1_555
C16 C17 1_555 1_555
C17 C18 1_555 1_555

#END
