
#######################################################################
#
#                 Cambridge Crystallographic Data Centre
#                                CCDC 
#
#######################################################################
#
# If this CIF has been generated from an entry in the Cambridge 
# Structural Database, then it will include bibliographic, chemical, 
# crystal, experimental, refinement or atomic coordinate data resulting 
# from the CCDC's data processing and validation procedures.
#
#######################################################################

data_DIHQOD
_chemical_formula_moiety         'C15 H24 O3'
_chemical_name_systematic        
2a,4a-dihydroxy-3,6,6,7b-tetramethyldecahydro-4H-cyclobuta[e]inden-4-one
_symmetry_cell_setting           orthorhombic
_symmetry_space_group_name_H-M   'P 21 21 2'
_symmetry_Int_Tables_number      18
_space_group_name_Hall           'P 2 2ab'
loop_
_symmetry_equiv_pos_site_id
_symmetry_equiv_pos_as_xyz
1 x,y,z
2 1/2+x,1/2-y,-z
3 1/2-x,1/2+y,-z
4 -x,-y,z
_cell_length_a                   11.3606(3)
_cell_length_b                   13.5941(4)
_cell_length_c                   9.1502(2)
_cell_angle_alpha                90
_cell_angle_beta                 90
_cell_angle_gamma                90
_cell_volume                     1413.13
_exptl_crystal_colour            colorless
_exptl_crystal_description       prism
_cell_formula_units_Z            4
loop_
_atom_site_label
_atom_site_type_symbol
_atom_site_fract_x
_atom_site_fract_y
_atom_site_fract_z
O1 O 0.84226(11) 0.45688(8) 0.55926(14)
H1 H 0.8000 0.4126 0.5959
O2 O 0.73350(12) 0.83260(9) 0.70012(14)
H2 H 0.7249 0.8661 0.6237
O3 O 0.79035(12) 0.78141(9) 0.41876(14)
C1 C 0.88143(18) 0.60245(14) 0.3235(2)
H3 H 0.8105 0.6210 0.2693
H4 H 0.8976 0.5324 0.3084
H5 H 0.9483 0.6414 0.2885
C2 C 0.86264(15) 0.62201(12) 0.48582(19)
H6 H 0.9411 0.6152 0.5343
C3 C 0.81985(15) 0.72551(12) 0.5161(2)
C4 C 0.81843(15) 0.75757(12) 0.67510(19)
C5 C 0.94572(16) 0.79112(13) 0.71498(19)
H7 H 1.0027 0.7669 0.6414
H8 H 0.9504 0.8638 0.7186
C6 C 0.97289(15) 0.74684(13) 0.8660(2)
C7 C 1.10458(16) 0.73357(15) 0.8914(2)
H9 H 1.1432 0.7981 0.8916
H10 H 1.1378 0.6929 0.8132
H11 H 1.1174 0.7012 0.9858
C8 C 0.77947(15) 0.54730(12) 0.55944(18)
C9 C 0.65349(16) 0.54592(13) 0.4958(2)
H12 H 0.6468 0.5778 0.3988
H13 H 0.6167 0.4799 0.4952
C10 C 0.61312(15) 0.61171(13) 0.6239(2)
H14 H 0.5404 0.5883 0.6723
H15 H 0.6069 0.6822 0.5982
C11 C 0.72778(15) 0.58530(12) 0.7087(2)
C12 C 0.70657(19) 0.50238(14) 0.8173(2)
H16 H 0.7823 0.4769 0.8518
H17 H 0.6625 0.4494 0.7694
H18 H 0.6612 0.5274 0.9005
C13 C 0.79105(15) 0.67143(12) 0.78105(18)
H19 H 0.7369 0.6979 0.8577
C14 C 0.90791(17) 0.64758(13) 0.85721(19)
H20 H 0.9539 0.5993 0.7997
H21 H 0.8940 0.6205 0.9561
C15 C 0.92160(17) 0.81178(14) 0.9869(2)
H22 H 0.9324 0.7794 1.0817
H23 H 0.8374 0.8221 0.9691
H24 H 0.9622 0.8754 0.9874
loop_
_geom_bond_atom_site_label_1
_geom_bond_atom_site_label_2
_geom_bond_site_symmetry_1
_geom_bond_site_symmetry_2
O1 H1 1_555 1_555
O2 H2 1_555 1_555
O3 C3 1_555 1_555
C1 H3 1_555 1_555
H4 C1 1_555 1_555
H5 C1 1_555 1_555
C2 C1 1_555 1_555
H6 C2 1_555 1_555
C3 C2 1_555 1_555
C4 O2 1_555 1_555
C5 C4 1_555 1_555
H7 C5 1_555 1_555
H8 C5 1_555 1_555
C6 C5 1_555 1_555
C7 C6 1_555 1_555
H9 C7 1_555 1_555
H10 C7 1_555 1_555
H11 C7 1_555 1_555
C8 O1 1_555 1_555
C9 C8 1_555 1_555
H12 C9 1_555 1_555
H13 C9 1_555 1_555
C10 C9 1_555 1_555
H14 C10 1_555 1_555
H15 C10 1_555 1_555
C11 C8 1_555 1_555
C12 C11 1_555 1_555
H16 C12 1_555 1_555
H17 C12 1_555 1_555
H18 C12 1_555 1_555
C13 C4 1_555 1_555
H19 C13 1_555 1_555
C14 C6 1_555 1_555
H20 C14 1_555 1_555
H21 C14 1_555 1_555
C15 C6 1_555 1_555
H22 C15 1_555 1_555
H23 C15 1_555 1_555
H24 C15 1_555 1_555
C2 C8 1_555 1_555
C3 C4 1_555 1_555
C10 C11 1_555 1_555
C11 C13 1_555 1_555
C13 C14 1_555 1_555

#END
