
#######################################################################
#
#                 Cambridge Crystallographic Data Centre
#                                CCDC 
#
#######################################################################
#
# If this CIF has been generated from an entry in the Cambridge 
# Structural Database, then it will include bibliographic, chemical, 
# crystal, experimental, refinement or atomic coordinate data resulting 
# from the CCDC's data processing and validation procedures.
#
#######################################################################

data_DIHRAO
_chemical_formula_moiety         'C50 H38 N6 O10,C3 H6 O1'
_chemical_name_systematic        
'5,17-Di-p-tolyl-11,23-bis(methoxycarbonyl)-25,27-bis(benzyloxy)-2,8,14,20-tetraoxacalix(2)arene(2)triazine acetone solvate'
_symmetry_cell_setting           triclinic
_symmetry_space_group_name_H-M   'P -1'
_symmetry_Int_Tables_number      2
_space_group_name_Hall           '-P 1'
loop_
_symmetry_equiv_pos_site_id
_symmetry_equiv_pos_as_xyz
1 x,y,z
2 -x,-y,-z
_cell_length_a                   13.358(3)
_cell_length_b                   13.955(3)
_cell_length_c                   15.064(3)
_cell_angle_alpha                62.93(3)
_cell_angle_beta                 81.83(3)
_cell_angle_gamma                69.41(3)
_cell_volume                     2340.2
_exptl_crystal_colour            colorless
_exptl_crystal_description       'thin platelet'
_chemical_melting_point          '296-298 deg.C'
_cell_formula_units_Z            2
_exptl_crystal_recrystallization_method acetone/dichloromethane
loop_
_atom_site_label
_atom_site_type_symbol
_atom_site_fract_x
_atom_site_fract_y
_atom_site_fract_z
O1 O 1.0289(4) 0.2494(4) 0.0009(4)
O2 O 1.2457(4) 0.3886(4) 0.0833(4)
O3 O 0.7969(9) 0.1986(9) 0.2990(7)
O4 O 0.6838(7) 0.3750(8) 0.2618(6)
O5 O 0.9392(5) 0.4624(5) -0.1379(4)
N1 N 1.1340(5) 0.3276(5) 0.0363(4)
N2 N 1.3094(5) 0.2094(6) 0.0962(5)
N3 N 1.1992(5) 0.1417(5) 0.0445(4)
C1 C 1.2288(7) 0.3041(7) 0.0697(6)
C2 C 1.2917(7) 0.1309(7) 0.0798(5)
C3 C 1.1253(6) 0.2385(7) 0.0295(5)
C4 C 0.8976(6) 0.4334(7) -0.0472(6)
C5 C 0.9392(6) 0.3220(6) 0.0263(6)
C6 C 0.8999(8) 0.2797(8) 0.1170(6)
H1 H 0.9332 0.2048 0.1622
C7 C 0.8094(8) 0.3468(8) 0.1444(7)
C8 C 0.7663(6) 0.4561(8) 0.0746(7)
H2 H 0.7052 0.5032 0.0904
C9 C 1.1916(7) 0.5006(7) 0.0170(7)
C10 C 0.7629(10) 0.2980(12) 0.2425(8)
C11 C 0.6399(13) 0.3306(15) 0.3620(10)
H3 H 0.5836 0.3913 0.3704
H4 H 0.6955 0.2989 0.4111
H5 H 0.6120 0.2725 0.3700
C12 C 0.9574(12) 0.5618(11) -0.1944(9)
H6 H 1.0021 0.5731 -0.1569
H7 H 0.8899 0.6236 -0.2098
C13 C 1.0095(10) 0.5652(9) -0.2865(8)
C14 C 0.9492(12) 0.6133(14) -0.3693(13)
H8 H 0.8751 0.6397 -0.3657
C15 C 0.995(2) 0.6240(17) -0.4593(12)
H9 H 0.9534 0.6631 -0.5173
C16 C 1.105(2) 0.5760(19) -0.4628(15)
H10 H 1.1378 0.5662 -0.5181
C17 C 1.1561(15) 0.547(2) -0.3877(19)
H11 H 1.2295 0.5336 -0.3928
C18 C 1.1106(14) 0.5341(13) -0.2972(11)
H12 H 1.1550 0.5013 -0.2416
C19 C 1.3787(7) 0.0247(7) 0.1033(6)
C20 C 1.4795(7) 0.0110(7) 0.1289(6)
H13 H 1.4922 0.0709 0.1317
C21 C 1.5605(7) -0.0887(7) 0.1502(6)
H14 H 1.6280 -0.0968 0.1677
C22 C 1.5427(7) -0.1786(7) 0.1457(6)
C23 C 1.4462(8) -0.1661(7) 0.1211(7)
H15 H 1.4348 -0.2272 0.1192
C24 C 1.3642(7) -0.0691(7) 0.0989(6)
H16 H 1.2978 -0.0632 0.0807
C25 C 1.6342(8) -0.2886(8) 0.1724(8)
H17 H 1.6111 -0.3429 0.1658
H18 H 1.6576 -0.3179 0.2399
H19 H 1.6924 -0.2750 0.1283
O1A O 0.9711(4) 0.7506(4) -0.0009(4)
O2A O 0.7543(4) 0.6114(4) -0.0833(4)
O3A O 1.2031(9) 0.8014(9) -0.2990(7)
O4A O 1.3162(7) 0.6250(8) -0.2618(6)
O5A O 1.0608(5) 0.5376(5) 0.1379(4)
N1A N 0.8660(5) 0.6724(5) -0.0363(4)
N2A N 0.6906(5) 0.7906(6) -0.0962(5)
N3A N 0.8008(5) 0.8583(5) -0.0445(4)
C1A C 0.7712(7) 0.6959(7) -0.0697(6)
C2A C 0.7083(7) 0.8691(7) -0.0798(5)
C3A C 0.8747(6) 0.7615(7) -0.0295(5)
C4A C 1.1024(6) 0.5666(7) 0.0472(6)
C5A C 1.0608(6) 0.6780(6) -0.0263(6)
C6A C 1.1001(8) 0.7203(8) -0.1170(6)
H1A H 1.0668 0.7952 -0.1622
C7A C 1.1906(8) 0.6532(8) -0.1444(7)
C8A C 1.2337(6) 0.5439(8) -0.0746(7)
H2A H 1.2948 0.4968 -0.0904
C9A C 0.8084(7) 0.4994(7) -0.0170(7)
C10A C 1.2371(10) 0.7020(12) -0.2425(8)
C11A C 1.3601(13) 0.6694(15) -0.3620(10)
H3A H 1.4164 0.6087 -0.3704
H4A H 1.3045 0.7011 -0.4111
H5A H 1.3880 0.7275 -0.3700
C12A C 1.0426(12) 0.4382(11) 0.1944(9)
H6A H 0.9979 0.4269 0.1569
H7A H 1.1101 0.3764 0.2098
C13A C 0.9905(10) 0.4348(9) 0.2865(8)
C14A C 1.0508(12) 0.3867(14) 0.3693(13)
H8A H 1.1249 0.3603 0.3657
C15A C 1.005(2) 0.3760(17) 0.4593(12)
H9A H 1.0466 0.3369 0.5173
C16A C 0.895(2) 0.4240(19) 0.4628(15)
H10A H 0.8622 0.4338 0.5181
C17A C 0.8439(15) 0.453(2) 0.3877(19)
H11A H 0.7705 0.4664 0.3928
C18A C 0.8894(14) 0.4659(13) 0.2972(11)
H12A H 0.8450 0.4987 0.2416
C19A C 0.6213(7) 0.9753(7) -0.1033(6)
C20A C 0.5205(7) 0.9890(7) -0.1289(6)
H13A H 0.5078 0.9291 -0.1317
C21A C 0.4395(7) 1.0887(7) -0.1502(6)
H14A H 0.3720 1.0968 -0.1677
C22A C 0.4573(7) 1.1786(7) -0.1457(6)
C23A C 0.5538(8) 1.1661(7) -0.1211(7)
H15A H 0.5652 1.2272 -0.1192
C24A C 0.6358(7) 1.0691(7) -0.0989(6)
H16A H 0.7022 1.0632 -0.0807
C25A C 0.3658(8) 1.2886(8) -0.1724(8)
H17A H 0.3889 1.3429 -0.1658
H18A H 0.3424 1.3179 -0.2399
H19A H 0.3076 1.2750 -0.1283
O6 O 0.6989(4) -0.0585(5) 0.3508(4)
O7 O 0.4178(5) 0.2550(4) 0.3176(4)
O8 O 0.8639(6) -0.1203(9) 0.7267(7)
O9 O 0.8881(7) 0.0018(10) 0.5715(8)
O10 O 0.5625(7) -0.1816(7) 0.4841(6)
N4 N 0.5550(5) 0.0935(5) 0.3406(5)
N5 N 0.5242(5) 0.2608(5) 0.1896(5)
N6 N 0.6659(5) 0.0937(5) 0.2047(4)
C26 C 0.5033(7) 0.2002(7) 0.2801(6)
C27 C 0.6080(6) 0.2020(7) 0.1526(5)
C28 C 0.6377(6) 0.0487(6) 0.2962(6)
C29 C 0.6379(7) -0.1555(7) 0.5161(7)
C30 C 0.7002(7) -0.0936(7) 0.4544(6)
C31 C 0.7678(7) -0.0652(8) 0.4922(7)
H20 H 0.8098 -0.0227 0.4496
C32 C 0.7726(7) -0.1001(9) 0.5933(7)
C33 C 0.7113(7) -0.1623(8) 0.6544(7)
H21 H 0.7161 -0.1878 0.7229
C34 C 0.3575(7) 0.1879(7) 0.3835(6)
C35 C 0.8445(9) -0.0765(14) 0.6396(10)
C36 C 0.9610(13) 0.0379(19) 0.6081(14)
H22 H 0.9845 0.0945 0.5524
H23 H 1.0220 -0.0269 0.6421
H24 H 0.9233 0.0691 0.6531
C37 C 0.5880(15) -0.2391(19) 0.4381(16)
H25 H 0.6401 -0.3117 0.4779
H26 H 0.6224 -0.2011 0.3773
C38 C 0.4972(16) -0.2602(16) 0.4116(10)
C39 C 0.4084(19) -0.180(2) 0.3853(16)
H27 H 0.4004 -0.1147 0.3917
C40 C 0.325(2) -0.185(2) 0.3485(12)
H28 H 0.2660 -0.1206 0.3194
C41 C 0.328(2) -0.2822(19) 0.3545(16)
H29 H 0.2684 -0.2869 0.3340
C42 C 0.408(2) -0.3682(16) 0.3863(13)
H30 H 0.4073 -0.4376 0.3928
C43 C 0.5044(16) -0.3566(15) 0.4141(13)
H31 H 0.5682 -0.4171 0.4328
C44 C 0.6341(6) 0.2658(6) 0.0482(6)
C45 C 0.5647(7) 0.3711(6) -0.0110(6)
H32 H 0.4986 0.4003 0.0129
C46 C 0.5940(8) 0.4327(7) -0.1058(7)
H33 H 0.5476 0.5047 -0.1445
C47 C 0.6886(8) 0.3921(7) -0.1450(6)
C48 C 0.7551(7) 0.2834(7) -0.0863(6)
H34 H 0.8185 0.2519 -0.1123
C49 C 0.7292(7) 0.2220(7) 0.0091(6)
H35 H 0.7759 0.1503 0.0478
C50 C 0.7196(8) 0.4614(8) -0.2472(7)
H36 H 0.6638 0.5332 -0.2766
H37 H 0.7302 0.4216 -0.2874
H38 H 0.7847 0.4739 -0.2432
O6A O 0.3011(4) 0.0585(5) 0.6492(4)
O7A O 0.5822(5) -0.2550(4) 0.6824(4)
O8A O 0.1361(6) 0.1203(9) 0.2733(7)
O9A O 0.1119(7) -0.0018(10) 0.4285(8)
O10A O 0.4375(7) 0.1816(7) 0.5159(6)
N4A N 0.4450(5) -0.0935(5) 0.6594(5)
N5A N 0.4758(5) -0.2608(5) 0.8104(5)
N6A N 0.3341(5) -0.0937(5) 0.7953(4)
C26A C 0.4967(7) -0.2002(7) 0.7199(6)
C27A C 0.3920(6) -0.2020(7) 0.8474(5)
C28A C 0.3623(6) -0.0487(6) 0.7038(6)
C29A C 0.3621(7) 0.1555(7) 0.4839(7)
C30A C 0.2998(7) 0.0936(7) 0.5456(6)
C31A C 0.2322(7) 0.0652(8) 0.5078(7)
H20A H 0.1902 0.0227 0.5504
C32A C 0.2274(7) 0.1001(9) 0.4067(7)
C33A C 0.2887(7) 0.1623(8) 0.3456(7)
H21A H 0.2839 0.1878 0.2771
C34A C 0.6425(7) -0.1879(7) 0.6165(6)
C35A C 0.1555(9) 0.0765(14) 0.3604(10)
C36A C 0.0390(13) -0.0379(19) 0.3919(14)
H22A H 0.0155 -0.0945 0.4476
H23A H -0.0220 0.0269 0.3579
H24A H 0.0767 -0.0691 0.3469
C37A C 0.4120(15) 0.2391(19) 0.5619(16)
H25A H 0.3599 0.3117 0.5221
H26A H 0.3776 0.2011 0.6227
C38A C 0.5028(16) 0.2602(16) 0.5884(10)
C39A C 0.5916(19) 0.180(2) 0.6147(16)
H27A H 0.5996 0.1147 0.6083
C40A C 0.675(2) 0.185(2) 0.6515(12)
H28A H 0.7340 0.1206 0.6806
C41A C 0.672(2) 0.2822(19) 0.6455(16)
H29A H 0.7316 0.2869 0.6660
C42A C 0.592(2) 0.3682(16) 0.6137(13)
H30A H 0.5927 0.4376 0.6072
C43A C 0.4956(16) 0.3566(15) 0.5859(13)
H31A H 0.4318 0.4171 0.5672
C44A C 0.3659(6) -0.2658(6) 0.9518(6)
C45A C 0.4353(7) -0.3711(6) 1.0110(6)
H32A H 0.5014 -0.4003 0.9871
C46A C 0.4060(8) -0.4327(7) 1.1058(7)
H33A H 0.4524 -0.5047 1.1445
C47A C 0.3114(8) -0.3921(7) 1.1450(6)
C48A C 0.2449(7) -0.2834(7) 1.0863(6)
H34A H 0.1815 -0.2519 1.1123
C49A C 0.2708(7) -0.2220(7) 0.9909(6)
H35A H 0.2241 -0.1503 0.9522
C50A C 0.2804(8) -0.4614(8) 1.2472(7)
H36A H 0.3362 -0.5332 1.2766
H37A H 0.2698 -0.4216 1.2874
H38A H 0.2153 -0.4739 1.2432
O11 O 1.0337(19) 0.7873(16) -0.7355(12)
C51 C 0.9846(14) 0.9503(15) -0.8490(15)
H39 H 0.9463 1.0191 -0.9040
H40 H 1.0552 0.9194 -0.8694
H41 H 0.9896 0.9666 -0.7947
C52 C 0.930(4) 0.870(3) -0.818(3)
C53 C 0.9076(16) 0.7610(17) -0.7574(15)
H42 H 0.8420 0.7655 -0.7806
H43 H 0.9013 0.7471 -0.6886
H44 H 0.9652 0.6999 -0.7639
loop_
_geom_bond_atom_site_label_1
_geom_bond_atom_site_label_2
_geom_bond_site_symmetry_1
_geom_bond_site_symmetry_2
O1 C3 1_555 1_555
O2 C1 1_555 1_555
O3 C10 1_555 1_555
O4 C10 1_555 1_555
O5 C4 1_555 1_555
N1 C1 1_555 1_555
N2 C1 1_555 1_555
N3 C2 1_555 1_555
C2 N2 1_555 1_555
C3 N1 1_555 1_555
C4 C5 1_555 1_555
C5 O1 1_555 1_555
C6 C5 1_555 1_555
H1 C6 1_555 1_555
C7 C6 1_555 1_555
C8 C7 1_555 1_555
H2 C8 1_555 1_555
C9 O2 1_555 1_555
C10 C7 1_555 1_555
C11 O4 1_555 1_555
H3 C11 1_555 1_555
H4 C11 1_555 1_555
H5 C11 1_555 1_555
C12 O5 1_555 1_555
H6 C12 1_555 1_555
H7 C12 1_555 1_555
C13 C12 1_555 1_555
C14 C13 1_555 1_555
H8 C14 1_555 1_555
C15 C14 1_555 1_555
H9 C15 1_555 1_555
C16 C15 1_555 1_555
H10 C16 1_555 1_555
C17 C16 1_555 1_555
H11 C17 1_555 1_555
C18 C13 1_555 1_555
H12 C18 1_555 1_555
C19 C2 1_555 1_555
C20 C19 1_555 1_555
H13 C20 1_555 1_555
C21 C20 1_555 1_555
H14 C21 1_555 1_555
C22 C21 1_555 1_555
C23 C22 1_555 1_555
H15 C23 1_555 1_555
C24 C19 1_555 1_555
H16 C24 1_555 1_555
C25 C22 1_555 1_555
H17 C25 1_555 1_555
H18 C25 1_555 1_555
H19 C25 1_555 1_555
O6 C28 1_555 1_555
O7 C26 1_555 1_555
O8 C35 1_555 1_555
O9 C35 1_555 1_555
O10 C29 1_555 1_555
N4 C26 1_555 1_555
N5 C26 1_555 1_555
N6 C27 1_555 1_555
C27 N5 1_555 1_555
C28 N4 1_555 1_555
C29 C30 1_555 1_555
C30 O6 1_555 1_555
C31 C30 1_555 1_555
H20 C31 1_555 1_555
C32 C31 1_555 1_555
C33 C32 1_555 1_555
H21 C33 1_555 1_555
C34 O7 1_555 1_555
C35 C32 1_555 1_555
C36 O9 1_555 1_555
H22 C36 1_555 1_555
H23 C36 1_555 1_555
H24 C36 1_555 1_555
C37 O10 1_555 1_555
H25 C37 1_555 1_555
H26 C37 1_555 1_555
C38 C37 1_555 1_555
C39 C38 1_555 1_555
H27 C39 1_555 1_555
C40 C39 1_555 1_555
H28 C40 1_555 1_555
C41 C40 1_555 1_555
H29 C41 1_555 1_555
C42 C41 1_555 1_555
H30 C42 1_555 1_555
C43 C38 1_555 1_555
H31 C43 1_555 1_555
C44 C27 1_555 1_555
C45 C44 1_555 1_555
H32 C45 1_555 1_555
C46 C45 1_555 1_555
H33 C46 1_555 1_555
C47 C46 1_555 1_555
C48 C47 1_555 1_555
H34 C48 1_555 1_555
C49 C44 1_555 1_555
H35 C49 1_555 1_555
C50 C47 1_555 1_555
H36 C50 1_555 1_555
H37 C50 1_555 1_555
H38 C50 1_555 1_555
O11 C52 1_555 1_555
C51 H39 1_555 1_555
H40 C51 1_555 1_555
H41 C51 1_555 1_555
C52 C51 1_555 1_555
C53 C52 1_555 1_555
H42 C53 1_555 1_555
H43 C53 1_555 1_555
H44 C53 1_555 1_555
O1A C3A 1_555 1_555
O2A C1A 1_555 1_555
O3A C10A 1_555 1_555
O4A C10A 1_555 1_555
O5A C4A 1_555 1_555
N1A C1A 1_555 1_555
N2A C1A 1_555 1_555
N3A C2A 1_555 1_555
C2A N2A 1_555 1_555
C3A N1A 1_555 1_555
C4A C9 1_555 1_555
C5A O1A 1_555 1_555
C6A C5A 1_555 1_555
H1A C6A 1_555 1_555
C7A C6A 1_555 1_555
C8A C9 1_555 1_555
H2A C8A 1_555 1_555
C9A C4 1_555 1_555
C10A C7A 1_555 1_555
C11A O4A 1_555 1_555
H3A C11A 1_555 1_555
H4A C11A 1_555 1_555
H5A C11A 1_555 1_555
C12A O5A 1_555 1_555
H6A C12A 1_555 1_555
H7A C12A 1_555 1_555
C13A C12A 1_555 1_555
C14A C13A 1_555 1_555
H8A C14A 1_555 1_555
C15A C14A 1_555 1_555
H9A C15A 1_555 1_555
C16A C15A 1_555 1_555
H10A C16A 1_555 1_555
C17A C16A 1_555 1_555
H11A C17A 1_555 1_555
C18A C13A 1_555 1_555
H12A C18A 1_555 1_555
C19A C2A 1_555 1_555
C20A C19A 1_555 1_555
H13A C20A 1_555 1_555
C21A C20A 1_555 1_555
H14A C21A 1_555 1_555
C22A C21A 1_555 1_555
C23A C22A 1_555 1_555
H15A C23A 1_555 1_555
C24A C19A 1_555 1_555
H16A C24A 1_555 1_555
C25A C22A 1_555 1_555
H17A C25A 1_555 1_555
H18A C25A 1_555 1_555
H19A C25A 1_555 1_555
O6A C28A 1_555 1_555
O7A C26A 1_555 1_555
O8A C35A 1_555 1_555
O9A C35A 1_555 1_555
O10A C29A 1_555 1_555
N4A C26A 1_555 1_555
N5A C26A 1_555 1_555
N6A C27A 1_555 1_555
C27A N5A 1_555 1_555
C28A N4A 1_555 1_555
C29A C34 1_555 1_555
C30A O6A 1_555 1_555
C31A C30A 1_555 1_555
H20A C31A 1_555 1_555
C32A C31A 1_555 1_555
C33A C34 1_555 1_555
H21A C33A 1_555 1_555
C34A C29 1_555 1_555
C35A C32A 1_555 1_555
C36A O9A 1_555 1_555
H22A C36A 1_555 1_555
H23A C36A 1_555 1_555
H24A C36A 1_555 1_555
C37A O10A 1_555 1_555
H25A C37A 1_555 1_555
H26A C37A 1_555 1_555
C38A C37A 1_555 1_555
C39A C38A 1_555 1_555
H27A C39A 1_555 1_555
C40A C39A 1_555 1_555
H28A C40A 1_555 1_555
C41A C40A 1_555 1_555
H29A C41A 1_555 1_555
C42A C41A 1_555 1_555
H30A C42A 1_555 1_555
C43A C38A 1_555 1_555
H31A C43A 1_555 1_555
C44A C27A 1_555 1_555
C45A C44A 1_555 1_555
H32A C45A 1_555 1_555
C46A C45A 1_555 1_555
H33A C46A 1_555 1_555
C47A C46A 1_555 1_555
C48A C47A 1_555 1_555
H34A C48A 1_555 1_555
C49A C44A 1_555 1_555
H35A C49A 1_555 1_555
C50A C47A 1_555 1_555
H36A C50A 1_555 1_555
H37A C50A 1_555 1_555
H38A C50A 1_555 1_555
N3 C3 1_555 1_555
C8 C9A 1_555 1_555
C17 C18 1_555 1_555
C23 C24 1_555 1_555
N6 C28 1_555 1_555
C33 C34A 1_555 1_555
C42 C43 1_555 1_555
C48 C49 1_555 1_555
O2A C9A 1_555 1_555
N3A C3A 1_555 1_555
C4A C5A 1_555 1_555
C7A C8A 1_555 1_555
C17A C18A 1_555 1_555
C23A C24A 1_555 1_555
O7A C34A 1_555 1_555
N6A C28A 1_555 1_555
C29A C30A 1_555 1_555
C32A C33A 1_555 1_555
C42A C43A 1_555 1_555
C48A C49A 1_555 1_555

#END
