
#######################################################################
#
#                 Cambridge Crystallographic Data Centre
#                                CCDC 
#
#######################################################################
#
# If this CIF has been generated from an entry in the Cambridge 
# Structural Database, then it will include bibliographic, chemical, 
# crystal, experimental, refinement or atomic coordinate data resulting 
# from the CCDC's data processing and validation procedures.
#
#######################################################################

data_DIHRAQ
_chemical_formula_moiety         'C34 H26 N2'
_chemical_name_systematic        
2-[4'-(diphenylamino)[1,1'-biphenyl]-4-yl]-3-(2-methylphenyl)prop-2-enenitrile
_symmetry_cell_setting           monoclinic
_symmetry_space_group_name_H-M   'P 21/c'
_symmetry_Int_Tables_number      14
_space_group_name_Hall           '-P 2ybc'
loop_
_symmetry_equiv_pos_site_id
_symmetry_equiv_pos_as_xyz
1 x,y,z
2 -x,1/2+y,1/2-z
3 -x,-y,-z
4 x,1/2-y,1/2+z
_cell_length_a                   18.53(2)
_cell_length_b                   9.960(15)
_cell_length_c                   14.809(18)
_cell_angle_alpha                90
_cell_angle_beta                 108.10(4)
_cell_angle_gamma                90
_cell_volume                     2597.88
_exptl_crystal_colour            colorless
_exptl_crystal_description       Block
_cell_formula_units_Z            4
loop_
_atom_site_label
_atom_site_type_symbol
_atom_site_fract_x
_atom_site_fract_y
_atom_site_fract_z
N1 N 0.1282(3) 0.3902(7) -0.2351(4)
N2 N 0.3965(6) 0.5214(9) 0.5587(5)
C1 C 0.1258(3) 0.4702(5) -0.3190(3)
C2 C 0.0779(3) 0.5803(6) -0.3462(4)
H1 H 0.0478 0.6069 -0.3095
C3 C 0.0750(3) 0.6508(5) -0.4283(4)
H2 H 0.0429 0.7245 -0.4465
C4 C 0.1200(4) 0.6111(6) -0.4831(3)
H3 H 0.1180 0.6583 -0.5380
C5 C 0.1679(3) 0.5010(7) -0.4559(4)
H4 H 0.1980 0.4744 -0.4926
C6 C 0.1708(3) 0.4305(5) -0.3738(4)
H5 H 0.2028 0.3568 -0.3556
C7 C 0.1087(3) 0.2509(5) -0.2531(4)
C8 C 0.0425(3) 0.2187(7) -0.3253(4)
H6 H 0.0113 0.2866 -0.3593
C9 C 0.0231(3) 0.0850(8) -0.3465(4)
H7 H -0.0212 0.0634 -0.3947
C10 C 0.0697(4) -0.0165(5) -0.2956(5)
H8 H 0.0566 -0.1060 -0.3098
C11 C 0.1358(4) 0.0157(6) -0.2235(4)
H9 H 0.1670 -0.0522 -0.1894
C12 C 0.1553(3) 0.1494(7) -0.2023(3)
H10 H 0.1996 0.1709 -0.1540
C13 C 0.1578(2) 0.4472(5) -0.1412(2)
C14 C 0.1466(2) 0.3816(4) -0.0638(3)
H11 H 0.1160 0.3056 -0.0732
C15 C 0.1809(3) 0.4298(5) 0.0276(3)
H12 H 0.1734 0.3859 0.0793
C16 C 0.2266(3) 0.5435(5) 0.0416(2)
C17 C 0.2379(2) 0.6090(4) -0.0358(3)
H13 H 0.2684 0.6851 -0.0264
C18 C 0.2035(3) 0.5609(5) -0.1272(3)
H14 H 0.2110 0.6048 -0.1790
C19 C 0.2751(3) 0.5822(5) 0.1443(2)
C20 C 0.3026(3) 0.4817(4) 0.2113(4)
H15 H 0.2920 0.3921 0.1946
C21 C 0.3459(3) 0.5150(5) 0.3034(3)
H16 H 0.3643 0.4478 0.3482
C22 C 0.3617(2) 0.6488(5) 0.3284(2)
C23 C 0.3342(3) 0.7493(4) 0.2614(3)
H17 H 0.3448 0.8389 0.2781
C24 C 0.2909(3) 0.7160(4) 0.1693(3)
H18 H 0.2725 0.7832 0.1245
C25 C 0.4115(4) 0.6859(8) 0.4282(5)
C26 C 0.4038(5) 0.5926(10) 0.5019(6)
C27 C 0.4614(4) 0.7865(8) 0.4507(5)
H19 H 0.4651 0.8399 0.4008
C28 C 0.5120(3) 0.8225(5) 0.5473(3)
C29 C 0.4806(2) 0.8362(5) 0.6208(4)
H20 H 0.4287 0.8254 0.6089
C30 C 0.5270(3) 0.8663(6) 0.7121(3)
H21 H 0.5060 0.8755 0.7612
C31 C 0.6047(3) 0.8825(6) 0.7299(3)
H22 H 0.6357 0.9026 0.7909
C32 C 0.6360(2) 0.8687(5) 0.6564(4)
H23 H 0.6880 0.8796 0.6683
C33 C 0.5897(3) 0.8387(5) 0.5651(3)
C34 C 0.6259(5) 0.8224(8) 0.4857(6)
H24 H 0.6800 0.8321 0.5117
H25 H 0.6063 0.8899 0.4381
H26 H 0.6141 0.7351 0.4576
loop_
_geom_bond_atom_site_label_1
_geom_bond_atom_site_label_2
_geom_bond_site_symmetry_1
_geom_bond_site_symmetry_2
N1 C1 1_555 1_555
N2 C26 1_555 1_555
C1 C2 1_555 1_555
C2 H1 1_555 1_555
C3 C2 1_555 1_555
H2 C3 1_555 1_555
C4 C3 1_555 1_555
H3 C4 1_555 1_555
C5 C4 1_555 1_555
H4 C5 1_555 1_555
C6 C1 1_555 1_555
H5 C6 1_555 1_555
C7 N1 1_555 1_555
C8 C7 1_555 1_555
H6 C8 1_555 1_555
C9 C8 1_555 1_555
H7 C9 1_555 1_555
C10 C9 1_555 1_555
H8 C10 1_555 1_555
C11 C10 1_555 1_555
H9 C11 1_555 1_555
C12 C7 1_555 1_555
H10 C12 1_555 1_555
C13 N1 1_555 1_555
C14 C13 1_555 1_555
H11 C14 1_555 1_555
C15 C14 1_555 1_555
H12 C15 1_555 1_555
C16 C15 1_555 1_555
C17 C16 1_555 1_555
H13 C17 1_555 1_555
C18 C13 1_555 1_555
H14 C18 1_555 1_555
C19 C16 1_555 1_555
C20 C19 1_555 1_555
H15 C20 1_555 1_555
C21 C20 1_555 1_555
H16 C21 1_555 1_555
C22 C21 1_555 1_555
C23 C22 1_555 1_555
H17 C23 1_555 1_555
C24 C19 1_555 1_555
H18 C24 1_555 1_555
C25 C22 1_555 1_555
C26 C25 1_555 1_555
C27 C25 1_555 1_555
H19 C27 1_555 1_555
C28 C27 1_555 1_555
C29 C28 1_555 1_555
H20 C29 1_555 1_555
C30 C29 1_555 1_555
H21 C30 1_555 1_555
C31 C30 1_555 1_555
H22 C31 1_555 1_555
C32 C31 1_555 1_555
H23 C32 1_555 1_555
C33 C28 1_555 1_555
C34 C33 1_555 1_555
H24 C34 1_555 1_555
H25 C34 1_555 1_555
H26 C34 1_555 1_555
C5 C6 1_555 1_555
C11 C12 1_555 1_555
C17 C18 1_555 1_555
C23 C24 1_555 1_555
C32 C33 1_555 1_555

#END
