
#######################################################################
#
#                 Cambridge Crystallographic Data Centre
#                                CCDC 
#
#######################################################################
#
# If this CIF has been generated from an entry in the Cambridge 
# Structural Database, then it will include bibliographic, chemical, 
# crystal, experimental, refinement or atomic coordinate data resulting 
# from the CCDC's data processing and validation procedures.
#
#######################################################################

data_DIHVIC
_chemical_formula_moiety         'C29 H28 N4 O4'
_chemical_name_systematic        
"diethyl 2,2'-[(4-{2-[4-(dicyanomethylidene)-1-methyl-1,4-dihydroquinolin-2-yl]ethenyl}phenyl)azanediyl]diacetate"
_symmetry_cell_setting           triclinic
_symmetry_space_group_name_H-M   'P -1'
_symmetry_Int_Tables_number      2
_space_group_name_Hall           '-P 1'
loop_
_symmetry_equiv_pos_site_id
_symmetry_equiv_pos_as_xyz
1 x,y,z
2 -x,-y,-z
_cell_length_a                   8.358(2)
_cell_length_b                   9.923(2)
_cell_length_c                   17.348(4)
_cell_angle_alpha                105.023(3)
_cell_angle_beta                 93.779(3)
_cell_angle_gamma                109.005(3)
_cell_volume                     1295.94
_cell_formula_units_Z            2
loop_
_atom_site_label
_atom_site_type_symbol
_atom_site_fract_x
_atom_site_fract_y
_atom_site_fract_z
C1 C 0.2345(2) 0.1241(2) 0.60427(12)
H1 H 0.2120 0.1640 0.6553
C2 C 0.1557(2) -0.0301(2) 0.56720(12)
C3 C 0.3126(2) 0.0146(2) 0.45473(12)
C4 C 0.3428(2) 0.2196(2) 0.56981(12)
C5 C 0.1996(2) -0.0865(2) 0.48890(12)
C6 C 0.4201(3) 0.3794(2) 0.61427(13)
H2 H 0.5355 0.4295 0.6143
C7 C 0.1389(3) -0.2390(2) 0.44490(14)
H3 H 0.0666 -0.3077 0.4665
C8 C 0.0454(3) -0.1158(2) 0.60922(13)
C9 C 0.3942(3) 0.6083(2) 0.70625(13)
C10 C 0.3311(3) 0.4542(2) 0.65412(13)
H4 H 0.2140 0.4024 0.6482
C11 C 0.3562(3) -0.0402(3) 0.37903(13)
H5 H 0.4299 0.0258 0.3564
C12 C 0.0261(3) -0.0444(2) 0.68831(15)
C13 C -0.0533(3) -0.2706(2) 0.58333(14)
C14 C 0.2818(3) 0.6839(2) 0.72600(15)
H6 H 0.1655 0.6344 0.7056
C15 C 0.1831(3) -0.2890(3) 0.37146(15)
H7 H 0.1402 -0.3904 0.3436
C16 C 0.2914(3) -0.1891(3) 0.33839(14)
H8 H 0.3204 -0.2237 0.2881
C17 C 0.4881(3) 0.2703(3) 0.45608(15)
H9 H 0.5930 0.2519 0.4496
H10 H 0.5138 0.3712 0.4889
H11 H 0.4268 0.2552 0.4040
C18 C 0.5083(3) 0.9070(2) 0.80847(13)
C19 C 0.5664(3) 0.6873(2) 0.73955(12)
H12 H 0.6458 0.6407 0.7276
C20 C 0.6228(3) 0.8314(2) 0.78945(13)
H13 H 0.7387 0.8798 0.8110
C21 C 0.3363(3) 0.8292(2) 0.77466(15)
H14 H 0.2569 0.8763 0.7852
C22 C 0.4159(3) 1.2284(3) 0.85521(15)
C23 C 0.4493(3) 1.1205(3) 0.89499(15)
H15 H 0.4975 1.1726 0.9515
H16 H 0.3412 1.0426 0.8927
C24 C 0.3374(7) 1.5413(4) 0.9136(3)
H17 H 0.3047 1.5429 0.9657
H18 H 0.2950 1.6053 0.8919
H19 H 0.4602 1.5758 0.9188
C25 C 0.2692(6) 1.3984(4) 0.8624(2)
H20 H 0.3066 1.3958 0.8105
H21 H 0.1450 1.3661 0.8538
C26 C 0.7443(3) 1.1434(2) 0.88107(15)
H22 H 0.7576 1.2461 0.8855
H23 H 0.8054 1.1107 0.8387
C27 C 0.8254(4) 1.1379(3) 0.96000(16)
C28 C 1.0730(6) 1.2563(5) 1.0618(3)
H24 H 1.0052 1.1829 1.0856
H25 H 1.1739 1.2330 1.0489
C29 C 1.1220(9) 1.3968(7) 1.1163(3)
H26 H 1.1455 1.4701 1.0876
H27 H 1.2234 1.4146 1.1526
H28 H 1.0313 1.4036 1.1465
N1 N 0.3815(2) 0.16644(17) 0.49576(10)
N2 N -0.1387(3) -0.3939(2) 0.56790(15)
N3 N 0.0126(3) 0.0125(3) 0.75318(15)
N4 N 0.5649(3) 1.0528(2) 0.85774(13)
O1 O 0.7664(3) 1.0459(3) 0.99209(15)
O2 O 0.4644(3) 1.2498(3) 0.79543(13)
O3 O 0.9721(3) 1.2495(2) 0.98786(13)
O4 O 0.3232(3) 1.2974(2) 0.89629(11)
loop_
_geom_bond_atom_site_label_1
_geom_bond_atom_site_label_2
_geom_bond_site_symmetry_1
_geom_bond_site_symmetry_2
C1 H1 1_555 1_555
C2 C1 1_555 1_555
C3 C5 1_555 1_555
C4 C1 1_555 1_555
C5 C2 1_555 1_555
C6 C4 1_555 1_555
H2 C6 1_555 1_555
C7 C5 1_555 1_555
H3 C7 1_555 1_555
C8 C2 1_555 1_555
C9 C10 1_555 1_555
C10 C6 1_555 1_555
H4 C10 1_555 1_555
C11 C3 1_555 1_555
H5 C11 1_555 1_555
C12 C8 1_555 1_555
C13 C8 1_555 1_555
C14 C9 1_555 1_555
H6 C14 1_555 1_555
C15 C7 1_555 1_555
H7 C15 1_555 1_555
C16 C11 1_555 1_555
H8 C16 1_555 1_555
C17 H9 1_555 1_555
H10 C17 1_555 1_555
H11 C17 1_555 1_555
C18 C20 1_555 1_555
C19 C9 1_555 1_555
H12 C19 1_555 1_555
C20 C19 1_555 1_555
H13 C20 1_555 1_555
C21 C14 1_555 1_555
H14 C21 1_555 1_555
C22 C23 1_555 1_555
C23 H15 1_555 1_555
H16 C23 1_555 1_555
C24 H17 1_555 1_555
H18 C24 1_555 1_555
H19 C24 1_555 1_555
C25 C24 1_555 1_555
H20 C25 1_555 1_555
H21 C25 1_555 1_555
C26 H22 1_555 1_555
H23 C26 1_555 1_555
C27 C26 1_555 1_555
C28 H24 1_555 1_555
H25 C28 1_555 1_555
C29 C28 1_555 1_555
H26 C29 1_555 1_555
H27 C29 1_555 1_555
H28 C29 1_555 1_555
N1 C3 1_555 1_555
N2 C13 1_555 1_555
N3 C12 1_555 1_555
N4 C18 1_555 1_555
O1 C27 1_555 1_555
O2 C22 1_555 1_555
O3 C27 1_555 1_555
O4 C22 1_555 1_555
C4 N1 1_555 1_555
C15 C16 1_555 1_555
C17 N1 1_555 1_555
C18 C21 1_555 1_555
C23 N4 1_555 1_555
C25 O4 1_555 1_555
C26 N4 1_555 1_555
C28 O3 1_555 1_555

#END
