
#######################################################################
#
#                 Cambridge Crystallographic Data Centre
#                                CCDC 
#
#######################################################################
#
# If this CIF has been generated from an entry in the Cambridge 
# Structural Database, then it will include bibliographic, chemical, 
# crystal, experimental, refinement or atomic coordinate data resulting 
# from the CCDC's data processing and validation procedures.
#
#######################################################################

data_DIHYAX
_chemical_formula_moiety         'C18 H21 N1 O6'
_chemical_name_systematic        
3-(3,4-dimethoxyphenyl)-3-(hydroxyimino)-2-(2-methoxyphenoxy)propan-1-ol
_symmetry_cell_setting           triclinic
_symmetry_space_group_name_H-M   'P -1'
_symmetry_Int_Tables_number      2
_space_group_name_Hall           '-P 1'
loop_
_symmetry_equiv_pos_site_id
_symmetry_equiv_pos_as_xyz
1 x,y,z
2 -x,-y,-z
_cell_length_a                   8.9121(4)
_cell_length_b                   10.6028(6)
_cell_length_c                   10.6070(6)
_cell_angle_alpha                107.362(2)
_cell_angle_beta                 95.433(2)
_cell_angle_gamma                110.176(2)
_cell_volume                     875.808
_exptl_crystal_colour            colorless
_exptl_crystal_description       block
_cell_formula_units_Z            2
loop_
_atom_site_label
_atom_site_type_symbol
_atom_site_fract_x
_atom_site_fract_y
_atom_site_fract_z
C1 C 0.12295(16) 0.70464(14) 0.65118(13)
C2 C 0.16426(19) 0.62038(16) 0.71621(15)
H1 H 0.2738 0.6354 0.7404
C3 C 0.0460(2) 0.51565(17) 0.74512(18)
C4 C -0.1194(2) 0.49245(16) 0.70961(17)
C5 C -0.16110(19) 0.57278(17) 0.64303(17)
H2 H -0.2709 0.5559 0.6167
C6 C -0.04095(18) 0.67906(17) 0.61456(15)
H3 H -0.0712 0.7333 0.5705
C7 C 0.25547(16) 0.81601(15) 0.62277(13)
C8 C 0.23625(15) 0.94763(15) 0.60560(13)
H4 H 0.3456 1.0243 0.6289
C9 C 0.15783(17) 0.91805(16) 0.46111(13)
H5 H 0.2038 0.8624 0.3985
H6 H 0.0408 0.8633 0.4432
C10 C 0.21180(16) 1.06446(14) 0.82905(13)
C11 C 0.11597(18) 1.11814(15) 0.91032(14)
C12 C 0.1757(2) 1.18491(17) 1.04858(15)
H7 H 0.1127 1.2202 1.1028
C13 C 0.3299(2) 1.19938(19) 1.10669(16)
H8 H 0.3694 1.2438 1.1999
C14 C 0.4243(2) 1.14866(18) 1.02753(17)
H9 H 0.5278 1.1596 1.0671
C15 C 0.36572(18) 1.08072(16) 0.88787(15)
H10 H 0.4300 1.0464 0.8344
C16 C -0.1282(2) 1.1648(2) 0.91604(18)
H11 H -0.1552 1.1261 0.9859
H12 H -0.2271 1.1459 0.8558
H13 H -0.0665 1.2666 0.9562
C17 C 0.2417(4) 0.4485(4) 0.8432(5)
H14 H 0.2843 0.4312 0.7627
H15 H 0.2481 0.3820 0.8860
H16 H 0.3049 0.5449 0.9044
C18 C -0.3925(3) 0.3751(2) 0.7285(3)
H17 H -0.3969 0.4652 0.7782
H18 H -0.4544 0.3026 0.7614
H19 H -0.4382 0.3483 0.6341
N1 N 0.38988(14) 0.79744(14) 0.61571(13)
O1 O 0.07738(19) 0.43006(17) 0.8087(2)
O2 O -0.22727(17) 0.38880(14) 0.74581(16)
O3 O 0.50757(13) 0.91306(13) 0.59480(14)
H20 H 0.5923 0.8992 0.5905
O4 O 0.18820(12) 1.05233(11) 0.44275(10)
H21 H 0.1203 1.0404 0.3779
O5 O 0.13996(11) 0.99897(11) 0.69318(9)
O6 O -0.03233(13) 1.09871(12) 0.84183(10)
loop_
_geom_bond_atom_site_label_1
_geom_bond_atom_site_label_2
_geom_bond_site_symmetry_1
_geom_bond_site_symmetry_2
C1 C2 1_555 1_555
C2 H1 1_555 1_555
C3 C2 1_555 1_555
C4 C3 1_555 1_555
C5 C4 1_555 1_555
H2 C5 1_555 1_555
C6 C1 1_555 1_555
H3 C6 1_555 1_555
C7 C1 1_555 1_555
C8 C7 1_555 1_555
H4 C8 1_555 1_555
C9 C8 1_555 1_555
H5 C9 1_555 1_555
H6 C9 1_555 1_555
C10 C11 1_555 1_555
C11 C12 1_555 1_555
C12 H7 1_555 1_555
C13 C12 1_555 1_555
H8 C13 1_555 1_555
C14 C13 1_555 1_555
H9 C14 1_555 1_555
C15 C10 1_555 1_555
H10 C15 1_555 1_555
C16 H11 1_555 1_555
H12 C16 1_555 1_555
H13 C16 1_555 1_555
C17 H14 1_555 1_555
H15 C17 1_555 1_555
H16 C17 1_555 1_555
C18 H17 1_555 1_555
H18 C18 1_555 1_555
H19 C18 1_555 1_555
N1 C7 1_555 1_555
O1 C3 1_555 1_555
O2 C4 1_555 1_555
O3 N1 1_555 1_555
H20 O3 1_555 1_555
O4 C9 1_555 1_555
H21 O4 1_555 1_555
O5 C8 1_555 1_555
O6 C11 1_555 1_555
C5 C6 1_555 1_555
C10 O5 1_555 1_555
C14 C15 1_555 1_555
C16 O6 1_555 1_555
C17 O1 1_555 1_555
C18 O2 1_555 1_555

#END
