
#######################################################################
#
#                 Cambridge Crystallographic Data Centre
#                                CCDC 
#
#######################################################################
#
# If this CIF has been generated from an entry in the Cambridge 
# Structural Database, then it will include bibliographic, chemical, 
# crystal, experimental, refinement or atomic coordinate data resulting 
# from the CCDC's data processing and validation procedures.
#
#######################################################################

data_DIJBOP
_chemical_formula_moiety         'C26 H24 N4 O2,2(C2 H6 O1)'
_chemical_name_systematic        
"2,2'-(3,6-bis(pyridin-2-yl)piperazine-2,5-diyl)diphenol ethanol solvate"
_symmetry_cell_setting           monoclinic
_symmetry_space_group_name_H-M   'P 21/n'
_symmetry_Int_Tables_number      14
_space_group_name_Hall           '-P 2yn'
loop_
_symmetry_equiv_pos_site_id
_symmetry_equiv_pos_as_xyz
1 x,y,z
2 1/2-x,1/2+y,1/2-z
3 -x,-y,-z
4 1/2+x,1/2-y,1/2+z
_cell_length_a                   11.9343(11)
_cell_length_b                   5.9347(5)
_cell_length_c                   20.2950(18)
_cell_angle_alpha                90
_cell_angle_beta                 97.229(7)
_cell_angle_gamma                90
_cell_volume                     1426
_exptl_crystal_colour            yellow
_exptl_crystal_description       block
_cell_formula_units_Z            2
loop_
_atom_site_label
_atom_site_type_symbol
_atom_site_fract_x
_atom_site_fract_y
_atom_site_fract_z
O1 O 0.7551(3) 0.2042(8) 0.5902(2)
H1 H 0.8046 0.2860 0.5788
C1 C 0.7882(8) 0.1264(18) 0.6551(4)
H2 H 0.7770 0.2456 0.6863
H3 H 0.8681 0.0905 0.6601
C2 C 0.7265(9) -0.0684(19) 0.6709(5)
H4 H 0.6498 -0.0269 0.6746
H5 H 0.7606 -0.1306 0.7123
H6 H 0.7276 -0.1786 0.6364
O2 O 1.1923(4) 0.1031(9) 0.4940(2)
H7 H 1.2208 0.0199 0.4684
N1 N 1.0268(5) 0.6301(13) 0.6641(4)
C3 C 1.0298(6) 0.3944(11) 0.5637(4)
N2 N 0.9165(4) 0.4836(7) 0.5445(2)
H8 H 0.8530 0.4499 0.5492
C4 C 1.1149(6) 0.5282(10) 0.5288(3)
H9 H 1.1108 0.6862 0.5422
C5 C 1.0556(6) 0.4364(19) 0.6374(5)
C6 C 1.3878(11) 0.1838(14) 0.5374(4)
H10 H 1.4116 0.0451 0.5230
C7 C 1.0513(7) 0.6540(15) 0.7305(6)
H11 H 1.0318 0.7892 0.7492
C8 C 1.1080(7) 0.2692(16) 0.6764(6)
H12 H 1.1273 0.1350 0.6570
C9 C 1.2743(9) 0.2439(19) 0.5258(3)
C10 C 1.4280(11) 0.533(2) 0.5915(3)
H13 H 1.4790 0.6323 0.6146
C11 C 1.3153(12) 0.5902(13) 0.5785(4)
H14 H 1.2925 0.7295 0.5930
C12 C 1.1025(7) 0.494(2) 0.7719(4)
H15 H 1.1167 0.5183 0.8175
C13 C 1.1322(6) 0.2977(18) 0.7438(7)
H16 H 1.1684 0.1844 0.7700
C14 C 1.4642(7) 0.330(3) 0.5703(4)
H17 H 1.5403 0.2920 0.5782
C15 C 1.2351(8) 0.4514(19) 0.5451(4)
O2B O 0.8077(4) 0.8969(9) 0.5060(2)
H7B H 0.7792 0.9801 0.5316
N1B N 0.9732(5) 0.3699(13) 0.3359(4)
C3B C 0.9702(6) 0.6056(11) 0.4363(4)
N2B N 1.0835(4) 0.5164(7) 0.4555(2)
H8B H 1.1470 0.5501 0.4508
C4B C 0.8851(6) 0.4718(10) 0.4712(3)
H9B H 0.8892 0.3138 0.4578
C5B C 0.9444(6) 0.5636(19) 0.3626(5)
C6B C 0.6122(11) 0.8162(14) 0.4626(4)
H10B H 0.5884 0.9549 0.4770
C7B C 0.9487(7) 0.3460(15) 0.2695(6)
H11B H 0.9682 0.2108 0.2508
C8B C 0.8920(7) 0.7308(16) 0.3236(6)
H12B H 0.8727 0.8650 0.3430
C9B C 0.7257(9) 0.7561(19) 0.4742(3)
C10B C 0.5720(11) 0.467(2) 0.4085(3)
H13B H 0.5210 0.3677 0.3854
C11B C 0.6847(12) 0.4098(13) 0.4215(4)
H14B H 0.7075 0.2705 0.4070
C12B C 0.8975(7) 0.506(2) 0.2281(4)
H15B H 0.8833 0.4817 0.1825
C13B C 0.8678(6) 0.7023(18) 0.2562(7)
H16B H 0.8316 0.8156 0.2300
C14B C 0.5358(7) 0.670(3) 0.4297(4)
H17B H 0.4597 0.7080 0.4218
C15B C 0.7649(8) 0.5486(19) 0.4549(4)
loop_
_geom_bond_atom_site_label_1
_geom_bond_atom_site_label_2
_geom_bond_site_symmetry_1
_geom_bond_site_symmetry_2
O1 H1 1_555 1_555
C1 O1 1_555 1_555
H2 C1 1_555 1_555
H3 C1 1_555 1_555
C2 C1 1_555 1_555
H4 C2 1_555 1_555
H5 C2 1_555 1_555
H6 C2 1_555 1_555
O2 H7 1_555 1_555
N1 C5 1_555 1_555
C3 N2 1_555 1_555
N2 H8 1_555 1_555
C4 C3 1_555 1_555
H9 C4 1_555 1_555
C5 C3 1_555 1_555
C6 H10 1_555 1_555
C7 N1 1_555 1_555
H11 C7 1_555 1_555
C8 C5 1_555 1_555
H12 C8 1_555 1_555
C9 O2 1_555 1_555
C10 H13 1_555 1_555
C11 C10 1_555 1_555
H14 C11 1_555 1_555
C12 C7 1_555 1_555
H15 C12 1_555 1_555
C13 C8 1_555 1_555
H16 C13 1_555 1_555
C14 C6 1_555 1_555
H17 C14 1_555 1_555
C15 C4 1_555 1_555
O2B H7B 1_555 1_555
N1B C5B 1_555 1_555
C3B N2B 1_555 1_555
N2B C4 1_555 1_555
H8B N2B 1_555 1_555
C4B N2 1_555 1_555
H9B C4B 1_555 1_555
C5B C3B 1_555 1_555
C6B H10B 1_555 1_555
C7B N1B 1_555 1_555
H11B C7B 1_555 1_555
C8B C5B 1_555 1_555
H12B C8B 1_555 1_555
C9B O2B 1_555 1_555
C10B H13B 1_555 1_555
C11B C10B 1_555 1_555
H14B C11B 1_555 1_555
C12B C7B 1_555 1_555
H15B C12B 1_555 1_555
C13B C8B 1_555 1_555
H16B C13B 1_555 1_555
C14B C6B 1_555 1_555
H17B C14B 1_555 1_555
C15B C4B 1_555 1_555
C6 C9 1_555 1_555
C9 C15 1_555 1_555
C10 C14 1_555 1_555
C11 C15 1_555 1_555
C12 C13 1_555 1_555
C3B C4B 1_555 1_555
C6B C9B 1_555 1_555
C9B C15B 1_555 1_555
C10B C14B 1_555 1_555
C11B C15B 1_555 1_555
C12B C13B 1_555 1_555

#END
