
#######################################################################
#
#                 Cambridge Crystallographic Data Centre
#                                CCDC 
#
#######################################################################
#
# If this CIF has been generated from an entry in the Cambridge 
# Structural Database, then it will include bibliographic, chemical, 
# crystal, experimental, refinement or atomic coordinate data resulting 
# from the CCDC's data processing and validation procedures.
#
#######################################################################

data_DIJDAE
_chemical_formula_moiety         'C12 H10 O3'
_chemical_name_systematic        2,3-dihydrofuro[3,2-d][1]benzoxepin-4(5H)-one
_symmetry_cell_setting           monoclinic
_symmetry_space_group_name_H-M   'P 21/c'
_symmetry_Int_Tables_number      14
_space_group_name_Hall           '-P 2ybc'
loop_
_symmetry_equiv_pos_site_id
_symmetry_equiv_pos_as_xyz
1 x,y,z
2 -x,1/2+y,1/2-z
3 -x,-y,-z
4 x,1/2-y,1/2+z
_cell_length_a                   9.5200(17)
_cell_length_b                   13.2012(20)
_cell_length_c                   8.3853(14)
_cell_angle_alpha                90
_cell_angle_beta                 112.716(19)
_cell_angle_gamma                90
_cell_volume                     972.081
_exptl_crystal_colour            grey
_exptl_crystal_description       parallelepiped
_cell_formula_units_Z            4
loop_
_atom_site_label
_atom_site_type_symbol
_atom_site_fract_x
_atom_site_fract_y
_atom_site_fract_z
O1 O 0.81044(17) 0.09253(11) -0.00872(19)
O2 O 0.88363(17) 0.40355(11) 0.12168(18)
O3 O 0.5833(2) 0.38528(14) -0.2780(2)
C1 C 0.6594(3) 0.06849(19) -0.1384(3)
H1 H 0.5969 0.0372 -0.0840
H2 H 0.6678 0.0220 -0.2239
C2 C 0.5896(2) 0.16740(18) -0.2225(3)
H3 H 0.5751 0.1687 -0.3435
H4 H 0.4926 0.1793 -0.2129
C3 C 0.7068(2) 0.24365(17) -0.1196(2)
C4 C 0.8276(2) 0.19493(16) -0.0031(2)
C5 C 0.9713(2) 0.22937(15) 0.1295(2)
C6 C 1.0883(2) 0.15950(17) 0.2103(3)
H5 H 1.0757 0.0923 0.1743
C7 C 1.2214(2) 0.1889(2) 0.3422(3)
H6 H 1.2983 0.1418 0.3940
C8 C 1.2406(3) 0.2886(2) 0.3977(3)
H7 H 1.3301 0.3084 0.4873
C9 C 1.1277(3) 0.35831(18) 0.3205(3)
H8 H 1.1408 0.4251 0.3588
C10 C 0.9944(2) 0.32999(16) 0.1861(2)
C11 C 0.8242(3) 0.41953(17) -0.0611(3)
H9 H 0.9055 0.4101 -0.1023
H10 H 0.7895 0.4891 -0.0849
C12 C 0.6944(3) 0.34996(18) -0.1602(3)
loop_
_geom_bond_atom_site_label_1
_geom_bond_atom_site_label_2
_geom_bond_site_symmetry_1
_geom_bond_site_symmetry_2
O1 C1 1_555 1_555
O2 C10 1_555 1_555
O3 C12 1_555 1_555
C1 H1 1_555 1_555
H2 C1 1_555 1_555
C2 C1 1_555 1_555
H3 C2 1_555 1_555
H4 C2 1_555 1_555
C3 C2 1_555 1_555
C4 O1 1_555 1_555
C5 C4 1_555 1_555
C6 C5 1_555 1_555
H5 C6 1_555 1_555
C7 C6 1_555 1_555
H6 C7 1_555 1_555
C8 C7 1_555 1_555
H7 C8 1_555 1_555
C9 C8 1_555 1_555
H8 C9 1_555 1_555
C10 C5 1_555 1_555
C11 O2 1_555 1_555
H9 C11 1_555 1_555
H10 C11 1_555 1_555
C12 C3 1_555 1_555
C3 C4 1_555 1_555
C9 C10 1_555 1_555
C11 C12 1_555 1_555

#END
