
#######################################################################
#
#                 Cambridge Crystallographic Data Centre
#                                CCDC 
#
#######################################################################
#
# If this CIF has been generated from an entry in the Cambridge 
# Structural Database, then it will include bibliographic, chemical, 
# crystal, experimental, refinement or atomic coordinate data resulting 
# from the CCDC's data processing and validation procedures.
#
#######################################################################

data_DIJKAL
_chemical_formula_moiety         'C25 H26 N2 O2'
_chemical_name_systematic        
2,6-bis{2-[4-(dimethylamino)phenyl]ethenyl}-4H-pyran-4-one
_symmetry_cell_setting           monoclinic
_symmetry_space_group_name_H-M   'P 21/n'
_symmetry_Int_Tables_number      14
_space_group_name_Hall           '-P 2yn'
loop_
_symmetry_equiv_pos_site_id
_symmetry_equiv_pos_as_xyz
1 x,y,z
2 1/2-x,1/2+y,1/2-z
3 -x,-y,-z
4 1/2+x,1/2-y,1/2+z
_cell_length_a                   7.8531(5)
_cell_length_b                   7.4811(4)
_cell_length_c                   34.767(2)
_cell_angle_alpha                90
_cell_angle_beta                 91.880(3)
_cell_angle_gamma                90
_cell_volume                     2041.46
_exptl_crystal_colour            'light orange'
_exptl_crystal_description       PLATE
_cell_formula_units_Z            4
loop_
_atom_site_label
_atom_site_type_symbol
_atom_site_fract_x
_atom_site_fract_y
_atom_site_fract_z
O1 O 0.3600(2) 0.5081(3) 0.12969(5)
O2 O 0.8625(3) 0.6407(4) 0.12664(6)
N1 N -0.2523(3) 0.1312(4) -0.05753(7)
N2 N -0.2786(3) 0.5420(4) 0.31954(7)
C1 C -0.4180(4) 0.0610(5) -0.04948(9)
H1 H -0.4056 -0.0418 -0.0321
H2 H -0.4756 0.0232 -0.0736
H3 H -0.4858 0.1537 -0.0372
C2 C -0.1452(4) 0.1861(4) -0.02776(8)
C3 C -0.2012(4) 0.1973(4) 0.01027(9)
H4 H -0.3145 0.1633 0.0157
C4 C -0.0935(4) 0.2568(4) 0.03962(8)
H5 H -0.1354 0.2634 0.0649
C5 C 0.0736(4) 0.3076(4) 0.03374(8)
C6 C 0.1795(4) 0.3746(4) 0.06550(8)
H6 H 0.1267 0.3866 0.0896
C7 C 0.3436(4) 0.4213(4) 0.06450(8)
H7 H 0.3979 0.4062 0.0407
C8 C 0.4465(4) 0.4926(4) 0.09621(8)
C9 C 0.4429(4) 0.5810(4) 0.16137(8)
C10 C 0.3362(4) 0.5921(4) 0.19469(8)
H8 H 0.3837 0.6465 0.2173
C11 C 0.1766(4) 0.5317(4) 0.19591(8)
H9 H 0.1301 0.4815 0.1728
C12 C 0.0651(4) 0.5337(4) 0.22867(8)
C13 C 0.1073(4) 0.6171(4) 0.26389(8)
H10 H 0.2147 0.6747 0.2671
C14 C -0.0035(4) 0.6172(4) 0.29387(8)
H11 H 0.0301 0.6728 0.3175
C15 C -0.1646(4) 0.5371(4) 0.29027(8)
C16 C -0.2267(5) 0.5982(5) 0.35787(9)
H12 H -0.1102 0.557 0.3637
H13 H -0.3039 0.5468 0.3765
H14 H -0.2307 0.7289 0.3594
C17 C -0.4538(4) 0.4854(5) 0.31351(10)
H15 H -0.496 0.5252 0.2881
H16 H -0.5239 0.5381 0.3334
H17 H -0.4601 0.3548 0.315
C18 C 0.6068(4) 0.6298(4) 0.16091(8)
H18 H 0.6583 0.6812 0.1834
C19 C 0.7080(4) 0.6066(4) 0.12721(8)
C20 C 0.6109(4) 0.5392(4) 0.09426(8)
H19 H 0.6655 0.5275 0.0704
C21 C -0.1876(4) 0.1044(5) -0.09597(8)
H20 H -0.1295 0.213 -0.1042
H21 H -0.2828 0.0778 -0.114
H22 H -0.1072 0.0042 -0.0955
C22 C 0.0239(4) 0.2361(4) -0.03394(8)
H23 H 0.0664 0.2299 -0.0592
C23 C 0.1296(4) 0.2940(4) -0.00400(8)
H24 H 0.2438 0.3256 -0.0091
C24 C -0.0937(4) 0.4513(4) 0.22560(8)
H25 H -0.1258 0.3927 0.2022
C25 C -0.2060(4) 0.4520(4) 0.25525(8)
H26 H -0.313 0.3938 0.2519
loop_
_geom_bond_atom_site_label_1
_geom_bond_atom_site_label_2
_geom_bond_site_symmetry_1
_geom_bond_site_symmetry_2
O1 C8 1_555 1_555
O2 C19 1_555 1_555
N1 C1 1_555 1_555
N2 C15 1_555 1_555
C1 H1 1_555 1_555
H2 C1 1_555 1_555
H3 C1 1_555 1_555
C2 N1 1_555 1_555
C3 C2 1_555 1_555
H4 C3 1_555 1_555
C4 C3 1_555 1_555
H5 C4 1_555 1_555
C5 C4 1_555 1_555
C6 C5 1_555 1_555
H6 C6 1_555 1_555
C7 C6 1_555 1_555
H7 C7 1_555 1_555
C8 C7 1_555 1_555
C9 O1 1_555 1_555
C10 C9 1_555 1_555
H8 C10 1_555 1_555
C11 C10 1_555 1_555
H9 C11 1_555 1_555
C12 C11 1_555 1_555
C13 C12 1_555 1_555
H10 C13 1_555 1_555
C14 C13 1_555 1_555
H11 C14 1_555 1_555
C15 C14 1_555 1_555
C16 N2 1_555 1_555
H12 C16 1_555 1_555
H13 C16 1_555 1_555
H14 C16 1_555 1_555
C17 N2 1_555 1_555
H15 C17 1_555 1_555
H16 C17 1_555 1_555
H17 C17 1_555 1_555
C18 C9 1_555 1_555
H18 C18 1_555 1_555
C19 C18 1_555 1_555
C20 C8 1_555 1_555
H19 C20 1_555 1_555
C21 N1 1_555 1_555
H20 C21 1_555 1_555
H21 C21 1_555 1_555
H22 C21 1_555 1_555
C22 C2 1_555 1_555
H23 C22 1_555 1_555
C23 C5 1_555 1_555
H24 C23 1_555 1_555
C24 C12 1_555 1_555
H25 C24 1_555 1_555
C25 C15 1_555 1_555
H26 C25 1_555 1_555
C19 C20 1_555 1_555
C22 C23 1_555 1_555
C24 C25 1_555 1_555

#END
