
#######################################################################
#
#                 Cambridge Crystallographic Data Centre
#                                CCDC 
#
#######################################################################
#
# If this CIF has been generated from an entry in the Cambridge 
# Structural Database, then it will include bibliographic, chemical, 
# crystal, experimental, refinement or atomic coordinate data resulting 
# from the CCDC's data processing and validation procedures.
#
#######################################################################

data_DIJMUF
_chemical_name_common            
'Tetraoxocalix[2]arene[2]triazine acetone solvate'
_chemical_formula_moiety         'C34 H20 Cl2 N6 O8,C3 H6 O1'
_chemical_name_systematic        
'5,17-Dichloro-11,23-bis(benzyloxycarbonyl)-4,6,16,18,26,28-hexa-aza-2,8,14,20-tetraoxacalix[4]arene acetone solvate'
_symmetry_cell_setting           monoclinic
_symmetry_space_group_name_H-M   'P 21/c'
_symmetry_Int_Tables_number      14
_space_group_name_Hall           '-P 2ybc'
loop_
_symmetry_equiv_pos_site_id
_symmetry_equiv_pos_as_xyz
1 x,y,z
2 -x,1/2+y,1/2-z
3 -x,-y,-z
4 x,1/2-y,1/2+z
_cell_length_a                   11.783(2)
_cell_length_b                   16.808(3)
_cell_length_c                   18.441(4)
_cell_angle_alpha                90
_cell_angle_beta                 93.81(3)
_cell_angle_gamma                90
_cell_volume                     3644.14
_exptl_crystal_colour            colorless
_exptl_crystal_description       block
_chemical_melting_point          '216-217 deg.C'
_cell_formula_units_Z            4
_exptl_crystal_recrystallization_method 'ethyl acetate/petroleum ether'
loop_
_atom_site_label
_atom_site_type_symbol
_atom_site_fract_x
_atom_site_fract_y
_atom_site_fract_z
Cl1 Cl 0.82024(11) 0.50518(9) 0.67759(6)
Cl2 Cl 0.44066(9) 0.92063(8) 1.15528(6)
N1 N 0.8599(2) 0.65782(17) 0.86695(13)
N2 N 0.8362(2) 0.6428(2) 0.73922(13)
N3 N 0.8451(3) 0.52835(19) 0.81564(16)
N4 N 0.7128(2) 0.81094(16) 1.04427(14)
N5 N 0.5762(2) 0.8042(2) 1.13265(15)
N6 N 0.5907(2) 0.92059(18) 1.06098(17)
O1 O 0.8654(2) 0.54541(14) 0.93630(11)
O2 O 0.69330(19) 0.70239(15) 1.11583(11)
O3 O 0.7200(2) 0.92497(14) 0.97779(14)
O4 O 0.85527(18) 0.76375(16) 0.78927(11)
O5 O 1.1868(2) 0.6985(2) 1.06711(15)
O6 O 1.1064(2) 0.74538(18) 1.16374(14)
O7 O 1.1444(2) 0.91122(16) 1.03224(14)
O8 O 1.20517(17) 0.85411(15) 0.93309(11)
C1 C 0.8506(2) 0.6851(2) 0.79953(16)
C2 C 0.8350(3) 0.5665(3) 0.75218(19)
C3 C 0.8563(3) 0.5796(2) 0.87021(16)
C4 C 0.7793(3) 0.6225(2) 1.02663(16)
H1 H 0.7080 0.6045 1.0092
C5 C 0.8756(3) 0.59818(19) 0.99586(15)
C6 C 0.9814(3) 0.62232(19) 1.02101(16)
H2 H 1.0458 0.6043 0.9995
C7 C 0.9909(3) 0.6746(2) 1.07976(16)
C8 C 0.8958(3) 0.7000(2) 1.11230(16)
H3 H 0.9017 0.7337 1.1524
C9 C 0.7910(3) 0.6739(2) 1.08364(16)
C10 C 0.6606(3) 0.7757(2) 1.09617(17)
C11 C 0.5478(3) 0.8766(3) 1.1110(2)
C12 C 0.6732(3) 0.8831(2) 1.02947(19)
C13 C 0.7876(3) 0.8447(2) 0.88345(19)
H4 H 0.7133 0.8381 0.8641
C14 C 0.8118(3) 0.8893(2) 0.9448(2)
C15 C 0.9191(3) 0.90057(19) 0.97386(18)
H5 H 0.9324 0.9306 1.0159
C16 C 1.0087(2) 0.86668(18) 0.94002(16)
C17 C 0.9882(3) 0.82133(19) 0.87799(15)
H6 H 1.0478 0.7988 0.8545
C18 C 0.8771(3) 0.8104(2) 0.85182(16)
C19 C 1.1052(3) 0.7057(2) 1.1022(2)
C20 C 1.2133(4) 0.7845(4) 1.1866(3)
H7 H 1.2456 0.8098 1.1454
H8 H 1.2675 0.7460 1.2073
C21 C 1.1869(3) 0.8455(3) 1.2422(2)
C22 C 1.2052(3) 0.8314(3) 1.3133(2)
H9 H 1.2351 0.7826 1.3287
C23 C 1.1814(4) 0.8861(5) 1.3627(3)
H10 H 1.1947 0.8751 1.4120
C24 C 1.1385(5) 0.9569(4) 1.3415(4)
H11 H 1.1197 0.9940 1.3761
C25 C 1.1225(4) 0.9743(3) 1.2711(4)
H12 H 1.0944 1.0240 1.2570
C26 C 1.1474(4) 0.9189(4) 1.2187(2)
H13 H 1.1377 0.9308 1.1694
C27 C 1.1248(3) 0.8801(2) 0.97457(19)
C28 C 1.3228(3) 0.8657(3) 0.9637(2)
H14 H 1.3432 0.9215 0.9626
H15 H 1.3304 0.8474 1.0137
C29 C 1.3969(3) 0.8190(2) 0.9188(2)
C30 C 1.4252(3) 0.8450(3) 0.8536(3)
H16 H 1.4020 0.8952 0.8376
C31 C 1.4898(4) 0.7970(5) 0.8090(3)
H17 H 1.5078 0.8146 0.7634
C32 C 1.5245(4) 0.7260(6) 0.8336(5)
H18 H 1.5651 0.6931 0.8041
C33 C 1.5014(6) 0.7005(4) 0.9015(5)
H19 H 1.5298 0.6521 0.9191
C34 C 1.4368(4) 0.7466(3) 0.9428(3)
H20 H 1.4192 0.7286 0.9884
O9 O 0.5959(8) 0.5301(7) 0.8849(11)
C35 C 0.6003(7) 0.4126(5) 0.8955(6)
H21 H 0.6674 0.4269 0.9249
H22 H 0.6212 0.3965 0.8482
H23 H 0.5624 0.3694 0.9179
C36 C 0.5339(11) 0.4720(6) 0.8892(12)
C37 C 0.4368(6) 0.4833(5) 0.8405(4)
H24 H 0.4162 0.5385 0.8394
H25 H 0.3746 0.4524 0.8565
H26 H 0.4538 0.4665 0.7927
loop_
_geom_bond_atom_site_label_1
_geom_bond_atom_site_label_2
_geom_bond_site_symmetry_1
_geom_bond_site_symmetry_2
Cl1 C2 1_555 1_555
Cl2 C11 1_555 1_555
N1 C1 1_555 1_555
N2 C1 1_555 1_555
N3 C2 1_555 1_555
N4 C10 1_555 1_555
N5 C10 1_555 1_555
N6 C11 1_555 1_555
O1 C3 1_555 1_555
O2 C9 1_555 1_555
O3 C12 1_555 1_555
O4 C1 1_555 1_555
O5 C19 1_555 1_555
O6 C19 1_555 1_555
O7 C27 1_555 1_555
O8 C27 1_555 1_555
O9 C36 1_555 1_555
C2 N2 1_555 1_555
C3 N1 1_555 1_555
C4 H1 1_555 1_555
C5 O1 1_555 1_555
C6 C5 1_555 1_555
H2 C6 1_555 1_555
C7 C6 1_555 1_555
C8 C7 1_555 1_555
H3 C8 1_555 1_555
C9 C4 1_555 1_555
C10 O2 1_555 1_555
C11 N5 1_555 1_555
C12 N4 1_555 1_555
C13 H4 1_555 1_555
C14 O3 1_555 1_555
C15 C14 1_555 1_555
H5 C15 1_555 1_555
C16 C15 1_555 1_555
C17 C16 1_555 1_555
H6 C17 1_555 1_555
C18 O4 1_555 1_555
C19 C7 1_555 1_555
C20 O6 1_555 1_555
H7 C20 1_555 1_555
H8 C20 1_555 1_555
C21 C20 1_555 1_555
C22 C21 1_555 1_555
H9 C22 1_555 1_555
C23 C22 1_555 1_555
H10 C23 1_555 1_555
C24 C23 1_555 1_555
H11 C24 1_555 1_555
C25 C24 1_555 1_555
H12 C25 1_555 1_555
C26 C21 1_555 1_555
H13 C26 1_555 1_555
C27 C16 1_555 1_555
C28 O8 1_555 1_555
H14 C28 1_555 1_555
H15 C28 1_555 1_555
C29 C28 1_555 1_555
C30 C29 1_555 1_555
H16 C30 1_555 1_555
C31 C30 1_555 1_555
H17 C31 1_555 1_555
C32 C31 1_555 1_555
H18 C32 1_555 1_555
C33 C32 1_555 1_555
H19 C33 1_555 1_555
C34 C29 1_555 1_555
H20 C34 1_555 1_555
C35 H21 1_555 1_555
H22 C35 1_555 1_555
H23 C35 1_555 1_555
C36 C35 1_555 1_555
C37 C36 1_555 1_555
H24 C37 1_555 1_555
H25 C37 1_555 1_555
H26 C37 1_555 1_555
N3 C3 1_555 1_555
N6 C12 1_555 1_555
C4 C5 1_555 1_555
C8 C9 1_555 1_555
C13 C14 1_555 1_555
C13 C18 1_555 1_555
C17 C18 1_555 1_555
C25 C26 1_555 1_555
C33 C34 1_555 1_555

#END
