
#######################################################################
#
#                 Cambridge Crystallographic Data Centre
#                                CCDC 
#
#######################################################################
#
# If this CIF has been generated from an entry in the Cambridge 
# Structural Database, then it will include bibliographic, chemical, 
# crystal, experimental, refinement or atomic coordinate data resulting 
# from the CCDC's data processing and validation procedures.
#
#######################################################################

data_DIJMOZ
_chemical_name_common            
'Dibenzyl 7,10,13,16,19,22,31,38,41,47-decaoxa-2,4,25,27,29,40,49,50-octaazahexacyclo[26.12.7.1$3,39!.1$26,30!.1$42,46!.0$32,37!]pentaconta-1,3(49),26(50),27,29,32,34,36,39,42(48),43,45-dodecaene-34,44-dicarboxylate monohydrate'
_chemical_formula_moiety         'C48 H50 N8 O14,H2 O1'
_chemical_name_systematic        
"11,23-bis(Benzyloxycarbonyl)-4,6,16,18,26,28-hexa-aza-2,8,14,20-tetraoxa-5,17-(1',22'-diaza-4',7',10',13',16',19'-hexa-oxa-docosane-1',22'-diyl)-calix[4]arene azacrown monohydrate"
_symmetry_cell_setting           monoclinic
_symmetry_space_group_name_H-M   'C 2/c'
_symmetry_Int_Tables_number      15
_space_group_name_Hall           '-C 2yn'
loop_
_symmetry_equiv_pos_site_id
_symmetry_equiv_pos_as_xyz
1 x,y,z
2 1/2+x,1/2+y,z
3 -x,y,1/2-z
4 1/2-x,1/2+y,1/2-z
5 -x,-y,-z
6 1/2-x,1/2-y,-z
7 x,-y,1/2+z
8 1/2+x,1/2-y,1/2+z
_cell_length_a                   24.154(5)
_cell_length_b                   13.507(3)
_cell_length_c                   18.307(4)
_cell_angle_alpha                90
_cell_angle_beta                 119.35(3)
_cell_angle_gamma                90
_cell_volume                     5205.99
_exptl_crystal_colour            colorless
_exptl_crystal_description       prism
_chemical_melting_point          '244-245 deg.C'
_cell_formula_units_Z            4
_exptl_crystal_recrystallization_method dichloromethane/ethanol
_exptl_crystal_preparation       fluorescent
loop_
_atom_site_label
_atom_site_type_symbol
_atom_site_fract_x
_atom_site_fract_y
_atom_site_fract_z
O1 O 0.1116(3) 0.4247(8) 0.1902(5)
O3 O 0.1156(3) 0.3947(8) 0.4421(5)
O4 O 0.0268(5) 0.7393(8) 0.0309(8)
O5 O -0.0778(6) 0.7208(10) -0.0238(9)
O6 O 0.2373(17) -0.004(2) 0.318(2)
O7 O 0.176(3) -0.145(9) 0.380(4)
O8 O 0.080(2) -0.283(4) 0.287(4)
N1 N 0.1065(4) 0.4122(8) 0.3125(6)
N2 N 0.1843(4) 0.3316(8) 0.2907(6)
N3 N 0.1874(4) 0.3203(7) 0.4217(5)
N4 N 0.2599(4) 0.2402(9) 0.3983(6)
H1 H 0.2794 0.2297 0.4515
C1 C 0.1353(5) 0.3875(11) 0.2701(8)
C2 C 0.2089(5) 0.2980(9) 0.3679(8)
C3 C 0.1375(5) 0.3755(9) 0.3887(7)
C4 C 0.0598(4) 0.4509(10) 0.4162(6)
C5 C 0.0020(5) 0.4126(9) 0.3652(7)
H2 H -0.0024 0.3509 0.3404
C6 C 0.0506(4) 0.4676(11) 0.1492(6)
C7 C 0.0451(5) 0.5568(10) 0.1137(7)
H3 H 0.0813 0.5920 0.1240
C8 C -0.0140(5) 0.5964(9) 0.0621(6)
C9 C 0.0686(5) 0.5416(12) 0.4532(7)
H4 H 0.1091 0.5667 0.4873
C10 C -0.0196(8) 0.6938(11) 0.0210(9)
C11 C -0.0889(10) 0.8077(19) -0.0767(16)
H5 H -0.1010 0.7876 -0.1335
H6 H -0.0507 0.8476 -0.0552
C12 C -0.1409(16) 0.865(3) -0.076(2)
C13 C -0.201(2) 0.863(10) -0.143(4)
H7 H -0.2075 0.8357 -0.1937
C14 C -0.2497(19) 0.902(12) -0.136(5)
H8 H -0.2906 0.9006 -0.1819
C15 C -0.239(2) 0.944(4) -0.063(4)
H9 H -0.2719 0.9533 -0.0508
C16 C -0.177(3) 0.970(4) -0.006(4)
H10 H -0.1690 1.0201 0.0332
C17 C -0.129(2) 0.923(9) -0.009(5)
H11 H -0.0876 0.9303 0.0347
C18 C 0.2870(6) 0.1913(15) 0.3482(11)
H12 H 0.2726 0.2275 0.2962
H13 H 0.3329 0.1962 0.3795
C19 C 0.2690(10) 0.0846(16) 0.3278(16)
H14 H 0.2635 0.0866 0.2717
H15 H 0.3115 0.0581 0.3612
C20 C 0.2173(8) -0.0948(11) 0.2803(11)
H16 H 0.2529 -0.1266 0.2790
H17 H 0.1847 -0.0841 0.2226
C21 C 0.1926(19) -0.163(2) 0.319(3)
H18 H 0.1546 -0.1904 0.2723
H19 H 0.2232 -0.2162 0.3404
C22 C 0.111(3) -0.153(5) 0.339(5)
H20 H 0.0963 -0.0876 0.3420
H21 H 0.1022 -0.1946 0.3751
C23 C 0.067(3) -0.187(6) 0.255(4)
H22 H 0.0236 -0.1666 0.2349
H23 H 0.0806 -0.1728 0.2140
C24 C 0.023(3) -0.312(4) 0.277(4)
H24 H 0.0297 -0.3800 0.2966
H25 H 0.0182 -0.2742 0.3184
O1B O -0.1116(3) 0.4247(8) 0.3098(5)
O3B O -0.1156(3) 0.3947(8) 0.0579(5)
O4B O -0.0268(5) 0.7393(8) 0.4691(8)
O5B O 0.0778(6) 0.7208(10) 0.5238(9)
O6B O -0.2373(17) -0.004(2) 0.182(2)
O7B O -0.176(3) -0.145(9) 0.120(4)
O8B O -0.080(2) -0.283(4) 0.213(4)
N1B N -0.1065(4) 0.4122(8) 0.1875(6)
N2B N -0.1843(4) 0.3316(8) 0.2093(6)
N3B N -0.1874(4) 0.3203(7) 0.0783(5)
N4B N -0.2599(4) 0.2402(9) 0.1017(6)
H1B H -0.2794 0.2297 0.0485
C1B C -0.1353(5) 0.3875(11) 0.2299(8)
C2B C -0.2089(5) 0.2980(9) 0.1321(8)
C3B C -0.1375(5) 0.3755(9) 0.1113(7)
C4B C -0.0598(4) 0.4509(10) 0.0838(6)
C5B C -0.0020(5) 0.4126(9) 0.1348(7)
H2B H 0.0024 0.3509 0.1596
C6B C -0.0506(4) 0.4676(11) 0.3508(6)
C7B C -0.0451(5) 0.5568(10) 0.3863(7)
H3B H -0.0813 0.5920 0.3760
C8B C 0.0140(5) 0.5964(9) 0.4379(6)
C9B C -0.0686(5) 0.5416(12) 0.0468(7)
H4B H -0.1091 0.5667 0.0127
C10B C 0.0196(8) 0.6938(11) 0.4790(9)
C11B C 0.0889(10) 0.8077(19) 0.5767(16)
H5B H 0.1010 0.7876 0.6335
H6B H 0.0507 0.8476 0.5552
C12B C 0.1409(16) 0.865(3) 0.576(2)
C13B C 0.201(2) 0.863(10) 0.643(4)
H7B H 0.2075 0.8357 0.6937
C14B C 0.2497(19) 0.902(12) 0.636(5)
H8B H 0.2906 0.9006 0.6819
C15B C 0.239(2) 0.944(4) 0.563(4)
H9B H 0.2719 0.9533 0.5508
C16B C 0.177(3) 0.970(4) 0.506(4)
H10B H 0.1690 1.0201 0.4668
C17B C 0.129(2) 0.923(9) 0.509(5)
H11B H 0.0876 0.9303 0.4653
C18B C -0.2870(6) 0.1913(15) 0.1518(11)
H12B H -0.2726 0.2275 0.2038
H13B H -0.3329 0.1962 0.1205
C19B C -0.2690(10) 0.0846(16) 0.1722(16)
H14B H -0.2635 0.0866 0.2283
H15B H -0.3115 0.0581 0.1388
C20B C -0.2173(8) -0.0948(11) 0.2197(11)
H16B H -0.2529 -0.1266 0.2210
H17B H -0.1847 -0.0841 0.2774
C21B C -0.1926(19) -0.163(2) 0.181(3)
H18B H -0.1546 -0.1904 0.2277
H19B H -0.2232 -0.2162 0.1596
C22B C -0.111(3) -0.153(5) 0.161(5)
H20B H -0.0963 -0.0876 0.1580
H21B H -0.1022 -0.1946 0.1249
C23B C -0.067(3) -0.187(6) 0.245(4)
H22B H -0.0236 -0.1666 0.2651
H23B H -0.0806 -0.1728 0.2860
C24B C -0.023(3) -0.312(4) 0.223(4)
H24B H -0.0297 -0.3800 0.2034
H25B H -0.0182 -0.2742 0.1816
O2 O 0.0000 0.149(6) 0.2500
loop_
_geom_bond_atom_site_label_1
_geom_bond_atom_site_label_2
_geom_bond_site_symmetry_1
_geom_bond_site_symmetry_2
O1 C1 1_555 1_555
O3 C3 1_555 1_555
O4 C10 1_555 1_555
O5 C10 1_555 1_555
O6 C19 1_555 1_555
O7 C21 1_555 1_555
O8 C23 1_555 1_555
N1 C1 1_555 1_555
N2 C1 1_555 1_555
N3 C2 1_555 1_555
N4 H1 1_555 1_555
C2 N2 1_555 1_555
C3 N1 1_555 1_555
C4 O3 1_555 1_555
C5 C4 1_555 1_555
H2 C5 1_555 1_555
C6 O1 1_555 1_555
C7 C6 1_555 1_555
H3 C7 1_555 1_555
C8 C7 1_555 1_555
C9 C4 1_555 1_555
H4 C9 1_555 1_555
C10 C8 1_555 1_555
C11 O5 1_555 1_555
H5 C11 1_555 1_555
H6 C11 1_555 1_555
C12 C11 1_555 1_555
C13 C12 1_555 1_555
H7 C13 1_555 1_555
C14 C13 1_555 1_555
H8 C14 1_555 1_555
C15 C14 1_555 1_555
H9 C15 1_555 1_555
C16 C15 1_555 1_555
H10 C16 1_555 1_555
C17 C12 1_555 1_555
H11 C17 1_555 1_555
C18 N4 1_555 1_555
H12 C18 1_555 1_555
H13 C18 1_555 1_555
C19 C18 1_555 1_555
H14 C19 1_555 1_555
H15 C19 1_555 1_555
C20 O6 1_555 1_555
H16 C20 1_555 1_555
H17 C20 1_555 1_555
C21 C20 1_555 1_555
H18 C21 1_555 1_555
H19 C21 1_555 1_555
C22 O7 1_555 1_555
H20 C22 1_555 1_555
H21 C22 1_555 1_555
C23 C22 1_555 1_555
H22 C23 1_555 1_555
H23 C23 1_555 1_555
C24 O8 1_555 1_555
H24 C24 1_555 1_555
H25 C24 1_555 1_555
O1B C1B 1_555 1_555
O3B C3B 1_555 1_555
O4B C10B 1_555 1_555
O5B C10B 1_555 1_555
O6B C19B 1_555 1_555
O7B C21B 1_555 1_555
O8B C23B 1_555 1_555
N1B C1B 1_555 1_555
N2B C1B 1_555 1_555
N3B C2B 1_555 1_555
N4B H1B 1_555 1_555
C2B N2B 1_555 1_555
C3B N1B 1_555 1_555
C4B O3B 1_555 1_555
C5B C6 1_555 1_555
H2B C5B 1_555 1_555
C6B C5 1_555 1_555
C7B C6B 1_555 1_555
H3B C7B 1_555 1_555
C8B C9 1_555 1_555
C9B C8 1_555 1_555
H4B C9B 1_555 1_555
C10B C8B 1_555 1_555
C11B O5B 1_555 1_555
H5B C11B 1_555 1_555
H6B C11B 1_555 1_555
C12B C11B 1_555 1_555
C13B C12B 1_555 1_555
H7B C13B 1_555 1_555
C14B C13B 1_555 1_555
H8B C14B 1_555 1_555
C15B C14B 1_555 1_555
H9B C15B 1_555 1_555
C16B C15B 1_555 1_555
H10B C16B 1_555 1_555
C17B C12B 1_555 1_555
H11B C17B 1_555 1_555
C18B N4B 1_555 1_555
H12B C18B 1_555 1_555
H13B C18B 1_555 1_555
C19B C18B 1_555 1_555
H14B C19B 1_555 1_555
H15B C19B 1_555 1_555
C20B O6B 1_555 1_555
H16B C20B 1_555 1_555
H17B C20B 1_555 1_555
C21B C20B 1_555 1_555
H18B C21B 1_555 1_555
H19B C21B 1_555 1_555
C22B O7B 1_555 1_555
H20B C22B 1_555 1_555
H21B C22B 1_555 1_555
C23B C22B 1_555 1_555
H22B C23B 1_555 1_555
H23B C23B 1_555 1_555
C24B C24 1_555 1_555
H24B C24B 1_555 1_555
H25B C24B 1_555 1_555
N3 C3 1_555 1_555
N4 C2 1_555 1_555
C16 C17 1_555 1_555
O1B C6B 1_555 1_555
O8B C24B 1_555 1_555
N3B C3B 1_555 1_555
N4B C2B 1_555 1_555
C4B C5B 1_555 1_555
C4B C9B 1_555 1_555
C7B C8B 1_555 1_555
C16B C17B 1_555 1_555

#END
