
#######################################################################
#
#                 Cambridge Crystallographic Data Centre
#                                CCDC 
#
#######################################################################
#
# If this CIF has been generated from an entry in the Cambridge 
# Structural Database, then it will include bibliographic, chemical, 
# crystal, experimental, refinement or atomic coordinate data resulting 
# from the CCDC's data processing and validation procedures.
#
#######################################################################

data_DIJNOA
_chemical_formula_moiety         'C12 H17 N1 O5'
_chemical_name_systematic        
'(1R*,2S*,3R*)-Methyl 1-cyano-3-(methoxycarbonyloxy)-2,3-dimethylcyclopentanecarboxylate'
_symmetry_cell_setting           orthorhombic
_symmetry_space_group_name_H-M   'P b c a'
_symmetry_Int_Tables_number      61
_space_group_name_Hall           '-P 2ac 2ab'
loop_
_symmetry_equiv_pos_site_id
_symmetry_equiv_pos_as_xyz
1 x,y,z
2 1/2-x,-y,1/2+z
3 -x,1/2+y,1/2-z
4 1/2+x,1/2-y,-z
5 -x,-y,-z
6 1/2+x,y,1/2-z
7 x,1/2-y,1/2+z
8 1/2-x,1/2+y,z
_cell_length_a                   7.3510(15)
_cell_length_b                   12.071(2)
_cell_length_c                   28.875(6)
_cell_angle_alpha                90
_cell_angle_beta                 90
_cell_angle_gamma                90
_cell_volume                     2562.19
_exptl_crystal_colour            colorless
_exptl_crystal_description       plate
_chemical_melting_point          '385-386 K'
_cell_formula_units_Z            8
_exptl_crystal_recrystallization_method 'ethyl acetate/hexanes'
loop_
_atom_site_label
_atom_site_type_symbol
_atom_site_fract_x
_atom_site_fract_y
_atom_site_fract_z
C1 C -0.00058(18) 0.92180(11) 0.39866(5)
C2 C 0.21088(19) 0.92139(13) 0.39869(5)
H1 H 0.2480 0.8556 0.4162
C3 C 0.26248(19) 0.89955(12) 0.34844(5)
C4 C 0.1226(2) 0.81519(12) 0.33373(5)
H2 H 0.1551 0.7421 0.3449
H3 H 0.1129 0.8126 0.3002
C5 C -0.05445(19) 0.85337(13) 0.35509(5)
H4 H -0.1288 0.7903 0.3638
H5 H -0.1222 0.8989 0.3334
C6 C -0.0743(2) 1.03382(14) 0.39535(5)
C7 C -0.0831(2) 0.87035(13) 0.44179(5)
C8 C -0.0879(3) 0.71225(17) 0.48891(7)
H6 H -0.1059 0.7601 0.5151
H7 H -0.0074 0.6530 0.4974
H8 H -0.2028 0.6822 0.4793
C9 C 0.3012(3) 1.01867(18) 0.42184(6)
H9 H 0.4306 1.0081 0.4218
H10 H 0.2586 1.0247 0.4532
H11 H 0.2720 1.0853 0.4053
C10 C 0.24815(19) 1.01307(12) 0.27981(5)
C11 C 0.2283(3) 1.14422(16) 0.22083(6)
H12 H 0.3483 1.1241 0.2108
H13 H 0.2113 1.2225 0.2169
H14 H 0.1398 1.1050 0.2027
C12 C 0.4588(2) 0.86724(17) 0.34231(7)
H15 H 0.4807 0.8489 0.3104
H16 H 0.4853 0.8042 0.3614
H17 H 0.5354 0.9280 0.3512
N1 N -0.1333(3) 1.11961(14) 0.39264(7)
O1 O -0.2050(2) 0.91002(12) 0.46287(5)
O2 O -0.00933(16) 0.77448(10) 0.45136(4)
O3 O 0.22575(13) 1.00497(8) 0.32532(3)
O4 O 0.29636(18) 0.94339(10) 0.25369(4)
O5 O 0.20640(15) 1.11599(8) 0.26870(3)
loop_
_geom_bond_atom_site_label_1
_geom_bond_atom_site_label_2
_geom_bond_site_symmetry_1
_geom_bond_site_symmetry_2
C1 C2 1_555 1_555
C2 H1 1_555 1_555
C3 C2 1_555 1_555
C4 C3 1_555 1_555
H2 C4 1_555 1_555
H3 C4 1_555 1_555
C5 C1 1_555 1_555
H4 C5 1_555 1_555
H5 C5 1_555 1_555
C6 C1 1_555 1_555
C7 C1 1_555 1_555
C8 H6 1_555 1_555
H7 C8 1_555 1_555
H8 C8 1_555 1_555
C9 C2 1_555 1_555
H9 C9 1_555 1_555
H10 C9 1_555 1_555
H11 C9 1_555 1_555
C10 O3 1_555 1_555
C11 H12 1_555 1_555
H13 C11 1_555 1_555
H14 C11 1_555 1_555
C12 C3 1_555 1_555
H15 C12 1_555 1_555
H16 C12 1_555 1_555
H17 C12 1_555 1_555
N1 C6 1_555 1_555
O1 C7 1_555 1_555
O2 C7 1_555 1_555
O3 C3 1_555 1_555
O4 C10 1_555 1_555
O5 C10 1_555 1_555
C4 C5 1_555 1_555
C8 O2 1_555 1_555
C11 O5 1_555 1_555

#END
