
#######################################################################
#
#                 Cambridge Crystallographic Data Centre
#                                CCDC 
#
#######################################################################
#
# If this CIF has been generated from an entry in the Cambridge 
# Structural Database, then it will include bibliographic, chemical, 
# crystal, experimental, refinement or atomic coordinate data resulting 
# from the CCDC's data processing and validation procedures.
#
#######################################################################

data_DIJNIU
_chemical_formula_moiety         'C20 H24 N2 O5'
_chemical_name_systematic        
'(1R*,2S*,3S*)-3-Cyano-1,2-dimethyl-3-pivaloylcyclopentyl 4-nitrobenzoate'
_symmetry_cell_setting           triclinic
_symmetry_space_group_name_H-M   'P -1'
_symmetry_Int_Tables_number      2
_space_group_name_Hall           '-P 1'
loop_
_symmetry_equiv_pos_site_id
_symmetry_equiv_pos_as_xyz
1 x,y,z
2 -x,-y,-z
_cell_length_a                   7.028(3)
_cell_length_b                   10.388(4)
_cell_length_c                   13.769(5)
_cell_angle_alpha                103.738(5)
_cell_angle_beta                 97.890(5)
_cell_angle_gamma                90.954(5)
_cell_volume                     965.962
_exptl_crystal_colour            colorless
_exptl_crystal_description       needle
_chemical_melting_point          '141-142.5 deg.C'
_cell_formula_units_Z            2
_exptl_crystal_recrystallization_method 'ethyl acetate/hexanes'
loop_
_atom_site_label
_atom_site_type_symbol
_atom_site_fract_x
_atom_site_fract_y
_atom_site_fract_z
C1 C 0.3336(3) 0.2250(2) 0.89366(19)
C2 C 0.3127(4) 0.1335(2) 0.78619(19)
H1 H 0.3637 0.0487 0.7939
C3 C 0.4546(4) 0.1946(2) 0.7333(2)
C4 C 0.6239(4) 0.2455(3) 0.8163(2)
H2 H 0.7217 0.1805 0.8133
H3 H 0.6805 0.3272 0.8077
C5 C 0.5499(4) 0.2698(4) 0.9162(2)
H4 H 0.5663 0.3632 0.9503
H5 H 0.6195 0.2194 0.9591
C6 C 0.2149(5) 0.3392(3) 0.8938(2)
C7 C 0.2856(4) 0.1492(2) 0.9725(2)
C8 C 0.2429(4) 0.2201(3) 1.0771(2)
C9 C 0.0266(5) 0.2409(3) 1.0665(3)
H6 H -0.0046 0.2991 1.0226
H7 H -0.0083 0.2796 1.1317
H8 H -0.0430 0.1570 1.0385
C10 C 0.2879(8) 0.1292(4) 1.1478(3)
H9 H 0.2194 0.0450 1.1194
H10 H 0.2494 0.1685 1.2121
H11 H 0.4236 0.1166 1.1566
C11 C 0.3506(6) 0.3543(4) 1.1200(2)
H12 H 0.4865 0.3431 1.1241
H13 H 0.3195 0.3921 1.1863
H14 H 0.3135 0.4124 1.0767
C12 C 0.1092(4) 0.1018(3) 0.7317(2)
H15 H 0.0480 0.1829 0.7283
H16 H 0.0386 0.0536 0.7678
H17 H 0.1120 0.0490 0.6646
C13 C 0.5031(5) 0.1005(3) 0.6379(2)
H18 H 0.3925 0.0852 0.5865
H19 H 0.5396 0.0177 0.6526
H20 H 0.6076 0.1392 0.6146
C14 C 0.4347(4) 0.3927(3) 0.66437(19)
C15 C 0.2973(4) 0.4931(2) 0.64152(18)
C16 C 0.1080(4) 0.4893(3) 0.65799(19)
H21 H 0.0632 0.4240 0.6864
C17 C -0.0150(4) 0.5820(3) 0.63251(19)
H22 H -0.1425 0.5802 0.6437
C18 C 0.0547(4) 0.6769(2) 0.59039(18)
C19 C 0.2419(4) 0.6840(3) 0.5738(2)
H23 H 0.2856 0.7497 0.5454
C20 C 0.3640(4) 0.5915(3) 0.6002(2)
H24 H 0.4919 0.5950 0.5901
N1 N 0.1230(6) 0.4275(3) 0.8920(2)
N2 N -0.0788(4) 0.7720(2) 0.55860(17)
O1 O 0.3517(2) 0.30613(16) 0.70543(13)
O2 O 0.5983(3) 0.3914(2) 0.64772(16)
O3 O -0.2427(4) 0.7688(2) 0.5777(2)
O4 O -0.0202(4) 0.8471(2) 0.51264(19)
O5 O 0.2845(4) 0.02972(18) 0.94837(17)
loop_
_geom_bond_atom_site_label_1
_geom_bond_atom_site_label_2
_geom_bond_site_symmetry_1
_geom_bond_site_symmetry_2
C1 C2 1_555 1_555
C2 H1 1_555 1_555
C3 C2 1_555 1_555
C4 C3 1_555 1_555
H2 C4 1_555 1_555
H3 C4 1_555 1_555
C5 C1 1_555 1_555
H4 C5 1_555 1_555
H5 C5 1_555 1_555
C6 C1 1_555 1_555
C7 C1 1_555 1_555
C8 C7 1_555 1_555
C9 C8 1_555 1_555
H6 C9 1_555 1_555
H7 C9 1_555 1_555
H8 C9 1_555 1_555
C10 C8 1_555 1_555
H9 C10 1_555 1_555
H10 C10 1_555 1_555
H11 C10 1_555 1_555
C11 C8 1_555 1_555
H12 C11 1_555 1_555
H13 C11 1_555 1_555
H14 C11 1_555 1_555
C12 C2 1_555 1_555
H15 C12 1_555 1_555
H16 C12 1_555 1_555
H17 C12 1_555 1_555
C13 C3 1_555 1_555
H18 C13 1_555 1_555
H19 C13 1_555 1_555
H20 C13 1_555 1_555
C14 C15 1_555 1_555
C15 C16 1_555 1_555
C16 H21 1_555 1_555
C17 C16 1_555 1_555
H22 C17 1_555 1_555
C18 C17 1_555 1_555
C19 C18 1_555 1_555
H23 C19 1_555 1_555
C20 C15 1_555 1_555
H24 C20 1_555 1_555
N1 C6 1_555 1_555
N2 C18 1_555 1_555
O1 C3 1_555 1_555
O2 C14 1_555 1_555
O3 N2 1_555 1_555
O4 N2 1_555 1_555
O5 C7 1_555 1_555
C4 C5 1_555 1_555
C14 O1 1_555 1_555
C19 C20 1_555 1_555

#END
