
#######################################################################
#
#                 Cambridge Crystallographic Data Centre
#                                CCDC 
#
#######################################################################
#
# If this CIF has been generated from an entry in the Cambridge 
# Structural Database, then it will include bibliographic, chemical, 
# crystal, experimental, refinement or atomic coordinate data resulting 
# from the CCDC's data processing and validation procedures.
#
#######################################################################

data_DIJTIA
_chemical_formula_moiety         'C32 H27 N1 O2'
_chemical_name_systematic        
4-(4-Methoxyphenyl)-3-((4-methoxyphenyl)methyl)-2,6-diphenylpyridine
_symmetry_cell_setting           triclinic
_symmetry_space_group_name_H-M   'P -1'
_symmetry_Int_Tables_number      2
_space_group_name_Hall           '-P 1'
loop_
_symmetry_equiv_pos_site_id
_symmetry_equiv_pos_as_xyz
1 x,y,z
2 -x,-y,-z
_cell_length_a                   9.801(5)
_cell_length_b                   10.929(5)
_cell_length_c                   12.488(5)
_cell_angle_alpha                103.630(5)
_cell_angle_beta                 100.620(5)
_cell_angle_gamma                95.390(5)
_cell_volume                     1264.43
_exptl_crystal_colour            colorless
_exptl_crystal_description       needle
_chemical_melting_point          '123-125 deg.C'
_cell_formula_units_Z            2
loop_
_atom_site_label
_atom_site_type_symbol
_atom_site_fract_x
_atom_site_fract_y
_atom_site_fract_z
C1 C 0.2751(4) 0.2446(3) 0.2282(3)
C2 C 0.2599(4) 0.2985(3) 0.3380(2)
C3 C 0.3651(4) 0.2871(3) 0.4268(2)
C4 C 0.4733(4) 0.2198(3) 0.4018(3)
C5 C 0.4810(4) 0.1692(3) 0.2899(3)
C6 C 0.5951(4) 0.0987(3) 0.2599(3)
C7 C 0.5812(5) 0.0186(3) 0.1535(3)
H1 H 0.4986 0.0102 0.1002
C8 C 0.6870(5) -0.0495(4) 0.1242(4)
H2 H 0.6756 -0.1013 0.0515
C9 C 0.8084(5) -0.0406(4) 0.2021(4)
H3 H 0.8789 -0.0874 0.1832
C10 C 0.8246(5) 0.0377(4) 0.3076(4)
H4 H 0.9064 0.0437 0.3611
C11 C 0.7209(5) 0.1080(4) 0.3357(3)
H5 H 0.7355 0.1631 0.4073
C12 C 0.1676(4) 0.2530(3) 0.1283(3)
C13 C 0.1945(5) 0.3396(4) 0.0679(3)
H6 H 0.2815 0.3902 0.0864
C14 C 0.0927(6) 0.3515(5) -0.0200(4)
H7 H 0.1108 0.4111 -0.0597
C15 C -0.0340(6) 0.2765(5) -0.0488(3)
H8 H -0.1028 0.2853 -0.1075
C16 C -0.0598(5) 0.1885(5) 0.0085(4)
H9 H -0.1459 0.1362 -0.0118
C17 C 0.0408(5) 0.1766(4) 0.0963(3)
H10 H 0.0224 0.1156 0.1346
C18 C 0.1323(4) 0.3600(3) 0.3583(3)
H11 H 0.119 0.3567 0.4327
H12 H 0.0513 0.3089 0.304
C19 C 0.1335(4) 0.4967(3) 0.3509(2)
C20 C 0.2454(4) 0.5682(3) 0.3330(3)
H13 H 0.3254 0.5317 0.3223
C21 C 0.2419(4) 0.6953(3) 0.3304(3)
H14 H 0.3187 0.7423 0.3177
C22 C 0.1250(4) 0.7500(3) 0.3467(3)
C23 C 0.0103(4) 0.6782(4) 0.3625(3)
H15 H -0.0706 0.714 0.3716
C24 C 0.0162(4) 0.5540(3) 0.3647(3)
H16 H -0.0614 0.5067 0.3759
C25 C 0.2268(5) 0.9527(4) 0.3382(5)
H17 H 0.2028 1.0362 0.3398
H18 H 0.254 0.918 0.2685
H19 H 0.3033 0.9579 0.4002
C26 C 0.3636(3) 0.3428(3) 0.5482(2)
C27 C 0.3775(4) 0.2681(3) 0.6252(3)
H20 H 0.3829 0.1819 0.6
C28 C 0.3835(4) 0.3203(4) 0.7376(3)
H21 H 0.391 0.2687 0.7873
C29 C 0.3785(4) 0.4480(3) 0.7776(3)
C30 C 0.3668(4) 0.5245(3) 0.7036(3)
H22 H 0.3637 0.611 0.7296
C31 C 0.3597(4) 0.4707(3) 0.5896(3)
H23 H 0.3522 0.5225 0.54
C32 C 0.3733(6) 0.6214(5) 0.9344(4)
H24 H 0.3802 0.6389 1.0144
H25 H 0.2841 0.6386 0.8991
H26 H 0.447 0.6745 0.919
N1 N 0.3815(3) 0.1822(2) 0.2036(2)
O1 O 0.1104(3) 0.8738(2) 0.3472(2)
O2 O 0.3859(3) 0.4910(3) 0.8908(2)
loop_
_geom_bond_atom_site_label_1
_geom_bond_atom_site_label_2
_geom_bond_site_symmetry_1
_geom_bond_site_symmetry_2
C1 C2 1_555 1_555
C2 C3 1_555 1_555
C3 C4 1_555 1_555
C4 C5 1_555 1_555
C5 C6 1_555 1_555
C6 C7 1_555 1_555
C7 H1 1_555 1_555
C8 C7 1_555 1_555
H2 C8 1_555 1_555
C9 C8 1_555 1_555
H3 C9 1_555 1_555
C10 C9 1_555 1_555
H4 C10 1_555 1_555
C11 C6 1_555 1_555
H5 C11 1_555 1_555
C12 C1 1_555 1_555
C13 C12 1_555 1_555
H6 C13 1_555 1_555
C14 C13 1_555 1_555
H7 C14 1_555 1_555
C15 C14 1_555 1_555
H8 C15 1_555 1_555
C16 C15 1_555 1_555
H9 C16 1_555 1_555
C17 C12 1_555 1_555
H10 C17 1_555 1_555
C18 C2 1_555 1_555
H11 C18 1_555 1_555
H12 C18 1_555 1_555
C19 C18 1_555 1_555
C20 C19 1_555 1_555
H13 C20 1_555 1_555
C21 C20 1_555 1_555
H14 C21 1_555 1_555
C22 C21 1_555 1_555
C23 C22 1_555 1_555
H15 C23 1_555 1_555
C24 C19 1_555 1_555
H16 C24 1_555 1_555
C25 H17 1_555 1_555
H18 C25 1_555 1_555
H19 C25 1_555 1_555
C26 C3 1_555 1_555
C27 C26 1_555 1_555
H20 C27 1_555 1_555
C28 C27 1_555 1_555
H21 C28 1_555 1_555
C29 C28 1_555 1_555
C30 C29 1_555 1_555
H22 C30 1_555 1_555
C31 C26 1_555 1_555
H23 C31 1_555 1_555
C32 H24 1_555 1_555
H25 C32 1_555 1_555
H26 C32 1_555 1_555
N1 C1 1_555 1_555
O1 C22 1_555 1_555
O2 C29 1_555 1_555
C5 N1 1_555 1_555
C10 C11 1_555 1_555
C16 C17 1_555 1_555
C23 C24 1_555 1_555
C25 O1 1_555 1_555
C30 C31 1_555 1_555
C32 O2 1_555 1_555

#END
