
#######################################################################
#
#                 Cambridge Crystallographic Data Centre
#                                CCDC 
#
#######################################################################
#
# If this CIF has been generated from an entry in the Cambridge 
# Structural Database, then it will include bibliographic, chemical, 
# crystal, experimental, refinement or atomic coordinate data resulting 
# from the CCDC's data processing and validation procedures.
#
#######################################################################

data_DIJVEY
_chemical_formula_moiety         'C76 H37 N1 O12'
_chemical_name_systematic        
43,46,51,54-tetrakis(t-Butylperoxy)-58-hydroxy-60-nitrato-C60fullerene
_symmetry_cell_setting           monoclinic
_symmetry_space_group_name_H-M   'P 21/c'
_symmetry_Int_Tables_number      14
_space_group_name_Hall           '-P 2ybc'
loop_
_symmetry_equiv_pos_site_id
_symmetry_equiv_pos_as_xyz
1 x,y,z
2 -x,1/2+y,1/2-z
3 -x,-y,-z
4 x,1/2-y,1/2+z
_cell_length_a                   18.928(4)
_cell_length_b                   14.323(3)
_cell_length_c                   19.360(4)
_cell_angle_alpha                90
_cell_angle_beta                 102.79(3)
_cell_angle_gamma                90
_cell_volume                     5118.38
_exptl_crystal_colour            red
_exptl_crystal_description       block
_cell_formula_units_Z            4
loop_
_atom_site_label
_atom_site_type_symbol
_atom_site_fract_x
_atom_site_fract_y
_atom_site_fract_z
O1 O 0.38511(11) 0.87913(14) 0.34354(10)
H1 H 0.4293(18) 0.848(2) 0.3730(17)
O2 O 0.44527(10) 0.69996(15) 0.48224(10)
O3 O 0.47812(10) 0.73778(15) 0.42544(11)
O4 O 0.30665(11) 0.86930(14) 0.57800(9)
O5 O 0.38423(11) 0.84246(15) 0.59018(10)
O6 O 0.16441(12) 1.02259(14) 0.41746(11)
O7 O 0.21115(12) 1.04227(15) 0.48553(12)
O8 O 0.20855(10) 0.95623(13) 0.21811(9)
O9 O 0.19104(11) 1.04081(13) 0.25472(10)
O10 O 0.38856(10) 0.74036(14) 0.25726(10)
O11 O 0.45252(13) 0.82776(19) 0.20111(13)
O12 O 0.33931(13) 0.86625(17) 0.19344(11)
C1 C -0.00239(15) 0.5441(2) 0.32212(15)
C2 C 0.04278(17) 0.4890(2) 0.28613(16)
C3 C 0.09219(18) 0.4350(2) 0.33882(17)
C4 C 0.07682(17) 0.4567(2) 0.40764(16)
C5 C 0.01860(15) 0.5240(2) 0.39658(15)
C6 C 0.01940(15) 0.5950(2) 0.44598(16)
C7 C -0.00136(15) 0.6888(2) 0.42144(16)
C8 C -0.02208(14) 0.7085(2) 0.34953(16)
C9 C -0.02210(14) 0.6341(2) 0.29885(16)
C10 C 0.00187(15) 0.6744(2) 0.23897(15)
C11 C 0.04572(17) 0.6210(2) 0.20477(15)
C12 C 0.06643(17) 0.5266(2) 0.22878(15)
C13 C 0.14098(19) 0.5122(2) 0.22307(15)
C14 C 0.18776(18) 0.4604(2) 0.27338(16)
C15 C 0.16343(19) 0.42043(19) 0.33322(17)
C16 C 0.22226(17) 0.4276(2) 0.39472(17)
C17 C 0.20810(17) 0.4482(2) 0.46099(16)
C18 C 0.13374(17) 0.4636(2) 0.46693(16)
C19 C 0.13419(16) 0.5372(2) 0.51798(15)
C20 C 0.07841(16) 0.6026(2) 0.50712(14)
C21 C 0.09397(15) 0.6998(2) 0.52030(14)
C22 C 0.04565(15) 0.7534(2) 0.46821(15)
C23 C 0.07084(15) 0.8335(2) 0.44085(15)
C24 C 0.04902(15) 0.85376(19) 0.36639(15)
C25 C 0.00297(14) 0.7929(2) 0.32132(15)
C26 C 0.01806(15) 0.7715(2) 0.25402(15)
C27 C 0.07769(15) 0.8130(2) 0.23457(14)
C28 C 0.12341(16) 0.7578(2) 0.20006(13)
C29 C 0.10738(17) 0.6644(2) 0.18444(14)
C30 C 0.16543(18) 0.5979(2) 0.19520(14)
C31 C 0.23644(17) 0.6287(2) 0.22133(14)
C32 C 0.28507(16) 0.5753(2) 0.27362(15)
C33 C 0.26197(17) 0.4917(2) 0.29931(16)
C34 C 0.28303(17) 0.4719(2) 0.37396(17)
C35 C 0.32632(15) 0.5351(2) 0.41835(16)
C36 C 0.31211(16) 0.5563(2) 0.48742(15)
C37 C 0.25381(17) 0.5127(2) 0.50733(15)
C38 C 0.20826(17) 0.5680(2) 0.54303(14)
C39 C 0.22378(16) 0.6615(2) 0.55479(13)
C40 C 0.16578(16) 0.7296(2) 0.54310(13)
C41 C 0.18998(15) 0.8146(2) 0.51632(14)
C42 C 0.14381(15) 0.86519(19) 0.46617(14)
C43 C 0.16704(15) 0.92294(18) 0.40827(14)
C44 C 0.10783(15) 0.90015(18) 0.34380(15)
C45 C 0.12207(14) 0.88002(19) 0.27934(14)
C46 C 0.19859(15) 0.88123(19) 0.26455(14)
C47 C 0.19757(15) 0.7903(2) 0.22345(13)
C48 C 0.25287(15) 0.7263(2) 0.23375(13)
C49 C 0.33157(15) 0.6382(2) 0.32074(15)
C50 C 0.35237(14) 0.6184(2) 0.39119(16)
C51 C 0.36881(14) 0.6927(2) 0.44908(14)
C52 C 0.33050(15) 0.6518(2) 0.50463(14)
C53 C 0.28660(15) 0.7039(2) 0.53654(13)
C54 C 0.27205(15) 0.8078(2) 0.52220(13)
C55 C 0.28740(14) 0.82982(19) 0.45112(13)
C56 C 0.23784(14) 0.88625(18) 0.39654(14)
C57 C 0.25431(14) 0.87330(18) 0.33292(14)
C58 C 0.32565(14) 0.81598(19) 0.34380(14)
C59 C 0.33288(14) 0.78115(19) 0.41989(13)
C60 C 0.32414(15) 0.7366(2) 0.28814(14)
C61 C 0.54603(17) 0.6870(3) 0.4268(2)
C62 C 0.59750(18) 0.7022(3) 0.4979(2)
H2 H 0.6027 0.7680 0.5074
H3 H 0.6439 0.6760 0.4969
H4 H 0.5785 0.6725 0.5343
C63 C 0.5712(2) 0.7367(3) 0.3671(2)
H5 H 0.5343 0.7323 0.3243
H6 H 0.6149 0.7079 0.3599
H7 H 0.5805 0.8012 0.3793
C64 C 0.5305(2) 0.5851(3) 0.4098(2)
H8 H 0.5117 0.5567 0.4469
H9 H 0.5744 0.5541 0.4058
H10 H 0.4954 0.5798 0.3658
C65 C 0.42761(18) 0.9283(2) 0.60166(17)
C66 C 0.50375(18) 0.8864(3) 0.6103(2)
H11 H 0.5132 0.8448 0.6502
H12 H 0.5390 0.9357 0.6179
H13 H 0.5066 0.8525 0.5682
C67 C 0.4179(2) 0.9765(3) 0.66860(17)
H14 H 0.3699 1.0020 0.6611
H15 H 0.4528 1.0258 0.6805
H16 H 0.4249 0.9321 0.7067
C68 C 0.40945(19) 0.9903(2) 0.53715(17)
H17 H 0.4148 0.9557 0.4962
H18 H 0.4416 1.0430 0.5436
H19 H 0.3604 1.0118 0.5306
C69 C 0.1724(2) 1.1098(2) 0.5216(2)
C70 C 0.1044(2) 1.0683(3) 0.53520(19)
H20 H 0.0703 1.0593 0.4910
H21 H 0.0841 1.1097 0.5647
H22 H 0.1151 1.0093 0.5587
C71 C 0.1610(3) 1.1990(2) 0.4804(2)
H23 H 0.2064 1.2204 0.4720
H24 H 0.1416 1.2454 0.5069
H25 H 0.1276 1.1886 0.4360
C72 C 0.2281(2) 1.1170(3) 0.5925(2)
H26 H 0.2364 1.0561 0.6135
H27 H 0.2098 1.1577 0.6238
H28 H 0.2727 1.1415 0.5844
C73 C 0.24141(17) 1.1140(2) 0.24587(17)
C74 C 0.2327(2) 1.1330(2) 0.16776(18)
H29 H 0.2508 1.0808 0.1458
H30 H 0.2593 1.1881 0.1614
H31 H 0.1823 1.1421 0.1464
C75 C 0.3184(2) 1.0867(3) 0.2819(2)
H32 H 0.3197 1.0677 0.3298
H33 H 0.3500 1.1393 0.2823
H34 H 0.3341 1.0360 0.2566
C76 C 0.2150(2) 1.1961(2) 0.2831(2)
H35 H 0.1684 1.2158 0.2565
H36 H 0.2488 1.2468 0.2864
H37 H 0.2111 1.1775 0.3297
N1 N 0.39304(17) 0.8198(2) 0.21324(14)
loop_
_geom_bond_atom_site_label_1
_geom_bond_atom_site_label_2
_geom_bond_site_symmetry_1
_geom_bond_site_symmetry_2
O1 H1 1_555 1_555
O2 O3 1_555 1_555
O3 C61 1_555 1_555
O4 O5 1_555 1_555
O5 C65 1_555 1_555
O6 O7 1_555 1_555
O7 C69 1_555 1_555
O8 O9 1_555 1_555
O9 C73 1_555 1_555
O10 C60 1_555 1_555
O11 N1 1_555 1_555
O12 N1 1_555 1_555
C1 C2 1_555 1_555
C2 C3 1_555 1_555
C3 C4 1_555 1_555
C4 C5 1_555 1_555
C5 C1 1_555 1_555
C6 C5 1_555 1_555
C7 C6 1_555 1_555
C8 C7 1_555 1_555
C9 C1 1_555 1_555
C10 C9 1_555 1_555
C11 C10 1_555 1_555
C12 C2 1_555 1_555
C13 C12 1_555 1_555
C14 C13 1_555 1_555
C15 C3 1_555 1_555
C16 C15 1_555 1_555
C17 C16 1_555 1_555
C18 C4 1_555 1_555
C19 C18 1_555 1_555
C20 C6 1_555 1_555
C21 C20 1_555 1_555
C22 C7 1_555 1_555
C23 C22 1_555 1_555
C24 C23 1_555 1_555
C25 C8 1_555 1_555
C26 C10 1_555 1_555
C27 C26 1_555 1_555
C28 C27 1_555 1_555
C29 C11 1_555 1_555
C30 C13 1_555 1_555
C31 C30 1_555 1_555
C32 C31 1_555 1_555
C33 C14 1_555 1_555
C34 C16 1_555 1_555
C35 C34 1_555 1_555
C36 C35 1_555 1_555
C37 C17 1_555 1_555
C38 C19 1_555 1_555
C39 C38 1_555 1_555
C40 C21 1_555 1_555
C41 C40 1_555 1_555
C42 C23 1_555 1_555
C43 O6 1_555 1_555
C44 C24 1_555 1_555
C45 C27 1_555 1_555
C46 O8 1_555 1_555
C47 C28 1_555 1_555
C48 C31 1_555 1_555
C49 C32 1_555 1_555
C50 C35 1_555 1_555
C51 O2 1_555 1_555
C52 C36 1_555 1_555
C53 C39 1_555 1_555
C54 O4 1_555 1_555
C55 C54 1_555 1_555
C56 C43 1_555 1_555
C57 C46 1_555 1_555
C58 O1 1_555 1_555
C59 C51 1_555 1_555
C60 C48 1_555 1_555
C61 C62 1_555 1_555
C62 H2 1_555 1_555
H3 C62 1_555 1_555
H4 C62 1_555 1_555
C63 C61 1_555 1_555
H5 C63 1_555 1_555
H6 C63 1_555 1_555
H7 C63 1_555 1_555
C64 C61 1_555 1_555
H8 C64 1_555 1_555
H9 C64 1_555 1_555
H10 C64 1_555 1_555
C65 C66 1_555 1_555
C66 H11 1_555 1_555
H12 C66 1_555 1_555
H13 C66 1_555 1_555
C67 C65 1_555 1_555
H14 C67 1_555 1_555
H15 C67 1_555 1_555
H16 C67 1_555 1_555
C68 C65 1_555 1_555
H17 C68 1_555 1_555
H18 C68 1_555 1_555
H19 C68 1_555 1_555
C69 C70 1_555 1_555
C70 H20 1_555 1_555
H21 C70 1_555 1_555
H22 C70 1_555 1_555
C71 C69 1_555 1_555
H23 C71 1_555 1_555
H24 C71 1_555 1_555
H25 C71 1_555 1_555
C72 C69 1_555 1_555
H26 C72 1_555 1_555
H27 C72 1_555 1_555
H28 C72 1_555 1_555
C73 C74 1_555 1_555
C74 H29 1_555 1_555
H30 C74 1_555 1_555
H31 C74 1_555 1_555
C75 C73 1_555 1_555
H32 C75 1_555 1_555
H33 C75 1_555 1_555
H34 C75 1_555 1_555
C76 C73 1_555 1_555
H35 C76 1_555 1_555
H36 C76 1_555 1_555
H37 C76 1_555 1_555
N1 O10 1_555 1_555
C8 C9 1_555 1_555
C11 C12 1_555 1_555
C14 C15 1_555 1_555
C17 C18 1_555 1_555
C19 C20 1_555 1_555
C21 C22 1_555 1_555
C24 C25 1_555 1_555
C25 C26 1_555 1_555
C28 C29 1_555 1_555
C29 C30 1_555 1_555
C32 C33 1_555 1_555
C33 C34 1_555 1_555
C36 C37 1_555 1_555
C37 C38 1_555 1_555
C39 C40 1_555 1_555
C41 C42 1_555 1_555
C41 C54 1_555 1_555
C42 C43 1_555 1_555
C43 C44 1_555 1_555
C44 C45 1_555 1_555
C45 C46 1_555 1_555
C46 C47 1_555 1_555
C47 C48 1_555 1_555
C49 C50 1_555 1_555
C49 C60 1_555 1_555
C50 C51 1_555 1_555
C51 C52 1_555 1_555
C52 C53 1_555 1_555
C53 C54 1_555 1_555
C55 C56 1_555 1_555
C55 C59 1_555 1_555
C56 C57 1_555 1_555
C57 C58 1_555 1_555
C58 C59 1_555 1_555
C58 C60 1_555 1_555

#END
