
#######################################################################
#
#                 Cambridge Crystallographic Data Centre
#                                CCDC 
#
#######################################################################
#
# If this CIF has been generated from an entry in the Cambridge 
# Structural Database, then it will include bibliographic, chemical, 
# crystal, experimental, refinement or atomic coordinate data resulting 
# from the CCDC's data processing and validation procedures.
#
#######################################################################

data_DIJXUP
_chemical_formula_moiety         'C17 H17 N1 S1'
_chemical_name_systematic        
2-Methyl-4-(p-tolyl)-2,3-dihydro-1,5-benzothiazepine
_symmetry_cell_setting           triclinic
_symmetry_space_group_name_H-M   'P -1'
_symmetry_Int_Tables_number      2
_space_group_name_Hall           '-P 1'
loop_
_symmetry_equiv_pos_site_id
_symmetry_equiv_pos_as_xyz
1 x,y,z
2 -x,-y,-z
_cell_length_a                   8.860(2)
_cell_length_b                   10.838(4)
_cell_length_c                   15.934(4)
_cell_angle_alpha                73.12(2)
_cell_angle_beta                 86.78(2)
_cell_angle_gamma                79.96(2)
_cell_volume                     1441.69
_exptl_crystal_colour            yellow
_cell_formula_units_Z            4
loop_
_atom_site_label
_atom_site_type_symbol
_atom_site_fract_x
_atom_site_fract_y
_atom_site_fract_z
S1 S 0.1937(2) 0.2664(2) 0.2696(1)
N1 N 0.3118(6) 0.4379(5) 0.0942(3)
C1 C 0.3746(7) 0.2377(6) 0.2195(4)
C2 C 0.4746(7) 0.1224(6) 0.2546(4)
C3 C 0.6085(8) 0.0922(7) 0.2131(5)
C4 C 0.6499(8) 0.1771(7) 0.1352(5)
C5 C 0.5519(7) 0.2930(6) 0.0967(4)
C6 C 0.4127(7) 0.3241(6) 0.1388(4)
C7 C 0.1283(6) 0.6270(6) 0.0853(4)
C8 C 0.0539(8) 0.7260(7) 0.1191(4)
C9 C -0.0557(8) 0.8241(6) 0.0716(4)
C10 C -0.0983(7) 0.8272(6) -0.0107(4)
C11 C -0.0271(7) 0.7275(6) -0.0442(4)
C12 C 0.0854(7) 0.6282(6) 0.0023(4)
C13 C 0.2453(6) 0.5196(5) 0.1354(4)
C14 C 0.2854(6) 0.5087(6) 0.2279(4)
C15 C 0.1979(6) 0.4175(6) 0.2984(4)
C16 C 0.2652(7) 0.3893(6) 0.3893(4)
C17 C -0.2224(8) 0.9341(7) -0.0626(5)
H1 H 0.452(6) 0.062(5) 0.328(3)
H2 H 0.690(6) 0.002(5) 0.246(3)
H3 H 0.742(6) 0.158(5) 0.098(3)
H4 H 0.594(6) 0.350(5) 0.028(3)
H5 H 0.047(6) 0.710(5) 0.191(3)
H6 H -0.104(6) 0.906(5) 0.091(3)
H7 H -0.058(6) 0.719(5) -0.111(3)
H8 H 0.148(6) 0.555(5) -0.036(3)
H9 H 0.269(6) 0.595(5) 0.238(3)
H10 H 0.413(6) 0.475(5) 0.242(3)
H11 H 0.080(6) 0.453(5) 0.303(3)
H12 H 0.378(6) 0.350(5) 0.386(3)
H13 H 0.191(5) 0.334(5) 0.442(3)
H14 H -0.299(6) 0.878(6) -0.082(4)
H15 H -0.135(6) 0.964(6) -0.105(4)
H16 H -0.230(6) 1.014(5) -0.053(3)
S2 S 0.3721(2) 0.8176(2) 0.4550(1)
N2 N 0.1647(5) 0.6102(5) 0.5262(3)
C18 C 0.1985(6) 0.8088(5) 0.4079(4)
C19 C 0.1482(6) 0.8963(6) 0.3287(4)
C20 C 0.0222(6) 0.8854(6) 0.2877(4)
C21 C -0.0566(6) 0.7841(6) 0.3249(4)
C22 C -0.0106(6) 0.6931(6) 0.4051(4)
C23 C 0.1173(6) 0.7073(6) 0.4475(4)
C24 C 0.2679(6) 0.5359(5) 0.6688(3)
C25 C 0.3590(6) 0.4258(5) 0.6525(4)
C26 C 0.4258(7) 0.3226(6) 0.7214(4)
C27 C 0.4033(6) 0.3259(6) 0.8080(4)
C28 C 0.3124(6) 0.4351(6) 0.8236(4)
C29 C 0.2472(6) 0.5397(5) 0.7547(3)
C30 C 0.1980(5) 0.6425(5) 0.5932(3)
C31 C 0.1700(6) 0.7817(5) 0.5974(3)
C32 C 0.3033(6) 0.8544(5) 0.5572(3)
C33 C 0.2576(7) 1.0023(5) 0.5416(4)
C34 C 0.4778(7) 0.2144(6) 0.8827(4)
H17 H 0.220(5) 0.955(5) 0.298(3)
H18 H -0.007(5) 0.958(5) 0.226(3)
H19 H -0.154(5) 0.762(5) 0.300(3)
H20 H -0.059(5) 0.611(5) 0.431(3)
H21 H 0.387(5) 0.432(5) 0.587(3)
H22 H 0.501(6) 0.248(5) 0.704(3)
H23 H 0.280(5) 0.447(5) 0.893(3)
H24 H 0.178(5) 0.629(5) 0.774(3)
H25 H 0.150(5) 0.793(5) 0.669(3)
H26 H 0.071(5) 0.837(5) 0.557(3)
H27 H 0.412(5) 0.816(5) 0.600(3)
H28 H 0.164(5) 1.045(5) 0.491(3)
H29 H 0.369(5) 1.059(5) 0.516(3)
H30 H 0.232(5) 1.014(5) 0.595(3)
H31 H 0.436(6) 0.222(5) 0.946(4)
H32 H 0.490(6) 0.119(5) 0.880(3)
H33 H 0.574(6) 0.224(5) 0.860(3)
loop_
_geom_bond_atom_site_label_1
_geom_bond_atom_site_label_2
_geom_bond_site_symmetry_1
_geom_bond_site_symmetry_2
S1 C1 1_555 1_555
S2 C18 1_555 1_555
N1 C6 1_555 1_555
N2 C23 1_555 1_555
C1 C2 1_555 1_555
C2 C3 1_555 1_555
C3 C4 1_555 1_555
C4 C5 1_555 1_555
C5 C6 1_555 1_555
C6 C1 1_555 1_555
C7 C8 1_555 1_555
C8 C9 1_555 1_555
C9 C10 1_555 1_555
C10 C11 1_555 1_555
C11 C12 1_555 1_555
C12 C7 1_555 1_555
C13 N1 1_555 1_555
C14 C13 1_555 1_555
C15 S1 1_555 1_555
C16 C15 1_555 1_555
C17 C10 1_555 1_555
C18 C19 1_555 1_555
C19 C20 1_555 1_555
C20 C21 1_555 1_555
C21 C22 1_555 1_555
C22 C23 1_555 1_555
C23 C18 1_555 1_555
C24 C25 1_555 1_555
C25 C26 1_555 1_555
C26 C27 1_555 1_555
C27 C28 1_555 1_555
C28 C29 1_555 1_555
C29 C24 1_555 1_555
C30 N2 1_555 1_555
C31 C30 1_555 1_555
C32 S2 1_555 1_555
C33 C32 1_555 1_555
C34 C27 1_555 1_555
H1 C2 1_555 1_555
H2 C3 1_555 1_555
H3 C4 1_555 1_555
H4 C5 1_555 1_555
H5 C8 1_555 1_555
H6 C9 1_555 1_555
H7 C11 1_555 1_555
H8 C12 1_555 1_555
H9 C14 1_555 1_555
H10 C14 1_555 1_555
H11 C15 1_555 1_555
H12 C16 1_555 1_555
H13 C16 1_555 1_555
H14 C17 1_555 1_555
H15 C17 1_555 1_555
H16 C17 1_555 1_555
H17 C19 1_555 1_555
H18 C20 1_555 1_555
H19 C21 1_555 1_555
H20 C22 1_555 1_555
H21 C25 1_555 1_555
H22 C26 1_555 1_555
H23 C28 1_555 1_555
H24 C29 1_555 1_555
H25 C31 1_555 1_555
H26 C31 1_555 1_555
H27 C32 1_555 1_555
H28 C33 1_555 1_555
H29 C33 1_555 1_555
H30 C33 1_555 1_555
H31 C34 1_555 1_555
H32 C34 1_555 1_555
H33 C34 1_555 1_555
C7 C13 1_555 1_555
C14 C15 1_555 1_555
C24 C30 1_555 1_555
C31 C32 1_555 1_555

#END
