
#######################################################################
#
#                 Cambridge Crystallographic Data Centre
#                                CCDC 
#
#######################################################################
#
# If this CIF has been generated from an entry in the Cambridge 
# Structural Database, then it will include bibliographic, chemical, 
# crystal, experimental, refinement or atomic coordinate data resulting 
# from the CCDC's data processing and validation procedures.
#
#######################################################################

data_DIJZAZ
_chemical_formula_moiety         'C25 H21 N1 O3'
_chemical_name_systematic        
7,8,9-Trimethoxy-10-phenyl-11H-indeno[1,2-b]quinoline
_symmetry_cell_setting           triclinic
_symmetry_space_group_name_H-M   'P -1'
_symmetry_Int_Tables_number      2
_space_group_name_Hall           '-P 1'
loop_
_symmetry_equiv_pos_site_id
_symmetry_equiv_pos_as_xyz
1 x,y,z
2 -x,-y,-z
_cell_length_a                   8.0687(12)
_cell_length_b                   11.5041(17)
_cell_length_c                   12.1379(17)
_cell_angle_alpha                113.129(3)
_cell_angle_beta                 102.038(3)
_cell_angle_gamma                98.322(3)
_cell_volume                     980.628
_exptl_crystal_colour            colorless
_exptl_crystal_description       prismatic
_cell_formula_units_Z            2
loop_
_atom_site_label
_atom_site_type_symbol
_atom_site_fract_x
_atom_site_fract_y
_atom_site_fract_z
N1 N 0.81743(17) 0.78760(12) 0.12853(11)
O1 O 0.23076(15) 0.56731(13) 0.05953(11)
O2 O 0.32461(16) 0.52902(12) 0.26262(11)
O3 O 0.66444(15) 0.61599(11) 0.41086(10)
C1 C 1.1280(2) 0.89068(15) 0.16964(14)
C2 C 1.1294(2) 0.92429(16) 0.07197(16)
H1 H 1.0272 0.9027 0.0081
C3 C 1.2853(3) 0.99023(19) 0.07166(17)
H2 H 1.2888 1.0151 0.0078
C4 C 1.4362(3) 1.0197(2) 0.16532(19)
H3 H 1.5406 1.0643 0.1636
C5 C 1.4365(2) 0.98470(19) 0.26207(17)
H4 H 1.5398 1.0043 0.3243
C6 C 1.2805(2) 0.92019(16) 0.26422(15)
C7 C 1.2414(2) 0.87168(17) 0.35721(15)
H5 H 1.3039 0.8065 0.3600
H6 H 1.2726 0.9429 0.4405
C8 C 1.0472(2) 0.81339(14) 0.30688(13)
C9 C 0.9815(2) 0.82511(14) 0.19511(13)
C10 C 0.9346(2) 0.75789(14) 0.35300(13)
C11 C 0.7542(2) 0.71072(13) 0.28132(12)
C12 C 0.7020(2) 0.72782(14) 0.16974(13)
C13 C 0.5266(2) 0.68251(15) 0.09566(14)
H7 H 0.4949 0.6976 0.0252
C14 C 0.4023(2) 0.61700(15) 0.12511(14)
C15 C 0.4511(2) 0.59503(15) 0.23323(14)
C16 C 0.6202(2) 0.64220(15) 0.30953(13)
C17 C 1.00747(19) 0.75083(14) 0.47309(13)
C18 C 1.0892(2) 0.65438(16) 0.47550(15)
H8 H 1.0983 0.5922 0.4013
C19 C 1.1579(2) 0.64933(18) 0.58730(18)
H9 H 1.2116 0.5832 0.5878
C20 C 1.1473(2) 0.74060(19) 0.69672(16)
H10 H 1.1912 0.7358 0.7716
C21 C 1.0721(3) 0.8389(2) 0.69593(16)
H11 H 1.0670 0.9026 0.7708
C22 C 1.0037(3) 0.84446(18) 0.58526(15)
H12 H 0.9540 0.9128 0.5861
C23 C 0.1753(2) 0.58000(19) -0.05314(16)
H13 H 0.1914 0.6708 -0.0344
H14 H 0.0537 0.5356 -0.0937
H15 H 0.2432 0.5421 -0.1076
C24 C 0.2947(3) 0.39165(19) 0.20200(18)
H16 H 0.2581 0.3623 0.1129
H17 H 0.2049 0.3520 0.2264
H18 H 0.4008 0.3674 0.2255
C25 C 0.5915(3) 0.6793(3) 0.50968(18)
H19 H 0.5960 0.7673 0.5213
H20 H 0.6576 0.6804 0.5858
H21 H 0.4720 0.6327 0.4883
loop_
_geom_bond_atom_site_label_1
_geom_bond_atom_site_label_2
_geom_bond_site_symmetry_1
_geom_bond_site_symmetry_2
N1 C9 1_555 1_555
O1 C14 1_555 1_555
O2 C15 1_555 1_555
O3 C16 1_555 1_555
C1 C2 1_555 1_555
C2 H1 1_555 1_555
C3 C2 1_555 1_555
H2 C3 1_555 1_555
C4 C3 1_555 1_555
H3 C4 1_555 1_555
C5 C4 1_555 1_555
H4 C5 1_555 1_555
C6 C1 1_555 1_555
C7 C6 1_555 1_555
H5 C7 1_555 1_555
H6 C7 1_555 1_555
C8 C7 1_555 1_555
C9 C1 1_555 1_555
C10 C8 1_555 1_555
C11 C10 1_555 1_555
C12 N1 1_555 1_555
C13 C12 1_555 1_555
H7 C13 1_555 1_555
C14 C13 1_555 1_555
C15 C14 1_555 1_555
C16 C11 1_555 1_555
C17 C10 1_555 1_555
C18 C17 1_555 1_555
H8 C18 1_555 1_555
C19 C18 1_555 1_555
H9 C19 1_555 1_555
C20 C19 1_555 1_555
H10 C20 1_555 1_555
C21 C20 1_555 1_555
H11 C21 1_555 1_555
C22 C17 1_555 1_555
H12 C22 1_555 1_555
C23 O1 1_555 1_555
H13 C23 1_555 1_555
H14 C23 1_555 1_555
H15 C23 1_555 1_555
C24 O2 1_555 1_555
H16 C24 1_555 1_555
H17 C24 1_555 1_555
H18 C24 1_555 1_555
C25 O3 1_555 1_555
H19 C25 1_555 1_555
H20 C25 1_555 1_555
H21 C25 1_555 1_555
C5 C6 1_555 1_555
C8 C9 1_555 1_555
C11 C12 1_555 1_555
C15 C16 1_555 1_555
C21 C22 1_555 1_555

#END
