
#######################################################################
#
#                 Cambridge Crystallographic Data Centre
#                                CCDC 
#
#######################################################################
#
# If this CIF has been generated from an entry in the Cambridge 
# Structural Database, then it will include bibliographic, chemical, 
# crystal, experimental, refinement or atomic coordinate data resulting 
# from the CCDC's data processing and validation procedures.
#
#######################################################################

data_DIKPIP02
_chemical_formula_moiety         'C4 H6 N2 O2'
_chemical_name_systematic        2,5-Piperazinedione
_symmetry_cell_setting           monoclinic
_symmetry_space_group_name_H-M   'P 21/c'
_symmetry_Int_Tables_number      14
_space_group_name_Hall           '-P 2ybc'
loop_
_symmetry_equiv_pos_site_id
_symmetry_equiv_pos_as_xyz
1 x,y,z
2 x,1/2-y,1/2+z
3 -x,-y,-z
4 -x,1/2+y,1/2-z
_cell_length_a                   3.8967(10)
_cell_length_b                   11.527(3)
_cell_length_c                   5.159(2)
_cell_angle_alpha                90
_cell_angle_beta                 96.46(2)
_cell_angle_gamma                90
_cell_volume                     230.257
_exptl_crystal_colour            colorless
_exptl_crystal_description       plate
_cell_formula_units_Z            2
loop_
_atom_site_label
_atom_site_type_symbol
_atom_site_fract_x
_atom_site_fract_y
_atom_site_fract_z
O1 O 0.5941(4) 0.63335(11) 0.6680(2)
N1 N 0.8110(4) 0.45696(13) 0.7787(3)
C1 C 0.7821(4) 0.56985(18) 0.8176(3)
C2 C 0.9821(5) 0.62391(14) 1.0532(4)
H1 H 0.6939 0.4281 0.6376
H2 H 1.1366 0.6842 0.9939
H3 H 0.8175 0.6631 1.1572
C2B C 1.0179(5) 0.37609(14) 0.9468(4)
C1B C 1.2179(4) 0.43015(18) 1.1824(3)
O1B O 1.4059(4) 0.36665(11) 1.3320(2)
N1B N 1.1890(4) 0.54304(13) 1.2213(3)
H1B H 1.3061 0.5719 1.3624
H2B H 0.8634 0.3158 1.0061
H3B H 1.1825 0.3369 0.8428
loop_
_geom_bond_atom_site_label_1
_geom_bond_atom_site_label_2
_geom_bond_site_symmetry_1
_geom_bond_site_symmetry_2
O1 C1 1_555 1_555
N1 C1 1_555 1_555
C1 C2 1_555 1_555
C2 H2 1_555 1_555
H1 N1 1_555 1_555
H3 C2 1_555 1_555
C2B N1 1_555 1_555
C1B C2B 1_555 1_555
O1B C1B 1_555 1_555
N1B C2 1_555 1_555
H1B N1B 1_555 1_555
H2B C2B 1_555 1_555
H3B C2B 1_555 1_555
C1B N1B 1_555 1_555

#END
