
#######################################################################
#
#                 Cambridge Crystallographic Data Centre
#                                CCDC 
#
#######################################################################
#
# If this CIF has been generated from an entry in the Cambridge 
# Structural Database, then it will include bibliographic, chemical, 
# crystal, experimental, refinement or atomic coordinate data resulting 
# from the CCDC's data processing and validation procedures.
#
#######################################################################

data_DIKROF
_chemical_formula_moiety         'C12 H14 Li2 N4 O14'
_chemical_name_systematic        
(\m~2~-2,4-Dinitrophenolato-1\k^2^O^1^,O^2^:2\kO^1^)-tetra-aqua-(2,4-dinitrophenolato-1\k^2^O^1^,O^2^)-di-lithium(i)
_symmetry_cell_setting           triclinic
_symmetry_space_group_name_H-M   'P -1'
_symmetry_Int_Tables_number      2
_space_group_name_Hall           '-P 1'
loop_
_symmetry_equiv_pos_site_id
_symmetry_equiv_pos_as_xyz
1 x,y,z
2 -x,-y,-z
_cell_length_a                   8.3038(2)
_cell_length_b                   10.1267(3)
_cell_length_c                   11.2984(3)
_cell_angle_alpha                76.733(2)
_cell_angle_beta                 79.565(2)
_cell_angle_gamma                86.276(2)
_cell_volume                     909.161
_exptl_crystal_colour            'pale yellow'
_exptl_crystal_description       block
_cell_formula_units_Z            2
loop_
_atom_site_label
_atom_site_type_symbol
_atom_site_fract_x
_atom_site_fract_y
_atom_site_fract_z
Li1 Li 0.5445(3) 0.2226(2) 1.00546(18)
Li2 Li 0.1638(3) 0.2790(2) 1.00809(18)
C1 C 0.69795(13) 0.41651(11) 0.78588(10)
C2 C 0.63323(12) 0.36442(10) 0.69642(10)
C3 C 0.67057(13) 0.41919(11) 0.57024(10)
H1 H 0.6263 0.3833 0.5148
C4 C 0.77371(13) 0.52690(11) 0.52873(9)
C5 C 0.84491(13) 0.58049(11) 0.61070(10)
H2 H 0.9158 0.6527 0.5810
C6 C 0.80926(14) 0.52582(12) 0.73376(10)
H3 H 0.8593 0.5609 0.7868
O1 O 0.66451(12) 0.37518(9) 0.90208(7)
N1 N 0.52188(11) 0.25229(9) 0.73355(9)
O2 O 0.47853(12) 0.20118(10) 0.84440(8)
O3 O 0.47307(11) 0.20941(9) 0.65440(8)
N2 N 0.80795(12) 0.58774(10) 0.39890(9)
O4 O 0.89293(12) 0.68978(9) 0.36511(8)
O5 O 0.75335(12) 0.53746(10) 0.32602(8)
C7 C 0.29630(12) 0.10166(10) 1.20904(9)
C8 C 0.36945(12) 0.13986(10) 1.30145(9)
C9 C 0.33269(12) 0.07838(10) 1.42602(10)
H4 H 0.3793 0.1082 1.4839
C10 C 0.22604(12) -0.02741(11) 1.46216(9)
C11 C 0.15124(13) -0.07154(11) 1.37696(10)
H5 H 0.0801 -0.1438 1.4029
C12 C 0.18394(14) -0.00734(12) 1.25562(10)
H6 H 0.1308 -0.0356 1.2003
O6 O 0.32281(10) 0.15692(8) 1.09383(7)
N3 N 0.48406(11) 0.24949(9) 1.27040(9)
O7 O 0.53924(13) 0.29831(10) 1.16129(8)
O8 O 0.52299(11) 0.29239(9) 1.35338(8)
N4 N 0.19131(11) -0.09370(10) 1.59087(9)
O9 O 0.24377(12) -0.04677(10) 1.66680(8)
O10 O 0.10765(12) -0.19619(9) 1.62011(8)
O11 O 0.71159(15) 0.07466(12) 1.04332(12)
H7 H 0.732(3) 0.063(2) 1.1105(16)
H8 H 0.708(3) -0.003(2) 1.033(2)
O12 O 0.25595(13) 0.46125(10) 0.94962(9)
H9 H 0.312(2) 0.4746(19) 0.8869(14)
H10 H 0.287(2) 0.5076(19) 0.9930(17)
O13 O 0.06174(15) 0.20399(13) 0.89693(10)
H11 H 0.074(3) 0.228(2) 0.820(2)
H12 H -0.034(3) 0.188(2) 0.9181(19)
O14 O -0.03338(13) 0.30573(12) 1.12200(9)
H13 H -0.094(2) 0.3676(17) 1.1022(18)
H14 H -0.062(2) 0.274(2) 1.1961(14)
loop_
_geom_bond_atom_site_label_1
_geom_bond_atom_site_label_2
_geom_bond_site_symmetry_1
_geom_bond_site_symmetry_2
Li1 O1 1_555 1_555
Li2 O6 1_555 1_555
C1 C2 1_555 1_555
C2 C3 1_555 1_555
C3 H1 1_555 1_555
C4 C3 1_555 1_555
C5 C4 1_555 1_555
H2 C5 1_555 1_555
C6 C1 1_555 1_555
H3 C6 1_555 1_555
O1 C1 1_555 1_555
N1 C2 1_555 1_555
O2 Li1 1_555 1_555
O3 N1 1_555 1_555
N2 C4 1_555 1_555
O4 N2 1_555 1_555
O5 N2 1_555 1_555
C7 C8 1_555 1_555
C8 C9 1_555 1_555
C9 H4 1_555 1_555
C10 C9 1_555 1_555
C11 C10 1_555 1_555
H5 C11 1_555 1_555
C12 C7 1_555 1_555
H6 C12 1_555 1_555
O6 Li1 1_555 1_555
N3 C8 1_555 1_555
O7 Li1 1_555 1_555
O8 N3 1_555 1_555
N4 C10 1_555 1_555
O9 N4 1_555 1_555
O10 N4 1_555 1_555
O11 Li1 1_555 1_555
H7 O11 1_555 1_555
H8 O11 1_555 1_555
O12 Li2 1_555 1_555
H9 O12 1_555 1_555
H10 O12 1_555 1_555
O13 Li2 1_555 1_555
H11 O13 1_555 1_555
H12 O13 1_555 1_555
O14 Li2 1_555 1_555
H13 O14 1_555 1_555
H14 O14 1_555 1_555
C5 C6 1_555 1_555
N1 O2 1_555 1_555
C7 O6 1_555 1_555
C11 C12 1_555 1_555
N3 O7 1_555 1_555

#END
