
#######################################################################
#
#                 Cambridge Crystallographic Data Centre
#                                CCDC 
#
#######################################################################
#
# If this CIF has been generated from an entry in the Cambridge 
# Structural Database, then it will include bibliographic, chemical, 
# crystal, experimental, refinement or atomic coordinate data resulting 
# from the CCDC's data processing and validation procedures.
#
#######################################################################

data_DIKTAT
_chemical_name_common            4,4'-Di-iodobenzalazine
_chemical_formula_moiety         'C14 H10 I2 N2'
_chemical_name_systematic        '4-Iodobenzaldehyde azine'
_symmetry_cell_setting           monoclinic
_symmetry_space_group_name_H-M   'P 21/c'
_symmetry_Int_Tables_number      14
_space_group_name_Hall           '-P 2ybc'
loop_
_symmetry_equiv_pos_site_id
_symmetry_equiv_pos_as_xyz
1 x,y,z
2 -x,1/2+y,1/2-z
3 -x,-y,-z
4 x,1/2-y,1/2+z
_cell_length_a                   11.854(2)
_cell_length_b                   7.7308(13)
_cell_length_c                   7.6827(13)
_cell_angle_alpha                90
_cell_angle_beta                 92.407(3)
_cell_angle_gamma                90
_cell_volume                     703.428
_exptl_crystal_colour            'pale yellow'
_exptl_crystal_description       plate
_cell_formula_units_Z            2
_exptl_crystal_recrystallization_method chloroform
loop_
_atom_site_label
_atom_site_type_symbol
_atom_site_fract_x
_atom_site_fract_y
_atom_site_fract_z
I1 I 0.114704(15) 0.42460(2) -0.33923(2)
N1 N 0.4787(2) 0.4782(3) 0.4157(3)
C1 C 0.2062(2) 0.4727(3) -0.1050(3)
C2 C 0.1565(2) 0.5669(3) 0.0252(4)
H1 H 0.0825 0.6125 0.0073
C3 C 0.2167(2) 0.5937(3) 0.1822(3)
H2 H 0.1837 0.6589 0.2717
C4 C 0.3251(2) 0.5256(3) 0.2095(3)
C5 C 0.3732(2) 0.4320(3) 0.0763(4)
H3 H 0.4469 0.3853 0.0940
C6 C 0.3148(2) 0.4064(3) -0.0814(4)
H4 H 0.3485 0.3442 -0.1724
C7 C 0.3853(2) 0.5536(3) 0.3787(4)
H5 H 0.3539 0.6290 0.4615
I1B I 0.885296(15) 0.57540(2) 1.33923(2)
N1B N 0.5213(2) 0.5218(3) 0.5843(3)
C1B C 0.7938(2) 0.5273(3) 1.1050(3)
C2B C 0.8435(2) 0.4331(3) 0.9748(4)
H1B H 0.9175 0.3875 0.9927
C3B C 0.7833(2) 0.4063(3) 0.8178(3)
H2B H 0.8163 0.3411 0.7283
C4B C 0.6749(2) 0.4744(3) 0.7905(3)
C5B C 0.6268(2) 0.5680(3) 0.9237(4)
H3B H 0.5531 0.6147 0.9060
C6B C 0.6852(2) 0.5936(3) 1.0814(4)
H4B H 0.6515 0.6558 1.1724
C7B C 0.6147(2) 0.4464(3) 0.6213(4)
H5B H 0.6461 0.3710 0.5385
loop_
_geom_bond_atom_site_label_1
_geom_bond_atom_site_label_2
_geom_bond_site_symmetry_1
_geom_bond_site_symmetry_2
I1 C1 1_555 1_555
N1 C7 1_555 1_555
C1 C2 1_555 1_555
C2 H1 1_555 1_555
C3 C2 1_555 1_555
H2 C3 1_555 1_555
C4 C3 1_555 1_555
C5 C4 1_555 1_555
H3 C5 1_555 1_555
C6 C1 1_555 1_555
H4 C6 1_555 1_555
C7 C4 1_555 1_555
H5 C7 1_555 1_555
I1B C1B 1_555 1_555
N1B N1 1_555 1_555
C1B C2B 1_555 1_555
C2B H1B 1_555 1_555
C3B C2B 1_555 1_555
H2B C3B 1_555 1_555
C4B C3B 1_555 1_555
C5B C4B 1_555 1_555
H3B C5B 1_555 1_555
C6B C1B 1_555 1_555
H4B C6B 1_555 1_555
C7B N1B 1_555 1_555
H5B C7B 1_555 1_555
C5 C6 1_555 1_555
C4B C7B 1_555 1_555
C5B C6B 1_555 1_555

#END
