
#######################################################################
#
#                 Cambridge Crystallographic Data Centre
#                                CCDC 
#
#######################################################################
#
# If this CIF has been generated from an entry in the Cambridge 
# Structural Database, then it will include bibliographic, chemical, 
# crystal, experimental, refinement or atomic coordinate data resulting 
# from the CCDC's data processing and validation procedures.
#
#######################################################################

data_DIKTAT01
_chemical_name_common            4,4'-Di-iodobenzalazine
_chemical_formula_moiety         'C14 H10 I2 N2'
_chemical_name_systematic        '4-Iodobenzaldehyde azine'
_symmetry_cell_setting           monoclinic
_symmetry_space_group_name_H-M   'P 21/n'
_symmetry_Int_Tables_number      14
_space_group_name_Hall           '-P 2yn'
loop_
_symmetry_equiv_pos_site_id
_symmetry_equiv_pos_as_xyz
1 x,y,z
2 1/2-x,1/2+y,1/2-z
3 -x,-y,-z
4 1/2+x,1/2-y,1/2+z
_cell_length_a                   8.4303(17)
_cell_length_b                   5.6453(12)
_cell_length_c                   15.248(3)
_cell_angle_alpha                90
_cell_angle_beta                 104.346(3)
_cell_angle_gamma                90
_cell_volume                     703.048
_exptl_crystal_colour            'pale yellow'
_exptl_crystal_description       needle
_cell_formula_units_Z            2
_exptl_crystal_recrystallization_method chloroform
loop_
_atom_site_label
_atom_site_type_symbol
_atom_site_fract_x
_atom_site_fract_y
_atom_site_fract_z
I1 I 1.14291(3) 1.16954(5) 0.306393(19)
N1 N 0.5738(4) 0.5302(7) 0.4884(2)
C1 C 0.9511(5) 1.0231(7) 0.3531(3)
C2 C 0.8041(5) 1.1403(7) 0.3377(3)
C3 C 0.6780(5) 1.0432(7) 0.3695(3)
C4 C 0.6982(5) 0.8283(7) 0.4157(3)
C5 C 0.8486(5) 0.7121(7) 0.4307(3)
C6 C 0.9762(5) 0.8064(7) 0.4003(3)
C7 C 0.5607(5) 0.7274(7) 0.4465(3)
H1 H 0.7890 1.2862 0.3057
H2 H 0.5764 1.1244 0.3596
H3 H 0.8633 0.5656 0.4623
H4 H 1.0786 0.7271 0.4109
H5 H 0.4598 0.8109 0.4348
I1B I -0.14291(3) -0.16954(5) 0.693607(19)
N1B N 0.4262(4) 0.4698(7) 0.5116(2)
C1B C 0.0489(5) -0.0231(7) 0.6469(3)
C2B C 0.1959(5) -0.1403(7) 0.6623(3)
C3B C 0.3220(5) -0.0432(7) 0.6305(3)
C4B C 0.3018(5) 0.1717(7) 0.5843(3)
C5B C 0.1514(5) 0.2879(7) 0.5693(3)
C6B C 0.0238(5) 0.1936(7) 0.5997(3)
C7B C 0.4393(5) 0.2726(7) 0.5535(3)
H1B H 0.2110 -0.2862 0.6943
H2B H 0.4236 -0.1244 0.6404
H3B H 0.1367 0.4344 0.5377
H4B H -0.0786 0.2729 0.5891
H5B H 0.5402 0.1891 0.5652
loop_
_geom_bond_atom_site_label_1
_geom_bond_atom_site_label_2
_geom_bond_site_symmetry_1
_geom_bond_site_symmetry_2
I1 C1 1_555 1_555
N1 C7 1_555 1_555
C1 C2 1_555 1_555
C2 C3 1_555 1_555
C3 C4 1_555 1_555
C4 C5 1_555 1_555
C5 C6 1_555 1_555
C6 C1 1_555 1_555
C7 C4 1_555 1_555
H1 C2 1_555 1_555
H2 C3 1_555 1_555
H3 C5 1_555 1_555
H4 C6 1_555 1_555
H5 C7 1_555 1_555
I1B C1B 1_555 1_555
N1B N1 1_555 1_555
C1B C2B 1_555 1_555
C2B C3B 1_555 1_555
C3B C4B 1_555 1_555
C4B C5B 1_555 1_555
C5B C6B 1_555 1_555
C6B C1B 1_555 1_555
C7B N1B 1_555 1_555
H1B C2B 1_555 1_555
H2B C3B 1_555 1_555
H3B C5B 1_555 1_555
H4B C6B 1_555 1_555
H5B C7B 1_555 1_555
C4B C7B 1_555 1_555

#END
