
#######################################################################
#
#                 Cambridge Crystallographic Data Centre
#                                CCDC 
#
#######################################################################
#
# If this CIF has been generated from an entry in the Cambridge 
# Structural Database, then it will include bibliographic, chemical, 
# crystal, experimental, refinement or atomic coordinate data resulting 
# from the CCDC's data processing and validation procedures.
#
#######################################################################

data_DILBAD
_chemical_formula_moiety         'C22 H22 N2 O6'
_chemical_name_systematic        
"Diethyl 1'-methyl-2'-oxo-1',2'-dihydro-4H-spiro[1,4-benzoxazine-3,3'-indole]-2,2-dicarboxylate"
_symmetry_cell_setting           triclinic
_symmetry_space_group_name_H-M   'P -1'
_symmetry_Int_Tables_number      2
_space_group_name_Hall           '-P 1'
loop_
_symmetry_equiv_pos_site_id
_symmetry_equiv_pos_as_xyz
1 x,y,z
2 -x,-y,-z
_cell_length_a                   9.8998(9)
_cell_length_b                   9.9340(10)
_cell_length_c                   12.9646(13)
_cell_angle_alpha                77.809(6)
_cell_angle_beta                 72.314(6)
_cell_angle_gamma                60.139(5)
_cell_volume                     1050.69
_cell_formula_units_Z            2
loop_
_atom_site_label
_atom_site_type_symbol
_atom_site_fract_x
_atom_site_fract_y
_atom_site_fract_z
O1 O 0.58959(18) 0.3770(2) 0.34270(13)
N1 N 0.5727(2) 0.5634(2) 0.14230(16)
H1 H 0.5748 0.5976 0.0754
O2 O 0.3273(2) 0.5263(3) 0.08271(15)
O3 O 0.3652(2) 0.3020(2) 0.45347(15)
O4 O 0.1935(2) 0.4917(3) 0.35994(16)
C1 C 0.3448(3) 0.6989(3) 0.28940(19)
C2 C 0.3269(3) 0.4055(3) 0.3714(2)
C3 C 0.4301(3) 0.5632(3) 0.21861(18)
C4 C 0.7061(3) 0.5032(3) 0.1870(2)
C5 C 0.4749(3) 0.4031(3) 0.28645(18)
C6 C 0.7115(3) 0.4155(3) 0.2859(2)
C7 C 0.3096(3) 0.6071(4) 0.1494(2)
N2 N 0.1916(3) 0.7522(3) 0.17041(19)
C8 C 0.3806(3) 0.7279(3) 0.3745(2)
H2 H 0.4710 0.6541 0.3995
C9 C 0.8362(3) 0.3646(3) 0.3347(2)
H3 H 0.8348 0.3105 0.4027
C10 C 0.2064(3) 0.8091(3) 0.2545(2)
C11 C 0.8375(3) 0.5305(4) 0.1342(2)
H4 H 0.8380 0.5871 0.0672
O5 O 0.4413(3) 0.2236(3) 0.21619(18)
C12 C 0.9649(3) 0.4752(4) 0.1798(3)
H5 H 1.0526 0.4913 0.1426
O6 O 0.6825(3) 0.2139(3) 0.1613(2)
C13 C 0.5468(3) 0.2692(3) 0.2137(2)
C14 C 0.9639(3) 0.3948(4) 0.2815(3)
H6 H 1.0486 0.3615 0.3138
C15 C 0.2805(4) 0.8682(4) 0.4226(3)
H7 H 0.3041 0.8889 0.4798
C16 C 0.1049(4) 0.9511(4) 0.3024(3)
H8 H 0.0134 1.0249 0.2787
C17 C 0.1461(4) 0.9767(4) 0.3857(3)
H9 H 0.0812 1.0705 0.4183
C18 C 0.2312(4) 0.2838(5) 0.5322(3)
H10 H 0.1541 0.3815 0.5646
H11 H 0.1776 0.2563 0.4952
C19 C 0.0652(4) 0.8368(5) 0.1109(3)
H12 H 0.0818 0.7732 0.0573
H13 H 0.0678 0.9311 0.0758
H14 H -0.0370 0.8617 0.1605
C20 C 0.4906(8) 0.1140(8) 0.1362(5)
H15 H 0.4919 0.1707 0.0655
H16 H 0.6004 0.0364 0.1361
C21 C 0.2893(7) 0.1654(7) 0.6149(4)
H17 H 0.2014 0.1539 0.6655
H18 H 0.3407 0.1938 0.6522
H19 H 0.3651 0.0687 0.5826
C22 C 0.4239(19) 0.0530(15) 0.1433(7)
H20 H 0.4736 -0.0160 0.0859
H21 H 0.3162 0.1265 0.1381
H22 H 0.4221 -0.0062 0.2121
loop_
_geom_bond_atom_site_label_1
_geom_bond_atom_site_label_2
_geom_bond_site_symmetry_1
_geom_bond_site_symmetry_2
O1 C5 1_555 1_555
N1 H1 1_555 1_555
O2 C7 1_555 1_555
O3 C2 1_555 1_555
O4 C2 1_555 1_555
C1 C3 1_555 1_555
C2 C5 1_555 1_555
C3 N1 1_555 1_555
C4 N1 1_555 1_555
C5 C3 1_555 1_555
C6 O1 1_555 1_555
C7 C3 1_555 1_555
N2 C7 1_555 1_555
C8 C1 1_555 1_555
H2 C8 1_555 1_555
C9 C6 1_555 1_555
H3 C9 1_555 1_555
C10 C1 1_555 1_555
C11 C4 1_555 1_555
H4 C11 1_555 1_555
O5 C13 1_555 1_555
C12 C11 1_555 1_555
H5 C12 1_555 1_555
O6 C13 1_555 1_555
C13 C5 1_555 1_555
C14 C9 1_555 1_555
H6 C14 1_555 1_555
C15 C8 1_555 1_555
H7 C15 1_555 1_555
C16 C10 1_555 1_555
H8 C16 1_555 1_555
C17 C15 1_555 1_555
H9 C17 1_555 1_555
C18 O3 1_555 1_555
H10 C18 1_555 1_555
H11 C18 1_555 1_555
C19 N2 1_555 1_555
H12 C19 1_555 1_555
H13 C19 1_555 1_555
H14 C19 1_555 1_555
C20 O5 1_555 1_555
H15 C20 1_555 1_555
H16 C20 1_555 1_555
C21 C18 1_555 1_555
H17 C21 1_555 1_555
H18 C21 1_555 1_555
H19 C21 1_555 1_555
C22 C20 1_555 1_555
H20 C22 1_555 1_555
H21 C22 1_555 1_555
H22 C22 1_555 1_555
C4 C6 1_555 1_555
N2 C10 1_555 1_555
C12 C14 1_555 1_555
C16 C17 1_555 1_555

#END
