
#######################################################################
#
#                 Cambridge Crystallographic Data Centre
#                                CCDC 
#
#######################################################################
#
# If this CIF has been generated from an entry in the Cambridge 
# Structural Database, then it will include bibliographic, chemical, 
# crystal, experimental, refinement or atomic coordinate data resulting 
# from the CCDC's data processing and validation procedures.
#
#######################################################################

data_DILBEH
_chemical_formula_moiety         'C21 H20 N2 O5'
_chemical_name_systematic        
"Ethyl 2-acetyl-1'-methyl-2'-oxo-1',2'-dihydro-4H-spiro[1,4-benzoxazine-3,3'-indole]-2-carboxylate"
_symmetry_cell_setting           monoclinic
_symmetry_space_group_name_H-M   'P 21/c'
_symmetry_Int_Tables_number      14
_space_group_name_Hall           '-P 2ybc'
loop_
_symmetry_equiv_pos_site_id
_symmetry_equiv_pos_as_xyz
1 x,y,z
2 -x,1/2+y,1/2-z
3 -x,-y,-z
4 x,1/2-y,1/2+z
_cell_length_a                   15.985(2)
_cell_length_b                   10.0528(14)
_cell_length_c                   11.9983(19)
_cell_angle_alpha                90
_cell_angle_beta                 105.913(9)
_cell_angle_gamma                90
_cell_volume                     1854.17
_exptl_crystal_colour            colorless
_exptl_crystal_description       block
_cell_formula_units_Z            4
loop_
_atom_site_label
_atom_site_type_symbol
_atom_site_fract_x
_atom_site_fract_y
_atom_site_fract_z
O1 O 0.3165(3) 0.7576(6) 0.8515(4)
O2 O 0.3922(3) 1.0239(6) 0.7435(4)
O3 O 0.1343(3) 0.7959(5) 0.8677(4)
N1 N 0.1826(3) 0.7433(7) 0.6422(5)
H1 H 0.1501 0.7416 0.5721
O4 O 0.3701(3) 0.8313(6) 0.6516(5)
O5 O 0.3695(4) 0.9677(7) 0.9958(6)
N2 N 0.0696(3) 0.9634(6) 0.7449(5)
C1 C 0.2477(3) 1.0762(6) 0.8681(5)
H2 H 0.2619 1.1336 0.9346
H3 H 0.1901 1.0413 0.8571
H4 H 0.2502 1.1256 0.8007
C2 C 0.0880(4) 1.0326(8) 0.6555(6)
C3 C 0.1307(4) 0.8705(8) 0.7853(6)
C4 C 0.2952(5) 0.9925(9) 0.8821(5)
C5 C 0.2255(5) 0.6270(11) 0.6955(7)
C6 C 0.1619(4) 0.9816(7) 0.6272(6)
C7 C 0.1953(4) 0.8662(8) 0.7100(5)
C8 C 0.1887(4) 1.0327(8) 0.5373(6)
H5 H 0.2371 0.9977 0.5190
C9 C 0.3316(5) 0.5288(10) 0.8512(6)
H6 H 0.3749 0.5386 0.9205
C10 C 0.3538(4) 0.9093(9) 0.7182(6)
C11 C 0.2889(4) 0.8803(8) 0.7886(6)
C12 C 0.2893(5) 0.6390(10) 0.7938(6)
C13 C -0.0005(4) 0.9930(7) 0.7965(6)
H7 H 0.0003 0.9298 0.8567
H8 H -0.0552 0.9877 0.7382
H9 H 0.0071 1.0811 0.8286
C14 C 0.2018(5) 0.5029(11) 0.6435(7)
H10 H 0.1587 0.4945 0.5738
C15 C 0.2466(6) 0.3907(9) 0.7025(8)
H11 H 0.2329 0.3066 0.6703
C16 C 0.3088(5) 0.4023(10) 0.8042(7)
H12 H 0.3361 0.3270 0.8426
C17 C 0.1429(6) 1.1372(9) 0.4740(6)
H13 H 0.1611 1.1732 0.4131
C18 C 0.4598(5) 1.0593(9) 0.6906(8)
H14 H 0.5153 1.0618 0.7492
H15 H 0.4633 0.9926 0.6336
C19 C 0.0407(5) 1.1393(9) 0.5895(7)
C20 C 0.0698(5) 1.1891(7) 0.5002(7)
H16 H 0.0399 1.2592 0.4562
C21 C 0.4427(6) 1.1848(9) 0.6363(9)
H17 H 0.4879 1.2065 0.6009
H18 H 0.4406 1.2511 0.6931
H19 H 0.3878 1.1821 0.5782
H20 H -0.014(4) 1.155(5) 0.608(5)
loop_
_geom_bond_atom_site_label_1
_geom_bond_atom_site_label_2
_geom_bond_site_symmetry_1
_geom_bond_site_symmetry_2
O1 C11 1_555 1_555
O2 C10 1_555 1_555
O3 C3 1_555 1_555
N1 H1 1_555 1_555
O4 C10 1_555 1_555
O5 C4 1_555 1_555
N2 C2 1_555 1_555
C1 H2 1_555 1_555
H3 C1 1_555 1_555
H4 C1 1_555 1_555
C2 C6 1_555 1_555
C3 N2 1_555 1_555
C4 C1 1_555 1_555
C5 N1 1_555 1_555
C6 C7 1_555 1_555
C7 N1 1_555 1_555
C8 C6 1_555 1_555
H5 C8 1_555 1_555
C9 H6 1_555 1_555
C10 C11 1_555 1_555
C11 C4 1_555 1_555
C12 O1 1_555 1_555
C13 N2 1_555 1_555
H7 C13 1_555 1_555
H8 C13 1_555 1_555
H9 C13 1_555 1_555
C14 C5 1_555 1_555
H10 C14 1_555 1_555
C15 C14 1_555 1_555
H11 C15 1_555 1_555
C16 C9 1_555 1_555
H12 C16 1_555 1_555
C17 C8 1_555 1_555
H13 C17 1_555 1_555
C18 O2 1_555 1_555
H14 C18 1_555 1_555
H15 C18 1_555 1_555
C19 C2 1_555 1_555
C20 C17 1_555 1_555
H16 C20 1_555 1_555
C21 C18 1_555 1_555
H17 C21 1_555 1_555
H18 C21 1_555 1_555
H19 C21 1_555 1_555
H20 C19 1_555 1_555
C3 C7 1_555 1_555
C5 C12 1_555 1_555
C7 C11 1_555 1_555
C9 C12 1_555 1_555
C15 C16 1_555 1_555
C19 C20 1_555 1_555

#END
