
#######################################################################
#
#                 Cambridge Crystallographic Data Centre
#                                CCDC 
#
#######################################################################
#
# If this CIF has been generated from an entry in the Cambridge 
# Structural Database, then it will include bibliographic, chemical, 
# crystal, experimental, refinement or atomic coordinate data resulting 
# from the CCDC's data processing and validation procedures.
#
#######################################################################

data_DILFIN
_chemical_formula_moiety         'C2 H10 N2 2+,2(C7 H7 O3 S1 1-),H2 O1'
_chemical_name_systematic        
'Ethylenediammonium bis(p-methylbenzenesulfonate) monohydrate'
_symmetry_cell_setting           monoclinic
_symmetry_space_group_name_H-M   'P 21'
_symmetry_Int_Tables_number      4
_space_group_name_Hall           'P 2yb'
loop_
_symmetry_equiv_pos_site_id
_symmetry_equiv_pos_as_xyz
1 x,y,z
2 -x,1/2+y,-z
_cell_length_a                   12.649(2)
_cell_length_b                   7.727(1)
_cell_length_c                   11.295(2)
_cell_angle_alpha                90
_cell_angle_beta                 111.8(1)
_cell_angle_gamma                90
_cell_volume                     1025.01
_exptl_crystal_colour            colorless
_cell_formula_units_Z            2
loop_
_atom_site_label
_atom_site_type_symbol
_atom_site_fract_x
_atom_site_fract_y
_atom_site_fract_z
S1 S 0.1981(1) 0.0472 0.3949(2)
O1 O 0.1779(6) -0.1144(9) 0.3311(8)
O2 O 0.1971(6) 0.1908(11) 0.3088(7)
O3 O 0.1224(5) 0.0839(10) 0.4597(6)
C1 C 0.3391(6) 0.0447(13) 0.5116(7)
C2 C 0.3634(7) 0.1359(13) 0.6241(8)
C3 C 0.4723(8) 0.1332(13) 0.7096(8)
C4 C 0.5618(6) 0.0573(14) 0.6870(7)
C5 C 0.5322(7) -0.0306(14) 0.5696(8)
C6 C 0.4228(7) -0.0354(13) 0.4821(8)
C7 C 0.6806(9) 0.0658(19) 0.7791(11)
H1 H 0.298(8) 0.206(14) 0.644(9)
H2 H 0.490(8) 0.194(16) 0.801(10)
H3 H 0.598(8) -0.096(14) 0.548(9)
H4 H 0.403(8) -0.103(14) 0.393(9)
H5 H 0.684(9) -0.058(11) 0.736(11)
H6 H 0.738(8) 0.149(14) 0.758(11)
H7 H 0.705(8) 0.022(13) 0.855(12)
S2 S 0.8013(2) 0.0368(5) 0.2357(2)
O4 O 0.8393(8) -0.0645(27) 0.3441(17)
O5 O 0.8320(20) -0.0391(43) 0.1329(30)
O6 O 0.8417(10) 0.2087(16) 0.2639(19)
C8 C 0.6509(7) 0.0394(15) 0.1785(6)
C9 C 0.5942(8) 0.1179(14) 0.2460(10)
C10 C 0.4797(9) 0.1145(14) 0.2001(10)
C11 C 0.4152(7) 0.0395(18) 0.0894(8)
C12 C 0.4722(9) -0.0403(15) 0.0213(9)
C13 C 0.5905(7) -0.0348(13) 0.0641(8)
C14 C 0.2858(10) 0.0273(22) 0.0430(19)
H8 H 0.642(1) 0.182(1) 0.335(1)
H9 H 0.438(1) 0.170(1) 0.265(1)
H10 H 0.424(1) -0.108(2) -0.066(1)
H11 H 0.633(1) -0.090(1) 0.006(1)
H12 H 0.198(9) -0.013(2) -0.005(10)
H13 H 0.270(1) 0.126(2) -0.018(2)
H14 H 0.276(12) 0.107(20) 0.084(13)
N1 N -0.0024(8) 0.3692(11) 0.1683(8)
C15 C 0.0040(7) 0.5466(15) 0.2249(8)
C16 C 0.0163(11) 0.5198(12) 0.3595(10)
N2 N 0.0030(10) 0.6909(13) 0.4205(12)
H15 H -0.039(1) 0.364(1) 0.073(1)
H16 H 0.052(6) 0.348(10) 0.187(6)
H17 H -0.044(5) 0.312(8) 0.182(5)
H18 H -0.067(1) 0.614(2) 0.178(1)
H19 H 0.071(1) 0.610(2) 0.221(1)
H20 H -0.052(1) 0.460(1) 0.364(1)
H21 H 0.085(1) 0.448(1) 0.405(1)
H22 H 0.064(11) 0.783(18) 0.401(13)
H23 H 0.026(7) 0.660(11) 0.467(11)
O7 O 0.0162(7) -0.0463(13) 0.0710(7)
H24 H -0.036(9) -0.041(15) 0.086(10)
H25 H 0.041(7) 0.039(14) 0.115(8)
loop_
_geom_bond_atom_site_label_1
_geom_bond_atom_site_label_2
_geom_bond_site_symmetry_1
_geom_bond_site_symmetry_2
S1 O1 1_555 1_555
O2 S1 1_555 1_555
O3 S1 1_555 1_555
C1 S1 1_555 1_555
C2 C1 1_555 1_555
C3 C2 1_555 1_555
C4 C3 1_555 1_555
C5 C4 1_555 1_555
C6 C1 1_555 1_555
C7 C4 1_555 1_555
H1 C2 1_555 1_555
H2 C3 1_555 1_555
H3 C5 1_555 1_555
H4 C6 1_555 1_555
H5 C7 1_555 1_555
H6 C7 1_555 1_555
H7 C7 1_555 1_555
S2 O4 1_555 1_555
O5 S2 1_555 1_555
O6 S2 1_555 1_555
C8 S2 1_555 1_555
C9 C8 1_555 1_555
C10 C9 1_555 1_555
C11 C10 1_555 1_555
C12 C11 1_555 1_555
C13 C8 1_555 1_555
C14 C11 1_555 1_555
H8 C9 1_555 1_555
H9 C10 1_555 1_555
H10 C12 1_555 1_555
H11 C13 1_555 1_555
H12 C14 1_555 1_555
H13 C14 1_555 1_555
H14 C14 1_555 1_555
N1 C15 1_555 1_555
C15 C16 1_555 1_555
C16 N2 1_555 1_555
N2 H22 1_555 1_555
H15 N1 1_555 1_555
H16 N1 1_555 1_555
H17 N1 1_555 1_555
H18 C15 1_555 1_555
H19 C15 1_555 1_555
H20 C16 1_555 1_555
H21 C16 1_555 1_555
H23 N2 1_555 1_555
O7 H24 1_555 1_555
H25 O7 1_555 1_555
C5 C6 1_555 1_555
C12 C13 1_555 1_555

#END
