
#######################################################################
#
#                 Cambridge Crystallographic Data Centre
#                                CCDC 
#
#######################################################################
#
# If this CIF has been generated from an entry in the Cambridge 
# Structural Database, then it will include bibliographic, chemical, 
# crystal, experimental, refinement or atomic coordinate data resulting 
# from the CCDC's data processing and validation procedures.
#
#######################################################################

data_DILFIQ
_chemical_formula_moiety         'C20 H20 N2'
_chemical_name_systematic        
10-methyl-1,2,3,15a-tetrahydro-9H-indolo[1,2-c]pyrrolo[1,2-a][1,3]benzodiazepine
_symmetry_cell_setting           monoclinic
_symmetry_space_group_name_H-M   'P 21/n'
_symmetry_Int_Tables_number      14
_space_group_name_Hall           '-P 2yn'
loop_
_symmetry_equiv_pos_site_id
_symmetry_equiv_pos_as_xyz
1 x,y,z
2 1/2-x,1/2+y,1/2-z
3 -x,-y,-z
4 1/2+x,1/2-y,1/2+z
_cell_length_a                   9.4242(4)
_cell_length_b                   7.9644(3)
_cell_length_c                   19.9745(8)
_cell_angle_alpha                90
_cell_angle_beta                 99.582(2)
_cell_angle_gamma                90
_cell_volume                     1478.33
_exptl_crystal_colour            yellow
_exptl_crystal_description       block
_cell_formula_units_Z            4
loop_
_atom_site_label
_atom_site_type_symbol
_atom_site_fract_x
_atom_site_fract_y
_atom_site_fract_z
C1 C 0.90326(6) 0.42398(8) 0.05719(3)
C2 C 0.93488(7) 0.25805(8) 0.04162(3)
H1 H 1.0158 0.2038 0.0648
C3 C 0.84244(7) 0.17712(9) -0.00927(3)
H2 H 0.8617 0.0668 -0.0201
C4 C 0.72072(7) 0.25695(9) -0.04492(3)
H3 H 0.6607 0.1991 -0.0789
C5 C 0.68861(7) 0.42098(9) -0.03030(3)
H4 H 0.6077 0.4738 -0.0542
C6 C 0.78008(6) 0.50657(8) 0.02125(3)
C7 C 0.77547(6) 0.67318(8) 0.04806(3)
C8 C 0.89248(6) 0.68726(8) 0.09832(3)
C9 C 0.94038(7) 0.83001(8) 0.14550(3)
H5 H 0.8822 0.9277 0.1305
H6 H 1.0393 0.8571 0.1422
C10 C 1.09330(6) 0.52448(8) 0.16068(3)
H7 H 1.1506(6) 0.6277(8) 0.1585(3)
C11 C 1.18803(7) 0.36925(8) 0.16122(3)
H8 H 1.2868 0.3941 0.1811
H9 H 1.1859 0.3264 0.1156
C12 C 1.12124(8) 0.24379(8) 0.20475(3)
H10 H 1.0384 0.1884 0.1786
H11 H 1.1907 0.1596 0.2239
C13 C 1.07735(8) 0.35439(8) 0.25990(3)
H12 H 0.9940 0.3088 0.2762
H13 H 1.1555 0.3661 0.2979
C14 C 0.98039(6) 0.64763(8) 0.25557(3)
C15 C 0.93072(6) 0.79641(8) 0.21989(3)
C16 C 0.86636(7) 0.91986(9) 0.25427(3)
H14 H 0.8344 1.0177 0.2312
C17 C 0.84793(7) 0.90301(10) 0.32150(3)
H15 H 0.8041 0.9876 0.3429
C18 C 0.89611(7) 0.75807(9) 0.35602(3)
H16 H 0.8845 0.7445 0.4010
C19 C 0.96162(7) 0.63295(9) 0.32386(3)
H17 H 0.9941 0.5367 0.3480
C20 C 0.66212(7) 0.80215(9) 0.02474(4)
H18 H 0.6797 0.9005 0.0527
H19 H 0.5691 0.7572 0.0283
H20 H 0.6649 0.8313 -0.0217
N1 N 0.97204(5) 0.53887(6) 0.10412(2)
N2 N 1.04354(6) 0.51519(7) 0.22574(3)
loop_
_geom_bond_atom_site_label_1
_geom_bond_atom_site_label_2
_geom_bond_site_symmetry_1
_geom_bond_site_symmetry_2
C1 C2 1_555 1_555
C2 H1 1_555 1_555
C3 C2 1_555 1_555
H2 C3 1_555 1_555
C4 C3 1_555 1_555
H3 C4 1_555 1_555
C5 C4 1_555 1_555
H4 C5 1_555 1_555
C6 C1 1_555 1_555
C7 C6 1_555 1_555
C8 C7 1_555 1_555
C9 C8 1_555 1_555
H5 C9 1_555 1_555
H6 C9 1_555 1_555
C10 H7 1_555 1_555
C11 C10 1_555 1_555
H8 C11 1_555 1_555
H9 C11 1_555 1_555
C12 C11 1_555 1_555
H10 C12 1_555 1_555
H11 C12 1_555 1_555
C13 C12 1_555 1_555
H12 C13 1_555 1_555
H13 C13 1_555 1_555
C14 C15 1_555 1_555
C15 C9 1_555 1_555
C16 C15 1_555 1_555
H14 C16 1_555 1_555
C17 C16 1_555 1_555
H15 C17 1_555 1_555
C18 C17 1_555 1_555
H16 C18 1_555 1_555
C19 C14 1_555 1_555
H17 C19 1_555 1_555
C20 C7 1_555 1_555
H18 C20 1_555 1_555
H19 C20 1_555 1_555
H20 C20 1_555 1_555
N1 C1 1_555 1_555
N2 C10 1_555 1_555
C5 C6 1_555 1_555
C8 N1 1_555 1_555
C10 N1 1_555 1_555
C13 N2 1_555 1_555
C14 N2 1_555 1_555
C18 C19 1_555 1_555

#END
