
#######################################################################
#
#                 Cambridge Crystallographic Data Centre
#                                CCDC 
#
#######################################################################
#
# If this CIF has been generated from an entry in the Cambridge 
# Structural Database, then it will include bibliographic, chemical, 
# crystal, experimental, refinement or atomic coordinate data resulting 
# from the CCDC's data processing and validation procedures.
#
#######################################################################

data_DILFEJ
_chemical_compound_source        'liquor of Trichosanthin'
_chemical_formula_moiety         'C4 H9 N1 O4'
_chemical_name_systematic        \a-Hydroxymethyl-serine
_symmetry_cell_setting           triclinic
_symmetry_space_group_name_H-M   'P -1'
_symmetry_Int_Tables_number      2
_space_group_name_Hall           '-P 1'
loop_
_symmetry_equiv_pos_site_id
_symmetry_equiv_pos_as_xyz
1 x,y,z
2 -x,-y,-z
_cell_length_a                   7.935(1)
_cell_length_b                   7.935(1)
_cell_length_c                   19.029(2)
_cell_angle_alpha                98.81(1)
_cell_angle_beta                 98.97(1)
_cell_angle_gamma                90.10(1)
_cell_volume                     1169.13
_cell_formula_units_Z            8
loop_
_atom_site_label
_atom_site_type_symbol
_atom_site_fract_x
_atom_site_fract_y
_atom_site_fract_z
C1 C 0.3692(25) -0.1228(24) 0.0873(12)
C2 C 0.3640(25) 0.0636(22) 0.1249(10)
C3 C 0.2070(27) 0.0937(26) 0.1611(12)
C4 C 0.5256(27) 0.1060(26) 0.1808(11)
O1 O 0.3659(21) -0.2322(17) 0.1287(9)
O2 O 0.3829(21) -0.1508(18) 0.0230(8)
O3 O 0.6751(18) 0.1103(17) 0.1506(9)
O4 O 0.0572(18) 0.0875(18) 0.1097(9)
N1 N 0.3625(21) 0.1790(19) 0.0701(9)
C5 C 0.1287(24) 0.3128(24) -0.0885(11)
C6 C 0.1291(25) 0.4724(23) -0.1264(10)
C7 C 0.2863(4) 0.4775(3) -0.1631(2)
C8 C -0.0320(4) 0.4718(4) -0.1815(2)
O5 O 0.1374(3) 0.1734(2) -0.1297(1)
O6 O 0.1158(3) 0.3314(3) -0.0241(1)
O7 O -0.1800(3) 0.5024(3) -0.1494(1)
O8 O 0.4374(3) 0.5074(3) -0.1119(1)
N2 N 0.1323(3) 0.6267(3) -0.0705(1)
C9 C 0.3114(4) 0.6315(3) 0.4124(2)
C10 C 0.4704(3) 0.6360(3) 0.3749(1)
C11 C 0.4728(4) 0.7938(4) 0.3382(2)
C12 C 0.4722(4) 0.4758(4) 0.3196(2)
O9 O 0.1711(2) 0.6345(3) 0.3712(1)
O10 O 0.3325(3) 0.6183(3) 0.4775(1)
O11 O 0.4983(3) 0.3273(2) 0.3512(1)
O12 O 0.5047(3) 0.9435(2) 0.3894(1)
N3 N 0.6256(3) 0.6386(3) 0.4301(1)
C13 C 0.1207(3) 0.1279(3) 0.4106(2)
C14 C -0.0675(4) 0.1298(4) 0.3740(2)
C15 C -0.1002(4) 0.2865(4) 0.3372(2)
C16 C -0.1089(4) -0.0324(4) 0.3182(2)
O13 O 0.2275(3) 0.1359(3) 0.3689(1)
O14 O 0.1509(3) 0.1150(3) 0.4752(1)
O15 O -0.1158(3) -0.1801(2) 0.3502(1)
O16 O -0.0917(3) 0.4372(2) 0.3885(1)
N4 N -0.1799(3) 0.1320(3) 0.4297(1)
loop_
_geom_bond_atom_site_label_1
_geom_bond_atom_site_label_2
_geom_bond_site_symmetry_1
_geom_bond_site_symmetry_2
C1 C2 1_555 1_555
C2 C3 1_555 1_555
C3 O4 1_555 1_555
C4 C2 1_555 1_555
O1 C1 1_555 1_555
O2 C1 1_555 1_555
O3 C4 1_555 1_555
N1 C2 1_555 1_555
C5 C6 1_555 1_555
C6 C7 1_555 1_555
C7 O8 1_555 1_555
C8 C6 1_555 1_555
O5 C5 1_555 1_555
O6 C5 1_555 1_555
O7 C8 1_555 1_555
N2 C6 1_555 1_555
C9 C10 1_555 1_555
C10 C11 1_555 1_555
C11 O12 1_555 1_555
C12 C10 1_555 1_555
O9 C9 1_555 1_555
O10 C9 1_555 1_555
O11 C12 1_555 1_555
N3 C10 1_555 1_555
C13 C14 1_555 1_555
C14 C15 1_555 1_555
C15 O16 1_555 1_555
C16 C14 1_555 1_555
O13 C13 1_555 1_555
O14 C13 1_555 1_555
O15 C16 1_555 1_555
N4 C14 1_555 1_555

#END
