
#######################################################################
#
#                 Cambridge Crystallographic Data Centre
#                                CCDC 
#
#######################################################################
#
# If this CIF has been generated from an entry in the Cambridge 
# Structural Database, then it will include bibliographic, chemical, 
# crystal, experimental, refinement or atomic coordinate data resulting 
# from the CCDC's data processing and validation procedures.
#
#######################################################################

data_DILFEM
_chemical_formula_moiety         'C19 H18 N2'
_chemical_name_systematic        
1,2,3,9,10,14c-hexahydroindolo[3,2-c]pyrrolo[1,2-a][1]benzazepine
_symmetry_cell_setting           orthorhombic
_symmetry_space_group_name_H-M   'P b c a'
_symmetry_Int_Tables_number      61
_space_group_name_Hall           '-P 2ac 2ab'
loop_
_symmetry_equiv_pos_site_id
_symmetry_equiv_pos_as_xyz
1 x,y,z
2 1/2-x,-y,1/2+z
3 -x,1/2+y,1/2-z
4 1/2+x,1/2-y,-z
5 -x,-y,-z
6 1/2+x,y,1/2-z
7 x,1/2-y,1/2+z
8 1/2-x,1/2+y,z
_cell_length_a                   10.619(2)
_cell_length_b                   9.676(2)
_cell_length_c                   28.661(6)
_cell_angle_alpha                90
_cell_angle_beta                 90
_cell_angle_gamma                90
_cell_volume                     2944.9
_exptl_crystal_colour            yellow
_exptl_crystal_description       block
_cell_formula_units_Z            8
loop_
_atom_site_label
_atom_site_type_symbol
_atom_site_fract_x
_atom_site_fract_y
_atom_site_fract_z
C1 C 0.15226(8) 1.18810(8) 0.58872(3)
C2 C 0.16669(9) 1.30455(9) 0.56077(3)
H1 H 0.2465(8) 1.3643(8) 0.5621(2)
C3 C 0.06811(10) 1.33853(10) 0.53169(3)
H2 H 0.0790(8) 1.4242(10) 0.5105(3)
C4 C -0.04143(9) 1.25934(11) 0.53060(3)
H3 H -0.1068(8) 1.2842(9) 0.5104(3)
C5 C -0.05473(8) 1.14255(10) 0.55780(3)
H4 H -0.1253(7) 1.0833(8) 0.5562(2)
C6 C 0.04305(7) 1.10413(9) 0.58789(2)
C7 C 0.06299(6) 0.99568(8) 0.62172(2)
C8 C 0.17801(7) 1.01941(8) 0.64186(2)
C9 C -0.02733(7) 0.88154(9) 0.63274(3)
H5 H -0.0979(6) 0.9189(7) 0.6530(2)
C10 C -0.08416(9) 0.81109(11) 0.58924(3)
H6 H -0.0391(9) 0.8341(10) 0.5619(3)
H7 H -0.1752(9) 0.8415(10) 0.5868(3)
C11 C -0.07590(10) 0.65728(11) 0.59819(4)
H8 H -0.1533(9) 0.6077(11) 0.5897(3)
H9 H 0.0054(10) 0.6220(11) 0.5823(3)
C12 C -0.05378(8) 0.64711(9) 0.65020(4)
H10 H -0.1361(8) 0.6552(9) 0.6672(3)
H11 H -0.0083(9) 0.5577(9) 0.6602(3)
C13 C 0.24665(7) 0.94461(9) 0.67969(3)
H12 H 0.3002(7) 0.8722(8) 0.6659(2)
H13 H 0.3062(7) 1.0118(7) 0.6961(2)
C14 C 0.16683(7) 0.87774(8) 0.71689(2)
C15 C 0.06521(7) 0.78987(8) 0.70689(3)
C16 C 0.00496(8) 0.72119(10) 0.74339(3)
H14 H -0.0615(8) 0.6614(9) 0.7358(3)
C17 C 0.04294(9) 0.74104(10) 0.78923(3)
H15 H 0.0037(8) 0.6925(9) 0.8127(3)
C18 C 0.20197(8) 0.89664(9) 0.76347(3)
H16 H 0.2765(7) 0.9644(9) 0.7696(2)
C19 C 0.14074(9) 0.82906(9) 0.79957(3)
H17 H 0.1675(8) 0.8453(9) 0.8327(3)
N1 N 0.23264(6) 1.13375(7) 0.62164(2)
H18 H 0.3032(7) 1.1745(8) 0.6313(2)
N2 N 0.03064(6) 0.76500(7) 0.65913(2)
loop_
_geom_bond_atom_site_label_1
_geom_bond_atom_site_label_2
_geom_bond_site_symmetry_1
_geom_bond_site_symmetry_2
C1 C2 1_555 1_555
C2 H1 1_555 1_555
C3 C2 1_555 1_555
H2 C3 1_555 1_555
C4 C3 1_555 1_555
H3 C4 1_555 1_555
C5 C4 1_555 1_555
H4 C5 1_555 1_555
C6 C1 1_555 1_555
C7 C6 1_555 1_555
C8 C7 1_555 1_555
C9 C7 1_555 1_555
H5 C9 1_555 1_555
C10 C9 1_555 1_555
H6 C10 1_555 1_555
H7 C10 1_555 1_555
C11 C10 1_555 1_555
H8 C11 1_555 1_555
H9 C11 1_555 1_555
C12 C11 1_555 1_555
H10 C12 1_555 1_555
H11 C12 1_555 1_555
C13 C8 1_555 1_555
H12 C13 1_555 1_555
H13 C13 1_555 1_555
C14 C13 1_555 1_555
C15 C14 1_555 1_555
C16 C15 1_555 1_555
H14 C16 1_555 1_555
C17 C16 1_555 1_555
H15 C17 1_555 1_555
C18 C14 1_555 1_555
H16 C18 1_555 1_555
C19 C17 1_555 1_555
H17 C19 1_555 1_555
N1 C1 1_555 1_555
H18 N1 1_555 1_555
N2 C9 1_555 1_555
C5 C6 1_555 1_555
C8 N1 1_555 1_555
C12 N2 1_555 1_555
C15 N2 1_555 1_555
C18 C19 1_555 1_555

#END
