
#######################################################################
#
#                 Cambridge Crystallographic Data Centre
#                                CCDC 
#
#######################################################################
#
# If this CIF has been generated from an entry in the Cambridge 
# Structural Database, then it will include bibliographic, chemical, 
# crystal, experimental, refinement or atomic coordinate data resulting 
# from the CCDC's data processing and validation procedures.
#
#######################################################################

data_DILGAJ
_chemical_formula_moiety         'C38 H36 N4,0.5(C6 H14)'
_chemical_name_systematic        
'6,12-bis[2-(pyrrolidin-1-yl)phenyl]-5,6,11,12-tetrahydroindolo[3,2-b]carbazole hexane solvate'
_symmetry_cell_setting           monoclinic
_symmetry_space_group_name_H-M   'P 21/c'
_symmetry_Int_Tables_number      14
_space_group_name_Hall           '-P 2ybc'
loop_
_symmetry_equiv_pos_site_id
_symmetry_equiv_pos_as_xyz
1 x,y,z
2 -x,1/2+y,1/2-z
3 -x,-y,-z
4 x,1/2-y,1/2+z
_cell_length_a                   20.821(3)
_cell_length_b                   9.5022(12)
_cell_length_c                   17.881(2)
_cell_angle_alpha                90
_cell_angle_beta                 110.124(8)
_cell_angle_gamma                90
_cell_volume                     3321.7
_exptl_crystal_colour            yellow
_exptl_crystal_description       block
_cell_formula_units_Z            4
loop_
_atom_site_label
_atom_site_type_symbol
_atom_site_fract_x
_atom_site_fract_y
_atom_site_fract_z
N1 N 0.26027(17) 0.9701(3) 0.12925(19)
H1 H 0.2901 0.9901 0.1075
N2 N 0.10362(17) 0.5537(3) 0.30990(19)
C1 C 0.2521(2) 0.8409(4) 0.1602(2)
N3 N 0.23351(17) 0.4948(3) 0.28743(18)
H2 H 0.2063 0.4787 0.3134
C2 C 0.1070(2) 0.6721(4) 0.1890(2)
C3 C 0.2832(2) 0.6050(4) 0.2104(2)
N4 N 0.35279(18) 0.8659(4) 0.0495(2)
C4 C 0.2123(2) 1.0622(4) 0.1391(2)
C5 C 0.2004(2) 0.8479(4) 0.1907(2)
C6 C 0.1798(2) 0.7272(4) 0.2319(2)
H3 H 0.1827 0.7587 0.2851
C7 C 0.3185(2) 0.4746(4) 0.2367(2)
C8 C 0.2968(2) 0.7171(4) 0.1581(2)
H4 H 0.3447 0.7466 0.1822
C9 C 0.3136(2) 0.7392(4) 0.0215(3)
C10 C 0.2321(2) 0.6125(4) 0.2414(2)
C11 C 0.1736(2) 0.9884(4) 0.1772(2)
C12 C 0.2855(2) 0.6688(4) 0.0725(2)
C13 C 0.0716(2) 0.5869(4) 0.2271(2)
C14 C 0.1998(2) 1.2029(4) 0.1167(2)
H5 H 0.2261 1.2501 0.0918
C15 C 0.0747(2) 0.7011(4) 0.1084(2)
H6 H 0.0968 0.7584 0.0828
C16 C 0.1475(3) 1.2691(4) 0.1326(3)
H7 H 0.1379 1.3630 0.1184
C17 C 0.1212(2) 1.0581(4) 0.1927(2)
H8 H 0.0949 1.0123 0.2182
C18 C 0.0113(3) 0.6483(5) 0.0654(3)
H9 H -0.0089 0.6699 0.0117
C19 C 0.0083(2) 0.5335(4) 0.1826(3)
H10 H -0.0145 0.4760 0.2074
C20 C 0.3726(2) 0.4063(5) 0.2239(3)
H11 H 0.3956 0.4482 0.1933
C21 C -0.0221(2) 0.5628(5) 0.1028(3)
H12 H -0.0648 0.5253 0.0742
C22 C 0.2854(2) 0.4080(4) 0.2849(2)
C23 C 0.2335(2) 0.5036(5) -0.0342(3)
H13 H 0.2071 0.4235 -0.0524
C24 C 0.2996(2) 0.6918(5) -0.0558(3)
H14 H 0.3172 0.7401 -0.0896
C25 C 0.1085(2) 1.1978(4) 0.1696(3)
H15 H 0.0730 1.2448 0.1792
C26 C 0.2458(2) 0.5513(4) 0.0423(3)
H16 H 0.2268 0.5028 0.0748
C27 C 0.2599(3) 0.5740(5) -0.0831(3)
H17 H 0.2513 0.5427 -0.1349
C28 C 0.0814(3) 0.4247(5) 0.3399(3)
H18 H 0.0951 0.3410 0.3182
H19 H 0.0322 0.4235 0.3272
C29 C 0.3048(3) 0.2772(5) 0.3191(3)
H20 H 0.2829 0.2356 0.3509
C30 C 0.1036(3) 0.6641(5) 0.3671(3)
H21 H 0.0603 0.7140 0.3498
H22 H 0.1401 0.7311 0.3724
C31 C 0.3921(3) 0.2737(6) 0.2575(3)
H23 H 0.4279 0.2263 0.2487
C32 C 0.1178(3) 0.4354(6) 0.4272(3)
H24 H 0.1648 0.4039 0.4415
H25 H 0.0950 0.3799 0.4563
C33 C 0.3536(3) 0.9722(5) -0.0099(3)
H26 H 0.3089 1.0150 -0.0339
H27 H 0.3677 0.9312 -0.0515
C34 C 0.3581(3) 0.2113(5) 0.3043(3)
H28 H 0.3718 0.1227 0.3259
C35 C 0.1145(3) 0.5907(6) 0.4442(3)
H29 H 0.0770 0.6099 0.4632
H30 H 0.1568 0.6216 0.4843
C36 C 0.4249(3) 0.8496(5) 0.0990(3)
H31 H 0.4466 0.7791 0.0765
H32 H 0.4290 0.8209 0.1525
C37 C 0.4048(3) 1.0774(6) 0.0376(4)
H33 H 0.3837 1.1457 0.0622
H34 H 0.4259 1.1266 0.0045
C38 C 0.4572(3) 0.9881(6) 0.1005(4)
H35 H 0.4988 0.9786 0.0880
H36 H 0.4685 1.0309 0.1527
C39 C 0.4525(4) 0.8412(8) 0.3394(5)
H37 H 0.4730 0.8304 0.2991
H38 H 0.4090 0.8867 0.3169
H39 H 0.4464 0.7503 0.3594
C40 C 0.4840(5) 0.9612(9) 0.4691(4)
H40 H 0.4385 1.0018 0.4486
H41 H 0.4785 0.8713 0.4919
C41 C 0.4975(4) 0.9273(9) 0.4049(6)
H42 H 0.5414 0.8800 0.4232
H43 H 0.5043 1.0152 0.3812
C39B C 0.5475(4) 1.1588(8) 0.6606(5)
H37B H 0.5270 1.1696 0.7009
H38B H 0.5910 1.1133 0.6831
H39B H 0.5536 1.2497 0.6406
C40B C 0.5160(5) 1.0388(9) 0.5309(4)
H40B H 0.5615 0.9982 0.5514
H41B H 0.5215 1.1287 0.5081
C41B C 0.5025(4) 1.0727(9) 0.5951(6)
H42B H 0.4586 1.1200 0.5768
H43B H 0.4957 0.9848 0.6188
loop_
_geom_bond_atom_site_label_1
_geom_bond_atom_site_label_2
_geom_bond_site_symmetry_1
_geom_bond_site_symmetry_2
N1 H1 1_555 1_555
N2 C13 1_555 1_555
C1 N1 1_555 1_555
N3 H2 1_555 1_555
C2 C6 1_555 1_555
C3 C7 1_555 1_555
N4 C9 1_555 1_555
C4 N1 1_555 1_555
C5 C1 1_555 1_555
C6 C5 1_555 1_555
H3 C6 1_555 1_555
C7 C20 1_555 1_555
C8 C1 1_555 1_555
H4 C8 1_555 1_555
C9 C12 1_555 1_555
C10 N3 1_555 1_555
C11 C4 1_555 1_555
C12 C8 1_555 1_555
C13 C2 1_555 1_555
C14 C4 1_555 1_555
H5 C14 1_555 1_555
C15 C2 1_555 1_555
H6 C15 1_555 1_555
C16 C14 1_555 1_555
H7 C16 1_555 1_555
C17 C11 1_555 1_555
H8 C17 1_555 1_555
C18 C15 1_555 1_555
H9 C18 1_555 1_555
C19 C13 1_555 1_555
H10 C19 1_555 1_555
C20 H11 1_555 1_555
C21 C18 1_555 1_555
H12 C21 1_555 1_555
C22 N3 1_555 1_555
C23 H13 1_555 1_555
C24 C9 1_555 1_555
H14 C24 1_555 1_555
C25 C16 1_555 1_555
H15 C25 1_555 1_555
C26 C12 1_555 1_555
H16 C26 1_555 1_555
C27 C23 1_555 1_555
H17 C27 1_555 1_555
C28 N2 1_555 1_555
H18 C28 1_555 1_555
H19 C28 1_555 1_555
C29 C22 1_555 1_555
H20 C29 1_555 1_555
C30 N2 1_555 1_555
H21 C30 1_555 1_555
H22 C30 1_555 1_555
C31 C20 1_555 1_555
H23 C31 1_555 1_555
C32 C28 1_555 1_555
H24 C32 1_555 1_555
H25 C32 1_555 1_555
C33 N4 1_555 1_555
H26 C33 1_555 1_555
H27 C33 1_555 1_555
C34 C29 1_555 1_555
H28 C34 1_555 1_555
C35 C30 1_555 1_555
H29 C35 1_555 1_555
H30 C35 1_555 1_555
C36 N4 1_555 1_555
H31 C36 1_555 1_555
H32 C36 1_555 1_555
C37 C33 1_555 1_555
H33 C37 1_555 1_555
H34 C37 1_555 1_555
C38 C36 1_555 1_555
H35 C38 1_555 1_555
H36 C38 1_555 1_555
C39 H37 1_555 1_555
H38 C39 1_555 1_555
H39 C39 1_555 1_555
C40 H40 1_555 1_555
H41 C40 1_555 1_555
C41 C39 1_555 1_555
H42 C41 1_555 1_555
H43 C41 1_555 1_555
C39B H37B 1_555 1_555
H38B C39B 1_555 1_555
H39B C39B 1_555 1_555
C40B C40 1_555 1_555
H40B C40B 1_555 1_555
H41B C40B 1_555 1_555
C41B C39B 1_555 1_555
H42B C41B 1_555 1_555
H43B C41B 1_555 1_555
C3 C8 1_555 1_555
C3 C10 1_555 1_555
C5 C11 1_555 1_555
C6 C10 1_555 1_555
C7 C22 1_555 1_555
C17 C25 1_555 1_555
C19 C21 1_555 1_555
C23 C26 1_555 1_555
C24 C27 1_555 1_555
C31 C34 1_555 1_555
C32 C35 1_555 1_555
C37 C38 1_555 1_555
C40 C41 1_555 1_555
C40B C41B 1_555 1_555

#END
