
#######################################################################
#
#                 Cambridge Crystallographic Data Centre
#                                CCDC 
#
#######################################################################
#
# If this CIF has been generated from an entry in the Cambridge 
# Structural Database, then it will include bibliographic, chemical, 
# crystal, experimental, refinement or atomic coordinate data resulting 
# from the CCDC's data processing and validation procedures.
#
#######################################################################

data_DILGUC
_chemical_name_common            
'(mu!2$-eta$6!-eta$7!-26,28-bis(carboxymethoxy)-25,27-bis(carboxylatomethoxy)calix(4)arene)-aqua-di-potassium dihydrate'
_chemical_formula_moiety         'C36 H32 K2 O13,2(H2 O1)'
_chemical_name_systematic        
"(\m~2~-\h^6^-\h^7^-2,2'-((26,28-bis(carboxymethoxy)pentacyclo[19.3.1.1^3,7^.1^9,13^.1^15,19^]octacosa-1(25),3(28),4,6,9(27),10,12,15(26),16,18,21,23-dodecaene-25,27-diyl)bis(oxy))diacetato)-aqua-di-potassium dihydrate"
_symmetry_cell_setting           monoclinic
_symmetry_space_group_name_H-M   'P 21/n'
_symmetry_Int_Tables_number      14
_space_group_name_Hall           '-P 2yn'
loop_
_symmetry_equiv_pos_site_id
_symmetry_equiv_pos_as_xyz
1 x,y,z
2 1/2-x,1/2+y,1/2-z
3 -x,-y,-z
4 1/2+x,1/2-y,1/2+z
_cell_length_a                   12.3744(3)
_cell_length_b                   17.4418(5)
_cell_length_c                   16.2582(5)
_cell_angle_alpha                90
_cell_angle_beta                 94.469(2)
_cell_angle_gamma                90
_cell_volume                     3498.37
_exptl_crystal_colour            colorless
_exptl_crystal_description       block
_cell_formula_units_Z            4
loop_
_atom_site_label
_atom_site_type_symbol
_atom_site_fract_x
_atom_site_fract_y
_atom_site_fract_z
K1 K 0.76189(5) 0.14323(3) 0.68514(3)
K2 K 0.38010(4) 0.23369(3) 0.80422(3)
O1 O 0.55326(11) 0.19194(9) 0.57883(8)
O2 O 0.73841(15) 0.14241(14) 0.52206(11)
O3 O 0.66446(12) 0.13684(10) 0.39279(9)
H1 H 0.7363 0.1192 0.3738
O4 O 0.52921(10) 0.34629(8) 0.78360(8)
O5 O 0.34320(12) 0.37966(9) 0.84019(10)
O6 O 0.38161(13) 0.50428(9) 0.85725(11)
O7 O 0.72991(11) 0.14678(8) 0.85922(8)
O8 O 0.89711(13) 0.07247(12) 0.80063(10)
O9 O 0.99502(12) 0.08152(11) 0.92090(10)
H2 H 1.0653 0.0599 0.8894
O10 O 0.39386(11) 0.08243(8) 0.77847(9)
O11 O 0.22446(13) 0.13729(10) 0.84722(12)
O12 O 0.15151(13) 0.02137(10) 0.86077(12)
C1 C 0.45328(15) 0.21933(12) 0.60062(11)
C2 C 0.36910(16) 0.16712(13) 0.60990(12)
C3 C 0.26798(16) 0.19708(14) 0.62571(13)
H3 H 0.2087 0.1632 0.6306
C4 C 0.25284(17) 0.27522(14) 0.63428(13)
H4 H 0.1829 0.2946 0.6429
C5 C 0.33941(17) 0.32529(13) 0.63029(12)
H5 H 0.3292 0.3786 0.6391
C6 C 0.44184(16) 0.29794(12) 0.61342(11)
C7 C 0.62845(15) 0.33317(11) 0.75127(12)
C8 C 0.63439(16) 0.33714(11) 0.66577(12)
C9 C 0.73548(17) 0.32608(12) 0.63520(13)
H6 H 0.7421 0.3293 0.5775
C10 C 0.82623(17) 0.31055(12) 0.68767(14)
H7 H 0.8950 0.3051 0.6661
C11 C 0.81687(16) 0.30294(12) 0.77179(13)
H8 H 0.8790 0.2899 0.8071
C12 C 0.71776(15) 0.31408(11) 0.80519(12)
C13 C 0.64028(15) 0.16986(12) 0.90007(11)
C14 C 0.62954(15) 0.24653(12) 0.92178(11)
C15 C 0.54269(17) 0.26627(13) 0.96757(12)
H9 H 0.5342 0.3179 0.9845
C16 C 0.46895(17) 0.21145(14) 0.98847(13)
H10 H 0.4115 0.2253 1.0210
C17 C 0.47840(17) 0.13643(14) 0.96220(13)
H11 H 0.4257 0.0997 0.9753
C18 C 0.56414(16) 0.11386(12) 0.91669(12)
C19 C 0.48111(16) 0.05035(11) 0.74160(13)
C20 C 0.57012(17) 0.02485(12) 0.79222(13)
C21 C 0.65632(18) -0.00768(12) 0.75384(15)
H12 H 0.7177 -0.0263 0.7866
C22 C 0.65359(18) -0.01313(13) 0.66899(15)
H13 H 0.7119 -0.0367 0.6439
C23 C 0.56626(18) 0.01560(12) 0.62048(15)
H14 H 0.5663 0.0131 0.5621
C24 C 0.47787(16) 0.04831(12) 0.65582(13)
C25 C 0.53535(17) 0.35340(13) 0.60808(13)
H15 H 0.5572 0.3531 0.5508
H16 H 0.5093 0.4057 0.6196
C26 C 0.70846(16) 0.30714(12) 0.89735(12)
H17 H 0.7810 0.2953 0.9244
H18 H 0.6857 0.3573 0.9186
C27 C 0.57454(18) 0.03244(13) 0.88556(14)
H19 H 0.5155 0.0012 0.9061
H20 H 0.6441 0.0109 0.9093
C28 C 0.38368(17) 0.08129(13) 0.60229(13)
H21 H 0.3163 0.0557 0.6167
H22 H 0.3939 0.0689 0.5440
C29 C 0.55615(18) 0.18548(15) 0.49153(13)
H23 H 0.5458 0.2367 0.4659
H24 H 0.4964 0.1519 0.4692
C30 C 0.66352(17) 0.15236(13) 0.47033(13)
C31 C 0.51275(16) 0.42600(12) 0.80220(13)
H25 H 0.5169 0.4568 0.7514
H26 H 0.5710 0.4436 0.8431
C32 C 0.40414(16) 0.43853(12) 0.83620(12)
C33 C 0.81994(16) 0.12871(14) 0.91630(13)
H27 H 0.7963 0.0935 0.9591
H28 H 0.8477 0.1761 0.9439
C34 C 0.90885(16) 0.09147(12) 0.87195(13)
C35 C 0.31444(17) 0.02726(13) 0.79895(15)
H29 H 0.3484 -0.0113 0.8375
H30 H 0.2853 0.0003 0.7484
C36 C 0.22321(16) 0.06733(13) 0.83866(14)
O13 O 0.98124(17) 0.14625(13) 0.64700(13)
H31 H 1.0005 0.0956 0.6399
H32 H 1.0150 0.1717 0.6969
O14 O 0.06277(19) 0.23550(15) 0.79315(16)
H33 H 0.1156 0.1968 0.8167
H34 H 0.0966 0.2829 0.8119
O15 O 0.1516(2) 0.00446(15) 0.47070(14)
H35 H 0.1437 0.0102 0.5236
H36 H 0.1232 -0.0410 0.4560
loop_
_geom_bond_atom_site_label_1
_geom_bond_atom_site_label_2
_geom_bond_site_symmetry_1
_geom_bond_site_symmetry_2
K1 O1 1_555 1_555
K2 O4 1_555 1_555
O1 C1 1_555 1_555
O2 K1 1_555 1_555
O3 H1 1_555 1_555
O4 C7 1_555 1_555
O5 K2 1_555 1_555
O6 C32 1_555 1_555
O7 K1 1_555 1_555
O8 K1 1_555 1_555
O9 H2 1_555 1_555
O10 K2 1_555 1_555
O11 K2 1_555 1_555
O12 C36 1_555 1_555
C1 C2 1_555 1_555
C2 K2 1_555 1_555
C3 K2 1_555 1_555
H3 C3 1_555 1_555
C4 K2 1_555 1_555
H4 C4 1_555 1_555
C5 K2 1_555 1_555
H5 C5 1_555 1_555
C6 C1 1_555 1_555
C7 C8 1_555 1_555
C8 C9 1_555 1_555
C9 K1 1_555 1_555
H6 C9 1_555 1_555
C10 K1 1_555 1_555
H7 C10 1_555 1_555
C11 K1 1_555 1_555
H8 C11 1_555 1_555
C12 C7 1_555 1_555
C13 O7 1_555 1_555
C14 C13 1_555 1_555
C15 K2 1_555 1_555
H9 C15 1_555 1_555
C16 K2 1_555 1_555
H10 C16 1_555 1_555
C17 K2 1_555 1_555
H11 C17 1_555 1_555
C18 C13 1_555 1_555
C19 O10 1_555 1_555
C20 C19 1_555 1_555
C21 K1 1_555 1_555
H12 C21 1_555 1_555
C22 K1 1_555 1_555
H13 C22 1_555 1_555
C23 K1 1_555 1_555
H14 C23 1_555 1_555
C24 C19 1_555 1_555
C25 C6 1_555 1_555
H15 C25 1_555 1_555
H16 C25 1_555 1_555
C26 C12 1_555 1_555
H17 C26 1_555 1_555
H18 C26 1_555 1_555
C27 C18 1_555 1_555
H19 C27 1_555 1_555
H20 C27 1_555 1_555
C28 C2 1_555 1_555
H21 C28 1_555 1_555
H22 C28 1_555 1_555
C29 O1 1_555 1_555
H23 C29 1_555 1_555
H24 C29 1_555 1_555
C30 O2 1_555 1_555
C31 O4 1_555 1_555
H25 C31 1_555 1_555
H26 C31 1_555 1_555
C32 O5 1_555 1_555
C33 O7 1_555 1_555
H27 C33 1_555 1_555
H28 C33 1_555 1_555
C34 O8 1_555 1_555
C35 O10 1_555 1_555
H29 C35 1_555 1_555
H30 C35 1_555 1_555
C36 O11 1_555 1_555
O13 K1 1_555 1_555
H31 O13 1_555 1_555
H32 O13 1_555 1_555
O14 H33 1_555 1_555
H34 O14 1_555 1_555
O15 H35 1_555 1_555
H36 O15 1_555 1_555
O3 C30 1_555 1_555
O9 C34 1_555 1_555
C2 C3 1_555 1_555
C3 C4 1_555 1_555
C4 C5 1_555 1_555
C5 C6 1_555 1_555
C8 C25 1_555 1_555
C9 C10 1_555 1_555
C10 C11 1_555 1_555
C11 C12 1_555 1_555
C14 C15 1_555 1_555
C14 C26 1_555 1_555
C15 C16 1_555 1_555
C16 C17 1_555 1_555
C17 C18 1_555 1_555
C20 C21 1_555 1_555
C20 C27 1_555 1_555
C21 C22 1_555 1_555
C22 C23 1_555 1_555
C23 C24 1_555 1_555
C24 C28 1_555 1_555
C29 C30 1_555 1_555
C31 C32 1_555 1_555
C33 C34 1_555 1_555
C35 C36 1_555 1_555

#END
