
#######################################################################
#
#                 Cambridge Crystallographic Data Centre
#                                CCDC 
#
#######################################################################
#
# If this CIF has been generated from an entry in the Cambridge 
# Structural Database, then it will include bibliographic, chemical, 
# crystal, experimental, refinement or atomic coordinate data resulting 
# from the CCDC's data processing and validation procedures.
#
#######################################################################

data_DILJEO
_chemical_formula_moiety         'C31 H37 N3 O2'
_chemical_name_systematic        
3',6'-bis(Diethylamino)-2-propylspiro(isoindoline-1,9'-xanthen)-3-one
_symmetry_cell_setting           triclinic
_symmetry_space_group_name_H-M   'P -1'
_symmetry_Int_Tables_number      2
_space_group_name_Hall           '-P 1'
loop_
_symmetry_equiv_pos_site_id
_symmetry_equiv_pos_as_xyz
1 x,y,z
2 -x,-y,-z
_cell_length_a                   11.1697(4)
_cell_length_b                   11.8605(4)
_cell_length_c                   12.4512(4)
_cell_angle_alpha                82.838(3)
_cell_angle_beta                 64.605(2)
_cell_angle_gamma                65.588(2)
_cell_volume                     1354.13
_exptl_crystal_colour            white
_exptl_crystal_description       block
_chemical_melting_point          '482 K'
_cell_formula_units_Z            2
_exptl_crystal_recrystallization_method hexane/dichloromethane
loop_
_atom_site_label
_atom_site_type_symbol
_atom_site_fract_x
_atom_site_fract_y
_atom_site_fract_z
O1 O 0.6833(2) 0.94710(14) 0.39573(15)
C1 C 0.6694(2) 1.1572(2) 0.3635(2)
C2 C 0.6414(2) 1.0462(2) 0.2257(2)
C3 C 0.6604(2) 0.9467(2) 0.2956(2)
N1 N 0.5045(2) 1.27294(17) 0.26636(17)
C4 C 0.6599(3) 0.8367(2) 0.2691(2)
H1 H 0.6742 0.7713 0.3182
O2 O 0.4211(2) 1.44106(16) 0.16568(17)
C5 C 0.6385(2) 0.8222(2) 0.1706(2)
C6 C 0.6879(3) 1.0524(2) 0.4273(2)
C7 C 0.6199(3) 0.9239(2) 0.0986(3)
H2 H 0.6069 0.9181 0.0309
C8 C 0.6423(2) 1.16741(19) 0.2536(2)
C9 C 0.7147(3) 1.0421(2) 0.5268(2)
H3 H 0.7286 0.9685 0.5654
C10 C 0.7490(3) 1.2028(2) 0.1450(2)
C11 C 0.5201(3) 1.3512(2) 0.1766(2)
C12 C 0.6208(3) 1.0308(2) 0.1271(2)
H4 H 0.6069 1.0965 0.0782
C13 C 0.6769(3) 1.2555(2) 0.4076(2)
H5 H 0.6643 1.3284 0.3678
N2 N 0.6333(2) 0.71471(19) 0.1450(2)
C14 C 0.6758(3) 1.3061(2) 0.0986(2)
C15 C 0.7487(3) 1.3516(2) -0.0066(2)
H6 H 0.6987 1.4194 -0.0391
C16 C 0.7022(3) 1.2489(2) 0.5072(3)
H7 H 0.7066 1.3168 0.5329
C17 C 0.7214(3) 1.1418(3) 0.5705(2)
C18 C 0.8976(3) 1.1444(2) 0.0910(2)
H8 H 0.9473 1.0755 0.1228
N3 N 0.7448(3) 1.1347(2) 0.6709(2)
C19 C 0.6286(4) 0.6961(3) 0.0341(3)
H9 H 0.5562 0.7706 0.0218
H10 H 0.5978 0.6290 0.0417
C20 C 0.6551(3) 0.6089(3) 0.2187(3)
H11 H 0.6090 0.5593 0.2096
H12 H 0.6073 0.6394 0.3015
C21 C 0.9713(3) 1.1913(3) -0.0121(3)
H13 H 1.0718 1.1540 -0.0493
C22 C 0.8970(3) 1.2929(3) -0.0605(3)
H14 H 0.9484 1.3218 -0.1305
C23 C 0.3672(3) 1.2806(2) 0.3566(3)
H15 H 0.3801 1.2022 0.3939
H16 H 0.3024 1.2937 0.3192
C24 C 0.7497(4) 1.2395(3) 0.7168(3)
H17 H 0.7281 1.2307 0.8009
H18 H 0.6741 1.3151 0.7101
C25 C 0.8098(4) 0.5279(3) 0.1898(3)
H19 H 0.8156 0.4660 0.2470
H20 H 0.8585 0.5773 0.1923
H21 H 0.8551 0.4883 0.1116
C26 C 0.7645(4) 1.0192(4) 0.7386(3)
H22 H 0.7429 1.0394 0.8198
H23 H 0.6983 0.9848 0.7412
C27 C 0.8902(4) 1.2535(4) 0.6561(4)
H24 H 0.8822 1.3262 0.6899
H25 H 0.9135 1.2617 0.5726
H26 H 0.9651 1.1817 0.6668
C28 C 0.7684(4) 0.6666(3) -0.0731(3)
H27 H 0.7536 0.6651 -0.1433
H28 H 0.8374 0.5869 -0.0672
H29 H 0.8044 0.7287 -0.0779
C29 C 0.9134(5) 0.9280(5) 0.6809(4)
H30 H 0.9264 0.8558 0.7262
H31 H 0.9787 0.9632 0.6765
H32 H 0.9329 0.9051 0.6019
C30 C 0.2953(4) 1.3869(4) 0.4548(3)
H33 H 0.3551 1.3705 0.4977
H34 H 0.2887 1.4649 0.4177
C31 C 0.1492(5) 1.3971(5) 0.5393(4)
H35 H 0.1025 1.4693 0.5926
H36 H 0.1569 1.3245 0.5842
H37 H 0.0934 1.4041 0.4959
loop_
_geom_bond_atom_site_label_1
_geom_bond_atom_site_label_2
_geom_bond_site_symmetry_1
_geom_bond_site_symmetry_2
O1 C3 1_555 1_555
C1 C6 1_555 1_555
C2 C3 1_555 1_555
C3 C4 1_555 1_555
N1 C8 1_555 1_555
C4 H1 1_555 1_555
O2 C11 1_555 1_555
C5 C4 1_555 1_555
C6 O1 1_555 1_555
C7 C5 1_555 1_555
H2 C7 1_555 1_555
C8 C1 1_555 1_555
C9 C6 1_555 1_555
H3 C9 1_555 1_555
C10 C8 1_555 1_555
C11 N1 1_555 1_555
C12 C2 1_555 1_555
H4 C12 1_555 1_555
C13 C1 1_555 1_555
H5 C13 1_555 1_555
N2 C5 1_555 1_555
C14 C10 1_555 1_555
C15 C14 1_555 1_555
H6 C15 1_555 1_555
C16 C13 1_555 1_555
H7 C16 1_555 1_555
C17 C9 1_555 1_555
C18 C10 1_555 1_555
H8 C18 1_555 1_555
N3 C17 1_555 1_555
C19 N2 1_555 1_555
H9 C19 1_555 1_555
H10 C19 1_555 1_555
C20 N2 1_555 1_555
H11 C20 1_555 1_555
H12 C20 1_555 1_555
C21 C18 1_555 1_555
H13 C21 1_555 1_555
C22 C15 1_555 1_555
H14 C22 1_555 1_555
C23 N1 1_555 1_555
H15 C23 1_555 1_555
H16 C23 1_555 1_555
C24 N3 1_555 1_555
H17 C24 1_555 1_555
H18 C24 1_555 1_555
C25 C20 1_555 1_555
H19 C25 1_555 1_555
H20 C25 1_555 1_555
H21 C25 1_555 1_555
C26 N3 1_555 1_555
H22 C26 1_555 1_555
H23 C26 1_555 1_555
C27 C24 1_555 1_555
H24 C27 1_555 1_555
H25 C27 1_555 1_555
H26 C27 1_555 1_555
C28 C19 1_555 1_555
H27 C28 1_555 1_555
H28 C28 1_555 1_555
H29 C28 1_555 1_555
C29 C26 1_555 1_555
H30 C29 1_555 1_555
H31 C29 1_555 1_555
H32 C29 1_555 1_555
C30 C23 1_555 1_555
H33 C30 1_555 1_555
H34 C30 1_555 1_555
C31 C30 1_555 1_555
H35 C31 1_555 1_555
H36 C31 1_555 1_555
H37 C31 1_555 1_555
C2 C8 1_555 1_555
C7 C12 1_555 1_555
C11 C14 1_555 1_555
C16 C17 1_555 1_555
C21 C22 1_555 1_555

#END
