
#######################################################################
#
#                 Cambridge Crystallographic Data Centre
#                                CCDC 
#
#######################################################################
#
# If this CIF has been generated from an entry in the Cambridge 
# Structural Database, then it will include bibliographic, chemical, 
# crystal, experimental, refinement or atomic coordinate data resulting 
# from the CCDC's data processing and validation procedures.
#
#######################################################################

data_DILRIC
_chemical_formula_moiety         'C43 H40 O1 P2'
_chemical_name_systematic        
(9,9-dimethyl-9H-xanthene-4,5-diyl)bis[(2-ethylphenyl)(phenyl)phosphane]
_symmetry_cell_setting           orthorhombic
_symmetry_space_group_name_H-M   'P 21 21 21'
_symmetry_Int_Tables_number      19
_space_group_name_Hall           'P 2ac 2ab'
loop_
_symmetry_equiv_pos_site_id
_symmetry_equiv_pos_as_xyz
1 x,y,z
2 1/2+x,1/2-y,-z
3 -x,1/2+y,1/2-z
4 1/2-x,-y,1/2+z
_cell_length_a                   10.8031(3)
_cell_length_b                   11.2524(3)
_cell_length_c                   28.9524(7)
_cell_angle_alpha                90
_cell_angle_beta                 90
_cell_angle_gamma                90
_cell_volume                     3519.48
_exptl_crystal_colour            colorless
_exptl_crystal_description       prism
_cell_formula_units_Z            4
loop_
_atom_site_label
_atom_site_type_symbol
_atom_site_fract_x
_atom_site_fract_y
_atom_site_fract_z
C1 C 0.31238(17) 0.70919(16) 0.10842(6)
C2 C 0.31524(17) 0.68824(17) 0.06059(6)
C3 C 0.34087(18) 0.78362(18) 0.03186(7)
H1 H 0.3437 0.7720 -0.0006
C4 C 0.36243(18) 0.89584(18) 0.05000(7)
H2 H 0.3808 0.9604 0.0300
C5 C 0.35726(18) 0.91378(17) 0.09718(7)
H3 H 0.3714 0.9912 0.1092
C6 C 0.33181(17) 0.82092(17) 0.12750(6)
C7 C 0.32225(17) 0.84316(16) 0.17940(6)
C8 C 0.31516(16) 0.72483(17) 0.20485(6)
C9 C 0.32470(18) 0.72022(18) 0.25299(7)
H4 H 0.3412 0.7912 0.2697
C10 C 0.31072(18) 0.61469(19) 0.27686(6)
H5 H 0.3187 0.6136 0.3095
C11 C 0.28518(18) 0.51083(17) 0.25332(6)
H6 H 0.2731 0.4392 0.2701
C12 C 0.27688(16) 0.50963(16) 0.20510(6)
C13 C 0.29278(17) 0.61838(17) 0.18217(6)
C14 C 0.4357(2) 0.9145(2) 0.19587(7)
H7 H 0.4300 0.9275 0.2293
H8 H 0.4378 0.9914 0.1800
H9 H 0.5114 0.8701 0.1888
C15 C 0.2032(2) 0.91406(18) 0.18903(7)
H10 H 0.1314 0.8689 0.1780
H11 H 0.2070 0.9906 0.1729
H12 H 0.1952 0.9278 0.2223
C16 C 0.12290(19) 0.51811(19) 0.04958(6)
C17 C 0.0458(2) 0.6067(2) 0.06637(7)
H13 H 0.0782 0.6841 0.0716
C18 C -0.0782(2) 0.5841(2) 0.07565(7)
H14 H -0.1295 0.6452 0.0877
C19 C -0.1267(2) 0.4723(3) 0.06730(8)
H15 H -0.2116 0.4568 0.0733
C20 C -0.0513(3) 0.3837(2) 0.05031(9)
H16 H -0.0849 0.3072 0.0443
C21 C 0.0731(2) 0.4052(2) 0.04185(8)
H17 H 0.1245 0.3430 0.0308
C22 C 0.3004(2) 0.56013(18) -0.02287(6)
C23 C 0.1970(2) 0.5811(2) -0.05005(8)
H18 H 0.1175 0.5835 -0.0361
C24 C 0.2076(3) 0.5987(3) -0.09733(8)
H19 H 0.1356 0.6116 -0.1155
C25 C 0.3225(3) 0.5976(3) -0.11790(8)
H20 H 0.3301 0.6100 -0.1502
C26 C 0.4269(3) 0.5782(2) -0.09129(9)
H21 H 0.5058 0.5771 -0.1058
C27 C 0.4193(2) 0.5602(2) -0.04369(8)
C28 C 0.5382(2) 0.5431(2) -0.01675(9)
H22 H 0.6027 0.5965 -0.0294
H23 H 0.5241 0.5653 0.0159
C29 C 0.5833(3) 0.4159(3) -0.01910(12)
H24 H 0.5233 0.3638 -0.0038
H25 H 0.6636 0.4096 -0.0036
H26 H 0.5921 0.3921 -0.0515
C30 C 0.38674(18) 0.33584(16) 0.14539(6)
C31 C 0.3848(2) 0.24896(19) 0.11096(8)
H27 H 0.3083 0.2148 0.1017
C32 C 0.4941(2) 0.2122(2) 0.09014(8)
H28 H 0.4919 0.1522 0.0671
C33 C 0.6057(2) 0.2620(2) 0.10262(8)
H29 H 0.6803 0.2359 0.0885
C34 C 0.6084(2) 0.3505(2) 0.13588(8)
H30 H 0.6848 0.3865 0.1442
C35 C 0.49912(19) 0.3866(2) 0.15710(7)
H31 H 0.5017 0.4470 0.1800
C36 C 0.21948(19) 0.26788(16) 0.21718(6)
C37 C 0.3211(2) 0.22123(18) 0.24105(7)
H32 H 0.4025 0.2396 0.2310
C38 C 0.3044(3) 0.14836(19) 0.27925(8)
H33 H 0.3739 0.1178 0.2954
C39 C 0.1857(3) 0.1206(2) 0.29359(8)
H34 H 0.1735 0.0719 0.3200
C40 C 0.0850(3) 0.1635(2) 0.26953(9)
H35 H 0.0040 0.1422 0.2793
C41 C 0.0989(2) 0.23734(18) 0.23133(8)
C42 C -0.0136(2) 0.2778(2) 0.20529(10)
H36 H -0.0018 0.3611 0.1952
H37 H -0.0864 0.2752 0.2260
C43 C -0.0382(2) 0.2001(3) 0.16314(10)
H38 H 0.0313 0.2067 0.1416
H39 H -0.1144 0.2264 0.1479
H40 H -0.0474 0.1171 0.1729
O1 O 0.28475(13) 0.61089(11) 0.13469(4)
P1 P 0.29034(5) 0.53547(4) 0.04005(2)
P2 P 0.23655(4) 0.37798(4) 0.17037(2)
loop_
_geom_bond_atom_site_label_1
_geom_bond_atom_site_label_2
_geom_bond_site_symmetry_1
_geom_bond_site_symmetry_2
C1 C2 1_555 1_555
C2 C3 1_555 1_555
C3 H1 1_555 1_555
C4 C3 1_555 1_555
H2 C4 1_555 1_555
C5 C4 1_555 1_555
H3 C5 1_555 1_555
C6 C1 1_555 1_555
C7 C6 1_555 1_555
C8 C7 1_555 1_555
C9 C8 1_555 1_555
H4 C9 1_555 1_555
C10 C9 1_555 1_555
H5 C10 1_555 1_555
C11 C10 1_555 1_555
H6 C11 1_555 1_555
C12 C11 1_555 1_555
C13 C8 1_555 1_555
C14 C7 1_555 1_555
H7 C14 1_555 1_555
H8 C14 1_555 1_555
H9 C14 1_555 1_555
C15 C7 1_555 1_555
H10 C15 1_555 1_555
H11 C15 1_555 1_555
H12 C15 1_555 1_555
C16 C17 1_555 1_555
C17 H13 1_555 1_555
C18 C17 1_555 1_555
H14 C18 1_555 1_555
C19 C18 1_555 1_555
H15 C19 1_555 1_555
C20 C19 1_555 1_555
H16 C20 1_555 1_555
C21 C16 1_555 1_555
H17 C21 1_555 1_555
C22 C23 1_555 1_555
C23 H18 1_555 1_555
C24 C23 1_555 1_555
H19 C24 1_555 1_555
C25 C24 1_555 1_555
H20 C25 1_555 1_555
C26 C25 1_555 1_555
H21 C26 1_555 1_555
C27 C22 1_555 1_555
C28 C27 1_555 1_555
H22 C28 1_555 1_555
H23 C28 1_555 1_555
C29 C28 1_555 1_555
H24 C29 1_555 1_555
H25 C29 1_555 1_555
H26 C29 1_555 1_555
C30 C31 1_555 1_555
C31 H27 1_555 1_555
C32 C31 1_555 1_555
H28 C32 1_555 1_555
C33 C32 1_555 1_555
H29 C33 1_555 1_555
C34 C33 1_555 1_555
H30 C34 1_555 1_555
C35 C30 1_555 1_555
H31 C35 1_555 1_555
C36 C37 1_555 1_555
C37 H32 1_555 1_555
C38 C37 1_555 1_555
H33 C38 1_555 1_555
C39 C38 1_555 1_555
H34 C39 1_555 1_555
C40 C39 1_555 1_555
H35 C40 1_555 1_555
C41 C36 1_555 1_555
C42 C41 1_555 1_555
H36 C42 1_555 1_555
H37 C42 1_555 1_555
C43 C42 1_555 1_555
H38 C43 1_555 1_555
H39 C43 1_555 1_555
H40 C43 1_555 1_555
O1 C1 1_555 1_555
P1 C2 1_555 1_555
P2 C12 1_555 1_555
C5 C6 1_555 1_555
C12 C13 1_555 1_555
C13 O1 1_555 1_555
C16 P1 1_555 1_555
C20 C21 1_555 1_555
C22 P1 1_555 1_555
C26 C27 1_555 1_555
C30 P2 1_555 1_555
C34 C35 1_555 1_555
C36 P2 1_555 1_555
C40 C41 1_555 1_555

#END
