
#######################################################################
#
#                 Cambridge Crystallographic Data Centre
#                                CCDC 
#
#######################################################################
#
# If this CIF has been generated from an entry in the Cambridge 
# Structural Database, then it will include bibliographic, chemical, 
# crystal, experimental, refinement or atomic coordinate data resulting 
# from the CCDC's data processing and validation procedures.
#
#######################################################################

data_DILRUO
_chemical_formula_moiety         'C40 H36 O1 P2'
_chemical_name_systematic        
'[oxybis(2,1-phenylene)]bis[(2-ethylphenyl)(phenyl)phosphane]'
_symmetry_cell_setting           monoclinic
_symmetry_space_group_name_H-M   'P 21'
_symmetry_Int_Tables_number      4
_space_group_name_Hall           'P 2yb'
loop_
_symmetry_equiv_pos_site_id
_symmetry_equiv_pos_as_xyz
1 x,y,z
2 -x,1/2+y,-z
_cell_length_a                   13.8730(3)
_cell_length_b                   14.7710(3)
_cell_length_c                   16.7984(3)
_cell_angle_alpha                90
_cell_angle_beta                 109.4824(5)
_cell_angle_gamma                90
_cell_volume                     3245.2
_exptl_crystal_colour            colorless
_exptl_crystal_description       prism
_cell_formula_units_Z            4
loop_
_atom_site_label
_atom_site_type_symbol
_atom_site_fract_x
_atom_site_fract_y
_atom_site_fract_z
C1 C 0.7706(3) -0.0776(3) 0.3086(2)
C2 C 0.8343(3) -0.0139(3) 0.2911(2)
C3 C 0.8975(3) -0.0429(3) 0.2464(3)
H1 H 0.9432 -0.0010 0.2349
C4 C 0.8949(3) -0.1314(3) 0.2184(3)
H2 H 0.9388 -0.1500 0.1886
C5 C 0.8281(3) -0.1923(3) 0.2343(3)
H3 H 0.8248 -0.2526 0.2140
C6 C 0.7653(3) -0.1658(3) 0.2798(3)
H4 H 0.7194 -0.2077 0.2909
C7 C 0.6796(3) -0.1004(2) 0.4065(2)
C8 C 0.5829(3) -0.0843(2) 0.4118(2)
C9 C 0.5527(3) -0.1368(3) 0.4686(2)
H5 H 0.4870 -0.1277 0.4732
C10 C 0.6172(3) -0.2022(3) 0.5185(2)
H6 H 0.5952 -0.2379 0.5562
C11 C 0.7134(3) -0.2149(3) 0.5130(3)
H7 H 0.7579 -0.2590 0.5476
C12 C 0.7456(3) -0.1637(3) 0.4573(3)
H8 H 0.8120 -0.1720 0.4539
C13 C 0.8975(3) 0.1603(3) 0.2595(3)
C14 C 0.8489(3) 0.1841(3) 0.1744(3)
C15 C 0.9066(4) 0.2289(3) 0.1327(3)
H9 H 0.8744 0.2465 0.0756
C16 C 1.0078(4) 0.2484(3) 0.1712(3)
H10 H 1.0446 0.2795 0.1409
C17 C 1.0565(4) 0.2233(3) 0.2537(3)
H11 H 1.1272 0.2356 0.2803
C18 C 1.0013(3) 0.1796(3) 0.2979(3)
H12 H 1.0346 0.1627 0.3551
C19 C 0.7408(4) 0.1580(4) 0.1256(4)
H13 H 0.7234 0.1049 0.1542
H14 H 0.7393 0.1374 0.0691
C20 C 0.3802(3) -0.0168(2) 0.3620(2)
C21 C 0.3151(3) -0.0862(3) 0.3196(3)
H15 H 0.3342 -0.1238 0.2815
C22 C 0.2229(3) -0.1008(3) 0.3328(3)
H16 H 0.1797 -0.1490 0.3044
C23 C 0.1936(3) -0.0456(3) 0.3870(3)
H17 H 0.1296 -0.0548 0.3948
C24 C 0.2574(3) 0.0227(3) 0.4295(3)
H18 H 0.2379 0.0600 0.4677
C25 C 0.3503(3) 0.0375(3) 0.4171(3)
H19 H 0.3937 0.0851 0.4465
C26 C 0.5498(3) 0.1070(2) 0.3840(2)
C27 C 0.5287(3) 0.1851(3) 0.3330(2)
C28 C 0.5749(3) 0.2663(3) 0.3678(3)
H20 H 0.5621 0.3191 0.3335
C29 C 0.6389(3) 0.2723(3) 0.4506(3)
H21 H 0.6696 0.3284 0.4727
C30 C 0.6579(3) 0.1958(3) 0.5013(3)
H22 H 0.7007 0.1995 0.5586
C31 C 0.6142(3) 0.1137(3) 0.4678(2)
H23 H 0.6283 0.0612 0.5025
C32 C 0.4545(4) 0.1857(3) 0.2441(3)
H24 H 0.4574 0.1266 0.2172
H25 H 0.4751 0.2332 0.2113
C33 C 0.3458(4) 0.2034(4) 0.2412(3)
H26 H 0.3239 0.1548 0.2710
H27 H 0.3005 0.2054 0.1823
H28 H 0.3428 0.2615 0.2685
O1 O 0.7072(2) -0.04529(18) 0.3506(2)
P1 P 0.82074(9) 0.10583(7) 0.31695(8)
P2 P 0.49899(7) -0.00313(6) 0.33710(5)
C34 C 0.6562(7) 0.2263(7) 0.1124(12)
H29 H 0.5908 0.1988 0.0796
H30 H 0.6534 0.2460 0.1673
H31 H 0.6694 0.2787 0.0818
C35 C 0.9016(6) 0.1185(5) 0.4259(3)
C36 C 0.8977(6) 0.2027(5) 0.4616(4)
H32 H 0.8519 0.2478 0.4301
C37 C 0.9609(6) 0.2211(4) 0.5436(4)
H33 H 0.9583 0.2786 0.5680
C38 C 1.0279(5) 0.1552(5) 0.5898(3)
H34 H 1.0711 0.1677 0.6458
C39 C 1.0317(5) 0.0710(4) 0.5540(3)
H35 H 1.0775 0.0259 0.5856
C40 C 0.9685(5) 0.0526(4) 0.4721(4)
H36 H 0.9712 -0.0049 0.4476
C48 C 0.4231(3) 0.4469(2) 0.0173(2)
C49 C 0.5250(2) 0.4679(2) 0.0594(2)
C50 C 0.5858(2) 0.4871(2) 0.0098(2)
H47 H 0.6565 0.4996 0.0365
C51 C 0.5450(3) 0.4884(3) -0.0774(2)
H48 H 0.5876 0.5022 -0.1099
C52 C 0.4423(3) 0.4694(3) -0.1177(2)
H49 H 0.4140 0.4717 -0.1776
C53 C 0.3814(3) 0.4472(3) -0.0701(2)
H50 H 0.3114 0.4322 -0.0970
C54 C 0.2908(3) 0.3613(2) 0.0389(2)
C55 C 0.1893(3) 0.3802(2) 0.0297(2)
C56 C 0.1195(3) 0.3089(3) 0.0055(2)
H51 H 0.0495 0.3197 -0.0019
C57 C 0.1505(3) 0.2228(3) -0.0079(2)
H52 H 0.1019 0.1751 -0.0239
C58 C 0.2521(3) 0.2060(3) 0.0019(2)
H53 H 0.2731 0.1468 -0.0073
C59 C 0.3230(3) 0.2755(3) 0.0252(2)
H54 H 0.3927 0.2646 0.0317
C60 C 0.70770(11) 0.48097(15) 0.20466(15)
C61 C 0.75805(15) 0.55376(13) 0.18370(15)
H55 H 0.7204 0.6052 0.1562
C62 C 0.86354(16) 0.55129(15) 0.20293(17)
H56 H 0.8980 0.6010 0.1886
C63 C 0.91868(12) 0.47603(18) 0.24311(18)
H57 H 0.9908 0.4743 0.2563
C64 C 0.86832(16) 0.40324(14) 0.26408(17)
H58 H 0.9060 0.3518 0.2915
C65 C 0.76283(16) 0.40571(13) 0.24485(16)
H59 H 0.7284 0.3560 0.2592
C66 C 0.5363(2) 0.5930(2) 0.1885(2)
C67 C 0.5427(3) 0.6233(3) 0.2693(2)
C68 C 0.5218(3) 0.7141(3) 0.2795(3)
H60 H 0.5251 0.7349 0.3339
C69 C 0.4965(3) 0.7743(3) 0.2135(3)
H61 H 0.4839 0.8360 0.2225
C70 C 0.4896(3) 0.7447(3) 0.1337(3)
H62 H 0.4719 0.7858 0.0875
C71 C 0.5088(3) 0.6544(3) 0.1214(2)
H63 H 0.5032 0.6341 0.0664
C72 C 0.5664(3) 0.5607(3) 0.3441(2)
H64 H 0.5989 0.5954 0.3967
H65 H 0.6153 0.5137 0.3398
C73 C 0.4695(4) 0.5156(4) 0.3481(3)
H66 H 0.4219 0.5620 0.3542
H67 H 0.4868 0.4745 0.3967
H68 H 0.4374 0.4812 0.2961
C74 C 0.01719(12) 0.49579(17) -0.00615(13)
C75 C -0.02050(17) 0.52447(18) -0.08967(13)
H69 H 0.0249 0.5478 -0.1163
C76 C -0.12460(18) 0.5190(2) -0.13428(12)
H70 H -0.1504 0.5386 -0.1914
C77 C -0.19103(12) 0.4849(2) -0.09537(16)
H71 H -0.2622 0.4812 -0.1259
C78 C -0.15334(15) 0.4562(2) -0.01185(17)
H72 H -0.1987 0.4329 0.0147
C79 C -0.04923(17) 0.46167(18) 0.03277(12)
H73 H -0.0235 0.4421 0.0899
C80 C 0.1712(2) 0.5061(3) 0.1558(2)
C81 C 0.1528(3) 0.5902(3) 0.1878(2)
C82 C 0.1620(3) 0.5955(3) 0.2728(3)
H74 H 0.1476 0.6513 0.2947
C83 C 0.1912(3) 0.5223(3) 0.3258(3)
H75 H 0.1975 0.5281 0.3837
C84 C 0.2117(3) 0.4402(3) 0.2951(3)
H76 H 0.2329 0.3896 0.3316
C85 C 0.2009(3) 0.4327(3) 0.2099(2)
H77 H 0.2141 0.3763 0.1884
C86 C 0.1297(3) 0.6752(3) 0.1352(3)
H78 H 0.0874 0.7162 0.1565
H79 H 0.0903 0.6596 0.0760
C87 C 0.2280(4) 0.7233(3) 0.1385(4)
H80 H 0.2682 0.7367 0.1974
H81 H 0.2112 0.7799 0.1064
H82 H 0.2678 0.6842 0.1140
O2 O 0.36176(18) 0.43084(18) 0.06653(15)
P3 P 0.56694(6) 0.47327(6) 0.17568(5)
P4 P 0.15731(6) 0.49960(6) 0.04261(5)
H37? H 0.7059 0.1391 0.1656
H38? H 0.7413 0.1055 0.0891
C41? C 0.6812(17) 0.2341(10) 0.0714(16)
H39? H 0.6114 0.2138 0.0410
H40? H 0.6791 0.2859 0.1073
H41? H 0.7145 0.2522 0.0308
C42? C 0.9131(8) 0.1111(9) 0.4242(4)
C43? C 0.9219(8) 0.1928(7) 0.4671(6)
H42? H 0.8766 0.2413 0.4428
C44? C 0.9970(8) 0.2037(7) 0.5456(5)
H43? H 1.0030 0.2595 0.5749
C45? C 1.0633(7) 0.1328(8) 0.5811(4)
H44? H 1.1146 0.1402 0.6348
C46? C 1.0545(8) 0.0511(7) 0.5383(6)
H45? H 1.0998 0.0027 0.5626
C47? C 0.9794(9) 0.0403(7) 0.4598(6)
H46? H 0.9734 -0.0156 0.4305
loop_
_geom_bond_atom_site_label_1
_geom_bond_atom_site_label_2
_geom_bond_site_symmetry_1
_geom_bond_site_symmetry_2
C1 C2 1_555 1_555
C2 C3 1_555 1_555
C3 H1 1_555 1_555
C4 C3 1_555 1_555
H2 C4 1_555 1_555
C5 C4 1_555 1_555
H3 C5 1_555 1_555
C6 C1 1_555 1_555
H4 C6 1_555 1_555
C7 C8 1_555 1_555
C8 C9 1_555 1_555
C9 H5 1_555 1_555
C10 C9 1_555 1_555
H6 C10 1_555 1_555
C11 C10 1_555 1_555
H7 C11 1_555 1_555
C12 C7 1_555 1_555
H8 C12 1_555 1_555
C13 C14 1_555 1_555
C14 C15 1_555 1_555
C15 H9 1_555 1_555
C16 C15 1_555 1_555
H10 C16 1_555 1_555
C17 C16 1_555 1_555
H11 C17 1_555 1_555
C18 C13 1_555 1_555
H12 C18 1_555 1_555
C19 C14 1_555 1_555
H13 C19 1_555 1_555
H14 C19 1_555 1_555
C20 C21 1_555 1_555
C21 H15 1_555 1_555
C22 C21 1_555 1_555
H16 C22 1_555 1_555
C23 C22 1_555 1_555
H17 C23 1_555 1_555
C24 C23 1_555 1_555
H18 C24 1_555 1_555
C25 C20 1_555 1_555
H19 C25 1_555 1_555
C26 C27 1_555 1_555
C27 C28 1_555 1_555
C28 H20 1_555 1_555
C29 C28 1_555 1_555
H21 C29 1_555 1_555
C30 C29 1_555 1_555
H22 C30 1_555 1_555
C31 C26 1_555 1_555
H23 C31 1_555 1_555
C32 C27 1_555 1_555
H24 C32 1_555 1_555
H25 C32 1_555 1_555
C33 C32 1_555 1_555
H26 C33 1_555 1_555
H27 C33 1_555 1_555
H28 C33 1_555 1_555
O1 C1 1_555 1_555
P1 C2 1_555 1_555
P2 C8 1_555 1_555
C34 C19 1_555 1_555
H29 C34 1_555 1_555
H30 C34 1_555 1_555
H31 C34 1_555 1_555
C35 P1 1_555 1_555
C36 C35 1_555 1_555
H32 C36 1_555 1_555
C37 C36 1_555 1_555
H33 C37 1_555 1_555
C38 C37 1_555 1_555
H34 C38 1_555 1_555
C39 C38 1_555 1_555
H35 C39 1_555 1_555
C40 C35 1_555 1_555
H36 C40 1_555 1_555
C48 C49 1_555 1_555
C49 C50 1_555 1_555
C50 H47 1_555 1_555
C51 C50 1_555 1_555
H48 C51 1_555 1_555
C52 C51 1_555 1_555
H49 C52 1_555 1_555
C53 C48 1_555 1_555
H50 C53 1_555 1_555
C54 C55 1_555 1_555
C55 C56 1_555 1_555
C56 H51 1_555 1_555
C57 C56 1_555 1_555
H52 C57 1_555 1_555
C58 C57 1_555 1_555
H53 C58 1_555 1_555
C59 C54 1_555 1_555
H54 C59 1_555 1_555
C60 C61 1_555 1_555
C61 H55 1_555 1_555
C62 C61 1_555 1_555
H56 C62 1_555 1_555
C63 C62 1_555 1_555
H57 C63 1_555 1_555
C64 C63 1_555 1_555
H58 C64 1_555 1_555
C65 C60 1_555 1_555
H59 C65 1_555 1_555
C66 C67 1_555 1_555
C67 C68 1_555 1_555
C68 H60 1_555 1_555
C69 C68 1_555 1_555
H61 C69 1_555 1_555
C70 C69 1_555 1_555
H62 C70 1_555 1_555
C71 C66 1_555 1_555
H63 C71 1_555 1_555
C72 C67 1_555 1_555
H64 C72 1_555 1_555
H65 C72 1_555 1_555
C73 C72 1_555 1_555
H66 C73 1_555 1_555
H67 C73 1_555 1_555
H68 C73 1_555 1_555
C74 C75 1_555 1_555
C75 H69 1_555 1_555
C76 C75 1_555 1_555
H70 C76 1_555 1_555
C77 C76 1_555 1_555
H71 C77 1_555 1_555
C78 C77 1_555 1_555
H72 C78 1_555 1_555
C79 C74 1_555 1_555
H73 C79 1_555 1_555
C80 C81 1_555 1_555
C81 C82 1_555 1_555
C82 H74 1_555 1_555
C83 C82 1_555 1_555
H75 C83 1_555 1_555
C84 C83 1_555 1_555
H76 C84 1_555 1_555
C85 C80 1_555 1_555
H77 C85 1_555 1_555
C86 C81 1_555 1_555
H78 C86 1_555 1_555
H79 C86 1_555 1_555
C87 C86 1_555 1_555
H80 C87 1_555 1_555
H81 C87 1_555 1_555
H82 C87 1_555 1_555
O2 C48 1_555 1_555
P3 C49 1_555 1_555
P4 C55 1_555 1_555
C5 C6 1_555 1_555
C7 O1 1_555 1_555
C11 C12 1_555 1_555
C13 P1 1_555 1_555
C17 C18 1_555 1_555
C20 P2 1_555 1_555
C24 C25 1_555 1_555
C26 P2 1_555 1_555
C30 C31 1_555 1_555
C39 C40 1_555 1_555
C52 C53 1_555 1_555
C54 O2 1_555 1_555
C58 C59 1_555 1_555
C60 P3 1_555 1_555
C64 C65 1_555 1_555
C66 P3 1_555 1_555
C70 C71 1_555 1_555
C74 P4 1_555 1_555
C78 C79 1_555 1_555
C80 P4 1_555 1_555
C84 C85 1_555 1_555

#END
