
#######################################################################
#
#                 Cambridge Crystallographic Data Centre
#                                CCDC 
#
#######################################################################
#
# If this CIF has been generated from an entry in the Cambridge 
# Structural Database, then it will include bibliographic, chemical, 
# crystal, experimental, refinement or atomic coordinate data resulting 
# from the CCDC's data processing and validation procedures.
#
#######################################################################

data_DILSOI
_chemical_formula_moiety         'C27 H20 N2 O1,C6 H6 O1'
_chemical_name_systematic        
'1-(3-Phenyl-5-(pyren-1-yl)-4,5-dihydro-1H-pyrazol-1-yl)ethanone phenol'
_symmetry_cell_setting           orthorhombic
_symmetry_space_group_name_H-M   'P n a 21'
_symmetry_Int_Tables_number      33
_space_group_name_Hall           'P 2c -2n'
loop_
_symmetry_equiv_pos_site_id
_symmetry_equiv_pos_as_xyz
1 x,y,z
2 -x,-y,1/2+z
3 1/2+x,1/2-y,z
4 1/2-x,1/2+y,1/2+z
_cell_length_a                   28.067(6)
_cell_length_b                   9.837(2)
_cell_length_c                   9.1450(18)
_cell_angle_alpha                90
_cell_angle_beta                 90
_cell_angle_gamma                90
_cell_volume                     2524.89
_cell_formula_units_Z            4
loop_
_atom_site_label
_atom_site_type_symbol
_atom_site_fract_x
_atom_site_fract_y
_atom_site_fract_z
C1 C 0.6691(2) 0.6299(7) 0.0655(8)
O1 O 0.48885(16) 0.7286(4) 0.5429(5)
N1 N 0.43321(17) 0.6525(5) 0.3925(6)
N2 N 0.38587(18) 0.6444(5) 0.3463(6)
C2 C 0.7156(3) 0.5768(8) 0.0703(10)
H1 H 0.7394 0.6166 0.0142
C3 C 0.7262(3) 0.4662(9) 0.1573(11)
H2 H 0.7571 0.4319 0.1577
C4 C 0.6921(2) 0.4055(7) 0.2433(9)
H3 H 0.6999 0.3306 0.3004
C5 C 0.6457(2) 0.4569(7) 0.2446(8)
C6 C 0.63416(19) 0.5683(6) 0.1554(7)
C7 C 0.6094(2) 0.3951(6) 0.3321(8)
H4 H 0.6169 0.3212 0.3912
C8 C 0.5639(2) 0.4432(6) 0.3298(7)
H5 H 0.5408 0.4007 0.3867
C9 C 0.55059(19) 0.5580(6) 0.2416(6)
C10 C 0.5864(2) 0.6201(6) 0.1536(7)
C11 C 0.5757(2) 0.7321(6) 0.0646(7)
C12 C 0.6118(2) 0.7906(6) -0.0268(7)
H6 H 0.6045 0.8630 -0.0881
C13 C 0.6564(3) 0.7401(7) -0.0233(8)
H7 H 0.6796 0.7798 -0.0820
C14 C 0.50418(18) 0.6113(6) 0.2402(7)
C15 C 0.4947(2) 0.7218(6) 0.1492(7)
H8 H 0.4640 0.7572 0.1471
C16 C 0.5293(2) 0.7807(5) 0.0616(7)
H9 H 0.5214 0.8530 0.0007
C17 C 0.4637(2) 0.5469(6) 0.3276(7)
H10 H 0.4766 0.4878 0.4043
C18 C 0.42797(18) 0.4677(6) 0.2325(7)
H11 H 0.4369 0.4705 0.1301
H12 H 0.4255 0.3737 0.2635
C19 C 0.3823(2) 0.5428(6) 0.2587(7)
C20 C 0.3364(2) 0.5076(7) 0.1898(8)
C21 C 0.3331(2) 0.3952(8) 0.0988(9)
H13 H 0.3601 0.3431 0.0804
C22 C 0.2900(3) 0.3594(8) 0.0347(10)
H14 H 0.2879 0.2840 -0.0263
C23 C 0.2500(3) 0.4379(11) 0.0633(11)
H15 H 0.2208 0.4145 0.0225
C24 C 0.2536(3) 0.5491(9) 0.1508(11)
H16 H 0.2267 0.6025 0.1664
C25 C 0.2963(2) 0.5853(7) 0.2177(8)
H17 H 0.2978 0.6600 0.2798
C26 C 0.4470(2) 0.7371(7) 0.4982(8)
C27 C 0.4130(2) 0.8379(6) 0.5572(8)
H18 H 0.4282 0.8906 0.6321
H19 H 0.3859 0.7916 0.5979
H20 H 0.4026 0.8970 0.4800
O2 O 0.45760(16) 0.0845(5) 0.1791(6)
H21 H 0.477(2) 0.153(7) 0.121(8)
C28 C 0.4205(3) 0.0503(7) 0.0893(8)
C29 C 0.3880(2) -0.0435(6) 0.1434(8)
H22 H 0.3917 -0.0812 0.2359
C30 C 0.3495(2) -0.0794(6) 0.0551(9)
H23 H 0.3280 -0.1441 0.0887
C31 C 0.3427(2) -0.0226(7) -0.0784(9)
H24 H 0.3165 -0.0468 -0.1350
C32 C 0.3747(2) 0.0701(7) -0.1285(9)
H25 H 0.3700 0.1098 -0.2196
C33 C 0.4142(2) 0.1065(6) -0.0463(8)
H26 H 0.4361 0.1686 -0.0829
loop_
_geom_bond_atom_site_label_1
_geom_bond_atom_site_label_2
_geom_bond_site_symmetry_1
_geom_bond_site_symmetry_2
C1 C2 1_555 1_555
O1 C26 1_555 1_555
N1 N2 1_555 1_555
N2 C19 1_555 1_555
C2 H1 1_555 1_555
C3 C2 1_555 1_555
H2 C3 1_555 1_555
C4 C3 1_555 1_555
H3 C4 1_555 1_555
C5 C4 1_555 1_555
C6 C1 1_555 1_555
C7 C5 1_555 1_555
H4 C7 1_555 1_555
C8 C7 1_555 1_555
H5 C8 1_555 1_555
C9 C8 1_555 1_555
C10 C6 1_555 1_555
C11 C10 1_555 1_555
C12 C11 1_555 1_555
H6 C12 1_555 1_555
C13 C1 1_555 1_555
H7 C13 1_555 1_555
C14 C9 1_555 1_555
C15 C14 1_555 1_555
H8 C15 1_555 1_555
C16 C11 1_555 1_555
H9 C16 1_555 1_555
C17 N1 1_555 1_555
H10 C17 1_555 1_555
C18 C17 1_555 1_555
H11 C18 1_555 1_555
H12 C18 1_555 1_555
C19 C18 1_555 1_555
C20 C19 1_555 1_555
C21 C20 1_555 1_555
H13 C21 1_555 1_555
C22 C21 1_555 1_555
H14 C22 1_555 1_555
C23 C22 1_555 1_555
H15 C23 1_555 1_555
C24 C23 1_555 1_555
H16 C24 1_555 1_555
C25 C20 1_555 1_555
H17 C25 1_555 1_555
C26 N1 1_555 1_555
C27 C26 1_555 1_555
H18 C27 1_555 1_555
H19 C27 1_555 1_555
H20 C27 1_555 1_555
O2 H21 1_555 1_555
C28 O2 1_555 1_555
C29 C28 1_555 1_555
H22 C29 1_555 1_555
C30 C29 1_555 1_555
H23 C30 1_555 1_555
C31 C30 1_555 1_555
H24 C31 1_555 1_555
C32 C31 1_555 1_555
H25 C32 1_555 1_555
C33 C28 1_555 1_555
H26 C33 1_555 1_555
C5 C6 1_555 1_555
C9 C10 1_555 1_555
C12 C13 1_555 1_555
C14 C17 1_555 1_555
C15 C16 1_555 1_555
C24 C25 1_555 1_555
C32 C33 1_555 1_555

#END
