
#######################################################################
#
#                 Cambridge Crystallographic Data Centre
#                                CCDC 
#
#######################################################################
#
# If this CIF has been generated from an entry in the Cambridge 
# Structural Database, then it will include bibliographic, chemical, 
# crystal, experimental, refinement or atomic coordinate data resulting 
# from the CCDC's data processing and validation procedures.
#
#######################################################################

data_DILVIG
_chemical_formula_moiety         'C26 H40 O9,H2 O1'
_chemical_name_systematic        
'6,7-dihydroxy-3,3,7-trimethyl-11-methylidene-2-{[3,4,5-trihydroxy-6-(hydroxymethyl)oxan-2-yl]oxy}dodecahydro-5a,8-methanocyclohepta[b]naphthalen-4(1H)-one monohydrate'
_symmetry_cell_setting           orthorhombic
_symmetry_space_group_name_H-M   'P 21 21 21'
_symmetry_Int_Tables_number      19
_space_group_name_Hall           'P 2ac 2ab'
loop_
_symmetry_equiv_pos_site_id
_symmetry_equiv_pos_as_xyz
1 x,y,z
2 1/2-x,-y,1/2+z
3 -x,1/2+y,1/2-z
4 1/2+x,1/2-y,-z
_cell_length_a                   5.8950(3)
_cell_length_b                   17.8640(8)
_cell_length_c                   24.4588(12)
_cell_angle_alpha                90
_cell_angle_beta                 90
_cell_angle_gamma                90
_cell_volume                     2575.71
_exptl_crystal_colour            colorless
_exptl_crystal_description       block
_cell_formula_units_Z            4
loop_
_atom_site_label
_atom_site_type_symbol
_atom_site_fract_x
_atom_site_fract_y
_atom_site_fract_z
C1 C 0.2871(5) 0.56915(16) 0.76091(11)
H1 H 0.4464 0.5790 0.7698
C2 C 0.1572(5) 0.56596(17) 0.81508(11)
H2 H 0.1687 0.6140 0.8333
H3 H -0.0019 0.5565 0.8077
C3 C 0.2488(5) 0.50510(18) 0.85261(12)
H4 H 0.1561 0.5040 0.8859
C4 C 0.2425(5) 0.42676(17) 0.82599(13)
C5 C 0.3521(5) 0.43000(16) 0.76936(12)
C6 C 0.2782(5) 0.49218(17) 0.73103(12)
H5 H 0.1196 0.4827 0.7212
C7 C 0.4145(5) 0.49322(16) 0.67826(11)
H6 H 0.3951 0.4457 0.6597
H7 H 0.5741 0.4985 0.6871
C8 C 0.3455(5) 0.55629(16) 0.63958(11)
C9 C 0.3591(5) 0.63240(16) 0.67034(12)
H8 H 0.5163 0.6382 0.6827
C10 C 0.2121(6) 0.62951(16) 0.72148(12)
C11 C 0.3090(7) 0.69839(18) 0.63188(13)
H9 H 0.2760 0.7423 0.6538
H10 H 0.4443 0.7091 0.6107
C12 C 0.1116(7) 0.68524(18) 0.59253(13)
H11 H 0.1201 0.7212 0.5629
H12 H -0.0303 0.6933 0.6117
C13 C 0.1139(6) 0.60591(18) 0.56874(13)
H13 H -0.0161 0.5988 0.5443
C14 C 0.1065(6) 0.54871(17) 0.61510(13)
H14 H 0.0798 0.4986 0.6013
H15 H -0.0096 0.5612 0.6417
C15 C 0.4952(6) 0.55958(17) 0.58723(11)
H16 H 0.6147 0.5972 0.5920
C16 C 0.3339(6) 0.58374(18) 0.53942(12)
C17 C 0.4390(8) 0.6432(2) 0.50243(14)
H17 H 0.5635 0.6218 0.4825
H18 H 0.4927 0.6842 0.5243
H19 H 0.3267 0.6611 0.4772
C18 C 0.3632(7) 0.3691(2) 0.86189(14)
H20 H 0.3422 0.3200 0.8467
H21 H 0.3009 0.3706 0.8981
H22 H 0.5223 0.3804 0.8634
C19 C -0.0074(7) 0.4026(2) 0.81861(19)
H23 H -0.0862 0.4393 0.7972
H24 H -0.0784 0.3982 0.8538
H25 H -0.0128 0.3551 0.8003
C20 C 0.0340(8) 0.6725(2) 0.73105(15)
H26 H -0.0499 0.6661 0.7629
H27 H -0.0074 0.7091 0.7059
O1 O 0.4903(5) 0.38362(13) 0.75570(10)
O2 O 0.5956(4) 0.48800(13) 0.57657(9)
H28 H 0.6691 0.4900 0.5481
O3 O 0.2782(4) 0.52034(13) 0.50549(9)
H29 H 0.3760 0.4880 0.5090
O4 O 0.4810(4) 0.51873(11) 0.86794(8)
C21 C 0.5160(5) 0.58266(16) 0.89999(11)
H30 H 0.3805 0.5939 0.9217
C22 C 0.7167(5) 0.56993(17) 0.93665(11)
H31 H 0.8413 0.5511 0.9140
C23 C 0.7974(5) 0.64226(17) 0.96402(12)
H32 H 0.6938 0.6544 0.9941
C24 C 0.8068(6) 0.70828(17) 0.92515(12)
H33 H 0.9366 0.7024 0.9005
C25 C 0.5903(6) 0.71230(16) 0.89170(13)
H34 H 0.4603 0.7205 0.9159
C26 C 0.5980(7) 0.77281(19) 0.84860(15)
H35 H 0.6418 0.8200 0.8651
H36 H 0.7094 0.7601 0.8209
O5 O 0.5645(4) 0.64260(11) 0.86329(8)
O6 O 0.6695(4) 0.51446(14) 0.97768(10)
H37 H 0.5319 0.5106 0.9817
O7 O 1.0166(4) 0.62663(13) 0.98620(10)
H38 H 1.0670 0.6644 1.0009
O8 O 0.8369(4) 0.77427(12) 0.95728(9)
H39 H 0.9097 0.8052 0.9398
O9 O 0.3802(5) 0.77969(14) 0.82427(10)
H40 H 0.3885 0.8069 0.7974
O10 O 0.1063(5) 0.86160(16) 0.89206(14)
H41 H 0.1875 0.8344 0.8713
H42 H 0.1890 0.8995 0.8986
loop_
_geom_bond_atom_site_label_1
_geom_bond_atom_site_label_2
_geom_bond_site_symmetry_1
_geom_bond_site_symmetry_2
C1 H1 1_555 1_555
C2 C1 1_555 1_555
H2 C2 1_555 1_555
H3 C2 1_555 1_555
C3 C2 1_555 1_555
H4 C3 1_555 1_555
C4 C3 1_555 1_555
C5 C4 1_555 1_555
C6 C1 1_555 1_555
H5 C6 1_555 1_555
C7 C6 1_555 1_555
H6 C7 1_555 1_555
H7 C7 1_555 1_555
C8 C7 1_555 1_555
C9 C8 1_555 1_555
H8 C9 1_555 1_555
C10 C1 1_555 1_555
C11 C9 1_555 1_555
H9 C11 1_555 1_555
H10 C11 1_555 1_555
C12 C11 1_555 1_555
H11 C12 1_555 1_555
H12 C12 1_555 1_555
C13 C12 1_555 1_555
H13 C13 1_555 1_555
C14 C8 1_555 1_555
H14 C14 1_555 1_555
H15 C14 1_555 1_555
C15 C8 1_555 1_555
H16 C15 1_555 1_555
C16 C13 1_555 1_555
C17 C16 1_555 1_555
H17 C17 1_555 1_555
H18 C17 1_555 1_555
H19 C17 1_555 1_555
C18 C4 1_555 1_555
H20 C18 1_555 1_555
H21 C18 1_555 1_555
H22 C18 1_555 1_555
C19 C4 1_555 1_555
H23 C19 1_555 1_555
H24 C19 1_555 1_555
H25 C19 1_555 1_555
C20 C10 1_555 1_555
H26 C20 1_555 1_555
H27 C20 1_555 1_555
O1 C5 1_555 1_555
O2 C15 1_555 1_555
H28 O2 1_555 1_555
O3 C16 1_555 1_555
H29 O3 1_555 1_555
O4 C3 1_555 1_555
C21 O4 1_555 1_555
H30 C21 1_555 1_555
C22 C21 1_555 1_555
H31 C22 1_555 1_555
C23 C22 1_555 1_555
H32 C23 1_555 1_555
C24 C23 1_555 1_555
H33 C24 1_555 1_555
C25 C24 1_555 1_555
H34 C25 1_555 1_555
C26 C25 1_555 1_555
H35 C26 1_555 1_555
H36 C26 1_555 1_555
O5 C21 1_555 1_555
O6 C22 1_555 1_555
H37 O6 1_555 1_555
O7 C23 1_555 1_555
H38 O7 1_555 1_555
O8 C24 1_555 1_555
H39 O8 1_555 1_555
O9 C26 1_555 1_555
H40 O9 1_555 1_555
O10 H41 1_555 1_555
H42 O10 1_555 1_555
C5 C6 1_555 1_555
C9 C10 1_555 1_555
C13 C14 1_555 1_555
C15 C16 1_555 1_555
C25 O5 1_555 1_555

#END
