
#######################################################################
#
#                 Cambridge Crystallographic Data Centre
#                                CCDC 
#
#######################################################################
#
# If this CIF has been generated from an entry in the Cambridge 
# Structural Database, then it will include bibliographic, chemical, 
# crystal, experimental, refinement or atomic coordinate data resulting 
# from the CCDC's data processing and validation procedures.
#
#######################################################################

data_DILXAX
_chemical_formula_moiety         'C8 H15 N1 O2 S1'
_chemical_name_systematic        
'(S)-2,2,5,5-Tetramethylthiazolidine-4-carboxylic acid'
_symmetry_cell_setting           monoclinic
_symmetry_space_group_name_H-M   'P 21'
_symmetry_Int_Tables_number      4
_space_group_name_Hall           'P 2yb'
loop_
_symmetry_equiv_pos_site_id
_symmetry_equiv_pos_as_xyz
1 x,y,z
2 -x,1/2+y,-z
_cell_length_a                   11.351(4)
_cell_length_b                   8.303(2)
_cell_length_c                   11.969(3)
_cell_angle_alpha                90
_cell_angle_beta                 116.69(2)
_cell_angle_gamma                90
_cell_volume                     1007.85
_exptl_crystal_colour            white
_chemical_melting_point          172-174deg.C(dec.)
_cell_formula_units_Z            4
loop_
_atom_site_label
_atom_site_type_symbol
_atom_site_fract_x
_atom_site_fract_y
_atom_site_fract_z
S1 S 0.1208(2) 0.0000 0.0303(2)
C1 C 0.2388(6) 0.1696(8) 0.0570(6)
N1 N 0.3630(4) 0.0884(6) 0.0765(4)
C2 C 0.3283(5) -0.0489(7) -0.0101(5)
C3 C 0.2203(6) -0.1515(9) 0.0009(6)
C4 C 0.4543(7) -0.1423(9) 0.0164(7)
O1 O 0.5497(5) -0.1453(7) 0.1139(4)
O2 O 0.4403(5) -0.2245(6) -0.0843(4)
C5 C 0.1881(7) 0.2770(8) -0.0578(6)
C6 C 0.2618(7) 0.2630(9) 0.1734(6)
C7 C 0.1381(7) -0.2328(9) -0.1198(6)
C8 C 0.2778(7) -0.2712(8) 0.1107(6)
H1 H 0.403 0.052 0.153
H2 H 0.295 0.004 -0.100
H3 H 0.162 0.212 -0.151
H4 H 0.253 0.378 -0.039
H5 H 0.090 0.296 -0.087
H6 H 0.179 0.293 0.146
H7 H 0.338 0.325 0.207
H8 H 0.301 0.200 0.259
H9 H 0.536 -0.284 -0.060
H10 H 0.185 -0.309 -0.132
H11 H 0.066 -0.298 -0.116
H12 H 0.112 -0.167 -0.202
H13 H 0.327 -0.218 0.187
H14 H 0.344 -0.352 0.101
H15 H 0.198 -0.313 0.129
S2 S 0.1136(2) -0.1641(3) 0.5135(2)
C9 C 0.1977(6) -0.3314(8) 0.4759(6)
N2 N 0.2980(4) -0.2548(7) 0.4486(4)
C10 C 0.3544(6) -0.1181(7) 0.5341(5)
C11 C 0.2412(6) -0.0130(9) 0.5326(6)
C12 C 0.4438(6) -0.0242(9) 0.4956(6)
O3 O 0.4344(4) -0.0255(6) 0.3911(4)
O4 O 0.5308(4) 0.0599(6) 0.5882(4)
C13 C 0.2573(7) -0.4454(9) 0.5877(6)
C14 C 0.1014(7) -0.4219(10) 0.3601(6)
C15 C 0.2804(8) 0.0779(11) 0.6546(7)
C16 C 0.1830(7) 0.1056(9) 0.4237(6)
H16 H 0.265 -0.216 0.375
H17 H 0.410 -0.157 0.615
H18 H 0.156 -0.529 0.356
H19 H 0.073 -0.520 0.394
H20 H 0.044 -0.325 0.306
H21 H 0.305 -0.397 0.636
H22 H 0.302 -0.525 0.555
H23 H 0.172 -0.494 0.605
H24 H 0.588 0.097 0.556
H25 H 0.166 0.055 0.355
H26 H 0.253 0.166 0.453
H27 H 0.102 0.153 0.418
H28 H 0.338 0.177 0.654
H29 H 0.201 0.118 0.632
H30 H 0.343 0.029 0.720
loop_
_geom_bond_atom_site_label_1
_geom_bond_atom_site_label_2
_geom_bond_site_symmetry_1
_geom_bond_site_symmetry_2
S1 C1 1_555 1_555
C1 N1 1_555 1_555
N1 C2 1_555 1_555
C2 C3 1_555 1_555
C3 S1 1_555 1_555
C4 C2 1_555 1_555
O1 C4 1_555 1_555
O2 C4 1_555 1_555
C5 C1 1_555 1_555
C6 C1 1_555 1_555
C7 C3 1_555 1_555
C8 C3 1_555 1_555
H1 N1 1_555 1_555
H2 C2 1_555 1_555
H3 C5 1_555 1_555
H4 C5 1_555 1_555
H5 C5 1_555 1_555
H6 C6 1_555 1_555
H7 C6 1_555 1_555
H8 C6 1_555 1_555
H9 O2 1_555 1_555
H10 C7 1_555 1_555
H11 C7 1_555 1_555
H12 C7 1_555 1_555
H13 C8 1_555 1_555
H14 C8 1_555 1_555
H15 C8 1_555 1_555
S2 C9 1_555 1_555
C9 N2 1_555 1_555
N2 C10 1_555 1_555
C10 C11 1_555 1_555
C11 S2 1_555 1_555
C12 C10 1_555 1_555
O3 C12 1_555 1_555
O4 C12 1_555 1_555
C13 C9 1_555 1_555
C14 C9 1_555 1_555
C15 C11 1_555 1_555
C16 C11 1_555 1_555
H16 N2 1_555 1_555
H17 C10 1_555 1_555
H18 C14 1_555 1_555
H19 C14 1_555 1_555
H20 C14 1_555 1_555
H21 C13 1_555 1_555
H22 C13 1_555 1_555
H23 C13 1_555 1_555
H24 O4 1_555 1_555
H25 C16 1_555 1_555
H26 C16 1_555 1_555
H27 C16 1_555 1_555
H28 C15 1_555 1_555
H29 C15 1_555 1_555
H30 C15 1_555 1_555

#END
