
#######################################################################
#
#                 Cambridge Crystallographic Data Centre
#                                CCDC 
#
#######################################################################
#
# If this CIF has been generated from an entry in the Cambridge 
# Structural Database, then it will include bibliographic, chemical, 
# crystal, experimental, refinement or atomic coordinate data resulting 
# from the CCDC's data processing and validation procedures.
#
#######################################################################

data_DILZUV
_chemical_formula_moiety         'C21 H24 F2 O3,H2 O1'
_chemical_name_systematic        
'3-(4-Acetylphenyl)-1-(adamantan-1-yl)-2,2-difluoro-3-hydroxypropan-1-one monohydrate'
_symmetry_cell_setting           monoclinic
_symmetry_space_group_name_H-M   'P 21/c'
_symmetry_Int_Tables_number      14
_space_group_name_Hall           '-P 2ybc'
loop_
_symmetry_equiv_pos_site_id
_symmetry_equiv_pos_as_xyz
1 x,y,z
2 -x,1/2+y,1/2-z
3 -x,-y,-z
4 x,1/2-y,1/2+z
_cell_length_a                   20.784(5)
_cell_length_b                   10.630(2)
_cell_length_c                   8.5364(19)
_cell_angle_alpha                90
_cell_angle_beta                 90.131(16)
_cell_angle_gamma                90
_cell_volume                     1885.98
_exptl_crystal_colour            colorless
_exptl_crystal_description       needle
_cell_formula_units_Z            4
loop_
_atom_site_label
_atom_site_type_symbol
_atom_site_fract_x
_atom_site_fract_y
_atom_site_fract_z
F1 F 0.23846(18) 0.2018(4) 0.5875(5)
F2 F 0.21149(18) 0.0366(4) 0.4544(4)
O1 O 0.3536(2) 0.0701(5) 0.6713(6)
O2 O 0.2350(2) -0.1155(4) 0.7071(6)
O3 O -0.0605(2) 0.1982(6) 0.9570(7)
C1 C 0.3506(3) 0.0230(6) 0.3942(7)
C2 C 0.3290(3) -0.1103(7) 0.3471(9)
C3 C 0.3590(4) -0.1471(7) 0.1929(8)
C4 C 0.4325(3) -0.1412(8) 0.2025(9)
C5 C 0.4522(3) -0.0079(9) 0.2504(9)
C6 C 0.4309(4) 0.0805(8) 0.1282(10)
C7 C 0.3577(3) 0.0774(7) 0.1137(8)
C8 C 0.3269(3) 0.1151(7) 0.2637(9)
C9 C 0.3372(4) -0.0535(7) 0.0664(9)
C10 C 0.4232(3) 0.0251(8) 0.4061(9)
C11 C 0.3208(3) 0.0555(7) 0.5549(9)
C12 C 0.2478(3) 0.0748(6) 0.5785(8)
C13 C 0.2233(3) 0.0153(6) 0.7281(9)
C14 C 0.1518(3) 0.0442(7) 0.7580(8)
C15 C 0.1344(3) 0.1426(8) 0.8510(9)
C16 C 0.0699(4) 0.1664(8) 0.8826(9)
C17 C 0.0222(3) 0.0932(8) 0.8186(8)
C18 C 0.0406(4) -0.0043(8) 0.7208(9)
C19 C 0.1049(4) -0.0296(7) 0.6940(9)
C20 C -0.0463(4) 0.1191(8) 0.8559(10)
C21 C -0.0976(4) 0.0477(9) 0.7733(10)
H1 H 0.3451 -0.2340 0.1635
H2 H 0.5002 -0.0039 0.2592
H3 H 0.3442 0.1378 0.0300
H4 H 0.2234 -0.1548 0.7876
H5 H 0.1666 0.1956 0.8946
H6 H 0.0586 0.2343 0.9495
H7 H 0.0086 -0.0544 0.6714
H8 H 0.1166 -0.0992 0.6303
H9 H 0.3420 -0.1710 0.4292
H10 H 0.2815 -0.1128 0.3376
H11 H 0.4514 -0.1625 0.0995
H12 H 0.4485 -0.2027 0.2806
H13 H 0.4505 0.0572 0.0267
H14 H 0.4451 0.1667 0.1552
H15 H 0.2795 0.1106 0.2538
H16 H 0.3389 0.2026 0.2907
H17 H 0.3568 -0.0759 -0.0354
H18 H 0.2898 -0.0569 0.0547
H19 H 0.4379 0.1098 0.4386
H20 H 0.4377 -0.0362 0.4862
H21 H 0.2494 0.0465 0.8185
H22 H -0.1391 0.0895 0.7890
H23 H -0.0996 -0.0381 0.8152
H24 H -0.0879 0.0444 0.6610
O4 O 0.1895(3) -0.2743(5) 0.4594(9)
H25 H 0.142(4) -0.291(6) 0.475(8)
H26 H 0.196(3) -0.236(7) 0.545(9)
loop_
_geom_bond_atom_site_label_1
_geom_bond_atom_site_label_2
_geom_bond_site_symmetry_1
_geom_bond_site_symmetry_2
F1 C12 1_555 1_555
F2 C12 1_555 1_555
O1 C11 1_555 1_555
O2 C13 1_555 1_555
O3 C20 1_555 1_555
C1 C2 1_555 1_555
C2 C3 1_555 1_555
C3 C4 1_555 1_555
C4 C5 1_555 1_555
C5 C6 1_555 1_555
C6 C7 1_555 1_555
C7 C8 1_555 1_555
C8 C1 1_555 1_555
C9 C3 1_555 1_555
C10 C1 1_555 1_555
C11 C1 1_555 1_555
C12 C11 1_555 1_555
C13 C12 1_555 1_555
C14 C13 1_555 1_555
C15 C14 1_555 1_555
C16 C15 1_555 1_555
C17 C16 1_555 1_555
C18 C17 1_555 1_555
C19 C14 1_555 1_555
C20 C17 1_555 1_555
C21 C20 1_555 1_555
H1 C3 1_555 1_555
H2 C5 1_555 1_555
H3 C7 1_555 1_555
H4 O2 1_555 1_555
H5 C15 1_555 1_555
H6 C16 1_555 1_555
H7 C18 1_555 1_555
H8 C19 1_555 1_555
H9 C2 1_555 1_555
H10 C2 1_555 1_555
H11 C4 1_555 1_555
H12 C4 1_555 1_555
H13 C6 1_555 1_555
H14 C6 1_555 1_555
H15 C8 1_555 1_555
H16 C8 1_555 1_555
H17 C9 1_555 1_555
H18 C9 1_555 1_555
H19 C10 1_555 1_555
H20 C10 1_555 1_555
H21 C13 1_555 1_555
H22 C21 1_555 1_555
H23 C21 1_555 1_555
H24 C21 1_555 1_555
O4 H25 1_555 1_555
H26 O4 1_555 1_555
C5 C10 1_555 1_555
C7 C9 1_555 1_555
C18 C19 1_555 1_555

#END
