
#######################################################################
#
#                 Cambridge Crystallographic Data Centre
#                                CCDC 
#
#######################################################################
#
# If this CIF has been generated from an entry in the Cambridge 
# Structural Database, then it will include bibliographic, chemical, 
# crystal, experimental, refinement or atomic coordinate data resulting 
# from the CCDC's data processing and validation procedures.
#
#######################################################################

data_DILZOP
_chemical_formula_moiety         'C21 H24 F1 N1 O2,0.5(H2 O1)'
_chemical_name_systematic        
"1'-(4-(2-Fluoroethoxy)benzyl)-3H-spiro[2-benzofuran-1,4'-piperidine] hemihydrate"
_symmetry_cell_setting           monoclinic
_symmetry_space_group_name_H-M   'C 2/c'
_symmetry_Int_Tables_number      15
_space_group_name_Hall           '-C 2yn'
loop_
_symmetry_equiv_pos_site_id
_symmetry_equiv_pos_as_xyz
1 x,y,z
2 -x,y,1/2-z
3 1/2+x,1/2+y,z
4 1/2-x,1/2+y,1/2-z
5 -x,-y,-z
6 x,-y,1/2+z
7 1/2-x,1/2-y,-z
8 1/2+x,1/2-y,1/2+z
_cell_length_a                   21.457(10)
_cell_length_b                   5.787(3)
_cell_length_c                   29.727(15)
_cell_angle_alpha                90
_cell_angle_beta                 98.372(15)
_cell_angle_gamma                90
_cell_volume                     3651.92
_cell_formula_units_Z            8
loop_
_atom_site_label
_atom_site_type_symbol
_atom_site_fract_x
_atom_site_fract_y
_atom_site_fract_z
C1 C 0.26481(8) 0.0696(3) 0.35725(5)
H1 H 0.3090 0.0958 0.3526
H2 H 0.2616 -0.0853 0.3709
C2 C 0.24391(7) 0.2523(3) 0.38720(5)
C3 C 0.26959(8) 0.3225(4) 0.43029(5)
H3 H 0.3058 0.2474 0.4459
C4 C 0.24209(9) 0.5024(4) 0.45037(6)
H4 H 0.2597 0.5531 0.4799
C5 C 0.18928(9) 0.6096(3) 0.42802(6)
H5 H 0.1707 0.7336 0.4422
C6 C 0.16305(8) 0.5383(3) 0.38496(6)
H6 H 0.1262 0.6109 0.3697
C7 C 0.19140(7) 0.3590(3) 0.36454(5)
C8 C 0.17464(7) 0.2540(3) 0.31832(5)
C9 C 0.17501(7) 0.4273(3) 0.28004(5)
H7 H 0.1448 0.5529 0.2837
H8 H 0.2175 0.4967 0.2821
C10 C 0.15754(7) 0.3185(3) 0.23350(5)
H9 H 0.1570 0.4390 0.2098
H10 H 0.1896 0.2020 0.2286
C11 C 0.09681(10) 0.0287(3) 0.26438(6)
H11 H 0.1290 -0.0886 0.2600
H12 H 0.0553 -0.0493 0.2611
C12 C 0.11158(9) 0.1308(3) 0.31177(5)
H13 H 0.0780 0.2414 0.3167
H14 H 0.1123 0.0059 0.3346
C13 C 0.07932(8) 0.0987(3) 0.18477(5)
H15 H 0.0382 0.0203 0.1839
H16 H 0.1111 -0.0215 0.1813
C14 C 0.07537(7) 0.2611(3) 0.14483(5)
C15 C 0.10355(7) 0.2043(3) 0.10745(5)
H17 H 0.1271 0.0650 0.1079
C16 C 0.09862(7) 0.3445(3) 0.06919(5)
H18 H 0.1179 0.2999 0.0437
C17 C 0.06556(7) 0.5491(3) 0.06854(5)
C18 C 0.03728(7) 0.6108(3) 0.10596(5)
H19 H 0.0146 0.7519 0.1057
C19 C 0.04190(7) 0.4687(3) 0.14344(5)
H20 H 0.0221 0.5124 0.1687
C20 C 0.07889(8) 0.6379(3) -0.00822(5)
H21 H 0.0581 0.4931 -0.0201
H22 H 0.1250 0.6124 -0.0029
C21 C 0.06286(9) 0.8297(3) -0.04122(6)
H23 H 0.0692 0.7789 -0.0720
H24 H 0.0181 0.8734 -0.0422
F1 F 0.10125(6) 1.0190(2) -0.02803(4)
N1 N 0.09579(6) 0.2083(2) 0.22942(4)
O1 O 0.22392(7) 0.0872(3) 0.31572(4)
O2 O 0.05721(5) 0.7030(2) 0.03303(3)
O3 O 0.5000 1.0348(3) 0.2500
H25 H 0.4698(7) 0.946(3) 0.2555(6)
H25A H 0.5302(7) 0.946(3) 0.2445(6)
loop_
_geom_bond_atom_site_label_1
_geom_bond_atom_site_label_2
_geom_bond_site_symmetry_1
_geom_bond_site_symmetry_2
C1 H1 1_555 1_555
H2 C1 1_555 1_555
C2 C1 1_555 1_555
C3 C2 1_555 1_555
H3 C3 1_555 1_555
C4 C3 1_555 1_555
H4 C4 1_555 1_555
C5 C4 1_555 1_555
H5 C5 1_555 1_555
C6 C5 1_555 1_555
H6 C6 1_555 1_555
C7 C2 1_555 1_555
C8 C7 1_555 1_555
C9 C8 1_555 1_555
H7 C9 1_555 1_555
H8 C9 1_555 1_555
C10 C9 1_555 1_555
H9 C10 1_555 1_555
H10 C10 1_555 1_555
C11 H11 1_555 1_555
H12 C11 1_555 1_555
C12 C8 1_555 1_555
H13 C12 1_555 1_555
H14 C12 1_555 1_555
C13 H15 1_555 1_555
H16 C13 1_555 1_555
C14 C13 1_555 1_555
C15 C14 1_555 1_555
H17 C15 1_555 1_555
C16 C15 1_555 1_555
H18 C16 1_555 1_555
C17 C16 1_555 1_555
C18 C17 1_555 1_555
H19 C18 1_555 1_555
C19 C14 1_555 1_555
H20 C19 1_555 1_555
C20 H21 1_555 1_555
H22 C20 1_555 1_555
C21 C20 1_555 1_555
H23 C21 1_555 1_555
H24 C21 1_555 1_555
F1 C21 1_555 1_555
N1 C10 1_555 1_555
O1 C1 1_555 1_555
O2 C17 1_555 1_555
O3 H25 1_555 1_555
H25A O3 1_555 1_555
C6 C7 1_555 1_555
C8 O1 1_555 1_555
C11 C12 1_555 1_555
C11 N1 1_555 1_555
C13 N1 1_555 1_555
C18 C19 1_555 1_555
C20 O2 1_555 1_555

#END
