
#######################################################################
#
#                 Cambridge Crystallographic Data Centre
#                                CCDC 
#
#######################################################################
#
# If this CIF has been generated from an entry in the Cambridge 
# Structural Database, then it will include bibliographic, chemical, 
# crystal, experimental, refinement or atomic coordinate data resulting 
# from the CCDC's data processing and validation procedures.
#
#######################################################################

data_DIMTEB
_chemical_formula_moiety         'C48 H36 N2'
_chemical_name_systematic        
4,4'-[(6,8-diphenylpyrene-1,3-diyl)bis(ethyne-2,1-diyl)]bis(N,N-dimethylaniline)
_symmetry_cell_setting           triclinic
_symmetry_space_group_name_H-M   'P -1'
_symmetry_Int_Tables_number      2
_space_group_name_Hall           '-P 1'
loop_
_symmetry_equiv_pos_site_id
_symmetry_equiv_pos_as_xyz
1 x,y,z
2 -x,-y,-z
_cell_length_a                   10.6565(7)
_cell_length_b                   11.9955(8)
_cell_length_c                   15.1738(10)
_cell_angle_alpha                102.948(3)
_cell_angle_beta                 105.783(2)
_cell_angle_gamma                102.738(3)
_cell_volume                     1735.24
_exptl_crystal_colour            orange
_exptl_crystal_description       plate
_chemical_melting_point          '570 K'
_cell_formula_units_Z            2
_exptl_crystal_recrystallization_method 
'Re-crystallisation from solvent: Chloroform/hexane'
loop_
_atom_site_label
_atom_site_type_symbol
_atom_site_fract_x
_atom_site_fract_y
_atom_site_fract_z
C1 C 0.50153(18) 0.44398(17) 0.63322(13)
C2 C 0.62576(17) 0.53508(17) 0.69441(13)
C3 C 0.74051(17) 0.55772(17) 0.66266(13)
C4 C 0.86016(18) 0.65058(17) 0.72288(13)
C5 C 0.86728(18) 0.71239(18) 0.81465(14)
H1 H 0.957(2) 0.777(2) 0.8588(16)
C6 C 0.75955(18) 0.68743(17) 0.84924(13)
C7 C 0.63428(18) 0.60269(17) 0.78733(13)
C8 C 0.51344(19) 0.58343(18) 0.81345(14)
H2 H 0.519(2) 0.6356(18) 0.8760(15)
C9 C 0.39428(19) 0.50071(18) 0.75360(14)
H3 H 0.312(2) 0.4899(19) 0.7735(15)
C10 C 0.38535(18) 0.42565(17) 0.66322(13)
C11 C 0.26435(18) 0.33324(18) 0.60270(14)
C12 C 0.26155(19) 0.26120(18) 0.51584(14)
H4 H 0.179(2) 0.198(2) 0.4754(16)
C13 C 0.37471(18) 0.27848(17) 0.48529(13)
C14 C 0.49585(17) 0.37201(16) 0.54331(13)
C15 C 0.61215(18) 0.39656(17) 0.51366(13)
H5 H 0.6016(19) 0.3447(17) 0.4471(14)
C16 C 0.72751(18) 0.48637(18) 0.56940(13)
H6 H 0.805(2) 0.5056(18) 0.5454(15)
C17 C 0.98080(18) 0.68634(18) 0.69229(13)
C18 C 1.04822(19) 0.60614(19) 0.66223(14)
H7 H 1.015(2) 0.522(2) 0.6631(15)
C19 C 1.1611(2) 0.6439(2) 0.63515(14)
H8 H 1.208(2) 0.586(2) 0.6195(16)
C20 C 1.2075(2) 0.7620(2) 0.63706(15)
H9 H 1.291(2) 0.788(2) 0.6156(16)
C21 C 1.1417(2) 0.8426(2) 0.66754(16)
H10 H 1.173(2) 0.926(2) 0.6683(17)
C22 C 1.0295(2) 0.80553(19) 0.69532(14)
H11 H 0.981(2) 0.8639(18) 0.7156(14)
C23 C 0.78071(18) 0.74684(18) 0.95196(13)
C24 C 0.82553(19) 0.87120(19) 0.98940(14)
H12 H 0.842(2) 0.9204(18) 0.9454(14)
C25 C 0.8474(2) 0.9256(2) 1.08585(15)
H13 H 0.881(2) 1.014(2) 1.1089(16)
C26 C 0.8293(2) 0.8571(2) 1.14595(15)
H14 H 0.851(2) 0.901(2) 1.2192(18)
C27 C 0.7876(2) 0.7332(2) 1.10992(16)
H15 H 0.775(3) 0.679(2) 1.153(2)
C28 C 0.7621(2) 0.6780(2) 1.01317(15)
H16 H 0.726(3) 0.581(2) 0.9839(18)
C29 C 0.14379(19) 0.31166(19) 0.62889(14)
C30 C 0.03871(19) 0.29113(19) 0.64547(15)
C31 C -0.08932(19) 0.26681(19) 0.66152(15)
C32 C -0.1077(2) 0.3381(2) 0.74057(16)
H17 H -0.027(2) 0.4036(19) 0.7904(15)
C33 C -0.2325(2) 0.3161(2) 0.75459(17)
H18 H -0.234(2) 0.371(2) 0.8152(17)
C34 C -0.3451(2) 0.2202(2) 0.68973(18)
C35 C -0.3266(2) 0.1485(2) 0.61065(18)
H19 H -0.404(2) 0.083(2) 0.5639(16)
C36 C -0.2017(2) 0.1713(2) 0.59722(16)
H20 H -0.183(2) 0.119(2) 0.5445(17)
N1 N -0.46976(19) 0.19752(19) 0.70322(17)
C37 C -0.4810(3) 0.2590(3) 0.7935(2)
H21 H -0.425839 0.236566 0.845828
H22 H -0.576845 0.236057 0.789829
H23 H -0.447897 0.345871 0.805698
C38 C -0.5796(2) 0.0900(2) 0.6404(2)
H24 H -0.596114 0.088519 0.573375
H25 H -0.663092 0.090113 0.655939
H26 H -0.553675 0.018892 0.649768
C39 C 0.36448(18) 0.20064(18) 0.39564(14)
C40 C 0.34848(18) 0.13185(18) 0.31975(14)
C41 C 0.32022(19) 0.04497(18) 0.22930(14)
C42 C 0.1996(2) -0.05061(18) 0.19084(14)
H27 H 0.134(2) -0.059(2) 0.2278(16)
C43 C 0.1687(2) -0.13553(19) 0.10391(15)
H28 H 0.080(2) -0.197(2) 0.0799(16)
C44 C 0.2574(2) -0.12970(19) 0.05135(14)
C45 C 0.3789(2) -0.0340(2) 0.09007(15)
H29 H 0.443(3) -0.025(2) 0.0548(17)
C46 C 0.4092(2) 0.0516(2) 0.17692(15)
H30 H 0.496(2) 0.117(2) 0.2013(16)
N2 N 0.22296(18) -0.21418(16) -0.03887(12)
C47 C 0.1550(3) -0.3387(2) -0.05036(18)
H31 H 0.220739 -0.372867 -0.015606
H32 H 0.118604 -0.384495 -0.118721
H33 H 0.079859 -0.342322 -0.024464
C48 C 0.3188(2) -0.2002(3) -0.09048(17)
H34 H 0.336155 -0.120234 -0.098860
H35 H 0.280265 -0.261195 -0.153590
H36 H 0.404841 -0.209823 -0.053846
loop_
_geom_bond_atom_site_label_1
_geom_bond_atom_site_label_2
_geom_bond_site_symmetry_1
_geom_bond_site_symmetry_2
C1 C2 1_555 1_555
C2 C3 1_555 1_555
C3 C4 1_555 1_555
C4 C5 1_555 1_555
C5 H1 1_555 1_555
C6 C5 1_555 1_555
C7 C2 1_555 1_555
C8 C7 1_555 1_555
H2 C8 1_555 1_555
C9 C8 1_555 1_555
H3 C9 1_555 1_555
C10 C1 1_555 1_555
C11 C10 1_555 1_555
C12 C11 1_555 1_555
H4 C12 1_555 1_555
C13 C12 1_555 1_555
C14 C1 1_555 1_555
C15 C14 1_555 1_555
H5 C15 1_555 1_555
C16 C3 1_555 1_555
H6 C16 1_555 1_555
C17 C4 1_555 1_555
C18 C17 1_555 1_555
H7 C18 1_555 1_555
C19 C18 1_555 1_555
H8 C19 1_555 1_555
C20 C19 1_555 1_555
H9 C20 1_555 1_555
C21 C20 1_555 1_555
H10 C21 1_555 1_555
C22 C17 1_555 1_555
H11 C22 1_555 1_555
C23 C6 1_555 1_555
C24 C23 1_555 1_555
H12 C24 1_555 1_555
C25 C24 1_555 1_555
H13 C25 1_555 1_555
C26 C25 1_555 1_555
H14 C26 1_555 1_555
C27 C26 1_555 1_555
H15 C27 1_555 1_555
C28 C23 1_555 1_555
H16 C28 1_555 1_555
C29 C11 1_555 1_555
C30 C29 1_555 1_555
C31 C30 1_555 1_555
C32 C31 1_555 1_555
H17 C32 1_555 1_555
C33 C32 1_555 1_555
H18 C33 1_555 1_555
C34 C33 1_555 1_555
C35 C34 1_555 1_555
H19 C35 1_555 1_555
C36 C31 1_555 1_555
H20 C36 1_555 1_555
N1 C34 1_555 1_555
C37 N1 1_555 1_555
H21 C37 1_555 1_555
H22 C37 1_555 1_555
H23 C37 1_555 1_555
C38 N1 1_555 1_555
H24 C38 1_555 1_555
H25 C38 1_555 1_555
H26 C38 1_555 1_555
C39 C13 1_555 1_555
C40 C39 1_555 1_555
C41 C40 1_555 1_555
C42 C41 1_555 1_555
H27 C42 1_555 1_555
C43 C42 1_555 1_555
H28 C43 1_555 1_555
C44 C43 1_555 1_555
C45 C44 1_555 1_555
H29 C45 1_555 1_555
C46 C41 1_555 1_555
H30 C46 1_555 1_555
N2 C44 1_555 1_555
C47 N2 1_555 1_555
H31 C47 1_555 1_555
H32 C47 1_555 1_555
H33 C47 1_555 1_555
C48 N2 1_555 1_555
H34 C48 1_555 1_555
H35 C48 1_555 1_555
H36 C48 1_555 1_555
C6 C7 1_555 1_555
C9 C10 1_555 1_555
C13 C14 1_555 1_555
C15 C16 1_555 1_555
C21 C22 1_555 1_555
C27 C28 1_555 1_555
C35 C36 1_555 1_555
C45 C46 1_555 1_555

#END
