
#######################################################################
#
#                 Cambridge Crystallographic Data Centre
#                                CCDC 
#
#######################################################################
#
# If this CIF has been generated from an entry in the Cambridge 
# Structural Database, then it will include bibliographic, chemical, 
# crystal, experimental, refinement or atomic coordinate data resulting 
# from the CCDC's data processing and validation procedures.
#
#######################################################################

data_DIMTIF
_chemical_formula_moiety         'C16 H12 Br2'
_chemical_name_systematic        
1,1'-(1,4-dibromobuta-1,3-diene-1,4-diyl)dibenzene
_symmetry_cell_setting           triclinic
_symmetry_space_group_name_H-M   'P -1'
_symmetry_Int_Tables_number      2
_space_group_name_Hall           '-P 1'
loop_
_symmetry_equiv_pos_site_id
_symmetry_equiv_pos_as_xyz
1 x,y,z
2 -x,-y,-z
_cell_length_a                   8.3044(14)
_cell_length_b                   9.3370(15)
_cell_length_c                   9.3521(16)
_cell_angle_alpha                73.731(3)
_cell_angle_beta                 85.809(3)
_cell_angle_gamma                80.334(3)
_cell_volume                     685.966
_exptl_crystal_colour            colorless
_exptl_crystal_description       block
_cell_formula_units_Z            2
_exptl_crystal_recrystallization_method 
'Re-crystallisation from solvent: dichloromethane/hexane'
loop_
_atom_site_label
_atom_site_type_symbol
_atom_site_fract_x
_atom_site_fract_y
_atom_site_fract_z
C1 C 0.3263(2) 0.6582(2) 0.1951(2)
Br1 Br 0.44050(3) 0.80095(2) 0.05493(3)
C2 C 0.4094(2) 0.5208(2) 0.2602(2)
H1 H 0.3498 0.4522 0.3295
C3 C 0.5791(2) 0.4675(2) 0.2352(2)
H2 H 0.6357 0.5327 0.1591
C4 C 0.6665(2) 0.3355(2) 0.3079(2)
Br2 Br 0.56466(3) 0.19547(3) 0.46164(3)
C5 C 0.1518(2) 0.7108(2) 0.2228(2)
C6 C 0.0834(2) 0.8628(2) 0.1790(2)
H3 H 0.1505 0.9360 0.1301
C7 C -0.0812(3) 0.9092(2) 0.2056(2)
H4 H -0.1255 1.0133 0.1742
C8 C -0.1809(3) 0.8044(3) 0.2776(2)
H5 H -0.2936 0.8361 0.2955
C9 C -0.1146(3) 0.6527(2) 0.3233(2)
H6 H -0.1822 0.5806 0.3740
C10 C 0.0488(2) 0.6051(2) 0.2958(2)
H7 H 0.0919 0.5007 0.3263
C11 C 0.8415(2) 0.2888(2) 0.2787(2)
C12 C 0.9066(2) 0.3303(2) 0.1328(2)
H8 H 0.8366 0.3855 0.0534
C13 C 1.0714(3) 0.2918(2) 0.1030(2)
H9 H 1.1134 0.3195 0.0035
C14 C 1.1759(3) 0.2126(2) 0.2184(2)
H10 H 1.2894 0.1878 0.1984
C15 C 1.1127(2) 0.1703(2) 0.3629(2)
H11 H 1.1835 0.1156 0.4418
C16 C 0.9479(2) 0.2067(2) 0.3936(2)
H12 H 0.9063 0.1759 0.4930
loop_
_geom_bond_atom_site_label_1
_geom_bond_atom_site_label_2
_geom_bond_site_symmetry_1
_geom_bond_site_symmetry_2
C1 Br1 1_555 1_555
C2 C1 1_555 1_555
H1 C2 1_555 1_555
C3 C2 1_555 1_555
H2 C3 1_555 1_555
C4 C3 1_555 1_555
Br2 C4 1_555 1_555
C5 C1 1_555 1_555
C6 C5 1_555 1_555
H3 C6 1_555 1_555
C7 C6 1_555 1_555
H4 C7 1_555 1_555
C8 C7 1_555 1_555
H5 C8 1_555 1_555
C9 C8 1_555 1_555
H6 C9 1_555 1_555
C10 C5 1_555 1_555
H7 C10 1_555 1_555
C11 C4 1_555 1_555
C12 C11 1_555 1_555
H8 C12 1_555 1_555
C13 C12 1_555 1_555
H9 C13 1_555 1_555
C14 C13 1_555 1_555
H10 C14 1_555 1_555
C15 C14 1_555 1_555
H11 C15 1_555 1_555
C16 C11 1_555 1_555
H12 C16 1_555 1_555
C9 C10 1_555 1_555
C15 C16 1_555 1_555

#END
