
#######################################################################
#
#                 Cambridge Crystallographic Data Centre
#                                CCDC 
#
#######################################################################
#
# If this CIF has been generated from an entry in the Cambridge 
# Structural Database, then it will include bibliographic, chemical, 
# crystal, experimental, refinement or atomic coordinate data resulting 
# from the CCDC's data processing and validation procedures.
#
#######################################################################

data_DIMVIH
_chemical_formula_moiety         'C16 H18 N2 O2'
_chemical_name_systematic        
2-[3,3-bis(dimethylamino)prop-2-en-1-ylidene]-1H-indene-1,3(2H)-dione
_symmetry_cell_setting           monoclinic
_symmetry_space_group_name_H-M   'P 21/c'
_symmetry_Int_Tables_number      14
_space_group_name_Hall           '-P 2ybc'
loop_
_symmetry_equiv_pos_site_id
_symmetry_equiv_pos_as_xyz
1 x,y,z
2 -x,1/2+y,1/2-z
3 -x,-y,-z
4 x,1/2-y,1/2+z
_cell_length_a                   9.7114(3)
_cell_length_b                   11.7763(3)
_cell_length_c                   13.0242(4)
_cell_angle_alpha                90
_cell_angle_beta                 109.030(4)
_cell_angle_gamma                90
_cell_volume                     1408.1
_exptl_crystal_colour            brown
_exptl_crystal_description       prism
_cell_formula_units_Z            4
loop_
_atom_site_label
_atom_site_type_symbol
_atom_site_fract_x
_atom_site_fract_y
_atom_site_fract_z
O1 O 0.55637(18) -0.03182(16) 0.83956(14)
O2 O 0.99736(18) 0.10342(15) 0.80331(13)
N1 N 0.6432(2) -0.17719(16) 0.48124(15)
N2 N 0.7455(2) -0.02861(17) 0.41505(15)
C1 C 0.6779(2) 0.01230(19) 0.85609(17)
C2 C 0.7608(2) 0.07493(18) 0.95736(16)
C3 C 0.7259(2) 0.09508(19) 1.05081(17)
H1 H 0.6371 0.0684 1.0579
C4 C 0.8256(3) 0.1557(2) 1.13372(17)
H2 H 0.8037 0.1716 1.1982
C5 C 0.9562(3) 0.19364(19) 1.12467(17)
H3 H 1.0227 0.2341 1.1831
C6 C 0.9910(2) 0.17288(18) 1.03054(17)
H4 H 1.0805 0.1984 1.0238
C7 C 0.8914(2) 0.11411(17) 0.94756(16)
C8 C 0.8976(2) 0.07927(19) 0.83802(16)
C9 C 0.7649(2) 0.0156(2) 0.78554(17)
C10 C 0.7182(3) -0.0357(2) 0.68214(18)
H5 H 0.6296 -0.0772 0.6635
C11 C 0.7869(3) -0.0321(2) 0.60592(19)
H6 H 0.8795 0.0036 0.6235
C12 C 0.7229(3) -0.0809(2) 0.49973(17)
C13 C 0.6613(3) -0.2662(2) 0.5632(2)
H7 H 0.7558 -0.2569 0.6202
H8 H 0.6571 -0.3408 0.5290
H9 H 0.5831 -0.2603 0.5951
C14 C 0.5192(3) -0.1934(2) 0.3836(2)
H10 H 0.5017 -0.1236 0.3402
H11 H 0.4328 -0.2115 0.4036
H12 H 0.5393 -0.2560 0.3409
C15 C 0.7502(3) -0.0877(2) 0.31719(19)
H13 H 0.7479 -0.1699 0.3282
H14 H 0.8399 -0.0674 0.3027
H15 H 0.6658 -0.0653 0.2553
C16 C 0.7804(4) 0.0913(3) 0.4154(3)
H16 H 0.7503 0.1303 0.4711
H17 H 0.7288 0.1241 0.3441
H18 H 0.8856 0.1004 0.4315
loop_
_geom_bond_atom_site_label_1
_geom_bond_atom_site_label_2
_geom_bond_site_symmetry_1
_geom_bond_site_symmetry_2
O1 C1 1_555 1_555
O2 C8 1_555 1_555
N1 C12 1_555 1_555
N2 C12 1_555 1_555
C1 C2 1_555 1_555
C2 C3 1_555 1_555
C3 H1 1_555 1_555
C4 C3 1_555 1_555
H2 C4 1_555 1_555
C5 C4 1_555 1_555
H3 C5 1_555 1_555
C6 C5 1_555 1_555
H4 C6 1_555 1_555
C7 C2 1_555 1_555
C8 C7 1_555 1_555
C9 C1 1_555 1_555
C10 C9 1_555 1_555
H5 C10 1_555 1_555
C11 C10 1_555 1_555
H6 C11 1_555 1_555
C12 C11 1_555 1_555
C13 N1 1_555 1_555
H7 C13 1_555 1_555
H8 C13 1_555 1_555
H9 C13 1_555 1_555
C14 N1 1_555 1_555
H10 C14 1_555 1_555
H11 C14 1_555 1_555
H12 C14 1_555 1_555
C15 N2 1_555 1_555
H13 C15 1_555 1_555
H14 C15 1_555 1_555
H15 C15 1_555 1_555
C16 N2 1_555 1_555
H16 C16 1_555 1_555
H17 C16 1_555 1_555
H18 C16 1_555 1_555
C6 C7 1_555 1_555
C8 C9 1_555 1_555

#END
