
#######################################################################
#
#                 Cambridge Crystallographic Data Centre
#                                CCDC 
#
#######################################################################
#
# If this CIF has been generated from an entry in the Cambridge 
# Structural Database, then it will include bibliographic, chemical, 
# crystal, experimental, refinement or atomic coordinate data resulting 
# from the CCDC's data processing and validation procedures.
#
#######################################################################

data_DIMVED
_chemical_formula_moiety         'C15 H24 O3'
_chemical_name_systematic        
5,8-dihydroxy-2,2,4,7-tetramethyldecahydro-4,7-methanoazulen-9-one
_symmetry_cell_setting           orthorhombic
_symmetry_space_group_name_H-M   'P 21 21 21'
_symmetry_Int_Tables_number      19
_space_group_name_Hall           'P 2ac 2ab'
loop_
_symmetry_equiv_pos_site_id
_symmetry_equiv_pos_as_xyz
1 x,y,z
2 1/2-x,-y,1/2+z
3 1/2+x,1/2-y,-z
4 -x,1/2+y,1/2-z
_cell_length_a                   6.6347(2)
_cell_length_b                   13.9496(4)
_cell_length_c                   30.2052(9)
_cell_angle_alpha                90
_cell_angle_beta                 90
_cell_angle_gamma                90
_cell_volume                     2795.53
_exptl_crystal_colour            colorless
_exptl_crystal_description       block
_cell_formula_units_Z            8
loop_
_atom_site_label
_atom_site_type_symbol
_atom_site_fract_x
_atom_site_fract_y
_atom_site_fract_z
O1 O -0.0754(5) -0.7398(2) -0.25256(10)
O2 O 0.0070(5) -0.5789(2) -0.33039(11)
H1 H 0.066970 -0.526502 -0.326530
O3 O -0.6464(5) -0.7466(4) -0.24442(13)
H2 H -0.770234 -0.734738 -0.242468
C1 C -0.3762(6) -0.7546(3) -0.29810(13)
C2 C -0.3387(6) -0.7309(3) -0.34794(13)
H3 H -0.455553 -0.757125 -0.364987
C3 C -0.2049(6) -0.5656(3) -0.32377(14)
H4 H -0.236961 -0.496050 -0.327439
C4 C -0.2147(6) -0.7025(3) -0.27269(12)
C5 C -0.2603(7) -0.5961(3) -0.27571(14)
C6 C -0.1231(8) -0.7174(3) -0.41284(14)
C7 C -0.1475(7) -0.7721(3) -0.36861(14)
H5 H -0.162141 -0.841837 -0.373894
H6 H -0.029755 -0.761284 -0.349120
C8 C -0.3260(7) -0.6231(3) -0.35837(14)
H7 H -0.465597 -0.596323 -0.360098
C9 C -0.2295(8) -0.6197(3) -0.40506(14)
H8 H -0.130541 -0.566703 -0.406838
H9 H -0.334500 -0.609085 -0.427825
C10 C -0.4918(7) -0.5969(4) -0.27060(17)
H10 H -0.553695 -0.549064 -0.290642
H11 H -0.529944 -0.580953 -0.239774
C11 C 0.0994(9) -0.7060(4) -0.42486(17)
H12 H 0.170940 -0.675322 -0.400244
H13 H 0.111545 -0.666018 -0.451415
H14 H 0.158387 -0.769145 -0.430609
C12 C -0.2299(10) -0.7723(4) -0.45032(15)
H15 H -0.165498 -0.834922 -0.454336
H16 H -0.220073 -0.735471 -0.477870
H17 H -0.372103 -0.781415 -0.442632
C13 C -0.5656(7) -0.6997(4) -0.28269(15)
H18 H -0.668272 -0.697150 -0.306899
C14 C -0.1517(9) -0.5344(4) -0.24199(16)
H19 H -0.005781 -0.541742 -0.245687
H20 H -0.190322 -0.554350 -0.212070
H21 H -0.188798 -0.467032 -0.246433
C15 C -0.3815(8) -0.8621(4) -0.29008(15)
H22 H -0.494339 -0.890256 -0.306476
H23 H -0.398825 -0.874488 -0.258373
H24 H -0.254829 -0.890764 -0.300208
O4 O -0.3514(6) -0.1086(2) -0.68539(10)
O5 O -0.5737(5) -0.1616(3) -0.56709(10)
O6 O -0.2064(6) -0.2428(3) -0.51573(12)
H25 H -0.129131 -0.269700 -0.497548
C16 C -0.3858(6) -0.2351(3) -0.62758(14)
C17 C -0.2448(7) -0.1704(3) -0.65565(14)
H26 H -0.146326 -0.210679 -0.672432
C18 C -0.3600(7) -0.3984(3) -0.58360(14)
H27 H -0.461483 -0.435729 -0.600344
H28 H -0.426086 -0.368338 -0.557695
C19 C -0.1823(8) -0.4627(3) -0.56905(16)
C20 C -0.0934(7) -0.2145(4) -0.55435(19)
H29 H 0.041978 -0.190602 -0.544864
C21 C -0.2606(7) -0.3225(3) -0.61315(14)
H30 H -0.218670 -0.356141 -0.640908
C22 C -0.0647(7) -0.2979(4) -0.5879(2)
H31 H 0.042025 -0.279753 -0.609734
C23 C -0.2131(7) -0.1308(3) -0.57538(15)
C24 C -0.1326(7) -0.1067(3) -0.62194(17)
H32 H 0.014126 -0.119169 -0.623421
H33 H -0.156267 -0.038175 -0.628685
C25 C -0.5807(7) -0.2657(3) -0.64981(15)
H34 H -0.651760 -0.208996 -0.660880
H35 H -0.666079 -0.299254 -0.628328
H36 H -0.550145 -0.308721 -0.674582
C26 C -0.2254(10) -0.5138(4) -0.52542(18)
H37 H -0.256155 -0.466339 -0.502491
H38 H -0.106919 -0.551149 -0.516578
H39 H -0.340898 -0.556884 -0.529175
C27 C -0.2188(10) -0.0444(4) -0.54446(18)
H40 H -0.282021 -0.062721 -0.516392
H41 H -0.296852 0.007237 -0.558257
H42 H -0.081003 -0.022088 -0.538872
C28 C -0.1424(12) -0.5382(4) -0.60490(19)
H43 H -0.245161 -0.588537 -0.603119
H44 H -0.008796 -0.566461 -0.600362
H45 H -0.147899 -0.507857 -0.634141
C29 C -0.0040(8) -0.3931(4) -0.5651(3)
H46 H 0.116718 -0.420542 -0.579556
H47 H 0.027893 -0.381470 -0.533489
C30 C -0.4165(6) -0.1733(3) -0.58652(13)
H48 H -0.438(13) -0.154(7) -0.708(3)
loop_
_geom_bond_atom_site_label_1
_geom_bond_atom_site_label_2
_geom_bond_site_symmetry_1
_geom_bond_site_symmetry_2
O1 C4 1_555 1_555
O2 H1 1_555 1_555
O3 H2 1_555 1_555
C1 C2 1_555 1_555
C2 H3 1_555 1_555
C3 O2 1_555 1_555
H4 C3 1_555 1_555
C4 C1 1_555 1_555
C5 C3 1_555 1_555
C6 C7 1_555 1_555
C7 C2 1_555 1_555
H5 C7 1_555 1_555
H6 C7 1_555 1_555
C8 C2 1_555 1_555
H7 C8 1_555 1_555
C9 C6 1_555 1_555
H8 C9 1_555 1_555
H9 C9 1_555 1_555
C10 C5 1_555 1_555
H10 C10 1_555 1_555
H11 C10 1_555 1_555
C11 C6 1_555 1_555
H12 C11 1_555 1_555
H13 C11 1_555 1_555
H14 C11 1_555 1_555
C12 C6 1_555 1_555
H15 C12 1_555 1_555
H16 C12 1_555 1_555
H17 C12 1_555 1_555
C13 O3 1_555 1_555
H18 C13 1_555 1_555
C14 C5 1_555 1_555
H19 C14 1_555 1_555
H20 C14 1_555 1_555
H21 C14 1_555 1_555
C15 C1 1_555 1_555
H22 C15 1_555 1_555
H23 C15 1_555 1_555
H24 C15 1_555 1_555
O4 C17 1_555 1_555
O5 C30 1_555 1_555
O6 H25 1_555 1_555
C16 C17 1_555 1_555
C17 H26 1_555 1_555
C18 H27 1_555 1_555
H28 C18 1_555 1_555
C19 C18 1_555 1_555
C20 O6 1_555 1_555
H29 C20 1_555 1_555
C21 C16 1_555 1_555
H30 C21 1_555 1_555
C22 C20 1_555 1_555
H31 C22 1_555 1_555
C23 C20 1_555 1_555
C24 C17 1_555 1_555
H32 C24 1_555 1_555
H33 C24 1_555 1_555
C25 C16 1_555 1_555
H34 C25 1_555 1_555
H35 C25 1_555 1_555
H36 C25 1_555 1_555
C26 C19 1_555 1_555
H37 C26 1_555 1_555
H38 C26 1_555 1_555
H39 C26 1_555 1_555
C27 C23 1_555 1_555
H40 C27 1_555 1_555
H41 C27 1_555 1_555
H42 C27 1_555 1_555
C28 C19 1_555 1_555
H43 C28 1_555 1_555
H44 C28 1_555 1_555
H45 C28 1_555 1_555
C29 C19 1_555 1_555
H46 C29 1_555 1_555
H47 C29 1_555 1_555
C30 C16 1_555 1_555
H48 O4 1_555 1_555
C1 C13 1_555 1_555
C3 C8 1_555 1_555
C4 C5 1_555 1_555
C8 C9 1_555 1_555
C10 C13 1_555 1_555
C18 C21 1_555 1_555
C21 C22 1_555 1_555
C22 C29 1_555 1_555
C23 C24 1_555 1_555
C23 C30 1_555 1_555

#END
