
#######################################################################
#
#                 Cambridge Crystallographic Data Centre
#                                CCDC 
#
#######################################################################
#
# If this CIF has been generated from an entry in the Cambridge 
# Structural Database, then it will include bibliographic, chemical, 
# crystal, experimental, refinement or atomic coordinate data resulting 
# from the CCDC's data processing and validation procedures.
#
#######################################################################

data_DIMWII
_chemical_formula_moiety         'C24 H30 N4 O5,C1 H1 Cl3'
_chemical_name_systematic        
'dimethyl 2-[bis(dimethylamino)methylidene]-3-[3-cyano-4-(dimethylamino)-4-oxo-2-phenylbut-2-en-1-ylidene]butanedioate chloroform solvate'
_symmetry_cell_setting           monoclinic
_symmetry_space_group_name_H-M   'P 21'
_symmetry_Int_Tables_number      4
_space_group_name_Hall           'P 2yb'
loop_
_symmetry_equiv_pos_site_id
_symmetry_equiv_pos_as_xyz
1 x,y,z
2 -x,1/2+y,-z
_cell_length_a                   11.1105(6)
_cell_length_b                   10.3368(6)
_cell_length_c                   13.3025(7)
_cell_angle_alpha                90
_cell_angle_beta                 107.939(6)
_cell_angle_gamma                90
_cell_volume                     1453.48
_exptl_crystal_colour            red
_exptl_crystal_description       platelet
_cell_formula_units_Z            2
loop_
_atom_site_label
_atom_site_type_symbol
_atom_site_fract_x
_atom_site_fract_y
_atom_site_fract_z
C1 C -0.1001(5) 0.3359(6) 0.4277(3)
H1 H -0.0221 0.3821 0.4565
H2 H -0.1135 0.2796 0.4807
H3 H -0.1687 0.3963 0.4054
C2 C -0.0136(5) 0.1459(6) 0.3645(4)
H4 H -0.0075 0.1073 0.3007
H5 H -0.0496 0.0848 0.4015
H6 H 0.0692 0.1704 0.4086
C3 C -0.2467(5) 0.0773(5) 0.1937(4)
H7 H -0.2634 0.0879 0.2599
H8 H -0.1878 0.0077 0.1994
H9 H -0.3242 0.0578 0.1393
C4 C -0.2116(4) 0.2142(5) 0.0546(3)
H10 H -0.3005 0.2191 0.0175
H11 H -0.1755 0.1421 0.0286
H12 H -0.1711 0.2926 0.0437
C5 C -0.1553(3) 0.2953(4) 0.2368(3)
C6 C -0.1766(3) 0.4253(4) 0.2074(2)
C7 C -0.2944(3) 0.4616(4) 0.1281(3)
C8 C -0.4061(5) 0.6411(7) 0.0305(5)
H13 H -0.3912 0.7278 0.0112
H14 H -0.4398 0.5902 -0.0323
H15 H -0.4654 0.6426 0.0698
C9 C -0.0935(3) 0.5303(4) 0.2607(2)
C10 C -0.1505(3) 0.6504(4) 0.2891(3)
C11 C -0.3145(6) 0.7340(7) 0.3468(6)
H16 H -0.2582 0.7726 0.4093
H17 H -0.3902 0.7061 0.3608
H18 H -0.3356 0.7964 0.2906
C12 C 0.0351(3) 0.5306(4) 0.2973(2)
H19 H 0.0715 0.6013 0.3387
C13 C 0.1233(3) 0.4355(4) 0.2803(2)
C14 C 0.1020(3) 0.3754(4) 0.1755(2)
C15 C 0.1379(3) 0.2490(4) 0.1623(3)
H20 H 0.1656 0.1945 0.2205
C16 C 0.1325(4) 0.2038(5) 0.0620(3)
H21 H 0.1587 0.1200 0.0539
C17 C 0.0883(4) 0.2834(5) -0.0252(3)
H22 H 0.0857 0.2537 -0.0918
C18 C 0.0484(4) 0.4062(5) -0.0132(3)
H23 H 0.0167 0.4588 -0.0721
C19 C 0.0549(4) 0.4527(4) 0.0858(3)
H24 H 0.0277 0.5363 0.0927
C20 C 0.2347(3) 0.4155(4) 0.3587(2)
C21 C 0.2575(3) 0.4799(4) 0.4576(3)
C22 C 0.3379(3) 0.3215(4) 0.3539(2)
C23 C 0.4086(6) 0.4800(7) 0.2458(6)
H25 H 0.4748 0.4841 0.2135
H26 H 0.3280 0.4869 0.1923
H27 H 0.4183 0.5498 0.2952
C24 C 0.5127(5) 0.2684(7) 0.2921(5)
H28 H 0.5361 0.2130 0.3530
H29 H 0.5857 0.3156 0.2884
H30 H 0.4804 0.2169 0.2295
N1 N -0.0939(3) 0.2602(4) 0.3386(2)
N2 N -0.1930(3) 0.1971(4) 0.1672(2)
N3 N 0.2773(4) 0.5330(5) 0.5372(3)
N4 N 0.4158(3) 0.3588(4) 0.3003(3)
O1 O -0.3898(2) 0.3959(4) 0.0935(2)
O2 O -0.2884(3) 0.5851(3) 0.0946(2)
O3 O -0.1073(3) 0.7579(3) 0.2908(3)
O4 O -0.2539(3) 0.6252(4) 0.3166(3)
O5 O 0.3450(3) 0.2177(3) 0.3993(2)
C25 C 0.3141(5) 0.9226(6) 0.3216(4)
H31 H 0.3231 1.0134 0.3437
Cl1 Cl 0.3551(2) 0.9073(3) 0.20476(13)
Cl2 Cl 0.41335(13) 0.8290(2) 0.42143(11)
Cl3 Cl 0.15605(13) 0.8752(2) 0.29894(13)
loop_
_geom_bond_atom_site_label_1
_geom_bond_atom_site_label_2
_geom_bond_site_symmetry_1
_geom_bond_site_symmetry_2
C1 H1 1_555 1_555
H2 C1 1_555 1_555
H3 C1 1_555 1_555
C2 H4 1_555 1_555
H5 C2 1_555 1_555
H6 C2 1_555 1_555
C3 H7 1_555 1_555
H8 C3 1_555 1_555
H9 C3 1_555 1_555
C4 H10 1_555 1_555
H11 C4 1_555 1_555
H12 C4 1_555 1_555
C5 C6 1_555 1_555
C6 C7 1_555 1_555
C7 O1 1_555 1_555
C8 H13 1_555 1_555
H14 C8 1_555 1_555
H15 C8 1_555 1_555
C9 C6 1_555 1_555
C10 C9 1_555 1_555
C11 H16 1_555 1_555
H17 C11 1_555 1_555
H18 C11 1_555 1_555
C12 C9 1_555 1_555
H19 C12 1_555 1_555
C13 C12 1_555 1_555
C14 C13 1_555 1_555
C15 C14 1_555 1_555
H20 C15 1_555 1_555
C16 C15 1_555 1_555
H21 C16 1_555 1_555
C17 C16 1_555 1_555
H22 C17 1_555 1_555
C18 C17 1_555 1_555
H23 C18 1_555 1_555
C19 C14 1_555 1_555
H24 C19 1_555 1_555
C20 C13 1_555 1_555
C21 C20 1_555 1_555
C22 C20 1_555 1_555
C23 H25 1_555 1_555
H26 C23 1_555 1_555
H27 C23 1_555 1_555
C24 H28 1_555 1_555
H29 C24 1_555 1_555
H30 C24 1_555 1_555
N1 C1 1_555 1_555
N2 C3 1_555 1_555
N3 C21 1_555 1_555
N4 C22 1_555 1_555
O2 C7 1_555 1_555
O3 C10 1_555 1_555
O4 C10 1_555 1_555
O5 C22 1_555 1_555
C25 H31 1_555 1_555
Cl1 C25 1_555 1_555
Cl2 C25 1_555 1_555
Cl3 C25 1_555 1_555
C2 N1 1_555 1_555
C4 N2 1_555 1_555
C5 N1 1_555 1_555
C5 N2 1_555 1_555
C8 O2 1_555 1_555
C11 O4 1_555 1_555
C18 C19 1_555 1_555
C23 N4 1_555 1_555
C24 N4 1_555 1_555

#END
