
#######################################################################
#
#                 Cambridge Crystallographic Data Centre
#                                CCDC 
#
#######################################################################
#
# If this CIF has been generated from an entry in the Cambridge 
# Structural Database, then it will include bibliographic, chemical, 
# crystal, experimental, refinement or atomic coordinate data resulting 
# from the CCDC's data processing and validation procedures.
#
#######################################################################

data_DIMWOO
_chemical_formula_moiety         'C16 H19 N1 O4'
_chemical_name_systematic        
'dimethyl [3-(dimethylamino)-3-phenylprop-2-en-1-ylidene]propanedioate'
_symmetry_cell_setting           monoclinic
_symmetry_space_group_name_H-M   'P 21/n'
_symmetry_Int_Tables_number      14
_space_group_name_Hall           '-P 2yn'
loop_
_symmetry_equiv_pos_site_id
_symmetry_equiv_pos_as_xyz
1 x,y,z
2 1/2-x,1/2+y,1/2-z
3 -x,-y,-z
4 1/2+x,1/2-y,1/2+z
_cell_length_a                   11.1211(2)
_cell_length_b                   14.7658(3)
_cell_length_c                   19.4274(4)
_cell_angle_alpha                90
_cell_angle_beta                 93.547(2)
_cell_angle_gamma                90
_cell_volume                     3184.1
_exptl_crystal_colour            yellow
_exptl_crystal_description       prism
_cell_formula_units_Z            8
loop_
_atom_site_label
_atom_site_type_symbol
_atom_site_fract_x
_atom_site_fract_y
_atom_site_fract_z
O1 O 0.91375(16) 0.16734(9) 0.92401(9)
O2 O 1.02781(12) 0.28063(9) 0.96466(8)
O3 O 0.77288(16) 0.46828(10) 0.92803(7)
O4 O 0.86798(13) 0.40040(9) 1.01655(6)
N1 N 0.66993(15) 0.16663(11) 0.70514(8)
C1 C 0.5775(2) 0.16017(17) 0.64889(11)
H1 H 0.5120 0.1237 0.6631
H2 H 0.6111 0.1329 0.6095
H3 H 0.5484 0.2197 0.6369
C2 C 0.7417(3) 0.08536(15) 0.71902(12)
H4 H 0.8250 0.1018 0.7267
H5 H 0.7325 0.0452 0.6802
H6 H 0.7149 0.0556 0.7592
C3 C 0.67939(15) 0.23745(12) 0.74880(8)
C4 C 0.60481(15) 0.31867(12) 0.73048(8)
C5 C 0.64500(19) 0.38246(14) 0.68548(10)
H7 H 0.7193 0.3748 0.6668
C6 C 0.5758(2) 0.45781(16) 0.66791(12)
H8 H 0.6032 0.4998 0.6368
C7 C 0.4682(2) 0.47085(18) 0.69583(13)
H9 H 0.4224 0.5219 0.6841
C8 C 0.4271(2) 0.4088(2) 0.74121(14)
H10 H 0.3535 0.4179 0.7604
C9 C 0.49488(17) 0.33221(17) 0.75875(11)
H11 H 0.4665 0.2901 0.7894
C10 C 0.75638(15) 0.23550(12) 0.80744(8)
H12 H 0.8020 0.1837 0.8170
C11 C 0.76773(14) 0.30906(12) 0.85292(8)
H13 H 0.7203 0.3591 0.8407
C12 C 0.83870(14) 0.31797(11) 0.91278(8)
C13 C 0.92571(16) 0.24730(12) 0.93475(8)
C14 C 1.1220(2) 0.21556(18) 0.98117(14)
H14 H 1.0937 0.1711 1.0124
H15 H 1.1910 0.2460 1.0024
H16 H 1.1441 0.1862 0.9397
C15 C 0.82451(16) 0.40250(12) 0.95106(8)
C16 C 0.8527(2) 0.48299(16) 1.05513(11)
H17 H 0.8955 0.5314 1.0345
H18 H 0.8838 0.4745 1.1019
H19 H 0.7686 0.4979 1.0546
O5 O 0.55659(14) -0.04563(11) 0.80800(8)
O6 O 0.38688(13) -0.05560(10) 0.74320(8)
O7 O 0.24660(15) 0.17192(13) 0.81805(9)
O8 O 0.27649(15) 0.09738(11) 0.72276(7)
N2 N 0.68947(14) 0.09540(11) 1.02280(8)
C17 C 0.7490(2) 0.15142(17) 1.07658(12)
H20 H 0.7236 0.2132 1.0705
H21 H 0.8347 0.1476 1.0737
H22 H 0.7278 0.1303 1.1210
C18 C 0.7499(2) 0.00998(15) 1.01044(11)
H23 H 0.6910 -0.0354 0.9975
H24 H 0.7951 -0.0086 1.0517
H25 H 0.8035 0.0177 0.9740
C19 C 0.59573(15) 0.12377(12) 0.98172(9)
C20 C 0.53230(14) 0.20628(12) 1.00484(9)
C21 C 0.47186(17) 0.20412(14) 1.06537(10)
H26 H 0.4711 0.1512 1.0912
C22 C 0.41319(19) 0.27977(16) 1.08717(12)
H27 H 0.3727 0.2776 1.1276
C23 C 0.4138(2) 0.35823(17) 1.04992(14)
H28 H 0.3744 0.4093 1.0652
C24 C 0.4722(2) 0.36145(15) 0.99038(15)
H29 H 0.4726 0.4149 0.9651
C25 C 0.53140(18) 0.28541(13) 0.96703(11)
H30 H 0.5703 0.2879 0.9260
C26 C 0.55815(16) 0.07847(12) 0.92209(9)
H31 H 0.6027 0.0289 0.9087
C27 C 0.45622(15) 0.10369(11) 0.88106(9)
H32 H 0.4143 0.1529 0.8974
C28 C 0.40766(15) 0.06731(11) 0.82015(8)
C29 C 0.30320(17) 0.11624(13) 0.78885(10)
C30 C 0.1750(3) 0.1456(2) 0.68990(15)
H33 H 0.1032 0.1306 0.7124
H34 H 0.1655 0.1286 0.6422
H35 H 0.1892 0.2097 0.6934
C31 C 0.45854(16) -0.01418(12) 0.79063(9)
C32 C 0.4334(2) -0.13502(17) 0.71171(14)
H36 H 0.4997 -0.1185 0.6849
H37 H 0.3711 -0.1624 0.6822
H38 H 0.4604 -0.1773 0.7469
loop_
_geom_bond_atom_site_label_1
_geom_bond_atom_site_label_2
_geom_bond_site_symmetry_1
_geom_bond_site_symmetry_2
O1 C13 1_555 1_555
O2 C13 1_555 1_555
O3 C15 1_555 1_555
O4 C15 1_555 1_555
N1 C1 1_555 1_555
C1 H1 1_555 1_555
H2 C1 1_555 1_555
H3 C1 1_555 1_555
C2 N1 1_555 1_555
H4 C2 1_555 1_555
H5 C2 1_555 1_555
H6 C2 1_555 1_555
C3 N1 1_555 1_555
C4 C3 1_555 1_555
C5 C4 1_555 1_555
H7 C5 1_555 1_555
C6 C5 1_555 1_555
H8 C6 1_555 1_555
C7 C6 1_555 1_555
H9 C7 1_555 1_555
C8 C7 1_555 1_555
H10 C8 1_555 1_555
C9 C4 1_555 1_555
H11 C9 1_555 1_555
C10 C3 1_555 1_555
H12 C10 1_555 1_555
C11 C10 1_555 1_555
H13 C11 1_555 1_555
C12 C11 1_555 1_555
C13 C12 1_555 1_555
C14 O2 1_555 1_555
H14 C14 1_555 1_555
H15 C14 1_555 1_555
H16 C14 1_555 1_555
C15 C12 1_555 1_555
C16 O4 1_555 1_555
H17 C16 1_555 1_555
H18 C16 1_555 1_555
H19 C16 1_555 1_555
O5 C31 1_555 1_555
O6 C31 1_555 1_555
O7 C29 1_555 1_555
O8 C29 1_555 1_555
N2 C17 1_555 1_555
C17 H20 1_555 1_555
H21 C17 1_555 1_555
H22 C17 1_555 1_555
C18 N2 1_555 1_555
H23 C18 1_555 1_555
H24 C18 1_555 1_555
H25 C18 1_555 1_555
C19 N2 1_555 1_555
C20 C19 1_555 1_555
C21 C20 1_555 1_555
H26 C21 1_555 1_555
C22 C21 1_555 1_555
H27 C22 1_555 1_555
C23 C22 1_555 1_555
H28 C23 1_555 1_555
C24 C23 1_555 1_555
H29 C24 1_555 1_555
C25 C20 1_555 1_555
H30 C25 1_555 1_555
C26 C19 1_555 1_555
H31 C26 1_555 1_555
C27 C26 1_555 1_555
H32 C27 1_555 1_555
C28 C27 1_555 1_555
C29 C28 1_555 1_555
C30 O8 1_555 1_555
H33 C30 1_555 1_555
H34 C30 1_555 1_555
H35 C30 1_555 1_555
C31 C28 1_555 1_555
C32 O6 1_555 1_555
H36 C32 1_555 1_555
H37 C32 1_555 1_555
H38 C32 1_555 1_555
C8 C9 1_555 1_555
C24 C25 1_555 1_555

#END
