
#######################################################################
#
#                 Cambridge Crystallographic Data Centre
#                                CCDC 
#
#######################################################################
#
# If this CIF has been generated from an entry in the Cambridge 
# Structural Database, then it will include bibliographic, chemical, 
# crystal, experimental, refinement or atomic coordinate data resulting 
# from the CCDC's data processing and validation procedures.
#
#######################################################################

data_DIMXAB
_chemical_formula_moiety         'C15 H22 O3,2(H2 O1)'
_chemical_name_systematic        
'3b,7-dihydroxy-1,5,5,7a-tetramethyl-1,3b,4,5,6,6a,7,7a-octahydro-2H-cyclopenta[a]pentalen-2-one dihydrate'
_symmetry_cell_setting           monoclinic
_symmetry_space_group_name_H-M   'P 21'
_symmetry_Int_Tables_number      4
_space_group_name_Hall           'P 2yb'
loop_
_symmetry_equiv_pos_site_id
_symmetry_equiv_pos_as_xyz
1 x,y,z
2 -x,1/2+y,-z
_cell_length_a                   6.31340(10)
_cell_length_b                   7.29230(10)
_cell_length_c                   16.7985(2)
_cell_angle_alpha                90
_cell_angle_beta                 98.3240(10)
_cell_angle_gamma                90
_cell_volume                     765.242
_exptl_crystal_colour            'whitish colorless'
_exptl_crystal_description       block
_cell_formula_units_Z            2
loop_
_atom_site_label
_atom_site_type_symbol
_atom_site_fract_x
_atom_site_fract_y
_atom_site_fract_z
O1 O 0.3799(2) 0.14317(18) 0.28041(8)
H1 H 0.3579 0.1750 0.3253
O2 O 1.0395(2) 0.54115(19) 0.42781(8)
O3 O 0.2577(2) 0.78245(18) 0.22017(8)
H2 H 0.3048 0.8760 0.2434
C1 C 0.8715(3) 0.5279(3) 0.38049(11)
C2 C 0.6202(3) 0.4046(2) 0.28423(10)
C3 C 0.4387(3) 0.2996(3) 0.23709(10)
C4 C 0.3464(3) 0.6271(3) 0.26329(10)
H3 H 0.3026 0.6292 0.3169
C5 C 0.6890(3) 0.6801(3) 0.20006(12)
H4 H 0.8409 0.6602 0.2082
H5 H 0.6602 0.8089 0.1932
H6 H 0.6254 0.6154 0.1528
C6 C 0.7794(3) 0.3590(3) 0.34268(11)
H7 H 0.8239 0.2403 0.3568
C7 C 0.2694(3) 0.2754(3) 0.09565(11)
C8 C 0.5939(3) 0.6098(2) 0.27337(10)
C9 C 0.2577(3) 0.4491(2) 0.21985(10)
H8 H 0.1306 0.4084 0.2422
C10 C 0.4776(3) 0.2335(3) 0.15329(11)
H9 H 0.5078 0.1031 0.1541
H10 H 0.5977 0.2982 0.1364
C11 C 0.7210(3) 0.6843(2) 0.35291(11)
H11 H 0.6189 0.6916 0.3916
C12 C 0.0971(3) 0.1311(3) 0.10295(12)
H12 H 0.1493 0.0122 0.0907
H13 H -0.0291 0.1594 0.0659
H14 H 0.0630 0.1313 0.1568
C13 C 0.2040(3) 0.4619(3) 0.12720(11)
H15 H 0.0523 0.4838 0.1111
H16 H 0.2839 0.5605 0.1067
C14 C 0.8252(3) 0.8713(3) 0.35257(14)
H17 H 0.8797 0.9065 0.4067
H18 H 0.7213 0.9596 0.3295
H19 H 0.9408 0.8664 0.3212
C15 C 0.3107(4) 0.2841(3) 0.00825(12)
H20 H 0.4170 0.3758 0.0031
H21 H 0.1803 0.3149 -0.0259
H22 H 0.3608 0.1669 -0.0073
O4 O 0.3083(2) 0.2296(2) 0.43376(8)
H23 H 0.2196 0.3172 0.4338
H24 H 0.429(5) 0.267(4) 0.4639(16)
O5 O 0.6664(2) 0.3424(2) 0.53182(9)
H25 H 0.7766 0.2753 0.5434
H26 H 0.716(6) 0.450(5) 0.545(2)
loop_
_geom_bond_atom_site_label_1
_geom_bond_atom_site_label_2
_geom_bond_site_symmetry_1
_geom_bond_site_symmetry_2
O1 H1 1_555 1_555
O2 C1 1_555 1_555
O3 H2 1_555 1_555
C1 C6 1_555 1_555
C2 C3 1_555 1_555
C3 O1 1_555 1_555
C4 O3 1_555 1_555
H3 C4 1_555 1_555
C5 H4 1_555 1_555
H5 C5 1_555 1_555
H6 C5 1_555 1_555
C6 C2 1_555 1_555
H7 C6 1_555 1_555
C7 C10 1_555 1_555
C8 C2 1_555 1_555
C9 C3 1_555 1_555
H8 C9 1_555 1_555
C10 C3 1_555 1_555
H9 C10 1_555 1_555
H10 C10 1_555 1_555
C11 C1 1_555 1_555
H11 C11 1_555 1_555
C12 C7 1_555 1_555
H12 C12 1_555 1_555
H13 C12 1_555 1_555
H14 C12 1_555 1_555
C13 C7 1_555 1_555
H15 C13 1_555 1_555
H16 C13 1_555 1_555
C14 C11 1_555 1_555
H17 C14 1_555 1_555
H18 C14 1_555 1_555
H19 C14 1_555 1_555
C15 C7 1_555 1_555
H20 C15 1_555 1_555
H21 C15 1_555 1_555
H22 C15 1_555 1_555
O4 H23 1_555 1_555
H24 O4 1_555 1_555
O5 H25 1_555 1_555
H26 O5 1_555 1_555
C4 C8 1_555 1_555
C4 C9 1_555 1_555
C5 C8 1_555 1_555
C8 C11 1_555 1_555
C9 C13 1_555 1_555

#END
