
#######################################################################
#
#                 Cambridge Crystallographic Data Centre
#                                CCDC 
#
#######################################################################
#
# If this CIF has been generated from an entry in the Cambridge 
# Structural Database, then it will include bibliographic, chemical, 
# crystal, experimental, refinement or atomic coordinate data resulting 
# from the CCDC's data processing and validation procedures.
#
#######################################################################

data_DIMYUT10
_chemical_formula_moiety         'C4 H1 I1 N2 O4 S1'
_chemical_name_systematic        2-Iodo-3,5-dinitrothiophene
_symmetry_cell_setting           orthorhombic
_symmetry_space_group_name_H-M   'P 21 21 21'
_symmetry_Int_Tables_number      19
_space_group_name_Hall           'P 2ac 2ab'
loop_
_symmetry_equiv_pos_site_id
_symmetry_equiv_pos_as_xyz
1 x,y,z
2 1/2-x,-y,1/2+z
3 1/2+x,1/2-y,-z
4 -x,1/2+y,1/2-z
_cell_length_a                   6.395(6)
_cell_length_b                   10.009(4)
_cell_length_c                   12.565(4)
_cell_angle_alpha                90
_cell_angle_beta                 90
_cell_angle_gamma                90
_cell_volume                     804.255
_exptl_crystal_colour            'light yellow'
_chemical_melting_point          148deg.C
_cell_formula_units_Z            4
loop_
_atom_site_label
_atom_site_type_symbol
_atom_site_fract_x
_atom_site_fract_y
_atom_site_fract_z
I1 I 1.1053(1) 0.5113 0.5677
S1 S 0.6775(3) 0.6717(2) 0.6101(2)
C1 C 0.8910(12) 0.5973(6) 0.6670(6)
C2 C 0.8841(12) 0.6121(6) 0.7763(5)
C3 C 0.7037(14) 0.6802(6) 0.8150(6)
C4 C 0.5841(13) 0.7167(6) 0.7337(6)
N1 N 1.0399(12) 0.5615(7) 0.8494(5)
N2 N 0.3907(13) 0.7894(6) 0.7395(6)
O1 O 1.1907(12) 0.5043(7) 0.8140(5)
O2 O 1.0149(13) 0.5829(8) 0.9427(5)
O3 O 0.3255(13) 0.8175(7) 0.8279(6)
O4 O 0.3064(12) 0.8233(6) 0.6554(6)
H1 H 0.674 0.697 0.886
loop_
_geom_bond_atom_site_label_1
_geom_bond_atom_site_label_2
_geom_bond_site_symmetry_1
_geom_bond_site_symmetry_2
I1 C1 1_555 1_555
S1 C1 1_555 1_555
C1 C2 1_555 1_555
C2 C3 1_555 1_555
C3 C4 1_555 1_555
C4 S1 1_555 1_555
N1 C2 1_555 1_555
N2 C4 1_555 1_555
O1 N1 1_555 1_555
O2 N1 1_555 1_555
O3 N2 1_555 1_555
O4 N2 1_555 1_555
H1 C3 1_555 1_555

#END
