
#######################################################################
#
#                 Cambridge Crystallographic Data Centre
#                                CCDC 
#
#######################################################################
#
# If this CIF has been generated from an entry in the Cambridge 
# Structural Database, then it will include bibliographic, chemical, 
# crystal, experimental, refinement or atomic coordinate data resulting 
# from the CCDC's data processing and validation procedures.
#
#######################################################################

data_DIMZAD
_chemical_formula_moiety         'C54 H61 B2 Cl1 N4 Si2,2(C6 H6)'
_chemical_name_systematic        
'2-{2-[2-chloro-1,3-bis(2,6-dimethylphenyl)-2,3-dihydro-1H-1,3,2-diazasilol-2-yl]-5,7-dimethyl-1-(2,4,6-trimethylphenyl)-2,3-dihydro-1H-1,2-benzodiborol-2-yl}-1,3-bis(2,6-dimethylphenyl)-1H-1,3,2-diazasilole benzene solvate'
_symmetry_cell_setting           triclinic
_symmetry_space_group_name_H-M   'P -1'
_symmetry_Int_Tables_number      2
_space_group_name_Hall           '-P 1'
loop_
_symmetry_equiv_pos_site_id
_symmetry_equiv_pos_as_xyz
1 x,y,z
2 -x,-y,-z
_cell_length_a                   12.570(4)
_cell_length_b                   13.106(3)
_cell_length_c                   18.258(6)
_cell_angle_alpha                108.975(15)
_cell_angle_beta                 91.02(2)
_cell_angle_gamma                91.98(3)
_cell_volume                     2841.38
_exptl_crystal_colour            red
_exptl_crystal_description       block
_cell_formula_units_Z            2
loop_
_atom_site_label
_atom_site_type_symbol
_atom_site_fract_x
_atom_site_fract_y
_atom_site_fract_z
Cl1 Cl 0.28278(5) 0.95016(4) 0.20049(3)
B1 B 0.2409(2) 0.6801(2) 0.23405(14)
B2 B 0.3547(2) 0.7074(2) 0.18709(14)
Si1 Si 0.34620(5) 0.80678(5) 0.12443(3)
N1 N 0.27617(17) 0.77510(16) 0.03505(11)
C1 C 0.4354(2) 0.8478(2) 0.00930(14)
H1 H 0.4848 0.8743 -0.0197
N2 N 0.45996(17) 0.84230(16) 0.08376(11)
C2 C 0.1677(2) 0.74117(19) 0.00945(12)
C3 C 0.1375(2) 0.6311(2) -0.01658(13)
C4 C 0.0333(2) 0.5998(2) -0.04384(14)
H2 H 0.0125 0.5252 -0.0622
C5 C -0.0409(2) 0.6755(2) -0.04470(14)
H3 H -0.1123 0.6531 -0.0621
C6 C -0.0096(2) 0.7838(2) -0.01982(14)
H4 H -0.0604 0.8356 -0.0204
C7 C 0.0946(2) 0.8190(2) 0.00618(13)
C8 C 0.2150(2) 0.5467(2) -0.01466(15)
H5 H 0.1893 0.4761 -0.0501
H6 H 0.2213 0.5434 0.0381
H7 H 0.2849 0.5656 -0.0307
C9 C 0.1257(3) 0.9376(2) 0.02989(16)
H8 H 0.0638 0.9801 0.0504
H9 H 0.1510 0.9551 -0.0152
H10 H 0.1826 0.9547 0.0700
C10 C 0.5706(2) 0.8663(2) 0.10786(13)
C11 C 0.6066(2) 0.9742(2) 0.14306(14)
C12 C 0.7152(2) 0.9964(2) 0.15663(16)
H11 H 0.7408 1.0689 0.1808
C13 C 0.7873(2) 0.9145(2) 0.13552(17)
H12 H 0.8614 0.9312 0.1450
C14 C 0.7508(2) 0.8088(2) 0.10070(16)
H13 H 0.8003 0.7531 0.0864
C15 C 0.6421(2) 0.7825(2) 0.08613(14)
C16 C 0.5295(2) 1.0643(2) 0.16348(16)
H14 H 0.5684 1.1334 0.1717
H15 H 0.4934 1.0661 0.2110
H16 H 0.4766 1.0519 0.1211
C17 C 0.6047(2) 0.6667(2) 0.04621(16)
H17 H 0.6579 0.6299 0.0093
H18 H 0.5368 0.6648 0.0185
H19 H 0.5951 0.6302 0.0849
C18 C 0.3369(2) 0.8124(2) -0.01647(14)
H20 H 0.3095 0.8122 -0.0654
N3 N 0.47447(17) 0.88467(16) 0.35726(11)
Si2 Si 0.45171(6) 0.76918(5) 0.27786(3)
C19 C 0.5318(2) 0.8578(2) 0.41528(13)
H21 H 0.5499 0.9091 0.4646
N4 N 0.52492(17) 0.69229(16) 0.32016(11)
C20 C 0.4754(2) 0.99904(19) 0.36598(13)
C21 C 0.3828(2) 1.0579(2) 0.38686(13)
C22 C 0.3908(2) 1.1690(2) 0.39899(14)
H22 H 0.3291 1.2103 0.4118
C23 C 0.4869(3) 1.2198(2) 0.39264(15)
H23 H 0.4908 1.2956 0.4020
C24 C 0.5772(3) 1.1608(2) 0.37275(16)
H24 H 0.6427 1.1965 0.3684
C25 C 0.5733(2) 1.0495(2) 0.35891(14)
C26 C 0.2798(2) 1.0061(2) 0.39889(14)
H25 H 0.2239 1.0588 0.4083
H26 H 0.2875 0.9810 0.4437
H27 H 0.2604 0.9445 0.3526
C27 C 0.6725(2) 0.9864(3) 0.33691(18)
H28 H 0.7297 1.0333 0.3281
H29 H 0.6579 0.9252 0.2894
H30 H 0.6943 0.9596 0.3789
C28 C 0.5703(2) 0.58701(19) 0.28716(13)
C29 C 0.6658(2) 0.5810(2) 0.24753(13)
C30 C 0.7084(2) 0.4800(2) 0.21494(14)
H31 H 0.7727 0.4740 0.1875
C31 C 0.6577(2) 0.3877(2) 0.22220(15)
H32 H 0.6859 0.3189 0.1980
C32 C 0.5667(2) 0.3963(2) 0.26445(15)
H33 H 0.5340 0.3332 0.2705
C33 C 0.5218(2) 0.4960(2) 0.29852(13)
C34 C 0.7235(2) 0.6810(2) 0.24273(16)
H34 H 0.7901 0.6612 0.2155
H35 H 0.7395 0.7309 0.2951
H36 H 0.6785 0.7161 0.2144
C35 C 0.4251(2) 0.5034(2) 0.34669(15)
H37 H 0.4106 0.4341 0.3550
H38 H 0.3637 0.5206 0.3197
H39 H 0.4377 0.5602 0.3968
C36 C 0.5586(2) 0.7549(2) 0.39559(13)
H40 H 0.5970 0.7266 0.4295
C37 C 0.1573(2) 0.74969(18) 0.29101(13)
C38 C 0.1644(2) 0.76917(19) 0.37178(13)
C39 C 0.0830(2) 0.8192(2) 0.41895(14)
H41 H 0.0899 0.8323 0.4732
C40 C -0.0081(2) 0.8507(2) 0.38953(14)
C41 C -0.0153(2) 0.8325(2) 0.30989(14)
H42 H -0.0760 0.8549 0.2885
C42 C 0.0650(2) 0.78205(19) 0.26124(13)
C43 C 0.2581(2) 0.7337(2) 0.40927(14)
H43 H 0.2922 0.7966 0.4488
H44 H 0.3096 0.7006 0.3698
H45 H 0.2332 0.6810 0.4336
C44 C -0.0983(2) 0.9000(3) 0.44147(16)
H46 H -0.1218 0.9635 0.4295
H47 H -0.0735 0.9217 0.4958
H48 H -0.1578 0.8468 0.4328
C45 C 0.0497(2) 0.7578(2) 0.17508(14)
H49 H -0.0263 0.7585 0.1623
H50 H 0.0764 0.6864 0.1478
H51 H 0.0889 0.8127 0.1592
C46 C 0.2351(2) 0.55434(19) 0.21083(13)
C47 C 0.3240(2) 0.50772(19) 0.16846(13)
C48 C 0.3426(2) 0.39806(19) 0.15211(14)
H52 H 0.4035 0.3685 0.1241
C49 C 0.2732(2) 0.3322(2) 0.17636(15)
C50 C 0.1826(2) 0.3771(2) 0.21639(15)
H53 H 0.1348 0.3318 0.2328
C51 C 0.1602(2) 0.48559(19) 0.23293(13)
C52 C 0.3973(2) 0.58426(18) 0.14539(13)
H54 H 0.3956 0.5663 0.0883
H55 H 0.4713 0.5795 0.1631
C53 C 0.2923(3) 0.2141(2) 0.1605(2)
H56 H 0.2242 0.1747 0.1589
H57 H 0.3386 0.2057 0.2017
H58 H 0.3266 0.1852 0.1106
C54 C 0.0579(2) 0.5230(2) 0.27214(16)
H59 H 0.0166 0.4609 0.2771
H60 H 0.0166 0.5572 0.2412
H61 H 0.0738 0.5752 0.3237
C55 C 0.1254(3) 0.3704(4) 0.43431(19)
H62 H 0.0876 0.3373 0.3864
C56 C 0.1017(3) 0.3394(4) 0.4983(2)
H63 H 0.0476 0.2852 0.4942
C57 C 0.1570(4) 0.3878(4) 0.56836(19)
H64 H 0.1408 0.3666 0.6121
C58 C 0.2361(4) 0.4671(4) 0.5744(2)
H65 H 0.2740 0.5002 0.6223
C59 C 0.2599(4) 0.4981(4) 0.5104(3)
H66 H 0.3139 0.5523 0.5145
C60 C 0.2045(4) 0.4497(4) 0.4403(3)
H67 H 0.2207 0.4709 0.3966
C67 C 0.0088(3) 0.0970(3) 0.26017(19)
H74 H 0.0569 0.0398 0.2462
C68 C -0.0157(3) 0.1501(3) 0.20857(18)
H75 H 0.0151 0.1290 0.1590
C69 C -0.0847(3) 0.2339(3) 0.22848(18)
H76 H -0.1017 0.2703 0.1928
C70 C -0.1288(3) 0.2641(3) 0.30066(17)
H77 H -0.1756 0.3222 0.3150
C71 C -0.1053(3) 0.2101(3) 0.35218(18)
H78 H -0.1368 0.2307 0.4015
C72 C -0.0363(3) 0.1266(3) 0.33235(19)
H79 H -0.0198 0.0897 0.3678
C61? C 0.0894(4) 0.4174(5) 0.4524(3)
H68? H 0.0375 0.4047 0.4117
C62? C 0.0650(4) 0.3926(5) 0.5188(3)
H69? H -0.0036 0.3629 0.5234
C63? C 0.1409(5) 0.4112(5) 0.5785(2)
H70? H 0.1242 0.3942 0.6239
C64? C 0.2413(4) 0.4546(6) 0.5718(3)
H71? H 0.2932 0.4673 0.6126
C65? C 0.2658(4) 0.4794(6) 0.5054(4)
H72? H 0.3344 0.5091 0.5009
C66? C 0.1898(5) 0.4608(5) 0.4457(3)
H73? H 0.2065 0.4778 0.4004
loop_
_geom_bond_atom_site_label_1
_geom_bond_atom_site_label_2
_geom_bond_site_symmetry_1
_geom_bond_site_symmetry_2
Cl1 Si1 1_555 1_555
B1 B2 1_555 1_555
B2 Si1 1_555 1_555
Si1 N1 1_555 1_555
N1 C2 1_555 1_555
C1 H1 1_555 1_555
N2 Si1 1_555 1_555
C2 C3 1_555 1_555
C3 C4 1_555 1_555
C4 H2 1_555 1_555
C5 C4 1_555 1_555
H3 C5 1_555 1_555
C6 C5 1_555 1_555
H4 C6 1_555 1_555
C7 C2 1_555 1_555
C8 C3 1_555 1_555
H5 C8 1_555 1_555
H6 C8 1_555 1_555
H7 C8 1_555 1_555
C9 C7 1_555 1_555
H8 C9 1_555 1_555
H9 C9 1_555 1_555
H10 C9 1_555 1_555
C10 N2 1_555 1_555
C11 C10 1_555 1_555
C12 C11 1_555 1_555
H11 C12 1_555 1_555
C13 C12 1_555 1_555
H12 C13 1_555 1_555
C14 C13 1_555 1_555
H13 C14 1_555 1_555
C15 C10 1_555 1_555
C16 C11 1_555 1_555
H14 C16 1_555 1_555
H15 C16 1_555 1_555
H16 C16 1_555 1_555
C17 C15 1_555 1_555
H17 C17 1_555 1_555
H18 C17 1_555 1_555
H19 C17 1_555 1_555
C18 N1 1_555 1_555
H20 C18 1_555 1_555
N3 Si2 1_555 1_555
Si2 B2 1_555 1_555
C19 N3 1_555 1_555
H21 C19 1_555 1_555
N4 Si2 1_555 1_555
C20 N3 1_555 1_555
C21 C20 1_555 1_555
C22 C21 1_555 1_555
H22 C22 1_555 1_555
C23 C22 1_555 1_555
H23 C23 1_555 1_555
C24 C23 1_555 1_555
H24 C24 1_555 1_555
C25 C20 1_555 1_555
C26 C21 1_555 1_555
H25 C26 1_555 1_555
H26 C26 1_555 1_555
H27 C26 1_555 1_555
C27 C25 1_555 1_555
H28 C27 1_555 1_555
H29 C27 1_555 1_555
H30 C27 1_555 1_555
C28 N4 1_555 1_555
C29 C28 1_555 1_555
C30 C29 1_555 1_555
H31 C30 1_555 1_555
C31 C30 1_555 1_555
H32 C31 1_555 1_555
C32 C31 1_555 1_555
H33 C32 1_555 1_555
C33 C28 1_555 1_555
C34 C29 1_555 1_555
H34 C34 1_555 1_555
H35 C34 1_555 1_555
H36 C34 1_555 1_555
C35 C33 1_555 1_555
H37 C35 1_555 1_555
H38 C35 1_555 1_555
H39 C35 1_555 1_555
C36 C19 1_555 1_555
H40 C36 1_555 1_555
C37 B1 1_555 1_555
C38 C37 1_555 1_555
C39 C38 1_555 1_555
H41 C39 1_555 1_555
C40 C39 1_555 1_555
C41 C40 1_555 1_555
H42 C41 1_555 1_555
C42 C37 1_555 1_555
C43 C38 1_555 1_555
H43 C43 1_555 1_555
H44 C43 1_555 1_555
H45 C43 1_555 1_555
C44 C40 1_555 1_555
H46 C44 1_555 1_555
H47 C44 1_555 1_555
H48 C44 1_555 1_555
C45 C42 1_555 1_555
H49 C45 1_555 1_555
H50 C45 1_555 1_555
H51 C45 1_555 1_555
C46 B1 1_555 1_555
C47 C46 1_555 1_555
C48 C47 1_555 1_555
H52 C48 1_555 1_555
C49 C48 1_555 1_555
C50 C49 1_555 1_555
H53 C50 1_555 1_555
C51 C46 1_555 1_555
C52 B2 1_555 1_555
H54 C52 1_555 1_555
H55 C52 1_555 1_555
C53 C49 1_555 1_555
H56 C53 1_555 1_555
H57 C53 1_555 1_555
H58 C53 1_555 1_555
C54 C51 1_555 1_555
H59 C54 1_555 1_555
H60 C54 1_555 1_555
H61 C54 1_555 1_555
C55 H62 1_555 1_555
C56 C55 1_555 1_555
H63 C56 1_555 1_555
C57 C56 1_555 1_555
H64 C57 1_555 1_555
C58 C57 1_555 1_555
H65 C58 1_555 1_555
C59 C58 1_555 1_555
H66 C59 1_555 1_555
C60 C55 1_555 1_555
H67 C60 1_555 1_555
C67 H74 1_555 1_555
C68 C67 1_555 1_555
H75 C68 1_555 1_555
C69 C68 1_555 1_555
H76 C69 1_555 1_555
C70 C69 1_555 1_555
H77 C70 1_555 1_555
C71 C70 1_555 1_555
H78 C71 1_555 1_555
C72 C67 1_555 1_555
H79 C72 1_555 1_555
C1 N2 1_555 1_555
C1 C18 1_555 1_555
C6 C7 1_555 1_555
C14 C15 1_555 1_555
N4 C36 1_555 1_555
C24 C25 1_555 1_555
C32 C33 1_555 1_555
C41 C42 1_555 1_555
C47 C52 1_555 1_555
C50 C51 1_555 1_555
C59 C60 1_555 1_555
C71 C72 1_555 1_555

#END
