
#######################################################################
#
#                 Cambridge Crystallographic Data Centre
#                                CCDC 
#
#######################################################################
#
# If this CIF has been generated from an entry in the Cambridge 
# Structural Database, then it will include bibliographic, chemical, 
# crystal, experimental, refinement or atomic coordinate data resulting 
# from the CCDC's data processing and validation procedures.
#
#######################################################################

data_DIMZOR
_chemical_formula_moiety         'C64 H57 B2 Br1 N4 Si2'
_chemical_name_systematic        
2-{1-(anthracen-9-yl)-2-[2-bromo-1,3-bis(2,6-dimethylphenyl)-2,3-dihydro-1H-1,3,2-diazasilol-2-yl]-1,2-dihydro-2-anthra[1,9-cd][1,2]diborol-2-yl}-1,3-bis(2,6-dimethylphenyl)-1H-1,3,2-diazasilole
_symmetry_cell_setting           orthorhombic
_symmetry_space_group_name_H-M   'P 21 21 21'
_symmetry_Int_Tables_number      19
_space_group_name_Hall           'P 2ac 2ab'
loop_
_symmetry_equiv_pos_site_id
_symmetry_equiv_pos_as_xyz
1 x,y,z
2 1/2-x,-y,1/2+z
3 -x,1/2+y,1/2-z
4 1/2+x,1/2-y,-z
_cell_length_a                   11.838(4)
_cell_length_b                   15.135(3)
_cell_length_c                   29.382(9)
_cell_angle_alpha                90
_cell_angle_beta                 90
_cell_angle_gamma                90
_cell_volume                     5264.32
_exptl_crystal_colour            orange
_exptl_crystal_description       block
_cell_formula_units_Z            4
loop_
_atom_site_label
_atom_site_type_symbol
_atom_site_fract_x
_atom_site_fract_y
_atom_site_fract_z
Br1 Br 0.12622(2) 0.39013(2) 0.48044(2)
B1 B 0.2927(2) 0.50511(18) 0.33259(10)
Si1 Si 0.11634(6) 0.48581(4) 0.41703(2)
Si2 Si 0.36581(5) 0.38479(4) 0.41568(2)
C1 C 0.2572(2) 0.44960(16) 0.29019(8)
N1 N 0.46161(17) 0.40137(13) 0.45887(7)
N2 N -0.01376(17) 0.48923(13) 0.38815(7)
N3 N 0.41679(17) 0.28001(13) 0.40588(7)
N4 N 0.09018(17) 0.58811(12) 0.44257(7)
C2 C 0.1318(2) 0.28576(15) 0.36695(9)
H1 H 0.1252 0.2751 0.3987
C3 C 0.4682(2) 0.60721(17) 0.32349(8)
C4 C 0.18951(19) 0.35932(15) 0.35213(9)
C5 C 0.3118(2) 0.66734(18) 0.44089(9)
H2 H 0.3171 0.6083 0.4274
H3 H 0.3877 0.6891 0.4480
H4 H 0.2753 0.7075 0.4193
C6 C 0.19845(19) 0.37301(15) 0.30432(8)
C7 C -0.0707(2) 0.56862(17) 0.39953(9)
H5 H -0.1429 0.5832 0.3876
C8 C 0.4134(2) 0.21144(16) 0.33001(9)
C9 C 0.5493(2) 0.54456(16) 0.47668(9)
C10 C 0.5052(2) 0.26055(17) 0.43594(9)
H6 H 0.5444 0.2057 0.4358
C11 C 0.3377(2) 0.76204(16) 0.32880(9)
C12 C 0.2848(2) 0.67641(16) 0.33111(8)
C13 C 0.2854(3) 0.13785(18) 0.44375(10)
H7 H 0.2548 0.1955 0.4526
H8 H 0.3520 0.1245 0.4623
H9 H 0.2279 0.0922 0.4485
C14 C 0.0819(2) 0.22545(16) 0.33574(10)
H10 H 0.0428 0.1752 0.3471
C15 C 0.2136(2) 0.40816(17) 0.21082(9)
C16 C 0.14712(19) 0.31336(15) 0.27272(9)
C17 C 0.3815(2) 0.20981(15) 0.37566(8)
C18 C 0.5295(2) 0.32610(17) 0.46476(9)
H11 H 0.5872 0.3222 0.4871
C19 C 0.4844(2) 0.47258(15) 0.49094(8)
C20 C 0.2668(2) 0.46760(16) 0.24243(9)
C21 C 0.2433(2) 0.66295(15) 0.48365(9)
C22 C 0.5209(2) 0.69242(17) 0.32258(8)
C23 C -0.0160(2) 0.62086(18) 0.42798(9)
H12 H -0.0455 0.6760 0.4379
C24 C 0.3501(2) 0.59836(15) 0.32912(8)
C25 C 0.3182(2) 0.13999(16) 0.39435(9)
C26 C -0.0776(2) 0.42548(17) 0.36235(9)
C27 C 0.1649(2) 0.67309(18) 0.33621(9)
H13 H 0.1282 0.6173 0.3378
C28 C 0.4843(2) 0.52694(18) 0.56727(9)
H14 H 0.4636 0.5211 0.5984
C29 C 0.0890(2) 0.23821(16) 0.29027(10)
H15 H 0.0553 0.1970 0.2700
C30 C 0.5388(2) 0.53152(17) 0.31797(9)
H16 H 0.5055 0.4744 0.3177
C31 C 0.3281(2) 0.53997(17) 0.22404(9)
H17 H 0.3636 0.5805 0.2441
C32 C 0.4845(2) 0.28476(17) 0.31008(9)
H18 H 0.5229 0.2633 0.2827
H19 H 0.5407 0.3037 0.3325
H20 H 0.4358 0.3348 0.3021
C33 C 0.5899(2) 0.55261(19) 0.42845(9)
H21 H 0.5251 0.5615 0.4082
H22 H 0.6299 0.4985 0.4197
H23 H 0.6413 0.6031 0.4259
C34 C 0.3779(3) 0.14240(15) 0.30223(9)
H24 H 0.3985 0.1422 0.2710
C35 C 0.3372(2) 0.55267(19) 0.17802(10)
H25 H 0.3793 0.6014 0.1667
C36 C 0.2675(3) 0.83852(18) 0.33152(9)
H26 H 0.3013 0.8953 0.3300
C37 C 0.1021(2) 0.74840(19) 0.33884(9)
H27 H 0.0225 0.7445 0.3425
C38 C 0.4524(2) 0.46153(17) 0.53639(9)
C39 C 0.2838(3) 0.70160(17) 0.52326(10)
H28 H 0.3577 0.7262 0.5235
C40 C 0.1552(2) 0.33411(17) 0.22671(9)
H29 H 0.1197 0.2964 0.2052
C41 C 0.2844(2) 0.07252(17) 0.36521(10)
H30 H 0.2412 0.0247 0.3768
C42 C -0.1439(2) 0.36292(17) 0.38523(10)
C43 C -0.0438(3) 0.57989(19) 0.52745(10)
H31 H -0.1030 0.6210 0.5177
H32 H -0.0574 0.5621 0.5591
H33 H -0.0447 0.5275 0.5078
C44 C -0.1547(2) 0.36363(19) 0.43643(10)
H34 H -0.1616 0.4247 0.4471
H35 H -0.0876 0.3364 0.4500
H36 H -0.2221 0.3302 0.4454
C45 C 0.4539(2) 0.76782(17) 0.32496(9)
H37 H 0.4887 0.8244 0.3239
C46 C -0.2033(2) 0.3005(2) 0.35988(11)
H38 H -0.2470 0.2570 0.3752
C47 C -0.0809(2) 0.43035(18) 0.31441(9)
C48 C 0.5451(2) 0.59959(19) 0.55368(10)
H39 H 0.5648 0.6438 0.5752
C49 C 0.1350(2) 0.62490(14) 0.48409(8)
C50 C 0.2241(2) 0.42458(19) 0.16317(9)
H40 H 0.1879 0.3861 0.1422
C51 C 0.6528(2) 0.5392(2) 0.31313(10)
H41 H 0.6978 0.4878 0.3092
C52 C 0.2848(2) 0.4941(2) 0.14728(9)
H42 H 0.2919 0.5033 0.1154
C53 C 0.7044(2) 0.6237(2) 0.31388(9)
H43 H 0.7841 0.6287 0.3112
B2 B 0.2463(2) 0.44326(18) 0.37927(10)
C54 C 0.6406(3) 0.69717(19) 0.31845(9)
H44 H 0.6764 0.7533 0.3189
C55 C -0.0273(2) 0.50491(19) 0.28859(9)
H45 H 0.0536 0.4932 0.2849
H46 H -0.0378 0.5602 0.3054
H47 H -0.0627 0.5100 0.2585
C56 C -0.1406(2) 0.36582(18) 0.29074(10)
H48 H -0.1405 0.3668 0.2584
C57 C 0.0697(2) 0.62453(17) 0.52400(9)
C58 C 0.1544(3) 0.83240(19) 0.33623(9)
H49 H 0.1098 0.8845 0.3378
C59 C 0.3132(3) 0.07426(17) 0.31933(10)
H50 H 0.2882 0.0284 0.2997
C60 C 0.5775(2) 0.60838(19) 0.50864(9)
H51 H 0.6196 0.6588 0.4995
C61 C 0.2191(3) 0.70509(18) 0.56227(10)
H52 H 0.2472 0.7337 0.5887
C62 C 0.1137(3) 0.66682(17) 0.56256(9)
H53 H 0.0696 0.6691 0.5896
C63 C -0.1998(2) 0.3007(2) 0.31306(11)
H54 H -0.2380 0.2562 0.2963
C64 C 0.3908(2) 0.38050(19) 0.55281(9)
H55 H 0.3311 0.3652 0.5311
H56 H 0.3572 0.3924 0.5827
H57 H 0.4440 0.3311 0.5553
loop_
_geom_bond_atom_site_label_1
_geom_bond_atom_site_label_2
_geom_bond_site_symmetry_1
_geom_bond_site_symmetry_2
Br1 Si1 1_555 1_555
B1 C1 1_555 1_555
Si1 N2 1_555 1_555
Si2 N1 1_555 1_555
C1 C6 1_555 1_555
N1 C18 1_555 1_555
N2 C7 1_555 1_555
N3 Si2 1_555 1_555
N4 Si1 1_555 1_555
C2 H1 1_555 1_555
C3 C22 1_555 1_555
C4 C2 1_555 1_555
C5 H2 1_555 1_555
H3 C5 1_555 1_555
H4 C5 1_555 1_555
C6 C4 1_555 1_555
C7 H5 1_555 1_555
C8 C17 1_555 1_555
C9 C19 1_555 1_555
C10 N3 1_555 1_555
H6 C10 1_555 1_555
C11 C12 1_555 1_555
C12 C24 1_555 1_555
C13 H7 1_555 1_555
H8 C13 1_555 1_555
H9 C13 1_555 1_555
C14 C2 1_555 1_555
H10 C14 1_555 1_555
C15 C20 1_555 1_555
C16 C6 1_555 1_555
C17 N3 1_555 1_555
C18 C10 1_555 1_555
H11 C18 1_555 1_555
C19 N1 1_555 1_555
C20 C1 1_555 1_555
C21 C5 1_555 1_555
C22 C45 1_555 1_555
C23 N4 1_555 1_555
H12 C23 1_555 1_555
C24 B1 1_555 1_555
C25 C13 1_555 1_555
C26 N2 1_555 1_555
C27 C12 1_555 1_555
H13 C27 1_555 1_555
C28 H14 1_555 1_555
C29 C14 1_555 1_555
H15 C29 1_555 1_555
C30 C3 1_555 1_555
H16 C30 1_555 1_555
C31 C20 1_555 1_555
H17 C31 1_555 1_555
C32 C8 1_555 1_555
H18 C32 1_555 1_555
H19 C32 1_555 1_555
H20 C32 1_555 1_555
C33 C9 1_555 1_555
H21 C33 1_555 1_555
H22 C33 1_555 1_555
H23 C33 1_555 1_555
C34 C8 1_555 1_555
H24 C34 1_555 1_555
C35 C31 1_555 1_555
H25 C35 1_555 1_555
C36 C11 1_555 1_555
H26 C36 1_555 1_555
C37 C27 1_555 1_555
H27 C37 1_555 1_555
C38 C19 1_555 1_555
C39 C21 1_555 1_555
H28 C39 1_555 1_555
C40 C15 1_555 1_555
H29 C40 1_555 1_555
C41 C25 1_555 1_555
H30 C41 1_555 1_555
C42 C26 1_555 1_555
C43 H31 1_555 1_555
H32 C43 1_555 1_555
H33 C43 1_555 1_555
C44 C42 1_555 1_555
H34 C44 1_555 1_555
H35 C44 1_555 1_555
H36 C44 1_555 1_555
C45 C11 1_555 1_555
H37 C45 1_555 1_555
C46 C42 1_555 1_555
H38 C46 1_555 1_555
C47 C26 1_555 1_555
C48 C28 1_555 1_555
H39 C48 1_555 1_555
C49 N4 1_555 1_555
C50 C15 1_555 1_555
H40 C50 1_555 1_555
C51 C30 1_555 1_555
H41 C51 1_555 1_555
C52 C35 1_555 1_555
H42 C52 1_555 1_555
C53 C51 1_555 1_555
H43 C53 1_555 1_555
B2 B1 1_555 1_555
C54 C22 1_555 1_555
H44 C54 1_555 1_555
C55 C47 1_555 1_555
H45 C55 1_555 1_555
H46 C55 1_555 1_555
H47 C55 1_555 1_555
C56 C47 1_555 1_555
H48 C56 1_555 1_555
C57 C43 1_555 1_555
C58 C36 1_555 1_555
H49 C58 1_555 1_555
C59 C34 1_555 1_555
H50 C59 1_555 1_555
C60 C9 1_555 1_555
H51 C60 1_555 1_555
C61 C39 1_555 1_555
H52 C61 1_555 1_555
C62 C57 1_555 1_555
H53 C62 1_555 1_555
C63 C46 1_555 1_555
H54 C63 1_555 1_555
C64 C38 1_555 1_555
H55 C64 1_555 1_555
H56 C64 1_555 1_555
H57 C64 1_555 1_555
Si1 B2 1_555 1_555
Si2 B2 1_555 1_555
C3 C24 1_555 1_555
C4 B2 1_555 1_555
C7 C23 1_555 1_555
C16 C29 1_555 1_555
C16 C40 1_555 1_555
C17 C25 1_555 1_555
C21 C49 1_555 1_555
C28 C38 1_555 1_555
C37 C58 1_555 1_555
C41 C59 1_555 1_555
C48 C60 1_555 1_555
C49 C57 1_555 1_555
C50 C52 1_555 1_555
C53 C54 1_555 1_555
C56 C63 1_555 1_555
C61 C62 1_555 1_555

#END
