
#######################################################################
#
#                 Cambridge Crystallographic Data Centre
#                                CCDC 
#
#######################################################################
#
# If this CIF has been generated from an entry in the Cambridge 
# Structural Database, then it will include bibliographic, chemical, 
# crystal, experimental, refinement or atomic coordinate data resulting 
# from the CCDC's data processing and validation procedures.
#
#######################################################################

data_DINDOW
_chemical_formula_moiety         'C44 H24 F2'
_chemical_name_systematic        
1,3-bis[(4-fluorophenyl)ethynyl]-6,8-diphenylpyrene
_symmetry_cell_setting           monoclinic
_symmetry_space_group_name_H-M   'P 21/n'
_symmetry_Int_Tables_number      14
_space_group_name_Hall           '-P 2yn'
loop_
_symmetry_equiv_pos_site_id
_symmetry_equiv_pos_as_xyz
1 x,y,z
2 1/2-x,1/2+y,1/2-z
3 -x,-y,-z
4 1/2+x,1/2-y,1/2+z
_cell_length_a                   10.0917(6)
_cell_length_b                   5.7770(4)
_cell_length_c                   50.717(3)
_cell_angle_alpha                90
_cell_angle_beta                 92.356(2)
_cell_angle_gamma                90
_cell_volume                     2954.29
_exptl_crystal_colour            yellow
_exptl_crystal_description       rod
_chemical_melting_point          '536 K'
_cell_formula_units_Z            4
_exptl_crystal_recrystallization_method 
'Re-crystallisation from solvent: chloroform/hexane'
loop_
_atom_site_label
_atom_site_type_symbol
_atom_site_fract_x
_atom_site_fract_y
_atom_site_fract_z
C1 C 0.53216(11) 0.3409(2) 0.37235(2)
C2 C 0.53957(11) 0.1942(2) 0.39512(2)
C3 C 0.63777(11) 0.0175(2) 0.39729(2)
C4 C 0.65158(11) -0.1127(2) 0.42091(2)
C5 C 0.56106(11) -0.0771(2) 0.44068(2)
H1 H 0.5715(15) -0.171(3) 0.4577(3)
C6 C 0.44983(11) 0.2299(2) 0.41582(2)
C7 C 0.46077(11) 0.0885(2) 0.43848(2)
C8 C 0.34847(11) 0.5535(2) 0.39155(2)
H2 H 0.2826(15) 0.679(3) 0.3899(3)
C9 C 0.35228(11) 0.4100(2) 0.41271(2)
H3 H 0.2854(16) 0.430(3) 0.4271(3)
C10 C 0.43927(11) 0.5261(2) 0.37082(2)
C11 C 0.43727(11) 0.6751(2) 0.34864(2)
C12 C 0.52344(12) 0.6360(2) 0.32825(2)
H4 H 0.5228(15) 0.744(3) 0.3132(3)
C13 C 0.61185(12) 0.4506(2) 0.32912(2)
C14 C 0.61834(11) 0.3008(2) 0.35133(2)
C15 C 0.70777(12) 0.1097(2) 0.35306(2)
H5 H 0.7625(16) 0.074(3) 0.3382(3)
C16 C 0.71757(12) -0.0242(2) 0.37499(2)
H6 H 0.7774(16) -0.154(3) 0.3756(3)
C17 C 0.76481(11) -0.2735(2) 0.42628(2)
C18 C 0.89576(12) -0.2058(2) 0.42177(2)
H7 H 0.9133(16) -0.049(3) 0.4141(3)
C19 C 1.00210(12) -0.3503(2) 0.42853(3)
H8 H 1.0907(18) -0.296(3) 0.4253(3)
C20 C 0.98041(13) -0.5642(2) 0.44015(3)
H9 H 1.0537(16) -0.658(3) 0.4466(3)
C21 C 0.85136(13) -0.6333(2) 0.44469(3)
H10 H 0.8330(17) -0.784(3) 0.4531(3)
C22 C 0.74510(12) -0.4901(2) 0.43773(2)
H11 H 0.6534(16) -0.543(3) 0.4407(3)
C23 C 0.36971(11) 0.1211(2) 0.46072(2)
C24 C 0.28074(12) -0.0521(2) 0.46721(3)
H12 H 0.2796(16) -0.196(3) 0.4574(3)
C25 C 0.19372(13) -0.0201(2) 0.48760(3)
H13 H 0.1305(18) -0.141(3) 0.4918(3)
C26 C 0.19557(12) 0.1839(2) 0.50187(2)
H14 H 0.1368(16) 0.209(3) 0.5167(3)
C27 C 0.28493(13) 0.3567(2) 0.49580(2)
H15 H 0.2888(15) 0.501(3) 0.5058(3)
C28 C 0.37146(12) 0.3258(2) 0.47540(2)
H16 H 0.4332(16) 0.449(3) 0.4710(3)
C29 C 0.34661(12) 0.8655(2) 0.34672(2)
C30 C 0.26896(12) 1.0216(2) 0.34463(2)
C31 C 0.17795(12) 1.2105(2) 0.34185(2)
C32 C 0.07996(13) 1.2460(2) 0.36025(3)
H17 H 0.0730(17) 1.136(3) 0.3751(4)
C33 C -0.00592(13) 1.4329(3) 0.35784(3)
H18 H -0.0764(18) 1.461(3) 0.3708(4)
C34 C 0.00770(12) 1.5817(2) 0.33687(3)
C35 C 0.10219(13) 1.5526(2) 0.31822(3)
H19 H 0.1080(17) 1.662(3) 0.3039(3)
C36 C 0.18743(12) 1.3655(2) 0.32079(3)
H20 H 0.2569(16) 1.342(3) 0.3082(3)
F1 F -0.07494(8) 1.76649(15) 0.33443(2)
C37 C 0.69866(12) 0.4136(2) 0.30782(2)
C38 C 0.77654(13) 0.3787(2) 0.29106(2)
C39 C 0.87834(12) 0.3337(2) 0.27282(2)
C40 C 0.91010(13) 0.4961(2) 0.25359(3)
H21 H 0.8631(16) 0.641(3) 0.2515(3)
C41 C 1.01435(14) 0.4563(3) 0.23717(3)
H22 H 1.0383(18) 0.563(3) 0.2237(4)
C42 C 1.08481(13) 0.2530(3) 0.24029(3)
C43 C 1.05552(14) 0.0873(3) 0.25854(3)
H23 H 1.1075(19) -0.050(4) 0.2601(4)
C44 C 0.95080(14) 0.1278(3) 0.27495(3)
H24 H 0.9290(17) 0.015(3) 0.2882(4)
F2 F 1.18805(8) 0.21421(19) 0.22441(2)
loop_
_geom_bond_atom_site_label_1
_geom_bond_atom_site_label_2
_geom_bond_site_symmetry_1
_geom_bond_site_symmetry_2
C1 C2 1_555 1_555
C2 C3 1_555 1_555
C3 C4 1_555 1_555
C4 C5 1_555 1_555
C5 H1 1_555 1_555
C6 C2 1_555 1_555
C7 C5 1_555 1_555
C8 H2 1_555 1_555
C9 C6 1_555 1_555
H3 C9 1_555 1_555
C10 C1 1_555 1_555
C11 C10 1_555 1_555
C12 C11 1_555 1_555
H4 C12 1_555 1_555
C13 C12 1_555 1_555
C14 C1 1_555 1_555
C15 C14 1_555 1_555
H5 C15 1_555 1_555
C16 C3 1_555 1_555
H6 C16 1_555 1_555
C17 C4 1_555 1_555
C18 C17 1_555 1_555
H7 C18 1_555 1_555
C19 C18 1_555 1_555
H8 C19 1_555 1_555
C20 C19 1_555 1_555
H9 C20 1_555 1_555
C21 C20 1_555 1_555
H10 C21 1_555 1_555
C22 C17 1_555 1_555
H11 C22 1_555 1_555
C23 C7 1_555 1_555
C24 C23 1_555 1_555
H12 C24 1_555 1_555
C25 C24 1_555 1_555
H13 C25 1_555 1_555
C26 C25 1_555 1_555
H14 C26 1_555 1_555
C27 C26 1_555 1_555
H15 C27 1_555 1_555
C28 C23 1_555 1_555
H16 C28 1_555 1_555
C29 C11 1_555 1_555
C30 C29 1_555 1_555
C31 C30 1_555 1_555
C32 C31 1_555 1_555
H17 C32 1_555 1_555
C33 C32 1_555 1_555
H18 C33 1_555 1_555
C34 C33 1_555 1_555
C35 C34 1_555 1_555
H19 C35 1_555 1_555
C36 C31 1_555 1_555
H20 C36 1_555 1_555
F1 C34 1_555 1_555
C37 C13 1_555 1_555
C38 C37 1_555 1_555
C39 C38 1_555 1_555
C40 C39 1_555 1_555
H21 C40 1_555 1_555
C41 C40 1_555 1_555
H22 C41 1_555 1_555
C42 C41 1_555 1_555
C43 C42 1_555 1_555
H23 C43 1_555 1_555
C44 C39 1_555 1_555
H24 C44 1_555 1_555
F2 C42 1_555 1_555
C6 C7 1_555 1_555
C8 C9 1_555 1_555
C8 C10 1_555 1_555
C13 C14 1_555 1_555
C15 C16 1_555 1_555
C21 C22 1_555 1_555
C27 C28 1_555 1_555
C35 C36 1_555 1_555
C43 C44 1_555 1_555

#END
