
#######################################################################
#
#                 Cambridge Crystallographic Data Centre
#                                CCDC 
#
#######################################################################
#
# If this CIF has been generated from an entry in the Cambridge 
# Structural Database, then it will include bibliographic, chemical, 
# crystal, experimental, refinement or atomic coordinate data resulting 
# from the CCDC's data processing and validation procedures.
#
#######################################################################

data_DINFIS
_chemical_formula_moiety         'C48 H36 N4,C3 H6 O1'
_chemical_name_systematic        
"5,5'-[quinoxaline-2,3-diylbis(4,1-phenylene)]bis(10,11-dihydro-5H-dibenzo[b,f]azepine) acetone solvate"
_symmetry_cell_setting           triclinic
_symmetry_space_group_name_H-M   'P -1'
_symmetry_Int_Tables_number      2
_space_group_name_Hall           '-P 1'
loop_
_symmetry_equiv_pos_site_id
_symmetry_equiv_pos_as_xyz
1 x,y,z
2 -x,-y,-z
_cell_length_a                   11.1633(11)
_cell_length_b                   12.2381(14)
_cell_length_c                   15.3155(16)
_cell_angle_alpha                102.079(9)
_cell_angle_beta                 93.931(9)
_cell_angle_gamma                93.152(9)
_cell_volume                     2036.07
_exptl_crystal_colour            yellow
_exptl_crystal_description       rhombohedral
_cell_formula_units_Z            2
_exptl_crystal_recrystallization_method 
'Re-crystallisation from solvent: dichloromethane/acetone'
_exptl_crystal_preparation       
'single crystal was grown from solvents mixture (DCM, acetone)'
loop_
_atom_site_label
_atom_site_type_symbol
_atom_site_fract_x
_atom_site_fract_y
_atom_site_fract_z
O1 O 0.3663(9) 0.0807(6) -0.0841(5)
C1 C 0.4743(9) -0.0519(8) -0.1454(6)
H1 H 0.521955 -0.042606 -0.193484
H2 H 0.446867 -0.129291 -0.153132
H3 H 0.522112 -0.028225 -0.089330
C2 C 0.3784(13) 0.0108(6) -0.1455(7)
C3 C 0.2660(11) -0.0159(8) -0.2136(8)
H4 H 0.194907 -0.000386 -0.182574
H5 H 0.261591 -0.093506 -0.243084
H6 H 0.271817 0.029773 -0.257242
N1 N 0.3240(3) 0.6395(3) 0.1709(2)
N2 N 0.6814(3) 0.9229(3) 0.4850(2)
N3 N 0.6555(3) 0.8788(3) 0.6567(2)
N4 N 0.1904(2) 0.5821(3) 0.6957(2)
C4 C 0.2565(4) 0.7028(4) 0.1187(3)
C5 C 0.3132(5) 0.7648(5) 0.0658(3)
H7 H 0.396347 0.767268 0.063861
C6 C 0.2419(7) 0.8244(5) 0.0148(4)
H8 H 0.277281 0.866120 -0.022116
C7 C 0.1197(7) 0.8198(6) 0.0204(5)
H9 H 0.072531 0.860263 -0.012005
C8 C 0.0669(5) 0.7581(5) 0.0716(4)
H10 H -0.016501 0.755012 0.072137
C9 C 0.1319(4) 0.6992(4) 0.1237(3)
C10 C 0.0775(4) 0.6286(4) 0.1819(3)
H11 H -0.005401 0.646312 0.188947
H12 H 0.120791 0.647141 0.240799
C11 C 0.0806(4) 0.5043(4) 0.1442(3)
H13 H 0.040382 0.464775 0.183792
H14 H 0.033259 0.486750 0.086851
C12 C 0.2008(4) 0.4577(4) 0.1304(3)
C13 C 0.2023(5) 0.3407(4) 0.1011(3)
H15 H 0.130183 0.296840 0.094063
C14 C 0.3053(6) 0.2902(5) 0.0829(3)
H16 H 0.302767 0.212846 0.062793
C15 C 0.4133(5) 0.3523(5) 0.0938(3)
H17 H 0.484035 0.317287 0.081929
C16 C 0.4165(4) 0.4663(4) 0.1223(3)
H18 H 0.489633 0.508439 0.128375
C17 C 0.3115(3) 0.5203(3) 0.1423(2)
C18 C 0.3870(3) 0.6917(3) 0.2533(3)
C19 C 0.4115(3) 0.8076(3) 0.2760(3)
H19 H 0.383932 0.851786 0.237388
C20 C 0.4764(3) 0.8568(3) 0.3558(3)
H20 H 0.494219 0.933906 0.368461
C21 C 0.5164(3) 0.7961(3) 0.4180(2)
C22 C 0.4877(3) 0.6812(3) 0.3962(2)
H21 H 0.511269 0.638022 0.436745
C23 C 0.4252(3) 0.6293(3) 0.3160(2)
H22 H 0.408197 0.552124 0.303332
C24 C 0.5933(3) 0.8532(3) 0.4986(2)
C25 C 0.5777(3) 0.8343(3) 0.5876(2)
C26 C 0.7604(3) 0.9716(3) 0.5560(3)
C27 C 0.7492(3) 0.9483(3) 0.6420(3)
C28 C 0.8344(4) 0.9965(4) 0.7136(4)
H23 H 0.826238 0.982515 0.770370
C29 C 0.9295(4) 1.0645(4) 0.6989(4)
H24 H 0.987016 1.095161 0.745737
C30 C 0.9407(4) 1.0881(4) 0.6140(5)
H25 H 1.005468 1.134749 0.605520
C31 C 0.8582(4) 1.0439(4) 0.5434(4)
H26 H 0.866302 1.061127 0.487634
C32 C 0.4740(3) 0.7639(3) 0.6091(2)
C33 C 0.4947(3) 0.6971(3) 0.6710(3)
H27 H 0.572858 0.693795 0.695091
C34 C 0.4021(3) 0.6355(3) 0.6975(3)
H28 H 0.419092 0.588596 0.736616
C35 C 0.2826(3) 0.6430(3) 0.6662(2)
C36 C 0.2618(3) 0.7118(3) 0.6048(2)
H29 H 0.183468 0.718288 0.582619
C37 C 0.3560(3) 0.7700(3) 0.5768(2)
H30 H 0.339980 0.814165 0.535473
C38 C 0.2174(3) 0.4974(3) 0.7450(3)
C39 C 0.2399(3) 0.5232(4) 0.8378(3)
H31 H 0.237366 0.596516 0.869594
C40 C 0.2660(4) 0.4390(5) 0.8821(3)
H32 H 0.280053 0.455891 0.944165
C41 C 0.2713(4) 0.3314(5) 0.8360(3)
H33 H 0.290691 0.275624 0.866435
C42 C 0.2478(4) 0.3055(4) 0.7435(3)
H34 H 0.251045 0.231942 0.712300
C43 C 0.2196(3) 0.3875(3) 0.6969(3)
C44 C 0.1829(3) 0.3634(4) 0.5981(3)
H35 H 0.200189 0.287382 0.571463
H36 H 0.229375 0.413983 0.570230
C45 C 0.0484(3) 0.3775(3) 0.5806(3)
H37 H 0.029538 0.359952 0.516244
H38 H 0.004358 0.321215 0.604383
C46 C -0.0010(3) 0.4888(3) 0.6170(2)
C47 C -0.1245(3) 0.4956(4) 0.6016(3)
H39 H -0.171257 0.431963 0.571358
C48 C -0.1797(4) 0.5934(4) 0.6297(3)
H40 H -0.262178 0.595572 0.617443
C49 C -0.1130(4) 0.6869(4) 0.6756(3)
H41 H -0.149612 0.753369 0.693922
C50 C 0.0093(3) 0.6829(3) 0.6947(3)
H42 H 0.054424 0.746533 0.726792
C51 C 0.0656(3) 0.5839(3) 0.6663(2)
loop_
_geom_bond_atom_site_label_1
_geom_bond_atom_site_label_2
_geom_bond_site_symmetry_1
_geom_bond_site_symmetry_2
O1 C2 1_555 1_555
C1 H1 1_555 1_555
H2 C1 1_555 1_555
H3 C1 1_555 1_555
C2 C1 1_555 1_555
C3 C2 1_555 1_555
H4 C3 1_555 1_555
H5 C3 1_555 1_555
H6 C3 1_555 1_555
N1 C4 1_555 1_555
N2 C24 1_555 1_555
N3 C25 1_555 1_555
N4 C35 1_555 1_555
C4 C5 1_555 1_555
C5 H7 1_555 1_555
C6 C5 1_555 1_555
H8 C6 1_555 1_555
C7 C6 1_555 1_555
H9 C7 1_555 1_555
C8 C7 1_555 1_555
H10 C8 1_555 1_555
C9 C4 1_555 1_555
C10 C9 1_555 1_555
H11 C10 1_555 1_555
H12 C10 1_555 1_555
C11 C10 1_555 1_555
H13 C11 1_555 1_555
H14 C11 1_555 1_555
C12 C11 1_555 1_555
C13 C12 1_555 1_555
H15 C13 1_555 1_555
C14 C13 1_555 1_555
H16 C14 1_555 1_555
C15 C14 1_555 1_555
H17 C15 1_555 1_555
C16 C15 1_555 1_555
H18 C16 1_555 1_555
C17 N1 1_555 1_555
C18 N1 1_555 1_555
C19 C18 1_555 1_555
H19 C19 1_555 1_555
C20 C19 1_555 1_555
H20 C20 1_555 1_555
C21 C20 1_555 1_555
C22 C21 1_555 1_555
H21 C22 1_555 1_555
C23 C18 1_555 1_555
H22 C23 1_555 1_555
C24 C21 1_555 1_555
C25 C24 1_555 1_555
C26 N2 1_555 1_555
C27 N3 1_555 1_555
C28 C27 1_555 1_555
H23 C28 1_555 1_555
C29 C28 1_555 1_555
H24 C29 1_555 1_555
C30 C29 1_555 1_555
H25 C30 1_555 1_555
C31 C26 1_555 1_555
H26 C31 1_555 1_555
C32 C25 1_555 1_555
C33 C32 1_555 1_555
H27 C33 1_555 1_555
C34 C33 1_555 1_555
H28 C34 1_555 1_555
C35 C34 1_555 1_555
C36 C35 1_555 1_555
H29 C36 1_555 1_555
C37 C32 1_555 1_555
H30 C37 1_555 1_555
C38 N4 1_555 1_555
C39 C38 1_555 1_555
H31 C39 1_555 1_555
C40 C39 1_555 1_555
H32 C40 1_555 1_555
C41 C40 1_555 1_555
H33 C41 1_555 1_555
C42 C41 1_555 1_555
H34 C42 1_555 1_555
C43 C38 1_555 1_555
C44 C43 1_555 1_555
H35 C44 1_555 1_555
H36 C44 1_555 1_555
C45 C44 1_555 1_555
H37 C45 1_555 1_555
H38 C45 1_555 1_555
C46 C45 1_555 1_555
C47 C46 1_555 1_555
H39 C47 1_555 1_555
C48 C47 1_555 1_555
H40 C48 1_555 1_555
C49 C48 1_555 1_555
H41 C49 1_555 1_555
C50 C49 1_555 1_555
H42 C50 1_555 1_555
C51 N4 1_555 1_555
C8 C9 1_555 1_555
C12 C17 1_555 1_555
C16 C17 1_555 1_555
C22 C23 1_555 1_555
C26 C27 1_555 1_555
C30 C31 1_555 1_555
C36 C37 1_555 1_555
C42 C43 1_555 1_555
C46 C51 1_555 1_555
C50 C51 1_555 1_555

#END
