
#######################################################################
#
#                 Cambridge Crystallographic Data Centre
#                                CCDC 
#
#######################################################################
#
# If this CIF has been generated from an entry in the Cambridge 
# Structural Database, then it will include bibliographic, chemical, 
# crystal, experimental, refinement or atomic coordinate data resulting 
# from the CCDC's data processing and validation procedures.
#
#######################################################################

data_DINFAK
_chemical_formula_moiety         'C16 H16 N4'
_chemical_name_systematic        
N^6^,N^6^-dimethyldibenzo[b,f][1,5]diazocine-6,12-diamine
_symmetry_cell_setting           monoclinic
_symmetry_space_group_name_H-M   'P 21/n'
_symmetry_Int_Tables_number      14
_space_group_name_Hall           '-P 2yn'
loop_
_symmetry_equiv_pos_site_id
_symmetry_equiv_pos_as_xyz
1 x,y,z
2 1/2-x,1/2+y,1/2-z
3 -x,-y,-z
4 1/2+x,1/2-y,1/2+z
_cell_length_a                   9.0872(3)
_cell_length_b                   7.1679(3)
_cell_length_c                   20.3822(8)
_cell_angle_alpha                90
_cell_angle_beta                 92.109(4)
_cell_angle_gamma                90
_cell_volume                     1326.72
_exptl_crystal_colour            colorless
_exptl_crystal_description       block
_cell_formula_units_Z            4
loop_
_atom_site_label
_atom_site_type_symbol
_atom_site_fract_x
_atom_site_fract_y
_atom_site_fract_z
N1 N 0.38292(8) 0.88558(11) 0.70949(4)
N2 N 0.52587(8) 0.52682(10) 0.63038(3)
N3 N 0.62583(8) 0.92635(12) 0.74024(4)
N4 N 0.34083(9) 0.36978(11) 0.68116(4)
C1 C 0.39121(9) 0.51985(11) 0.64801(4)
C2 C 0.52053(8) 0.88885(11) 0.69346(4)
C3 C 0.57079(8) 0.86447(12) 0.62492(4)
C4 C 0.57120(8) 0.68676(12) 0.59608(4)
C5 C 0.27509(8) 0.66108(12) 0.63038(4)
C6 C 0.67730(10) 0.82133(14) 0.49967(4)
H1 H 0.713060 0.806477 0.457819
C7 C 0.27572(8) 0.83669(12) 0.66071(4)
C8 C 0.67334(10) 0.99814(14) 0.52755(5)
H2 H 0.705358 1.101358 0.504392
C9 C 0.05126(10) 0.73993(15) 0.56837(4)
H3 H -0.021390 0.709376 0.536874
C10 C 0.04908(10) 0.91217(15) 0.59971(5)
H4 H -0.025958 0.996644 0.589440
C11 C 0.16286(9) 0.61400(13) 0.58453(4)
H5 H 0.163009 0.497175 0.564682
C12 C 0.62843(9) 0.66656(13) 0.53363(4)
H6 H 0.633765 0.548736 0.514760
C13 C 0.78292(9) 0.91819(15) 0.72933(5)
H7 H 0.798522 0.869603 0.686251
H8 H 0.829877 0.838321 0.761596
H9 H 0.824091 1.041266 0.732947
C14 C 0.15846(9) 0.95873(13) 0.64628(5)
H10 H 0.153793 1.072322 0.668157
C15 C 0.58176(11) 0.95661(17) 0.80727(5)
H11 H 0.509912 1.054713 0.807923
H12 H 0.666297 0.991179 0.834192
H13 H 0.539983 0.843924 0.823945
C16 C 0.62105(9) 1.01927(12) 0.59040(4)
H14 H 0.619473 1.136930 0.609598
H15 H 0.4073(18) 0.284(2) 0.6942(8)
H16 H 0.258(2) 0.383(3) 0.7061(9)
loop_
_geom_bond_atom_site_label_1
_geom_bond_atom_site_label_2
_geom_bond_site_symmetry_1
_geom_bond_site_symmetry_2
N1 C2 1_555 1_555
N2 C1 1_555 1_555
N3 C2 1_555 1_555
N4 C1 1_555 1_555
C1 C5 1_555 1_555
C2 C3 1_555 1_555
C3 C4 1_555 1_555
C4 N2 1_555 1_555
C5 C7 1_555 1_555
C6 H1 1_555 1_555
C7 N1 1_555 1_555
C8 C6 1_555 1_555
H2 C8 1_555 1_555
C9 H3 1_555 1_555
C10 C9 1_555 1_555
H4 C10 1_555 1_555
C11 C5 1_555 1_555
H5 C11 1_555 1_555
C12 C4 1_555 1_555
H6 C12 1_555 1_555
C13 N3 1_555 1_555
H7 C13 1_555 1_555
H8 C13 1_555 1_555
H9 C13 1_555 1_555
C14 C7 1_555 1_555
H10 C14 1_555 1_555
C15 N3 1_555 1_555
H11 C15 1_555 1_555
H12 C15 1_555 1_555
H13 C15 1_555 1_555
C16 C3 1_555 1_555
H14 C16 1_555 1_555
H15 N4 1_555 1_555
H16 N4 1_555 1_555
C6 C12 1_555 1_555
C8 C16 1_555 1_555
C9 C11 1_555 1_555
C10 C14 1_555 1_555

#END
