
#######################################################################
#
#                 Cambridge Crystallographic Data Centre
#                                CCDC 
#
#######################################################################
#
# If this CIF has been generated from an entry in the Cambridge 
# Structural Database, then it will include bibliographic, chemical, 
# crystal, experimental, refinement or atomic coordinate data resulting 
# from the CCDC's data processing and validation procedures.
#
#######################################################################

data_DINFEO
_chemical_formula_moiety         'C18 H18 Br2 N4'
_chemical_name_systematic        
2,8-dibromo-N^6^,N^6^,N^12^,N^12^-tetramethyldibenzo[b,f][1,5]diazocine-6,12-diamine
_symmetry_cell_setting           orthorhombic
_symmetry_space_group_name_H-M   'P 21 21 21'
_symmetry_Int_Tables_number      19
_space_group_name_Hall           'P 2ac 2ab'
loop_
_symmetry_equiv_pos_site_id
_symmetry_equiv_pos_as_xyz
1 x,y,z
2 1/2-x,-y,1/2+z
3 -x,1/2+y,1/2-z
4 1/2+x,1/2-y,-z
_cell_length_a                   8.4885(2)
_cell_length_b                   13.2590(4)
_cell_length_c                   16.0486(5)
_cell_angle_alpha                90
_cell_angle_beta                 90
_cell_angle_gamma                90
_cell_volume                     1806.25
_exptl_crystal_colour            colorless
_exptl_crystal_description       slab
_cell_formula_units_Z            4
loop_
_atom_site_label
_atom_site_type_symbol
_atom_site_fract_x
_atom_site_fract_y
_atom_site_fract_z
Br1 Br 0.13519(4) 0.47122(3) 0.13583(2)
Br2 Br 0.65768(5) 0.16623(3) 0.51436(2)
N1 N 0.7724(3) 0.5444(2) 0.31039(16)
N2 N 0.6957(3) 0.6856(2) 0.24051(18)
N3 N 0.4973(3) 0.6139(2) 0.44028(16)
N4 N 0.7052(3) 0.6056(2) 0.52966(18)
C1 C 0.2466(3) 0.5180(2) 0.2307(2)
C2 C 0.6391(4) 0.3771(2) 0.48164(19)
H1 H 0.586782 0.380653 0.532466
C3 C 0.6911(4) 0.2848(2) 0.4509(2)
C4 C 0.4035(3) 0.5449(2) 0.22232(19)
H2 H 0.451711 0.543466 0.170290
C5 C 0.6183(3) 0.5653(2) 0.46744(17)
C6 C 0.4887(3) 0.5743(2) 0.29253(19)
C7 C 0.6598(3) 0.6010(2) 0.28357(17)
C8 C 0.7390(3) 0.4576(2) 0.35650(18)
C9 C 0.4168(3) 0.5775(2) 0.37066(19)
C10 C 0.1713(3) 0.5232(2) 0.3074(2)
H3 H 0.065140 0.506765 0.312126
C11 C 0.7691(3) 0.2779(2) 0.3750(2)
H4 H 0.805590 0.215946 0.355783
C12 C 0.8627(4) 0.7117(3) 0.2330(2)
H5 H 0.903746 0.728908 0.286841
H6 H 0.874140 0.768154 0.196037
H7 H 0.919623 0.655012 0.211051
C13 C 0.2561(3) 0.5529(2) 0.3764(2)
H8 H 0.205879 0.556849 0.427779
C14 C 0.6666(3) 0.4643(2) 0.43521(17)
C15 C 0.7915(3) 0.3638(2) 0.3289(2)
H9 H 0.843114 0.359390 0.277944
C16 C 0.6678(5) 0.7063(3) 0.5592(2)
H10 H 0.730332 0.754840 0.529629
H11 H 0.690143 0.710818 0.617762
H12 H 0.558096 0.719916 0.549884
C17 C 0.5856(4) 0.7693(3) 0.2325(3)
H13 H 0.479794 0.744813 0.238640
H14 H 0.597446 0.799837 0.178616
H15 H 0.606926 0.818458 0.274949
C18 C 0.8442(5) 0.5608(4) 0.5645(3)
H16 H 0.857469 0.494072 0.542348
H17 H 0.833817 0.557147 0.624017
H18 H 0.934274 0.601138 0.550548
loop_
_geom_bond_atom_site_label_1
_geom_bond_atom_site_label_2
_geom_bond_site_symmetry_1
_geom_bond_site_symmetry_2
Br1 C1 1_555 1_555
Br2 C3 1_555 1_555
N1 C7 1_555 1_555
N2 C7 1_555 1_555
N3 C5 1_555 1_555
N4 C5 1_555 1_555
C1 C4 1_555 1_555
C2 H1 1_555 1_555
C3 C2 1_555 1_555
C4 H2 1_555 1_555
C5 C14 1_555 1_555
C6 C4 1_555 1_555
C7 C6 1_555 1_555
C8 N1 1_555 1_555
C9 N3 1_555 1_555
C10 C1 1_555 1_555
H3 C10 1_555 1_555
C11 C3 1_555 1_555
H4 C11 1_555 1_555
C12 N2 1_555 1_555
H5 C12 1_555 1_555
H6 C12 1_555 1_555
H7 C12 1_555 1_555
C13 C9 1_555 1_555
H8 C13 1_555 1_555
C14 C2 1_555 1_555
C15 C8 1_555 1_555
H9 C15 1_555 1_555
C16 N4 1_555 1_555
H10 C16 1_555 1_555
H11 C16 1_555 1_555
H12 C16 1_555 1_555
C17 N2 1_555 1_555
H13 C17 1_555 1_555
H14 C17 1_555 1_555
H15 C17 1_555 1_555
C18 N4 1_555 1_555
H16 C18 1_555 1_555
H17 C18 1_555 1_555
H18 C18 1_555 1_555
C6 C9 1_555 1_555
C8 C14 1_555 1_555
C10 C13 1_555 1_555
C11 C15 1_555 1_555

#END
