
#######################################################################
#
#                 Cambridge Crystallographic Data Centre
#                                CCDC 
#
#######################################################################
#
# If this CIF has been generated from an entry in the Cambridge 
# Structural Database, then it will include bibliographic, chemical, 
# crystal, experimental, refinement or atomic coordinate data resulting 
# from the CCDC's data processing and validation procedures.
#
#######################################################################

data_DINICA12
_chemical_name_common            'Dinicotinic acid'
_chemical_formula_moiety         'C7 H5 N1 O4'
_chemical_name_systematic        'Pyridine-3,5-dicarboxylic acid'
_symmetry_cell_setting           monoclinic
_symmetry_space_group_name_H-M   'P 21/c'
_symmetry_Int_Tables_number      14
_space_group_name_Hall           '-P 2ybc'
loop_
_symmetry_equiv_pos_site_id
_symmetry_equiv_pos_as_xyz
1 x,y,z
2 -x,1/2+y,1/2-z
3 -x,-y,-z
4 x,1/2-y,1/2+z
_cell_length_a                   9.6986(7)
_cell_length_b                   11.1571(8)
_cell_length_c                   6.5891(6)
_cell_angle_alpha                90
_cell_angle_beta                 107.804(5)
_cell_angle_gamma                90
_cell_volume                     678.848
_exptl_crystal_colour            colorless
_exptl_crystal_description       plate
_cell_formula_units_Z            4
loop_
_atom_site_label
_atom_site_type_symbol
_atom_site_fract_x
_atom_site_fract_y
_atom_site_fract_z
C1 C -0.3157(2) -0.34187(17) 0.2276(4)
C2 C -0.38857(18) -0.44574(16) 0.2522(3)
C3 C -0.31873(18) -0.55575(17) 0.2626(4)
C4 C -0.17906(18) -0.55940(17) 0.2471(4)
C5 C -0.11383(19) -0.45223(17) 0.2227(4)
C6 C -0.53895(18) -0.44083(17) 0.2646(4)
C7 C -0.0963(2) -0.67395(17) 0.2573(4)
H1 H -0.3635(5) -0.2541(4) 0.2194(10)
H2 H -0.3751(5) -0.6367(4) 0.2818(10)
H3 H -0.0031(5) -0.4488(4) 0.2147(10)
H4 H -0.6875(5) -0.3219(4) 0.2674(10)
H5 H 0.1072(5) -0.7497(5) 0.2873(10)
N1 N -0.18153(15) -0.34739(13) 0.2132(3)
O1 O -0.5836(3) -0.3302(2) 0.2714(6)
O2 O -0.6109(2) -0.5289(2) 0.2655(5)
O3 O -0.1542(2) -0.7722(2) 0.2467(5)
O4 O 0.0382(2) -0.6578(2) 0.2810(6)
loop_
_geom_bond_atom_site_label_1
_geom_bond_atom_site_label_2
_geom_bond_site_symmetry_1
_geom_bond_site_symmetry_2
C1 C2 1_555 1_555
C2 C3 1_555 1_555
C3 C4 1_555 1_555
C4 C5 1_555 1_555
C5 H3 1_555 1_555
C6 C2 1_555 1_555
C7 C4 1_555 1_555
H1 C1 1_555 1_555
H2 C3 1_555 1_555
H4 O1 1_555 1_555
H5 O4 1_555 1_555
N1 C1 1_555 1_555
O1 C6 1_555 1_555
O2 C6 1_555 1_555
O3 C7 1_555 1_555
O4 C7 1_555 1_555
C5 N1 1_555 1_555

#END
