
#######################################################################
#
#                 Cambridge Crystallographic Data Centre
#                                CCDC 
#
#######################################################################
#
# If this CIF has been generated from an entry in the Cambridge 
# Structural Database, then it will include bibliographic, chemical, 
# crystal, experimental, refinement or atomic coordinate data resulting 
# from the CCDC's data processing and validation procedures.
#
#######################################################################

data_DINQEW
_chemical_formula_moiety         'C17 H27 Cl1 N8 Si1 2+,2(Cl1 1-),3(C1 H1 Cl3)'
_chemical_name_systematic        
'Chloro-methyl-tetrakis(3-methylimidazolyl)silane dichloride chloroform solvate'
_symmetry_cell_setting           monoclinic
_symmetry_space_group_name_H-M   'P 21/c'
_symmetry_Int_Tables_number      14
_space_group_name_Hall           '-P 2ybc'
loop_
_symmetry_equiv_pos_site_id
_symmetry_equiv_pos_as_xyz
1 x,y,z
2 x,1/2-y,1/2+z
3 -x,-y,-z
4 -x,1/2+y,1/2-z
_cell_length_a                   9.4919(3)
_cell_length_b                   30.3176(6)
_cell_length_c                   12.9893(5)
_cell_angle_alpha                90
_cell_angle_beta                 101.306(1)
_cell_angle_gamma                90
_cell_volume                     3665.41
_exptl_crystal_colour            colorless
_exptl_crystal_description       needle
_cell_formula_units_Z            4
loop_
_atom_site_label
_atom_site_type_symbol
_atom_site_fract_x
_atom_site_fract_y
_atom_site_fract_z
Si1 Si 0.3757(3) 0.31245(9) 0.7205(2)
C1 C 0.497(2) 0.3103(8) 0.6217(17)
H1 H 0.5759 0.2896 0.6460
H2 H 0.5363 0.3397 0.6139
H3 H 0.4419 0.3003 0.5538
Cl2 Cl 0.2442(6) 0.31374(18) 0.8409(4)
N1 N 0.3669(9) 0.3762(2) 0.7148(7)
C3 C 0.3472(11) 0.4023(3) 0.6309(9)
H7 H 0.3314 0.3923 0.5603
N2 N 0.3527(10) 0.4452(3) 0.6604(8)
C4 C 0.3376(13) 0.4840(3) 0.5905(9)
H8 H 0.3468 0.5109 0.6329
H9 H 0.2432 0.4834 0.5437
H10 H 0.4129 0.4834 0.5486
C5 C 0.3778(12) 0.4461(4) 0.7659(10)
H11 H 0.3860 0.4717 0.8089
C6 C 0.3891(12) 0.4042(4) 0.7990(9)
H12 H 0.4095 0.3953 0.8704
N3 N 0.2094(9) 0.3058(3) 0.6145(6)
C7 C 0.0767(12) 0.3213(3) 0.6091(9)
H13 H 0.0505 0.3402 0.6605
N4 N -0.0144(9) 0.3076(3) 0.5251(8)
C8 C -0.1677(11) 0.3160(4) 0.4990(9)
H14 H -0.2083 0.3020 0.4318
H15 H -0.1847 0.3479 0.4934
H16 H -0.2137 0.3039 0.5540
C9 C 0.0594(13) 0.2804(4) 0.4710(9)
H17 H 0.0220 0.2654 0.4073
C10 C 0.1979(12) 0.2789(3) 0.5261(8)
H18 H 0.2738 0.2623 0.5073
N5 N 0.5439(9) 0.3155(3) 0.8329(6)
C11 C 0.6702(13) 0.3332(3) 0.8302(9)
H19 H 0.6909 0.3488 0.7715
N6 N 0.7651(10) 0.3268(3) 0.9188(8)
C12 C 0.9154(12) 0.3411(4) 0.9388(10)
H20 H 0.9622 0.3323 1.0099
H21 H 0.9197 0.3732 0.9322
H22 H 0.9650 0.3272 0.8877
C13 C 0.6957(13) 0.3018(4) 0.9826(10)
H23 H 0.7354 0.2916 1.0513
C14 C 0.5638(13) 0.2949(4) 0.9302(10)
H24 H 0.4928 0.2782 0.9553
N7 N 0.3865(9) 0.2496(2) 0.7348(6)
C15 C 0.5048(11) 0.2253(3) 0.7382(8)
H25 H 0.5950 0.2361 0.7279
N8 N 0.4758(9) 0.1833(3) 0.7585(7)
C16 C 0.5778(11) 0.1463(3) 0.7666(10)
H26 H 0.5308 0.1191 0.7833
H27 H 0.6613 0.1524 0.8223
H28 H 0.6094 0.1426 0.6996
C17 C 0.3329(12) 0.1801(3) 0.7657(9)
H29 H 0.2836 0.1541 0.7789
C18 C 0.2765(12) 0.2213(3) 0.7504(8)
H30 H 0.1798 0.2294 0.7504
C19 C 0.8108(13) 0.4596(4) 0.6800(10)
H31 H 0.7956 0.4915 0.6622
Cl3 Cl 0.7797(6) 0.45084(13) 0.8077(4)
Cl4 Cl 0.6913(4) 0.42896(11) 0.5910(3)
Cl5 Cl 0.9877(4) 0.44577(14) 0.6754(4)
C20 C 0.6966(14) 0.5585(4) 0.9214(10)
H32 H 0.7083 0.5497 0.8494
Cl6 Cl 0.8054(6) 0.52546(16) 1.0141(3)
Cl7 Cl 0.7443(4) 0.61406(11) 0.9436(3)
Cl8 Cl 0.5156(4) 0.55133(11) 0.9330(3)
C21 C 0.9959(15) 0.0903(4) 0.7740(11)
H33 H 1.1007 0.0845 0.7787
Cl9 Cl 0.9624(3) 0.14665(9) 0.7485(3)
Cl10 Cl 0.8993(6) 0.05906(14) 0.6722(5)
Cl11 Cl 0.9491(6) 0.07621(12) 0.8961(4)
Cl12 Cl 0.8611(3) 0.25075(8) 0.7274(2)
Cl13 Cl 0.6611(3) 0.56367(9) 0.6582(2)
Cl1? Cl 0.5049(10) 0.3142(3) 0.5989(6)
C2? C 0.250(3) 0.3200(11) 0.815(2)
H4? H 0.2648 0.2962 0.8673
H5? H 0.1500 0.3193 0.7766
H6? H 0.2686 0.3485 0.8510
loop_
_geom_bond_atom_site_label_1
_geom_bond_atom_site_label_2
_geom_bond_site_symmetry_1
_geom_bond_site_symmetry_2
Si1 C1 1_555 1_555
C1 H1 1_555 1_555
H2 C1 1_555 1_555
H3 C1 1_555 1_555
Cl2 Si1 1_555 1_555
N1 Si1 1_555 1_555
C3 N1 1_555 1_555
H7 C3 1_555 1_555
N2 C3 1_555 1_555
C4 N2 1_555 1_555
H8 C4 1_555 1_555
H9 C4 1_555 1_555
H10 C4 1_555 1_555
C5 N2 1_555 1_555
H11 C5 1_555 1_555
C6 N1 1_555 1_555
H12 C6 1_555 1_555
N3 Si1 1_555 1_555
C7 N3 1_555 1_555
H13 C7 1_555 1_555
N4 C7 1_555 1_555
C8 N4 1_555 1_555
H14 C8 1_555 1_555
H15 C8 1_555 1_555
H16 C8 1_555 1_555
C9 N4 1_555 1_555
H17 C9 1_555 1_555
C10 N3 1_555 1_555
H18 C10 1_555 1_555
N5 Si1 1_555 1_555
C11 N5 1_555 1_555
H19 C11 1_555 1_555
N6 C11 1_555 1_555
C12 N6 1_555 1_555
H20 C12 1_555 1_555
H21 C12 1_555 1_555
H22 C12 1_555 1_555
C13 N6 1_555 1_555
H23 C13 1_555 1_555
C14 N5 1_555 1_555
H24 C14 1_555 1_555
N7 Si1 1_555 1_555
C15 N7 1_555 1_555
H25 C15 1_555 1_555
N8 C15 1_555 1_555
C16 N8 1_555 1_555
H26 C16 1_555 1_555
H27 C16 1_555 1_555
H28 C16 1_555 1_555
C17 N8 1_555 1_555
H29 C17 1_555 1_555
C18 N7 1_555 1_555
H30 C18 1_555 1_555
C19 H31 1_555 1_555
Cl3 C19 1_555 1_555
Cl4 C19 1_555 1_555
Cl5 C19 1_555 1_555
C20 H32 1_555 1_555
Cl6 C20 1_555 1_555
Cl7 C20 1_555 1_555
Cl8 C20 1_555 1_555
C21 H33 1_555 1_555
Cl9 C21 1_555 1_555
Cl10 C21 1_555 1_555
Cl11 C21 1_555 1_555
C5 C6 1_555 1_555
C9 C10 1_555 1_555
C13 C14 1_555 1_555
C17 C18 1_555 1_555

#END
