
#######################################################################
#
#                 Cambridge Crystallographic Data Centre
#                                CCDC 
#
#######################################################################
#
# If this CIF has been generated from an entry in the Cambridge 
# Structural Database, then it will include bibliographic, chemical, 
# crystal, experimental, refinement or atomic coordinate data resulting 
# from the CCDC's data processing and validation procedures.
#
#######################################################################

data_DINREZ
_chemical_formula_moiety         'C27 H20 N2 O1,C1 H1 Cl3'
_chemical_name_systematic        
'1-(3-Phenyl-5-(pyren-1-yl)-4,5-dihydro-1H-pyrazol-1-yl)ethanone chloroform solvate'
_symmetry_cell_setting           triclinic
_symmetry_space_group_name_H-M   'P -1'
_symmetry_Int_Tables_number      2
_space_group_name_Hall           '-P 1'
loop_
_symmetry_equiv_pos_site_id
_symmetry_equiv_pos_as_xyz
1 x,y,z
2 -x,-y,-z
_cell_length_a                   9.3580(19)
_cell_length_b                   13.305(3)
_cell_length_c                   20.465(4)
_cell_angle_alpha                95.37(3)
_cell_angle_beta                 95.93(3)
_cell_angle_gamma                100.08(3)
_cell_volume                     2479.03
_exptl_crystal_colour            'light yellow'
_exptl_crystal_description       needle
_cell_formula_units_Z            4
loop_
_atom_site_label
_atom_site_type_symbol
_atom_site_fract_x
_atom_site_fract_y
_atom_site_fract_z
O1 O 0.4014(3) 0.3090(2) 0.37121(14)
N1 N 0.5151(4) 0.1786(3) 0.34929(17)
N2 N 0.5754(4) 0.0956(3) 0.36817(17)
C1 C 0.6469(4) 0.2973(3) 0.2765(2)
C2 C 0.7469(4) 0.3367(3) 0.3316(2)
H1 H 0.7443 0.3043 0.3699
C3 C 0.8513(5) 0.4244(3) 0.3298(2)
H2 H 0.9163 0.4516 0.3673
C4 C 0.8589(5) 0.4728(3) 0.2706(2)
C5 C 0.7620(5) 0.4326(3) 0.2175(2)
C6 C 0.6512(5) 0.3414(3) 0.2184(2)
C7 C 0.9735(5) 0.5610(4) 0.2694(3)
H3 H 1.0428 0.5857 0.3059
C8 C 0.9749(6) 0.6050(4) 0.2137(3)
H4 H 1.0415 0.6655 0.2132
C9 C 0.8808(6) 0.5647(4) 0.1556(3)
C10 C 0.7686(6) 0.4797(4) 0.1549(3)
C11 C 0.8899(7) 0.6111(5) 0.0966(3)
H5 H 0.9602 0.6695 0.0954
C12 C 0.7973(8) 0.5711(5) 0.0422(3)
H6 H 0.8088 0.6003 0.0031
C13 C 0.6846(7) 0.4876(5) 0.0424(3)
H7 H 0.6190 0.4642 0.0045
C14 C 0.6703(6) 0.4389(4) 0.1000(3)
C15 C 0.5587(5) 0.3530(4) 0.1038(2)
H8 H 0.4887 0.3294 0.0674
C16 C 0.5514(5) 0.3036(3) 0.1601(2)
H9 H 0.4807 0.2450 0.1600
C17 C 0.5360(5) 0.1963(3) 0.2806(2)
H10 H 0.4419 0.1983 0.2554
C18 C 0.5916(4) 0.1000(3) 0.25605(19)
H11 H 0.5178 0.0543 0.2250
H12 H 0.6794 0.1176 0.2349
C19 C 0.6235(4) 0.0515(4) 0.3185(2)
C20 C 0.4504(5) 0.2386(4) 0.3907(2)
C21 C 0.4460(5) 0.2073(3) 0.45944(19)
H13 H 0.3947 0.2509 0.4844
H14 H 0.5440 0.2138 0.4808
H15 H 0.3965 0.1372 0.4569
C22 C 0.6897(5) -0.0391(4) 0.3239(2)
C23 C 0.6790(5) -0.0931(4) 0.3769(2)
H16 H 0.6256 -0.0733 0.4102
C24 C 0.7441(6) -0.1742(4) 0.3819(3)
H17 H 0.7350 -0.2095 0.4188
C25 C 0.8223(5) -0.2065(4) 0.3353(3)
H18 H 0.8676 -0.2627 0.3404
C26 C 0.8344(5) -0.1552(4) 0.2797(3)
H19 H 0.8865 -0.1782 0.2468
C27 C 0.7708(5) -0.0712(4) 0.2726(2)
H20 H 0.7797 -0.0361 0.2356
O2 O -0.1961(3) 0.1427(2) 0.12648(15)
N3 N 0.0003(4) 0.2670(2) 0.15255(17)
N4 N 0.0964(4) 0.3526(2) 0.13864(18)
C28 C 0.0965(4) 0.1408(3) 0.2203(2)
C29 C 0.1447(5) 0.0962(3) 0.1667(2)
H21 H 0.1385 0.1266 0.1277
C30 C 0.2012(5) 0.0098(4) 0.1671(2)
H22 H 0.2314 -0.0172 0.1284
C31 C 0.2154(5) -0.0390(3) 0.2218(2)
C32 C 0.1685(4) 0.0063(3) 0.2819(2)
C33 C 0.1088(4) 0.0969(3) 0.2797(2)
C34 C 0.2801(5) -0.1283(3) 0.2288(3)
H23 H 0.3153 -0.1569 0.1919
C35 C 0.2937(5) -0.1739(4) 0.2843(3)
H24 H 0.3337 -0.2331 0.2849
C36 C 0.2462(5) -0.1303(4) 0.3414(3)
C37 C 0.1852(5) -0.0395(3) 0.3425(2)
C38 C 0.2607(5) -0.1740(4) 0.4030(3)
H25 H 0.3000 -0.2332 0.4055
C39 C 0.2165(6) -0.1280(5) 0.4575(3)
H26 H 0.2301 -0.1563 0.4971
C40 C 0.1542(5) -0.0435(4) 0.4580(2)
H27 H 0.1216 -0.0174 0.4964
C41 C 0.1393(5) 0.0042(4) 0.4000(3)
C42 C 0.0769(5) 0.0945(3) 0.3951(2)
H28 H 0.0446 0.1239 0.4326
C43 C 0.0629(5) 0.1384(3) 0.3397(2)
H29 H 0.0224 0.1974 0.3397
C44 C 0.0361(4) 0.2394(3) 0.22014(19)
H30 H -0.0505 0.2340 0.2437
C45 C 0.1498(4) 0.3358(3) 0.25002(18)
H31 H 0.1105 0.3781 0.2823
H32 H 0.2385 0.3174 0.2705
C46 C 0.1765(5) 0.3887(3) 0.1893(2)
C47 C -0.1132(5) 0.2140(3) 0.1097(2)
C48 C -0.1297(5) 0.2497(3) 0.0426(2)
H33 H -0.2116 0.2063 0.0157
H34 H -0.0424 0.2465 0.0222
H35 H -0.1456 0.3193 0.0467
C49 C 0.2925(5) 0.4823(3) 0.1933(2)
C50 C 0.4008(5) 0.5119(3) 0.2471(2)
H36 H 0.3997 0.4744 0.2832
C51 C 0.5085(6) 0.5956(4) 0.2472(3)
H37 H 0.5829 0.6120 0.2825
C52 C 0.5092(6) 0.6545(4) 0.1975(3)
H38 H 0.5815 0.7128 0.1999
C53 C 0.4038(6) 0.6303(4) 0.1423(3)
H39 H 0.4048 0.6706 0.1075
C54 C 0.2938(5) 0.5403(3) 0.1416(2)
H40 H 0.2222 0.5211 0.1054
C55 C 0.7433(5) 0.5627(3) 0.5238(2)
H41 H 0.6903 0.6018 0.5527
Cl1 Cl 0.76812(18) 0.45310(12) 0.55883(11)
Cl2 Cl 0.64006(18) 0.53326(14) 0.44639(7)
Cl3 Cl 0.91051(17) 0.63978(11) 0.51685(9)
C56 C -0.3046(7) -0.0737(5) 0.0566(3)
H42 H -0.2749 0.0004 0.0698
Cl4 Cl -0.3793(3) -0.09300(15) -0.02590(9)
Cl5 Cl -0.4547(3) -0.11830(16) 0.09519(9)
Cl6 Cl -0.1719(4) -0.1250(3) 0.0729(2)
loop_
_geom_bond_atom_site_label_1
_geom_bond_atom_site_label_2
_geom_bond_site_symmetry_1
_geom_bond_site_symmetry_2
O1 C20 1_555 1_555
N1 N2 1_555 1_555
N2 C19 1_555 1_555
C1 C2 1_555 1_555
C2 H1 1_555 1_555
C3 C2 1_555 1_555
H2 C3 1_555 1_555
C4 C3 1_555 1_555
C5 C4 1_555 1_555
C6 C1 1_555 1_555
C7 C4 1_555 1_555
H3 C7 1_555 1_555
C8 C7 1_555 1_555
H4 C8 1_555 1_555
C9 C8 1_555 1_555
C10 C5 1_555 1_555
C11 C9 1_555 1_555
H5 C11 1_555 1_555
C12 C11 1_555 1_555
H6 C12 1_555 1_555
C13 C12 1_555 1_555
H7 C13 1_555 1_555
C14 C10 1_555 1_555
C15 C14 1_555 1_555
H8 C15 1_555 1_555
C16 C6 1_555 1_555
H9 C16 1_555 1_555
C17 N1 1_555 1_555
H10 C17 1_555 1_555
C18 C17 1_555 1_555
H11 C18 1_555 1_555
H12 C18 1_555 1_555
C19 C18 1_555 1_555
C20 N1 1_555 1_555
C21 C20 1_555 1_555
H13 C21 1_555 1_555
H14 C21 1_555 1_555
H15 C21 1_555 1_555
C22 C19 1_555 1_555
C23 C22 1_555 1_555
H16 C23 1_555 1_555
C24 C23 1_555 1_555
H17 C24 1_555 1_555
C25 C24 1_555 1_555
H18 C25 1_555 1_555
C26 C25 1_555 1_555
H19 C26 1_555 1_555
C27 C22 1_555 1_555
H20 C27 1_555 1_555
O2 C47 1_555 1_555
N3 N4 1_555 1_555
N4 C46 1_555 1_555
C28 C29 1_555 1_555
C29 H21 1_555 1_555
C30 C29 1_555 1_555
H22 C30 1_555 1_555
C31 C30 1_555 1_555
C32 C31 1_555 1_555
C33 C28 1_555 1_555
C34 C31 1_555 1_555
H23 C34 1_555 1_555
C35 C34 1_555 1_555
H24 C35 1_555 1_555
C36 C35 1_555 1_555
C37 C32 1_555 1_555
C38 C36 1_555 1_555
H25 C38 1_555 1_555
C39 C38 1_555 1_555
H26 C39 1_555 1_555
C40 C39 1_555 1_555
H27 C40 1_555 1_555
C41 C37 1_555 1_555
C42 C41 1_555 1_555
H28 C42 1_555 1_555
C43 C33 1_555 1_555
H29 C43 1_555 1_555
C44 N3 1_555 1_555
H30 C44 1_555 1_555
C45 C44 1_555 1_555
H31 C45 1_555 1_555
H32 C45 1_555 1_555
C46 C45 1_555 1_555
C47 N3 1_555 1_555
C48 C47 1_555 1_555
H33 C48 1_555 1_555
H34 C48 1_555 1_555
H35 C48 1_555 1_555
C49 C46 1_555 1_555
C50 C49 1_555 1_555
H36 C50 1_555 1_555
C51 C50 1_555 1_555
H37 C51 1_555 1_555
C52 C51 1_555 1_555
H38 C52 1_555 1_555
C53 C52 1_555 1_555
H39 C53 1_555 1_555
C54 C49 1_555 1_555
H40 C54 1_555 1_555
C55 H41 1_555 1_555
Cl1 C55 1_555 1_555
Cl2 C55 1_555 1_555
Cl3 C55 1_555 1_555
C56 H42 1_555 1_555
Cl4 C56 1_555 1_555
Cl5 C56 1_555 1_555
Cl6 C56 1_555 1_555
C1 C17 1_555 1_555
C5 C6 1_555 1_555
C9 C10 1_555 1_555
C13 C14 1_555 1_555
C15 C16 1_555 1_555
C26 C27 1_555 1_555
C28 C44 1_555 1_555
C32 C33 1_555 1_555
C36 C37 1_555 1_555
C40 C41 1_555 1_555
C42 C43 1_555 1_555
C53 C54 1_555 1_555

#END
