
#######################################################################
#
#                 Cambridge Crystallographic Data Centre
#                                CCDC 
#
#######################################################################
#
# If this CIF has been generated from an entry in the Cambridge 
# Structural Database, then it will include bibliographic, chemical, 
# crystal, experimental, refinement or atomic coordinate data resulting 
# from the CCDC's data processing and validation procedures.
#
#######################################################################

data_DINSAX
_chemical_name_common            
'potassium methyl 2-methyl-2-(phenyl(trifluoro-boranyl ) methyl)pent-4-enoate'
_chemical_formula_moiety         'C14 H17 B1 F3 O2 1-,K1 1+'
_chemical_name_systematic        
'potassium trifluoro[2-(methoxycarbonyl)-2-methyl-1-phenylpent-4-en-1-yl]borate'
_symmetry_cell_setting           triclinic
_symmetry_space_group_name_H-M   'P -1'
_symmetry_Int_Tables_number      2
_space_group_name_Hall           '-P 1'
loop_
_symmetry_equiv_pos_site_id
_symmetry_equiv_pos_as_xyz
1 x,y,z
2 -x,-y,-z
_cell_length_a                   8.490(3)
_cell_length_b                   14.116(6)
_cell_length_c                   27.185(11)
_cell_angle_alpha                98.118(10)
_cell_angle_beta                 91.155(10)
_cell_angle_gamma                106.640(10)
_cell_volume                     3083.95
_exptl_crystal_colour            colorless
_exptl_crystal_description       block
_cell_formula_units_Z            8
_exptl_crystal_recrystallization_method 'acetonitrile and ethyl ether'
loop_
_atom_site_label
_atom_site_type_symbol
_atom_site_fract_x
_atom_site_fract_y
_atom_site_fract_z
C1 C 0.5680(6) 0.7806(4) 1.00573(17)
H1 H 0.462619 0.735906 1.003214
F1 F 0.5849(3) 0.65095(19) 0.79810(9)
O1 O 0.4951(4) 0.5588(2) 0.94205(10)
C2 C 0.6875(5) 0.7544(3) 0.97012(15)
H2 H 0.727888 0.703404 0.981974
H3 H 0.780955 0.813175 0.970259
F2 F 0.7905(3) 0.57778(18) 0.80366(8)
C3 C 0.6146(5) 0.7158(3) 0.91582(15)
C4 C 0.4631(6) 0.6281(3) 0.91659(16)
C5 C 0.3661(6) 0.4651(3) 0.93888(19)
H4 H 0.39029 0.427548 0.963351
H5 H 0.359611 0.42724 0.906262
H6 H 0.262694 0.478155 0.944908
C6 C 0.7408(5) 0.6754(3) 0.88339(14)
H7 H 0.775496 0.630699 0.902853
C7 C 0.8950(5) 0.7583(3) 0.87902(15)
C8 C 1.0318(5) 0.7796(3) 0.91252(16)
H8 H 1.026963 0.741331 0.937942
C9 C 1.1730(6) 0.8550(4) 0.90921(19)
H9 H 1.260417 0.868379 0.932814
C10 C 1.1859(6) 0.9107(4) 0.87121(19)
H10 H 1.282046 0.961443 0.868711
C11 C 1.0534(6) 0.8906(3) 0.83648(17)
H11 H 1.061511 0.927251 0.810292
C12 C 0.9102(5) 0.8165(3) 0.84078(16)
H12 H 0.821743 0.80479 0.817742
C13 C 0.5646(6) 0.7980(3) 0.89366(18)
H13 H 0.515074 0.772023 0.86062
H14 H 0.660531 0.853548 0.892389
H15 H 0.487036 0.819935 0.914119
C14 C 0.5963(6) 0.8584(4) 1.03939(17)
H16 H 0.699677 0.905415 1.043438
H17 H 0.513233 0.86767 1.059638
F3 F 0.5484(3) 0.51551(18) 0.83803(9)
O2 O 0.3275(4) 0.6186(2) 0.89782(11)
B1 B 0.6627(6) 0.6068(4) 0.83066(19)
K1 K 0.12948(13) 0.60894(8) 0.81930(4)
C15 C 0.2491(8) 0.9226(4) 0.5361(2)
H18 H 0.349524 0.963686 0.551113
H19 H 0.192515 0.945176 0.512855
O3 O 0.0134(3) 0.6138(2) 0.57386(10)
F4 F 0.2265(3) 0.59012(17) 0.72691(9)
B2 B 0.1329(6) 0.6355(4) 0.69922(18)
C16 C 0.1879(6) 0.8340(4) 0.54777(17)
H20 H 0.087205 0.795216 0.532001
O4 O -0.1370(3) 0.6899(2) 0.62312(11)
F5 F 0.0517(3) 0.68743(17) 0.73420(8)
C17 C 0.2665(5) 0.7893(3) 0.58450(15)
H21 H 0.370644 0.837023 0.597542
H22 H 0.290069 0.730347 0.567255
F6 F 0.0043(3) 0.55483(17) 0.67209(8)
C18 C 0.1604(5) 0.7591(3) 0.62890(15)
C19 C 0.1307(5) 0.8534(3) 0.65777(16)
H23 H 0.074451 0.83701 0.68711
H24 H 0.064522 0.878895 0.637078
H25 H 0.234427 0.903238 0.667182
C20 C 0.2458(5) 0.7033(3) 0.66307(14)
H26 H 0.28317 0.656029 0.639658
C21 C 0.4039(5) 0.7742(3) 0.69070(14)
C22 C 0.4034(5) 0.8293(3) 0.73760(14)
H27 H 0.304219 0.824093 0.752499
C23 C 0.5492(5) 0.8920(3) 0.76236(16)
H28 H 0.545896 0.928121 0.793516
C24 C 0.6969(5) 0.9014(3) 0.74156(16)
H29 H 0.793602 0.944083 0.758105
C25 C 0.7004(5) 0.8463(3) 0.69553(17)
H30 H 0.780999 0.880998 0.673862
C26 C 0.5563(5) 0.7836(3) 0.67091(16)
H31 H 0.553585 0.781596 0.634721
C27 C -0.0044(5) 0.6869(3) 0.60914(15)
C28 C -0.1344(6) 0.5329(4) 0.55803(19)
H32 H -0.106064 0.47858 0.538528
H33 H -0.20683 0.555848 0.538303
H34 H -0.188482 0.510325 0.586721
K2 K -0.27662(12) 0.62040(7) 0.71005(3)
C29 C 0.2864(6) 0.1383(4) 0.45318(17)
H35 H 0.331723 0.086748 0.456561
H36 H 0.206788 0.130263 0.427677
F7 F 0.6600(3) 0.41584(17) 0.70204(8)
O5 O 0.4252(4) 0.4357(2) 0.55392(10)
B3 B 0.5151(6) 0.3815(4) 0.67002(18)
C30 C 0.3346(5) 0.2223(3) 0.48430(15)
H37 H 0.285781 0.271698 0.479453
F8 F 0.3880(3) 0.32883(18) 0.69830(8)
O6 O 0.1924(4) 0.3668(2) 0.58912(11)
C31 C 0.4605(5) 0.2462(3) 0.52686(14)
H38 H 0.553957 0.300501 0.520554
H39 H 0.499071 0.188218 0.528426
F9 F 0.4708(3) 0.46887(17) 0.66145(8)
C32 C 0.3970(5) 0.2763(3) 0.57800(15)
C33 C 0.2658(5) 0.1863(3) 0.59071(16)
H40 H 0.224685 0.20393 0.622278
H41 H 0.312615 0.132451 0.592449
H42 H 0.177055 0.165717 0.565426
C34 C 0.3241(5) 0.3623(3) 0.57461(15)
C35 C 0.3857(6) 0.5300(3) 0.55851(17)
H43 H 0.437502 0.567287 0.533313
H44 H 0.424951 0.567865 0.590803
H45 H 0.268477 0.517032 0.55444
C36 C 0.5454(5) 0.3169(3) 0.61869(14)
H46 H 0.630686 0.36416 0.603218
C37 C 0.6233(5) 0.2356(3) 0.62867(14)
C38 C 0.7616(5) 0.2252(4) 0.60481(17)
H47 H 0.808076 0.269315 0.583075
C39 C 0.8327(6) 0.1510(4) 0.6124(2)
H48 H 0.924819 0.145671 0.595615
C40 C 0.7681(6) 0.0854(4) 0.64450(18)
H49 H 0.815507 0.035342 0.649218
C41 C 0.6331(6) 0.0939(3) 0.66968(17)
H50 H 0.589723 0.050577 0.692048
C42 C 0.5617(6) 0.1683(3) 0.66134(16)
H51 H 0.469425 0.173074 0.67825
K3 K 0.10538(13) 0.38943(8) 0.68540(4)
C43 C -0.1347(7) 0.0426(4) 0.95581(17)
H52 H -0.072407 0.005405 0.939026
H53 H -0.209429 0.014566 0.978087
B4 B 0.0005(6) 0.3533(4) 0.80417(19)
F10 F -0.0623(3) 0.42651(17) 0.83259(9)
O7 O -0.1000(4) 0.3612(2) 0.92768(10)
C44 C -0.1172(6) 0.1349(4) 0.94805(16)
H54 H -0.181812 0.169475 0.965576
F11 F -0.1206(3) 0.30651(19) 0.76441(9)
O8 O -0.3226(4) 0.2858(2) 0.87549(10)
C45 C -0.0030(5) 0.1882(3) 0.91369(15)
H55 H 0.0613 0.145338 0.899753
H56 H 0.072905 0.24754 0.932811
F12 F 0.1403(3) 0.40863(18) 0.78288(9)
C46 C -0.0870(5) 0.2204(3) 0.87001(14)
C47 C -0.2065(5) 0.1272(3) 0.83940(15)
H57 H -0.244785 0.144512 0.809409
H58 H -0.298571 0.101415 0.858542
H59 H -0.15089 0.077206 0.831068
C48 C -0.1847(5) 0.2907(3) 0.89073(15)
C49 C -0.1789(6) 0.4373(3) 0.94328(18)
H60 H -0.104892 0.490473 0.965968
H61 H -0.276825 0.408888 0.959549
H62 H -0.207594 0.46338 0.914712
C50 C 0.0486(5) 0.2797(3) 0.83831(14)
H63 H 0.133389 0.323996 0.862904
C51 C 0.1344(5) 0.2094(3) 0.80951(15)
C52 C 0.2796(5) 0.1979(3) 0.82963(16)
H64 H 0.283748 0.199986 0.865831
C53 C 0.3573(5) 0.1321(3) 0.80415(17)
H65 H 0.406237 0.096074 0.825416
C54 C 0.2923(5) 0.0784(3) 0.75810(17)
H66 H 0.342739 0.034112 0.74128
C55 C 0.1507(5) 0.0915(3) 0.73725(16)
H67 H 0.107547 0.056443 0.706017
C56 C 0.0731(5) 0.1559(3) 0.76237(15)
H68 H -0.021335 0.163724 0.747692
K4 K -0.39949(12) 0.35549(7) 0.78890(4)
loop_
_geom_bond_atom_site_label_1
_geom_bond_atom_site_label_2
_geom_bond_site_symmetry_1
_geom_bond_site_symmetry_2
C1 H1 1_555 1_555
F1 B1 1_555 1_555
O1 C4 1_555 1_555
C2 C1 1_555 1_555
H2 C2 1_555 1_555
H3 C2 1_555 1_555
F2 B1 1_555 1_555
C3 C2 1_555 1_555
C4 C3 1_555 1_555
C5 O1 1_555 1_555
H4 C5 1_555 1_555
H5 C5 1_555 1_555
H6 C5 1_555 1_555
C6 C3 1_555 1_555
H7 C6 1_555 1_555
C7 C6 1_555 1_555
C8 C7 1_555 1_555
H8 C8 1_555 1_555
C9 C8 1_555 1_555
H9 C9 1_555 1_555
C10 C9 1_555 1_555
H10 C10 1_555 1_555
C11 C10 1_555 1_555
H11 C11 1_555 1_555
C12 C7 1_555 1_555
H12 C12 1_555 1_555
C13 C3 1_555 1_555
H13 C13 1_555 1_555
H14 C13 1_555 1_555
H15 C13 1_555 1_555
C14 C1 1_555 1_555
H16 C14 1_555 1_555
H17 C14 1_555 1_555
F3 B1 1_555 1_555
O2 C4 1_555 1_555
B1 C6 1_555 1_555
C15 H18 1_555 1_555
H19 C15 1_555 1_555
O3 C27 1_555 1_555
F4 B2 1_555 1_555
B2 F5 1_555 1_555
C16 C15 1_555 1_555
H20 C16 1_555 1_555
O4 C27 1_555 1_555
C17 C16 1_555 1_555
H21 C17 1_555 1_555
H22 C17 1_555 1_555
F6 B2 1_555 1_555
C18 C17 1_555 1_555
C19 C18 1_555 1_555
H23 C19 1_555 1_555
H24 C19 1_555 1_555
H25 C19 1_555 1_555
C20 B2 1_555 1_555
H26 C20 1_555 1_555
C21 C20 1_555 1_555
C22 C21 1_555 1_555
H27 C22 1_555 1_555
C23 C22 1_555 1_555
H28 C23 1_555 1_555
C24 C23 1_555 1_555
H29 C24 1_555 1_555
C25 C24 1_555 1_555
H30 C25 1_555 1_555
C26 C21 1_555 1_555
H31 C26 1_555 1_555
C27 C18 1_555 1_555
C28 O3 1_555 1_555
H32 C28 1_555 1_555
H33 C28 1_555 1_555
H34 C28 1_555 1_555
C29 H35 1_555 1_555
H36 C29 1_555 1_555
F7 B3 1_555 1_555
O5 C34 1_555 1_555
B3 F8 1_555 1_555
C30 C29 1_555 1_555
H37 C30 1_555 1_555
O6 C34 1_555 1_555
C31 C30 1_555 1_555
H38 C31 1_555 1_555
H39 C31 1_555 1_555
F9 B3 1_555 1_555
C32 C31 1_555 1_555
C33 C32 1_555 1_555
H40 C33 1_555 1_555
H41 C33 1_555 1_555
H42 C33 1_555 1_555
C34 C32 1_555 1_555
C35 O5 1_555 1_555
H43 C35 1_555 1_555
H44 C35 1_555 1_555
H45 C35 1_555 1_555
C36 B3 1_555 1_555
H46 C36 1_555 1_555
C37 C36 1_555 1_555
C38 C37 1_555 1_555
H47 C38 1_555 1_555
C39 C38 1_555 1_555
H48 C39 1_555 1_555
C40 C39 1_555 1_555
H49 C40 1_555 1_555
C41 C40 1_555 1_555
H50 C41 1_555 1_555
C42 C37 1_555 1_555
H51 C42 1_555 1_555
C43 H52 1_555 1_555
H53 C43 1_555 1_555
B4 F10 1_555 1_555
O7 C48 1_555 1_555
C44 C43 1_555 1_555
H54 C44 1_555 1_555
F11 B4 1_555 1_555
O8 C48 1_555 1_555
C45 C44 1_555 1_555
H55 C45 1_555 1_555
H56 C45 1_555 1_555
F12 B4 1_555 1_555
C46 C45 1_555 1_555
C47 C46 1_555 1_555
H57 C47 1_555 1_555
H58 C47 1_555 1_555
H59 C47 1_555 1_555
C48 C46 1_555 1_555
C49 O7 1_555 1_555
H60 C49 1_555 1_555
H61 C49 1_555 1_555
H62 C49 1_555 1_555
C50 B4 1_555 1_555
H63 C50 1_555 1_555
C51 C50 1_555 1_555
C52 C51 1_555 1_555
H64 C52 1_555 1_555
C53 C52 1_555 1_555
H65 C53 1_555 1_555
C54 C53 1_555 1_555
H66 C54 1_555 1_555
C55 C54 1_555 1_555
H67 C55 1_555 1_555
C56 C51 1_555 1_555
H68 C56 1_555 1_555
C11 C12 1_555 1_555
C18 C20 1_555 1_555
C25 C26 1_555 1_555
C32 C36 1_555 1_555
C41 C42 1_555 1_555
C46 C50 1_555 1_555
C55 C56 1_555 1_555

#END
