
#######################################################################
#
#                 Cambridge Crystallographic Data Centre
#                                CCDC 
#
#######################################################################
#
# If this CIF has been generated from an entry in the Cambridge 
# Structural Database, then it will include bibliographic, chemical, 
# crystal, experimental, refinement or atomic coordinate data resulting 
# from the CCDC's data processing and validation procedures.
#
#######################################################################

data_DINZEI
_chemical_formula_moiety         'C25 H25 N9 O9,0.5(C4 H10 O1)'
_chemical_name_systematic        
"N',N''-[{[(4-nitrophenyl)carbamoyl]azanediyl}bis(ethane-2,1-diyl)]bis[N'-(4-nitrophenyl)urea] diethyl ether solvate"
_symmetry_cell_setting           triclinic
_symmetry_space_group_name_H-M   'P -1'
_symmetry_Int_Tables_number      2
_space_group_name_Hall           '-P 1'
loop_
_symmetry_equiv_pos_site_id
_symmetry_equiv_pos_as_xyz
1 x,y,z
2 -x,-y,-z
_cell_length_a                   7.1240(4)
_cell_length_b                   12.8626(5)
_cell_length_c                   16.0430(7)
_cell_angle_alpha                95.365(4)
_cell_angle_beta                 90.472(4)
_cell_angle_gamma                101.742(4)
_cell_volume                     1432.44
_exptl_crystal_colour            'light colorless'
_exptl_crystal_description       block
_cell_formula_units_Z            2
loop_
_atom_site_label
_atom_site_type_symbol
_atom_site_fract_x
_atom_site_fract_y
_atom_site_fract_z
O1 O 0.3525(3) 0.62157(14) 0.60791(12)
O2 O 0.6254(4) 0.44823(15) 0.83600(12)
N1 N 0.5164(3) 0.58763(16) 0.72098(13)
H1 H 0.5479 0.5380 0.7471
O3 O 0.0677(4) 0.17510(17) 0.48405(16)
O4 O 0.9458(4) 0.5420(2) 1.24730(14)
N2 N 0.7234(4) 0.30855(16) 0.88777(14)
H2 H 0.7346 0.2438 0.8744
N3 N -0.0371(4) 0.32887(18) 0.48306(14)
H3 H -0.1102 0.3632 0.4588
N4 N 0.9557(3) 0.4518(2) 1.21954(14)
N5 N -0.1304(4) 0.19781(18) 0.37711(15)
H4 H -0.1990 0.2405 0.3612
N6 N 0.4005(4) 0.45484(18) 0.61475(15)
C1 C 0.4187(3) 0.55828(19) 0.64555(15)
C2 C 0.7784(4) 0.34972(19) 0.96979(15)
C3 C 0.8956(4) 0.4175(2) 1.13262(16)
O5 O -0.1106(5) -0.2467(2) 0.1818(2)
C4 C 0.5684(3) 0.69208(18) 0.75836(16)
O6 O 0.7224(5) 1.0770(2) 0.8388(3)
C5 C 0.8094(4) 0.4819(2) 1.08795(16)
H5 H 0.7922 0.5476 1.1125
C6 C 0.7486(4) 0.4479(2) 1.00606(16)
H6 H 0.6882 0.4901 0.9753
C7 C 0.8682(4) 0.2871(2) 1.01677(17)
H7 H 0.8884 0.2218 0.9928
C8 C -0.1375(4) 0.1045(2) 0.32545(17)
C9 C 0.9270(4) 0.3210(2) 1.09793(17)
H8 H 0.9873 0.2793 1.1292
N7 N -0.1753(5) -0.1728(3) 0.1590(2)
C10 C 0.5860(4) 0.7079(2) 0.84552(17)
H9 H 0.5637 0.6492 0.8765
C11 C -0.0259(4) 0.2300(2) 0.45107(17)
N8 N 0.7110(5) 1.0019(2) 0.8812(3)
C12 C -0.1979(4) 0.1018(2) 0.24266(18)
H10 H -0.2296 0.1623 0.2237
C13 C 0.2816(4) 0.4162(2) 0.53954(16)
H11 H 0.3289 0.3579 0.5099
H12 H 0.2931 0.4731 0.5031
C14 C -0.0890(5) 0.0128(2) 0.3528(2)
H13 H -0.0493 0.0126 0.4081
C15 C -0.1610(5) -0.0770(2) 0.2164(2)
C16 C 0.6683(4) 0.8948(2) 0.8389(2)
C17 C 0.6354(5) 0.8083(2) 0.8861(2)
H14 H 0.6467 0.8184 0.9442
C18 C 0.6547(5) 0.3571(2) 0.82656(17)
N9 N 0.567(6) 0.2848(12) 0.7581(7)
C19 C 0.6117(4) 0.7799(2) 0.7123(2)
H15 H 0.6089 0.7702 0.6541
C20 C -0.1003(5) -0.0765(2) 0.2978(2)
H16 H -0.0667 -0.1371 0.3157
C21 C -0.2116(5) 0.0118(3) 0.18840(19)
H17 H -0.2545 0.0106 0.1333
C22 C 0.0723(5) 0.3781(2) 0.55786(17)
H18 H 0.0612 0.3270 0.5993
H19 H 0.0200 0.4382 0.5811
O7 O -0.2497(7) -0.1761(3) 0.0906(2)
C23 C 0.6586(5) 0.8808(2) 0.7531(2)
H20 H 0.6839 0.9397 0.7224
O8 O 0.7384(9) 1.0144(3) 0.9558(3)
O9 O 1.0134(4) 0.3893(2) 1.26168(14)
C24 C 0.4139(7) 0.3671(5) 0.6740(3)
H21 H 0.3744 0.3877 0.7298
H22 H 0.3318 0.2999 0.6529
C25 C 0.6206(7) 0.3569(4) 0.6758(3)
H23 H 0.7110 0.4239 0.6891
H24 H 0.6578 0.3170 0.6265
O10 O 0.5000 0.0000 0.5000
C28 C 0.6436(15) 0.0638(11) 0.6059(8)
H27 H 0.5859 0.0678 0.6597
H28 H 0.7655 0.1125 0.6081
H29 H 0.6616 -0.0076 0.5913
C29 C 0.4949(16) 0.0974(6) 0.5312(10)
H30 H 0.3709 0.1077 0.5508
H31 H 0.5554 0.1535 0.4978
C28A C 0.3564(15) -0.0638(11) 0.3941(8)
H27A H 0.4141 -0.0678 0.3403
H28A H 0.2345 -0.1125 0.3919
H29A H 0.3384 0.0076 0.4087
C29A C 0.5051(16) -0.0974(6) 0.4688(10)
H30A H 0.6291 -0.1077 0.4492
H31A H 0.4446 -0.1535 0.5022
C26? C 0.5496(10) 0.3943(5) 0.6390(4)
H25? H 0.6583 0.4419 0.6682
H26? H 0.5945 0.3573 0.5901
C27? C 0.4424(11) 0.3140(7) 0.6977(5)
N10? N 0.661(4) 0.3047(11) 0.7484(6)
loop_
_geom_bond_atom_site_label_1
_geom_bond_atom_site_label_2
_geom_bond_site_symmetry_1
_geom_bond_site_symmetry_2
O1 C1 1_555 1_555
O2 C18 1_555 1_555
N1 H1 1_555 1_555
O3 C11 1_555 1_555
O4 N4 1_555 1_555
N2 H2 1_555 1_555
N3 H3 1_555 1_555
N4 C3 1_555 1_555
N5 H4 1_555 1_555
N6 C1 1_555 1_555
C1 N1 1_555 1_555
C2 N2 1_555 1_555
C3 C5 1_555 1_555
O5 N7 1_555 1_555
C4 N1 1_555 1_555
O6 N8 1_555 1_555
C5 H5 1_555 1_555
C6 C2 1_555 1_555
H6 C6 1_555 1_555
C7 C2 1_555 1_555
H7 C7 1_555 1_555
C8 N5 1_555 1_555
C9 C3 1_555 1_555
H8 C9 1_555 1_555
N7 C15 1_555 1_555
C10 C4 1_555 1_555
H9 C10 1_555 1_555
C11 N3 1_555 1_555
N8 C16 1_555 1_555
C12 C8 1_555 1_555
H10 C12 1_555 1_555
C13 N6 1_555 1_555
H11 C13 1_555 1_555
H12 C13 1_555 1_555
C14 C8 1_555 1_555
H13 C14 1_555 1_555
C15 C20 1_555 1_555
C16 C17 1_555 1_555
C17 C10 1_555 1_555
H14 C17 1_555 1_555
C18 N2 1_555 1_555
N9 C18 1_555 1_555
C19 C4 1_555 1_555
H15 C19 1_555 1_555
C20 C14 1_555 1_555
H16 C20 1_555 1_555
C21 C12 1_555 1_555
H17 C21 1_555 1_555
C22 N3 1_555 1_555
H18 C22 1_555 1_555
H19 C22 1_555 1_555
O7 N7 1_555 1_555
C23 C16 1_555 1_555
H20 C23 1_555 1_555
O8 N8 1_555 1_555
O9 N4 1_555 1_555
C24 N6 1_555 1_555
H21 C24 1_555 1_555
H22 C24 1_555 1_555
C25 N9 1_555 1_555
H23 C25 1_555 1_555
H24 C25 1_555 1_555
O10 C29 1_555 1_555
C28 H27 1_555 1_555
H28 C28 1_555 1_555
H29 C28 1_555 1_555
C29 C28 1_555 1_555
H30 C29 1_555 1_555
H31 C29 1_555 1_555
C28A H27A 1_555 1_555
H28A C28A 1_555 1_555
H29A C28A 1_555 1_555
C29A O10 1_555 1_555
H30A C29A 1_555 1_555
H31A C29A 1_555 1_555
N5 C11 1_555 1_555
C5 C6 1_555 1_555
C7 C9 1_555 1_555
C13 C22 1_555 1_555
C15 C21 1_555 1_555
C19 C23 1_555 1_555
C24 C25 1_555 1_555
C28A C29A 1_555 1_555

#END
