
#######################################################################
#
#                 Cambridge Crystallographic Data Centre
#                                CCDC 
#
#######################################################################
#
# If this CIF has been generated from an entry in the Cambridge 
# Structural Database, then it will include bibliographic, chemical, 
# crystal, experimental, refinement or atomic coordinate data resulting 
# from the CCDC's data processing and validation procedures.
#
#######################################################################

data_DIPFAM
_chemical_name_common            'emodin berberine chloride'
_chemical_formula_moiety         'C20 H18 N1 O4 1+,C15 H10 O5,Cl1 1-'
_chemical_name_systematic        
'9,10-dimethoxy-5,6-dihydro-2H-[1,3]dioxolo[4,5-g]isoquinolino[3,2-a]isoquinolin-7-ium chloride 1,3,8-trihydroxy-6-methylanthracene-9,10-dione'
_symmetry_cell_setting           triclinic
_symmetry_space_group_name_H-M   'P -1'
_symmetry_Int_Tables_number      2
_space_group_name_Hall           '-P 1'
loop_
_symmetry_equiv_pos_site_id
_symmetry_equiv_pos_as_xyz
1 x,y,z
2 -x,-y,-z
_cell_length_a                   7.3203(3)
_cell_length_b                   11.1115(4)
_cell_length_c                   18.0845(6)
_cell_angle_alpha                97.381(3)
_cell_angle_beta                 93.956(3)
_cell_angle_gamma                103.926(3)
_cell_volume                     1408.27
_exptl_crystal_colour            yellow
_exptl_crystal_description       prism
_cell_formula_units_Z            2
loop_
_atom_site_label
_atom_site_type_symbol
_atom_site_fract_x
_atom_site_fract_y
_atom_site_fract_z
Cl1 Cl 0.72833(5) 0.71919(3) 0.35905(2)
O1 O 0.4778(2) 0.33183(12) 0.14526(7)
O2 O 0.77651(16) 0.45727(10) -0.10704(6)
O3 O 0.61391(18) 0.23645(11) -0.17810(6)
O4 O 0.95047(17) 0.67507(10) -0.03826(6)
O5 O 0.89157(17) 0.77395(10) 0.21698(6)
C1 C 0.5497(2) 0.35896(15) 0.08892(9)
C2 C 0.7246(2) 0.56778(14) 0.15462(9)
H1 H 0.673946 0.544560 0.199184
C3 C 0.8446(2) 0.68809(14) 0.15506(9)
C4 C 0.9186(2) 0.72143(14) 0.08975(9)
H2 H 0.999539 0.802512 0.090398
C5 C 0.8750(2) 0.63698(14) 0.02338(9)
C6 C 0.7109(2) 0.42684(14) -0.04734(8)
C7 C 0.5443(2) 0.21303(14) -0.11305(9)
C8 C 0.4220(2) 0.09552(14) -0.11230(9)
H3 H 0.394967 0.035634 -0.156633
C9 C 0.3394(2) 0.06418(14) -0.04858(9)
C10 C 0.3833(2) 0.15226(14) 0.01725(9)
H4 H 0.328238 0.131938 0.061558
C11 C 0.2015(2) -0.06089(14) -0.04995(10)
H5 H 0.072310 -0.050211 -0.052286
H6 H 0.228423 -0.095507 -0.004415
H7 H 0.214050 -0.118423 -0.094050
C12 C 0.5062(2) 0.26836(14) 0.01779(8)
C13 C 0.5879(2) 0.30202(13) -0.04747(8)
C14 C 0.6816(2) 0.48399(14) 0.08863(8)
C15 C 0.7556(2) 0.51573(14) 0.02149(8)
H8 H 0.689(4) 0.318(3) -0.1689(16)
H9 H 0.831(4) 0.744(2) 0.2568(16)
H10 H 0.905(3) 0.608(2) -0.0751(14)
O6 O 0.26130(17) 0.05000(10) 0.29204(6)
O7 O 0.37767(15) 0.03461(10) 0.43449(6)
O8 O 1.17093(16) 0.89500(10) 0.61699(6)
O9 O 1.22042(18) 0.87606(11) 0.74225(6)
N1 N 0.71333(17) 0.34575(12) 0.57315(7)
C16 C 0.2253(3) 0.05220(16) 0.21366(9)
H11 H 0.147955 -0.029929 0.189386
H12 H 0.157741 0.116567 0.206223
H13 H 0.345650 0.071474 0.191597
C17 C 0.1865(2) 0.00128(16) 0.45436(11)
H14 H 0.162885 -0.079608 0.472882
H15 H 0.169011 0.065826 0.493603
H16 H 0.097644 -0.005040 0.410099
C18 C 0.3676(2) 0.15706(14) 0.33486(8)
C19 C 0.4243(2) 0.27296(14) 0.30804(8)
H17 H 0.386976 0.278531 0.257487
C20 C 0.4217(2) 0.14690(13) 0.40802(8)
C21 C 0.5326(2) 0.37782(14) 0.35395(8)
H18 H 0.568450 0.455146 0.335089
C22 C 0.5906(2) 0.37086(13) 0.42888(8)
C23 C 0.5340(2) 0.25389(13) 0.45577(8)
C24 C 0.5987(2) 0.24703(14) 0.52944(8)
H19 H 0.560077 0.170250 0.548665
C25 C 0.7666(2) 0.46310(13) 0.55008(8)
C26 C 0.7030(2) 0.47411(13) 0.47858(8)
H20 H 0.735940 0.553731 0.462232
C27 C 0.7956(2) 0.32575(14) 0.64681(8)
H21 H 0.922146 0.310316 0.641601
H22 H 0.713904 0.250791 0.662726
C28 C 0.8133(2) 0.43848(15) 0.70580(8)
H23 H 0.685557 0.444777 0.717584
H24 H 0.883477 0.427657 0.752250
C29 C 0.9150(2) 0.55723(14) 0.67946(9)
C30 C 0.8874(2) 0.56831(14) 0.60347(8)
C31 C 0.9687(2) 0.68204(14) 0.57715(8)
H25 H 0.951034 0.690728 0.525747
C32 C 1.0263(2) 0.65803(15) 0.73102(9)
H26 H 1.047237 0.650913 0.782527
C33 C 1.1035(2) 0.76692(15) 0.70425(9)
C34 C 1.0734(2) 0.77856(14) 0.62905(9)
C35 C 1.2364(3) 0.96541(15) 0.68984(9)
H27 H 1.158403 1.024997 0.702768
H28 H 1.369694 1.013527 0.691259
loop_
_geom_bond_atom_site_label_1
_geom_bond_atom_site_label_2
_geom_bond_site_symmetry_1
_geom_bond_site_symmetry_2
O1 C1 1_555 1_555
O2 C6 1_555 1_555
O3 C7 1_555 1_555
O4 C5 1_555 1_555
O5 C3 1_555 1_555
C1 C12 1_555 1_555
C2 H1 1_555 1_555
C3 C2 1_555 1_555
C4 C3 1_555 1_555
H2 C4 1_555 1_555
C5 C4 1_555 1_555
C6 C13 1_555 1_555
C7 C8 1_555 1_555
C8 H3 1_555 1_555
C9 C8 1_555 1_555
C10 C9 1_555 1_555
H4 C10 1_555 1_555
C11 C9 1_555 1_555
H5 C11 1_555 1_555
H6 C11 1_555 1_555
H7 C11 1_555 1_555
C12 C10 1_555 1_555
C13 C7 1_555 1_555
C14 C1 1_555 1_555
C15 C5 1_555 1_555
H8 O3 1_555 1_555
H9 O5 1_555 1_555
H10 O4 1_555 1_555
O6 C16 1_555 1_555
O7 C17 1_555 1_555
O8 C34 1_555 1_555
O9 C33 1_555 1_555
N1 C24 1_555 1_555
C16 H11 1_555 1_555
H12 C16 1_555 1_555
H13 C16 1_555 1_555
C17 H14 1_555 1_555
H15 C17 1_555 1_555
H16 C17 1_555 1_555
C18 O6 1_555 1_555
C19 C18 1_555 1_555
H17 C19 1_555 1_555
C20 O7 1_555 1_555
C21 C19 1_555 1_555
H18 C21 1_555 1_555
C22 C21 1_555 1_555
C23 C20 1_555 1_555
C24 C23 1_555 1_555
H19 C24 1_555 1_555
C25 N1 1_555 1_555
C26 C22 1_555 1_555
H20 C26 1_555 1_555
C27 N1 1_555 1_555
H21 C27 1_555 1_555
H22 C27 1_555 1_555
C28 C27 1_555 1_555
H23 C28 1_555 1_555
H24 C28 1_555 1_555
C29 C28 1_555 1_555
C30 C25 1_555 1_555
C31 C30 1_555 1_555
H25 C31 1_555 1_555
C32 C29 1_555 1_555
H26 C32 1_555 1_555
C33 C32 1_555 1_555
C34 C31 1_555 1_555
C35 O8 1_555 1_555
H27 C35 1_555 1_555
H28 C35 1_555 1_555
C2 C14 1_555 1_555
C6 C15 1_555 1_555
C12 C13 1_555 1_555
C14 C15 1_555 1_555
O9 C35 1_555 1_555
C18 C20 1_555 1_555
C22 C23 1_555 1_555
C25 C26 1_555 1_555
C29 C30 1_555 1_555
C33 C34 1_555 1_555

#END
