
#######################################################################
#
#                 Cambridge Crystallographic Data Centre
#                                CCDC 
#
#######################################################################
#
# If this CIF has been generated from an entry in the Cambridge 
# Structural Database, then it will include bibliographic, chemical, 
# crystal, experimental, refinement or atomic coordinate data resulting 
# from the CCDC's data processing and validation procedures.
#
#######################################################################

data_DIPZOT
_chemical_formula_moiety         'C21 H14 Br2 N2 O4'
_chemical_name_systematic        
"5,7-Dibromo-1,1''-dimethyl-2,2''-dioxo-1,1'',2,2''-tetrahydrodispiro[indole-3,2'-furan-3',3''-indole]-4'-carbaldehyde unknown solvate"
_symmetry_cell_setting           orthorhombic
_symmetry_space_group_name_H-M   'P 21 21 21'
_symmetry_Int_Tables_number      19
_space_group_name_Hall           'P 2ac 2ab'
loop_
_symmetry_equiv_pos_site_id
_symmetry_equiv_pos_as_xyz
1 x,y,z
2 1/2-x,-y,1/2+z
3 -x,1/2+y,1/2-z
4 1/2+x,1/2-y,-z
_cell_length_a                   8.8622(3)
_cell_length_b                   14.7468(6)
_cell_length_c                   19.1692(7)
_cell_angle_alpha                90
_cell_angle_beta                 90
_cell_angle_gamma                90
_cell_volume                     2505.21
_exptl_crystal_colour            colorless
_exptl_crystal_description       block
_cell_formula_units_Z            4
loop_
_atom_site_label
_atom_site_type_symbol
_atom_site_fract_x
_atom_site_fract_y
_atom_site_fract_z
Br1 Br 0.54791(6) 0.56348(3) 0.138342(19)
Br2 Br 0.53886(5) 0.81221(3) 0.35866(2)
O1 O 0.9180(3) 0.55929(19) 0.49705(13)
O2 O 0.9270(2) 0.44813(15) 0.37561(12)
O3 O 0.6603(4) 0.2569(2) 0.5195(2)
O4 O 0.6299(3) 0.33351(17) 0.32200(13)
N1 N 0.7540(3) 0.64583(19) 0.43172(14)
N2 N 0.4410(3) 0.40705(19) 0.38107(16)
C1 C 0.8316(4) 0.5692(2) 0.44818(17)
C2 C 0.7913(3) 0.4958(2) 0.39346(17)
C3 C 0.7215(4) 0.5517(2) 0.33709(16)
C4 C 0.6817(4) 0.5290(2) 0.27003(17)
H1 H 0.7077 0.4730 0.2513
C5 C 0.6028(4) 0.5914(2) 0.23162(16)
C6 C 0.5619(4) 0.6747(2) 0.25863(17)
H2 H 0.5062 0.7152 0.2318
C7 C 0.6046(4) 0.6975(2) 0.32620(17)
C8 C 0.6878(4) 0.6371(2) 0.36510(17)
C9 C 0.5858(3) 0.3800(2) 0.36953(19)
C10 C 0.6841(3) 0.4225(2) 0.42756(17)
C11 C 0.5666(4) 0.4601(2) 0.47670(17)
C12 C 0.4272(4) 0.4525(2) 0.44443(19)
C13 C 0.2980(5) 0.4828(3) 0.4753(3)
H3 H 0.2052 0.4777 0.4530
C14 C 0.3096(6) 0.5217(3) 0.5412(3)
H4 H 0.2231 0.5427 0.5635
C15 C 0.4424(6) 0.5291(3) 0.5729(2)
H5 H 0.4468 0.5558 0.6168
C16 C 0.5761(5) 0.4980(3) 0.5419(2)
H6 H 0.6682 0.5029 0.5649
C17 C 0.8036(4) 0.3558(2) 0.45069(19)
C18 C 0.9297(4) 0.3737(2) 0.41634(19)
H7 H 1.0149 0.3371 0.4201
C19 C 0.7802(5) 0.2763(3) 0.4941(3)
H8 H 0.8620 0.2385 0.5027
C20 C 0.7653(8) 0.7266(3) 0.4750(3)
H9 H 0.8160 0.7118 0.5177
H10 H 0.6660 0.7489 0.4852
H11 H 0.8214 0.7723 0.4505
C21 C 0.3170(4) 0.3854(3) 0.3344(3)
H12 H 0.3552 0.3542 0.2941
H13 H 0.2680 0.4404 0.3200
H14 H 0.2457 0.3473 0.3581
loop_
_geom_bond_atom_site_label_1
_geom_bond_atom_site_label_2
_geom_bond_site_symmetry_1
_geom_bond_site_symmetry_2
Br1 C5 1_555 1_555
Br2 C7 1_555 1_555
O1 C1 1_555 1_555
O2 C2 1_555 1_555
O3 C19 1_555 1_555
O4 C9 1_555 1_555
N1 C1 1_555 1_555
N2 C9 1_555 1_555
C1 C2 1_555 1_555
C2 C3 1_555 1_555
C3 C4 1_555 1_555
C4 H1 1_555 1_555
C5 C4 1_555 1_555
C6 C5 1_555 1_555
H2 C6 1_555 1_555
C7 C6 1_555 1_555
C8 N1 1_555 1_555
C9 C10 1_555 1_555
C10 C2 1_555 1_555
C11 C10 1_555 1_555
C12 N2 1_555 1_555
C13 C12 1_555 1_555
H3 C13 1_555 1_555
C14 C13 1_555 1_555
H4 C14 1_555 1_555
C15 C14 1_555 1_555
H5 C15 1_555 1_555
C16 C11 1_555 1_555
H6 C16 1_555 1_555
C17 C10 1_555 1_555
C18 O2 1_555 1_555
H7 C18 1_555 1_555
C19 C17 1_555 1_555
H8 C19 1_555 1_555
C20 N1 1_555 1_555
H9 C20 1_555 1_555
H10 C20 1_555 1_555
H11 C20 1_555 1_555
C21 N2 1_555 1_555
H12 C21 1_555 1_555
H13 C21 1_555 1_555
H14 C21 1_555 1_555
C3 C8 1_555 1_555
C7 C8 1_555 1_555
C11 C12 1_555 1_555
C15 C16 1_555 1_555
C17 C18 1_555 1_555

#END
