
#######################################################################
#
#                 Cambridge Crystallographic Data Centre
#                                CCDC 
#
#######################################################################
#
# If this CIF has been generated from an entry in the Cambridge 
# Structural Database, then it will include bibliographic, chemical, 
# crystal, experimental, refinement or atomic coordinate data resulting 
# from the CCDC's data processing and validation procedures.
#
#######################################################################

data_DIQBAI
_chemical_formula_moiety         'C16 H11 Cl1 F3 N1 O5'
_chemical_name_systematic        
"Methyl 5'-chloro-4-formyl-1'-methyl-2'-oxo-2-(trifluoromethyl)-1',2'-dihydrospiro[furan-3,3'-indole]-2-carboxylate"
_symmetry_cell_setting           orthorhombic
_symmetry_space_group_name_H-M   'P 21 21 21'
_symmetry_Int_Tables_number      19
_space_group_name_Hall           'P 2ac 2ab'
loop_
_symmetry_equiv_pos_site_id
_symmetry_equiv_pos_as_xyz
1 x,y,z
2 1/2-x,-y,1/2+z
3 -x,1/2+y,1/2-z
4 1/2+x,1/2-y,-z
_cell_length_a                   6.517(2)
_cell_length_b                   9.715(3)
_cell_length_c                   25.893(8)
_cell_angle_alpha                90
_cell_angle_beta                 90
_cell_angle_gamma                90
_cell_volume                     1639.35
_exptl_crystal_colour            colorless
_exptl_crystal_description       block
_cell_formula_units_Z            4
loop_
_atom_site_label
_atom_site_type_symbol
_atom_site_fract_x
_atom_site_fract_y
_atom_site_fract_z
Cl1 Cl 0.91136(11) 0.17564(7) 0.17231(3)
F1 F 0.1911(2) 0.84026(13) 0.11041(5)
F2 F 0.0325(2) 0.67804(16) 0.15020(6)
F3 F 0.2142(3) 0.82275(16) 0.19274(5)
O1 O 0.5752(3) 0.59439(18) 0.22207(7)
O2 O 0.2721(3) 0.49726(15) 0.20263(6)
O3 O 0.5415(3) 0.50881(17) -0.01174(6)
O4 O 0.1044(2) 0.61125(15) 0.04421(6)
O5 O 0.5615(2) 0.75791(14) 0.13923(6)
N1 N 0.1830(3) 0.38985(16) 0.06707(6)
C1 C 0.4880(3) 0.41664(18) 0.10915(7)
C2 C 0.6646(3) 0.3743(2) 0.13371(8)
H1 H 0.7649 0.4385 0.1451
C3 C 0.6900(3) 0.2331(2) 0.14120(9)
C4 C 0.5481(4) 0.1395(2) 0.12436(9)
H2 H 0.5700 0.0441 0.1303
C5 C 0.3727(4) 0.1824(2) 0.09871(8)
H3 H 0.2744 0.1179 0.0865
C6 C 0.3460(3) 0.3220(2) 0.09157(7)
C7 C 0.2123(3) 0.5287(2) 0.06647(8)
C8 C 0.4128(3) 0.56091(19) 0.09624(7)
C9 C 0.5626(3) 0.64134(19) 0.06342(8)
C10 C 0.6390(3) 0.7448(2) 0.09079(8)
H4 H 0.7405 0.8053 0.0775
C11 C 0.3975(3) 0.65972(19) 0.14453(8)
C12 C 0.4275(4) 0.5817(2) 0.19546(8)
C13 C 0.2916(6) 0.3991(3) 0.24509(10)
H5 H 0.1681 0.3418 0.2468
H6 H 0.3081 0.4493 0.2777
H7 H 0.4118 0.3405 0.2393
C14 C 0.2047(4) 0.7496(2) 0.14906(9)
C15 C 0.0309(4) 0.3234(2) 0.03476(8)
H8 H -0.0667 0.3923 0.0221
H9 H -0.0425 0.2538 0.0550
H10 H 0.0991 0.2792 0.0054
C16 C 0.6200(4) 0.6046(2) 0.01124(9)
H11 H 0.7227 0.6572 -0.0057
loop_
_geom_bond_atom_site_label_1
_geom_bond_atom_site_label_2
_geom_bond_site_symmetry_1
_geom_bond_site_symmetry_2
Cl1 C3 1_555 1_555
F1 C14 1_555 1_555
F2 C14 1_555 1_555
F3 C14 1_555 1_555
O1 C12 1_555 1_555
O2 C12 1_555 1_555
O3 C16 1_555 1_555
O4 C7 1_555 1_555
O5 C10 1_555 1_555
N1 C6 1_555 1_555
C1 C2 1_555 1_555
C2 H1 1_555 1_555
C3 C2 1_555 1_555
C4 C3 1_555 1_555
H2 C4 1_555 1_555
C5 C4 1_555 1_555
H3 C5 1_555 1_555
C6 C1 1_555 1_555
C7 N1 1_555 1_555
C8 C1 1_555 1_555
C9 C8 1_555 1_555
C10 C9 1_555 1_555
H4 C10 1_555 1_555
C11 O5 1_555 1_555
C12 C11 1_555 1_555
C13 O2 1_555 1_555
H5 C13 1_555 1_555
H6 C13 1_555 1_555
H7 C13 1_555 1_555
C14 C11 1_555 1_555
C15 N1 1_555 1_555
H8 C15 1_555 1_555
H9 C15 1_555 1_555
H10 C15 1_555 1_555
C16 C9 1_555 1_555
H11 C16 1_555 1_555
C5 C6 1_555 1_555
C7 C8 1_555 1_555
C8 C11 1_555 1_555

#END
