
#######################################################################
#
#                 Cambridge Crystallographic Data Centre
#                                CCDC 
#
#######################################################################
#
# If this CIF has been generated from an entry in the Cambridge 
# Structural Database, then it will include bibliographic, chemical, 
# crystal, experimental, refinement or atomic coordinate data resulting 
# from the CCDC's data processing and validation procedures.
#
#######################################################################

data_DIQBEM
_chemical_formula_moiety         'C20 H15 N3 O4'
_chemical_name_systematic        
1,1''-Dimethyl-2,2''-dioxo-1,1'',2,2''-tetrahydrodispiro[indole-3,3'-furan-2',3''-pyrrolo[2,3-b]pyridine]-4'-carbaldehyde
_symmetry_cell_setting           trigonal
_symmetry_space_group_name_H-M   'P 32'
_symmetry_Int_Tables_number      145
_space_group_name_Hall           'P 32'
loop_
_symmetry_equiv_pos_site_id
_symmetry_equiv_pos_as_xyz
1 x,y,z
2 -y,x-y,2/3+z
3 -x+y,-x,1/3+z
_cell_length_a                   11.2528(3)
_cell_length_b                   11.2528(3)
_cell_length_c                   11.4804(4)
_cell_angle_alpha                90
_cell_angle_beta                 90
_cell_angle_gamma                120
_cell_volume                     1258.95
_exptl_crystal_colour            colorless
_exptl_crystal_description       block
_cell_formula_units_Z            3
loop_
_atom_site_label
_atom_site_type_symbol
_atom_site_fract_x
_atom_site_fract_y
_atom_site_fract_z
O1 O 0.45644(13) 0.95062(14) 0.32636(12)
O2 O 0.85067(16) 1.07700(15) 0.00427(12)
O3 O 0.42372(13) 0.64017(14) 0.16065(12)
O4 O 0.61662(14) 1.09907(13) 0.07341(12)
N1 N 0.94804(16) 1.22126(16) 0.16087(14)
N2 N 0.59791(16) 0.87685(16) 0.40224(14)
N3 N 0.98150(17) 1.37974(17) 0.31206(14)
C1 C 0.8425(2) 1.12580(19) 0.09575(17)
C2 C 0.7067(2) 1.09067(19) 0.15962(16)
C3 C 0.75532(19) 1.20250(18) 0.24914(16)
C4 C 0.89950(19) 1.27437(18) 0.24688(16)
C5 C 0.9160(2) 1.4211(2) 0.38575(18)
H1 H 0.9705 1.4967 0.4353
C6 C 0.7751(2) 1.3609(2) 0.39409(19)
H2 H 0.7353 1.3960 0.4470
C7 C 0.6915(2) 1.2479(2) 0.32406(18)
H3 H 0.5943 1.2042 0.3281
C8 C 0.69367(18) 0.84239(18) 0.35736(17)
C9 C 0.7530(2) 0.7773(2) 0.41529(19)
H4 H 0.7381 0.7568 0.4961
C10 C 0.8354(2) 0.7435(2) 0.3494(2)
H5 H 0.8782 0.6988 0.3860
C11 C 0.8568(2) 0.7733(2) 0.2317(2)
H6 H 0.9122 0.7472 0.1887
C12 C 0.7984(2) 0.8407(2) 0.17578(19)
H7 H 0.8145 0.8624 0.0953
C13 C 0.71615(18) 0.87572(18) 0.23958(17)
C14 C 0.62892(18) 0.93739(19) 0.20338(17)
C15 C 0.54812(19) 0.92378(18) 0.31626(16)
C16 C 0.53108(19) 0.87082(19) 0.10199(16)
C17 C 0.5285(2) 0.9690(2) 0.03853(17)
H8 H 0.4691 0.9491 -0.0264
C18 C 0.43913(19) 0.7257(2) 0.08798(17)
H9 H 0.3874 0.6949 0.0180
C19 C 0.5475(2) 0.8518(2) 0.52082(17)
H10 H 0.4822 0.8845 0.5310
H11 H 0.6246 0.9007 0.5747
H12 H 0.5016 0.7531 0.5371
C20 C 1.0926(2) 1.2773(2) 0.1324(2)
H13 H 1.1013 1.2234 0.0693
H14 H 1.1419 1.2732 0.2013
H15 H 1.1318 1.3729 0.1073
loop_
_geom_bond_atom_site_label_1
_geom_bond_atom_site_label_2
_geom_bond_site_symmetry_1
_geom_bond_site_symmetry_2
O1 C15 1_555 1_555
O2 C1 1_555 1_555
O3 C18 1_555 1_555
O4 C2 1_555 1_555
N1 C1 1_555 1_555
N2 C8 1_555 1_555
N3 C4 1_555 1_555
C1 C2 1_555 1_555
C2 C3 1_555 1_555
C3 C4 1_555 1_555
C4 N1 1_555 1_555
C5 N3 1_555 1_555
H1 C5 1_555 1_555
C6 C5 1_555 1_555
H2 C6 1_555 1_555
C7 C3 1_555 1_555
H3 C7 1_555 1_555
C8 C9 1_555 1_555
C9 H4 1_555 1_555
C10 C9 1_555 1_555
H5 C10 1_555 1_555
C11 C10 1_555 1_555
H6 C11 1_555 1_555
C12 C11 1_555 1_555
H7 C12 1_555 1_555
C13 C8 1_555 1_555
C14 C2 1_555 1_555
C15 N2 1_555 1_555
C16 C14 1_555 1_555
C17 O4 1_555 1_555
H8 C17 1_555 1_555
C18 C16 1_555 1_555
H9 C18 1_555 1_555
C19 N2 1_555 1_555
H10 C19 1_555 1_555
H11 C19 1_555 1_555
H12 C19 1_555 1_555
C20 N1 1_555 1_555
H13 C20 1_555 1_555
H14 C20 1_555 1_555
H15 C20 1_555 1_555
C6 C7 1_555 1_555
C12 C13 1_555 1_555
C13 C14 1_555 1_555
C14 C15 1_555 1_555
C16 C17 1_555 1_555

#END
