
#######################################################################
#
#                 Cambridge Crystallographic Data Centre
#                                CCDC 
#
#######################################################################
#
# If this CIF has been generated from an entry in the Cambridge 
# Structural Database, then it will include bibliographic, chemical, 
# crystal, experimental, refinement or atomic coordinate data resulting 
# from the CCDC's data processing and validation procedures.
#
#######################################################################

data_DIQDEM
_chemical_formula_moiety         'C24 H32 S2'
_chemical_name_systematic        1,4,6,9-Tetraisopropylthianthrene
_symmetry_cell_setting           monoclinic
_symmetry_space_group_name_H-M   'P 21/n'
_symmetry_Int_Tables_number      14
_space_group_name_Hall           '-P 2yn'
loop_
_symmetry_equiv_pos_site_id
_symmetry_equiv_pos_as_xyz
1 x,y,z
2 1/2+x,1/2-y,1/2+z
3 -x,-y,-z
4 1/2-x,1/2+y,1/2-z
_cell_length_a                   11.050(2)
_cell_length_b                   16.593(2)
_cell_length_c                   11.936(2)
_cell_angle_alpha                90
_cell_angle_beta                 91.95(1)
_cell_angle_gamma                90
_cell_volume                     2187.23
_exptl_crystal_colour            colorless
_exptl_crystal_description       prismatic
_cell_formula_units_Z            4
loop_
_atom_site_label
_atom_site_type_symbol
_atom_site_fract_x
_atom_site_fract_y
_atom_site_fract_z
S1 S 0.95245(6) 0.22889(4) 0.39136(5)
S2 S 0.86832(6) 0.08252(4) 0.24437(5)
C1 C 0.8018(2) 0.1934(2) 0.4008(2)
C2 C 0.7641(2) 0.1282(2) 0.3344(2)
C3 C 0.9995(2) 0.0727(2) 0.3336(2)
C4 C 1.0364(2) 0.1379(2) 0.3999(2)
C5 C 0.7222(2) 0.2335(2) 0.4711(2)
C6 C 0.6039(3) 0.2053(2) 0.4701(3)
C7 C 0.5662(3) 0.1416(2) 0.4028(3)
C8 C 0.6438(2) 0.1008(2) 0.3345(2)
C9 C 1.0660(2) 0.0009(2) 0.3326(2)
C10 C 1.1686(2) -0.0029(2) 0.4039(2)
C11 C 1.2044(2) 0.0618(2) 0.4701(2)
C12 C 1.1414(2) 0.1338(2) 0.4698(2)
C13 C 0.7612(3) 0.3060(2) 0.5409(2)
C14 C 0.7623(4) 0.3812(2) 0.4687(3)
C15 C 0.6858(4) 0.3192(3) 0.6439(3)
C16 C 0.5989(3) 0.0341(2) 0.2568(3)
C17 C 0.5718(5) 0.0683(3) 0.1398(4)
C18 C 0.4913(4) -0.0125(3) 0.3018(5)
C19 C 1.1863(2) 0.2063(2) 0.5369(2)
C20 C 1.2511(3) 0.2655(2) 0.4612(3)
C21 C 1.2684(4) 0.1843(3) 0.6376(3)
C22 C 1.0327(3) -0.0677(2) 0.2531(2)
C23 C 1.0765(4) -0.0488(2) 0.1361(3)
C24 C 1.0792(4) -0.1495(2) 0.2922(3)
H1 H 0.546(3) 0.227(2) 0.517(3)
H2 H 0.486(4) 0.122(2) 0.411(3)
H3 H 1.218(3) -0.053(2) 0.404(3)
H4 H 1.273(3) 0.055(2) 0.516(3)
H5 H 0.839(3) 0.294(2) 0.565(3)
H6 H 0.784(4) 0.425(3) 0.507(3)
H7 H 0.682(4) 0.391(2) 0.434(3)
H8 H 0.813(3) 0.377(2) 0.403(3)
H9 H 0.720(4) 0.357(3) 0.686(4)
H10 H 0.603(4) 0.331(3) 0.616(4)
H11 H 0.676(4) 0.266(3) 0.690(3)
H12 H 0.664(3) -0.007(2) 0.249(3)
H13 H 0.543(4) 0.026(2) 0.092(3)
H14 H 0.657(5) 0.091(3) 0.097(5)
H15 H 0.514(4) 0.110(2) 0.146(3)
H16 H 0.481(4) -0.058(3) 0.255(4)
H17 H 0.505(5) -0.030(3) 0.398(5)
H18 H 0.422(5) 0.022(3) 0.303(4)
H19 H 1.117(2) 0.232(2) 0.565(2)
H20 H 1.282(3) 0.309(2) 0.502(3)
H21 H 1.211(4) 0.285(2) 0.394(4)
H22 H 1.315(3) 0.241(2) 0.418(3)
H23 H 1.282(3) 0.232(2) 0.682(3)
H24 H 1.220(3) 0.148(2) 0.690(3)
H25 H 1.345(4) 0.169(2) 0.616(3)
H26 H 0.949(3) -0.070(2) 0.251(2)
H27 H 1.055(3) -0.091(2) 0.089(3)
H28 H 1.163(4) -0.046(2) 0.138(3)
H29 H 1.047(3) 0.001(2) 0.107(3)
H30 H 1.044(3) -0.192(2) 0.243(3)
H31 H 1.168(3) -0.150(2) 0.283(3)
H32 H 1.066(3) -0.162(2) 0.366(3)
loop_
_geom_bond_atom_site_label_1
_geom_bond_atom_site_label_2
_geom_bond_site_symmetry_1
_geom_bond_site_symmetry_2
S1 C1 1_555 1_555
S2 C2 1_555 1_555
C1 C2 1_555 1_555
C2 C8 1_555 1_555
C3 S2 1_555 1_555
C4 S1 1_555 1_555
C5 C1 1_555 1_555
C6 C5 1_555 1_555
C7 C6 1_555 1_555
C8 C7 1_555 1_555
C9 C3 1_555 1_555
C10 C9 1_555 1_555
C11 C10 1_555 1_555
C12 C4 1_555 1_555
C13 C5 1_555 1_555
C14 C13 1_555 1_555
C15 C13 1_555 1_555
C16 C8 1_555 1_555
C17 C16 1_555 1_555
C18 C16 1_555 1_555
C19 C12 1_555 1_555
C20 C19 1_555 1_555
C21 C19 1_555 1_555
C22 C9 1_555 1_555
C23 C22 1_555 1_555
C24 C22 1_555 1_555
H1 C6 1_555 1_555
H2 C7 1_555 1_555
H3 C10 1_555 1_555
H4 C11 1_555 1_555
H5 C13 1_555 1_555
H6 C14 1_555 1_555
H7 C14 1_555 1_555
H8 C14 1_555 1_555
H9 C15 1_555 1_555
H10 C15 1_555 1_555
H11 C15 1_555 1_555
H12 C16 1_555 1_555
H13 C17 1_555 1_555
H14 C17 1_555 1_555
H15 C17 1_555 1_555
H16 C18 1_555 1_555
H17 C18 1_555 1_555
H18 C18 1_555 1_555
H19 C19 1_555 1_555
H20 C20 1_555 1_555
H21 C20 1_555 1_555
H22 C20 1_555 1_555
H23 C21 1_555 1_555
H24 C21 1_555 1_555
H25 C21 1_555 1_555
H26 C22 1_555 1_555
H27 C23 1_555 1_555
H28 C23 1_555 1_555
H29 C23 1_555 1_555
H30 C24 1_555 1_555
H31 C24 1_555 1_555
H32 C24 1_555 1_555
C3 C4 1_555 1_555
C11 C12 1_555 1_555

#END
