
#######################################################################
#
#                 Cambridge Crystallographic Data Centre
#                                CCDC 
#
#######################################################################
#
# If this CIF has been generated from an entry in the Cambridge 
# Structural Database, then it will include bibliographic, chemical, 
# crystal, experimental, refinement or atomic coordinate data resulting 
# from the CCDC's data processing and validation procedures.
#
#######################################################################

data_DIQMUO
_chemical_formula_moiety         'C23 H28 N3 1+,N1 O3 1-'
_chemical_name_systematic        
'4-amino-1-butyl-2-{2-[4-(dimethylamino)phenyl]ethenyl}quinolin-1-ium nitrate'
_symmetry_cell_setting           monoclinic
_symmetry_space_group_name_H-M   'P 21/n'
_symmetry_Int_Tables_number      14
_space_group_name_Hall           '-P 2yn'
loop_
_symmetry_equiv_pos_site_id
_symmetry_equiv_pos_as_xyz
1 x,y,z
2 1/2-x,1/2+y,1/2-z
3 -x,-y,-z
4 1/2+x,1/2-y,1/2+z
_cell_length_a                   13.215(5)
_cell_length_b                   10.327(5)
_cell_length_c                   16.162(5)
_cell_angle_alpha                90
_cell_angle_beta                 93.560(5)
_cell_angle_gamma                90
_cell_volume                     2201.39
_cell_formula_units_Z            4
loop_
_atom_site_label
_atom_site_type_symbol
_atom_site_fract_x
_atom_site_fract_y
_atom_site_fract_z
N1 N 0.50443(11) 0.24684(14) 0.16325(9)
C1 C 0.39828(14) 0.32085(17) 0.27179(11)
C2 C 0.48674(14) 0.37472(19) 0.31491(11)
C3 C 1.05553(14) 0.40448(19) 0.09093(13)
N2 N 1.14529(12) 0.42155(17) 0.05550(12)
C4 C 0.40978(14) 0.25493(17) 0.19665(11)
C5 C 0.86471(14) 0.37232(19) 0.16131(12)
C6 C 0.58813(14) 0.30109(18) 0.20400(11)
C7 C 0.57851(15) 0.3597(2) 0.28000(12)
H1 H 0.6367 0.3904 0.3089
C8 C 0.68564(15) 0.2985(2) 0.16741(12)
H2 H 0.6921 0.2463 0.1212
C9 C 0.32333(15) 0.1969(2) 0.15714(13)
H3 H 0.3292 0.1517 0.1079
C10 C 1.03067(16) 0.4728(2) 0.16202(15)
H4 H 1.0775 0.5301 0.1870
C11 C 0.98279(15) 0.3160(2) 0.05887(14)
H5 H 0.9972 0.2657 0.0134
C12 C 0.51072(15) 0.1914(2) 0.07893(12)
H6 H 0.4617 0.1220 0.0710
H7 H 0.5777 0.1552 0.0737
C13 C 0.76615(15) 0.3657(2) 0.19541(13)
H8 H 0.7583 0.4146 0.2429
C14 C 0.30186(15) 0.3289(2) 0.30304(12)
H9 H 0.2940 0.3734 0.3523
C15 C 0.23107(16) 0.2060(2) 0.19025(14)
H10 H 0.1750 0.1663 0.1634
N3 N 0.48181(13) 0.43628(19) 0.38724(10)
H11 H 0.5361 0.4667 0.4122
H12 H 0.4244 0.4455 0.4088
C16 C 0.93863(16) 0.4564(2) 0.19517(14)
H13 H 0.9249 0.5033 0.2423
C17 C 0.89144(15) 0.3018(2) 0.09259(13)
H14 H 0.8452 0.2427 0.0688
C18 C 0.21964(16) 0.2731(2) 0.26302(14)
H15 H 0.1561 0.2800 0.2844
C19 C 0.48987(17) 0.2949(2) 0.01185(12)
H16 H 0.4266 0.3380 0.0218
H17 H 0.5434 0.3592 0.0168
C20 C 1.16846(17) 0.3518(3) -0.01862(15)
H18 H 1.1723 0.2608 -0.0068
H19 H 1.2323 0.3811 -0.0369
H20 H 1.1162 0.3673 -0.0614
C21 C 0.4835(2) 0.2429(3) -0.07447(14)
H21 H 0.4295 0.1793 -0.0799
H22 H 0.5466 0.1993 -0.0846
C22 C 1.21796(17) 0.5172(3) 0.08633(18)
H23 H 1.1863 0.6009 0.0860
H24 H 1.2742 0.5189 0.0515
H25 H 1.2417 0.4953 0.1419
C23 C 0.4640(2) 0.3466(3) -0.13873(16)
H26 H 0.4021 0.3910 -0.1286
H27 H 0.4582 0.3080 -0.1928
H28 H 0.5192 0.4072 -0.1358
N4 N 0.75535(12) 0.01221(16) 0.02535(11)
O1 O 0.84122(11) -0.01293(17) 0.00303(10)
O2 O 0.73289(13) -0.0126(2) 0.09581(10)
O3 O 0.69466(14) 0.0638(2) -0.02306(10)
loop_
_geom_bond_atom_site_label_1
_geom_bond_atom_site_label_2
_geom_bond_site_symmetry_1
_geom_bond_site_symmetry_2
N1 C4 1_555 1_555
C1 C2 1_555 1_555
C2 C7 1_555 1_555
C3 N2 1_555 1_555
N2 C20 1_555 1_555
C4 C1 1_555 1_555
C5 C13 1_555 1_555
C6 N1 1_555 1_555
C7 C6 1_555 1_555
H1 C7 1_555 1_555
C8 C6 1_555 1_555
H2 C8 1_555 1_555
C9 C4 1_555 1_555
H3 C9 1_555 1_555
C10 C3 1_555 1_555
H4 C10 1_555 1_555
C11 C3 1_555 1_555
H5 C11 1_555 1_555
C12 N1 1_555 1_555
H6 C12 1_555 1_555
H7 C12 1_555 1_555
C13 C8 1_555 1_555
H8 C13 1_555 1_555
C14 C1 1_555 1_555
H9 C14 1_555 1_555
C15 C9 1_555 1_555
H10 C15 1_555 1_555
N3 C2 1_555 1_555
H11 N3 1_555 1_555
H12 N3 1_555 1_555
C16 C5 1_555 1_555
H13 C16 1_555 1_555
C17 C5 1_555 1_555
H14 C17 1_555 1_555
C18 C14 1_555 1_555
H15 C18 1_555 1_555
C19 C12 1_555 1_555
H16 C19 1_555 1_555
H17 C19 1_555 1_555
C20 H18 1_555 1_555
H19 C20 1_555 1_555
H20 C20 1_555 1_555
C21 C19 1_555 1_555
H21 C21 1_555 1_555
H22 C21 1_555 1_555
C22 N2 1_555 1_555
H23 C22 1_555 1_555
H24 C22 1_555 1_555
H25 C22 1_555 1_555
C23 C21 1_555 1_555
H26 C23 1_555 1_555
H27 C23 1_555 1_555
H28 C23 1_555 1_555
N4 O1 1_555 1_555
O2 N4 1_555 1_555
O3 N4 1_555 1_555
C10 C16 1_555 1_555
C11 C17 1_555 1_555
C15 C18 1_555 1_555

#END
