
#######################################################################
#
#                 Cambridge Crystallographic Data Centre
#                                CCDC 
#
#######################################################################
#
# If this CIF has been generated from an entry in the Cambridge 
# Structural Database, then it will include bibliographic, chemical, 
# crystal, experimental, refinement or atomic coordinate data resulting 
# from the CCDC's data processing and validation procedures.
#
#######################################################################

data_DIQYOT
_chemical_formula_moiety         'C28 H40 Si2,C6 H6'
_chemical_name_systematic        
'5,10-Dihydroindeno[2,1-a]indene-5,10-diylbis(t-butyl(dimethyl)silane) benzene solvate'
_symmetry_cell_setting           orthorhombic
_symmetry_space_group_name_H-M   'P b a n'
_symmetry_Int_Tables_number      50
_space_group_name_Hall           '-P 2ab 2b'
loop_
_symmetry_equiv_pos_site_id
_symmetry_equiv_pos_as_xyz
1 x,y,z
2 1/2-x,1/2-y,z
3 x,1/2-y,-z
4 1/2-x,y,-z
5 -x,-y,-z
6 1/2+x,1/2+y,-z
7 -x,1/2+y,z
8 1/2+x,-y,z
_cell_length_a                   14.722(3)
_cell_length_b                   18.8758(17)
_cell_length_c                   11.5867(11)
_cell_angle_alpha                90
_cell_angle_beta                 90
_cell_angle_gamma                90
_cell_volume                     3219.82
_exptl_crystal_colour            'light colorless'
_exptl_crystal_description       block
_cell_formula_units_Z            4
loop_
_atom_site_label
_atom_site_type_symbol
_atom_site_fract_x
_atom_site_fract_y
_atom_site_fract_z
Si1 Si 0.15139(9) 0.05876(5) 0.19334(8)
C1 C 0.1967(3) 0.15081(16) 0.1453(3)
H1 H 0.1570 0.1900 0.1742
C2 C 0.2066(3) 0.15336(15) 0.0165(3)
C3 C 0.2944(3) 0.16134(16) 0.1815(3)
C4 C 0.3315(3) 0.17222(19) 0.2904(3)
H2 H 0.2936 0.1728 0.3567
C5 C 0.4225(3) 0.1820(2) 0.3009(3)
H3 H 0.4476 0.1900 0.3753
C6 C 0.4799(3) 0.1805(2) 0.2056(3)
H4 H 0.5434 0.1871 0.2151
C7 C 0.4434(3) 0.16910(17) 0.0958(3)
H5 H 0.4819 0.1678 0.0301
C8 C 0.3527(3) 0.16003(15) 0.0838(3)
C9 C 0.1162(3) 0.0053(2) 0.0649(4)
H6 H 0.0668 0.0297 0.0244
H7 H 0.0952 -0.0414 0.0904
H8 H 0.1680 -0.0004 0.0127
C10 C 0.2426(4) 0.0068(2) 0.2684(4)
H9 H 0.2986 0.0086 0.2227
H10 H 0.2231 -0.0425 0.2770
H11 H 0.2538 0.0273 0.3448
C11 C 0.0497(4) 0.0732(2) 0.2900(3)
C12 C 0.0789(5) 0.1173(3) 0.3975(3)
H12 H 0.1321 0.0953 0.4334
H13 H 0.0288 0.1188 0.4531
H14 H 0.0941 0.1657 0.3734
C13 C -0.0235(4) 0.1133(2) 0.2247(4)
H15 H 0.0004 0.1593 0.1998
H16 H -0.0760 0.1206 0.2752
H17 H -0.0420 0.0858 0.1569
C14 C 0.0122(5) 0.0012(3) 0.3304(4)
H18 H -0.0088 -0.0259 0.2634
H19 H -0.0386 0.0090 0.3835
H20 H 0.0603 -0.0252 0.3700
Si1C Si 0.34861(9) 0.05876(5) -0.19334(8)
C1C C 0.3033(3) 0.15081(16) -0.1453(3)
H1C H 0.3430 0.1900 -0.1742
C2C C 0.2934(3) 0.15336(15) -0.0165(3)
C3C C 0.2056(3) 0.16134(16) -0.1815(3)
C4C C 0.1685(3) 0.17222(19) -0.2904(3)
H2C H 0.2064 0.1728 -0.3567
C5C C 0.0775(3) 0.1820(2) -0.3009(3)
H3C H 0.0524 0.1900 -0.3753
C6C C 0.0201(3) 0.1805(2) -0.2056(3)
H4C H -0.0434 0.1871 -0.2151
C7C C 0.0566(3) 0.16910(17) -0.0958(3)
H5C H 0.0181 0.1678 -0.0301
C8C C 0.1473(3) 0.16003(15) -0.0838(3)
C9C C 0.3838(3) 0.0053(2) -0.0649(4)
H6C H 0.4332 0.0297 -0.0244
H7C H 0.4048 -0.0414 -0.0904
H8C H 0.3320 -0.0004 -0.0127
C10C C 0.2574(4) 0.0068(2) -0.2684(4)
H9C H 0.2014 0.0086 -0.2227
H10C H 0.2769 -0.0425 -0.2770
H11C H 0.2462 0.0273 -0.3448
C11C C 0.4503(4) 0.0732(2) -0.2900(3)
C12C C 0.4211(5) 0.1173(3) -0.3975(3)
H12C H 0.3679 0.0953 -0.4334
H13C H 0.4712 0.1188 -0.4531
H14C H 0.4059 0.1657 -0.3734
C13C C 0.5235(4) 0.1133(2) -0.2247(4)
H15C H 0.4996 0.1593 -0.1998
H16C H 0.5760 0.1206 -0.2752
H17C H 0.5420 0.0858 -0.1569
C14C C 0.4878(5) 0.0012(3) -0.3304(4)
H18C H 0.5088 -0.0259 -0.2634
H19C H 0.5386 0.0090 -0.3835
H20C H 0.4397 -0.0252 -0.3700
C15 C 0.6506(11) 0.2500 0.5000
H21 H 0.5861 0.2500 0.5000
C16 C 0.7061(8) 0.1850(8) 0.4992(16)
H22 H 0.6755 0.1409 0.4933
C16B C 0.7061(8) 0.3150(8) 0.5008(16)
H22B H 0.6755 0.3591 0.5067
C15A C 0.8494(11) 0.2500 0.5000
H21A H 0.9139 0.2500 0.5000
C16C C 0.7939(8) 0.1850(8) 0.5008(16)
H22C H 0.8245 0.1409 0.5067
C16A C 0.7939(8) 0.3150(8) 0.4992(16)
H22A H 0.8245 0.3591 0.4933
C17 C 0.7500 0.2500 0.1173(12)
H23 H 0.7500 0.2500 0.1991
C18 C 0.7582(14) 0.1865(6) 0.0591(12)
H24 H 0.7681 0.1436 0.1000
C18A C 0.7418(14) 0.3135(6) 0.0591(12)
H24A H 0.7319 0.3564 0.1000
C17B C 0.7500 0.2500 -0.1173(12)
H23B H 0.7500 0.2500 -0.1991
C18B C 0.7582(14) 0.3135(6) -0.0591(12)
H24B H 0.7681 0.3564 -0.1000
C18C C 0.7418(14) 0.1865(6) -0.0591(12)
H24C H 0.7319 0.1436 -0.1000
loop_
_geom_bond_atom_site_label_1
_geom_bond_atom_site_label_2
_geom_bond_site_symmetry_1
_geom_bond_site_symmetry_2
Si1 C1 1_555 1_555
C1 H1 1_555 1_555
C2 C1 1_555 1_555
C3 C1 1_555 1_555
C4 C3 1_555 1_555
H2 C4 1_555 1_555
C5 C4 1_555 1_555
H3 C5 1_555 1_555
C6 C5 1_555 1_555
H4 C6 1_555 1_555
C7 C6 1_555 1_555
H5 C7 1_555 1_555
C8 C3 1_555 1_555
C9 Si1 1_555 1_555
H6 C9 1_555 1_555
H7 C9 1_555 1_555
H8 C9 1_555 1_555
C10 Si1 1_555 1_555
H9 C10 1_555 1_555
H10 C10 1_555 1_555
H11 C10 1_555 1_555
C11 Si1 1_555 1_555
C12 C11 1_555 1_555
H12 C12 1_555 1_555
H13 C12 1_555 1_555
H14 C12 1_555 1_555
C13 C11 1_555 1_555
H15 C13 1_555 1_555
H16 C13 1_555 1_555
H17 C13 1_555 1_555
C14 C11 1_555 1_555
H18 C14 1_555 1_555
H19 C14 1_555 1_555
H20 C14 1_555 1_555
C15 H21 1_555 1_555
C16 C15 1_555 1_555
H22 C16 1_555 1_555
C17 H23 1_555 1_555
C18 C17 1_555 1_555
H24 C18 1_555 1_555
Si1C C1C 1_555 1_555
C1C H1C 1_555 1_555
C2C C2 1_555 1_555
C3C C1C 1_555 1_555
C4C C3C 1_555 1_555
H2C C4C 1_555 1_555
C5C C4C 1_555 1_555
H3C C5C 1_555 1_555
C6C C5C 1_555 1_555
H4C C6C 1_555 1_555
C7C C6C 1_555 1_555
H5C C7C 1_555 1_555
C8C C2 1_555 1_555
C9C Si1C 1_555 1_555
H6C C9C 1_555 1_555
H7C C9C 1_555 1_555
H8C C9C 1_555 1_555
C10C Si1C 1_555 1_555
H9C C10C 1_555 1_555
H10C C10C 1_555 1_555
H11C C10C 1_555 1_555
C11C Si1C 1_555 1_555
C12C C11C 1_555 1_555
H12C C12C 1_555 1_555
H13C C12C 1_555 1_555
H14C C12C 1_555 1_555
C13C C11C 1_555 1_555
H15C C13C 1_555 1_555
H16C C13C 1_555 1_555
H17C C13C 1_555 1_555
C14C C11C 1_555 1_555
H18C C14C 1_555 1_555
H19C C14C 1_555 1_555
H20C C14C 1_555 1_555
C16B C15 1_555 1_555
H22B C16B 1_555 1_555
C15A H21A 1_555 1_555
C16C C16 1_555 1_555
H22C C16C 1_555 1_555
C16A C16B 1_555 1_555
H22A C16A 1_555 1_555
C18A C17 1_555 1_555
H24A C18A 1_555 1_555
C17B H23B 1_555 1_555
C18B C18A 1_555 1_555
H24B C18B 1_555 1_555
C18C C18 1_555 1_555
H24C C18C 1_555 1_555
C7 C8 1_555 1_555
C8 C2C 1_555 1_555
C1C C2C 1_555 1_555
C3C C8C 1_555 1_555
C7C C8C 1_555 1_555
C15A C16C 1_555 1_555
C15A C16A 1_555 1_555
C17B C18B 1_555 1_555
C17B C18C 1_555 1_555

#END
