
#######################################################################
#
#                 Cambridge Crystallographic Data Centre
#                                CCDC 
#
#######################################################################
#
# If this CIF has been generated from an entry in the Cambridge 
# Structural Database, then it will include bibliographic, chemical, 
# crystal, experimental, refinement or atomic coordinate data resulting 
# from the CCDC's data processing and validation procedures.
#
#######################################################################

data_DIRSOO
_chemical_formula_moiety         'C16 H17 N1 O4,1.5(H2 O1)'
_chemical_name_systematic        'Pancracine sesquihydrate'
_symmetry_cell_setting           rhombohedral
_symmetry_space_group_name_H-M   'R 3'
_symmetry_Int_Tables_number      146
_space_group_name_Hall           'R 3'
loop_
_symmetry_equiv_pos_site_id
_symmetry_equiv_pos_as_xyz
1 x,y,z
2 -y,x-y,z
3 -x+y,-x,z
4 2/3+x,1/3+y,1/3+z
5 2/3-y,1/3+x-y,1/3+z
6 2/3-x+y,1/3-x,1/3+z
7 1/3+x,2/3+y,2/3+z
8 1/3-y,2/3+x-y,2/3+z
9 1/3-x+y,2/3-x,2/3+z
_cell_length_a                   16.2453(10)
_cell_length_b                   16.2453(10)
_cell_length_c                   29.3552(14)
_cell_angle_alpha                90
_cell_angle_beta                 90
_cell_angle_gamma                120
_cell_volume                     6709.21
_exptl_crystal_colour            'light colorless'
_exptl_crystal_description       block
_cell_formula_units_Z            18
loop_
_atom_site_label
_atom_site_type_symbol
_atom_site_fract_x
_atom_site_fract_y
_atom_site_fract_z
O1 O -0.1692(2) -0.0191(3) -0.60125(11)
O2 O -0.2889(2) -0.0027(3) -0.63410(10)
O3 O -0.3532(2) -0.5586(2) -0.79500(11)
H1 H -0.3242 -0.5503 -0.8190
O4 O -0.1648(2) -0.4713(3) -0.76656(11)
H2 H -0.1937 -0.5234 -0.7790
N1 N -0.2341(3) -0.2094(3) -0.79942(12)
C1 C -0.2626(3) -0.0529(3) -0.66304(14)
C2 C -0.3166(3) -0.4697(3) -0.77142(14)
H3 H -0.3666 -0.4753 -0.7508
C3 C -0.1908(3) -0.0630(3) -0.64339(13)
C4 C -0.2706(3) -0.3016(3) -0.77419(13)
H4 H -0.3276 -0.3144 -0.7571
C5 C -0.2311(3) -0.4534(3) -0.74153(14)
H5 H -0.2545 -0.4956 -0.7150
C6 C -0.2760(3) -0.1544(3) -0.78049(14)
H6 H -0.3446 -0.1923 -0.7825
H7 H -0.2557 -0.0979 -0.7989
C7 C -0.1924(3) -0.2853(3) -0.74077(14)
C8 C -0.2937(3) -0.3880(3) -0.80367(13)
H8 H -0.3477 -0.4035 -0.8232
H9 H -0.2398 -0.3752 -0.8227
C9 C -0.2482(3) -0.1247(3) -0.73085(14)
C10 C -0.2482(4) -0.0038(4) -0.59076(16)
H10 H -0.2947 -0.0547 -0.5717
H11 H -0.2259 0.0561 -0.5750
C11 C -0.1765(3) -0.1350(3) -0.71059(13)
C12 C -0.1745(3) -0.3520(3) -0.72555(14)
H12 H -0.1259 -0.3355 -0.7045
C13 C -0.2938(3) -0.0825(3) -0.70728(14)
H13 H -0.3416 -0.0751 -0.7206
C14 C -0.1280(3) -0.1781(3) -0.73807(15)
H14 H -0.0640 -0.1591 -0.7270
C15 C -0.1299(3) -0.1554(3) -0.78873(14)
H15 H -0.1035 -0.0877 -0.7936
H16 H -0.0951 -0.1774 -0.8071
C16 C -0.1477(3) -0.1036(3) -0.66559(14)
H17 H -0.1002 -0.1107 -0.6516
O5 O -0.5251(3) -0.2791(3) -0.82393(11)
O6 O -0.5330(3) -0.4224(2) -0.84309(10)
O7 O -0.2237(2) -0.3790(3) -0.55435(10)
H18 H -0.2593 -0.3988 -0.5322
O8 O -0.3433(3) -0.5637(3) -0.57927(13)
H19 H -0.3920 -0.6112 -0.5878
N2 N -0.5064(3) -0.3925(3) -0.62479(12)
C17 C -0.5271(3) -0.3275(4) -0.78566(15)
C18 C -0.5314(3) -0.4133(4) -0.79673(15)
C19 C -0.4326(3) -0.4745(4) -0.65719(14)
C20 C -0.5261(3) -0.4447(3) -0.71764(15)
C21 C -0.4112(3) -0.3853(3) -0.63101(13)
H20 H -0.3692 -0.3286 -0.6489
C22 C -0.2783(3) -0.3941(4) -0.59459(14)
H21 H -0.2382 -0.3463 -0.6172
C23 C -0.5336(3) -0.4741(4) -0.76409(15)
H22 H -0.5396 -0.5325 -0.7717
C24 C -0.5233(3) -0.2996(4) -0.74103(15)
H23 H -0.5223 -0.2433 -0.7338
C25 C -0.3646(3) -0.3833(3) -0.58533(14)
H24 H -0.3452 -0.3236 -0.5698
H25 H -0.4094 -0.4347 -0.5660
C26 C -0.3856(4) -0.5217(4) -0.64999(15)
H26 H -0.4008 -0.5746 -0.6679
C27 C -0.5757(3) -0.4917(4) -0.63777(15)
H27 H -0.6366 -0.4984 -0.6460
H28 H -0.5849 -0.5356 -0.6133
C28 C -0.5287(4) -0.3375(4) -0.86178(16)
H29 H -0.4726 -0.3032 -0.8807
H30 H -0.5844 -0.3545 -0.8803
C29 C -0.5268(3) -0.5077(3) -0.67954(14)
H31 H -0.5575 -0.5747 -0.6885
C30 C -0.5152(4) -0.3285(4) -0.65755(15)
H32 H -0.4608 -0.2651 -0.6540
H33 H -0.5717 -0.3252 -0.6502
C31 C -0.5212(3) -0.3586(3) -0.70709(14)
C32 C -0.3099(4) -0.4934(4) -0.61449(15)
H34 H -0.2546 -0.4916 -0.6288
O9 O -0.5269(4) -0.6434(3) -0.54775(16)
H35 H -0.5454 -0.6399 -0.5744
H36 H -0.5334 -0.6981 -0.5438
O10 O -0.5947(4) -0.3797(6) -0.54806(19)
H37 H -0.6223 -0.4399 -0.5460
H38 H -0.5486 -0.3603 -0.5668
O11 O -0.6439(4) -0.5832(7) -0.5142(3)
H39 H -0.6644 -0.6066 -0.4880
H40 H -0.6891 -0.5856 -0.5299
loop_
_geom_bond_atom_site_label_1
_geom_bond_atom_site_label_2
_geom_bond_site_symmetry_1
_geom_bond_site_symmetry_2
O1 C3 1_555 1_555
O2 C1 1_555 1_555
O3 H1 1_555 1_555
O4 H2 1_555 1_555
N1 C4 1_555 1_555
C1 C3 1_555 1_555
C2 O3 1_555 1_555
H3 C2 1_555 1_555
C3 C16 1_555 1_555
C4 H4 1_555 1_555
C5 O4 1_555 1_555
H5 C5 1_555 1_555
C6 N1 1_555 1_555
H6 C6 1_555 1_555
H7 C6 1_555 1_555
C7 C4 1_555 1_555
C8 C2 1_555 1_555
H8 C8 1_555 1_555
H9 C8 1_555 1_555
C9 C6 1_555 1_555
C10 O1 1_555 1_555
H10 C10 1_555 1_555
H11 C10 1_555 1_555
C11 C9 1_555 1_555
C12 C5 1_555 1_555
H12 C12 1_555 1_555
C13 C1 1_555 1_555
H13 C13 1_555 1_555
C14 C7 1_555 1_555
H14 C14 1_555 1_555
C15 N1 1_555 1_555
H15 C15 1_555 1_555
H16 C15 1_555 1_555
C16 C11 1_555 1_555
H17 C16 1_555 1_555
O5 C17 1_555 1_555
O6 C18 1_555 1_555
O7 H18 1_555 1_555
O8 H19 1_555 1_555
N2 C21 1_555 1_555
C17 C18 1_555 1_555
C18 C23 1_555 1_555
C19 C21 1_555 1_555
C20 C23 1_555 1_555
C21 H20 1_555 1_555
C22 O7 1_555 1_555
H21 C22 1_555 1_555
C23 H22 1_555 1_555
C24 C17 1_555 1_555
H23 C24 1_555 1_555
C25 C21 1_555 1_555
H24 C25 1_555 1_555
H25 C25 1_555 1_555
C26 C19 1_555 1_555
H26 C26 1_555 1_555
C27 N2 1_555 1_555
H27 C27 1_555 1_555
H28 C27 1_555 1_555
C28 O5 1_555 1_555
H29 C28 1_555 1_555
H30 C28 1_555 1_555
C29 C19 1_555 1_555
H31 C29 1_555 1_555
C30 N2 1_555 1_555
H32 C30 1_555 1_555
H33 C30 1_555 1_555
C31 C20 1_555 1_555
C32 O8 1_555 1_555
H34 C32 1_555 1_555
O9 H35 1_555 1_555
H36 O9 1_555 1_555
O10 H37 1_555 1_555
H38 O10 1_555 1_555
O11 H39 1_555 1_555
H40 O11 1_555 1_555
O2 C10 1_555 1_555
C2 C5 1_555 1_555
C4 C8 1_555 1_555
C7 C12 1_555 1_555
C9 C13 1_555 1_555
C11 C14 1_555 1_555
C14 C15 1_555 1_555
O6 C28 1_555 1_555
C20 C29 1_555 1_555
C22 C25 1_555 1_555
C22 C32 1_555 1_555
C24 C31 1_555 1_555
C26 C32 1_555 1_555
C27 C29 1_555 1_555
C30 C31 1_555 1_555

#END
