
#######################################################################
#
#                 Cambridge Crystallographic Data Centre
#                                CCDC 
#
#######################################################################
#
# If this CIF has been generated from an entry in the Cambridge 
# Structural Database, then it will include bibliographic, chemical, 
# crystal, experimental, refinement or atomic coordinate data resulting 
# from the CCDC's data processing and validation procedures.
#
#######################################################################

data_DIRXUZ
_chemical_formula_moiety         'C58 H68 N6'
_chemical_name_systematic        
N,N'-bis(1-(6-(N-(2,6-diethylphenyl)ethanimidoyl)pyridin-2-yl)ethylidene)-3,3',5,5'-tetraethylbiphenyl-4,4'-diamine
_symmetry_cell_setting           triclinic
_symmetry_space_group_name_H-M   'P -1'
_symmetry_Int_Tables_number      2
_space_group_name_Hall           '-P 1'
loop_
_symmetry_equiv_pos_site_id
_symmetry_equiv_pos_as_xyz
1 x,y,z
2 -x,-y,-z
_cell_length_a                   8.2594(17)
_cell_length_b                   12.235(2)
_cell_length_c                   13.770(3)
_cell_angle_alpha                74.30(3)
_cell_angle_beta                 81.22(3)
_cell_angle_gamma                73.35(3)
_cell_volume                     1279.17
_exptl_crystal_colour            green
_exptl_crystal_description       stick
_cell_formula_units_Z            1
loop_
_atom_site_label
_atom_site_type_symbol
_atom_site_fract_x
_atom_site_fract_y
_atom_site_fract_z
N1 N 0.0672(4) 0.8811(3) 0.8956(3)
N2 N -0.2045(4) 1.0571(3) 0.7061(3)
N3 N -0.4961(5) 1.2929(4) 0.5597(3)
C1 C -0.3117(5) 1.1622(4) 0.6802(3)
C2 C 0.1895(5) 0.7705(4) 0.9232(3)
C3 C -0.1324(5) 1.0267(4) 0.7934(3)
C4 C 0.4343(5) 0.5570(3) 0.9853(3)
C5 C 0.2643(5) 0.5675(4) 1.0085(3)
H1 H 0.2298 0.4995 1.0467
C6 C -0.3933(6) 1.1923(4) 0.5833(4)
C7 C 0.1372(6) 0.6717(4) 0.9797(4)
C8 C -0.0093(6) 0.9090(4) 0.8159(4)
C9 C -0.1692(6) 1.1003(4) 0.8587(4)
H2 H -0.1182 1.0763 0.9210
C10 C 0.4783(6) 0.6576(4) 0.9297(4)
H3 H 0.5953 0.6537 0.9122
C11 C 0.3611(6) 0.7646(4) 0.8974(4)
C12 C -0.5858(6) 1.3304(5) 0.4708(4)
C13 C -0.3532(7) 1.2401(5) 0.7423(4)
H4 H -0.4311 1.3146 0.7228
C14 C -0.2805(8) 1.2085(5) 0.8322(4)
H5 H -0.3070 1.2609 0.8756
C15 C -0.5164(6) 1.3897(4) 0.3810(4)
C16 C -0.6147(8) 1.4338(5) 0.2981(4)
H6 H -0.5709 1.4755 0.2357
C17 C -0.3405(7) 1.4062(5) 0.3759(4)
H7 H -0.3404 1.4505 0.4264
H8 H -0.2608 1.3279 0.3962
C18 C -0.0500(7) 0.6755(5) 1.0115(6)
H9 H -0.1158 0.7143 0.9515
H10 H -0.0616 0.5939 1.0351
C19 C -0.3471(8) 1.1015(5) 0.5233(5)
H11 H -0.4072 1.1317 0.4615
H12 H -0.3792 1.0304 0.5637
H13 H -0.2246 1.0825 0.5052
C20 C -0.2739(7) 1.4692(5) 0.2747(5)
H14 H -0.1603 1.4760 0.2798
H15 H -0.3499 1.5478 0.2541
H16 H -0.2683 1.4247 0.2242
C21 C 0.0158(10) 0.8346(5) 0.7412(5)
H17 H 0.0994 0.7600 0.7642
H18 H 0.0565 0.8762 0.6748
H19 H -0.0923 0.8193 0.7358
C22 C -0.7731(9) 1.4172(8) 0.3061(5)
H20 H -0.8381 1.4468 0.2489
C23 C -0.8385(9) 1.3592(10) 0.3945(6)
H21 H -0.9480 1.3470 0.3981
C24 C 0.4193(11) 0.8685(7) 0.8244(11)
H22 H 0.5284 0.8388 0.7871
H23 H 0.3343 0.9111 0.7744
C25 C -0.7492(9) 1.3178(9) 0.4791(5)
C26 C -0.8525(15) 1.2826(10) 0.5952(9)
H24 H -0.7985 1.2918 0.6509
H25 H -0.9753 1.3218 0.5982
C27 C -0.1248(10) 0.7387(8) 1.0933(7)
H26 H -0.2435 0.7364 1.1104
H27 H -0.1185 0.8206 1.0697
H28 H -0.0613 0.7005 1.1533
C28 C -0.8179(18) 1.1780(13) 0.5865(11)
H29 H -0.8659 1.1299 0.6467
H30 H -0.6945 1.1466 0.5797
H31 H -0.8663 1.1765 0.5264
C29 C 0.4374(16) 0.9400(13) 0.8751(13)
H32 H 0.4737 1.0061 0.8280
H33 H 0.5230 0.8979 0.9235
H34 H 0.3290 0.9695 0.9116
N1A N 0.9328(4) 0.1189(3) 1.1044(3)
N2A N 1.2045(4) -0.0571(3) 1.2939(3)
N3A N 1.4961(5) -0.2929(4) 1.4403(3)
C1A C 1.3117(5) -0.1622(4) 1.3198(3)
C2A C 0.8105(5) 0.2295(4) 1.0768(3)
C3A C 1.1324(5) -0.0267(4) 1.2066(3)
C4A C 0.5657(5) 0.4430(3) 1.0147(3)
C5A C 0.7357(5) 0.4325(4) 0.9915(3)
H1A H 0.7702 0.5005 0.9533
C6A C 1.3933(6) -0.1923(4) 1.4167(4)
C7A C 0.8628(6) 0.3283(4) 1.0203(4)
C8A C 1.0093(6) 0.0910(4) 1.1841(4)
C9A C 1.1692(6) -0.1003(4) 1.1413(4)
H2A H 1.1182 -0.0763 1.0790
C10A C 0.5217(6) 0.3424(4) 1.0703(4)
H3A H 0.4047 0.3463 1.0878
C11A C 0.6389(6) 0.2354(4) 1.1026(4)
C12A C 1.5858(6) -0.3304(5) 1.5292(4)
C13A C 1.3532(7) -0.2401(5) 1.2577(4)
H4A H 1.4311 -0.3146 1.2772
C14A C 1.2805(8) -0.2085(5) 1.1678(4)
H5A H 1.3070 -0.2609 1.1244
C15A C 1.5164(6) -0.3897(4) 1.6190(4)
C16A C 1.6147(8) -0.4338(5) 1.7019(4)
H6A H 1.5709 -0.4755 1.7643
C17A C 1.3405(7) -0.4062(5) 1.6241(4)
H7A H 1.3404 -0.4505 1.5736
H8A H 1.2608 -0.3279 1.6038
C18A C 1.0500(7) 0.3245(5) 0.9885(6)
H9A H 1.1158 0.2857 1.0485
H10A H 1.0616 0.4061 0.9649
C19A C 1.3471(8) -0.1015(5) 1.4767(5)
H11A H 1.4072 -0.1317 1.5385
H12A H 1.3792 -0.0304 1.4363
H13A H 1.2246 -0.0825 1.4948
C20A C 1.2739(7) -0.4692(5) 1.7253(5)
H14A H 1.1603 -0.4760 1.7202
H15A H 1.3499 -0.5478 1.7459
H16A H 1.2683 -0.4247 1.7758
C21A C 0.9842(10) 0.1654(5) 1.2588(5)
H17A H 0.9006 0.2400 1.2358
H18A H 0.9435 0.1238 1.3252
H19A H 1.0923 0.1807 1.2642
C22A C 1.7731(9) -0.4172(8) 1.6939(5)
H20A H 1.8381 -0.4468 1.7511
C23A C 1.8385(9) -0.3592(10) 1.6055(6)
H21A H 1.9480 -0.3470 1.6019
C24A C 0.5807(11) 0.1315(7) 1.1756(11)
H22A H 0.4716 0.1612 1.2129
H23A H 0.6657 0.0889 1.2256
C25A C 1.7492(9) -0.3178(9) 1.5209(5)
C26A C 1.8525(15) -0.2826(10) 1.4048(9)
H24A H 1.7985 -0.2918 1.3491
H25A H 1.9753 -0.3218 1.4018
C27A C 1.1248(10) 0.2613(8) 0.9067(7)
H26A H 1.2435 0.2636 0.8896
H27A H 1.1185 0.1794 0.9303
H28A H 1.0613 0.2995 0.8467
C28A C 1.8179(18) -0.1780(13) 1.4135(11)
H29A H 1.8659 -0.1299 1.3533
H30A H 1.6945 -0.1466 1.4203
H31A H 1.8663 -0.1765 1.4736
C29A C 0.5626(16) 0.0600(13) 1.1249(13)
H32A H 0.5263 -0.0061 1.1720
H33A H 0.4770 0.1021 1.0765
H34A H 0.6710 0.0305 1.0884
loop_
_geom_bond_atom_site_label_1
_geom_bond_atom_site_label_2
_geom_bond_site_symmetry_1
_geom_bond_site_symmetry_2
N1 C2 1_555 1_555
N2 C1 1_555 1_555
N3 C6 1_555 1_555
C1 C6 1_555 1_555
C2 C7 1_555 1_555
C3 N2 1_555 1_555
C4 C5 1_555 1_555
C5 H1 1_555 1_555
C6 C19 1_555 1_555
C7 C5 1_555 1_555
C8 N1 1_555 1_555
C9 C3 1_555 1_555
H2 C9 1_555 1_555
C10 C4 1_555 1_555
H3 C10 1_555 1_555
C11 C2 1_555 1_555
C12 N3 1_555 1_555
C13 C1 1_555 1_555
H4 C13 1_555 1_555
C14 C9 1_555 1_555
H5 C14 1_555 1_555
C15 C12 1_555 1_555
C16 C15 1_555 1_555
H6 C16 1_555 1_555
C17 C15 1_555 1_555
H7 C17 1_555 1_555
H8 C17 1_555 1_555
C18 C7 1_555 1_555
H9 C18 1_555 1_555
H10 C18 1_555 1_555
C19 H11 1_555 1_555
H12 C19 1_555 1_555
H13 C19 1_555 1_555
C20 C17 1_555 1_555
H14 C20 1_555 1_555
H15 C20 1_555 1_555
H16 C20 1_555 1_555
C21 C8 1_555 1_555
H17 C21 1_555 1_555
H18 C21 1_555 1_555
H19 C21 1_555 1_555
C22 C16 1_555 1_555
H20 C22 1_555 1_555
C23 C22 1_555 1_555
H21 C23 1_555 1_555
C24 C11 1_555 1_555
H22 C24 1_555 1_555
H23 C24 1_555 1_555
C25 C12 1_555 1_555
C26 C25 1_555 1_555
H24 C26 1_555 1_555
H25 C26 1_555 1_555
C27 C18 1_555 1_555
H26 C27 1_555 1_555
H27 C27 1_555 1_555
H28 C27 1_555 1_555
C28 C26 1_555 1_555
H29 C28 1_555 1_555
H30 C28 1_555 1_555
H31 C28 1_555 1_555
C29 C24 1_555 1_555
H32 C29 1_555 1_555
H33 C29 1_555 1_555
H34 C29 1_555 1_555
N1A C2A 1_555 1_555
N2A C1A 1_555 1_555
N3A C6A 1_555 1_555
C1A C6A 1_555 1_555
C2A C7A 1_555 1_555
C3A N2A 1_555 1_555
C4A C4 1_555 1_555
C5A C4A 1_555 1_555
H1A C5A 1_555 1_555
C6A C19A 1_555 1_555
C7A C5A 1_555 1_555
C8A N1A 1_555 1_555
C9A C3A 1_555 1_555
H2A C9A 1_555 1_555
C10A C4A 1_555 1_555
H3A C10A 1_555 1_555
C11A C2A 1_555 1_555
C12A N3A 1_555 1_555
C13A C1A 1_555 1_555
H4A C13A 1_555 1_555
C14A C9A 1_555 1_555
H5A C14A 1_555 1_555
C15A C12A 1_555 1_555
C16A C15A 1_555 1_555
H6A C16A 1_555 1_555
C17A C15A 1_555 1_555
H7A C17A 1_555 1_555
H8A C17A 1_555 1_555
C18A C7A 1_555 1_555
H9A C18A 1_555 1_555
H10A C18A 1_555 1_555
C19A H11A 1_555 1_555
H12A C19A 1_555 1_555
H13A C19A 1_555 1_555
C20A C17A 1_555 1_555
H14A C20A 1_555 1_555
H15A C20A 1_555 1_555
H16A C20A 1_555 1_555
C21A C8A 1_555 1_555
H17A C21A 1_555 1_555
H18A C21A 1_555 1_555
H19A C21A 1_555 1_555
C22A C16A 1_555 1_555
H20A C22A 1_555 1_555
C23A C22A 1_555 1_555
H21A C23A 1_555 1_555
C24A C11A 1_555 1_555
H22A C24A 1_555 1_555
H23A C24A 1_555 1_555
C25A C12A 1_555 1_555
C26A C25A 1_555 1_555
H24A C26A 1_555 1_555
H25A C26A 1_555 1_555
C27A C18A 1_555 1_555
H26A C27A 1_555 1_555
H27A C27A 1_555 1_555
H28A C27A 1_555 1_555
C28A C26A 1_555 1_555
H29A C28A 1_555 1_555
H30A C28A 1_555 1_555
H31A C28A 1_555 1_555
C29A C24A 1_555 1_555
H32A C29A 1_555 1_555
H33A C29A 1_555 1_555
H34A C29A 1_555 1_555
C3 C8 1_555 1_555
C10 C11 1_555 1_555
C13 C14 1_555 1_555
C23 C25 1_555 1_555
C3A C8A 1_555 1_555
C10A C11A 1_555 1_555
C13A C14A 1_555 1_555
C23A C25A 1_555 1_555

#END
