
#######################################################################
#
#                 Cambridge Crystallographic Data Centre
#                                CCDC 
#
#######################################################################
#
# If this CIF has been generated from an entry in the Cambridge 
# Structural Database, then it will include bibliographic, chemical, 
# crystal, experimental, refinement or atomic coordinate data resulting 
# from the CCDC's data processing and validation procedures.
#
#######################################################################

data_DISGIX
_chemical_formula_moiety         'C19 H20 N2 O6 S1'
_chemical_name_systematic        
'Ethyl 2-benzylidene-4,6-dinitro-5-(2-thienyl)hexanoate'
_symmetry_cell_setting           monoclinic
_symmetry_space_group_name_H-M   'P 21'
_symmetry_Int_Tables_number      4
_space_group_name_Hall           'P 2yb'
loop_
_symmetry_equiv_pos_site_id
_symmetry_equiv_pos_as_xyz
1 x,y,z
2 -x,1/2+y,-z
_cell_length_a                   9.9605(13)
_cell_length_b                   7.5342(10)
_cell_length_c                   12.8020(16)
_cell_angle_alpha                90
_cell_angle_beta                 98.095(7)
_cell_angle_gamma                90
_cell_volume                     951.146
_exptl_crystal_colour            colorless
_exptl_crystal_description       rectangular
_cell_formula_units_Z            2
loop_
_atom_site_label
_atom_site_type_symbol
_atom_site_fract_x
_atom_site_fract_y
_atom_site_fract_z
S1 S 0.28850(8) 0.72973(14) 0.39113(7)
C1 C 0.3529(3) 0.4745(4) 0.7569(2)
C2 C 0.1595(3) 0.5397(4) 0.8485(2)
H1 H 0.2058 0.4644 0.8986
C3 C 0.2267(3) 0.5761(4) 0.7666(2)
O1 O 0.4626(2) 0.8775(3) 0.79364(17)
O2 O 0.2839(2) 1.0460(3) 0.77575(17)
C4 C 0.1560(5) 0.6618(5) 0.3029(3)
H2 H 0.1644 0.5893 0.2454
O3 O 0.1935(2) 1.2658(3) 0.45133(17)
C5 C -0.2248(3) 0.6890(4) 0.9347(2)
H3 H -0.3073 0.7218 0.9550
C6 C -0.1218(3) 0.6219(5) 1.0086(2)
H4 H -0.1361 0.6070 1.0783
C7 C 0.0024(3) 0.5771(4) 0.9784(2)
H5 H 0.0712 0.5330 1.0283
C8 C 0.0254(3) 0.5977(4) 0.8732(2)
C9 C 0.1819(3) 0.7038(4) 0.6773(2)
H6 H 0.1103 0.7786 0.6972
H7 H 0.1441 0.6363 0.6156
C10 C 0.2959(3) 0.8228(4) 0.6479(2)
H8 H 0.3677 0.7483 0.6259
C11 C 0.2446(3) 0.9536(4) 0.5581(2)
H9 H 0.1711 1.0245 0.5803
C12 C 0.3599(3) 1.0791(4) 0.5396(2)
H10 H 0.3981 1.1324 0.6061
H11 H 0.4309 1.0116 0.5132
N1 N 0.3121(2) 1.2222(4) 0.46272(18)
O4 O 0.3986(2) 1.2910(3) 0.41526(16)
C13 C 0.0369(3) 0.7250(5) 0.3255(3)
H12 H -0.0454 0.6986 0.2846
C14 C 0.1890(3) 0.8524(4) 0.4606(2)
O5 O 0.42022(19) 0.4206(3) 0.84900(15)
C15 C 0.5463(3) 0.3249(4) 0.8424(2)
H13 H 0.6115 0.4026 0.8159
H14 H 0.5294 0.2246 0.7948
C16 C 0.6007(3) 0.2616(5) 0.9519(2)
H15 H 0.6840 0.1983 0.9502
H16 H 0.5356 0.1844 0.9771
H17 H 0.6170 0.3619 0.9983
O6 O 0.3897(2) 0.4437(3) 0.67180(16)
C17 C -0.2037(3) 0.7069(5) 0.8308(2)
H18 H -0.2732 0.7497 0.7811
C18 C -0.0795(3) 0.6615(4) 0.7997(2)
H19 H -0.0668 0.6739 0.7295
N2 N 0.3521(2) 0.9250(3) 0.74624(19)
C19 C 0.0458(2) 0.8309(3) 0.41305(18)
H20 H -0.0278 0.8821 0.4390
loop_
_geom_bond_atom_site_label_1
_geom_bond_atom_site_label_2
_geom_bond_site_symmetry_1
_geom_bond_site_symmetry_2
S1 C4 1_555 1_555
C1 C3 1_555 1_555
C2 H1 1_555 1_555
C3 C2 1_555 1_555
O1 N2 1_555 1_555
O2 N2 1_555 1_555
C4 H2 1_555 1_555
O3 N1 1_555 1_555
C5 H3 1_555 1_555
C6 C5 1_555 1_555
H4 C6 1_555 1_555
C7 C6 1_555 1_555
H5 C7 1_555 1_555
C8 C2 1_555 1_555
C9 C3 1_555 1_555
H6 C9 1_555 1_555
H7 C9 1_555 1_555
C10 C9 1_555 1_555
H8 C10 1_555 1_555
C11 C10 1_555 1_555
H9 C11 1_555 1_555
C12 C11 1_555 1_555
H10 C12 1_555 1_555
H11 C12 1_555 1_555
N1 C12 1_555 1_555
O4 N1 1_555 1_555
C13 C4 1_555 1_555
H12 C13 1_555 1_555
C14 S1 1_555 1_555
O5 C1 1_555 1_555
C15 O5 1_555 1_555
H13 C15 1_555 1_555
H14 C15 1_555 1_555
C16 C15 1_555 1_555
H15 C16 1_555 1_555
H16 C16 1_555 1_555
H17 C16 1_555 1_555
O6 C1 1_555 1_555
C17 C5 1_555 1_555
H18 C17 1_555 1_555
C18 C8 1_555 1_555
H19 C18 1_555 1_555
N2 C10 1_555 1_555
C19 C13 1_555 1_555
H20 C19 1_555 1_555
C7 C8 1_555 1_555
C11 C14 1_555 1_555
C14 C19 1_555 1_555
C17 C18 1_555 1_555

#END
