
#######################################################################
#
#                 Cambridge Crystallographic Data Centre
#                                CCDC 
#
#######################################################################
#
# If this CIF has been generated from an entry in the Cambridge 
# Structural Database, then it will include bibliographic, chemical, 
# crystal, experimental, refinement or atomic coordinate data resulting 
# from the CCDC's data processing and validation procedures.
#
#######################################################################

data_DISGOD
_chemical_formula_moiety         'C19 H19 Cl1 N2 O1'
_chemical_name_systematic        
2-((4-(4-Chlorophenyl)-4,5-dihydro-3H-pyrazol-3-yl)methyl)-3-phenylprop-2-en-1-ol
_symmetry_cell_setting           monoclinic
_symmetry_space_group_name_H-M   'C 2'
_symmetry_Int_Tables_number      5
_space_group_name_Hall           'C 2y'
loop_
_symmetry_equiv_pos_site_id
_symmetry_equiv_pos_as_xyz
1 x,y,z
2 -x,y,-z
3 1/2+x,1/2+y,z
4 1/2-x,1/2+y,-z
_cell_length_a                   75.874(8)
_cell_length_b                   5.7768(7)
_cell_length_c                   7.7098(8)
_cell_angle_alpha                90
_cell_angle_beta                 92.437(12)
_cell_angle_gamma                90
_cell_volume                     3376.22
_exptl_crystal_colour            colorless
_exptl_crystal_description       block
_cell_formula_units_Z            8
loop_
_atom_site_label
_atom_site_type_symbol
_atom_site_fract_x
_atom_site_fract_y
_atom_site_fract_z
Cl1 Cl 0.50877(2) 0.5606(6) 0.2656(3)
O1 O 0.61207(6) -0.0782(10) 1.0582(7)
H1 H 0.6206 -0.1587 1.0359
C1 C 0.56717(7) 0.5547(11) 0.4026(7)
C2 C 0.59246(8) 0.3906(11) 0.7716(7)
H2 H 0.6032 0.4795 0.7936
H3 H 0.5826 0.4862 0.8035
C3 C 0.53114(8) 0.5614(14) 0.3167(9)
C4 C 0.54151(8) 0.3827(13) 0.2574(8)
H4 H 0.5365 0.2654 0.1888
C5 C 0.55932(8) 0.3819(11) 0.3018(7)
H5 H 0.5663 0.2616 0.2628
C6 C 0.58643(7) 0.5411(12) 0.4591(8)
H6 H 0.5898 0.6843 0.5201
C7 C 0.59056(7) 0.3359(11) 0.5782(7)
H7 H 0.5812 0.2205 0.5604
C8 C 0.59311(8) 0.1776(11) 0.8851(7)
C9 C 0.57923(8) 0.0494(13) 0.9272(7)
H8 H 0.5823 -0.0754 0.9985
C10 C 0.56034(8) 0.0636(11) 0.8849(7)
C11 C 0.54965(9) -0.1140(12) 0.9443(8)
H9 H 0.5549 -0.2343 1.0081
C12 C 0.53160(10) -0.1174(14) 0.9119(9)
H10 H 0.5249 -0.2391 0.9532
C13 C 0.52350(9) 0.0569(16) 0.8196(9)
H11 H 0.5114 0.0543 0.7969
C14 C 0.59943(9) 0.4970(17) 0.3142(9)
H12 H 0.5932 0.4404 0.2103
H13 H 0.6055 0.6388 0.2858
N1 N 0.61198(8) 0.3237(13) 0.3809(8)
N2 N 0.60744(7) 0.2343(12) 0.5190(7)
C15 C 0.53353(9) 0.2366(14) 0.7606(9)
H14 H 0.5281 0.3576 0.6991
C16 C 0.55154(8) 0.2378(12) 0.7924(8)
H15 H 0.5581 0.3602 0.7501
C17 C 0.61144(8) 0.1163(13) 0.9481(8)
H16 H 0.6185 0.0857 0.8488
H17 H 0.6166 0.2476 1.0100
C18 C 0.55627(9) 0.7319(12) 0.4579(8)
H18 H 0.5611 0.8512 0.5254
C19 C 0.53851(10) 0.7342(15) 0.4149(9)
H19 H 0.5315 0.8544 0.4531
Cl2 Cl 0.73268(2) 0.0139(4) 1.1069(3)
C20 C 0.67727(8) 0.8958(11) 0.4585(7)
H20 H 0.6753 1.0468 0.4206
O2 O 0.64581(5) 1.0614(8) 0.3255(6)
H21 H 0.6364 1.1316 0.3258
C21 C 0.69598(7) 0.8302(10) 0.4876(7)
C22 C 0.71481(8) 0.1800(12) 1.0412(8)
C23 C 0.69800(8) 0.1007(12) 1.0722(7)
H22 H 0.6965 -0.0409 1.1269
C24 C 0.68361(8) 0.2327(11) 1.0216(8)
H23 H 0.6724 0.1806 1.0451
C25 C 0.68555(8) 0.4443(10) 0.9353(7)
C26 C 0.66988(8) 0.5922(12) 0.8761(7)
H24 H 0.6742 0.7399 0.8326
C27 C 0.65777(7) 0.4816(11) 0.7346(8)
H25 H 0.6576 0.3142 0.7551
C28 C 0.66307(8) 0.5219(11) 0.5470(7)
H26 H 0.6749 0.4622 0.5363
H27 H 0.6553 0.4298 0.4714
C29 C 0.66273(8) 0.7686(11) 0.4790(7)
C30 C 0.70724(8) 0.9795(11) 0.5809(7)
H28 H 0.7028 1.1179 0.6227
C31 C 0.72491(8) 0.9256(12) 0.6127(8)
H29 H 0.7322 1.0259 0.6772
C32 C 0.73162(8) 0.7231(14) 0.5482(9)
H30 H 0.7434 0.6853 0.5702
C33 C 0.65664(9) 0.6410(14) 1.0139(9)
H31 H 0.6566 0.5163 1.0982
H32 H 0.6595 0.7845 1.0741
N3 N 0.63965(8) 0.6582(12) 0.9203(10)
N4 N 0.63994(7) 0.5735(11) 0.7697(9)
C34 C 0.64484(8) 0.8622(13) 0.4318(9)
H33 H 0.6379 0.7441 0.3707
H34 H 0.6389 0.9013 0.5368
C35 C 0.72083(8) 0.5771(12) 0.4514(8)
H35 H 0.7254 0.4416 0.4064
C36 C 0.70330(8) 0.6302(11) 0.4207(7)
H36 H 0.6962 0.5303 0.3539
C37 C 0.70247(7) 0.5171(12) 0.9055(7)
H37 H 0.7042 0.6562 0.8478
C38 C 0.71682(8) 0.3883(12) 0.9595(8)
H38 H 0.7281 0.4430 0.9404
loop_
_geom_bond_atom_site_label_1
_geom_bond_atom_site_label_2
_geom_bond_site_symmetry_1
_geom_bond_site_symmetry_2
Cl1 C3 1_555 1_555
O1 H1 1_555 1_555
C1 C5 1_555 1_555
C2 H2 1_555 1_555
H3 C2 1_555 1_555
C3 C4 1_555 1_555
C4 H4 1_555 1_555
C5 C4 1_555 1_555
H5 C5 1_555 1_555
C6 C1 1_555 1_555
H6 C6 1_555 1_555
C7 C2 1_555 1_555
H7 C7 1_555 1_555
C8 C2 1_555 1_555
C9 C8 1_555 1_555
H8 C9 1_555 1_555
C10 C9 1_555 1_555
C11 C10 1_555 1_555
H9 C11 1_555 1_555
C12 C11 1_555 1_555
H10 C12 1_555 1_555
C13 C12 1_555 1_555
H11 C13 1_555 1_555
C14 C6 1_555 1_555
H12 C14 1_555 1_555
H13 C14 1_555 1_555
N1 C14 1_555 1_555
N2 C7 1_555 1_555
C15 C13 1_555 1_555
H14 C15 1_555 1_555
C16 C10 1_555 1_555
H15 C16 1_555 1_555
C17 O1 1_555 1_555
H16 C17 1_555 1_555
H17 C17 1_555 1_555
C18 C1 1_555 1_555
H18 C18 1_555 1_555
C19 C3 1_555 1_555
H19 C19 1_555 1_555
Cl2 C22 1_555 1_555
C20 H20 1_555 1_555
O2 H21 1_555 1_555
C21 C20 1_555 1_555
C22 C23 1_555 1_555
C23 H22 1_555 1_555
C24 C23 1_555 1_555
H23 C24 1_555 1_555
C25 C24 1_555 1_555
C26 C25 1_555 1_555
H24 C26 1_555 1_555
C27 C26 1_555 1_555
H25 C27 1_555 1_555
C28 C27 1_555 1_555
H26 C28 1_555 1_555
H27 C28 1_555 1_555
C29 C20 1_555 1_555
C30 C21 1_555 1_555
H28 C30 1_555 1_555
C31 C30 1_555 1_555
H29 C31 1_555 1_555
C32 C31 1_555 1_555
H30 C32 1_555 1_555
C33 C26 1_555 1_555
H31 C33 1_555 1_555
H32 C33 1_555 1_555
N3 C33 1_555 1_555
N4 C27 1_555 1_555
C34 O2 1_555 1_555
H33 C34 1_555 1_555
H34 C34 1_555 1_555
C35 C32 1_555 1_555
H35 C35 1_555 1_555
C36 C21 1_555 1_555
H36 C36 1_555 1_555
C37 C25 1_555 1_555
H37 C37 1_555 1_555
C38 C22 1_555 1_555
H38 C38 1_555 1_555
C6 C7 1_555 1_555
C8 C17 1_555 1_555
N1 N2 1_555 1_555
C15 C16 1_555 1_555
C18 C19 1_555 1_555
C28 C29 1_555 1_555
C29 C34 1_555 1_555
N3 N4 1_555 1_555
C35 C36 1_555 1_555
C37 C38 1_555 1_555

#END
