
#######################################################################
#
#                 Cambridge Crystallographic Data Centre
#                                CCDC 
#
#######################################################################
#
# If this CIF has been generated from an entry in the Cambridge 
# Structural Database, then it will include bibliographic, chemical, 
# crystal, experimental, refinement or atomic coordinate data resulting 
# from the CCDC's data processing and validation procedures.
#
#######################################################################

data_DISKOI
_chemical_formula_moiety         'C14 H10 Cl1 N1 O1'
_chemical_name_systematic        1-(3-chlorophenyl)-1,3-dihydro-2H-indol-2-one
_symmetry_cell_setting           monoclinic
_symmetry_space_group_name_H-M   'P 21/c'
_symmetry_Int_Tables_number      14
_space_group_name_Hall           '-P 2ybc'
loop_
_symmetry_equiv_pos_site_id
_symmetry_equiv_pos_as_xyz
1 x,y,z
2 -x,1/2+y,1/2-z
3 -x,-y,-z
4 x,1/2-y,1/2+z
_cell_length_a                   11.1067(7)
_cell_length_b                   13.3924(8)
_cell_length_c                   8.0288(5)
_cell_angle_alpha                90
_cell_angle_beta                 109.920(2)
_cell_angle_gamma                90
_cell_volume                     1122.79
_exptl_crystal_colour            colorless
_exptl_crystal_description       bar
_cell_formula_units_Z            4
loop_
_atom_site_label
_atom_site_type_symbol
_atom_site_fract_x
_atom_site_fract_y
_atom_site_fract_z
C1 C 0.83229(10) 0.37452(7) 0.24414(14)
C2 C 0.97698(10) 0.37009(8) 0.33233(13)
C3 C 0.99596(10) 0.37259(7) 0.52649(13)
C4 C 1.10634(10) 0.37359(8) 0.67415(14)
C5 C 1.09509(11) 0.38197(8) 0.84178(14)
C6 C 0.97511(11) 0.38739(8) 0.86005(14)
C7 C 0.86282(10) 0.38494(8) 0.71219(14)
C8 C 0.87626(10) 0.37859(7) 0.54693(13)
C9 C 0.64647(10) 0.39385(8) 0.34807(14)
C10 C 0.58431(10) 0.32848(8) 0.42661(14)
C11 C 0.45679(10) 0.34678(8) 0.40260(14)
C12 C 0.38994(10) 0.42603(9) 0.30137(14)
C13 C 0.45327(11) 0.48890(8) 0.22100(14)
C14 C 0.58179(10) 0.47359(8) 0.24426(14)
Cl1 Cl 0.37737(3) 0.26618(2) 0.50010(4)
N1 N 0.77963(8) 0.37973(7) 0.37787(11)
O1 O 0.77119(8) 0.37345(6) 0.08629(10)
H1 H 1.1910(14) 0.3693(10) 0.6601(18)
H2 H 1.1752(14) 0.3848(11) 0.953(2)
H3 H 0.9704(14) 0.3937(11) 0.977(2)
H4 H 0.7806(13) 0.3873(10) 0.7246(18)
H5 H 0.6287(13) 0.2730(11) 0.4937(18)
H6 H 0.3012(15) 0.4359(12) 0.288(2)
H7 H 0.4077(15) 0.5432(11) 0.150(2)
H8 H 0.6260(13) 0.5169(10) 0.1917(18)
H9 H 1.0093(14) 0.3108(11) 0.2957(18)
H10 H 1.0152(13) 0.4271(11) 0.2965(18)
loop_
_geom_bond_atom_site_label_1
_geom_bond_atom_site_label_2
_geom_bond_site_symmetry_1
_geom_bond_site_symmetry_2
C1 C2 1_555 1_555
C2 C3 1_555 1_555
C3 C4 1_555 1_555
C4 C5 1_555 1_555
C5 C6 1_555 1_555
C6 C7 1_555 1_555
C7 C8 1_555 1_555
C8 C3 1_555 1_555
C9 C10 1_555 1_555
C10 C11 1_555 1_555
C11 C12 1_555 1_555
C12 C13 1_555 1_555
C13 C14 1_555 1_555
C14 C9 1_555 1_555
Cl1 C11 1_555 1_555
N1 C1 1_555 1_555
O1 C1 1_555 1_555
H1 C4 1_555 1_555
H2 C5 1_555 1_555
H3 C6 1_555 1_555
H4 C7 1_555 1_555
H5 C10 1_555 1_555
H6 C12 1_555 1_555
H7 C13 1_555 1_555
H8 C14 1_555 1_555
H9 C2 1_555 1_555
H10 C2 1_555 1_555
C8 N1 1_555 1_555
C9 N1 1_555 1_555

#END
