
#######################################################################
#
#                 Cambridge Crystallographic Data Centre
#                                CCDC 
#
#######################################################################
#
# If this CIF has been generated from an entry in the Cambridge 
# Structural Database, then it will include bibliographic, chemical, 
# crystal, experimental, refinement or atomic coordinate data resulting 
# from the CCDC's data processing and validation procedures.
#
#######################################################################

data_DISKOI01
_chemical_formula_moiety         'C14 H10 Cl1 N1 O1'
_chemical_name_systematic        1-(3-chlorophenyl)-1,3-dihydro-2H-indol-2-one
_symmetry_cell_setting           monoclinic
_symmetry_space_group_name_H-M   'P 21/c'
_symmetry_Int_Tables_number      14
_space_group_name_Hall           '-P 2ybc'
loop_
_symmetry_equiv_pos_site_id
_symmetry_equiv_pos_as_xyz
1 x,y,z
2 -x,1/2+y,1/2-z
3 -x,-y,-z
4 x,1/2-y,1/2+z
_cell_length_a                   11.1901(2)
_cell_length_b                   13.6596(3)
_cell_length_c                   8.0965(2)
_cell_angle_alpha                90
_cell_angle_beta                 109.9960(10)
_cell_angle_gamma                90
_cell_volume                     1162.96
_exptl_crystal_colour            colorless
_exptl_crystal_description       bar
_cell_formula_units_Z            4
loop_
_atom_site_label
_atom_site_type_symbol
_atom_site_fract_x
_atom_site_fract_y
_atom_site_fract_z
C1 C 0.83010(13) 0.37519(9) 0.24314(18)
C2 C 0.97339(13) 0.36994(10) 0.33071(18)
C3 C 0.99289(12) 0.37266(9) 0.52246(17)
C4 C 1.10215(13) 0.37232(10) 0.6691(2)
C5 C 1.09155(15) 0.38035(10) 0.8349(2)
C6 C 0.97341(15) 0.38681(10) 0.85297(19)
C7 C 0.86177(14) 0.38606(10) 0.70735(18)
C8 C 0.87487(12) 0.37960(9) 0.54348(17)
C9 C 0.64634(12) 0.39487(10) 0.34614(18)
C10 C 0.58388(13) 0.32968(11) 0.42009(19)
C11 C 0.45727(13) 0.34684(12) 0.39525(19)
C12 C 0.39209(14) 0.42498(14) 0.2979(2)
C13 C 0.45507(16) 0.48767(13) 0.2224(2)
C14 C 0.58227(15) 0.47375(11) 0.2469(2)
Cl1 Cl 0.37809(5) 0.26605(5) 0.48804(8)
N1 N 0.77845(10) 0.38116(8) 0.37545(14)
O1 O 0.76945(10) 0.37418(8) 0.08714(13)
H1 H 1.1840(16) 0.3671(12) 0.654(2)
H2 H 1.1730(17) 0.3818(13) 0.946(2)
H3 H 0.9701(16) 0.3922(13) 0.970(3)
H4 H 0.7811(16) 0.3894(11) 0.722(2)
H5 H 0.6299(15) 0.2743(12) 0.491(2)
H6 H 0.3046(18) 0.4351(15) 0.281(3)
H7 H 0.412(2) 0.5404(14) 0.161(3)
H8 H 0.6268(17) 0.5176(14) 0.195(2)
H9 H 1.0127(15) 0.4231(13) 0.298(2)
H10 H 1.0032(16) 0.3121(13) 0.296(2)
loop_
_geom_bond_atom_site_label_1
_geom_bond_atom_site_label_2
_geom_bond_site_symmetry_1
_geom_bond_site_symmetry_2
C1 C2 1_555 1_555
C2 C3 1_555 1_555
C3 C4 1_555 1_555
C4 C5 1_555 1_555
C5 C6 1_555 1_555
C6 C7 1_555 1_555
C7 C8 1_555 1_555
C8 C3 1_555 1_555
C9 C10 1_555 1_555
C10 C11 1_555 1_555
C11 C12 1_555 1_555
C12 C13 1_555 1_555
C13 C14 1_555 1_555
C14 C9 1_555 1_555
Cl1 C11 1_555 1_555
N1 C1 1_555 1_555
O1 C1 1_555 1_555
H1 C4 1_555 1_555
H2 C5 1_555 1_555
H3 C6 1_555 1_555
H4 C7 1_555 1_555
H5 C10 1_555 1_555
H6 C12 1_555 1_555
H7 C13 1_555 1_555
H8 C14 1_555 1_555
H9 C2 1_555 1_555
H10 C2 1_555 1_555
C8 N1 1_555 1_555
C9 N1 1_555 1_555

#END
