
#######################################################################
#
#                 Cambridge Crystallographic Data Centre
#                                CCDC 
#
#######################################################################
#
# If this CIF has been generated from an entry in the Cambridge 
# Structural Database, then it will include bibliographic, chemical, 
# crystal, experimental, refinement or atomic coordinate data resulting 
# from the CCDC's data processing and validation procedures.
#
#######################################################################

data_DISXOV
_chemical_name_common            
3-[(4-methoxyphenyl)amino]pregn-3-ene-2,20-dione
_chemical_formula_moiety         'C28 H37 N1 O3'
_chemical_name_systematic        
(5S,8R,9S,10R,13S,14S,17S)-17-acetyl-3-((4-methoxyphenyl)amino)-10,13-dimethyl-1,5,6,7,8,9,10,11,12,13,14,15,16,17-tetradecahydro-2H-cyclopenta[a]phenanthren-2-one
_symmetry_cell_setting           orthorhombic
_symmetry_space_group_name_H-M   'P 21 21 21'
_symmetry_Int_Tables_number      19
_space_group_name_Hall           'P 2ac 2ab'
loop_
_symmetry_equiv_pos_site_id
_symmetry_equiv_pos_as_xyz
1 x,y,z
2 1/2-x,-y,1/2+z
3 1/2+x,1/2-y,-z
4 -x,1/2+y,1/2-z
_cell_length_a                   7.44008(9)
_cell_length_b                   14.57773(17)
_cell_length_c                   21.4248(2)
_cell_angle_alpha                90
_cell_angle_beta                 90
_cell_angle_gamma                90
_cell_volume                     2323.72
_exptl_crystal_colour            colorless
_exptl_crystal_description       block
_cell_formula_units_Z            4
loop_
_atom_site_label
_atom_site_type_symbol
_atom_site_fract_x
_atom_site_fract_y
_atom_site_fract_z
N1 N 0.6775(2) 0.40107(11) 1.03164(7)
H1 H 0.5730 0.4101 1.0476
O1 O 0.6048(2) 0.15429(10) 0.49244(6)
O2 O 0.37222(18) 0.39732(10) 0.96914(6)
O3 O 1.22847(19) 0.53234(9) 1.18385(6)
C1 C 0.3251(3) 0.13003(14) 0.54279(8)
H2 H 0.2778 0.1427 0.5020
H3 H 0.2799 0.1744 0.5719
H4 H 0.2887 0.0697 0.5556
C2 C 0.5274(3) 0.13509(12) 0.54102(8)
C3 C 0.6282(2) 0.11713(11) 0.60127(8)
H5 H 0.5734 0.0636 0.6214
C4 C 0.6211(2) 0.19870(11) 0.64865(8)
C5 C 0.7688(2) 0.16721(12) 0.69446(8)
H6 H 0.7248 0.1106 0.7138
C6 C 0.9248(3) 0.13940(13) 0.65190(8)
H7 H 1.0013 0.0944 0.6721
H8 H 0.9968 0.1923 0.6405
C7 C 0.8310(3) 0.09776(14) 0.59379(8)
H9 H 0.8763 0.1260 0.5559
H10 H 0.8528 0.0322 0.5916
C8 C 0.6692(3) 0.28799(12) 0.61458(8)
H11 H 0.6650 0.3383 0.6435
H12 H 0.5845 0.2985 0.5815
H13 H 0.7880 0.2831 0.5974
C9 C 0.4466(2) 0.20982(12) 0.68556(8)
H14 H 0.4078 0.1504 0.7008
H15 H 0.3536 0.2335 0.6583
C10 C 0.4718(2) 0.27557(12) 0.74118(8)
H16 H 0.4954 0.3368 0.7254
H17 H 0.3612 0.2778 0.7651
C11 C 0.6259(2) 0.24694(11) 0.78440(8)
H18 H 0.5941 0.1862 0.8006
C12 C 0.8034(2) 0.23441(11) 0.74771(8)
H19 H 0.8382 0.2937 0.7299
C13 C 0.6491(2) 0.31007(12) 0.84246(7)
C14 C 0.8003(2) 0.26908(12) 0.88333(8)
H20 H 0.7635 0.2060 0.8927
C15 C 0.9781(2) 0.26145(13) 0.84817(8)
H21 H 1.0688 0.2350 0.8753
H22 H 1.0184 0.3220 0.8357
C16 C 0.9544(2) 0.20117(13) 0.79035(8)
H23 H 1.0661 0.2003 0.7670
H24 H 0.9288 0.1388 0.8035
C17 C 0.6895(3) 0.41006(12) 0.82323(8)
H25 H 0.7031 0.4471 0.8600
H26 H 0.5920 0.4333 0.7985
H27 H 0.7985 0.4119 0.7993
C18 C 0.4788(2) 0.30876(12) 0.88283(8)
H28 H 0.3811 0.3362 0.8594
H29 H 0.4465 0.2455 0.8914
C19 C 0.4993(3) 0.35901(13) 0.94378(8)
C20 C 0.6792(2) 0.35787(12) 0.97401(8)
C21 C 0.8181(3) 0.31666(12) 0.94554(8)
H30 H 0.9299 0.3175 0.9650
C22 C 0.8238(3) 0.43203(12) 1.06742(8)
C23 C 0.8023(3) 0.43924(12) 1.13226(8)
H31 H 0.6949 0.4209 1.1506
C24 C 0.9386(3) 0.47323(11) 1.16916(8)
H32 H 0.9219 0.4779 1.2121
C25 C 1.1011(3) 0.50062(11) 1.14273(8)
C26 C 1.1253(3) 0.49288(12) 1.07878(8)
H33 H 1.2337 0.5104 1.0608
C27 C 0.9872(3) 0.45894(12) 1.04163(8)
H34 H 1.0044 0.4541 0.9988
C28 C 1.3797(3) 0.57791(16) 1.15753(11)
H35 H 1.4593 0.5970 1.1903
H36 H 1.3399 0.6307 1.1345
H37 H 1.4419 0.5368 1.1300
loop_
_geom_bond_atom_site_label_1
_geom_bond_atom_site_label_2
_geom_bond_site_symmetry_1
_geom_bond_site_symmetry_2
N1 H1 1_555 1_555
O1 C2 1_555 1_555
O2 C19 1_555 1_555
O3 C25 1_555 1_555
C1 H2 1_555 1_555
H3 C1 1_555 1_555
H4 C1 1_555 1_555
C2 C1 1_555 1_555
C3 C2 1_555 1_555
H5 C3 1_555 1_555
C4 C3 1_555 1_555
C5 C4 1_555 1_555
H6 C5 1_555 1_555
C6 C5 1_555 1_555
H7 C6 1_555 1_555
H8 C6 1_555 1_555
C7 C3 1_555 1_555
H9 C7 1_555 1_555
H10 C7 1_555 1_555
C8 C4 1_555 1_555
H11 C8 1_555 1_555
H12 C8 1_555 1_555
H13 C8 1_555 1_555
C9 C4 1_555 1_555
H14 C9 1_555 1_555
H15 C9 1_555 1_555
C10 C9 1_555 1_555
H16 C10 1_555 1_555
H17 C10 1_555 1_555
C11 C10 1_555 1_555
H18 C11 1_555 1_555
C12 C5 1_555 1_555
H19 C12 1_555 1_555
C13 C11 1_555 1_555
C14 C13 1_555 1_555
H20 C14 1_555 1_555
C15 C14 1_555 1_555
H21 C15 1_555 1_555
H22 C15 1_555 1_555
C16 C12 1_555 1_555
H23 C16 1_555 1_555
H24 C16 1_555 1_555
C17 C13 1_555 1_555
H25 C17 1_555 1_555
H26 C17 1_555 1_555
H27 C17 1_555 1_555
C18 C13 1_555 1_555
H28 C18 1_555 1_555
H29 C18 1_555 1_555
C19 C18 1_555 1_555
C20 N1 1_555 1_555
C21 C14 1_555 1_555
H30 C21 1_555 1_555
C22 N1 1_555 1_555
C23 C22 1_555 1_555
H31 C23 1_555 1_555
C24 C23 1_555 1_555
H32 C24 1_555 1_555
C25 C24 1_555 1_555
C26 C25 1_555 1_555
H33 C26 1_555 1_555
C27 C22 1_555 1_555
H34 C27 1_555 1_555
C28 O3 1_555 1_555
H35 C28 1_555 1_555
H36 C28 1_555 1_555
H37 C28 1_555 1_555
C6 C7 1_555 1_555
C11 C12 1_555 1_555
C15 C16 1_555 1_555
C19 C20 1_555 1_555
C20 C21 1_555 1_555
C26 C27 1_555 1_555

#END
