
#######################################################################
#
#                 Cambridge Crystallographic Data Centre
#                                CCDC 
#
#######################################################################
#
# If this CIF has been generated from an entry in the Cambridge 
# Structural Database, then it will include bibliographic, chemical, 
# crystal, experimental, refinement or atomic coordinate data resulting 
# from the CCDC's data processing and validation procedures.
#
#######################################################################

data_DISYAI
_chemical_formula_moiety         'C16 H15 N1 O2'
_chemical_name_systematic        7-t-butyl-3H-phenoxazin-3-one
_symmetry_cell_setting           monoclinic
_symmetry_space_group_name_H-M   'P 21/m'
_symmetry_Int_Tables_number      11
_space_group_name_Hall           '-P 2yb'
loop_
_symmetry_equiv_pos_site_id
_symmetry_equiv_pos_as_xyz
1 x,y,z
2 -x,1/2+y,-z
3 -x,-y,-z
4 x,1/2-y,z
_cell_length_a                   6.6609(4)
_cell_length_b                   6.8533(3)
_cell_length_c                   13.9387(7)
_cell_angle_alpha                90
_cell_angle_beta                 97.561(3)
_cell_angle_gamma                90
_cell_volume                     630.757
_exptl_crystal_colour            brown
_exptl_crystal_description       block
_cell_formula_units_Z            2
loop_
_atom_site_label
_atom_site_type_symbol
_atom_site_fract_x
_atom_site_fract_y
_atom_site_fract_z
N1 N -0.01556(19) 0.2500 0.46110(10)
O1 O 0.53193(17) 0.2500 0.20797(8)
O2 O 0.40228(15) 0.2500 0.53055(7)
C1 C 0.4103(2) 0.2500 0.26755(11)
C2 C 0.4756(2) 0.2500 0.37122(11)
H1 H 0.6130 0.2500 0.3946
C3 C 0.3373(2) 0.2500 0.43329(10)
C4 C 0.1196(2) 0.2500 0.40138(11)
C5 C 0.0553(2) 0.2500 0.29792(11)
H2 H -0.0821 0.2500 0.2747
C6 C 0.1916(2) 0.2500 0.23537(11)
H3 H 0.1462 0.2500 0.1694
C7 C 0.2609(2) 0.2500 0.59399(11)
C8 C 0.3323(2) 0.2500 0.69210(10)
H4 H 0.4710 0.2500 0.7125
C9 C 0.1968(2) 0.2500 0.75976(10)
C10 C -0.0119(2) 0.2500 0.72512(12)
H5 H -0.1050 0.2500 0.7693
C11 C -0.0817(2) 0.2500 0.62767(12)
H6 H -0.2202 0.2500 0.6070
C12 C 0.0552(2) 0.2500 0.55939(11)
C13 C 0.2671(2) 0.2500 0.86877(10)
C14 C 0.18484(17) 0.06738(19) 0.91403(7)
H7 H 0.0398 0.0656 0.9004
H8 H 0.2242 0.0694 0.9828
H9 H 0.2392 -0.0471 0.8872
C15 C 0.4985(2) 0.2500 0.89203(11)
H10 H 0.5523 0.1362 0.8644
H11 H 0.5359 0.2488 0.9609
H10C H 0.5523 0.3638 0.8644
C14C C 0.18484(17) 0.43262(19) 0.91403(7)
H7C H 0.0398 0.4344 0.9004
H8C H 0.2242 0.4306 0.9828
H9C H 0.2392 0.5471 0.8872
H12? H 0.5521 0.1350 0.8654
loop_
_geom_bond_atom_site_label_1
_geom_bond_atom_site_label_2
_geom_bond_site_symmetry_1
_geom_bond_site_symmetry_2
N1 C4 1_555 1_555
O1 C1 1_555 1_555
O2 C3 1_555 1_555
C1 C2 1_555 1_555
C2 H1 1_555 1_555
C3 C2 1_555 1_555
C4 C3 1_555 1_555
C5 C4 1_555 1_555
H2 C5 1_555 1_555
C6 C1 1_555 1_555
H3 C6 1_555 1_555
C7 O2 1_555 1_555
C8 C7 1_555 1_555
H4 C8 1_555 1_555
C9 C8 1_555 1_555
C10 C9 1_555 1_555
H5 C10 1_555 1_555
C11 C10 1_555 1_555
H6 C11 1_555 1_555
C12 N1 1_555 1_555
C13 C9 1_555 1_555
C14 C13 1_555 1_555
H7 C14 1_555 1_555
H8 C14 1_555 1_555
H9 C14 1_555 1_555
C15 C13 1_555 1_555
H10 C15 1_555 1_555
H11 C15 1_555 1_555
H10C C15 1_555 1_555
C14C C13 1_555 1_555
H7C C14C 1_555 1_555
H8C C14C 1_555 1_555
H9C C14C 1_555 1_555
C5 C6 1_555 1_555
C7 C12 1_555 1_555
C11 C12 1_555 1_555

#END
