
#######################################################################
#
#                 Cambridge Crystallographic Data Centre
#                                CCDC 
#
#######################################################################
#
# If this CIF has been generated from an entry in the Cambridge 
# Structural Database, then it will include bibliographic, chemical, 
# crystal, experimental, refinement or atomic coordinate data resulting 
# from the CCDC's data processing and validation procedures.
#
#######################################################################

data_DITFIX
_chemical_formula_moiety         'C14 H18 O2 S4'
_chemical_name_systematic        4,6-bis(1,3-dithian-2-yl)benzene-1,3-diol
_symmetry_cell_setting           monoclinic
_symmetry_space_group_name_H-M   'P 21/c'
_symmetry_Int_Tables_number      14
_space_group_name_Hall           '-P 2ybc'
loop_
_symmetry_equiv_pos_site_id
_symmetry_equiv_pos_as_xyz
1 x,y,z
2 -x,1/2+y,1/2-z
3 -x,-y,-z
4 x,1/2-y,1/2+z
_cell_length_a                   12.8728(6)
_cell_length_b                   11.3313(5)
_cell_length_c                   10.9195(5)
_cell_angle_alpha                90
_cell_angle_beta                 93.9350(10)
_cell_angle_gamma                90
_cell_volume                     1589.02
_exptl_crystal_colour            colorless
_exptl_crystal_description       cube
_cell_formula_units_Z            4
loop_
_atom_site_label
_atom_site_type_symbol
_atom_site_fract_x
_atom_site_fract_y
_atom_site_fract_z
O1 O 0.47821(6) 0.78064(7) 0.28521(7)
H1 H 0.4265(14) 0.7737(15) 0.3143(15)
O2 O 0.58868(6) 0.91441(7) 0.69229(7)
H2 H 0.5466(14) 0.8690(16) 0.7081(15)
S1 S 0.77801(2) 0.82322(3) 0.17754(2)
S2 S 0.64103(2) 1.03578(2) 0.11397(3)
S3 S 0.89174(2) 0.98640(3) 0.58257(3)
S4 S 0.74391(2) 1.19327(2) 0.58854(3)
C1 C 0.54536(8) 0.84221(9) 0.36508(9)
C2 C 0.62925(8) 0.90042(9) 0.31759(9)
C3 C 0.69630(8) 0.96447(9) 0.39833(10)
H3 H 0.7543(11) 1.0046(12) 0.3656(13)
C4 C 0.68398(8) 0.96947(9) 0.52394(9)
C5 C 0.60013(8) 0.90852(9) 0.56950(9)
C6 C 0.53141(8) 0.84506(9) 0.49042(10)
H4 H 0.4749(12) 0.8051(13) 0.5205(13)
C7 C 0.65056(8) 0.89072(9) 0.18402(9)
H5 H 0.6007(11) 0.8425(12) 0.1421(12)
C8 C 0.78990(9) 0.82257(11) 0.01330(10)
H6 H 0.8587(13) 0.7867(15) 0.0049(15)
H7 H 0.7370(12) 0.7698(14) -0.0221(14)
C9 C 0.78101(11) 0.94350(12) -0.04630(11)
H8 H 0.7958(14) 0.9322(16) -0.1311(16)
H9 H 0.8327(14) 0.9960(16) -0.0106(16)
C10 C 0.67355(11) 0.99799(12) -0.04034(11)
H10 H 0.6199(15) 0.9450(17) -0.0761(17)
H11 H 0.6700(14) 1.0704(17) -0.0865(17)
C11 C 0.76065(8) 1.03458(10) 0.60935(10)
H12 H 0.7469(12) 1.0203(14) 0.6897(14)
C12 C 0.96588(9) 1.07346(12) 0.69727(12)
H13 H 0.9494(13) 1.0506(16) 0.7807(16)
H14 H 1.0359(14) 1.0505(16) 0.6854(16)
C13 C 0.95075(9) 1.20584(12) 0.68350(13)
H15 H 0.9698(13) 1.2316(16) 0.6024(16)
H16 H 0.9978(15) 1.2433(17) 0.7461(18)
C14 C 0.84067(9) 1.24605(12) 0.70498(13)
H17 H 0.8350(14) 1.3284(17) 0.7016(17)
H18 H 0.8219(13) 1.2206(16) 0.7845(16)
loop_
_geom_bond_atom_site_label_1
_geom_bond_atom_site_label_2
_geom_bond_site_symmetry_1
_geom_bond_site_symmetry_2
O1 H1 1_555 1_555
O2 H2 1_555 1_555
S1 C7 1_555 1_555
S2 C7 1_555 1_555
S3 C11 1_555 1_555
S4 C11 1_555 1_555
C1 O1 1_555 1_555
C2 C1 1_555 1_555
C3 C2 1_555 1_555
H3 C3 1_555 1_555
C4 C3 1_555 1_555
C5 O2 1_555 1_555
C6 C1 1_555 1_555
H4 C6 1_555 1_555
C7 C2 1_555 1_555
H5 C7 1_555 1_555
C8 S1 1_555 1_555
H6 C8 1_555 1_555
H7 C8 1_555 1_555
C9 C8 1_555 1_555
H8 C9 1_555 1_555
H9 C9 1_555 1_555
C10 S2 1_555 1_555
H10 C10 1_555 1_555
H11 C10 1_555 1_555
C11 C4 1_555 1_555
H12 C11 1_555 1_555
C12 S3 1_555 1_555
H13 C12 1_555 1_555
H14 C12 1_555 1_555
C13 C12 1_555 1_555
H15 C13 1_555 1_555
H16 C13 1_555 1_555
C14 S4 1_555 1_555
H17 C14 1_555 1_555
H18 C14 1_555 1_555
C4 C5 1_555 1_555
C5 C6 1_555 1_555
C9 C10 1_555 1_555
C13 C14 1_555 1_555

#END
