
#######################################################################
#
#                 Cambridge Crystallographic Data Centre
#                                CCDC 
#
#######################################################################
#
# If this CIF has been generated from an entry in the Cambridge 
# Structural Database, then it will include bibliographic, chemical, 
# crystal, experimental, refinement or atomic coordinate data resulting 
# from the CCDC's data processing and validation procedures.
#
#######################################################################

data_DITHEV
_chemical_formula_moiety         'C54 H36 N6,C1 H1 Cl3'
_chemical_name_systematic        
"4,4'-Dipyrido[3,2-a:2',3'-c]phenazine-10,13-diylbis(N,N-diphenylaniline) chloroform solvate"
_symmetry_cell_setting           monoclinic
_symmetry_space_group_name_H-M   'C 2/c'
_symmetry_Int_Tables_number      15
_space_group_name_Hall           '-C 2yn'
loop_
_symmetry_equiv_pos_site_id
_symmetry_equiv_pos_as_xyz
1 x,y,z
2 -x,y,1/2-z
3 1/2+x,1/2+y,z
4 1/2-x,1/2+y,1/2-z
5 -x,-y,-z
6 x,-y,1/2+z
7 1/2-x,1/2-y,-z
8 1/2+x,1/2-y,1/2+z
_cell_length_a                   27.346(4)
_cell_length_b                   18.883(4)
_cell_length_c                   9.2545(16)
_cell_angle_alpha                90
_cell_angle_beta                 106.624(5)
_cell_angle_gamma                90
_cell_volume                     4579.05
_exptl_crystal_colour            red
_exptl_crystal_description       block
_cell_formula_units_Z            4
loop_
_atom_site_label
_atom_site_type_symbol
_atom_site_fract_x
_atom_site_fract_y
_atom_site_fract_z
C1 C 0.07870(17) -0.2421(2) 0.5024(5)
H1 H 0.0913 -0.2856 0.5444
C2 C 0.10210(16) -0.1821(2) 0.5733(5)
H2 H 0.1300 -0.1851 0.6587
C3 C 0.08340(14) -0.1178(2) 0.5151(4)
H3 H 0.0978 -0.0761 0.5621
C4 C 0.04237(12) -0.11530(18) 0.3841(4)
C5 C 0.02163(11) -0.04872(19) 0.3150(3)
C6 C 0.02122(12) -0.1795(2) 0.3200(4)
C7 C 0.02300(11) 0.07258(18) 0.3105(4)
C8 C 0.04741(13) 0.13825(19) 0.3681(4)
C9 C 0.02327(13) 0.19888(19) 0.3085(4)
H4 H 0.0379 0.2421 0.3460
C10 C 0.09767(13) 0.13805(18) 0.4842(4)
C11 C 0.13810(13) 0.09844(18) 0.4643(4)
H5 H 0.1331 0.0708 0.3781
C12 C 0.18545(14) 0.09916(19) 0.5691(4)
H6 H 0.2120 0.0730 0.5516
C13 C 0.19384(14) 0.13848(19) 0.7004(4)
C14 C 0.15379(15) 0.17770(19) 0.7220(4)
H7 H 0.1585 0.2039 0.8100
C15 C 0.10681(14) 0.17850(18) 0.6144(4)
H8 H 0.0808 0.2067 0.6295
C16 C 0.28598(15) 0.1396(2) 0.7533(4)
C17 C 0.32043(18) 0.0840(3) 0.7817(5)
H9 H 0.3159 0.0452 0.8383
C18 C 0.3624(2) 0.0877(3) 0.7229(7)
H10 H 0.3861 0.0511 0.7416
C19 C 0.3687(2) 0.1440(4) 0.6395(6)
H11 H 0.3963 0.1455 0.5998
C20 C 0.3345(2) 0.1987(3) 0.6133(5)
H12 H 0.3392 0.2375 0.5568
C21 C 0.29390(15) 0.1964(2) 0.6699(4)
H13 H 0.2710 0.2340 0.6519
C22 C 0.24893(14) 0.12617(19) 0.9625(4)
C23 C 0.29241(16) 0.1511(2) 1.0687(5)
H14 H 0.3167 0.1763 1.0368
C24 C 0.30009(19) 0.1391(3) 1.2201(5)
H15 H 0.3298 0.1551 1.2893
C25 C 0.26416(19) 0.1037(2) 1.2696(5)
H16 H 0.2689 0.0968 1.3722
C26 C 0.22140(17) 0.0789(2) 1.1668(5)
H17 H 0.1972 0.0541 1.1997
C27 C 0.21354(15) 0.0902(2) 1.0140(4)
H18 H 0.1840 0.0732 0.9455
N1 N 0.03957(12) -0.24287(16) 0.3790(4)
N2 N 0.04406(10) 0.01105(15) 0.3749(3)
N3 N 0.24270(11) 0.13812(17) 0.8092(3)
C1A C -0.07870(17) -0.2421(2) -0.0024(5)
H1A H -0.0913 -0.2856 -0.0444
C2A C -0.10210(16) -0.1821(2) -0.0733(5)
H2A H -0.1300 -0.1851 -0.1587
C3A C -0.08340(14) -0.1178(2) -0.0151(4)
H3A H -0.0978 -0.0761 -0.0621
C4A C -0.04237(12) -0.11530(18) 0.1159(4)
C5A C -0.02163(11) -0.04872(19) 0.1850(3)
C6A C -0.02122(12) -0.1795(2) 0.1800(4)
C7A C -0.02300(11) 0.07258(18) 0.1895(4)
C8A C -0.04741(13) 0.13825(19) 0.1319(4)
C9A C -0.02327(13) 0.19888(19) 0.1915(4)
H4A H -0.0379 0.2421 0.1540
C10A C -0.09767(13) 0.13805(18) 0.0158(4)
C11A C -0.13810(13) 0.09844(18) 0.0357(4)
H5A H -0.1331 0.0708 0.1219
C12A C -0.18545(14) 0.09916(19) -0.0691(4)
H6A H -0.2120 0.0730 -0.0516
C13A C -0.19384(14) 0.13848(19) -0.2004(4)
C14A C -0.15379(15) 0.17770(19) -0.2220(4)
H7A H -0.1585 0.2039 -0.3100
C15A C -0.10681(14) 0.17850(18) -0.1144(4)
H8A H -0.0808 0.2067 -0.1295
C16A C -0.28598(15) 0.1396(2) -0.2533(4)
C17A C -0.32043(18) 0.0840(3) -0.2817(5)
H9A H -0.3159 0.0452 -0.3383
C18A C -0.3624(2) 0.0877(3) -0.2229(7)
H10A H -0.3861 0.0511 -0.2416
C19A C -0.3687(2) 0.1440(4) -0.1395(6)
H11A H -0.3963 0.1455 -0.0998
C20A C -0.3345(2) 0.1987(3) -0.1133(5)
H12A H -0.3392 0.2375 -0.0568
C21A C -0.29390(15) 0.1964(2) -0.1699(4)
H13A H -0.2710 0.2340 -0.1519
C22A C -0.24893(14) 0.12617(19) -0.4625(4)
C23A C -0.29241(16) 0.1511(2) -0.5687(5)
H14A H -0.3167 0.1763 -0.5368
C24A C -0.30009(19) 0.1391(3) -0.7201(5)
H15A H -0.3298 0.1551 -0.7893
C25A C -0.26416(19) 0.1037(2) -0.7696(5)
H16A H -0.2689 0.0968 -0.8722
C26A C -0.22140(17) 0.0789(2) -0.6668(5)
H17A H -0.1972 0.0541 -0.6997
C27A C -0.21354(15) 0.0902(2) -0.5140(4)
H18A H -0.1840 0.0732 -0.4455
N1A N -0.03957(12) -0.24287(16) 0.1210(4)
N2A N -0.04406(10) 0.01105(15) 0.1251(3)
N3A N -0.24270(11) 0.13812(17) -0.3092(3)
H19? H 0.4967 0.1530 0.2826
Cl1? Cl 0.5135(12) 0.0697(10) 0.416(2)
C28? C 0.5000 0.1054(5) 0.2500
Cl2? Cl 0.5506(3) 0.0674(4) 0.3568(13)
Cl3? Cl 0.4527(10) 0.0988(5) 0.333(4)
loop_
_geom_bond_atom_site_label_1
_geom_bond_atom_site_label_2
_geom_bond_site_symmetry_1
_geom_bond_site_symmetry_2
C1 H1 1_555 1_555
C2 C1 1_555 1_555
H2 C2 1_555 1_555
C3 C2 1_555 1_555
H3 C3 1_555 1_555
C4 C3 1_555 1_555
C5 C4 1_555 1_555
C6 C4 1_555 1_555
C7 C8 1_555 1_555
C8 C9 1_555 1_555
C9 H4 1_555 1_555
C10 C8 1_555 1_555
C11 C10 1_555 1_555
H5 C11 1_555 1_555
C12 C11 1_555 1_555
H6 C12 1_555 1_555
C13 C12 1_555 1_555
C14 C13 1_555 1_555
H7 C14 1_555 1_555
C15 C10 1_555 1_555
H8 C15 1_555 1_555
C16 C17 1_555 1_555
C17 H9 1_555 1_555
C18 C17 1_555 1_555
H10 C18 1_555 1_555
C19 C18 1_555 1_555
H11 C19 1_555 1_555
C20 C19 1_555 1_555
H12 C20 1_555 1_555
C21 C16 1_555 1_555
H13 C21 1_555 1_555
C22 C23 1_555 1_555
C23 H14 1_555 1_555
C24 C23 1_555 1_555
H15 C24 1_555 1_555
C25 C24 1_555 1_555
H16 C25 1_555 1_555
C26 C25 1_555 1_555
H17 C26 1_555 1_555
C27 C22 1_555 1_555
H18 C27 1_555 1_555
N1 C1 1_555 1_555
N2 C5 1_555 1_555
N3 C13 1_555 1_555
C1A H1A 1_555 1_555
C2A C1A 1_555 1_555
H2A C2A 1_555 1_555
C3A C2A 1_555 1_555
H3A C3A 1_555 1_555
C4A C3A 1_555 1_555
C5A C5 1_555 1_555
C6A C6 1_555 1_555
C7A C7 1_555 1_555
C8A C7A 1_555 1_555
C9A C9 1_555 1_555
H4A C9A 1_555 1_555
C10A C8A 1_555 1_555
C11A C10A 1_555 1_555
H5A C11A 1_555 1_555
C12A C11A 1_555 1_555
H6A C12A 1_555 1_555
C13A C12A 1_555 1_555
C14A C13A 1_555 1_555
H7A C14A 1_555 1_555
C15A C10A 1_555 1_555
H8A C15A 1_555 1_555
C16A C17A 1_555 1_555
C17A H9A 1_555 1_555
C18A C17A 1_555 1_555
H10A C18A 1_555 1_555
C19A C18A 1_555 1_555
H11A C19A 1_555 1_555
C20A C19A 1_555 1_555
H12A C20A 1_555 1_555
C21A C16A 1_555 1_555
H13A C21A 1_555 1_555
C22A C23A 1_555 1_555
C23A H14A 1_555 1_555
C24A C23A 1_555 1_555
H15A C24A 1_555 1_555
C25A C24A 1_555 1_555
H16A C25A 1_555 1_555
C26A C25A 1_555 1_555
H17A C26A 1_555 1_555
C27A C22A 1_555 1_555
H18A C27A 1_555 1_555
N1A C1A 1_555 1_555
N2A C5A 1_555 1_555
N3A C13A 1_555 1_555
C6 N1 1_555 1_555
C7 N2 1_555 1_555
C14 C15 1_555 1_555
C16 N3 1_555 1_555
C20 C21 1_555 1_555
C22 N3 1_555 1_555
C26 C27 1_555 1_555
C4A C5A 1_555 1_555
C4A C6A 1_555 1_555
C6A N1A 1_555 1_555
C7A N2A 1_555 1_555
C8A C9A 1_555 1_555
C14A C15A 1_555 1_555
C16A N3A 1_555 1_555
C20A C21A 1_555 1_555
C22A N3A 1_555 1_555
C26A C27A 1_555 1_555

#END
