
#######################################################################
#
#                 Cambridge Crystallographic Data Centre
#                                CCDC 
#
#######################################################################
#
# If this CIF has been generated from an entry in the Cambridge 
# Structural Database, then it will include bibliographic, chemical, 
# crystal, experimental, refinement or atomic coordinate data resulting 
# from the CCDC's data processing and validation procedures.
#
#######################################################################

data_DITJUO
_chemical_formula_moiety         'C17 H14 N2'
_chemical_name_systematic        8,9-dimethylbenzimidazo[2,1-a]isoquinoline
_symmetry_cell_setting           monoclinic
_symmetry_space_group_name_H-M   'P 21/c'
_symmetry_Int_Tables_number      14
_space_group_name_Hall           '-P 2ybc'
loop_
_symmetry_equiv_pos_site_id
_symmetry_equiv_pos_as_xyz
1 x,y,z
2 -x,1/2+y,1/2-z
3 -x,-y,-z
4 x,1/2-y,1/2+z
_cell_length_a                   13.2669(8)
_cell_length_b                   11.5841(7)
_cell_length_c                   16.4623(11)
_cell_angle_alpha                90
_cell_angle_beta                 100.794(4)
_cell_angle_gamma                90
_cell_volume                     2485.25
_exptl_crystal_colour            colorless
_exptl_crystal_description       block
_cell_formula_units_Z            8
loop_
_atom_site_label
_atom_site_type_symbol
_atom_site_fract_x
_atom_site_fract_y
_atom_site_fract_z
N1 N 0.71294(18) 0.36504(19) 0.24602(14)
C1 C 0.7978(2) 0.6203(3) 0.13382(18)
H1 H 0.8688 0.6245 0.1574
N2 N 0.87609(19) 0.4327(2) 0.25839(15)
C2 C 0.7557(3) 0.6980(3) 0.0749(2)
H2 H 0.7975 0.7562 0.0575
C3 C 0.6492(3) 0.6921(3) 0.0392(2)
H3 H 0.6205 0.7460 -0.0022
C4 C 0.5889(3) 0.6099(3) 0.0642(2)
H4 H 0.5181 0.6067 0.0398
C5 C 0.5661(3) 0.4423(3) 0.1552(2)
H5 H 0.4947 0.4405 0.1327
C6 C 0.6075(2) 0.3639(3) 0.21434(19)
H6 H 0.5646 0.3088 0.2338
C7 C 0.7781(2) 0.4482(2) 0.22053(18)
C8 C 0.7517(2) 0.1970(2) 0.35040(18)
C9 C 0.8361(3) 0.1487(3) 0.4041(2)
C10 C 0.9357(3) 0.1958(3) 0.4088(2)
H7 H 0.9911 0.1609 0.4456
C11 C 0.9566(3) 0.2888(3) 0.3634(2)
H8 H 1.0244 0.3178 0.3681
C12 C 0.6305(2) 0.5273(3) 0.12705(19)
C13 C 0.7358(2) 0.5331(3) 0.15998(18)
C14 C 0.7750(2) 0.2949(3) 0.30398(18)
C15 C 0.8737(3) 0.3396(3) 0.30955(19)
C16 C 0.6447(3) 0.1505(3) 0.3410(2)
H9 H 0.5998 0.2097 0.3576
H10 H 0.6447 0.0822 0.3761
H11 H 0.6196 0.1293 0.2831
C17 C 0.8233(3) 0.0469(3) 0.4584(2)
H12 H 0.8899 0.0267 0.4922
H13 H 0.7966 -0.0191 0.4237
H14 H 0.7751 0.0669 0.4945
N3 N 0.78951(18) 0.88005(19) 0.25903(14)
C18 C 0.6925(2) 0.6243(3) 0.36366(18)
H15 H 0.6219 0.6242 0.3389
N4 N 0.62481(18) 0.8164(2) 0.24001(15)
C19 C 0.7290(3) 0.5419(3) 0.42075(19)
H16 H 0.6843 0.4853 0.4361
C20 C 0.8352(3) 0.5421(3) 0.45702(19)
H17 H 0.8614 0.4850 0.4969
C21 C 0.8992(3) 0.6224(3) 0.43552(19)
H18 H 0.9698 0.6203 0.4604
C22 C 0.9313(2) 0.7952(3) 0.3531(2)
H19 H 1.0019 0.7944 0.3780
C23 C 0.8943(2) 0.8771(3) 0.29498(19)
H20 H 0.9398 0.9322 0.2789
C24 C 0.7201(2) 0.7977(2) 0.28089(18)
C25 C 0.7598(2) 1.0524(3) 0.15795(18)
C26 C 0.6786(3) 1.1044(3) 0.1040(2)
C27 C 0.5782(2) 1.0598(3) 0.09470(19)
H21 H 0.5253 1.0980 0.0576
C28 C 0.5525(3) 0.9649(3) 0.1358(2)
H22 H 0.4839 0.9372 0.1274
C29 C 0.8629(2) 0.7111(3) 0.37583(18)
C30 C 0.7577(2) 0.7100(3) 0.34053(18)
C31 C 0.7317(2) 0.9527(3) 0.20098(18)
C32 C 0.6319(3) 0.9100(3) 0.19114(19)
C33 C 0.8688(3) 1.0948(3) 0.1726(2)
H23 H 0.9136 1.0336 0.1586
H24 H 0.8902 1.1159 0.2309
H25 H 0.8735 1.1625 0.1379
C34 C 0.6957(3) 1.2106(3) 0.0539(2)
H26 H 0.7392 1.1902 0.0141
H27 H 0.7295 1.2708 0.0912
H28 H 0.6295 1.2393 0.0243
loop_
_geom_bond_atom_site_label_1
_geom_bond_atom_site_label_2
_geom_bond_site_symmetry_1
_geom_bond_site_symmetry_2
N1 C6 1_555 1_555
C1 H1 1_555 1_555
N2 C7 1_555 1_555
C2 C1 1_555 1_555
H2 C2 1_555 1_555
C3 C2 1_555 1_555
H3 C3 1_555 1_555
C4 C3 1_555 1_555
H4 C4 1_555 1_555
C5 H5 1_555 1_555
C6 C5 1_555 1_555
H6 C6 1_555 1_555
C7 N1 1_555 1_555
C8 C9 1_555 1_555
C9 C10 1_555 1_555
C10 H7 1_555 1_555
C11 C10 1_555 1_555
H8 C11 1_555 1_555
C12 C4 1_555 1_555
C13 C1 1_555 1_555
C14 N1 1_555 1_555
C15 N2 1_555 1_555
C16 C8 1_555 1_555
H9 C16 1_555 1_555
H10 C16 1_555 1_555
H11 C16 1_555 1_555
C17 C9 1_555 1_555
H12 C17 1_555 1_555
H13 C17 1_555 1_555
H14 C17 1_555 1_555
N3 C23 1_555 1_555
C18 H15 1_555 1_555
N4 C24 1_555 1_555
C19 C18 1_555 1_555
H16 C19 1_555 1_555
C20 C19 1_555 1_555
H17 C20 1_555 1_555
C21 C20 1_555 1_555
H18 C21 1_555 1_555
C22 H19 1_555 1_555
C23 C22 1_555 1_555
H20 C23 1_555 1_555
C24 N3 1_555 1_555
C25 C26 1_555 1_555
C26 C27 1_555 1_555
C27 H21 1_555 1_555
C28 C27 1_555 1_555
H22 C28 1_555 1_555
C29 C21 1_555 1_555
C30 C18 1_555 1_555
C31 N3 1_555 1_555
C32 N4 1_555 1_555
C33 C25 1_555 1_555
H23 C33 1_555 1_555
H24 C33 1_555 1_555
H25 C33 1_555 1_555
C34 C26 1_555 1_555
H26 C34 1_555 1_555
H27 C34 1_555 1_555
H28 C34 1_555 1_555
C5 C12 1_555 1_555
C7 C13 1_555 1_555
C8 C14 1_555 1_555
C11 C15 1_555 1_555
C12 C13 1_555 1_555
C14 C15 1_555 1_555
C22 C29 1_555 1_555
C24 C30 1_555 1_555
C25 C31 1_555 1_555
C28 C32 1_555 1_555
C29 C30 1_555 1_555
C31 C32 1_555 1_555

#END
