
#######################################################################
#
#                 Cambridge Crystallographic Data Centre
#                                CCDC 
#
#######################################################################
#
# If this CIF has been generated from an entry in the Cambridge 
# Structural Database, then it will include bibliographic, chemical, 
# crystal, experimental, refinement or atomic coordinate data resulting 
# from the CCDC's data processing and validation procedures.
#
#######################################################################

data_DITKEY
_chemical_formula_moiety         'C58 H17 F20 N7,0.5(C2 H2 Br2)'
_chemical_name_systematic        
'6,11,21,26-tetrakis(pentafluorophenyl)-35,36,37,38,39,40,41-heptaazanonacyclo[14.14.4.1^2,5^.1^7,10^.1^12,15^.1^17,20^.1^22,25^.1^27,30^.1^31,34^]hentetraconta-1(31),2(41),3,5,7,9,11,13,15(39),16,18,20,22(37),23,25,27,29,32,34-nonadecaene 1,2-dibromoethene solvate'
_symmetry_cell_setting           monoclinic
_symmetry_space_group_name_H-M   'P 21/a'
_symmetry_Int_Tables_number      14
_space_group_name_Hall           '-P 2yab'
loop_
_symmetry_equiv_pos_site_id
_symmetry_equiv_pos_as_xyz
1 x,y,z
2 1/2-x,1/2+y,-z
3 -x,-y,-z
4 1/2+x,1/2-y,z
_cell_length_a                   17.2023(3)
_cell_length_b                   34.7013(6)
_cell_length_c                   17.8053(3)
_cell_angle_alpha                90
_cell_angle_beta                 110.3636(8)
_cell_angle_gamma                90
_cell_volume                     9964.47
_exptl_crystal_colour            brown
_exptl_crystal_description       prism
_cell_formula_units_Z            8
loop_
_atom_site_label
_atom_site_type_symbol
_atom_site_fract_x
_atom_site_fract_y
_atom_site_fract_z
Br1 Br 0.30399(8) 0.23512(4) 0.27938(7)
C1 C 0.3357(10) 0.1895(6) 0.2236(10)
C2 C 0.4175(18) 0.1871(6) 0.2407(13)
Br2 Br 0.46131(11) 0.23329(5) 0.18886(10)
C3 C -0.3206(12) 0.0982(5) 0.3901(13)
C4 C -0.2661(9) 0.0763(6) 0.3655(12)
C5 C -0.2962(11) 0.0470(5) 0.3096(9)
C6 C -0.3809(12) 0.0395(4) 0.2785(8)
C7 C -0.4354(9) 0.0614(5) 0.3032(9)
C8 C -0.4052(11) 0.0907(5) 0.3590(11)
F1 F -0.1864(9) 0.0835(4) 0.3928(10)
F2 F -0.2433(10) 0.0239(4) 0.2879(6)
F3 F -0.4089(11) 0.0093(4) 0.2291(7)
F4 F -0.5138(9) 0.0537(5) 0.2683(8)
F5 F -0.4582(9) 0.1116(5) 0.3790(8)
F6 F -0.4609(5) 0.2619(2) 0.4026(4)
F7 F -0.5682(5) 0.3151(2) 0.3093(3)
F8 F -0.5079(4) 0.37412(18) 0.2473(3)
F9 F -0.3417(4) 0.38333(17) 0.2871(3)
F10 F -0.2353(4) 0.33489(17) 0.3889(3)
F11 F 0.2389(5) 0.2625(2) 1.0596(4)
F12 F 0.3414(5) 0.3140(2) 1.1552(4)
F13 F 0.2814(4) 0.37223(17) 1.2197(3)
F14 F 0.1161(4) 0.38224(18) 1.1783(3)
F15 F 0.0104(4) 0.33397(17) 1.0755(4)
C9 C 0.0868(9) 0.0975(4) 1.0717(10)
C10 C 0.1718(8) 0.0944(4) 1.1115(9)
C11 C 0.2029(7) 0.0669(4) 1.1712(7)
C12 C 0.1490(9) 0.0425(3) 1.1911(6)
C13 C 0.0640(9) 0.0456(4) 1.1514(8)
C14 C 0.0328(7) 0.0731(5) 1.0916(9)
F16 F -0.0479(7) 0.0761(4) 1.0564(7)
F17 F 0.0109(8) 0.0216(2) 1.1680(5)
F18 F 0.1752(7) 0.0155(3) 1.2470(4)
F19 F 0.2823(7) 0.0645(3) 1.2130(6)
F20 F 0.2250(6) 0.1175(3) 1.0989(6)
C15 C -0.3456(7) 0.2955(3) 0.4017(6)
C16 C -0.3189(7) 0.3290(3) 0.3697(6)
C17 C -0.3710(8) 0.3530(3) 0.3166(6)
C18 C -0.4553(9) 0.3495(3) 0.2959(6)
C19 C -0.4854(8) 0.3194(4) 0.3267(6)
C20 C -0.4314(7) 0.2915(3) 0.3757(6)
C21 C 0.1190(8) 0.2959(4) 1.0629(6)
C22 C 0.2064(10) 0.2923(3) 1.0867(7)
C23 C 0.2600(9) 0.3186(4) 1.1371(6)
C24 C 0.2305(9) 0.3472(3) 1.1710(6)
C25 C 0.1456(9) 0.3520(3) 1.1488(6)
C26 C 0.0941(9) 0.3281(3) 1.0951(6)
C27 C 0.019(2) 0.1123(16) 0.929(3)
C28 C 0.009(4) 0.0740(14) 0.905(3)
H1 H 0.0214 0.0526 0.9408
C29 C -0.0242(14) 0.0715(8) 0.8157(17)
H2 H -0.0352 0.0498 0.7810
C30 C -0.0343(12) 0.1125(5) 0.7981(9)
C31 C -0.0659(11) 0.1314(5) 0.7171(9)
C32 C -0.1339(11) 0.1165(5) 0.6516(10)
C33 C -0.195(2) 0.0734(8) 0.638(2)
H3 H -0.1988 0.0544 0.6749
C34 C -0.234(3) 0.0764(17) 0.560(3)
H4 H -0.2646 0.0558 0.5278
C35 C -0.2266(13) 0.1158(6) 0.5262(11)
C36 C -0.2738(16) 0.1275(10) 0.4480(14)
C37 C -0.2967(18) 0.1651(11) 0.432(2)
C38 C -0.342(2) 0.1753(8) 0.347(2)
H5 H -0.3712 0.1588 0.3035
C39 C -0.3279(14) 0.2185(9) 0.3457(15)
H6 H -0.3462 0.2355 0.3012
C40 C -0.2834(12) 0.2272(6) 0.4234(12)
C41 C -0.2788(12) 0.2687(7) 0.4537(11)
C42 C -0.2311(12) 0.2826(6) 0.5268(10)
C43 C -0.2275(16) 0.3180(10) 0.564(2)
H7 H -0.2620 0.3396 0.5423
C44 C -0.1681(13) 0.3167(6) 0.6359(13)
H8 H -0.1518 0.3380 0.6715
C45 C -0.1327(12) 0.2801(5) 0.6519(10)
C46 C -0.0622(11) 0.2653(5) 0.7139(9)
C47 C -0.0269(11) 0.2831(5) 0.7893(10)
C48 C -0.0048(12) 0.3245(6) 0.8135(11)
H9 H -0.0173 0.3469 0.7807
C49 C 0.0377(13) 0.3218(7) 0.8940(13)
H10 H 0.0637 0.3425 0.9285
C50 C 0.0363(11) 0.2847(6) 0.9159(10)
C51 C 0.0756(13) 0.2706(7) 0.9959(12)
C52 C 0.0757(11) 0.2317(6) 1.0240(11)
C53 C 0.1128(11) 0.2182(7) 1.1090(14)
H11 H 0.1358 0.2345 1.1541
C54 C 0.1087(12) 0.1794(8) 1.1123(16)
H12 H 0.1278 0.1637 1.1590
C55 C 0.0686(12) 0.1662(7) 1.0284(12)
C56 C 0.0576(13) 0.1272(8) 1.0053(15)
C57 C -0.0283(11) 0.1674(5) 0.7164(9)
C58 C 0.0545(13) 0.1778(6) 0.7684(11)
H13 H 0.0978 0.1607 0.7974
C59 C 0.0570(16) 0.2143(7) 0.7673(13)
H14 H 0.1036 0.2298 0.7955
C60 C -0.0255(16) 0.2289(7) 0.7143(13)
N1 N -0.0085(10) 0.1361(4) 0.8606(8)
N2 N -0.1665(9) 0.1369(4) 0.5852(8)
H15 H -0.1522 0.1607 0.5790
N3 N -0.2471(9) 0.1973(5) 0.4719(9)
N4 N -0.1696(9) 0.2587(4) 0.5804(9)
H16 H -0.1567 0.2351 0.5711
N5 N -0.0063(9) 0.2618(4) 0.8527(8)
N6 N 0.0539(8) 0.1996(4) 0.9778(8)
H17 H 0.0338 0.1993 0.9251
N7 N -0.0710(9) 0.1975(4) 0.6746(8)
C61 C 0.3319(15) 0.0934(7) 0.9128(11)
C62 C 0.4152(14) 0.0841(6) 0.9321(12)
C63 C 0.4537(10) 0.0595(6) 0.9958(14)
C64 C 0.4089(13) 0.0442(5) 1.0403(11)
C65 C 0.3256(13) 0.0534(7) 1.0210(12)
C66 C 0.2871(11) 0.0780(8) 0.9573(14)
F21 F 0.4457(13) 0.0204(4) 1.1026(9)
F22 F 0.5303(10) 0.0485(5) 1.0172(16)
F23 F 0.4549(19) 0.0920(8) 0.885(2)
F24 F 0.2880(12) 0.0403(4) 1.0679(8)
F25 F 0.2126(11) 0.0906(5) 0.9467(9)
F26 F 0.1446(5) 0.10098(19) 0.4579(3)
F27 F 0.0806(6) 0.0486(2) 0.3437(4)
F28 F -0.0526(5) 0.00448(19) 0.3400(4)
F29 F -0.1142(5) 0.0133(2) 0.4569(5)
F30 F -0.0522(5) 0.06454(19) 0.5750(5)
F31 F 0.0571(6) 0.4281(3) 0.5119(5)
F32 F -0.0235(8) 0.4810(3) 0.4078(5)
F33 F -0.1844(7) 0.5004(2) 0.3950(5)
F34 F -0.2523(6) 0.4659(3) 0.4890(8)
F35 F -0.1682(5) 0.4105(2) 0.5962(6)
F36 F 0.3111(5) 0.4495(2) 0.8707(5)
F37 F 0.3736(5) 0.5025(3) 0.9847(6)
F38 F 0.3268(6) 0.5036(2) 1.1156(5)
F39 F 0.2156(6) 0.4499(2) 1.1295(4)
F40 F 0.1578(5) 0.39597(19) 1.0170(4)
C67 C 0.0441(9) 0.0860(3) 0.5199(6)
C68 C 0.0757(8) 0.0807(3) 0.4566(7)
C69 C 0.0472(10) 0.0545(3) 0.3990(7)
C70 C -0.0225(9) 0.0309(4) 0.3988(7)
C71 C -0.0497(8) 0.0357(4) 0.4601(9)
C72 C -0.0185(9) 0.0613(3) 0.5185(8)
C73 C -0.0541(7) 0.4164(3) 0.5534(5)
C74 C -0.0199(11) 0.4359(4) 0.5053(8)
C75 C -0.0640(17) 0.4632(5) 0.4525(9)
C76 C -0.1402(15) 0.4722(5) 0.4468(11)
C77 C -0.1781(11) 0.4551(5) 0.4947(10)
C78 C -0.1347(9) 0.4259(3) 0.5461(8)
C79 C 0.2341(7) 0.4210(3) 0.9433(6)
C80 C 0.2890(9) 0.4474(4) 0.9349(7)
C81 C 0.3200(9) 0.4764(4) 0.9911(9)
C82 C 0.2972(10) 0.4771(4) 1.0605(9)
C83 C 0.2416(9) 0.4498(3) 1.0679(6)
C84 C 0.2141(8) 0.4241(4) 1.0074(6)
C85 C 0.2532(13) 0.3578(7) 0.8984(14)
C86 C 0.3254(13) 0.3472(7) 0.9708(15)
H18 H 0.3507 0.3629 1.0166
C87 C 0.3478(14) 0.3115(6) 0.9590(11)
H19 H 0.3921 0.2969 0.9945
C88 C 0.2915(12) 0.2997(5) 0.8821(11)
C89 C 0.2989(11) 0.2268(5) 0.8700(10)
C90 C 0.3371(11) 0.2135(5) 0.9586(11)
H20 H 0.3552 0.2293 1.0051
C91 C 0.3390(14) 0.1753(6) 0.9552(13)
H21 H 0.3632 0.1592 1.0006
C92 C 0.3018(11) 0.1614(5) 0.8778(11)
C93 C 0.2797(15) 0.1188(7) 0.8560(15)
C94 C 0.2443(13) 0.1114(6) 0.7694(13)
C95 C 0.237(2) 0.0702(10) 0.7407(14)
H22 H 0.2644 0.0484 0.7710
C96 C 0.1891(11) 0.0701(7) 0.6699(15)
H23 H 0.1762 0.0485 0.6349
C97 C 0.1558(11) 0.1093(6) 0.6498(12)
C98 C 0.0943(11) 0.1192(6) 0.5816(12)
C99 C 0.0606(12) 0.1542(8) 0.5630(15)
C100 C -0.0216(13) 0.1653(8) 0.4988(18)
H24 H -0.0596 0.1485 0.4617
C101 C -0.0296(14) 0.2052(5) 0.5055(10)
H25 H -0.0764 0.2205 0.4769
C102 C 0.0486(12) 0.2189(6) 0.5656(10)
C103 C 0.0785(11) 0.2597(5) 0.5830(10)
C104 C 0.0243(11) 0.2939(5) 0.5587(10)
C105 C -0.0382(13) 0.3006(6) 0.4843(12)
H26 H -0.0589 0.2846 0.4383
C106 C -0.0621(15) 0.3398(5) 0.4989(14)
H27 H -0.1076 0.3543 0.4648
C107 C -0.0023(14) 0.3523(8) 0.5764(17)
C108 C -0.0013(14) 0.3856(10) 0.6052(15)
C109 C 0.0533(14) 0.4028(6) 0.6853(15)
C110 C 0.039(2) 0.4329(10) 0.712(3)
H28 H -0.0078 0.4493 0.6890
C111 C 0.1126(18) 0.4392(15) 0.794(3)
H29 H 0.1287 0.4623 0.8237
C112 C 0.1477(14) 0.4039(8) 0.8105(18)
C113 C 0.2153(14) 0.3897(11) 0.8793(18)
N8 N 0.2346(10) 0.3270(4) 0.8440(8)
N9 N 0.2839(8) 0.1946(4) 0.8290(8)
H30 H 0.2647 0.1937 0.7763
N10 N 0.1991(9) 0.1328(4) 0.7097(8)
N11 N 0.0969(9) 0.1884(4) 0.5977(8)
H31 H 0.1456 0.1900 0.6361
N12 N 0.0419(10) 0.3207(4) 0.6116(9)
N13 N 0.1122(10) 0.3801(6) 0.7406(11)
H32 H 0.1252 0.3561 0.7342
H33 H 0.1901 0.3212 0.5963
C114 C 0.2570(15) 0.2686(6) 0.7508(14)
C115 C 0.2562(16) 0.3053(8) 0.7078(14)
H34 H 0.2914 0.3268 0.7281
C116 C 0.2000(12) 0.3029(5) 0.6384(12)
C117 C 0.1534(13) 0.2672(5) 0.6350(11)
N14 N 0.2000(10) 0.2449(4) 0.7019(8)
C118 C 0.2885(10) 0.2635(5) 0.8365(10)
Br3? Br 0.4348(3) 0.14503(19) 0.1921(3)
C119? C -0.326(3) 0.1003(14) 0.390(3)
C120? C -0.2893(18) 0.0709(13) 0.361(3)
C121? C -0.339(2) 0.0443(10) 0.307(2)
C122? C -0.425(2) 0.0472(10) 0.282(2)
C123? C -0.4611(18) 0.0766(12) 0.312(2)
C124? C -0.412(3) 0.1032(12) 0.366(3)
F41? F -0.303(3) 0.0185(7) 0.2855(13)
F42? F -0.471(2) 0.0222(8) 0.2351(12)
F43? F -0.207(3) 0.0681(11) 0.384(2)
F44? F -0.447(2) 0.1322(10) 0.399(2)
F45? F -0.543(2) 0.0781(11) 0.288(2)
C125? C 0.094(3) 0.1013(15) 1.070(3)
C126? C 0.179(3) 0.1071(12) 1.101(3)
C127? C 0.2290(19) 0.0823(11) 1.159(2)
C128? C 0.194(2) 0.0518(10) 1.187(2)
C129? C 0.109(2) 0.0460(11) 1.156(3)
C130? C 0.0585(18) 0.0708(15) 1.098(3)
F46? F 0.2479(17) 0.0263(8) 1.2387(14)
F47? F -0.012(2) 0.0687(11) 1.078(2)
F48? F 0.0799(19) 0.0143(7) 1.1826(13)
F49? F 0.2189(19) 0.1329(9) 1.0685(18)
F50? F 0.3119(16) 0.0870(8) 1.1833(16)
N15? N -0.0638(14) 0.1368(6) 0.8755(11)
H35? H -0.0778 0.1604 0.8835
N16? N -0.2257(14) 0.1392(5) 0.6031(10)
N17? N -0.2866(13) 0.1998(7) 0.4835(14)
H36? H -0.2797 0.1965 0.5345
N18? N -0.2216(12) 0.2608(6) 0.6128(12)
N19? N -0.0639(13) 0.2581(6) 0.8843(11)
H37? H -0.0782 0.2349 0.8946
N20? N 0.0157(12) 0.1985(6) 0.9896(12)
N21? N -0.1531(11) 0.1974(5) 0.7872(9)
C131? C -0.001(3) 0.113(2) 0.937(4)
C132? C 0.008(6) 0.080(2) 0.893(4)
H38? H 0.0503 0.0615 0.9127
C133? C -0.051(2) 0.0798(12) 0.822(3)
H39? H -0.0641 0.0590 0.7848
C134? C -0.0952(17) 0.1183(7) 0.8101(13)
C135? C -0.1654(13) 0.1322(7) 0.7430(12)
C136? C -0.1950(17) 0.1138(7) 0.6680(12)
C137? C -0.180(3) 0.0853(14) 0.647(3)
H40? H -0.1336 0.0692 0.6744
C138? C -0.246(5) 0.078(3) 0.568(4)
H41? H -0.2744 0.0547 0.5462
C139? C -0.2517(19) 0.1104(11) 0.5411(17)
C140? C -0.296(2) 0.1291(16) 0.461(2)
C141? C -0.274(3) 0.1694(18) 0.426(3)
C142? C -0.327(3) 0.1857(13) 0.349(4)
H42? H -0.3412 0.1730 0.2989
C143? C -0.352(2) 0.2179(14) 0.359(2)
H43? H -0.3933 0.2315 0.3180
C144? C -0.3111(18) 0.2334(10) 0.4389(18)
C145? C -0.3075(19) 0.2705(10) 0.4711(18)
C146? C -0.2613(17) 0.2858(9) 0.5450(16)
C147? C -0.255(2) 0.3238(15) 0.567(3)
H44? H -0.2767 0.3452 0.5336
C148? C -0.2103(18) 0.3248(8) 0.6473(15)
H45? H -0.1919 0.3471 0.6797
C149? C -0.1973(13) 0.2853(6) 0.6725(10)
C150? C -0.1646(13) 0.2651(6) 0.7520(12)
C151? C -0.1002(14) 0.2801(6) 0.8127(12)
C152? C -0.0554(18) 0.3167(7) 0.8254(14)
H46? H -0.0644 0.3367 0.7868
C153? C 0.0037(19) 0.3177(12) 0.9042(19)
H47? H 0.0379 0.3388 0.9296
C154? C 0.0014(17) 0.2822(8) 0.9362(15)
C155? C 0.0444(19) 0.2667(10) 1.0119(19)
C156? C 0.0453(16) 0.2301(8) 1.0381(16)
C157? C 0.0865(17) 0.2174(11) 1.113(2)
H48? H 0.1129 0.2334 1.1575
C158? C 0.0851(18) 0.1791(12) 1.115(2)
H49? H 0.1077 0.1636 1.1611
C159? C 0.0451(17) 0.1659(10) 1.0381(19)
C160? C 0.037(2) 0.1279(13) 1.013(2)
C161? C -0.2022(15) 0.1687(8) 0.7465(13)
C162? C -0.2877(18) 0.1785(8) 0.6944(15)
H50? H -0.3333 0.1619 0.6693
C163? C -0.283(2) 0.2183(10) 0.6923(17)
H51? H -0.3257 0.2350 0.6604
C164? C -0.201(2) 0.2303(11) 0.7482(18)
C165? C 0.3343(14) 0.0891(8) 0.9059(12)
C166? C 0.4091(15) 0.0813(7) 0.8954(11)
C167? C 0.4660(11) 0.0565(7) 0.9477(14)
C168? C 0.4481(14) 0.0394(7) 1.0103(13)
C169? C 0.3732(16) 0.0471(7) 1.0208(12)
C170? C 0.3163(13) 0.0720(8) 0.9686(14)
F51? F 0.431(2) 0.0968(7) 0.8385(13)
F52? F 0.5442(12) 0.0525(6) 0.9468(14)
F53? F 0.5077(18) 0.0171(7) 1.0653(11)
F54? F 0.3633(16) 0.0260(5) 1.0778(10)
F55? F 0.2456(19) 0.0714(6) 0.9745(13)
N22? N 0.1763(13) 0.3158(5) 0.8625(11)
H52? H 0.1307 0.3146 0.8202
N23? N 0.2269(12) 0.1814(6) 0.8569(11)
N24? N 0.1626(12) 0.1259(6) 0.7203(12)
H53? H 0.1485 0.1499 0.7251
N25? N 0.0385(13) 0.1792(5) 0.6196(11)
N26? N -0.0130(13) 0.3127(6) 0.6384(11)
H54? H 0.0008 0.3142 0.6908
N27? N 0.0784(16) 0.3720(9) 0.7522(17)
N28? N 0.0707(11) 0.2613(5) 0.7602(9)
C171? C 0.2179(19) 0.3512(10) 0.905(2)
C172? C 0.294(2) 0.3370(11) 0.969(2)
H55? H 0.3330 0.3522 1.0095
C173? C 0.2982(19) 0.2979(8) 0.9595(16)
H56? H 0.3448 0.2823 0.9869
C174? C 0.2251(16) 0.2844(7) 0.9042(14)
C175? C 0.1929(16) 0.2480(7) 0.8795(14)
C176? C 0.2481(14) 0.2109(6) 0.9086(14)
C177? C 0.3061(15) 0.1998(7) 0.9807(15)
H57? H 0.3254 0.2149 1.0281
C178? C 0.330(2) 0.1648(9) 0.9724(18)
H58? H 0.3731 0.1501 1.0090
C179? C 0.2728(17) 0.1536(7) 0.8932(16)
C180? C 0.297(2) 0.1262(11) 0.845(2)
C181? C 0.2234(19) 0.1047(9) 0.7801(18)
C182? C 0.232(3) 0.0722(15) 0.757(2)
H59? H 0.2718 0.0533 0.7854
C183? C 0.1609(16) 0.0681(11) 0.665(2)
H60? H 0.1472 0.0464 0.6301
C184? C 0.1289(17) 0.1033(9) 0.6536(18)
C185? C 0.0606(16) 0.1144(9) 0.5790(18)
C186? C 0.0232(19) 0.1490(12) 0.558(2)
C187? C -0.052(2) 0.1576(12) 0.492(3)
H61? H -0.0781 0.1412 0.4479
C188? C -0.0791(16) 0.1953(7) 0.5045(15)
H62? H -0.1262 0.2088 0.4704
C189? C -0.0195(14) 0.2085(7) 0.5808(13)
C190? C -0.0147(13) 0.2449(6) 0.6248(13)
C191? C -0.0233(15) 0.2806(7) 0.5934(14)
C192? C -0.0630(18) 0.2908(8) 0.5102(17)
H63? H -0.0942 0.2730 0.4706
C193? C -0.053(2) 0.3233(10) 0.496(2)
H64? H -0.0584 0.3347 0.4458
C194? C -0.029(2) 0.3436(11) 0.583(3)
C195? C -0.027(2) 0.3855(15) 0.617(2)
C196? C 0.028(2) 0.3930(10) 0.691(2)
C197? C 0.056(3) 0.4413(16) 0.717(4)
H65? H 0.0481 0.4639 0.6854
C198? C 0.089(3) 0.436(2) 0.791(4)
H66? H 0.0952 0.4561 0.8296
C199? C 0.119(2) 0.3967(12) 0.810(3)
C200? C 0.185(2) 0.3903(16) 0.884(3)
C201? C 0.1155(15) 0.2390(6) 0.8269(13)
C202? C 0.0663(15) 0.2011(7) 0.8228(15)
H67? H 0.0729 0.1814 0.8617
C203? C 0.013(2) 0.2042(11) 0.7502(19)
H68? H -0.0273 0.1851 0.7260
C204? C 0.021(2) 0.2381(9) 0.7111(16)
loop_
_geom_bond_atom_site_label_1
_geom_bond_atom_site_label_2
_geom_bond_site_symmetry_1
_geom_bond_site_symmetry_2
Br1 C1 1_555 1_555
C1 C2 1_555 1_555
C2 Br2 1_555 1_555
C3 C4 1_555 1_555
C4 C5 1_555 1_555
C5 C6 1_555 1_555
C6 C7 1_555 1_555
C7 C8 1_555 1_555
C8 C3 1_555 1_555
F1 C4 1_555 1_555
F2 C5 1_555 1_555
F3 C6 1_555 1_555
F4 C7 1_555 1_555
F5 C8 1_555 1_555
F6 C20 1_555 1_555
F7 C19 1_555 1_555
F8 C18 1_555 1_555
F9 C17 1_555 1_555
F10 C16 1_555 1_555
F11 C22 1_555 1_555
F12 C23 1_555 1_555
F13 C24 1_555 1_555
F14 C25 1_555 1_555
F15 C26 1_555 1_555
C9 C10 1_555 1_555
C10 C11 1_555 1_555
C11 C12 1_555 1_555
C12 C13 1_555 1_555
C13 C14 1_555 1_555
C14 C9 1_555 1_555
F16 C14 1_555 1_555
F17 C13 1_555 1_555
F18 C12 1_555 1_555
F19 C11 1_555 1_555
F20 C10 1_555 1_555
C15 C16 1_555 1_555
C16 C17 1_555 1_555
C17 C18 1_555 1_555
C18 C19 1_555 1_555
C19 C20 1_555 1_555
C20 C15 1_555 1_555
C21 C22 1_555 1_555
C22 C23 1_555 1_555
C23 C24 1_555 1_555
C24 C25 1_555 1_555
C25 C26 1_555 1_555
C26 C21 1_555 1_555
C27 C28 1_555 1_555
C28 H1 1_555 1_555
C29 C28 1_555 1_555
H2 C29 1_555 1_555
C30 C29 1_555 1_555
C31 C30 1_555 1_555
C32 C31 1_555 1_555
C33 C32 1_555 1_555
H3 C33 1_555 1_555
C34 C33 1_555 1_555
H4 C34 1_555 1_555
C35 C34 1_555 1_555
C36 C3 1_555 1_555
C37 C36 1_555 1_555
C38 C37 1_555 1_555
H5 C38 1_555 1_555
C39 C38 1_555 1_555
H6 C39 1_555 1_555
C40 C39 1_555 1_555
C41 C15 1_555 1_555
C42 C41 1_555 1_555
C43 C42 1_555 1_555
H7 C43 1_555 1_555
C44 C43 1_555 1_555
H8 C44 1_555 1_555
C45 C44 1_555 1_555
C46 C45 1_555 1_555
C47 C46 1_555 1_555
C48 C47 1_555 1_555
H9 C48 1_555 1_555
C49 C48 1_555 1_555
H10 C49 1_555 1_555
C50 C49 1_555 1_555
C51 C21 1_555 1_555
C52 C51 1_555 1_555
C53 C52 1_555 1_555
H11 C53 1_555 1_555
C54 C53 1_555 1_555
H12 C54 1_555 1_555
C55 C54 1_555 1_555
C56 C9 1_555 1_555
C57 C31 1_555 1_555
C58 C57 1_555 1_555
H13 C58 1_555 1_555
C59 C58 1_555 1_555
H14 C59 1_555 1_555
C60 C46 1_555 1_555
N1 C27 1_555 1_555
N2 C32 1_555 1_555
H15 N2 1_555 1_555
N3 C37 1_555 1_555
N4 C42 1_555 1_555
H16 N4 1_555 1_555
N5 C47 1_555 1_555
N6 C52 1_555 1_555
H17 N6 1_555 1_555
N7 C57 1_555 1_555
C61 C62 1_555 1_555
C62 C63 1_555 1_555
C63 C64 1_555 1_555
C64 C65 1_555 1_555
C65 C66 1_555 1_555
C66 C61 1_555 1_555
F21 C64 1_555 1_555
F22 C63 1_555 1_555
F23 C62 1_555 1_555
F24 C65 1_555 1_555
F25 C66 1_555 1_555
F26 C68 1_555 1_555
F27 C69 1_555 1_555
F28 C70 1_555 1_555
F29 C71 1_555 1_555
F30 C72 1_555 1_555
F31 C74 1_555 1_555
F32 C75 1_555 1_555
F33 C76 1_555 1_555
F34 C77 1_555 1_555
F35 C78 1_555 1_555
F36 C80 1_555 1_555
F37 C81 1_555 1_555
F38 C82 1_555 1_555
F39 C83 1_555 1_555
F40 C84 1_555 1_555
C67 C68 1_555 1_555
C68 C69 1_555 1_555
C69 C70 1_555 1_555
C70 C71 1_555 1_555
C71 C72 1_555 1_555
C72 C67 1_555 1_555
C73 C74 1_555 1_555
C74 C75 1_555 1_555
C75 C76 1_555 1_555
C76 C77 1_555 1_555
C77 C78 1_555 1_555
C78 C73 1_555 1_555
C79 C80 1_555 1_555
C80 C81 1_555 1_555
C81 C82 1_555 1_555
C82 C83 1_555 1_555
C83 C84 1_555 1_555
C84 C79 1_555 1_555
C85 C86 1_555 1_555
C86 H18 1_555 1_555
C87 C86 1_555 1_555
H19 C87 1_555 1_555
C88 C87 1_555 1_555
C89 C90 1_555 1_555
C90 H20 1_555 1_555
C91 C90 1_555 1_555
H21 C91 1_555 1_555
C92 C91 1_555 1_555
C93 C61 1_555 1_555
C94 C93 1_555 1_555
C95 C94 1_555 1_555
H22 C95 1_555 1_555
C96 C95 1_555 1_555
H23 C96 1_555 1_555
C97 C96 1_555 1_555
C98 C67 1_555 1_555
C99 C98 1_555 1_555
C100 C99 1_555 1_555
H24 C100 1_555 1_555
C101 C100 1_555 1_555
H25 C101 1_555 1_555
C102 C101 1_555 1_555
C103 C102 1_555 1_555
C104 C103 1_555 1_555
C105 C104 1_555 1_555
H26 C105 1_555 1_555
C106 C105 1_555 1_555
H27 C106 1_555 1_555
C107 C106 1_555 1_555
C108 C73 1_555 1_555
C109 C108 1_555 1_555
C110 C109 1_555 1_555
H28 C110 1_555 1_555
C111 C110 1_555 1_555
H29 C111 1_555 1_555
C112 C111 1_555 1_555
C113 C79 1_555 1_555
N8 C85 1_555 1_555
N9 C89 1_555 1_555
H30 N9 1_555 1_555
N10 C94 1_555 1_555
N11 C99 1_555 1_555
H31 N11 1_555 1_555
N12 C104 1_555 1_555
N13 C109 1_555 1_555
H32 N13 1_555 1_555
H33 C116 1_555 1_555
C114 C115 1_555 1_555
C115 H34 1_555 1_555
C116 C115 1_555 1_555
C117 C103 1_555 1_555
N14 C114 1_555 1_555
C118 C88 1_555 1_555
C27 C56 1_555 1_555
C30 N1 1_555 1_555
C35 C36 1_555 1_555
C35 N2 1_555 1_555
C40 C41 1_555 1_555
C40 N3 1_555 1_555
C45 N4 1_555 1_555
C50 C51 1_555 1_555
C50 N5 1_555 1_555
C55 C56 1_555 1_555
C55 N6 1_555 1_555
C59 C60 1_555 1_555
C60 N7 1_555 1_555
C85 C113 1_555 1_555
C88 N8 1_555 1_555
C89 C118 1_555 1_555
C92 C93 1_555 1_555
C92 N9 1_555 1_555
C97 C98 1_555 1_555
C97 N10 1_555 1_555
C102 N11 1_555 1_555
C107 C108 1_555 1_555
C107 N12 1_555 1_555
C112 C113 1_555 1_555
C112 N13 1_555 1_555
C114 C118 1_555 1_555
C116 C117 1_555 1_555
C117 N14 1_555 1_555

#END
