
#######################################################################
#
#                 Cambridge Crystallographic Data Centre
#                                CCDC 
#
#######################################################################
#
# If this CIF has been generated from an entry in the Cambridge 
# Structural Database, then it will include bibliographic, chemical, 
# crystal, experimental, refinement or atomic coordinate data resulting 
# from the CCDC's data processing and validation procedures.
#
#######################################################################

data_DITNUS
_chemical_formula_moiety         'C16 H12 N2 O1'
_chemical_name_systematic        10-methoxybenzimidazo[2,1-a]isoquinoline
_symmetry_cell_setting           monoclinic
_symmetry_space_group_name_H-M   'P 21'
_symmetry_Int_Tables_number      4
_space_group_name_Hall           'P 2yb'
loop_
_symmetry_equiv_pos_site_id
_symmetry_equiv_pos_as_xyz
1 x,y,z
2 -x,1/2+y,-z
_cell_length_a                   3.9878(2)
_cell_length_b                   12.0606(7)
_cell_length_c                   24.7189(14)
_cell_angle_alpha                90
_cell_angle_beta                 93.930(3)
_cell_angle_gamma                90
_cell_volume                     1186.07
_exptl_crystal_colour            colorless
_exptl_crystal_description       plate
_cell_formula_units_Z            4
loop_
_atom_site_label
_atom_site_type_symbol
_atom_site_fract_x
_atom_site_fract_y
_atom_site_fract_z
O1 O 0.2398(6) 0.68861(19) -0.20232(9)
N1 N 0.8309(6) 0.5563(2) -0.00537(10)
N2 N 0.5563(6) 0.7217(2) -0.00540(10)
C1 C 0.7785(8) 0.7467(3) 0.11303(13)
H1 H 0.6462 0.8056 0.0975
C2 C 0.8914(8) 0.7519(3) 0.16697(13)
H2 H 0.8377 0.8140 0.1884
C3 C 1.0865(8) 0.6648(3) 0.19008(14)
H3 H 1.1652 0.6683 0.2272
C4 C 1.1648(8) 0.5737(3) 0.15906(14)
H4 H 1.2957 0.5152 0.1753
C5 C 1.1342(8) 0.4742(3) 0.07009(13)
H5 H 1.2667 0.4152 0.0854
C6 C 1.0254(8) 0.4698(3) 0.01714(13)
H6 H 1.0810 0.4083 -0.0045
C7 C 0.7424(7) 0.6492(3) 0.02427(13)
C8 C 0.7074(8) 0.5097(3) -0.10556(13)
H7 H 0.8215 0.4406 -0.1056
C9 C 0.5491(8) 0.5533(3) -0.15249(13)
H8 H 0.5556 0.5134 -0.1855
C10 C 0.3773(8) 0.6565(3) -0.15214(13)
C11 C 0.3610(8) 0.7174(3) -0.10493(12)
H9 H 0.2433 0.7859 -0.1048
C12 C 1.0530(7) 0.5668(3) 0.10384(13)
C13 C 0.8564(7) 0.6557(3) 0.08078(13)
C14 C 0.6915(7) 0.5720(3) -0.05821(12)
C15 C 0.5247(7) 0.6747(3) -0.05698(12)
C16 C 0.0782(9) 0.7948(3) -0.20510(14)
H10 H -0.1129 0.7945 -0.1822
H11 H -0.0018 0.8105 -0.2427
H12 H 0.2388 0.8521 -0.1923
O2 O 0.4782(6) 0.9272(2) 0.68607(9)
N3 N 0.8580(6) 0.8269(2) 0.48211(10)
N4 N 0.5929(6) 0.9924(2) 0.48969(10)
C17 C 0.6841(7) 1.0328(3) 0.37108(13)
H13 H 0.5643 1.0887 0.3888
C18 C 0.7475(8) 1.0458(3) 0.31701(13)
H14 H 0.6730 1.1105 0.2979
C19 C 0.9215(8) 0.9633(3) 0.29079(13)
H15 H 0.9674 0.9727 0.2539
C20 C 1.0273(8) 0.8683(3) 0.31802(13)
H16 H 1.1419 0.8125 0.2994
C21 C 1.0812(8) 0.7561(3) 0.40338(13)
H17 H 1.1966 0.6993 0.3856
C22 C 1.0280(8) 0.7440(3) 0.45607(13)
H18 H 1.1055 0.6798 0.4753
C23 C 0.7417(7) 0.9240(3) 0.45656(12)
C24 C 0.8346(8) 0.7644(3) 0.58013(13)
H19 H 0.9422 0.6947 0.5768
C25 C 0.7275(8) 0.8007(3) 0.62928(13)
H20 H 0.7646 0.7550 0.6604
C26 C 0.5650(8) 0.9036(3) 0.63419(12)
C27 C 0.5019(8) 0.9732(3) 0.58968(12)
H21 H 0.3875 1.0418 0.5929
C28 C 0.9681(7) 0.8529(3) 0.37296(13)
C29 C 0.7946(7) 0.9383(3) 0.39981(12)
C30 C 0.7774(7) 0.8349(3) 0.53589(12)
C31 C 0.6139(7) 0.9382(3) 0.53989(12)
C32 C 0.3108(9) 1.0292(3) 0.69387(14)
H22 H 0.4579 1.0908 0.6852
H23 H 0.2547 1.0351 0.7317
H24 H 0.1040 1.0321 0.6701
loop_
_geom_bond_atom_site_label_1
_geom_bond_atom_site_label_2
_geom_bond_site_symmetry_1
_geom_bond_site_symmetry_2
O1 C10 1_555 1_555
N1 C6 1_555 1_555
N2 C7 1_555 1_555
C1 H1 1_555 1_555
C2 C1 1_555 1_555
H2 C2 1_555 1_555
C3 C2 1_555 1_555
H3 C3 1_555 1_555
C4 C3 1_555 1_555
H4 C4 1_555 1_555
C5 H5 1_555 1_555
C6 C5 1_555 1_555
H6 C6 1_555 1_555
C7 N1 1_555 1_555
C8 H7 1_555 1_555
C9 C8 1_555 1_555
H8 C9 1_555 1_555
C10 C9 1_555 1_555
C11 C10 1_555 1_555
H9 C11 1_555 1_555
C12 C4 1_555 1_555
C13 C1 1_555 1_555
C14 N1 1_555 1_555
C15 N2 1_555 1_555
C16 O1 1_555 1_555
H10 C16 1_555 1_555
H11 C16 1_555 1_555
H12 C16 1_555 1_555
O2 C26 1_555 1_555
N3 C22 1_555 1_555
N4 C23 1_555 1_555
C17 H13 1_555 1_555
C18 C17 1_555 1_555
H14 C18 1_555 1_555
C19 C18 1_555 1_555
H15 C19 1_555 1_555
C20 C19 1_555 1_555
H16 C20 1_555 1_555
C21 H17 1_555 1_555
C22 C21 1_555 1_555
H18 C22 1_555 1_555
C23 N3 1_555 1_555
C24 H19 1_555 1_555
C25 C24 1_555 1_555
H20 C25 1_555 1_555
C26 C25 1_555 1_555
C27 C26 1_555 1_555
H21 C27 1_555 1_555
C28 C20 1_555 1_555
C29 C17 1_555 1_555
C30 N3 1_555 1_555
C31 N4 1_555 1_555
C32 O2 1_555 1_555
H22 C32 1_555 1_555
H23 C32 1_555 1_555
H24 C32 1_555 1_555
C5 C12 1_555 1_555
C7 C13 1_555 1_555
C8 C14 1_555 1_555
C11 C15 1_555 1_555
C12 C13 1_555 1_555
C14 C15 1_555 1_555
C21 C28 1_555 1_555
C23 C29 1_555 1_555
C24 C30 1_555 1_555
C27 C31 1_555 1_555
C28 C29 1_555 1_555
C30 C31 1_555 1_555

#END
