
#######################################################################
#
#                 Cambridge Crystallographic Data Centre
#                                CCDC 
#
#######################################################################
#
# If this CIF has been generated from an entry in the Cambridge 
# Structural Database, then it will include bibliographic, chemical, 
# crystal, experimental, refinement or atomic coordinate data resulting 
# from the CCDC's data processing and validation procedures.
#
#######################################################################

data_DIVGOH01
_chemical_formula_moiety         'C26 H23 Br1 N2 O4'
_chemical_name_systematic        
'(+-)-dimethyl 2-(4-bromophenyl)-1,2,3,6-tetrahydro-1,3-diphenylpyrimidine-4,5-dicarboxylate'
_symmetry_cell_setting           monoclinic
_symmetry_space_group_name_H-M   'P 21/c'
_symmetry_Int_Tables_number      14
_space_group_name_Hall           '-P 2ybc'
loop_
_symmetry_equiv_pos_site_id
_symmetry_equiv_pos_as_xyz
1 x,y,z
2 -x,1/2+y,1/2-z
3 -x,-y,-z
4 x,1/2-y,1/2+z
_cell_length_a                   16.479(3)
_cell_length_b                   9.0821(18)
_cell_length_c                   15.440(3)
_cell_angle_alpha                90
_cell_angle_beta                 101.98(3)
_cell_angle_gamma                90
_cell_volume                     2260.48
_exptl_crystal_colour            colorless
_exptl_crystal_description       stick
_chemical_melting_point          '442.1-442.7 K'
_cell_formula_units_Z            4
_exptl_crystal_recrystallization_method dichloromethane/n-hexane
_exptl_crystal_preparation       Luminescent
loop_
_atom_site_label
_atom_site_type_symbol
_atom_site_fract_x
_atom_site_fract_y
_atom_site_fract_z
Br1 Br 1.02508(3) -0.21950(6) 0.43286(4)
O1 O 0.8608(2) 0.5769(4) 0.5193(2)
O2 O 0.7866(2) 0.3980(4) 0.5655(2)
O3 O 0.6200(2) 0.4152(4) 0.4591(2)
O4 O 0.6355(2) 0.1769(4) 0.4281(2)
N1 N 0.8274(2) 0.4131(4) 0.2648(2)
N2 N 0.7119(2) 0.2793(4) 0.2946(2)
C1 C 0.5663(4) 0.1394(7) 0.4670(4)
H1 H 0.519081 0.197437 0.440233
H2 H 0.580177 0.158784 0.529419
H3 H 0.553534 0.036815 0.457275
C2 C 0.6540(3) 0.3196(5) 0.4267(3)
C3 C 0.8910(4) 0.6220(6) 0.6099(3)
H4 H 0.918444 0.715438 0.610852
H5 H 0.929465 0.549952 0.639772
H6 H 0.845264 0.630664 0.639196
C4 C 0.8101(3) 0.4598(5) 0.5066(3)
C5 C 0.8548(3) 0.4531(5) 0.3582(3)
H7 H 0.867358 0.557568 0.362323
H8 H 0.905519 0.400169 0.382677
C6 C 0.7916(3) 0.4198(5) 0.4126(3)
C7 C 0.7223(2) 0.3438(5) 0.3775(3)
C8 C 0.7863(3) 0.2704(4) 0.2580(3)
H9 H 0.769462 0.245324 0.195117
C9 C 0.7685(3) 0.5057(6) 0.1180(3)
H10 H 0.792608 0.426376 0.094804
C10 C 0.7222(4) 0.6069(6) 0.0615(4)
H11 H 0.715940 0.595400 0.000592
C11 C 0.6856(4) 0.7240(6) 0.0943(4)
H12 H 0.654617 0.792257 0.056227
C12 C 0.6956(4) 0.7386(6) 0.1841(4)
H13 H 0.670678 0.817421 0.206862
C13 C 0.7416(4) 0.6392(6) 0.2415(3)
H14 H 0.747416 0.651351 0.302285
C14 C 0.7791(3) 0.5213(5) 0.2087(3)
C15 C 0.8445(3) 0.1503(5) 0.3031(3)
C16 C 0.8184(3) 0.0432(5) 0.3550(3)
H15 H 0.764625 0.045728 0.364705
C17 C 0.8722(3) -0.0682(5) 0.3926(3)
H16 H 0.854383 -0.140437 0.427090
C18 C 0.9511(3) -0.0708(5) 0.3787(3)
C19 C 0.9789(3) 0.0339(5) 0.3273(3)
H17 H 1.032739 0.030558 0.317753
C20 C 0.9246(3) 0.1446(5) 0.2902(3)
H18 H 0.942803 0.216606 0.255861
C21 C 0.6171(3) 0.1381(5) 0.1847(3)
H19 H 0.660163 0.074158 0.180262
C22 C 0.6320(3) 0.2594(5) 0.2400(3)
C23 C 0.5682(3) 0.3575(5) 0.2424(3)
H20 H 0.578352 0.442439 0.276591
C24 C 0.4898(3) 0.3290(6) 0.1941(3)
H21 H 0.446878 0.394306 0.196766
C25 C 0.4739(3) 0.2056(6) 0.1422(3)
H22 H 0.420393 0.185141 0.111433
C26 C 0.5384(3) 0.1125(6) 0.1364(3)
H23 H 0.528638 0.030984 0.099159
loop_
_geom_bond_atom_site_label_1
_geom_bond_atom_site_label_2
_geom_bond_site_symmetry_1
_geom_bond_site_symmetry_2
Br1 C18 1_555 1_555
O1 C3 1_555 1_555
O2 C4 1_555 1_555
O3 C2 1_555 1_555
O4 C1 1_555 1_555
N1 C5 1_555 1_555
N2 C7 1_555 1_555
C1 H1 1_555 1_555
H2 C1 1_555 1_555
H3 C1 1_555 1_555
C2 O4 1_555 1_555
C3 H4 1_555 1_555
H5 C3 1_555 1_555
H6 C3 1_555 1_555
C4 O1 1_555 1_555
C5 H7 1_555 1_555
H8 C5 1_555 1_555
C6 C4 1_555 1_555
C7 C2 1_555 1_555
C8 N1 1_555 1_555
H9 C8 1_555 1_555
C9 H10 1_555 1_555
C10 C9 1_555 1_555
H11 C10 1_555 1_555
C11 C10 1_555 1_555
H12 C11 1_555 1_555
C12 C11 1_555 1_555
H13 C12 1_555 1_555
C13 C12 1_555 1_555
H14 C13 1_555 1_555
C14 N1 1_555 1_555
C15 C8 1_555 1_555
C16 C15 1_555 1_555
H15 C16 1_555 1_555
C17 C16 1_555 1_555
H16 C17 1_555 1_555
C18 C17 1_555 1_555
C19 C18 1_555 1_555
H17 C19 1_555 1_555
C20 C15 1_555 1_555
H18 C20 1_555 1_555
C21 H19 1_555 1_555
C22 N2 1_555 1_555
C23 C22 1_555 1_555
H20 C23 1_555 1_555
C24 C23 1_555 1_555
H21 C24 1_555 1_555
C25 C24 1_555 1_555
H22 C25 1_555 1_555
C26 C21 1_555 1_555
H23 C26 1_555 1_555
N2 C8 1_555 1_555
C5 C6 1_555 1_555
C6 C7 1_555 1_555
C9 C14 1_555 1_555
C13 C14 1_555 1_555
C19 C20 1_555 1_555
C21 C22 1_555 1_555
C25 C26 1_555 1_555

#END
