
#######################################################################
#
#                 Cambridge Crystallographic Data Centre
#                                CCDC 
#
#######################################################################
#
# If this CIF has been generated from an entry in the Cambridge 
# Structural Database, then it will include bibliographic, chemical, 
# crystal, experimental, refinement or atomic coordinate data resulting 
# from the CCDC's data processing and validation procedures.
#
#######################################################################

data_DIVGEX
_chemical_formula_moiety         'C26 H23 Br1 N2 O4'
_chemical_name_systematic        
'(R)-(-)-dimthyl 2-(4-bromophenyl)-1,2,3,6-tetrahydro-1,3-diphenylpyrimidine-4,5-dicarboxylate'
_symmetry_cell_setting           tetragonal
_symmetry_space_group_name_H-M   'P 43 21 2'
_symmetry_Int_Tables_number      96
_space_group_name_Hall           'P 4nw 2abw'
loop_
_symmetry_equiv_pos_site_id
_symmetry_equiv_pos_as_xyz
1 x,y,z
2 1/2-y,1/2+x,3/4+z
3 -x,-y,1/2+z
4 1/2+y,1/2-x,1/4+z
5 1/2+x,1/2-y,1/4-z
6 y,x,-z
7 1/2-x,1/2+y,3/4-z
8 -y,-x,1/2-z
_cell_length_a                   11.32020(10)
_cell_length_b                   11.32020(10)
_cell_length_c                   36.3968(7)
_cell_angle_alpha                90
_cell_angle_beta                 90
_cell_angle_gamma                90
_cell_volume                     4664.14
_exptl_crystal_colour            'light green'
_exptl_crystal_description       rectangle
_chemical_melting_point          '401.3-401.9 K'
_cell_formula_units_Z            8
_exptl_crystal_recrystallization_method dichloromethane/cyclohexane
_exptl_crystal_preparation       ', Luminescent'
loop_
_atom_site_label
_atom_site_type_symbol
_atom_site_fract_x
_atom_site_fract_y
_atom_site_fract_z
Br1 Br 0.42282(3) 0.28269(3) 0.06589(2)
O1 O 0.52682(18) 0.89022(19) 0.13960(6)
O2 O 0.51545(18) 1.06616(18) 0.11076(6)
O3 O 0.62219(18) 0.9347(2) 0.05534(6)
O4 O 0.52884(19) 0.9410(2) 0.00104(6)
N1 N 0.2030(2) 0.8492(2) 0.04516(7)
N2 N 0.2940(2) 0.8657(2) 0.10484(6)
C1 C 0.1234(3) 0.9471(3) 0.04899(8)
C2 C 0.1937(3) 0.8277(3) 0.16280(8)
H1 H 0.1870 0.7466 0.1564
C3 C 0.2241(3) 0.7892(3) 0.08017(7)
H2 H 0.1457 0.7747 0.0921
C4 C 0.4871(3) 0.9536(3) 0.11617(8)
C5 C 0.2552(3) 1.0261(3) 0.14803(8)
H3 H 0.2887 1.0808 0.1312
C6 C 0.2839(3) 0.6702(2) 0.07457(8)
C7 C 0.3153(2) 0.8726(3) 0.02659(8)
H4 H 0.3031 0.9354 0.0080
H5 H 0.3405 0.8003 0.0134
C8 C 0.1500(3) 0.8682(3) 0.19602(9)
H6 H 0.1127 0.8144 0.2123
C9 C 0.3635(3) 0.6255(3) 0.10031(8)
H7 H 0.3876 0.6736 0.1203
C10 C 0.0044(3) 0.9230(3) 0.05500(8)
H8 H -0.0215 0.8434 0.0570
C11 C 0.3940(2) 0.9133(3) 0.08932(8)
C12 C 0.2473(2) 0.9071(3) 0.13882(7)
C13 C 0.4081(3) 0.5115(3) 0.09705(9)
H9 H 0.4626 0.4815 0.1146
C14 C 0.5313(3) 0.9310(3) 0.03788(8)
C15 C 0.2533(3) 0.5997(3) 0.04469(8)
H10 H 0.2021 0.6303 0.0263
C16 C 0.4125(3) 0.9102(2) 0.05239(8)
C17 C 0.1595(3) 1.0643(3) 0.04641(9)
H11 H 0.2404 1.0824 0.0424
C18 C 0.3715(3) 0.4428(3) 0.06784(9)
C19 C -0.0769(3) 1.0143(3) 0.05806(9)
H12 H -0.1580 0.9969 0.0619
C20 C 0.2141(3) 1.0644(3) 0.18184(9)
H13 H 0.2230 1.1450 0.1886
C21 C 0.6433(3) 0.9463(3) -0.01644(9)
H14 H 0.6331 0.9568 -0.0430
H15 H 0.6863 0.8727 -0.0117
H16 H 0.6882 1.0131 -0.0065
C22 C 0.2963(3) 0.4856(3) 0.04136(9)
H17 H 0.2742 0.4377 0.0211
C23 C -0.0403(3) 1.1302(3) 0.05550(9)
H18 H -0.0959 1.1926 0.0578
C24 C 0.1600(3) 0.9861(3) 0.20585(8)
H19 H 0.1301 1.0130 0.2288
C25 C 0.0772(4) 1.1549(3) 0.04964(10)
H20 H 0.1024 1.2348 0.0478
C26 C 0.6141(4) 1.1076(3) 0.13217(12)
H21 H 0.6871 1.0719 0.1229
H22 H 0.6029 1.0853 0.1579
H23 H 0.6195 1.1938 0.1302
loop_
_geom_bond_atom_site_label_1
_geom_bond_atom_site_label_2
_geom_bond_site_symmetry_1
_geom_bond_site_symmetry_2
Br1 C18 1_555 1_555
O1 C4 1_555 1_555
O2 C4 1_555 1_555
O3 C14 1_555 1_555
O4 C14 1_555 1_555
N1 C1 1_555 1_555
N2 C3 1_555 1_555
C1 C10 1_555 1_555
C2 H1 1_555 1_555
C3 N1 1_555 1_555
H2 C3 1_555 1_555
C4 C11 1_555 1_555
C5 H3 1_555 1_555
C6 C3 1_555 1_555
C7 N1 1_555 1_555
H4 C7 1_555 1_555
H5 C7 1_555 1_555
C8 C2 1_555 1_555
H6 C8 1_555 1_555
C9 C6 1_555 1_555
H7 C9 1_555 1_555
C10 H8 1_555 1_555
C11 N2 1_555 1_555
C12 N2 1_555 1_555
C13 C9 1_555 1_555
H9 C13 1_555 1_555
C14 C16 1_555 1_555
C15 C6 1_555 1_555
H10 C15 1_555 1_555
C16 C7 1_555 1_555
C17 C1 1_555 1_555
H11 C17 1_555 1_555
C18 C13 1_555 1_555
C19 C10 1_555 1_555
H12 C19 1_555 1_555
C20 C5 1_555 1_555
H13 C20 1_555 1_555
C21 O4 1_555 1_555
H14 C21 1_555 1_555
H15 C21 1_555 1_555
H16 C21 1_555 1_555
C22 C15 1_555 1_555
H17 C22 1_555 1_555
C23 C19 1_555 1_555
H18 C23 1_555 1_555
C24 C8 1_555 1_555
H19 C24 1_555 1_555
C25 C17 1_555 1_555
H20 C25 1_555 1_555
C26 O2 1_555 1_555
H21 C26 1_555 1_555
H22 C26 1_555 1_555
H23 C26 1_555 1_555
C2 C12 1_555 1_555
C5 C12 1_555 1_555
C11 C16 1_555 1_555
C18 C22 1_555 1_555
C20 C24 1_555 1_555
C23 C25 1_555 1_555

#END
