
#######################################################################
#
#                 Cambridge Crystallographic Data Centre
#                                CCDC 
#
#######################################################################
#
# If this CIF has been generated from an entry in the Cambridge 
# Structural Database, then it will include bibliographic, chemical, 
# crystal, experimental, refinement or atomic coordinate data resulting 
# from the CCDC's data processing and validation procedures.
#
#######################################################################

data_DIVPEE
_chemical_formula_moiety         'C13 H12 N1 S6 1+,N1 O3 1-'
_chemical_name_systematic        
"4-(4',5'-bis(Methylthio)tetrathiafulvalen-4-yl)pyridinium nitrate"
_symmetry_cell_setting           monoclinic
_symmetry_space_group_name_H-M   'P 21/n'
_symmetry_Int_Tables_number      14
_space_group_name_Hall           '-P 2yn'
loop_
_symmetry_equiv_pos_site_id
_symmetry_equiv_pos_as_xyz
1 x,y,z
2 1/2-x,1/2+y,1/2-z
3 -x,-y,-z
4 1/2+x,1/2-y,1/2+z
_cell_length_a                   10.4949(10)
_cell_length_b                   15.2554(13)
_cell_length_c                   11.5722(10)
_cell_angle_alpha                90
_cell_angle_beta                 108.427(2)
_cell_angle_gamma                90
_cell_volume                     1757.76
_exptl_crystal_colour            purple
_exptl_crystal_description       block
_cell_formula_units_Z            4
loop_
_atom_site_label
_atom_site_type_symbol
_atom_site_fract_x
_atom_site_fract_y
_atom_site_fract_z
S1 S 0.21162(4) 0.41813(3) 0.49301(4)
S2 S 0.30963(4) 0.60156(3) 0.52264(4)
S3 S 0.49176(4) 0.35713(3) 0.70116(4)
S4 S 0.58588(4) 0.54100(3) 0.71460(4)
S5 S 0.73470(5) 0.29786(3) 0.90349(4)
S6 S 0.84725(4) 0.49834(3) 0.91245(4)
N1 N -0.27511(15) 0.42475(11) 0.17218(13)
H1 H -0.3540 0.4089 0.1223
C1 C -0.19248(18) 0.36333(12) 0.23705(17)
H2 H -0.2197 0.3036 0.2295
C2 C -0.06812(17) 0.38604(12) 0.31476(16)
H3 H -0.0092 0.3421 0.3603
C3 C -0.02860(16) 0.47427(11) 0.32654(15)
C4 C -0.11943(18) 0.53656(12) 0.25728(15)
H4 H -0.0962 0.5970 0.2636
C5 C -0.24132(18) 0.51006(12) 0.18078(16)
H5 H -0.3025 0.5522 0.1334
C6 C 0.10307(16) 0.50019(11) 0.40909(15)
C7 C 0.14991(17) 0.58273(11) 0.42602(15)
H6 H 0.0955 0.6301 0.3851
C8 C 0.34189(16) 0.49068(11) 0.56511(15)
C9 C 0.45682(16) 0.46529(11) 0.64905(15)
C10 C 0.64802(17) 0.38256(11) 0.80923(16)
C11 C 0.69064(16) 0.46582(11) 0.81443(15)
C12 C 0.8672(2) 0.27456(13) 0.83908(19)
H7 H 0.8277 0.2562 0.7541
H8 H 0.9243 0.2275 0.8856
H9 H 0.9215 0.3274 0.8426
C13 C 0.85595(19) 0.61305(12) 0.88049(18)
H10 H 0.8341 0.6216 0.7924
H11 H 0.9469 0.6347 0.9218
H12 H 0.7916 0.6454 0.9098
O1 O 0.16470(14) 0.78117(10) 0.52209(15)
O2 O 0.01521(14) 0.88332(9) 0.48892(12)
O3 O -0.02829(14) 0.76402(9) 0.38269(14)
N2 N 0.05124(15) 0.80824(10) 0.46488(14)
loop_
_geom_bond_atom_site_label_1
_geom_bond_atom_site_label_2
_geom_bond_site_symmetry_1
_geom_bond_site_symmetry_2
S1 C6 1_555 1_555
S2 C7 1_555 1_555
S3 C9 1_555 1_555
S4 C9 1_555 1_555
S5 C10 1_555 1_555
S6 C11 1_555 1_555
O1 N2 1_555 1_555
O2 N2 1_555 1_555
O3 N2 1_555 1_555
N1 H1 1_555 1_555
C1 N1 1_555 1_555
H2 C1 1_555 1_555
C2 C1 1_555 1_555
H3 C2 1_555 1_555
C3 C2 1_555 1_555
C4 C3 1_555 1_555
H4 C4 1_555 1_555
C5 N1 1_555 1_555
H5 C5 1_555 1_555
C6 C3 1_555 1_555
C7 C6 1_555 1_555
H6 C7 1_555 1_555
C8 S1 1_555 1_555
C9 C8 1_555 1_555
C10 S3 1_555 1_555
C11 S4 1_555 1_555
C12 S5 1_555 1_555
H7 C12 1_555 1_555
H8 C12 1_555 1_555
H9 C12 1_555 1_555
C13 S6 1_555 1_555
H10 C13 1_555 1_555
H11 C13 1_555 1_555
H12 C13 1_555 1_555
S2 C8 1_555 1_555
C4 C5 1_555 1_555
C10 C11 1_555 1_555

#END
