
#######################################################################
#
#                 Cambridge Crystallographic Data Centre
#                                CCDC 
#
#######################################################################
#
# If this CIF has been generated from an entry in the Cambridge 
# Structural Database, then it will include bibliographic, chemical, 
# crystal, experimental, refinement or atomic coordinate data resulting 
# from the CCDC's data processing and validation procedures.
#
#######################################################################

data_DIVSOT
_chemical_formula_moiety         'C76 H72 N8 O8 Te4,3.01(C6 H6)'
_chemical_name_systematic        
'(17s,18s,19s,20s)-17,18,19,20-tetra-n-hexyl-2,4,6,8,10,12,14,16-octaoxa-3,7,11,15(5,6)-tetrakis(2,1,3-benzotelluradiazola)-1,5,9,13(1,5,2,4)-tetrabenzenapentacyclo[11.3.1.1^1,5^.1^5,9^.1^9,13^]icosaphane benzene solvate'
_symmetry_cell_setting           monoclinic
_symmetry_space_group_name_H-M   'P 21/c'
_symmetry_Int_Tables_number      14
_space_group_name_Hall           '-P 2ybc'
loop_
_symmetry_equiv_pos_site_id
_symmetry_equiv_pos_as_xyz
1 x,y,z
2 -x,1/2+y,1/2-z
3 -x,-y,-z
4 x,1/2-y,1/2+z
_cell_length_a                   27.33830(10)
_cell_length_b                   26.70500(10)
_cell_length_c                   23.37310(10)
_cell_angle_alpha                90
_cell_angle_beta                 96.7500(10)
_cell_angle_gamma                90
_cell_volume                     16945.7
_exptl_crystal_colour            orange
_exptl_crystal_description       needle
_cell_formula_units_Z            8
_exptl_crystal_recrystallization_method 
'Re-crystallisation from solvent: Benzene/methanol'
loop_
_atom_site_label
_atom_site_type_symbol
_atom_site_fract_x
_atom_site_fract_y
_atom_site_fract_z
Te1 Te 0.57162(2) 0.28843(2) 0.10028(3)
Te2 Te 0.62923(2) 0.13740(3) 0.34026(3)
Te3 Te 0.68083(2) 0.38081(3) 0.46191(3)
Te4 Te 0.61020(3) 0.52493(3) 0.22112(3)
O1 O 0.4665(3) 0.3404(3) 0.5395(3)
O2 O 0.4284(3) 0.1808(2) 0.4497(3)
O3 O 0.4598(3) 0.4376(3) 0.5090(3)
O4 O 0.4081(3) 0.5294(3) 0.3358(3)
O5 O 0.3944(2) 0.1543(3) 0.3391(3)
O6 O 0.3515(3) 0.2447(3) 0.1621(3)
O7 O 0.3765(3) 0.5015(3) 0.2266(3)
O8 O 0.3464(3) 0.3434(3) 0.1308(3)
N1 N 0.5216(3) 0.2404(3) 0.1279(4)
N2 N 0.5162(3) 0.3378(3) 0.0943(4)
N3 N 0.5620(3) 0.1296(3) 0.2989(4)
N4 N 0.6266(3) 0.4321(3) 0.4627(4)
N5 N 0.5947(3) 0.1577(3) 0.4080(4)
N6 N 0.5742(3) 0.5407(3) 0.2887(4)
N7 N 0.5443(4) 0.5075(3) 0.1816(4)
N8 N 0.6314(3) 0.3334(3) 0.4848(4)
C1 C 0.3828(4) 0.4192(3) 0.4556(4)
C2 C 0.5870(4) 0.4106(4) 0.4776(4)
C3 C 0.4344(4) 0.3096(4) 0.5037(4)
C4 C 0.3878(4) 0.3284(4) 0.4853(4)
C5 C 0.4632(4) 0.1709(3) 0.4119(4)
C6 C 0.3560(3) 0.2972(4) 0.4509(4)
H1 H 0.324427 0.309504 0.436275
C7 C 0.4805(4) 0.2639(4) 0.1287(4)
C8 C 0.3116(3) 0.2601(4) 0.3050(4)
H2 H 0.289206 0.280093 0.323195
C9 C 0.5288(4) 0.1419(4) 0.3336(4)
C10 C 0.3382(3) 0.2236(4) 0.3372(5)
C11 C 0.3690(4) 0.2476(3) 0.4367(4)
C12 C 0.3724(4) 0.3807(4) 0.5021(4)
H3 H 0.394255 0.389924 0.537893
C13 C 0.4498(4) 0.2616(4) 0.4906(4)
H4 H 0.482166 0.250095 0.503035
C14 C 0.4364(4) 0.4800(4) 0.4192(5)
H5 H 0.467470 0.496393 0.422732
C15 C 0.3488(4) 0.2387(4) 0.2212(4)
C16 C 0.5894(4) 0.3572(4) 0.4903(5)
C17 C 0.4152(3) 0.2311(4) 0.4581(4)
C18 C 0.4456(4) 0.1572(4) 0.3529(5)
C19 C 0.3473(4) 0.4289(4) 0.4081(4)
H6 H 0.317332 0.410529 0.403966
C20 C 0.5039(3) 0.4132(4) 0.5000(4)
C21 C 0.3755(4) 0.2019(4) 0.2513(5)
H7 H 0.397087 0.181301 0.232585
C22 C 0.5108(4) 0.1706(4) 0.4314(4)
H8 H 0.521042 0.179478 0.470349
C23 C 0.4758(4) 0.3166(4) 0.1101(5)
C24 C 0.5099(4) 0.5139(4) 0.2175(5)
C25 C 0.4354(4) 0.2404(4) 0.1460(4)
H9 H 0.435736 0.206030 0.156345
C26 C 0.3253(3) 0.4408(4) 0.2673(4)
C27 C 0.5483(4) 0.1566(4) 0.3933(5)
C28 C 0.4004(4) 0.4903(4) 0.3738(5)
C29 C 0.4313(4) 0.3431(5) 0.1115(5)
H10 H 0.428552 0.377149 0.099576
C30 C 0.4447(4) 0.5239(4) 0.2990(5)
C31 C 0.5426(4) 0.4376(4) 0.4820(5)
H11 H 0.540178 0.472175 0.472327
C32 C 0.3569(4) 0.4530(4) 0.2246(5)
C33 C 0.4253(4) 0.4447(4) 0.4593(4)
C34 C 0.5053(4) 0.3607(4) 0.5164(4)
C35 C 0.4908(4) 0.5356(4) 0.3153(5)
H12 H 0.500541 0.547319 0.353280
C36 C 0.4765(4) 0.1420(4) 0.3165(5)
H13 H 0.463907 0.131034 0.278928
C37 C 0.3707(3) 0.1947(4) 0.3105(5)
C38 C 0.3163(4) 0.2689(4) 0.2466(5)
C39 C 0.5462(4) 0.3335(4) 0.5109(5)
H14 H 0.547049 0.298876 0.520389
C40 C 0.3039(4) 0.3933(4) 0.2606(5)
H15 H 0.283094 0.383519 0.288458
C41 C 0.3416(4) 0.3750(4) 0.1774(5)
C42 C 0.3918(4) 0.3185(4) 0.1305(5)
C43 C 0.4596(4) 0.5028(4) 0.2005(5)
H16 H 0.448518 0.492444 0.162271
C44 C 0.3639(4) 0.4216(4) 0.1802(4)
H17 H 0.383857 0.431616 0.151611
C45 C 0.2855(4) 0.3086(5) 0.2130(5)
H18 H 0.284426 0.298815 0.171545
C46 C 0.5268(4) 0.5304(4) 0.2752(5)
C47 C 0.3324(3) 0.2143(4) 0.4005(5)
H19 H 0.342902 0.178938 0.408986
C48 C 0.3954(3) 0.2666(4) 0.1471(4)
C49 C 0.3098(4) 0.3595(4) 0.2177(4)
C50 C 0.3179(4) 0.4766(4) 0.3151(5)
H20 H 0.324751 0.511045 0.301389
C51 C 0.3556(4) 0.4653(4) 0.3668(4)
C52 C 0.2794(3) 0.2189(4) 0.4156(5)
H21 H 0.268873 0.254326 0.411370
H22 H 0.257330 0.198799 0.387883
C53 C 0.3198(4) 0.3817(4) 0.5179(5)
H23 H 0.297240 0.368370 0.485165
H24 H 0.310206 0.416748 0.524452
C54 C 0.2568(4) 0.5164(4) 0.3751(5)
H25 H 0.267884 0.549130 0.361392
H26 H 0.277517 0.508215 0.411530
C55 C 0.4278(4) 0.5073(4) 0.2403(5)
C56 C 0.2640(4) 0.4758(4) 0.3298(5)
H27 H 0.241161 0.482066 0.294409
H28 H 0.256403 0.442491 0.344960
C57 C 0.3141(5) 0.3507(4) 0.5719(5)
H29 H 0.335067 0.320474 0.571161
H30 H 0.327309 0.370616 0.606000
C58 C 0.2318(4) 0.3108(5) 0.2253(5)
H31 H 0.231037 0.314684 0.267287
H32 H 0.216032 0.340800 0.206216
C59 C 0.2274(5) 0.3762(5) 0.5866(6)
H33 H 0.226184 0.398297 0.552477
H34 H 0.239185 0.396282 0.621038
C60 C 0.2740(4) 0.2015(5) 0.4764(6)
H35 H 0.285954 0.166575 0.481060
H36 H 0.295013 0.222588 0.504088
C61 C 0.1964(5) 0.5554(5) 0.4357(6)
H37 H 0.210711 0.588245 0.427190
H38 H 0.215760 0.542079 0.470840
C62 C 0.2025(5) 0.5204(5) 0.3865(5)
H39 H 0.182397 0.532680 0.351256
H40 H 0.190215 0.486795 0.395486
C63 C 0.2632(5) 0.3340(5) 0.5804(6)
H41 H 0.265126 0.312828 0.615394
H42 H 0.250161 0.312984 0.547232
C64 C 0.1441(5) 0.5638(6) 0.4486(7)
H43 H 0.124575 0.578058 0.414048
H44 H 0.144252 0.588515 0.480170
C65 C 0.2220(5) 0.2038(5) 0.4907(6)
H45 H 0.200742 0.182943 0.462980
H46 H 0.210064 0.238735 0.486933
C66 C 0.2020(4) 0.2654(6) 0.2052(7)
H47 H 0.215890 0.235682 0.226543
H48 H 0.204550 0.259921 0.163743
C67 C 0.1759(5) 0.3568(6) 0.5923(7)
H49 H 0.163462 0.339074 0.556310
H50 H 0.178068 0.332106 0.624029
C68 C 0.2182(8) 0.1853(6) 0.5517(7)
H51 H 0.241218 0.205411 0.578321
H52 H 0.184496 0.192871 0.560803
C69 C 0.1193(7) 0.5153(7) 0.4660(9)
H53 H 0.112756 0.493438 0.432276
H54 H 0.088226 0.523475 0.480850
H55 H 0.141187 0.498064 0.495931
C70 C 0.1481(5) 0.2710(7) 0.2141(10)
H56 H 0.145259 0.268431 0.255859
H57 H 0.136950 0.304963 0.201484
C71 C 0.0376(9) 0.2917(7) 0.1681(12)
H58 H 0.002875 0.292858 0.174677
H59 H 0.055530 0.319028 0.189215
H60 H 0.040130 0.295320 0.126812
C72 C 0.1391(7) 0.3966(7) 0.6038(13)
H61 H 0.150977 0.429415 0.592687
H62 H 0.135013 0.396804 0.644859
H63 H 0.107348 0.389407 0.581190
C73 C 0.2283(6) 0.1304(6) 0.5656(10)
H64 H 0.260294 0.120480 0.552997
H65 H 0.230144 0.124954 0.607684
C74 C 0.1874(10) 0.0989(10) 0.5347(16)
H66 H 0.193718 0.063466 0.543532
H67 H 0.155881 0.108691 0.547631
H68 H 0.185949 0.104230 0.493094
C75 C 0.0597(7) 0.2418(8) 0.1891(10)
H69 H 0.040268 0.214773 0.168287
H70 H 0.055608 0.238389 0.230446
C76 C 0.1138(6) 0.2329(8) 0.1825(10)
H71 H 0.123206 0.199048 0.197105
H72 H 0.118052 0.233808 0.141015
Te5 Te 0.57294(2) 0.16809(2) 0.18898(3)
Te6 Te 0.65001(2) 0.24230(2) 0.44942(3)
Te7 Te 0.56063(2) 0.42900(3) 0.11044(3)
Te8 Te 0.64367(3) 0.50115(3) 0.38312(3)
O9 O 0.7708(2) 0.3699(3) 0.0317(3)
O10 O 0.7899(3) 0.4600(3) 0.0820(3)
O11 O 0.7796(3) 0.1974(3) 0.0874(3)
O12 O 0.8736(3) 0.4548(3) 0.3728(3)
O13 O 0.8063(3) 0.1413(3) 0.1835(3)
O14 O 0.8654(3) 0.1897(3) 0.3764(3)
O15 O 0.8497(3) 0.5085(3) 0.2752(4)
O16 O 0.8792(3) 0.2791(3) 0.4247(3)
N9 N 0.6373(3) 0.1375(3) 0.2222(4)
N10 N 0.7099(3) 0.2865(3) 0.4586(4)
N11 N 0.6023(3) 0.3808(3) 0.0737(4)
N12 N 0.6135(3) 0.1995(4) 0.1326(4)
N13 N 0.6965(3) 0.1922(4) 0.4186(4)
N14 N 0.6227(3) 0.4717(3) 0.1230(4)
N15 N 0.7067(4) 0.4698(3) 0.4171(4)
N16 N 0.6839(4) 0.5256(3) 0.3212(4)
C77 C 0.6484(4) 0.3994(4) 0.0754(5)
C78 C 0.7435(4) 0.4412(4) 0.0835(5)
C79 C 0.7422(4) 0.4777(4) 0.3837(5)
C80 C 0.7994(4) 0.2444(4) 0.0888(4)
C81 C 0.6584(4) 0.4483(4) 0.1022(5)
C82 C 0.7955(4) 0.3308(4) 0.0613(4)
C83 C 0.7480(4) 0.2638(4) 0.4406(5)
C84 C 0.7736(4) 0.2856(4) 0.0655(4)
H73 H 0.739629 0.282191 0.052067
C85 C 0.8319(4) 0.2607(5) 0.4205(5)
C86 C 0.8233(4) 0.4525(4) 0.1320(5)
C87 C 0.6590(4) 0.1858(4) 0.1424(4)
C88 C 0.6733(4) 0.1527(4) 0.1934(5)
C89 C 0.7586(4) 0.1556(4) 0.1731(5)
C90 C 0.7231(4) 0.1380(4) 0.2060(5)
H74 H 0.732374 0.115930 0.237240
C91 C 0.8373(4) 0.1712(4) 0.2203(5)
C92 C 0.8253(4) 0.2118(4) 0.3976(5)
C93 C 0.8535(4) 0.4768(4) 0.2281(5)
C94 C 0.6875(4) 0.3730(4) 0.0524(5)
H75 H 0.681032 0.341501 0.034088
C95 C 0.8448(4) 0.3385(4) 0.0818(5)
C96 C 0.8115(4) 0.4979(4) 0.3078(5)
C97 C 0.7283(4) 0.5081(4) 0.3313(5)
C98 C 0.9166(4) 0.3963(5) 0.3186(5)
C99 C 0.7401(4) 0.2121(4) 0.4184(5)
C100 C 0.8190(4) 0.4817(4) 0.1794(5)
H76 H 0.792717 0.504959 0.179219
C101 C 0.8238(4) 0.4686(4) 0.3598(4)
C102 C 0.8696(4) 0.3893(5) 0.0771(5)
H77 H 0.850433 0.406997 0.044022
C103 C 0.7950(4) 0.2864(4) 0.4424(5)
H78 H 0.800786 0.318877 0.458456
C104 C 0.8505(4) 0.2496(4) 0.1098(5)
C105 C 0.9197(4) 0.3090(5) 0.3462(5)
C106 C 0.8667(4) 0.1954(4) 0.3170(5)
C107 C 0.7334(4) 0.3925(4) 0.0566(4)
C108 C 0.7429(4) 0.1868(4) 0.1236(4)
C109 C 0.8739(4) 0.1999(4) 0.1997(5)
C110 C 0.8731(4) 0.3669(4) 0.3972(5)
H79 H 0.853638 0.373841 0.427319
C111 C 0.8703(4) 0.2962(4) 0.1062(5)
H80 H 0.903858 0.300503 0.121210
C112 C 0.7073(4) 0.4678(4) 0.1050(5)
H81 H 0.714675 0.499607 0.121952
C113 C 0.7899(4) 0.4589(5) 0.3968(5)
H82 H 0.798603 0.439775 0.430704
C114 C 0.7810(4) 0.1867(4) 0.3984(5)
H83 H 0.777725 0.152923 0.385724
C115 C 0.8871(4) 0.4054(4) 0.3614(5)
C116 C 0.9322(4) 0.4401(5) 0.2810(5)
H84 H 0.930384 0.471398 0.304129
C117 C 0.7652(5) 0.5173(4) 0.2957(6)
H85 H 0.757797 0.537507 0.262373
C118 C 0.9034(4) 0.2247(5) 0.2977(5)
C119 C 0.8343(4) 0.1692(4) 0.2794(5)
H86 H 0.809469 0.149387 0.293625
C120 C 0.8784(4) 0.2034(4) 0.1341(5)
H87 H 0.860718 0.173672 0.115717
C121 C 0.8883(4) 0.3191(5) 0.3873(5)
C122 C 0.8977(4) 0.4160(5) 0.1786(5)
H88 H 0.924444 0.393346 0.178456
C123 C 0.8636(4) 0.4199(4) 0.1300(6)
C124 C 0.9323(4) 0.3480(5) 0.3114(5)
H89 H 0.952289 0.341182 0.281722
C125 C 0.6966(4) 0.2010(5) 0.1098(5)
H90 H 0.688575 0.221885 0.077185
C126 C 0.9853(4) 0.4357(6) 0.2668(6)
H91 H 0.992661 0.464988 0.243294
H92 H 0.988032 0.405353 0.243127
C127 C 0.9067(4) 0.2266(4) 0.2389(5)
H93 H 0.931715 0.246346 0.224988
C128 C 0.9303(4) 0.2015(5) 0.1182(5)
H94 H 0.947285 0.171593 0.135946
H95 H 0.948590 0.231523 0.133625
C129 C 0.8936(4) 0.4451(4) 0.2288(5)
C130 C 0.9405(4) 0.2551(5) 0.3395(5)
H96 H 0.941101 0.238819 0.378064
C131 C 0.9913(4) 0.2538(6) 0.3251(5)
H97 H 0.992487 0.269767 0.287098
H98 H 1.001650 0.218462 0.322046
C132 C 0.9228(5) 0.3852(5) 0.0621(6)
H99 H 0.937146 0.419326 0.062949
H100 H 0.942218 0.365504 0.092665
C133 C 0.9291(5) 0.3624(6) 0.0062(7)
H101 H 0.911148 0.382157 -0.025426
H102 H 0.915720 0.327924 0.004364
C134 C 1.0286(6) 0.2811(7) 0.3709(7)
H103 H 1.016492 0.315461 0.376927
H104 H 1.029966 0.263078 0.408085
C135 C 0.9306(6) 0.1994(7) 0.0522(7)
H105 H 0.915727 0.167311 0.037762
H106 H 0.909674 0.226817 0.034408
C136 C 1.2010(6) 0.3545(6) 0.4086(9)
H107 H 1.205553 0.386070 0.388493
H108 H 1.232419 0.336603 0.414987
H109 H 1.189106 0.361540 0.445708
C137 C 0.9810(6) 0.2039(8) 0.0334(9)
H110 H 0.977289 0.213904 -0.007644
H111 H 0.998648 0.231248 0.055702
C138 C 1.0242(4) 0.4329(7) 0.3197(6)
H112 H 1.016721 0.459244 0.347144
H113 H 1.020671 0.400185 0.338721
C139 C 1.0788(5) 0.2841(6) 0.3535(7)
H114 H 1.076341 0.298349 0.314201
H115 H 1.091674 0.249542 0.351361
C140 C 1.1174(5) 0.3154(7) 0.3930(7)
H116 H 1.102400 0.348422 0.399209
H117 H 1.122589 0.298523 0.430964
C141 C 0.9838(6) 0.3613(9) -0.0005(9)
H118 H 0.996591 0.395734 0.006404
H119 H 1.000133 0.340110 0.030842
C142 C 1.0778(6) 0.4387(13) 0.3089(10)
H120 H 1.087795 0.473730 0.317807
H121 H 1.098109 0.416955 0.336594
C143 C 1.1657(7) 0.3243(8) 0.3743(10)
H122 H 1.181014 0.291190 0.369632
H123 H 1.160187 0.339680 0.335507
C144 C 1.0123(7) 0.1585(9) 0.0398(16)
H124 H 1.014086 0.146355 0.080015
H125 H 1.046083 0.167306 0.032136
C145 C 0.9907(8) 0.1121(10) -0.0053(12)
H126 H 0.957649 0.102663 0.004436
H127 H 0.986325 0.125864 -0.044843
C146 C 1.0185(8) 0.0684(11) -0.0061(17)
H128 H 1.051637 0.076728 -0.015200
H129 H 1.002630 0.045577 -0.035390
H130 H 1.020805 0.052271 0.031792
C147 C 1.0902(7) 0.4265(11) 0.2488(10)
H131 H 1.068030 0.446281 0.220776
H132 H 1.082765 0.390713 0.241059
C148 C 1.1433(6) 0.4363(9) 0.2373(9)
H133 H 1.165543 0.415023 0.263366
H134 H 1.151544 0.471703 0.246741
C149 C 1.0011(7) 0.3433(11) -0.0563(8)
H135 H 0.989169 0.367103 -0.087277
H136 H 0.985458 0.310498 -0.066349
C150 C 1.0833(11) 0.3055(11) -0.0083(12)
H137 H 1.085859 0.323983 0.028153
H138 H 1.116320 0.297442 -0.017824
H139 H 1.064826 0.274412 -0.004458
C151 C 1.0565(7) 0.3374(11) -0.0559(10)
H140 H 1.071406 0.371234 -0.053473
H141 H 1.062724 0.322875 -0.093375
C152 C 1.1529(9) 0.4262(11) 0.1752(10)
H142 H 1.187536 0.433297 0.171126
H143 H 1.145742 0.391039 0.165599
H144 H 1.131722 0.447801 0.148950
C153 C 0.5944(6) 0.4749(5) -0.0419(6)
H145 H 0.584796 0.442138 -0.054580
C154 C 0.5588(6) 0.5085(6) -0.0308(7)
H146 H 0.524955 0.499594 -0.036870
C155 C 0.5724(7) 0.5535(6) -0.0115(7)
H147 H 0.547406 0.576465 -0.003856
C156 C 0.6432(6) 0.4872(6) -0.0351(7)
H148 H 0.667907 0.464334 -0.043939
C157 C 0.6197(8) 0.5688(6) -0.0019(7)
H149 H 0.628006 0.601253 0.012726
C158 C 0.6550(6) 0.5360(6) -0.0141(8)
H150 H 0.688504 0.546126 -0.008326
C159 C 0.8160(8) 0.0496(7) 0.4176(9)
H151 H 0.836876 0.056373 0.452132
C160 C 0.8014(7) 0.0482(7) 0.3136(9)
H152 H 0.810950 0.052931 0.276230
C161 C 0.7522(7) 0.0350(7) 0.3207(8)
H153 H 0.728946 0.029008 0.287892
C162 C 0.8360(7) 0.0542(7) 0.3632(9)
H154 H 0.869863 0.060718 0.360933
C163 C 0.7710(8) 0.0367(8) 0.4209(9)
H155 H 0.760100 0.031065 0.457540
C164 C 0.7389(7) 0.0313(7) 0.3721(9)
H156 H 0.705341 0.024369 0.375767
C165 C 0.2694(4) 0.1206(4) 0.2943(5)
H157 H 0.296008 0.123880 0.271830
C166 C 0.2225(5) 0.1361(4) 0.2722(4)
H158 H 0.216958 0.150085 0.234589
C167 C 0.1835(4) 0.1313(4) 0.3051(6)
H159 H 0.151436 0.141936 0.289956
C168 C 0.1916(3) 0.1109(4) 0.3601(6)
H160 H 0.164964 0.107581 0.382564
C169 C 0.2385(4) 0.0953(4) 0.3822(4)
H161 H 0.244014 0.081376 0.419807
C170 C 0.2774(3) 0.1002(4) 0.3493(5)
H162 H 0.309537 0.089525 0.364440
C171 C 0.6957(10) 0.3109(11) 0.2919(14)
H163 H 0.669637 0.298423 0.311379
C172 C 0.7323(12) 0.2786(9) 0.2776(14)
H164 H 0.731179 0.244114 0.287241
C173 C 0.7704(11) 0.2968(12) 0.2490(16)
H165 H 0.795407 0.274778 0.239241
C174 C 0.7720(11) 0.3473(13) 0.2349(16)
H166 H 0.798094 0.359752 0.215377
C175 C 0.7355(12) 0.3796(9) 0.2492(14)
H167 H 0.736552 0.414063 0.239514
C176 C 0.6973(11) 0.3613(10) 0.2777(15)
H168 H 0.672323 0.383399 0.287515
C177 C 0.5408(10) 0.3639(12) 0.2944(15)
H169 H 0.569704 0.381197 0.286868
C178 C 0.5045(12) 0.3887(8) 0.3203(14)
H170 H 0.508633 0.422998 0.330532
C179 C 0.4622(10) 0.3633(10) 0.3314(13)
H171 H 0.437445 0.380288 0.349107
C180 C 0.4562(10) 0.3131(10) 0.3165(14)
H172 H 0.427326 0.295778 0.324019
C181 C 0.4925(13) 0.2883(9) 0.2905(15)
H173 H 0.488396 0.253977 0.280356
C182 C 0.5348(11) 0.3137(12) 0.2795(15)
H174 H 0.559585 0.296685 0.261780
C183 C 0.9699(6) 0.5697(7) 0.3101(10)
H175 H 0.947924 0.558871 0.336091
C184 C 1.0204(7) 0.5698(7) 0.3270(8)
H176 H 1.032888 0.558923 0.364607
C185 C 1.0526(5) 0.5856(7) 0.2889(11)
H177 H 1.087103 0.585654 0.300475
C186 C 1.0343(8) 0.6015(7) 0.2339(10)
H178 H 1.056356 0.612332 0.207827
C187 C 0.9839(8) 0.6014(8) 0.2169(10)
H179 H 0.971392 0.612280 0.179310
C188 C 0.9517(5) 0.5856(8) 0.2550(11)
H180 H 0.917176 0.585549 0.243441
H181? H 0.223472 0.236516 0.217161
H182? H 0.199648 0.266516 0.162603
H183? H 0.264222 0.124851 0.574650
H184? H 0.212117 0.120469 0.599561
C189? C 0.1171(13) 0.2910(16) 0.191(2)
H185? H 0.125384 0.322775 0.211598
H186? H 0.124456 0.295625 0.150684
C190? C 0.1509(8) 0.2502(17) 0.219(2)
H187? H 0.141601 0.217045 0.201774
H188? H 0.149533 0.248900 0.260680
C191? C 0.0621(13) 0.2820(19) 0.190(3)
H189? H 0.054977 0.250137 0.168652
H190? H 0.056193 0.275698 0.230028
C192? C 0.0225(19) 0.319(2) 0.165(3)
H191? H -0.010071 0.304887 0.169195
H192? H 0.026713 0.350503 0.186338
H193? H 0.025486 0.324703 0.124387
C193? C 0.208(5) 0.0991(15) 0.514(3)
H194? H 0.214809 0.063592 0.522158
H195? H 0.172914 0.104591 0.505192
H196? H 0.224860 0.108960 0.480357
H197? H 0.900975 0.374379 -0.020868
H198? H 0.923845 0.326049 0.011074
H199? H 1.012948 0.451265 0.352520
H200? H 1.030590 0.397614 0.331270
C194? C 0.9740(17) 0.367(2) -0.026(3)
H201? H 0.964928 0.366542 -0.068624
H202? H 0.993910 0.396786 -0.014913
C195? C 0.9999(19) 0.319(2) -0.005(3)
H203? H 0.976764 0.290493 -0.014016
H204? H 1.006942 0.320709 0.037399
C196? C 1.048(2) 0.306(2) -0.029(3)
H205? H 1.069956 0.335422 -0.023002
H206? H 1.040250 0.301430 -0.071356
C197? C 1.075(2) 0.260(2) -0.004(3)
H207? H 1.057785 0.229877 -0.018917
H208? H 1.077007 0.260885 0.037896
H209? H 1.108631 0.260033 -0.015530
C198? C 1.0706(13) 0.457(2) 0.302(2)
H210? H 1.090468 0.459163 0.339743
H211? H 1.084478 0.427624 0.283160
C199? C 1.095(3) 0.499(2) 0.271(2)
H212? H 1.127363 0.505842 0.292500
H213? H 1.074534 0.529177 0.271805
C200? C 1.103(3) 0.489(3) 0.208(2)
H214? H 1.135663 0.473650 0.207622
H215? H 1.102760 0.521348 0.188006
C201? C 1.065(3) 0.455(4) 0.174(3)
H216? H 1.073487 0.451117 0.134662
H217? H 1.065172 0.421975 0.192563
H218? H 1.032165 0.469825 0.172884
C202? C 0.6887(10) 0.2990(11) 0.2536(16)
H219? H 0.660231 0.279604 0.257880
C203? C 0.7350(12) 0.2767(9) 0.2606(16)
H220? H 0.738099 0.242049 0.269699
C204? C 0.7767(10) 0.3050(14) 0.2543(19)
H221? H 0.808269 0.289732 0.259056
C205? C 0.7721(11) 0.3556(13) 0.241(2)
H222? H 0.800572 0.374971 0.236593
C206? C 0.7258(13) 0.3779(10) 0.2339(17)
H223? H 0.722705 0.412528 0.224773
C207? C 0.6841(10) 0.3496(11) 0.2402(16)
H224? H 0.652534 0.364845 0.235417
C208? C 0.4883(12) 0.3669(10) 0.2602(12)
H225? H 0.483350 0.392775 0.232287
C209? C 0.4547(10) 0.3603(10) 0.3000(14)
H226? H 0.426913 0.381703 0.299131
C210? C 0.4620(11) 0.3224(12) 0.3409(12)
H227? H 0.439039 0.317930 0.367996
C211? C 0.5027(12) 0.2911(10) 0.3421(13)
H228? H 0.507603 0.265230 0.370016
C212? C 0.5362(10) 0.2977(11) 0.3024(15)
H229? H 0.564041 0.276301 0.303173
C213? C 0.5290(10) 0.3356(12) 0.2614(12)
H230? H 0.551915 0.340073 0.234308
C214? C 0.9050(8) 0.5229(10) 0.0452(16)
H231? H 0.870196 0.526881 0.039881
C215? C 0.9306(12) 0.5264(11) 0.1001(14)
H232? H 0.913263 0.532785 0.132260
C216? C 0.9814(12) 0.5206(13) 0.1078(14)
H233? H 0.998912 0.523032 0.145308
C217? C 1.0067(8) 0.5113(12) 0.0607(17)
H234? H 1.041494 0.507377 0.065977
C218? C 0.9811(10) 0.5078(13) 0.0058(15)
H235? H 0.998429 0.501474 -0.026403
C219? C 0.9303(10) 0.5136(12) -0.0019(14)
H236? H 0.912779 0.511226 -0.039452
loop_
_geom_bond_atom_site_label_1
_geom_bond_atom_site_label_2
_geom_bond_site_symmetry_1
_geom_bond_site_symmetry_2
Te1 N1 1_555 1_555
Te2 N3 1_555 1_555
Te3 N4 1_555 1_555
Te4 N6 1_555 1_555
O1 C3 1_555 1_555
O2 C5 1_555 1_555
O3 C20 1_555 1_555
O4 C28 1_555 1_555
O5 C18 1_555 1_555
O6 C15 1_555 1_555
O7 C32 1_555 1_555
O8 C41 1_555 1_555
N1 C7 1_555 1_555
N2 Te1 1_555 1_555
N3 C9 1_555 1_555
N4 C2 1_555 1_555
N5 Te2 1_555 1_555
N6 C46 1_555 1_555
N7 Te4 1_555 1_555
N8 Te3 1_555 1_555
C1 C12 1_555 1_555
C2 C16 1_555 1_555
C3 C4 1_555 1_555
C4 C6 1_555 1_555
C5 C18 1_555 1_555
C6 H1 1_555 1_555
C7 C23 1_555 1_555
C8 H2 1_555 1_555
C9 C27 1_555 1_555
C10 C8 1_555 1_555
C11 C6 1_555 1_555
C12 C4 1_555 1_555
H3 C12 1_555 1_555
C13 C3 1_555 1_555
H4 C13 1_555 1_555
C14 H5 1_555 1_555
C15 C21 1_555 1_555
C16 N8 1_555 1_555
C17 O2 1_555 1_555
C18 C36 1_555 1_555
C19 C1 1_555 1_555
H6 C19 1_555 1_555
C20 C31 1_555 1_555
C21 H7 1_555 1_555
C22 C5 1_555 1_555
H8 C22 1_555 1_555
C23 N2 1_555 1_555
C24 N7 1_555 1_555
C25 C7 1_555 1_555
H9 C25 1_555 1_555
C26 C32 1_555 1_555
C27 N5 1_555 1_555
C28 C14 1_555 1_555
C29 C23 1_555 1_555
H10 C29 1_555 1_555
C30 O4 1_555 1_555
C31 C2 1_555 1_555
H11 C31 1_555 1_555
C32 C44 1_555 1_555
C33 O3 1_555 1_555
C34 O1 1_555 1_555
C35 C30 1_555 1_555
H12 C35 1_555 1_555
C36 C9 1_555 1_555
H13 C36 1_555 1_555
C37 O5 1_555 1_555
C38 C8 1_555 1_555
C39 C16 1_555 1_555
H14 C39 1_555 1_555
C40 C26 1_555 1_555
H15 C40 1_555 1_555
C41 C44 1_555 1_555
C42 O8 1_555 1_555
C43 C24 1_555 1_555
H16 C43 1_555 1_555
C44 H17 1_555 1_555
C45 C38 1_555 1_555
H18 C45 1_555 1_555
C46 C24 1_555 1_555
C47 C10 1_555 1_555
H19 C47 1_555 1_555
C48 O6 1_555 1_555
C49 C40 1_555 1_555
C50 C26 1_555 1_555
H20 C50 1_555 1_555
C51 C19 1_555 1_555
C52 C47 1_555 1_555
H21 C52 1_555 1_555
H22 C52 1_555 1_555
C53 C12 1_555 1_555
H23 C53 1_555 1_555
H24 C53 1_555 1_555
C54 H25 1_555 1_555
H26 C54 1_555 1_555
C55 O7 1_555 1_555
C56 C50 1_555 1_555
H27 C56 1_555 1_555
H28 C56 1_555 1_555
C57 C53 1_555 1_555
H29 C57 1_555 1_555
H30 C57 1_555 1_555
C58 C45 1_555 1_555
H31 C58 1_555 1_555
H32 C58 1_555 1_555
C59 H33 1_555 1_555
H34 C59 1_555 1_555
C60 C52 1_555 1_555
H35 C60 1_555 1_555
H36 C60 1_555 1_555
C61 H37 1_555 1_555
H38 C61 1_555 1_555
C62 C54 1_555 1_555
H39 C62 1_555 1_555
H40 C62 1_555 1_555
C63 C57 1_555 1_555
H41 C63 1_555 1_555
H42 C63 1_555 1_555
C64 C61 1_555 1_555
H43 C64 1_555 1_555
H44 C64 1_555 1_555
C65 C60 1_555 1_555
H45 C65 1_555 1_555
H46 C65 1_555 1_555
C66 C58 1_555 1_555
H47 C66 1_555 1_555
H48 C66 1_555 1_555
C67 C59 1_555 1_555
H49 C67 1_555 1_555
H50 C67 1_555 1_555
C68 C65 1_555 1_555
H51 C68 1_555 1_555
H52 C68 1_555 1_555
C69 C64 1_555 1_555
H53 C69 1_555 1_555
H54 C69 1_555 1_555
H55 C69 1_555 1_555
C70 C66 1_555 1_555
H56 C70 1_555 1_555
H57 C70 1_555 1_555
C71 H58 1_555 1_555
H59 C71 1_555 1_555
H60 C71 1_555 1_555
C72 C67 1_555 1_555
H61 C72 1_555 1_555
H62 C72 1_555 1_555
H63 C72 1_555 1_555
C73 C68 1_555 1_555
H64 C73 1_555 1_555
H65 C73 1_555 1_555
C74 C73 1_555 1_555
H66 C74 1_555 1_555
H67 C74 1_555 1_555
H68 C74 1_555 1_555
C75 C71 1_555 1_555
H69 C75 1_555 1_555
H70 C75 1_555 1_555
C76 C70 1_555 1_555
H71 C76 1_555 1_555
H72 C76 1_555 1_555
Te5 N9 1_555 1_555
Te6 N10 1_555 1_555
Te7 N11 1_555 1_555
Te8 N15 1_555 1_555
O9 C82 1_555 1_555
O10 C78 1_555 1_555
O11 C80 1_555 1_555
O12 C101 1_555 1_555
O13 C89 1_555 1_555
O14 C92 1_555 1_555
O15 C93 1_555 1_555
O16 C85 1_555 1_555
N9 C88 1_555 1_555
N10 C83 1_555 1_555
N11 C77 1_555 1_555
N12 Te5 1_555 1_555
N13 Te6 1_555 1_555
N14 Te7 1_555 1_555
N15 C79 1_555 1_555
N16 Te8 1_555 1_555
C77 C81 1_555 1_555
C78 C107 1_555 1_555
C79 C97 1_555 1_555
C80 C84 1_555 1_555
C81 N14 1_555 1_555
C82 C84 1_555 1_555
C83 C99 1_555 1_555
C84 H73 1_555 1_555
C85 C92 1_555 1_555
C86 O10 1_555 1_555
C87 N12 1_555 1_555
C88 C87 1_555 1_555
C89 C90 1_555 1_555
C90 C88 1_555 1_555
H74 C90 1_555 1_555
C91 O13 1_555 1_555
C92 C114 1_555 1_555
C93 C100 1_555 1_555
C94 C77 1_555 1_555
H75 C94 1_555 1_555
C95 C82 1_555 1_555
C96 O15 1_555 1_555
C97 N16 1_555 1_555
C98 C115 1_555 1_555
C99 N13 1_555 1_555
C100 C86 1_555 1_555
H76 C100 1_555 1_555
C101 C96 1_555 1_555
C102 C95 1_555 1_555
H77 C102 1_555 1_555
C103 C83 1_555 1_555
H78 C103 1_555 1_555
C104 C80 1_555 1_555
C105 C121 1_555 1_555
C106 O14 1_555 1_555
C107 O9 1_555 1_555
C108 O11 1_555 1_555
C109 C91 1_555 1_555
C110 H79 1_555 1_555
C111 C95 1_555 1_555
H80 C111 1_555 1_555
C112 C78 1_555 1_555
H81 C112 1_555 1_555
C113 C79 1_555 1_555
H82 C113 1_555 1_555
C114 C99 1_555 1_555
H83 C114 1_555 1_555
C115 O12 1_555 1_555
C116 C98 1_555 1_555
H84 C116 1_555 1_555
C117 C96 1_555 1_555
H85 C117 1_555 1_555
C118 C106 1_555 1_555
C119 C91 1_555 1_555
H86 C119 1_555 1_555
C120 C104 1_555 1_555
H87 C120 1_555 1_555
C121 O16 1_555 1_555
C122 H88 1_555 1_555
C123 C86 1_555 1_555
C124 C98 1_555 1_555
H89 C124 1_555 1_555
C125 C87 1_555 1_555
H90 C125 1_555 1_555
C126 C116 1_555 1_555
H91 C126 1_555 1_555
H92 C126 1_555 1_555
C127 C109 1_555 1_555
H93 C127 1_555 1_555
C128 C120 1_555 1_555
H94 C128 1_555 1_555
H95 C128 1_555 1_555
C129 C93 1_555 1_555
C130 C105 1_555 1_555
H96 C130 1_555 1_555
C131 C130 1_555 1_555
H97 C131 1_555 1_555
H98 C131 1_555 1_555
C132 C102 1_555 1_555
H99 C132 1_555 1_555
H100 C132 1_555 1_555
C133 C132 1_555 1_555
H101 C133 1_555 1_555
H102 C133 1_555 1_555
C134 C131 1_555 1_555
H103 C134 1_555 1_555
H104 C134 1_555 1_555
C135 C128 1_555 1_555
H105 C135 1_555 1_555
H106 C135 1_555 1_555
C136 H107 1_555 1_555
H108 C136 1_555 1_555
H109 C136 1_555 1_555
C137 C135 1_555 1_555
H110 C137 1_555 1_555
H111 C137 1_555 1_555
C138 C126 1_555 1_555
H112 C138 1_555 1_555
H113 C138 1_555 1_555
C139 C134 1_555 1_555
H114 C139 1_555 1_555
H115 C139 1_555 1_555
C140 C139 1_555 1_555
H116 C140 1_555 1_555
H117 C140 1_555 1_555
C141 C133 1_555 1_555
H118 C141 1_555 1_555
H119 C141 1_555 1_555
C142 C138 1_555 1_555
H120 C142 1_555 1_555
H121 C142 1_555 1_555
C143 C136 1_555 1_555
H122 C143 1_555 1_555
H123 C143 1_555 1_555
C144 C137 1_555 1_555
H124 C144 1_555 1_555
H125 C144 1_555 1_555
C145 C144 1_555 1_555
H126 C145 1_555 1_555
H127 C145 1_555 1_555
C146 C145 1_555 1_555
H128 C146 1_555 1_555
H129 C146 1_555 1_555
H130 C146 1_555 1_555
C147 C142 1_555 1_555
H131 C147 1_555 1_555
H132 C147 1_555 1_555
C148 C147 1_555 1_555
H133 C148 1_555 1_555
H134 C148 1_555 1_555
C149 C141 1_555 1_555
H135 C149 1_555 1_555
H136 C149 1_555 1_555
C150 H137 1_555 1_555
H138 C150 1_555 1_555
H139 C150 1_555 1_555
C151 C149 1_555 1_555
H140 C151 1_555 1_555
H141 C151 1_555 1_555
C152 C148 1_555 1_555
H142 C152 1_555 1_555
H143 C152 1_555 1_555
H144 C152 1_555 1_555
C153 H145 1_555 1_555
C154 C153 1_555 1_555
H146 C154 1_555 1_555
C155 C154 1_555 1_555
H147 C155 1_555 1_555
C156 C153 1_555 1_555
H148 C156 1_555 1_555
C157 C155 1_555 1_555
H149 C157 1_555 1_555
C158 C156 1_555 1_555
H150 C158 1_555 1_555
C159 H151 1_555 1_555
C160 H152 1_555 1_555
C161 C160 1_555 1_555
H153 C161 1_555 1_555
C162 C159 1_555 1_555
H154 C162 1_555 1_555
C163 C159 1_555 1_555
H155 C163 1_555 1_555
C164 C161 1_555 1_555
H156 C164 1_555 1_555
C165 H157 1_555 1_555
C166 C165 1_555 1_555
H158 C166 1_555 1_555
C167 C166 1_555 1_555
H159 C167 1_555 1_555
C168 C167 1_555 1_555
H160 C168 1_555 1_555
C169 C168 1_555 1_555
H161 C169 1_555 1_555
C170 C165 1_555 1_555
H162 C170 1_555 1_555
C171 H163 1_555 1_555
C172 C171 1_555 1_555
H164 C172 1_555 1_555
C173 C172 1_555 1_555
H165 C173 1_555 1_555
C174 C173 1_555 1_555
H166 C174 1_555 1_555
C175 C174 1_555 1_555
H167 C175 1_555 1_555
C176 C171 1_555 1_555
H168 C176 1_555 1_555
C177 H169 1_555 1_555
C178 C177 1_555 1_555
H170 C178 1_555 1_555
C179 C178 1_555 1_555
H171 C179 1_555 1_555
C180 C179 1_555 1_555
H172 C180 1_555 1_555
C181 C180 1_555 1_555
H173 C181 1_555 1_555
C182 C177 1_555 1_555
H174 C182 1_555 1_555
C183 H175 1_555 1_555
C184 C183 1_555 1_555
H176 C184 1_555 1_555
C185 C184 1_555 1_555
H177 C185 1_555 1_555
C186 C185 1_555 1_555
H178 C186 1_555 1_555
C187 C186 1_555 1_555
H179 C187 1_555 1_555
C188 C183 1_555 1_555
H180 C188 1_555 1_555
C1 C33 1_555 1_555
C10 C37 1_555 1_555
C11 C17 1_555 1_555
C11 C47 1_555 1_555
C13 C17 1_555 1_555
C14 C33 1_555 1_555
C15 C38 1_555 1_555
C20 C34 1_555 1_555
C21 C37 1_555 1_555
C22 C27 1_555 1_555
C25 C48 1_555 1_555
C28 C51 1_555 1_555
C29 C42 1_555 1_555
C30 C55 1_555 1_555
C34 C39 1_555 1_555
C35 C46 1_555 1_555
C41 C49 1_555 1_555
C42 C48 1_555 1_555
C43 C55 1_555 1_555
C45 C49 1_555 1_555
C50 C51 1_555 1_555
C54 C56 1_555 1_555
C59 C63 1_555 1_555
C61 C62 1_555 1_555
C75 C76 1_555 1_555
C81 C112 1_555 1_555
C85 C103 1_555 1_555
C89 C108 1_555 1_555
C94 C107 1_555 1_555
C97 C117 1_555 1_555
C101 C113 1_555 1_555
C102 C123 1_555 1_555
C104 C111 1_555 1_555
C105 C124 1_555 1_555
C106 C119 1_555 1_555
C108 C125 1_555 1_555
C109 C120 1_555 1_555
C110 C115 1_555 1_555
C110 C121 1_555 1_555
C116 C129 1_555 1_555
C118 C127 1_555 1_555
C118 C130 1_555 1_555
C122 C123 1_555 1_555
C122 C129 1_555 1_555
C140 C143 1_555 1_555
C150 C151 1_555 1_555
C157 C158 1_555 1_555
C160 C162 1_555 1_555
C163 C164 1_555 1_555
C169 C170 1_555 1_555
C175 C176 1_555 1_555
C181 C182 1_555 1_555
C187 C188 1_555 1_555

#END
