
#######################################################################
#
#                 Cambridge Crystallographic Data Centre
#                                CCDC 
#
#######################################################################
#
# If this CIF has been generated from an entry in the Cambridge 
# Structural Database, then it will include bibliographic, chemical, 
# crystal, experimental, refinement or atomic coordinate data resulting 
# from the CCDC's data processing and validation procedures.
#
#######################################################################

data_DIVSUZ
_chemical_formula_moiety         'C76 H72 N8 O8 Te4,1.25(C6 H6)'
_chemical_name_systematic        
'(17s,18s,19s,20s)-17,18,19,20-tetra-n-hexyl-2,4,6,8,10,12,14,16-octaoxa-3,7,11,15(5,6)-tetrakis(2,1,3-benzotelluradiazola)-1,5,9,13(1,5,2,4)-tetrabenzenapentacyclo[11.3.1.1^1,5^.1^5,9^.1^9,13^]icosaphane benzene solvate'
_symmetry_cell_setting           triclinic
_symmetry_space_group_name_H-M   'P -1'
_symmetry_Int_Tables_number      2
_space_group_name_Hall           '-P 1'
loop_
_symmetry_equiv_pos_site_id
_symmetry_equiv_pos_as_xyz
1 x,y,z
2 -x,-y,-z
_cell_length_a                   16.5711(7)
_cell_length_b                   19.5936(8)
_cell_length_c                   23.8576(10)
_cell_angle_alpha                78.657(4)
_cell_angle_beta                 85.715(4)
_cell_angle_gamma                82.867(3)
_cell_volume                     7526.1
_exptl_crystal_colour            orange
_exptl_crystal_description       needle
_cell_formula_units_Z            4
_exptl_crystal_recrystallization_method 
'Re-crystallisation from solvent: Benzene/methanol'
loop_
_atom_site_label
_atom_site_type_symbol
_atom_site_fract_x
_atom_site_fract_y
_atom_site_fract_z
Te1 Te 0.98287(4) 0.94250(3) 0.93498(3)
Te2 Te 0.91813(4) 1.11485(3) 0.66542(3)
Te3 Te 1.26609(4) 0.91337(4) 0.57791(3)
Te4 Te 1.33480(4) 0.73376(4) 0.84650(3)
C1 C 0.7731(6) 0.7892(6) 0.8956(4)
O1 O 0.7050(4) 0.7673(4) 0.8777(3)
C2 C 1.1639(5) 0.5681(6) 0.7893(4)
O2 O 0.9882(4) 0.7404(4) 0.5202(3)
O3 O 0.7481(4) 0.8772(3) 0.5818(3)
C3 C 1.2332(7) 0.5915(7) 0.7718(6)
H1 H 1.263529 0.578469 0.740466
O4 O 0.6684(4) 0.8839(3) 0.6836(3)
O5 O 1.0999(5) 0.6365(4) 0.5681(3)
C4 C 0.6982(6) 0.6987(5) 0.7460(4)
H2 H 0.700229 0.655903 0.734287
O6 O 0.8174(4) 0.6657(4) 0.9256(3)
C5 C 0.8305(6) 0.9673(6) 0.5920(4)
H3 H 0.857267 0.964962 0.556676
O7 O 1.0542(5) 0.5326(4) 0.8557(4)
N1 N 0.8250(5) 1.0659(4) 0.7073(3)
N2 N 1.1574(5) 0.9114(5) 0.5473(4)
O8 O 1.1399(4) 0.5135(4) 0.7592(3)
N3 N 0.9073(5) 1.0563(4) 0.6067(4)
C6 C 0.6763(6) 0.7577(5) 0.6425(4)
H4 H 0.647960 0.803180 0.625529
C7 C 0.7060(6) 0.6989(6) 0.8045(5)
C8 C 0.7726(6) 0.9235(5) 0.6129(4)
N4 N 0.9853(5) 0.8373(4) 0.9508(4)
N5 N 1.3253(5) 0.6720(5) 0.7888(5)
N6 N 1.2701(6) 0.8084(5) 0.5948(4)
C9 C 0.7944(6) 0.8115(5) 0.5840(4)
N7 N 0.8707(5) 0.9411(5) 0.9063(4)
C10 C 0.7828(6) 0.8573(6) 0.8926(4)
H5 H 0.742312 0.892546 0.878694
N8 N 1.2343(6) 0.6959(5) 0.8841(4)
C11 C 1.1149(6) 0.7040(5) 0.5664(5)
C12 C 0.7437(6) 0.9747(5) 0.6976(4)
H6 H 0.712366 0.978490 0.731123
C13 C 0.7026(6) 0.7632(6) 0.8191(4)
C14 C 0.8711(6) 0.8084(6) 0.5557(4)
H7 H 0.892782 0.849436 0.538441
C15 C 0.7307(6) 0.9269(5) 0.6676(4)
C16 C 0.9572(6) 0.5489(5) 0.6741(5)
H8 H 0.903767 0.538134 0.676607
C17 C 1.1860(6) 0.7193(6) 0.5817(5)
H9 H 1.225727 0.683057 0.595100
C18 C 0.9138(7) 0.4318(5) 0.7692(5)
H10 H 0.866386 0.456879 0.749876
H11 H 0.942150 0.401636 0.744649
C19 C 0.9147(6) 0.7442(5) 0.5533(4)
C20 C 0.8061(6) 1.0208(5) 0.6786(4)
C21 C 1.0559(6) 0.7599(5) 0.5412(4)
C22 C 0.7174(8) 0.1882(7) 0.9149(6)
H12 H 0.675944 0.162104 0.906370
H13 H 0.698010 0.211452 0.945928
H14 H 0.765338 0.156761 0.925509
C23 C 0.8822(6) 0.6819(5) 0.5769(4)
C24 C 0.9182(5) 0.8190(5) 0.9356(4)
C25 C 1.0675(6) 0.8278(6) 0.5332(5)
H15 H 1.028588 0.862233 0.515795
C26 C 0.6853(5) 0.8228(5) 0.7228(4)
C27 C 0.8495(6) 1.0152(5) 0.6235(4)
C28 C 1.0656(7) 0.6018(6) 0.6192(5)
C29 C 0.9271(6) 0.5359(5) 0.8150(4)
C30 C 0.9701(6) 0.4848(5) 0.7779(5)
H16 H 1.016186 0.458284 0.798960
C31 C 1.2609(7) 0.6398(6) 0.8043(5)
C32 C 0.5893(7) 0.7182(6) 0.5755(5)
H17 H 0.634652 0.720461 0.547249
H18 H 0.557967 0.763995 0.570121
C33 C 1.0041(6) 0.5242(5) 0.7230(5)
C34 C 0.6876(5) 0.7608(5) 0.7048(4)
C35 C 0.6926(6) 0.8260(5) 0.7798(5)
H19 H 0.690954 0.868814 0.791352
C36 C 0.9030(7) 0.7477(6) 0.9418(4)
H20 H 0.939653 0.711832 0.960019
C37 C 1.2017(6) 0.7898(6) 0.5778(4)
C38 C 0.5359(8) 0.6653(6) 0.5644(5)
H21 H 0.497380 0.655466 0.596844
H22 H 0.569727 0.621893 0.561457
C39 C 0.8353(6) 0.7328(6) 0.9212(5)
C40 C 0.7602(6) 0.7519(5) 0.6101(4)
C41 C 0.8073(7) 0.6051(6) 0.8490(4)
C42 C 0.9746(6) 0.5609(6) 0.8515(5)
C43 C 0.9396(7) 0.6037(6) 0.8874(5)
H23 H 0.970979 0.617863 0.912882
C44 C 0.8448(7) 0.5605(5) 0.8134(5)
H24 H 0.813491 0.546664 0.787689
C45 C 0.8860(6) 0.3871(5) 0.8245(4)
H25 H 0.863731 0.417426 0.850782
H26 H 0.932900 0.357954 0.841506
C46 C 0.7170(6) 0.6301(5) 0.8484(4)
H27 H 0.700430 0.641493 0.886132
C47 C 0.9315(6) 0.6119(6) 0.5713(5)
H28 H 0.968754 0.621432 0.537517
C48 C 0.8555(7) 0.6263(6) 0.8856(5)
C49 C 1.1416(6) 0.8470(5) 0.5520(4)
C50 C 0.6226(6) 0.7023(5) 0.6345(4)
H29 H 0.654389 0.656631 0.640212
H30 H 0.577726 0.700581 0.663069
C51 C 0.4886(8) 0.6898(7) 0.5099(5)
H31 H 0.525840 0.707833 0.478695
H32 H 0.467740 0.649747 0.500067
C52 C 0.9851(6) 0.5876(5) 0.6233(5)
C53 C 0.3752(8) 0.7720(7) 0.4581(5)
H33 H 0.409466 0.800199 0.431260
H34 H 0.324850 0.799664 0.465351
H35 H 0.364178 0.732769 0.442450
C54 C 1.1175(5) 0.5736(6) 0.8380(4)
C55 C 0.8054(6) 0.6876(6) 0.6066(4)
H36 H 0.783973 0.646760 0.624537
C56 C 0.8003(7) 0.2879(5) 0.8726(4)
H37 H 0.849098 0.258445 0.886001
H38 H 0.778898 0.313766 0.902261
C57 C 1.0849(6) 0.5398(5) 0.7155(4)
C58 C 0.4189(7) 0.7453(6) 0.5150(4)
H39 H 0.439007 0.784424 0.526743
H40 H 0.379788 0.726472 0.544551
C59 C 0.8221(7) 0.3401(6) 0.8175(5)
H41 H 0.841886 0.313779 0.787818
H42 H 0.772920 0.369461 0.804606
C60 C 1.1153(7) 0.5781(6) 0.6652(5)
H43 H 1.169099 0.588092 0.662044
C61 C 0.4809(15) 0.4368(11) 0.8107(14)
H44 H 0.475929 0.453745 0.769896
H45 H 0.427638 0.445236 0.829481
C62 C 0.6621(5) 0.5756(5) 0.8384(5)
H46 H 0.674647 0.566264 0.800111
H47 H 0.675595 0.532233 0.865178
C63 C 1.2085(7) 0.6530(6) 0.8559(5)
C64 C 0.8563(6) 0.8739(6) 0.9113(4)
C65 C 0.8794(7) 0.5573(5) 0.5605(5)
H48 H 0.913214 0.513006 0.561250
H49 H 0.837354 0.550353 0.590981
C66 C 1.1376(7) 0.6184(6) 0.8708(6)
H50 H 1.104828 0.626037 0.902806
C67 C 0.7386(9) 0.4887(7) 0.5165(6)
H51 H 0.693160 0.524920 0.517196
H52 H 0.754947 0.472552 0.555490
C68 C 0.8074(8) 0.5206(7) 0.4818(6)
H53 H 0.790072 0.538625 0.443261
H54 H 0.851815 0.483804 0.479534
C69 C 0.7379(7) 0.2426(7) 0.8620(4)
H55 H 0.758434 0.218620 0.830999
H56 H 0.688448 0.272183 0.849964
C70 C 0.5709(7) 0.5974(16) 0.8451(19)
H57 H 0.554373 0.590051 0.885542
H58 H 0.559685 0.647032 0.829566
C71 C 0.7094(8) 0.4280(7) 0.4958(5)
H59 H 0.754807 0.391940 0.494515
H60 H 0.668489 0.408273 0.523475
C72 C 0.8401(8) 0.5792(6) 0.5035(5)
H61 H 0.879804 0.599472 0.475111
H62 H 0.795550 0.615580 0.506848
C73 C 0.6736(10) 0.4475(8) 0.4376(6)
H63 H 0.709180 0.475170 0.411417
H64 H 0.621241 0.474049 0.440545
H65 H 0.667690 0.405684 0.423705
C74 C 0.5403(12) 0.4777(7) 0.8325(9)
H66 H 0.539525 0.465281 0.873957
H67 H 0.594895 0.464099 0.817883
C75 C 0.5208(10) 0.5567(8) 0.8151(10)
H68 H 0.463465 0.569400 0.823816
H69 H 0.530843 0.570097 0.774042
C76 C 0.5079(15) 0.3582(11) 0.8214(12)
H70 H 0.468769 0.334645 0.806992
H71 H 0.560070 0.349519 0.802207
H72 H 0.511791 0.341012 0.861776
Te5 Te 0.93541(4) 0.97393(3) 0.43132(3)
Te6 Te 1.14529(4) 0.94443(3) 0.17827(3)
Te7 Te 0.85019(4) 1.20993(3) 0.05959(3)
Te8 Te 0.63215(4) 1.23526(4) 0.31521(3)
C77 C 0.8010(6) 0.7630(6) 0.3992(4)
C78 C 0.9929(6) 0.8393(6) 0.1004(4)
H73 H 0.991018 0.856423 0.061221
C79 C 0.5022(5) 1.1175(5) 0.2348(4)
H74 H 0.491140 1.139381 0.197460
O9 O 0.6560(4) 0.7751(4) 0.4219(3)
O10 O 0.5697(4) 1.0156(4) 0.0424(3)
O11 O 0.7056(4) 0.9419(4) 0.0050(3)
O12 O 0.4593(4) 0.9558(4) 0.3306(3)
O13 O 0.7906(5) 0.7006(4) 0.3853(3)
N9 N 0.9525(5) 0.8782(4) 0.4102(4)
O14 O 0.4282(4) 1.0233(4) 0.2241(3)
N10 N 0.7318(5) 1.1904(5) 0.0715(4)
O15 O 0.9264(4) 0.6914(3) 0.2014(3)
O16 O 0.9026(4) 0.7585(3) 0.0921(3)
N11 N 1.1008(6) 0.8594(5) 0.2246(4)
N12 N 0.8168(5) 0.9551(4) 0.4436(4)
C80 C 1.0119(6) 0.7750(6) 0.2169(4)
H75 H 1.018332 0.751273 0.254339
N13 N 0.8683(5) 1.1167(5) 0.0348(4)
N14 N 1.0794(5) 0.9261(4) 0.1162(3)
C81 C 0.4784(6) 1.0547(5) 0.2557(4)
C82 C 0.4960(6) 0.8762(5) 0.1521(4)
H76 H 0.493804 0.828085 0.157687
C83 C 0.7131(7) 0.6820(6) 0.2497(4)
H77 H 0.664270 0.675596 0.235599
C84 C 0.4067(7) 0.5633(6) 0.3427(5)
H78 H 0.365664 0.596746 0.356496
H79 H 0.426209 0.584542 0.304693
C85 C 0.9631(6) 0.7529(5) 0.1830(4)
C86 C 0.7246(6) 1.1313(5) 0.0578(4)
C87 C 0.7154(7) 1.0020(5) 0.0237(4)
C88 C 1.0531(6) 0.8343(5) 0.1952(4)
N15 N 0.5691(6) 1.2137(5) 0.2531(4)
C89 C 0.6465(6) 1.1036(6) 0.0604(4)
H80 H 0.599240 1.128426 0.072784
C90 C 0.6434(6) 1.0412(5) 0.0445(4)
C91 C 0.7598(7) 0.7470(5) 0.1122(4)
C92 C 0.7277(7) 0.6202(5) 0.1431(4)
H81 H 0.735205 0.579715 0.173798
H82 H 0.670960 0.639459 0.144525
N16 N 0.6050(5) 1.1411(5) 0.3597(4)
C93 C 0.7826(7) 0.6759(5) 0.1508(4)
H83 H 0.838584 0.659388 0.139511
C94 C 0.5023(6) 1.0183(6) 0.1350(4)
H84 H 0.503209 1.066540 0.129206
C95 C 0.7247(6) 0.8779(5) 0.0433(4)
C96 C 0.8049(6) 0.8522(5) 0.0519(4)
H85 H 0.846618 0.877841 0.034404
C97 C 0.5243(7) 0.6078(6) 0.3872(5)
H86 H 0.552911 0.596198 0.422405
H87 H 0.485689 0.648810 0.389288
C98 C 0.7819(6) 0.6850(5) 0.2129(4)
C99 C 0.5217(6) 0.8121(6) 0.0445(5)
H88 H 0.464686 0.830421 0.042275
H89 H 0.526785 0.772916 0.076446
C100 C 0.8222(6) 0.7877(5) 0.0869(4)
C101 C 0.6045(6) 0.8013(6) 0.3772(4)
C102 C 0.8577(6) 0.7000(5) 0.2923(4)
H90 H 0.906769 0.704832 0.306868
C103 C 0.4613(6) 0.9116(5) 0.1954(4)
C104 C 0.2932(7) 0.5155(6) 0.3045(5)
H91 H 0.271212 0.472717 0.303473
H92 H 0.253380 0.545877 0.321867
H93 H 0.307388 0.538151 0.266165
C105 C 0.9504(6) 0.7870(5) 0.1251(4)
C106 C 0.4242(6) 0.8745(5) 0.2514(4)
H94 H 0.387938 0.910729 0.266695
C107 C 0.6798(6) 0.7759(6) 0.1025(4)
H95 H 0.637887 0.750997 0.120627
C108 C 0.5375(6) 1.0447(6) 0.3464(5)
H96 H 0.548724 1.020213 0.382993
C109 C 0.4664(6) 0.9828(5) 0.1850(4)
C110 C 0.0967(7) 0.6647(7) 0.4104(5)
H97 H 0.049135 0.644359 0.404085
H98 H 0.129609 0.631818 0.437075
H99 H 0.080534 0.706496 0.425548
C111 C 0.5630(6) 1.1121(5) 0.3269(4)
C112 C 0.4897(6) 0.8497(6) 0.2945(4)
C113 C 0.7298(6) 0.8036(6) 0.4172(4)
C114 C 0.6596(6) 0.8404(5) 0.0671(4)
C115 C 0.6372(7) 0.6850(6) 0.3462(4)
H100 H 0.655007 0.671387 0.385457
C116 C 0.8104(6) 0.8942(5) 0.4309(4)
C117 C 0.1451(7) 0.6826(6) 0.3545(4)
H101 H 0.110670 0.714755 0.327566
H102 H 0.159674 0.640185 0.339077
C118 C 0.7970(7) 1.0913(6) 0.0365(5)
C119 C 0.4963(6) 1.0162(5) 0.3109(4)
C120 C 0.5901(6) 0.7563(5) 0.3418(4)
C121 C 0.7859(6) 0.6981(5) 0.3274(4)
C122 C 0.5337(6) 0.7831(6) 0.3000(4)
H103 H 0.524770 0.755000 0.274340
C123 C 0.8833(6) 0.8522(6) 0.4120(4)
C124 C 0.7326(6) 0.8670(6) 0.4349(5)
H104 H 0.685810 0.891013 0.448799
C125 C 0.3700(5) 0.8184(5) 0.2458(4)
H105 H 0.402493 0.781611 0.229654
H106 H 0.327553 0.839171 0.219813
C126 C 0.8540(6) 0.6947(5) 0.2357(4)
C127 C 0.2220(6) 0.7152(6) 0.3589(4)
H107 H 0.260216 0.680381 0.380746
H108 H 0.208801 0.753246 0.379771
C128 C 0.2639(6) 0.7439(6) 0.3004(4)
H109 H 0.285660 0.704786 0.282329
H110 H 0.223312 0.772489 0.276017
C129 C 0.5447(6) 1.1516(6) 0.2694(5)
C130 C 0.5720(6) 0.8698(6) 0.0543(4)
H111 H 0.573781 0.904326 0.018503
C131 C 0.7139(6) 0.6884(5) 0.3074(4)
C132 C 0.7504(12) 0.5980(11) 0.0852(6)
H112 H 0.739541 0.638396 0.054898
H113 H 0.808367 0.582905 0.083055
C133 C 0.5337(6) 0.9087(5) 0.1012(5)
C134 C 0.5365(6) 0.9810(6) 0.0941(4)
C135 C 0.5073(6) 0.8919(5) 0.3320(4)
C136 C 0.7918(6) 1.0261(6) 0.0198(4)
H114 H 0.837909 1.000346 0.006691
C137 C 0.8753(6) 0.7848(5) 0.3982(4)
H115 H 0.921434 0.756493 0.388492
C138 C 0.5530(7) 0.7869(6) -0.0122(5)
H116 H 0.552865 0.827348 -0.043053
H117 H 0.608895 0.765701 -0.008267
C139 C 1.0427(6) 0.8697(5) 0.1351(4)
C140 C 0.5636(6) 0.8685(5) 0.3730(4)
H118 H 0.574320 0.897237 0.397624
C141 C 0.5863(6) 0.6261(6) 0.3366(4)
H119 H 0.557700 0.641961 0.301540
H120 H 0.622840 0.584548 0.332390
C142 C 0.4777(7) 0.5469(6) 0.3827(5)
H121 H 0.456638 0.527544 0.420720
H122 H 0.516028 0.510788 0.369954
C143 C 0.3696(7) 0.4991(6) 0.3395(5)
H123 H 0.355293 0.475354 0.377980
H124 H 0.409327 0.467625 0.322252
C144 C 0.3303(6) 0.7860(6) 0.3046(4)
H125 H 0.372062 0.756618 0.327360
H126 H 0.309018 0.823557 0.324543
C145 C 0.4655(18) 0.6103(11) 0.0011(16)
H127 H 0.487851 0.563412 0.018491
H128 H 0.460365 0.611016 -0.039255
C146 C 0.5239(15) 0.6618(8) 0.0073(12)
H129 H 0.578620 0.643762 -0.003988
H130 H 0.523483 0.665594 0.047286
C147 C 0.7310(12) 0.5138(10) 0.0196(7)
H131 H 0.724283 0.553380 -0.011934
H132 H 0.788606 0.497085 0.020534
C148 C 0.7043(10) 0.5392(8) 0.0750(6)
H133 H 0.712057 0.499977 0.106783
H134 H 0.646628 0.555463 0.074495
C149 C 0.5029(11) 0.7344(8) -0.0285(8)
H135 H 0.513539 0.732709 -0.068716
H136 H 0.445386 0.749395 -0.022428
C150 C 0.3811(18) 0.627(2) 0.029(2)
H137 H 0.340816 0.632215 0.001059
H138 H 0.379313 0.669561 0.043256
H139 H 0.370303 0.589293 0.059979
C151 C 0.731(3) 0.415(2) -0.0350(19)
H140 H 0.740126 0.446092 -0.070822
H141 H 0.782509 0.393497 -0.020472
C152 C 0.6856(16) 0.4562(14) 0.0077(12)
H142 H 0.633170 0.476703 -0.006939
H143 H 0.675528 0.424138 0.043382
C153 C 0.5318(7) 0.9323(6) 0.5094(5)
H144 H 0.554356 0.885727 0.516176
C154 C 0.4578(8) 0.9489(7) 0.4879(5)
H145 H 0.429715 0.914102 0.479801
C155 C 0.4242(7) 1.0166(7) 0.4780(5)
H146 H 0.372977 1.028777 0.463216
C153A C 0.4682(7) 1.0677(6) 0.4906(5)
H144A H 0.445644 1.114273 0.483824
C154A C 0.5422(8) 1.0511(7) 0.5121(5)
H145A H 0.570285 1.085898 0.520199
C155A C 0.5758(7) 0.9834(7) 0.5220(5)
H146A H 0.627023 0.971223 0.536784
C156 C 0.8599(13) 0.9767(16) 0.2202(12)
H147 H 0.909622 0.994882 0.212048
C157 C 0.8299(14) 0.9427(16) 0.1816(9)
H148 H 0.859465 0.938171 0.147596
C158 C 0.7556(16) 0.9154(17) 0.1939(8)
H149 H 0.735537 0.892707 0.168023
C159 C 0.7114(15) 0.9222(19) 0.2447(9)
H150 H 0.661767 0.903952 0.252903
C160 C 0.7415(16) 0.9562(18) 0.2833(8)
H151 H 0.711923 0.960662 0.317355
C161 C 0.8157(17) 0.9834(16) 0.2711(11)
H152 H 0.835850 1.006127 0.296929
C162 C 0.9248(8) 0.7779(8) 0.7383(8)
C163 C 0.9945(8) 0.7382(7) 0.7215(7)
C164 C 1.0729(8) 0.7509(10) 0.7300(9)
H153 H 1.118104 0.724108 0.717093
C165 C 1.0820(10) 0.8049(11) 0.7584(10)
H154 H 1.133714 0.813661 0.765557
C166 C 1.0137(13) 0.8456(11) 0.7760(10)
H155 H 1.019743 0.881687 0.795015
C167 C 0.9363(10) 0.8325(10) 0.7653(11)
H156 H 0.891156 0.860829 0.776494
H157 H 0.873007 0.768529 0.731842
H158 H 0.988342 0.701162 0.703609
H159? H 0.670116 0.568914 0.799105
H160? H 0.676925 0.531037 0.863325
C168? C 0.5145(9) 0.5475(11) 0.8483(8)
H161? H 0.533230 0.503578 0.872761
H162? H 0.461230 0.563809 0.863556
C169? C 0.5060(15) 0.5341(10) 0.7884(7)
H163? H 0.480185 0.576518 0.765458
H164? H 0.559985 0.524296 0.771170
C170? C 0.4571(14) 0.4741(12) 0.7864(11)
H165? H 0.450251 0.472360 0.746679
H166? H 0.403341 0.483398 0.804250
C171? C 0.4960(15) 0.4028(12) 0.8161(13)
H167? H 0.462154 0.367449 0.813222
H168? H 0.548703 0.392569 0.798085
H169? H 0.501750 0.403618 0.855708
C172? C 0.5730(7) 0.6009(14) 0.8508(18)
H170? H 0.567141 0.612922 0.888541
H171? H 0.557641 0.643201 0.823264
H172? H 0.745411 0.576681 0.168518
H173? H 0.672503 0.635139 0.155696
H174? H 0.525047 0.816437 -0.044056
H175? H 0.610811 0.791095 -0.018770
C173? C 0.4369(16) 0.6229(11) 0.0015(19)
H176? H 0.390988 0.609929 0.027404
H177? H 0.424653 0.618028 -0.036555
C174? C 0.4491(11) 0.6990(10) 0.0011(14)
H178? H 0.417863 0.729371 -0.028726
H179? H 0.428826 0.711096 0.037498
C175? C 0.5382(12) 0.7111(9) -0.0091(16)
H180? H 0.558781 0.696784 -0.044674
H181? H 0.568811 0.681656 0.021544
C176? C 0.513(2) 0.5738(16) 0.020(2)
H182? H 0.506253 0.527163 0.015930
H183? H 0.520879 0.573803 0.059787
H184? H 0.559395 0.589437 -0.002809
C177? C 0.7254(14) 0.6046(15) 0.0833(7)
H185? H 0.687440 0.570622 0.083610
H186? H 0.706909 0.647134 0.057054
C178? C 0.8097(13) 0.5760(13) 0.0633(11)
H187? H 0.839468 0.552241 0.096467
H188? H 0.838811 0.614663 0.044044
C179? C 0.8073(12) 0.5249(15) 0.0228(13)
H189? H 0.774379 0.488261 0.040969
H190? H 0.781412 0.549666 -0.011678
C180? C 0.8915(12) 0.4918(14) 0.0066(12)
H191? H 0.918074 0.468001 0.041128
H192? H 0.923989 0.528215 -0.012636
C181? C 0.887(2) 0.4397(14) -0.0323(12)
H193? H 0.941311 0.419785 -0.041683
H194? H 0.855922 0.403052 -0.013106
H195? H 0.861832 0.463219 -0.066828
C182? C 0.7698(19) 1.0290(12) 0.2422(13)
H196? H 0.771630 1.075058 0.246006
C183? C 0.7044(16) 1.0113(12) 0.2168(13)
H197? H 0.662504 1.045610 0.203704
C184? C 0.7016(14) 0.9424(14) 0.2111(12)
H198? H 0.657844 0.930622 0.194135
C185? C 0.7642(17) 0.8912(11) 0.2307(13)
H199? H 0.762311 0.845082 0.226867
C186? C 0.8296(15) 0.9088(14) 0.2560(12)
H200? H 0.871437 0.874527 0.269169
C187? C 0.8324(15) 0.9777(16) 0.2618(13)
H201? H 0.876098 0.989515 0.278739
C188? C 1.0662(8) 0.7688(10) 0.7059(10)
H202? H 1.112775 0.742207 0.694649
C189? C 1.0681(12) 0.8392(11) 0.7072(15)
H203? H 1.116089 0.859697 0.696757
C190? C 0.9985(16) 0.8790(8) 0.7240(17)
H204? H 0.999783 0.926063 0.724858
C191? C 0.9268(12) 0.8483(9) 0.7396(12)
H205? H 0.880163 0.874939 0.750852
H206? H 0.876847 0.757449 0.748745
H207? H 0.993152 0.691082 0.720644
H208? H 0.699353 0.379370 -0.040786
loop_
_geom_bond_atom_site_label_1
_geom_bond_atom_site_label_2
_geom_bond_site_symmetry_1
_geom_bond_site_symmetry_2
Te1 N4 1_555 1_555
Te2 N1 1_555 1_555
Te3 N2 1_555 1_555
Te4 N5 1_555 1_555
C1 O1 1_555 1_555
O1 C13 1_555 1_555
C2 C3 1_555 1_555
O2 C19 1_555 1_555
O3 C8 1_555 1_555
C3 H1 1_555 1_555
O4 C15 1_555 1_555
O5 C11 1_555 1_555
C4 H2 1_555 1_555
O6 C39 1_555 1_555
C5 H3 1_555 1_555
O7 C42 1_555 1_555
N1 C20 1_555 1_555
N2 C49 1_555 1_555
O8 C2 1_555 1_555
N3 Te2 1_555 1_555
C6 H4 1_555 1_555
C7 C4 1_555 1_555
C8 C5 1_555 1_555
N4 C24 1_555 1_555
N5 C31 1_555 1_555
N6 Te3 1_555 1_555
C9 O3 1_555 1_555
N7 Te1 1_555 1_555
C10 C1 1_555 1_555
H5 C10 1_555 1_555
N8 Te4 1_555 1_555
C11 C17 1_555 1_555
C12 H6 1_555 1_555
C13 C7 1_555 1_555
C14 C9 1_555 1_555
H7 C14 1_555 1_555
C15 C8 1_555 1_555
C16 H8 1_555 1_555
C17 H9 1_555 1_555
C18 H10 1_555 1_555
H11 C18 1_555 1_555
C19 C14 1_555 1_555
C20 C12 1_555 1_555
C21 O2 1_555 1_555
C22 H12 1_555 1_555
H13 C22 1_555 1_555
H14 C22 1_555 1_555
C23 C19 1_555 1_555
C24 C36 1_555 1_555
C25 C21 1_555 1_555
H15 C25 1_555 1_555
C26 O4 1_555 1_555
C27 C5 1_555 1_555
C28 O5 1_555 1_555
C29 C30 1_555 1_555
C30 C18 1_555 1_555
H16 C30 1_555 1_555
C31 C3 1_555 1_555
C32 H17 1_555 1_555
H18 C32 1_555 1_555
C33 C16 1_555 1_555
C34 C4 1_555 1_555
C35 C13 1_555 1_555
H19 C35 1_555 1_555
C36 H20 1_555 1_555
C37 N6 1_555 1_555
C38 C32 1_555 1_555
H21 C38 1_555 1_555
H22 C38 1_555 1_555
C39 C1 1_555 1_555
C40 C6 1_555 1_555
C41 C44 1_555 1_555
C42 C29 1_555 1_555
C43 C42 1_555 1_555
H23 C43 1_555 1_555
C44 C29 1_555 1_555
H24 C44 1_555 1_555
C45 C18 1_555 1_555
H25 C45 1_555 1_555
H26 C45 1_555 1_555
C46 C7 1_555 1_555
H27 C46 1_555 1_555
C47 C23 1_555 1_555
H28 C47 1_555 1_555
C48 O6 1_555 1_555
C49 C25 1_555 1_555
C50 C6 1_555 1_555
H29 C50 1_555 1_555
H30 C50 1_555 1_555
C51 C38 1_555 1_555
H31 C51 1_555 1_555
H32 C51 1_555 1_555
C52 C16 1_555 1_555
C53 H33 1_555 1_555
H34 C53 1_555 1_555
H35 C53 1_555 1_555
C54 C2 1_555 1_555
C55 C23 1_555 1_555
H36 C55 1_555 1_555
C56 H37 1_555 1_555
H38 C56 1_555 1_555
C57 O8 1_555 1_555
C58 C51 1_555 1_555
H39 C58 1_555 1_555
H40 C58 1_555 1_555
C59 C45 1_555 1_555
H41 C59 1_555 1_555
H42 C59 1_555 1_555
C60 C28 1_555 1_555
H43 C60 1_555 1_555
C61 H44 1_555 1_555
H45 C61 1_555 1_555
C62 C46 1_555 1_555
H46 C62 1_555 1_555
H47 C62 1_555 1_555
C63 N8 1_555 1_555
C64 N7 1_555 1_555
C65 C47 1_555 1_555
H48 C65 1_555 1_555
H49 C65 1_555 1_555
C66 C54 1_555 1_555
H50 C66 1_555 1_555
C67 H51 1_555 1_555
H52 C67 1_555 1_555
C68 C67 1_555 1_555
H53 C68 1_555 1_555
H54 C68 1_555 1_555
C69 C22 1_555 1_555
H55 C69 1_555 1_555
H56 C69 1_555 1_555
C70 C62 1_555 1_555
H57 C70 1_555 1_555
H58 C70 1_555 1_555
C71 C67 1_555 1_555
H59 C71 1_555 1_555
H60 C71 1_555 1_555
C72 C65 1_555 1_555
H61 C72 1_555 1_555
H62 C72 1_555 1_555
C73 C71 1_555 1_555
H63 C73 1_555 1_555
H64 C73 1_555 1_555
H65 C73 1_555 1_555
C74 C61 1_555 1_555
H66 C74 1_555 1_555
H67 C74 1_555 1_555
C75 C70 1_555 1_555
H68 C75 1_555 1_555
H69 C75 1_555 1_555
C76 C61 1_555 1_555
H70 C76 1_555 1_555
H71 C76 1_555 1_555
H72 C76 1_555 1_555
Te5 N9 1_555 1_555
Te6 N11 1_555 1_555
Te7 N10 1_555 1_555
Te8 N15 1_555 1_555
C77 O13 1_555 1_555
C78 H73 1_555 1_555
C79 H74 1_555 1_555
O9 C101 1_555 1_555
O10 C90 1_555 1_555
O11 C87 1_555 1_555
O12 C119 1_555 1_555
O13 C121 1_555 1_555
N9 C123 1_555 1_555
O14 C81 1_555 1_555
N10 C86 1_555 1_555
O15 C85 1_555 1_555
O16 C100 1_555 1_555
N11 C88 1_555 1_555
N12 Te5 1_555 1_555
C80 H75 1_555 1_555
N13 Te7 1_555 1_555
N14 Te6 1_555 1_555
C81 C79 1_555 1_555
C82 H76 1_555 1_555
C83 H77 1_555 1_555
C84 H78 1_555 1_555
H79 C84 1_555 1_555
C85 C80 1_555 1_555
C86 C89 1_555 1_555
C87 C90 1_555 1_555
C88 C80 1_555 1_555
N15 C129 1_555 1_555
C89 H80 1_555 1_555
C90 C89 1_555 1_555
C91 C93 1_555 1_555
C92 H81 1_555 1_555
H82 C92 1_555 1_555
N16 Te8 1_555 1_555
C93 C92 1_555 1_555
H83 C93 1_555 1_555
C94 H84 1_555 1_555
C95 O11 1_555 1_555
C96 C95 1_555 1_555
H85 C96 1_555 1_555
C97 H86 1_555 1_555
H87 C97 1_555 1_555
C98 C83 1_555 1_555
C99 H88 1_555 1_555
H89 C99 1_555 1_555
C100 C91 1_555 1_555
C101 C120 1_555 1_555
C102 H90 1_555 1_555
C103 C82 1_555 1_555
C104 H91 1_555 1_555
H92 C104 1_555 1_555
H93 C104 1_555 1_555
C105 C78 1_555 1_555
C106 C103 1_555 1_555
H94 C106 1_555 1_555
C107 C91 1_555 1_555
H95 C107 1_555 1_555
C108 H96 1_555 1_555
C109 O14 1_555 1_555
C110 H97 1_555 1_555
H98 C110 1_555 1_555
H99 C110 1_555 1_555
C111 N16 1_555 1_555
C112 C106 1_555 1_555
C113 C77 1_555 1_555
C114 C95 1_555 1_555
C115 H100 1_555 1_555
C116 N12 1_555 1_555
C117 C110 1_555 1_555
H101 C117 1_555 1_555
H102 C117 1_555 1_555
C118 N13 1_555 1_555
C119 C81 1_555 1_555
C120 C115 1_555 1_555
C121 C102 1_555 1_555
C122 C112 1_555 1_555
H103 C122 1_555 1_555
C123 C116 1_555 1_555
C124 C113 1_555 1_555
H104 C124 1_555 1_555
C125 C106 1_555 1_555
H105 C125 1_555 1_555
H106 C125 1_555 1_555
C126 O15 1_555 1_555
C127 C117 1_555 1_555
H107 C127 1_555 1_555
H108 C127 1_555 1_555
C128 C127 1_555 1_555
H109 C128 1_555 1_555
H110 C128 1_555 1_555
C129 C79 1_555 1_555
C130 C99 1_555 1_555
H111 C130 1_555 1_555
C131 C83 1_555 1_555
C132 C92 1_555 1_555
H112 C132 1_555 1_555
H113 C132 1_555 1_555
C133 C82 1_555 1_555
C134 O10 1_555 1_555
C135 O12 1_555 1_555
C136 C87 1_555 1_555
H114 C136 1_555 1_555
C137 C77 1_555 1_555
H115 C137 1_555 1_555
C138 C99 1_555 1_555
H116 C138 1_555 1_555
H117 C138 1_555 1_555
C139 C78 1_555 1_555
C140 C101 1_555 1_555
H118 C140 1_555 1_555
C141 C97 1_555 1_555
H119 C141 1_555 1_555
H120 C141 1_555 1_555
C142 C84 1_555 1_555
H121 C142 1_555 1_555
H122 C142 1_555 1_555
C143 C84 1_555 1_555
H123 C143 1_555 1_555
H124 C143 1_555 1_555
C144 C125 1_555 1_555
H125 C144 1_555 1_555
H126 C144 1_555 1_555
C145 H127 1_555 1_555
H128 C145 1_555 1_555
C146 C145 1_555 1_555
H129 C146 1_555 1_555
H130 C146 1_555 1_555
C147 H131 1_555 1_555
H132 C147 1_555 1_555
C148 C132 1_555 1_555
H133 C148 1_555 1_555
H134 C148 1_555 1_555
C149 C138 1_555 1_555
H135 C149 1_555 1_555
H136 C149 1_555 1_555
C150 C145 1_555 1_555
H137 C150 1_555 1_555
H138 C150 1_555 1_555
H139 C150 1_555 1_555
C151 H140 1_555 1_555
H141 C151 1_555 1_555
C152 C147 1_555 1_555
H142 C152 1_555 1_555
H143 C152 1_555 1_555
C153 H144 1_555 1_555
C154 C153 1_555 1_555
H145 C154 1_555 1_555
C155 C154 1_555 1_555
H146 C155 1_555 1_555
C156 H147 1_555 1_555
C157 C156 1_555 1_555
H148 C157 1_555 1_555
C158 C157 1_555 1_555
H149 C158 1_555 1_555
C159 C158 1_555 1_555
H150 C159 1_555 1_555
C160 C159 1_555 1_555
H151 C160 1_555 1_555
C161 C156 1_555 1_555
H152 C161 1_555 1_555
C162 C163 1_555 1_555
C163 C164 1_555 1_555
C164 H153 1_555 1_555
C165 C164 1_555 1_555
H154 C165 1_555 1_555
C166 C165 1_555 1_555
H155 C166 1_555 1_555
C167 C162 1_555 1_555
H156 C167 1_555 1_555
H157 C162 1_555 1_555
H158 C163 1_555 1_555
C153A C155 1_555 1_555
H144A C153A 1_555 1_555
C154A C153A 1_555 1_555
H145A C154A 1_555 1_555
C155A C153 1_555 1_555
H146A C155A 1_555 1_555
O7 C54 1_555 1_555
N3 C27 1_555 1_555
C6 C34 1_555 1_555
C9 C40 1_555 1_555
C10 C64 1_555 1_555
C11 C21 1_555 1_555
C12 C15 1_555 1_555
C17 C37 1_555 1_555
C20 C27 1_555 1_555
C24 C64 1_555 1_555
C26 C34 1_555 1_555
C26 C35 1_555 1_555
C28 C52 1_555 1_555
C30 C33 1_555 1_555
C31 C63 1_555 1_555
C32 C50 1_555 1_555
C33 C57 1_555 1_555
C36 C39 1_555 1_555
C37 C49 1_555 1_555
C40 C55 1_555 1_555
C41 C46 1_555 1_555
C41 C48 1_555 1_555
C43 C48 1_555 1_555
C47 C52 1_555 1_555
C53 C58 1_555 1_555
C56 C59 1_555 1_555
C56 C69 1_555 1_555
C57 C60 1_555 1_555
C63 C66 1_555 1_555
C68 C72 1_555 1_555
C74 C75 1_555 1_555
O9 C113 1_555 1_555
O16 C105 1_555 1_555
N14 C139 1_555 1_555
C85 C105 1_555 1_555
C86 C118 1_555 1_555
C88 C139 1_555 1_555
C93 C98 1_555 1_555
C94 C109 1_555 1_555
C94 C134 1_555 1_555
C96 C100 1_555 1_555
C97 C142 1_555 1_555
C98 C126 1_555 1_555
C102 C126 1_555 1_555
C103 C109 1_555 1_555
C104 C143 1_555 1_555
C107 C114 1_555 1_555
C108 C111 1_555 1_555
C108 C119 1_555 1_555
C111 C129 1_555 1_555
C112 C135 1_555 1_555
C114 C130 1_555 1_555
C115 C131 1_555 1_555
C115 C141 1_555 1_555
C116 C124 1_555 1_555
C118 C136 1_555 1_555
C120 C122 1_555 1_555
C121 C131 1_555 1_555
C123 C137 1_555 1_555
C128 C144 1_555 1_555
C130 C133 1_555 1_555
C133 C134 1_555 1_555
C135 C140 1_555 1_555
C146 C149 1_555 1_555
C147 C148 1_555 1_555
C151 C152 1_555 1_555
C160 C161 1_555 1_555
C166 C167 1_555 1_555
C154A C155A 1_555 1_555

#END
