
#######################################################################
#
#                 Cambridge Crystallographic Data Centre
#                                CCDC 
#
#######################################################################
#
# If this CIF has been generated from an entry in the Cambridge 
# Structural Database, then it will include bibliographic, chemical, 
# crystal, experimental, refinement or atomic coordinate data resulting 
# from the CCDC's data processing and validation procedures.
#
#######################################################################

data_DIVTEK
_chemical_formula_moiety         'C76 H72 N8 O8 Te4,2(C14 H14),6(C1 H1 Cl3)'
_chemical_name_systematic        
'(17s,18s,19s,20s)-17,18,19,20-tetra-n-hexyl-2,4,6,8,10,12,14,16-octaoxa-3,7,11,15(5,6)-tetrakis(2,1,3-benzotelluradiazola)-1,5,9,13(1,5,2,4)-tetrabenzenapentacyclo[11.3.1.1^1,5^.1^5,9^.1^9,13^]icosaphane 1,2-diphenylethane chloroform solvate'
_symmetry_cell_setting           triclinic
_symmetry_space_group_name_H-M   'P -1'
_symmetry_Int_Tables_number      2
_space_group_name_Hall           '-P 1'
loop_
_symmetry_equiv_pos_site_id
_symmetry_equiv_pos_as_xyz
1 x,y,z
2 -x,-y,-z
_cell_length_a                   27.08102(7)
_cell_length_b                   28.23939(8)
_cell_length_c                   28.50814(9)
_cell_angle_alpha                117.1436(3)
_cell_angle_beta                 96.5278(2)
_cell_angle_gamma                108.1071(2)
_cell_volume                     17578.5
_exptl_crystal_colour            yellow
_exptl_crystal_description       block
_cell_formula_units_Z            8
_exptl_crystal_recrystallization_method 
'Re-crystallisation from solvent: Chloroform'
loop_
_atom_site_label
_atom_site_type_symbol
_atom_site_fract_x
_atom_site_fract_y
_atom_site_fract_z
Te5 Te 0.05789(2) 0.45665(2) 0.51077(2)
Te6 Te 0.16652(2) 0.56895(2) 0.79317(2)
Te7 Te -0.03676(2) 0.16846(2) 0.43008(2)
Te8 Te 0.06461(2) 0.27486(2) 0.70815(2)
O9 O 0.19328(10) 0.20686(11) 0.37996(11)
O10 O 0.25718(10) 0.40656(11) 0.42577(10)
O11 O 0.38264(10) 0.52182(11) 0.77402(11)
O12 O 0.30955(9) 0.50936(11) 0.52265(10)
O13 O 0.19471(10) 0.15065(11) 0.43642(11)
O14 O 0.37987(10) 0.57345(11) 0.71448(10)
O15 O 0.26246(11) 0.21543(13) 0.62908(12)
O16 O 0.31580(11) 0.32098(12) 0.72464(11)
N9 N 0.08483(12) 0.40759(13) 0.45109(12)
N10 N 0.13798(11) 0.50766(13) 0.55097(12)
N11 N 0.14448(13) 0.32563(14) 0.74776(14)
N12 N 0.09151(14) 0.21931(14) 0.65481(14)
N13 N 0.21855(12) 0.53861(13) 0.81204(13)
N14 N 0.01626(12) 0.19774(14) 0.39568(13)
N15 N 0.21591(12) 0.59070(13) 0.75236(12)
N16 N 0.01753(13) 0.14198(15) 0.45218(14)
C77 C 0.13818(14) 0.43084(15) 0.46665(14)
C78 C 0.25724(14) 0.54583(15) 0.78807(14)
C79 C 0.33791(15) 0.53490(16) 0.76676(15)
C80 C 0.14950(14) 0.19434(15) 0.40001(15)
C81 C 0.31843(14) 0.37526(16) 0.46049(15)
C82 C 0.16703(14) 0.48530(15) 0.52102(14)
C83 C 0.33637(14) 0.56205(15) 0.73442(14)
C84 C 0.17354(16) 0.29999(16) 0.72105(16)
C85 C 0.22382(15) 0.30786(16) 0.40607(15)
H73 H 0.189481 0.300481 0.387005
C86 C 0.26600(14) 0.36295(16) 0.43191(15)
C87 C 0.39803(15) 0.39651(17) 0.66647(16)
H74 H 0.414496 0.387987 0.638495
C88 C 0.22501(14) 0.43013(15) 0.45535(15)
C89 C 0.28520(15) 0.27282(16) 0.43646(15)
C90 C 0.25585(14) 0.57355(14) 0.75588(14)
C91 C 0.28633(16) 0.22194(16) 0.48815(16)
C92 C 0.23205(17) 0.32585(18) 0.73923(16)
H75 H 0.250968 0.361308 0.772348
C93 C 0.15026(15) 0.16415(16) 0.43003(15)
C94 C 0.34186(14) 0.53883(15) 0.61852(15)
H76 H 0.322459 0.562065 0.628312
C95 C 0.25304(14) 0.48475(15) 0.50820(15)
C96 C 0.23572(15) 0.18720(16) 0.48702(17)
C97 C 0.40456(14) 0.50366(16) 0.64564(16)
C98 C 0.06017(15) 0.15699(16) 0.43538(15)
C99 C 0.22547(14) 0.51152(16) 0.53911(15)
H77 H 0.244212 0.547016 0.572220
C100 C 0.05970(15) 0.18738(16) 0.40541(15)
C101 C 0.10602(14) 0.20520(16) 0.38783(15)
H78 H 0.106148 0.224038 0.368249
C102 C 0.36930(15) 0.35145(17) 0.67398(16)
C103 C 0.36450(15) 0.43555(16) 0.48721(16)
H79 H 0.354223 0.454978 0.469229
C104 C 0.32768(16) 0.25477(17) 0.53860(17)
H80 H 0.361635 0.278320 0.540573
C105 C 0.17003(14) 0.40561(16) 0.43440(15)
H81 H 0.152927 0.372496 0.399203
C106 C 0.40340(15) 0.45372(17) 0.69870(16)
C107 C 0.10681(15) 0.14537(16) 0.44614(16)
H82 H 0.107208 0.125009 0.464119
C108 C 0.36912(14) 0.47157(15) 0.54824(16)
C109 C 0.22690(16) 0.18548(17) 0.53326(17)
H83 H 0.192949 0.162011 0.531362
C110 C 0.30028(15) 0.52724(16) 0.79299(15)
H84 H 0.302234 0.510146 0.813952
C111 C 0.29563(15) 0.22320(16) 0.43723(16)
H85 H 0.268140 0.186775 0.405100
C112 C 0.23401(14) 0.26363(15) 0.40931(15)
C113 C 0.26938(16) 0.21923(17) 0.58253(16)
C114 C 0.40143(14) 0.47194(16) 0.59015(16)
H86 H 0.421961 0.449909 0.580628
C115 C 0.25962(17) 0.29827(18) 0.70782(17)
C116 C 0.23081(17) 0.24156(18) 0.65687(17)
C117 C 0.33923(14) 0.50574(15) 0.56357(15)
C118 C 0.14507(16) 0.24238(18) 0.67025(16)
C119 C 0.34587(15) 0.42049(17) 0.74634(16)
H87 H 0.328076 0.428649 0.773227
C120 C 0.32094(16) 0.25420(17) 0.58599(17)
C121 C 0.36760(16) 0.29024(18) 0.64018(17)
H88 H 0.359942 0.271283 0.661594
C122 C 0.32636(15) 0.32909(16) 0.46175(15)
H89 H 0.360788 0.336205 0.480366
C123 C 0.29686(14) 0.58144(15) 0.72974(15)
H90 H 0.296728 0.599680 0.709620
C124 C 0.43799(14) 0.50263(18) 0.69137(17)
H91 H 0.447048 0.539512 0.725744
C125 C 0.41842(15) 0.43237(18) 0.47724(17)
H92 H 0.447367 0.471362 0.498643
H93 H 0.427288 0.408908 0.490358
C126 C 0.34229(15) 0.36406(18) 0.71385(16)
C127 C 0.37605(15) 0.46447(17) 0.73845(16)
C128 C 0.35100(17) 0.22442(19) 0.43130(18)
H94 H 0.358188 0.235300 0.404234
H95 H 0.378405 0.254908 0.466388
C129 C 0.37356(14) 0.53678(16) 0.65830(15)
C130 C 0.17582(16) 0.21423(18) 0.63949(17)
H96 H 0.158168 0.177350 0.607718
C131 C 0.41609(17) 0.40651(19) 0.41693(18)
H97 H 0.416817 0.434497 0.405930
H98 H 0.382470 0.371836 0.394104
C132 C 0.42266(17) 0.2928(2) 0.63080(18)
H99 H 0.428679 0.308442 0.606877
H100 H 0.450582 0.320876 0.666152
C133 C 0.49247(15) 0.49839(18) 0.68388(17)
H101 H 0.485142 0.459336 0.654477
H102 H 0.510954 0.525585 0.673226
C134 C 0.57699(18) 0.4938(2) 0.7326(2)
H103 H 0.562992 0.451791 0.715846
H104 H 0.594356 0.503572 0.708376
C135 C 0.4654(2) 0.3907(3) 0.4086(2)
H105 H 0.498906 0.425191 0.432373
H106 H 0.464016 0.361944 0.418726
C136 C 0.6192(2) 0.5230(2) 0.7882(2)
H107 H 0.601417 0.513728 0.812436
H108 H 0.633194 0.564961 0.804580
C137 C 0.52954(17) 0.5123(2) 0.7375(2)
H109 H 0.544347 0.554057 0.763277
H110 H 0.507121 0.493660 0.753634
C138 C 0.6671(2) 0.5055(3) 0.7858(3)
H111 H 0.678676 0.504094 0.754379
H112 H 0.655363 0.466718 0.780259
C139 C 0.4648(2) 0.3661(2) 0.3481(2)
H113 H 0.468844 0.395994 0.339044
H114 H 0.429869 0.333659 0.324368
C140 C 0.6368(2) 0.3533(3) 0.6595(3)
H115 H 0.668127 0.357363 0.646511
H116 H 0.630749 0.388299 0.672159
H117 H 0.642795 0.346719 0.689446
C141 C 0.5079(2) 0.3239(3) 0.2746(2)
H118 H 0.536125 0.310592 0.266426
H119 H 0.473017 0.292576 0.250895
H120 H 0.512899 0.355726 0.268658
C142 C 0.5105(5) 0.3452(6) 0.3370(3)
H121 H 0.505550 0.313460 0.343499
H122 H 0.545600 0.376875 0.361336
C143 C 0.7162(2) 0.5487(3) 0.8394(3)
H123 H 0.745148 0.535647 0.836350
H124 H 0.705003 0.550175 0.870617
H125 H 0.728884 0.586877 0.844313
C144 C 0.4318(3) 0.2393(3) 0.6072(3)
H126 H 0.399529 0.207944 0.576992
H127 H 0.436390 0.229274 0.635195
C145 C 0.4825(2) 0.2433(3) 0.5850(3)
H128 H 0.486211 0.206586 0.571009
H129 H 0.476911 0.250002 0.554763
C146 C 0.5356(2) 0.2938(3) 0.6318(3)
H130 H 0.530968 0.330014 0.646702
H131 H 0.541459 0.286156 0.661413
C147 C 0.5862(3) 0.3009(3) 0.6118(3)
H132 H 0.580265 0.307252 0.581291
H133 H 0.592335 0.265587 0.598613
C148 C 0.3580(3) 0.1711(3) 0.4151(4)
H134 H 0.326120 0.139602 0.384527
H135 H 0.357487 0.164669 0.445715
C149 C 0.4061(4) 0.1650(5) 0.3986(7)
H136 H 0.418276 0.147383 0.417293
H137 H 0.391747 0.134988 0.359640
C150 C 0.4541(4) 0.2063(5) 0.4030(6)
H138 H 0.474898 0.228294 0.441869
H139 H 0.442808 0.232782 0.396703
C151 C 0.4955(7) 0.1983(8) 0.3728(9)
H140 H 0.527188 0.235273 0.391565
H141 H 0.480377 0.190081 0.336047
C152 C 0.5153(8) 0.1506(9) 0.3665(11)
H142 H 0.541545 0.150226 0.346423
H143 H 0.531890 0.158620 0.402380
H144 H 0.484870 0.113227 0.346615
Te9 Te -0.14027(2) -0.05825(2) 0.83831(2)
Te10 Te 0.00055(2) 0.20313(2) 1.10250(2)
Te11 Te -0.13272(2) 0.07504(2) 0.70164(2)
Te12 Te 0.00571(2) 0.35141(2) 0.95799(2)
O17 O 0.07030(10) -0.07819(11) 0.76006(10)
O18 O 0.10509(10) -0.04067(11) 0.86865(10)
O19 O 0.08042(10) 0.02425(11) 0.66399(10)
O20 O 0.11750(11) 0.13948(12) 0.70432(11)
O21 O 0.20127(9) 0.13702(12) 1.04500(10)
O22 O 0.24038(10) 0.25059(12) 1.07550(11)
O23 O 0.21143(10) 0.32571(11) 0.87427(12)
O24 O 0.24646(10) 0.35593(11) 0.98154(12)
N17 N -0.10477(11) -0.08025(13) 0.77734(12)
N18 N 0.07172(12) 0.25836(14) 1.10794(13)
N19 N -0.06725(12) -0.03518(14) 0.88717(12)
N20 N -0.09920(13) 0.01676(14) 0.67254(13)
N21 N 0.03291(12) 0.14408(14) 1.07858(13)
N22 N 0.04110(13) 0.33463(14) 0.89784(14)
C173 C -0.05366(14) -0.06867(15) 0.79863(14)
C174 C 0.10147(15) -0.03355(15) 0.75250(15)
N23 N -0.05742(13) 0.13462(14) 0.72248(15)
N24 N 0.07575(13) 0.36483(15) 1.00511(15)
C175 C -0.03314(14) -0.04452(15) 0.85780(14)
C176 C 0.15778(14) -0.00232(16) 0.78069(15)
C177 C 0.15097(14) 0.05069(16) 0.95604(15)
H202 H 0.122971 0.039832 0.970057
C178 C 0.16633(14) 0.16512(17) 1.05843(14)
C179 C 0.18632(14) 0.03961(16) 0.76926(15)
H203 H 0.223483 0.060989 0.787535
C180 C 0.03454(14) -0.06652(15) 0.79013(15)
C181 C -0.01722(14) -0.07915(15) 0.76590(15)
H204 H -0.029426 -0.094651 0.728018
C182 C 0.06449(15) 0.11185(17) 0.70234(16)
C183 C 0.15858(14) 0.17663(16) 0.75543(15)
C184 C 0.14797(14) 0.01464(16) 0.90195(15)
C185 C 0.09086(16) 0.34046(17) 0.91765(18)
C186 C 0.05410(14) -0.04469(15) 0.84893(15)
C187 C 0.18971(14) 0.02890(17) 0.87972(15)
C188 C 0.10358(14) 0.23026(16) 1.09322(15)
C189 C 0.04342(15) 0.04945(16) 0.67761(14)
C190 C -0.00945(15) 0.01755(17) 0.66681(15)
H205 H -0.022353 -0.022814 0.649547
C191 C 0.23377(14) 0.08246(17) 0.91395(16)
H206 H 0.261610 0.093289 0.899756
C192 C 0.16159(16) 0.23121(17) 0.79129(16)
H207 H 0.134952 0.243036 0.783334
C193 C 0.08258(14) 0.16895(16) 1.07768(15)
C194 C 0.19569(14) 0.10266(17) 0.98883(15)
C195 C 0.10661(15) 0.01837(16) 0.70490(14)
C196 C 0.19852(15) 0.15794(17) 0.76563(17)
C197 C 0.16260(15) 0.05152(16) 0.73210(15)
C198 C 0.17546(15) 0.33373(16) 0.90531(18)
C199 C 0.10910(16) 0.35613(17) 0.97502(18)
C200 C 0.18708(14) 0.22563(17) 1.07427(15)
C201 C 0.07617(15) -0.02428(15) 0.71452(14)
H208 H 0.039182 -0.046297 0.695582
C202 C 0.12647(16) 0.33038(17) 0.88391(18)
H209 H 0.115891 0.321631 0.847694
C203 C -0.04622(15) 0.04520(16) 0.68167(15)
C204 C 0.24017(15) 0.19591(16) 0.81462(16)
H210 H 0.266282 0.183585 0.822782
C205 C 0.23837(14) 0.12103(17) 0.96887(16)
C206 C 0.11686(14) 0.13827(17) 1.06144(15)
H211 H 0.105052 0.099854 1.052964
C207 C 0.34795(15) 0.29197(17) 0.89630(17)
H212 H 0.376367 0.315047 0.931525
H213 H 0.345026 0.252204 0.878902
C208 C 0.29325(15) 0.29293(17) 0.90605(17)
H214 H 0.296088 0.332496 0.918355
C209 C 0.20529(15) 0.26853(16) 0.83984(17)
C210 C 0.02138(14) -0.03348(17) 0.88163(15)
H215 H 0.034474 -0.018711 0.919285
C211 C -0.02401(15) 0.10885(17) 0.70877(16)
C212 C 0.15717(15) 0.25723(18) 1.09156(16)
H216 H 0.171431 0.296407 1.102347
C213 C 0.23944(15) -0.01876(18) 0.81365(17)
H217 H 0.235325 -0.042286 0.774665
H218 H 0.267458 0.019883 0.828018
C214 C 0.19385(15) 0.34902(16) 0.96225(17)
C215 C 0.28963(15) 0.23826(17) 0.95782(17)
H219 H 0.306240 0.217304 0.934657
C216 C 0.18544(14) -0.01435(16) 0.82061(15)
H220 H 0.160703 -0.052830 0.812196
C217 C 0.27945(15) 0.28020(17) 0.95068(17)
C218 C 0.24554(15) 0.25152(16) 0.85258(17)
C219 C 0.23907(15) 0.29968(17) 1.02551(16)
H221 H 0.222236 0.320554 1.048402
C220 C 0.03229(17) 0.14082(17) 0.71845(18)
H222 H 0.046745 0.181250 0.735707
C221 C 0.27603(14) 0.22603(17) 0.99836(16)
C222 C 0.19543(15) 0.09840(17) 0.72226(16)
H223 H 0.175411 0.089263 0.686226
C223 C 0.16281(16) 0.36145(18) 0.99616(18)
H224 H 0.176019 0.373416 1.033090
C224 C 0.25676(15) -0.04615(19) 0.84419(18)
H225 H 0.226781 -0.082847 0.832214
H226 H 0.263354 -0.020634 0.883417
C225 C 0.36324(16) 0.3164(2) 0.85949(19)
H227 H 0.334508 0.293218 0.824473
H228 H 0.365531 0.355967 0.876959
C226 C 0.25037(14) 0.25789(17) 1.03167(16)
C227 C 0.41714(16) 0.3170(2) 0.84837(19)
H229 H 0.445767 0.338508 0.883276
H230 H 0.414339 0.277321 0.828697
C228 C 0.25321(15) 0.30994(16) 0.98470(17)
C229 C 0.25305(17) 0.10097(19) 0.71950(18)
H231 H 0.275292 0.114111 0.755817
H232 H 0.249959 0.062036 0.694242
C230 C 0.30307(16) -0.09920(19) 0.7763(2)
H233 H 0.304690 -0.079238 0.756085
H234 H 0.267845 -0.132078 0.759387
C231 C 0.50067(17) 0.1311(2) 0.9560(2)
H235 H 0.487886 0.148217 0.937699
H236 H 0.528902 0.120681 0.942550
H237 H 0.514857 0.158612 0.995144
C232 C 0.28670(14) 0.18005(17) 1.00617(17)
H238 H 0.288004 0.190775 1.044326
C233 C 0.30777(16) -0.0577(2) 0.8358(2)
H239 H 0.338183 -0.020700 0.849514
H240 H 0.316122 -0.073472 0.858066
C234 C 0.34767(19) -0.1220(2) 0.7712(3)
H241 H 0.382750 -0.089063 0.792744
H242 H 0.342838 -0.146398 0.787118
C235 C 0.34191(16) 0.1776(2) 0.9998(2)
H243 H 0.340313 0.161194 0.961129
H244 H 0.370383 0.216835 1.020504
C236 C 0.45335(18) 0.07627(19) 0.9444(2)
H245 H 0.464500 0.063395 0.968383
H246 H 0.444744 0.045339 0.906431
C237 C 0.35618(18) 0.1403(2) 1.0205(3)
H247 H 0.358510 0.158062 1.059381
H248 H 0.325997 0.102172 1.001119
C238 C 0.4084(2) 0.1313(3) 1.0145(2)
H249 H 0.417932 0.116873 1.037619
H250 H 0.438068 0.168281 1.026584
C239 C 0.4321(6) 0.3450(8) 0.8143(8)
H251 H 0.405606 0.320125 0.777820
H252 H 0.428698 0.381960 0.831361
C240 C 0.2810(2) 0.1414(3) 0.7006(2)
H253 H 0.259326 0.127160 0.663668
H254 H 0.282374 0.179757 0.724882
C241 C 0.4005(2) 0.0874(3) 0.9538(2)
H255 H 0.390336 0.101855 0.930909
H256 H 0.370724 0.050619 0.942048
C242 C 0.3382(2) 0.1470(3) 0.6997(3)
H257 H 0.361064 0.173564 0.737856
H258 H 0.337947 0.109144 0.689597
C243 C 0.3485(2) -0.1564(3) 0.7129(3)
H259 H 0.314111 -0.189456 0.691299
H260 H 0.377108 -0.169722 0.712935
H261 H 0.354795 -0.132191 0.697246
C244 C 0.5077(4) 0.3993(5) 0.7907(5)
H262 H 0.543494 0.403447 0.787403
H263 H 0.483549 0.386129 0.755821
H264 H 0.509329 0.436206 0.818176
C245 C 0.4873(4) 0.3559(5) 0.8075(5)
H265 H 0.486999 0.319198 0.780044
H266 H 0.512723 0.369167 0.842266
C246 C 0.3672(6) 0.1651(6) 0.6678(6)
H267 H 0.393818 0.205214 0.690698
H268 H 0.342422 0.161443 0.637799
C247 C 0.3976(5) 0.1202(6) 0.6437(5)
H269 H 0.436609 0.143033 0.660069
H270 H 0.387523 0.093223 0.656637
C248 C 0.3869(6) 0.0877(6) 0.5868(5)
H271 H 0.406849 0.063556 0.578271
H272 H 0.348586 0.063442 0.569727
H273 H 0.397871 0.113454 0.573173
Te13 Te 1.14615(2) 0.56585(2) 0.65953(2)
Te14 Te 1.15098(2) 0.43718(2) 0.80258(2)
Te15 Te 1.00332(2) 0.29600(2) 0.40408(2)
Te16 Te 1.01006(2) 0.15741(2) 0.55546(2)
O25 O 0.93824(9) 0.58735(10) 0.74292(10)
O26 O 0.90020(10) 0.54602(11) 0.63425(10)
O27 O 0.80313(10) 0.36271(11) 0.46279(10)
O28 O 0.90406(11) 0.37714(12) 0.81151(11)
O29 O 0.76568(10) 0.25035(11) 0.43618(11)
O30 O 0.93962(10) 0.49003(11) 0.84263(10)
O31 O 0.80853(12) 0.18790(12) 0.64578(12)
O32 O 0.77141(11) 0.15534(11) 0.53936(12)
N25 N 1.11314(12) 0.59062(13) 0.72192(12)
N26 N 0.93319(12) 0.24184(14) 0.40121(14)
N27 N 1.07184(11) 0.54160(14) 0.61163(12)
N28 N 0.97061(12) 0.35462(13) 0.42724(13)
N29 N 1.11604(13) 0.49418(14) 0.82605(13)
C257 C 1.06176(14) 0.57878(15) 0.70197(14)
N30 N 1.07832(14) 0.37930(15) 0.78989(15)
C258 C 0.82748(15) 0.47204(16) 0.74189(15)
H300 H 0.789985 0.450841 0.725927
C259 C 0.97365(14) 0.57605(14) 0.71209(14)
N31 N 0.97774(15) 0.17804(17) 0.61787(15)
C260 C 1.03936(14) 0.55249(15) 0.64242(14)
N32 N 0.93927(15) 0.14282(16) 0.51030(15)
C261 C 0.90993(14) 0.54356(15) 0.75242(14)
C262 C 0.85360(14) 0.51209(16) 0.72777(15)
C263 C 1.02644(14) 0.59032(15) 0.73563(15)
H301 H 1.039844 0.607644 0.773703
C264 C 0.85829(13) 0.49023(15) 0.60379(15)
C265 C 0.83815(14) 0.33507(16) 0.44945(14)
C266 C 0.92127(14) 0.33039(16) 0.42905(14)
C267 C 0.85423(13) 0.45223(16) 0.54981(15)
H302 H 0.881130 0.462480 0.534404
C268 C 0.80979(14) 0.39880(16) 0.51886(15)
C269 C 0.95241(14) 0.55198(15) 0.65313(14)
C270 C 0.82313(14) 0.52136(16) 0.68673(15)
H303 H 0.846756 0.559455 0.693417
C271 C 0.90140(15) 0.26983(16) 0.41577(15)
C272 C 0.81803(14) 0.47666(16) 0.62789(15)
C273 C 0.77435(14) 0.42209(16) 0.59557(16)
H304 H 0.747533 0.411795 0.611032
C274 C 0.86182(16) 0.33925(17) 0.76136(17)
C275 C 0.85446(16) 0.46171(16) 0.77893(16)
C276 C 0.76892(14) 0.38216(16) 0.54111(16)
C277 C 0.91086(15) 0.49455(16) 0.80249(15)
C278 C 0.88735(14) 0.36162(16) 0.44551(14)
H305 H 0.899073 0.399835 0.453427
C279 C 0.95636(15) 0.40318(17) 0.81016(16)
C280 C 0.93854(14) 0.53559(15) 0.78996(14)
H306 H 0.975885 0.557560 0.806544
C281 C 0.81885(14) 0.27525(16) 0.43595(15)
C282 C 0.85873(17) 0.28392(18) 0.72558(17)
H307 H 0.886299 0.272930 0.732876
C283 C 0.97619(16) 0.46425(17) 0.82834(15)
C284 C 0.84409(17) 0.17973(17) 0.61448(18)
C285 C 0.92803(18) 0.17231(18) 0.60008(18)
C286 C 1.06467(15) 0.46672(16) 0.82130(15)
C287 C 0.82172(16) 0.35750(17) 0.75187(17)
C288 C 0.72302(15) 0.26857(16) 0.55857(17)
H308 H 0.705852 0.289164 0.581207
C289 C 0.73633(15) 0.22903(17) 0.56826(17)
C290 C 0.73441(14) 0.27850(16) 0.51628(16)
C291 C 1.02799(15) 0.49497(16) 0.83422(15)
H309 H 1.040100 0.534513 0.846647
C292 C 0.74680(15) 0.54631(18) 0.65952(16)
H310 H 0.775407 0.581870 0.666817
H311 H 0.738032 0.517134 0.620844
C293 C 0.76920(14) 0.52531(17) 0.69486(16)
H312 H 0.774939 0.552196 0.733550
H313 H 0.742737 0.487259 0.684623
C294 C 0.98365(15) 0.53964(17) 0.61926(15)
H314 H 0.969177 0.523028 0.581430
C295 C 0.84854(15) 0.24355(17) 0.41889(16)
H315 H 0.834584 0.204698 0.409193
C296 C 0.76260(15) 0.19923(16) 0.53396(17)
C297 C 1.04414(16) 0.40474(17) 0.80162(17)
C298 C 0.90762(18) 0.15458(18) 0.54229(18)
C299 C 0.77783(16) 0.31661(17) 0.70315(18)
H316 H 0.750660 0.327713 0.694989
C300 C 0.77359(14) 0.20689(16) 0.49064(16)
H317 H 0.790249 0.185909 0.467578
C301 C 0.82493(16) 0.41689(17) 0.79312(17)
H318 H 0.848020 0.428432 0.828855
C302 C 0.82439(16) 0.16305(16) 0.55738(18)
C303 C 0.98889(17) 0.37403(18) 0.79680(19)
H319 H 0.975419 0.334492 0.784630
C304 C 0.89359(17) 0.18331(18) 0.63445(18)
H320 H 0.905342 0.193003 0.670858
C305 C 0.81412(17) 0.24564(18) 0.67910(18)
C306 C 0.85500(18) 0.15113(18) 0.52321(18)
H321 H 0.841654 0.140530 0.486730
C307 C 0.72443(17) 0.21870(18) 0.61400(19)
H322 H 0.721955 0.179404 0.602532
C308 C 0.72042(14) 0.32230(16) 0.50650(17)
H323 H 0.716533 0.309703 0.467549
C309 C 0.75937(14) 0.24606(16) 0.48259(16)
C310 C 0.77270(16) 0.26065(17) 0.66654(18)
C311 C 0.69643(15) 0.55812(18) 0.66895(18)
H324 H 0.683713 0.567173 0.642143
H325 H 0.667857 0.522710 0.661978
C312 C 0.65836(17) 0.62764(19) 0.7307(2)
H326 H 0.657697 0.645537 0.708719
H327 H 0.624060 0.593788 0.715156
C313 C 0.70510(16) 0.60740(18) 0.72642(18)
H328 H 0.738774 0.640315 0.737022
H329 H 0.709119 0.594633 0.752412
C314 C 0.66911(17) 0.21858(19) 0.62212(19)
H330 H 0.671816 0.258233 0.638623
H331 H 0.641856 0.195452 0.586122
C315 C 0.77016(17) 0.41676(19) 0.8012(2)
H332 H 0.745678 0.405003 0.766559
H333 H 0.775352 0.456005 0.828232
C316 C 0.66687(16) 0.32513(19) 0.5163(2)
H334 H 0.672271 0.348538 0.555617
H335 H 0.639713 0.286185 0.502415
C317 C 0.54639(19) 0.4262(2) 0.5553(2)
H336 H 0.554210 0.459370 0.591829
H337 H 0.535474 0.435713 0.528264
C318 C 0.5000(2) 0.3733(2) 0.5467(3)
H338 H 0.483707 0.345061 0.507884
H339 H 0.473125 0.384873 0.562218
H340 H 0.513850 0.356332 0.564687
C319 C 0.7441(2) 0.3754(2) 0.8208(3)
H341 H 0.766322 0.389859 0.857550
H342 H 0.742816 0.337156 0.796181
C320 C 0.6501(2) 0.1952(3) 0.6574(3)
H343 H 0.677753 0.217777 0.693096
H344 H 0.646605 0.155276 0.640439
C321 C 0.6631(2) 0.6708(2) 0.7895(2)
H345 H 0.632803 0.681605 0.789431
H346 H 0.696476 0.704941 0.804918
H347 H 0.662972 0.653148 0.811422
C322 C 0.5960(2) 0.1963(3) 0.6666(3)
H348 H 0.601635 0.236533 0.690403
H349 H 0.570429 0.181184 0.631327
C323 C 0.6464(3) 0.3534(4) 0.4852(4)
H350 H 0.675785 0.390453 0.497164
H351 H 0.639955 0.328219 0.445933
C324 C 0.6846(4) 0.3701(5) 0.8220(4)
H352 H 0.666715 0.372182 0.791991
H353 H 0.663147 0.333257 0.818316
C325 C 0.5703(5) 0.1616(5) 0.6922(6)
H354 H 0.597949 0.169615 0.722861
H355 H 0.542705 0.173662 0.706502
C326 C 0.5946(3) 0.3641(3) 0.4931(3)
H356 H 0.581454 0.371345 0.465011
H357 H 0.566626 0.328665 0.486910
C327 C 0.6910(5) 0.4224(6) 0.8791(6)
H358 H 0.706062 0.417379 0.908257
H359 H 0.716843 0.458182 0.884033
C328 C 0.6015(3) 0.4143(3) 0.5494(3)
H360 H 0.630462 0.449566 0.556438
H361 H 0.612866 0.406313 0.577498
C329 C 0.6381(5) 0.4286(5) 0.8854(5)
H362 H 0.610484 0.391097 0.875179
H363 H 0.625844 0.439662 0.860183
C330 C 0.5178(6) 0.0601(6) 0.6717(6)
H364 H 0.502562 0.019829 0.642708
H365 H 0.544221 0.066236 0.701710
H366 H 0.489365 0.070483 0.684643
C331 C 0.6438(5) 0.4736(6) 0.9438(4)
H367 H 0.609353 0.475857 0.945627
H368 H 0.655136 0.462410 0.968912
H369 H 0.670496 0.510976 0.953915
C332 C 0.5448(6) 0.0972(5) 0.6502(5)
H370 H 0.517940 0.089868 0.619255
H371 H 0.572727 0.085626 0.636301
C343 C 0.85802(14) 0.75271(15) 0.76033(15)
C344 C 0.89016(16) 0.77774(16) 0.73623(16)
H402 H 0.886101 0.808246 0.734013
C345 C 0.92888(17) 0.75763(19) 0.71505(17)
H403 H 0.950354 0.775018 0.699281
C346 C 0.81849(15) 0.77609(16) 0.78576(15)
H404 H 0.838847 0.816051 0.816172
H405 H 0.800503 0.753364 0.800876
C347 C 0.93479(16) 0.71226(17) 0.71777(17)
H406 H 0.960040 0.698616 0.703542
C348 C 0.73135(15) 0.79076(16) 0.76877(17)
C349 C 0.86540(16) 0.70684(17) 0.76288(18)
H407 H 0.844615 0.689447 0.779060
C350 C 0.77541(15) 0.77469(17) 0.74556(16)
H408 H 0.758337 0.735799 0.712876
H409 H 0.793112 0.801462 0.734165
C351 C 0.73791(16) 0.82054(17) 0.82497(18)
H410 H 0.770916 0.832570 0.849859
C352 C 0.68156(16) 0.77392(18) 0.7330(2)
H411 H 0.676055 0.753738 0.695061
C353 C 0.69600(17) 0.83285(18) 0.8450(2)
H412 H 0.701098 0.852630 0.882874
C354 C 0.90329(17) 0.68714(17) 0.74159(18)
H413 H 0.907452 0.656503 0.743437
C355 C 0.63981(17) 0.78653(19) 0.7526(2)
H414 H 0.606981 0.775300 0.727919
C356 C 0.64713(18) 0.81568(19) 0.8086(2)
H415 H 0.619093 0.823742 0.821870
C357 C 0.18605(16) 0.73032(17) 0.70796(16)
H416 H 0.203300 0.752439 0.692024
H417 H 0.165056 0.690241 0.678022
C358 C 0.14756(15) 0.75465(16) 0.73478(16)
C359 C 0.23032(15) 0.73187(17) 0.74762(15)
H418 H 0.247846 0.770780 0.780261
H419 H 0.213452 0.705064 0.759270
C360 C 0.11843(17) 0.73327(19) 0.76284(17)
H420 H 0.123838 0.704514 0.767436
C361 C 0.32419(16) 0.73207(17) 0.75683(18)
H421 H 0.330775 0.751993 0.794947
C362 C 0.36491(16) 0.71913(18) 0.7352(2)
H422 H 0.398374 0.730449 0.758990
C363 C 0.27358(15) 0.71568(16) 0.72232(16)
C364 C 0.08074(19) 0.7547(2) 0.78445(18)
H423 H 0.061042 0.739701 0.802829
C365 C 0.26506(16) 0.68546(17) 0.66528(17)
H424 H 0.231574 0.673765 0.641342
C366 C 0.35619(16) 0.68979(18) 0.6791(2)
H425 H 0.383642 0.681443 0.664808
C367 C 0.13818(17) 0.79772(18) 0.72858(19)
H426 H 0.156924 0.812513 0.709525
C368 C 0.07274(18) 0.7978(2) 0.77860(18)
H427 H 0.048324 0.812563 0.793526
C369 C 0.30582(17) 0.67265(18) 0.64386(18)
H428 H 0.299501 0.652520 0.605783
C370 C 0.10112(19) 0.81854(19) 0.7506(2)
H429 H 0.095512 0.847326 0.746253
C371 C 0.8542(2) 0.49119(17) 0.01274(17)
C372 C 0.8119(2) 0.50874(19) 0.03821(19)
H430 H 0.793428 0.520252 0.016785
H431 H 0.830238 0.542434 0.075360
C373 C 0.7246(2) 0.47441(19) 0.06243(18)
C374 C 0.9336(2) 0.4602(2) -0.0337(2)
H432 H 0.959068 0.448750 -0.049620
C375 C 0.76944(19) 0.46057(18) 0.04091(19)
H433 H 0.753145 0.426101 0.004048
H434 H 0.787955 0.450902 0.064189
C376 C 0.7262(2) 0.5305(2) 0.0890(2)
H435 H 0.756647 0.561267 0.094257
C377 C 0.8885(2) 0.4747(2) 0.0361(2)
H436 H 0.884956 0.473291 0.067593
C378 C 0.9278(2) 0.4603(2) 0.0131(2)
H437 H 0.950947 0.450458 0.030118
C379 C 0.6778(2) 0.4295(2) 0.05525(19)
H438 H 0.675020 0.391398 0.037387
C380 C 0.8615(3) 0.4926(2) -0.0340(2)
H439 H 0.839614 0.503887 -0.050384
C381 C 0.6386(3) 0.4967(3) 0.1008(2)
H440 H 0.610339 0.504238 0.113876
C382 C 0.6842(3) 0.5417(3) 0.1077(2)
H441 H 0.686405 0.579589 0.125088
C383 C 0.9010(3) 0.4774(3) -0.0570(2)
H442 H 0.905251 0.478999 -0.088231
C384 C 0.6358(2) 0.4411(3) 0.0743(2)
H443 H 0.605084 0.410593 0.069102
C385 C 0.2750(3) 0.0101(3) 0.4329(3)
C386 C 0.2690(3) -0.0471(3) 0.4007(3)
H444 H 0.236401 -0.077871 0.391421
C387 C 0.3118(3) -0.0585(3) 0.3825(3)
H445 H 0.307834 -0.096786 0.360965
C388 C 0.3606(3) -0.0125(4) 0.3964(3)
H446 H 0.389268 -0.020123 0.384154
C389 C 0.3666(2) 0.0447(3) 0.4285(3)
H447 H 0.399271 0.075457 0.437800
C390 C 0.3238(3) 0.0561(2) 0.4468(4)
H448 H 0.327839 0.094374 0.468257
C391 C 0.15341(19) 0.0089(2) 0.49159(19)
C392 C 0.1072(2) 0.0015(3) 0.45746(15)
H449 H 0.101720 -0.016030 0.419542
C393 C 0.06925(19) 0.0204(3) 0.4800(2)
H450 H 0.038343 0.015442 0.457152
C394 C 0.0775(2) 0.0466(2) 0.5367(2)
H451 H 0.052061 0.059197 0.551737
C395 C 0.1237(2) 0.0539(3) 0.57080(16)
H452 H 0.129157 0.071480 0.608712
C396 C 0.16163(19) 0.0351(3) 0.54826(18)
H453 H 0.192536 0.040008 0.571104
C397 C 0.2331(3) 0.0334(3) 0.4553(3)
H454 H 0.251617 0.071620 0.488727
H455 H 0.212020 0.036897 0.428096
C398 C 0.1960(3) -0.0094(3) 0.4675(3)
H456 H 0.177674 -0.047168 0.433537
H457 H 0.218028 -0.013796 0.493252
Te1 Te 0.94451(2) 0.04422(2) -0.01023(2)
Te2 Te 0.84302(2) -0.06123(2) -0.29551(2)
Te3 Te 0.95461(2) 0.23624(2) -0.19492(2)
Te4 Te 1.04436(2) 0.33176(2) 0.07964(2)
O1 O 0.74205(9) 0.09153(10) 0.06971(10)
O2 O 0.80995(9) 0.29263(10) 0.12072(9)
O3 O 0.69157(9) -0.00806(10) -0.03036(10)
O4 O 0.81283(9) 0.35018(10) 0.06520(10)
O5 O 0.62732(9) -0.06574(10) -0.22100(10)
O6 O 0.62771(9) -0.01191(10) -0.27800(10)
O7 O 0.75328(10) 0.29552(11) -0.12506(11)
O8 O 0.70191(10) 0.19081(11) -0.22159(11)
N1 N 0.91596(11) 0.09092(12) 0.04962(12)
N2 N 0.79302(11) -0.08251(12) -0.25538(12)
N3 N 0.92645(13) 0.29212(14) -0.14377(14)
N4 N 0.98850(12) 0.30121(13) 0.11089(13)
N5 N 0.87527(13) 0.18494(13) -0.23654(14)
N6 N 0.79197(12) -0.03034(13) -0.31528(12)
N7 N 0.86512(11) -0.00465(13) -0.05366(12)
N8 N 0.99093(12) 0.35744(14) 0.05485(14)
C1 C 0.68319(13) 0.12483(14) 0.03434(13)
C2 C 0.73441(13) 0.13601(14) 0.06436(13)
C3 C 0.77680(13) 0.19116(14) 0.09218(14)
H1 H 0.810353 0.197994 0.112356
C4 C 0.72124(14) 0.28052(14) 0.00957(14)
C5 C 0.77297(14) 0.31522(14) 0.01343(14)
C6 C 0.68137(14) 0.24993(15) -0.04155(15)
H2 H 0.646785 0.225917 -0.045290
C7 C 0.76831(13) 0.23598(13) 0.08941(13)
C8 C 0.71834(13) 0.22774(14) 0.06023(13)
C9 C 0.60179(13) 0.00307(14) -0.15203(14)
C10 C 0.78443(14) 0.31996(15) -0.03091(15)
H3 H 0.819100 0.343772 -0.027190
C11 C 0.69044(14) 0.25332(15) -0.08729(15)
C12 C 0.63632(13) 0.06493(14) 0.00540(14)
H4 H 0.645125 0.044011 0.022339
C13 C 0.84482(16) 0.21073(16) -0.21189(17)
C14 C 0.74811(13) 0.01630(14) -0.01370(14)
C15 C 0.60545(13) 0.05555(16) -0.20318(14)
C16 C 0.60293(13) 0.03289(15) -0.09674(14)
H5 H 0.582370 0.054875 -0.087175
C17 C 0.77499(13) 0.06867(14) 0.04098(14)
C18 C 0.85476(13) 0.30499(14) 0.10210(13)
C19 C 0.75800(15) 0.21269(16) -0.20242(16)
C20 C 0.67192(13) -0.05443(14) -0.24004(14)
C21 C 0.67705(13) 0.17156(14) 0.03312(13)
H6 H 0.643485 0.164866 0.013075
C22 C 0.70914(13) 0.27789(14) 0.05918(14)
H7 H 0.736011 0.313982 0.092118
C23 C 0.56925(13) 0.00596(15) -0.19748(14)
H8 H 0.560066 -0.030503 -0.232330
C24 C 0.61038(13) 0.11264(15) -0.17149(14)
H9 H 0.591184 0.120397 -0.145821
C25 C 0.85622(14) 0.33553(15) 0.07253(14)
C26 C 0.66294(13) -0.03373(14) -0.12520(14)
H10 H 0.682469 -0.056829 -0.134934
C27 C 0.75265(13) -0.03738(15) -0.29202(14)
C28 C 0.78677(16) 0.18474(17) -0.23209(16)
H11 H 0.768647 0.149090 -0.265158
C29 C 0.75306(13) -0.06546(14) -0.26004(14)
C30 C 0.67193(14) -0.02572(15) -0.27116(14)
C31 C 0.65285(14) 0.27708(15) 0.06281(15)
H12 H 0.625201 0.240903 0.031541
H13 H 0.649513 0.308891 0.059819
C32 C 0.63360(13) 0.03105(14) -0.05530(14)
C33 C 0.66383(13) -0.00261(14) -0.07074(14)
C34 C 0.86242(13) 0.06848(15) 0.03182(14)
C35 C 0.87323(15) 0.26906(16) -0.16119(16)
C36 C 0.64583(14) 0.22020(16) -0.14179(15)
H14 H 0.657088 0.239823 -0.162042
C37 C 0.82983(13) 0.09231(15) 0.06336(14)
H15 H 0.846255 0.124139 0.099361
C38 C 0.94657(14) 0.34143(15) 0.06917(15)
C39 C 0.71019(14) -0.01836(15) -0.29710(14)
H16 H 0.708807 -0.001109 -0.318004
C40 C 0.63500(14) 0.04555(15) -0.24115(14)
C41 C 0.58369(14) 0.09207(16) 0.07466(15)
H17 H 0.616415 0.127716 0.097888
H18 H 0.585703 0.063891 0.084464
C42 C 0.74326(14) 0.28856(15) -0.08092(15)
C43 C 0.64234(13) 0.15875(15) -0.17601(14)
C44 C 0.89741(13) 0.29341(15) 0.11509(14)
H19 H 0.895806 0.273919 0.134182
C45 C 0.90021(14) 0.35275(15) 0.05676(15)
H20 H 0.900476 0.372129 0.037683
C46 C 0.58249(13) 0.06859(15) 0.01455(14)
H21 H 0.575143 0.093753 0.002955
H22 H 0.553047 0.030032 -0.008317
C47 C 0.71095(14) -0.07403(15) -0.23473(14)
H23 H 0.710314 -0.092724 -0.214952
C48 C 0.63261(13) -0.03013(14) -0.16510(14)
C49 C 0.78584(15) 0.26964(16) -0.15180(15)
C50 C 0.94547(13) 0.31132(14) 0.09929(14)
C51 C 0.77666(14) -0.00904(15) -0.04474(15)
H24 H 0.758638 -0.042932 -0.079308
C52 C 0.53424(13) 0.10478(15) 0.08687(15)
H25 H 0.501278 0.070100 0.061665
H26 H 0.533915 0.135513 0.080306
C53 C 0.83488(13) 0.01650(15) -0.02422(14)
C54 C 0.84066(15) 0.29761(16) -0.13289(16)
H27 H 0.857418 0.335061 -0.101803
C55 C 0.66764(14) 0.08961(16) -0.24704(15)
H28 H 0.686688 0.081743 -0.272846
C56 C 0.59134(15) 0.22197(17) -0.13470(17)
H29 H 0.580638 0.206901 -0.111207
H30 H 0.563596 0.197312 -0.170440
C57 C 0.51509(14) 0.01021(17) -0.18961(16)
H31 H 0.495230 -0.019721 -0.182564
H32 H 0.522830 0.047852 -0.157545
C58 C 0.53428(15) 0.12335(17) 0.14633(16)
H33 H 0.533200 0.091838 0.152171
H34 H 0.568195 0.156809 0.171283
C59 C 0.67177(14) 0.14630(16) -0.21372(15)
C60 C 0.48692(15) 0.13910(19) 0.16121(17)
H35 H 0.487861 0.170766 0.155666
H36 H 0.452847 0.105711 0.136630
C61 C 0.48884(17) 0.1572(2) 0.22025(17)
H37 H 0.487702 0.125925 0.225900
H38 H 0.458129 0.166148 0.227622
H39 H 0.521929 0.191094 0.244803
C62 C 0.64151(18) 0.28262(19) 0.11619(18)
H40 H 0.651141 0.254448 0.121017
H41 H 0.667505 0.320884 0.146149
C63 C 0.59540(18) 0.2850(2) -0.1086(2)
H42 H 0.624020 0.309402 -0.073468
H43 H 0.606067 0.299495 -0.132535
C64 C 0.47935(16) 0.0029(2) -0.2402(2)
H44 H 0.500827 0.030325 -0.249279
H45 H 0.469269 -0.036092 -0.271358
C65 C 0.42787(19) 0.0121(2) -0.2332(3)
H46 H 0.402440 -0.006682 -0.269621
H47 H 0.411398 -0.007374 -0.214805
C66 C 0.5443(2) 0.2913(3) -0.0992(3)
H48 H 0.548981 0.330939 -0.087631
H49 H 0.514944 0.265204 -0.133764
C67 C 0.5290(3) 0.2782(3) -0.0567(3)
H50 H 0.560509 0.299280 -0.024216
H51 H 0.517857 0.236815 -0.071048
C68 C 0.4350(3) 0.0730(3) -0.2020(3)
H52 H 0.448275 0.092066 -0.221757
H53 H 0.462139 0.092991 -0.166307
C69 C 0.3852(3) 0.1378(3) -0.1632(3)
H54 H 0.350253 0.137064 -0.159440
H55 H 0.411292 0.159070 -0.127223
H56 H 0.396696 0.156443 -0.183419
C70 C 0.4830(3) 0.2952(5) -0.0404(4)
H57 H 0.495369 0.337068 -0.023445
H58 H 0.452790 0.276653 -0.073453
C71 C 0.3812(6) 0.0777(5) -0.1932(7)
H59 H 0.354034 0.056375 -0.229047
H60 H 0.368608 0.058999 -0.172934
C72 C 0.4634(4) 0.2779(5) -0.0007(5)
H61 H 0.449003 0.236261 -0.018161
H62 H 0.435484 0.291105 0.009407
H63 H 0.493359 0.295514 0.031774
C73 C 0.5663(4) 0.3162(5) 0.1186(4)
H64 H 0.559068 0.306780 0.080538
H65 H 0.591921 0.356605 0.142553
C74 C 0.5113(6) 0.3047(8) 0.1350(7)
H66 H 0.483882 0.266415 0.106589
H67 H 0.517823 0.305380 0.169476
C75 C 0.5882(4) 0.2759(5) 0.1260(4)
H68 H 0.591624 0.283795 0.163384
H69 H 0.562262 0.235857 0.100750
C76 C 0.4915(6) 0.3492(7) 0.1410(8)
H70 H 0.458353 0.341667 0.150888
H71 H 0.518432 0.387004 0.169449
H72 H 0.484553 0.348109 0.106674
H145? H 0.378374 0.262696 0.459740
H146? H 0.357045 0.196394 0.439270
H147? H 0.384908 0.369127 0.397836
H148? H 0.405500 0.430827 0.406208
H149? H 0.418162 0.253615 0.604508
H150? H 0.432965 0.316081 0.614016
H151? H 0.670758 0.315642 0.148684
H152? H 0.636231 0.247387 0.116873
H153? H 0.399644 -0.026857 -0.249474
H154? H 0.433184 0.030730 -0.193716
C153? C 0.5854(4) 0.2926(5) 0.1120(4)
H155? H 0.593288 0.331200 0.117947
H156? H 0.559948 0.264150 0.075247
H157? H 0.354824 0.135667 -0.148701
H158? H 0.417963 0.153881 -0.134046
H159? H 0.388620 0.162250 -0.178543
C154? C 0.5089(7) 0.3011(11) 0.1549(8)
H160? H 0.479092 0.270923 0.121569
H161? H 0.517399 0.338045 0.156717
C155? C 0.5601(4) 0.2865(4) 0.1545(4)
H162? H 0.586798 0.312446 0.190830
H163? H 0.549478 0.246801 0.146526
C156? C 0.4929(7) 0.3048(9) 0.2075(7)
H164? H 0.461516 0.313814 0.209220
H165? H 0.484646 0.268058 0.205121
H166? H 0.522768 0.334856 0.240100
C157? C 0.4022(4) 0.0421(4) -0.2506(4)
H167? H 0.374344 0.013623 -0.285921
H168? H 0.429388 0.069310 -0.256090
C158? C 0.3759(9) 0.0759(7) -0.2089(9)
H169? H 0.340356 0.063047 -0.233180
H170? H 0.369078 0.054855 -0.189626
C159? C 0.4581(7) 0.3949(8) 0.3891(7)
H171? H 0.492480 0.428998 0.408071
H172? H 0.446309 0.384369 0.350933
C160? C 0.4636(7) 0.3447(7) 0.3922(7)
H173? H 0.428258 0.311875 0.373581
H174? H 0.473078 0.356044 0.430800
C161? C 0.5058(7) 0.3237(9) 0.3673(7)
H175? H 0.541328 0.343853 0.394529
H176? H 0.493990 0.281916 0.350627
C162? C 0.5054(15) 0.3412(16) 0.3242(12)
H177? H 0.530423 0.330662 0.304507
H178? H 0.469364 0.321309 0.298690
H179? H 0.516177 0.382558 0.342105
C163? C 0.3607(3) 0.2127(4) 0.3803(3)
H180? H 0.354535 0.240779 0.372448
H181? H 0.333175 0.174531 0.351976
C164? C 0.4157(5) 0.2136(7) 0.3732(7)
H182? H 0.415204 0.205526 0.336137
H183? H 0.443385 0.252720 0.398950
C165? C 0.4672(4) 0.3168(6) 0.6798(5)
H184? H 0.456209 0.295459 0.698313
H185? H 0.474006 0.357133 0.705048
C166? C 0.5188(5) 0.3141(9) 0.6677(6)
H186? H 0.528695 0.334041 0.647875
H187? H 0.511973 0.273542 0.643438
C167? C 0.5667(5) 0.3407(9) 0.7182(6)
H188? H 0.559853 0.316221 0.734067
H189? H 0.569414 0.378693 0.745599
C168? C 0.6208(6) 0.3475(12) 0.7055(11)
H190? H 0.616757 0.311633 0.673276
H191? H 0.648262 0.356009 0.736560
C169? C 0.6383(17) 0.398(2) 0.694(2)
H192? H 0.672347 0.403255 0.686310
H193? H 0.610958 0.389394 0.663485
H194? H 0.642348 0.433607 0.726537
C170? C 0.4325(6) 0.1713(7) 0.3817(8)
H195? H 0.400688 0.134668 0.364876
H196? H 0.443774 0.186351 0.421102
C171? C 0.4781(7) 0.1585(8) 0.3588(11)
H197? H 0.464601 0.137500 0.318794
H198? H 0.486436 0.132830 0.368993
C172? C 0.5317(8) 0.2121(11) 0.3781(13)
H199? H 0.557521 0.199242 0.361376
H200? H 0.524529 0.237435 0.367262
H201? H 0.546428 0.232752 0.417608
H274? H 0.445031 0.337381 0.883606
H275? H 0.413616 0.277057 0.828555
H276? H 0.429367 0.057378 0.907207
H277? H 0.467843 0.049360 0.945665
H278? H 0.325137 0.105411 1.010968
H279? H 0.375900 0.162228 1.059617
H280? H 0.362122 0.187458 0.714322
H281? H 0.352174 0.134098 0.722436
C249? C 0.4363(7) 0.3447(7) 0.8161(8)
H282? H 0.466777 0.336301 0.805568
H283? H 0.407165 0.327221 0.782430
C250? C 0.4535(5) 0.4094(4) 0.8470(5)
H284? H 0.478988 0.426196 0.882882
H285? H 0.421811 0.417449 0.853171
C251? C 0.4798(6) 0.4393(6) 0.8185(6)
H286? H 0.489582 0.480449 0.840894
H287? H 0.511917 0.432640 0.813050
H288? H 0.454642 0.423879 0.783288
C252? C 0.4201(8) 0.0882(8) 0.9846(8)
H289? H 0.443455 0.106580 1.021976
H290? H 0.391697 0.051705 0.975671
C253? C 0.3946(8) 0.1283(9) 0.9809(9)
H291? H 0.373184 0.110525 0.942962
H292? H 0.423424 0.165136 0.991329
C254? C 0.3363(9) 0.1112(8) 0.6429(6)
H293? H 0.367959 0.102267 0.645544
H294? H 0.304955 0.074726 0.628432
C255? C 0.3341(8) 0.1227(10) 0.6000(6)
H295? H 0.326174 0.156972 0.613005
H296? H 0.302213 0.090569 0.569899
C256? C 0.3781(8) 0.1324(10) 0.5744(8)
H297? H 0.366466 0.139438 0.546009
H298? H 0.410250 0.165654 0.602155
H299? H 0.386040 0.098560 0.558600
H372? H 0.637663 0.287002 0.490602
H373? H 0.668267 0.332638 0.553308
H374? H 0.531007 0.449840 0.548038
H375? H 0.568245 0.449428 0.593883
H376? H 0.728868 0.335790 0.789308
H377? H 0.772684 0.378611 0.847319
H378? H 0.599491 0.236250 0.684603
H379? H 0.568217 0.174248 0.631076
C333? C 0.5781(7) 0.1710(12) 0.7016(10)
H380? H 0.603793 0.195831 0.738483
H381? H 0.579123 0.132883 0.685980
C334? C 0.5210(8) 0.1647(9) 0.7058(10)
H382? H 0.523432 0.198019 0.739657
H383? H 0.500422 0.163581 0.674856
C335? C 0.4922(8) 0.1092(9) 0.7054(11)
H384? H 0.456270 0.105531 0.708076
H385? H 0.489453 0.076321 0.671651
H386? H 0.512409 0.110679 0.736301
C336? C 0.6065(3) 0.3764(4) 0.5350(4)
H387? H 0.619913 0.395410 0.574849
H388? H 0.577651 0.338352 0.520962
C337? C 0.5831(4) 0.4133(4) 0.5204(4)
H389? H 0.612104 0.449087 0.528750
H390? H 0.562767 0.391493 0.481414
C338? C 0.6524(4) 0.3689(4) 0.5107(4)
H391? H 0.641233 0.356437 0.471872
H392? H 0.684042 0.405892 0.529637
C339? C 0.6998(5) 0.3851(5) 0.8470(6)
H393? H 0.668427 0.373549 0.817825
H394? H 0.689361 0.358040 0.859828
C340? C 0.7096(5) 0.4446(6) 0.8944(5)
H395? H 0.716645 0.471549 0.881292
H396? H 0.742185 0.457966 0.923163
C341? C 0.6631(5) 0.4476(7) 0.9201(5)
H397? H 0.662439 0.429220 0.941819
H398? H 0.671109 0.488309 0.945394
C342? C 0.6066(5) 0.4191(10) 0.8795(8)
H399? H 0.580400 0.423229 0.899451
H400? H 0.606172 0.437660 0.858512
H401? H 0.597481 0.378428 0.854929
C399? C 0.2069(7) 0.0439(8) 0.4658(8)
H458? H 0.193357 0.041470 0.431423
H459? H 0.235418 0.082758 0.490605
C400? C 0.1608(4) 0.0367(5) 0.4911(4)
C401? C 0.1104(5) -0.0091(5) 0.4569(4)
H460? H 0.106001 -0.034404 0.420011
C402? C 0.0667(4) -0.0170(5) 0.4780(5)
H461? H 0.033027 -0.047607 0.455169
C403? C 0.0734(4) 0.0208(5) 0.5332(5)
H462? H 0.044115 0.015548 0.547294
C404? C 0.1237(5) 0.0666(5) 0.5673(4)
H463? H 0.128177 0.091906 0.604261
C405? C 0.1675(4) 0.0745(5) 0.5463(4)
H464? H 0.201151 0.105111 0.569104
C406? C 0.2313(7) 0.0009(9) 0.4544(9)
H465? H 0.206177 -0.037609 0.424089
H466? H 0.241729 -0.001176 0.486817
C407? C 0.2831(6) 0.0262(8) 0.4383(9)
C408? C 0.2846(5) -0.0284(6) 0.4120(8)
H467? H 0.255106 -0.061074 0.404770
C409? C 0.3303(5) -0.0340(4) 0.3966(6)
H468? H 0.331362 -0.070542 0.379050
C410? C 0.3745(4) 0.0149(5) 0.4074(6)
H469? H 0.405026 0.011079 0.397123
C411? C 0.3729(5) 0.0695(4) 0.4337(7)
H470? H 0.402434 0.102170 0.440916
C412? C 0.3272(7) 0.0751(6) 0.4491(9)
H471? H 0.326178 0.111639 0.466636
loop_
_geom_bond_atom_site_label_1
_geom_bond_atom_site_label_2
_geom_bond_site_symmetry_1
_geom_bond_site_symmetry_2
Te1 N1 1_555 1_555
Te2 N2 1_555 1_555
Te3 N3 1_555 1_555
Te4 N4 1_555 1_555
O1 C2 1_555 1_555
O2 C7 1_555 1_555
O3 C14 1_555 1_555
O4 C5 1_555 1_555
O5 C20 1_555 1_555
O6 C30 1_555 1_555
O7 C42 1_555 1_555
O8 C19 1_555 1_555
N1 C34 1_555 1_555
N2 C29 1_555 1_555
N3 C35 1_555 1_555
N4 C50 1_555 1_555
N5 Te3 1_555 1_555
N6 Te2 1_555 1_555
N7 Te1 1_555 1_555
N8 Te4 1_555 1_555
C1 C2 1_555 1_555
C2 C3 1_555 1_555
C3 H1 1_555 1_555
C4 C5 1_555 1_555
C5 C10 1_555 1_555
C6 C4 1_555 1_555
H2 C6 1_555 1_555
C7 C3 1_555 1_555
C8 C7 1_555 1_555
C9 C16 1_555 1_555
C10 H3 1_555 1_555
C11 C6 1_555 1_555
C12 C1 1_555 1_555
H4 C12 1_555 1_555
C13 N5 1_555 1_555
C14 C17 1_555 1_555
C15 C23 1_555 1_555
C16 H5 1_555 1_555
C17 O1 1_555 1_555
C18 O2 1_555 1_555
C19 C28 1_555 1_555
C20 C30 1_555 1_555
C21 C1 1_555 1_555
H6 C21 1_555 1_555
C22 C4 1_555 1_555
H7 C22 1_555 1_555
C23 C9 1_555 1_555
H8 C23 1_555 1_555
C24 C15 1_555 1_555
H9 C24 1_555 1_555
C25 O4 1_555 1_555
C26 H10 1_555 1_555
C27 N6 1_555 1_555
C28 C13 1_555 1_555
H11 C28 1_555 1_555
C29 C27 1_555 1_555
C30 C39 1_555 1_555
C31 C22 1_555 1_555
H12 C31 1_555 1_555
H13 C31 1_555 1_555
C32 C12 1_555 1_555
C33 O3 1_555 1_555
C34 C37 1_555 1_555
C35 C13 1_555 1_555
C36 C11 1_555 1_555
H14 C36 1_555 1_555
C37 C17 1_555 1_555
H15 C37 1_555 1_555
C38 N8 1_555 1_555
C39 C27 1_555 1_555
H16 C39 1_555 1_555
C40 O6 1_555 1_555
C41 H17 1_555 1_555
H18 C41 1_555 1_555
C42 C10 1_555 1_555
C43 C24 1_555 1_555
C44 C18 1_555 1_555
H19 C44 1_555 1_555
C45 C25 1_555 1_555
H20 C45 1_555 1_555
C46 C12 1_555 1_555
H21 C46 1_555 1_555
H22 C46 1_555 1_555
C47 C20 1_555 1_555
H23 C47 1_555 1_555
C48 O5 1_555 1_555
C49 O7 1_555 1_555
C50 C38 1_555 1_555
C51 C14 1_555 1_555
H24 C51 1_555 1_555
C52 C41 1_555 1_555
H25 C52 1_555 1_555
H26 C52 1_555 1_555
C53 N7 1_555 1_555
C54 C35 1_555 1_555
H27 C54 1_555 1_555
C55 C40 1_555 1_555
H28 C55 1_555 1_555
C56 C36 1_555 1_555
H29 C56 1_555 1_555
H30 C56 1_555 1_555
C57 C23 1_555 1_555
H31 C57 1_555 1_555
H32 C57 1_555 1_555
C58 C52 1_555 1_555
H33 C58 1_555 1_555
H34 C58 1_555 1_555
C59 O8 1_555 1_555
C60 C58 1_555 1_555
H35 C60 1_555 1_555
H36 C60 1_555 1_555
C61 C60 1_555 1_555
H37 C61 1_555 1_555
H38 C61 1_555 1_555
H39 C61 1_555 1_555
C62 C31 1_555 1_555
H40 C62 1_555 1_555
H41 C62 1_555 1_555
C63 C56 1_555 1_555
H42 C63 1_555 1_555
H43 C63 1_555 1_555
C64 C57 1_555 1_555
H44 C64 1_555 1_555
H45 C64 1_555 1_555
C65 C64 1_555 1_555
H46 C65 1_555 1_555
H47 C65 1_555 1_555
C66 C63 1_555 1_555
H48 C66 1_555 1_555
H49 C66 1_555 1_555
C67 C66 1_555 1_555
H50 C67 1_555 1_555
H51 C67 1_555 1_555
C68 C65 1_555 1_555
H52 C68 1_555 1_555
H53 C68 1_555 1_555
C69 H54 1_555 1_555
H55 C69 1_555 1_555
H56 C69 1_555 1_555
C70 C67 1_555 1_555
H57 C70 1_555 1_555
H58 C70 1_555 1_555
C71 C68 1_555 1_555
H59 C71 1_555 1_555
H60 C71 1_555 1_555
C72 C70 1_555 1_555
H61 C72 1_555 1_555
H62 C72 1_555 1_555
H63 C72 1_555 1_555
C73 H64 1_555 1_555
H65 C73 1_555 1_555
C74 C73 1_555 1_555
H66 C74 1_555 1_555
H67 C74 1_555 1_555
C75 C62 1_555 1_555
H68 C75 1_555 1_555
H69 C75 1_555 1_555
C76 C74 1_555 1_555
H70 C76 1_555 1_555
H71 C76 1_555 1_555
H72 C76 1_555 1_555
Te5 N9 1_555 1_555
Te6 N13 1_555 1_555
Te7 N14 1_555 1_555
Te8 N11 1_555 1_555
O9 C80 1_555 1_555
O10 C86 1_555 1_555
O11 C79 1_555 1_555
O12 C95 1_555 1_555
O13 C93 1_555 1_555
O14 C83 1_555 1_555
O15 C113 1_555 1_555
O16 C115 1_555 1_555
N9 C77 1_555 1_555
N10 Te5 1_555 1_555
N11 C84 1_555 1_555
N12 Te8 1_555 1_555
N13 C78 1_555 1_555
N14 C100 1_555 1_555
N15 Te6 1_555 1_555
N16 Te7 1_555 1_555
C77 C82 1_555 1_555
C78 C90 1_555 1_555
C79 C83 1_555 1_555
C80 C93 1_555 1_555
C81 C86 1_555 1_555
C82 N10 1_555 1_555
C83 C123 1_555 1_555
C84 C92 1_555 1_555
C85 H73 1_555 1_555
C86 C85 1_555 1_555
C87 H74 1_555 1_555
C88 O10 1_555 1_555
C89 C111 1_555 1_555
C90 N15 1_555 1_555
C91 C96 1_555 1_555
C92 H75 1_555 1_555
C93 C107 1_555 1_555
C94 H76 1_555 1_555
C95 C88 1_555 1_555
C96 O13 1_555 1_555
C97 C114 1_555 1_555
C98 N16 1_555 1_555
C99 C82 1_555 1_555
H77 C99 1_555 1_555
C100 C98 1_555 1_555
C101 C80 1_555 1_555
H78 C101 1_555 1_555
C102 C87 1_555 1_555
C103 C81 1_555 1_555
H79 C103 1_555 1_555
C104 C91 1_555 1_555
H80 C104 1_555 1_555
C105 C77 1_555 1_555
H81 C105 1_555 1_555
C106 C87 1_555 1_555
C107 C98 1_555 1_555
H82 C107 1_555 1_555
C108 C103 1_555 1_555
C109 C96 1_555 1_555
H83 C109 1_555 1_555
C110 C78 1_555 1_555
H84 C110 1_555 1_555
C111 C91 1_555 1_555
H85 C111 1_555 1_555
C112 O9 1_555 1_555
C113 C109 1_555 1_555
C114 C108 1_555 1_555
H86 C114 1_555 1_555
C115 C92 1_555 1_555
C116 O15 1_555 1_555
C117 O12 1_555 1_555
C118 N12 1_555 1_555
C119 H87 1_555 1_555
C120 C104 1_555 1_555
C121 C102 1_555 1_555
H88 C121 1_555 1_555
C122 C81 1_555 1_555
H89 C122 1_555 1_555
C123 C90 1_555 1_555
H90 C123 1_555 1_555
C124 C97 1_555 1_555
H91 C124 1_555 1_555
C125 C103 1_555 1_555
H92 C125 1_555 1_555
H93 C125 1_555 1_555
C126 O16 1_555 1_555
C127 O11 1_555 1_555
C128 C111 1_555 1_555
H94 C128 1_555 1_555
H95 C128 1_555 1_555
C129 O14 1_555 1_555
C130 C116 1_555 1_555
H96 C130 1_555 1_555
C131 C125 1_555 1_555
H97 C131 1_555 1_555
H98 C131 1_555 1_555
C132 C121 1_555 1_555
H99 C132 1_555 1_555
H100 C132 1_555 1_555
C133 C124 1_555 1_555
H101 C133 1_555 1_555
H102 C133 1_555 1_555
C134 H103 1_555 1_555
H104 C134 1_555 1_555
C135 C131 1_555 1_555
H105 C135 1_555 1_555
H106 C135 1_555 1_555
C136 C134 1_555 1_555
H107 C136 1_555 1_555
H108 C136 1_555 1_555
C137 C133 1_555 1_555
H109 C137 1_555 1_555
H110 C137 1_555 1_555
C138 C136 1_555 1_555
H111 C138 1_555 1_555
H112 C138 1_555 1_555
C139 C135 1_555 1_555
H113 C139 1_555 1_555
H114 C139 1_555 1_555
C140 H115 1_555 1_555
H116 C140 1_555 1_555
H117 C140 1_555 1_555
C141 H118 1_555 1_555
H119 C141 1_555 1_555
H120 C141 1_555 1_555
C142 C139 1_555 1_555
H121 C142 1_555 1_555
H122 C142 1_555 1_555
C143 C138 1_555 1_555
H123 C143 1_555 1_555
H124 C143 1_555 1_555
H125 C143 1_555 1_555
C144 C132 1_555 1_555
H126 C144 1_555 1_555
H127 C144 1_555 1_555
C145 C144 1_555 1_555
H128 C145 1_555 1_555
H129 C145 1_555 1_555
C146 C145 1_555 1_555
H130 C146 1_555 1_555
H131 C146 1_555 1_555
C147 C140 1_555 1_555
H132 C147 1_555 1_555
H133 C147 1_555 1_555
C148 C128 1_555 1_555
H134 C148 1_555 1_555
H135 C148 1_555 1_555
C149 C148 1_555 1_555
H136 C149 1_555 1_555
H137 C149 1_555 1_555
C150 C149 1_555 1_555
H138 C150 1_555 1_555
H139 C150 1_555 1_555
C151 C150 1_555 1_555
H140 C151 1_555 1_555
H141 C151 1_555 1_555
C152 C151 1_555 1_555
H142 C152 1_555 1_555
H143 C152 1_555 1_555
H144 C152 1_555 1_555
Te9 N17 1_555 1_555
Te10 N18 1_555 1_555
Te11 N20 1_555 1_555
Te12 N22 1_555 1_555
O17 C174 1_555 1_555
O18 C184 1_555 1_555
O19 C189 1_555 1_555
O20 C182 1_555 1_555
O21 C178 1_555 1_555
O22 C200 1_555 1_555
O23 C198 1_555 1_555
O24 C214 1_555 1_555
N17 C173 1_555 1_555
N18 C188 1_555 1_555
N19 Te9 1_555 1_555
N20 C203 1_555 1_555
N21 Te10 1_555 1_555
N22 C185 1_555 1_555
C173 C175 1_555 1_555
C174 C176 1_555 1_555
N23 Te11 1_555 1_555
N24 Te12 1_555 1_555
C175 N19 1_555 1_555
C176 C179 1_555 1_555
C177 H202 1_555 1_555
C178 C200 1_555 1_555
C179 H203 1_555 1_555
C180 O17 1_555 1_555
C181 C173 1_555 1_555
H204 C181 1_555 1_555
C182 C189 1_555 1_555
C183 O20 1_555 1_555
C184 C177 1_555 1_555
C185 C199 1_555 1_555
C186 O18 1_555 1_555
C187 C184 1_555 1_555
C188 C193 1_555 1_555
C189 C190 1_555 1_555
C190 H205 1_555 1_555
C191 C187 1_555 1_555
H206 C191 1_555 1_555
C192 C183 1_555 1_555
H207 C192 1_555 1_555
C193 N21 1_555 1_555
C194 O21 1_555 1_555
C195 O19 1_555 1_555
C196 C183 1_555 1_555
C197 C179 1_555 1_555
C198 C202 1_555 1_555
C199 N24 1_555 1_555
C200 C212 1_555 1_555
C201 C174 1_555 1_555
H208 C201 1_555 1_555
C202 C185 1_555 1_555
H209 C202 1_555 1_555
C203 C190 1_555 1_555
C204 C196 1_555 1_555
H210 C204 1_555 1_555
C205 C191 1_555 1_555
C206 C178 1_555 1_555
H211 C206 1_555 1_555
C207 H212 1_555 1_555
H213 C207 1_555 1_555
C208 C207 1_555 1_555
H214 C208 1_555 1_555
C209 O23 1_555 1_555
C210 C175 1_555 1_555
H215 C210 1_555 1_555
C211 N23 1_555 1_555
C212 C188 1_555 1_555
H216 C212 1_555 1_555
C213 H217 1_555 1_555
H218 C213 1_555 1_555
C214 C198 1_555 1_555
C215 H219 1_555 1_555
C216 C176 1_555 1_555
H220 C216 1_555 1_555
C217 C208 1_555 1_555
C218 C204 1_555 1_555
C219 H221 1_555 1_555
C220 C182 1_555 1_555
H222 C220 1_555 1_555
C221 C215 1_555 1_555
C222 C196 1_555 1_555
H223 C222 1_555 1_555
C223 C199 1_555 1_555
H224 C223 1_555 1_555
C224 C213 1_555 1_555
H225 C224 1_555 1_555
H226 C224 1_555 1_555
C225 C207 1_555 1_555
H227 C225 1_555 1_555
H228 C225 1_555 1_555
C226 O22 1_555 1_555
C227 C225 1_555 1_555
H229 C227 1_555 1_555
H230 C227 1_555 1_555
C228 O24 1_555 1_555
C229 C222 1_555 1_555
H231 C229 1_555 1_555
H232 C229 1_555 1_555
C230 H233 1_555 1_555
H234 C230 1_555 1_555
C231 H235 1_555 1_555
H236 C231 1_555 1_555
H237 C231 1_555 1_555
C232 C205 1_555 1_555
H238 C232 1_555 1_555
C233 C224 1_555 1_555
H239 C233 1_555 1_555
H240 C233 1_555 1_555
C234 C230 1_555 1_555
H241 C234 1_555 1_555
H242 C234 1_555 1_555
C235 C232 1_555 1_555
H243 C235 1_555 1_555
H244 C235 1_555 1_555
C236 C231 1_555 1_555
H245 C236 1_555 1_555
H246 C236 1_555 1_555
C237 C235 1_555 1_555
H247 C237 1_555 1_555
H248 C237 1_555 1_555
C238 C237 1_555 1_555
H249 C238 1_555 1_555
H250 C238 1_555 1_555
C239 C227 1_555 1_555
H251 C239 1_555 1_555
H252 C239 1_555 1_555
C240 C229 1_555 1_555
H253 C240 1_555 1_555
H254 C240 1_555 1_555
C241 C236 1_555 1_555
H255 C241 1_555 1_555
H256 C241 1_555 1_555
C242 C240 1_555 1_555
H257 C242 1_555 1_555
H258 C242 1_555 1_555
C243 C234 1_555 1_555
H259 C243 1_555 1_555
H260 C243 1_555 1_555
H261 C243 1_555 1_555
C244 H262 1_555 1_555
H263 C244 1_555 1_555
H264 C244 1_555 1_555
C245 C239 1_555 1_555
H265 C245 1_555 1_555
H266 C245 1_555 1_555
C246 C242 1_555 1_555
H267 C246 1_555 1_555
H268 C246 1_555 1_555
C247 C246 1_555 1_555
H269 C247 1_555 1_555
H270 C247 1_555 1_555
C248 C247 1_555 1_555
H271 C248 1_555 1_555
H272 C248 1_555 1_555
H273 C248 1_555 1_555
Te13 N25 1_555 1_555
Te14 N29 1_555 1_555
Te15 N26 1_555 1_555
Te16 N31 1_555 1_555
O25 C259 1_555 1_555
O26 C264 1_555 1_555
O27 C265 1_555 1_555
O28 C274 1_555 1_555
O29 C281 1_555 1_555
O30 C277 1_555 1_555
O31 C284 1_555 1_555
O32 C296 1_555 1_555
N25 C257 1_555 1_555
N26 C271 1_555 1_555
N27 Te13 1_555 1_555
N28 Te15 1_555 1_555
N29 C286 1_555 1_555
C257 C260 1_555 1_555
N30 Te14 1_555 1_555
C258 H300 1_555 1_555
C259 C263 1_555 1_555
N31 C285 1_555 1_555
C260 N27 1_555 1_555
N32 Te16 1_555 1_555
C261 O25 1_555 1_555
C262 C258 1_555 1_555
C263 C257 1_555 1_555
H301 C263 1_555 1_555
C264 C267 1_555 1_555
C265 C278 1_555 1_555
C266 N28 1_555 1_555
C267 H302 1_555 1_555
C268 O27 1_555 1_555
C269 O26 1_555 1_555
C270 C262 1_555 1_555
H303 C270 1_555 1_555
C271 C266 1_555 1_555
C272 C264 1_555 1_555
C273 C272 1_555 1_555
H304 C273 1_555 1_555
C274 C282 1_555 1_555
C275 C258 1_555 1_555
C276 C268 1_555 1_555
C277 C275 1_555 1_555
C278 C266 1_555 1_555
H305 C278 1_555 1_555
C279 O28 1_555 1_555
C280 C261 1_555 1_555
H306 C280 1_555 1_555
C281 C265 1_555 1_555
C282 H307 1_555 1_555
C283 O30 1_555 1_555
C284 C302 1_555 1_555
C285 C298 1_555 1_555
C286 C291 1_555 1_555
C287 C274 1_555 1_555
C288 H308 1_555 1_555
C289 C288 1_555 1_555
C290 C288 1_555 1_555
C291 C283 1_555 1_555
H309 C291 1_555 1_555
C292 H310 1_555 1_555
H311 C292 1_555 1_555
C293 C270 1_555 1_555
H312 C293 1_555 1_555
H313 C293 1_555 1_555
C294 C260 1_555 1_555
H314 C294 1_555 1_555
C295 C271 1_555 1_555
H315 C295 1_555 1_555
C296 C289 1_555 1_555
C297 N30 1_555 1_555
C298 N32 1_555 1_555
C299 C287 1_555 1_555
H316 C299 1_555 1_555
C300 C296 1_555 1_555
H317 C300 1_555 1_555
C301 C275 1_555 1_555
H318 C301 1_555 1_555
C302 O32 1_555 1_555
C303 C279 1_555 1_555
H319 C303 1_555 1_555
C304 C284 1_555 1_555
H320 C304 1_555 1_555
C305 O31 1_555 1_555
C306 C298 1_555 1_555
H321 C306 1_555 1_555
C307 C289 1_555 1_555
H322 C307 1_555 1_555
C308 C276 1_555 1_555
H323 C308 1_555 1_555
C309 O29 1_555 1_555
C310 C299 1_555 1_555
C311 C292 1_555 1_555
H324 C311 1_555 1_555
H325 C311 1_555 1_555
C312 H326 1_555 1_555
H327 C312 1_555 1_555
C313 C311 1_555 1_555
H328 C313 1_555 1_555
H329 C313 1_555 1_555
C314 C307 1_555 1_555
H330 C314 1_555 1_555
H331 C314 1_555 1_555
C315 C301 1_555 1_555
H332 C315 1_555 1_555
H333 C315 1_555 1_555
C316 C308 1_555 1_555
H334 C316 1_555 1_555
H335 C316 1_555 1_555
C317 H336 1_555 1_555
H337 C317 1_555 1_555
C318 C317 1_555 1_555
H338 C318 1_555 1_555
H339 C318 1_555 1_555
H340 C318 1_555 1_555
C319 C315 1_555 1_555
H341 C319 1_555 1_555
H342 C319 1_555 1_555
C320 C314 1_555 1_555
H343 C320 1_555 1_555
H344 C320 1_555 1_555
C321 C312 1_555 1_555
H345 C321 1_555 1_555
H346 C321 1_555 1_555
H347 C321 1_555 1_555
C322 C320 1_555 1_555
H348 C322 1_555 1_555
H349 C322 1_555 1_555
C323 C316 1_555 1_555
H350 C323 1_555 1_555
H351 C323 1_555 1_555
C324 C319 1_555 1_555
H352 C324 1_555 1_555
H353 C324 1_555 1_555
C325 C322 1_555 1_555
H354 C325 1_555 1_555
H355 C325 1_555 1_555
C326 C323 1_555 1_555
H356 C326 1_555 1_555
H357 C326 1_555 1_555
C327 C324 1_555 1_555
H358 C327 1_555 1_555
H359 C327 1_555 1_555
C328 C317 1_555 1_555
H360 C328 1_555 1_555
H361 C328 1_555 1_555
C329 C327 1_555 1_555
H362 C329 1_555 1_555
H363 C329 1_555 1_555
C330 H364 1_555 1_555
H365 C330 1_555 1_555
H366 C330 1_555 1_555
C331 C329 1_555 1_555
H367 C331 1_555 1_555
H368 C331 1_555 1_555
H369 C331 1_555 1_555
C332 C325 1_555 1_555
H370 C332 1_555 1_555
H371 C332 1_555 1_555
C343 C344 1_555 1_555
C344 H402 1_555 1_555
C345 C344 1_555 1_555
H403 C345 1_555 1_555
C346 C343 1_555 1_555
H404 C346 1_555 1_555
H405 C346 1_555 1_555
C347 C345 1_555 1_555
H406 C347 1_555 1_555
C348 C350 1_555 1_555
C349 C343 1_555 1_555
H407 C349 1_555 1_555
C350 C346 1_555 1_555
H408 C350 1_555 1_555
H409 C350 1_555 1_555
C351 C348 1_555 1_555
H410 C351 1_555 1_555
C352 C348 1_555 1_555
H411 C352 1_555 1_555
C353 C351 1_555 1_555
H412 C353 1_555 1_555
C354 C347 1_555 1_555
H413 C354 1_555 1_555
C355 C352 1_555 1_555
H414 C355 1_555 1_555
C356 C353 1_555 1_555
H415 C356 1_555 1_555
C357 H416 1_555 1_555
H417 C357 1_555 1_555
C358 C357 1_555 1_555
C359 C357 1_555 1_555
H418 C359 1_555 1_555
H419 C359 1_555 1_555
C360 C358 1_555 1_555
H420 C360 1_555 1_555
C361 H421 1_555 1_555
C362 C361 1_555 1_555
H422 C362 1_555 1_555
C363 C359 1_555 1_555
C364 C360 1_555 1_555
H423 C364 1_555 1_555
C365 C363 1_555 1_555
H424 C365 1_555 1_555
C366 C362 1_555 1_555
H425 C366 1_555 1_555
C367 C358 1_555 1_555
H426 C367 1_555 1_555
C368 C364 1_555 1_555
H427 C368 1_555 1_555
C369 C365 1_555 1_555
H428 C369 1_555 1_555
C370 C367 1_555 1_555
H429 C370 1_555 1_555
C371 C372 1_555 1_555
C372 H430 1_555 1_555
H431 C372 1_555 1_555
C373 C375 1_555 1_555
C374 H432 1_555 1_555
C375 C372 1_555 1_555
H433 C375 1_555 1_555
H434 C375 1_555 1_555
C376 C373 1_555 1_555
H435 C376 1_555 1_555
C377 C371 1_555 1_555
H436 C377 1_555 1_555
C378 C374 1_555 1_555
H437 C378 1_555 1_555
C379 C373 1_555 1_555
H438 C379 1_555 1_555
C380 C371 1_555 1_555
H439 C380 1_555 1_555
C381 H440 1_555 1_555
C382 C376 1_555 1_555
H441 C382 1_555 1_555
C383 C374 1_555 1_555
H442 C383 1_555 1_555
C384 C379 1_555 1_555
H443 C384 1_555 1_555
C385 C386 1_555 1_555
C386 H444 1_555 1_555
C387 C386 1_555 1_555
H445 C387 1_555 1_555
C388 C387 1_555 1_555
H446 C388 1_555 1_555
C389 C388 1_555 1_555
H447 C389 1_555 1_555
C390 C385 1_555 1_555
H448 C390 1_555 1_555
C391 C392 1_555 1_555
C392 H449 1_555 1_555
C393 C392 1_555 1_555
H450 C393 1_555 1_555
C394 C393 1_555 1_555
H451 C394 1_555 1_555
C395 C394 1_555 1_555
H452 C395 1_555 1_555
C396 C391 1_555 1_555
H453 C396 1_555 1_555
C397 C385 1_555 1_555
H454 C397 1_555 1_555
H455 C397 1_555 1_555
C398 C391 1_555 1_555
H456 C398 1_555 1_555
H457 C398 1_555 1_555
C8 C21 1_555 1_555
C8 C22 1_555 1_555
C9 C48 1_555 1_555
C11 C42 1_555 1_555
C15 C40 1_555 1_555
C16 C32 1_555 1_555
C18 C25 1_555 1_555
C19 C49 1_555 1_555
C26 C33 1_555 1_555
C26 C48 1_555 1_555
C29 C47 1_555 1_555
C32 C33 1_555 1_555
C34 C53 1_555 1_555
C36 C43 1_555 1_555
C38 C45 1_555 1_555
C41 C46 1_555 1_555
C43 C59 1_555 1_555
C44 C50 1_555 1_555
C49 C54 1_555 1_555
C51 C53 1_555 1_555
C55 C59 1_555 1_555
C69 C71 1_555 1_555
C73 C75 1_555 1_555
C79 C110 1_555 1_555
C84 C118 1_555 1_555
C85 C112 1_555 1_555
C88 C105 1_555 1_555
C89 C112 1_555 1_555
C89 C122 1_555 1_555
C94 C117 1_555 1_555
C94 C129 1_555 1_555
C95 C99 1_555 1_555
C97 C129 1_555 1_555
C100 C101 1_555 1_555
C102 C126 1_555 1_555
C106 C124 1_555 1_555
C106 C127 1_555 1_555
C108 C117 1_555 1_555
C113 C120 1_555 1_555
C115 C116 1_555 1_555
C118 C130 1_555 1_555
C119 C126 1_555 1_555
C119 C127 1_555 1_555
C120 C121 1_555 1_555
C134 C137 1_555 1_555
C141 C142 1_555 1_555
C146 C147 1_555 1_555
C177 C194 1_555 1_555
C180 C181 1_555 1_555
C180 C186 1_555 1_555
C186 C210 1_555 1_555
C187 C216 1_555 1_555
C192 C209 1_555 1_555
C193 C206 1_555 1_555
C194 C205 1_555 1_555
C195 C197 1_555 1_555
C195 C201 1_555 1_555
C197 C222 1_555 1_555
C203 C211 1_555 1_555
C208 C218 1_555 1_555
C209 C218 1_555 1_555
C211 C220 1_555 1_555
C213 C216 1_555 1_555
C214 C223 1_555 1_555
C215 C217 1_555 1_555
C217 C228 1_555 1_555
C219 C226 1_555 1_555
C219 C228 1_555 1_555
C221 C226 1_555 1_555
C221 C232 1_555 1_555
C230 C233 1_555 1_555
C238 C241 1_555 1_555
C244 C245 1_555 1_555
C259 C269 1_555 1_555
C261 C262 1_555 1_555
C267 C268 1_555 1_555
C269 C294 1_555 1_555
C270 C272 1_555 1_555
C273 C276 1_555 1_555
C277 C280 1_555 1_555
C279 C283 1_555 1_555
C281 C295 1_555 1_555
C282 C305 1_555 1_555
C285 C304 1_555 1_555
C286 C297 1_555 1_555
C287 C301 1_555 1_555
C290 C308 1_555 1_555
C290 C309 1_555 1_555
C292 C293 1_555 1_555
C297 C303 1_555 1_555
C300 C309 1_555 1_555
C302 C306 1_555 1_555
C305 C310 1_555 1_555
C307 C310 1_555 1_555
C312 C313 1_555 1_555
C326 C328 1_555 1_555
C330 C332 1_555 1_555
C349 C354 1_555 1_555
C355 C356 1_555 1_555
C361 C363 1_555 1_555
C366 C369 1_555 1_555
C368 C370 1_555 1_555
C377 C378 1_555 1_555
C380 C383 1_555 1_555
C381 C382 1_555 1_555
C381 C384 1_555 1_555
C389 C390 1_555 1_555
C395 C396 1_555 1_555
C397 C398 1_555 1_555

#END
