
#######################################################################
#
#                 Cambridge Crystallographic Data Centre
#                                CCDC 
#
#######################################################################
#
# If this CIF has been generated from an entry in the Cambridge 
# Structural Database, then it will include bibliographic, chemical, 
# crystal, experimental, refinement or atomic coordinate data resulting 
# from the CCDC's data processing and validation procedures.
#
#######################################################################

data_DIVTUA
_chemical_formula_moiety         'C76 H72 N8 O8 S4,1.86(C7 H8),0.14(C4 H8 O1)'
_chemical_name_systematic        
'(17s,18s,19s,20s)-17,18,19,20-tetra-n-hexyl-2,4,6,8,10,12,14,16-octaoxa-3,7,11,15(5,6)-tetrakis(2,1,3-benzothiadiazola)-1,5,9,13(1,5,2,4)-tetrabenzenapentacyclo[11.3.1.1^1,5^.1^5,9^.1^9,13^]icosaphane tetrahydrofuran toluene solvate'
_symmetry_cell_setting           triclinic
_symmetry_space_group_name_H-M   'P -1'
_symmetry_Int_Tables_number      2
_space_group_name_Hall           '-P 1'
loop_
_symmetry_equiv_pos_site_id
_symmetry_equiv_pos_as_xyz
1 x,y,z
2 -x,-y,-z
_cell_length_a                   12.6006(3)
_cell_length_b                   12.8959(3)
_cell_length_c                   23.5031(5)
_cell_angle_alpha                85.945(2)
_cell_angle_beta                 86.293(2)
_cell_angle_gamma                86.754(2)
_cell_volume                     3796.43
_exptl_crystal_colour            colorless
_exptl_crystal_description       needle
_cell_formula_units_Z            2
_exptl_crystal_recrystallization_method 
'Re-crystallisation from solvent: Toluene/tetrahydrofuran'
loop_
_atom_site_label
_atom_site_type_symbol
_atom_site_fract_x
_atom_site_fract_y
_atom_site_fract_z
C77 C 0.2591(2) 0.2643(2) 0.10216(14)
H71 H 0.208609 0.306531 0.083102
C78 C 0.3987(2) 0.1322(2) 0.10054(14)
C79 C 0.3222(2) 0.1983(2) 0.07256(14)
H72 H 0.315868 0.195731 0.033489
C80 C 0.4072(2) 0.1385(2) 0.15660(14)
H73 H 0.457870 0.095863 0.175230
C81 C 0.3386(3) 0.2108(3) 0.18911(14)
H74 H 0.344749 0.214468 0.228127
C82 C 0.2659(2) 0.2724(2) 0.16108(16)
H75 H 0.221018 0.319454 0.180527
C83 C 0.4665(3) 0.0599(3) 0.06755(17)
H76 H 0.423196 0.021260 0.045387
H77 H 0.505261 0.012642 0.093084
H78 H 0.515783 0.098062 0.042457
C84 C 0.2127(3) 0.3228(2) 0.74796(17)
C85 C 0.1432(3) 0.3239(3) 0.79630(16)
H79 H 0.133372 0.383512 0.816490
C86 C 0.0882(3) 0.2359(4) 0.81448(15)
H80 H 0.041633 0.236639 0.846822
C87 C 0.1028(3) 0.1468(3) 0.7843(2)
H81 H 0.066035 0.087887 0.796466
C88 C 0.1724(3) 0.1456(2) 0.7360(2)
H82 H 0.182176 0.086007 0.715777
C89 C 0.2274(3) 0.2336(3) 0.71779(14)
H83 H 0.273917 0.232879 0.685444
C90 C 0.2751(6) 0.4157(5) 0.7303(4)
H84 H 0.242493 0.475343 0.747962
H85 H 0.276514 0.428066 0.689478
H86 H 0.346620 0.403453 0.741981
S1 S 0.26086(4) 0.41324(4) -0.08210(2)
S2 S 0.75907(4) 0.11647(4) 0.00414(2)
S3 S 0.47108(4) -0.23606(4) 0.07192(2)
S4 S 0.08182(6) 0.14014(5) -0.03225(2)
O1 O 0.13319(10) 0.60743(11) 0.13978(6)
O2 O 0.64602(10) 0.37727(11) 0.20430(6)
O3 O -0.08824(10) 0.32007(11) 0.18759(6)
O4 O 0.69684(10) 0.19148(11) 0.25536(6)
O5 O -0.02912(10) 0.12503(11) 0.22206(6)
O6 O 0.34356(10) 0.58998(11) 0.14123(6)
O7 O 0.46928(11) -0.08881(11) 0.31029(6)
O8 O 0.26186(11) -0.09391(11) 0.29293(6)
N1 N 0.15987(13) 0.46688(14) -0.04690(7)
N2 N 0.35547(13) 0.42979(14) -0.04037(7)
N3 N 0.77628(14) 0.06125(14) 0.06732(8)
N4 N 0.70486(14) 0.22799(14) 0.02064(8)
N5 N 0.35760(15) -0.19635(14) 0.10076(8)
N6 N 0.54846(15) -0.22457(15) 0.12343(9)
N7 N 0.01778(16) 0.24131(15) -0.00753(8)
C1 C 0.19779(15) 0.49927(15) 0.00082(8)
C2 C 0.31040(15) 0.47796(16) 0.00443(9)
C3 C 0.11103(14) 0.43117(15) 0.26962(8)
H1 H 0.140818 0.420120 0.304871
N8 N 0.09374(18) 0.06620(16) 0.02576(8)
C4 C 0.54249(14) 0.41933(15) 0.21361(8)
C5 C 0.02210(14) 0.46462(15) 0.16603(8)
H2 H -0.009264 0.476874 0.131276
C6 C 0.43989(15) 0.18850(16) 0.33878(8)
H3 H 0.392335 0.234107 0.357685
C7 C 0.39784(15) 0.46089(15) 0.27988(8)
H4 H 0.366407 0.455844 0.316810
C8 C -0.04807(15) 0.25543(16) 0.14560(9)
C9 C 0.66563(14) 0.29720(15) 0.16866(9)
C10 C 0.05679(14) 0.10965(16) 0.25711(8)
C11 C 0.13646(15) 0.54675(16) 0.04578(9)
H5 H 0.063824 0.562377 0.043551
C12 C 0.49289(15) 0.47797(15) 0.17031(8)
H6 H 0.525856 0.485741 0.133811
C13 C 0.18820(15) 0.56835(15) 0.09210(8)
C14 C 0.11925(15) 0.01770(16) 0.25513(9)
H7 H 0.106330 -0.031471 0.229661
C15 C 0.36286(15) 0.50788(16) 0.05194(8)
H8 H 0.436317 0.498124 0.053623
C16 C 0.07064(15) 0.18219(16) 0.29657(8)
C17 C 0.53235(15) 0.22839(16) 0.31148(8)
C18 C 0.60021(14) 0.15902(16) 0.28180(8)
C19 C 0.73862(15) 0.13053(16) 0.10487(9)
C20 C 0.20115(15) 0.00046(16) 0.29174(9)
C21 C 0.14774(14) 0.51235(15) 0.23225(8)
C22 C -0.04592(16) 0.28820(16) 0.08913(9)
H9 H -0.075663 0.353106 0.077159
C23 C 0.10099(14) 0.52693(15) 0.17985(8)
C24 C 0.66384(15) 0.31118(16) 0.11081(9)
H10 H 0.640290 0.374541 0.093350
C25 C 0.48605(15) 0.01816(15) 0.30928(9)
C26 C 0.41476(15) 0.08445(16) 0.33936(9)
C27 C 0.34409(14) 0.51986(15) 0.23743(8)
C28 C 0.15341(15) 0.16041(16) 0.33330(9)
H11 H 0.164215 0.207883 0.360091
C29 C -0.01015(14) 0.38390(15) 0.20404(8)
C30 C 0.39334(14) 0.52468(15) 0.18248(8)
C31 C 0.03252(14) 0.36583(15) 0.25724(8)
C32 C 0.22032(15) 0.07069(16) 0.33148(9)
C33 C 0.00310(16) 0.22019(16) 0.04922(9)
C34 C 0.73698(15) 0.11680(16) 0.16559(9)
H12 H 0.760662 0.054147 0.183777
C35 C 0.23654(14) 0.57861(15) 0.24794(8)
H13 H 0.235986 0.640641 0.221323
C36 C 0.69890(15) 0.22645(16) 0.07790(9)
C37 C 0.49670(14) 0.40927(15) 0.26914(8)
C38 C 0.30219(15) 0.55120(15) 0.09479(8)
C39 C 0.57810(15) 0.05498(16) 0.28093(9)
H14 H 0.624981 0.009762 0.261336
C40 C 0.55537(15) 0.34276(15) 0.31486(8)
H15 H 0.631753 0.348873 0.305420
C41 C 0.37617(17) -0.17275(16) 0.15387(10)
C42 C 0.31227(15) 0.04791(16) 0.37072(9)
H16 H 0.320916 -0.027929 0.377154
C43 C 0.33115(16) -0.11642(15) 0.24698(9)
C44 C 0.04669(17) 0.11977(17) 0.06812(9)
C45 C -0.00491(15) 0.27924(16) 0.30018(8)
H17 H -0.074572 0.260226 0.289174
C46 C 0.48585(17) -0.18718(16) 0.16653(10)
C47 C 0.53219(16) 0.38053(16) 0.37501(9)
H18 H 0.549666 0.452887 0.374567
H19 H 0.456566 0.377007 0.385142
C48 C 0.44291(16) -0.12147(16) 0.25814(9)
C49 C 0.69955(14) 0.19857(16) 0.19608(8)
C50 C 0.21959(15) 0.61665(16) 0.30805(9)
H20 H 0.280406 0.655138 0.315822
H21 H 0.216660 0.556703 0.335358
C51 C -0.00882(15) 0.15269(16) 0.16450(9)
C52 C 0.59379(17) 0.31789(17) 0.42070(9)
H22 H 0.669362 0.325980 0.412264
H23 H 0.580768 0.244760 0.419140
C53 C 0.03730(17) 0.08561(16) 0.12705(9)
H24 H 0.062079 0.019143 0.139587
C54 C 0.38022(15) 0.06103(17) 0.46959(9)
H25 H 0.393179 -0.013949 0.471048
H26 H 0.445064 0.092329 0.454114
C55 C 0.29800(16) -0.14031(16) 0.19590(10)
H27 H 0.226115 -0.135528 0.188704
C56 C -0.02053(16) 0.31581(17) 0.36117(9)
H28 H -0.043635 0.258009 0.386773
H29 H 0.047542 0.335214 0.373013
C57 C 0.51878(17) -0.15987(17) 0.22019(10)
H30 H 0.589810 -0.168022 0.228971
C58 C 0.29124(15) 0.09177(17) 0.42942(9)
H31 H 0.283528 0.167088 0.424573
H32 H 0.224689 0.066813 0.446769
C59 C 0.11842(16) 0.68593(17) 0.31716(9)
H33 H 0.117764 0.742858 0.287889
H34 H 0.056754 0.645749 0.313412
C60 C -0.10108(17) 0.40760(19) 0.36746(10)
H35 H -0.170849 0.383681 0.361450
H36 H -0.084645 0.459757 0.336853
C61 C 0.11116(18) 0.7298(2) 0.37576(10)
H37 H 0.180859 0.752025 0.383312
H38 H 0.093457 0.674228 0.404193
C62 C 0.6156(2) 0.2795(2) 0.52745(11)
H39 H 0.592441 0.209489 0.525194
H40 H 0.692193 0.277280 0.519510
C63 C 0.5639(2) 0.3504(2) 0.48112(10)
H41 H 0.584959 0.420935 0.483972
H42 H 0.487143 0.350433 0.487886
C64 C 0.3551(2) 0.0942(2) 0.52986(10)
C65 C 0.5911(2) 0.3116(2) 0.58816(11)
H43 H 0.631328 0.264460 0.613753
H44 H 0.616372 0.380691 0.590578
C66 C 0.4773(2) 0.3127(2) 0.60896(12)
H45 H 0.436422 0.360304 0.584622
H46 H 0.470156 0.334475 0.647305
H47 H 0.451693 0.244103 0.608395
C67 C 0.0276(4) 0.8240(4) 0.3838(2)
H48 H 0.028597 0.868093 0.348648
H49 H -0.042754 0.796771 0.389802
C68 C -0.1092(5) 0.4614(4) 0.4239(2)
H50 H -0.135364 0.412099 0.453905
H51 H -0.037986 0.477317 0.432611
C69 C -0.2198(4) 0.5575(5) 0.5354(2)
H52 H -0.293164 0.545201 0.531063
H53 H -0.214607 0.598877 0.567373
H54 H -0.180482 0.492207 0.541716
C70 C -0.1798(4) 0.5609(4) 0.4260(2)
H55 H -0.253008 0.544363 0.422044
H56 H -0.158942 0.608301 0.393856
C71 C 0.1927(4) -0.0897(5) 0.6270(3)
H57 H 0.123314 -0.071884 0.613372
H58 H 0.198995 -0.058467 0.662425
H59 H 0.202269 -0.163942 0.632879
C72 C 0.0448(4) 0.8917(3) 0.4333(2)
H60 H 0.114286 0.920663 0.427040
H61 H -0.008190 0.949349 0.432805
C73 C 0.2673(3) 0.0666(4) 0.56870(18)
H62 H 0.200439 0.084988 0.551286
H63 H 0.268345 0.103253 0.603280
C74 C -0.1737(4) 0.6153(3) 0.48114(19)
H64 H -0.211051 0.683018 0.476836
H65 H -0.099633 0.626886 0.486180
C75 C 0.2785(3) -0.0490(4) 0.5824(2)
H66 H 0.348214 -0.066406 0.596780
H67 H 0.274453 -0.084192 0.547566
C76 C 0.0377(4) 0.8335(4) 0.4921(2)
H68 H 0.091092 0.777351 0.493320
H69 H -0.031511 0.806092 0.499097
H70 H 0.049202 0.880392 0.520747
H87? H -0.168241 0.393885 0.352218
H88? H -0.074292 0.470734 0.348206
H89? H 0.124411 0.673753 0.404586
H90? H 0.165810 0.779459 0.377085
H91? H 0.320439 0.163290 0.529892
H92? H 0.418599 0.092234 0.551232
C91? C 0.2716(4) 0.0017(5) 0.5557(2)
H93? H 0.210419 0.003813 0.532566
H94? H 0.307775 -0.066514 0.553947
C92? C 0.2351(4) 0.0200(5) 0.61695(19)
H95? H 0.297256 0.017882 0.639370
H96? H 0.201411 0.089439 0.618042
C93? C 0.1582(6) -0.0569(8) 0.6449(4)
H97? H 0.095727 -0.054907 0.623488
H98? H 0.138552 -0.038928 0.683244
H99? H 0.191681 -0.125718 0.645707
C94? C -0.1767(5) 0.5166(5) 0.4478(3)
H100? H -0.246521 0.517900 0.432594
H101? H -0.139955 0.576066 0.430342
C95? C -0.1888(5) 0.5239(5) 0.5134(3)
H102? H -0.231743 0.468169 0.530079
H103? H -0.119081 0.514317 0.528763
C96? C -0.1138(5) 0.4162(6) 0.4333(3)
H104? H -0.150492 0.356907 0.450903
H105? H -0.044003 0.415100 0.448527
C97? C -0.2397(5) 0.6264(6) 0.5302(3)
H106? H -0.308825 0.636362 0.515081
H107? H -0.196014 0.681766 0.515060
H108? H -0.246753 0.626618 0.571068
C98? C 0.0028(5) 0.7831(5) 0.3894(3)
H109? H -0.007101 0.844184 0.363363
H110? H -0.052497 0.736068 0.383887
C99? C -0.0075(4) 0.8151(4) 0.4500(2)
H111? H -0.000842 0.753213 0.475798
H112? H -0.078025 0.847299 0.457348
C100? C 0.0747(5) 0.8903(6) 0.4634(4)
H113? H 0.069647 0.951388 0.437680
H114? H 0.144702 0.857377 0.458856
H115? H 0.061616 0.909598 0.502007
C101? C 0.0752(14) 0.1644(14) 0.8119(5)
H116? H 0.067440 0.103031 0.792063
H117? H 0.006385 0.197821 0.819959
H118? H 0.108203 0.145448 0.847155
C102? C 0.1406(7) 0.2347(9) 0.7770(4)
C103? C 0.1912(10) 0.2113(8) 0.7248(5)
H119? H 0.183355 0.146932 0.710443
C104? C 0.2535(10) 0.2840(10) 0.6940(4)
H120? H 0.287328 0.268274 0.659091
C105? C 0.2652(9) 0.3801(9) 0.7154(4)
H121? H 0.306902 0.428777 0.694856
C106? C 0.2147(10) 0.4036(8) 0.7676(5)
H122? H 0.222503 0.467940 0.781974
C107? C 0.1524(9) 0.3309(10) 0.7984(4)
H123? H 0.118529 0.346600 0.833328
O9? O 0.2199(11) 0.1507(10) 0.7653(6)
C108? C 0.173(2) 0.3295(14) 0.7692(8)
H124? H 0.234606 0.357564 0.783599
H125? H 0.130473 0.385156 0.750061
C109? C 0.203(3) 0.2405(19) 0.7300(11)
H126? H 0.146793 0.231921 0.704915
H127? H 0.267783 0.255529 0.706691
C110? C 0.111(2) 0.2741(13) 0.8138(10)
H128? H 0.111325 0.306956 0.849607
H129? H 0.037319 0.271119 0.803761
C111? C 0.166(2) 0.1638(14) 0.8181(10)
H130? H 0.215851 0.158124 0.848178
H131? H 0.114158 0.111393 0.826359
loop_
_geom_bond_atom_site_label_1
_geom_bond_atom_site_label_2
_geom_bond_site_symmetry_1
_geom_bond_site_symmetry_2
S1 N1 1_555 1_555
S2 N3 1_555 1_555
S3 N5 1_555 1_555
S4 N7 1_555 1_555
O1 C13 1_555 1_555
O2 C4 1_555 1_555
O3 C8 1_555 1_555
O4 C18 1_555 1_555
O5 C10 1_555 1_555
O6 C30 1_555 1_555
O7 C25 1_555 1_555
O8 C20 1_555 1_555
N1 C1 1_555 1_555
N2 S1 1_555 1_555
N3 C19 1_555 1_555
N4 S2 1_555 1_555
N5 C41 1_555 1_555
N6 S3 1_555 1_555
N7 C33 1_555 1_555
C1 C2 1_555 1_555
C2 N2 1_555 1_555
C3 H1 1_555 1_555
N8 S4 1_555 1_555
C4 C12 1_555 1_555
C5 H2 1_555 1_555
C6 H3 1_555 1_555
C7 H4 1_555 1_555
C8 C22 1_555 1_555
C9 O2 1_555 1_555
C10 C14 1_555 1_555
C11 C1 1_555 1_555
H5 C11 1_555 1_555
C12 H6 1_555 1_555
C13 C11 1_555 1_555
C14 H7 1_555 1_555
C15 C2 1_555 1_555
H8 C15 1_555 1_555
C16 C10 1_555 1_555
C17 C6 1_555 1_555
C18 C17 1_555 1_555
C19 C34 1_555 1_555
C20 C14 1_555 1_555
C21 C3 1_555 1_555
C22 H9 1_555 1_555
C23 O1 1_555 1_555
C24 C9 1_555 1_555
H10 C24 1_555 1_555
C25 C26 1_555 1_555
C26 C6 1_555 1_555
C27 C7 1_555 1_555
C28 C16 1_555 1_555
H11 C28 1_555 1_555
C29 O3 1_555 1_555
C30 C12 1_555 1_555
C31 C3 1_555 1_555
C32 C20 1_555 1_555
C33 C22 1_555 1_555
C34 H12 1_555 1_555
C35 C21 1_555 1_555
H13 C35 1_555 1_555
C36 N4 1_555 1_555
C37 C4 1_555 1_555
C38 O6 1_555 1_555
C39 C18 1_555 1_555
H14 C39 1_555 1_555
C40 C17 1_555 1_555
H15 C40 1_555 1_555
C41 C46 1_555 1_555
C42 C26 1_555 1_555
H16 C42 1_555 1_555
C43 O8 1_555 1_555
C44 N8 1_555 1_555
C45 C16 1_555 1_555
H17 C45 1_555 1_555
C46 N6 1_555 1_555
C47 C40 1_555 1_555
H18 C47 1_555 1_555
H19 C47 1_555 1_555
C48 O7 1_555 1_555
C49 O4 1_555 1_555
C50 C35 1_555 1_555
H20 C50 1_555 1_555
H21 C50 1_555 1_555
C51 O5 1_555 1_555
C52 C47 1_555 1_555
H22 C52 1_555 1_555
H23 C52 1_555 1_555
C53 C44 1_555 1_555
H24 C53 1_555 1_555
C54 H25 1_555 1_555
H26 C54 1_555 1_555
C55 C41 1_555 1_555
H27 C55 1_555 1_555
C56 C45 1_555 1_555
H28 C56 1_555 1_555
H29 C56 1_555 1_555
C57 C46 1_555 1_555
H30 C57 1_555 1_555
C58 C42 1_555 1_555
H31 C58 1_555 1_555
H32 C58 1_555 1_555
C59 C50 1_555 1_555
H33 C59 1_555 1_555
H34 C59 1_555 1_555
C60 C56 1_555 1_555
H35 C60 1_555 1_555
H36 C60 1_555 1_555
C61 C59 1_555 1_555
H37 C61 1_555 1_555
H38 C61 1_555 1_555
C62 H39 1_555 1_555
H40 C62 1_555 1_555
C63 C52 1_555 1_555
H41 C63 1_555 1_555
H42 C63 1_555 1_555
C64 C54 1_555 1_555
C65 C62 1_555 1_555
H43 C65 1_555 1_555
H44 C65 1_555 1_555
C66 C65 1_555 1_555
H45 C66 1_555 1_555
H46 C66 1_555 1_555
H47 C66 1_555 1_555
C67 C61 1_555 1_555
H48 C67 1_555 1_555
H49 C67 1_555 1_555
C68 C60 1_555 1_555
H50 C68 1_555 1_555
H51 C68 1_555 1_555
C69 H52 1_555 1_555
H53 C69 1_555 1_555
H54 C69 1_555 1_555
C70 C68 1_555 1_555
H55 C70 1_555 1_555
H56 C70 1_555 1_555
C71 H57 1_555 1_555
H58 C71 1_555 1_555
H59 C71 1_555 1_555
C72 C67 1_555 1_555
H60 C72 1_555 1_555
H61 C72 1_555 1_555
C73 C64 1_555 1_555
H62 C73 1_555 1_555
H63 C73 1_555 1_555
C74 C69 1_555 1_555
H64 C74 1_555 1_555
H65 C74 1_555 1_555
C75 C71 1_555 1_555
H66 C75 1_555 1_555
H67 C75 1_555 1_555
C76 C72 1_555 1_555
H68 C76 1_555 1_555
H69 C76 1_555 1_555
H70 C76 1_555 1_555
C77 H71 1_555 1_555
C78 C79 1_555 1_555
C79 C77 1_555 1_555
H72 C79 1_555 1_555
C80 C78 1_555 1_555
H73 C80 1_555 1_555
C81 C80 1_555 1_555
H74 C81 1_555 1_555
C82 C77 1_555 1_555
H75 C82 1_555 1_555
C83 C78 1_555 1_555
H76 C83 1_555 1_555
H77 C83 1_555 1_555
H78 C83 1_555 1_555
C84 C85 1_555 1_555
C85 H79 1_555 1_555
C86 C85 1_555 1_555
H80 C86 1_555 1_555
C87 C86 1_555 1_555
H81 C87 1_555 1_555
C88 C87 1_555 1_555
H82 C88 1_555 1_555
C89 C84 1_555 1_555
H83 C89 1_555 1_555
C90 C84 1_555 1_555
H84 C90 1_555 1_555
H85 C90 1_555 1_555
H86 C90 1_555 1_555
C5 C23 1_555 1_555
C5 C29 1_555 1_555
C7 C37 1_555 1_555
C8 C51 1_555 1_555
C9 C49 1_555 1_555
C13 C38 1_555 1_555
C15 C38 1_555 1_555
C19 C36 1_555 1_555
C21 C23 1_555 1_555
C24 C36 1_555 1_555
C25 C39 1_555 1_555
C27 C30 1_555 1_555
C27 C35 1_555 1_555
C28 C32 1_555 1_555
C29 C31 1_555 1_555
C31 C45 1_555 1_555
C32 C42 1_555 1_555
C33 C44 1_555 1_555
C34 C49 1_555 1_555
C37 C40 1_555 1_555
C43 C48 1_555 1_555
C43 C55 1_555 1_555
C48 C57 1_555 1_555
C51 C53 1_555 1_555
C54 C58 1_555 1_555
C62 C63 1_555 1_555
C70 C74 1_555 1_555
C73 C75 1_555 1_555
C81 C82 1_555 1_555
C88 C89 1_555 1_555

#END
