
#######################################################################
#
#                 Cambridge Crystallographic Data Centre
#                                CCDC 
#
#######################################################################
#
# If this CIF has been generated from an entry in the Cambridge 
# Structural Database, then it will include bibliographic, chemical, 
# crystal, experimental, refinement or atomic coordinate data resulting 
# from the CCDC's data processing and validation procedures.
#
#######################################################################

data_DIWFAS
_chemical_formula_moiety         'C24 H33 N1 Si3'
_chemical_name_systematic        tris(dimethyl(phenyl)silyl)amine
_symmetry_cell_setting           monoclinic
_symmetry_space_group_name_H-M   'P 21/c'
_symmetry_Int_Tables_number      14
_space_group_name_Hall           '-P 2ybc'
loop_
_symmetry_equiv_pos_site_id
_symmetry_equiv_pos_as_xyz
1 x,y,z
2 -x,1/2+y,1/2-z
3 -x,-y,-z
4 x,1/2-y,1/2+z
_cell_length_a                   9.0644(5)
_cell_length_b                   12.4619(8)
_cell_length_c                   22.0795(13)
_cell_angle_alpha                90
_cell_angle_beta                 101.565(3)
_cell_angle_gamma                90
_cell_volume                     2443.46
_exptl_crystal_colour            colorless
_exptl_crystal_description       needle
_cell_formula_units_Z            4
loop_
_atom_site_label
_atom_site_type_symbol
_atom_site_fract_x
_atom_site_fract_y
_atom_site_fract_z
Si1 Si 0.28080(3) 0.78389(2) 0.242492(11)
Si2 Si 0.14011(3) 0.787444(19) 0.105943(11)
Si3 Si 0.19096(3) 0.99621(2) 0.176074(11)
N1 N 0.20775(7) 0.85577(6) 0.17500(3)
C1 C 0.01696(10) 0.83646(8) 0.29141(4)
H1 H -0.0362 0.8365 0.2497
C2 C -0.06132(11) 0.85537(8) 0.33859(5)
H2 H -0.1667 0.8685 0.3289
C3 C 0.01487(12) 0.85500(8) 0.39968(5)
H3 H -0.0383 0.8678 0.4319
C4 C 0.16865(12) 0.83599(8) 0.41367(4)
H4 H 0.2211 0.8359 0.4555
C5 C 0.24594(10) 0.81711(8) 0.36627(4)
H5 H 0.3512 0.8037 0.3763
C6 C 0.17256(9) 0.81736(7) 0.30420(4)
C7 C 0.26375(11) 0.63486(8) 0.23360(4)
H6 H 0.1611 0.6164 0.2126
H7 H 0.2857 0.6010 0.2745
H8 H 0.3355 0.6091 0.2091
C8 C 0.48556(10) 0.81260(9) 0.27087(4)
H9 H 0.5404 0.7988 0.2377
H10 H 0.5250 0.7662 0.3062
H11 H 0.4985 0.8879 0.2836
C9 C 0.23312(11) 0.57518(8) 0.07933(5)
H12 H 0.1307 0.5555 0.0764
C10 C 0.33682(15) 0.49788(9) 0.06946(6)
H13 H 0.3049 0.4261 0.0600
C11 C 0.48677(14) 0.52569(10) 0.07348(5)
H14 H 0.5576 0.4729 0.0670
C12 C 0.53283(11) 0.62993(10) 0.08694(5)
H15 H 0.6354 0.6491 0.0896
C13 C 0.42889(10) 0.70718(8) 0.09663(4)
H16 H 0.4615 0.7789 0.1056
C14 C 0.27714(9) 0.68100(7) 0.09345(4)
C15 C -0.04804(10) 0.72617(9) 0.10625(5)
H17 H -0.0402 0.6780 0.1418
H18 H -0.0815 0.6854 0.0680
H19 H -0.1211 0.7830 0.1091
C16 C 0.11982(11) 0.87472(8) 0.03602(4)
H20 H 0.0474 0.9321 0.0386
H21 H 0.0837 0.8316 -0.0011
H22 H 0.2177 0.9062 0.0339
C17 C 0.45881(10) 1.01754(8) 0.12729(4)
H23 H 0.4978 0.9636 0.1566
C18 C 0.54896(10) 1.05753(9) 0.08838(5)
H24 H 0.6484 1.0310 0.0914
C19 C 0.49394(11) 1.13593(9) 0.04523(5)
H25 H 0.5545 1.1622 0.0180
C20 C 0.34941(11) 1.17573(8) 0.04213(4)
H26 H 0.3116 1.2304 0.0131
C21 C 0.25979(10) 1.13583(7) 0.08137(4)
H27 H 0.1614 1.1641 0.0789
C22 C 0.31140(9) 1.05514(7) 0.12428(4)
C23 C -0.00995(10) 1.03811(8) 0.14935(5)
H28 H -0.0469 1.0121 0.1072
H29 H -0.0167 1.1166 0.1500
H30 H -0.0713 1.0076 0.1769
C24 C 0.25601(12) 1.05647(8) 0.25419(4)
H31 H 0.1941 1.0291 0.2824
H32 H 0.2466 1.1347 0.2513
H33 H 0.3616 1.0372 0.2699
loop_
_geom_bond_atom_site_label_1
_geom_bond_atom_site_label_2
_geom_bond_site_symmetry_1
_geom_bond_site_symmetry_2
Si1 N1 1_555 1_555
Si2 N1 1_555 1_555
Si3 N1 1_555 1_555
C1 H1 1_555 1_555
C2 C1 1_555 1_555
H2 C2 1_555 1_555
C3 C2 1_555 1_555
H3 C3 1_555 1_555
C4 C3 1_555 1_555
H4 C4 1_555 1_555
C5 C4 1_555 1_555
H5 C5 1_555 1_555
C6 Si1 1_555 1_555
C7 Si1 1_555 1_555
H6 C7 1_555 1_555
H7 C7 1_555 1_555
H8 C7 1_555 1_555
C8 Si1 1_555 1_555
H9 C8 1_555 1_555
H10 C8 1_555 1_555
H11 C8 1_555 1_555
C9 H12 1_555 1_555
C10 C9 1_555 1_555
H13 C10 1_555 1_555
C11 C10 1_555 1_555
H14 C11 1_555 1_555
C12 C11 1_555 1_555
H15 C12 1_555 1_555
C13 C12 1_555 1_555
H16 C13 1_555 1_555
C14 Si2 1_555 1_555
C15 Si2 1_555 1_555
H17 C15 1_555 1_555
H18 C15 1_555 1_555
H19 C15 1_555 1_555
C16 Si2 1_555 1_555
H20 C16 1_555 1_555
H21 C16 1_555 1_555
H22 C16 1_555 1_555
C17 H23 1_555 1_555
C18 C17 1_555 1_555
H24 C18 1_555 1_555
C19 C18 1_555 1_555
H25 C19 1_555 1_555
C20 C19 1_555 1_555
H26 C20 1_555 1_555
C21 C20 1_555 1_555
H27 C21 1_555 1_555
C22 Si3 1_555 1_555
C23 Si3 1_555 1_555
H28 C23 1_555 1_555
H29 C23 1_555 1_555
H30 C23 1_555 1_555
C24 Si3 1_555 1_555
H31 C24 1_555 1_555
H32 C24 1_555 1_555
H33 C24 1_555 1_555
C1 C6 1_555 1_555
C5 C6 1_555 1_555
C9 C14 1_555 1_555
C13 C14 1_555 1_555
C17 C22 1_555 1_555
C21 C22 1_555 1_555

#END
