
#######################################################################
#
#                 Cambridge Crystallographic Data Centre
#                                CCDC 
#
#######################################################################
#
# If this CIF has been generated from an entry in the Cambridge 
# Structural Database, then it will include bibliographic, chemical, 
# crystal, experimental, refinement or atomic coordinate data resulting 
# from the CCDC's data processing and validation procedures.
#
#######################################################################

data_DIWFEX
_chemical_formula_moiety         'C48 H24 F14 N4 S4,2(C1 H1 Cl3)'
_chemical_name_systematic        
"2,9-bis(heptafluoropropyl)-4,7,11,14-tetrakis(4-methylthiophen-3-yl)benzo[1,2,3-gh:4,5,6-g'h']diperimidine chloroform solvate"
_symmetry_cell_setting           monoclinic
_symmetry_space_group_name_H-M   'P 21/c'
_symmetry_Int_Tables_number      14
_space_group_name_Hall           '-P 2ybc'
loop_
_symmetry_equiv_pos_site_id
_symmetry_equiv_pos_as_xyz
1 x,y,z
2 -x,1/2+y,1/2-z
3 -x,-y,-z
4 x,1/2-y,1/2+z
_cell_length_a                   14.764(8)
_cell_length_b                   8.872(5)
_cell_length_c                   19.004(9)
_cell_angle_alpha                90
_cell_angle_beta                 91.194(15)
_cell_angle_gamma                90
_cell_volume                     2488.72
_exptl_crystal_colour            red
_exptl_crystal_description       irregular
_cell_formula_units_Z            2
loop_
_atom_site_label
_atom_site_type_symbol
_atom_site_fract_x
_atom_site_fract_y
_atom_site_fract_z
S1 S -0.01472(3) 1.03086(5) 0.10179(2)
S2 S 0.37725(3) 0.49125(5) 0.61865(2)
F1 F 0.24071(7) 0.59899(14) 0.20935(5)
F2 F 0.26750(7) 0.45691(11) 0.30034(6)
F3 F 0.38920(8) 0.77938(13) 0.25957(7)
F4 F 0.41924(7) 0.59442(16) 0.33161(6)
F5 F 0.40105(9) 0.59083(17) 0.14878(6)
F6 F 0.41536(9) 0.39971(13) 0.21715(7)
F7 F 0.51660(8) 0.57364(16) 0.21833(7)
N1 N 0.16612(9) 0.79901(15) 0.29072(7)
N2 N 0.24567(8) 0.69134(15) 0.39042(7)
C1 C 0.11419(10) 0.87971(17) 0.33481(8)
C2 C 0.04563(10) 0.97872(17) 0.30619(8)
C3 C -0.01395(10) 1.04527(17) 0.35084(8)
H1 H -0.0599 1.1089 0.3315
C4 C 0.00988(9) 0.97711(17) 0.57437(8)
C5 C 0.06175(9) 0.93456(17) 0.45468(8)
C6 C 0.12366(9) 0.86497(17) 0.40872(7)
C7 C 0.19560(10) 0.77359(17) 0.43475(8)
C8 C 0.21175(9) 0.76157(17) 0.50948(8)
C9 C 0.15006(10) 0.82596(17) 0.55303(8)
H2 H 0.1586 0.8136 0.6024
C10 C 0.07320(9) 0.91107(17) 0.52832(8)
C11 C 0.22510(10) 0.70685(17) 0.32245(8)
C12 C 0.27611(10) 0.59859(17) 0.27539(8)
C13 C 0.37834(11) 0.63141(19) 0.27027(8)
C14 C 0.42857(12) 0.5464(2) 0.21206(9)
C15 C 0.04099(10) 1.01066(17) 0.22982(8)
C16 C -0.02878(11) 0.96507(19) 0.18552(8)
H3 H -0.0784 0.9048 0.1996
C17 C 0.08277(12) 1.1227(2) 0.12543(9)
H4 H 0.1168 1.1822 0.0939
C18 C 0.10658(11) 1.10139(18) 0.19462(8)
C19 C 0.19140(13) 1.1601(2) 0.22936(10)
H5 H 0.1775 1.1986 0.2763
H6 H 0.2163 1.2417 0.2009
H7 H 0.2359 1.0786 0.2337
C20 C 0.28991(10) 0.67647(18) 0.53891(8)
C21 C 0.27793(11) 0.57168(19) 0.59151(8)
H8 H 0.2207 0.5472 0.6104
C22 C 0.43694(11) 0.5972(2) 0.56078(9)
H9 H 0.5008 0.5905 0.5564
C23 C 0.38377(10) 0.69285(18) 0.52127(8)
C24 C 0.42223(11) 0.8077(2) 0.47245(9)
H10 H 0.3857 0.8106 0.4288
H11 H 0.4848 0.7805 0.4616
H12 H 0.4214 0.9070 0.4949
S1B S 0.01472(3) 0.96914(5) 0.89821(2)
S2B S -0.37725(3) 1.50875(5) 0.38135(2)
F1B F -0.24071(7) 1.40101(14) 0.79065(5)
F2B F -0.26750(7) 1.54309(11) 0.69966(6)
F3B F -0.38920(8) 1.22062(13) 0.74043(7)
F4B F -0.41924(7) 1.40558(16) 0.66839(6)
F5B F -0.40105(9) 1.40917(17) 0.85122(6)
F6B F -0.41536(9) 1.60029(13) 0.78285(7)
F7B F -0.51660(8) 1.42636(16) 0.78167(7)
N1B N -0.16612(9) 1.20099(15) 0.70928(7)
N2B N -0.24567(8) 1.30866(15) 0.60958(7)
C1B C -0.11419(10) 1.12029(17) 0.66519(8)
C2B C -0.04563(10) 1.02128(17) 0.69381(8)
C3B C 0.01395(10) 0.95473(17) 0.64916(8)
H1B H 0.0599 0.8911 0.6685
C4B C -0.00988(9) 1.02289(17) 0.42563(8)
C5B C -0.06175(9) 1.06544(17) 0.54532(8)
C6B C -0.12366(9) 1.13503(17) 0.59128(7)
C7B C -0.19560(10) 1.22641(17) 0.56525(8)
C8B C -0.21175(9) 1.23843(17) 0.49052(8)
C9B C -0.15006(10) 1.17404(17) 0.44697(8)
H2B H -0.1586 1.1864 0.3976
C10B C -0.07320(9) 1.08893(17) 0.47168(8)
C11B C -0.22510(10) 1.29315(17) 0.67755(8)
C12B C -0.27611(10) 1.40141(17) 0.72461(8)
C13B C -0.37834(11) 1.36859(19) 0.72973(8)
C14B C -0.42857(12) 1.4536(2) 0.78794(9)
C15B C -0.04099(10) 0.98934(17) 0.77018(8)
C16B C 0.02878(11) 1.03493(19) 0.81448(8)
H3B H 0.0784 1.0952 0.8004
C17B C -0.08277(12) 0.8773(2) 0.87457(9)
H4B H -0.1168 0.8178 0.9061
C18B C -0.10658(11) 0.89861(18) 0.80538(8)
C19B C -0.19140(13) 0.8399(2) 0.77064(10)
H5B H -0.1775 0.8014 0.7237
H6B H -0.2163 0.7583 0.7991
H7B H -0.2359 0.9214 0.7663
C20B C -0.28991(10) 1.32353(18) 0.46109(8)
C21B C -0.27793(11) 1.42832(19) 0.40849(8)
H8B H -0.2207 1.4528 0.3896
C22B C -0.43694(11) 1.4028(2) 0.43922(9)
H9B H -0.5008 1.4095 0.4436
C23B C -0.38377(10) 1.30715(18) 0.47873(8)
C24B C -0.42223(11) 1.1923(2) 0.52755(9)
H10B H -0.3857 1.1894 0.5712
H11B H -0.4848 1.2195 0.5384
H12B H -0.4214 1.0930 0.5051
Cl1 Cl -0.34826(4) 0.68577(6) 0.10135(3)
Cl2 Cl -0.17127(3) 0.78388(6) 0.05823(3)
Cl3 Cl -0.29298(4) 0.64417(6) -0.04248(2)
C25 C -0.28553(12) 0.7616(2) 0.03235(10)
H13 H -0.3110 0.8627 0.0198
loop_
_geom_bond_atom_site_label_1
_geom_bond_atom_site_label_2
_geom_bond_site_symmetry_1
_geom_bond_site_symmetry_2
S1 C16 1_555 1_555
S2 C21 1_555 1_555
F1 C12 1_555 1_555
F2 C12 1_555 1_555
F3 C13 1_555 1_555
F4 C13 1_555 1_555
F5 C14 1_555 1_555
F6 C14 1_555 1_555
F7 C14 1_555 1_555
N1 C1 1_555 1_555
N2 C7 1_555 1_555
C1 C2 1_555 1_555
C2 C3 1_555 1_555
C3 H1 1_555 1_555
C4 C10 1_555 1_555
C5 C6 1_555 1_555
C6 C1 1_555 1_555
C7 C6 1_555 1_555
C8 C7 1_555 1_555
C9 C8 1_555 1_555
H2 C9 1_555 1_555
C10 C5 1_555 1_555
C11 N1 1_555 1_555
C12 C11 1_555 1_555
C13 C12 1_555 1_555
C14 C13 1_555 1_555
C15 C2 1_555 1_555
C16 C15 1_555 1_555
H3 C16 1_555 1_555
C17 S1 1_555 1_555
H4 C17 1_555 1_555
C18 C15 1_555 1_555
C19 C18 1_555 1_555
H5 C19 1_555 1_555
H6 C19 1_555 1_555
H7 C19 1_555 1_555
C20 C8 1_555 1_555
C21 C20 1_555 1_555
H8 C21 1_555 1_555
C22 S2 1_555 1_555
H9 C22 1_555 1_555
C23 C20 1_555 1_555
C24 C23 1_555 1_555
H10 C24 1_555 1_555
H11 C24 1_555 1_555
H12 C24 1_555 1_555
Cl1 C25 1_555 1_555
Cl2 C25 1_555 1_555
Cl3 C25 1_555 1_555
C25 H13 1_555 1_555
S1B C16B 1_555 1_555
S2B C21B 1_555 1_555
F1B C12B 1_555 1_555
F2B C12B 1_555 1_555
F3B C13B 1_555 1_555
F4B C13B 1_555 1_555
F5B C14B 1_555 1_555
F6B C14B 1_555 1_555
F7B C14B 1_555 1_555
N1B C1B 1_555 1_555
N2B C7B 1_555 1_555
C1B C2B 1_555 1_555
C2B C3B 1_555 1_555
C3B C4 1_555 1_555
H1B C3B 1_555 1_555
C4B C3 1_555 1_555
C5B C4 1_555 1_555
C6B C1B 1_555 1_555
C7B C6B 1_555 1_555
C8B C7B 1_555 1_555
C9B C8B 1_555 1_555
H2B C9B 1_555 1_555
C10B C4B 1_555 1_555
C11B N1B 1_555 1_555
C12B C11B 1_555 1_555
C13B C12B 1_555 1_555
C14B C13B 1_555 1_555
C15B C2B 1_555 1_555
C16B C15B 1_555 1_555
H3B C16B 1_555 1_555
C17B S1B 1_555 1_555
H4B C17B 1_555 1_555
C18B C15B 1_555 1_555
C19B C18B 1_555 1_555
H5B C19B 1_555 1_555
H6B C19B 1_555 1_555
H7B C19B 1_555 1_555
C20B C8B 1_555 1_555
C21B C20B 1_555 1_555
H8B C21B 1_555 1_555
C22B S2B 1_555 1_555
H9B C22B 1_555 1_555
C23B C20B 1_555 1_555
C24B C23B 1_555 1_555
H10B C24B 1_555 1_555
H11B C24B 1_555 1_555
H12B C24B 1_555 1_555
N2 C11 1_555 1_555
C5 C4B 1_555 1_555
C9 C10 1_555 1_555
C17 C18 1_555 1_555
C22 C23 1_555 1_555
N2B C11B 1_555 1_555
C5B C6B 1_555 1_555
C5B C10B 1_555 1_555
C9B C10B 1_555 1_555
C17B C18B 1_555 1_555
C22B C23B 1_555 1_555

#END
