
#######################################################################
#
#                 Cambridge Crystallographic Data Centre
#                                CCDC 
#
#######################################################################
#
# If this CIF has been generated from an entry in the Cambridge 
# Structural Database, then it will include bibliographic, chemical, 
# crystal, experimental, refinement or atomic coordinate data resulting 
# from the CCDC's data processing and validation procedures.
#
#######################################################################

data_DIWGAT
_chemical_formula_moiety         'C38 H48 Mg1 N2 O3 P2 Se2'
_chemical_name_systematic        
"(N,N'-ethane-1,2-diylbis(P,P-diphenyl(phosphinoselenoic amidato)))-tris(tetrahydrofuran)-magnesium"
_symmetry_cell_setting           triclinic
_symmetry_space_group_name_H-M   'P -1'
_symmetry_Int_Tables_number      2
_space_group_name_Hall           '-P 1'
loop_
_symmetry_equiv_pos_site_id
_symmetry_equiv_pos_as_xyz
1 x,y,z
2 -x,-y,-z
_cell_length_a                   9.6053(11)
_cell_length_b                   13.3939(14)
_cell_length_c                   16.644(3)
_cell_angle_alpha                107.905(13)
_cell_angle_beta                 99.522(12)
_cell_angle_gamma                105.115(10)
_cell_volume                     1895.49
_exptl_crystal_colour            colorless
_exptl_crystal_description       block
_cell_formula_units_Z            2
_chemical_properties_physical    'air- and moisture-sensitive; hygroscopic'
loop_
_atom_site_label
_atom_site_type_symbol
_atom_site_fract_x
_atom_site_fract_y
_atom_site_fract_z
Se1 Se 0.38180(4) 0.09333(3) 0.68233(2)
Se2 Se 0.57118(4) 0.66897(4) 0.69898(3)
P1 P 0.60994(9) 0.17990(7) 0.75470(5)
P2 P 0.74786(9) 0.65278(7) 0.78390(5)
Mg1 Mg 0.53268(12) 0.38534(9) 0.70757(7)
O1 O 0.3268(3) 0.3499(2) 0.61490(15)
O2 O 0.5986(3) 0.34206(19) 0.59055(15)
N1 N 0.6524(3) 0.3103(2) 0.77203(18)
C1 C 0.7363(4) 0.1200(3) 0.7006(2)
C2 C 0.9826(4) 0.1033(3) 0.7079(2)
H1 H 1.0794 0.1190 0.7406
C3 C 1.1013(5) 0.8519(3) 0.7337(3)
H2 H 1.1276 0.9211 0.7286
C4 C 0.9448(5) 0.8788(4) 1.0367(3)
H3 H 1.0411 0.9215 1.0719
C5 C 0.9235(4) 0.8110(3) 0.9504(2)
H4 H 1.0058 0.8092 0.9282
C6 C 0.6597(4) 0.7494(3) 0.9326(2)
H5 H 0.5632 0.7058 0.8982
C7 C 0.0726(6) 0.2705(5) 0.5359(4)
H6 H 0.0013 0.2963 0.5642
H7 H 0.0194 0.1993 0.4886
C8 C 0.7293(4) 0.3379(3) 0.4826(2)
H8 H 0.8295 0.3447 0.4761
H9 H 0.6785 0.3633 0.4415
C9 C 0.6368(5) 0.0195(4) 0.9261(3)
H10 H 0.6192 -0.0538 0.9220
C10 C 0.6426(5) 0.2196(4) 0.4691(3)
H11 H 0.5954 0.1754 0.4075
H12 H 0.7068 0.1846 0.4929
C11 C 0.8080(4) 0.5053(3) 0.8484(2)
H13 H 0.7671 0.5162 0.8987
H14 H 0.9095 0.5568 0.8670
C12 C 0.7809(4) 0.7460(3) 0.8972(2)
C13 C 0.8232(5) 0.8829(3) 1.0703(2)
H15 H 0.8374 0.9300 1.1275
C14 C 1.0204(4) 0.6440(3) 0.7459(2)
H16 H 0.9934 0.5735 0.7488
C15 C 0.9659(4) 0.8107(3) 0.7510(2)
H17 H 0.9023 0.8527 0.7576
C16 C 0.3045(5) 0.4786(3) 0.7999(3)
H18 H 0.2132 0.4448 0.7525
H19 H 0.3611 0.5485 0.7972
C17 C 0.8823(4) 0.1423(3) 0.7483(2)
H20 H 0.9126 0.1841 0.8080
C18 C 0.8083(4) 0.3861(3) 0.8124(2)
H21 H 0.8649 0.3786 0.7690
H22 H 0.8552 0.3674 0.8593
C19 C 0.2641(5) 0.3907(4) 0.9007(3)
H23 H 0.1684 0.3329 0.8688
H24 H 0.2824 0.4016 0.9624
C20 C 0.6431(4) 0.1528(3) 0.8560(2)
N2 N 0.7156(3) 0.5265(2) 0.77893(18)
C21 C 0.9242(4) 0.7067(3) 0.7584(2)
C22 C 0.6866(4) 0.2371(3) 0.9374(2)
H25 H 0.7024 0.3103 0.9417
C23 C 0.3898(5) 0.3626(3) 0.8643(2)
H26 H 0.4845 0.3985 0.9090
H27 H 0.3700 0.2829 0.8424
C24 C 0.6823(5) 0.8177(3) 1.0193(3)
H28 H 0.6008 0.8188 1.0425
O3 O 0.3928(3) 0.4046(2) 0.79356(15)
C25 C 0.9394(4) 0.0409(3) 0.6190(2)
H29 H 1.0066 0.0145 0.5918
C26 C 0.6945(4) 0.0571(3) 0.6115(2)
H30 H 0.5976 0.0407 0.5786
C27 C 0.6185(4) 0.0428(3) 0.8507(3)
H31 H 0.5899 -0.0144 0.7963
C28 C 0.6807(4) 0.1031(4) 1.0074(3)
H32 H 0.6925 0.0863 1.0578
C29 C 0.7953(4) 0.0182(3) 0.5709(2)
H33 H 0.7658 -0.0233 0.5110
C30 C 0.2693(5) 0.4974(4) 0.8868(3)
H34 H 0.1737 0.5096 0.8848
H35 H 0.3466 0.5606 0.9328
C31 C 0.3038(5) 0.3989(4) 0.5488(3)
H36 H 0.3309 0.4790 0.5766
H37 H 0.3658 0.3833 0.5093
C32 C 0.1886(4) 0.2604(3) 0.5991(3)
H38 H 0.1604 0.2668 0.6533
H39 H 0.2020 0.1887 0.5758
C33 C 0.1511(6) 0.3519(7) 0.5020(5)
H40 H 0.1417 0.3156 0.4402
H41 H 0.1064 0.4101 0.5082
C34 C 0.5281(5) 0.2347(3) 0.5191(3)
H42 H 0.4387 0.2340 0.4816
H43 H 0.5006 0.1758 0.5416
C35 C 0.7332(5) 0.4021(4) 0.5753(3)
H44 H 0.8210 0.4061 0.6162
H45 H 0.7355 0.4772 0.5822
C36 C 1.1972(4) 0.7907(3) 0.7241(2)
H46 H 1.2891 0.8196 0.7142
C37 C 0.7070(4) 0.2120(4) 1.0136(3)
H47 H 0.7382 0.2689 1.0684
C38 C 1.1564(4) 0.6868(3) 0.7292(2)
H48 H 1.2200 0.6449 0.7214
loop_
_geom_bond_atom_site_label_1
_geom_bond_atom_site_label_2
_geom_bond_site_symmetry_1
_geom_bond_site_symmetry_2
Se1 P1 1_555 1_555
Se2 P2 1_555 1_555
P1 N1 1_555 1_555
P2 C12 1_555 1_555
Mg1 O1 1_555 1_555
O1 C31 1_555 1_555
O2 Mg1 1_555 1_555
N1 Mg1 1_555 1_555
C1 P1 1_555 1_555
C2 H1 1_555 1_555
C3 H2 1_555 1_555
C4 H3 1_555 1_555
C5 C4 1_555 1_555
H4 C5 1_555 1_555
C6 H5 1_555 1_555
C7 H6 1_555 1_555
H7 C7 1_555 1_555
C8 H8 1_555 1_555
H9 C8 1_555 1_555
C9 H10 1_555 1_555
C10 C8 1_555 1_555
H11 C10 1_555 1_555
H12 C10 1_555 1_555
C11 H13 1_555 1_555
H14 C11 1_555 1_555
C12 C5 1_555 1_555
C13 C4 1_555 1_555
H15 C13 1_555 1_555
C14 H16 1_555 1_555
C15 C3 1_555 1_555
H17 C15 1_555 1_555
C16 H18 1_555 1_555
H19 C16 1_555 1_555
C17 C1 1_555 1_555
H20 C17 1_555 1_555
C18 N1 1_555 1_555
H21 C18 1_555 1_555
H22 C18 1_555 1_555
C19 H23 1_555 1_555
H24 C19 1_555 1_555
C20 P1 1_555 1_555
N2 P2 1_555 1_555
C21 P2 1_555 1_555
C22 C20 1_555 1_555
H25 C22 1_555 1_555
C23 C19 1_555 1_555
H26 C23 1_555 1_555
H27 C23 1_555 1_555
C24 C6 1_555 1_555
H28 C24 1_555 1_555
O3 Mg1 1_555 1_555
C25 C2 1_555 1_555
H29 C25 1_555 1_555
C26 C1 1_555 1_555
H30 C26 1_555 1_555
C27 C9 1_555 1_555
H31 C27 1_555 1_555
C28 C9 1_555 1_555
H32 C28 1_555 1_555
C29 C25 1_555 1_555
H33 C29 1_555 1_555
C30 C16 1_555 1_555
H34 C30 1_555 1_555
H35 C30 1_555 1_555
C31 H36 1_555 1_555
H37 C31 1_555 1_555
C32 O1 1_555 1_555
H38 C32 1_555 1_555
H39 C32 1_555 1_555
C33 C7 1_555 1_555
H40 C33 1_555 1_555
H41 C33 1_555 1_555
C34 O2 1_555 1_555
H42 C34 1_555 1_555
H43 C34 1_555 1_555
C35 O2 1_555 1_555
H44 C35 1_555 1_555
H45 C35 1_555 1_555
C36 C3 1_555 1_555
H46 C36 1_555 1_555
C37 C22 1_555 1_555
H47 C37 1_555 1_555
C38 C14 1_555 1_555
H48 C38 1_555 1_555
Mg1 N2 1_555 1_555
C2 C17 1_555 1_555
C6 C12 1_555 1_555
C7 C32 1_555 1_555
C8 C35 1_555 1_555
C10 C34 1_555 1_555
C11 C18 1_555 1_555
C11 N2 1_555 1_555
C13 C24 1_555 1_555
C14 C21 1_555 1_555
C15 C21 1_555 1_555
C16 O3 1_555 1_555
C19 C30 1_555 1_555
C20 C27 1_555 1_555
C23 O3 1_555 1_555
C26 C29 1_555 1_555
C28 C37 1_555 1_555
C31 C33 1_555 1_555
C36 C38 1_555 1_555

#END
