
#######################################################################
#
#                 Cambridge Crystallographic Data Centre
#                                CCDC 
#
#######################################################################
#
# If this CIF has been generated from an entry in the Cambridge 
# Structural Database, then it will include bibliographic, chemical, 
# crystal, experimental, refinement or atomic coordinate data resulting 
# from the CCDC's data processing and validation procedures.
#
#######################################################################

data_DIWHEX
_chemical_name_common            
'bis(5-Methylimidazolium) 5-sulfonatosalicylate'
_chemical_formula_moiety         '2(C4 H7 N2 1+),C7 H4 O6 S1 2-'
_chemical_name_systematic        
'bis(5-Methylimidazolium) 3-carboxylato-4-hydroxybenzenesulfonate'
_symmetry_cell_setting           monoclinic
_symmetry_space_group_name_H-M   'P 21/c'
_symmetry_Int_Tables_number      14
_space_group_name_Hall           '-P 2ybc'
loop_
_symmetry_equiv_pos_site_id
_symmetry_equiv_pos_as_xyz
1 x,y,z
2 -x,1/2+y,1/2-z
3 -x,-y,-z
4 x,1/2-y,1/2+z
_cell_length_a                   9.5394(5)
_cell_length_b                   17.8475(9)
_cell_length_c                   10.4174(5)
_cell_angle_alpha                90
_cell_angle_beta                 94.1360(10)
_cell_angle_gamma                90
_cell_volume                     1768.99
_exptl_crystal_colour            colorless
_exptl_crystal_description       block
_cell_formula_units_Z            4
loop_
_atom_site_label
_atom_site_type_symbol
_atom_site_fract_x
_atom_site_fract_y
_atom_site_fract_z
C1 C 0.36558(19) 0.15653(10) 0.75778(18)
C2 C 0.4151(2) 0.17439(11) 0.6385(2)
C3 C 0.3216(2) 0.19588(12) 0.5361(2)
H1 H 0.3555 0.2093 0.4578
C4 C 0.1787(2) 0.19741(11) 0.55035(18)
H2 H 0.1166 0.2109 0.4813
C5 C 0.12780(19) 0.17870(9) 0.66807(17)
C6 C 0.22115(19) 0.15993(10) 0.77149(17)
H3 H 0.1871 0.1495 0.8510
C7 C 0.4623(2) 0.13182(11) 0.8695(2)
O1 O 0.41137(16) 0.11674(9) 0.97363(15)
O2 O 0.59191(15) 0.12639(10) 0.84943(18)
O3 O 0.55352(17) 0.17114(10) 0.61791(19)
H18 H 0.598(4) 0.153(2) 0.694(3)
O4 O -0.08099(15) 0.09665(8) 0.72195(17)
O5 O -0.08108(16) 0.22571(10) 0.79086(15)
O6 O -0.12446(14) 0.19529(8) 0.56583(14)
S1 S -0.05450(4) 0.17435(2) 0.68877(4)
C8 C -0.3398(3) 0.06558(12) 0.3740(2)
C9 C -0.3467(2) 0.16694(13) 0.2553(2)
H4 H -0.3281 0.2146 0.2248
C10 C -0.4342(2) 0.05526(13) 0.2736(2)
H5 H -0.4878 0.0124 0.2566
C11 C -0.2894(4) 0.01506(17) 0.4821(3)
H6 H -0.3584 -0.0231 0.4934
H7 H -0.2748 0.0437 0.5599
H8 H -0.2025 -0.0080 0.4625
N1 N -0.28697(19) 0.13594(10) 0.35977(19)
H14 H -0.233(3) 0.1581(15) 0.415(3)
N2 N -0.43733(19) 0.11896(11) 0.20114(18)
H15 H -0.486(3) 0.1264(14) 0.125(3)
C12 C 1.0074(2) 0.08427(11) 1.14030(19)
C13 C 0.9257(2) 0.12589(11) 1.0560(2)
H9 H 0.9425 0.1750 1.0317
C14 C 0.8254(2) 0.01646(11) 1.0685(2)
H10 H 0.7626 -0.0231 1.0554
C15 C 1.1413(3) 0.10154(16) 1.2181(3)
H11 H 1.1717 0.1512 1.1983
H12 H 1.2122 0.0661 1.1980
H13 H 1.1260 0.0984 1.3080
N3 N 0.94125(18) 0.01584(9) 1.14631(17)
H16 H 0.971(3) -0.0215(14) 1.187(2)
N4 N 0.81413(18) 0.08243(10) 1.01293(17)
H17 H 0.750(3) 0.0920(14) 0.963(2)
loop_
_geom_bond_atom_site_label_1
_geom_bond_atom_site_label_2
_geom_bond_site_symmetry_1
_geom_bond_site_symmetry_2
C1 C2 1_555 1_555
C2 C3 1_555 1_555
C3 H1 1_555 1_555
C4 C3 1_555 1_555
H2 C4 1_555 1_555
C5 C4 1_555 1_555
C6 C1 1_555 1_555
H3 C6 1_555 1_555
C7 C1 1_555 1_555
C8 C10 1_555 1_555
C9 H4 1_555 1_555
C10 H5 1_555 1_555
C11 C8 1_555 1_555
H6 C11 1_555 1_555
H7 C11 1_555 1_555
H8 C11 1_555 1_555
C12 C13 1_555 1_555
C13 H9 1_555 1_555
C14 H10 1_555 1_555
C15 C12 1_555 1_555
H11 C15 1_555 1_555
H12 C15 1_555 1_555
H13 C15 1_555 1_555
N1 C8 1_555 1_555
H14 N1 1_555 1_555
N2 C9 1_555 1_555
H15 N2 1_555 1_555
N3 C12 1_555 1_555
H16 N3 1_555 1_555
N4 C13 1_555 1_555
H17 N4 1_555 1_555
O1 C7 1_555 1_555
O2 C7 1_555 1_555
O3 C2 1_555 1_555
H18 O3 1_555 1_555
O4 S1 1_555 1_555
O5 S1 1_555 1_555
O6 S1 1_555 1_555
S1 C5 1_555 1_555
C5 C6 1_555 1_555
C9 N1 1_555 1_555
C10 N2 1_555 1_555
C14 N3 1_555 1_555
C14 N4 1_555 1_555

#END
