
#######################################################################
#
#                 Cambridge Crystallographic Data Centre
#                                CCDC 
#
#######################################################################
#
# If this CIF has been generated from an entry in the Cambridge 
# Structural Database, then it will include bibliographic, chemical, 
# crystal, experimental, refinement or atomic coordinate data resulting 
# from the CCDC's data processing and validation procedures.
#
#######################################################################

data_DIWHAT
_chemical_name_common            '5-Methylimidazolium 5-sulfonatosalicylic acid'
_chemical_formula_moiety         'C4 H7 N2 1+,C7 H5 O6 S1 1-'
_chemical_name_systematic        
'5-Methylimidazolium 3-carboxy-4-hydroxybenzenesulfonate'
_symmetry_cell_setting           monoclinic
_symmetry_space_group_name_H-M   'P 21/c'
_symmetry_Int_Tables_number      14
_space_group_name_Hall           '-P 2ybc'
loop_
_symmetry_equiv_pos_site_id
_symmetry_equiv_pos_as_xyz
1 x,y,z
2 -x,1/2+y,1/2-z
3 -x,-y,-z
4 x,1/2-y,1/2+z
_cell_length_a                   13.2702(6)
_cell_length_b                   14.9930(7)
_cell_length_c                   14.0947(7)
_cell_angle_alpha                90
_cell_angle_beta                 115.4710(10)
_cell_angle_gamma                90
_cell_volume                     2531.72
_exptl_crystal_colour            colorless
_exptl_crystal_description       block
_cell_formula_units_Z            8
loop_
_atom_site_label
_atom_site_type_symbol
_atom_site_fract_x
_atom_site_fract_y
_atom_site_fract_z
C1 C 0.0990(3) 0.62650(19) 0.6272(2)
C2 C 0.1984(3) 0.6148(2) 0.6164(2)
C3 C 0.2412(3) 0.5301(2) 0.6206(3)
H1 H 0.3068 0.5225 0.6127
C4 C 0.1879(3) 0.4567(2) 0.6364(2)
H2 H 0.2177 0.4000 0.6398
C5 C 0.0896(3) 0.4675(2) 0.6470(2)
C6 C 0.0453(3) 0.5518(2) 0.6413(2)
H3 H -0.0216 0.5585 0.6469
C7 C 0.0560(3) 0.7165(2) 0.6295(2)
O1 O -0.0324(2) 0.71702(16) 0.6488(2)
H21 H -0.051(3) 0.769(3) 0.657(3)
O2 O 0.1002(2) 0.78518(14) 0.61869(18)
O3 O 0.2573(2) 0.68489(16) 0.6047(2)
H22 H 0.216(3) 0.731(3) 0.598(3)
O4 O 0.0836(2) 0.36745(14) 0.79296(18)
O5 O -0.0911(2) 0.39980(16) 0.6455(2)
O6 O 0.0407(2) 0.29930(14) 0.6244(2)
S1 S 0.02396(8) 0.37634(5) 0.67755(7)
C8 C 0.4034(3) 0.88000(19) 0.3769(2)
C9 C 0.3072(3) 0.8687(2) 0.3943(3)
C10 C 0.2652(3) 0.7833(2) 0.3916(3)
H4 H 0.2020 0.7757 0.4036
C11 C 0.3149(3) 0.7103(2) 0.3718(2)
H5 H 0.2854 0.6538 0.3699
C12 C 0.4102(3) 0.7211(2) 0.3544(2)
C13 C 0.4531(3) 0.80505(19) 0.3581(2)
H6 H 0.5173 0.8118 0.3476
C14 C 0.4461(3) 0.9698(2) 0.3722(2)
O7 O 0.5330(2) 0.96992(15) 0.3504(2)
H23 H 0.550(3) 1.022(3) 0.335(3)
O8 O 0.4036(2) 1.03890(14) 0.38562(18)
O9 O 0.2519(2) 0.93837(16) 0.4110(2)
H24 H 0.278(4) 0.986(3) 0.403(3)
O10 O 0.4601(2) 0.55308(15) 0.3779(2)
O11 O 0.4120(2) 0.61976(14) 0.20685(18)
O12 O 0.5884(2) 0.65386(16) 0.3514(2)
S2 S 0.47409(8) 0.62962(5) 0.32206(7)
C15 C 0.0194(3) 0.0472(2) 0.6355(3)
H7 H -0.0448 0.0463 0.6465
C16 C 0.1677(3) 0.0050(2) 0.6170(3)
H8 H 0.2228 -0.0314 0.6135
C17 C 0.1612(3) 0.0945(2) 0.6057(3)
C18 C 0.2318(3) 0.1614(3) 0.5845(3)
H9 H 0.2759 0.1934 0.6480
H10 H 0.1849 0.2025 0.5318
H11 H 0.2802 0.1315 0.5601
N1 N 0.0672(3) 0.11847(19) 0.6181(2)
H17 H 0.039(3) 0.175(2) 0.610(2)
N2 N 0.0794(3) -0.0223(2) 0.6342(3)
H18 H 0.073(3) -0.081(3) 0.643(3)
C19 C 0.4887(3) 0.2989(2) 0.3695(3)
H12 H 0.5575 0.2977 0.3669
C20 C 0.3327(3) 0.2568(2) 0.3710(3)
H13 H 0.2753 0.2201 0.3689
C21 C 0.3376(3) 0.3465(2) 0.3824(3)
C22 C 0.2630(3) 0.4128(3) 0.3970(3)
H14 H 0.2317 0.4507 0.3363
H15 H 0.3048 0.4482 0.4581
H16 H 0.2040 0.3825 0.4060
N3 N 0.4369(3) 0.37010(18) 0.3803(2)
H19 H 0.456(3) 0.428(2) 0.391(2)
N4 N 0.4261(3) 0.2301(2) 0.3632(2)
H20 H 0.439(3) 0.175(2) 0.348(3)
loop_
_geom_bond_atom_site_label_1
_geom_bond_atom_site_label_2
_geom_bond_site_symmetry_1
_geom_bond_site_symmetry_2
C1 C2 1_555 1_555
C2 C3 1_555 1_555
C3 H1 1_555 1_555
C4 C3 1_555 1_555
H2 C4 1_555 1_555
C5 C4 1_555 1_555
C6 C1 1_555 1_555
H3 C6 1_555 1_555
C7 C1 1_555 1_555
C8 C9 1_555 1_555
C9 C10 1_555 1_555
C10 H4 1_555 1_555
C11 C10 1_555 1_555
H5 C11 1_555 1_555
C12 C11 1_555 1_555
C13 C8 1_555 1_555
H6 C13 1_555 1_555
C14 C8 1_555 1_555
C15 H7 1_555 1_555
C16 H8 1_555 1_555
C17 C16 1_555 1_555
C18 C17 1_555 1_555
H9 C18 1_555 1_555
H10 C18 1_555 1_555
H11 C18 1_555 1_555
C19 H12 1_555 1_555
C20 H13 1_555 1_555
C21 C20 1_555 1_555
C22 C21 1_555 1_555
H14 C22 1_555 1_555
H15 C22 1_555 1_555
H16 C22 1_555 1_555
N1 C15 1_555 1_555
H17 N1 1_555 1_555
N2 C15 1_555 1_555
H18 N2 1_555 1_555
N3 C19 1_555 1_555
H19 N3 1_555 1_555
N4 C19 1_555 1_555
H20 N4 1_555 1_555
O1 C7 1_555 1_555
H21 O1 1_555 1_555
O2 C7 1_555 1_555
O3 C2 1_555 1_555
H22 O3 1_555 1_555
O4 S1 1_555 1_555
O5 S1 1_555 1_555
O6 S1 1_555 1_555
O7 C14 1_555 1_555
H23 O7 1_555 1_555
O8 C14 1_555 1_555
O9 C9 1_555 1_555
H24 O9 1_555 1_555
O10 S2 1_555 1_555
O11 S2 1_555 1_555
O12 S2 1_555 1_555
S1 C5 1_555 1_555
S2 C12 1_555 1_555
C5 C6 1_555 1_555
C12 C13 1_555 1_555
C16 N2 1_555 1_555
C17 N1 1_555 1_555
C20 N4 1_555 1_555
C21 N3 1_555 1_555

#END
