
#######################################################################
#
#                 Cambridge Crystallographic Data Centre
#                                CCDC 
#
#######################################################################
#
# If this CIF has been generated from an entry in the Cambridge 
# Structural Database, then it will include bibliographic, chemical, 
# crystal, experimental, refinement or atomic coordinate data resulting 
# from the CCDC's data processing and validation procedures.
#
#######################################################################

data_DIWKEB
_chemical_formula_moiety         'C16 H16 N4 O6'
_chemical_name_systematic        3,7-bis(4-nitrophenyl)-1,5,3,7-dioxadiazocane
_symmetry_cell_setting           triclinic
_symmetry_space_group_name_H-M   'P -1'
_symmetry_Int_Tables_number      2
_space_group_name_Hall           '-P 1'
loop_
_symmetry_equiv_pos_site_id
_symmetry_equiv_pos_as_xyz
1 x,y,z
2 -x,-y,-z
_cell_length_a                   6.6316(5)
_cell_length_b                   10.5349(7)
_cell_length_c                   11.8234(9)
_cell_angle_alpha                99.303(2)
_cell_angle_beta                 92.0140(10)
_cell_angle_gamma                96.9180(10)
_cell_volume                     807.963
_cell_formula_units_Z            2
loop_
_atom_site_label
_atom_site_type_symbol
_atom_site_fract_x
_atom_site_fract_y
_atom_site_fract_z
N1 N 0.3532(3) 0.97583(18) 0.31965(16)
N2 N 0.5291(5) 0.6214(3) 0.6052(2)
N3 N 0.1587(3) 0.82969(17) 0.10445(16)
N4 N 0.1095(4) 0.3049(2) 0.1458(2)
O1 O 0.5123(2) 0.91738(14) 0.14206(13)
O2 O -0.0051(2) 0.93340(15) 0.26501(14)
O3 O 0.7002(5) 0.5934(3) 0.6077(2)
O4 O 0.3990(5) 0.5832(3) 0.6651(2)
O5 O 0.2511(4) 0.24576(19) 0.1119(2)
O6 O -0.0456(4) 0.25180(19) 0.1804(2)
C1 C 0.4975(4) 1.0140(2) 0.2391(2)
H1 H 0.4595 1.0907 0.2126
H2 H 0.6306 1.0373 0.2788
C2 C 0.3404(3) 0.8928(2) 0.0637(2)
H3 H 0.3747 0.8393 -0.0059
H4 H 0.3110 0.9746 0.0436
C3 C 0.0023(3) 0.9063(2) 0.1439(2)
H5 H 0.0235 0.9877 0.1151
H6 H -0.1282 0.8611 0.1117
C4 C 0.1598(4) 1.0234(2) 0.3205(2)
H7 H 0.1285 1.0504 0.3996
H8 H 0.1706 1.0997 0.2837
C5 C 0.3903(3) 0.8816(2) 0.38431(19)
C6 C 0.5757(4) 0.8308(2) 0.3820(2)
H9 H 0.6717 0.8557 0.3316
C7 C 0.6188(4) 0.7453(2) 0.4522(2)
H10 H 0.7436 0.7132 0.4502
C8 C 0.4765(5) 0.7071(2) 0.5258(2)
C9 C 0.2886(4) 0.7490(3) 0.5255(2)
H11 H 0.1914 0.7195 0.5732
C10 C 0.2436(4) 0.8344(2) 0.4550(2)
H12 H 0.1151 0.8612 0.4541
C11 C 0.1514(3) 0.7025(2) 0.12250(18)
C12 C 0.3169(4) 0.6339(2) 0.1011(2)
H13 H 0.4378 0.6762 0.0802
C13 C 0.3046(4) 0.5052(2) 0.1103(2)
H14 H 0.4159 0.4604 0.0952
C14 C 0.1267(4) 0.4426(2) 0.1422(2)
C15 C -0.0355(4) 0.5095(2) 0.1701(2)
H15 H -0.1530 0.4673 0.1949
C16 C -0.0234(4) 0.6381(2) 0.1614(2)
H16 H -0.1325 0.6833 0.1814
loop_
_geom_bond_atom_site_label_1
_geom_bond_atom_site_label_2
_geom_bond_site_symmetry_1
_geom_bond_site_symmetry_2
N1 C1 1_555 1_555
N2 O3 1_555 1_555
N3 C2 1_555 1_555
N4 O5 1_555 1_555
O1 C1 1_555 1_555
O2 C3 1_555 1_555
O4 N2 1_555 1_555
O6 N4 1_555 1_555
C1 H1 1_555 1_555
H2 C1 1_555 1_555
C2 O1 1_555 1_555
H3 C2 1_555 1_555
H4 C2 1_555 1_555
C3 N3 1_555 1_555
H5 C3 1_555 1_555
H6 C3 1_555 1_555
C4 N1 1_555 1_555
H7 C4 1_555 1_555
H8 C4 1_555 1_555
C5 N1 1_555 1_555
C6 C5 1_555 1_555
H9 C6 1_555 1_555
C7 C6 1_555 1_555
H10 C7 1_555 1_555
C8 N2 1_555 1_555
C9 C8 1_555 1_555
H11 C9 1_555 1_555
C10 C5 1_555 1_555
H12 C10 1_555 1_555
C11 N3 1_555 1_555
C12 C11 1_555 1_555
H13 C12 1_555 1_555
C13 C12 1_555 1_555
H14 C13 1_555 1_555
C14 N4 1_555 1_555
C15 C14 1_555 1_555
H15 C15 1_555 1_555
C16 C11 1_555 1_555
H16 C16 1_555 1_555
O2 C4 1_555 1_555
C7 C8 1_555 1_555
C9 C10 1_555 1_555
C13 C14 1_555 1_555
C15 C16 1_555 1_555

#END
