
#######################################################################
#
#                 Cambridge Crystallographic Data Centre
#                                CCDC 
#
#######################################################################
#
# If this CIF has been generated from an entry in the Cambridge 
# Structural Database, then it will include bibliographic, chemical, 
# crystal, experimental, refinement or atomic coordinate data resulting 
# from the CCDC's data processing and validation procedures.
#
#######################################################################

data_DIWNII
_chemical_formula_moiety         'C33 H26 N4 O1,2(C1 H4 O1)'
_chemical_name_systematic        
"(5,10-dimethyl-1,8-diphenyl-2,6,7,8-tetrahydropyrazolo[4',3':6,7]azepino[5,4,3-cd]indol-6-yl)(phenyl)methanone methanol solvate"
_symmetry_cell_setting           monoclinic
_symmetry_space_group_name_H-M   'P 21/n'
_symmetry_Int_Tables_number      14
_space_group_name_Hall           '-P 2yn'
loop_
_symmetry_equiv_pos_site_id
_symmetry_equiv_pos_as_xyz
1 x,y,z
2 1/2-x,1/2+y,1/2-z
3 -x,-y,-z
4 1/2+x,1/2-y,1/2+z
_cell_length_a                   12.5058(11)
_cell_length_b                   10.8672(8)
_cell_length_c                   24.496(2)
_cell_angle_alpha                90
_cell_angle_beta                 102.5240(10)
_cell_angle_gamma                90
_cell_volume                     3249.87
_cell_formula_units_Z            4
loop_
_atom_site_label
_atom_site_type_symbol
_atom_site_fract_x
_atom_site_fract_y
_atom_site_fract_z
N1 N 0.6275(3) 0.7186(4) 0.38900(19)
H1 H 0.6808 0.7408 0.4156
N2 N 0.3864(3) 0.6307(4) 0.16001(18)
N3 N 0.4470(3) 0.7302(4) 0.14925(18)
N4 N 0.3520(3) 0.5209(4) 0.24135(16)
H2 H 0.3047 0.4818 0.2139
O1 O 0.2405(3) 0.7765(4) 0.27508(17)
C1 C 0.6259(4) 0.7290(5) 0.3330(2)
C2 C 0.5244(4) 0.6926(5) 0.3027(2)
C3 C 0.4638(4) 0.6492(5) 0.3427(2)
C4 C 0.5317(4) 0.6676(5) 0.3959(2)
C5 C 0.4988(5) 0.6329(5) 0.4443(2)
H3 H 0.5447 0.6435 0.4793
C6 C 0.3975(5) 0.5831(5) 0.4388(2)
H4 H 0.3736 0.5620 0.4710
C7 C 0.3269(4) 0.5620(5) 0.3866(2)
C8 C 0.3610(4) 0.5934(5) 0.3381(2)
C9 C 0.2894(4) 0.5661(5) 0.2818(2)
H5 H 0.2396 0.4998 0.2872
C10 C 0.2184(4) 0.6740(5) 0.2563(2)
C11 C 0.1259(4) 0.6542(5) 0.2075(2)
C12 C 0.0797(4) 0.7555(5) 0.1773(2)
H6 H 0.1077 0.8336 0.1874
C13 C -0.0069(5) 0.7420(6) 0.1326(2)
H7 H -0.0383 0.8107 0.1128
C14 C -0.0465(5) 0.6283(7) 0.1175(3)
H8 H -0.1064 0.6200 0.0877
C15 C -0.0008(5) 0.5261(6) 0.1448(2)
H9 H -0.0272 0.4484 0.1330
C16 C 0.0862(4) 0.5390(6) 0.1908(2)
H10 H 0.1175 0.4697 0.2102
C17 C 0.5027(4) 0.7678(5) 0.1987(2)
C18 C 0.4833(4) 0.6919(5) 0.2429(2)
C19 C 0.4062(4) 0.6086(5) 0.2163(2)
C20 C 0.5707(5) 0.8815(5) 0.2022(2)
H11 H 0.6444 0.8597 0.2008
H12 H 0.5705 0.9233 0.2367
H13 H 0.5408 0.9347 0.1714
C21 C 0.7251(4) 0.7675(5) 0.3149(2)
C22 C 0.7808(5) 0.8735(6) 0.3353(3)
H14 H 0.7579 0.9194 0.3627
C23 C 0.8702(5) 0.9119(6) 0.3153(3)
H15 H 0.9047 0.9857 0.3276
C24 C 0.9078(5) 0.8419(6) 0.2775(3)
H16 H 0.9693 0.8667 0.2648
C25 C 0.8553(5) 0.7348(6) 0.2579(3)
H17 H 0.8816 0.6867 0.2323
C26 C 0.7633(4) 0.6983(6) 0.2762(2)
H18 H 0.7270 0.6264 0.2623
C27 C 0.3128(4) 0.5709(5) 0.1166(2)
C28 C 0.3064(5) 0.4444(6) 0.1155(2)
H19 H 0.3553 0.3979 0.1415
C29 C 0.2276(5) 0.3874(6) 0.0761(3)
H20 H 0.2209 0.3022 0.0767
C30 C 0.1600(5) 0.4526(7) 0.0367(3)
H21 H 0.1071 0.4125 0.0101
C31 C 0.1686(5) 0.5769(7) 0.0354(3)
H22 H 0.1225 0.6211 0.0073
C32 C 0.2458(4) 0.6398(6) 0.0757(2)
H23 H 0.2517 0.7251 0.0749
C33 C 0.2170(5) 0.5067(6) 0.3852(3)
H24 H 0.1610 0.5664 0.3714
H25 H 0.2125 0.4821 0.4223
H26 H 0.2068 0.4361 0.3611
O2 O 0.8081(4) 0.6412(6) 0.4707(2)
H27 H 0.8598 0.6714 0.4930
C34 C 0.8451(7) 0.5354(9) 0.4446(4)
H28 H 0.8875 0.5620 0.4184
H29 H 0.7830 0.4891 0.4252
H30 H 0.8896 0.4846 0.4726
O3 O 0.4819(5) 0.7698(6) 0.0423(2)
H31 H 0.4690 0.7638 0.0736
C35 C 0.5389(9) 0.6702(11) 0.0317(4)
H32 H 0.6148 0.6803 0.0494
H33 H 0.5318 0.6617 -0.0079
H34 H 0.5108 0.5979 0.0462
loop_
_geom_bond_atom_site_label_1
_geom_bond_atom_site_label_2
_geom_bond_site_symmetry_1
_geom_bond_site_symmetry_2
N1 H1 1_555 1_555
N2 N3 1_555 1_555
N3 C17 1_555 1_555
N4 H2 1_555 1_555
O1 C10 1_555 1_555
C1 N1 1_555 1_555
C2 C1 1_555 1_555
C3 C2 1_555 1_555
C4 N1 1_555 1_555
C5 C4 1_555 1_555
H3 C5 1_555 1_555
C6 C5 1_555 1_555
H4 C6 1_555 1_555
C7 C6 1_555 1_555
C8 C3 1_555 1_555
C9 N4 1_555 1_555
H5 C9 1_555 1_555
C10 C9 1_555 1_555
C11 C10 1_555 1_555
C12 C11 1_555 1_555
H6 C12 1_555 1_555
C13 C12 1_555 1_555
H7 C13 1_555 1_555
C14 C13 1_555 1_555
H8 C14 1_555 1_555
C15 C14 1_555 1_555
H9 C15 1_555 1_555
C16 C11 1_555 1_555
H10 C16 1_555 1_555
C17 C18 1_555 1_555
C18 C2 1_555 1_555
C19 N2 1_555 1_555
C20 C17 1_555 1_555
H11 C20 1_555 1_555
H12 C20 1_555 1_555
H13 C20 1_555 1_555
C21 C1 1_555 1_555
C22 C21 1_555 1_555
H14 C22 1_555 1_555
C23 C22 1_555 1_555
H15 C23 1_555 1_555
C24 C23 1_555 1_555
H16 C24 1_555 1_555
C25 C24 1_555 1_555
H17 C25 1_555 1_555
C26 C21 1_555 1_555
H18 C26 1_555 1_555
C27 N2 1_555 1_555
C28 C27 1_555 1_555
H19 C28 1_555 1_555
C29 C28 1_555 1_555
H20 C29 1_555 1_555
C30 C29 1_555 1_555
H21 C30 1_555 1_555
C31 C30 1_555 1_555
H22 C31 1_555 1_555
C32 C27 1_555 1_555
H23 C32 1_555 1_555
C33 C7 1_555 1_555
H24 C33 1_555 1_555
H25 C33 1_555 1_555
H26 C33 1_555 1_555
O2 H27 1_555 1_555
C34 O2 1_555 1_555
H28 C34 1_555 1_555
H29 C34 1_555 1_555
H30 C34 1_555 1_555
O3 H31 1_555 1_555
C35 O3 1_555 1_555
H32 C35 1_555 1_555
H33 C35 1_555 1_555
H34 C35 1_555 1_555
N4 C19 1_555 1_555
C3 C4 1_555 1_555
C7 C8 1_555 1_555
C8 C9 1_555 1_555
C15 C16 1_555 1_555
C18 C19 1_555 1_555
C25 C26 1_555 1_555
C31 C32 1_555 1_555

#END
