
#######################################################################
#
#                 Cambridge Crystallographic Data Centre
#                                CCDC 
#
#######################################################################
#
# If this CIF has been generated from an entry in the Cambridge 
# Structural Database, then it will include bibliographic, chemical, 
# crystal, experimental, refinement or atomic coordinate data resulting 
# from the CCDC's data processing and validation procedures.
#
#######################################################################

data_DIWNUU
_chemical_formula_moiety         'C22 H22 O2'
_chemical_name_systematic        
5-((3-(4-methylphenyl)bicyclo[2.2.1]hept-2-ylidene)methyl)-1,3-benzodioxole
_symmetry_cell_setting           monoclinic
_symmetry_space_group_name_H-M   'P 21/c'
_symmetry_Int_Tables_number      14
_space_group_name_Hall           '-P 2ybc'
loop_
_symmetry_equiv_pos_site_id
_symmetry_equiv_pos_as_xyz
1 x,y,z
2 -x,1/2+y,1/2-z
3 -x,-y,-z
4 x,1/2-y,1/2+z
_cell_length_a                   6.2213(4)
_cell_length_b                   19.9582(12)
_cell_length_c                   13.3944(9)
_cell_angle_alpha                90
_cell_angle_beta                 93.326(7)
_cell_angle_gamma                90
_cell_volume                     1660.33
_cell_formula_units_Z            4
loop_
_atom_site_label
_atom_site_type_symbol
_atom_site_fract_x
_atom_site_fract_y
_atom_site_fract_z
C1 C 1.2598(3) 0.47266(10) 1.25653(14)
H1 H 1.3057 0.5074 1.3037
H2 H 1.3867 0.4515 1.2319
C2 C 0.9690(3) 0.40843(8) 1.23249(12)
C3 C 0.8201(3) 0.35813(9) 1.23218(12)
H3 H 0.8196 0.3272 1.2841
C4 C 0.6687(3) 0.35467(8) 1.15127(12)
H4 H 0.5653 0.3210 1.1500
C5 C 0.6680(3) 0.40042(8) 1.07190(12)
C6 C 0.8217(3) 0.45244(8) 1.07604(12)
H5 H 0.8228 0.4846 1.0258
C7 C 0.9691(3) 0.45441(8) 1.15584(12)
C8 C 0.5181(3) 0.39845(8) 0.98302(12)
H6 H 0.5033 0.4388 0.9486
C9 C 0.3997(3) 0.34820(8) 0.94370(12)
C10 C 0.3718(3) 0.27705(8) 0.97909(12)
H7 H 0.4944 0.2585 1.0193
C11 C 0.1545(3) 0.27488(9) 1.02860(13)
H8 H 0.1448 0.3103 1.0778
H9 H 0.1329 0.2320 1.0606
C12 C -0.0110(3) 0.28562(10) 0.93853(13)
H10 H -0.1131 0.2489 0.9327
H11 H -0.0891 0.3273 0.9452
C13 C 0.1301(3) 0.28788(8) 0.84789(13)
H12 H 0.0546 0.2766 0.7838
C14 C 0.3120(3) 0.23960(8) 0.88103(13)
H13 H 0.4279 0.2392 0.8356
H14 H 0.2613 0.1944 0.8920
C15 C 0.2499(3) 0.35612(8) 0.84943(12)
H15 H 0.1468 0.3922 0.8600
C16 C 0.3619(3) 0.36956(8) 0.75392(12)
C17 C 0.2532(3) 0.40341(8) 0.67536(13)
H16 H 0.1160 0.4202 0.6840
C18 C 0.3452(3) 0.41264(9) 0.58466(13)
H17 H 0.2678 0.4350 0.5333
C19 C 0.5507(3) 0.38923(8) 0.56881(13)
C20 C 0.6603(3) 0.35589(9) 0.64731(13)
H18 H 0.7977 0.3393 0.6386
C21 C 0.5692(3) 0.34682(9) 0.73812(12)
H19 H 0.6478 0.3251 0.7897
C22 C 0.6526(4) 0.39960(11) 0.47065(14)
H20 H 0.6080 0.3645 0.4251
H21 H 0.8065 0.3989 0.4814
H22 H 0.6083 0.4421 0.4429
O1 O 1.1301(2) 0.42401(7) 1.30417(9)
O2 O 1.1307(2) 0.50078(6) 1.17544(9)
loop_
_geom_bond_atom_site_label_1
_geom_bond_atom_site_label_2
_geom_bond_site_symmetry_1
_geom_bond_site_symmetry_2
C1 H1 1_555 1_555
H2 C1 1_555 1_555
C2 C3 1_555 1_555
C3 H3 1_555 1_555
C4 C3 1_555 1_555
H4 C4 1_555 1_555
C5 C4 1_555 1_555
C6 C5 1_555 1_555
H5 C6 1_555 1_555
C7 C2 1_555 1_555
C8 C5 1_555 1_555
H6 C8 1_555 1_555
C9 C8 1_555 1_555
C10 C9 1_555 1_555
H7 C10 1_555 1_555
C11 C10 1_555 1_555
H8 C11 1_555 1_555
H9 C11 1_555 1_555
C12 C11 1_555 1_555
H10 C12 1_555 1_555
H11 C12 1_555 1_555
C13 C12 1_555 1_555
H12 C13 1_555 1_555
C14 C10 1_555 1_555
H13 C14 1_555 1_555
H14 C14 1_555 1_555
C15 C9 1_555 1_555
H15 C15 1_555 1_555
C16 C15 1_555 1_555
C17 C16 1_555 1_555
H16 C17 1_555 1_555
C18 C17 1_555 1_555
H17 C18 1_555 1_555
C19 C18 1_555 1_555
C20 C19 1_555 1_555
H18 C20 1_555 1_555
C21 C16 1_555 1_555
H19 C21 1_555 1_555
C22 C19 1_555 1_555
H20 C22 1_555 1_555
H21 C22 1_555 1_555
H22 C22 1_555 1_555
O1 C1 1_555 1_555
O2 C1 1_555 1_555
C2 O1 1_555 1_555
C6 C7 1_555 1_555
C7 O2 1_555 1_555
C13 C14 1_555 1_555
C13 C15 1_555 1_555
C20 C21 1_555 1_555

#END
