
#######################################################################
#
#                 Cambridge Crystallographic Data Centre
#                                CCDC 
#
#######################################################################
#
# If this CIF has been generated from an entry in the Cambridge 
# Structural Database, then it will include bibliographic, chemical, 
# crystal, experimental, refinement or atomic coordinate data resulting 
# from the CCDC's data processing and validation procedures.
#
#######################################################################

data_DIWPAC
_chemical_formula_moiety         'C25 H24'
_chemical_name_systematic        
2-((3-(4-methylphenyl)bicyclo[2.2.1]hept-2-ylidene)methyl)naphthalene
_symmetry_cell_setting           monoclinic
_symmetry_space_group_name_H-M   'P 21/c'
_symmetry_Int_Tables_number      14
_space_group_name_Hall           '-P 2ybc'
loop_
_symmetry_equiv_pos_site_id
_symmetry_equiv_pos_as_xyz
1 x,y,z
2 -x,1/2+y,1/2-z
3 -x,-y,-z
4 x,1/2-y,1/2+z
_cell_length_a                   6.1765(2)
_cell_length_b                   11.6169(4)
_cell_length_c                   24.6124(11)
_cell_angle_alpha                90
_cell_angle_beta                 96.136(4)
_cell_angle_gamma                90
_cell_volume                     1755.87
_cell_formula_units_Z            4
loop_
_atom_site_label
_atom_site_type_symbol
_atom_site_fract_x
_atom_site_fract_y
_atom_site_fract_z
C1 C 0.7732(3) 0.44351(15) 0.23302(7)
C2 C 0.6058(3) 0.38192(15) 0.25143(7)
H1 H 0.5764 0.3066 0.2375
C3 C 0.4747(3) 0.42729(15) 0.29068(7)
C4 C 0.3008(3) 0.36446(16) 0.30907(8)
H2 H 0.2703 0.2889 0.2956
C5 C 0.1761(3) 0.41126(17) 0.34605(8)
H3 H 0.0597 0.3680 0.3581
C6 C 0.2191(3) 0.52370(17) 0.36645(8)
H4 H 0.1306 0.5560 0.3918
C7 C 0.3865(3) 0.58572(17) 0.34985(8)
H5 H 0.4141 0.6611 0.3639
C8 C 0.5215(3) 0.53929(16) 0.31169(7)
C9 C 0.7005(3) 0.59961(16) 0.29458(7)
H6 H 0.7365 0.6734 0.3095
C10 C 0.8230(3) 0.55360(15) 0.25685(7)
H7 H 0.9436 0.5957 0.2463
C11 C 0.8984(3) 0.39383(15) 0.19081(7)
H8 H 0.9087 0.3123 0.1902
C12 C 1.2094(3) 0.49859(15) 0.08086(7)
H9 H 1.2562 0.4814 0.0441
C13 C 1.0144(3) 0.58004(15) 0.08009(7)
H10 H 0.8805 0.5480 0.0600
H11 H 1.0448 0.6575 0.0660
C14 C 1.0090(3) 0.57818(15) 0.14256(7)
H12 H 0.8904 0.6250 0.1564
C15 C 0.9983(3) 0.44993(14) 0.15350(7)
C16 C 1.1271(3) 0.39207(14) 0.11110(7)
H13 H 1.2548 0.3505 0.1304
C17 C 1.2439(3) 0.61803(16) 0.16225(8)
H14 H 1.2903 0.5902 0.1997
H15 H 1.2559 0.7030 0.1615
C18 C 1.3809(3) 0.56160(16) 0.12002(8)
H16 H 1.4583 0.6206 0.1004
H17 H 1.4887 0.5069 0.1380
C19 C 1.0002(3) 0.31037(14) 0.07166(7)
C20 C 1.1121(3) 0.22350(15) 0.04714(7)
H18 H 1.2620 0.2114 0.0588
C21 C 1.0093(3) 0.15421(15) 0.00603(7)
H19 H 1.0905 0.0967 -0.0103
C22 C 0.7893(3) 0.16808(15) -0.01144(7)
C23 C 0.6767(3) 0.25273(16) 0.01391(8)
H20 H 0.5259 0.2635 0.0028
C24 C 0.7780(3) 0.32184(16) 0.05489(7)
H21 H 0.6953 0.3778 0.0718
C25 C 0.6767(3) 0.09560(17) -0.05670(8)
H22 H 0.5749 0.0428 -0.0416
H23 H 0.7854 0.0512 -0.0741
H24 H 0.5966 0.1456 -0.0839
loop_
_geom_bond_atom_site_label_1
_geom_bond_atom_site_label_2
_geom_bond_site_symmetry_1
_geom_bond_site_symmetry_2
C1 C2 1_555 1_555
C2 H1 1_555 1_555
C3 C2 1_555 1_555
C4 C3 1_555 1_555
H2 C4 1_555 1_555
C5 C4 1_555 1_555
H3 C5 1_555 1_555
C6 C5 1_555 1_555
H4 C6 1_555 1_555
C7 C6 1_555 1_555
H5 C7 1_555 1_555
C8 C3 1_555 1_555
C9 C8 1_555 1_555
H6 C9 1_555 1_555
C10 C1 1_555 1_555
H7 C10 1_555 1_555
C11 C1 1_555 1_555
H8 C11 1_555 1_555
C12 H9 1_555 1_555
C13 C12 1_555 1_555
H10 C13 1_555 1_555
H11 C13 1_555 1_555
C14 C13 1_555 1_555
H12 C14 1_555 1_555
C15 C11 1_555 1_555
C16 C12 1_555 1_555
H13 C16 1_555 1_555
C17 C14 1_555 1_555
H14 C17 1_555 1_555
H15 C17 1_555 1_555
C18 C12 1_555 1_555
H16 C18 1_555 1_555
H17 C18 1_555 1_555
C19 C16 1_555 1_555
C20 C19 1_555 1_555
H18 C20 1_555 1_555
C21 C20 1_555 1_555
H19 C21 1_555 1_555
C22 C21 1_555 1_555
C23 C22 1_555 1_555
H20 C23 1_555 1_555
C24 C19 1_555 1_555
H21 C24 1_555 1_555
C25 C22 1_555 1_555
H22 C25 1_555 1_555
H23 C25 1_555 1_555
H24 C25 1_555 1_555
C7 C8 1_555 1_555
C9 C10 1_555 1_555
C14 C15 1_555 1_555
C15 C16 1_555 1_555
C17 C18 1_555 1_555
C23 C24 1_555 1_555

#END
