
#######################################################################
#
#                 Cambridge Crystallographic Data Centre
#                                CCDC 
#
#######################################################################
#
# If this CIF has been generated from an entry in the Cambridge 
# Structural Database, then it will include bibliographic, chemical, 
# crystal, experimental, refinement or atomic coordinate data resulting 
# from the CCDC's data processing and validation procedures.
#
#######################################################################

data_DIWPUW
_chemical_formula_moiety         'C38 H48 Ca1 N2 O3 P2 Se2'
_chemical_name_systematic        
"(N,N'-ethane-1,2-diylbis(P,P-diphenyl(phosphinoselenoic amidato)))-tris(tetrahydrofuran)-calcium"
_symmetry_cell_setting           triclinic
_symmetry_space_group_name_H-M   'P -1'
_symmetry_Int_Tables_number      2
_space_group_name_Hall           '-P 1'
loop_
_symmetry_equiv_pos_site_id
_symmetry_equiv_pos_as_xyz
1 x,y,z
2 -x,-y,-z
_cell_length_a                   9.8642(10)
_cell_length_b                   13.4955(12)
_cell_length_c                   16.8868(12)
_cell_angle_alpha                106.675(7)
_cell_angle_beta                 101.705(8)
_cell_angle_gamma                106.697(9)
_cell_volume                     1960.43
_exptl_crystal_colour            colorless
_exptl_crystal_description       block
_cell_formula_units_Z            2
_chemical_properties_physical    'Air-sensitive, Moisture-sensitive'
loop_
_atom_site_label
_atom_site_type_symbol
_atom_site_fract_x
_atom_site_fract_y
_atom_site_fract_z
Se1 Se 0.39654(11) 0.62359(8) 0.68398(7)
Se2 Se 0.58872(13) 1.12944(9) 0.69075(7)
Ca1 Ca 0.5357(2) 0.88606(15) 0.70356(12)
P1 P 0.7813(3) 1.14956(19) 0.78931(16)
P2 P 0.6264(3) 0.69008(19) 0.76296(15)
O1 O 0.6001(9) 0.8239(6) 0.5750(5)
O2 O 0.3836(8) 0.9142(6) 0.7946(5)
C1 C 0.2741(17) 0.9086(11) 0.9074(9)
H1 H 0.1774 0.8485 0.8823
H2 H 0.3053 0.9291 0.9700
C2 C 1.0496(12) 1.1682(9) 0.7562(7)
H3 H 1.0294 1.0975 0.7584
C3 C 0.9335(14) 1.3834(10) 1.0389(8)
H4 H 1.0236 1.4354 1.0789
C4 C 1.1800(13) 1.2195(11) 0.7394(7)
H5 H 1.2473 1.1842 0.7320
C5 C 0.1665(14) 0.7483(11) 0.5723(9)
H6 H 0.1865 0.6802 0.5624
H7 H 0.1237 0.7592 0.6195
C6 C 0.8034(16) 1.3661(10) 1.0611(8)
H8 H 0.8054 1.4088 1.1157
C7 C 1.2076(14) 1.3245(10) 0.7340(7)
H9 H 1.2933 1.3590 0.7223
C8 C 0.9266(14) 0.5577(9) 0.6196(8)
H10 H 0.9874 0.5315 0.5907
C9 C 0.2685(15) 0.9012(13) 0.5377(9)
H11 H 0.2644 0.9709 0.5720
H12 H 0.3462 0.9181 0.5110
C10 C 0.6041(17) 0.7100(11) 0.4417(9)
H13 H 0.6452 0.6576 0.4556
H14 H 0.5518 0.6808 0.3798
C11 C 0.7198(17) 0.8198(13) 0.4689(9)
H15 H 0.6867 0.8644 0.4392
H16 H 0.8104 0.8139 0.4577
C12 C 0.6737(14) 1.2880(11) 1.0041(8)
H17 H 0.5882 1.2754 1.0211
C13 C 0.6721(13) 0.5730(11) 0.9950(9)
H18 H 0.6825 0.5505 1.0424
C14 C 0.6651(12) 1.2258(9) 0.9206(7)
H19 H 0.5743 1.1738 0.8814
C15 C 0.9788(14) 1.3254(9) 0.7615(8)
H20 H 0.9106 1.3604 0.7667
C16 C 0.7441(16) 0.8697(13) 0.5670(9)
H21 H 0.8158 0.8480 0.5995
H22 H 0.7789 0.9502 0.5876
C17 C 0.5040(15) 0.7345(11) 0.4945(8)
H23 H 0.4306 0.7569 0.4641
H24 H 0.4524 0.6693 0.5054
C18 C 0.8404(11) 0.8924(8) 0.8344(7)
H25 H 0.8951 0.8782 0.7934
H26 H 0.8820 0.8762 0.8842
O3 O 0.3038(8) 0.8428(7) 0.5938(5)
C19 C 0.7873(14) 0.5436(9) 0.5731(8)
H27 H 0.7552 0.5095 0.5128
C20 C 0.6269(13) 0.5316(9) 0.8405(8)
H28 H 0.6075 0.4811 0.7851
C21 C 0.6773(12) 0.7164(9) 0.9370(7)
H29 H 0.6908 0.7904 0.9463
C22 C 0.6897(13) 0.6816(11) 1.0061(7)
H30 H 0.7106 0.7325 1.0616
C23 C 0.6933(13) 0.5798(9) 0.6152(8)
H31 H 0.5984 0.5694 0.5830
C24 C 0.2701(13) 1.0075(10) 0.8831(8)
H32 H 0.3532 1.0748 0.9221
H33 H 0.1777 1.0191 0.8835
N1 N 0.7707(9) 1.0299(6) 0.7902(5)
C25 C 0.9796(13) 0.6117(9) 0.7113(8)
H34 H 1.0753 0.6232 0.7430
C26 C 0.9272(13) 1.3213(9) 0.9553(7)
H35 H 1.0137 1.3335 0.9394
C27 C 0.7953(11) 1.2427(8) 0.8963(6)
C28 C 1.1102(15) 1.3760(9) 0.7456(8)
H36 H 1.1311 1.4465 0.7430
C29 C 0.069(2) 0.7420(18) 0.4974(18)
H37 H -0.0245 0.7408 0.5072
H38 H 0.0502 0.6733 0.4504
C30 C 0.9509(11) 1.2208(8) 0.7694(6)
C31 C 0.3886(15) 0.8761(11) 0.8684(8)
H39 H 0.4871 0.9122 0.9109
H40 H 0.3630 0.7962 0.8486
C32 C 0.7406(11) 0.6315(7) 0.7052(6)
N2 N 0.6862(9) 0.8225(6) 0.7942(5)
C33 C 0.6450(11) 0.6425(8) 0.8540(7)
C34 C 0.2821(13) 0.9722(10) 0.7916(8)
H41 H 0.1857 0.9237 0.7494
H42 H 0.3208 1.0365 0.7765
C35 C 0.6384(15) 0.4983(11) 0.9116(9)
H43 H 0.6232 0.4242 0.9028
C36 C 0.1308(19) 0.8366(19) 0.4723(14)
H44 H 0.1446 0.8118 0.4156
H45 H 0.0658 0.8785 0.4707
C37 C 0.8549(11) 1.0139(8) 0.8634(7)
H46 H 0.8164 1.0320 0.9119
H47 H 0.9588 1.0622 0.8818
C38 C 0.8836(12) 0.6471(9) 0.7524(7)
H48 H 0.9156 0.6819 0.8126
loop_
_geom_bond_atom_site_label_1
_geom_bond_atom_site_label_2
_geom_bond_site_symmetry_1
_geom_bond_site_symmetry_2
Se1 Ca1 1_555 1_555
Se2 Ca1 1_555 1_555
Ca1 O1 1_555 1_555
P1 Se2 1_555 1_555
P2 Se1 1_555 1_555
O1 C16 1_555 1_555
O2 Ca1 1_555 1_555
C1 H1 1_555 1_555
H2 C1 1_555 1_555
C2 H3 1_555 1_555
C3 H4 1_555 1_555
C4 C2 1_555 1_555
H5 C4 1_555 1_555
C5 H6 1_555 1_555
H7 C5 1_555 1_555
C6 C3 1_555 1_555
H8 C6 1_555 1_555
C7 C4 1_555 1_555
H9 C7 1_555 1_555
C8 H10 1_555 1_555
C9 H11 1_555 1_555
H12 C9 1_555 1_555
C10 H13 1_555 1_555
H14 C10 1_555 1_555
C11 C10 1_555 1_555
H15 C11 1_555 1_555
H16 C11 1_555 1_555
C12 C6 1_555 1_555
H17 C12 1_555 1_555
C13 H18 1_555 1_555
C14 C12 1_555 1_555
H19 C14 1_555 1_555
C15 H20 1_555 1_555
C16 C11 1_555 1_555
H21 C16 1_555 1_555
H22 C16 1_555 1_555
C17 O1 1_555 1_555
H23 C17 1_555 1_555
H24 C17 1_555 1_555
C18 H25 1_555 1_555
H26 C18 1_555 1_555
O3 Ca1 1_555 1_555
C19 C8 1_555 1_555
H27 C19 1_555 1_555
C20 H28 1_555 1_555
C21 H29 1_555 1_555
C22 C13 1_555 1_555
H30 C22 1_555 1_555
C23 C19 1_555 1_555
H31 C23 1_555 1_555
C24 C1 1_555 1_555
H32 C24 1_555 1_555
H33 C24 1_555 1_555
N1 Ca1 1_555 1_555
C25 C8 1_555 1_555
H34 C25 1_555 1_555
C26 C3 1_555 1_555
H35 C26 1_555 1_555
C27 P1 1_555 1_555
C28 C7 1_555 1_555
H36 C28 1_555 1_555
C29 C5 1_555 1_555
H37 C29 1_555 1_555
H38 C29 1_555 1_555
C30 P1 1_555 1_555
C31 O2 1_555 1_555
H39 C31 1_555 1_555
H40 C31 1_555 1_555
C32 P2 1_555 1_555
N2 Ca1 1_555 1_555
C33 P2 1_555 1_555
C34 O2 1_555 1_555
H41 C34 1_555 1_555
H42 C34 1_555 1_555
C35 C13 1_555 1_555
H43 C35 1_555 1_555
C36 C9 1_555 1_555
H44 C36 1_555 1_555
H45 C36 1_555 1_555
C37 C18 1_555 1_555
H46 C37 1_555 1_555
H47 C37 1_555 1_555
C38 C25 1_555 1_555
H48 C38 1_555 1_555
P1 N1 1_555 1_555
P2 N2 1_555 1_555
C1 C31 1_555 1_555
C2 C30 1_555 1_555
C5 O3 1_555 1_555
C9 O3 1_555 1_555
C10 C17 1_555 1_555
C14 C27 1_555 1_555
C15 C28 1_555 1_555
C15 C30 1_555 1_555
C18 N2 1_555 1_555
C20 C33 1_555 1_555
C20 C35 1_555 1_555
C21 C22 1_555 1_555
C21 C33 1_555 1_555
C23 C32 1_555 1_555
C24 C34 1_555 1_555
N1 C37 1_555 1_555
C26 C27 1_555 1_555
C29 C36 1_555 1_555
C32 C38 1_555 1_555

#END
