
#######################################################################
#
#                 Cambridge Crystallographic Data Centre
#                                CCDC 
#
#######################################################################
#
# If this CIF has been generated from an entry in the Cambridge 
# Structural Database, then it will include bibliographic, chemical, 
# crystal, experimental, refinement or atomic coordinate data resulting 
# from the CCDC's data processing and validation procedures.
#
#######################################################################

data_DIWQIJ01
_chemical_name_common            'oxonium tauroursodeoxycholate monohydrate'
_chemical_formula_moiety         'C26 H44 N1 O6 S1 1-,H3 O1 1+,H2 O1'
_chemical_name_systematic        
'oxonium 2-((3,7-dihydroxy-24-oxocholan-24-yl)amino)ethanesulfonate monohydrate'
_symmetry_cell_setting           monoclinic
_symmetry_space_group_name_H-M   'P 21'
_symmetry_Int_Tables_number      4
_space_group_name_Hall           'P 2yb'
loop_
_symmetry_equiv_pos_site_id
_symmetry_equiv_pos_as_xyz
1 x,y,z
2 -x,1/2+y,-z
_cell_length_a                   9.6537(4)
_cell_length_b                   8.3429(3)
_cell_length_c                   17.2850(7)
_cell_angle_alpha                90
_cell_angle_beta                 91.145(4)
_cell_angle_gamma                90
_cell_volume                     1391.85
_exptl_crystal_colour            white
_exptl_crystal_description       prismatic
_cell_formula_units_Z            2
_exptl_crystal_recrystallization_method water
loop_
_atom_site_label
_atom_site_type_symbol
_atom_site_fract_x
_atom_site_fract_y
_atom_site_fract_z
S1 S 0.32911(9) 0.46615(11) 1.01250(5)
O1 O 0.3415(2) 0.4278(3) 1.09561(13)
O2 O 0.2560(3) 0.6143(4) 0.99904(16)
O3 O 0.6961(3) 0.3459(3) 0.83531(16)
O4 O 0.9525(3) 0.5525(4) 0.11119(15)
H1 H 0.958(4) 0.482(6) 0.076(2)
O5 O 0.7290(3) 0.0564(3) 0.38762(15)
H2 H 0.7893 0.0425 0.4210
O6 O 0.2766(3) 0.3301(4) 0.96925(16)
N1 N 0.6431(3) 0.5900(4) 0.87493(16)
H3 H 0.6681 0.6885 0.8799
C1 C 0.6618(4) 0.6703(5) 0.2387(2)
H4 H 0.5912 0.6773 0.1981
H5 H 0.6505 0.7621 0.2724
C2 C 0.7327(4) 0.4887(4) 0.84710(18)
C3 C 0.5046(4) 0.5471(5) 0.89788(19)
H6 H 0.4712 0.4592 0.8659
H7 H 0.4433 0.6377 0.8894
C4 C 0.6698(4) 0.3703(4) 0.23382(19)
H8 H 0.5976 0.3673 0.1932
C5 C 0.8539(3) 0.4668(5) 0.60638(17)
H9 H 0.9490 0.4938 0.5925
C6 C 0.5008(3) 0.4978(4) 0.98259(18)
H10 H 0.5434 0.5809 1.0143
H11 H 0.5539 0.4001 0.9900
C7 C 0.6369(3) 0.5164(4) 0.28599(18)
C8 C 0.6591(4) 0.2136(4) 0.2783(2)
H12 H 0.6882 0.1264 0.2453
H13 H 0.5630 0.1953 0.2910
C9 C 0.8754(4) 0.5466(5) 0.82887(19)
H14 H 0.9408 0.5038 0.8668
H15 H 0.8778 0.6626 0.8328
C10 C 0.8463(4) 0.2814(5) 0.6153(2)
H16 H 0.9375 0.2381 0.6272
H17 H 0.7848 0.2530 0.6568
C11 C 0.7914(4) 0.6528(4) 0.4886(2)
H18 H 0.7674 0.7457 0.5193
H19 H 0.8899 0.6575 0.4788
C12 C 0.6061(3) 0.4990(5) 0.55768(19)
H20 H 0.5478 0.4902 0.5122
H21 H 0.5852 0.5966 0.5844
H22 H 0.5899 0.4093 0.5911
C13 C 0.7289(3) 0.5092(4) 0.36067(17)
H23 H 0.8252 0.5103 0.3437
C14 C 0.8295(5) 0.7377(5) 0.6750(2)
H24 H 0.9174 0.7681 0.6545
H25 H 0.8191 0.7853 0.7251
H26 H 0.7564 0.7742 0.6409
C15 C 0.7906(4) 0.2134(4) 0.5375(2)
H27 H 0.8487 0.1267 0.5196
H28 H 0.6966 0.1741 0.5425
C16 C 0.4817(3) 0.5149(6) 0.3050(2)
H29 H 0.4641 0.4316 0.3418
H30 H 0.4281 0.4957 0.2585
H31 H 0.4562 0.6166 0.3264
C17 C 0.7097(3) 0.3501(4) 0.40594(18)
H32 H 0.6117 0.3402 0.4188
C18 C 0.8091(4) 0.3841(4) 0.19273(19)
H33 H 0.8840 0.3778 0.2309
H34 H 0.8187 0.2946 0.1574
C19 C 0.7950(3) 0.3562(4) 0.48191(18)
H35 H 0.8920 0.3694 0.4675
C20 C 0.9202(3) 0.4969(5) 0.74786(17)
H36 H 0.9257 0.3809 0.7458
H37 H 1.0123 0.5389 0.7391
C21 C 0.7112(4) 0.6580(4) 0.4118(2)
H38 H 0.7406 0.7516 0.3831
H39 H 0.6135 0.6711 0.4223
C22 C 0.7594(3) 0.5004(4) 0.53403(17)
C23 C 0.8208(4) 0.5383(5) 0.14850(19)
H40 H 0.7471 0.5412 0.1087
C24 C 0.8029(4) 0.6811(4) 0.20184(19)
H41 H 0.8752 0.6809 0.2417
H42 H 0.8099 0.7800 0.1726
C25 C 0.8226(3) 0.5551(5) 0.68225(18)
H43 H 0.7279 0.5271 0.6965
C26 C 0.7468(4) 0.2110(4) 0.35281(19)
H44 H 0.8443 0.2222 0.3390
O7 O 0.8208(3) 0.0954(3) 0.81717(16)
H45 H 0.903(5) 0.093(6) 0.845(3)
H46 H 0.788(5) 0.195(2) 0.817(3)
H47 H 0.763(4) 0.027(6) 0.843(2)
O8 O 0.9707(5) 0.3249(6) 1.0055(3)
H48 H 1.029(5) 0.320(6) 0.981(3)
H49 H 0.919(7) 0.240(9) 1.002(3)
loop_
_geom_bond_atom_site_label_1
_geom_bond_atom_site_label_2
_geom_bond_site_symmetry_1
_geom_bond_site_symmetry_2
S1 O1 1_555 1_555
O2 S1 1_555 1_555
O3 C2 1_555 1_555
O4 H1 1_555 1_555
O5 H2 1_555 1_555
O6 S1 1_555 1_555
N1 H3 1_555 1_555
C1 H4 1_555 1_555
H5 C1 1_555 1_555
C2 N1 1_555 1_555
C3 N1 1_555 1_555
H6 C3 1_555 1_555
H7 C3 1_555 1_555
C4 H8 1_555 1_555
C5 H9 1_555 1_555
C6 S1 1_555 1_555
H10 C6 1_555 1_555
H11 C6 1_555 1_555
C7 C1 1_555 1_555
C8 C4 1_555 1_555
H12 C8 1_555 1_555
H13 C8 1_555 1_555
C9 C2 1_555 1_555
H14 C9 1_555 1_555
H15 C9 1_555 1_555
C10 C5 1_555 1_555
H16 C10 1_555 1_555
H17 C10 1_555 1_555
C11 H18 1_555 1_555
H19 C11 1_555 1_555
C12 H20 1_555 1_555
H21 C12 1_555 1_555
H22 C12 1_555 1_555
C13 C7 1_555 1_555
H23 C13 1_555 1_555
C14 H24 1_555 1_555
H25 C14 1_555 1_555
H26 C14 1_555 1_555
C15 C10 1_555 1_555
H27 C15 1_555 1_555
H28 C15 1_555 1_555
C16 C7 1_555 1_555
H29 C16 1_555 1_555
H30 C16 1_555 1_555
H31 C16 1_555 1_555
C17 C13 1_555 1_555
H32 C17 1_555 1_555
C18 C4 1_555 1_555
H33 C18 1_555 1_555
H34 C18 1_555 1_555
C19 C15 1_555 1_555
H35 C19 1_555 1_555
C20 C9 1_555 1_555
H36 C20 1_555 1_555
H37 C20 1_555 1_555
C21 C11 1_555 1_555
H38 C21 1_555 1_555
H39 C21 1_555 1_555
C22 C5 1_555 1_555
C23 O4 1_555 1_555
H40 C23 1_555 1_555
C24 C1 1_555 1_555
H41 C24 1_555 1_555
H42 C24 1_555 1_555
C25 C5 1_555 1_555
H43 C25 1_555 1_555
C26 O5 1_555 1_555
H44 C26 1_555 1_555
O7 H45 1_555 1_555
H46 O7 1_555 1_555
H47 O7 1_555 1_555
O8 H48 1_555 1_555
H49 O8 1_555 1_555
C3 C6 1_555 1_555
C4 C7 1_555 1_555
C8 C26 1_555 1_555
C11 C22 1_555 1_555
C12 C22 1_555 1_555
C13 C21 1_555 1_555
C14 C25 1_555 1_555
C17 C19 1_555 1_555
C17 C26 1_555 1_555
C18 C23 1_555 1_555
C19 C22 1_555 1_555
C20 C25 1_555 1_555
C23 C24 1_555 1_555

#END
