
#######################################################################
#
#                 Cambridge Crystallographic Data Centre
#                                CCDC 
#
#######################################################################
#
# If this CIF has been generated from an entry in the Cambridge 
# Structural Database, then it will include bibliographic, chemical, 
# crystal, experimental, refinement or atomic coordinate data resulting 
# from the CCDC's data processing and validation procedures.
#
#######################################################################

data_DIWQEH
_chemical_formula_moiety         'C17 H16 O2 S1'
_chemical_name_systematic        
4-phenyl-6-(phenylsulfanyl)tetrahydro-2H-pyran-2-one
_symmetry_cell_setting           monoclinic
_symmetry_space_group_name_H-M   'P 21'
_symmetry_Int_Tables_number      4
_space_group_name_Hall           'P 2yb'
loop_
_symmetry_equiv_pos_site_id
_symmetry_equiv_pos_as_xyz
1 x,y,z
2 -x,1/2+y,-z
_cell_length_a                   8.9700(6)
_cell_length_b                   6.0133(4)
_cell_length_c                   28.3443(18)
_cell_angle_alpha                90
_cell_angle_beta                 95.276(2)
_cell_angle_gamma                90
_cell_volume                     1522.39
_exptl_crystal_colour            colorless
_exptl_crystal_description       Block
_cell_formula_units_Z            4
loop_
_atom_site_label
_atom_site_type_symbol
_atom_site_fract_x
_atom_site_fract_y
_atom_site_fract_z
C1 C 0.2895(3) 0.6359(5) 0.38945(6)
C2 C 0.1833(3) 0.4691(5) 0.38074(7)
H1 H 0.1624 0.3714 0.4052
C3 C 0.1079(3) 0.4467(6) 0.33591(8)
H2 H 0.0361 0.3339 0.3300
C4 C 0.1387(2) 0.5912(6) 0.29978(7)
H3 H 0.0877 0.5761 0.2695
C5 C 0.2449(3) 0.7581(5) 0.30849(7)
H4 H 0.2658 0.8558 0.2841
C6 C 0.3203(3) 0.7804(4) 0.35332(7)
H5 H 0.3921 0.8933 0.3592
S1 S 0.39803(11) 0.6731(2) 0.44317(4)
O1 O 0.1038(3) 1.2517(4) 0.50141(11)
O2 O 0.2102(3) 0.9549(4) 0.47697(8)
C7 C 0.1596(4) 1.0746(6) 0.51164(13)
C8 C 0.2603(4) 0.7261(6) 0.48388(11)
H6 H 0.1741 0.6255 0.4763
C9 C 0.3261(4) 0.6809(6) 0.53401(11)
H7 H 0.4186 0.7665 0.5408
H8 H 0.3504 0.5226 0.5377
C10 C 0.2133(4) 0.7467(6) 0.56845(11)
H9 H 0.1194 0.6639 0.5597
C11 C 0.1804(4) 0.9931(6) 0.56202(12)
H10 H 0.0895 1.0277 0.5773
H11 H 0.2628 1.0769 0.5787
C12 C 0.2679(4) 0.6867(7) 0.61919(12)
C13 C 0.3849(6) 0.8022(11) 0.64385(15)
H12 H 0.4284 0.9233 0.6293
C14 C 0.4382(7) 0.7425(13) 0.68919(17)
H13 H 0.5180 0.8214 0.7052
C15 C 0.3737(7) 0.5656(12) 0.71109(16)
H14 H 0.4101 0.5214 0.7418
C16 C 0.2575(7) 0.4575(11) 0.68755(18)
H15 H 0.2114 0.3401 0.7026
C17 C 0.2046(6) 0.5155(8) 0.64181(14)
H16 H 0.1243 0.4362 0.6262
C24 C 0.8468(2) 0.5387(5) 0.11346(6)
C25 C 0.7535(3) 0.7140(5) 0.12331(6)
H22 H 0.7311 0.8259 0.1006
C26 C 0.6931(3) 0.7236(4) 0.16671(6)
H23 H 0.6300 0.8422 0.1734
C27 C 0.7261(2) 0.5580(4) 0.20027(5)
H24 H 0.6853 0.5646 0.2296
C28 C 0.8194(3) 0.3828(5) 0.19043(7)
H25 H 0.8417 0.2708 0.2131
C29 C 0.8797(3) 0.3731(5) 0.14702(8)
H26 H 0.9428 0.2546 0.1404
S2 S 0.92935(10) 0.5163(2) 0.06042(3)
O3 O 0.6029(3) -0.0590(4) -0.00143(11)
O4 O 0.7237(3) 0.2368(4) 0.02469(8)
C30 C 0.6545(3) 0.1199(6) -0.01067(13)
C31 C 0.7696(4) 0.4644(6) 0.01814(11)
H27 H 0.6870 0.5645 0.0253
C32 C 0.8108(4) 0.5140(7) -0.03093(11)
H28 H 0.9000 0.4289 -0.0373
H29 H 0.8333 0.6726 -0.0338
C33 C 0.6795(4) 0.4502(6) -0.06635(11)
H30 H 0.5907 0.5336 -0.0578
C34 C 0.6477(4) 0.2054(6) -0.06043(12)
H31 H 0.5476 0.1742 -0.0759
H32 H 0.7195 0.1209 -0.0774
C35 C 0.7065(4) 0.5145(7) -0.11667(12)
C36 C 0.8104(5) 0.4032(11) -0.14113(14)
H33 H 0.8618 0.2807 -0.1269
C37 C 0.8400(6) 0.4693(14) -0.18630(16)
H34 H 0.9108 0.3922 -0.2025
C38 C 0.7653(7) 0.6472(12) -0.20680(16)
H35 H 0.7832 0.6916 -0.2376
C39 C 0.6650(7) 0.7606(10) -0.18283(18)
H36 H 0.6164 0.8859 -0.1968
C40 C 0.6337(6) 0.6943(8) -0.13840(15)
H37 H 0.5620 0.7721 -0.1227
C18? C 0.2806(3) 0.6342(5) 0.39026(6)
C19? C 0.2200(3) 0.4226(5) 0.38335(7)
H17? H 0.2452 0.3097 0.4056
C20? C 0.1222(3) 0.3781(5) 0.34354(9)
H18? H 0.0813 0.2351 0.3389
C21? C 0.0850(2) 0.5451(6) 0.31065(7)
H19? H 0.0189 0.5150 0.2837
C22? C 0.1455(3) 0.7567(6) 0.31757(7)
H20? H 0.1204 0.8696 0.2953
C23? C 0.2433(3) 0.8012(4) 0.35737(7)
H21? H 0.2843 0.9443 0.3621
C41? C 0.8373(2) 0.5513(5) 0.11412(6)
C42? C 0.7671(3) 0.7542(5) 0.12001(7)
H38? H 0.7671 0.8637 0.0963
C43? C 0.6971(3) 0.7952(4) 0.16090(7)
H39? H 0.6497 0.9324 0.1649
C44? C 0.6972(2) 0.6332(4) 0.19590(5)
H40? H 0.6499 0.6610 0.2235
C45? C 0.7674(2) 0.4303(5) 0.19000(7)
H41? H 0.7674 0.3208 0.2137
C46? C 0.8374(3) 0.3893(5) 0.14912(8)
H42? H 0.8848 0.2521 0.1451
loop_
_geom_bond_atom_site_label_1
_geom_bond_atom_site_label_2
_geom_bond_site_symmetry_1
_geom_bond_site_symmetry_2
C1 C2 1_555 1_555
C2 H1 1_555 1_555
C3 C2 1_555 1_555
H2 C3 1_555 1_555
C4 C3 1_555 1_555
H3 C4 1_555 1_555
C5 C4 1_555 1_555
H4 C5 1_555 1_555
C6 C1 1_555 1_555
H5 C6 1_555 1_555
S1 C1 1_555 1_555
O1 C7 1_555 1_555
O2 C7 1_555 1_555
C7 C11 1_555 1_555
C8 S1 1_555 1_555
H6 C8 1_555 1_555
C9 C8 1_555 1_555
H7 C9 1_555 1_555
H8 C9 1_555 1_555
C10 C9 1_555 1_555
H9 C10 1_555 1_555
C11 C10 1_555 1_555
H10 C11 1_555 1_555
H11 C11 1_555 1_555
C12 C10 1_555 1_555
C13 C12 1_555 1_555
H12 C13 1_555 1_555
C14 C13 1_555 1_555
H13 C14 1_555 1_555
C15 C14 1_555 1_555
H14 C15 1_555 1_555
C16 C15 1_555 1_555
H15 C16 1_555 1_555
C17 C12 1_555 1_555
H16 C17 1_555 1_555
C24 C25 1_555 1_555
C25 H22 1_555 1_555
C26 C25 1_555 1_555
H23 C26 1_555 1_555
C27 C26 1_555 1_555
H24 C27 1_555 1_555
C28 C27 1_555 1_555
H25 C28 1_555 1_555
C29 C24 1_555 1_555
H26 C29 1_555 1_555
S2 C24 1_555 1_555
O3 C30 1_555 1_555
O4 C30 1_555 1_555
C30 C34 1_555 1_555
C31 S2 1_555 1_555
H27 C31 1_555 1_555
C32 C31 1_555 1_555
H28 C32 1_555 1_555
H29 C32 1_555 1_555
C33 C32 1_555 1_555
H30 C33 1_555 1_555
C34 C33 1_555 1_555
H31 C34 1_555 1_555
H32 C34 1_555 1_555
C35 C33 1_555 1_555
C36 C35 1_555 1_555
H33 C36 1_555 1_555
C37 C36 1_555 1_555
H34 C37 1_555 1_555
C38 C37 1_555 1_555
H35 C38 1_555 1_555
C39 C38 1_555 1_555
H36 C39 1_555 1_555
C40 C35 1_555 1_555
H37 C40 1_555 1_555
C5 C6 1_555 1_555
O2 C8 1_555 1_555
C16 C17 1_555 1_555
C28 C29 1_555 1_555
O4 C31 1_555 1_555
C39 C40 1_555 1_555

#END
