
#######################################################################
#
#                 Cambridge Crystallographic Data Centre
#                                CCDC 
#
#######################################################################
#
# If this CIF has been generated from an entry in the Cambridge 
# Structural Database, then it will include bibliographic, chemical, 
# crystal, experimental, refinement or atomic coordinate data resulting 
# from the CCDC's data processing and validation procedures.
#
#######################################################################

data_DIWQUX
_chemical_formula_moiety         'C20 H14'
_chemical_name_systematic        1-phenylanthracene
_symmetry_cell_setting           triclinic
_symmetry_space_group_name_H-M   'P -1'
_symmetry_Int_Tables_number      2
_space_group_name_Hall           '-P 1'
loop_
_symmetry_equiv_pos_site_id
_symmetry_equiv_pos_as_xyz
1 x,y,z
2 -x,-y,-z
_cell_length_a                   9.653(4)
_cell_length_b                   11.091(4)
_cell_length_c                   14.693(5)
_cell_angle_alpha                67.870(7)
_cell_angle_beta                 85.109(7)
_cell_angle_gamma                68.930(7)
_cell_volume                     1357.45
_exptl_crystal_colour            colorless
_exptl_crystal_description       prismatic
_cell_formula_units_Z            4
loop_
_atom_site_label
_atom_site_type_symbol
_atom_site_fract_x
_atom_site_fract_y
_atom_site_fract_z
C1 C 0.9334(3) 0.2228(3) 0.15464(18)
C2 C 1.0123(3) 0.0861(3) 0.1568(2)
H1 H 1.0246 0.0112 0.2161
C3 C 1.0725(3) 0.0593(3) 0.0731(2)
H2 H 1.1223 -0.0323 0.0784
C4 C 1.0594(3) 0.1662(4) -0.0173(2)
H3 H 1.1018 0.1475 -0.0720
C5 C 0.9835(3) 0.2978(3) -0.0238(2)
H4 H 0.9727 0.3702 -0.0844
C6 C 0.9169(3) 0.3311(3) 0.06185(18)
C7 C 0.8331(3) 0.4637(3) 0.05905(19)
H5 H 0.8184 0.5377 -0.0010
C8 C 0.7672(3) 0.4942(2) 0.14341(18)
C9 C 0.7879(3) 0.3864(2) 0.23686(17)
C10 C 0.8700(3) 0.2537(2) 0.23930(17)
H6 H 0.8853 0.1798 0.2995
C11 C 0.6769(3) 0.6295(3) 0.1392(2)
H7 H 0.6608 0.7038 0.0791
C12 C 0.6109(4) 0.6556(3) 0.2218(2)
H8 H 0.5522 0.7463 0.2148
C13 C 0.6307(3) 0.5501(3) 0.3139(2)
H9 H 0.5847 0.5695 0.3676
C14 C 0.7176(3) 0.4189(2) 0.32434(18)
C15 C 0.7368(3) 0.3122(2) 0.42306(17)
C16 C 0.8768(3) 0.2355(3) 0.45990(19)
H10 H 0.9585 0.2487 0.4249
C17 C 0.8916(3) 0.1371(3) 0.5520(2)
H11 H 0.9874 0.0816 0.5796
C18 C 0.7692(3) 0.1132(3) 0.6093(2)
H12 H 0.7881 0.0435 0.6718
C19 C 0.6297(3) 0.1888(3) 0.5747(2)
H13 H 0.5488 0.1755 0.6107
C20 C 0.6140(3) 0.2871(3) 0.48286(19)
H14 H 0.5179 0.3426 0.4560
C21 C 0.2827(2) 0.1978(2) 0.48551(17)
C22 C 0.3133(3) 0.0616(3) 0.55435(18)
H15 H 0.3558 -0.0134 0.5343
C23 C 0.2807(3) 0.0380(3) 0.65173(19)
H16 H 0.3045 -0.0534 0.6961
C24 C 0.2119(3) 0.1489(4) 0.6868(2)
H17 H 0.1907 0.1295 0.7526
C25 C 0.1788(3) 0.2789(3) 0.6247(2)
H18 H 0.1320 0.3514 0.6467
C26 C 0.2151(3) 0.3099(3) 0.52184(18)
C27 C 0.1926(3) 0.4428(3) 0.4566(2)
H19 H 0.1484 0.5168 0.4774
C28 C 0.2355(3) 0.4705(3) 0.35706(19)
C29 C 0.3011(3) 0.3587(2) 0.31933(17)
C30 C 0.3229(3) 0.2256(2) 0.38549(17)
H20 H 0.3650 0.1515 0.3645
C31 C 0.2219(3) 0.6065(3) 0.2920(2)
H21 H 0.1783 0.6808 0.3126
C32 C 0.2726(4) 0.6309(3) 0.1977(2)
H22 H 0.2646 0.7213 0.1576
C33 C 0.3371(3) 0.5219(3) 0.1598(2)
H23 H 0.3701 0.5423 0.0963
C34 C 0.3497(3) 0.3897(2) 0.21657(17)
C35 C 0.4178(3) 0.2796(2) 0.17206(16)
C36 C 0.5558(3) 0.2667(3) 0.12327(17)
H24 H 0.6035 0.3275 0.1200
C37 C 0.6216(3) 0.1668(3) 0.08048(19)
H25 H 0.7103 0.1615 0.0493
C38 C 0.5499(3) 0.0773(3) 0.08646(19)
H26 H 0.5908 0.0089 0.0599
C39 C 0.4116(3) 0.0896(3) 0.13375(19)
H27 H 0.3641 0.0289 0.1363
C40 C 0.3456(3) 0.1896(3) 0.17617(18)
H28 H 0.2559 0.1955 0.2062
loop_
_geom_bond_atom_site_label_1
_geom_bond_atom_site_label_2
_geom_bond_site_symmetry_1
_geom_bond_site_symmetry_2
C1 C2 1_555 1_555
C2 H1 1_555 1_555
C3 C2 1_555 1_555
H2 C3 1_555 1_555
C4 C3 1_555 1_555
H3 C4 1_555 1_555
C5 C4 1_555 1_555
H4 C5 1_555 1_555
C6 C1 1_555 1_555
C7 C6 1_555 1_555
H5 C7 1_555 1_555
C8 C7 1_555 1_555
C9 C8 1_555 1_555
C10 C1 1_555 1_555
H6 C10 1_555 1_555
C11 C8 1_555 1_555
H7 C11 1_555 1_555
C12 C11 1_555 1_555
H8 C12 1_555 1_555
C13 C12 1_555 1_555
H9 C13 1_555 1_555
C14 C9 1_555 1_555
C15 C14 1_555 1_555
C16 C15 1_555 1_555
H10 C16 1_555 1_555
C17 C16 1_555 1_555
H11 C17 1_555 1_555
C18 C17 1_555 1_555
H12 C18 1_555 1_555
C19 C18 1_555 1_555
H13 C19 1_555 1_555
C20 C15 1_555 1_555
H14 C20 1_555 1_555
C21 C22 1_555 1_555
C22 H15 1_555 1_555
C23 C22 1_555 1_555
H16 C23 1_555 1_555
C24 C23 1_555 1_555
H17 C24 1_555 1_555
C25 C24 1_555 1_555
H18 C25 1_555 1_555
C26 C21 1_555 1_555
C27 C26 1_555 1_555
H19 C27 1_555 1_555
C28 C27 1_555 1_555
C29 C28 1_555 1_555
C30 C21 1_555 1_555
H20 C30 1_555 1_555
C31 C28 1_555 1_555
H21 C31 1_555 1_555
C32 C31 1_555 1_555
H22 C32 1_555 1_555
C33 C32 1_555 1_555
H23 C33 1_555 1_555
C34 C29 1_555 1_555
C35 C34 1_555 1_555
C36 C35 1_555 1_555
H24 C36 1_555 1_555
C37 C36 1_555 1_555
H25 C37 1_555 1_555
C38 C37 1_555 1_555
H26 C38 1_555 1_555
C39 C38 1_555 1_555
H27 C39 1_555 1_555
C40 C35 1_555 1_555
H28 C40 1_555 1_555
C5 C6 1_555 1_555
C9 C10 1_555 1_555
C13 C14 1_555 1_555
C19 C20 1_555 1_555
C25 C26 1_555 1_555
C29 C30 1_555 1_555
C33 C34 1_555 1_555
C39 C40 1_555 1_555

#END
