
#######################################################################
#
#                 Cambridge Crystallographic Data Centre
#                                CCDC 
#
#######################################################################
#
# If this CIF has been generated from an entry in the Cambridge 
# Structural Database, then it will include bibliographic, chemical, 
# crystal, experimental, refinement or atomic coordinate data resulting 
# from the CCDC's data processing and validation procedures.
#
#######################################################################

data_DIWROR
_chemical_formula_moiety         'C14 H12 N4 O2'
_chemical_name_systematic        '2-(Benzotriazol-1-ylmethylamino)benzoic acid'
_symmetry_cell_setting           monoclinic
_symmetry_space_group_name_H-M   'P 21/c'
_symmetry_Int_Tables_number      14
_space_group_name_Hall           '-P 2ybc'
loop_
_symmetry_equiv_pos_site_id
_symmetry_equiv_pos_as_xyz
1 x,y,z
2 -x,1/2+y,1/2-z
3 -x,-y,-z
4 x,1/2-y,1/2+z
_cell_length_a                   10.225(6)
_cell_length_b                   15.669(8)
_cell_length_c                   8.098(4)
_cell_angle_alpha                90
_cell_angle_beta                 97.671(7)
_cell_angle_gamma                90
_cell_volume                     1285.81
_exptl_crystal_colour            colorless
_exptl_crystal_description       block
_chemical_melting_point          '194.5-196.8 deg.C'
_cell_formula_units_Z            4
loop_
_atom_site_label
_atom_site_type_symbol
_atom_site_fract_x
_atom_site_fract_y
_atom_site_fract_z
O1 O 0.37616(15) 0.01777(11) 0.3049(2)
O2 O 0.23657(15) 0.05486(12) 0.0817(2)
H1 H 0.1845 0.0294 0.1327
N1 N 0.85744(16) 0.01883(12) 0.3449(2)
N2 N 0.95246(18) 0.05227(13) 0.2642(2)
N3 N 1.02834(18) -0.00961(14) 0.2240(2)
N4 N 0.62976(19) 0.06560(14) 0.3142(3)
C1 C 0.8708(2) -0.06775(14) 0.3566(3)
C2 C 0.8006(2) -0.13078(16) 0.4280(3)
H2 H 0.7279 -0.1185 0.4818
C3 C 0.8460(3) -0.21219(17) 0.4134(3)
H3 H 0.8022 -0.2567 0.4586
C4 C 0.9558(3) -0.23133(19) 0.3332(4)
H4 H 0.9827 -0.2878 0.3270
C5 C 1.0235(3) -0.16907(19) 0.2644(4)
H5 H 1.0957 -0.1820 0.2103
C6 C 0.9808(2) -0.08513(16) 0.2776(3)
C7 C 0.7583(2) 0.07434(15) 0.4056(3)
H6 H 0.7538 0.0612 0.5218
H7 H 0.7864 0.1333 0.3995
C8 C 0.5883(2) 0.10492(13) 0.1642(3)
C9 C 0.6766(2) 0.15121(14) 0.0805(3)
H8 H 0.7650 0.1547 0.1257
C10 C 0.6343(2) 0.19133(15) -0.0668(3)
H9 H 0.6946 0.2223 -0.1192
C11 C 0.5051(3) 0.18711(16) -0.1397(3)
H10 H 0.4774 0.2150 -0.2396
C12 C 0.4182(2) 0.14051(15) -0.0609(3)
H11 H 0.3310 0.1361 -0.1103
C13 C 0.4559(2) 0.09968(13) 0.0902(3)
C14 C 0.3554(2) 0.05360(15) 0.1695(3)
H12 H 0.568(2) 0.0420(16) 0.360(3)
loop_
_geom_bond_atom_site_label_1
_geom_bond_atom_site_label_2
_geom_bond_site_symmetry_1
_geom_bond_site_symmetry_2
O1 C14 1_555 1_555
O2 H1 1_555 1_555
N1 N2 1_555 1_555
N2 N3 1_555 1_555
N3 C6 1_555 1_555
N4 C7 1_555 1_555
C1 N1 1_555 1_555
C2 C1 1_555 1_555
H2 C2 1_555 1_555
C3 C2 1_555 1_555
H3 C3 1_555 1_555
C4 C3 1_555 1_555
H4 C4 1_555 1_555
C5 C4 1_555 1_555
H5 C5 1_555 1_555
C6 C1 1_555 1_555
C7 N1 1_555 1_555
H6 C7 1_555 1_555
H7 C7 1_555 1_555
C8 N4 1_555 1_555
C9 C8 1_555 1_555
H8 C9 1_555 1_555
C10 C9 1_555 1_555
H9 C10 1_555 1_555
C11 C10 1_555 1_555
H10 C11 1_555 1_555
C12 C11 1_555 1_555
H11 C12 1_555 1_555
C13 C8 1_555 1_555
C14 O2 1_555 1_555
H12 N4 1_555 1_555
C5 C6 1_555 1_555
C12 C13 1_555 1_555
C13 C14 1_555 1_555

#END
