
#######################################################################
#
#                 Cambridge Crystallographic Data Centre
#                                CCDC 
#
#######################################################################
#
# If this CIF has been generated from an entry in the Cambridge 
# Structural Database, then it will include bibliographic, chemical, 
# crystal, experimental, refinement or atomic coordinate data resulting 
# from the CCDC's data processing and validation procedures.
#
#######################################################################

data_DIWRIM
_chemical_formula_moiety         'C19 H13 Cl1 N2 O1'
_chemical_name_systematic        
2-(4-chlorophenyl)-4-ethynyl-5-(4-methoxyphenyl)pyrimidine
_symmetry_cell_setting           triclinic
_symmetry_space_group_name_H-M   'P -1'
_symmetry_Int_Tables_number      2
_space_group_name_Hall           '-P 1'
loop_
_symmetry_equiv_pos_site_id
_symmetry_equiv_pos_as_xyz
1 x,y,z
2 -x,-y,-z
_cell_length_a                   3.9309(3)
_cell_length_b                   13.6437(9)
_cell_length_c                   14.3003(7)
_cell_angle_alpha                103.943(5)
_cell_angle_beta                 95.653(5)
_cell_angle_gamma                90.558(6)
_cell_volume                     740.291
_exptl_crystal_colour            colorless
_exptl_crystal_description       needles
_cell_formula_units_Z            2
loop_
_atom_site_label
_atom_site_type_symbol
_atom_site_fract_x
_atom_site_fract_y
_atom_site_fract_z
N1 N -0.3704(6) -0.25377(17) -0.10248(15)
C1 C -0.0688(6) -0.1903(2) 0.05628(16)
N2 N -0.1451(6) -0.36917(17) -0.01243(15)
C2 C -0.2517(7) -0.4451(2) -0.08683(17)
H1 H -0.2119 -0.5105 -0.0807
C3 C -0.5262(6) -0.52220(19) -0.25483(17)
C4 C -0.5595(7) -0.6100(2) -0.42419(16)
H2 H -0.5132 -0.6118 -0.4871
C5 C -0.0393(7) -0.0110(2) 0.13421(18)
H3 H -0.1016 0.0548 0.1350
C6 C -0.2017(6) -0.2760(2) -0.02436(16)
C7 C -0.7280(6) -0.6921(2) -0.40432(17)
C8 C -0.6878(7) -0.6058(2) -0.23601(16)
H4 H -0.7293 -0.6049 -0.1729
C9 C 0.1766(7) -0.0316(2) 0.21034(17)
C10 C 0.2706(7) -0.1289(2) 0.21049(17)
H5 H 0.4147 -0.1412 0.2617
C11 C -0.4785(7) -0.3325(2) -0.17661(17)
C12 C -0.4621(7) -0.5262(2) -0.35027(18)
H6 H -0.3520 -0.4715 -0.3640
C13 C -0.4207(6) -0.4333(2) -0.17416(17)
C14 C -0.1581(7) -0.0909(2) 0.05761(17)
H7 H -0.2999 -0.0782 0.0061
C15 C -0.6725(7) -0.30757(19) -0.25863(17)
C16 C 0.1485(7) -0.2078(2) 0.13391(17)
H8 H 0.2113 -0.2733 0.1338
C17 C -0.7876(7) -0.6901(2) -0.31003(17)
H9 H -0.8946 -0.7454 -0.2964
O1 O -0.8186(5) -0.77168(14) -0.48259(12)
C18 C -0.9941(7) -0.8565(2) -0.46466(18)
H10 H -1.0568 -0.9051 -0.5249
H11 H -1.1963 -0.8345 -0.4342
H12 H -0.8469 -0.8870 -0.4228
C19 C -0.8332(7) -0.2870(2) -0.32528(18)
H13 H -0.9595 -0.2708 -0.3777
Cl1 Cl 0.33666(17) 0.06721(5) 0.30669(4)
loop_
_geom_bond_atom_site_label_1
_geom_bond_atom_site_label_2
_geom_bond_site_symmetry_1
_geom_bond_site_symmetry_2
N1 C6 1_555 1_555
C1 C6 1_555 1_555
N2 C2 1_555 1_555
C2 H1 1_555 1_555
C3 C8 1_555 1_555
C4 H2 1_555 1_555
C5 H3 1_555 1_555
C6 N2 1_555 1_555
C7 C4 1_555 1_555
C8 H4 1_555 1_555
C9 C5 1_555 1_555
C10 C9 1_555 1_555
H5 C10 1_555 1_555
C11 N1 1_555 1_555
C12 C3 1_555 1_555
H6 C12 1_555 1_555
C13 C2 1_555 1_555
C14 C1 1_555 1_555
H7 C14 1_555 1_555
C15 C11 1_555 1_555
C16 C1 1_555 1_555
H8 C16 1_555 1_555
C17 C7 1_555 1_555
H9 C17 1_555 1_555
O1 C7 1_555 1_555
C18 O1 1_555 1_555
H10 C18 1_555 1_555
H11 C18 1_555 1_555
H12 C18 1_555 1_555
C19 C15 1_555 1_555
H13 C19 1_555 1_555
Cl1 C9 1_555 1_555
C3 C13 1_555 1_555
C4 C12 1_555 1_555
C5 C14 1_555 1_555
C8 C17 1_555 1_555
C10 C16 1_555 1_555
C11 C13 1_555 1_555

#END
