
#######################################################################
#
#                 Cambridge Crystallographic Data Centre
#                                CCDC 
#
#######################################################################
#
# If this CIF has been generated from an entry in the Cambridge 
# Structural Database, then it will include bibliographic, chemical, 
# crystal, experimental, refinement or atomic coordinate data resulting 
# from the CCDC's data processing and validation procedures.
#
#######################################################################

data_DIWSUY
_chemical_formula_moiety         'C13 H16 N2 O5'
_chemical_name_systematic        
'Methyl 4-(butyrylamino)-5-methyl-2-nitrobenzoate'
_symmetry_cell_setting           triclinic
_symmetry_space_group_name_H-M   'P -1'
_symmetry_Int_Tables_number      2
_space_group_name_Hall           '-P 1'
loop_
_symmetry_equiv_pos_site_id
_symmetry_equiv_pos_as_xyz
1 x,y,z
2 -x,-y,-z
_cell_length_a                   7.6370(15)
_cell_length_b                   8.7880(18)
_cell_length_c                   11.329(2)
_cell_angle_alpha                81.06(3)
_cell_angle_beta                 78.48(3)
_cell_angle_gamma                68.39(3)
_cell_volume                     689.85
_exptl_crystal_colour            colorless
_exptl_crystal_description       block
_cell_formula_units_Z            2
_exptl_crystal_recrystallization_method ethanol
loop_
_atom_site_label
_atom_site_type_symbol
_atom_site_fract_x
_atom_site_fract_y
_atom_site_fract_z
N1 N 0.2769(4) -0.1219(3) -0.0125(2)
H1 H 0.3013 -0.2242 0.0119
O1 O 0.2083(4) 0.0590(3) -0.1748(2)
C1 C 0.2766(5) -0.3253(4) -0.3938(3)
H2 H 0.2607 -0.2909 -0.4769
H3 H 0.1823 -0.3727 -0.3551
H4 H 0.4016 -0.4056 -0.3901
N2 N 0.1750(4) 0.4161(3) 0.1056(2)
O2 O 0.0124(3) 0.5069(2) 0.1365(2)
C2 C 0.2531(5) -0.1773(4) -0.3296(3)
H5 H 0.3459 -0.1278 -0.3706
H6 H 0.1270 -0.0962 -0.3341
O3 O 0.3005(3) 0.4618(3) 0.0453(2)
C3 C 0.2792(4) -0.2244(3) -0.1980(2)
H7 H 0.1893 -0.2776 -0.1582
H8 H 0.4066 -0.3034 -0.1941
O4 O 0.2265(3) 0.1922(2) 0.46212(17)
C4 C 0.2510(4) -0.0805(3) -0.1302(2)
O5 O 0.2355(3) 0.4105(2) 0.33631(17)
C5 C 0.2695(4) -0.0219(3) 0.0744(2)
C6 C 0.2311(4) 0.1466(3) 0.0483(2)
H9 H 0.2122 0.1962 -0.0291
C7 C 0.2217(4) 0.2382(3) 0.1391(2)
C8 C 0.2483(4) 0.1712(3) 0.2565(2)
C9 C 0.2896(4) 0.0022(3) 0.2777(2)
H10 H 0.3106 -0.0474 0.3548
C10 C 0.3010(4) -0.0948(3) 0.1907(2)
C11 C 0.3466(7) -0.2777(4) 0.2205(3)
H11 H 0.3653 -0.3065 0.3035
H12 H 0.4607 -0.3358 0.1691
H13 H 0.2428 -0.3069 0.2079
C12 C 0.2353(4) 0.2736(3) 0.3534(2)
C13 C 0.2136(6) 0.2797(4) 0.5634(3)
H14 H 0.2095 0.2093 0.6370
H15 H 0.0999 0.3754 0.5674
H16 H 0.3230 0.3125 0.5531
loop_
_geom_bond_atom_site_label_1
_geom_bond_atom_site_label_2
_geom_bond_site_symmetry_1
_geom_bond_site_symmetry_2
N1 H1 1_555 1_555
O1 C4 1_555 1_555
C1 H2 1_555 1_555
H3 C1 1_555 1_555
H4 C1 1_555 1_555
N2 O2 1_555 1_555
C2 C1 1_555 1_555
H5 C2 1_555 1_555
H6 C2 1_555 1_555
O3 N2 1_555 1_555
C3 C2 1_555 1_555
H7 C3 1_555 1_555
H8 C3 1_555 1_555
O4 C12 1_555 1_555
C4 N1 1_555 1_555
O5 C12 1_555 1_555
C5 N1 1_555 1_555
C6 C5 1_555 1_555
H9 C6 1_555 1_555
C7 N2 1_555 1_555
C8 C7 1_555 1_555
C9 C8 1_555 1_555
H10 C9 1_555 1_555
C10 C5 1_555 1_555
C11 C10 1_555 1_555
H11 C11 1_555 1_555
H12 C11 1_555 1_555
H13 C11 1_555 1_555
C12 C8 1_555 1_555
C13 O4 1_555 1_555
H14 C13 1_555 1_555
H15 C13 1_555 1_555
H16 C13 1_555 1_555
C3 C4 1_555 1_555
C6 C7 1_555 1_555
C9 C10 1_555 1_555

#END
