
#######################################################################
#
#                 Cambridge Crystallographic Data Centre
#                                CCDC 
#
#######################################################################
#
# If this CIF has been generated from an entry in the Cambridge 
# Structural Database, then it will include bibliographic, chemical, 
# crystal, experimental, refinement or atomic coordinate data resulting 
# from the CCDC's data processing and validation procedures.
#
#######################################################################

data_DIWTIN
_chemical_formula_moiety         'C16 H12 Cl1 N1 O2 S1'
_chemical_name_systematic        
2-(4-Chlorobenzoylmethyl)-2H-1,4-benzothiazin-3(4H)-one
_symmetry_cell_setting           triclinic
_symmetry_space_group_name_H-M   'P -1'
_symmetry_Int_Tables_number      2
_space_group_name_Hall           '-P 1'
loop_
_symmetry_equiv_pos_site_id
_symmetry_equiv_pos_as_xyz
1 x,y,z
2 -x,-y,-z
_cell_length_a                   7.7273(19)
_cell_length_b                   8.649(2)
_cell_length_c                   12.298(3)
_cell_angle_alpha                82.032(3)
_cell_angle_beta                 72.349(2)
_cell_angle_gamma                68.829(3)
_cell_volume                     729.968
_exptl_crystal_colour            colorless
_exptl_crystal_description       lamellar
_cell_formula_units_Z            2
_exptl_crystal_recrystallization_method methanol
loop_
_atom_site_label
_atom_site_type_symbol
_atom_site_fract_x
_atom_site_fract_y
_atom_site_fract_z
Cl1 Cl -0.60724(7) 0.61069(8) 0.87177(5)
S1 S 0.31357(6) 0.84225(6) 0.23145(3)
O1 O 0.30018(15) 0.92709(13) 0.52142(9)
O2 O 0.28795(16) 0.57700(15) 0.57928(11)
N1 N 0.54966(17) 0.90262(15) 0.36402(11)
H1 H 0.5980 0.9498 0.3985
C1 C 0.6460(2) 0.86774(18) 0.24884(13)
C2 C 0.8326(2) 0.8708(2) 0.20508(15)
H2 H 0.8953 0.8892 0.2532
C3 C 0.9255(3) 0.8467(2) 0.09073(16)
H3 H 1.0508 0.8488 0.0619
C4 C 0.8333(3) 0.8197(3) 0.01912(16)
H4 H 0.8959 0.8043 -0.0582
C5 C 0.6482(3) 0.8155(3) 0.06182(15)
H5 H 0.5869 0.7963 0.0132
C6 C 0.5527(2) 0.8397(2) 0.17663(13)
C7 C 0.3290(2) 0.75703(18) 0.37328(12)
H6 H 0.4274 0.6463 0.3666
C8 C 0.3893(2) 0.87005(17) 0.42642(12)
C9 C 0.1349(2) 0.74330(18) 0.44118(12)
H7 H 0.0417 0.8540 0.4564
H8 H 0.0918 0.6900 0.3952
C10 C 0.1384(2) 0.64667(18) 0.55313(13)
C11 C -0.0490(2) 0.63785(17) 0.63063(13)
C12 C -0.2165(2) 0.68862(19) 0.59542(14)
H9 H -0.2133 0.7301 0.5212
C13 C -0.3878(2) 0.6784(2) 0.66903(15)
H10 H -0.4992 0.7119 0.6448
C14 C -0.3901(2) 0.6180(2) 0.77841(15)
C15 C -0.2254(3) 0.5640(2) 0.81540(15)
H11 H -0.2293 0.5219 0.8896
C16 C -0.0555(2) 0.5732(2) 0.74112(14)
H12 H 0.0563 0.5357 0.7652
loop_
_geom_bond_atom_site_label_1
_geom_bond_atom_site_label_2
_geom_bond_site_symmetry_1
_geom_bond_site_symmetry_2
Cl1 C14 1_555 1_555
S1 C6 1_555 1_555
O1 C8 1_555 1_555
O2 C10 1_555 1_555
N1 H1 1_555 1_555
C1 N1 1_555 1_555
C2 C1 1_555 1_555
H2 C2 1_555 1_555
C3 C2 1_555 1_555
H3 C3 1_555 1_555
C4 C3 1_555 1_555
H4 C4 1_555 1_555
C5 C4 1_555 1_555
H5 C5 1_555 1_555
C6 C1 1_555 1_555
C7 S1 1_555 1_555
H6 C7 1_555 1_555
C8 N1 1_555 1_555
C9 C7 1_555 1_555
H7 C9 1_555 1_555
H8 C9 1_555 1_555
C10 C9 1_555 1_555
C11 C10 1_555 1_555
C12 C11 1_555 1_555
H9 C12 1_555 1_555
C13 C12 1_555 1_555
H10 C13 1_555 1_555
C14 C13 1_555 1_555
C15 C14 1_555 1_555
H11 C15 1_555 1_555
C16 C11 1_555 1_555
H12 C16 1_555 1_555
C5 C6 1_555 1_555
C7 C8 1_555 1_555
C15 C16 1_555 1_555

#END
