
#######################################################################
#
#                 Cambridge Crystallographic Data Centre
#                                CCDC 
#
#######################################################################
#
# If this CIF has been generated from an entry in the Cambridge 
# Structural Database, then it will include bibliographic, chemical, 
# crystal, experimental, refinement or atomic coordinate data resulting 
# from the CCDC's data processing and validation procedures.
#
#######################################################################

data_DIWVEL
_chemical_formula_moiety         'C15 H16 N2 O4 S1'
_chemical_name_systematic        
N'-(3-Ethoxy-2-hydroxybenzylidene)benzenesulfonohydrazide
_symmetry_cell_setting           monoclinic
_symmetry_space_group_name_H-M   'P 21/c'
_symmetry_Int_Tables_number      14
_space_group_name_Hall           '-P 2ybc'
loop_
_symmetry_equiv_pos_site_id
_symmetry_equiv_pos_as_xyz
1 x,y,z
2 -x,1/2+y,1/2-z
3 -x,-y,-z
4 x,1/2-y,1/2+z
_cell_length_a                   10.3149(10)
_cell_length_b                   39.935(3)
_cell_length_c                   7.9832(8)
_cell_angle_alpha                90
_cell_angle_beta                 105.773(2)
_cell_angle_gamma                90
_cell_volume                     3164.66
_exptl_crystal_colour            colorless
_exptl_crystal_description       block
_cell_formula_units_Z            8
_exptl_crystal_recrystallization_method methanol
loop_
_atom_site_label
_atom_site_type_symbol
_atom_site_fract_x
_atom_site_fract_y
_atom_site_fract_z
N1 N 0.8862(4) 0.15474(10) 0.5062(5)
H1 H 0.8190 0.1591 0.4102
N2 N 0.8858(4) 0.12091(10) 0.5385(5)
O1 O 1.0083(3) 0.06423(9) 0.6356(5)
H3 H 1.0025 0.0839 0.6056
O2 O 0.9949(4) 0.00231(10) 0.7310(5)
O3 O 1.1327(3) 0.16038(9) 0.6246(4)
O4 O 0.9990(4) 0.20311(8) 0.4304(5)
S1 S 1.02564(12) 0.16900(3) 0.47484(16)
C1 C 0.7737(5) 0.10720(13) 0.5375(6)
H5 H 0.6947 0.1197 0.5077
C2 C 0.7698(5) 0.07232(13) 0.5827(6)
C3 C 0.8843(5) 0.05248(13) 0.6323(6)
C4 C 0.8766(6) 0.01893(14) 0.6801(7)
C5 C 0.7519(7) 0.00549(16) 0.6748(8)
H6 H 0.7448 -0.0169 0.7023
C6 C 0.6378(7) 0.02532(17) 0.6289(9)
H7 H 0.5550 0.0162 0.6301
C7 C 0.6444(5) 0.05806(15) 0.5819(7)
H8 H 0.5664 0.0709 0.5494
C8 C 0.9923(7) -0.03169(15) 0.7840(10)
H9 H 0.9388 -0.0451 0.6888
H10 H 0.9529 -0.0333 0.8811
C9 C 1.1336(8) -0.04390(16) 0.8364(10)
H11 H 1.1737 -0.0407 0.7422
H12 H 1.1347 -0.0673 0.8644
H13 H 1.1839 -0.0316 0.9365
C10 C 1.0519(4) 0.14629(11) 0.2984(6)
C11 C 0.9513(5) 0.14558(15) 0.1440(7)
H14 H 0.8698 0.1564 0.1344
C12 C 0.9733(7) 0.12869(19) 0.0053(8)
H15 H 0.9058 0.1279 -0.0991
C13 C 1.0929(7) 0.11296(17) 0.0181(8)
H16 H 1.1065 0.1014 -0.0770
C14 C 1.1931(6) 0.11413(15) 0.1711(8)
H17 H 1.2752 0.1037 0.1791
C15 C 1.1724(5) 0.13063(13) 0.3130(7)
H18 H 1.2397 0.1311 0.4177
N3 N 0.4135(4) 0.16102(10) -0.1714(5)
H2 H 0.3271 0.1542 -0.2033
N4 N 0.4452(4) 0.16983(10) 0.0019(5)
O5 O 0.6248(3) 0.18032(8) 0.2945(4)
H4 H 0.5955 0.1729 0.1956
O6 O 0.6879(4) 0.20697(10) 0.6006(5)
O7 O 0.6420(3) 0.13862(10) -0.1276(5)
O8 O 0.4647(3) 0.12903(9) -0.4027(4)
S2 S 0.50608(12) 0.13114(4) -0.21787(17)
C16 C 0.3577(5) 0.18495(12) 0.0593(7)
H19 H 0.2712 0.1881 -0.0130
C17 C 0.3915(5) 0.19724(11) 0.2357(7)
C18 C 0.5232(5) 0.19556(11) 0.3449(6)
C19 C 0.5557(5) 0.20971(12) 0.5107(7)
C20 C 0.4553(6) 0.22539(13) 0.5660(8)
H20 H 0.4764 0.2353 0.6754
C21 C 0.3247(6) 0.22661(14) 0.4621(9)
H21 H 0.2576 0.2365 0.5031
C22 C 0.2943(5) 0.21326(13) 0.2996(8)
H22 H 0.2064 0.2148 0.2290
C23 C 0.7310(7) 0.22377(17) 0.7650(9)
H23 H 0.6864 0.2142 0.8464
H24 H 0.7086 0.2474 0.7510
C24 C 0.8777(8) 0.21949(18) 0.8307(9)
H25 H 0.8991 0.1960 0.8392
H26 H 0.9086 0.2296 0.9437
H27 H 0.9211 0.2300 0.7523
C25 C 0.4610(5) 0.09376(13) -0.1326(6)
C26 C 0.3513(5) 0.07603(15) -0.2264(8)
H28 H 0.3004 0.0840 -0.3335
C27 C 0.3164(6) 0.04625(16) -0.1614(10)
H29 H 0.2428 0.0340 -0.2254
C28 C 0.3898(8) 0.03494(18) -0.0040(11)
H30 H 0.3668 0.0149 0.0397
C29 C 0.4971(9) 0.05293(19) 0.0901(9)
H31 H 0.5459 0.0452 0.1989
C30 C 0.5346(6) 0.08246(16) 0.0265(8)
H32 H 0.6088 0.0945 0.0908
loop_
_geom_bond_atom_site_label_1
_geom_bond_atom_site_label_2
_geom_bond_site_symmetry_1
_geom_bond_site_symmetry_2
N1 H1 1_555 1_555
N2 N1 1_555 1_555
N3 H2 1_555 1_555
N4 N3 1_555 1_555
O1 H3 1_555 1_555
O2 C4 1_555 1_555
O3 S1 1_555 1_555
O4 S1 1_555 1_555
O5 H4 1_555 1_555
O6 C19 1_555 1_555
O7 S2 1_555 1_555
O8 S2 1_555 1_555
S1 N1 1_555 1_555
S2 N3 1_555 1_555
C1 N2 1_555 1_555
H5 C1 1_555 1_555
C2 C1 1_555 1_555
C3 O1 1_555 1_555
C4 C3 1_555 1_555
C5 C4 1_555 1_555
H6 C5 1_555 1_555
C6 C5 1_555 1_555
H7 C6 1_555 1_555
C7 C2 1_555 1_555
H8 C7 1_555 1_555
C8 O2 1_555 1_555
H9 C8 1_555 1_555
H10 C8 1_555 1_555
C9 C8 1_555 1_555
H11 C9 1_555 1_555
H12 C9 1_555 1_555
H13 C9 1_555 1_555
C10 S1 1_555 1_555
C11 C10 1_555 1_555
H14 C11 1_555 1_555
C12 C11 1_555 1_555
H15 C12 1_555 1_555
C13 C12 1_555 1_555
H16 C13 1_555 1_555
C14 C13 1_555 1_555
H17 C14 1_555 1_555
C15 C10 1_555 1_555
H18 C15 1_555 1_555
C16 N4 1_555 1_555
H19 C16 1_555 1_555
C17 C16 1_555 1_555
C18 O5 1_555 1_555
C19 C18 1_555 1_555
C20 C19 1_555 1_555
H20 C20 1_555 1_555
C21 C20 1_555 1_555
H21 C21 1_555 1_555
C22 C17 1_555 1_555
H22 C22 1_555 1_555
C23 O6 1_555 1_555
H23 C23 1_555 1_555
H24 C23 1_555 1_555
C24 C23 1_555 1_555
H25 C24 1_555 1_555
H26 C24 1_555 1_555
H27 C24 1_555 1_555
C25 S2 1_555 1_555
C26 C25 1_555 1_555
H28 C26 1_555 1_555
C27 C26 1_555 1_555
H29 C27 1_555 1_555
C28 C27 1_555 1_555
H30 C28 1_555 1_555
C29 C28 1_555 1_555
H31 C29 1_555 1_555
C30 C25 1_555 1_555
H32 C30 1_555 1_555
C2 C3 1_555 1_555
C6 C7 1_555 1_555
C14 C15 1_555 1_555
C17 C18 1_555 1_555
C21 C22 1_555 1_555
C29 C30 1_555 1_555

#END
