
#######################################################################
#
#                 Cambridge Crystallographic Data Centre
#                                CCDC 
#
#######################################################################
#
# If this CIF has been generated from an entry in the Cambridge 
# Structural Database, then it will include bibliographic, chemical, 
# crystal, experimental, refinement or atomic coordinate data resulting 
# from the CCDC's data processing and validation procedures.
#
#######################################################################

data_DIWWIQ
_chemical_formula_moiety         'C12 H13 N1 O3'
_chemical_name_systematic        
rac-1-hydroxymethyl-3,12-dioxa-14-azatetracyclo(9.2.1.0^4,14^.0^5,10^)tetradecane
_symmetry_cell_setting           monoclinic
_symmetry_space_group_name_H-M   'P 21/c'
_symmetry_Int_Tables_number      14
_space_group_name_Hall           '-P 2ybc'
loop_
_symmetry_equiv_pos_site_id
_symmetry_equiv_pos_as_xyz
1 x,y,z
2 -x,1/2+y,1/2-z
3 -x,-y,-z
4 x,1/2-y,1/2+z
_cell_length_a                   6.5045(9)
_cell_length_b                   7.1799(10)
_cell_length_c                   22.394(2)
_cell_angle_alpha                90
_cell_angle_beta                 94.516(2)
_cell_angle_gamma                90
_cell_volume                     1042.59
_exptl_crystal_colour            colorless
_exptl_crystal_description       block
_cell_formula_units_Z            4
_exptl_crystal_recrystallization_method methanol
loop_
_atom_site_label
_atom_site_type_symbol
_atom_site_fract_x
_atom_site_fract_y
_atom_site_fract_z
N1 N 0.3226(5) 0.5287(5) 0.42690(14)
O1 O 0.4295(5) 0.6752(5) 0.34186(13)
O2 O -0.0354(5) 0.5594(5) 0.42167(15)
O3 O 0.4817(11) 0.7928(9) 0.5164(3)
H1 H 0.5091 0.6856 0.5269
C1 C 0.4333(7) 0.5026(6) 0.37325(18)
H3 H 0.5753 0.4617 0.3837
C2 C 0.3133(7) 0.3565(7) 0.33750(19)
C3 C 0.3589(8) 0.2725(7) 0.2844(2)
H4 H 0.4819 0.2969 0.2673
C4 C 0.2158(9) 0.1520(7) 0.2581(2)
H5 H 0.2433 0.0914 0.2229
C5 C 0.0313(10) 0.1188(8) 0.2829(3)
H6 H -0.0665 0.0418 0.2629
C6 C -0.0101(8) 0.1980(7) 0.3367(2)
H7 H -0.1303 0.1699 0.3547
C7 C 0.1354(7) 0.3223(6) 0.36316(19)
C8 C 0.1283(7) 0.4262(6) 0.42126(19)
H8 H 0.1217 0.3386 0.4546
C9 C 0.4143(8) 0.8132(7) 0.3856(2)
H9 H 0.3567 0.9270 0.3679
H10 H 0.5484 0.8405 0.4057
C10 C 0.2694(7) 0.7288(6) 0.42937(19)
C11 C 0.0471(7) 0.7326(7) 0.4034(2)
H11 H -0.0266 0.8366 0.4193
H12 H 0.0395 0.7421 0.3601
C12 C 0.2945(8) 0.8000(9) 0.4924(2)
H13 H 0.2476 0.9282 0.4928
H14 H 0.2068 0.7277 0.5167
O4? O 0.2177(12) 0.9609(10) 0.5081(3)
H2? H 0.2718 1.0454 0.4903
H15? H 0.2323 0.7085 0.5173
H16? H 0.4410 0.8004 0.5045
loop_
_geom_bond_atom_site_label_1
_geom_bond_atom_site_label_2
_geom_bond_site_symmetry_1
_geom_bond_site_symmetry_2
N1 C1 1_555 1_555
O1 C1 1_555 1_555
O2 C8 1_555 1_555
O3 H1 1_555 1_555
C1 H3 1_555 1_555
C2 C1 1_555 1_555
C3 C2 1_555 1_555
H4 C3 1_555 1_555
C4 C3 1_555 1_555
H5 C4 1_555 1_555
C5 C4 1_555 1_555
H6 C5 1_555 1_555
C6 C5 1_555 1_555
H7 C6 1_555 1_555
C7 C2 1_555 1_555
C8 N1 1_555 1_555
H8 C8 1_555 1_555
C9 O1 1_555 1_555
H9 C9 1_555 1_555
H10 C9 1_555 1_555
C10 N1 1_555 1_555
C11 O2 1_555 1_555
H11 C11 1_555 1_555
H12 C11 1_555 1_555
C12 O3 1_555 1_555
H13 C12 1_555 1_555
H14 C12 1_555 1_555
C6 C7 1_555 1_555
C7 C8 1_555 1_555
C9 C10 1_555 1_555
C10 C11 1_555 1_555
C10 C12 1_555 1_555

#END
