
#######################################################################
#
#                 Cambridge Crystallographic Data Centre
#                                CCDC 
#
#######################################################################
#
# If this CIF has been generated from an entry in the Cambridge 
# Structural Database, then it will include bibliographic, chemical, 
# crystal, experimental, refinement or atomic coordinate data resulting 
# from the CCDC's data processing and validation procedures.
#
#######################################################################

data_DIWYUE
_chemical_formula_moiety         'C22 H19 N3 O3'
_chemical_name_systematic        
2-Benzyl-3-(benzylamino)-6-nitroisoindolin-1-one
_symmetry_cell_setting           triclinic
_symmetry_space_group_name_H-M   'P -1'
_symmetry_Int_Tables_number      2
_space_group_name_Hall           '-P 1'
loop_
_symmetry_equiv_pos_site_id
_symmetry_equiv_pos_as_xyz
1 x,y,z
2 -x,-y,-z
_cell_length_a                   7.1365(17)
_cell_length_b                   7.8158(9)
_cell_length_c                   17.465(2)
_cell_angle_alpha                81.047(15)
_cell_angle_beta                 77.18(2)
_cell_angle_gamma                75.305(17)
_cell_volume                     913.689
_exptl_crystal_colour            'pale yellow'
_exptl_crystal_description       prism
_cell_formula_units_Z            2
_exptl_crystal_recrystallization_method methanol
loop_
_atom_site_label
_atom_site_type_symbol
_atom_site_fract_x
_atom_site_fract_y
_atom_site_fract_z
O1 O 0.45605(13) 0.98833(13) 0.74768(6)
O2 O 0.89117(15) 0.69114(17) 0.47909(7)
O3 O 0.72235(16) 0.65589(17) 0.39805(6)
N1 N 0.14001(15) 0.98503(14) 0.73723(6)
N2 N 0.73470(16) 0.69719(15) 0.46109(7)
N3 N -0.10033(15) 0.83848(14) 0.70257(6)
H1 H -0.2158 0.8913 0.7285
C1 C 0.33944(18) 0.95694(16) 0.71256(8)
C2 C 0.38251(17) 0.88425(15) 0.63469(7)
C3 C 0.56252(18) 0.82358(16) 0.58546(7)
H2 H 0.6850 0.8250 0.5980
C4 C 0.55111(18) 0.76103(17) 0.51698(7)
C5 C 0.3750(2) 0.75634(19) 0.49693(8)
H3 H 0.3757 0.7111 0.4494
C6 C 0.1984(2) 0.8182(2) 0.54672(8)
H4 H 0.0759 0.8164 0.5343
C7 C 0.20574(18) 0.88251(17) 0.61505(7)
C8 C 0.03439(18) 0.95379(17) 0.67834(8)
H5 H -0.0387 1.0716 0.6566
C9 C 0.03564(19) 1.07672(17) 0.80653(8)
H6 H -0.0871 1.1586 0.7941
H7 H 0.1191 1.1495 0.8181
C10 C -0.0169(2) 0.95287(17) 0.87946(8)
C11 C 0.1316(2) 0.84532(19) 0.91666(9)
H8 H 0.2655 0.8481 0.8954
C12 C 0.0852(3) 0.7342(2) 0.98452(9)
H9 H 0.1873 0.6614 1.0097
C13 C -0.1092(3) 0.7292(2) 1.01555(9)
H10 H -0.1407 0.6528 1.0620
C14 C -0.2574(2) 0.8348(2) 0.97914(9)
H11 H -0.3911 0.8315 1.0006
C15 C -0.2114(2) 0.94629(19) 0.91093(9)
H12 H -0.3139 1.0184 0.8858
C16 C -0.02371(19) 0.66077(17) 0.74062(8)
H13 H 0.0194 0.6714 0.7894
H14 H 0.0914 0.5969 0.7046
C17 C -0.18470(18) 0.55876(16) 0.76030(8)
C18 C -0.2935(2) 0.54538(19) 0.83646(8)
H15 H -0.2624 0.5964 0.8767
C19 C -0.4475(2) 0.4580(2) 0.85463(9)
H16 H -0.5214 0.4503 0.9070
C20 C -0.4935(2) 0.3825(2) 0.79702(9)
H17 H -0.5990 0.3231 0.8094
C21 C -0.3852(2) 0.39392(19) 0.72111(9)
H18 H -0.4161 0.3416 0.6813
C22 C -0.2316(2) 0.48118(18) 0.70263(8)
H19 H -0.1579 0.4880 0.6502
loop_
_geom_bond_atom_site_label_1
_geom_bond_atom_site_label_2
_geom_bond_site_symmetry_1
_geom_bond_site_symmetry_2
O1 C1 1_555 1_555
O2 N2 1_555 1_555
O3 N2 1_555 1_555
N1 C1 1_555 1_555
N2 C4 1_555 1_555
N3 H1 1_555 1_555
C1 C2 1_555 1_555
C2 C3 1_555 1_555
C3 H2 1_555 1_555
C4 C3 1_555 1_555
C5 C4 1_555 1_555
H3 C5 1_555 1_555
C6 C5 1_555 1_555
H4 C6 1_555 1_555
C7 C2 1_555 1_555
C8 N1 1_555 1_555
H5 C8 1_555 1_555
C9 N1 1_555 1_555
H6 C9 1_555 1_555
H7 C9 1_555 1_555
C10 C9 1_555 1_555
C11 C10 1_555 1_555
H8 C11 1_555 1_555
C12 C11 1_555 1_555
H9 C12 1_555 1_555
C13 C12 1_555 1_555
H10 C13 1_555 1_555
C14 C13 1_555 1_555
H11 C14 1_555 1_555
C15 C10 1_555 1_555
H12 C15 1_555 1_555
C16 N3 1_555 1_555
H13 C16 1_555 1_555
H14 C16 1_555 1_555
C17 C16 1_555 1_555
C18 C17 1_555 1_555
H15 C18 1_555 1_555
C19 C18 1_555 1_555
H16 C19 1_555 1_555
C20 C19 1_555 1_555
H17 C20 1_555 1_555
C21 C20 1_555 1_555
H18 C21 1_555 1_555
C22 C17 1_555 1_555
H19 C22 1_555 1_555
N3 C8 1_555 1_555
C6 C7 1_555 1_555
C7 C8 1_555 1_555
C14 C15 1_555 1_555
C21 C22 1_555 1_555

#END
