
#######################################################################
#
#                 Cambridge Crystallographic Data Centre
#                                CCDC 
#
#######################################################################
#
# If this CIF has been generated from an entry in the Cambridge 
# Structural Database, then it will include bibliographic, chemical, 
# crystal, experimental, refinement or atomic coordinate data resulting 
# from the CCDC's data processing and validation procedures.
#
#######################################################################

data_DIXCEU
_chemical_formula_moiety         'C20 H26 O2'
_chemical_name_systematic        1,6-bis(p-tolyloxy)hexane
_symmetry_cell_setting           monoclinic
_symmetry_space_group_name_H-M   'P 21/c'
_symmetry_Int_Tables_number      14
_space_group_name_Hall           '-P 2ybc'
loop_
_symmetry_equiv_pos_site_id
_symmetry_equiv_pos_as_xyz
1 x,y,z
2 -x,1/2+y,1/2-z
3 -x,-y,-z
4 x,1/2-y,1/2+z
_cell_length_a                   18.932(12)
_cell_length_b                   7.327(4)
_cell_length_c                   6.352(4)
_cell_angle_alpha                90
_cell_angle_beta                 91.000(13)
_cell_angle_gamma                90
_cell_volume                     880.982
_exptl_crystal_colour            colorless
_exptl_crystal_description       block
_cell_formula_units_Z            2
loop_
_atom_site_label
_atom_site_type_symbol
_atom_site_fract_x
_atom_site_fract_y
_atom_site_fract_z
O1 O 0.15451(11) -0.0150(4) 0.5211(3)
C1 C 0.4342(2) -0.0202(7) 0.2221(7)
H1 H 0.4508 -0.1439 0.2302
H2 H 0.4644 0.0567 0.3067
H3 H 0.4349 0.0203 0.0784
C2 C 0.36013(17) -0.0103(5) 0.3018(6)
C3 C 0.34523(17) 0.0740(5) 0.4910(6)
H4 H 0.3819 0.1277 0.5682
C4 C 0.27798(16) 0.0806(5) 0.5681(5)
H5 H 0.2691 0.1409 0.6937
C5 C 0.22302(16) -0.0041(4) 0.4560(5)
C6 C 0.23675(16) -0.0871(5) 0.2660(4)
H6 H 0.2002 -0.1416 0.1892
C7 C 0.30380(17) -0.0892(5) 0.1906(5)
H7 H 0.3121 -0.1448 0.0618
C8 C 0.13751(15) 0.0427(5) 0.7259(5)
H8 H 0.1378 0.1749 0.7336
H9 H 0.1719 -0.0042 0.8273
C9 C 0.06519(15) -0.0294(5) 0.7732(4)
H10 H 0.0669 -0.1617 0.7745
H11 H 0.0327 0.0074 0.6612
C10 C 0.03691(14) 0.0366(5) 0.9817(4)
H12 H 0.0358 0.1690 0.9826
H13 H 0.0682 -0.0032 1.0951
O1B O -0.15451(11) 0.0150(4) 1.4789(3)
C1B C -0.4342(2) 0.0202(7) 1.7779(7)
H1B H -0.4508 0.1439 1.7698
H2B H -0.4644 -0.0567 1.6933
H3B H -0.4349 -0.0203 1.9216
C2B C -0.36013(17) 0.0103(5) 1.6982(6)
C3B C -0.34523(17) -0.0740(5) 1.5090(6)
H4B H -0.3819 -0.1277 1.4318
C4B C -0.27798(16) -0.0806(5) 1.4319(5)
H5B H -0.2691 -0.1409 1.3063
C5B C -0.22302(16) 0.0041(4) 1.5440(5)
C6B C -0.23675(16) 0.0871(5) 1.7340(4)
H6B H -0.2002 0.1416 1.8108
C7B C -0.30380(17) 0.0892(5) 1.8094(5)
H7B H -0.3121 0.1448 1.9382
C8B C -0.13751(15) -0.0427(5) 1.2741(5)
H8B H -0.1378 -0.1749 1.2664
H9B H -0.1719 0.0042 1.1727
C9B C -0.06519(15) 0.0294(5) 1.2268(4)
H10B H -0.0669 0.1617 1.2255
H11B H -0.0327 -0.0074 1.3388
C10B C -0.03691(14) -0.0366(5) 1.0183(4)
H12B H -0.0358 -0.1690 1.0174
H13B H -0.0682 0.0032 0.9049
loop_
_geom_bond_atom_site_label_1
_geom_bond_atom_site_label_2
_geom_bond_site_symmetry_1
_geom_bond_site_symmetry_2
O1 C5 1_555 1_555
C1 H1 1_555 1_555
H2 C1 1_555 1_555
H3 C1 1_555 1_555
C2 C1 1_555 1_555
C3 C2 1_555 1_555
H4 C3 1_555 1_555
C4 C3 1_555 1_555
H5 C4 1_555 1_555
C5 C4 1_555 1_555
C6 C5 1_555 1_555
H6 C6 1_555 1_555
C7 C2 1_555 1_555
H7 C7 1_555 1_555
C8 O1 1_555 1_555
H8 C8 1_555 1_555
H9 C8 1_555 1_555
C9 C8 1_555 1_555
H10 C9 1_555 1_555
H11 C9 1_555 1_555
C10 C9 1_555 1_555
H12 C10 1_555 1_555
H13 C10 1_555 1_555
O1B C5B 1_555 1_555
C1B H1B 1_555 1_555
H2B C1B 1_555 1_555
H3B C1B 1_555 1_555
C2B C1B 1_555 1_555
C3B C2B 1_555 1_555
H4B C3B 1_555 1_555
C4B C3B 1_555 1_555
H5B C4B 1_555 1_555
C5B C4B 1_555 1_555
C6B C5B 1_555 1_555
H6B C6B 1_555 1_555
C7B C2B 1_555 1_555
H7B C7B 1_555 1_555
C8B O1B 1_555 1_555
H8B C8B 1_555 1_555
H9B C8B 1_555 1_555
C9B C8B 1_555 1_555
H10B C9B 1_555 1_555
H11B C9B 1_555 1_555
C10B C10 1_555 1_555
H12B C10B 1_555 1_555
H13B C10B 1_555 1_555
C6 C7 1_555 1_555
C6B C7B 1_555 1_555
C9B C10B 1_555 1_555

#END
