
#######################################################################
#
#                 Cambridge Crystallographic Data Centre
#                                CCDC 
#
#######################################################################
#
# If this CIF has been generated from an entry in the Cambridge 
# Structural Database, then it will include bibliographic, chemical, 
# crystal, experimental, refinement or atomic coordinate data resulting 
# from the CCDC's data processing and validation procedures.
#
#######################################################################

data_DIXKEB
_chemical_name_common            
'3-Methoxy-N-methyl-4-stilbazolium tetraphenylborate'
_chemical_formula_moiety         'C15 H16 N1 O1 1+,C24 H20 B1 1-'
_chemical_name_systematic        
'4-(2-(3-Methoxyphenyl)ethenyl)-N-methylpyridinium tetraphenylborate'
_symmetry_cell_setting           monoclinic
_symmetry_space_group_name_H-M   'P 21/c'
_symmetry_Int_Tables_number      14
_space_group_name_Hall           '-P 2ybc'
loop_
_symmetry_equiv_pos_site_id
_symmetry_equiv_pos_as_xyz
1 x,y,z
2 -x,1/2+y,1/2-z
3 -x,-y,-z
4 x,1/2-y,1/2+z
_cell_length_a                   12.8417(18)
_cell_length_b                   10.8158(16)
_cell_length_c                   21.790(4)
_cell_angle_alpha                90
_cell_angle_beta                 100.106(5)
_cell_angle_gamma                90
_cell_volume                     2979.53
_exptl_crystal_colour            brown-yellow
_exptl_crystal_description       block
_chemical_melting_point          '462-463 K'
_cell_formula_units_Z            4
_exptl_crystal_recrystallization_method ethanol/acetone
loop_
_atom_site_label
_atom_site_type_symbol
_atom_site_fract_x
_atom_site_fract_y
_atom_site_fract_z
O1 O 0.05812(16) 1.08994(17) 0.60432(9)
N1 N 0.27962(15) 0.26132(18) 0.65459(9)
C1 C 0.31075(19) 0.3168(2) 0.60569(12)
H1 H 0.3560 0.2739 0.5829
C2 C 0.27846(19) 0.4337(2) 0.58832(12)
H2 H 0.3007 0.4704 0.5532
C3 C 0.21362(18) 0.4999(2) 0.62111(11)
C4 C 0.1797(2) 0.4378(2) 0.66999(12)
H3 H 0.1323 0.4775 0.6926
C5 C 0.2135(2) 0.3204(2) 0.68599(12)
H4 H 0.1899 0.2801 0.7198
C6 C 0.18382(19) 0.6291(2) 0.60871(12)
H5 H 0.1325 0.6640 0.6301
C7 C 0.22426(19) 0.7003(2) 0.56937(12)
H6 H 0.2736 0.6620 0.5477
C8 C 0.20200(18) 0.8311(2) 0.55529(11)
C9 C 0.1391(2) 0.9033(2) 0.58685(11)
H7 H 0.1108 0.8692 0.6206
C10 C 0.1176(2) 1.0249(2) 0.56921(12)
C11 C 0.1585(2) 1.0756(2) 0.52016(11)
H8 H 0.1430 1.1587 0.5077
C12 C 0.2219(2) 1.0039(2) 0.48977(12)
H9 H 0.2505 1.0384 0.4562
C13 C 0.2445(2) 0.8836(2) 0.50694(12)
H10 H 0.2894 0.8360 0.4858
C14 C 0.3220(2) 0.1382(3) 0.67540(14)
H11 H 0.3913 0.1478 0.7021
H12 H 0.3294 0.0879 0.6390
H13 H 0.2733 0.0972 0.6989
C15 C 0.0133(2) 1.2038(2) 0.57972(14)
H14 H 0.0701 1.2624 0.5759
H15 H -0.0312 1.2381 0.6078
H16 H -0.0298 1.1895 0.5386
C16 C 0.60673(17) 0.3849(2) 0.71217(11)
C17 C 0.51700(18) 0.4612(2) 0.70113(12)
H17 H 0.5021 0.5054 0.6629
C18 C 0.44897(19) 0.4748(2) 0.74369(13)
H18 H 0.3905 0.5297 0.7349
C19 C 0.4662(2) 0.4087(2) 0.79871(13)
H19 H 0.4189 0.4159 0.8275
C20 C 0.5528(2) 0.3323(2) 0.81124(12)
H20 H 0.5656 0.2865 0.8490
C21 C 0.6215(2) 0.3218(2) 0.76915(11)
H21 H 0.6814 0.2694 0.7794
C22 C 0.78510(17) 0.2787(2) 0.68835(11)
C23 C 0.86382(18) 0.3287(2) 0.73445(11)
H22 H 0.8549 0.4106 0.7483
C24 C 0.95351(19) 0.2646(2) 0.76065(12)
H23 H 1.0048 0.3034 0.7913
C25 C 0.9693(2) 0.1457(3) 0.74284(12)
H24 H 1.0305 0.1010 0.7613
C26 C 0.8942(2) 0.0919(2) 0.69751(12)
H25 H 0.9042 0.0098 0.6841
C27 C 0.80436(19) 0.1573(2) 0.67142(11)
H26 H 0.7536 0.1178 0.6407
C28 C 0.73423(18) 0.4957(2) 0.63876(11)
C29 C 0.8111(2) 0.4889(2) 0.60010(12)
H27 H 0.8271 0.4102 0.5847
C30 C 0.8646(2) 0.5914(3) 0.58335(13)
H28 H 0.9163 0.5821 0.5574
C31 C 0.8424(2) 0.7068(3) 0.60452(13)
H29 H 0.8794 0.7775 0.5938
C32 C 0.7665(2) 0.7186(2) 0.64122(13)
H30 H 0.7499 0.7980 0.6555
C33 C 0.71368(19) 0.6147(2) 0.65773(11)
H31 H 0.6613 0.6255 0.6831
C34 C 0.60617(17) 0.3031(2) 0.59896(11)
C35 C 0.57591(19) 0.3631(2) 0.54181(11)
H32 H 0.6023 0.4439 0.5368
C36 C 0.5087(2) 0.3093(2) 0.49193(12)
H33 H 0.4890 0.3542 0.4542
C37 C 0.47069(19) 0.1917(2) 0.49700(12)
H34 H 0.4268 0.1537 0.4625
C38 C 0.49710(19) 0.1296(2) 0.55270(12)
H35 H 0.4707 0.0485 0.5570
C39 C 0.56214(18) 0.1851(2) 0.60260(11)
H36 H 0.5776 0.1414 0.6409
B1 B 0.6824(2) 0.3658(2) 0.65958(12)
loop_
_geom_bond_atom_site_label_1
_geom_bond_atom_site_label_2
_geom_bond_site_symmetry_1
_geom_bond_site_symmetry_2
O1 C10 1_555 1_555
N1 C1 1_555 1_555
C1 H1 1_555 1_555
C2 C1 1_555 1_555
H2 C2 1_555 1_555
C3 C2 1_555 1_555
C4 C3 1_555 1_555
H3 C4 1_555 1_555
C5 N1 1_555 1_555
H4 C5 1_555 1_555
C6 C3 1_555 1_555
H5 C6 1_555 1_555
C7 C6 1_555 1_555
H6 C7 1_555 1_555
C8 C7 1_555 1_555
C9 C8 1_555 1_555
H7 C9 1_555 1_555
C10 C9 1_555 1_555
C11 C10 1_555 1_555
H8 C11 1_555 1_555
C12 C11 1_555 1_555
H9 C12 1_555 1_555
C13 C8 1_555 1_555
H10 C13 1_555 1_555
C14 N1 1_555 1_555
H11 C14 1_555 1_555
H12 C14 1_555 1_555
H13 C14 1_555 1_555
C15 O1 1_555 1_555
H14 C15 1_555 1_555
H15 C15 1_555 1_555
H16 C15 1_555 1_555
C16 C17 1_555 1_555
C17 H17 1_555 1_555
C18 C17 1_555 1_555
H18 C18 1_555 1_555
C19 C18 1_555 1_555
H19 C19 1_555 1_555
C20 C19 1_555 1_555
H20 C20 1_555 1_555
C21 C16 1_555 1_555
H21 C21 1_555 1_555
C22 C23 1_555 1_555
C23 H22 1_555 1_555
C24 C23 1_555 1_555
H23 C24 1_555 1_555
C25 C24 1_555 1_555
H24 C25 1_555 1_555
C26 C25 1_555 1_555
H25 C26 1_555 1_555
C27 C22 1_555 1_555
H26 C27 1_555 1_555
C28 C29 1_555 1_555
C29 H27 1_555 1_555
C30 C29 1_555 1_555
H28 C30 1_555 1_555
C31 C30 1_555 1_555
H29 C31 1_555 1_555
C32 C31 1_555 1_555
H30 C32 1_555 1_555
C33 C28 1_555 1_555
H31 C33 1_555 1_555
C34 C35 1_555 1_555
C35 H32 1_555 1_555
C36 C35 1_555 1_555
H33 C36 1_555 1_555
C37 C36 1_555 1_555
H34 C37 1_555 1_555
C38 C37 1_555 1_555
H35 C38 1_555 1_555
C39 C34 1_555 1_555
H36 C39 1_555 1_555
B1 C16 1_555 1_555
C4 C5 1_555 1_555
C12 C13 1_555 1_555
C20 C21 1_555 1_555
C22 B1 1_555 1_555
C26 C27 1_555 1_555
C28 B1 1_555 1_555
C32 C33 1_555 1_555
C34 B1 1_555 1_555
C38 C39 1_555 1_555

#END
