
#######################################################################
#
#                 Cambridge Crystallographic Data Centre
#                                CCDC 
#
#######################################################################
#
# If this CIF has been generated from an entry in the Cambridge 
# Structural Database, then it will include bibliographic, chemical, 
# crystal, experimental, refinement or atomic coordinate data resulting 
# from the CCDC's data processing and validation procedures.
#
#######################################################################

data_DIXPAC
_chemical_formula_moiety         'C15 H8 Cl2 F3 N3'
_chemical_name_systematic        
1-(2,6-Dichloro-4-(trifluoromethyl)phenyl)-4-phenyl-1H-(1,2,3)triazole
_symmetry_cell_setting           orthorhombic
_symmetry_space_group_name_H-M   'P n a 21'
_symmetry_Int_Tables_number      33
_space_group_name_Hall           'P 2c -2n'
loop_
_symmetry_equiv_pos_site_id
_symmetry_equiv_pos_as_xyz
1 x,y,z
2 -x,-y,1/2+z
3 1/2+x,1/2-y,z
4 1/2-x,1/2+y,1/2+z
_cell_length_a                   15.5358(16)
_cell_length_b                   10.4697(11)
_cell_length_c                   9.3675(9)
_cell_angle_alpha                90
_cell_angle_beta                 90
_cell_angle_gamma                90
_cell_volume                     1523.67
_exptl_crystal_colour            colorless
_exptl_crystal_description       Rod
_chemical_melting_point          160-161deg.C
_cell_formula_units_Z            4
_exptl_crystal_recrystallization_method ethanol/acetone
loop_
_atom_site_label
_atom_site_type_symbol
_atom_site_fract_x
_atom_site_fract_y
_atom_site_fract_z
C1 C 0.3905(6) 0.9843(10) 0.6280(11)
C2 C 0.2942(5) 0.9907(10) 0.6091(10)
C3 C 0.2496(6) 1.0822(9) 0.6868(10)
H1 H 0.2788 1.1388 0.7461
C4 C 0.1621(5) 1.0876(8) 0.6746(9)
C5 C 0.1169(4) 1.0036(8) 0.5884(10)
C6 C 0.1634(5) 0.9118(7) 0.5129(9)
C7 C 0.2513(5) 0.9044(8) 0.5246(10)
H2 H 0.2816 0.8415 0.4758
C8 C -0.1089(4) 0.9782(7) 0.6068(8)
C9 C -0.0319(4) 0.9391(8) 0.6528(8)
H3 H -0.0204 0.8773 0.7215
C10 C -0.1972(5) 0.9416(8) 0.6572(10)
C11 C -0.2070(6) 0.8476(9) 0.7608(10)
H4 H -0.1592 0.8079 0.8010
C12 C -0.2899(7) 0.8142(10) 0.8028(13)
H5 H -0.2975 0.7515 0.8719
C13 C -0.3587(6) 0.8708(12) 0.7456(16)
H6 H -0.4133 0.8487 0.7776
C14 C -0.3501(6) 0.9596(13) 0.6421(16)
H7 H -0.3984 0.9943 0.5981
C15 C -0.2690(5) 0.9979(12) 0.6028(12)
H8 H -0.2630 1.0640 0.5373
Cl1 Cl 0.10523(15) 1.2045(3) 0.7665(3)
Cl2 Cl 0.10960(13) 0.8072(2) 0.4037(3)
F1 F 0.4251(5) 0.8991(8) 0.5468(10)
F2 F 0.4112(5) 0.9486(9) 0.7567(10)
F3 F 0.4281(5) 1.0893(7) 0.6128(10)
N1 N 0.0253(3) 1.0087(7) 0.5781(7)
N2 N -0.0135(4) 1.0907(7) 0.4908(7)
N3 N -0.0951(4) 1.0728(7) 0.5092(8)
loop_
_geom_bond_atom_site_label_1
_geom_bond_atom_site_label_2
_geom_bond_site_symmetry_1
_geom_bond_site_symmetry_2
C1 C2 1_555 1_555
C2 C3 1_555 1_555
C3 H1 1_555 1_555
C4 C3 1_555 1_555
C5 C4 1_555 1_555
C6 C5 1_555 1_555
C7 C2 1_555 1_555
H2 C7 1_555 1_555
C8 C9 1_555 1_555
C9 H3 1_555 1_555
C10 C8 1_555 1_555
C11 C10 1_555 1_555
H4 C11 1_555 1_555
C12 C11 1_555 1_555
H5 C12 1_555 1_555
C13 C12 1_555 1_555
H6 C13 1_555 1_555
C14 C13 1_555 1_555
H7 C14 1_555 1_555
C15 C10 1_555 1_555
H8 C15 1_555 1_555
Cl1 C4 1_555 1_555
Cl2 C6 1_555 1_555
F1 C1 1_555 1_555
F2 C1 1_555 1_555
F3 C1 1_555 1_555
N1 C5 1_555 1_555
N2 N1 1_555 1_555
N3 C8 1_555 1_555
C6 C7 1_555 1_555
C9 N1 1_555 1_555
C14 C15 1_555 1_555
N2 N3 1_555 1_555

#END
