
#######################################################################
#
#                 Cambridge Crystallographic Data Centre
#                                CCDC 
#
#######################################################################
#
# If this CIF has been generated from an entry in the Cambridge 
# Structural Database, then it will include bibliographic, chemical, 
# crystal, experimental, refinement or atomic coordinate data resulting 
# from the CCDC's data processing and validation procedures.
#
#######################################################################

data_DIXQOQ
_chemical_formula_moiety         'C40 H36 N2 O8'
_chemical_name_systematic        
5,6:7,8-Dibenzo-2,3-(3,6-bis(2',5'-bis(ethoxycarbonyl)pyrrol-1'-yl))benzobicyclo(2.2.2)octa-2,5,7-triene
_symmetry_cell_setting           triclinic
_symmetry_space_group_name_H-M   'P -1'
_symmetry_Int_Tables_number      2
_space_group_name_Hall           '-P 1'
loop_
_symmetry_equiv_pos_site_id
_symmetry_equiv_pos_as_xyz
1 x,y,z
2 -x,-y,-z
_cell_length_a                   11.466(1)
_cell_length_b                   16.729(1)
_cell_length_c                   19.669(2)
_cell_angle_alpha                77.86(1)
_cell_angle_beta                 75.16(1)
_cell_angle_gamma                80.31(1)
_cell_volume                     3539.16
_exptl_crystal_colour            colorless
_exptl_crystal_description       prisms
_cell_formula_units_Z            4
loop_
_atom_site_label
_atom_site_type_symbol
_atom_site_fract_x
_atom_site_fract_y
_atom_site_fract_z
C1 C 0.6357(3) 0.18607(19) 0.24756(18)
C2 C 0.7313(3) 0.1314(2) 0.2663(2)
H1 H 0.7558 0.0831 0.2475
C3 C 0.7906(4) 0.1497(3) 0.3138(2)
H2 H 0.8548 0.1130 0.3270
C4 C 0.7553(4) 0.2215(3) 0.3413(2)
H3 H 0.7961 0.2334 0.3725
C5 C 0.6593(3) 0.2757(2) 0.32257(18)
H4 H 0.6355 0.3242 0.3411
C6 C 0.5987(3) 0.25823(19) 0.27645(17)
C7 C 0.4951(3) 0.31196(19) 0.24769(17)
H5 H 0.4689 0.3626 0.2678
C8 C 0.3923(3) 0.2596(2) 0.26062(17)
C9 C 0.2720(4) 0.2791(3) 0.2929(2)
H6 H 0.2464 0.3274 0.3116
C10 C 0.1893(4) 0.2248(3) 0.2970(2)
H7 H 0.1078 0.2371 0.3186
C11 C 0.2271(4) 0.1536(3) 0.2695(2)
H8 H 0.1710 0.1178 0.2732
C12 C 0.3467(4) 0.1343(2) 0.2364(2)
H9 H 0.3712 0.0864 0.2170
C13 C 0.4308(3) 0.1874(2) 0.23237(17)
C14 C 0.5632(3) 0.17855(18) 0.19467(17)
H10 H 0.5890 0.1278 0.1746
C15 C 0.5967(3) 0.40781(18) 0.04947(17)
H11 H 0.6037 0.4588 0.0198
C16 C 0.5530(3) 0.40316(17) 0.12271(16)
C17 C 0.5420(3) 0.32844(18) 0.16689(16)
C18 C 0.5782(3) 0.25643(17) 0.13792(16)
C19 C 0.6208(3) 0.26080(17) 0.06569(17)
C20 C 0.6295(3) 0.33645(18) 0.02077(17)
H12 H 0.6572 0.3392 -0.0283
N1 N 0.5238(2) 0.47743(14) 0.15329(14)
C21 C 0.4132(3) 0.52500(18) 0.16393(17)
C22 C 0.4230(3) 0.58845(19) 0.19574(19)
H13 H 0.3616 0.6303 0.2084
C23 C 0.5399(3) 0.5792(2) 0.2055(2)
H14 H 0.5707 0.6135 0.2265
C24 C 0.6025(3) 0.51094(18) 0.17923(19)
C25 C 0.7305(4) 0.4820(2) 0.1764(2)
O1 O 0.7943(3) 0.51503(19) 0.1987(2)
O2 O 0.7700(3) 0.4176(2) 0.1460(2)
C26 C 0.9261(7) 0.3955(4) 0.1095(5)
H15 H 0.9463 0.3671 0.0690
H16 H 0.9738 0.4406 0.1019
C27 C 0.9155(8) 0.3473(6) 0.1729(4)
H17 H 0.9935 0.3180 0.1773
H18 H 0.8596 0.3086 0.1776
H19 H 0.8857 0.3802 0.2097
C28 C 0.3068(3) 0.5058(2) 0.1452(2)
O3 O 0.3003(3) 0.44670(19) 0.1229(2)
O4 O 0.2159(2) 0.56554(17) 0.15482(18)
C29 C 0.1031(4) 0.5561(3) 0.1378(4)
H20 H 0.1218 0.5230 0.1005
H21 H 0.0525 0.5266 0.1798
C30 C 0.0414(6) 0.6267(5) 0.1166(5)
H22 H -0.0310 0.6165 0.1056
H23 H 0.0905 0.6561 0.0748
H24 H 0.0198 0.6590 0.1539
N2 N 0.6551(2) 0.18568(15) 0.03699(14)
C31 C 0.7661(3) 0.13853(19) 0.03373(18)
C32 C 0.7578(4) 0.0652(2) 0.0166(2)
H25 H 0.8205 0.0224 0.0100
C33 C 0.6402(4) 0.0657(2) 0.0110(2)
H26 H 0.6098 0.0231 -0.0001
C34 C 0.5762(3) 0.1394(2) 0.02452(19)
C35 C 0.4473(3) 0.1655(2) 0.0258(2)
O5 O 0.3760(3) 0.11930(16) 0.02952(18)
O6 O 0.4189(3) 0.24492(17) 0.0218(2)
C36 C 0.2906(5) 0.2790(3) 0.0294(5)
H27 H 0.2453 0.2386 0.0223
H28 H 0.2577 0.2904 0.0775
C37 C 0.2774(7) 0.3459(6) -0.0160(4)
H29 H 0.1928 0.3667 -0.0096
H30 H 0.3083 0.3345 -0.0637
H31 H 0.3214 0.3862 -0.0087
C38 C 0.8702(3) 0.1658(2) 0.0490(2)
O7 O 0.8765(3) 0.23321(18) 0.0561(2)
O8 O 0.9584(2) 0.10486(17) 0.05382(18)
C39 C 1.0656(4) 0.1208(3) 0.0726(3)
H32 H 1.1377 0.1045 0.0377
H33 H 1.0617 0.1793 0.0721
C40 C 1.0730(6) 0.0763(6) 0.1414(4)
H34 H 1.1441 0.0874 0.1533
H35 H 1.0780 0.0184 0.1415
H36 H 1.0019 0.0929 0.1759
C41 C 0.2228(3) 0.15387(18) 0.53906(18)
C42 C 0.1482(3) 0.1515(2) 0.4947(2)
H37 H 0.1644 0.1788 0.4475
C43 C 0.0480(4) 0.1074(3) 0.5214(3)
H38 H -0.0017 0.1046 0.4914
C44 C 0.0223(4) 0.0687(3) 0.5904(3)
H39 H -0.0457 0.0407 0.6076
C45 C 0.0966(3) 0.0705(2) 0.6357(2)
H40 H 0.0788 0.0437 0.6830
C46 C 0.1974(3) 0.11270(17) 0.60983(18)
C47 C 0.2900(3) 0.12105(17) 0.65020(16)
H41 H 0.2727 0.0920 0.6998
C48 C 0.4135(3) 0.09127(17) 0.60782(17)
C49 C 0.4981(3) 0.0299(2) 0.6321(2)
H42 H 0.4824 0.0028 0.6793
C50 C 0.6065(3) 0.0093(2) 0.5850(2)
H43 H 0.6639 -0.0316 0.6009
C51 C 0.6303(3) 0.0485(2) 0.5151(2)
H44 H 0.7028 0.0334 0.4839
C52 C 0.5461(3) 0.1107(2) 0.49095(19)
H45 H 0.5625 0.1379 0.4438
C53 C 0.4383(3) 0.13202(17) 0.53727(17)
C54 C 0.3360(3) 0.19792(17) 0.51978(16)
H46 H 0.3537 0.2271 0.4702
C55 C 0.2615(3) 0.34088(18) 0.68708(16)
H47 H 0.2430 0.3696 0.7249
C56 C 0.2626(2) 0.25606(17) 0.69996(15)
C57 C 0.2878(2) 0.21333(16) 0.64446(15)
C58 C 0.3135(3) 0.25463(17) 0.57447(15)
C59 C 0.3146(2) 0.33896(16) 0.56174(15)
C60 C 0.2881(3) 0.38171(18) 0.61802(16)
H48 H 0.2884 0.4385 0.6088
N3 N 0.2352(2) 0.21122(15) 0.77256(12)
C61 C 0.3183(3) 0.1794(2) 0.81306(18)
C62 C 0.2612(4) 0.1323(4) 0.8739(2)
H49 H 0.2963 0.1039 0.9111
C63 C 0.1417(4) 0.1340(4) 0.8704(2)
H50 H 0.0826 0.1067 0.9048
C64 C 0.1259(3) 0.1827(2) 0.80810(19)
C65 C 0.0131(4) 0.2004(3) 0.7830(2)
O9 O -0.0750(3) 0.1686(3) 0.8135(2)
O10 O 0.0201(2) 0.25172(19) 0.72433(17)
C66 C -0.0821(5) 0.2734(3) 0.6894(4)
H51 H -0.0638 0.2485 0.6470
H52 H -0.1542 0.2527 0.7216
C67 C -0.1033(4) 0.3596(3) 0.6704(3)
H53 H -0.1702 0.3738 0.6473
H54 H -0.0319 0.3798 0.6384
H55 H -0.1225 0.3839 0.7126
C68 C 0.4462(3) 0.1930(2) 0.7905(2)
O11 O 0.4917(2) 0.23725(17) 0.73963(15)
O12 O 0.5075(3) 0.1518(3) 0.8367(2)
C69 C 0.6394(4) 0.1524(4) 0.8185(3)
H56 H 0.6593 0.2051 0.7897
H57 H 0.6682 0.1455 0.8619
C70 C 0.6983(6) 0.0885(4) 0.7802(6)
H58 H 0.7846 0.0899 0.7689
H59 H 0.6708 0.0960 0.7368
H60 H 0.6794 0.0363 0.8089
N4 N 0.3479(2) 0.38406(14) 0.48952(12)
C71 C 0.4599(3) 0.41116(17) 0.45707(16)
C72 C 0.4518(3) 0.45763(19) 0.39185(17)
H61 H 0.5141 0.4833 0.3587
C73 C 0.3350(3) 0.45979(19) 0.38380(17)
H62 H 0.3049 0.4872 0.3444
C74 C 0.2710(3) 0.41442(17) 0.44424(16)
C75 C 0.1440(3) 0.3983(2) 0.46096(19)
O13 O 0.0919(3) 0.3612(2) 0.51506(16)
O14 O 0.0945(2) 0.42883(18) 0.40629(14)
C76 C -0.0327(3) 0.4177(3) 0.4146(2)
H63 H -0.0479 0.3632 0.4411
H64 H -0.0858 0.4581 0.4408
C77 C -0.0569(4) 0.4276(4) 0.3449(3)
H65 H -0.1403 0.4207 0.3497
H66 H -0.0048 0.3870 0.3195
H67 H -0.0418 0.4816 0.3190
C78 C 0.5702(3) 0.39031(19) 0.48478(18)
O15 O 0.6634(2) 0.41702(17) 0.45268(15)
O16 O 0.5576(2) 0.34019(17) 0.54654(14)
C79 C 0.6622(3) 0.3160(3) 0.5787(2)
H68 H 0.7188 0.3568 0.5602
H69 H 0.6360 0.3129 0.6301
C80 C 0.7214(5) 0.2367(3) 0.5624(4)
H70 H 0.7908 0.2208 0.5832
H71 H 0.7472 0.2401 0.5116
H72 H 0.6654 0.1964 0.5816
loop_
_geom_bond_atom_site_label_1
_geom_bond_atom_site_label_2
_geom_bond_site_symmetry_1
_geom_bond_site_symmetry_2
C1 C2 1_555 1_555
C2 H1 1_555 1_555
C3 C2 1_555 1_555
H2 C3 1_555 1_555
C4 C3 1_555 1_555
H3 C4 1_555 1_555
C5 C4 1_555 1_555
H4 C5 1_555 1_555
C6 C1 1_555 1_555
C7 C6 1_555 1_555
H5 C7 1_555 1_555
C8 C7 1_555 1_555
C9 C8 1_555 1_555
H6 C9 1_555 1_555
C10 C9 1_555 1_555
H7 C10 1_555 1_555
C11 C10 1_555 1_555
H8 C11 1_555 1_555
C12 C11 1_555 1_555
H9 C12 1_555 1_555
C13 C8 1_555 1_555
C14 C1 1_555 1_555
H10 C14 1_555 1_555
C15 H11 1_555 1_555
C16 C15 1_555 1_555
C17 C7 1_555 1_555
C18 C14 1_555 1_555
C19 C18 1_555 1_555
C20 C15 1_555 1_555
H12 C20 1_555 1_555
N1 C16 1_555 1_555
C21 N1 1_555 1_555
C22 C21 1_555 1_555
H13 C22 1_555 1_555
C23 C22 1_555 1_555
H14 C23 1_555 1_555
C24 N1 1_555 1_555
C25 C24 1_555 1_555
O1 C25 1_555 1_555
O2 C25 1_555 1_555
C26 O2 1_555 1_555
H15 C26 1_555 1_555
H16 C26 1_555 1_555
C27 C26 1_555 1_555
H17 C27 1_555 1_555
H18 C27 1_555 1_555
H19 C27 1_555 1_555
C28 C21 1_555 1_555
O3 C28 1_555 1_555
O4 C28 1_555 1_555
C29 O4 1_555 1_555
H20 C29 1_555 1_555
H21 C29 1_555 1_555
C30 C29 1_555 1_555
H22 C30 1_555 1_555
H23 C30 1_555 1_555
H24 C30 1_555 1_555
N2 C19 1_555 1_555
C31 N2 1_555 1_555
C32 C31 1_555 1_555
H25 C32 1_555 1_555
C33 C32 1_555 1_555
H26 C33 1_555 1_555
C34 N2 1_555 1_555
C35 C34 1_555 1_555
O5 C35 1_555 1_555
O6 C35 1_555 1_555
C36 O6 1_555 1_555
H27 C36 1_555 1_555
H28 C36 1_555 1_555
C37 C36 1_555 1_555
H29 C37 1_555 1_555
H30 C37 1_555 1_555
H31 C37 1_555 1_555
C38 C31 1_555 1_555
O7 C38 1_555 1_555
O8 C38 1_555 1_555
C39 O8 1_555 1_555
H32 C39 1_555 1_555
H33 C39 1_555 1_555
C40 C39 1_555 1_555
H34 C40 1_555 1_555
H35 C40 1_555 1_555
H36 C40 1_555 1_555
C41 C42 1_555 1_555
C42 H37 1_555 1_555
C43 C42 1_555 1_555
H38 C43 1_555 1_555
C44 C43 1_555 1_555
H39 C44 1_555 1_555
C45 C44 1_555 1_555
H40 C45 1_555 1_555
C46 C41 1_555 1_555
C47 C46 1_555 1_555
H41 C47 1_555 1_555
C48 C47 1_555 1_555
C49 C48 1_555 1_555
H42 C49 1_555 1_555
C50 C49 1_555 1_555
H43 C50 1_555 1_555
C51 C50 1_555 1_555
H44 C51 1_555 1_555
C52 C51 1_555 1_555
H45 C52 1_555 1_555
C53 C48 1_555 1_555
C54 C41 1_555 1_555
H46 C54 1_555 1_555
C55 H47 1_555 1_555
C56 C55 1_555 1_555
C57 C47 1_555 1_555
C58 C54 1_555 1_555
C59 C58 1_555 1_555
C60 C55 1_555 1_555
H48 C60 1_555 1_555
N3 C56 1_555 1_555
C61 N3 1_555 1_555
C62 C61 1_555 1_555
H49 C62 1_555 1_555
C63 C62 1_555 1_555
H50 C63 1_555 1_555
C64 N3 1_555 1_555
C65 C64 1_555 1_555
O9 C65 1_555 1_555
O10 C65 1_555 1_555
C66 O10 1_555 1_555
H51 C66 1_555 1_555
H52 C66 1_555 1_555
C67 C66 1_555 1_555
H53 C67 1_555 1_555
H54 C67 1_555 1_555
H55 C67 1_555 1_555
C68 C61 1_555 1_555
O11 C68 1_555 1_555
O12 C68 1_555 1_555
C69 O12 1_555 1_555
H56 C69 1_555 1_555
H57 C69 1_555 1_555
C70 C69 1_555 1_555
H58 C70 1_555 1_555
H59 C70 1_555 1_555
H60 C70 1_555 1_555
N4 C59 1_555 1_555
C71 N4 1_555 1_555
C72 C71 1_555 1_555
H61 C72 1_555 1_555
C73 C72 1_555 1_555
H62 C73 1_555 1_555
C74 N4 1_555 1_555
C75 C74 1_555 1_555
O13 C75 1_555 1_555
O14 C75 1_555 1_555
C76 O14 1_555 1_555
H63 C76 1_555 1_555
H64 C76 1_555 1_555
C77 C76 1_555 1_555
H65 C77 1_555 1_555
H66 C77 1_555 1_555
H67 C77 1_555 1_555
C78 C71 1_555 1_555
O15 C78 1_555 1_555
O16 C78 1_555 1_555
C79 O16 1_555 1_555
H68 C79 1_555 1_555
H69 C79 1_555 1_555
C80 C79 1_555 1_555
H70 C80 1_555 1_555
H71 C80 1_555 1_555
H72 C80 1_555 1_555
C5 C6 1_555 1_555
C12 C13 1_555 1_555
C13 C14 1_555 1_555
C16 C17 1_555 1_555
C17 C18 1_555 1_555
C19 C20 1_555 1_555
C23 C24 1_555 1_555
C33 C34 1_555 1_555
C45 C46 1_555 1_555
C52 C53 1_555 1_555
C53 C54 1_555 1_555
C56 C57 1_555 1_555
C57 C58 1_555 1_555
C59 C60 1_555 1_555
C63 C64 1_555 1_555
C73 C74 1_555 1_555

#END
