
#######################################################################
#
#                 Cambridge Crystallographic Data Centre
#                                CCDC 
#
#######################################################################
#
# If this CIF has been generated from an entry in the Cambridge 
# Structural Database, then it will include bibliographic, chemical, 
# crystal, experimental, refinement or atomic coordinate data resulting 
# from the CCDC's data processing and validation procedures.
#
#######################################################################

data_DIXQAC
_chemical_formula_moiety         'C21 H18 Cl1 N1 O2 S2'
_chemical_name_systematic        
8-Chloro-10-(p-toluenesulfonyl)-1-thia-10-aza(2.2)metacyclophane
_symmetry_cell_setting           triclinic
_symmetry_space_group_name_H-M   'P -1'
_symmetry_Int_Tables_number      2
_space_group_name_Hall           '-P 1'
loop_
_symmetry_equiv_pos_site_id
_symmetry_equiv_pos_as_xyz
1 x,y,z
2 -x,-y,-z
_cell_length_a                   6.772(1)
_cell_length_b                   7.778(1)
_cell_length_c                   18.438(3)
_cell_angle_alpha                82.18(1)
_cell_angle_beta                 89.12(1)
_cell_angle_gamma                79.41(1)
_cell_volume                     945.712
_exptl_crystal_colour            colorless
_exptl_crystal_description       plates
_cell_formula_units_Z            2
loop_
_atom_site_label
_atom_site_type_symbol
_atom_site_fract_x
_atom_site_fract_y
_atom_site_fract_z
Cl1 Cl 0.05092(7) 0.15645(7) 0.93771(3)
S1 S 0.47539(8) 0.44848(7) 0.90568(3)
C1 C 0.2175(3) 0.4952(3) 0.94341(13)
H1 H 0.2035 0.4037 0.9851
H2 H 0.1959 0.6109 0.9619
C2 C 0.0611(3) 0.4977(3) 0.88611(11)
C3 C -0.0031(3) 0.6494(3) 0.83688(13)
H3 H 0.0288 0.7584 0.8462
C4 C -0.1123(3) 0.6446(3) 0.77485(13)
H4 H -0.1663 0.7511 0.7444
C5 C -0.1428(3) 0.4843(3) 0.75713(12)
H5 H -0.2078 0.4806 0.7122
C6 C -0.0799(3) 0.3284(3) 0.80394(11)
C7 C 0.0023(3) 0.3425(3) 0.87149(11)
C8 C -0.0617(3) 0.1525(3) 0.77580(12)
H6 H -0.0810 0.0608 0.8167
H7 H -0.1683 0.1599 0.7388
N1 N 0.1414(2) 0.1004(2) 0.74195(9)
C9 C 0.3110(3) 0.0958(3) 0.78982(11)
C10 C 0.4063(3) -0.0653(3) 0.82575(12)
H8 H 0.3830 -0.1721 0.8109
C11 C 0.5359(3) -0.0693(3) 0.88357(12)
H9 H 0.6075 -0.1793 0.9066
C12 C 0.5619(3) 0.0859(3) 0.90804(12)
H10 H 0.6405 0.0818 0.9507
C13 C 0.4726(3) 0.2477(3) 0.87001(11)
C14 C 0.3590(3) 0.2519(3) 0.80724(11)
H11 H 0.3146 0.3603 0.7766
S2 S 0.16681(8) 0.17180(6) 0.65448(3)
O1 O -0.0216(2) 0.1710(2) 0.62040(9)
O2 O 0.2458(3) 0.33237(19) 0.64414(8)
C15 C 0.3514(3) 0.0032(3) 0.62757(11)
C16 C 0.3066(4) -0.1633(3) 0.62662(13)
H12 H 0.1797 -0.1881 0.6429
C17 C 0.4488(4) -0.2928(3) 0.60174(14)
H13 H 0.4190 -0.4073 0.6013
C18 C 0.6338(4) -0.2588(3) 0.57751(12)
C19 C 0.6760(4) -0.0920(3) 0.57973(13)
H14 H 0.8032 -0.0674 0.5638
C20 C 0.5364(3) 0.0392(3) 0.60468(12)
H15 H 0.5673 0.1530 0.6061
C21 C 0.7856(5) -0.3994(4) 0.54858(15)
H16 H 0.7659 -0.5160 0.5718
H17 H 0.9214 -0.3829 0.5597
H18 H 0.7683 -0.3908 0.4955
loop_
_geom_bond_atom_site_label_1
_geom_bond_atom_site_label_2
_geom_bond_site_symmetry_1
_geom_bond_site_symmetry_2
Cl1 C7 1_555 1_555
S1 C1 1_555 1_555
C1 H1 1_555 1_555
H2 C1 1_555 1_555
C2 C1 1_555 1_555
C3 C2 1_555 1_555
H3 C3 1_555 1_555
C4 C3 1_555 1_555
H4 C4 1_555 1_555
C5 C4 1_555 1_555
H5 C5 1_555 1_555
C6 C5 1_555 1_555
C7 C2 1_555 1_555
C8 C6 1_555 1_555
H6 C8 1_555 1_555
H7 C8 1_555 1_555
N1 C8 1_555 1_555
C9 N1 1_555 1_555
C10 C9 1_555 1_555
H8 C10 1_555 1_555
C11 C10 1_555 1_555
H9 C11 1_555 1_555
C12 C11 1_555 1_555
H10 C12 1_555 1_555
C13 S1 1_555 1_555
C14 C9 1_555 1_555
H11 C14 1_555 1_555
S2 N1 1_555 1_555
O1 S2 1_555 1_555
O2 S2 1_555 1_555
C15 S2 1_555 1_555
C16 C15 1_555 1_555
H12 C16 1_555 1_555
C17 C16 1_555 1_555
H13 C17 1_555 1_555
C18 C17 1_555 1_555
C19 C18 1_555 1_555
H14 C19 1_555 1_555
C20 C15 1_555 1_555
H15 C20 1_555 1_555
C21 C18 1_555 1_555
H16 C21 1_555 1_555
H17 C21 1_555 1_555
H18 C21 1_555 1_555
C6 C7 1_555 1_555
C12 C13 1_555 1_555
C13 C14 1_555 1_555
C19 C20 1_555 1_555

#END
