
#######################################################################
#
#                 Cambridge Crystallographic Data Centre
#                                CCDC 
#
#######################################################################
#
# If this CIF has been generated from an entry in the Cambridge 
# Structural Database, then it will include bibliographic, chemical, 
# crystal, experimental, refinement or atomic coordinate data resulting 
# from the CCDC's data processing and validation procedures.
#
#######################################################################

data_DIXQIL
_chemical_formula_moiety         'C22 H17 N1 O2'
_chemical_name_systematic        
2-(4-(Dimethylamino)phenyl)anthracene-9,10-dione
_symmetry_cell_setting           monoclinic
_symmetry_space_group_name_H-M   'P 21/c'
_symmetry_Int_Tables_number      14
_space_group_name_Hall           '-P 2ybc'
loop_
_symmetry_equiv_pos_site_id
_symmetry_equiv_pos_as_xyz
1 x,y,z
2 -x,1/2+y,1/2-z
3 -x,-y,-z
4 x,1/2-y,1/2+z
_cell_length_a                   12.70990(10)
_cell_length_b                   7.3839(2)
_cell_length_c                   34.6896(5)
_cell_angle_alpha                90
_cell_angle_beta                 100.1825(4)
_cell_angle_gamma                90
_cell_volume                     3204.3
_exptl_crystal_colour            purple
_exptl_crystal_description       needle
_chemical_melting_point          233-234deg.C
_cell_formula_units_Z            8
loop_
_atom_site_label
_atom_site_type_symbol
_atom_site_fract_x
_atom_site_fract_y
_atom_site_fract_z
O1 O 0.12639(14) 0.6014(3) 0.43439(5)
O2 O 0.53010(15) 0.7709(3) 0.42178(5)
N1 N 0.44683(15) 0.6237(3) 0.16924(5)
C1 C 0.38745(19) 0.6922(3) 0.35260(7)
C2 C 0.31495(17) 0.6512(3) 0.31851(6)
C3 C 0.20997(19) 0.6097(3) 0.32257(7)
C4 C 0.1792(2) 0.6044(3) 0.35881(7)
C5 C 0.2789(3) 0.6232(4) 0.50426(8)
C6 C 0.3549(3) 0.6544(4) 0.53716(9)
C7 C 0.4556(3) 0.7155(4) 0.53389(8)
C8 C 0.4821(3) 0.7408(4) 0.49739(8)
C9 C 0.4393(2) 0.7273(4) 0.42473(7)
C10 C 0.2200(2) 0.6283(3) 0.43161(7)
C11 C 0.25262(18) 0.6399(3) 0.39282(7)
C12 C 0.4072(2) 0.7070(3) 0.46371(7)
C13 C 0.35786(18) 0.6859(3) 0.38928(7)
C14 C 0.3039(2) 0.6522(3) 0.46698(7)
C15 C 0.34827(17) 0.6495(3) 0.27974(6)
C16 C 0.43938(18) 0.7398(3) 0.27264(7)
C17 C 0.47204(19) 0.7352(3) 0.23655(7)
C18 C 0.41388(17) 0.6377(3) 0.20493(6)
C19 C 0.32053(18) 0.5494(3) 0.21173(7)
C20 C 0.29019(18) 0.5540(3) 0.24797(7)
C21 C 0.5395(3) 0.7217(5) 0.16169(10)
C22 C 0.3753(3) 0.5540(4) 0.13561(8)
H1 H 0.414(2) 0.550(4) 0.1126(8)
H2 H 0.458(2) 0.731(3) 0.3522(7)
H3 H 0.308(3) 0.612(4) 0.1284(8)
H4 H 0.558(2) 0.677(4) 0.1367(10)
H5 H 0.335(2) 0.634(4) 0.5633(8)
H6 H 0.352(2) 0.432(5) 0.1392(8)
H7 H 0.2272(18) 0.484(3) 0.2521(6)
H8 H 0.1596(18) 0.586(3) 0.3001(7)
H9 H 0.1064(19) 0.568(3) 0.3612(6)
H10 H 0.2776(17) 0.479(3) 0.1915(7)
H11 H 0.206(2) 0.578(4) 0.5066(8)
H12 H 0.4848(19) 0.821(3) 0.2935(7)
H13 H 0.554(2) 0.777(4) 0.4951(9)
H14 H 0.511(2) 0.754(4) 0.5581(9)
H15 H 0.5315(19) 0.803(3) 0.2343(7)
H16 H 0.520(3) 0.848(6) 0.1564(11)
H17 H 0.597(2) 0.706(4) 0.1805(8)
O3 O -0.12059(14) 0.2902(3) 0.42119(5)
O4 O 0.28343(13) 0.0838(3) 0.41604(5)
N2 N 0.21494(15) 0.1435(3) 0.16179(5)
C23 C 0.14414(19) 0.1368(3) 0.34451(7)
C24 C 0.07455(17) 0.1724(3) 0.30916(7)
C25 C -0.03045(19) 0.2243(3) 0.31173(8)
C26 C -0.0633(2) 0.2432(3) 0.34733(8)
C27 C 0.0184(2) 0.2320(4) 0.49268(8)
C28 C 0.0884(3) 0.1931(5) 0.52685(9)
C29 C 0.1898(2) 0.1270(4) 0.52557(8)
C30 C 0.2217(2) 0.1026(4) 0.48988(7)
C31 C 0.19044(19) 0.1231(3) 0.41725(7)
C32 C -0.0294(2) 0.2414(3) 0.42006(7)
C33 C 0.00692(18) 0.2112(3) 0.38226(7)
C34 C 0.15231(19) 0.1426(3) 0.45510(7)
C35 C 0.11158(18) 0.1558(3) 0.38054(7)
C36 C 0.0489(2) 0.2053(3) 0.45654(7)
C37 C 0.10956(17) 0.1605(3) 0.27091(7)
C38 C 0.20130(18) 0.0654(3) 0.26586(7)
C39 C 0.23544(19) 0.0567(3) 0.23024(6)
C40 C 0.17928(17) 0.1451(3) 0.19697(6)
C41 C 0.08590(19) 0.2383(3) 0.20149(7)
C42 C 0.05314(19) 0.2457(3) 0.23748(7)
C43 C 0.3117(2) 0.0481(4) 0.15776(9)
C44 C 0.1476(3) 0.2112(5) 0.12669(8)
H18 H 0.329(2) 0.078(4) 0.1308(8)
H19 H -0.008(2) 0.315(4) 0.2403(7)
H20 H -0.135(2) 0.273(3) 0.3494(7)
H21 H 0.2181(19) 0.094(3) 0.3451(6)
H22 H 0.185(2) 0.188(4) 0.1055(9)
H23 H 0.044(2) 0.312(3) 0.1793(8)
H24 H 0.241(2) 0.093(4) 0.5509(8)
H25 H 0.2448(17) 0.003(3) 0.2885(6)
H26 H -0.0827(19) 0.243(3) 0.2888(7)
H27 H 0.2997(17) -0.015(3) 0.2287(6)
H28 H -0.054(2) 0.264(4) 0.4922(8)
H29 H 0.2923(19) 0.052(3) 0.4885(6)
H30 H 0.306(2) -0.084(4) 0.1601(7)
H31 H 0.065(3) 0.200(5) 0.5510(10)
H32 H 0.135(2) 0.361(5) 0.1284(8)
H33 H 0.086(2) 0.150(4) 0.1210(7)
H34 H 0.368(2) 0.088(4) 0.1766(9)
loop_
_geom_bond_atom_site_label_1
_geom_bond_atom_site_label_2
_geom_bond_site_symmetry_1
_geom_bond_site_symmetry_2
O1 C10 1_555 1_555
O2 C9 1_555 1_555
N1 C18 1_555 1_555
C1 C2 1_555 1_555
C2 C3 1_555 1_555
C3 C4 1_555 1_555
C4 C11 1_555 1_555
C5 C6 1_555 1_555
C6 C7 1_555 1_555
C7 C8 1_555 1_555
C8 C12 1_555 1_555
C9 C12 1_555 1_555
C10 C11 1_555 1_555
C11 C13 1_555 1_555
C12 C14 1_555 1_555
C13 C1 1_555 1_555
C14 C5 1_555 1_555
C15 C2 1_555 1_555
C16 C15 1_555 1_555
C17 C16 1_555 1_555
C18 C17 1_555 1_555
C19 C18 1_555 1_555
C20 C15 1_555 1_555
C21 N1 1_555 1_555
C22 N1 1_555 1_555
H1 C22 1_555 1_555
H2 C1 1_555 1_555
H3 C22 1_555 1_555
H4 C21 1_555 1_555
H5 C6 1_555 1_555
H6 C22 1_555 1_555
H7 C20 1_555 1_555
H8 C3 1_555 1_555
H9 C4 1_555 1_555
H10 C19 1_555 1_555
H11 C5 1_555 1_555
H12 C16 1_555 1_555
H13 C8 1_555 1_555
H14 C7 1_555 1_555
H15 C17 1_555 1_555
H16 C21 1_555 1_555
H17 C21 1_555 1_555
O3 C32 1_555 1_555
O4 C31 1_555 1_555
N2 C40 1_555 1_555
C23 C24 1_555 1_555
C24 C25 1_555 1_555
C25 C26 1_555 1_555
C26 C33 1_555 1_555
C27 C28 1_555 1_555
C28 C29 1_555 1_555
C29 C30 1_555 1_555
C30 C34 1_555 1_555
C31 C34 1_555 1_555
C32 C33 1_555 1_555
C33 C35 1_555 1_555
C34 C36 1_555 1_555
C35 C23 1_555 1_555
C36 C27 1_555 1_555
C37 C24 1_555 1_555
C38 C37 1_555 1_555
C39 C38 1_555 1_555
C40 C39 1_555 1_555
C41 C40 1_555 1_555
C42 C37 1_555 1_555
C43 N2 1_555 1_555
C44 N2 1_555 1_555
H18 C43 1_555 1_555
H19 C42 1_555 1_555
H20 C26 1_555 1_555
H21 C23 1_555 1_555
H22 C44 1_555 1_555
H23 C41 1_555 1_555
H24 C29 1_555 1_555
H25 C38 1_555 1_555
H26 C25 1_555 1_555
H27 C39 1_555 1_555
H28 C27 1_555 1_555
H29 C30 1_555 1_555
H30 C43 1_555 1_555
H31 C28 1_555 1_555
H32 C44 1_555 1_555
H33 C44 1_555 1_555
H34 C43 1_555 1_555
C9 C13 1_555 1_555
C10 C14 1_555 1_555
C19 C20 1_555 1_555
C31 C35 1_555 1_555
C32 C36 1_555 1_555
C41 C42 1_555 1_555

#END
