
#######################################################################
#
#                 Cambridge Crystallographic Data Centre
#                                CCDC 
#
#######################################################################
#
# If this CIF has been generated from an entry in the Cambridge 
# Structural Database, then it will include bibliographic, chemical, 
# crystal, experimental, refinement or atomic coordinate data resulting 
# from the CCDC's data processing and validation procedures.
#
#######################################################################

data_DIXQOR
_chemical_formula_moiety         'C22 H13 N5'
_chemical_name_systematic        
(2-(Dimethylamino)anthracene-9,10-diylidene)dimalononitrile
_symmetry_cell_setting           monoclinic
_symmetry_space_group_name_H-M   'P 21/n'
_symmetry_Int_Tables_number      14
_space_group_name_Hall           '-P 2yn'
loop_
_symmetry_equiv_pos_site_id
_symmetry_equiv_pos_as_xyz
1 x,y,z
2 1/2-x,1/2+y,1/2-z
3 -x,-y,-z
4 1/2+x,1/2-y,1/2+z
_cell_length_a                   10.4567(4)
_cell_length_b                   8.8982(4)
_cell_length_c                   19.3221(7)
_cell_angle_alpha                90
_cell_angle_beta                 98.636(2)
_cell_angle_gamma                90
_cell_volume                     1777.46
_exptl_crystal_colour            'dark purple'
_exptl_crystal_description       Cube
_cell_formula_units_Z            4
loop_
_atom_site_label
_atom_site_type_symbol
_atom_site_fract_x
_atom_site_fract_y
_atom_site_fract_z
N1 N 0.4958(2) 0.9036(2) 0.37968(12)
N2 N 0.5702(2) 0.9764(2) 0.17363(13)
N3 N 0.21309(18) 0.1489(3) 0.28833(11)
N4 N 0.2765(2) 0.1951(3) 0.08244(11)
N5 N 0.66164(19) 0.3286(2) 0.01429(9)
C1 C 0.57305(17) 0.3370(2) 0.12236(9)
C2 C 0.64233(17) 0.4049(2) 0.07306(9)
C3 C 0.69307(19) 0.5491(3) 0.08860(11)
C4 C 0.67539(18) 0.6228(2) 0.14937(10)
C5 C 0.62152(18) 0.5600(2) 0.39117(10)
C6 C 0.61178(19) 0.4587(3) 0.44416(10)
C7 C 0.55346(19) 0.3204(2) 0.42923(10)
C8 C 0.50650(17) 0.2819(2) 0.36085(9)
C9 C 0.47458(15) 0.34439(18) 0.23214(8)
C10 C 0.58521(14) 0.62826(19) 0.26360(9)
C11 C 0.55350(14) 0.41213(19) 0.18267(8)
C12 C 0.60580(15) 0.55729(19) 0.19833(9)
C13 C 0.51606(14) 0.38225(19) 0.30637(8)
C14 C 0.57332(15) 0.5243(2) 0.32167(8)
C15 C 0.57109(17) 0.7804(2) 0.27162(10)
C16 C 0.5727(2) 0.8869(2) 0.21595(12)
C17 C 0.53120(19) 0.8458(2) 0.33294(12)
C18 C 0.36840(16) 0.2586(2) 0.21019(9)
C19 C 0.28487(18) 0.2001(3) 0.25618(11)
C20 C 0.32100(19) 0.2249(3) 0.13798(11)
C21 C 0.7340(4) 0.3977(4) -0.03619(17)
C22 C 0.5885(3) 0.1926(3) -0.00672(13)
H1 H 0.472(2) 0.186(3) 0.3485(11)
H2 H 0.664(2) 0.657(3) 0.4021(11)
H3 H 0.542(2) 0.231(3) 0.1145(11)
H4 H 0.743(2) 0.594(3) 0.0544(13)
H5 H 0.548(2) 0.248(3) 0.4654(13)
H6 H 0.715(3) 0.725(3) 0.1600(13)
H7 H 0.649(2) 0.479(3) 0.4945(13)
H8 H 0.615(4) 0.173(4) -0.052(2)
H9 H 0.612(4) 0.115(4) 0.0310(19)
H10 H 0.493(4) 0.207(4) -0.0082(17)
H11 H 0.749(5) 0.309(6) -0.069(3)
H12 H 0.685(4) 0.465(5) -0.058(2)
H13 H 0.808(6) 0.457(7) -0.011(3)
loop_
_geom_bond_atom_site_label_1
_geom_bond_atom_site_label_2
_geom_bond_site_symmetry_1
_geom_bond_site_symmetry_2
N1 C17 1_555 1_555
N2 C16 1_555 1_555
N3 C19 1_555 1_555
N4 C20 1_555 1_555
N5 C2 1_555 1_555
C1 C2 1_555 1_555
C2 C3 1_555 1_555
C3 C4 1_555 1_555
C4 C12 1_555 1_555
C5 C6 1_555 1_555
C6 C7 1_555 1_555
C7 C8 1_555 1_555
C8 C13 1_555 1_555
C9 C11 1_555 1_555
C10 C12 1_555 1_555
C11 C1 1_555 1_555
C12 C11 1_555 1_555
C13 C9 1_555 1_555
C14 C5 1_555 1_555
C15 C10 1_555 1_555
C16 C15 1_555 1_555
C17 C15 1_555 1_555
C18 C9 1_555 1_555
C19 C18 1_555 1_555
C20 C18 1_555 1_555
C21 N5 1_555 1_555
C22 N5 1_555 1_555
H1 C8 1_555 1_555
H2 C5 1_555 1_555
H3 C1 1_555 1_555
H4 C3 1_555 1_555
H5 C7 1_555 1_555
H6 C4 1_555 1_555
H7 C6 1_555 1_555
H8 C22 1_555 1_555
H9 C22 1_555 1_555
H10 C22 1_555 1_555
H11 C21 1_555 1_555
H12 C21 1_555 1_555
H13 C21 1_555 1_555
C10 C14 1_555 1_555
C13 C14 1_555 1_555

#END
