
#######################################################################
#
#                 Cambridge Crystallographic Data Centre
#                                CCDC 
#
#######################################################################
#
# If this CIF has been generated from an entry in the Cambridge 
# Structural Database, then it will include bibliographic, chemical, 
# crystal, experimental, refinement or atomic coordinate data resulting 
# from the CCDC's data processing and validation procedures.
#
#######################################################################

data_DIXRIL
_chemical_formula_moiety         'C21 H18 O3'
_chemical_name_systematic        (3.3.3)(1,3,5)Cyclophane-2,11,20-trione
_symmetry_cell_setting           monoclinic
_symmetry_space_group_name_H-M   'P 21/c'
_symmetry_Int_Tables_number      14
_space_group_name_Hall           '-P 2ybc'
loop_
_symmetry_equiv_pos_site_id
_symmetry_equiv_pos_as_xyz
1 x,y,z
2 -x,1/2+y,1/2-z
3 -x,-y,-z
4 x,1/2-y,1/2+z
_cell_length_a                   13.793(3)
_cell_length_b                   8.513(1)
_cell_length_c                   14.989(3)
_cell_angle_alpha                90
_cell_angle_beta                 115.83(1)
_cell_angle_gamma                90
_cell_volume                     1584.16
_exptl_crystal_colour            colorless
_exptl_crystal_description       plates
_cell_formula_units_Z            4
loop_
_atom_site_label
_atom_site_type_symbol
_atom_site_fract_x
_atom_site_fract_y
_atom_site_fract_z
O1 O 0.26227(15) 0.5600(2) 0.41100(13)
O2 O 0.24904(12) 0.11254(19) 0.55066(10)
O3 O 0.24297(15) -0.2800(2) 0.13433(12)
C1 C 0.15677(17) 0.4601(2) 0.25115(17)
H1 H 0.1606 0.4965 0.1914
H2 H 0.0994 0.5174 0.2576
C2 C 0.26146(17) 0.4958(2) 0.33893(17)
C3 C 0.36708(17) 0.4517(2) 0.33778(17)
H3 H 0.4259 0.5001 0.3939
H4 H 0.3684 0.4916 0.2777
C4 C 0.38275(14) 0.2753(2) 0.34263(16)
C5 C 0.38087(14) 0.1930(3) 0.26237(15)
H5 H 0.3843 0.2478 0.2102
C6 C 0.37391(15) 0.0308(3) 0.25811(14)
C7 C 0.37183(14) -0.0486(2) 0.33784(14)
H6 H 0.3692 -0.1578 0.3365
C8 C 0.37357(13) 0.0294(2) 0.41941(13)
C9 C 0.38143(14) 0.1916(2) 0.42174(14)
H7 H 0.3859 0.2457 0.4773
C10 C 0.34794(15) -0.0553(2) 0.49553(13)
H8 H 0.3398 -0.1668 0.4810
H9 H 0.4066 -0.0411 0.5611
C11 C 0.24510(16) 0.0095(2) 0.49329(14)
C12 C 0.13766(15) -0.0417(2) 0.41320(13)
H10 H 0.0807 -0.0162 0.4322
H11 H 0.1375 -0.1543 0.4035
C13 C 0.11883(14) 0.0433(2) 0.31794(14)
C14 C 0.12277(14) 0.2055(2) 0.31769(14)
H12 H 0.1208 0.2612 0.3702
C15 C 0.12961(14) 0.2864(2) 0.24058(15)
C16 C 0.12635(14) 0.2021(3) 0.16040(15)
H13 H 0.1276 0.2559 0.1069
C17 C 0.12132(14) 0.0405(3) 0.15789(14)
C18 C 0.11656(14) -0.0377(2) 0.23699(14)
H14 H 0.1118 -0.1467 0.2356
C19 C 0.13995(17) -0.0504(3) 0.07964(14)
H15 H 0.0809 -0.1232 0.0466
H16 H 0.1415 0.0219 0.0303
C20 C 0.24392(18) -0.1396(3) 0.12501(14)
C21 C 0.35043(17) -0.0540(3) 0.16248(15)
H17 H 0.4076 -0.1288 0.1733
H18 H 0.3484 0.0210 0.1130
loop_
_geom_bond_atom_site_label_1
_geom_bond_atom_site_label_2
_geom_bond_site_symmetry_1
_geom_bond_site_symmetry_2
O1 C2 1_555 1_555
O2 C11 1_555 1_555
O3 C20 1_555 1_555
C1 H1 1_555 1_555
H2 C1 1_555 1_555
C2 C1 1_555 1_555
C3 C2 1_555 1_555
H3 C3 1_555 1_555
H4 C3 1_555 1_555
C4 C3 1_555 1_555
C5 C4 1_555 1_555
H5 C5 1_555 1_555
C6 C5 1_555 1_555
C7 C6 1_555 1_555
H6 C7 1_555 1_555
C8 C7 1_555 1_555
C9 C4 1_555 1_555
H7 C9 1_555 1_555
C10 C8 1_555 1_555
H8 C10 1_555 1_555
H9 C10 1_555 1_555
C11 C10 1_555 1_555
C12 C11 1_555 1_555
H10 C12 1_555 1_555
H11 C12 1_555 1_555
C13 C12 1_555 1_555
C14 C13 1_555 1_555
H12 C14 1_555 1_555
C15 C1 1_555 1_555
C16 C15 1_555 1_555
H13 C16 1_555 1_555
C17 C16 1_555 1_555
C18 C13 1_555 1_555
H14 C18 1_555 1_555
C19 C17 1_555 1_555
H15 C19 1_555 1_555
H16 C19 1_555 1_555
C20 C19 1_555 1_555
C21 C6 1_555 1_555
H17 C21 1_555 1_555
H18 C21 1_555 1_555
C8 C9 1_555 1_555
C14 C15 1_555 1_555
C17 C18 1_555 1_555
C20 C21 1_555 1_555

#END
