
#######################################################################
#
#                 Cambridge Crystallographic Data Centre
#                                CCDC 
#
#######################################################################
#
# If this CIF has been generated from an entry in the Cambridge 
# Structural Database, then it will include bibliographic, chemical, 
# crystal, experimental, refinement or atomic coordinate data resulting 
# from the CCDC's data processing and validation procedures.
#
#######################################################################

data_DIXROT
_chemical_formula_moiety         'C26 H21 N1 O2'
_chemical_name_systematic        
5-Methoxy-10-phenyl-21-oxa-9-azapentacyclo[12.6.1.0^2,12^.0^3,8^.0^15,20^]henicosa-3,5,7,9,11,15,17,19-octaene
_symmetry_cell_setting           triclinic
_symmetry_space_group_name_H-M   'P -1'
_symmetry_Int_Tables_number      2
_space_group_name_Hall           '-P 1'
loop_
_symmetry_equiv_pos_site_id
_symmetry_equiv_pos_as_xyz
1 x,y,z
2 -x,-y,-z
_cell_length_a                   9.7339(16)
_cell_length_b                   10.1445(16)
_cell_length_c                   11.2108(17)
_cell_angle_alpha                69.234(3)
_cell_angle_beta                 70.764(4)
_cell_angle_gamma                78.702(4)
_cell_volume                     973.38
_exptl_crystal_colour            green
_exptl_crystal_description       prismatic
_cell_formula_units_Z            2
loop_
_atom_site_label
_atom_site_type_symbol
_atom_site_fract_x
_atom_site_fract_y
_atom_site_fract_z
N1 N 0.39644(15) 0.20184(15) 0.14715(13)
O1 O 0.07592(11) 0.32264(11) 0.57320(11)
O2 O -0.20208(14) 0.15976(16) 0.34810(14)
C1 C 0.24278(17) 0.48403(16) 0.40721(15)
H1 H 0.1718 0.5428 0.3624
H2 H 0.3177 0.5429 0.3931
C2 C 0.16782(17) 0.42748(16) 0.55532(15)
H3 H 0.1112 0.5035 0.5905
C3 C 0.27244(17) 0.34244(17) 0.63421(15)
C4 C 0.27682(16) 0.20308(16) 0.64098(14)
C5 C 0.17657(17) 0.19972(16) 0.56464(15)
H4 H 0.1263 0.1129 0.6054
C6 C 0.25915(16) 0.21987(15) 0.41756(14)
H5 H 0.3450 0.1508 0.4135
C7 C 0.31145(16) 0.36673(16) 0.34708(14)
C8 C 0.40936(17) 0.39287(16) 0.22785(15)
H6 H 0.4425 0.4827 0.1892
C9 C 0.46926(17) 0.29273(16) 0.15247(15)
C10 C 0.24658(18) 0.18908(17) 0.21058(16)
C11 C 0.17116(17) 0.20072(15) 0.33697(15)
C12 C 0.02015(18) 0.19145(17) 0.38456(16)
H7 H -0.0306 0.2009 0.4678
C13 C -0.05421(19) 0.16840(18) 0.30935(18)
C14 C 0.0213(2) 0.1487(2) 0.18752(19)
H8 H -0.0281 0.1294 0.1382
C15 C 0.1693(2) 0.1576(2) 0.14015(18)
H9 H 0.2195 0.1424 0.0591
C16 C 0.3541(2) 0.38034(19) 0.69433(17)
H10 H 0.3530 0.4744 0.6882
C17 C 0.4385(2) 0.2740(2) 0.76461(18)
H11 H 0.4932 0.2970 0.8074
C18 C 0.4423(2) 0.1357(2) 0.77170(17)
H12 H 0.4998 0.0664 0.8189
C19 C 0.36147(18) 0.09750(17) 0.70935(16)
H13 H 0.3644 0.0038 0.7136
C20 C 0.62230(18) 0.30413(18) 0.06431(15)
C21 C 0.6837(2) 0.2137(2) -0.01203(17)
H14 H 0.6299 0.1440 -0.0058
C22 C 0.8234(2) 0.2263(2) -0.09684(19)
H15 H 0.8632 0.1644 -0.1464
C23 C 0.9043(2) 0.3291(3) -0.10892(19)
H16 H 0.9984 0.3369 -0.1664
C24 C 0.8454(2) 0.4203(3) -0.0356(2)
H17 H 0.8991 0.4913 -0.0445
C25 C 0.7065(2) 0.4066(2) 0.05144(19)
H18 H 0.6686 0.4674 0.1024
C26 C -0.2851(2) 0.1833(2) 0.4691(2)
H19 H -0.2548 0.1121 0.5411
H20 H -0.3867 0.1790 0.4815
H21 H -0.2704 0.2750 0.4670
loop_
_geom_bond_atom_site_label_1
_geom_bond_atom_site_label_2
_geom_bond_site_symmetry_1
_geom_bond_site_symmetry_2
N1 C9 1_555 1_555
O1 C2 1_555 1_555
O2 C13 1_555 1_555
C1 H1 1_555 1_555
H2 C1 1_555 1_555
C2 C1 1_555 1_555
H3 C2 1_555 1_555
C3 C2 1_555 1_555
C4 C3 1_555 1_555
C5 O1 1_555 1_555
H4 C5 1_555 1_555
C6 C5 1_555 1_555
H5 C6 1_555 1_555
C7 C1 1_555 1_555
C8 C7 1_555 1_555
H6 C8 1_555 1_555
C9 C8 1_555 1_555
C10 N1 1_555 1_555
C11 C6 1_555 1_555
C12 C11 1_555 1_555
H7 C12 1_555 1_555
C13 C12 1_555 1_555
C14 C13 1_555 1_555
H8 C14 1_555 1_555
C15 C10 1_555 1_555
H9 C15 1_555 1_555
C16 C3 1_555 1_555
H10 C16 1_555 1_555
C17 C16 1_555 1_555
H11 C17 1_555 1_555
C18 C17 1_555 1_555
H12 C18 1_555 1_555
C19 C4 1_555 1_555
H13 C19 1_555 1_555
C20 C9 1_555 1_555
C21 C20 1_555 1_555
H14 C21 1_555 1_555
C22 C21 1_555 1_555
H15 C22 1_555 1_555
C23 C22 1_555 1_555
H16 C23 1_555 1_555
C24 C23 1_555 1_555
H17 C24 1_555 1_555
C25 C20 1_555 1_555
H18 C25 1_555 1_555
C26 O2 1_555 1_555
H19 C26 1_555 1_555
H20 C26 1_555 1_555
H21 C26 1_555 1_555
C4 C5 1_555 1_555
C6 C7 1_555 1_555
C10 C11 1_555 1_555
C14 C15 1_555 1_555
C18 C19 1_555 1_555
C24 C25 1_555 1_555

#END
