
#######################################################################
#
#                 Cambridge Crystallographic Data Centre
#                                CCDC 
#
#######################################################################
#
# If this CIF has been generated from an entry in the Cambridge 
# Structural Database, then it will include bibliographic, chemical, 
# crystal, experimental, refinement or atomic coordinate data resulting 
# from the CCDC's data processing and validation procedures.
#
#######################################################################

data_DIXTUB
_chemical_formula_moiety         'C27 H27 N1 O4'
_chemical_name_systematic        
1'-acetyl-6-benzoyl-4-methyl-2-(2-oxobutyl)spiro[cyclohex-3-ene-1,3'-indol]-2'(1'H)-one
_symmetry_cell_setting           orthorhombic
_symmetry_space_group_name_H-M   'P 21 21 21'
_symmetry_Int_Tables_number      19
_space_group_name_Hall           'P 2ac 2ab'
loop_
_symmetry_equiv_pos_site_id
_symmetry_equiv_pos_as_xyz
1 x,y,z
2 1/2-x,-y,1/2+z
3 1/2+x,1/2-y,-z
4 -x,1/2+y,1/2-z
_cell_length_a                   10.30150(10)
_cell_length_b                   11.24590(10)
_cell_length_c                   19.9126(2)
_cell_angle_alpha                90
_cell_angle_beta                 90
_cell_angle_gamma                90
_cell_volume                     2306.87
_cell_formula_units_Z            4
loop_
_atom_site_label
_atom_site_type_symbol
_atom_site_fract_x
_atom_site_fract_y
_atom_site_fract_z
O1 O 0.00034(8) 0.94038(8) 0.88200(5)
O2 O 0.21677(11) 0.96622(9) 0.99730(5)
N1 N 0.12048(10) 0.76713(9) 0.89714(5)
O3 O 0.05020(12) 0.58130(10) 0.92002(8)
O4 O 0.01440(13) 0.81422(10) 0.74059(7)
C1 C 0.25702(12) 0.74311(11) 0.89988(6)
C2 C 0.23157(12) 1.05978(12) 0.96788(7)
C3 C 0.24575(12) 1.06429(11) 0.89170(6)
H1 H 0.1750 1.1138 0.8744
C4 C 0.41301(14) 1.10480(14) 0.80051(7)
C5 C 0.23162(11) 0.94053(12) 0.85963(6)
C6 C 0.31382(16) 1.17886(14) 1.06379(8)
H2 H 0.3550 1.1107 1.0795
C7 C 0.10226(11) 0.88751(11) 0.88067(6)
C8 C 0.31843(15) 0.63953(14) 0.91982(8)
H3 H 0.2714 0.5716 0.9307
C9 C 0.23587(13) 0.95348(13) 0.78113(7)
H4 H 0.2490 0.8739 0.7623
C10 C 0.35106(14) 1.02815(15) 0.76121(7)
H5 H 0.3815 1.0198 0.7175
C11 C 0.24048(13) 1.17432(12) 1.00539(7)
C12 C 0.17707(15) 1.27616(13) 0.98362(7)
H6 H 0.1284 1.2742 0.9443
C13 C 0.32534(12) 0.84461(12) 0.88166(7)
C14 C 0.11209(15) 1.00485(13) 0.74913(7)
H7 H 0.0843 1.0724 0.7758
H8 H 0.1342 1.0346 0.7048
C15 C 0.37376(14) 1.12501(14) 0.87225(7)
H9 H 0.3654 1.2099 0.8799
H10 H 0.4421 1.0958 0.9014
C16 C 0.18594(18) 1.38039(13) 1.02004(8)
H11 H 0.1401 1.4474 1.0064
C17 C -0.11509(13) 0.72337(14) 0.90682(9)
H12 H -0.1340 0.7540 0.8629
H13 H -0.1290 0.7846 0.9397
H14 H -0.1711 0.6572 0.9162
C18 C 0.45970(13) 0.84328(15) 0.88436(9)
H15 H 0.5073 0.9099 0.8718
C19 C 0.26249(18) 1.38492(15) 1.07640(9)
H16 H 0.2716 1.4562 1.0996
C20 C 0.52754(17) 1.17615(19) 0.77712(10)
H17 H 0.6016 1.1576 0.8044
H18 H 0.5081 1.2594 0.7809
H19 H 0.5461 1.1571 0.7311
C21 C 0.32575(19) 1.28483(17) 1.09873(9)
H20 H 0.3765 1.2882 1.1373
C22 C 0.02250(13) 0.68360(12) 0.90946(7)
C23 C -0.00081(15) 0.92143(14) 0.74208(7)
C24 C -0.13310(17) 0.97739(16) 0.73584(10)
H21 H -0.1513 1.0205 0.7770
H22 H -0.1304 1.0350 0.6996
C25 C 0.45331(16) 0.64105(17) 0.92286(9)
H23 H 0.4975 0.5731 0.9366
C26 C 0.52217(15) 0.74071(18) 0.90606(10)
H24 H 0.6122 0.7398 0.9092
C27 C -0.2419(2) 0.8946(2) 0.72302(18)
H25 H -0.2436 0.8346 0.7573
H26 H -0.2305 0.8576 0.6800
H27 H -0.3223 0.9378 0.7235
loop_
_geom_bond_atom_site_label_1
_geom_bond_atom_site_label_2
_geom_bond_site_symmetry_1
_geom_bond_site_symmetry_2
O1 C7 1_555 1_555
O2 C2 1_555 1_555
N1 C1 1_555 1_555
O3 C22 1_555 1_555
O4 C23 1_555 1_555
C1 C8 1_555 1_555
C2 C3 1_555 1_555
C3 H1 1_555 1_555
C4 C10 1_555 1_555
C5 C3 1_555 1_555
C6 H2 1_555 1_555
C7 N1 1_555 1_555
C8 H3 1_555 1_555
C9 C5 1_555 1_555
H4 C9 1_555 1_555
C10 C9 1_555 1_555
H5 C10 1_555 1_555
C11 C2 1_555 1_555
C12 C11 1_555 1_555
H6 C12 1_555 1_555
C13 C1 1_555 1_555
C14 C9 1_555 1_555
H7 C14 1_555 1_555
H8 C14 1_555 1_555
C15 C3 1_555 1_555
H9 C15 1_555 1_555
H10 C15 1_555 1_555
C16 C12 1_555 1_555
H11 C16 1_555 1_555
C17 H12 1_555 1_555
H13 C17 1_555 1_555
H14 C17 1_555 1_555
C18 C13 1_555 1_555
H15 C18 1_555 1_555
C19 C16 1_555 1_555
H16 C19 1_555 1_555
C20 C4 1_555 1_555
H17 C20 1_555 1_555
H18 C20 1_555 1_555
H19 C20 1_555 1_555
C21 C6 1_555 1_555
H20 C21 1_555 1_555
C22 N1 1_555 1_555
C23 C14 1_555 1_555
C24 C23 1_555 1_555
H21 C24 1_555 1_555
H22 C24 1_555 1_555
C25 C8 1_555 1_555
H23 C25 1_555 1_555
C26 C18 1_555 1_555
H24 C26 1_555 1_555
C27 C24 1_555 1_555
H25 C27 1_555 1_555
H26 C27 1_555 1_555
H27 C27 1_555 1_555
C4 C15 1_555 1_555
C5 C7 1_555 1_555
C5 C13 1_555 1_555
C6 C11 1_555 1_555
C17 C22 1_555 1_555
C19 C21 1_555 1_555
C25 C26 1_555 1_555

#END
