
#######################################################################
#
#                 Cambridge Crystallographic Data Centre
#                                CCDC 
#
#######################################################################
#
# If this CIF has been generated from an entry in the Cambridge 
# Structural Database, then it will include bibliographic, chemical, 
# crystal, experimental, refinement or atomic coordinate data resulting 
# from the CCDC's data processing and validation procedures.
#
#######################################################################

data_DIXYEO
_chemical_compound_source        'Siphonaria maura'
_chemical_formula_moiety         'C26 H36 O5'
_chemical_name_systematic        'Maurapyrone A'
_chemical_properties_biological  'mild antimicrobial agent'
_symmetry_cell_setting           monoclinic
_symmetry_space_group_name_H-M   'C 2/c'
_symmetry_Int_Tables_number      15
_space_group_name_Hall           '-C 2yn'
loop_
_symmetry_equiv_pos_site_id
_symmetry_equiv_pos_as_xyz
1 x,y,z
2 1/2+x,1/2+y,z
3 -x,y,1/2-z
4 1/2-x,1/2+y,1/2-z
5 -x,-y,-z
6 1/2-x,1/2-y,-z
7 x,-y,1/2+z
8 1/2+x,1/2-y,1/2+z
_cell_length_a                   38.725(8)
_cell_length_b                   10.727(2)
_cell_length_c                   13.231(4)
_cell_angle_alpha                90
_cell_angle_beta                 67.88(2)
_cell_angle_gamma                90
_cell_volume                     5091.66
_exptl_crystal_colour            colorless
_chemical_melting_point          110-112deg.C
_cell_formula_units_Z            8
loop_
_atom_site_label
_atom_site_type_symbol
_atom_site_fract_x
_atom_site_fract_y
_atom_site_fract_z
C1 C 0.8047(3) -0.0414(7) 0.8749(7)
C2 C 0.8063(2) 0.0397(6) 0.7812(6)
C3 C 0.8055(2) 0.1780(5) 0.7995(4)
C4 C 0.7927(2) 0.2658(5) 0.7521(5)
C5 C 0.7930(2) 0.3926(6) 0.7839(5)
C6 C 0.8065(2) 0.4226(5) 0.8700(5)
C7 C 0.8204(1) 0.3264(5) 0.9095(5)
C8 C 0.8382(2) 0.3306(6) 0.9924(4)
C9 C 0.8788(2) 0.2921(5) 0.9398(5)
C10 C 0.9047(2) 0.3627(5) 0.8417(4)
C11 C 0.9011(1) 0.3183(5) 0.7386(4)
C12 C 0.8948(1) 0.3852(5) 0.6620(4)
C13 C 0.8921(2) 0.3222(6) 0.5683(4)
C14 C 0.8964(2) 0.1899(5) 0.5625(4)
C15 C 0.9039(2) 0.1294(5) 0.6412(5)
C16 C 0.9102(2) -0.0082(5) 0.6522(5)
C17 C 0.9498(2) -0.0391(7) 0.6208(8)
C18 C 0.9562(2) -0.1821(7) 0.6276(6)
C19 C 0.9950(3) -0.2182(9) 0.5902(12)
C20 C 1.0015(3) -0.3568(9) 0.5885(10)
C21 C 0.7791(2) 0.2365(7) 0.6600(5)
C22 C 0.8060(2) 0.5555(6) 0.9054(6)
C23 C 0.8157(2) 0.2502(7) 1.0932(5)
C24 C 0.9461(2) 0.3539(7) 0.8298(5)
C25 C 0.8906(2) 0.5240(6) 0.6679(6)
C26 C 0.8941(2) 0.1209(7) 0.4644(5)
O1 O 0.8200(1) 0.2059(3) 0.8765(3)
O2 O 0.7819(1) 0.4801(4) 0.7395(4)
O3 O 0.8913(1) 0.2082(4) 0.9807(4)
O4 O 0.9056(1) 0.1909(3) 0.7300(3)
O5 O 0.8863(1) 0.3836(4) 0.4956(3)
H1 H 0.7819(13) -0.107(48) 0.9386(42)
H2 H 0.8327(14) -0.0384(53) 0.8446(45)
H3 H 0.8027(15) -0.1437(55) 0.8709(46)
H4 H 0.7850(15) 0.0261(51) 0.7696(47)
H5 H 0.8268(15) 0.0327(59) 0.7066(49)
H6 H 0.8362(14) 0.4314(50) 1.0202(42)
H7 H 0.8992(13) 0.4584(46) 0.8472(41)
H8 H 0.8926(14) -0.0348(53) 0.7340(46)
H9 H 0.8945(14) -0.0436(50) 0.6344(45)
H10 H 0.9606(14) 0.0015(49) 0.6690(44)
H11 H 0.9547(14) -0.0558(52) 0.5741(45)
H12 H 0.9505(18) -0.2285(57) 0.5570(52)
H13 H 0.9418(15) -0.2311(48) 0.7164(47)
H14 H 1.0067(28) -0.1764 0.5262(90)
H15 H 1.0062(28) -0.1710 0.6501(83)
H16 H 0.9876(29) -0.3986(94) 0.5449(91)
H17 H 1.0330(25) -0.3800(85) 0.5511(76)
H18 H 0.9886(24) -0.3843(98) 0.6641(80)
H19 H 0.7585(16) 0.2864(53) 0.6663(47)
H20 H 0.7987(15) 0.2257(52) 0.5921(47)
H21 H 0.7604(15) 0.1782(55) 0.6815(45)
H22 H 0.7897(14) 0.5497(53) 0.9521(45)
H23 H 0.8149(15) 0.5755(52) 0.9502(46)
H24 H 0.8080(16) 0.6078(58) 0.8372(48)
H25 H 0.7914(16) 0.2889(54) 1.1165(47)
H26 H 0.8321(15) 0.2533(51) 1.1407(46)
H27 H 0.8187(15) 0.1533(56) 1.0841(48)
H28 H 0.9614(18) 0.4092(68) 0.7669(55)
H29 H 0.9484(17) 0.3788(60) 0.9016(52)
H30 H 0.9548(16) 0.2588(58) 0.8164(50)
H31 H 0.8667(14) 0.5518(53) 0.6776(45)
H32 H 0.9074(14) 0.5491(48) 0.6179(43)
H33 H 0.8940(14) 0.5657(51) 0.7242(44)
H34 H 0.9188(14) 0.1148(51) 0.4247(44)
H35 H 0.8856(14) 0.0359(52) 0.4846(45)
H36 H 0.8733(15) 0.1564(57) 0.4542(46)
loop_
_geom_bond_atom_site_label_1
_geom_bond_atom_site_label_2
_geom_bond_site_symmetry_1
_geom_bond_site_symmetry_2
C1 C2 1_555 1_555
C2 C3 1_555 1_555
C3 C4 1_555 1_555
C4 C5 1_555 1_555
C5 C6 1_555 1_555
C6 C7 1_555 1_555
C7 C8 1_555 1_555
C8 C9 1_555 1_555
C9 C10 1_555 1_555
C10 C11 1_555 1_555
C11 C12 1_555 1_555
C12 C13 1_555 1_555
C13 C14 1_555 1_555
C14 C15 1_555 1_555
C15 C16 1_555 1_555
C16 C17 1_555 1_555
C17 C18 1_555 1_555
C18 C19 1_555 1_555
C19 C20 1_555 1_555
C20 H16 1_555 1_555
C21 C4 1_555 1_555
C22 C6 1_555 1_555
C23 C8 1_555 1_555
C24 C10 1_555 1_555
C25 C12 1_555 1_555
C26 C14 1_555 1_555
O1 C3 1_555 1_555
O2 C5 1_555 1_555
O3 C9 1_555 1_555
O4 C11 1_555 1_555
O5 C13 1_555 1_555
H1 C1 1_555 1_555
H2 C1 1_555 1_555
H3 C1 1_555 1_555
H4 C2 1_555 1_555
H5 C2 1_555 1_555
H6 C8 1_555 1_555
H7 C10 1_555 1_555
H8 C16 1_555 1_555
H9 C16 1_555 1_555
H10 C17 1_555 1_555
H11 C17 1_555 1_555
H12 C18 1_555 1_555
H13 C18 1_555 1_555
H14 C19 1_555 1_555
H15 C19 1_555 1_555
H17 C20 1_555 1_555
H18 C20 1_555 1_555
H19 C21 1_555 1_555
H20 C21 1_555 1_555
H21 C21 1_555 1_555
H22 C22 1_555 1_555
H23 C22 1_555 1_555
H24 C22 1_555 1_555
H25 C23 1_555 1_555
H26 C23 1_555 1_555
H27 C23 1_555 1_555
H28 C24 1_555 1_555
H29 C24 1_555 1_555
H30 C24 1_555 1_555
H31 C25 1_555 1_555
H32 C25 1_555 1_555
H33 C25 1_555 1_555
H34 C26 1_555 1_555
H35 C26 1_555 1_555
H36 C26 1_555 1_555
C7 O1 1_555 1_555
C15 O4 1_555 1_555

#END
