
#######################################################################
#
#                 Cambridge Crystallographic Data Centre
#                                CCDC 
#
#######################################################################
#
# If this CIF has been generated from an entry in the Cambridge 
# Structural Database, then it will include bibliographic, chemical, 
# crystal, experimental, refinement or atomic coordinate data resulting 
# from the CCDC's data processing and validation procedures.
#
#######################################################################

data_DIYKUT
_chemical_formula_moiety         'C33 H32 N2 O4 S1'
_chemical_name_systematic        
'2-(3-benzoyl-1-phenyl-1,2,3,5,6,10b-hexahydropyrazolo[5,1-a]isoquinolin-2-yl)ethyl 4-methylbenzenesulfonate'
_symmetry_cell_setting           orthorhombic
_symmetry_space_group_name_H-M   'P 21 21 21'
_symmetry_Int_Tables_number      19
_space_group_name_Hall           'P 2ac 2ab'
loop_
_symmetry_equiv_pos_site_id
_symmetry_equiv_pos_as_xyz
1 x,y,z
2 1/2-x,-y,1/2+z
3 -x,1/2+y,1/2-z
4 1/2+x,1/2-y,-z
_cell_length_a                   9.2153(6)
_cell_length_b                   14.1781(9)
_cell_length_c                   21.0387(14)
_cell_angle_alpha                90
_cell_angle_beta                 90
_cell_angle_gamma                90
_cell_volume                     2748.82
_exptl_crystal_colour            colorless
_exptl_crystal_description       Plate
_cell_formula_units_Z            4
loop_
_atom_site_label
_atom_site_type_symbol
_atom_site_fract_x
_atom_site_fract_y
_atom_site_fract_z
S1 S 0.25941(8) 0.50602(5) 0.74663(3)
N1 N 0.0095(2) 0.54339(15) 1.04806(9)
N2 N 0.1324(2) 0.53748(15) 1.00643(10)
O1 O 0.1827(2) 0.45528(15) 0.80463(8)
O2 O 0.3684(2) 0.57363(13) 0.99210(9)
O3 O 0.1777(3) 0.48133(19) 0.69398(10)
O4 O 0.2797(3) 0.60276(15) 0.76131(10)
C1 C 0.0057(3) 0.44861(19) 1.07699(11)
H1 H 0.0814 0.4460 1.1110
C2 C -0.1388(3) 0.42346(19) 1.10636(11)
C3 C -0.1494(3) 0.3428(2) 1.14422(12)
H2 H -0.0657 0.3055 1.1521
C4 C -0.2820(3) 0.3169(2) 1.17032(12)
H3 H -0.2890 0.2615 1.1956
C5 C -0.4047(3) 0.3719(2) 1.15949(13)
H4 H -0.4952 0.3549 1.1778
C6 C -0.3940(3) 0.45176(19) 1.12179(12)
H5 H -0.4782 0.4886 1.1139
C7 C -0.2625(3) 0.47874(18) 1.09544(11)
C8 C -0.2505(3) 0.56765(18) 1.05661(11)
H6 H -0.2379 0.6223 1.0854
H7 H -0.3413 0.5771 1.0322
C9 C -0.1227(3) 0.56249(18) 1.01091(11)
H8 H -0.1386 0.5116 0.9795
H9 H -0.1126 0.6229 0.9877
C10 C 0.0515(3) 0.38056(18) 1.02292(11)
H10 H -0.0361 0.3672 0.9963
C11 C 0.1110(3) 0.28792(19) 1.04575(11)
C12 C 0.0460(3) 0.2036(2) 1.02807(12)
H11 H -0.0330 0.2044 0.9991
C13 C 0.0948(3) 0.1180(2) 1.05219(13)
H12 H 0.0502 0.0607 1.0393
C14 C 0.2081(3) 0.1167(2) 1.09487(12)
H13 H 0.2395 0.0585 1.1125
C15 C 0.2769(3) 0.2001(2) 1.11232(12)
H14 H 0.3568 0.1987 1.1408
C16 C 0.2289(3) 0.28517(19) 1.08811(11)
H15 H 0.2758 0.3421 1.1002
C17 C 0.1571(3) 0.43976(18) 0.98292(11)
H16 H 0.2590 0.4204 0.9928
C18 C 0.1289(3) 0.42674(19) 0.91203(12)
H17 H 0.1318 0.3585 0.9022
H18 H 0.0298 0.4495 0.9024
C19 C 0.2343(3) 0.4769(2) 0.86903(11)
H19 H 0.2330 0.5457 0.8769
H20 H 0.3342 0.4531 0.8755
C20 C 0.4299(3) 0.45183(19) 0.74193(11)
C21 C 0.4394(3) 0.3597(2) 0.72076(14)
H21 H 0.3541 0.3255 0.7103
C22 C 0.5743(3) 0.3178(2) 0.71489(14)
H22 H 0.5810 0.2539 0.7016
C23 C 0.7008(3) 0.3685(2) 0.72837(12)
C24 C 0.6876(3) 0.4609(2) 0.74889(13)
H23 H 0.7726 0.4963 0.7581
C25 C 0.5537(3) 0.5026(2) 0.75629(12)
H24 H 0.5464 0.5657 0.7711
C26 C 0.8476(3) 0.3246(2) 0.71872(14)
H25 H 0.8661 0.3172 0.6731
H26 H 0.8502 0.2626 0.7393
H27 H 0.9222 0.3653 0.7374
C27 C 0.2515(3) 0.59374(18) 1.01692(11)
C28 C 0.2385(3) 0.67994(17) 1.05719(11)
C29 C 0.1208(3) 0.74203(19) 1.05606(12)
H28 H 0.0395 0.7288 1.0298
C30 C 0.1223(3) 0.82265(19) 1.09303(12)
H29 H 0.0429 0.8653 1.0912
C31 C 0.2378(3) 0.84153(18) 1.13241(12)
H30 H 0.2368 0.8961 1.1586
C32 C 0.3560(3) 0.78076(19) 1.13387(12)
H31 H 0.4361 0.7936 1.1609
C33 C 0.3560(3) 0.70148(19) 1.09564(11)
H32 H 0.4382 0.6610 1.0957
loop_
_geom_bond_atom_site_label_1
_geom_bond_atom_site_label_2
_geom_bond_site_symmetry_1
_geom_bond_site_symmetry_2
S1 O1 1_555 1_555
N1 N2 1_555 1_555
N2 C17 1_555 1_555
O1 C19 1_555 1_555
O2 C27 1_555 1_555
O3 S1 1_555 1_555
O4 S1 1_555 1_555
C1 N1 1_555 1_555
H1 C1 1_555 1_555
C2 C1 1_555 1_555
C3 C2 1_555 1_555
H2 C3 1_555 1_555
C4 C3 1_555 1_555
H3 C4 1_555 1_555
C5 C4 1_555 1_555
H4 C5 1_555 1_555
C6 C5 1_555 1_555
H5 C6 1_555 1_555
C7 C2 1_555 1_555
C8 C7 1_555 1_555
H6 C8 1_555 1_555
H7 C8 1_555 1_555
C9 N1 1_555 1_555
H8 C9 1_555 1_555
H9 C9 1_555 1_555
C10 C1 1_555 1_555
H10 C10 1_555 1_555
C11 C10 1_555 1_555
C12 C11 1_555 1_555
H11 C12 1_555 1_555
C13 C12 1_555 1_555
H12 C13 1_555 1_555
C14 C13 1_555 1_555
H13 C14 1_555 1_555
C15 C14 1_555 1_555
H14 C15 1_555 1_555
C16 C11 1_555 1_555
H15 C16 1_555 1_555
C17 C10 1_555 1_555
H16 C17 1_555 1_555
C18 C17 1_555 1_555
H17 C18 1_555 1_555
H18 C18 1_555 1_555
C19 C18 1_555 1_555
H19 C19 1_555 1_555
H20 C19 1_555 1_555
C20 S1 1_555 1_555
C21 C20 1_555 1_555
H21 C21 1_555 1_555
C22 C21 1_555 1_555
H22 C22 1_555 1_555
C23 C22 1_555 1_555
C24 C23 1_555 1_555
H23 C24 1_555 1_555
C25 C20 1_555 1_555
H24 C25 1_555 1_555
C26 C23 1_555 1_555
H25 C26 1_555 1_555
H26 C26 1_555 1_555
H27 C26 1_555 1_555
C27 N2 1_555 1_555
C28 C27 1_555 1_555
C29 C28 1_555 1_555
H28 C29 1_555 1_555
C30 C29 1_555 1_555
H29 C30 1_555 1_555
C31 C30 1_555 1_555
H30 C31 1_555 1_555
C32 C31 1_555 1_555
H31 C32 1_555 1_555
C33 C28 1_555 1_555
H32 C33 1_555 1_555
C6 C7 1_555 1_555
C8 C9 1_555 1_555
C15 C16 1_555 1_555
C24 C25 1_555 1_555
C32 C33 1_555 1_555

#END
