
#######################################################################
#
#                 Cambridge Crystallographic Data Centre
#                                CCDC 
#
#######################################################################
#
# If this CIF has been generated from an entry in the Cambridge 
# Structural Database, then it will include bibliographic, chemical, 
# crystal, experimental, refinement or atomic coordinate data resulting 
# from the CCDC's data processing and validation procedures.
#
#######################################################################

data_DIYMOP
_chemical_formula_moiety         'C6 H24 Mg1 O6 2+,H12 B12 2-,6(C1 H4 O1)'
_chemical_name_systematic        
'hexakis(methanol)-magnesium(ii) closo-dodecaborate(12) methanol solvate'
_symmetry_cell_setting           rhombohedral
_symmetry_space_group_name_H-M   'R -3 c'
_symmetry_Int_Tables_number      167
_space_group_name_Hall           '-R 3 2"c'
loop_
_symmetry_equiv_pos_site_id
_symmetry_equiv_pos_as_xyz
1 x,y,z
2 -y,x-y,z
3 -x+y,-x,z
4 y,x,1/2-z
5 x-y,-y,1/2-z
6 -x,-x+y,1/2-z
7 2/3+x,1/3+y,1/3+z
8 2/3-y,1/3+x-y,1/3+z
9 2/3-x+y,1/3-x,1/3+z
10 2/3+y,1/3+x,5/6-z
11 2/3+x-y,1/3-y,5/6-z
12 2/3-x,1/3-x+y,5/6-z
13 1/3+x,2/3+y,2/3+z
14 1/3-y,2/3+x-y,2/3+z
15 1/3-x+y,2/3-x,2/3+z
16 1/3+y,2/3+x,1/6-z
17 1/3+x-y,2/3-y,1/6-z
18 1/3-x,2/3-x+y,1/6-z
19 -x,-y,-z
20 y,-x+y,-z
21 x-y,x,-z
22 -y,-x,1/2+z
23 -x+y,y,1/2+z
24 x,x-y,1/2+z
25 1/3-x,2/3-y,2/3-z
26 1/3+y,2/3-x+y,2/3-z
27 1/3+x-y,2/3+x,2/3-z
28 1/3-y,2/3-x,1/6+z
29 1/3-x+y,2/3+y,1/6+z
30 1/3+x,2/3+x-y,1/6+z
31 2/3-x,1/3-y,1/3-z
32 2/3+y,1/3-x+y,1/3-z
33 2/3+x-y,1/3+x,1/3-z
34 2/3-y,1/3-x,5/6+z
35 2/3-x+y,1/3+y,5/6+z
36 2/3+x,1/3+x-y,5/6+z
_cell_length_a                   13.939(2)
_cell_length_b                   13.939(2)
_cell_length_c                   29.833(6)
_cell_angle_alpha                90
_cell_angle_beta                 90
_cell_angle_gamma                120
_cell_volume                     5019.85
_cell_formula_units_Z            6
loop_
_atom_site_label
_atom_site_type_symbol
_atom_site_fract_x
_atom_site_fract_y
_atom_site_fract_z
Mg1 Mg 0.0000 0.0000 0.0000
O1 O -0.05786(8) -0.14137(8) 0.03811(3)
H1 H -0.1192(17) -0.1920(16) 0.0334(5)
C1 C -0.01095(13) -0.16492(14) 0.07641(5)
H2 H 0.0693 -0.1311 0.0724
H3 H -0.0440 -0.2453 0.0797
H4 H -0.0261 -0.1345 0.1034
O1A O 0.14137(8) 0.08351(11) 0.03811(3)
H1A H 0.1920(16) 0.0728(23) 0.0334(5)
C1A C 0.16492(14) 0.15397(19) 0.07641(5)
H2A H 0.1311 0.2004 0.0724
H3A H 0.2453 0.2013 0.0797
H4A H 0.1345 0.1084 0.1034
O1B O -0.08351(11) 0.05786(8) 0.03811(3)
H1B H -0.0728(23) 0.1192(17) 0.0334(5)
C1B C -0.15397(19) 0.01095(13) 0.07641(5)
H2B H -0.2004 -0.0693 0.0724
H3B H -0.2013 0.0440 0.0797
H4B H -0.1084 0.0261 0.1034
O1R O 0.05786(8) 0.14137(8) -0.03811(3)
H1R H 0.1192(17) 0.1920(16) -0.0334(5)
C1R C 0.01095(13) 0.16492(14) -0.07641(5)
H2R H -0.0693 0.1311 -0.0724
H3R H 0.0440 0.2453 -0.0797
H4R H 0.0261 0.1345 -0.1034
O1S O -0.14137(8) -0.08351(11) -0.03811(3)
H1S H -0.1920(16) -0.0728(23) -0.0334(5)
C1S C -0.16492(14) -0.15397(19) -0.07641(5)
H2S H -0.1311 -0.2004 -0.0724
H3S H -0.2453 -0.2013 -0.0797
H4S H -0.1345 -0.1084 -0.1034
O1T O 0.08351(11) -0.05786(8) -0.03811(3)
H1T H 0.0728(23) -0.1192(17) -0.0334(5)
C1T C 0.15397(19) -0.01095(13) -0.07641(5)
H2T H 0.2004 0.0693 -0.0724
H3T H 0.2013 -0.0440 -0.0797
H4T H 0.1084 -0.0261 -0.1034
O2 O 0.31933(10) 0.06312(10) 0.02715(5)
H5 H 0.372(2) 0.105(2) 0.0346(7)
C2 C 0.32222(14) -0.03403(13) 0.01778(6)
H6 H 0.3711 -0.0213 -0.0079
H7 H 0.2473 -0.0940 0.0107
H8 H 0.3503 -0.0547 0.0440
B1 B 0.41841(11) -0.29087(12) -0.03821(4)
H9 H 0.4727(13) -0.2640(12) -0.0095(5)
B2 B 0.40223(11) -0.19552(11) -0.07262(5)
H10 H 0.4445(12) -0.1074(14) -0.0666(5)
B1A B 0.29087(12) -0.29072(16) -0.03821(4)
H9A H 0.2640(12) -0.2633(18) -0.0095(5)
B2A B 0.19552(11) -0.40225(16) -0.07262(5)
H10A H 0.1074(14) -0.4481(18) -0.0666(5)
B1B B 0.29072(16) -0.41841(11) -0.03821(4)
H9B H 0.2633(18) -0.4727(13) -0.0095(5)
B2B B 0.40225(16) -0.40223(11) -0.07262(5)
H10B H 0.4481(18) -0.4445(12) -0.0666(5)
B1I B 0.37580(12) -0.24826(11) -0.12846(4)
H9I H 0.4027(12) -0.1940(13) -0.1572(5)
B2I B 0.47115(11) -0.26444(11) -0.09405(5)
H10I H 0.5593(14) -0.2222(12) -0.1001(5)
B1J B 0.37595(16) -0.37580(12) -0.12846(4)
H9J H 0.4034(18) -0.4027(12) -0.1572(5)
B2J B 0.26442(16) -0.47115(11) -0.09405(5)
H10J H 0.2186(18) -0.5593(14) -0.1001(5)
B1K B 0.24826(11) -0.37595(16) -0.12846(4)
H9K H 0.1940(13) -0.4034(18) -0.1572(5)
B2K B 0.26444(11) -0.26442(16) -0.09405(5)
H10K H 0.2222(12) -0.2186(18) -0.1001(5)
loop_
_geom_bond_atom_site_label_1
_geom_bond_atom_site_label_2
_geom_bond_site_symmetry_1
_geom_bond_site_symmetry_2
Mg1 O1 1_555 1_555
O1 H1 1_555 1_555
C1 O1 1_555 1_555
H2 C1 1_555 1_555
H3 C1 1_555 1_555
H4 C1 1_555 1_555
O2 H5 1_555 1_555
C2 O2 1_555 1_555
H6 C2 1_555 1_555
H7 C2 1_555 1_555
H8 C2 1_555 1_555
B1 H9 1_555 1_555
B2 B1 1_555 1_555
H10 B2 1_555 1_555
O1A Mg1 1_555 1_555
H1A O1A 1_555 1_555
C1A O1A 1_555 1_555
H2A C1A 1_555 1_555
H3A C1A 1_555 1_555
H4A C1A 1_555 1_555
O1B Mg1 1_555 1_555
H1B O1B 1_555 1_555
C1B O1B 1_555 1_555
H2B C1B 1_555 1_555
H3B C1B 1_555 1_555
H4B C1B 1_555 1_555
O1R Mg1 1_555 1_555
H1R O1R 1_555 1_555
C1R O1R 1_555 1_555
H2R C1R 1_555 1_555
H3R C1R 1_555 1_555
H4R C1R 1_555 1_555
O1S Mg1 1_555 1_555
H1S O1S 1_555 1_555
C1S O1S 1_555 1_555
H2S C1S 1_555 1_555
H3S C1S 1_555 1_555
H4S C1S 1_555 1_555
O1T Mg1 1_555 1_555
H1T O1T 1_555 1_555
C1T O1T 1_555 1_555
H2T C1T 1_555 1_555
H3T C1T 1_555 1_555
H4T C1T 1_555 1_555
B1A B1 1_555 1_555
H9A B1A 1_555 1_555
B2A B1A 1_555 1_555
H10A B2A 1_555 1_555
B1B B1 1_555 1_555
H9B B1B 1_555 1_555
B2B B1 1_555 1_555
H10B B2B 1_555 1_555
B1I B2 1_555 1_555
H9I B1I 1_555 1_555
B2I B1 1_555 1_555
H10I B2I 1_555 1_555
B1J B2B 1_555 1_555
H9J B1J 1_555 1_555
B2J B2A 1_555 1_555
H10J B2J 1_555 1_555
B1K B2A 1_555 1_555
H9K B1K 1_555 1_555
B2K B2 1_555 1_555
H10K B2K 1_555 1_555
B2 B1A 1_555 1_555
B2 B2I 1_555 1_555
B1A B1B 1_555 1_555
B1A B2K 1_555 1_555
B2A B1B 1_555 1_555
B2A B2K 1_555 1_555
B1B B2B 1_555 1_555
B1B B2J 1_555 1_555
B2B B2I 1_555 1_555
B2B B2J 1_555 1_555
B1I B2I 1_555 1_555
B1I B1J 1_555 1_555
B1I B1K 1_555 1_555
B1I B2K 1_555 1_555
B2I B1J 1_555 1_555
B1J B2J 1_555 1_555
B1J B1K 1_555 1_555
B2J B1K 1_555 1_555
B1K B2K 1_555 1_555

#END
