
#######################################################################
#
#                 Cambridge Crystallographic Data Centre
#                                CCDC 
#
#######################################################################
#
# If this CIF has been generated from an entry in the Cambridge 
# Structural Database, then it will include bibliographic, chemical, 
# crystal, experimental, refinement or atomic coordinate data resulting 
# from the CCDC's data processing and validation procedures.
#
#######################################################################

data_DIYNEG
_chemical_formula_moiety         'C104 Cl22,1.35(Cl1)'
_chemical_name_systematic        'docosachloro-C104fullerene chlorine solvate'
_symmetry_cell_setting           rhombohedral
_symmetry_space_group_name_H-M   'R -3'
_symmetry_Int_Tables_number      148
_space_group_name_Hall           '-R 3'
loop_
_symmetry_equiv_pos_site_id
_symmetry_equiv_pos_as_xyz
1 x,y,z
2 -y,x-y,z
3 -x+y,-x,z
4 2/3+x,1/3+y,1/3+z
5 2/3-y,1/3+x-y,1/3+z
6 2/3-x+y,1/3-x,1/3+z
7 1/3+x,2/3+y,2/3+z
8 1/3-y,2/3+x-y,2/3+z
9 1/3-x+y,2/3-x,2/3+z
10 -x,-y,-z
11 y,-x+y,-z
12 x-y,x,-z
13 1/3-x,2/3-y,2/3-z
14 1/3+y,2/3-x+y,2/3-z
15 1/3+x-y,2/3+x,2/3-z
16 2/3-x,1/3-y,1/3-z
17 2/3+y,1/3-x+y,1/3-z
18 2/3+x-y,1/3+x,1/3-z
_cell_length_a                   49.461(2)
_cell_length_b                   49.461(2)
_cell_length_c                   16.5610(10)
_cell_angle_alpha                90
_cell_angle_beta                 90
_cell_angle_gamma                120
_cell_volume                     35086.7
_exptl_crystal_colour            red
_exptl_crystal_description       needle
_cell_formula_units_Z            18
loop_
_atom_site_label
_atom_site_type_symbol
_atom_site_fract_x
_atom_site_fract_y
_atom_site_fract_z
Cl1 Cl 0.04046(2) 0.58633(2) 0.76843(6)
Cl2 Cl 0.10125(3) 0.63826(2) 0.93771(6)
Cl3 Cl 0.17957(3) 0.70724(3) 0.97999(6)
Cl4 Cl 0.19506(3) 0.66385(3) 0.88984(7)
Cl5 Cl 0.00975(2) 0.65054(2) 0.74867(6)
Cl6 Cl 0.07017(2) 0.70274(2) 0.92145(6)
Cl7 Cl 0.15241(3) 0.76286(2) 0.96460(6)
Cl8 Cl 0.21806(3) 0.64366(3) 0.71632(8)
Cl9 Cl 0.13080(2) 0.79681(2) 0.85427(6)
Cl10 Cl 0.11064(3) 0.58147(3) 0.31646(7)
Cl11 Cl 0.07349(2) 0.60264(2) 0.21193(6)
Cl12 Cl 0.13107(2) 0.82606(2) 0.66654(6)
Cl13 Cl 0.26858(6) 0.70829(11) 0.37766(11)
Cl14 Cl 0.14702(3) 0.64934(3) 0.14548(6)
Cl15 Cl 0.04580(2) 0.66024(2) 0.19588(6)
Cl16 Cl 0.04538(2) 0.71525(3) 0.28051(6)
Cl17 Cl 0.27903(3) 0.76720(3) 0.29493(8)
Cl18 Cl 0.22502(3) 0.71234(3) 0.17618(7)
Cl19 Cl 0.11165(2) 0.72103(3) 0.12602(6)
Cl20 Cl 0.20627(3) 0.84277(2) 0.34136(7)
Cl21 Cl 0.25113(3) 0.82385(3) 0.27804(7)
Cl22 Cl 0.19038(2) 0.78436(3) 0.15806(6)
C1 C 0.12126(9) 0.64746(9) 0.7829(2)
C2 C 0.10005(9) 0.62929(9) 0.7233(2)
C3 C 0.06725(9) 0.62422(9) 0.7235(2)
C4 C 0.06572(9) 0.65066(9) 0.7643(2)
C5 C 0.08555(9) 0.66784(9) 0.8205(2)
C6 C 0.11140(9) 0.66235(9) 0.8482(2)
C7 C 0.13702(9) 0.69527(9) 0.8644(2)
C8 C 0.17068(10) 0.70451(10) 0.8738(2)
C9 C 0.17981(10) 0.68249(10) 0.8253(3)
C10 C 0.15350(10) 0.65678(9) 0.7764(3)
C11 C 0.16264(9) 0.64582(9) 0.7114(3)
C12 C 0.14142(10) 0.62772(9) 0.6520(2)
C13 C 0.11003(9) 0.62005(8) 0.6536(2)
C14 C 0.09338(9) 0.61189(9) 0.5768(2)
C15 C 0.06661(9) 0.61579(8) 0.5710(2)
C16 C 0.05732(9) 0.62608(9) 0.6398(2)
C17 C 0.04747(8) 0.64741(8) 0.6338(2)
C18 C 0.04918(9) 0.66276(9) 0.7124(2)
C19 C 0.06706(9) 0.69762(9) 0.7043(2)
C20 C 0.08819(9) 0.71624(9) 0.7643(2)
C21 C 0.09300(9) 0.70091(9) 0.8379(2)
C22 C 0.12684(9) 0.71588(9) 0.8589(2)
C23 C 0.14840(10) 0.75060(9) 0.8611(2)
C24 C 0.17924(9) 0.75667(9) 0.8286(2)
C25 C 0.18936(9) 0.73577(9) 0.8343(2)
C26 C 0.20910(9) 0.73492(9) 0.7741(2)
C27 C 0.20449(10) 0.70464(10) 0.7652(3)
C28 C 0.21165(9) 0.69533(10) 0.6948(3)
C29 C 0.19554(10) 0.66092(10) 0.6778(3)
C30 C 0.18964(10) 0.65356(10) 0.5896(3)
C31 C 0.15763(9) 0.63082(9) 0.5782(3)
C32 C 0.14297(9) 0.62472(9) 0.5052(3)
C33 C 0.10926(9) 0.61218(9) 0.5046(3)
C34 C 0.09511(9) 0.61063(9) 0.4303(2)
C35 C 0.07036(9) 0.61614(9) 0.4262(2)
C36 C 0.05735(9) 0.62173(9) 0.4957(2)
C37 C 0.04690(8) 0.64382(9) 0.4894(2)
C38 C 0.04575(8) 0.66004(9) 0.5585(2)
C39 C 0.05496(8) 0.69236(9) 0.5547(2)
C40 C 0.06632(9) 0.71067(9) 0.6289(2)
C41 C 0.08545(9) 0.74299(9) 0.6208(2)
C42 C 0.10670(9) 0.76154(9) 0.6800(2)
C43 C 0.10911(9) 0.74857(9) 0.7514(2)
C44 C 0.13800(9) 0.76900(9) 0.8021(2)
C45 C 0.16559(9) 0.78502(9) 0.7436(2)
C46 C 0.18885(9) 0.77745(9) 0.7624(2)
C47 C 0.20993(9) 0.77866(9) 0.7034(2)
C48 C 0.22056(9) 0.75638(9) 0.7096(2)
C49 C 0.23197(9) 0.74823(9) 0.6399(2)
C50 C 0.22694(9) 0.71717(10) 0.6310(3)
C51 C 0.22898(9) 0.70607(10) 0.5512(3)
C52 C 0.20638(9) 0.67352(10) 0.5294(3)
C53 C 0.19294(10) 0.66719(10) 0.4492(3)
C54 C 0.16144(10) 0.64227(9) 0.4365(3)
C55 C 0.14619(9) 0.64054(10) 0.3619(3)
C56 C 0.11211(10) 0.61703(9) 0.3512(3)
C57 C 0.09407(10) 0.62907(10) 0.2939(2)
C58 C 0.07031(9) 0.62927(9) 0.3493(2)
C59 C 0.06046(9) 0.65001(9) 0.3436(2)
C60 C 0.05001(8) 0.65855(9) 0.4141(2)
C61 C 0.05763(8) 0.68940(9) 0.4092(2)
C62 C 0.06362(9) 0.70777(9) 0.4786(2)
C63 C 0.08724(9) 0.74068(9) 0.4730(2)
C64 C 0.09650(9) 0.75749(9) 0.5431(2)
C65 C 0.12656(9) 0.78415(9) 0.5535(2)
C66 C 0.13310(9) 0.79116(9) 0.6417(2)
C67 C 0.16364(9) 0.79465(8) 0.6668(2)
C68 C 0.18711(9) 0.80030(9) 0.6084(2)
C69 C 0.21065(9) 0.79256(9) 0.6277(2)
C70 C 0.22911(9) 0.79007(9) 0.5653(2)
C71 C 0.23971(9) 0.76808(9) 0.5711(2)
C72 C 0.24755(9) 0.75820(9) 0.4995(3)
C73 C 0.24186(9) 0.72744(10) 0.4908(3)
C74 C 0.23889(10) 0.71865(11) 0.4029(3)
C75 C 0.20816(9) 0.68986(10) 0.3874(3)
C76 C 0.19232(10) 0.68716(10) 0.3168(3)
C77 C 0.16187(10) 0.66291(10) 0.3047(3)
C78 C 0.14686(10) 0.66999(10) 0.2354(2)
C79 C 0.11403(9) 0.66158(10) 0.2581(2)
C80 C 0.10413(9) 0.68221(10) 0.2526(2)
C81 C 0.07194(9) 0.67517(9) 0.2814(2)
C82 C 0.07063(9) 0.70310(9) 0.3276(2)
C83 C 0.10205(9) 0.73199(9) 0.3367(2)
C84 C 0.10891(9) 0.75136(9) 0.4065(2)
C85 C 0.14028(9) 0.77651(9) 0.4193(2)
C86 C 0.14931(9) 0.79232(9) 0.4969(2)
C87 C 0.18170(9) 0.80453(9) 0.5244(3)
C88 C 0.20345(9) 0.80735(9) 0.4686(2)
C89 C 0.22697(9) 0.80064(9) 0.4879(3)
C90 C 0.23641(9) 0.79132(9) 0.4178(2)
C91 C 0.24649(9) 0.77030(10) 0.4235(2)
C92 C 0.24316(10) 0.74869(11) 0.3570(3)
C93 C 0.21694(9) 0.74405(10) 0.3010(2)
C94 C 0.20091(10) 0.71311(10) 0.2574(3)
C95 C 0.16891(9) 0.70465(10) 0.2268(2)
C96 C 0.15918(9) 0.72491(10) 0.2209(2)
C97 C 0.12504(9) 0.71530(10) 0.2229(2)
C98 C 0.12569(10) 0.73792(9) 0.2841(2)
C99 C 0.15622(9) 0.76264(9) 0.2970(2)
C100 C 0.16402(9) 0.78188(9) 0.3622(2)
C101 C 0.19779(9) 0.80499(9) 0.3792(2)
C102 C 0.22110(10) 0.79430(10) 0.3441(3)
C103 C 0.20687(9) 0.76490(10) 0.2959(2)
C104 C 0.17904(9) 0.75865(10) 0.2455(2)
Cl23 Cl 0.3333 0.6667 0.6667
Cl24 Cl 0.3333 0.6667 0.789(3)
Cl25 Cl 0.2085(4) 0.6306(3) 0.2597(9)
Cl26 Cl 0.2383(4) 0.6196(3) 0.3559(9)
Cl27 Cl 0.2375(5) 0.5867(5) 0.2984(12)
Cl28? Cl 0.2742(4) 0.7242(8) 0.3651(14)
Cl29? Cl 0.2196(9) 0.6112(6) 0.482(2)
Cl30? Cl 0.1996(6) 0.6010(5) 0.4411(16)
Cl31? Cl 0.1962(6) 0.5794(7) 0.5000(17)
Cl32? Cl 0.3504(5) 0.7294(8) 0.7470(19)
loop_
_geom_bond_atom_site_label_1
_geom_bond_atom_site_label_2
_geom_bond_site_symmetry_1
_geom_bond_site_symmetry_2
Cl1 C3 1_555 1_555
Cl2 C6 1_555 1_555
Cl3 C8 1_555 1_555
Cl4 C9 1_555 1_555
Cl5 C18 1_555 1_555
Cl6 C21 1_555 1_555
Cl7 C23 1_555 1_555
Cl8 C29 1_555 1_555
Cl9 C44 1_555 1_555
Cl10 C56 1_555 1_555
Cl11 C57 1_555 1_555
Cl12 C66 1_555 1_555
Cl13 C74 1_555 1_555
Cl14 C78 1_555 1_555
Cl15 C81 1_555 1_555
Cl16 C82 1_555 1_555
Cl17 C92 1_555 1_555
Cl18 C94 1_555 1_555
Cl19 C97 1_555 1_555
Cl20 C101 1_555 1_555
Cl21 C102 1_555 1_555
Cl22 C104 1_555 1_555
C1 C2 1_555 1_555
C2 C3 1_555 1_555
C3 C4 1_555 1_555
C4 C5 1_555 1_555
C5 C6 1_555 1_555
C6 C1 1_555 1_555
C7 C6 1_555 1_555
C8 C7 1_555 1_555
C9 C8 1_555 1_555
C10 C1 1_555 1_555
C11 C10 1_555 1_555
C12 C11 1_555 1_555
C13 C2 1_555 1_555
C14 C13 1_555 1_555
C15 C14 1_555 1_555
C16 C3 1_555 1_555
C17 C16 1_555 1_555
C18 C4 1_555 1_555
C19 C18 1_555 1_555
C20 C19 1_555 1_555
C21 C5 1_555 1_555
C22 C7 1_555 1_555
C23 C22 1_555 1_555
C24 C23 1_555 1_555
C25 C8 1_555 1_555
C26 C25 1_555 1_555
C27 C9 1_555 1_555
C28 C27 1_555 1_555
C29 C11 1_555 1_555
C30 C29 1_555 1_555
C31 C12 1_555 1_555
C32 C31 1_555 1_555
C33 C14 1_555 1_555
C34 C33 1_555 1_555
C35 C34 1_555 1_555
C36 C15 1_555 1_555
C37 C36 1_555 1_555
C38 C17 1_555 1_555
C39 C38 1_555 1_555
C40 C19 1_555 1_555
C41 C40 1_555 1_555
C42 C41 1_555 1_555
C43 C20 1_555 1_555
C44 C23 1_555 1_555
C45 C44 1_555 1_555
C46 C24 1_555 1_555
C47 C46 1_555 1_555
C48 C26 1_555 1_555
C49 C48 1_555 1_555
C50 C28 1_555 1_555
C51 C50 1_555 1_555
C52 C30 1_555 1_555
C53 C52 1_555 1_555
C54 C32 1_555 1_555
C55 C54 1_555 1_555
C56 C34 1_555 1_555
C57 C56 1_555 1_555
C58 C35 1_555 1_555
C59 C58 1_555 1_555
C60 C37 1_555 1_555
C61 C60 1_555 1_555
C62 C39 1_555 1_555
C63 C62 1_555 1_555
C64 C41 1_555 1_555
C65 C64 1_555 1_555
C66 C42 1_555 1_555
C67 C45 1_555 1_555
C68 C67 1_555 1_555
C69 C47 1_555 1_555
C70 C69 1_555 1_555
C71 C49 1_555 1_555
C72 C71 1_555 1_555
C73 C51 1_555 1_555
C74 C73 1_555 1_555
C75 C53 1_555 1_555
C76 C75 1_555 1_555
C77 C55 1_555 1_555
C78 C77 1_555 1_555
C79 C57 1_555 1_555
C80 C79 1_555 1_555
C81 C59 1_555 1_555
C82 C61 1_555 1_555
C83 C82 1_555 1_555
C84 C63 1_555 1_555
C85 C84 1_555 1_555
C86 C65 1_555 1_555
C87 C68 1_555 1_555
C88 C87 1_555 1_555
C89 C70 1_555 1_555
C90 C89 1_555 1_555
C91 C72 1_555 1_555
C92 C74 1_555 1_555
C93 C92 1_555 1_555
C94 C76 1_555 1_555
C95 C78 1_555 1_555
C96 C95 1_555 1_555
C97 C80 1_555 1_555
C98 C83 1_555 1_555
C99 C98 1_555 1_555
C100 C85 1_555 1_555
C101 C88 1_555 1_555
C102 C90 1_555 1_555
C103 C93 1_555 1_555
C104 C96 1_555 1_555
C9 C10 1_555 1_555
C12 C13 1_555 1_555
C15 C16 1_555 1_555
C17 C18 1_555 1_555
C20 C21 1_555 1_555
C21 C22 1_555 1_555
C24 C25 1_555 1_555
C26 C27 1_555 1_555
C28 C29 1_555 1_555
C30 C31 1_555 1_555
C32 C33 1_555 1_555
C35 C36 1_555 1_555
C37 C38 1_555 1_555
C39 C40 1_555 1_555
C42 C43 1_555 1_555
C43 C44 1_555 1_555
C45 C46 1_555 1_555
C47 C48 1_555 1_555
C49 C50 1_555 1_555
C51 C52 1_555 1_555
C53 C54 1_555 1_555
C55 C56 1_555 1_555
C57 C58 1_555 1_555
C59 C60 1_555 1_555
C61 C62 1_555 1_555
C63 C64 1_555 1_555
C65 C66 1_555 1_555
C66 C67 1_555 1_555
C68 C69 1_555 1_555
C70 C71 1_555 1_555
C72 C73 1_555 1_555
C74 C75 1_555 1_555
C76 C77 1_555 1_555
C78 C79 1_555 1_555
C80 C81 1_555 1_555
C81 C82 1_555 1_555
C83 C84 1_555 1_555
C85 C86 1_555 1_555
C86 C87 1_555 1_555
C88 C89 1_555 1_555
C90 C91 1_555 1_555
C91 C92 1_555 1_555
C93 C94 1_555 1_555
C94 C95 1_555 1_555
C96 C97 1_555 1_555
C97 C98 1_555 1_555
C99 C100 1_555 1_555
C99 C104 1_555 1_555
C100 C101 1_555 1_555
C101 C102 1_555 1_555
C102 C103 1_555 1_555
C103 C104 1_555 1_555

#END
