
#######################################################################
#
#                 Cambridge Crystallographic Data Centre
#                                CCDC 
#
#######################################################################
#
# If this CIF has been generated from an entry in the Cambridge 
# Structural Database, then it will include bibliographic, chemical, 
# crystal, experimental, refinement or atomic coordinate data resulting 
# from the CCDC's data processing and validation procedures.
#
#######################################################################

data_DIYPUX
_chemical_formula_moiety         'C11 H8 F3 N3 O1'
_chemical_name_systematic        
2-amino-4-trifluoromethyl-5-benzoyl-1H-imidazole
_symmetry_cell_setting           monoclinic
_symmetry_space_group_name_H-M   'P 21/c'
_symmetry_Int_Tables_number      14
_space_group_name_Hall           '-P 2ybc'
loop_
_symmetry_equiv_pos_site_id
_symmetry_equiv_pos_as_xyz
1 x,y,z
2 -x,1/2+y,1/2-z
3 -x,-y,-z
4 x,1/2-y,1/2+z
_cell_length_a                   10.740(2)
_cell_length_b                   11.530(2)
_cell_length_c                   9.7550(10)
_cell_angle_alpha                90
_cell_angle_beta                 113.560(10)
_cell_angle_gamma                90
_cell_volume                     1107.29
_exptl_crystal_colour            yellow
_exptl_crystal_description       prism
_chemical_melting_point          '491-493 K'
_cell_formula_units_Z            4
_exptl_crystal_recrystallization_method ethanol
loop_
_atom_site_label
_atom_site_type_symbol
_atom_site_fract_x
_atom_site_fract_y
_atom_site_fract_z
N1 N 0.56997(10) 0.20119(8) 0.63730(11)
C1 C 0.53297(12) 0.25806(10) 0.50672(12)
N2 N 0.58044(10) 0.20597(8) 0.41458(10)
C2 C 0.65381(11) 0.11366(9) 0.49462(12)
C3 C 0.65002(11) 0.10746(9) 0.63401(12)
N3 N 0.45401(13) 0.35321(10) 0.47056(13)
C4 C 0.72095(13) 0.03523(11) 0.42252(14)
C5 C 0.69106(12) 0.02231(10) 0.75516(13)
O1 O 0.62258(10) 0.01251(8) 0.82955(11)
C6 C 0.81609(13) -0.04719(11) 0.79057(14)
C7 C 0.93380(14) 0.00419(14) 0.79363(15)
C8 C 1.05302(17) -0.05985(18) 0.83896(19)
C9 C 1.0532(2) -0.17359(19) 0.8791(3)
C10 C 0.9374(2) -0.22524(18) 0.8766(3)
C11 C 0.81815(18) -0.16265(14) 0.8335(2)
F1 F 0.85310(8) 0.05595(9) 0.46659(10)
F2 F 0.70929(11) -0.07600(7) 0.44958(12)
F3 F 0.66767(9) 0.04842(8) 0.27387(9)
H1 H 0.5591(15) 0.2283(13) 0.7208(18)
H2 H 0.4344(17) 0.3876(15) 0.540(2)
H3 H 0.4571(17) 0.3938(15) 0.402(2)
H4 H 0.9326(16) 0.0839(15) 0.7706(18)
H5 H 1.128(2) -0.0232(16) 0.845(2)
H6 H 1.137(2) -0.216(2) 0.913(3)
H7 H 0.938(3) -0.311(2) 0.906(3)
H8 H 0.734(2) -0.1954(19) 0.828(2)
loop_
_geom_bond_atom_site_label_1
_geom_bond_atom_site_label_2
_geom_bond_site_symmetry_1
_geom_bond_site_symmetry_2
N1 C1 1_555 1_555
C1 N2 1_555 1_555
N2 C2 1_555 1_555
C2 C3 1_555 1_555
C3 N1 1_555 1_555
N3 C1 1_555 1_555
C4 C2 1_555 1_555
C5 C3 1_555 1_555
O1 C5 1_555 1_555
C6 C5 1_555 1_555
C7 C6 1_555 1_555
C8 C7 1_555 1_555
C9 C8 1_555 1_555
C10 C9 1_555 1_555
C11 C6 1_555 1_555
F1 C4 1_555 1_555
F2 C4 1_555 1_555
F3 C4 1_555 1_555
H1 N1 1_555 1_555
H2 N3 1_555 1_555
H3 N3 1_555 1_555
H4 C7 1_555 1_555
H5 C8 1_555 1_555
H6 C9 1_555 1_555
H7 C10 1_555 1_555
H8 C11 1_555 1_555
C10 C11 1_555 1_555

#END
