
#######################################################################
#
#                 Cambridge Crystallographic Data Centre
#                                CCDC 
#
#######################################################################
#
# If this CIF has been generated from an entry in the Cambridge 
# Structural Database, then it will include bibliographic, chemical, 
# crystal, experimental, refinement or atomic coordinate data resulting 
# from the CCDC's data processing and validation procedures.
#
#######################################################################

data_DIYWAL
_chemical_formula_moiety         'C50 H62 Br2 N2 O2'
_chemical_name_systematic        
1,6-bis(4-bromophenyl)-3,8-didodecyl-3,8-dihydroindolo[7,6-g]indole-2,7-dione
_symmetry_cell_setting           triclinic
_symmetry_space_group_name_H-M   'P -1'
_symmetry_Int_Tables_number      2
_space_group_name_Hall           '-P 1'
loop_
_symmetry_equiv_pos_site_id
_symmetry_equiv_pos_as_xyz
1 x,y,z
2 -x,-y,-z
_cell_length_a                   5.5633(5)
_cell_length_b                   9.9288(11)
_cell_length_c                   19.482(2)
_cell_angle_alpha                96.408(4)
_cell_angle_beta                 94.570(6)
_cell_angle_gamma                95.403(6)
_cell_volume                     1060.22
_exptl_crystal_colour            blue
_exptl_crystal_description       prism
_cell_formula_units_Z            1
loop_
_atom_site_label
_atom_site_type_symbol
_atom_site_fract_x
_atom_site_fract_y
_atom_site_fract_z
Br1 Br 1.68078(13) 0.33753(8) -0.28711(4)
O1 O 1.1857(8) 0.4152(5) 0.0340(3)
N1 N 0.8495(10) 0.2675(5) 0.0461(3)
C1 C 1.4908(12) 0.2962(6) -0.2134(4)
C2 C 1.5735(12) 0.3501(7) -0.1466(4)
H1 H 1.7255 0.4038 -0.1370
C3 C 1.4300(12) 0.3241(6) -0.0939(4)
H2 H 1.4840 0.3625 -0.0478
C4 C 1.2067(12) 0.2427(6) -0.1064(4)
C5 C 1.0496(12) 0.2180(7) -0.0521(4)
C6 C 1.0474(13) 0.3137(7) 0.0119(4)
C7 C 0.7364(12) 0.1455(6) 0.0105(4)
C8 C 0.8675(12) 0.1149(6) -0.0502(4)
C9 C 0.7963(12) -0.0091(7) -0.0943(4)
H3 H 0.8869 -0.0333 -0.1324
C10 C 0.6030(11) -0.0921(6) -0.0828(4)
H4 H 0.5566 -0.1729 -0.1138
C11 C 0.5356(11) 0.0622(6) 0.0250(4)
C12 C 1.2727(13) 0.2170(7) -0.2290(4)
H5 H 1.2207 0.1803 -0.2755
C13 C 1.1311(12) 0.1918(6) -0.1761(4)
H6 H 0.9786 0.1388 -0.1867
C14 C 0.7848(13) 0.3494(7) 0.1072(4)
H7 H 0.6065 0.3503 0.1039
H8 H 0.8577 0.4443 0.1074
C15 C 0.8660(13) 0.2997(7) 0.1753(4)
H9 H 1.0454 0.3094 0.1815
H10 H 0.8095 0.2016 0.1732
C16 C 0.7708(13) 0.3766(7) 0.2377(4)
H11 H 0.8234 0.4750 0.2390
H12 H 0.5913 0.3646 0.2321
C17 C 0.8579(13) 0.3294(7) 0.3060(4)
H13 H 1.0372 0.3439 0.3119
H14 H 0.8101 0.2303 0.3038
C18 C 0.7587(13) 0.4020(7) 0.3694(4)
H15 H 0.5806 0.3996 0.3604
H16 H 0.7918 0.3514 0.4095
C19 C 0.8655(12) 0.5495(7) 0.3884(4)
H17 H 1.0415 0.5509 0.4015
H18 H 0.8463 0.5976 0.3468
C20 C 0.7541(13) 0.6280(7) 0.4473(4)
H19 H 0.7944 0.5895 0.4910
H20 H 0.5755 0.6173 0.4377
C21 C 0.8458(14) 0.7796(7) 0.4563(4)
H21 H 1.0208 0.7897 0.4721
H22 H 0.8289 0.8134 0.4104
C22 C 0.7179(14) 0.8697(7) 0.5069(4)
H23 H 0.7629 0.9659 0.5002
H24 H 0.5408 0.8499 0.4948
C23 C 0.7700(13) 0.8548(7) 0.5810(4)
H25 H 0.9456 0.8793 0.5941
H26 H 0.7319 0.7579 0.5877
C24 C 0.6277(14) 0.9427(8) 0.6298(4)
H27 H 0.6614 1.0392 0.6220
H28 H 0.4522 0.9159 0.6177
C25 C 0.6875(14) 0.9309(8) 0.7058(4)
H29 H 0.6480 0.8364 0.7145
H30 H 0.5925 0.9906 0.7337
H31 H 0.8607 0.9580 0.7184
Br1A Br -0.68078(13) -0.33753(8) 0.28711(4)
O1A O -0.1857(8) -0.4152(5) -0.0340(3)
N1A N 0.1505(10) -0.2675(5) -0.0461(3)
C1A C -0.4908(12) -0.2962(6) 0.2134(4)
C2A C -0.5735(12) -0.3501(7) 0.1466(4)
H1A H -0.7255 -0.4038 0.1370
C3A C -0.4300(12) -0.3241(6) 0.0939(4)
H2A H -0.4840 -0.3625 0.0478
C4A C -0.2067(12) -0.2427(6) 0.1064(4)
C5A C -0.0496(12) -0.2180(7) 0.0521(4)
C6A C -0.0474(13) -0.3137(7) -0.0119(4)
C7A C 0.2636(12) -0.1455(6) -0.0105(4)
C8A C 0.1325(12) -0.1149(6) 0.0502(4)
C9A C 0.2037(12) 0.0091(7) 0.0943(4)
H3A H 0.1131 0.0333 0.1324
C10A C 0.3970(11) 0.0921(6) 0.0828(4)
H4A H 0.4434 0.1729 0.1138
C11A C 0.4644(11) -0.0622(6) -0.0250(4)
C12A C -0.2727(13) -0.2170(7) 0.2290(4)
H5A H -0.2207 -0.1803 0.2755
C13A C -0.1311(12) -0.1918(6) 0.1761(4)
H6A H 0.0214 -0.1388 0.1867
C14A C 0.2152(13) -0.3494(7) -0.1072(4)
H7A H 0.3935 -0.3503 -0.1039
H8A H 0.1423 -0.4443 -0.1074
C15A C 0.1340(13) -0.2997(7) -0.1753(4)
H9A H -0.0454 -0.3094 -0.1815
H10A H 0.1905 -0.2016 -0.1732
C16A C 0.2292(13) -0.3766(7) -0.2377(4)
H11A H 0.1766 -0.4750 -0.2390
H12A H 0.4087 -0.3646 -0.2321
C17A C 0.1421(13) -0.3294(7) -0.3060(4)
H13A H -0.0372 -0.3439 -0.3119
H14A H 0.1899 -0.2303 -0.3038
C18A C 0.2413(13) -0.4020(7) -0.3694(4)
H15A H 0.4194 -0.3996 -0.3604
H16A H 0.2082 -0.3514 -0.4095
C19A C 0.1345(12) -0.5495(7) -0.3884(4)
H17A H -0.0415 -0.5509 -0.4015
H18A H 0.1537 -0.5976 -0.3468
C20A C 0.2459(13) -0.6280(7) -0.4473(4)
H19A H 0.2056 -0.5895 -0.4910
H20A H 0.4245 -0.6173 -0.4377
C21A C 0.1542(14) -0.7796(7) -0.4563(4)
H21A H -0.0208 -0.7897 -0.4721
H22A H 0.1711 -0.8134 -0.4104
C22A C 0.2821(14) -0.8697(7) -0.5069(4)
H23A H 0.2371 -0.9659 -0.5002
H24A H 0.4592 -0.8499 -0.4948
C23A C 0.2300(13) -0.8548(7) -0.5810(4)
H25A H 0.0544 -0.8793 -0.5941
H26A H 0.2681 -0.7579 -0.5877
C24A C 0.3723(14) -0.9427(8) -0.6298(4)
H27A H 0.3386 -1.0392 -0.6220
H28A H 0.5478 -0.9159 -0.6177
C25A C 0.3125(14) -0.9309(8) -0.7058(4)
H29A H 0.3520 -0.8364 -0.7145
H30A H 0.4075 -0.9906 -0.7337
H31A H 0.1393 -0.9580 -0.7184
loop_
_geom_bond_atom_site_label_1
_geom_bond_atom_site_label_2
_geom_bond_site_symmetry_1
_geom_bond_site_symmetry_2
Br1 C1 1_555 1_555
O1 C6 1_555 1_555
N1 C6 1_555 1_555
C1 C2 1_555 1_555
C2 H1 1_555 1_555
C3 C2 1_555 1_555
H2 C3 1_555 1_555
C4 C3 1_555 1_555
C5 C4 1_555 1_555
C6 C5 1_555 1_555
C7 N1 1_555 1_555
C8 C5 1_555 1_555
C9 C8 1_555 1_555
H3 C9 1_555 1_555
C10 C9 1_555 1_555
H4 C10 1_555 1_555
C11 C7 1_555 1_555
C12 C1 1_555 1_555
H5 C12 1_555 1_555
C13 C4 1_555 1_555
H6 C13 1_555 1_555
C14 N1 1_555 1_555
H7 C14 1_555 1_555
H8 C14 1_555 1_555
C15 C14 1_555 1_555
H9 C15 1_555 1_555
H10 C15 1_555 1_555
C16 C15 1_555 1_555
H11 C16 1_555 1_555
H12 C16 1_555 1_555
C17 C16 1_555 1_555
H13 C17 1_555 1_555
H14 C17 1_555 1_555
C18 C17 1_555 1_555
H15 C18 1_555 1_555
H16 C18 1_555 1_555
C19 C18 1_555 1_555
H17 C19 1_555 1_555
H18 C19 1_555 1_555
C20 C19 1_555 1_555
H19 C20 1_555 1_555
H20 C20 1_555 1_555
C21 C20 1_555 1_555
H21 C21 1_555 1_555
H22 C21 1_555 1_555
C22 C21 1_555 1_555
H23 C22 1_555 1_555
H24 C22 1_555 1_555
C23 C22 1_555 1_555
H25 C23 1_555 1_555
H26 C23 1_555 1_555
C24 C23 1_555 1_555
H27 C24 1_555 1_555
H28 C24 1_555 1_555
C25 C24 1_555 1_555
H29 C25 1_555 1_555
H30 C25 1_555 1_555
H31 C25 1_555 1_555
Br1A C1A 1_555 1_555
O1A C6A 1_555 1_555
N1A C6A 1_555 1_555
C1A C2A 1_555 1_555
C2A H1A 1_555 1_555
C3A C2A 1_555 1_555
H2A C3A 1_555 1_555
C4A C3A 1_555 1_555
C5A C4A 1_555 1_555
C6A C5A 1_555 1_555
C7A N1A 1_555 1_555
C8A C5A 1_555 1_555
C9A C8A 1_555 1_555
H3A C9A 1_555 1_555
C10A C11 1_555 1_555
H4A C10A 1_555 1_555
C11A C10 1_555 1_555
C12A C1A 1_555 1_555
H5A C12A 1_555 1_555
C13A C4A 1_555 1_555
H6A C13A 1_555 1_555
C14A N1A 1_555 1_555
H7A C14A 1_555 1_555
H8A C14A 1_555 1_555
C15A C14A 1_555 1_555
H9A C15A 1_555 1_555
H10A C15A 1_555 1_555
C16A C15A 1_555 1_555
H11A C16A 1_555 1_555
H12A C16A 1_555 1_555
C17A C16A 1_555 1_555
H13A C17A 1_555 1_555
H14A C17A 1_555 1_555
C18A C17A 1_555 1_555
H15A C18A 1_555 1_555
H16A C18A 1_555 1_555
C19A C18A 1_555 1_555
H17A C19A 1_555 1_555
H18A C19A 1_555 1_555
C20A C19A 1_555 1_555
H19A C20A 1_555 1_555
H20A C20A 1_555 1_555
C21A C20A 1_555 1_555
H21A C21A 1_555 1_555
H22A C21A 1_555 1_555
C22A C21A 1_555 1_555
H23A C22A 1_555 1_555
H24A C22A 1_555 1_555
C23A C22A 1_555 1_555
H25A C23A 1_555 1_555
H26A C23A 1_555 1_555
C24A C23A 1_555 1_555
H27A C24A 1_555 1_555
H28A C24A 1_555 1_555
C25A C24A 1_555 1_555
H29A C25A 1_555 1_555
H30A C25A 1_555 1_555
H31A C25A 1_555 1_555
C7 C8 1_555 1_555
C11 C11A 1_555 1_555
C12 C13 1_555 1_555
C7A C8A 1_555 1_555
C7A C11A 1_555 1_555
C9A C10A 1_555 1_555
C12A C13A 1_555 1_555

#END
