
#######################################################################
#
#                 Cambridge Crystallographic Data Centre
#                                CCDC 
#
#######################################################################
#
# If this CIF has been generated from an entry in the Cambridge 
# Structural Database, then it will include bibliographic, chemical, 
# crystal, experimental, refinement or atomic coordinate data resulting 
# from the CCDC's data processing and validation procedures.
#
#######################################################################

data_DIYXEP
_chemical_formula_moiety         'C13 H19 N4 O5 P1'
_chemical_name_systematic        
'Diethyl 9-(ethoxycarbonylmethyl)purin-6-ylphosphonate'
_symmetry_cell_setting           monoclinic
_symmetry_space_group_name_H-M   'P 21/n'
_symmetry_Int_Tables_number      14
_space_group_name_Hall           '-P 2yn'
loop_
_symmetry_equiv_pos_site_id
_symmetry_equiv_pos_as_xyz
1 x,y,z
2 1/2-x,1/2+y,1/2-z
3 -x,-y,-z
4 1/2+x,1/2-y,1/2+z
_cell_length_a                   12.7387(13)
_cell_length_b                   9.6430(10)
_cell_length_c                   14.6060(14)
_cell_angle_alpha                90
_cell_angle_beta                 114.5560(10)
_cell_angle_gamma                90
_cell_volume                     1631.92
_cell_formula_units_Z            4
loop_
_atom_site_label
_atom_site_type_symbol
_atom_site_fract_x
_atom_site_fract_y
_atom_site_fract_z
P1 P 0.85131(6) 0.10527(7) 1.03301(5)
O1 O 0.7692(2) 0.0218(2) 0.95208(16)
O2 O 0.80159(19) 0.2085(2) 1.08771(16)
O3 O 0.9349(2) 0.0131(2) 1.12196(16)
O4 O 1.0444(3) 0.3859(2) 0.6868(2)
O5 O 1.05851(19) 0.6121(2) 0.66261(17)
N1 N 1.0496(2) 0.2373(3) 1.05858(17)
N2 N 1.08213(19) 0.4018(3) 0.94920(18)
N3 N 0.79039(19) 0.2880(3) 0.81893(17)
N4 N 0.91182(19) 0.4391(2) 0.79426(16)
C1 C 0.7083(4) 0.2999(5) 1.0287(3)
H1 H 0.7342 0.3607 0.9893
H2 H 0.6448 0.2450 0.9822
C2 C 0.6684(5) 0.3812(5) 1.0876(4)
H3 H 0.6536 0.3228 1.1341
H4 H 0.5985 0.4275 1.0447
H5 H 0.7259 0.4488 1.1241
C3 C 0.9934(4) 0.0543(5) 1.2246(3)
H6 H 0.9381 0.0942 1.2469
H7 H 1.0496 0.1253 1.2300
C4 C 1.0508(4) -0.0594(5) 1.2887(3)
H8 H 0.9956 -0.1306 1.2827
H9 H 1.0866 -0.0280 1.3572
H10 H 1.1086 -0.0958 1.2693
C5 C 0.9397(2) 0.2147(3) 0.99240(19)
C6 C 1.1129(2) 0.3261(4) 1.0326(2)
H11 H 1.1890 0.3366 1.0792
C7 C 0.9738(2) 0.3766(3) 0.88576(19)
C8 C 0.8976(2) 0.2844(3) 0.90075(18)
C9 C 0.8039(2) 0.3804(3) 0.7590(2)
H12 H 0.7451 0.4044 0.6974
C10 C 0.9507(2) 0.5514(3) 0.7501(2)
H13 H 0.9959 0.6158 0.8028
H14 H 0.8840 0.6010 0.7028
C11 C 1.0224(2) 0.5030(3) 0.6966(2)
C12 C 1.1365(4) 0.5857(4) 0.6142(3)
H15 H 1.0967 0.5346 0.5521
H16 H 1.2021 0.5312 0.6582
C13 C 1.1759(5) 0.7211(5) 0.5930(5)
H17 H 1.1102 0.7763 0.5526
H18 H 1.2235 0.7068 0.5573
H19 H 1.2196 0.7682 0.6552
loop_
_geom_bond_atom_site_label_1
_geom_bond_atom_site_label_2
_geom_bond_site_symmetry_1
_geom_bond_site_symmetry_2
P1 O1 1_555 1_555
O2 P1 1_555 1_555
O3 P1 1_555 1_555
O4 C11 1_555 1_555
O5 C11 1_555 1_555
N1 C5 1_555 1_555
N2 C6 1_555 1_555
N3 C8 1_555 1_555
N4 C7 1_555 1_555
C1 O2 1_555 1_555
H1 C1 1_555 1_555
H2 C1 1_555 1_555
C2 C1 1_555 1_555
H3 C2 1_555 1_555
H4 C2 1_555 1_555
H5 C2 1_555 1_555
C3 O3 1_555 1_555
H6 C3 1_555 1_555
H7 C3 1_555 1_555
C4 C3 1_555 1_555
H8 C4 1_555 1_555
H9 C4 1_555 1_555
H10 C4 1_555 1_555
C5 P1 1_555 1_555
C6 N1 1_555 1_555
H11 C6 1_555 1_555
C7 N2 1_555 1_555
C8 C5 1_555 1_555
C9 N3 1_555 1_555
H12 C9 1_555 1_555
C10 N4 1_555 1_555
H13 C10 1_555 1_555
H14 C10 1_555 1_555
C11 C10 1_555 1_555
C12 O5 1_555 1_555
H15 C12 1_555 1_555
H16 C12 1_555 1_555
C13 C12 1_555 1_555
H17 C13 1_555 1_555
H18 C13 1_555 1_555
H19 C13 1_555 1_555
N4 C9 1_555 1_555
C7 C8 1_555 1_555

#END
