
#######################################################################
#
#                 Cambridge Crystallographic Data Centre
#                                CCDC 
#
#######################################################################
#
# If this CIF has been generated from an entry in the Cambridge 
# Structural Database, then it will include bibliographic, chemical, 
# crystal, experimental, refinement or atomic coordinate data resulting 
# from the CCDC's data processing and validation procedures.
#
#######################################################################

data_DIYXIT
_chemical_formula_moiety         'C16 H17 N3 O1 S1'
_chemical_name_systematic        
6-Amino-5-(ethylthio(4-methoxyphenyl)methyl)nicotinonitrile
_symmetry_cell_setting           triclinic
_symmetry_space_group_name_H-M   'P -1'
_symmetry_Int_Tables_number      2
_space_group_name_Hall           '-P 1'
loop_
_symmetry_equiv_pos_site_id
_symmetry_equiv_pos_as_xyz
1 x,y,z
2 -x,-y,-z
_cell_length_a                   10.597(2)
_cell_length_b                   12.793(3)
_cell_length_c                   13.519(3)
_cell_angle_alpha                63.73(3)
_cell_angle_beta                 80.57(3)
_cell_angle_gamma                77.57(3)
_cell_volume                     1600
_chemical_melting_point          '130-132 deg.C'
_cell_formula_units_Z            4
loop_
_atom_site_label
_atom_site_type_symbol
_atom_site_fract_x
_atom_site_fract_y
_atom_site_fract_z
S1 S 1.3032(1) 0.9310(1) -0.2033(1)
O1 O 1.1862(3) 0.8233(2) 0.3070(2)
N1 N 0.8294(4) 0.9836(3) -0.4383(3)
N2 N 1.1241(2) 0.5877(2) 0.0075(2)
N3 N 0.9641(3) 0.6504(2) -0.1095(2)
C1 C 1.0667(3) 0.6750(3) -0.0809(3)
C2 C 1.1132(3) 0.7844(3) -0.1415(3)
C3 C 1.0494(3) 0.8655(3) -0.2320(3)
C4 C 0.9434(3) 0.8406(3) -0.2619(3)
C5 C 0.9066(3) 0.7329(3) -0.1980(3)
C6 C 1.2926(4) 0.7770(3) 0.3758(3)
C7 C 1.2363(3) 0.8001(3) -0.1070(3)
C8 C 1.2196(3) 0.8022(3) 0.0059(3)
C9 C 1.3224(3) 0.7521(3) 0.0724(3)
C10 C 1.3150(4) 0.7554(3) 0.1731(3)
C11 C 1.2043(4) 0.8124(3) 0.2092(3)
C12 C 1.1000(3) 0.8615(3) 0.1443(3)
C13 C 1.1082(3) 0.8558(3) 0.0438(3)
C14 C 1.3725(5) 0.8882(4) -0.3152(4)
C15 C 1.5064(6) 0.9141(6) -0.3484(5)
C16 C 0.8788(4) 0.9229(4) -0.3601(4)
H1 H 1.0949 0.5218 0.0414
H2 H 1.1900 0.5977 0.0300
H5 H 1.0771 0.9380 -0.2739
H6 H 0.8360 0.7161 -0.2180
H7 H 1.2673 0.7903 0.4413
H8 H 1.3651 0.8160 0.3360
H9 H 1.3164 0.6938 0.3961
H10 H 1.3023 0.7318 -0.1026
H11 H 1.3983 0.7152 0.0481
H12 H 1.3846 0.7192 0.2171
H13 H 1.0241 0.8985 0.1686
H14 H 1.0374 0.8887 0.0011
H15 H 1.3730 0.8045 -0.2908
H16 H 1.3201 0.9314 -0.3779
H17 H 1.5431 0.8903 -0.4065
H18 H 1.5577 0.8715 -0.2859
H19 H 1.5052 0.9973 -0.3743
S2 S 0.7840(1) 0.7352(1) 0.1572(1)
O2 O 1.1906(2) 0.3341(2) 0.5089(2)
N4 N 0.3983(3) 0.3853(3) 0.0967(2)
N5 N 0.6480(2) 0.5604(2) 0.4063(2)
N6 N 0.4998(2) 0.4743(2) 0.3783(2)
C17 C 0.6100(3) 0.5219(3) 0.3401(3)
C18 C 0.6792(3) 0.5299(3) 0.2387(2)
C19 C 0.6249(3) 0.4949(2) 0.1755(2)
C20 C 0.5085(3) 0.4500(3) 0.2120(3)
C21 C 0.4527(3) 0.4397(3) 0.3142(3)
C22 C 1.1918(4) 0.2128(3) 0.5826(3)
C23 C 0.8057(3) 0.5772(3) 0.1994(2)
C24 C 0.9086(3) 0.5113(3) 0.2828(2)
C25 C 1.0042(3) 0.5651(3) 0.2916(3)
C26 C 1.0956(3) 0.5045(3) 0.3669(3)
C27 C 1.0949(3) 0.3867(3) 0.4367(3)
C28 C 1.0020(3) 0.3311(3) 0.4289(3)
C29 C 0.9110(3) 0.3933(3) 0.3533(3)
C30 C 0.6853(4) 0.7848(3) 0.0425(3)
C31 C 0.6770(4) 0.9090(4) -0.0257(4)
C32 C 0.4477(3) 0.4135(3) 0.1472(3)
H3 H 0.6032 0.5536 0.4674
H4 H 0.7172 0.5918 0.3878
H20 H 0.6661 0.5012 0.1073
H21 H 0.3772 0.4065 0.3403
H22 H 1.2626 0.1861 0.6286
H23 H 1.2019 0.1670 0.5408
H24 H 1.1117 0.2037 0.6281
H25 H 0.8394 0.5640 0.1332
H26 H 1.0063 0.6444 0.2451
H27 H 1.1584 0.5429 0.3710
H28 H 1.0009 0.2515 0.4747
H29 H 0.8485 0.3545 0.3495
H30 H 0.7218 0.7421 -0.0024
H31 H 0.5988 0.7666 0.0711
H32 H 0.6239 0.9312 -0.0852
H33 H 0.7623 0.9273 -0.0555
H34 H 0.6393 0.9518 0.0179
loop_
_geom_bond_atom_site_label_1
_geom_bond_atom_site_label_2
_geom_bond_site_symmetry_1
_geom_bond_site_symmetry_2
S1 C7 1_555 1_555
S2 C23 1_555 1_555
O1 C6 1_555 1_555
O2 C22 1_555 1_555
N1 C16 1_555 1_555
N2 C1 1_555 1_555
N3 C1 1_555 1_555
N4 C32 1_555 1_555
N5 C17 1_555 1_555
N6 C17 1_555 1_555
C1 C2 1_555 1_555
C2 C3 1_555 1_555
C3 C4 1_555 1_555
C4 C5 1_555 1_555
C5 N3 1_555 1_555
C6 H7 1_555 1_555
C7 C2 1_555 1_555
C8 C7 1_555 1_555
C9 C8 1_555 1_555
C10 C9 1_555 1_555
C11 O1 1_555 1_555
C12 C11 1_555 1_555
C13 C8 1_555 1_555
C14 S1 1_555 1_555
C15 C14 1_555 1_555
C16 C4 1_555 1_555
C17 C18 1_555 1_555
C18 C19 1_555 1_555
C19 C20 1_555 1_555
C20 C21 1_555 1_555
C21 N6 1_555 1_555
C22 H22 1_555 1_555
C23 C18 1_555 1_555
C24 C23 1_555 1_555
C25 C24 1_555 1_555
C26 C25 1_555 1_555
C27 O2 1_555 1_555
C28 C27 1_555 1_555
C29 C24 1_555 1_555
C30 S2 1_555 1_555
C31 C30 1_555 1_555
C32 C20 1_555 1_555
H1 N2 1_555 1_555
H2 N2 1_555 1_555
H3 N5 1_555 1_555
H4 N5 1_555 1_555
H5 C3 1_555 1_555
H6 C5 1_555 1_555
H8 C6 1_555 1_555
H9 C6 1_555 1_555
H10 C7 1_555 1_555
H11 C9 1_555 1_555
H12 C10 1_555 1_555
H13 C12 1_555 1_555
H14 C13 1_555 1_555
H15 C14 1_555 1_555
H16 C14 1_555 1_555
H17 C15 1_555 1_555
H18 C15 1_555 1_555
H19 C15 1_555 1_555
H20 C19 1_555 1_555
H21 C21 1_555 1_555
H23 C22 1_555 1_555
H24 C22 1_555 1_555
H25 C23 1_555 1_555
H26 C25 1_555 1_555
H27 C26 1_555 1_555
H28 C28 1_555 1_555
H29 C29 1_555 1_555
H30 C30 1_555 1_555
H31 C30 1_555 1_555
H32 C31 1_555 1_555
H33 C31 1_555 1_555
H34 C31 1_555 1_555
C10 C11 1_555 1_555
C12 C13 1_555 1_555
C26 C27 1_555 1_555
C28 C29 1_555 1_555

#END
