
#######################################################################
#
#                 Cambridge Crystallographic Data Centre
#                                CCDC 
#
#######################################################################
#
# If this CIF has been generated from an entry in the Cambridge 
# Structural Database, then it will include bibliographic, chemical, 
# crystal, experimental, refinement or atomic coordinate data resulting 
# from the CCDC's data processing and validation procedures.
#
#######################################################################

data_DIYYAM
_chemical_formula_moiety         'C16 F16'
_chemical_name_systematic        Perfluoro(2.2)paracyclophane
_symmetry_cell_setting           monoclinic
_symmetry_space_group_name_H-M   'P 21/c'
_symmetry_Int_Tables_number      14
_space_group_name_Hall           '-P 2ybc'
loop_
_symmetry_equiv_pos_site_id
_symmetry_equiv_pos_as_xyz
1 x,y,z
2 -x,1/2+y,1/2-z
3 -x,-y,-z
4 x,1/2-y,1/2+z
_cell_length_a                   13.9870(6)
_cell_length_b                   8.8637(4)
_cell_length_c                   11.7764(5)
_cell_angle_alpha                90
_cell_angle_beta                 100.184(2)
_cell_angle_gamma                90
_cell_volume                     1437
_exptl_crystal_colour            colorless
_exptl_crystal_description       plate
_chemical_melting_point          '195-196 deg.C'
_cell_formula_units_Z            4
_exptl_crystal_recrystallization_method chloroform
loop_
_atom_site_label
_atom_site_type_symbol
_atom_site_fract_x
_atom_site_fract_y
_atom_site_fract_z
F1 F 0.03504(8) 1.08545(12) 0.72905(8)
F2 F 0.17863(7) 1.10634(12) 0.61254(9)
F3 F 0.06704(8) 0.66418(12) 0.40654(9)
F4 F -0.07526(8) 0.64368(12) 0.52167(9)
F5 F 0.18243(9) 0.84179(13) 0.32668(10)
F6 F 0.27179(8) 0.98466(14) 0.45148(10)
C1 C -0.01308(13) 0.75737(18) 0.54849(14)
C2 C 0.12584(12) 0.89099(19) 0.50097(14)
C3 C -0.02899(12) 0.86898(18) 0.62661(13)
C4 C 0.11981(12) 0.98633(18) 0.59325(14)
C5 C 0.04468(12) 0.97495(19) 0.65416(14)
C6 C 0.06279(13) 0.76846(18) 0.48742(14)
C7 C 0.17913(13) 0.9487(2) 0.40745(15)
F13 F -0.11986(8) 0.92665(14) 0.77263(9)
F16 F -0.18901(8) 0.78730(13) 0.63132(11)
C15 C -0.12777(13) 0.9029(2) 0.65833(15)
F1B F -0.03504(8) 0.91455(12) 0.27095(8)
F2B F -0.17863(7) 0.89366(12) 0.38746(9)
F3B F -0.06704(8) 1.33582(12) 0.59346(9)
F4B F 0.07526(8) 1.35632(12) 0.47833(9)
F5B F -0.18243(9) 1.15821(13) 0.67332(10)
F6B F -0.27179(8) 1.01534(14) 0.54852(10)
C1B C 0.01308(13) 1.24263(18) 0.45151(14)
C2B C -0.12584(12) 1.10901(19) 0.49903(14)
C3B C 0.02899(12) 1.13102(18) 0.37339(13)
C4B C -0.11981(12) 1.01367(18) 0.40675(14)
C5B C -0.04468(12) 1.02505(19) 0.34584(14)
C6B C -0.06279(13) 1.23154(18) 0.51258(14)
C7B C -0.17913(13) 1.0513(2) 0.59255(15)
F13B F 0.11986(8) 1.07335(14) 0.22737(9)
F16B F 0.18901(8) 1.21270(13) 0.36868(11)
C15B C 0.12777(13) 1.0971(2) 0.34167(15)
F7 F 0.49882(8) 0.22601(12) 0.38753(9)
F8 F 0.60057(8) 0.54695(13) 0.78091(9)
F9 F 0.36771(7) 0.27602(12) 0.51849(9)
F10 F 0.73068(7) 0.49508(13) 0.65240(9)
F11 F 0.41924(8) 0.58293(13) 0.78380(9)
F12 F 0.32797(8) 0.39399(13) 0.71811(10)
C8 C 0.39014(13) 0.4969(2) 0.68955(14)
C9 C 0.61771(12) 0.36721(19) 0.51015(14)
C10 C 0.47637(12) 0.42165(19) 0.65066(14)
C11 C 0.45790(12) 0.32575(19) 0.55553(14)
C12 C 0.64232(12) 0.43846(19) 0.61678(15)
C13 C 0.57273(13) 0.46569(19) 0.68523(14)
C14 C 0.52690(13) 0.29950(19) 0.48799(14)
F14 F 0.68652(9) 0.26189(13) 0.35722(10)
F15 F 0.75741(8) 0.45701(15) 0.44435(10)
C16 C 0.67040(13) 0.3937(2) 0.40920(15)
F7B F 0.50118(8) 0.77399(12) 0.61247(9)
F8B F 0.39943(8) 0.45305(13) 0.21909(9)
F9B F 0.63229(7) 0.72398(12) 0.48151(9)
F10B F 0.26932(7) 0.50492(13) 0.34760(9)
F11B F 0.58076(8) 0.41707(13) 0.21620(9)
F12B F 0.67203(8) 0.60601(13) 0.28189(10)
C8B C 0.60986(13) 0.5031(2) 0.31045(14)
C9B C 0.38229(12) 0.63279(19) 0.48985(14)
C10B C 0.52363(12) 0.57835(19) 0.34934(14)
C11B C 0.54210(12) 0.67425(19) 0.44447(14)
C12B C 0.35768(12) 0.56154(19) 0.38322(15)
C13B C 0.42727(13) 0.53431(19) 0.31477(14)
C14B C 0.47310(13) 0.70050(19) 0.51201(14)
F14B F 0.31348(9) 0.73811(13) 0.64278(10)
F15B F 0.24259(8) 0.54299(15) 0.55565(10)
C16B C 0.32960(13) 0.6063(2) 0.59080(15)
loop_
_geom_bond_atom_site_label_1
_geom_bond_atom_site_label_2
_geom_bond_site_symmetry_1
_geom_bond_site_symmetry_2
F1 C5 1_555 1_555
F2 C4 1_555 1_555
F3 C6 1_555 1_555
F4 C1 1_555 1_555
F5 C7 1_555 1_555
F6 C7 1_555 1_555
C1 C3 1_555 1_555
C2 C4 1_555 1_555
C3 C5 1_555 1_555
C4 C5 1_555 1_555
C6 C1 1_555 1_555
C7 C2 1_555 1_555
F7 C14 1_555 1_555
F8 C13 1_555 1_555
F9 C11 1_555 1_555
F10 C12 1_555 1_555
F11 C8 1_555 1_555
F12 C8 1_555 1_555
C8 C10 1_555 1_555
C9 C12 1_555 1_555
C10 C11 1_555 1_555
C11 C14 1_555 1_555
C12 C13 1_555 1_555
C13 C10 1_555 1_555
C14 C9 1_555 1_555
F13 C15 1_555 1_555
F14 C16 1_555 1_555
F15 C16 1_555 1_555
F16 C15 1_555 1_555
C15 C3 1_555 1_555
C16 C9 1_555 1_555
F1B C5B 1_555 1_555
F2B C4B 1_555 1_555
F3B C6B 1_555 1_555
F4B C1B 1_555 1_555
F5B C7B 1_555 1_555
F6B C7B 1_555 1_555
C1B C3B 1_555 1_555
C2B C4B 1_555 1_555
C3B C5B 1_555 1_555
C4B C5B 1_555 1_555
C6B C1B 1_555 1_555
C7B C15 1_555 1_555
F7B C14B 1_555 1_555
F8B C13B 1_555 1_555
F9B C11B 1_555 1_555
F10B C12B 1_555 1_555
F11B C8B 1_555 1_555
F12B C8B 1_555 1_555
C8B C16 1_555 1_555
C9B C12B 1_555 1_555
C10B C8B 1_555 1_555
C11B C10B 1_555 1_555
C12B C13B 1_555 1_555
C13B C10B 1_555 1_555
C14B C9B 1_555 1_555
F13B C15B 1_555 1_555
F14B C16B 1_555 1_555
F15B C16B 1_555 1_555
F16B C15B 1_555 1_555
C15B C7 1_555 1_555
C16B C8 1_555 1_555
C2 C6 1_555 1_555
C2B C6B 1_555 1_555
C2B C7B 1_555 1_555
C3B C15B 1_555 1_555
C9B C16B 1_555 1_555
C11B C14B 1_555 1_555

#END
