
#######################################################################
#
#                 Cambridge Crystallographic Data Centre
#                                CCDC 
#
#######################################################################
#
# If this CIF has been generated from an entry in the Cambridge 
# Structural Database, then it will include bibliographic, chemical, 
# crystal, experimental, refinement or atomic coordinate data resulting 
# from the CCDC's data processing and validation procedures.
#
#######################################################################

data_DIYZAN
_chemical_formula_moiety         'C18 H17 Cl1 O2'
_chemical_name_systematic        
2-(1-(2-Chlorophenyl)ethyl)-1-phenylbutane-1,3-dione
_symmetry_cell_setting           orthorhombic
_symmetry_space_group_name_H-M   'P b c a'
_symmetry_Int_Tables_number      61
_space_group_name_Hall           '-P 2ac 2ab'
loop_
_symmetry_equiv_pos_site_id
_symmetry_equiv_pos_as_xyz
1 x,y,z
2 1/2-x,-y,1/2+z
3 1/2+x,1/2-y,-z
4 -x,1/2+y,1/2-z
5 -x,-y,-z
6 1/2+x,y,1/2-z
7 1/2-x,1/2+y,z
8 x,1/2-y,1/2+z
_cell_length_a                   7.1662(2)
_cell_length_b                   11.4546(3)
_cell_length_c                   38.4210(12)
_cell_angle_alpha                90
_cell_angle_beta                 90
_cell_angle_gamma                90
_cell_volume                     3153.82
_exptl_crystal_colour            colorless
_exptl_crystal_description       prismatic
_cell_formula_units_Z            8
loop_
_atom_site_label
_atom_site_type_symbol
_atom_site_fract_x
_atom_site_fract_y
_atom_site_fract_z
Cl1 Cl 0.59407(13) 0.25339(6) 0.711088(19)
O1 O 0.8491(3) 0.25613(17) 0.59859(5)
O2 O 0.3583(3) 0.0460(2) 0.58983(5)
C1 C 0.7841(4) 0.1658(2) 0.58719(6)
C2 C 0.6637(4) 0.0881(3) 0.61052(6)
C3 C 0.4592(4) 0.1165(3) 0.60353(6)
C4 C 0.8078(3) 0.13625(19) 0.54982(6)
C5 C 0.7255(4) 0.0393(2) 0.53427(7)
C6 C 0.7402(4) 0.0208(3) 0.49899(7)
C7 C 0.8383(4) 0.0978(3) 0.47874(8)
C8 C 0.9233(4) 0.1929(3) 0.49383(8)
C9 C 0.9098(4) 0.2114(2) 0.52877(8)
C10 C 0.3893(4) 0.2339(3) 0.61388(8)
H1 H 0.2698 0.2474 0.6033
H2 H 0.4757 0.2925 0.6062
H3 H 0.3774 0.2374 0.6387
C11 C 0.7200(4) 0.1020(3) 0.64894(6)
C12 C 0.9114(5) 0.0486(4) 0.65582(11)
C13 C 0.5771(4) 0.0522(2) 0.67378(6)
C14 C 0.5081(5) -0.0607(3) 0.66980(8)
C15 C 0.3816(5) -0.1084(3) 0.69272(9)
C16 C 0.3199(5) -0.0455(4) 0.72021(9)
C17 C 0.3852(5) 0.0654(4) 0.72542(8)
C18 C 0.5127(4) 0.1123(2) 0.70247(6)
H4 H 0.680(3) 0.013(2) 0.6043(5)
H5 H 0.655(3) -0.0073(19) 0.5475(5)
H6 H 0.685(4) -0.047(2) 0.4888(6)
H7 H 0.844(3) 0.0836(19) 0.4549(6)
H8 H 0.999(4) 0.244(2) 0.4805(6)
H9 H 0.963(3) 0.2725(18) 0.5397(5)
H10 H 0.724(3) 0.186(2) 0.6530(5)
H11 H 0.551(3) -0.098(2) 0.6524(6)
H12 H 0.338(4) -0.184(3) 0.6885(7)
H13 H 0.226(4) -0.074(2) 0.7355(7)
H14 H 0.348(4) 0.109(2) 0.7436(7)
H15 H 0.959(5) 0.067(3) 0.6789(9)
H16 H 0.914(5) -0.040(3) 0.6528(9)
H17 H 1.001(4) 0.077(2) 0.6407(7)
loop_
_geom_bond_atom_site_label_1
_geom_bond_atom_site_label_2
_geom_bond_site_symmetry_1
_geom_bond_site_symmetry_2
Cl1 C18 1_555 1_555
O1 C1 1_555 1_555
O2 C3 1_555 1_555
C1 C2 1_555 1_555
C2 C3 1_555 1_555
C3 C10 1_555 1_555
C4 C1 1_555 1_555
C5 C4 1_555 1_555
C6 C5 1_555 1_555
C7 C6 1_555 1_555
C8 C7 1_555 1_555
C9 C4 1_555 1_555
C10 H1 1_555 1_555
H2 C10 1_555 1_555
H3 C10 1_555 1_555
C11 C2 1_555 1_555
C12 C11 1_555 1_555
C13 C11 1_555 1_555
C14 C13 1_555 1_555
C15 C14 1_555 1_555
C16 C15 1_555 1_555
C17 C16 1_555 1_555
C18 C13 1_555 1_555
H4 C2 1_555 1_555
H5 C5 1_555 1_555
H6 C6 1_555 1_555
H7 C7 1_555 1_555
H8 C8 1_555 1_555
H9 C9 1_555 1_555
H10 C11 1_555 1_555
H11 C14 1_555 1_555
H12 C15 1_555 1_555
H13 C16 1_555 1_555
H14 C17 1_555 1_555
H15 C12 1_555 1_555
H16 C12 1_555 1_555
H17 C12 1_555 1_555
C8 C9 1_555 1_555
C17 C18 1_555 1_555

#END
