
#######################################################################
#
#                 Cambridge Crystallographic Data Centre
#                                CCDC 
#
#######################################################################
#
# If this CIF has been generated from an entry in the Cambridge 
# Structural Database, then it will include bibliographic, chemical, 
# crystal, experimental, refinement or atomic coordinate data resulting 
# from the CCDC's data processing and validation procedures.
#
#######################################################################

data_DIYZER
_chemical_formula_moiety         'C23 H20 O2'
_chemical_name_systematic        
1,3-Diphenyl-2-(1-phenylethyl)propane-1,3-dione
_symmetry_cell_setting           orthorhombic
_symmetry_space_group_name_H-M   'P b c a'
_symmetry_Int_Tables_number      61
_space_group_name_Hall           '-P 2ac 2ab'
loop_
_symmetry_equiv_pos_site_id
_symmetry_equiv_pos_as_xyz
1 x,y,z
2 1/2-x,-y,1/2+z
3 1/2+x,1/2-y,-z
4 -x,1/2+y,1/2-z
5 -x,-y,-z
6 1/2+x,y,1/2-z
7 1/2-x,1/2+y,z
8 x,1/2-y,1/2+z
_cell_length_a                   16.9980(2)
_cell_length_b                   9.9242(3)
_cell_length_c                   21.5231(5)
_cell_angle_alpha                90
_cell_angle_beta                 90
_cell_angle_gamma                90
_cell_volume                     3630.77
_exptl_crystal_colour            colorless
_exptl_crystal_description       prismatic
_cell_formula_units_Z            8
loop_
_atom_site_label
_atom_site_type_symbol
_atom_site_fract_x
_atom_site_fract_y
_atom_site_fract_z
O1 O 0.83274(7) -0.14766(14) 0.35336(7)
O2 O 0.65841(7) -0.23011(11) 0.36618(6)
C1 C 0.78885(9) -0.06408(17) 0.37591(8)
C2 C 0.71516(8) -0.01948(15) 0.34095(7)
C3 C 0.64845(9) -0.10845(15) 0.36663(7)
C4 C 0.80307(10) -0.01090(18) 0.43983(8)
C5 C 0.75593(13) 0.0843(3) 0.46781(9)
C6 C 0.77127(17) 0.1283(3) 0.52778(11)
C7 C 0.8355(2) 0.0737(4) 0.55936(13)
C8 C 0.8842(3) -0.0180(4) 0.53064(17)
C9 C 0.86852(17) -0.0611(3) 0.47142(13)
C10 C 0.57317(9) -0.05120(16) 0.38977(7)
C11 C 0.54933(11) 0.07990(19) 0.37799(9)
C12 C 0.47572(13) 0.1232(3) 0.39714(11)
C13 C 0.42614(13) 0.0374(3) 0.42846(11)
C14 C 0.44990(13) -0.0910(3) 0.44158(10)
C15 C 0.52280(11) -0.1362(2) 0.42237(9)
C16 C 0.72174(8) -0.04315(16) 0.26979(7)
C17 C 0.79321(11) 0.0277(2) 0.24144(10)
C18 C 0.64533(9) -0.00201(15) 0.23875(6)
C19 C 0.58784(9) -0.09648(17) 0.22526(7)
C20 C 0.51680(10) -0.0579(2) 0.19905(8)
C21 C 0.50253(11) 0.0747(2) 0.18557(8)
C22 C 0.55877(11) 0.1697(2) 0.19860(8)
C23 C 0.62962(11) 0.13212(17) 0.22515(8)
H1 H 0.7045(8) 0.0759(15) 0.3483(6)
H2 H 0.7121(13) 0.120(2) 0.4478(10)
H3 H 0.7393(12) 0.201(2) 0.5424(11)
H4 H 0.8409(18) 0.107(3) 0.5993(16)
H5 H 0.937(2) -0.052(3) 0.5517(16)
H6 H 0.9055(17) -0.137(3) 0.4490(13)
H7 H 0.5855(11) 0.141(2) 0.3549(9)
H8 H 0.4615(15) 0.215(3) 0.3886(11)
H9 H 0.3743(15) 0.072(2) 0.4416(11)
H10 H 0.4144(15) -0.151(2) 0.4640(11)
H11 H 0.5430(11) -0.231(2) 0.4318(9)
H12 H 0.7292(9) -0.1408(16) 0.2641(7)
H13 H 0.7931(13) 0.019(2) 0.1964(11)
H14 H 0.8444(14) -0.015(2) 0.2557(10)
H15 H 0.7962(14) 0.126(3) 0.2534(12)
H16 H 0.5974(9) -0.1901(18) 0.2341(7)
H17 H 0.4792(11) -0.1245(19) 0.1912(9)
H18 H 0.4547(12) 0.0998(19) 0.1678(9)
H19 H 0.5497(11) 0.264(2) 0.1901(9)
H20 H 0.6670(11) 0.2032(19) 0.2351(8)
loop_
_geom_bond_atom_site_label_1
_geom_bond_atom_site_label_2
_geom_bond_site_symmetry_1
_geom_bond_site_symmetry_2
O1 C1 1_555 1_555
O2 C3 1_555 1_555
C1 C2 1_555 1_555
C2 C3 1_555 1_555
C3 C10 1_555 1_555
C4 C1 1_555 1_555
C5 C4 1_555 1_555
C6 C5 1_555 1_555
C7 C6 1_555 1_555
C8 C7 1_555 1_555
C9 C4 1_555 1_555
C10 C11 1_555 1_555
C11 C12 1_555 1_555
C12 C13 1_555 1_555
C13 C14 1_555 1_555
C14 C15 1_555 1_555
C15 C10 1_555 1_555
C16 C2 1_555 1_555
C17 C16 1_555 1_555
C18 C16 1_555 1_555
C19 C18 1_555 1_555
C20 C19 1_555 1_555
C21 C20 1_555 1_555
C22 C21 1_555 1_555
C23 C18 1_555 1_555
H1 C2 1_555 1_555
H2 C5 1_555 1_555
H3 C6 1_555 1_555
H4 C7 1_555 1_555
H5 C8 1_555 1_555
H6 C9 1_555 1_555
H7 C11 1_555 1_555
H8 C12 1_555 1_555
H9 C13 1_555 1_555
H10 C14 1_555 1_555
H11 C15 1_555 1_555
H12 C16 1_555 1_555
H13 C17 1_555 1_555
H14 C17 1_555 1_555
H15 C17 1_555 1_555
H16 C19 1_555 1_555
H17 C20 1_555 1_555
H18 C21 1_555 1_555
H19 C22 1_555 1_555
H20 C23 1_555 1_555
C8 C9 1_555 1_555
C22 C23 1_555 1_555

#END
