
#######################################################################
#
#                 Cambridge Crystallographic Data Centre
#                                CCDC 
#
#######################################################################
#
# If this CIF has been generated from an entry in the Cambridge 
# Structural Database, then it will include bibliographic, chemical, 
# crystal, experimental, refinement or atomic coordinate data resulting 
# from the CCDC's data processing and validation procedures.
#
#######################################################################

data_DIZNOQ
_chemical_formula_moiety         'C15 H18 Cl1 N3 O2'
_chemical_name_systematic        
N^\a^-Acetyl-N-ethyl-5-chloro-D,L-tryptophanamide
_symmetry_cell_setting           monoclinic
_symmetry_space_group_name_H-M   'P 21/c'
_symmetry_Int_Tables_number      14
_space_group_name_Hall           '-P 2ybc'
loop_
_symmetry_equiv_pos_site_id
_symmetry_equiv_pos_as_xyz
1 x,y,z
2 -x,1/2+y,1/2-z
3 -x,-y,-z
4 x,1/2-y,1/2+z
_cell_length_a                   8.9212(8)
_cell_length_b                   12.8338(12)
_cell_length_c                   14.5035(13)
_cell_angle_alpha                90
_cell_angle_beta                 106.49(1)
_cell_angle_gamma                90
_cell_volume                     1592.25
_exptl_crystal_colour            'pale yellow'
_exptl_crystal_description       plate
_chemical_melting_point          '465 K'
_cell_formula_units_Z            4
loop_
_atom_site_label
_atom_site_type_symbol
_atom_site_fract_x
_atom_site_fract_y
_atom_site_fract_z
Cl1 Cl 0.05344(14) 0.58767(11) 0.19000(11)
O1 O 0.9236(3) 0.6007(2) 0.5796(2)
O2 O 0.6445(3) 0.3330(2) 0.5594(2)
N1 N 0.5995(4) 0.3438(3) 0.1757(3)
H1 H 0.620(6) 0.298(4) 0.139(4)
N2 N 0.8075(4) 0.4118(2) 0.4884(2)
H2 H 0.884(4) 0.407(3) 0.476(3)
N3 N 0.6762(5) 0.6499(3) 0.5626(3)
H3 H 0.595(5) 0.645(3) 0.536(3)
C1 C 0.7819(4) 0.5896(3) 0.5414(3)
C2 C 0.7109(5) 0.3941(3) 0.2463(3)
H4 H 0.8187 0.3762 0.2652
C3 C 0.6483(5) 0.4726(3) 0.2864(3)
C4 C 0.3576(5) 0.5319(3) 0.2448(3)
H5 H 0.3715 0.5855 0.2917
C5 C 0.2138(5) 0.5120(3) 0.1826(3)
C6 C 0.1880(5) 0.4355(3) 0.1118(3)
H6 H 0.0868 0.4265 0.0684
C7 C 0.3103(5) 0.3725(3) 0.1049(3)
H7 H 0.2943 0.3186 0.0583
C8 C 0.4568(5) 0.3903(3) 0.1681(3)
C9 C 0.4833(5) 0.4715(3) 0.2379(3)
C10 C 0.7286(5) 0.5447(3) 0.3654(3)
H8 H 0.6806 0.6147 0.3521
H9 H 0.8397 0.5510 0.3664
C11 C 0.7205(4) 0.5082(3) 0.4647(3)
H10 H 0.6087 0.4940 0.4609
C12 C 0.7167(5) 0.7317(3) 0.6349(3)
H11 H 0.7973 0.7776 0.6215
H12 H 0.7610 0.7001 0.6992
C13 C 0.5744(6) 0.7951(4) 0.6347(4)
H13 H 0.6034 0.8489 0.6845
H14 H 0.4946 0.7495 0.6476
H15 H 0.5328 0.8282 0.5717
C14 C 0.7667(4) 0.3329(3) 0.5335(3)
C15 C 0.8739(5) 0.2403(3) 0.5519(4)
H16 H 0.8139 0.1773 0.5271
H17 H 0.9224 0.2328 0.6213
H18 H 0.9554 0.2503 0.5195
loop_
_geom_bond_atom_site_label_1
_geom_bond_atom_site_label_2
_geom_bond_site_symmetry_1
_geom_bond_site_symmetry_2
Cl1 C5 1_555 1_555
O1 C1 1_555 1_555
O2 C14 1_555 1_555
N1 H1 1_555 1_555
N2 H2 1_555 1_555
N3 H3 1_555 1_555
C1 N3 1_555 1_555
C2 N1 1_555 1_555
H4 C2 1_555 1_555
C3 C2 1_555 1_555
C4 H5 1_555 1_555
C5 C4 1_555 1_555
C6 C5 1_555 1_555
H6 C6 1_555 1_555
C7 C6 1_555 1_555
H7 C7 1_555 1_555
C8 N1 1_555 1_555
C9 C3 1_555 1_555
C10 C3 1_555 1_555
H8 C10 1_555 1_555
H9 C10 1_555 1_555
C11 N2 1_555 1_555
H10 C11 1_555 1_555
C12 N3 1_555 1_555
H11 C12 1_555 1_555
H12 C12 1_555 1_555
C13 C12 1_555 1_555
H13 C13 1_555 1_555
H14 C13 1_555 1_555
H15 C13 1_555 1_555
C14 N2 1_555 1_555
C15 C14 1_555 1_555
H16 C15 1_555 1_555
H17 C15 1_555 1_555
H18 C15 1_555 1_555
C1 C11 1_555 1_555
C4 C9 1_555 1_555
C7 C8 1_555 1_555
C8 C9 1_555 1_555
C10 C11 1_555 1_555

#END
