
#######################################################################
#
#                 Cambridge Crystallographic Data Centre
#                                CCDC 
#
#######################################################################
#
# If this CIF has been generated from an entry in the Cambridge 
# Structural Database, then it will include bibliographic, chemical, 
# crystal, experimental, refinement or atomic coordinate data resulting 
# from the CCDC's data processing and validation procedures.
#
#######################################################################

data_DIZPEH
_chemical_compound_source        'roots of Bauhinia championii (Leguminosae)'
_chemical_name_common            'Bauhinin dihydrate'
_chemical_formula_moiety         'C15 H21 N1 O8,2(H2 O1)'
_chemical_name_systematic        
'(Z)-6\b-(\b-D-Glucosyloxy)-4\b-methoxy-5\a-hydroxycyclohex-2-ene-\D^1,\a^-acetonitrile dihydrate'
_symmetry_cell_setting           monoclinic
_symmetry_space_group_name_H-M   'P 21'
_symmetry_Int_Tables_number      4
_space_group_name_Hall           'P 2yb'
loop_
_symmetry_equiv_pos_site_id
_symmetry_equiv_pos_as_xyz
1 x,y,z
2 -x,1/2+y,-z
_cell_length_a                   11.729(1)
_cell_length_b                   14.205(1)
_cell_length_c                   5.784(1)
_cell_angle_alpha                90
_cell_angle_beta                 105.92(1)
_cell_angle_gamma                90
_cell_volume                     926.714
_exptl_crystal_colour            colorless
_chemical_melting_point          213-214deg.C
_cell_formula_units_Z            2
loop_
_atom_site_label
_atom_site_type_symbol
_atom_site_fract_x
_atom_site_fract_y
_atom_site_fract_z
C1 C 0.40586(21) 0.07253(19) 0.51615(44)
C2 C 0.49256(24) 0.11571(23) 0.71798(55)
C3 C 0.46264(24) 0.18259(22) 0.85285(51)
C4 C 0.34095(23) 0.22118(19) 0.80753(43)
C5 C 0.26615(19) 0.19834(18) 0.55287(40)
C6 C 0.27904(19) 0.09356(17) 0.50127(40)
C7 C 0.44663(22) 0.01927(22) 0.36309(51)
C8 C 0.38041(23) -0.02737(22) 0.15009(50)
N1 N 0.33913(24) -0.06731(21) -0.02601(44)
O1 O 0.34378(20) 0.32128(14) 0.83036(33)
C9 C 0.37282(32) 0.35438(25) 1.07236(54)
O2 O 0.14525(15) 0.22041(13) 0.52552(31)
C10 C 0.11934(19) 0.00000 0.27444(40)
C11 C 0.04373(19) -0.01282(17) 0.01603(41)
C12 C -0.03447(18) -0.09892(17) -0.00602(41)
C13 C 0.03415(19) -0.18534(17) 0.10786(40)
C14 C 0.10924(22) -0.16361(17) 0.36175(41)
C15 C 0.19298(31) -0.24276(20) 0.46495(52)
O3 O 0.18268(14) -0.08351(12) 0.35865(28)
O4 O 0.20275(13) 0.07002(12) 0.27154(26)
O5 O -0.03309(15) 0.06449(13) -0.06283(37)
O6 O -0.08854(16) -0.12098(14) -0.25135(32)
O7 O -0.04512(16) -0.26145(13) 0.10398(32)
O8 O 0.24414(26) -0.23310(16) 0.71823(38)
H1 H 0.578(2) 0.095(2) 0.753(5)
H2 H 0.520(3) 0.211(3) 0.976(6)
H3 H 0.296(3) 0.196(2) 0.931(5)
H4 H 0.299(2) 0.237(2) 0.433(5)
H5 H 0.538(2) 0.014(2) 0.405(5)
H6 H 0.375(3) 0.422(4) 1.064(7)
H7 H 0.304(4) 0.335(3) 1.138(7)
H8 H 0.450(4) 0.324(4) 1.169(8)
H9 H 0.119(3) 0.261(3) 0.418(5)
H10 H 0.070(2) 0.021(2) 0.378(4)
H11 H 0.101(2) -0.022(2) -0.079(5)
H12 H -0.096(2) -0.089(2) 0.078(4)
H13 H 0.091(2) -0.204(2) 0.020(5)
H14 H 0.054(2) -0.149(2) 0.461(5)
H15 H 0.254(3) -0.242(2) 0.387(5)
H16 H 0.150(2) -0.300(2) 0.454(5)
H17 H 0.007(2) 0.111(2) -0.051(5)
H18 H -0.137(3) -0.074(3) -0.319(5)
H19 H -0.078(3) -0.257(3) 0.213(7)
H20 H 0.275(3) -0.178(3) 0.765(6)
O9 O -0.26253(20) -0.02185(19) -0.53913(44)
H21 H -0.293(4) -0.077(4) -0.607(9)
H22 H -0.242(7) 0.028(6) -0.626(14)
O10 O 0.23710(20) -0.40827(17) 0.90753(42)
H23 H 0.164(4) -0.409(4) 0.947(7)
H24 H 0.237(3) -0.354(3) 0.871(6)
loop_
_geom_bond_atom_site_label_1
_geom_bond_atom_site_label_2
_geom_bond_site_symmetry_1
_geom_bond_site_symmetry_2
C1 C2 1_555 1_555
C2 C3 1_555 1_555
C3 C4 1_555 1_555
C4 C5 1_555 1_555
C5 C6 1_555 1_555
C6 C1 1_555 1_555
C7 C1 1_555 1_555
C8 C7 1_555 1_555
N1 C8 1_555 1_555
O1 C4 1_555 1_555
C9 O1 1_555 1_555
O2 C5 1_555 1_555
C10 C11 1_555 1_555
C11 C12 1_555 1_555
C12 C13 1_555 1_555
C13 C14 1_555 1_555
C14 C15 1_555 1_555
C15 O8 1_555 1_555
O3 C10 1_555 1_555
O4 C6 1_555 1_555
O5 C11 1_555 1_555
O6 C12 1_555 1_555
O7 C13 1_555 1_555
O8 H20 1_555 1_555
H1 C2 1_555 1_555
H2 C3 1_555 1_555
H3 C4 1_555 1_555
H4 C5 1_555 1_555
H5 C7 1_555 1_555
H6 C9 1_555 1_555
H7 C9 1_555 1_555
H8 C9 1_555 1_555
H9 O2 1_555 1_555
H10 C10 1_555 1_555
H11 C11 1_555 1_555
H12 C12 1_555 1_555
H13 C13 1_555 1_555
H14 C14 1_555 1_555
H15 C15 1_555 1_555
H16 C15 1_555 1_555
H17 O5 1_555 1_555
H18 O6 1_555 1_555
H19 O7 1_555 1_555
O9 H21 1_555 1_555
H22 O9 1_555 1_555
O10 H23 1_555 1_555
H24 O10 1_555 1_555
C10 O4 1_555 1_555
C14 O3 1_555 1_555

#END
