
#######################################################################
#
#                 Cambridge Crystallographic Data Centre
#                                CCDC 
#
#######################################################################
#
# If this CIF has been generated from an entry in the Cambridge 
# Structural Database, then it will include bibliographic, chemical, 
# crystal, experimental, refinement or atomic coordinate data resulting 
# from the CCDC's data processing and validation procedures.
#
#######################################################################

data_DLABUT02
_chemical_formula_moiety         'C4 H9 N1 O2'
_chemical_name_systematic        'DL-\a-Amino-n-butyric acid'
_symmetry_cell_setting           monoclinic
_symmetry_space_group_name_H-M   'I 2/a'
_symmetry_Int_Tables_number      15
_space_group_name_Hall           '-I 2ya'
loop_
_symmetry_equiv_pos_site_id
_symmetry_equiv_pos_as_xyz
1 x,y,z
2 1/2+x,1/2+y,1/2+z
3 1/2-x,y,-z
4 -x,1/2+y,1/2-z
5 -x,-y,-z
6 1/2-x,1/2-y,1/2-z
7 1/2+x,-y,z
8 x,1/2-y,1/2+z
_cell_length_a                   9.8(1)
_cell_length_b                   4.7(1)
_cell_length_c                   23.1(1)
_cell_angle_alpha                90
_cell_angle_beta                 94.0(5)
_cell_angle_gamma                90
_cell_volume                     1061.39
_cell_formula_units_Z            8
loop_
_atom_site_label
_atom_site_type_symbol
_atom_site_fract_x
_atom_site_fract_y
_atom_site_fract_z
C1 C 0.36000 0.41000 0.06900
C2 C 0.25000 0.57000 0.10200
C3 C 0.24000 0.51000 0.15500
C4 C 0.37000 0.55000 0.19800
N1 N 0.11000 0.60000 0.06700
O1 O 0.49000 0.45000 0.08000
O2 O 0.30000 0.20000 0.04800
N1F N 0.61000 0.40000 0.06700
O1F O -0.01000 0.55000 0.08000
loop_
_geom_bond_atom_site_label_1
_geom_bond_atom_site_label_2
_geom_bond_site_symmetry_1
_geom_bond_site_symmetry_2
C1 C2 1_555 1_555
C2 C3 1_555 1_555
C3 C4 1_555 1_555
N1 C2 1_555 1_555
O1 C1 1_555 1_555
O2 C1 1_555 1_555
N1F O1 1_555 1_555
O1F N1 1_555 1_555

#END
