
#######################################################################
#
#                 Cambridge Crystallographic Data Centre
#                                CCDC 
#
#######################################################################
#
# If this CIF has been generated from an entry in the Cambridge 
# Structural Database, then it will include bibliographic, chemical, 
# crystal, experimental, refinement or atomic coordinate data resulting 
# from the CCDC's data processing and validation procedures.
#
#######################################################################

data_DLMAND01
_chemical_name_common            'Mandelic acid'
_chemical_formula_moiety         'C8 H8 O3'
_chemical_name_systematic        '\a-Hydroxyphenylacetic acid'
_symmetry_cell_setting           orthorhombic
_symmetry_space_group_name_H-M   'P b c a'
_symmetry_Int_Tables_number      61
_space_group_name_Hall           '-P 2ac 2ab'
loop_
_symmetry_equiv_pos_site_id
_symmetry_equiv_pos_as_xyz
1 x,y,z
2 1/2-x,-y,1/2+z
3 1/2+x,1/2-y,-z
4 -x,1/2+y,1/2-z
5 -x,-y,-z
6 1/2+x,y,1/2-z
7 1/2-x,1/2+y,z
8 x,1/2-y,1/2+z
_cell_length_a                   9.669(2)
_cell_length_b                   16.183(3)
_cell_length_c                   9.953(2)
_cell_angle_alpha                90
_cell_angle_beta                 90
_cell_angle_gamma                90
_cell_volume                     1557.38
_cell_formula_units_Z            8
loop_
_atom_site_label
_atom_site_type_symbol
_atom_site_fract_x
_atom_site_fract_y
_atom_site_fract_z
O1 O 0.36420 -0.45760 0.43240
O2 O 0.15000 -0.50580 0.41740
O3 O 0.11230 -0.48410 0.68660
C1 C 0.24000 -0.47160 0.48110
C2 C 0.22120 -0.44060 0.62060
C3 C 0.20000 -0.34760 0.62350
C4 C 0.28160 -0.29760 0.70040
C5 C 0.26220 -0.21480 0.70430
C6 C 0.16040 -0.17940 0.62810
C7 C 0.07760 -0.22740 0.55380
C8 C 0.09670 -0.31110 0.54900
H1 H 0.36300 -0.47400 0.34000
H2 H 0.29600 -0.45300 0.66700
H3 H 0.03700 -0.49300 0.64500
H4 H 0.34200 -0.32600 0.75700
H5 H 0.31800 -0.17700 0.76000
H6 H 0.14100 -0.12700 0.63500
H7 H 0.00500 -0.19800 0.50400
H8 H 0.04100 -0.34500 0.50400
loop_
_geom_bond_atom_site_label_1
_geom_bond_atom_site_label_2
_geom_bond_site_symmetry_1
_geom_bond_site_symmetry_2
O1 C1 1_555 1_555
O2 C1 1_555 1_555
O3 C2 1_555 1_555
C1 C2 1_555 1_555
C2 C3 1_555 1_555
C3 C4 1_555 1_555
C4 C5 1_555 1_555
C5 C6 1_555 1_555
C6 C7 1_555 1_555
C7 C8 1_555 1_555
C8 C3 1_555 1_555
H1 O1 1_555 1_555
H2 C2 1_555 1_555
H3 O3 1_555 1_555
H4 C4 1_555 1_555
H5 C5 1_555 1_555
H6 C6 1_555 1_555
H7 C7 1_555 1_555
H8 C8 1_555 1_555

#END
