
#######################################################################
#
#                 Cambridge Crystallographic Data Centre
#                                CCDC 
#
#######################################################################
#
# If this CIF has been generated from an entry in the Cambridge 
# Structural Database, then it will include bibliographic, chemical, 
# crystal, experimental, refinement or atomic coordinate data resulting 
# from the CCDC's data processing and validation procedures.
#
#######################################################################

data_DMIQUC
_chemical_formula_moiety         'C17 H25 N2 O1 1+,Cl1 1-,H2 O1'
_chemical_name_systematic        'Dimethisoquin hydrochloride monohydrate'
_symmetry_cell_setting           triclinic
_symmetry_space_group_name_H-M   'P -1'
_symmetry_Int_Tables_number      2
_space_group_name_Hall           '-P 1'
loop_
_symmetry_equiv_pos_site_id
_symmetry_equiv_pos_as_xyz
1 x,y,z
2 -x,-y,-z
_cell_length_a                   5.338(6)
_cell_length_b                   7.579(8)
_cell_length_c                   22.336(24)
_cell_angle_alpha                85.513(1)
_cell_angle_beta                 87.447(1)
_cell_angle_gamma                84.463(1)
_cell_volume                     896.045
_cell_formula_units_Z            2
loop_
_atom_site_label
_atom_site_type_symbol
_atom_site_fract_x
_atom_site_fract_y
_atom_site_fract_z
C1 C 0.18590 0.79870 0.26740
N1 N 0.19520 0.65130 0.29990
C2 C 0.01390 0.63210 0.34540
C3 C -0.17350 0.76240 0.35540
C4 C -0.18340 0.92200 0.31900
C5 C -0.38200 1.06270 0.32610
C6 C -0.38580 1.21480 0.28820
C7 C -0.19590 1.23890 0.24290
C8 C -0.00110 1.10260 0.23420
C9 C 0.00050 0.94790 0.27330
O1 O 0.35620 0.82530 0.22180
C10 C 0.53760 0.67660 0.21110
C11 C 0.69460 0.73090 0.15550
N2 N 0.56260 0.72250 0.09760
C12 C 0.74450 0.71580 0.04490
C13 C 0.36240 0.86920 0.08590
C14 C 0.04610 0.45220 0.38120
C15 C -0.16050 0.42010 0.42880
C16 C -0.11000 0.23380 0.46370
C17 C -0.31470 0.20590 0.51200
H1 H -0.27900 0.74200 0.38200
H2 H -0.49000 1.04900 0.35900
H3 H -0.48900 1.30100 0.29300
H4 H -0.19600 1.34700 0.21700
H5 H 0.11900 1.12100 0.20700
H6 H 0.45700 0.57800 0.20200
H7 H 0.65200 0.65600 0.24500
H8 H 0.74600 0.86000 0.15500
H9 H 0.83600 0.65100 0.15500
H10 H 0.47800 0.62100 0.10400
H11 H 0.81400 0.82400 0.04000
H12 H 0.88400 0.61900 0.05200
H13 H 0.65800 0.68800 0.01000
H14 H 0.43500 0.98400 0.08600
H15 H 0.23500 0.86300 0.11900
H16 H 0.29600 0.85600 0.05000
H17 H 0.05900 0.35400 0.35500
H18 H 0.19500 0.44200 0.39800
H19 H -0.31900 0.43200 0.40600
H20 H -0.15600 0.50000 0.46000
H21 H -0.10900 0.14500 0.43300
H22 H 0.04100 0.23700 0.48400
H23 H -0.28500 0.09700 0.53100
H24 H -0.34300 0.30100 0.54100
H25 H -0.47600 0.21900 0.48500
Cl1 Cl 0.28300 0.38480 0.11130
O2 O 0.81940 0.17420 0.06970
H26 H 0.80600 0.25100 0.06100
H27 H 0.93800 0.22600 0.08500
loop_
_geom_bond_atom_site_label_1
_geom_bond_atom_site_label_2
_geom_bond_site_symmetry_1
_geom_bond_site_symmetry_2
C1 N1 1_555 1_555
N1 C2 1_555 1_555
C2 C3 1_555 1_555
C3 C4 1_555 1_555
C4 C5 1_555 1_555
C5 C6 1_555 1_555
C6 C7 1_555 1_555
C7 C8 1_555 1_555
C8 C9 1_555 1_555
C9 C1 1_555 1_555
O1 C1 1_555 1_555
C10 O1 1_555 1_555
C11 C10 1_555 1_555
N2 C11 1_555 1_555
C12 N2 1_555 1_555
C13 N2 1_555 1_555
C14 C2 1_555 1_555
C15 C14 1_555 1_555
C16 C15 1_555 1_555
C17 C16 1_555 1_555
O2 H26 1_555 1_555
H1 C3 1_555 1_555
H2 C5 1_555 1_555
H3 C6 1_555 1_555
H4 C7 1_555 1_555
H5 C8 1_555 1_555
H6 C10 1_555 1_555
H7 C10 1_555 1_555
H8 C11 1_555 1_555
H9 C11 1_555 1_555
H10 N2 1_555 1_555
H11 C12 1_555 1_555
H12 C12 1_555 1_555
H13 C12 1_555 1_555
H14 C13 1_555 1_555
H15 C13 1_555 1_555
H16 C13 1_555 1_555
H17 C14 1_555 1_555
H18 C14 1_555 1_555
H19 C15 1_555 1_555
H20 C15 1_555 1_555
H21 C16 1_555 1_555
H22 C16 1_555 1_555
H23 C17 1_555 1_555
H24 C17 1_555 1_555
H25 C17 1_555 1_555
H27 O2 1_555 1_555
C4 C9 1_555 1_555

#END
