
#######################################################################
#
#                 Cambridge Crystallographic Data Centre
#                                CCDC 
#
#######################################################################
#
# If this CIF has been generated from an entry in the Cambridge 
# Structural Database, then it will include bibliographic, chemical, 
# crystal, experimental, refinement or atomic coordinate data resulting 
# from the CCDC's data processing and validation procedures.
#
#######################################################################

data_DMSARS01
_chemical_name_common            'Cacodyl disulfide'
_chemical_formula_moiety         'C4 H12 As2 S2'
_chemical_name_systematic        'Dimethylarsino dimethyldithioarsinate'
_symmetry_cell_setting           triclinic
_symmetry_space_group_name_H-M   'P -1'
_symmetry_Int_Tables_number      2
_space_group_name_Hall           '-P 1'
loop_
_symmetry_equiv_pos_site_id
_symmetry_equiv_pos_as_xyz
1 x,y,z
2 -x,-y,-z
_cell_length_a                   6.2765(5)
_cell_length_b                   7.0576(6)
_cell_length_c                   11.1732(9)
_cell_angle_alpha                100.432(2)
_cell_angle_beta                 95.402(2)
_cell_angle_gamma                90.312(2)
_cell_volume                     484.469
_exptl_crystal_colour            colorless
_exptl_crystal_description       plate
_chemical_melting_point          '70-72 deg.C'
_cell_formula_units_Z            2
_exptl_crystal_recrystallization_method ethanol
loop_
_atom_site_label
_atom_site_type_symbol
_atom_site_fract_x
_atom_site_fract_y
_atom_site_fract_z
As1 As 0.68724(4) 0.77592(3) 0.63061(2)
As2 As 0.63064(4) 1.06189(3) 0.89891(2)
S1 S 0.35567(9) 0.75613(9) 0.63264(6)
S2 S 0.82635(10) 1.05211(9) 0.73631(5)
C1 C 0.8280(4) 0.5743(4) 0.7005(3)
H1 H 0.7777 0.4487 0.6533
H2 H 0.7949 0.5841 0.7854
H3 H 0.9831 0.5875 0.6986
C2 C 0.7881(4) 0.7732(4) 0.4733(2)
H4 H 0.9445 0.7872 0.4825
H5 H 0.7259 0.8802 0.4380
H6 H 0.7454 0.6509 0.4192
C3 C 0.4151(4) 1.2470(4) 0.8602(2)
H7 H 0.3519 1.3049 0.9348
H8 H 0.3029 1.1805 0.8001
H9 H 0.4829 1.3482 0.8262
C4 C 0.8273(4) 1.2438(4) 1.0115(2)
H10 H 0.8542 1.3562 0.9744
H11 H 0.9627 1.1805 1.0281
H12 H 0.7630 1.2855 1.0883
loop_
_geom_bond_atom_site_label_1
_geom_bond_atom_site_label_2
_geom_bond_site_symmetry_1
_geom_bond_site_symmetry_2
As1 S1 1_555 1_555
As2 S2 1_555 1_555
S2 As1 1_555 1_555
C1 As1 1_555 1_555
H1 C1 1_555 1_555
H2 C1 1_555 1_555
H3 C1 1_555 1_555
C2 As1 1_555 1_555
H4 C2 1_555 1_555
H5 C2 1_555 1_555
H6 C2 1_555 1_555
C3 As2 1_555 1_555
H7 C3 1_555 1_555
H8 C3 1_555 1_555
H9 C3 1_555 1_555
C4 As2 1_555 1_555
H10 C4 1_555 1_555
H11 C4 1_555 1_555
H12 C4 1_555 1_555

#END
