
#######################################################################
#
#                 Cambridge Crystallographic Data Centre
#                                CCDC 
#
#######################################################################
#
# If this CIF has been generated from an entry in the Cambridge 
# Structural Database, then it will include bibliographic, chemical, 
# crystal, experimental, refinement or atomic coordinate data resulting 
# from the CCDC's data processing and validation procedures.
#
#######################################################################

data_DMSULO05
_chemical_name_common            (methylsulfonyl)methane
_chemical_formula_moiety         'C2 H6 O2 S1'
_chemical_name_systematic        methanesulfonylmethane
_symmetry_cell_setting           orthorhombic
_symmetry_space_group_name_H-M   'C m c m'
_symmetry_Int_Tables_number      63
_space_group_name_Hall           '-C 2n 2'
loop_
_symmetry_equiv_pos_site_id
_symmetry_equiv_pos_as_xyz
1 x,y,z
2 -x,-y,1/2+z
3 -x,y,1/2-z
4 x,-y,-z
5 1/2+x,1/2+y,z
6 1/2-x,1/2-y,1/2+z
7 1/2-x,1/2+y,1/2-z
8 1/2+x,1/2-y,-z
9 -x,-y,-z
10 x,y,1/2-z
11 x,-y,1/2+z
12 -x,y,z
13 1/2-x,1/2-y,-z
14 1/2+x,1/2+y,1/2-z
15 1/2+x,1/2-y,1/2+z
16 1/2-x,1/2+y,z
_cell_length_a                   7.18090(10)
_cell_length_b                   7.96220(10)
_cell_length_c                   7.21190(10)
_cell_angle_alpha                90
_cell_angle_beta                 90
_cell_angle_gamma                90
_cell_volume                     412.346
_exptl_crystal_colour            colorless
_exptl_crystal_description       block
_cell_formula_units_Z            4
loop_
_atom_site_label
_atom_site_type_symbol
_atom_site_fract_x
_atom_site_fract_y
_atom_site_fract_z
S1 S 0.000 0.146712(5) 0.250
O1 O 0.17151(12) 0.05136(9) 0.250
C1 C 0.000 0.28277(2) 0.44199(3)
H1 H 0.124951 0.358493 0.432867
H2 H 0.000 0.195067 0.555495
O1B O -0.17151(12) 0.05136(9) 0.250
C1B C 0.000 0.28277(2) 0.05801(3)
H1B H -0.124951 0.358493 0.067133
H2B H 0.000 0.195067 -0.055495
H1I H 0.124951 0.358493 0.067133
H1K H -0.124951 0.358493 0.432867
loop_
_geom_bond_atom_site_label_1
_geom_bond_atom_site_label_2
_geom_bond_site_symmetry_1
_geom_bond_site_symmetry_2
S1 O1 1_555 1_555
C1 S1 1_555 1_555
H1 C1 1_555 1_555
H2 C1 1_555 1_555
O1B S1 1_555 1_555
C1B S1 1_555 1_555
H1B C1B 1_555 1_555
H2B C1B 1_555 1_555
H1I C1B 1_555 1_555
H1K C1 1_555 1_555

#END
