
#######################################################################
#
#                 Cambridge Crystallographic Data Centre
#                                CCDC 
#
#######################################################################
#
# If this CIF has been generated from an entry in the Cambridge 
# Structural Database, then it will include bibliographic, chemical, 
# crystal, experimental, refinement or atomic coordinate data resulting 
# from the CCDC's data processing and validation procedures.
#
#######################################################################

data_DMTHAN
_chemical_formula_moiety         'C6 H12 S2'
_chemical_name_systematic        r-4,c-6-Dimethyl-1,3-dithiane
_symmetry_cell_setting           monoclinic
_symmetry_space_group_name_H-M   'C 2/c'
_symmetry_Int_Tables_number      15
_space_group_name_Hall           '-C 2yn'
loop_
_symmetry_equiv_pos_site_id
_symmetry_equiv_pos_as_xyz
1 x,y,z
2 1/2+x,1/2+y,z
3 -x,y,1/2-z
4 1/2-x,1/2+y,1/2-z
5 -x,-y,-z
6 1/2-x,1/2-y,-z
7 x,-y,1/2+z
8 1/2+x,1/2-y,1/2+z
_cell_length_a                   20.08(1)
_cell_length_b                   5.71(1)
_cell_length_c                   15.69(1)
_cell_angle_alpha                90
_cell_angle_beta                 118.4(1)
_cell_angle_gamma                90
_cell_volume                     1582.46
_cell_formula_units_Z            8
loop_
_atom_site_label
_atom_site_type_symbol
_atom_site_fract_x
_atom_site_fract_y
_atom_site_fract_z
C1 C 0.21760 0.11560 0.11470
C2 C 0.13890 -0.22980 -0.01810
C3 C 0.09030 -0.26050 0.03180
C4 C 0.12810 -0.21310 0.13950
C5 C 0.09660 -0.29680 -0.12410
C6 C 0.07600 -0.26850 0.18210
H1 H 0.26100 0.00000 0.14800
H2 H 0.24100 0.26800 0.12900
H3 H 0.18400 -0.32800 0.01500
H4 H 0.07700 -0.43400 0.02400
H5 H 0.04600 -0.17200 0.00000
H6 H 0.17100 -0.30900 0.16900
H7 H 0.12500 -0.28400 -0.15600
H8 H 0.08300 -0.45500 -0.12900
H9 H 0.05100 -0.20500 -0.15600
H10 H 0.10100 -0.23100 0.25600
H11 H 0.06200 -0.44000 0.16400
H12 H 0.02800 -0.18400 0.14800
S1 S 0.15760 0.09140 0.16980
S2 S 0.17030 0.07110 -0.01390
loop_
_geom_bond_atom_site_label_1
_geom_bond_atom_site_label_2
_geom_bond_site_symmetry_1
_geom_bond_site_symmetry_2
C1 H1 1_555 1_555
C2 C3 1_555 1_555
C3 C4 1_555 1_555
C4 C6 1_555 1_555
C5 C2 1_555 1_555
C6 H10 1_555 1_555
H2 C1 1_555 1_555
H3 C2 1_555 1_555
H4 C3 1_555 1_555
H5 C3 1_555 1_555
H6 C4 1_555 1_555
H7 C5 1_555 1_555
H8 C5 1_555 1_555
H9 C5 1_555 1_555
H11 C6 1_555 1_555
H12 C6 1_555 1_555
S1 C1 1_555 1_555
S2 C1 1_555 1_555
C2 S2 1_555 1_555
C4 S1 1_555 1_555

#END
