
#######################################################################
#
#                 Cambridge Crystallographic Data Centre
#                                CCDC 
#
#######################################################################
#
# If this CIF has been generated from an entry in the Cambridge 
# Structural Database, then it will include bibliographic, chemical, 
# crystal, experimental, refinement or atomic coordinate data resulting 
# from the CCDC's data processing and validation procedures.
#
#######################################################################

data_DMTPAL01
_chemical_formula_moiety         'C10 H10 O4'
_chemical_name_systematic        'Terephthalic acid dimethyl ester'
_symmetry_cell_setting           orthorhombic
_symmetry_space_group_name_H-M   'P b c a'
_symmetry_Int_Tables_number      61
_space_group_name_Hall           '-P 2ac 2ab'
loop_
_symmetry_equiv_pos_site_id
_symmetry_equiv_pos_as_xyz
1 x,y,z
2 1/2-x,-y,1/2+z
3 -x,1/2+y,1/2-z
4 1/2+x,1/2-y,-z
5 -x,-y,-z
6 1/2+x,y,1/2-z
7 x,1/2-y,1/2+z
8 1/2-x,1/2+y,z
_cell_length_a                   21.870(4)
_cell_length_b                   7.0710(10)
_cell_length_c                   5.9760(10)
_cell_angle_alpha                90
_cell_angle_beta                 90
_cell_angle_gamma                90
_cell_volume                     924.145
_exptl_crystal_colour            white
_exptl_crystal_description       block
_cell_formula_units_Z            4
loop_
_atom_site_label
_atom_site_type_symbol
_atom_site_fract_x
_atom_site_fract_y
_atom_site_fract_z
O1 O 0.6663(2) 1.0510(10) 0.4608(12)
O2 O 0.6303(2) 0.9488(8) 0.1368(10)
C1 C 0.5125(3) 0.9331(8) 0.2900(11)
H1 H 0.521 0.8876 0.1473
C2 C 0.5459(3) 1.0637(8) 0.6371(12)
H2 H 0.5771 1.1068 0.7299
C3 C 0.5600(3) 0.9964(7) 0.4242(10)
C4 C 0.6236(4) 0.9996(10) 0.3516(15)
C5 C 0.6905(4) 0.9553(12) 0.0428(18)
H3 H 0.7088 1.0756 0.075
H4 H 0.6881 0.9381 -0.1163
H5 H 0.715 0.8564 0.1067
O1D O 0.3337(2) 0.9490(10) 0.5392(12)
O2D O 0.3697(2) 1.0512(8) 0.8632(10)
C1D C 0.4875(3) 1.0669(8) 0.7100(11)
H1D H 0.479 1.1124 0.8527
C2D C 0.4541(3) 0.9363(8) 0.3629(12)
H2D H 0.4229 0.8932 0.2701
C3D C 0.4400(3) 1.0036(7) 0.5758(10)
C4D C 0.3764(4) 1.0004(10) 0.6484(15)
C5D C 0.3095(4) 1.0447(12) 0.9572(18)
H3D H 0.2912 0.9244 0.925
H4D H 0.3119 1.0619 1.1163
H5D H 0.285 1.1436 0.8933
loop_
_geom_bond_atom_site_label_1
_geom_bond_atom_site_label_2
_geom_bond_site_symmetry_1
_geom_bond_site_symmetry_2
O1 C4 1_555 1_555
O2 C4 1_555 1_555
C1 H1 1_555 1_555
C2 H2 1_555 1_555
C3 C1 1_555 1_555
C4 C3 1_555 1_555
C5 O2 1_555 1_555
H3 C5 1_555 1_555
H4 C5 1_555 1_555
H5 C5 1_555 1_555
O1D C4D 1_555 1_555
O2D C4D 1_555 1_555
C1D C2 1_555 1_555
H1D C1D 1_555 1_555
C2D C1 1_555 1_555
H2D C2D 1_555 1_555
C3D C1D 1_555 1_555
C4D C3D 1_555 1_555
C5D O2D 1_555 1_555
H3D C5D 1_555 1_555
H4D C5D 1_555 1_555
H5D C5D 1_555 1_555
C2 C3 1_555 1_555
C2D C3D 1_555 1_555

#END
