
#######################################################################
#
#                 Cambridge Crystallographic Data Centre
#                                CCDC 
#
#######################################################################
#
# If this CIF has been generated from an entry in the Cambridge 
# Structural Database, then it will include bibliographic, chemical, 
# crystal, experimental, refinement or atomic coordinate data resulting 
# from the CCDC's data processing and validation procedures.
#
#######################################################################

data_DMTSIZ
_chemical_formula_moiety         'C12 H36 N4 Si4'
_chemical_name_systematic        Dodecamethylcyclotetrasilazane
_symmetry_cell_setting           rhombohedral
_symmetry_space_group_name_H-M   'R -3'
_symmetry_Int_Tables_number      148
_space_group_name_Hall           '-R 3'
loop_
_symmetry_equiv_pos_site_id
_symmetry_equiv_pos_as_xyz
1 x,y,z
2 1/3+x,2/3+y,2/3+z
3 2/3+x,1/3+y,1/3+z
4 -y,x-y,z
5 -x+y,-x,z
6 1/3-y,2/3+x-y,2/3+z
7 1/3-x+y,2/3-x,2/3+z
8 2/3-y,1/3+x-y,1/3+z
9 2/3-x+y,1/3-x,1/3+z
10 -x,-y,-z
11 2/3-x,1/3-y,1/3-z
12 1/3-x,2/3-y,2/3-z
13 y,-x+y,-z
14 x-y,x,-z
15 2/3+y,1/3-x+y,1/3-z
16 2/3+x-y,1/3+x,1/3-z
17 1/3+y,2/3-x+y,2/3-z
18 1/3+x-y,2/3+x,2/3-z
_cell_length_a                   36.78(3)
_cell_length_b                   36.78(3)
_cell_length_c                   9.37(1)
_cell_angle_alpha                90
_cell_angle_beta                 90
_cell_angle_gamma                120
_cell_volume                     10977.3
_cell_formula_units_Z            21
loop_
_atom_site_label
_atom_site_type_symbol
_atom_site_fract_x
_atom_site_fract_y
_atom_site_fract_z
C1 C 0.14850 0.11000 0.35760
C2 C 0.21640 0.12990 0.01290
C3 C 0.28740 0.22100 0.05390
C4 C 0.19180 0.20810 0.07160
C5 C 0.12710 0.17820 0.32980
C6 C 0.17910 0.17260 0.63700
C7 C 0.23230 0.27950 0.39110
C8 C 0.25580 0.26030 0.68390
C9 C 0.32340 0.28270 0.37710
C10 C 0.34530 0.20930 0.37480
C11 C 0.28030 0.17200 0.60790
C12 C 0.25210 0.11710 0.30700
N1 N 0.19930 0.19210 0.49630
N2 N 0.28670 0.24080 0.41960
N3 N 0.25690 0.16010 0.29540
N4 N 0.20110 0.18690 0.19400
Si1 Si 0.17080 0.16830 0.34440
Si2 Si 0.24340 0.24240 0.49530
Si3 Si 0.29010 0.19570 0.42170
Si4 Si 0.24010 0.17500 0.14730
loop_
_geom_bond_atom_site_label_1
_geom_bond_atom_site_label_2
_geom_bond_site_symmetry_1
_geom_bond_site_symmetry_2
C1 Si1 1_555 1_555
C2 Si4 1_555 1_555
C3 Si4 1_555 1_555
C4 N4 1_555 1_555
C5 Si1 1_555 1_555
C6 N1 1_555 1_555
C7 Si2 1_555 1_555
C8 Si2 1_555 1_555
C9 N2 1_555 1_555
C10 Si3 1_555 1_555
C11 Si3 1_555 1_555
C12 N3 1_555 1_555
N1 Si1 1_555 1_555
N2 Si2 1_555 1_555
N3 Si3 1_555 1_555
N4 Si1 1_555 1_555
Si2 N1 1_555 1_555
Si3 N2 1_555 1_555
Si4 N3 1_555 1_555
N4 Si4 1_555 1_555

#END
