
#######################################################################
#
#                 Cambridge Crystallographic Data Centre
#                                CCDC 
#
#######################################################################
#
# If this CIF has been generated from an entry in the Cambridge 
# Structural Database, then it will include bibliographic, chemical, 
# crystal, experimental, refinement or atomic coordinate data resulting 
# from the CCDC's data processing and validation procedures.
#
#######################################################################

data_DNBZPY01
_chemical_formula_moiety         'C12 H9 N3 O4'
_chemical_name_systematic        2-(2,4-Dinitrobenzyl)pyridine
_symmetry_cell_setting           monoclinic
_symmetry_space_group_name_H-M   'P 21/c'
_symmetry_Int_Tables_number      14
_space_group_name_Hall           '-P 2ybc'
loop_
_symmetry_equiv_pos_site_id
_symmetry_equiv_pos_as_xyz
1 x,y,z
2 -x,1/2+y,1/2-z
3 -x,-y,-z
4 x,1/2-y,1/2+z
_cell_length_a                   10.100(3)
_cell_length_b                   15.178(4)
_cell_length_c                   7.685(2)
_cell_angle_alpha                90
_cell_angle_beta                 101.40(2)
_cell_angle_gamma                90
_cell_volume                     1154.85
_exptl_crystal_colour            colorless
_cell_formula_units_Z            4
loop_
_atom_site_label
_atom_site_type_symbol
_atom_site_fract_x
_atom_site_fract_y
_atom_site_fract_z
C1 C 0.1939(2) 0.0846(1) 0.9478(2)
C2 C 0.2285(2) 0.1706(1) 1.0044(2)
C3 C 0.1449(2) 0.2419(1) 0.9568(3)
C4 C 0.0225(2) 0.2274(1) 0.8446(3)
C5 C -0.0182(2) 0.1444(1) 0.7840(3)
C6 C 0.0667(2) 0.0749(1) 0.8384(3)
N1 N 0.3604(2) 0.1909(1) 1.1161(2)
O1 O 0.4580(1) 0.1458(1) 1.0992(2)
O2 O 0.3680(2) 0.2532(1) 1.2178(2)
N2 N -0.0650(2) 0.3029(1) 0.7861(2)
O3 O -0.0367(2) 0.37347(9) 0.8614(2)
O4 O -0.1619(2) 0.2920(1) 0.6637(3)
C7 C 0.2811(2) 0.0045(1) 0.9955(3)
C8 C 0.3082(2) -0.0199(1) 1.1914(3)
C9 C 0.3757(2) -0.0975(2) 1.2456(3)
C10 C 0.3946(2) -0.1210(1) 1.4222(3)
C11 C 0.3456(2) -0.0677(1) 1.5384(3)
C12 C 0.2810(2) 0.0081(2) 1.4729(3)
N3 N 0.2618(2) 0.0335(1) 1.3026(2)
H1 H 0.1707 0.2992 1.0000
H2 H -0.1028 0.1355 0.7064
H3 H 0.0376 0.0173 0.7998
H4 H 0.4083 -0.1339 1.1628
H5 H 0.4411 -0.1737 1.4628
H6 H 0.3560 -0.0827 1.6603
H7 H 0.2474 0.0452 1.5537
H8 H 0.3724 0.0145 0.9468
H9 H 0.2306 -0.0491 0.9225
loop_
_geom_bond_atom_site_label_1
_geom_bond_atom_site_label_2
_geom_bond_site_symmetry_1
_geom_bond_site_symmetry_2
C1 C2 1_555 1_555
C2 C3 1_555 1_555
C3 C4 1_555 1_555
C4 C5 1_555 1_555
C5 C6 1_555 1_555
C6 C1 1_555 1_555
N1 C2 1_555 1_555
O1 N1 1_555 1_555
O2 N1 1_555 1_555
N2 C4 1_555 1_555
O3 N2 1_555 1_555
O4 N2 1_555 1_555
C7 C1 1_555 1_555
C8 C7 1_555 1_555
C9 C8 1_555 1_555
C10 C9 1_555 1_555
C11 C10 1_555 1_555
C12 C11 1_555 1_555
N3 C8 1_555 1_555
H1 C3 1_555 1_555
H2 C5 1_555 1_555
H3 C6 1_555 1_555
H4 C9 1_555 1_555
H5 C10 1_555 1_555
H6 C11 1_555 1_555
H7 C12 1_555 1_555
H8 C7 1_555 1_555
H9 C7 1_555 1_555
C12 N3 1_555 1_555

#END
