
#######################################################################
#
#                 Cambridge Crystallographic Data Centre
#                                CCDC 
#
#######################################################################
#
# If this CIF has been generated from an entry in the Cambridge 
# Structural Database, then it will include bibliographic, chemical, 
# crystal, experimental, refinement or atomic coordinate data resulting 
# from the CCDC's data processing and validation procedures.
#
#######################################################################

data_DNITBZ11
_chemical_formula_moiety         'C6 H4 N2 O4'
_chemical_name_systematic        p-Dinitrobenzene
_symmetry_cell_setting           monoclinic
_symmetry_space_group_name_H-M   'P 21/n'
_symmetry_Int_Tables_number      14
_space_group_name_Hall           '-P 2yn'
loop_
_symmetry_equiv_pos_site_id
_symmetry_equiv_pos_as_xyz
1 x,y,z
2 1/2-x,1/2+y,1/2-z
3 -x,-y,-z
4 1/2+x,1/2-y,1/2+z
_cell_length_a                   11.134
_cell_length_b                   5.459
_cell_length_c                   5.681
_cell_angle_alpha                90
_cell_angle_beta                 92.26
_cell_angle_gamma                90
_cell_volume                     345.025
_exptl_crystal_colour            'pale yellow'
_chemical_melting_point          172-4deg.C
_cell_formula_units_Z            2
loop_
_atom_site_label
_atom_site_type_symbol
_atom_site_fract_x
_atom_site_fract_y
_atom_site_fract_z
O1 O 0.12257 0.46114 0.38013
O2 O 0.22066 0.47058 0.06034
N1 N 0.14236 0.38916 0.18254
C1 C 0.06794 0.18552 0.08674
C2 C -0.03146 0.11672 0.20710
C3 C 0.10152 0.07449 -0.11810
H1 H -0.05200 0.19400 0.34400
H2 H 0.17200 0.11300 -0.19700
C3B C -0.10152 -0.07449 0.11810
C2B C 0.03146 -0.11672 -0.20710
C1B C -0.06794 -0.18552 -0.08674
H2B H -0.17200 -0.11300 0.19700
H1B H 0.05200 -0.19400 -0.34400
N1B N -0.14236 -0.38916 -0.18254
O1B O -0.12257 -0.46114 -0.38013
O2B O -0.22066 -0.47058 -0.06034
loop_
_geom_bond_atom_site_label_1
_geom_bond_atom_site_label_2
_geom_bond_site_symmetry_1
_geom_bond_site_symmetry_2
O1 N1 1_555 1_555
O2 N1 1_555 1_555
N1 C1 1_555 1_555
C1 C2 1_555 1_555
C2 H1 1_555 1_555
C3 C1 1_555 1_555
H2 C3 1_555 1_555
C3B C2 1_555 1_555
C2B C3 1_555 1_555
C1B C3B 1_555 1_555
H2B C3B 1_555 1_555
H1B C2B 1_555 1_555
N1B C1B 1_555 1_555
O1B N1B 1_555 1_555
O2B N1B 1_555 1_555
C2B C1B 1_555 1_555

#END
