
#######################################################################
#
#                 Cambridge Crystallographic Data Centre
#                                CCDC 
#
#######################################################################
#
# If this CIF has been generated from an entry in the Cambridge 
# Structural Database, then it will include bibliographic, chemical, 
# crystal, experimental, refinement or atomic coordinate data resulting 
# from the CCDC's data processing and validation procedures.
#
#######################################################################

data_DOBGAE
_chemical_formula_moiety         'C25 H28 F1 N5 O1 S1'
_chemical_name_systematic        
5-Fluoro-2-(5-(isopropylsulfanyl)-4-phenyl-4H-1,2,4-triazol-3-yl)-1-methyl-3-(morpholin-4-ylmethyl)-1H-indole
_symmetry_cell_setting           triclinic
_symmetry_space_group_name_H-M   'P -1'
_symmetry_Int_Tables_number      2
_space_group_name_Hall           '-P 1'
loop_
_symmetry_equiv_pos_site_id
_symmetry_equiv_pos_as_xyz
1 x,y,z
2 -x,-y,-z
_cell_length_a                   6.3811(3)
_cell_length_b                   13.0833(9)
_cell_length_c                   14.7067(10)
_cell_angle_alpha                101.713(6)
_cell_angle_beta                 91.147(5)
_cell_angle_gamma                93.891(5)
_cell_volume                     1198.75
_exptl_crystal_colour            colorless
_exptl_crystal_description       block
_cell_formula_units_Z            2
loop_
_atom_site_label
_atom_site_type_symbol
_atom_site_fract_x
_atom_site_fract_y
_atom_site_fract_z
C1 C 0.6049(15) 0.1776(8) 0.5979(7)
H1 H 0.6017 0.2444 0.6392
H2 H 0.6703 0.1865 0.5415
H3 H 0.6835 0.1322 0.6270
C2 C 0.3668(6) 0.1261(3) 0.5740(3)
H4 H 0.3649 0.0592 0.5295
C3 C 0.285(2) 0.1117(13) 0.6645(10)
H5 H 0.3295 0.0476 0.6781
H6 H 0.1339 0.1088 0.6616
H7 H 0.3374 0.1694 0.7126
C4 C 0.1009(4) 0.2025(2) 0.0231(2)
C5 C 0.2396(4) 0.2235(2) 0.1036(2)
C6 C 0.3033(5) 0.4499(2) 0.1038(2)
H8 H 0.1599 0.4203 0.1043
H9 H 0.3456 0.4390 0.0398
C7 C 0.1449(4) 0.1735(2) 0.1674(2)
C8 C 0.1017(5) 0.4017(2) 0.3474(2)
H10 H 0.2342 0.4108 0.3238
C9 C 0.6546(5) 0.4481(3) 0.1602(2)
H11 H 0.7077 0.4390 0.0979
H12 H 0.7473 0.4159 0.1973
C10 C 0.2572(5) 0.1778(2) 0.4079(2)
C11 C 0.0235(4) 0.3045(2) 0.3597(2)
C12 C 0.1102(5) 0.2316(3) -0.0637(2)
H13 H 0.2230 0.2733 -0.0786
C13 C 0.4480(4) 0.2853(2) 0.1156(2)
H14 H 0.5394 0.2548 0.1546
H15 H 0.5105 0.2787 0.0553
C14 C -0.0543(6) 0.1956(3) -0.1247(2)
C15 C 0.2212(4) 0.1632(2) 0.2586(2)
C16 C -0.0726(4) 0.1401(2) 0.0424(2)
C17 C -0.2358(5) 0.1038(3) -0.0232(3)
H16 H -0.3490 0.0614 -0.0097
C18 C -0.1830(5) 0.0538(3) 0.1733(3)
H17 H -0.3189 0.0810 0.1815
H18 H -0.1233 0.0490 0.2326
H19 H -0.1970 -0.0145 0.1337
C19 C -0.2194(6) 0.4705(3) 0.4055(2)
H20 H -0.3012 0.5272 0.4217
C20 C -0.2257(6) 0.1320(3) -0.1077(3)
H21 H -0.3319 0.1089 -0.1529
C21 C 0.3127(5) 0.5645(3) 0.1441(3)
H22 H 0.2222 0.5978 0.1069
H23 H 0.2593 0.5751 0.2064
C22 C -0.1751(5) 0.2893(3) 0.3931(3)
H24 H -0.2269 0.2232 0.3998
C23 C -0.0226(6) 0.4849(3) 0.3710(2)
H25 H 0.0269 0.5511 0.3637
C24 C -0.2945(6) 0.3741(3) 0.4160(3)
H26 H -0.4278 0.3652 0.4389
C25 C 0.6525(6) 0.5627(3) 0.2017(3)
H27 H 0.6039 0.5716 0.2647
H28 H 0.7942 0.5953 0.2043
N1 N 0.1574(4) 0.21774(18) 0.34278(17)
N2 N 0.3765(4) 0.1042(2) 0.3695(2)
N3 N 0.4408(3) 0.39683(19) 0.15657(17)
N4 N -0.0459(4) 0.1235(2) 0.1309(2)
N5 N 0.3524(4) 0.0948(2) 0.2739(2)
O1 O 0.5180(4) 0.61300(19) 0.14809(19)
F1 F -0.0527(4) 0.22295(19) -0.21005(15)
S1 S 0.22517(15) 0.22176(7) 0.52657(6)
C26? C 0.446(3) 0.1664(12) 0.6635(10)
H29? H 0.3504 0.2134 0.6960
H30? H 0.5799 0.2035 0.6609
H31? H 0.4621 0.1102 0.6954
H32? H 0.4799 0.1006 0.5332
C27? C 0.1916(15) 0.0357(8) 0.5741(10)
H33? H 0.2547 -0.0241 0.5882
H34? H 0.1218 0.0168 0.5140
H35? H 0.0914 0.0591 0.6201
loop_
_geom_bond_atom_site_label_1
_geom_bond_atom_site_label_2
_geom_bond_site_symmetry_1
_geom_bond_site_symmetry_2
C1 H1 1_555 1_555
H2 C1 1_555 1_555
H3 C1 1_555 1_555
C2 C1 1_555 1_555
H4 C2 1_555 1_555
C3 C2 1_555 1_555
H5 C3 1_555 1_555
H6 C3 1_555 1_555
H7 C3 1_555 1_555
C4 C5 1_555 1_555
C5 C7 1_555 1_555
C6 H8 1_555 1_555
H9 C6 1_555 1_555
C7 C15 1_555 1_555
C8 H10 1_555 1_555
C9 H11 1_555 1_555
H12 C9 1_555 1_555
C10 N1 1_555 1_555
C11 C8 1_555 1_555
C12 C4 1_555 1_555
H13 C12 1_555 1_555
C13 C5 1_555 1_555
H14 C13 1_555 1_555
H15 C13 1_555 1_555
C14 C12 1_555 1_555
C15 N1 1_555 1_555
C16 C4 1_555 1_555
C17 C16 1_555 1_555
H16 C17 1_555 1_555
C18 H17 1_555 1_555
H18 C18 1_555 1_555
H19 C18 1_555 1_555
C19 H20 1_555 1_555
C20 C14 1_555 1_555
H21 C20 1_555 1_555
C21 C6 1_555 1_555
H22 C21 1_555 1_555
H23 C21 1_555 1_555
C22 C11 1_555 1_555
H24 C22 1_555 1_555
C23 C8 1_555 1_555
H25 C23 1_555 1_555
C24 C19 1_555 1_555
H26 C24 1_555 1_555
C25 C9 1_555 1_555
H27 C25 1_555 1_555
H28 C25 1_555 1_555
N1 C11 1_555 1_555
N2 C10 1_555 1_555
N3 C6 1_555 1_555
N4 C7 1_555 1_555
N5 C15 1_555 1_555
O1 C21 1_555 1_555
F1 C14 1_555 1_555
S1 C2 1_555 1_555
C9 N3 1_555 1_555
C10 S1 1_555 1_555
C13 N3 1_555 1_555
C16 N4 1_555 1_555
C17 C20 1_555 1_555
C18 N4 1_555 1_555
C19 C23 1_555 1_555
C22 C24 1_555 1_555
C25 O1 1_555 1_555
N2 N5 1_555 1_555

#END
