
#######################################################################
#
#                 Cambridge Crystallographic Data Centre
#                                CCDC 
#
#######################################################################
#
# If this CIF has been generated from an entry in the Cambridge 
# Structural Database, then it will include bibliographic, chemical, 
# crystal, experimental, refinement or atomic coordinate data resulting 
# from the CCDC's data processing and validation procedures.
#
#######################################################################

data_DOBHOS
_chemical_formula_moiety         'C20 H24 O1'
_chemical_name_systematic        1-(3-(hex-1-ynyl)-1H-inden-2-yl)pentan-1-one
_symmetry_cell_setting           triclinic
_symmetry_space_group_name_H-M   'P -1'
_symmetry_Int_Tables_number      2
_space_group_name_Hall           '-P 1'
loop_
_symmetry_equiv_pos_site_id
_symmetry_equiv_pos_as_xyz
1 x,y,z
2 -x,-y,-z
_cell_length_a                   8.68(3)
_cell_length_b                   10.06(5)
_cell_length_c                   10.83(4)
_cell_angle_alpha                77.64(9)
_cell_angle_beta                 71.61(6)
_cell_angle_gamma                64.85(6)
_cell_volume                     808.787
_exptl_crystal_colour            colorless
_chemical_melting_point          '43-45 deg.C'
_cell_formula_units_Z            2
_exptl_crystal_recrystallization_method 'petroleum ether'
loop_
_atom_site_label
_atom_site_type_symbol
_atom_site_fract_x
_atom_site_fract_y
_atom_site_fract_z
O1 O 0.4259(3) 0.4235(2) 0.3287(2)
C1 C 0.5113(4) 0.0153(2) 0.2245(3)
C2 C 0.5977(4) -0.0817(3) 0.1294(3)
H1 H 0.6706 -0.0586 0.0519
C3 C 0.5757(5) -0.2107(3) 0.1496(3)
H2 H 0.6340 -0.2766 0.0856
C4 C 0.4687(5) -0.2451(3) 0.2631(3)
H3 H 0.4546 -0.3342 0.2759
C5 C 0.3813(4) -0.1487(3) 0.3591(3)
H4 H 0.3081 -0.1717 0.4364
C6 C 0.4041(3) -0.0194(2) 0.3386(2)
C7 C 0.3309(3) 0.1011(2) 0.4214(2)
C8 C 0.3901(3) 0.2064(2) 0.3601(2)
C9 C 0.5105(4) 0.1603(3) 0.2301(2)
H5 H 0.4667 0.2300 0.1599
H6 H 0.6278 0.1529 0.2237
C10 C 0.2124(4) 0.1003(2) 0.5458(3)
C11 C 0.1145(4) 0.0950(2) 0.6486(3)
C12 C -0.0078(4) 0.1055(3) 0.7760(3)
H7 H 0.0499 0.0321 0.8385
H8 H -0.1063 0.0856 0.7726
C13 C -0.0755(4) 0.2597(3) 0.8209(3)
H9 H 0.0245 0.2811 0.8180
H10 H -0.1376 0.3317 0.7598
C14 C -0.1922(5) 0.2768(3) 0.9518(3)
H11 H -0.1314 0.2035 1.0128
H12 H -0.2940 0.2582 0.9542
C15 C -0.2540(6) 0.4289(3) 0.9955(3)
H13 H -0.1542 0.4470 0.9959
H14 H -0.3309 0.4338 1.0820
H15 H -0.3161 0.5021 0.9364
C16 C 0.3557(4) 0.3472(3) 0.4014(3)
C17 C 0.2324(4) 0.3971(2) 0.5303(2)
H16 H 0.1183 0.4000 0.5331
H17 H 0.2752 0.3239 0.5990
C18 C 0.2086(4) 0.5440(2) 0.5596(3)
H18 H 0.1657 0.6178 0.4913
H19 H 0.3222 0.5414 0.5581
C19 C 0.0841(4) 0.5895(3) 0.6887(3)
H20 H 0.1284 0.5164 0.7569
H21 H -0.0286 0.5898 0.6908
C20 C 0.0561(5) 0.7391(3) 0.7184(3)
H22 H 0.1638 0.7364 0.7277
H23 H -0.0338 0.7649 0.7982
H24 H 0.0205 0.8113 0.6482
loop_
_geom_bond_atom_site_label_1
_geom_bond_atom_site_label_2
_geom_bond_site_symmetry_1
_geom_bond_site_symmetry_2
O1 C16 1_555 1_555
C1 C2 1_555 1_555
C2 H1 1_555 1_555
C3 C2 1_555 1_555
H2 C3 1_555 1_555
C4 C3 1_555 1_555
H3 C4 1_555 1_555
C5 C4 1_555 1_555
H4 C5 1_555 1_555
C6 C1 1_555 1_555
C7 C6 1_555 1_555
C8 C7 1_555 1_555
C9 C1 1_555 1_555
H5 C9 1_555 1_555
H6 C9 1_555 1_555
C10 C7 1_555 1_555
C11 C10 1_555 1_555
C12 C11 1_555 1_555
H7 C12 1_555 1_555
H8 C12 1_555 1_555
C13 C12 1_555 1_555
H9 C13 1_555 1_555
H10 C13 1_555 1_555
C14 C13 1_555 1_555
H11 C14 1_555 1_555
H12 C14 1_555 1_555
C15 C14 1_555 1_555
H13 C15 1_555 1_555
H14 C15 1_555 1_555
H15 C15 1_555 1_555
C16 C8 1_555 1_555
C17 C16 1_555 1_555
H16 C17 1_555 1_555
H17 C17 1_555 1_555
C18 C17 1_555 1_555
H18 C18 1_555 1_555
H19 C18 1_555 1_555
C19 C18 1_555 1_555
H20 C19 1_555 1_555
H21 C19 1_555 1_555
C20 C19 1_555 1_555
H22 C20 1_555 1_555
H23 C20 1_555 1_555
H24 C20 1_555 1_555
C5 C6 1_555 1_555
C8 C9 1_555 1_555

#END
