
#######################################################################
#
#                 Cambridge Crystallographic Data Centre
#                                CCDC 
#
#######################################################################
#
# If this CIF has been generated from an entry in the Cambridge 
# Structural Database, then it will include bibliographic, chemical, 
# crystal, experimental, refinement or atomic coordinate data resulting 
# from the CCDC's data processing and validation procedures.
#
#######################################################################

data_DOBJEK
_chemical_formula_moiety         'C12 H12 N4 O1'
_chemical_name_systematic        "N,N'-bis(6-methylpyridin-2-yl)diazene N-oxide"
_symmetry_cell_setting           monoclinic
_symmetry_space_group_name_H-M   'P 21'
_symmetry_Int_Tables_number      4
_space_group_name_Hall           'P 2yb'
loop_
_symmetry_equiv_pos_site_id
_symmetry_equiv_pos_as_xyz
1 x,y,z
2 -x,1/2+y,-z
_cell_length_a                   6.2863(1)
_cell_length_b                   12.3951(3)
_cell_length_c                   7.8106(2)
_cell_angle_alpha                90
_cell_angle_beta                 112.623(1)
_cell_angle_gamma                90
_cell_volume                     561.769
_exptl_crystal_colour            orange
_exptl_crystal_description       block
_chemical_melting_point          '85-87 deg.C'
_cell_formula_units_Z            2
_exptl_crystal_recrystallization_method 'diethyl ether'
loop_
_atom_site_label
_atom_site_type_symbol
_atom_site_fract_x
_atom_site_fract_y
_atom_site_fract_z
O1 O 0.2407(4) 0.3156(2) 0.2660(4)
N1 N -0.2200(3) 0.12965(18) -0.1033(2)
N2 N -0.0652(3) 0.19114(19) 0.1994(3)
N3 N 0.0698(3) 0.26570(19) 0.2941(2)
N4 N 0.2202(3) 0.32888(18) 0.5972(2)
C1 C -0.0244(4) 0.1547(2) 0.0370(3)
C2 C 0.1947(4) 0.1432(2) 0.0363(3)
H1 H 0.3286 0.1613 0.1416
C3 C 0.2094(4) 0.1042(2) -0.1251(3)
H2 H 0.3553 0.0948 -0.1331
C4 C 0.0087(4) 0.0792(2) -0.2746(3)
H3 H 0.0156 0.0526 -0.3864
C5 C -0.2027(4) 0.0933(2) -0.2599(3)
C6 C -0.4270(4) 0.0708(3) -0.4191(3)
H4 H -0.5084 0.0125 -0.3849
H5 H -0.3964 0.0493 -0.5281
H6 H -0.5225 0.1361 -0.4478
C7 C 0.0275(3) 0.3022(2) 0.4550(3)
C8 C -0.1930(4) 0.3104(2) 0.4524(3)
H7 H -0.3243 0.2908 0.3461
C9 C -0.2138(4) 0.3487(2) 0.6126(3)
H8 H -0.3614 0.3563 0.6180
C10 C -0.0165(4) 0.3755(2) 0.7645(3)
H9 H -0.0275 0.4017 0.8751
C11 C 0.2001(4) 0.3634(2) 0.7528(3)
C12 C 0.4204(4) 0.3874(3) 0.9141(3)
H10 H 0.5189 0.3232 0.9441
H11 H 0.3856 0.4078 1.0218
H12 H 0.5005 0.4470 0.8819
O2? O -0.2341(7) 0.1409(4) 0.2277(6)
loop_
_geom_bond_atom_site_label_1
_geom_bond_atom_site_label_2
_geom_bond_site_symmetry_1
_geom_bond_site_symmetry_2
O1 N3 1_555 1_555
N1 C1 1_555 1_555
N2 N3 1_555 1_555
N3 C7 1_555 1_555
N4 C7 1_555 1_555
C1 N2 1_555 1_555
C2 C1 1_555 1_555
H1 C2 1_555 1_555
C3 C2 1_555 1_555
H2 C3 1_555 1_555
C4 C3 1_555 1_555
H3 C4 1_555 1_555
C5 N1 1_555 1_555
C6 C5 1_555 1_555
H4 C6 1_555 1_555
H5 C6 1_555 1_555
H6 C6 1_555 1_555
C7 C8 1_555 1_555
C8 H7 1_555 1_555
C9 C8 1_555 1_555
H8 C9 1_555 1_555
C10 C9 1_555 1_555
H9 C10 1_555 1_555
C11 N4 1_555 1_555
C12 C11 1_555 1_555
H10 C12 1_555 1_555
H11 C12 1_555 1_555
H12 C12 1_555 1_555
C4 C5 1_555 1_555
C10 C11 1_555 1_555

#END
