
#######################################################################
#
#                 Cambridge Crystallographic Data Centre
#                                CCDC 
#
#######################################################################
#
# If this CIF has been generated from an entry in the Cambridge 
# Structural Database, then it will include bibliographic, chemical, 
# crystal, experimental, refinement or atomic coordinate data resulting 
# from the CCDC's data processing and validation procedures.
#
#######################################################################

data_DOBLUC
_chemical_formula_moiety         'C28 H28 N2 O4'
_chemical_name_systematic        
"5,5'-Dimethyl-2,2'-diphenyl-1H,1'H-(3,3')bipyrrole-4,4'-dicarboxylic acid diethyl ester"
_symmetry_cell_setting           triclinic
_symmetry_space_group_name_H-M   'P -1'
_symmetry_Int_Tables_number      2
_space_group_name_Hall           '-P 1'
loop_
_symmetry_equiv_pos_site_id
_symmetry_equiv_pos_as_xyz
1 x,y,z
2 -x,-y,-z
_cell_length_a                   9.465(8)
_cell_length_b                   12.243(10)
_cell_length_c                   12.556(10)
_cell_angle_alpha                116.306(13)
_cell_angle_beta                 91.069(15)
_cell_angle_gamma                104.607(14)
_cell_volume                     1247.81
_exptl_crystal_colour            colorless
_exptl_crystal_description       block
_chemical_melting_point          '567-569 K'
_cell_formula_units_Z            2
_exptl_crystal_recrystallization_method 'petroleum ether/ethyl acetate'
loop_
_atom_site_label
_atom_site_type_symbol
_atom_site_fract_x
_atom_site_fract_y
_atom_site_fract_z
O1 O 0.4608(4) 0.7123(3) 0.3677(3)
O2 O 0.4248(4) 0.5063(3) 0.3072(3)
O3 O -0.0069(4) 0.6591(3) 0.3668(3)
O4 O 0.0131(5) 0.8017(4) 0.3022(4)
N1 N 0.1754(4) 0.5413(3) 0.5752(3)
N2 N 0.3564(5) 1.0334(4) 0.5769(4)
C1 C 0.3752(5) 0.9483(4) 0.6159(4)
C2 C 0.2707(4) 0.8350(4) 0.5446(4)
C3 C 0.1641(4) 0.6635(4) 0.6114(4)
C4 C 0.2476(4) 0.7094(4) 0.5438(4)
C5 C 0.0800(5) 0.7192(4) 0.7066(4)
C6 C 0.3091(4) 0.6115(4) 0.4648(4)
C7 C 0.2596(5) 0.5082(4) 0.4884(4)
C8 C 0.2868(5) 0.3810(4) 0.4394(5)
H1 H 0.2340 0.3341 0.4778
H2 H 0.3905 0.3922 0.4544
H3 H 0.2533 0.3348 0.3543
C9 C 0.4851(5) 0.9906(4) 0.7197(4)
C10 C 0.4969(7) 0.9134(6) 0.7696(6)
H4 H 0.4351 0.8303 0.7352
C11 C 0.2444(5) 0.9799(4) 0.4857(4)
C12 C 0.1851(5) 0.8542(4) 0.4622(4)
C13 C 0.0578(6) 0.8374(4) 0.7387(4)
H5 H 0.0996 0.8834 0.6990
C14 C 0.4029(5) 0.6181(4) 0.3786(4)
C15 C 0.5822(6) 1.1132(5) 0.7755(5)
H6 H 0.5787 1.1690 0.7445
C16 C 0.0598(5) 0.7616(4) 0.3757(4)
C17 C 0.0152(5) 0.6547(5) 0.7693(4)
H7 H 0.0273 0.5755 0.7507
C18 C 0.2013(6) 1.0573(4) 0.4318(5)
H8 H 0.2738 1.1391 0.4635
H9 H 0.1067 1.0685 0.4516
H10 H 0.1958 1.0136 0.3461
C19 C 0.5990(8) 0.9569(7) 0.8704(7)
H11 H 0.6049 0.9019 0.9018
C20 C -0.0236(6) 0.8875(5) 0.8266(5)
H12 H -0.0363 0.9668 0.8462
C21 C -0.0653(6) 0.7055(5) 0.8570(5)
H13 H -0.1064 0.6605 0.8977
C22 C 0.6831(7) 1.1539(6) 0.8753(6)
H14 H 0.7473 1.2361 0.9094
C23 C -0.0876(6) 0.8208(5) 0.8870(5)
H15 H -0.1443 0.8539 0.9464
C24 C -0.1127(10) 0.7174(8) 0.2116(9)
H16 H -0.0817 0.6548 0.1439
H17 H -0.1836 0.6725 0.2441
C25 C 0.5204(9) 0.5032(6) 0.2176(7)
H18 H 0.4790 0.5273 0.1629
H19 H 0.6168 0.5635 0.2565
C26 C 0.6909(7) 1.0777(7) 0.9247(6)
H20 H 0.7571 1.1067 0.9938
C27 C 0.5348(11) 0.3805(9) 0.1533(8)
H21 H 0.6057 0.3683 0.1996
H22 H 0.5677 0.3703 0.0785
H23 H 0.4410 0.3188 0.1378
C28 C -0.1802(10) 0.7874(9) 0.1723(8)
H24 H -0.1881 0.8622 0.2407
H25 H -0.2769 0.7353 0.1288
H26 H -0.1211 0.8120 0.1209
H27 H 0.124(4) 0.496(4) 0.597(3)
H28 H 0.410(5) 1.109(4) 0.607(4)
loop_
_geom_bond_atom_site_label_1
_geom_bond_atom_site_label_2
_geom_bond_site_symmetry_1
_geom_bond_site_symmetry_2
O1 C14 1_555 1_555
O2 C14 1_555 1_555
O3 C16 1_555 1_555
O4 C16 1_555 1_555
N1 C3 1_555 1_555
N2 C1 1_555 1_555
C1 C2 1_555 1_555
C2 C4 1_555 1_555
C3 C4 1_555 1_555
C4 C6 1_555 1_555
C5 C3 1_555 1_555
C6 C7 1_555 1_555
C7 N1 1_555 1_555
C8 C7 1_555 1_555
H1 C8 1_555 1_555
H2 C8 1_555 1_555
H3 C8 1_555 1_555
C9 C1 1_555 1_555
C10 C9 1_555 1_555
H4 C10 1_555 1_555
C11 N2 1_555 1_555
C12 C2 1_555 1_555
C13 C5 1_555 1_555
H5 C13 1_555 1_555
C14 C6 1_555 1_555
C15 C9 1_555 1_555
H6 C15 1_555 1_555
C16 C12 1_555 1_555
C17 C5 1_555 1_555
H7 C17 1_555 1_555
C18 C11 1_555 1_555
H8 C18 1_555 1_555
H9 C18 1_555 1_555
H10 C18 1_555 1_555
C19 C10 1_555 1_555
H11 C19 1_555 1_555
C20 C13 1_555 1_555
H12 C20 1_555 1_555
C21 C17 1_555 1_555
H13 C21 1_555 1_555
C22 C15 1_555 1_555
H14 C22 1_555 1_555
C23 C20 1_555 1_555
H15 C23 1_555 1_555
C24 O4 1_555 1_555
H16 C24 1_555 1_555
H17 C24 1_555 1_555
C25 O2 1_555 1_555
H18 C25 1_555 1_555
H19 C25 1_555 1_555
C26 C19 1_555 1_555
H20 C26 1_555 1_555
C27 C25 1_555 1_555
H21 C27 1_555 1_555
H22 C27 1_555 1_555
H23 C27 1_555 1_555
C28 C24 1_555 1_555
H24 C28 1_555 1_555
H25 C28 1_555 1_555
H26 C28 1_555 1_555
H27 N1 1_555 1_555
H28 N2 1_555 1_555
C11 C12 1_555 1_555
C21 C23 1_555 1_555
C22 C26 1_555 1_555

#END
