
#######################################################################
#
#                 Cambridge Crystallographic Data Centre
#                                CCDC 
#
#######################################################################
#
# If this CIF has been generated from an entry in the Cambridge 
# Structural Database, then it will include bibliographic, chemical, 
# crystal, experimental, refinement or atomic coordinate data resulting 
# from the CCDC's data processing and validation procedures.
#
#######################################################################

data_DOBMIS
_chemical_formula_moiety         'C30 H33 N3 O3,H2 O1'
_chemical_name_systematic        
"methyl 4'-((4-methyl-2-propyl-6-(propylcarbamoyl)-1H-benzimidazol-1-yl)methyl)biphenyl-2-carboxylate monohydrate"
_symmetry_cell_setting           monoclinic
_symmetry_space_group_name_H-M   'P 21/c'
_symmetry_Int_Tables_number      14
_space_group_name_Hall           '-P 2ybc'
loop_
_symmetry_equiv_pos_site_id
_symmetry_equiv_pos_as_xyz
1 x,y,z
2 -x,1/2+y,1/2-z
3 -x,-y,-z
4 x,1/2-y,1/2+z
_cell_length_a                   14.4688(9)
_cell_length_b                   13.1541(8)
_cell_length_c                   17.7173(9)
_cell_angle_alpha                90
_cell_angle_beta                 124.461(4)
_cell_angle_gamma                90
_cell_volume                     2780.28
_exptl_crystal_colour            white
_exptl_crystal_description       block
_cell_formula_units_Z            4
loop_
_atom_site_label
_atom_site_type_symbol
_atom_site_fract_x
_atom_site_fract_y
_atom_site_fract_z
C1 C 0.89132(17) 0.38101(17) 0.92786(13)
N1 N 0.83783(16) 0.39056(16) 0.97208(12)
O1 O 0.69662(13) 0.54711(14) 0.50475(12)
N2 N 0.80921(15) 0.53158(15) 0.89083(12)
C2 C 0.87554(17) 0.46865(17) 0.87757(13)
C3 C 0.95441(18) 0.29926(18) 0.92872(15)
C4 C 0.70533(18) 0.64340(16) 0.75343(15)
C5 C 0.98347(18) 0.40058(18) 0.82800(15)
C6 C 0.92129(18) 0.48121(18) 0.82753(14)
H1 H 0.9109 0.5407 0.7952
O2 O 1.03649(17) 0.32840(16) 0.73461(15)
C7 C 0.50755(19) 0.67447(17) 0.46095(16)
C8 C 0.79054(18) 0.4817(2) 0.94904(15)
C9 C 1.03219(18) 0.4050(2) 0.77262(16)
C10 C 0.7780(2) 0.63530(18) 0.85638(16)
H2 H 0.8457 0.6745 0.8796
H3 H 0.7384 0.6655 0.8803
N3 N 1.06885(17) 0.49459(18) 0.76520(14)
H4 H 1.0653 0.5459 0.7935
O3 O 0.74717(18) 0.67884(17) 0.45784(16)
C11 C 0.57392(18) 0.66497(17) 0.56241(15)
C12 C 0.6776(2) 0.6344(2) 0.46059(16)
C13 C 0.5416(2) 0.60027(19) 0.60520(17)
H5 H 0.4752 0.5636 0.5702
C14 C 0.99820(18) 0.31124(18) 0.87738(15)
H6 H 1.0391 0.2581 0.8753
C15 C 0.5585(2) 0.66672(18) 0.41386(16)
C16 C 0.6724(2) 0.71982(19) 0.61705(17)
H7 H 0.6951 0.7646 0.5899
C17 C 0.73701(19) 0.70891(18) 0.71087(16)
H8 H 0.8029 0.7461 0.7461
C18 C 0.6069(2) 0.58958(19) 0.69920(17)
H9 H 0.5841 0.5452 0.7265
C19 C 0.9711(2) 0.2040(2) 0.98267(18)
H10 H 0.9897 0.2223 1.0422
H11 H 1.0310 0.1646 0.9890
H12 H 0.9033 0.1647 0.9511
C20 C 0.3930(2) 0.6958(2) 0.41083(19)
H13 H 0.3572 0.7009 0.4407
C21 C 1.1146(2) 0.5095(3) 0.71138(17)
H14 H 1.0913 0.5755 0.6820
H15 H 1.0836 0.4584 0.6636
C22 C 1.2399(2) 0.5034(2) 0.76635(19)
H16 H 1.2642 0.4390 0.7986
H17 H 1.2716 0.5574 0.8116
C23 C 0.4972(2) 0.6840(2) 0.32028(18)
H18 H 0.5326 0.6814 0.2899
C24 C 0.3321(2) 0.7096(2) 0.3167(2)
H19 H 0.2555 0.7221 0.2837
C25 C 0.3845(3) 0.7048(3) 0.2722(2)
H20 H 0.3438 0.7157 0.2093
C26 C 1.2832(3) 0.5130(3) 0.7062(2)
H21 H 1.2538 0.4584 0.6625
H22 H 1.3635 0.5097 0.7435
H23 H 1.2595 0.5768 0.6744
C27 C 0.7249(2) 0.5260(2) 0.98200(19)
H24 H 0.7376 0.5988 0.9887
H25 H 0.7534 0.4985 1.0422
C28 C 0.6016(3) 0.5073(4) 0.9218(3)
H26 H 0.5651 0.5512 0.9414
H27 H 0.5746 0.5262 0.8597
C29 C 0.5697(5) 0.4061(5) 0.9217(4)
H28 H 0.4940 0.3956 0.8701
H29 H 0.5747 0.3930 0.9772
H30 H 0.6188 0.3606 0.9178
C30 C 0.8101(2) 0.5119(3) 0.5599(2)
H31 H 0.8386 0.5051 0.5226
H32 H 0.8127 0.4471 0.5859
H33 H 0.8552 0.5598 0.6081
O4 O 0.8734(3) 0.1828(2) 0.6383(2)
H34 H 0.866(3) 0.173(3) 0.589(3)
H35 H 0.926(4) 0.229(4) 0.668(3)
loop_
_geom_bond_atom_site_label_1
_geom_bond_atom_site_label_2
_geom_bond_site_symmetry_1
_geom_bond_site_symmetry_2
C1 N1 1_555 1_555
N1 C8 1_555 1_555
O1 C12 1_555 1_555
N2 C2 1_555 1_555
C2 C1 1_555 1_555
C3 C1 1_555 1_555
C4 C10 1_555 1_555
C5 C6 1_555 1_555
C6 C2 1_555 1_555
H1 C6 1_555 1_555
O2 C9 1_555 1_555
C7 C11 1_555 1_555
C8 N2 1_555 1_555
C9 C5 1_555 1_555
C10 N2 1_555 1_555
H2 C10 1_555 1_555
H3 C10 1_555 1_555
N3 C9 1_555 1_555
H4 N3 1_555 1_555
O3 C12 1_555 1_555
C11 C13 1_555 1_555
C12 C15 1_555 1_555
C13 H5 1_555 1_555
C14 C3 1_555 1_555
H6 C14 1_555 1_555
C15 C7 1_555 1_555
C16 C11 1_555 1_555
H7 C16 1_555 1_555
C17 C4 1_555 1_555
H8 C17 1_555 1_555
C18 C4 1_555 1_555
H9 C18 1_555 1_555
C19 C3 1_555 1_555
H10 C19 1_555 1_555
H11 C19 1_555 1_555
H12 C19 1_555 1_555
C20 C7 1_555 1_555
H13 C20 1_555 1_555
C21 N3 1_555 1_555
H14 C21 1_555 1_555
H15 C21 1_555 1_555
C22 C21 1_555 1_555
H16 C22 1_555 1_555
H17 C22 1_555 1_555
C23 C15 1_555 1_555
H18 C23 1_555 1_555
C24 C20 1_555 1_555
H19 C24 1_555 1_555
C25 C23 1_555 1_555
H20 C25 1_555 1_555
C26 C22 1_555 1_555
H21 C26 1_555 1_555
H22 C26 1_555 1_555
H23 C26 1_555 1_555
C27 C8 1_555 1_555
H24 C27 1_555 1_555
H25 C27 1_555 1_555
C28 C27 1_555 1_555
H26 C28 1_555 1_555
H27 C28 1_555 1_555
C29 C28 1_555 1_555
H28 C29 1_555 1_555
H29 C29 1_555 1_555
H30 C29 1_555 1_555
C30 O1 1_555 1_555
H31 C30 1_555 1_555
H32 C30 1_555 1_555
H33 C30 1_555 1_555
O4 H34 1_555 1_555
H35 O4 1_555 1_555
C5 C14 1_555 1_555
C13 C18 1_555 1_555
C16 C17 1_555 1_555
C24 C25 1_555 1_555

#END
