
#######################################################################
#
#                 Cambridge Crystallographic Data Centre
#                                CCDC 
#
#######################################################################
#
# If this CIF has been generated from an entry in the Cambridge 
# Structural Database, then it will include bibliographic, chemical, 
# crystal, experimental, refinement or atomic coordinate data resulting 
# from the CCDC's data processing and validation procedures.
#
#######################################################################

data_DOBMOX
_chemical_formula_moiety         'C12 H17 I1 O3'
_chemical_name_systematic        
(3R*,5R,10S)-3-(1-iodo-1-methylethyl)-10-hydroxy-2-oxaspiro[4.5]dec-6-en-1-one
_symmetry_cell_setting           monoclinic
_symmetry_space_group_name_H-M   'P 21/n'
_symmetry_Int_Tables_number      14
_space_group_name_Hall           '-P 2yn'
loop_
_symmetry_equiv_pos_site_id
_symmetry_equiv_pos_as_xyz
1 x,y,z
2 1/2-x,1/2+y,1/2-z
3 -x,-y,-z
4 1/2+x,1/2-y,1/2+z
_cell_length_a                   6.6159(2)
_cell_length_b                   24.3508(7)
_cell_length_c                   8.0178(2)
_cell_angle_alpha                90
_cell_angle_beta                 99.115(2)
_cell_angle_gamma                90
_cell_volume                     1275.38
_exptl_crystal_colour            colorless
_exptl_crystal_description       plate
_chemical_melting_point          '104-107 deg.C (dec.)'
_cell_formula_units_Z            4
_exptl_crystal_recrystallization_method 'diethyl ether'
loop_
_atom_site_label
_atom_site_type_symbol
_atom_site_fract_x
_atom_site_fract_y
_atom_site_fract_z
I1 I 0.733649(19) 0.530196(5) 0.682083(17)
O1 O 0.7753(2) 0.65989(6) 0.77598(16)
O2 O 0.4712(2) 0.68453(6) 0.83430(18)
O3 O 0.8855(2) 0.73059(6) 1.08520(19)
C1 C 1.0011(3) 0.58508(8) 0.7311(2)
C2 C 0.9565(3) 0.63006(7) 0.8525(2)
C3 C 0.6375(3) 0.66459(7) 0.8811(2)
C4 C 0.7231(3) 0.64330(7) 1.0585(2)
C5 C 0.9171(3) 0.61238(8) 1.0277(2)
C6 C 0.5743(3) 0.60666(7) 1.1296(2)
C7 C 0.4662(3) 0.62238(8) 1.2475(2)
C8 C 0.4734(3) 0.67866(9) 1.3227(3)
C9 C 0.5835(3) 0.71951(8) 1.2236(3)
C10 C 0.7740(3) 0.69374(8) 1.1731(2)
C11 C 1.1842(3) 0.55082(9) 0.8079(3)
C12 C 1.0314(3) 0.60928(9) 0.5619(3)
H1 H 0.921(5) 0.7564(14) 1.154(4)
H2 H 1.0686 0.6549 0.8671
H3 H 1.0299 0.6221 1.1111
H4 H 0.8956 0.5738 1.0305
H5 H 0.5565 0.5702 1.0876
H6 H 0.3785 0.5961 1.2867
H7 H 0.5436 0.6769 1.4355
H8 H 0.3373 0.6911 1.3229
H9 H 0.6218 0.7508 1.2920
H10 H 0.4936 0.7303 1.1247
H11 H 1.2090 0.5231 0.7301
H12 H 1.3013 0.5737 0.8325
H13 H 1.1567 0.5342 0.9091
H14 H 1.0590 0.5806 0.4885
H15 H 1.1435 0.6342 0.5783
H16 H 0.9109 0.6282 0.5132
H17 H 0.8608 0.6822 1.2728
loop_
_geom_bond_atom_site_label_1
_geom_bond_atom_site_label_2
_geom_bond_site_symmetry_1
_geom_bond_site_symmetry_2
I1 C1 1_555 1_555
O1 C2 1_555 1_555
O2 C3 1_555 1_555
O3 C10 1_555 1_555
C1 C2 1_555 1_555
C2 C5 1_555 1_555
C3 O1 1_555 1_555
C4 C3 1_555 1_555
C5 C4 1_555 1_555
C6 C4 1_555 1_555
C7 C6 1_555 1_555
C8 C7 1_555 1_555
C9 C8 1_555 1_555
C10 C4 1_555 1_555
C11 C1 1_555 1_555
C12 C1 1_555 1_555
H1 O3 1_555 1_555
H2 C2 1_555 1_555
H3 C5 1_555 1_555
H4 C5 1_555 1_555
H5 C6 1_555 1_555
H6 C7 1_555 1_555
H7 C8 1_555 1_555
H8 C8 1_555 1_555
H9 C9 1_555 1_555
H10 C9 1_555 1_555
H11 C11 1_555 1_555
H12 C11 1_555 1_555
H13 C11 1_555 1_555
H14 C12 1_555 1_555
H15 C12 1_555 1_555
H16 C12 1_555 1_555
H17 C10 1_555 1_555
C9 C10 1_555 1_555

#END
