
#######################################################################
#
#                 Cambridge Crystallographic Data Centre
#                                CCDC 
#
#######################################################################
#
# If this CIF has been generated from an entry in the Cambridge 
# Structural Database, then it will include bibliographic, chemical, 
# crystal, experimental, refinement or atomic coordinate data resulting 
# from the CCDC's data processing and validation procedures.
#
#######################################################################

data_DOBTOD01
_chemical_formula_moiety         'C10 H8 S8 1+,C10 H8 S8,Cl2 I1 1-'
_chemical_name_systematic        
'bis(bis(Ethylenedithio)-tetrathiafulvalenium) dichloro-iodide'
_symmetry_cell_setting           triclinic
_symmetry_space_group_name_H-M   'P -1'
_symmetry_Int_Tables_number      2
_space_group_name_Hall           '-P 1'
loop_
_symmetry_equiv_pos_site_id
_symmetry_equiv_pos_as_xyz
1 x,y,z
2 -x,-y,-z
_cell_length_a                   6.620(1)
_cell_length_b                   9.638(2)
_cell_length_c                   12.859(3)
_cell_angle_alpha                86.47(2)
_cell_angle_beta                 101.33(2)
_cell_angle_gamma                97.77(2)
_cell_volume                     796.557
_exptl_crystal_colour            black
_cell_formula_units_Z            1
_exptl_crystal_preparation       'beta phase'
loop_
_atom_site_label
_atom_site_type_symbol
_atom_site_fract_x
_atom_site_fract_y
_atom_site_fract_z
S1 S 0.40757(7) -0.26978(4) 0.53756(3)
S2 S 0.00886(7) -0.17690(4) 0.55391(3)
S3 S 0.17092(7) -0.47101(4) 0.34687(3)
S4 S -0.22899(7) -0.38510(4) 0.36821(3)
S5 S 0.66086(7) -0.08502(5) 0.70354(4)
S6 S 0.18163(7) 0.01963(5) 0.72470(4)
S7 S -0.00248(7) -0.64208(5) 0.15777(3)
S8 S -0.48080(7) -0.53784(5) 0.18861(3)
C1 C 0.1399(3) -0.2834(2) 0.49215(13)
C2 C 0.0392(3) -0.3699(2) 0.41247(13)
C3 C 0.4136(3) -0.1453(2) 0.63220(13)
C4 C 0.2306(3) -0.1033(2) 0.64094(13)
C5 C -0.0491(3) -0.5357(2) 0.25390(12)
C6 C -0.2322(3) -0.4964(2) 0.26500(13)
C7 C 0.6094(3) 0.0885(2) 0.73104(15)
C8 C 0.4415(3) 0.0827(2) 0.79605(14)
C9 C -0.2377(3) -0.6293(2) 0.05929(14)
C10 C -0.4342(3) -0.6694(2) 0.1039(2)
H1 H 0.5567 0.1422 0.6527
H2 H 0.7512 0.1442 0.7702
H3 H 0.4807 0.0137 0.8635
H4 H 0.4372 0.1875 0.8200
H5 H -0.2425 -0.7026 -0.0016
H6 H -0.2415 -0.5253 0.0288
H7 H -0.5703 -0.6902 0.0439
H8 H -0.4185 -0.7680 0.1566
I1 I 0.0000 0.0000 0.0000
Cl1 Cl 0.08441(7) 0.23683(4) -0.09315(3)
Cl1A Cl -0.08441(7) -0.23683(4) 0.09315(3)
loop_
_geom_bond_atom_site_label_1
_geom_bond_atom_site_label_2
_geom_bond_site_symmetry_1
_geom_bond_site_symmetry_2
I1 Cl1 1_555 1_555
S1 C1 1_555 1_555
S2 C1 1_555 1_555
S3 C2 1_555 1_555
S4 C2 1_555 1_555
S5 C3 1_555 1_555
S6 C4 1_555 1_555
S7 C5 1_555 1_555
S8 C6 1_555 1_555
C1 C2 1_555 1_555
C3 S1 1_555 1_555
C4 S2 1_555 1_555
C5 S3 1_555 1_555
C6 S4 1_555 1_555
C7 S5 1_555 1_555
C8 S6 1_555 1_555
C9 S7 1_555 1_555
C10 S8 1_555 1_555
H1 C7 1_555 1_555
H2 C7 1_555 1_555
H3 C8 1_555 1_555
H4 C8 1_555 1_555
H5 C9 1_555 1_555
H6 C9 1_555 1_555
H7 C10 1_555 1_555
H8 C10 1_555 1_555
Cl1A I1 1_555 1_555
C3 C4 1_555 1_555
C5 C6 1_555 1_555
C7 C8 1_555 1_555
C9 C10 1_555 1_555

#END
