
#######################################################################
#
#                 Cambridge Crystallographic Data Centre
#                                CCDC 
#
#######################################################################
#
# If this CIF has been generated from an entry in the Cambridge 
# Structural Database, then it will include bibliographic, chemical, 
# crystal, experimental, refinement or atomic coordinate data resulting 
# from the CCDC's data processing and validation procedures.
#
#######################################################################

data_DOBZOK
_chemical_formula_moiety         'C83 H41 N1 O9 S1,1.5(C1 S2)'
_chemical_name_systematic        
'6,12,15,18-tetrakis(t-Butylperoxy)-(2-oxo-3-phenyl-1,3-thiazolo)(5,4-1,9)C60fullerene carbon disulfide solvate'
_symmetry_cell_setting           monoclinic
_symmetry_space_group_name_H-M   'P 21/c'
_symmetry_Int_Tables_number      14
_space_group_name_Hall           '-P 2ybc'
loop_
_symmetry_equiv_pos_site_id
_symmetry_equiv_pos_as_xyz
1 x,y,z
2 -x,1/2+y,1/2-z
3 -x,-y,-z
4 x,1/2-y,1/2+z
_cell_length_a                   23.477(5)
_cell_length_b                   13.864(3)
_cell_length_c                   19.873(4)
_cell_angle_alpha                90
_cell_angle_beta                 111.31(3)
_cell_angle_gamma                90
_cell_volume                     6026.11
_exptl_crystal_colour            red
_exptl_crystal_description       block
_cell_formula_units_Z            4
_exptl_crystal_recrystallization_method 
'carbon disulfide/acetonitrile/hexafluorobenzene/ethanol'
loop_
_atom_site_label
_atom_site_type_symbol
_atom_site_fract_x
_atom_site_fract_y
_atom_site_fract_z
S1 S 0.39765(4) 0.50928(9) 0.34440(6)
O1 O 0.38584(10) 0.2682(2) 0.38034(14)
O2 O 0.39833(11) 0.1658(2) 0.36871(14)
O3 O 0.28710(15) 0.3622(3) 0.50489(15)
O4 O 0.3453(2) 0.3447(3) 0.5198(2)
O6 O 0.22424(10) 0.62497(19) 0.43062(13)
O7 O 0.17034(11) 0.6663(2) 0.44246(14)
O8 O 0.25467(11) 0.70927(19) 0.24955(14)
O9 O 0.31705(11) 0.7052(2) 0.24744(14)
O10 O 0.46392(12) 0.5319(2) 0.26311(15)
N1 N 0.36743(13) 0.4708(2) 0.20834(16)
C1 C 0.08369(19) 0.1339(3) 0.2139(3)
C2 C 0.14409(19) 0.1068(3) 0.2140(2)
C3 C 0.18775(18) 0.1187(3) 0.2869(2)
C4 C 0.15568(18) 0.1521(3) 0.3321(2)
C5 C 0.09125(18) 0.1622(3) 0.2870(2)
C6 C 0.05732(19) 0.2380(3) 0.2988(3)
C7 C 0.08608(18) 0.3086(3) 0.3535(2)
C8 C 0.14843(18) 0.3011(3) 0.3961(2)
C9 C 0.18362(18) 0.2200(3) 0.3854(2)
C10 C 0.24554(17) 0.2537(3) 0.3998(2)
C11 C 0.27587(16) 0.2206(3) 0.3561(2)
C12 C 0.24678(16) 0.1553(3) 0.2990(2)
C13 C 0.26307(17) 0.1792(3) 0.2367(2)
C14 C 0.22073(17) 0.1672(3) 0.1664(2)
C15 C 0.15999(19) 0.1301(3) 0.1550(2)
C16 C 0.11764(19) 0.1811(3) 0.0941(2)
C17 C 0.05962(19) 0.2065(4) 0.0943(2)
C18 C 0.04266(19) 0.1819(3) 0.1550(3)
C19 C 0.00755(17) 0.2607(4) 0.1676(3)
C20 C 0.01412(17) 0.2888(4) 0.2375(3)
C21 C 0.01576(16) 0.3895(4) 0.2552(3)
C22 C 0.06143(18) 0.4017(3) 0.3280(2)
C23 C 0.09889(17) 0.4828(3) 0.3447(2)
C24 C 0.16248(17) 0.4735(3) 0.3909(2)
C25 C 0.18612(17) 0.3844(3) 0.4151(2)
C26 C 0.25248(16) 0.3563(3) 0.42931(19)
C27 C 0.27649(15) 0.4189(3) 0.38315(18)
C28 C 0.30867(15) 0.3874(3) 0.34484(19)
C29 C 0.32240(15) 0.2832(3) 0.3365(2)
C30 C 0.30307(15) 0.2619(3) 0.2555(2)
C31 C 0.29742(15) 0.3313(3) 0.2045(2)
C32 C 0.25209(16) 0.3208(3) 0.1335(2)
C33 C 0.21604(18) 0.2390(3) 0.1143(2)
C34 C 0.15169(19) 0.2484(3) 0.0678(2)
C35 C 0.12765(19) 0.3379(4) 0.0425(2)
C36 C 0.06727(18) 0.3653(4) 0.0422(2)
C37 C 0.03434(19) 0.2996(4) 0.0675(2)
C38 C 0.00205(17) 0.3342(4) 0.1140(3)
C39 C 0.00371(17) 0.4319(4) 0.1312(2)
C40 C 0.01092(17) 0.4600(4) 0.2040(3)
C41 C 0.04965(17) 0.5456(3) 0.2227(2)
C42 C 0.09277(17) 0.5555(3) 0.2911(2)
C43 C 0.15239(16) 0.5961(3) 0.3027(2)
C44 C 0.19869(17) 0.5563(3) 0.3735(2)
C45 C 0.25256(15) 0.5148(3) 0.35789(19)
C46 C 0.27104(15) 0.5435(3) 0.30455(19)
C47 C 0.31784(15) 0.4687(3) 0.29885(19)
C48 C 0.31151(15) 0.4402(3) 0.2204(2)
C49 C 0.25479(16) 0.4853(3) 0.16304(19)
C50 C 0.22665(17) 0.4146(3) 0.1075(2)
C51 C 0.16542(19) 0.4237(3) 0.0618(2)
C52 C 0.13062(18) 0.5033(3) 0.0734(2)
C53 C 0.06928(18) 0.4670(4) 0.0611(2)
C54 C 0.03817(18) 0.5001(3) 0.1051(2)
C55 C 0.06658(17) 0.5695(3) 0.1615(2)
C56 C 0.12535(17) 0.6030(3) 0.1736(2)
C57 C 0.16851(16) 0.6187(3) 0.2449(2)
C58 C 0.23434(16) 0.6115(3) 0.2460(2)
C59 C 0.22217(16) 0.5610(3) 0.1734(2)
C60 C 0.15801(17) 0.5690(3) 0.1284(2)
C61 C 0.41552(18) 0.5053(3) 0.2649(2)
C62 C 0.46339(17) 0.1597(3) 0.3807(2)
C63 C 0.46970(18) 0.0533(3) 0.3685(3)
H1 H 0.4593 0.0168 0.4035
H2 H 0.5111 0.0395 0.3735
H3 H 0.4427 0.0361 0.3208
C64 C 0.4774(2) 0.2203(4) 0.3254(3)
H4 H 0.4497 0.2036 0.2779
H5 H 0.5186 0.2084 0.3289
H6 H 0.4727 0.2873 0.3344
C65 C 0.50048(18) 0.1905(4) 0.4563(2)
H7 H 0.4946 0.2583 0.4615
H8 H 0.5430 0.1780 0.4661
H9 H 0.4876 0.1551 0.4898
C66 C 0.3809(2) 0.4255(5) 0.5691(3)
C67 C 0.4392(6) 0.3731(12) 0.5759(10)
H10 H 0.4504 0.3644 0.5366
H11 H 0.4480 0.3130 0.6058
H12 H 0.4788 0.4147 0.6122
C69 C 0.3749(2) 0.4096(4) 0.6409(3)
H16 H 0.3993 0.4547 0.6769
H17 H 0.3875 0.3447 0.6590
H18 H 0.3324 0.4171 0.6371
C70 C 0.3776(4) 0.5190(8) 0.5375(6)
H19 H 0.3331 0.5359 0.5094
H20 H 0.3979 0.5238 0.5046
H21 H 0.3915 0.5701 0.5735
C72 C 0.18390(17) 0.6717(3) 0.5201(2)
C73 C 0.23948(17) 0.7362(3) 0.5548(2)
H25 H 0.2745 0.7077 0.5486
H26 H 0.2470 0.7430 0.6054
H27 H 0.2319 0.7985 0.5322
C74 C 0.1910(2) 0.5715(3) 0.5533(2)
H28 H 0.1556 0.5335 0.5277
H29 H 0.1954 0.5766 0.6031
H30 H 0.2267 0.5411 0.5501
C75 C 0.12562(18) 0.7213(3) 0.5206(2)
H31 H 0.1224 0.7843 0.4995
H32 H 0.1274 0.7272 0.5695
H33 H 0.0906 0.6836 0.4932
C76 C 0.3500(2) 0.7879(3) 0.2895(3)
C77 C 0.3571(2) 0.7775(4) 0.3681(3)
H34 H 0.3175 0.7781 0.3719
H35 H 0.3811 0.8301 0.3954
H36 H 0.3773 0.7177 0.3867
C78 C 0.3162(2) 0.8808(3) 0.2575(3)
H37 H 0.3136 0.8872 0.2084
H38 H 0.3379 0.9349 0.2851
H39 H 0.2758 0.8787 0.2588
C79 C 0.4105(2) 0.7806(4) 0.2789(3)
H40 H 0.4293 0.7196 0.2968
H41 H 0.4370 0.8319 0.3047
H42 H 0.4037 0.7858 0.2284
C80 C 0.36742(16) 0.4745(3) 0.1360(2)
C81 C 0.37882(19) 0.3940(3) 0.1024(3)
H43 H 0.3901 0.3366 0.1280
C82 C 0.3736(2) 0.3976(4) 0.0311(3)
H44 H 0.3812 0.3428 0.0087
C83 C 0.3575(2) 0.4814(5) -0.0063(3)
H45 H 0.3535 0.4834 -0.0546
C84 C 0.34678(19) 0.5640(4) 0.0266(3)
H46 H 0.3368 0.6214 0.0007
C85 C 0.35102(17) 0.5610(3) 0.0980(2)
H47 H 0.3431 0.6157 0.1201
S2 S 0.01708(12) 0.9430(2) 0.06879(15)
C86 C 0.0000 1.0000 0.0000
S2B S -0.01708(12) 1.0570(2) -0.06879(15)
S3 S 0.1313(2) 0.8600(3) 0.2358(3)
S4 S 0.1713(2) 0.9109(4) 0.3935(3)
C87 C 0.1494(4) 0.8793(8) 0.3137(4)
O5? O 0.3151(3) 0.4493(5) 0.5252(3)
C68? C 0.4358(10) 0.4125(17) 0.5476(18)
H13? H 0.4142 0.3720 0.4959
H14? H 0.4576 0.3512 0.5756
H15? H 0.4551 0.4548 0.5429
C71? C 0.3869(8) 0.5336(6) 0.5910(9)
H22? H 0.4288 0.5555 0.5893
H23? H 0.3838 0.5487 0.6311
H24? H 0.3585 0.5704 0.5480
loop_
_geom_bond_atom_site_label_1
_geom_bond_atom_site_label_2
_geom_bond_site_symmetry_1
_geom_bond_site_symmetry_2
S1 C47 1_555 1_555
S2 C86 1_555 1_555
S3 C87 1_555 1_555
S4 C87 1_555 1_555
O1 O2 1_555 1_555
O2 C62 1_555 1_555
O3 O4 1_555 1_555
O4 C66 1_555 1_555
O6 O7 1_555 1_555
O7 C72 1_555 1_555
O8 O9 1_555 1_555
O9 C76 1_555 1_555
O10 C61 1_555 1_555
N1 C48 1_555 1_555
C1 C2 1_555 1_555
C2 C3 1_555 1_555
C3 C4 1_555 1_555
C4 C5 1_555 1_555
C5 C1 1_555 1_555
C6 C5 1_555 1_555
C7 C6 1_555 1_555
C8 C7 1_555 1_555
C9 C4 1_555 1_555
C10 C9 1_555 1_555
C11 C10 1_555 1_555
C12 C3 1_555 1_555
C13 C12 1_555 1_555
C14 C13 1_555 1_555
C15 C2 1_555 1_555
C16 C15 1_555 1_555
C17 C16 1_555 1_555
C18 C1 1_555 1_555
C19 C18 1_555 1_555
C20 C6 1_555 1_555
C21 C20 1_555 1_555
C22 C7 1_555 1_555
C23 C22 1_555 1_555
C24 C23 1_555 1_555
C25 C8 1_555 1_555
C26 O3 1_555 1_555
C27 C26 1_555 1_555
C28 C27 1_555 1_555
C29 O1 1_555 1_555
C30 C13 1_555 1_555
C31 C30 1_555 1_555
C32 C31 1_555 1_555
C33 C14 1_555 1_555
C34 C16 1_555 1_555
C35 C34 1_555 1_555
C36 C35 1_555 1_555
C37 C17 1_555 1_555
C38 C19 1_555 1_555
C39 C38 1_555 1_555
C40 C21 1_555 1_555
C41 C40 1_555 1_555
C42 C23 1_555 1_555
C43 C42 1_555 1_555
C44 O6 1_555 1_555
C45 C27 1_555 1_555
C46 C45 1_555 1_555
C47 C28 1_555 1_555
C48 C31 1_555 1_555
C49 C48 1_555 1_555
C50 C32 1_555 1_555
C51 C35 1_555 1_555
C52 C51 1_555 1_555
C53 C36 1_555 1_555
C54 C39 1_555 1_555
C55 C41 1_555 1_555
C56 C55 1_555 1_555
C57 C43 1_555 1_555
C58 O8 1_555 1_555
C59 C49 1_555 1_555
C60 C52 1_555 1_555
C61 S1 1_555 1_555
C62 C63 1_555 1_555
C63 H1 1_555 1_555
H2 C63 1_555 1_555
H3 C63 1_555 1_555
C64 C62 1_555 1_555
H4 C64 1_555 1_555
H5 C64 1_555 1_555
H6 C64 1_555 1_555
C65 C62 1_555 1_555
H7 C65 1_555 1_555
H8 C65 1_555 1_555
H9 C65 1_555 1_555
C66 C67 1_555 1_555
C67 H10 1_555 1_555
H11 C67 1_555 1_555
H12 C67 1_555 1_555
C69 C66 1_555 1_555
H16 C69 1_555 1_555
H17 C69 1_555 1_555
H18 C69 1_555 1_555
C70 C66 1_555 1_555
H19 C70 1_555 1_555
H20 C70 1_555 1_555
H21 C70 1_555 1_555
C72 C73 1_555 1_555
C73 H25 1_555 1_555
H26 C73 1_555 1_555
H27 C73 1_555 1_555
C74 C72 1_555 1_555
H28 C74 1_555 1_555
H29 C74 1_555 1_555
H30 C74 1_555 1_555
C75 C72 1_555 1_555
H31 C75 1_555 1_555
H32 C75 1_555 1_555
H33 C75 1_555 1_555
C76 C77 1_555 1_555
C77 H34 1_555 1_555
H35 C77 1_555 1_555
H36 C77 1_555 1_555
C78 C76 1_555 1_555
H37 C78 1_555 1_555
H38 C78 1_555 1_555
H39 C78 1_555 1_555
C79 C76 1_555 1_555
H40 C79 1_555 1_555
H41 C79 1_555 1_555
H42 C79 1_555 1_555
C80 N1 1_555 1_555
C81 C80 1_555 1_555
H43 C81 1_555 1_555
C82 C81 1_555 1_555
H44 C82 1_555 1_555
C83 C82 1_555 1_555
H45 C83 1_555 1_555
C84 C83 1_555 1_555
H46 C84 1_555 1_555
C85 C80 1_555 1_555
H47 C85 1_555 1_555
C86 S2B 1_555 1_555
N1 C61 1_555 1_555
C8 C9 1_555 1_555
C10 C26 1_555 1_555
C11 C12 1_555 1_555
C11 C29 1_555 1_555
C14 C15 1_555 1_555
C17 C18 1_555 1_555
C19 C20 1_555 1_555
C21 C22 1_555 1_555
C24 C25 1_555 1_555
C24 C44 1_555 1_555
C25 C26 1_555 1_555
C28 C29 1_555 1_555
C29 C30 1_555 1_555
C32 C33 1_555 1_555
C33 C34 1_555 1_555
C36 C37 1_555 1_555
C37 C38 1_555 1_555
C39 C40 1_555 1_555
C41 C42 1_555 1_555
C43 C44 1_555 1_555
C44 C45 1_555 1_555
C46 C47 1_555 1_555
C46 C58 1_555 1_555
C47 C48 1_555 1_555
C49 C50 1_555 1_555
C50 C51 1_555 1_555
C52 C53 1_555 1_555
C53 C54 1_555 1_555
C54 C55 1_555 1_555
C56 C57 1_555 1_555
C56 C60 1_555 1_555
C57 C58 1_555 1_555
C58 C59 1_555 1_555
C59 C60 1_555 1_555
C84 C85 1_555 1_555

#END
