
#######################################################################
#
#                 Cambridge Crystallographic Data Centre
#                                CCDC 
#
#######################################################################
#
# If this CIF has been generated from an entry in the Cambridge 
# Structural Database, then it will include bibliographic, chemical, 
# crystal, experimental, refinement or atomic coordinate data resulting 
# from the CCDC's data processing and validation procedures.
#
#######################################################################

data_DOCDIJ
_chemical_formula_moiety         'C9 H16 O2'
_chemical_name_systematic        '(2R*,3S*)-2,3,4-Trimethylhex-4-enoic acid'
_symmetry_cell_setting           triclinic
_symmetry_space_group_name_H-M   'P -1'
_symmetry_Int_Tables_number      2
_space_group_name_Hall           '-P 1'
loop_
_symmetry_equiv_pos_site_id
_symmetry_equiv_pos_as_xyz
1 x,y,z
2 -x,-y,-z
_cell_length_a                   6.448(8)
_cell_length_b                   6.734(8)
_cell_length_c                   11.712(14)
_cell_angle_alpha                102.27(3)
_cell_angle_beta                 104.14(3)
_cell_angle_gamma                93.99(3)
_cell_volume                     477.894
_exptl_crystal_colour            colorless
_exptl_crystal_description       plate
_chemical_melting_point          '315-317 K'
_cell_formula_units_Z            2
_exptl_crystal_recrystallization_method 'hexanes/ethyl acetate'
loop_
_atom_site_label
_atom_site_type_symbol
_atom_site_fract_x
_atom_site_fract_y
_atom_site_fract_z
C1 C 0.152(2) 0.8292(15) 0.4094(12)
C2 C 0.2934(9) 0.7293(10) 0.3317(5)
H1 H 0.4348 0.7230 0.3849
C3 C 0.1839(9) 0.5128(8) 0.2718(5)
H2 H 0.0390 0.5208 0.2232
C4 C 0.306(2) 0.3964(16) 0.1869(11)
C5 C 0.1966(15) 0.319(2) 0.0697(12)
H3 H 0.0584 0.3546 0.0470
C6 C 0.267(2) 0.184(3) -0.0274(15)
H4 H 0.4181 0.1745 0.0007
H5 H 0.2426 0.2413 -0.0974
H6 H 0.1866 0.0506 -0.0485
C7 C 0.3256(17) 0.8429(19) 0.2361(14)
H7 H 0.4202 0.7763 0.1930
H8 H 0.3878 0.9819 0.2750
H9 H 0.1888 0.8421 0.1802
C8 C 0.161(2) 0.3975(18) 0.3691(10)
H10 H 0.2996 0.4042 0.4245
H11 H 0.1046 0.2568 0.3310
H12 H 0.0643 0.4595 0.4124
C9 C 0.533(2) 0.386(2) 0.2377(12)
H13 H 0.5851 0.2916 0.1805
H14 H 0.5513 0.3397 0.3112
H15 H 0.6132 0.5192 0.2548
O1 O 0.2503(11) 0.9075(17) 0.5207(10)
H16 H 0.1650 0.9579 0.5565
O2 O -0.0280(13) 0.8514(14) 0.3624(6)
C10? C 0.160(2) 0.819(3) 0.4141(14)
C11? C 0.2548(17) 0.6204(17) 0.3605(11)
H17? H 0.4101 0.6407 0.3993
C12? C 0.2256(14) 0.6218(12) 0.2283(9)
H18? H 0.0703 0.6095 0.1908
C13? C 0.308(3) 0.450(2) 0.1613(18)
C14? C 0.188(5) 0.322(3) 0.075(3)
H19? H 0.0400 0.3183 0.0630
C15? C 0.275(5) 0.168(4) -0.012(2)
H20? H 0.1748 0.1355 -0.0909
H21? H 0.2929 0.0458 0.0169
H22? H 0.4115 0.2273 -0.0169
C16? C 0.327(5) 0.834(3) 0.222(3)
H23? H 0.4765 0.8589 0.2665
H24? H 0.2520 0.9398 0.2557
H25? H 0.3164 0.8357 0.1385
C17? C 0.164(4) 0.417(4) 0.375(3)
H26? H 0.0131 0.3879 0.3328
H27? H 0.1808 0.4225 0.4594
H28? H 0.2389 0.3103 0.3418
C18? C 0.553(5) 0.429(4) 0.199(2)
H29? H 0.6302 0.5544 0.2532
H30? H 0.6063 0.4010 0.1283
H31? H 0.5746 0.3186 0.2392
O3? O -0.037(4) 0.833(3) 0.371(2)
H32? H -0.0671 0.9418 0.4065
O4? O 0.253(3) 0.904(3) 0.519(2)
loop_
_geom_bond_atom_site_label_1
_geom_bond_atom_site_label_2
_geom_bond_site_symmetry_1
_geom_bond_site_symmetry_2
C1 C2 1_555 1_555
C2 H1 1_555 1_555
C3 C2 1_555 1_555
H2 C3 1_555 1_555
C4 C3 1_555 1_555
C5 C4 1_555 1_555
H3 C5 1_555 1_555
C6 C5 1_555 1_555
H4 C6 1_555 1_555
H5 C6 1_555 1_555
H6 C6 1_555 1_555
C7 C2 1_555 1_555
H7 C7 1_555 1_555
H8 C7 1_555 1_555
H9 C7 1_555 1_555
C8 C3 1_555 1_555
H10 C8 1_555 1_555
H11 C8 1_555 1_555
H12 C8 1_555 1_555
C9 C4 1_555 1_555
H13 C9 1_555 1_555
H14 C9 1_555 1_555
H15 C9 1_555 1_555
O1 C1 1_555 1_555
H16 O1 1_555 1_555
O2 C1 1_555 1_555

#END
