
#######################################################################
#
#                 Cambridge Crystallographic Data Centre
#                                CCDC 
#
#######################################################################
#
# If this CIF has been generated from an entry in the Cambridge 
# Structural Database, then it will include bibliographic, chemical, 
# crystal, experimental, refinement or atomic coordinate data resulting 
# from the CCDC's data processing and validation procedures.
#
#######################################################################

data_DOCRUK
_chemical_formula_moiety         'C15 H19 N3 O4'
_chemical_name_systematic        
N-(3-(t-butylamino)-2-methyl-3-oxoprop-1-en-1-yl)-4-nitrobenzamide
_symmetry_cell_setting           rhombohedral
_symmetry_space_group_name_H-M   'R -3'
_symmetry_Int_Tables_number      148
_space_group_name_Hall           '-P 3*'
loop_
_symmetry_equiv_pos_site_id
_symmetry_equiv_pos_as_xyz
1 x,y,z
2 z,x,y
3 y,z,x
4 -x,-y,-z
5 -z,-x,-y
6 -y,-z,-x
_cell_length_a                   15.5832(8)
_cell_length_b                   15.5832(8)
_cell_length_c                   15.5832(8)
_cell_angle_alpha                113.28
_cell_angle_beta                 113.28
_cell_angle_gamma                113.28
_cell_volume                     2416.9
_exptl_crystal_colour            yellow
_exptl_crystal_description       block
_cell_formula_units_Z            6
loop_
_atom_site_label
_atom_site_type_symbol
_atom_site_fract_x
_atom_site_fract_y
_atom_site_fract_z
O1 O 0.11154(17) 0.83728(17) 0.72095(17)
C1 C 0.1364(2) 0.7702(2) 0.7121(2)
C2 C 0.0406(2) 0.6387(2) 0.6502(2)
C3 C -0.0822(2) 0.5836(2) 0.5705(2)
H1 H -0.1025 0.6283 0.5541
C4 C -0.1754(2) 0.4645(3) 0.5146(2)
H2 H -0.2596 0.4264 0.4598
C5 C -0.1423(2) 0.4026(2) 0.5409(2)
N1 N -0.2394(2) 0.2774(2) 0.4860(2)
O2 O -0.3447(2) 0.2386(2) 0.4327(2)
O3 O -0.2115(2) 0.2168(2) 0.4953(2)
C6 C -0.0216(2) 0.4529(3) 0.6173(2)
H3 H -0.0022 0.4070 0.6320
C7 C 0.0703(2) 0.5721(2) 0.6720(2)
H4 H 0.1543 0.6088 0.7247
N2 N 0.25109(18) 0.81031(19) 0.75877(19)
H5 H 0.2417 0.7591 0.6933
C8 C 0.3492(2) 0.9287(2) 0.8185(2)
H6 H 0.3354 0.9850 0.8299
C9 C 0.4620(2) 0.9708(2) 0.8617(2)
C10 C 0.5616(3) 1.1030(2) 0.9283(3)
H7 H 0.5314 1.1473 0.9403
H8 H 0.5851 1.1074 0.8794
H9 H 0.6336 1.1407 1.0088
C11 C 0.4901(2) 0.8870(2) 0.8470(2)
O4 O 0.41609(16) 0.78371(16) 0.81232(18)
N3 N 0.59821(19) 0.92991(19) 0.8747(2)
H10 H 0.5953 0.9432 0.8215
C12 C 0.6482(2) 0.8655(2) 0.8723(3)
C13 C 0.5613(3) 0.7402(3) 0.7443(3)
H11 H 0.4846 0.6852 0.7252
H12 H 0.6007 0.7045 0.7424
H13 H 0.5428 0.7504 0.6829
C14 C 0.6681(3) 0.8512(3) 0.9677(3)
H14 H 0.7238 0.9327 1.0492
H15 H 0.7046 0.8125 0.9695
H16 H 0.5887 0.7993 0.9460
C15 C 0.7714(3) 0.9495(3) 0.9079(3)
H17 H 0.7585 0.9614 0.8481
H18 H 0.8089 0.9118 0.9080
H19 H 0.8262 1.0295 0.9904
loop_
_geom_bond_atom_site_label_1
_geom_bond_atom_site_label_2
_geom_bond_site_symmetry_1
_geom_bond_site_symmetry_2
O1 C1 1_555 1_555
C1 C2 1_555 1_555
C2 C3 1_555 1_555
C3 H1 1_555 1_555
C4 C3 1_555 1_555
H2 C4 1_555 1_555
C5 C4 1_555 1_555
N1 C5 1_555 1_555
O2 N1 1_555 1_555
O3 N1 1_555 1_555
C6 C5 1_555 1_555
H3 C6 1_555 1_555
C7 C2 1_555 1_555
H4 C7 1_555 1_555
N2 C1 1_555 1_555
H5 N2 1_555 1_555
C8 N2 1_555 1_555
H6 C8 1_555 1_555
C9 C8 1_555 1_555
C10 C9 1_555 1_555
H7 C10 1_555 1_555
H8 C10 1_555 1_555
H9 C10 1_555 1_555
C11 C9 1_555 1_555
O4 C11 1_555 1_555
N3 C11 1_555 1_555
H10 N3 1_555 1_555
C12 N3 1_555 1_555
C13 C12 1_555 1_555
H11 C13 1_555 1_555
H12 C13 1_555 1_555
H13 C13 1_555 1_555
C14 C12 1_555 1_555
H14 C14 1_555 1_555
H15 C14 1_555 1_555
H16 C14 1_555 1_555
C15 C12 1_555 1_555
H17 C15 1_555 1_555
H18 C15 1_555 1_555
H19 C15 1_555 1_555
C6 C7 1_555 1_555

#END
