
#######################################################################
#
#                 Cambridge Crystallographic Data Centre
#                                CCDC 
#
#######################################################################
#
# If this CIF has been generated from an entry in the Cambridge 
# Structural Database, then it will include bibliographic, chemical, 
# crystal, experimental, refinement or atomic coordinate data resulting 
# from the CCDC's data processing and validation procedures.
#
#######################################################################

data_DOCVUM07
_chemical_formula_moiety         '2(C42 H70 O35),2(C12 H15 N1 O3),21(H2 O1)'
_chemical_name_systematic        
'bis(\b-Cyclodextrin) bis(N-acetyl-L-phenylalanine methyl ester) clathrate hydrate'
_symmetry_cell_setting           triclinic
_symmetry_space_group_name_H-M   'P 1'
_symmetry_Int_Tables_number      1
_space_group_name_Hall           'P 1'
loop_
_symmetry_equiv_pos_site_id
_symmetry_equiv_pos_as_xyz
1 x,y,z
_cell_length_a                   18.025(4)
_cell_length_b                   15.364(3)
_cell_length_c                   15.541(3)
_cell_angle_alpha                103.83(3)
_cell_angle_beta                 113.06(3)
_cell_angle_gamma                98.61(3)
_cell_volume                     3699.79
_exptl_crystal_colour            colorless
_exptl_crystal_description       parallelepiped
_cell_formula_units_Z            1
_exptl_crystal_recrystallization_method 'aqueous solution'
loop_
_atom_site_label
_atom_site_type_symbol
_atom_site_fract_x
_atom_site_fract_y
_atom_site_fract_z
C1 C 0.2031(4) 0.0051(4) 0.2576(5)
H1 H 0.1906 -0.0516 0.2736
C2 C 0.2710(4) 0.0021(5) 0.2226(5)
H2 H 0.2503 -0.0534 0.1641
C3 C 0.2879(4) 0.0873(5) 0.1924(5)
H3 H 0.3093 0.1434 0.2505
C4 C 0.2069(4) 0.0918(5) 0.1138(5)
H4 H 0.1874 0.0390 0.0531
C5 C 0.1406(5) 0.0900(6) 0.1509(7)
H5 H 0.1592 0.1463 0.2080
C6 C 0.0560(6) 0.0867(10) 0.0744(11)
H7 H 0.0637 0.1377 0.0492
O1 O 0.3446(3) -0.0053(4) 0.2971(4)
O2 O 0.3484(3) 0.0841(4) 0.1545(5)
O3 O 0.2233(3) 0.1769(3) 0.0948(4)
O4 O 0.1291(3) 0.0100(4) 0.1820(4)
O7 O -0.0076(16) 0.0567(17) 0.0816(19)
C7 C 0.2025(4) 0.1729(5) -0.0051(5)
H8 H 0.1869 0.1079 -0.0468
C8 C 0.2790(4) 0.2268(5) -0.0059(5)
H9 H 0.2647 0.2258 -0.0738
C9 C 0.3040(4) 0.3266(5) 0.0585(5)
H10 H 0.3182 0.3292 0.1269
C10 C 0.2310(4) 0.3676(4) 0.0213(5)
H11 H 0.2211 0.3727 -0.0438
C11 C 0.1507(4) 0.3084(5) 0.0145(5)
H12 H 0.1568 0.3138 0.0812
C12 C 0.0742(4) 0.3366(5) -0.0412(6)
H13 H 0.0245 0.2928 -0.0511
H14 H 0.0768 0.3978 -0.0027
O8 O 0.3447(3) 0.1837(4) 0.0237(4)
O9 O 0.3736(3) 0.3806(4) 0.0553(4)
O10 O 0.2530(3) 0.4581(3) 0.0907(4)
O11 O 0.1339(3) 0.2121(4) -0.0409(4)
O12 O 0.0689(3) 0.3384(5) -0.1329(4)
C13 C 0.2418(4) 0.5331(5) 0.0529(5)
H15 H 0.2242 0.5107 -0.0185
C14 C 0.3255(4) 0.6085(5) 0.1041(5)
H16 H 0.3184 0.6592 0.0760
C15 C 0.3509(3) 0.6471(4) 0.2137(5)
H17 H 0.3600 0.5980 0.2438
C16 C 0.2812(4) 0.6851(4) 0.2273(5)
H18 H 0.2743 0.7365 0.2005
C17 C 0.1991(4) 0.6059(5) 0.1729(5)
H19 H 0.2053 0.5563 0.2026
C18 C 0.1259(4) 0.6410(7) 0.1774(6)
H20 H 0.0745 0.5910 0.1378
H21 H 0.1337 0.6598 0.2452
O13 O 0.3872(3) 0.5709(4) 0.0863(4)
O14 O 0.4258(3) 0.7222(4) 0.2599(4)
O15 O 0.3031(3) 0.7171(3) 0.3308(3)
O16 O 0.1794(3) 0.5695(4) 0.0709(4)
O17 O 0.1190(5) 0.7168(7) 0.1420(6)
C19 C 0.3033(4) 0.8099(4) 0.3718(5)
H22 H 0.2966 0.8417 0.3226
C20 C 0.3877(4) 0.8581(4) 0.4609(5)
H23 H 0.3887 0.9228 0.4894
C21 C 0.3976(4) 0.8102(4) 0.5379(5)
H24 H 0.3973 0.7455 0.5111
C22 C 0.3249(4) 0.8122(4) 0.5648(4)
H25 H 0.3294 0.8764 0.5996
C23 C 0.2410(4) 0.7711(4) 0.4727(5)
H26 H 0.2329 0.7040 0.4452
C24 C 0.1682(4) 0.7861(6) 0.4951(6)
H27 H 0.1163 0.7588 0.4346
H28 H 0.1655 0.7545 0.5413
O18 O 0.4537(3) 0.8589(3) 0.4332(4)
O19 O 0.4746(3) 0.8582(4) 0.6252(4)
O20 O 0.3312(3) 0.7569(3) 0.6291(4)
O21 O 0.2379(3) 0.8131(3) 0.3993(4)
O22 O 0.1763(4) 0.8825(5) 0.5363(5)
C25 C 0.3322(4) 0.7979(5) 0.7220(6)
H29 H 0.3346 0.8639 0.7322
C26 C 0.4092(4) 0.7894(5) 0.8021(5)
H30 H 0.4099 0.8184 0.8659
C27 C 0.4060(4) 0.6882(4) 0.7903(5)
H31 H 0.4058 0.6574 0.7273
C28 C 0.3275(4) 0.6414(4) 0.7931(5)
H32 H 0.3308 0.6674 0.8589
C29 C 0.2490(5) 0.6547(5) 0.7140(6)
H33 H 0.2397 0.6190 0.6476
O23 O 0.4839(3) 0.8371(4) 0.8031(4)
O24 O 0.4775(3) 0.6818(4) 0.8713(4)
O25 O 0.3199(3) 0.5435(3) 0.7710(3)
O26 O 0.2600(4) 0.7527(4) 0.7239(5)
C30 C 0.1727(7) 0.6259(8) 0.7280(9)
H34 H 0.1633 0.5608 0.7236
O28 O 0.187(2) 0.679(2) 0.821(3)
C31 C 0.3129(4) 0.5022(4) 0.8407(5)
H36 H 0.3197 0.5506 0.8993
C32 C 0.3816(4) 0.4536(4) 0.8700(5)
H37 H 0.3753 0.4226 0.9160
C33 C 0.3725(4) 0.3803(4) 0.7794(5)
H38 H 0.3773 0.4096 0.7316
C34 C 0.2872(4) 0.3112(4) 0.7337(5)
H39 H 0.2848 0.2771 0.7788
C35 C 0.2172(4) 0.3605(4) 0.7119(5)
H40 H 0.2131 0.3852 0.6581
C36 C 0.1329(4) 0.2946(5) 0.6836(6)
H41 H 0.0919 0.3300 0.6779
H42 H 0.1145 0.2487 0.6193
O29 O 0.4625(3) 0.5197(3) 0.9189(4)
O30 O 0.4359(3) 0.3334(3) 0.8073(4)
O31 O 0.2756(3) 0.2477(3) 0.6430(4)
O32 O 0.2339(3) 0.4358(3) 0.7994(4)
O33 O 0.1351(3) 0.2483(4) 0.7517(5)
C37 C 0.2546(4) 0.1512(5) 0.6299(6)
H43 H 0.2544 0.1425 0.6903
C38 C 0.3211(4) 0.1101(5) 0.6094(5)
H44 H 0.3072 0.0438 0.6020
C39 C 0.3203(4) 0.1186(4) 0.5164(5)
H45 H 0.3331 0.1845 0.5217
C40 C 0.2342(4) 0.0671(4) 0.4313(5)
H46 H 0.2233 0.0003 0.4221
C41 C 0.1680(4) 0.1049(5) 0.4556(6)
H47 H 0.1732 0.1686 0.4532
C42 C 0.0799(5) 0.0452(6) 0.3833(7)
H48 H 0.0396 0.0730 0.3983
H49 H 0.0699 0.0424 0.3166
O34 O 0.4009(4) 0.1544(4) 0.6921(4)
O35 O 0.3800(3) 0.0776(4) 0.4951(4)
O36 O 0.2334(3) 0.0827(3) 0.3433(4)
O37 O 0.1755(3) 0.1050(4) 0.5496(4)
O38 O 0.0682(4) -0.0498(5) 0.3892(6)
C43 C 0.7290(4) 0.2741(4) 0.8640(5)
H50 H 0.7282 0.2125 0.8715
C44 C 0.6627(4) 0.3093(4) 0.8888(5)
H51 H 0.6755 0.3131 0.9572
C45 C 0.6654(4) 0.4060(4) 0.8804(5)
H52 H 0.6530 0.4034 0.8124
C46 C 0.7523(4) 0.4700(4) 0.9509(5)
H53 H 0.7637 0.4767 1.0196
C47 C 0.8173(4) 0.4295(4) 0.9260(5)
H54 H 0.8110 0.4311 0.8609
C48 C 0.9060(5) 0.4820(5) 1.0052(7)
H55 H 0.9454 0.4562 0.9863
H56 H 0.9164 0.5468 1.0082
O39 O 0.5821(3) 0.2462(3) 0.8249(4)
O40 O 0.6045(3) 0.4402(3) 0.9066(4)
O41 O 0.7550(3) 0.5582(3) 0.9356(3)
O42 O 0.8093(3) 0.3359(3) 0.9291(4)
O43 O 0.9207(4) 0.4781(5) 1.0996(5)
C49 C 0.7850(4) 0.6394(4) 1.0187(5)
H57 H 0.7961 0.6214 1.0781
C50 C 0.7185(4) 0.6910(4) 1.0040(5)
H58 H 0.7389 0.7465 1.0624
C51 C 0.7026(4) 0.7222(4) 0.9137(5)
H59 H 0.6813 0.6674 0.8544
C52 C 0.7841(4) 0.7814(5) 0.9286(5)
H60 H 0.8031 0.8392 0.9842
C53 C 0.8506(4) 0.7285(5) 0.9481(5)
H61 H 0.8335 0.6746 0.8892
O44 O 0.6444(3) 0.6328(4) 0.9947(4)
O45 O 0.6419(3) 0.7748(4) 0.9029(5)
O46 O 0.7706(3) 0.8025(3) 0.8395(4)
O47 O 0.8596(3) 0.6967(3) 1.0309(4)
C54 C 0.9365(5) 0.7880(6) 0.9745(7)
H62 H 0.9771 0.7519 0.9873
H63 H 0.9349 0.8097 0.9202
O48 O 0.9598(4) 0.8660(5) 1.0616(7)
C55 C 0.7893(4) 0.8970(4) 0.8451(5)
H64 H 0.8031 0.9365 0.9120
C56 C 0.7110(4) 0.9124(4) 0.7709(5)
H65 H 0.7229 0.9779 0.7744
C57 C 0.6893(4) 0.8522(4) 0.6680(5)
H66 H 0.6772 0.7864 0.6633
C58 C 0.7626(4) 0.8770(4) 0.6455(5)
H67 H 0.7700 0.9403 0.6417
C59 C 0.8430(4) 0.8705(5) 0.7260(5)
H68 H 0.8387 0.8048 0.7202
C60 C 0.9208(4) 0.9109(5) 0.7158(6)
H69 H 0.9707 0.9090 0.7697
H70 H 0.9181 0.8740 0.6540
O49 O 0.6437(3) 0.8926(4) 0.7960(4)
O50 O 0.6175(3) 0.8692(4) 0.5986(4)
O51 O 0.7437(3) 0.8114(3) 0.5520(4)
O52 O 0.8571(3) 0.9207(3) 0.8238(4)
O53 O 0.9251(4) 1.0041(4) 0.7176(6)
C61 C 0.7554(4) 0.8476(5) 0.4820(5)
H71 H 0.7731 0.9158 0.5093
C62 C 0.6731(4) 0.8173(4) 0.3878(5)
H72 H 0.6815 0.8455 0.3409
C63 C 0.6467(4) 0.7116(4) 0.3412(5)
H73 H 0.6369 0.6824 0.3868
C64 C 0.7157(4) 0.6818(4) 0.3198(5)
H74 H 0.7233 0.7075 0.2709
C65 C 0.7973(4) 0.7168(5) 0.4170(6)
H75 H 0.7903 0.6877 0.4639
O54 O 0.6108(3) 0.8488(3) 0.4106(4)
O55 O 0.5710(3) 0.6852(4) 0.2509(4)
O56 O 0.6927(3) 0.5817(3) 0.2826(4)
O57 O 0.8178(3) 0.8164(4) 0.4588(4)
C66 C 0.8705(5) 0.6959(8) 0.4000(7)
H76 H 0.9214 0.7245 0.4615
H77 H 0.8628 0.6291 0.3808
O58 O 0.8795(7) 0.7278(8) 0.3278(10)
C67 C 0.6905(4) 0.5401(5) 0.1900(5)
H78 H 0.6967 0.5879 0.1595
C68 C 0.6049(4) 0.4687(4) 0.1248(5)
H79 H 0.6023 0.4388 0.0601
C69 C 0.5957(4) 0.3953(5) 0.1720(5)
H80 H 0.5969 0.4242 0.2362
C70 C 0.6669(4) 0.3505(4) 0.1872(5)
H81 H 0.6611 0.3137 0.1229
C71 C 0.7516(4) 0.4236(5) 0.2434(5)
H82 H 0.7616 0.4516 0.3120
C72 C 0.8229(4) 0.3831(5) 0.2434(6)
H83 H 0.8748 0.4325 0.2773
H84 H 0.8280 0.3387 0.2791
O59 O 0.5401(3) 0.5142(4) 0.1110(4)
O60 O 0.5180(3) 0.3248(4) 0.1096(4)
O61 O 0.6630(3) 0.2906(3) 0.2446(4)
O62 O 0.7536(3) 0.4957(3) 0.1993(4)
O63 O 0.8097(4) 0.3384(6) 0.1463(6)
C73 C 0.6589(5) 0.1966(5) 0.2062(6)
H85 H 0.6562 0.1849 0.1401
C74 C 0.5810(5) 0.1350(5) 0.1978(6)
H86 H 0.5798 0.0700 0.1704
C75 C 0.5843(4) 0.1489(5) 0.2975(6)
H87 H 0.5863 0.2136 0.3271
C76 C 0.6612(4) 0.1261(5) 0.3634(5)
H88 H 0.6554 0.0594 0.3378
C77 C 0.7403(5) 0.1820(6) 0.3657(7)
H89 H 0.7494 0.2477 0.4007
O64 O 0.5087(4) 0.1515(4) 0.1318(5)
O65 O 0.5104(4) 0.0869(5) 0.2877(5)
O66 O 0.6698(3) 0.1489(3) 0.4614(4)
O67 O 0.7311(4) 0.1746(5) 0.2675(5)
C78 C 0.8173(10) 0.1538(11) 0.4198(12)
O68 O 0.8073(10) 0.0617(11) 0.3742(12)
C79 C 0.6761(4) 0.0794(4) 0.5063(5)
H90 H 0.6705 0.0215 0.4580
C80 C 0.6046(4) 0.0631(4) 0.5348(5)
H91 H 0.6087 0.0134 0.5645
C81 C 0.6128(4) 0.1511(4) 0.6097(4)
H92 H 0.6086 0.2013 0.5807
C82 C 0.6982(4) 0.1772(4) 0.6989(4)
H93 H 0.7005 0.1303 0.7322
C83 C 0.7685(4) 0.1860(4) 0.6675(5)
H94 H 0.7709 0.2395 0.6436
C84 C 0.8533(4) 0.1987(5) 0.7517(6)
H95 H 0.8950 0.1993 0.7267
H96 H 0.8692 0.2586 0.8020
O69 O 0.5267(3) 0.0355(3) 0.4493(4)
O70 O 0.5477(3) 0.1355(4) 0.6388(4)
O71 O 0.7079(3) 0.2661(3) 0.7649(3)
O72 O 0.7539(3) 0.1025(3) 0.5891(4)
O73 O 0.8536(3) 0.1281(4) 0.7951(4)
O74 O 0.4683(6) 0.0260(6) 0.7578(7)
O76 O 0.0595(5) 0.0606(4) 0.6846(7)
O77 O 0.9681(5) 0.6459(6) 0.2461(7)
O78 O 0.7758(8) 0.1521(8) 0.0603(9)
O79 O 0.8952(6) 0.1537(7) 0.9904(6)
O81 O 0.5078(17) 0.8947(16) 0.2514(18)
O82 O 0.4971(16) 0.0074(17) -0.0428(19)
O84 O 0.4441(13) 0.7342(14) 0.0494(14)
O85 O 0.6019(18) -0.087(2) 0.037(2)
O86 O 0.1846(7) 0.9668(7) 0.7178(7)
O87 O 0.6461(10) 1.0643(11) 0.8753(13)
O89 O 0.109(3) 0.824(3) 0.767(3)
O91 O 0.221(3) 0.898(3) 0.870(3)
O92 O 0.0862(8) 0.8716(11) 0.9167(11)
O93 O 0.1747(12) 0.7749(10) 0.0188(12)
O94 O 0.0039(13) 0.3360(12) 0.1250(14)
O97 O 0.0196(12) 0.7945(14) 0.2312(14)
O98 O 0.5179(8) 0.1950(8) 0.9389(8)
O100 O 0.5740(18) 0.7415(18) 1.092(2)
O103 O 0.3310(14) 0.0963(18) 0.8397(17)
O104 O 0.893(6) -0.086(6) 0.335(7)
O105 O 0.989(2) -0.077(3) 0.496(3)
O108 O 0.9807(19) 0.713(2) 0.713(3)
O109 O 0.9020(16) 0.9606(18) 0.175(2)
N1 N 0.2409(4) 0.4515(5) 0.4144(6)
C85 C 0.2848(4) 0.3792(4) 0.4105(5)
C86 C 0.3554(4) 0.3951(5) 0.5113(5)
O110 O 0.3679(5) 0.4592(6) 0.5872(4)
C87 C 0.3224(4) 0.3793(5) 0.3358(4)
C88 C 0.4068(4) 0.4513(5) 0.3740(5)
C89 C 0.4743(4) 0.4217(7) 0.3661(6)
C90 C 0.4180(4) 0.5454(5) 0.4208(6)
C91 C 0.5524(4) 0.4852(8) 0.4060(8)
C92 C 0.4959(5) 0.6090(6) 0.4598(8)
C93 C 0.5631(5) 0.5790(8) 0.4526(8)
C94 C 0.1239(5) 0.5189(8) 0.3523(9)
C95 C 0.1646(4) 0.4395(7) 0.3473(7)
O111 O 0.1265(4) 0.3634(7) 0.2812(7)
O112 O 0.4068(5) 0.3322(5) 0.5145(6)
C96 C 0.4788(5) 0.3653(8) 0.6084(7)
N3 N 0.9844(4) 0.4848(4) 0.6675(5)
C109 C 0.9338(4) 0.4091(5) 0.5740(4)
C110 C 0.9850(6) 0.3866(7) 0.5185(6)
O116 O 1.0622(6) 0.4253(9) 0.5546(7)
C111 C 0.8576(5) 0.4373(6) 0.5078(5)
C112 C 0.8003(5) 0.4684(7) 0.5538(6)
C113 C 0.8110(7) 0.5635(7) 0.5954(8)
C114 C 0.7408(4) 0.4030(8) 0.5591(7)
C115 C 0.7633(8) 0.5930(9) 0.6428(10)
C116 C 0.6927(4) 0.4326(11) 0.6059(10)
C117 C 0.7039(7) 0.5273(11) 0.6479(10)
C118 C 1.0460(5) 0.5577(6) 0.8473(5)
C119 C 0.9933(4) 0.4761(5) 0.7529(4)
O117 O 0.9588(5) 0.4017(5) 0.7553(5)
O118 O 0.9398(8) 0.3179(9) 0.4221(5)
C120 C 0.9972(10) 0.2780(11) 0.3948(8)
H6? H 0.0212 0.0989 0.1077
O5? O 0.0207(9) 0.0226(12) 0.0102(13)
O6? O 0.0280(9) 0.0011(12) -0.0156(13)
H35? H 0.1831 0.6618 0.7941
O27? O 0.1003(10) 0.6375(12) 0.6601(13)
O75? O 0.495(3) 0.020(4) 0.732(4)
O80? O 0.5406(13) 0.8941(13) 0.2412(14)
O83? O 0.476(2) 0.717(2) 0.060(2)
O88? O 0.6282(19) 1.054(2) 0.909(2)
O90? O 0.069(2) 0.793(3) 0.699(3)
O95? O -0.0370(13) 0.3322(13) 0.1311(14)
O96? O 0.0370(6) 0.8155(7) 0.2205(7)
O99? O 0.4855(13) 0.2232(14) 0.9262(15)
O101? O 0.6252(15) 0.7666(15) 1.1259(16)
O102? O 0.3450(14) 0.0616(18) 0.8512(17)
O106? O 0.9452(10) -0.0243(11) 0.4662(12)
O107? O 0.986(3) 0.690(4) 0.646(4)
N2? N 0.9653(5) 0.5192(7) 0.6819(7)
C97? C 0.9217(6) 0.4516(8) 0.5828(7)
C98? C 0.8352(6) 0.4675(9) 0.5246(6)
C99? C 0.7822(5) 0.4842(7) 0.5796(6)
C100? C 0.7875(6) 0.5756(6) 0.6306(8)
C101? C 0.7319(5) 0.4095(7) 0.5859(8)
C102? C 0.7435(6) 0.5918(8) 0.6860(10)
C103? C 0.6870(5) 0.4261(9) 0.6410(10)
C104? C 0.6934(6) 0.5173(10) 0.6916(10)
C105? C 1.0219(6) 0.5692(10) 0.8628(7)
C106? C 0.9700(5) 0.4976(7) 0.7604(6)
O113? O 0.9324(6) 0.4185(8) 0.7501(8)
C107? C 0.9729(8) 0.4590(13) 0.5262(9)
O114? O 1.0498(8) 0.5029(14) 0.5685(12)
O115? O 0.9299(11) 0.4132(17) 0.4214(9)
C108? C 0.9872(13) 0.421(2) 0.3793(12)
loop_
_geom_bond_atom_site_label_1
_geom_bond_atom_site_label_2
_geom_bond_site_symmetry_1
_geom_bond_site_symmetry_2
C1 H1 1_555 1_555
C2 C1 1_555 1_555
H2 C2 1_555 1_555
C3 C2 1_555 1_555
H3 C3 1_555 1_555
C4 C3 1_555 1_555
H4 C4 1_555 1_555
C5 C4 1_555 1_555
H5 C5 1_555 1_555
C6 C5 1_555 1_555
H7 C6 1_555 1_555
O1 C2 1_555 1_555
O2 C3 1_555 1_555
O3 C4 1_555 1_555
O4 C1 1_555 1_555
O7 C6 1_555 1_555
C7 O3 1_555 1_555
H8 C7 1_555 1_555
C8 C7 1_555 1_555
H9 C8 1_555 1_555
C9 C8 1_555 1_555
H10 C9 1_555 1_555
C10 C9 1_555 1_555
H11 C10 1_555 1_555
C11 C10 1_555 1_555
H12 C11 1_555 1_555
C12 C11 1_555 1_555
H13 C12 1_555 1_555
H14 C12 1_555 1_555
O8 C8 1_555 1_555
O9 C9 1_555 1_555
O10 C10 1_555 1_555
O11 C7 1_555 1_555
O12 C12 1_555 1_555
C13 O10 1_555 1_555
H15 C13 1_555 1_555
C14 C13 1_555 1_555
H16 C14 1_555 1_555
C15 C14 1_555 1_555
H17 C15 1_555 1_555
C16 C15 1_555 1_555
H18 C16 1_555 1_555
C17 C16 1_555 1_555
H19 C17 1_555 1_555
C18 C17 1_555 1_555
H20 C18 1_555 1_555
H21 C18 1_555 1_555
O13 C14 1_555 1_555
O14 C15 1_555 1_555
O15 C16 1_555 1_555
O16 C13 1_555 1_555
O17 C18 1_555 1_555
C19 O15 1_555 1_555
H22 C19 1_555 1_555
C20 C19 1_555 1_555
H23 C20 1_555 1_555
C21 C20 1_555 1_555
H24 C21 1_555 1_555
C22 C21 1_555 1_555
H25 C22 1_555 1_555
C23 C22 1_555 1_555
H26 C23 1_555 1_555
C24 C23 1_555 1_555
H27 C24 1_555 1_555
H28 C24 1_555 1_555
O18 C20 1_555 1_555
O19 C21 1_555 1_555
O20 C22 1_555 1_555
O21 C19 1_555 1_555
O22 C24 1_555 1_555
C25 O20 1_555 1_555
H29 C25 1_555 1_555
C26 C25 1_555 1_555
H30 C26 1_555 1_555
C27 C26 1_555 1_555
H31 C27 1_555 1_555
C28 C27 1_555 1_555
H32 C28 1_555 1_555
C29 C28 1_555 1_555
H33 C29 1_555 1_555
O23 C26 1_555 1_555
O24 C27 1_555 1_555
O25 C28 1_555 1_555
O26 C25 1_555 1_555
C30 C29 1_555 1_555
H34 C30 1_555 1_555
O28 C30 1_555 1_555
C31 O25 1_555 1_555
H36 C31 1_555 1_555
C32 C31 1_555 1_555
H37 C32 1_555 1_555
C33 C32 1_555 1_555
H38 C33 1_555 1_555
C34 C33 1_555 1_555
H39 C34 1_555 1_555
C35 C34 1_555 1_555
H40 C35 1_555 1_555
C36 C35 1_555 1_555
H41 C36 1_555 1_555
H42 C36 1_555 1_555
O29 C32 1_555 1_555
O30 C33 1_555 1_555
O31 C34 1_555 1_555
O32 C31 1_555 1_555
O33 C36 1_555 1_555
C37 O31 1_555 1_555
H43 C37 1_555 1_555
C38 C37 1_555 1_555
H44 C38 1_555 1_555
C39 C38 1_555 1_555
H45 C39 1_555 1_555
C40 C39 1_555 1_555
H46 C40 1_555 1_555
C41 C40 1_555 1_555
H47 C41 1_555 1_555
C42 C41 1_555 1_555
H48 C42 1_555 1_555
H49 C42 1_555 1_555
O34 C38 1_555 1_555
O35 C39 1_555 1_555
O36 C1 1_555 1_555
O37 C37 1_555 1_555
O38 C42 1_555 1_555
C43 H50 1_555 1_555
C44 C43 1_555 1_555
H51 C44 1_555 1_555
C45 C44 1_555 1_555
H52 C45 1_555 1_555
C46 C45 1_555 1_555
H53 C46 1_555 1_555
C47 C46 1_555 1_555
H54 C47 1_555 1_555
C48 C47 1_555 1_555
H55 C48 1_555 1_555
H56 C48 1_555 1_555
O39 C44 1_555 1_555
O40 C45 1_555 1_555
O41 C46 1_555 1_555
O42 C43 1_555 1_555
O43 C48 1_555 1_555
C49 O41 1_555 1_555
H57 C49 1_555 1_555
C50 C49 1_555 1_555
H58 C50 1_555 1_555
C51 C50 1_555 1_555
H59 C51 1_555 1_555
C52 C51 1_555 1_555
H60 C52 1_555 1_555
C53 C52 1_555 1_555
H61 C53 1_555 1_555
O44 C50 1_555 1_555
O45 C51 1_555 1_555
O46 C52 1_555 1_555
O47 C49 1_555 1_555
C54 C53 1_555 1_555
H62 C54 1_555 1_555
H63 C54 1_555 1_555
O48 C54 1_555 1_555
C55 O46 1_555 1_555
H64 C55 1_555 1_555
C56 C55 1_555 1_555
H65 C56 1_555 1_555
C57 C56 1_555 1_555
H66 C57 1_555 1_555
C58 C57 1_555 1_555
H67 C58 1_555 1_555
C59 C58 1_555 1_555
H68 C59 1_555 1_555
C60 C59 1_555 1_555
H69 C60 1_555 1_555
H70 C60 1_555 1_555
O49 C56 1_555 1_555
O50 C57 1_555 1_555
O51 C58 1_555 1_555
O52 C55 1_555 1_555
O53 C60 1_555 1_555
C61 O51 1_555 1_555
H71 C61 1_555 1_555
C62 C61 1_555 1_555
H72 C62 1_555 1_555
C63 C62 1_555 1_555
H73 C63 1_555 1_555
C64 C63 1_555 1_555
H74 C64 1_555 1_555
C65 C64 1_555 1_555
H75 C65 1_555 1_555
O54 C62 1_555 1_555
O55 C63 1_555 1_555
O56 C64 1_555 1_555
O57 C61 1_555 1_555
C66 C65 1_555 1_555
H76 C66 1_555 1_555
H77 C66 1_555 1_555
O58 C66 1_555 1_555
C67 O56 1_555 1_555
H78 C67 1_555 1_555
C68 C67 1_555 1_555
H79 C68 1_555 1_555
C69 C68 1_555 1_555
H80 C69 1_555 1_555
C70 C69 1_555 1_555
H81 C70 1_555 1_555
C71 C70 1_555 1_555
H82 C71 1_555 1_555
C72 C71 1_555 1_555
H83 C72 1_555 1_555
H84 C72 1_555 1_555
O59 C68 1_555 1_555
O60 C69 1_555 1_555
O61 C70 1_555 1_555
O62 C67 1_555 1_555
O63 C72 1_555 1_555
C73 O61 1_555 1_555
H85 C73 1_555 1_555
C74 C73 1_555 1_555
H86 C74 1_555 1_555
C75 C74 1_555 1_555
H87 C75 1_555 1_555
C76 C75 1_555 1_555
H88 C76 1_555 1_555
C77 C76 1_555 1_555
H89 C77 1_555 1_555
O64 C74 1_555 1_555
O65 C75 1_555 1_555
O66 C76 1_555 1_555
O67 C73 1_555 1_555
C78 C77 1_555 1_555
O68 C78 1_555 1_555
C79 O66 1_555 1_555
H90 C79 1_555 1_555
C80 C79 1_555 1_555
H91 C80 1_555 1_555
C81 C80 1_555 1_555
H92 C81 1_555 1_555
C82 C81 1_555 1_555
H93 C82 1_555 1_555
C83 C82 1_555 1_555
H94 C83 1_555 1_555
C84 C83 1_555 1_555
H95 C84 1_555 1_555
H96 C84 1_555 1_555
O69 C80 1_555 1_555
O70 C81 1_555 1_555
O71 C43 1_555 1_555
O72 C79 1_555 1_555
O73 C84 1_555 1_555
N1 C85 1_555 1_555
C85 C86 1_555 1_555
C86 O110 1_555 1_555
C87 C85 1_555 1_555
C88 C87 1_555 1_555
C89 C88 1_555 1_555
C90 C88 1_555 1_555
C91 C89 1_555 1_555
C92 C90 1_555 1_555
C93 C91 1_555 1_555
C94 C95 1_555 1_555
C95 N1 1_555 1_555
O111 C95 1_555 1_555
O112 C86 1_555 1_555
C96 O112 1_555 1_555
N3 C109 1_555 1_555
C109 C110 1_555 1_555
C110 O116 1_555 1_555
C111 C109 1_555 1_555
C112 C111 1_555 1_555
C113 C112 1_555 1_555
C114 C112 1_555 1_555
C115 C113 1_555 1_555
C116 C114 1_555 1_555
C117 C115 1_555 1_555
C118 C119 1_555 1_555
C119 N3 1_555 1_555
O117 C119 1_555 1_555
O118 C110 1_555 1_555
C120 O118 1_555 1_555
C5 O4 1_555 1_555
C11 O11 1_555 1_555
C17 O16 1_555 1_555
C23 O21 1_555 1_555
C29 O26 1_555 1_555
C35 O32 1_555 1_555
C40 O36 1_555 1_555
C41 O37 1_555 1_555
C47 O42 1_555 1_555
C53 O47 1_555 1_555
C59 O52 1_555 1_555
C65 O57 1_555 1_555
C71 O62 1_555 1_555
C77 O67 1_555 1_555
C82 O71 1_555 1_555
C83 O72 1_555 1_555
C92 C93 1_555 1_555
C116 C117 1_555 1_555

#END
