
#######################################################################
#
#                 Cambridge Crystallographic Data Centre
#                                CCDC 
#
#######################################################################
#
# If this CIF has been generated from an entry in the Cambridge 
# Structural Database, then it will include bibliographic, chemical, 
# crystal, experimental, refinement or atomic coordinate data resulting 
# from the CCDC's data processing and validation procedures.
#
#######################################################################

data_DOCVUM04
_chemical_formula_moiety         '2(C42 H70 O35),2(C12 H15 N1 O3),23.35(H2 O1)'
_chemical_name_systematic        
'bis(\b-Cyclodextrin) bis(N-acetyl-L-phenylalanine methyl ester) clathrate hydrate'
_symmetry_cell_setting           triclinic
_symmetry_space_group_name_H-M   'P 1'
_symmetry_Int_Tables_number      1
_space_group_name_Hall           'P 1'
loop_
_symmetry_equiv_pos_site_id
_symmetry_equiv_pos_as_xyz
1 x,y,z
_cell_length_a                   18.129(2)
_cell_length_b                   15.411(2)
_cell_length_c                   15.585(2)
_cell_angle_alpha                103.970(10)
_cell_angle_beta                 112.890(10)
_cell_angle_gamma                98.790(10)
_cell_volume                     3741.54
_exptl_crystal_colour            colorless
_exptl_crystal_description       'plate-like parallelepiped'
_cell_formula_units_Z            1
loop_
_atom_site_label
_atom_site_type_symbol
_atom_site_fract_x
_atom_site_fract_y
_atom_site_fract_z
C1 C 0.1984(4) 0.0021(5) 0.2554(5)
H1 H 0.1854 -0.0548 0.2706
C2 C 0.2671(5) -0.0013(5) 0.2203(6)
H2 H 0.2463 -0.0567 0.1619
C3 C 0.2838(4) 0.0839(5) 0.1903(5)
H3 H 0.3063 0.1399 0.2485
C4 C 0.2023(4) 0.0893(5) 0.1132(5)
H4 H 0.1820 0.0364 0.0525
C5 C 0.1366(5) 0.0885(6) 0.1504(7)
H5 H 0.1549 0.1450 0.2070
C6 C 0.0518(7) 0.0829(11) 0.0736(12)
H6 H 0.0143 0.0857 0.1041
H7 H 0.0563 0.1369 0.0526
O1 O 0.0193(6) 0.0090(8) -0.0034(8)
O3 O 0.3393(3) -0.0091(4) 0.2940(4)
O4 O 0.3429(4) 0.0789(5) 0.1515(5)
O5 O 0.2192(3) 0.1739(4) 0.0933(4)
O6 O 0.1257(3) 0.0080(4) 0.1817(4)
C7 C 0.1970(4) 0.1702(5) -0.0065(6)
H8 H 0.1806 0.1053 -0.0487
C8 C 0.2739(5) 0.2237(5) -0.0079(6)
H9 H 0.2594 0.2226 -0.0757
C9 C 0.2996(4) 0.3236(5) 0.0566(5)
H10 H 0.3142 0.3268 0.1251
C10 C 0.2265(4) 0.3644(5) 0.0189(5)
H11 H 0.2168 0.3691 -0.0461
C11 C 0.1471(4) 0.3066(5) 0.0124(5)
H12 H 0.1539 0.3128 0.0793
C12 C 0.0703(5) 0.3352(6) -0.0417(5)
H13 H 0.0209 0.2920 -0.0505
H14 H 0.0738 0.3968 -0.0034
O7 O 0.3403(4) 0.1799(4) 0.0214(5)
O8 O 0.3688(3) 0.3765(4) 0.0516(4)
O9 O 0.2488(3) 0.4553(4) 0.0882(3)
O10 O 0.1308(3) 0.2097(4) -0.0409(4)
O11 O 0.0650(4) 0.3352(5) -0.1352(4)
C13 C 0.2382(4) 0.5301(5) 0.0502(5)
H15 H 0.2214 0.5074 -0.0209
C14 C 0.3224(4) 0.6054(5) 0.1022(5)
H16 H 0.3155 0.6558 0.0743
C15 C 0.3468(4) 0.6446(5) 0.2102(5)
H17 H 0.3555 0.5956 0.2400
C16 C 0.2776(4) 0.6823(5) 0.2249(5)
H18 H 0.2718 0.7344 0.1994
C17 C 0.1951(4) 0.6045(5) 0.1684(5)
H19 H 0.1995 0.5547 0.1975
C18 C 0.1234(5) 0.6404(7) 0.1717(7)
H20 H 0.0721 0.5909 0.1308
H21 H 0.1300 0.6575 0.2389
O12 O 0.1170(5) 0.7160(6) 0.1401(6)
O13 O 0.3835(3) 0.5682(4) 0.0835(4)
O14 O 0.4216(3) 0.7194(4) 0.2580(4)
O15 O 0.2979(3) 0.7132(3) 0.3262(4)
O16 O 0.1769(3) 0.5677(4) 0.0672(4)
C19 C 0.2988(4) 0.8050(4) 0.3687(5)
H22 H 0.2930 0.8377 0.3207
C20 C 0.3831(4) 0.8531(5) 0.4594(5)
H23 H 0.3845 0.9178 0.4879
C21 C 0.3923(4) 0.8055(5) 0.5361(5)
H24 H 0.3912 0.7408 0.5085
C22 C 0.3207(4) 0.8066(5) 0.5619(5)
H25 H 0.3256 0.8707 0.5974
C23 C 0.2363(4) 0.7666(5) 0.4700(5)
H26 H 0.2281 0.6998 0.4415
C24 C 0.1640(5) 0.7795(7) 0.4902(7)
H27 H 0.1132 0.7535 0.4288
H28 H 0.1597 0.7457 0.5339
O17 O 0.4492(3) 0.8536(4) 0.4306(4)
O18 O 0.4695(3) 0.8517(4) 0.6211(4)
O19 O 0.3266(3) 0.7514(3) 0.6257(4)
O20 O 0.2344(3) 0.8097(4) 0.3973(4)
O21 O 0.1718(4) 0.8760(5) 0.5346(5)
C25 C 0.3273(5) 0.7922(5) 0.7178(5)
H29 H 0.3293 0.8579 0.7275
C26 C 0.4054(5) 0.7851(5) 0.7996(6)
H30 H 0.4064 0.8148 0.8633
C27 C 0.4024(4) 0.6833(5) 0.7882(5)
H31 H 0.4019 0.6522 0.7251
C28 C 0.3237(4) 0.6369(5) 0.7908(5)
H32 H 0.3275 0.6628 0.8568
C29 C 0.2464(5) 0.6514(6) 0.7136(6)
H33 H 0.2370 0.6158 0.6473
O22 O 0.4781(4) 0.8322(4) 0.7989(4)
O23 O 0.4740(3) 0.6784(4) 0.8677(4)
O24 O 0.3161(3) 0.5391(3) 0.7687(3)
O25 O 0.2565(4) 0.7473(4) 0.7227(5)
C30 C 0.1686(6) 0.6218(9) 0.7270(11)
H34 H 0.1607 0.5579 0.7263
H35 H 0.1767 0.6604 0.7909
O26 O 0.0982(11) 0.6287(13) 0.6549(13)
C31 C 0.3087(4) 0.4980(4) 0.8379(5)
H36 H 0.3153 0.5465 0.8962
C32 C 0.3790(4) 0.4496(5) 0.8679(5)
H37 H 0.3737 0.4196 0.9148
C33 C 0.3695(4) 0.3758(5) 0.7778(5)
H38 H 0.3743 0.4049 0.7301
C34 C 0.2839(4) 0.3072(5) 0.7320(5)
H39 H 0.2816 0.2730 0.7768
C35 C 0.2143(4) 0.3554(5) 0.7114(5)
C36 C 0.1301(4) 0.2908(6) 0.6826(6)
H40 H 0.0897 0.3264 0.6759
H41 H 0.1120 0.2442 0.6188
O28 O 0.4584(3) 0.5161(4) 0.9145(4)
O29 O 0.4327(3) 0.3296(4) 0.8052(4)
O30 O 0.2728(3) 0.2432(3) 0.6416(4)
O31 O 0.2308(3) 0.4316(4) 0.7973(4)
O32 O 0.1314(4) 0.2456(4) 0.7515(5)
C37 C 0.2514(5) 0.1464(5) 0.6270(6)
H42 H 0.2514 0.1380 0.6873
C38 C 0.3164(5) 0.1060(5) 0.6081(5)
H43 H 0.3020 0.0398 0.6008
C39 C 0.3160(4) 0.1133(5) 0.5134(6)
H44 H 0.3289 0.1791 0.5186
C40 C 0.2309(4) 0.0634(5) 0.4301(5)
H45 H 0.2198 -0.0035 0.4202
C41 C 0.1650(5) 0.0999(5) 0.4535(6)
H46 H 0.1704 0.1635 0.4516
O33 O 0.3977(4) 0.1497(4) 0.6897(4)
O34 O 0.3763(3) 0.0731(4) 0.4929(4)
O35 O 0.2294(3) 0.0793(3) 0.3421(4)
O36 O 0.1732(4) 0.1002(4) 0.5491(4)
C42 C 0.0772(5) 0.0409(7) 0.3817(7)
H47 H 0.0376 0.0688 0.3974
H48 H 0.0671 0.0385 0.3152
O37 O 0.0653(5) -0.0524(5) 0.3867(5)
C43 C 0.7246(4) 0.2712(5) 0.8613(5)
H49 H 0.7240 0.2099 0.8692
C44 C 0.6591(4) 0.3064(4) 0.8860(5)
H50 H 0.6720 0.3109 0.9544
C45 C 0.6611(4) 0.4019(5) 0.8770(5)
H51 H 0.6484 0.3987 0.8090
C46 C 0.7480(4) 0.4681(5) 0.9474(5)
H52 H 0.7594 0.4752 1.0159
C47 C 0.8127(4) 0.4266(5) 0.9227(5)
H53 H 0.8063 0.4283 0.8578
C48 C 0.9011(5) 0.4795(7) 1.0003(8)
H54 H 0.9398 0.4536 0.9806
H55 H 0.9112 0.5439 1.0028
O38 O 0.9172(4) 0.4765(5) 1.0954(5)
O39 O 0.5792(3) 0.2440(4) 0.8235(4)
O40 O 0.6009(3) 0.4372(4) 0.9039(4)
O41 O 0.7504(3) 0.5548(3) 0.9326(3)
O42 O 0.8048(3) 0.3333(4) 0.9240(4)
C49 C 0.7819(4) 0.6351(5) 1.0166(5)
H56 H 0.7936 0.6168 1.0756
C50 C 0.7146(5) 0.6891(5) 1.0030(5)
H57 H 0.7352 0.7445 1.0615
C51 C 0.6973(4) 0.7190(5) 0.9126(5)
H58 H 0.6754 0.6640 0.8534
C52 C 0.7788(4) 0.7792(5) 0.9260(5)
H59 H 0.7984 0.8372 0.9813
C53 C 0.8445(4) 0.7249(5) 0.9441(5)
H60 H 0.8271 0.6711 0.8850
C54 C 0.9309(5) 0.7846(7) 0.9710(7)
H61 H 0.9707 0.7484 0.9846
H62 H 0.9296 0.8047 0.9163
O43 O 0.9551(4) 0.8627(5) 1.0550(6)
O44 O 0.6407(4) 0.6303(4) 0.9932(4)
O45 O 0.6381(3) 0.7723(4) 0.9030(5)
O46 O 0.7647(3) 0.7988(3) 0.8362(4)
O47 O 0.8548(3) 0.6933(4) 1.0276(4)
C55 C 0.7840(4) 0.8941(5) 0.8426(5)
H63 H 0.7982 0.9337 0.9094
C56 C 0.7070(4) 0.9094(5) 0.7695(6)
H64 H 0.7199 0.9746 0.7731
C57 C 0.6843(4) 0.8498(5) 0.6662(5)
H65 H 0.6716 0.7841 0.6612
C58 C 0.7584(4) 0.8732(5) 0.6435(5)
H66 H 0.7672 0.9365 0.6403
C59 C 0.8379(4) 0.8646(5) 0.7224(6)
C60 C 0.9161(5) 0.9063(6) 0.7136(6)
H67 H 0.9653 0.9045 0.7676
H68 H 0.9141 0.8700 0.6521
O48 O 0.6393(3) 0.8920(4) 0.7947(4)
O49 O 0.6131(3) 0.8664(4) 0.5958(4)
O50 O 0.7378(3) 0.8073(4) 0.5493(4)
O51 O 0.8517(3) 0.9165(4) 0.8207(4)
O52 O 0.9204(4) 0.9996(4) 0.7162(6)
C61 C 0.7498(4) 0.8427(5) 0.4777(5)
H69 H 0.7678 0.9108 0.5047
C62 C 0.6678(4) 0.8129(5) 0.3861(5)
H70 H 0.6762 0.8412 0.3394
C63 C 0.6421(4) 0.7069(5) 0.3378(5)
H71 H 0.6324 0.6771 0.3828
C64 C 0.7110(5) 0.6784(5) 0.3177(5)
H72 H 0.7183 0.7042 0.2690
C65 C 0.7915(4) 0.7127(6) 0.4120(6)
H73 H 0.7836 0.6838 0.4584
C66 C 0.8648(6) 0.6905(8) 0.3980(8)
H74 H 0.9149 0.7181 0.4600
H75 H 0.8562 0.6236 0.3771
O53 O 0.8744(7) 0.7258(8) 0.3259(10)
O54 O 0.6053(3) 0.8447(4) 0.4074(4)
O55 O 0.5670(3) 0.6793(4) 0.2480(4)
O56 O 0.6881(3) 0.5774(4) 0.2793(4)
O57 O 0.8114(3) 0.8119(4) 0.4556(4)
C67 C 0.6845(4) 0.5349(5) 0.1866(5)
H76 H 0.6911 0.5826 0.1564
C68 C 0.5998(4) 0.4648(5) 0.1212(5)
H77 H 0.5975 0.4352 0.0567
C69 C 0.5902(4) 0.3906(5) 0.1678(5)
H78 H 0.5913 0.4194 0.2319
C70 C 0.6619(4) 0.3453(5) 0.1834(5)
H79 H 0.6562 0.3081 0.1193
C71 C 0.7459(4) 0.4188(5) 0.2390(5)
H80 H 0.7553 0.4473 0.3071
C72 C 0.8176(5) 0.3790(6) 0.2411(7)
H81 H 0.8691 0.4287 0.2746
H82 H 0.8226 0.3354 0.2773
O58 O 0.5357(3) 0.5088(4) 0.1075(4)
O59 O 0.5134(3) 0.3208(4) 0.1064(5)
O60 O 0.6577(3) 0.2857(4) 0.2410(4)
O61 O 0.7481(3) 0.4901(4) 0.1952(4)
O62 O 0.8039(5) 0.3321(6) 0.1417(6)
C73 C 0.6545(6) 0.1906(6) 0.2032(6)
H83 H 0.6524 0.1788 0.1374
C74 C 0.5756(6) 0.1298(6) 0.1931(6)
H84 H 0.5732 0.0645 0.1658
C75 C 0.5799(5) 0.1467(6) 0.2972(6)
H85 H 0.5823 0.2114 0.3269
C76 C 0.6555(5) 0.1229(5) 0.3592(5)
H86 H 0.6488 0.0561 0.3325
C77 C 0.7333(6) 0.1775(7) 0.3612(7)
H87 H 0.7465 0.2430 0.3998
O63 O 0.5028(4) 0.1475(5) 0.1286(5)
O64 O 0.5057(4) 0.0836(5) 0.2850(5)
O65 O 0.6645(3) 0.1450(3) 0.4567(4)
O66 O 0.7252(5) 0.1703(5) 0.2635(5)
C78 C 0.8081(9) 0.1397(17) 0.4055(14)
H88 H 0.8541 0.1717 0.3975
H89 H 0.8250 0.1548 0.4758
O67 O 0.7947(13) 0.0490(15) 0.3668(17)
C79 C 0.6725(4) 0.0757(4) 0.5020(5)
H90 H 0.6674 0.0179 0.4539
C80 C 0.5999(4) 0.0589(5) 0.5309(5)
H91 H 0.6040 0.0093 0.5604
C81 C 0.6089(4) 0.1469(5) 0.6069(5)
H92 H 0.6048 0.1969 0.5781
C82 C 0.6930(4) 0.1735(4) 0.6945(5)
H93 H 0.6953 0.1268 0.7278
C83 C 0.7643(4) 0.1831(5) 0.6643(5)
H94 H 0.7668 0.2363 0.6406
C84 C 0.8484(4) 0.1957(6) 0.7468(6)
H95 H 0.8894 0.1963 0.7213
H96 H 0.8645 0.2554 0.7974
O68 O 0.5222(3) 0.0307(4) 0.4463(4)
O69 O 0.5442(3) 0.1319(4) 0.6364(4)
O70 O 0.7033(3) 0.2627(3) 0.7611(3)
O71 O 0.7492(3) 0.0993(4) 0.5855(4)
O72 O 0.8486(4) 0.1245(4) 0.7898(4)
O73 O 0.4817(13) 0.0200(14) 0.7431(15)
O75 O 0.6421(17) 1.0651(19) 0.884(2)
O78 O 0.0560(5) 0.0565(5) 0.6844(8)
O79 O 0.9660(5) 0.6445(6) 0.2460(6)
O80 O 0.7735(11) 0.1466(10) 0.0573(13)
O81 O 0.8892(6) 0.1498(7) 0.9845(6)
O82 O 0.5264(12) 0.8908(14) 0.2402(14)
O84 O 0.368(2) 0.863(3) 0.158(3)
O85 O 0.491(3) 0.704(3) 0.066(3)
O87 O 0.625(2) 0.771(2) 0.128(2)
O89 O 0.300(4) 0.786(4) -0.013(5)
O92 O 0.769(4) 1.016(5) 0.144(5)
O94 O 0.872(4) 1.111(4) 0.223(5)
O97 O 0.070(2) 0.793(3) 0.689(3)
O99 O 0.216(2) 0.890(3) 0.869(3)
O100 O 0.9862(16) 0.7144(19) 0.714(2)
O102 O 0.0817(9) 0.8665(11) 0.9103(11)
O104 O 0.192(2) 0.764(2) 0.011(3)
O105 O -0.004(2) 0.3313(19) 0.1221(19)
O108 O 0.4025(16) 0.9658(19) 1.004(2)
O110 O 0.0285(5) 0.8075(5) 0.2187(5)
O111 O 0.5161(9) 0.1904(10) 0.9359(10)
O113 O 0.3383(11) 0.0673(13) 0.8486(13)
O114 O 0.9384(14) -0.0246(16) 0.4658(16)
O116 O 0.065(8) 0.615(9) 0.394(10)
O119 O 0.860(4) 0.872(4) 0.215(5)
N1 N 0.2227(10) 0.4497(16) 0.4148(15)
C85 C 0.2699(8) 0.3812(12) 0.4180(12)
C86 C 0.3488(9) 0.4134(11) 0.5137(10)
O122 O 0.3710(11) 0.4927(13) 0.5768(10)
C87 C 0.2942(10) 0.3651(13) 0.3307(10)
C88 C 0.3828(10) 0.4176(13) 0.3550(10)
C89 C 0.4383(12) 0.3677(16) 0.3427(12)
C90 C 0.4099(11) 0.5148(13) 0.3936(14)
C91 C 0.5201(12) 0.4141(19) 0.3700(16)
C92 C 0.4918(12) 0.5613(15) 0.4203(18)
C93 C 0.5469(11) 0.5110(19) 0.4086(18)
C94 C 0.1006(14) 0.506(3) 0.346(2)
C95 C 0.1456(10) 0.431(2) 0.3475(18)
O123 O 0.1104(9) 0.351(2) 0.2865(18)
O124 O 0.3966(10) 0.3479(12) 0.5283(14)
C96 C 0.4694(11) 0.3879(18) 0.6208(13)
N3 N 0.9820(5) 0.4800(5) 0.6636(6)
C109 C 0.9296(5) 0.4047(6) 0.5705(5)
C110 C 0.9790(7) 0.3794(8) 0.5137(6)
O128 O 1.0532(7) 0.4241(10) 0.5425(8)
C111 C 0.8552(6) 0.4349(8) 0.5057(5)
C112 C 0.7980(6) 0.4652(9) 0.5516(7)
C113 C 0.8158(8) 0.5588(9) 0.6060(9)
C114 C 0.7311(4) 0.3997(11) 0.5439(8)
C115 C 0.7678(9) 0.5866(12) 0.6532(11)
C116 C 0.6829(5) 0.4277(14) 0.5905(11)
C117 C 0.7011(8) 0.5208(14) 0.6452(12)
C118 C 1.0458(6) 0.5532(7) 0.8431(6)
C119 C 0.9911(4) 0.4720(5) 0.7490(5)
O129 O 0.9554(5) 0.3987(6) 0.7518(5)
O130 O 0.9357(9) 0.3008(10) 0.4250(6)
C120 C 0.9893(11) 0.2859(13) 0.3792(8)
O2? O -0.0126(19) 0.048(2) 0.073(2)
O27? O 0.1820(16) 0.6779(19) 0.823(2)
O74? O 0.4533(12) 0.0221(13) 0.7538(13)
O76? O 0.618(3) 1.044(3) 0.917(3)
O77? O 0.583(2) 1.032(3) 0.797(3)
O83? O 0.4229(16) 0.8831(16) 0.2100(18)
O86? O 0.4374(16) 0.7267(18) 0.0446(18)
O88? O 0.5691(15) 0.7376(15) 0.0907(15)
O90? O 0.577(3) -0.077(3) 0.004(3)
O91? O 0.631(4) -0.088(5) 0.068(5)
O93? O 0.701(4) 0.933(5) 0.185(5)
O95? O 0.680(5) 0.963(6) 0.042(6)
O96? O 0.1812(9) 0.9608(7) 0.7153(9)
O98? O 0.121(3) 0.826(3) 0.785(4)
O101? O 0.9642(19) 0.681(2) 0.633(2)
O103? O 0.1610(16) 0.7743(16) 0.0153(17)
O106? O -0.0436(19) 0.3279(14) 0.1245(15)
O107? O 0.541(3) 0.982(3) 0.962(3)
O109? O 0.494(2) 1.006(3) 0.951(3)
O112? O 0.4824(13) 0.2144(15) 0.9262(15)
O115? O 0.9864(18) -0.076(2) 0.499(2)
O117? O 0.859(4) 0.904(4) 0.312(5)
O118? O 0.817(3) 0.857(3) 0.251(4)
O120? O 0.891(3) 0.931(4) 0.162(4)
O121? O 0.895(3) 0.974(3) 0.174(3)
N2? N 0.2378(7) 0.4354(10) 0.4128(11)
C97? C 0.2824(7) 0.3666(8) 0.3963(9)
C98? C 0.3536(7) 0.3738(10) 0.4923(10)
O125? O 0.3735(9) 0.4368(12) 0.5720(8)
C99? C 0.3179(7) 0.3817(9) 0.3232(8)
C100? C 0.4025(7) 0.4548(9) 0.3679(8)
C101? C 0.4739(8) 0.4255(11) 0.3773(11)
C102? C 0.4096(8) 0.5494(9) 0.4034(11)
C103? C 0.5515(8) 0.4901(13) 0.4232(13)
C104? C 0.4874(9) 0.6143(9) 0.4486(15)
C105? C 0.5583(8) 0.5847(12) 0.4586(15)
C106? C 0.1177(9) 0.4992(16) 0.3716(18)
C107? C 0.1627(7) 0.4285(13) 0.3478(13)
O126? O 0.1292(7) 0.3642(14) 0.2681(13)
O127? O 0.3972(9) 0.3043(10) 0.4861(14)
C108? C 0.4632(10) 0.3205(15) 0.5811(15)
N4? N 0.9626(4) 0.5142(6) 0.6763(6)
C121? C 0.9195(5) 0.4459(7) 0.5776(6)
C122? C 0.9710(6) 0.4528(11) 0.5216(8)
O131? O 0.9910(7) 0.5257(13) 0.5027(9)
C123? C 0.8337(5) 0.4611(8) 0.5188(5)
C124? C 0.7805(4) 0.4782(6) 0.5731(5)
C125? C 0.7822(5) 0.5697(6) 0.6187(7)
C126? C 0.7336(4) 0.4042(6) 0.5840(7)
C127? C 0.7382(6) 0.5866(7) 0.6736(8)
C128? C 0.6886(4) 0.4215(8) 0.6385(8)
C129? C 0.6914(5) 0.5128(9) 0.6838(8)
C130? C 1.0178(5) 0.5656(10) 0.8566(6)
C131? C 0.9667(4) 0.4934(7) 0.7547(5)
O132? O 0.9292(5) 0.4145(7) 0.7447(7)
O133? O 0.9965(8) 0.3721(12) 0.4911(9)
C132? C 0.9273(9) 0.2911(11) 0.4454(10)
loop_
_geom_bond_atom_site_label_1
_geom_bond_atom_site_label_2
_geom_bond_site_symmetry_1
_geom_bond_site_symmetry_2
C1 H1 1_555 1_555
C2 C1 1_555 1_555
H2 C2 1_555 1_555
C3 C2 1_555 1_555
H3 C3 1_555 1_555
C4 C3 1_555 1_555
H4 C4 1_555 1_555
C5 C4 1_555 1_555
H5 C5 1_555 1_555
C6 C5 1_555 1_555
H6 C6 1_555 1_555
H7 C6 1_555 1_555
O1 C6 1_555 1_555
O3 C2 1_555 1_555
O4 C3 1_555 1_555
O5 C4 1_555 1_555
O6 C1 1_555 1_555
C7 O5 1_555 1_555
H8 C7 1_555 1_555
C8 C7 1_555 1_555
H9 C8 1_555 1_555
C9 C8 1_555 1_555
H10 C9 1_555 1_555
C10 C9 1_555 1_555
H11 C10 1_555 1_555
C11 C10 1_555 1_555
H12 C11 1_555 1_555
C12 C11 1_555 1_555
H13 C12 1_555 1_555
H14 C12 1_555 1_555
O7 C8 1_555 1_555
O8 C9 1_555 1_555
O9 C10 1_555 1_555
O10 C7 1_555 1_555
O11 C12 1_555 1_555
C13 O9 1_555 1_555
H15 C13 1_555 1_555
C14 C13 1_555 1_555
H16 C14 1_555 1_555
C15 C14 1_555 1_555
H17 C15 1_555 1_555
C16 C15 1_555 1_555
H18 C16 1_555 1_555
C17 C16 1_555 1_555
H19 C17 1_555 1_555
C18 C17 1_555 1_555
H20 C18 1_555 1_555
H21 C18 1_555 1_555
O12 C18 1_555 1_555
O13 C14 1_555 1_555
O14 C15 1_555 1_555
O15 C16 1_555 1_555
O16 C13 1_555 1_555
C19 O15 1_555 1_555
H22 C19 1_555 1_555
C20 C19 1_555 1_555
H23 C20 1_555 1_555
C21 C20 1_555 1_555
H24 C21 1_555 1_555
C22 C21 1_555 1_555
H25 C22 1_555 1_555
C23 C22 1_555 1_555
H26 C23 1_555 1_555
C24 C23 1_555 1_555
H27 C24 1_555 1_555
H28 C24 1_555 1_555
O17 C20 1_555 1_555
O18 C21 1_555 1_555
O19 C22 1_555 1_555
O20 C19 1_555 1_555
O21 C24 1_555 1_555
C25 O19 1_555 1_555
H29 C25 1_555 1_555
C26 C25 1_555 1_555
H30 C26 1_555 1_555
C27 C26 1_555 1_555
H31 C27 1_555 1_555
C28 C27 1_555 1_555
H32 C28 1_555 1_555
C29 C28 1_555 1_555
H33 C29 1_555 1_555
O22 C26 1_555 1_555
O23 C27 1_555 1_555
O24 C28 1_555 1_555
O25 C25 1_555 1_555
C30 C29 1_555 1_555
H34 C30 1_555 1_555
H35 C30 1_555 1_555
O26 C30 1_555 1_555
C31 O24 1_555 1_555
H36 C31 1_555 1_555
C32 C31 1_555 1_555
H37 C32 1_555 1_555
C33 C32 1_555 1_555
H38 C33 1_555 1_555
C34 C33 1_555 1_555
H39 C34 1_555 1_555
C35 C34 1_555 1_555
C36 C35 1_555 1_555
H40 C36 1_555 1_555
H41 C36 1_555 1_555
O28 C32 1_555 1_555
O29 C33 1_555 1_555
O30 C34 1_555 1_555
O31 C31 1_555 1_555
O32 C36 1_555 1_555
C37 O30 1_555 1_555
H42 C37 1_555 1_555
C38 C37 1_555 1_555
H43 C38 1_555 1_555
C39 C38 1_555 1_555
H44 C39 1_555 1_555
C40 C39 1_555 1_555
H45 C40 1_555 1_555
C41 C40 1_555 1_555
H46 C41 1_555 1_555
O33 C38 1_555 1_555
O34 C39 1_555 1_555
O35 C1 1_555 1_555
O36 C37 1_555 1_555
C42 C41 1_555 1_555
H47 C42 1_555 1_555
H48 C42 1_555 1_555
O37 C42 1_555 1_555
C43 H49 1_555 1_555
C44 C43 1_555 1_555
H50 C44 1_555 1_555
C45 C44 1_555 1_555
H51 C45 1_555 1_555
C46 C45 1_555 1_555
H52 C46 1_555 1_555
C47 C46 1_555 1_555
H53 C47 1_555 1_555
C48 C47 1_555 1_555
H54 C48 1_555 1_555
H55 C48 1_555 1_555
O38 C48 1_555 1_555
O39 C44 1_555 1_555
O40 C45 1_555 1_555
O41 C46 1_555 1_555
O42 C43 1_555 1_555
C49 O41 1_555 1_555
H56 C49 1_555 1_555
C50 C49 1_555 1_555
H57 C50 1_555 1_555
C51 C50 1_555 1_555
H58 C51 1_555 1_555
C52 C51 1_555 1_555
H59 C52 1_555 1_555
C53 C52 1_555 1_555
H60 C53 1_555 1_555
C54 C53 1_555 1_555
H61 C54 1_555 1_555
H62 C54 1_555 1_555
O43 C54 1_555 1_555
O44 C50 1_555 1_555
O45 C51 1_555 1_555
O46 C52 1_555 1_555
O47 C49 1_555 1_555
C55 O46 1_555 1_555
H63 C55 1_555 1_555
C56 C55 1_555 1_555
H64 C56 1_555 1_555
C57 C56 1_555 1_555
H65 C57 1_555 1_555
C58 C57 1_555 1_555
H66 C58 1_555 1_555
C59 C58 1_555 1_555
C60 C59 1_555 1_555
H67 C60 1_555 1_555
H68 C60 1_555 1_555
O48 C56 1_555 1_555
O49 C57 1_555 1_555
O50 C58 1_555 1_555
O51 C55 1_555 1_555
O52 C60 1_555 1_555
C61 O50 1_555 1_555
H69 C61 1_555 1_555
C62 C61 1_555 1_555
H70 C62 1_555 1_555
C63 C62 1_555 1_555
H71 C63 1_555 1_555
C64 C63 1_555 1_555
H72 C64 1_555 1_555
C65 C64 1_555 1_555
H73 C65 1_555 1_555
C66 C65 1_555 1_555
H74 C66 1_555 1_555
H75 C66 1_555 1_555
O53 C66 1_555 1_555
O54 C62 1_555 1_555
O55 C63 1_555 1_555
O56 C64 1_555 1_555
O57 C61 1_555 1_555
C67 O56 1_555 1_555
H76 C67 1_555 1_555
C68 C67 1_555 1_555
H77 C68 1_555 1_555
C69 C68 1_555 1_555
H78 C69 1_555 1_555
C70 C69 1_555 1_555
H79 C70 1_555 1_555
C71 C70 1_555 1_555
H80 C71 1_555 1_555
C72 C71 1_555 1_555
H81 C72 1_555 1_555
H82 C72 1_555 1_555
O58 C68 1_555 1_555
O59 C69 1_555 1_555
O60 C70 1_555 1_555
O61 C67 1_555 1_555
O62 C72 1_555 1_555
C73 O60 1_555 1_555
H83 C73 1_555 1_555
C74 C73 1_555 1_555
H84 C74 1_555 1_555
C75 C74 1_555 1_555
H85 C75 1_555 1_555
C76 C75 1_555 1_555
H86 C76 1_555 1_555
C77 C76 1_555 1_555
H87 C77 1_555 1_555
O63 C74 1_555 1_555
O64 C75 1_555 1_555
O65 C76 1_555 1_555
O66 C73 1_555 1_555
C78 C77 1_555 1_555
H88 C78 1_555 1_555
H89 C78 1_555 1_555
O67 C78 1_555 1_555
C79 O65 1_555 1_555
H90 C79 1_555 1_555
C80 C79 1_555 1_555
H91 C80 1_555 1_555
C81 C80 1_555 1_555
H92 C81 1_555 1_555
C82 C81 1_555 1_555
H93 C82 1_555 1_555
C83 C82 1_555 1_555
H94 C83 1_555 1_555
C84 C83 1_555 1_555
H95 C84 1_555 1_555
H96 C84 1_555 1_555
O68 C80 1_555 1_555
O69 C81 1_555 1_555
O70 C43 1_555 1_555
O71 C79 1_555 1_555
O72 C84 1_555 1_555
N1 C85 1_555 1_555
C85 C86 1_555 1_555
C86 O122 1_555 1_555
C87 C85 1_555 1_555
C88 C87 1_555 1_555
C89 C88 1_555 1_555
C90 C88 1_555 1_555
C91 C89 1_555 1_555
C92 C90 1_555 1_555
C93 C91 1_555 1_555
C94 C95 1_555 1_555
C95 N1 1_555 1_555
O123 C95 1_555 1_555
O124 C86 1_555 1_555
C96 O124 1_555 1_555
N3 C109 1_555 1_555
C109 C110 1_555 1_555
C110 O128 1_555 1_555
C111 C109 1_555 1_555
C112 C111 1_555 1_555
C113 C112 1_555 1_555
C114 C112 1_555 1_555
C115 C113 1_555 1_555
C116 C114 1_555 1_555
C117 C115 1_555 1_555
C118 C119 1_555 1_555
C119 N3 1_555 1_555
O129 C119 1_555 1_555
O130 C110 1_555 1_555
C120 O130 1_555 1_555
C5 O6 1_555 1_555
C11 O10 1_555 1_555
C17 O16 1_555 1_555
C23 O20 1_555 1_555
C29 O25 1_555 1_555
C35 O31 1_555 1_555
C40 O35 1_555 1_555
C41 O36 1_555 1_555
C47 O42 1_555 1_555
C53 O47 1_555 1_555
C59 O51 1_555 1_555
C65 O57 1_555 1_555
C71 O61 1_555 1_555
C77 O66 1_555 1_555
C82 O70 1_555 1_555
C83 O71 1_555 1_555
C92 C93 1_555 1_555
C116 C117 1_555 1_555

#END
