
#######################################################################
#
#                 Cambridge Crystallographic Data Centre
#                                CCDC 
#
#######################################################################
#
# If this CIF has been generated from an entry in the Cambridge 
# Structural Database, then it will include bibliographic, chemical, 
# crystal, experimental, refinement or atomic coordinate data resulting 
# from the CCDC's data processing and validation procedures.
#
#######################################################################

data_DOCVUM09
_chemical_formula_moiety         '2(C42 H70 O35),2(C12 H15 N1 O3),26(H2 O1)'
_chemical_name_systematic        
'bis(\b-Cyclodextrin) bis(N-acetyl-L-phenylalanine methyl ester) clathrate hydrate'
_symmetry_cell_setting           triclinic
_symmetry_space_group_name_H-M   'P 1'
_symmetry_Int_Tables_number      1
_space_group_name_Hall           'P 1'
loop_
_symmetry_equiv_pos_site_id
_symmetry_equiv_pos_as_xyz
1 x,y,z
_cell_length_a                   17.915(2)
_cell_length_b                   15.405(3)
_cell_length_c                   15.542(2)
_cell_angle_alpha                103.040(10)
_cell_angle_beta                 113.350(10)
_cell_angle_gamma                99.150(10)
_cell_volume                     3685.47
_exptl_crystal_colour            colorless
_exptl_crystal_description       parallelepiped
_cell_formula_units_Z            1
_exptl_crystal_recrystallization_method 'aqueous solution'
loop_
_atom_site_label
_atom_site_type_symbol
_atom_site_fract_x
_atom_site_fract_y
_atom_site_fract_z
C1 C 0.2010(6) 0.0009(5) 0.2509(5)
C2 C 0.2728(6) 0.0000(6) 0.2202(6)
C3 C 0.2880(6) 0.0859(6) 0.1864(6)
C4 C 0.2057(6) 0.0860(6) 0.1059(6)
C5 C 0.1364(7) 0.0789(8) 0.1375(8)
C6 C 0.0490(9) 0.0659(14) 0.0551(14)
O1 O 0.3480(4) -0.0046(4) 0.2956(4)
O2 O 0.3503(4) 0.0834(5) 0.1507(5)
O3 O 0.2206(4) 0.1720(4) 0.0856(4)
O4 O 0.1274(4) 0.0014(4) 0.1719(4)
O5 O 0.0235(10) 0.0030(9) -0.0151(10)
C7 C 0.1999(6) 0.1715(6) -0.0131(6)
C8 C 0.2805(6) 0.2264(6) -0.0094(6)
C9 C 0.3033(6) 0.3245(6) 0.0558(6)
C10 C 0.2294(6) 0.3659(5) 0.0192(5)
C11 C 0.1453(6) 0.3053(6) 0.0050(6)
C12 C 0.0688(6) 0.3328(6) -0.0496(6)
O7 O 0.3471(4) 0.1841(4) 0.0189(5)
O8 O 0.3757(4) 0.3787(4) 0.0581(5)
O9 O 0.2490(4) 0.4539(4) 0.0900(4)
O10 O 0.1321(4) 0.2079(4) -0.0514(4)
O11 O 0.0654(4) 0.3413(4) -0.1400(5)
C13 C 0.2363(6) 0.5293(6) 0.0548(6)
C14 C 0.3196(6) 0.6045(6) 0.1037(6)
C15 C 0.3485(6) 0.6443(6) 0.2124(6)
C16 C 0.2765(6) 0.6812(5) 0.2262(5)
C17 C 0.1963(6) 0.6009(6) 0.1772(6)
C18 C 0.1231(7) 0.6316(8) 0.1827(8)
O12 O 0.3814(5) 0.5682(4) 0.0834(5)
O13 O 0.4231(4) 0.7210(4) 0.2575(4)
O14 O 0.3020(4) 0.7171(4) 0.3298(4)
O15 O 0.1736(4) 0.5633(4) 0.0735(4)
O16 O 0.1085(6) 0.7057(6) 0.1439(5)
C19 C 0.3004(6) 0.8100(5) 0.3659(6)
C20 C 0.3833(6) 0.8602(5) 0.4544(6)
C21 C 0.3958(6) 0.8167(5) 0.5359(6)
C22 C 0.3222(6) 0.8153(5) 0.5598(6)
C23 C 0.2377(6) 0.7742(5) 0.4689(6)
C24 C 0.1628(7) 0.7913(6) 0.4877(6)
O17 O 0.4528(4) 0.8619(4) 0.4285(4)
O18 O 0.4720(4) 0.8661(4) 0.6252(4)
O19 O 0.3294(4) 0.7590(4) 0.6248(4)
O20 O 0.2334(4) 0.8147(4) 0.3916(4)
O21 O 0.1744(5) 0.8893(5) 0.5286(5)
C25 C 0.3261(6) 0.7967(5) 0.7147(6)
C26 C 0.4036(6) 0.7886(5) 0.7981(6)
C27 C 0.4008(6) 0.6866(5) 0.7869(6)
C28 C 0.3210(6) 0.6389(5) 0.7838(6)
C29 C 0.2445(6) 0.6507(6) 0.7016(7)
C30 C 0.1613(8) 0.6123(10) 0.7001(10)
O22 O 0.4818(5) 0.8376(4) 0.8038(4)
O23 O 0.4722(4) 0.6792(4) 0.8686(4)
O24 O 0.3147(4) 0.5403(4) 0.7631(4)
O25 O 0.2525(5) 0.7477(4) 0.7136(5)
O26 O 0.1623(14) 0.6588(14) 0.7856(15)
C31 C 0.3039(7) 0.4978(5) 0.8317(6)
C32 C 0.3764(5) 0.4505(5) 0.8644(6)
C33 C 0.3671(6) 0.3783(5) 0.7741(6)
C34 C 0.2800(6) 0.3093(5) 0.7249(5)
C35 C 0.2101(6) 0.3560(5) 0.7021(6)
C36 C 0.1243(6) 0.2925(6) 0.6702(6)
O28 O 0.4565(4) 0.5148(4) 0.9171(4)
O29 O 0.4307(4) 0.3289(4) 0.8015(5)
O30 O 0.2701(4) 0.2474(4) 0.6346(4)
O31 O 0.2247(4) 0.4317(4) 0.7883(4)
O32 O 0.1253(4) 0.2453(4) 0.7413(4)
C37 C 0.2493(6) 0.1511(5) 0.6212(6)
C38 C 0.3174(6) 0.1109(5) 0.6025(6)
C39 C 0.3161(6) 0.1201(5) 0.5080(6)
C40 C 0.2300(6) 0.0669(5) 0.4229(6)
C41 C 0.1616(7) 0.1044(7) 0.4444(7)
C42 C 0.0729(7) 0.0442(7) 0.3759(7)
O33 O 0.3974(5) 0.1527(4) 0.6857(4)
O34 O 0.3788(4) 0.0807(4) 0.4899(4)
O35 O 0.2294(4) 0.0805(4) 0.3343(4)
O36 O 0.1714(5) 0.1045(4) 0.5417(5)
O37 O 0.0585(6) -0.0481(5) 0.3854(5)
H1 H 0.1891 -0.0552 0.2694
H2 H 0.2532 -0.0561 0.1625
H3 H 0.3084 0.1430 0.2433
H4 H 0.1888 0.0334 0.0457
H5 H 0.1505 0.1362 0.1919
H6 H 0.0084 0.0616 0.0826
H7 H 0.0502 0.1220 0.0353
H8 H 0.1849 0.1067 -0.0554
H9 H 0.2670 0.2284 -0.0771
H10 H 0.3160 0.3239 0.1237
H11 H 0.2217 0.3750 -0.0445
H12 H 0.1495 0.3073 0.0710
H13 H 0.0181 0.2861 -0.0631
H14 H 0.0699 0.3921 -0.0088
H15 H 0.2173 0.5083 -0.0175
H16 H 0.3107 0.6549 0.0743
H17 H 0.3593 0.5958 0.2443
H18 H 0.2667 0.7308 0.1957
H19 H 0.2060 0.5521 0.2089
H20 H 0.0721 0.5789 0.1460
H21 H 0.1334 0.6512 0.2519
H22 H 0.2941 0.8399 0.3142
H23 H 0.3828 0.9250 0.4796
H24 H 0.3974 0.7521 0.5120
H25 H 0.3260 0.8793 0.5949
H26 H 0.2286 0.7066 0.4430
H27 H 0.1106 0.7655 0.4253
H28 H 0.1571 0.7595 0.5336
H29 H 0.3272 0.8628 0.7251
H30 H 0.4022 0.8165 0.8612
H31 H 0.4025 0.6575 0.7243
H32 H 0.3210 0.6641 0.8483
H33 H 0.2422 0.6200 0.6370
H34 H 0.1149 0.6195 0.6439
H35 H 0.1522 0.5461 0.6928
H36 H 0.3095 0.5459 0.8898
H37 H 0.3681 0.4175 0.9091
H38 H 0.3735 0.4092 0.7270
H39 H 0.2764 0.2733 0.7690
H40 H 0.2075 0.3820 0.6486
H41 H 0.0831 0.3287 0.6626
H42 H 0.1064 0.2464 0.6058
H43 H 0.2486 0.1416 0.6818
H44 H 0.3023 0.0439 0.5944
H45 H 0.3282 0.1863 0.5123
H46 H 0.2195 0.0000 0.4160
H47 H 0.1664 0.1682 0.4405
H48 H 0.0329 0.0742 0.3900
H49 H 0.0617 0.0385 0.3076
C43 C 0.7262(5) 0.2711(5) 0.8630(5)
C44 C 0.6594(6) 0.3053(5) 0.8855(5)
C45 C 0.6604(5) 0.4022(5) 0.8758(5)
C46 C 0.7500(5) 0.4646(5) 0.9484(6)
C47 C 0.8168(6) 0.4250(5) 0.9283(5)
C48 C 0.9063(6) 0.4752(6) 1.0078(6)
O38 O 0.5764(4) 0.2418(4) 0.8184(4)
O39 O 0.5983(4) 0.4323(4) 0.8986(4)
O40 O 0.7537(4) 0.5518(4) 0.9310(4)
O41 O 0.8062(4) 0.3297(4) 0.9289(4)
O42 O 0.9170(4) 0.4678(4) 1.1024(4)
C49 C 0.7832(6) 0.6331(5) 1.0153(6)
C50 C 0.7154(6) 0.6840(5) 0.9980(6)
C51 C 0.7002(6) 0.7155(5) 0.9068(6)
C52 C 0.7821(6) 0.7755(6) 0.9234(6)
C53 C 0.8496(6) 0.7219(6) 0.9445(7)
O43 O 0.6404(5) 0.6271(4) 0.9895(4)
O44 O 0.6353(4) 0.7649(4) 0.8939(5)
O45 O 0.7696(4) 0.7976(4) 0.8345(4)
O46 O 0.8574(4) 0.6896(4) 1.0277(4)
C54 C 0.9369(7) 0.7814(8) 0.9698(9)
O47 O 0.9605(8) 0.8568(8) 1.0507(9)
C55 C 0.7885(6) 0.8923(5) 0.8410(6)
C56 C 0.7084(5) 0.9071(5) 0.7661(6)
C57 C 0.6861(6) 0.8498(5) 0.6634(6)
C58 C 0.7639(6) 0.8762(6) 0.6424(6)
C59 C 0.8441(6) 0.8678(5) 0.7222(6)
C60 C 0.9210(7) 0.9098(6) 0.7119(7)
O49 O 0.6409(4) 0.8852(4) 0.7897(4)
O50 O 0.6135(4) 0.8646(4) 0.5954(4)
O51 O 0.7422(4) 0.8109(4) 0.5481(4)
O52 O 0.8566(4) 0.9182(4) 0.8197(4)
O53 O 0.9251(5) 1.0026(4) 0.7133(6)
C61 C 0.7560(6) 0.8460(6) 0.4782(6)
C62 C 0.6713(6) 0.8142(5) 0.3833(6)
C63 C 0.6471(6) 0.7093(5) 0.3382(6)
C64 C 0.7202(6) 0.6812(5) 0.3230(6)
C65 C 0.7990(6) 0.7153(6) 0.4187(7)
O54 O 0.6108(4) 0.8462(4) 0.4072(4)
O55 O 0.5716(4) 0.6838(4) 0.2476(4)
O56 O 0.6961(4) 0.5819(4) 0.2842(4)
O57 O 0.8198(4) 0.8163(4) 0.4576(5)
C66 C 0.8739(8) 0.6924(9) 0.4077(11)
O58 O 0.8891(8) 0.7260(7) 0.3368(10)
C67 C 0.6921(6) 0.5419(5) 0.1898(6)
C68 C 0.6095(6) 0.4722(6) 0.1242(6)
C69 C 0.5974(6) 0.3965(5) 0.1700(6)
C70 C 0.6711(6) 0.3525(5) 0.1866(6)
C71 C 0.7552(6) 0.4240(5) 0.2419(6)
C72 C 0.8277(6) 0.3832(6) 0.2403(7)
O59 O 0.5403(4) 0.5159(4) 0.1113(4)
O60 O 0.5201(4) 0.3251(4) 0.1061(4)
O61 O 0.6658(4) 0.2912(4) 0.2434(4)
O62 O 0.7585(4) 0.4978(4) 0.1993(4)
O63 O 0.8133(5) 0.3402(4) 0.1409(5)
C73 C 0.6649(7) 0.1983(5) 0.2065(6)
C74 C 0.5853(6) 0.1348(5) 0.1955(6)
C75 C 0.5872(6) 0.1468(5) 0.2952(6)
C76 C 0.6657(6) 0.1275(5) 0.3637(5)
C77 C 0.7459(6) 0.1868(6) 0.3676(6)
C78 C 0.8233(7) 0.1568(7) 0.4194(7)
O64 O 0.8118(6) 0.0612(5) 0.3673(7)
O65 O 0.5106(5) 0.1486(4) 0.1258(4)
O66 O 0.5117(4) 0.0812(4) 0.2812(4)
O67 O 0.6698(4) 0.1488(3) 0.4592(4)
O68 O 0.7377(4) 0.1800(4) 0.2704(4)
C79 C 0.6757(5) 0.0785(5) 0.5058(5)
C80 C 0.6034(6) 0.0628(5) 0.5320(5)
C81 C 0.6106(5) 0.1497(5) 0.6077(5)
C82 C 0.6957(6) 0.1763(5) 0.6977(5)
C83 C 0.7696(6) 0.1838(5) 0.6678(6)
C84 C 0.8537(6) 0.1979(5) 0.7533(6)
O69 O 0.5249(4) 0.0380(4) 0.4447(4)
O70 O 0.5444(4) 0.1320(4) 0.6336(4)
O71 O 0.7066(4) 0.2634(4) 0.7625(4)
O72 O 0.7542(4) 0.1020(4) 0.5903(4)
O73 O 0.8558(4) 0.1244(4) 0.7948(4)
H50 H 0.7238 0.2086 0.8703
H51 H 0.6710 0.3082 0.9541
H52 H 0.6488 0.4004 0.8075
H53 H 0.7600 0.4721 1.0174
H54 H 0.8121 0.4276 0.8634
H55 H 0.9463 0.4485 0.9898
H56 H 0.9189 0.5407 1.0121
H57 H 0.7939 0.6145 1.0751
H58 H 0.7363 0.7400 1.0562
H59 H 0.6799 0.6605 0.8477
H60 H 0.8010 0.8330 0.9794
H61 H 0.8318 0.6676 0.8855
H62 H 0.9781 0.7453 0.9841
H63 H 0.9347 0.8017 0.9137
H64 H 0.8025 0.9310 0.9085
H65 H 0.7200 0.9733 0.7702
H66 H 0.6743 0.7834 0.6587
H67 H 0.7724 0.9401 0.6388
H68 H 0.8396 0.8016 0.7163
H69 H 0.9722 0.9081 0.7663
H70 H 0.9181 0.8734 0.6496
H71 H 0.7735 0.9146 0.5042
H72 H 0.6791 0.8429 0.3355
H73 H 0.6357 0.6796 0.3836
H74 H 0.7299 0.7080 0.2748
H75 H 0.7894 0.6878 0.4664
H76 H 0.9243 0.7195 0.4717
H77 H 0.8641 0.6250 0.3879
H78 H 0.6986 0.5913 0.1600
H79 H 0.6074 0.4443 0.0590
H80 H 0.5976 0.4240 0.2341
H81 H 0.6653 0.3161 0.1219
H82 H 0.7660 0.4506 0.3113
H83 H 0.8810 0.4327 0.2750
H84 H 0.8327 0.3372 0.2752
H85 H 0.6638 0.1877 0.1408
H86 H 0.5856 0.0701 0.1691
H87 H 0.5868 0.2109 0.3239
H88 H 0.6619 0.0610 0.3395
H89 H 0.7553 0.2525 0.4036
H90 H 0.8730 0.1967 0.4219
H91 H 0.8330 0.1630 0.4875
H92 H 0.6702 0.0202 0.4580
H93 H 0.6053 0.0114 0.5605
H94 H 0.6065 0.2008 0.5787
H95 H 0.6968 0.1291 0.7318
H96 H 0.7731 0.2375 0.6432
H97 H 0.8977 0.2036 0.7308
H98 H 0.8669 0.2562 0.8047
O74 O 0.4660(5) 0.0227(4) 0.7580(5)
O75 O 0.0516(5) 0.0591(4) 0.6679(5)
O76 O 0.9543(6) 0.6387(6) 0.2274(7)
O78 O 0.7643(11) 0.1522(9) 0.0488(11)
O80 O 0.9022(11) 0.1607(11) 0.9941(10)
O82 O 0.5262(7) 0.8940(5) 0.2419(6)
O83 O 0.5116(13) 1.0056(11) 0.9570(12)
O85 O 0.4478(7) 0.7205(8) 0.0444(6)
O86 O 0.1790(6) 0.9683(5) 0.7076(5)
O87 O 0.6383(15) 1.0523(14) 0.8743(15)
O91 O 0.6255(19) 0.905(2) 1.0358(19)
O93 O 0.760(2) 1.0240(18) 0.139(2)
O96 O 0.099(2) 0.807(2) 0.739(2)
O98 O 0.1993(15) 0.8838(15) 0.8476(14)
O99 O 0.230(9) 0.725(11) -0.070(11)
O100 O 0.3531(14) 0.8235(14) 0.0641(14)
O105 O 0.396(3) 0.971(3) 1.006(3)
O109 O 0.054(4) 0.820(4) 0.239(4)
O110 O 0.5184(8) 0.1921(7) 0.9404(7)
O112 O 0.6364(10) 0.7721(9) 1.1295(9)
O114 O 0.3404(17) 0.0577(19) 0.8400(17)
O116 O 0.9410(7) -0.0250(7) 0.4609(6)
O119 O 0.945(6) 0.692(6) 0.645(7)
O121 O 0.820(2) 0.849(2) 0.258(2)
O124 O 0.8934(11) 0.9442(11) 0.1668(11)
N1 N 0.0885(5) 0.3021(4) 0.3152(4)
C85 C 0.1508(4) 0.3729(4) 0.3923(4)
C86 C 0.1365(5) 0.4589(4) 0.3921(6)
O126 O 0.1623(5) 0.5093(5) 0.3654(7)
C88 C 0.3099(4) 0.4279(6) 0.4370(7)
C89 C 0.3555(4) 0.4176(7) 0.5279(7)
C90 C 0.3418(5) 0.5030(7) 0.4145(8)
C91 C 0.4314(4) 0.4821(8) 0.5961(8)
C92 C 0.4184(5) 0.5672(7) 0.4824(9)
C93 C 0.4631(5) 0.5569(8) 0.5733(9)
O127 O 0.0876(5) 0.4840(5) 0.4376(7)
C94 C 0.0588(6) 0.5632(5) 0.4116(11)
C95 C 0.0259(5) 0.2543(5) 0.3417(6)
O128 O 0.0469(5) 0.2662(6) 0.4330(6)
C96 C -0.0542(5) 0.1825(6) 0.2652(7)
C97 C 0.2198(16) 0.3527(15) 0.3693(17)
N5 N 0.9366(9) 0.5130(11) 0.6716(10)
C133 C 0.8848(9) 0.4555(9) 0.5681(9)
C134 C 0.9379(11) 0.4521(12) 0.5125(11)
O138 O 0.9533(14) 0.5098(15) 0.4766(15)
C135 C 0.8105(11) 0.4934(12) 0.5192(11)
C136 C 0.7523(10) 0.4943(12) 0.5674(12)
C137 C 0.7372(13) 0.5781(13) 0.6035(16)
C138 C 0.7161(9) 0.4134(12) 0.5798(14)
C139 C 0.6861(14) 0.5812(16) 0.6522(18)
C140 C 0.6649(11) 0.4163(15) 0.6283(17)
C141 C 0.6499(12) 0.5003(17) 0.6646(18)
C142 C 0.9701(13) 0.544(2) 0.8432(9)
C143 C 0.9510(11) 0.4780(16) 0.7452(9)
O139 O 0.9513(13) 0.3967(18) 0.7355(14)
O140 O 0.9693(12) 0.3805(13) 0.5129(13)
C144 C 1.0346(14) 0.3804(17) 0.4797(17)
O6? O -0.0182(11) 0.0420(11) 0.0692(11)
O27? O 0.098(6) 0.608(7) 0.617(7)
O48? O 0.949(2) 0.880(2) 1.090(2)
O77? O 0.971(3) 0.624(2) 0.265(3)
O79? O 0.779(3) 0.148(3) 0.065(3)
O81? O 0.8835(12) 0.1317(13) 0.9808(12)
O84? O 0.4776(16) 1.0073(15) 0.9483(16)
O88? O 0.607(5) 1.044(5) 0.908(6)
O89? O 0.6399(19) 1.0558(16) 0.8574(19)
O90? O 0.601(3) 0.899(2) 1.032(2)
O92? O 0.592(3) 0.920(3) 1.022(3)
O94? O 0.787(3) 1.027(2) 0.162(3)
O95? O 0.766(3) 1.008(3) 0.169(3)
O97? O 0.053(4) 0.772(5) 0.630(5)
O101? O 0.0880(8) 0.8613(8) 0.9145(8)
O102? O 0.163(2) 0.784(2) 0.043(2)
O103? O 0.1879(19) 0.7654(19) 0.025(2)
O104? O 0.0076(6) 0.3184(7) 0.1229(6)
O106? O 0.3535(14) 0.9573(11) 0.9865(12)
O107? O 0.2887(16) 0.7738(15) 0.9733(16)
O108? O 0.0255(9) 0.8082(8) 0.2228(9)
O111? O 0.4810(12) 0.2207(11) 0.9211(12)
O113? O 0.602(3) 0.746(2) 1.108(3)
O115? O 0.3274(10) 0.1006(11) 0.8361(10)
O117? O 0.961(3) 0.042(3) 0.471(3)
O118? O 0.9753(13) 0.7138(14) 0.7348(15)
O120? O 0.054(3) 0.568(3) 0.373(3)
O122? O 0.837(5) 0.833(5) 0.249(5)
O123? O 0.863(3) 0.876(3) 0.204(3)
O125? O 0.071(3) 0.519(3) 0.844(3)
C87? C 0.2236(5) 0.3596(5) 0.3654(5)
N2? N 0.1276(16) 0.3289(19) 0.319(2)
C98? C 0.2573(16) 0.4551(15) 0.4253(18)
O129? O 0.2205(19) 0.5147(17) 0.398(3)
C99? C 0.2548(18) 0.3268(19) 0.2926(18)
C100? C 0.3514(18) 0.357(2) 0.333(2)
C101? C 0.389(2) 0.435(2) 0.317(2)
C102? C 0.402(2) 0.306(2) 0.380(3)
C103? C 0.476(2) 0.460(3) 0.348(3)
C104? C 0.489(2) 0.332(3) 0.411(3)
C105? C 0.5259(19) 0.409(3) 0.395(3)
C106? C -0.0159(17) 0.289(3) 0.308(3)
C107? C 0.0811(17) 0.310(2) 0.364(3)
O130? O 0.116(2) 0.309(2) 0.450(3)
O131? O 0.3371(17) 0.481(2) 0.5110(17)
C108? C 0.382(2) 0.5740(19) 0.529(3)
N3? N 0.186(3) 0.350(4) 0.301(4)
C109? C 0.271(3) 0.412(3) 0.363(3)
C110? C 0.330(3) 0.382(4) 0.330(3)
O132? O 0.341(4) 0.307(4) 0.312(4)
C111? C 0.297(3) 0.420(4) 0.473(4)
C112? C 0.385(3) 0.485(4) 0.549(3)
C113? C 0.436(4) 0.458(6) 0.627(3)
C114? C 0.414(4) 0.571(4) 0.543(4)
C115? C 0.513(4) 0.517(7) 0.700(4)
C116? C 0.493(4) 0.631(5) 0.614(5)
C117? C 0.542(4) 0.604(6) 0.693(4)
C118? C 0.038(3) 0.318(6) 0.191(5)
C119? C 0.118(3) 0.380(5) 0.281(5)
O133? O 0.117(3) 0.453(6) 0.337(5)
O134? O 0.373(4) 0.454(5) 0.316(4)
C120? C 0.460(4) 0.457(6) 0.331(5)
N4? N 0.8983(4) 0.5420(4) 0.7371(4)
C121? C 0.8204(4) 0.4790(4) 0.6555(4)
C122? C 0.8388(4) 0.4664(5) 0.5652(4)
O135? O 0.8217(5) 0.5035(6) 0.5072(5)
C123? C 0.7477(4) 0.5248(5) 0.6424(5)
C124? C 0.6630(4) 0.4694(6) 0.5537(6)
C125? C 0.6145(4) 0.3918(7) 0.5573(7)
C126? C 0.6358(5) 0.4928(7) 0.4678(6)
C127? C 0.5400(4) 0.3377(9) 0.4756(9)
C128? C 0.5609(5) 0.4389(9) 0.3862(7)
C129? C 0.5131(4) 0.3613(9) 0.3899(8)
O136? O 0.8956(5) 0.4116(6) 0.5634(5)
C130? C 0.9322(6) 0.4089(8) 0.5067(6)
C131? C 0.9490(4) 0.5001(5) 0.7901(4)
O137? O 0.9317(5) 0.4115(5) 0.7792(5)
C132? C 1.0245(5) 0.5645(6) 0.8653(5)
N6? N 0.9918(14) 0.6845(14) 0.7909(16)
C145? C 0.9245(13) 0.5977(13) 0.7320(14)
C146? C 0.9385(13) 0.5445(14) 0.6480(15)
O141? O 0.9646(16) 0.5843(19) 0.5985(17)
C147? C 0.8371(14) 0.6181(14) 0.6882(17)
C148? C 0.7596(13) 0.5331(16) 0.6239(17)
C149? C 0.7179(14) 0.489(2) 0.669(2)
C150? C 0.7326(14) 0.4968(18) 0.5221(17)
C151? C 0.6510(15) 0.409(2) 0.612(2)
C152? C 0.6652(15) 0.417(2) 0.4660(19)
C153? C 0.6244(14) 0.373(2) 0.511(2)
C154? C 1.1124(18) 0.790(2) 0.942(2)
C155? C 1.0353(16) 0.7068(17) 0.8874(16)
O142? O 1.0122(18) 0.660(2) 0.9318(14)
O143? O 0.9201(15) 0.4463(14) 0.6277(17)
C156? C 0.9491(18) 0.407(2) 0.558(2)
loop_
_geom_bond_atom_site_label_1
_geom_bond_atom_site_label_2
_geom_bond_site_symmetry_1
_geom_bond_site_symmetry_2
C1 C2 1_555 1_555
C2 C3 1_555 1_555
C3 C4 1_555 1_555
C4 C5 1_555 1_555
C5 C6 1_555 1_555
C6 O5 1_555 1_555
O1 C2 1_555 1_555
O2 C3 1_555 1_555
O3 C4 1_555 1_555
O4 C1 1_555 1_555
C7 O3 1_555 1_555
C8 C7 1_555 1_555
C9 C8 1_555 1_555
C10 C9 1_555 1_555
C11 C10 1_555 1_555
C12 C11 1_555 1_555
O7 C8 1_555 1_555
O8 C9 1_555 1_555
O9 C10 1_555 1_555
O10 C7 1_555 1_555
O11 C12 1_555 1_555
C13 O9 1_555 1_555
C14 C13 1_555 1_555
C15 C14 1_555 1_555
C16 C15 1_555 1_555
C17 C16 1_555 1_555
C18 C17 1_555 1_555
O12 C14 1_555 1_555
O13 C15 1_555 1_555
O14 C16 1_555 1_555
O15 C13 1_555 1_555
O16 C18 1_555 1_555
C19 O14 1_555 1_555
C20 C19 1_555 1_555
C21 C20 1_555 1_555
C22 C21 1_555 1_555
C23 C22 1_555 1_555
C24 C23 1_555 1_555
O17 C20 1_555 1_555
O18 C21 1_555 1_555
O19 C22 1_555 1_555
O20 C19 1_555 1_555
O21 C24 1_555 1_555
C25 O19 1_555 1_555
C26 C25 1_555 1_555
C27 C26 1_555 1_555
C28 C27 1_555 1_555
C29 C28 1_555 1_555
C30 C29 1_555 1_555
O22 C26 1_555 1_555
O23 C27 1_555 1_555
O24 C28 1_555 1_555
O25 C25 1_555 1_555
O26 C30 1_555 1_555
C31 O24 1_555 1_555
C32 C31 1_555 1_555
C33 C32 1_555 1_555
C34 C33 1_555 1_555
C35 C34 1_555 1_555
C36 C35 1_555 1_555
O28 C32 1_555 1_555
O29 C33 1_555 1_555
O30 C34 1_555 1_555
O31 C31 1_555 1_555
O32 C36 1_555 1_555
C37 O30 1_555 1_555
C38 C37 1_555 1_555
C39 C38 1_555 1_555
C40 C39 1_555 1_555
C41 C40 1_555 1_555
C42 C41 1_555 1_555
O33 C38 1_555 1_555
O34 C39 1_555 1_555
O35 C1 1_555 1_555
O36 C37 1_555 1_555
O37 C42 1_555 1_555
C43 C44 1_555 1_555
C44 C45 1_555 1_555
C45 C46 1_555 1_555
C46 C47 1_555 1_555
C47 C48 1_555 1_555
C48 O42 1_555 1_555
O38 C44 1_555 1_555
O39 C45 1_555 1_555
O40 C46 1_555 1_555
O41 C43 1_555 1_555
C49 O40 1_555 1_555
C50 C49 1_555 1_555
C51 C50 1_555 1_555
C52 C51 1_555 1_555
C53 C52 1_555 1_555
O43 C50 1_555 1_555
O44 C51 1_555 1_555
O45 C52 1_555 1_555
O46 C49 1_555 1_555
C54 C53 1_555 1_555
O47 C54 1_555 1_555
C55 O45 1_555 1_555
C56 C55 1_555 1_555
C57 C56 1_555 1_555
C58 C57 1_555 1_555
C59 C58 1_555 1_555
C60 C59 1_555 1_555
O49 C56 1_555 1_555
O50 C57 1_555 1_555
O51 C58 1_555 1_555
O52 C55 1_555 1_555
O53 C60 1_555 1_555
C61 O51 1_555 1_555
C62 C61 1_555 1_555
C63 C62 1_555 1_555
C64 C63 1_555 1_555
C65 C64 1_555 1_555
O54 C62 1_555 1_555
O55 C63 1_555 1_555
O56 C64 1_555 1_555
O57 C61 1_555 1_555
C66 C65 1_555 1_555
O58 C66 1_555 1_555
C67 O56 1_555 1_555
C68 C67 1_555 1_555
C69 C68 1_555 1_555
C70 C69 1_555 1_555
C71 C70 1_555 1_555
C72 C71 1_555 1_555
O59 C68 1_555 1_555
O60 C69 1_555 1_555
O61 C70 1_555 1_555
O62 C67 1_555 1_555
O63 C72 1_555 1_555
C73 O61 1_555 1_555
C74 C73 1_555 1_555
C75 C74 1_555 1_555
C76 C75 1_555 1_555
C77 C76 1_555 1_555
C78 C77 1_555 1_555
O64 C78 1_555 1_555
O65 C74 1_555 1_555
O66 C75 1_555 1_555
O67 C76 1_555 1_555
O68 C73 1_555 1_555
C79 O67 1_555 1_555
C80 C79 1_555 1_555
C81 C80 1_555 1_555
C82 C81 1_555 1_555
C83 C82 1_555 1_555
C84 C83 1_555 1_555
O69 C80 1_555 1_555
O70 C81 1_555 1_555
O71 C43 1_555 1_555
O72 C79 1_555 1_555
O73 C84 1_555 1_555
N1 C85 1_555 1_555
C85 C86 1_555 1_555
C86 O126 1_555 1_555
C88 C89 1_555 1_555
C89 C91 1_555 1_555
C90 C88 1_555 1_555
C91 C93 1_555 1_555
C92 C90 1_555 1_555
C93 C92 1_555 1_555
O127 C86 1_555 1_555
C94 O127 1_555 1_555
C95 N1 1_555 1_555
O128 C95 1_555 1_555
C96 C95 1_555 1_555
C97 C85 1_555 1_555
N5 C133 1_555 1_555
C133 C134 1_555 1_555
C134 O138 1_555 1_555
C135 C133 1_555 1_555
C136 C135 1_555 1_555
C137 C136 1_555 1_555
C138 C136 1_555 1_555
C139 C137 1_555 1_555
C140 C138 1_555 1_555
C141 C139 1_555 1_555
C142 C143 1_555 1_555
C143 N5 1_555 1_555
O139 C143 1_555 1_555
O140 C134 1_555 1_555
C144 O140 1_555 1_555
H1 C1 1_555 1_555
H2 C2 1_555 1_555
H3 C3 1_555 1_555
H4 C4 1_555 1_555
H5 C5 1_555 1_555
H6 C6 1_555 1_555
H7 C6 1_555 1_555
H8 C7 1_555 1_555
H9 C8 1_555 1_555
H10 C9 1_555 1_555
H11 C10 1_555 1_555
H12 C11 1_555 1_555
H13 C12 1_555 1_555
H14 C12 1_555 1_555
H15 C13 1_555 1_555
H16 C14 1_555 1_555
H17 C15 1_555 1_555
H18 C16 1_555 1_555
H19 C17 1_555 1_555
H20 C18 1_555 1_555
H21 C18 1_555 1_555
H22 C19 1_555 1_555
H23 C20 1_555 1_555
H24 C21 1_555 1_555
H25 C22 1_555 1_555
H26 C23 1_555 1_555
H27 C24 1_555 1_555
H28 C24 1_555 1_555
H29 C25 1_555 1_555
H30 C26 1_555 1_555
H31 C27 1_555 1_555
H32 C28 1_555 1_555
H33 C29 1_555 1_555
H34 C30 1_555 1_555
H35 C30 1_555 1_555
H36 C31 1_555 1_555
H37 C32 1_555 1_555
H38 C33 1_555 1_555
H39 C34 1_555 1_555
H40 C35 1_555 1_555
H41 C36 1_555 1_555
H42 C36 1_555 1_555
H43 C37 1_555 1_555
H44 C38 1_555 1_555
H45 C39 1_555 1_555
H46 C40 1_555 1_555
H47 C41 1_555 1_555
H48 C42 1_555 1_555
H49 C42 1_555 1_555
H50 C43 1_555 1_555
H51 C44 1_555 1_555
H52 C45 1_555 1_555
H53 C46 1_555 1_555
H54 C47 1_555 1_555
H55 C48 1_555 1_555
H56 C48 1_555 1_555
H57 C49 1_555 1_555
H58 C50 1_555 1_555
H59 C51 1_555 1_555
H60 C52 1_555 1_555
H61 C53 1_555 1_555
H62 C54 1_555 1_555
H63 C54 1_555 1_555
H64 C55 1_555 1_555
H65 C56 1_555 1_555
H66 C57 1_555 1_555
H67 C58 1_555 1_555
H68 C59 1_555 1_555
H69 C60 1_555 1_555
H70 C60 1_555 1_555
H71 C61 1_555 1_555
H72 C62 1_555 1_555
H73 C63 1_555 1_555
H74 C64 1_555 1_555
H75 C65 1_555 1_555
H76 C66 1_555 1_555
H77 C66 1_555 1_555
H78 C67 1_555 1_555
H79 C68 1_555 1_555
H80 C69 1_555 1_555
H81 C70 1_555 1_555
H82 C71 1_555 1_555
H83 C72 1_555 1_555
H84 C72 1_555 1_555
H85 C73 1_555 1_555
H86 C74 1_555 1_555
H87 C75 1_555 1_555
H88 C76 1_555 1_555
H89 C77 1_555 1_555
H90 C78 1_555 1_555
H91 C78 1_555 1_555
H92 C79 1_555 1_555
H93 C80 1_555 1_555
H94 C81 1_555 1_555
H95 C82 1_555 1_555
H96 C83 1_555 1_555
H97 C84 1_555 1_555
H98 C84 1_555 1_555
C5 O4 1_555 1_555
C11 O10 1_555 1_555
C17 O15 1_555 1_555
C23 O20 1_555 1_555
C29 O25 1_555 1_555
C35 O31 1_555 1_555
C40 O35 1_555 1_555
C41 O36 1_555 1_555
C47 O41 1_555 1_555
C53 O46 1_555 1_555
C59 O52 1_555 1_555
C65 O57 1_555 1_555
C71 O62 1_555 1_555
C77 O68 1_555 1_555
C82 O71 1_555 1_555
C83 O72 1_555 1_555
C88 C97 1_555 1_555
C140 C141 1_555 1_555

#END
