
#######################################################################
#
#                 Cambridge Crystallographic Data Centre
#                                CCDC 
#
#######################################################################
#
# If this CIF has been generated from an entry in the Cambridge 
# Structural Database, then it will include bibliographic, chemical, 
# crystal, experimental, refinement or atomic coordinate data resulting 
# from the CCDC's data processing and validation procedures.
#
#######################################################################

data_DOCVUM10
_chemical_formula_moiety         '2(C42 H70 O35),2(C12 H15 N1 O3),24(H2 O1)'
_chemical_name_systematic        
'bis(\b-Cyclodextrin) bis(N-acetyl-L-phenylalanine methyl ester) clathrate hydrate'
_symmetry_cell_setting           triclinic
_symmetry_space_group_name_H-M   'P 1'
_symmetry_Int_Tables_number      1
_space_group_name_Hall           'P 1'
loop_
_symmetry_equiv_pos_site_id
_symmetry_equiv_pos_as_xyz
1 x,y,z
_cell_length_a                   17.896(2)
_cell_length_b                   15.389(3)
_cell_length_c                   15.519(2)
_cell_angle_alpha                103.010(10)
_cell_angle_beta                 113.430(10)
_cell_angle_gamma                99.070(10)
_cell_volume                     3671.97
_exptl_crystal_colour            colorless
_exptl_crystal_description       parallelepiped
_cell_formula_units_Z            1
_exptl_crystal_recrystallization_method 'aqueous solution'
loop_
_atom_site_label
_atom_site_type_symbol
_atom_site_fract_x
_atom_site_fract_y
_atom_site_fract_z
C1 C 0.2028(3) -0.0007(4) 0.2495(4)
H1 H 0.1917 -0.0567 0.2687
C2 C 0.2740(4) -0.0018(4) 0.2181(4)
H2 H 0.2546 -0.0578 0.1602
C3 C 0.2886(3) 0.0837(4) 0.1854(4)
H3 H 0.3085 0.1408 0.2423
C4 C 0.2065(4) 0.0835(5) 0.1027(5)
H4 H 0.1893 0.0307 0.0424
C5 C 0.1370(4) 0.0787(6) 0.1371(6)
H5 H 0.1507 0.1362 0.1910
C6 C 0.0492(5) 0.0630(11) 0.0507(10)
H6 H 0.0086 0.0622 0.0783
H7 H 0.0517 0.1180 0.0290
O1 O 0.0208(7) 0.0003(7) -0.0184(8)
O3 O 0.3494(3) -0.0059(3) 0.2941(3)
O4 O 0.3506(3) 0.0821(3) 0.1482(4)
O5 O 0.2207(3) 0.1706(3) 0.0832(3)
O6 O 0.1275(3) -0.0011(3) 0.1700(3)
C7 C 0.2007(3) 0.1690(4) -0.0155(4)
H8 H 0.1860 0.1042 -0.0578
C8 C 0.2807(4) 0.2254(4) -0.0119(4)
H9 H 0.2672 0.2281 -0.0794
C9 C 0.3040(3) 0.3239(4) 0.0555(4)
H10 H 0.3170 0.3235 0.1236
C10 C 0.2293(3) 0.3639(4) 0.0166(4)
H11 H 0.2215 0.3720 -0.0476
C11 C 0.1466(3) 0.3022(4) 0.0033(4)
H12 H 0.1513 0.3038 0.0694
C12 C 0.0692(3) 0.3312(4) -0.0510(4)
H13 H 0.0183 0.2851 -0.0640
O7 O 0.3480(3) 0.1833(3) 0.0168(4)
O8 O 0.3761(3) 0.3784(3) 0.0556(3)
O9 O 0.2501(3) 0.4530(3) 0.0877(3)
O10 O 0.1321(3) 0.2066(3) -0.0537(3)
O11 O 0.0652(3) 0.3394(3) -0.1424(3)
C13 C 0.2368(4) 0.5281(4) 0.0520(4)
H15 H 0.2172 0.5067 -0.0205
C14 C 0.3193(4) 0.6037(4) 0.0998(4)
H16 H 0.3103 0.6538 0.0697
C15 C 0.3489(3) 0.6442(4) 0.2110(4)
H17 H 0.3602 0.5958 0.2432
C16 C 0.2782(3) 0.6803(4) 0.2247(4)
H18 H 0.2684 0.7300 0.1941
C17 C 0.1970(3) 0.5999(4) 0.1752(4)
C18 C 0.1225(4) 0.6297(6) 0.1826(5)
H20 H 0.0717 0.5767 0.1469
H21 H 0.1339 0.6504 0.2522
O12 O 0.3822(3) 0.5667(3) 0.0810(3)
O13 O 0.4229(3) 0.7210(3) 0.2551(3)
O14 O 0.3022(3) 0.7159(3) 0.3281(3)
O15 O 0.1740(3) 0.5622(3) 0.0713(3)
O16 O 0.1080(4) 0.7042(5) 0.1412(4)
C19 C 0.3005(3) 0.8093(4) 0.3634(4)
H22 H 0.2938 0.8388 0.3113
C20 C 0.3857(3) 0.8598(3) 0.4533(4)
H23 H 0.3859 0.9248 0.4789
C21 C 0.3967(3) 0.8154(4) 0.5341(4)
H24 H 0.3987 0.7508 0.5106
C22 C 0.3218(3) 0.8146(3) 0.5585(4)
H25 H 0.3257 0.8787 0.5935
C23 C 0.2365(3) 0.7732(4) 0.4660(4)
H26 H 0.2270 0.7054 0.4402
C24 C 0.1631(4) 0.7915(4) 0.4869(4)
H27 H 0.1102 0.7652 0.4253
H28 H 0.1585 0.7601 0.5337
O17 O 0.4536(2) 0.8606(3) 0.4269(3)
O18 O 0.4719(2) 0.8653(3) 0.6229(3)
O19 O 0.3294(3) 0.7591(3) 0.6232(3)
O20 O 0.2333(2) 0.8137(3) 0.3896(3)
O21 O 0.1738(3) 0.8887(3) 0.5273(3)
C25 C 0.3272(4) 0.7960(4) 0.7135(4)
H29 H 0.3288 0.8623 0.7243
C26 C 0.4055(4) 0.7878(4) 0.7969(4)
H30 H 0.4045 0.8155 0.8603
C27 C 0.4019(3) 0.6859(4) 0.7849(4)
H31 H 0.4039 0.6567 0.7224
C28 C 0.3200(4) 0.6365(4) 0.7821(4)
H32 H 0.3203 0.6616 0.8469
C29 C 0.2434(4) 0.6503(4) 0.6998(5)
H33 H 0.2404 0.6195 0.6347
C30 C 0.1602(5) 0.6119(7) 0.6999(8)
H34 H 0.1138 0.6212 0.6453
H35 H 0.1503 0.5451 0.6893
O22 O 0.4819(3) 0.8369(3) 0.8016(3)
O23 O 0.4726(3) 0.6779(3) 0.8674(3)
H36 H 0.539(4) 0.711(4) 0.874(4)
O24 O 0.3141(3) 0.5397(3) 0.7620(3)
O25 O 0.2523(3) 0.7475(3) 0.7127(4)
O26 O 0.1607(8) 0.6553(14) 0.7887(10)
C31 C 0.3039(3) 0.4970(3) 0.8299(4)
H37 H 0.3090 0.5450 0.8880
C32 C 0.3757(3) 0.4493(4) 0.8639(4)
H38 H 0.3672 0.4161 0.9084
C33 C 0.3678(3) 0.3775(4) 0.7722(4)
H39 H 0.3740 0.4087 0.7252
C34 C 0.2803(3) 0.3077(4) 0.7234(4)
H40 H 0.2767 0.2717 0.7677
C35 C 0.2095(3) 0.3565(4) 0.7003(4)
H41 H 0.2066 0.3826 0.6467
C36 C 0.1241(4) 0.2909(4) 0.6688(4)
H42 H 0.0820 0.3261 0.6602
H43 H 0.1069 0.2447 0.6046
O28 O 0.4569(3) 0.5130(3) 0.9156(3)
H44 H 0.455(4) 0.537(5) 0.889(5)
O29 O 0.4311(3) 0.3283(3) 0.7999(3)
O30 O 0.2706(2) 0.2462(3) 0.6322(3)
O31 O 0.2250(3) 0.4306(3) 0.7869(3)
O32 O 0.1250(3) 0.2440(3) 0.7392(3)
C37 C 0.2497(4) 0.1497(4) 0.6196(4)
H45 H 0.2491 0.1407 0.6805
C38 C 0.3171(4) 0.1098(4) 0.6019(4)
H46 H 0.3025 0.0429 0.5946
C39 C 0.3171(3) 0.1186(4) 0.5057(4)
H47 H 0.3295 0.1848 0.5097
C40 C 0.2304(3) 0.0658(4) 0.4210(4)
H48 H 0.2201 -0.0011 0.4141
C41 C 0.1627(4) 0.1030(5) 0.4438(5)
H49 H 0.1676 0.1669 0.4402
O33 O 0.3986(3) 0.1526(3) 0.6840(3)
O34 O 0.3785(2) 0.0786(3) 0.4870(3)
O35 O 0.2290(3) 0.0790(3) 0.3320(3)
O36 O 0.1696(3) 0.1029(3) 0.5386(4)
C42 C 0.0727(4) 0.0422(5) 0.3725(5)
H50 H 0.0321 0.0727 0.3847
O37 O 0.0579(3) -0.0492(4) 0.3835(4)
H53 H 0.0454 0.0205 0.3129
C44 C 0.7267(3) 0.2687(4) 0.8615(4)
H54 H 0.7252 0.2062 0.8685
C45 C 0.6586(3) 0.3031(3) 0.8845(4)
H55 H 0.6701 0.3060 0.9532
C46 C 0.6618(3) 0.4002(4) 0.8749(4)
H56 H 0.6501 0.3980 0.8064
C47 C 0.7500(3) 0.4637(3) 0.9471(4)
H57 H 0.7601 0.4709 1.0161
C48 C 0.8179(3) 0.4241(3) 0.9270(4)
H58 H 0.8133 0.4269 0.8620
C49 C 0.9077(3) 0.4756(4) 1.0073(4)
H59 H 0.9484 0.4503 0.9895
H60 H 0.9193 0.5414 1.0122
O39 O 0.5777(2) 0.2403(3) 0.8177(3)
O40 O 0.5985(2) 0.4320(3) 0.8980(3)
O41 O 0.7533(3) 0.5517(3) 0.9299(3)
O42 O 0.8078(2) 0.3295(3) 0.9273(3)
O43 O 0.9182(3) 0.4669(3) 1.1008(3)
C50 C 0.7837(4) 0.6315(3) 1.0131(4)
H62 H 0.7946 0.6125 1.0729
C51 C 0.7151(4) 0.6834(4) 0.9965(4)
H63 H 0.7361 0.7393 1.0550
C52 C 0.6993(4) 0.7145(4) 0.9061(4)
H64 H 0.6785 0.6592 0.8471
C53 C 0.7825(4) 0.7749(4) 0.9215(4)
H65 H 0.8017 0.8327 0.9773
C54 C 0.8516(4) 0.7214(4) 0.9434(5)
H66 H 0.8345 0.6672 0.8844
C55 C 0.9385(4) 0.7815(6) 0.9702(7)
H68 H 0.9369 0.8021 0.9143
O44 O 0.6398(3) 0.6256(3) 0.9876(3)
O45 O 0.6358(3) 0.7642(3) 0.8925(3)
H69 H 0.641(4) 0.816(4) 0.857(4)
O46 O 0.7705(3) 0.7967(3) 0.8328(3)
O47 O 0.8598(3) 0.6894(3) 1.0261(3)
O48 O 0.9607(5) 0.8558(6) 1.0500(6)
C56 C 0.7886(3) 0.8926(4) 0.8398(4)
H70 H 0.8026 0.9310 0.9074
C57 C 0.7094(3) 0.9074(4) 0.7657(4)
H71 H 0.7206 0.9735 0.7691
C58 C 0.6877(3) 0.8476(4) 0.6617(4)
H72 H 0.6759 0.7812 0.6571
C59 C 0.7624(3) 0.8743(4) 0.6407(4)
H73 H 0.7698 0.9383 0.6371
C60 C 0.8442(3) 0.8672(4) 0.7209(4)
H74 H 0.8398 0.8011 0.7157
C61 C 0.9227(4) 0.9083(4) 0.7109(5)
H75 H 0.9738 0.9070 0.7660
H76 H 0.9201 0.8716 0.6489
O50 O 0.6407(3) 0.8844(3) 0.7886(3)
O51 O 0.6136(2) 0.8646(3) 0.5937(3)
O52 O 0.7433(3) 0.8101(3) 0.5467(3)
O53 O 0.8582(2) 0.9177(3) 0.8188(3)
O54 O 0.9255(3) 1.0022(3) 0.7117(4)
C62 C 0.7569(3) 0.8467(4) 0.4772(4)
H77 H 0.7748 0.9154 0.5037
C63 C 0.6730(4) 0.8145(4) 0.3818(4)
H78 H 0.6807 0.8432 0.3338
C64 C 0.6476(3) 0.7095(4) 0.3369(4)
H79 H 0.6367 0.6803 0.3830
C65 C 0.7193(4) 0.6795(4) 0.3191(4)
H80 H 0.7286 0.7059 0.2704
C66 C 0.8008(4) 0.7143(4) 0.4178(5)
H81 H 0.7915 0.6864 0.4655
O55 O 0.8896(6) 0.7241(6) 0.3340(8)
C67 C 0.8768(5) 0.6936(6) 0.4077(8)
H82 H 0.9273 0.7238 0.4714
H83 H 0.8695 0.6265 0.3913
O56 O 0.6107(3) 0.8458(3) 0.4056(3)
O57 O 0.5709(3) 0.6835(3) 0.2456(3)
O58 O 0.6964(3) 0.5812(3) 0.2824(3)
O59 O 0.8211(3) 0.8150(3) 0.4568(3)
C68 C 0.6940(3) 0.5414(4) 0.1891(4)
H84 H 0.7002 0.5909 0.1593
C69 C 0.6089(3) 0.4713(4) 0.1228(4)
H85 H 0.6063 0.4432 0.0573
C70 C 0.5982(3) 0.3952(4) 0.1689(4)
H86 H 0.5986 0.4224 0.2334
C71 C 0.6709(3) 0.3509(4) 0.1842(4)
H87 H 0.6645 0.3145 0.1191
C72 C 0.7573(4) 0.4239(4) 0.2409(4)
H88 H 0.7687 0.4504 0.3106
C73 C 0.8290(4) 0.3829(4) 0.2381(5)
H89 H 0.8825 0.4323 0.2721
H90 H 0.8346 0.3370 0.2734
O60 O 0.5418(3) 0.5156(3) 0.1102(3)
O61 O 0.5209(3) 0.3237(3) 0.1050(3)
H91 H 0.472(4) 0.343(4) 0.097(4)
O62 O 0.6663(3) 0.2900(3) 0.2412(3)
O63 O 0.7595(3) 0.4980(3) 0.1977(3)
O64 O 0.8138(3) 0.3398(3) 0.1393(4)
C74 C 0.6668(4) 0.1974(4) 0.2049(4)
H92 H 0.6660 0.1871 0.1393
C75 C 0.5862(3) 0.1330(4) 0.1927(4)
H93 H 0.5864 0.0683 0.1659
C76 C 0.5871(3) 0.1447(4) 0.2924(4)
H94 H 0.5871 0.2090 0.3210
C77 C 0.6676(3) 0.1254(4) 0.3617(4)
H95 H 0.6646 0.0590 0.3378
C78 C 0.7476(3) 0.1861(4) 0.3671(4)
H96 H 0.7564 0.2517 0.4030
C79 C 0.8256(4) 0.1556(5) 0.4187(5)
H97 H 0.8754 0.1956 0.4213
H98 H 0.8356 0.1610 0.4868
O65 O 0.5118(3) 0.1475(3) 0.1239(3)
O66 O 0.5127(3) 0.0810(3) 0.2798(3)
O67 O 0.6719(2) 0.1476(3) 0.4583(3)
O68 O 0.7392(3) 0.1783(3) 0.2687(3)
O69 O 0.8130(4) 0.0604(4) 0.3649(5)
C80 C 0.6779(3) 0.0772(3) 0.5038(4)
H99 H 0.6725 0.0190 0.4557
C81 C 0.6036(3) 0.0615(3) 0.5305(4)
H100 H 0.6054 0.0101 0.5591
C82 C 0.6111(3) 0.1486(3) 0.6061(4)
H101 H 0.6074 0.1997 0.5769
C83 C 0.6982(3) 0.1745(3) 0.6962(4)
H102 H 0.7003 0.1270 0.7302
C84 C 0.7699(3) 0.1840(3) 0.6660(4)
H103 H 0.7725 0.2377 0.6411
C85 C 0.8554(3) 0.1966(4) 0.7513(4)
H104 H 0.8986 0.1993 0.7274
H105 H 0.8708 0.2558 0.8026
O70 O 0.5252(2) 0.0371(3) 0.4433(3)
O71 O 0.5439(2) 0.1315(3) 0.6320(3)
O72 O 0.7076(2) 0.2628(2) 0.7616(3)
O73 O 0.7556(2) 0.1003(3) 0.5888(3)
O74 O 0.8551(3) 0.1234(3) 0.7936(3)
O75 O 0.4665(3) 0.0234(3) 0.7568(4)
O76 O 0.0517(3) 0.0579(3) 0.6653(4)
O77 O 0.9569(4) 0.6362(4) 0.2288(5)
O78 O 0.7683(4) 0.1515(4) 0.0510(4)
O79 O 0.8936(4) 0.1469(4) 0.9864(4)
O80 O 0.5257(5) 0.8923(4) 0.2403(4)
O81 O 0.4966(6) 1.0054(5) 0.9523(6)
O82 O 0.4478(5) 0.7201(6) 0.0436(5)
O83 O 0.6077(6) -0.0938(5) 0.0288(5)
O84 O 0.1783(4) 0.9666(4) 0.7058(4)
O85 O 0.6413(4) 1.0533(4) 0.8655(5)
O87 O 0.0957(16) 0.8058(15) 0.739(2)
O88 O 0.1984(12) 0.8782(11) 0.8412(14)
O89 O 0.2901(12) 0.7728(14) -0.0294(14)
O95 O 0.3757(12) 0.9629(12) 0.9978(13)
O96 O 0.054(4) 0.839(4) 0.266(4)
O99 O 0.5180(5) 0.1911(6) 0.9381(6)
O101 O 0.7730(6) 1.0194(6) 0.1526(7)
O104 O 0.6404(9) 0.7757(10) 1.1320(10)
O108 O 0.3425(12) 0.0477(14) 0.8416(14)
O109 O 0.9422(4) -0.0253(4) 0.4601(4)
O112 O 0.8218(9) 0.8410(11) 0.2527(11)
O114 O 0.8959(8) 0.9413(9) 0.1671(9)
N1 N 0.0917(3) 0.3020(3) 0.3139(3)
C86 C 0.1540(3) 0.3731(3) 0.3909(3)
C87 C 0.1399(3) 0.4590(3) 0.3899(4)
C89 C 0.3135(3) 0.4273(4) 0.4363(4)
C90 C 0.3588(3) 0.4173(5) 0.5278(5)
C91 C 0.3457(3) 0.5019(5) 0.4134(5)
C92 C 0.4348(3) 0.4819(6) 0.5960(6)
C93 C 0.4224(3) 0.5661(5) 0.4814(6)
C94 C 0.4669(3) 0.5562(5) 0.5728(6)
O118 O 0.0907(3) 0.4849(3) 0.4350(5)
C95 C 0.0621(4) 0.5640(4) 0.4081(8)
C96 C 0.0287(3) 0.2550(3) 0.3404(4)
O119 O 0.0495(3) 0.2673(4) 0.4319(4)
C97 C -0.0514(3) 0.1831(4) 0.2638(5)
C98 C 0.2201(9) 0.3503(11) 0.3599(11)
O124 O 0.136(2) 0.473(4) 0.317(4)
C137 C 0.7488(7) 0.4903(9) 0.5658(9)
C138 C 0.7374(9) 0.5760(10) 0.6055(12)
C139 C 0.7066(6) 0.4093(10) 0.5736(10)
C140 C 0.6858(9) 0.5809(12) 0.6537(13)
C141 C 0.6545(7) 0.4140(12) 0.6214(13)
C142 C 0.6442(8) 0.4998(13) 0.6616(13)
C144 C 0.9637(7) 0.4808(10) 0.7492(8)
N6 N 0.9921(12) 0.6882(15) 0.7904(17)
C146 C 0.9261(10) 0.6001(13) 0.7301(13)
C147 C 0.9396(11) 0.5513(17) 0.6430(16)
O132 O 0.9567(14) 0.594(2) 0.5884(18)
C148 C 0.8366(11) 0.6178(11) 0.6890(14)
C155 C 1.1135(16) 0.794(2) 0.943(2)
C156 C 1.0376(14) 0.7086(19) 0.8874(17)
O133 O 1.0171(15) 0.658(2) 0.9315(14)
O134 O 0.9318(13) 0.4539(17) 0.626(2)
O2? O -0.0170(6) 0.0404(7) 0.0674(7)
H14? H 0.0712 0.3909 -0.0099
H19? H 0.2074 0.5508 0.2066
O27? O 0.0911(12) 0.632(3) 0.625(4)
H51? H 0.0629 0.0357 0.3043
C43? C 0.075(2) 0.087(2) 0.344(2)
H52? H 0.0888 0.1090 0.2958
O38? O 0.021(2) 0.136(3) 0.368(3)
H61? H 0.474(4) 0.243(4) 0.806(4)
H67? H 0.9801 0.7458 0.9853
O49? O 1.000(3) 0.708(3) 0.956(3)
O86? O 0.6243(18) 1.0487(19) 0.913(2)
O90? O 0.3572(9) 0.8230(10) 0.0686(11)
O91? O 0.0861(5) 0.8618(6) 0.9122(6)
O92? O 0.1787(8) 0.7733(8) 0.0334(10)
O93? O 0.0094(4) 0.3184(5) 0.1210(5)
O94? O 0.3399(13) 0.9477(12) 0.9770(13)
O97? O 0.0388(11) 0.8128(11) 0.2216(12)
O98? O 0.0213(9) 0.8037(10) 0.2236(11)
O100? O 0.4815(6) 0.2204(7) 0.9173(7)
O102? O 0.748(4) 0.950(5) 0.211(5)
O103? O 0.878(5) 1.110(6) 0.223(6)
O105? O 0.6181(15) 0.7539(14) 1.1136(15)
O106? O 0.563(4) 0.730(4) 1.085(4)
O107? O 0.3299(6) 0.0946(7) 0.8353(7)
O110? O 0.9667(16) 0.0408(18) 0.4715(18)
O111? O 0.9765(8) 0.7100(9) 0.7343(10)
O113? O 0.8628(17) 0.8764(19) 0.203(2)
O115? O 0.823(7) 0.886(9) 0.286(9)
O116? O 0.9458(12) 0.8766(13) 0.0850(14)
O117? O 0.1660(3) 0.5090(4) 0.3630(5)
C88? C 0.2270(3) 0.3590(4) 0.3646(4)
N2? N 0.1273(9) 0.3259(15) 0.3083(13)
C99? C 0.2572(11) 0.4527(11) 0.4191(15)
O120? O 0.2198(13) 0.5131(13) 0.394(2)
C100? C 0.2565(10) 0.3283(15) 0.2828(10)
C101? C 0.3539(10) 0.3600(13) 0.3245(11)
C102? C 0.3920(12) 0.4407(17) 0.3116(17)
C103? C 0.4045(10) 0.3073(12) 0.3707(15)
C104? C 0.4797(12) 0.4672(17) 0.344(2)
C105? C 0.4925(10) 0.3345(14) 0.4033(16)
C106? C 0.5299(10) 0.4142(16) 0.3896(17)
C107? C -0.0162(10) 0.2810(19) 0.295(2)
C108? C 0.0798(10) 0.3026(15) 0.3514(17)
O121? O 0.1142(12) 0.2985(17) 0.4374(18)
O122? O 0.3370(11) 0.4773(13) 0.5059(14)
C109? C 0.3821(13) 0.5719(13) 0.528(2)
N3? N 0.192(2) 0.350(3) 0.305(3)
C110? C 0.2798(19) 0.408(2) 0.364(2)
C111? C 0.336(2) 0.366(2) 0.333(2)
O123? O 0.335(3) 0.286(2) 0.310(3)
C112? C 0.306(2) 0.426(3) 0.477(2)
C113? C 0.397(2) 0.486(3) 0.550(2)
C114? C 0.444(3) 0.462(4) 0.634(2)
C115? C 0.431(2) 0.567(2) 0.537(3)
C116? C 0.524(3) 0.519(4) 0.704(2)
C117? C 0.512(3) 0.624(3) 0.606(3)
C118? C 0.559(3) 0.600(4) 0.690(3)
C119? C 0.0396(19) 0.320(5) 0.214(4)
C120? C 0.1273(19) 0.387(4) 0.281(3)
O125? O 0.393(2) 0.433(3) 0.328(2)
C121? C 0.476(2) 0.417(4) 0.344(3)
N4? N 0.8991(3) 0.5407(3) 0.7361(3)
C122? C 0.8211(2) 0.4777(3) 0.6544(3)
C123? C 0.8393(3) 0.4648(3) 0.5639(3)
O126? O 0.8222(3) 0.5017(5) 0.5056(4)
C124? C 0.7482(3) 0.5238(4) 0.6411(4)
C125? C 0.6635(3) 0.4684(4) 0.5522(4)
C126? C 0.6148(2) 0.3910(5) 0.5560(5)
C127? C 0.6362(3) 0.4917(5) 0.4660(4)
C128? C 0.5402(2) 0.3368(6) 0.4742(6)
C129? C 0.5612(3) 0.4378(6) 0.3844(5)
C130? C 0.5133(3) 0.3604(7) 0.3883(5)
O127? O 0.8962(3) 0.4098(4) 0.5623(3)
C131? C 0.9328(4) 0.4068(6) 0.5055(4)
C132? C 0.9498(3) 0.4988(4) 0.7893(3)
O128? O 0.9324(3) 0.4101(4) 0.7787(4)
C133? C 1.0254(3) 0.5631(5) 0.8646(4)
N5? N 0.9414(6) 0.5130(8) 0.6728(8)
C134? C 0.8889(7) 0.4519(8) 0.5702(7)
C135? C 0.9391(8) 0.4489(11) 0.5105(9)
O129? O 0.9555(10) 0.5146(14) 0.4779(12)
C136? C 0.8103(7) 0.4872(10) 0.5184(8)
C143? C 1.0143(8) 0.5483(14) 0.8541(8)
O130? O 0.9430(8) 0.3957(11) 0.7345(10)
O131? O 0.9669(10) 0.3670(12) 0.4932(11)
C145? C 1.0202(12) 0.3770(16) 0.4448(13)
C149? C 0.7600(10) 0.5311(13) 0.6237(14)
C150? C 0.7208(12) 0.4825(17) 0.6687(17)
C151? C 0.7315(12) 0.4979(15) 0.5203(13)
C152? C 0.6549(13) 0.4012(19) 0.611(2)
C153? C 0.6651(13) 0.4168(18) 0.4631(15)
C154? C 0.6268(13) 0.3683(17) 0.509(2)
C157? C 0.9379(17) 0.415(2) 0.536(2)
loop_
_geom_bond_atom_site_label_1
_geom_bond_atom_site_label_2
_geom_bond_site_symmetry_1
_geom_bond_site_symmetry_2
C1 H1 1_555 1_555
C2 C1 1_555 1_555
H2 C2 1_555 1_555
C3 C2 1_555 1_555
H3 C3 1_555 1_555
C4 C3 1_555 1_555
H4 C4 1_555 1_555
C5 C4 1_555 1_555
H5 C5 1_555 1_555
C6 C5 1_555 1_555
H6 C6 1_555 1_555
H7 C6 1_555 1_555
O1 C6 1_555 1_555
O3 C2 1_555 1_555
O4 C3 1_555 1_555
O5 C4 1_555 1_555
O6 C1 1_555 1_555
C7 O5 1_555 1_555
H8 C7 1_555 1_555
C8 C7 1_555 1_555
H9 C8 1_555 1_555
C9 C8 1_555 1_555
H10 C9 1_555 1_555
C10 C9 1_555 1_555
H11 C10 1_555 1_555
C11 C10 1_555 1_555
H12 C11 1_555 1_555
C12 C11 1_555 1_555
H13 C12 1_555 1_555
O7 C8 1_555 1_555
O8 C9 1_555 1_555
O9 C10 1_555 1_555
O10 C7 1_555 1_555
O11 C12 1_555 1_555
C13 O9 1_555 1_555
H15 C13 1_555 1_555
C14 C13 1_555 1_555
H16 C14 1_555 1_555
C15 C14 1_555 1_555
H17 C15 1_555 1_555
C16 C15 1_555 1_555
H18 C16 1_555 1_555
C17 C16 1_555 1_555
C18 C17 1_555 1_555
H20 C18 1_555 1_555
H21 C18 1_555 1_555
O12 C14 1_555 1_555
O13 C15 1_555 1_555
O14 C16 1_555 1_555
O15 C13 1_555 1_555
O16 C18 1_555 1_555
C19 O14 1_555 1_555
H22 C19 1_555 1_555
C20 C19 1_555 1_555
H23 C20 1_555 1_555
C21 C20 1_555 1_555
H24 C21 1_555 1_555
C22 C21 1_555 1_555
H25 C22 1_555 1_555
C23 C22 1_555 1_555
H26 C23 1_555 1_555
C24 C23 1_555 1_555
H27 C24 1_555 1_555
H28 C24 1_555 1_555
O17 C20 1_555 1_555
O18 C21 1_555 1_555
O19 C22 1_555 1_555
O20 C19 1_555 1_555
O21 C24 1_555 1_555
C25 O19 1_555 1_555
H29 C25 1_555 1_555
C26 C25 1_555 1_555
H30 C26 1_555 1_555
C27 C26 1_555 1_555
H31 C27 1_555 1_555
C28 C27 1_555 1_555
H32 C28 1_555 1_555
C29 C28 1_555 1_555
H33 C29 1_555 1_555
C30 C29 1_555 1_555
H34 C30 1_555 1_555
H35 C30 1_555 1_555
O22 C26 1_555 1_555
O23 C27 1_555 1_555
H36 O23 1_555 1_555
O24 C28 1_555 1_555
O25 C25 1_555 1_555
O26 C30 1_555 1_555
C31 O24 1_555 1_555
H37 C31 1_555 1_555
C32 C31 1_555 1_555
H38 C32 1_555 1_555
C33 C32 1_555 1_555
H39 C33 1_555 1_555
C34 C33 1_555 1_555
H40 C34 1_555 1_555
C35 C34 1_555 1_555
H41 C35 1_555 1_555
C36 C35 1_555 1_555
H42 C36 1_555 1_555
H43 C36 1_555 1_555
O28 C32 1_555 1_555
H44 O28 1_555 1_555
O29 C33 1_555 1_555
O30 C34 1_555 1_555
O31 C31 1_555 1_555
O32 C36 1_555 1_555
C37 O30 1_555 1_555
H45 C37 1_555 1_555
C38 C37 1_555 1_555
H46 C38 1_555 1_555
C39 C38 1_555 1_555
H47 C39 1_555 1_555
C40 C39 1_555 1_555
H48 C40 1_555 1_555
C41 C40 1_555 1_555
H49 C41 1_555 1_555
O33 C38 1_555 1_555
O34 C39 1_555 1_555
O35 C1 1_555 1_555
O36 C37 1_555 1_555
C42 C41 1_555 1_555
H50 C42 1_555 1_555
O37 C42 1_555 1_555
H53 C42 1_555 1_555
C44 H54 1_555 1_555
C45 C44 1_555 1_555
H55 C45 1_555 1_555
C46 C45 1_555 1_555
H56 C46 1_555 1_555
C47 C46 1_555 1_555
H57 C47 1_555 1_555
C48 C47 1_555 1_555
H58 C48 1_555 1_555
C49 C48 1_555 1_555
H59 C49 1_555 1_555
H60 C49 1_555 1_555
O39 C45 1_555 1_555
O40 C46 1_555 1_555
O41 C47 1_555 1_555
O42 C44 1_555 1_555
O43 C49 1_555 1_555
C50 O41 1_555 1_555
H62 C50 1_555 1_555
C51 C50 1_555 1_555
H63 C51 1_555 1_555
C52 C51 1_555 1_555
H64 C52 1_555 1_555
C53 C52 1_555 1_555
H65 C53 1_555 1_555
C54 C53 1_555 1_555
H66 C54 1_555 1_555
C55 C54 1_555 1_555
H68 C55 1_555 1_555
O44 C51 1_555 1_555
O45 C52 1_555 1_555
H69 O45 1_555 1_555
O46 C53 1_555 1_555
O47 C50 1_555 1_555
O48 C55 1_555 1_555
C56 O46 1_555 1_555
H70 C56 1_555 1_555
C57 C56 1_555 1_555
H71 C57 1_555 1_555
C58 C57 1_555 1_555
H72 C58 1_555 1_555
C59 C58 1_555 1_555
H73 C59 1_555 1_555
C60 C59 1_555 1_555
H74 C60 1_555 1_555
C61 C60 1_555 1_555
H75 C61 1_555 1_555
H76 C61 1_555 1_555
O50 C57 1_555 1_555
O51 C58 1_555 1_555
O52 C59 1_555 1_555
O53 C56 1_555 1_555
O54 C61 1_555 1_555
C62 O52 1_555 1_555
H77 C62 1_555 1_555
C63 C62 1_555 1_555
H78 C63 1_555 1_555
C64 C63 1_555 1_555
H79 C64 1_555 1_555
C65 C64 1_555 1_555
H80 C65 1_555 1_555
C66 C65 1_555 1_555
H81 C66 1_555 1_555
O55 C67 1_555 1_555
C67 C66 1_555 1_555
H82 C67 1_555 1_555
H83 C67 1_555 1_555
O56 C63 1_555 1_555
O57 C64 1_555 1_555
O58 C65 1_555 1_555
O59 C62 1_555 1_555
C68 O58 1_555 1_555
H84 C68 1_555 1_555
C69 C68 1_555 1_555
H85 C69 1_555 1_555
C70 C69 1_555 1_555
H86 C70 1_555 1_555
C71 C70 1_555 1_555
H87 C71 1_555 1_555
C72 C71 1_555 1_555
H88 C72 1_555 1_555
C73 C72 1_555 1_555
H89 C73 1_555 1_555
H90 C73 1_555 1_555
O60 C69 1_555 1_555
O61 C70 1_555 1_555
H91 O61 1_555 1_555
O62 C71 1_555 1_555
O63 C68 1_555 1_555
O64 C73 1_555 1_555
C74 O62 1_555 1_555
H92 C74 1_555 1_555
C75 C74 1_555 1_555
H93 C75 1_555 1_555
C76 C75 1_555 1_555
H94 C76 1_555 1_555
C77 C76 1_555 1_555
H95 C77 1_555 1_555
C78 C77 1_555 1_555
H96 C78 1_555 1_555
C79 C78 1_555 1_555
H97 C79 1_555 1_555
H98 C79 1_555 1_555
O65 C75 1_555 1_555
O66 C76 1_555 1_555
O67 C77 1_555 1_555
O68 C74 1_555 1_555
O69 C79 1_555 1_555
C80 O67 1_555 1_555
H99 C80 1_555 1_555
C81 C80 1_555 1_555
H100 C81 1_555 1_555
C82 C81 1_555 1_555
H101 C82 1_555 1_555
C83 C82 1_555 1_555
H102 C83 1_555 1_555
C84 C83 1_555 1_555
H103 C84 1_555 1_555
C85 C84 1_555 1_555
H104 C85 1_555 1_555
H105 C85 1_555 1_555
O70 C81 1_555 1_555
O71 C82 1_555 1_555
O72 C44 1_555 1_555
O73 C80 1_555 1_555
O74 C85 1_555 1_555
N1 C86 1_555 1_555
C86 C87 1_555 1_555
C87 O118 1_555 1_555
C89 C90 1_555 1_555
C90 C92 1_555 1_555
C91 C89 1_555 1_555
C92 C94 1_555 1_555
C93 C91 1_555 1_555
C94 C93 1_555 1_555
O118 C95 1_555 1_555
C96 N1 1_555 1_555
O119 C96 1_555 1_555
C97 C96 1_555 1_555
C98 C86 1_555 1_555
O124 C87 1_555 1_555
C137 C138 1_555 1_555
C138 C140 1_555 1_555
C139 C137 1_555 1_555
C140 C142 1_555 1_555
C141 C139 1_555 1_555
C142 C141 1_555 1_555
C144 O134 1_555 1_555
N6 C146 1_555 1_555
C146 C147 1_555 1_555
C147 O132 1_555 1_555
C148 C138 1_555 1_555
C155 C156 1_555 1_555
C156 N6 1_555 1_555
O133 C156 1_555 1_555
O134 C147 1_555 1_555
C5 O6 1_555 1_555
C11 O10 1_555 1_555
C17 O15 1_555 1_555
C23 O20 1_555 1_555
C29 O25 1_555 1_555
C35 O31 1_555 1_555
C40 O35 1_555 1_555
C41 O36 1_555 1_555
C48 O42 1_555 1_555
C54 O47 1_555 1_555
C60 O53 1_555 1_555
C66 O59 1_555 1_555
C72 O63 1_555 1_555
C78 O68 1_555 1_555
C83 O72 1_555 1_555
C84 O73 1_555 1_555
C89 C98 1_555 1_555
C146 C148 1_555 1_555

#END
