
#######################################################################
#
#                 Cambridge Crystallographic Data Centre
#                                CCDC 
#
#######################################################################
#
# If this CIF has been generated from an entry in the Cambridge 
# Structural Database, then it will include bibliographic, chemical, 
# crystal, experimental, refinement or atomic coordinate data resulting 
# from the CCDC's data processing and validation procedures.
#
#######################################################################

data_DOCVUM08
_chemical_formula_moiety         '2(C42 H70 O35),2(C12 H15 N1 O3),23(H2 O1)'
_chemical_name_systematic        
'bis(\b-Cyclodextrin) bis(N-acetyl-L-phenylalanine methyl ester) clathrate hydrate'
_symmetry_cell_setting           triclinic
_symmetry_space_group_name_H-M   'P 1'
_symmetry_Int_Tables_number      1
_space_group_name_Hall           'P 1'
loop_
_symmetry_equiv_pos_site_id
_symmetry_equiv_pos_as_xyz
1 x,y,z
_cell_length_a                   17.970(4)
_cell_length_b                   15.393(3)
_cell_length_c                   15.514(3)
_cell_angle_alpha                103.18(3)
_cell_angle_beta                 113.22(3)
_cell_angle_gamma                98.91(3)
_cell_volume                     3693.4
_exptl_crystal_colour            colorless
_exptl_crystal_description       parallelepiped
_cell_formula_units_Z            1
_exptl_crystal_recrystallization_method 'aqueous solution'
loop_
_atom_site_label
_atom_site_type_symbol
_atom_site_fract_x
_atom_site_fract_y
_atom_site_fract_z
C1 C 0.2038(3) 0.0040(4) 0.2521(4)
H1 H 0.1928 -0.0520 0.2701
C2 C 0.2740(4) 0.0036(4) 0.2188(4)
H2 H 0.2546 -0.0517 0.1612
C3 C 0.2891(3) 0.0881(4) 0.1869(5)
H3 H 0.3093 0.1441 0.2439
C4 C 0.2073(3) 0.0903(4) 0.1067(5)
H4 H 0.1899 0.0386 0.0463
C5 C 0.1381(4) 0.0844(5) 0.1406(6)
H5 H 0.1536 0.1406 0.1960
C6 C 0.0535(5) 0.0764(9) 0.0610(10)
H6 H 0.0147 0.0794 0.0901
H7 H 0.0581 0.1299 0.0385
O1 O 0.3479(3) -0.0021(3) 0.2943(4)
O2 O 0.3502(3) 0.0866(4) 0.1509(4)
O3 O 0.2218(3) 0.1761(3) 0.0877(3)
O4 O 0.1297(3) 0.0052(3) 0.1740(3)
O5 O 0.0235(6) 0.0084(7) -0.0094(8)
C7 C 0.2021(4) 0.1740(4) -0.0114(4)
H8 H 0.1871 0.1097 -0.0533
C8 C 0.2812(4) 0.2298(4) -0.0095(5)
H9 H 0.2682 0.2312 -0.0767
C9 C 0.3042(3) 0.3276(4) 0.0567(5)
H10 H 0.3169 0.3276 0.1242
C10 C 0.2302(3) 0.3682(4) 0.0180(4)
H11 H 0.2219 0.3756 -0.0460
C11 C 0.1492(3) 0.3080(4) 0.0077(4)
H12 H 0.1540 0.3113 0.0736
C12 C 0.0723(4) 0.3369(4) -0.0486(5)
H13 H 0.0221 0.2924 -0.0602
H14 H 0.0745 0.3970 -0.0093
O7 O 0.3469(3) 0.1877(3) 0.0209(4)
O8 O 0.3753(3) 0.3827(3) 0.0569(4)
O9 O 0.2516(3) 0.4575(3) 0.0895(3)
O10 O 0.1342(3) 0.2122(3) -0.0484(3)
O11 O 0.0679(3) 0.3421(4) -0.1390(4)
C13 C 0.2398(4) 0.5327(4) 0.0529(4)
H15 H 0.2216 0.5113 -0.0187
C14 C 0.3222(4) 0.6084(4) 0.1021(4)
H16 H 0.3141 0.6586 0.0731
C15 C 0.3494(3) 0.6471(4) 0.2127(4)
H17 H 0.3594 0.5985 0.2436
C16 C 0.2801(3) 0.6839(4) 0.2261(4)
H18 H 0.2720 0.7341 0.1972
C17 C 0.1980(3) 0.6046(4) 0.1744(5)
H19 H 0.2060 0.5553 0.2048
C18 C 0.1248(4) 0.6365(6) 0.1794(6)
H20 H 0.0740 0.5853 0.1418
H21 H 0.1339 0.6558 0.2476
O12 O 0.3846(3) 0.5717(3) 0.0844(4)
O13 O 0.4238(3) 0.7231(3) 0.2581(4)
O14 O 0.3032(2) 0.7184(3) 0.3303(3)
O15 O 0.1769(3) 0.5681(3) 0.0712(3)
O16 O 0.1138(4) 0.7113(6) 0.1412(5)
C19 C 0.3018(3) 0.8107(4) 0.3673(4)
H22 H 0.2952 0.8410 0.3167
C20 C 0.3859(3) 0.8599(4) 0.4564(4)
H23 H 0.3859 0.9241 0.4829
C21 C 0.3971(3) 0.8148(4) 0.5357(4)
H24 H 0.3987 0.7508 0.5113
C22 C 0.3236(3) 0.8143(4) 0.5620(4)
H25 H 0.3274 0.8777 0.5969
C23 C 0.2391(3) 0.7730(4) 0.4692(4)
H26 H 0.2302 0.7060 0.4428
C24 C 0.1665(4) 0.7903(5) 0.4906(5)
H27 H 0.1144 0.7644 0.4298
H28 H 0.1622 0.7587 0.5367
O17 O 0.4533(3) 0.8618(3) 0.4303(3)
O18 O 0.4724(3) 0.8640(3) 0.6239(3)
O19 O 0.3302(3) 0.7583(3) 0.6255(3)
O20 O 0.2361(2) 0.8148(3) 0.3942(3)
O21 O 0.1768(3) 0.8873(4) 0.5317(4)
C25 C 0.3286(4) 0.7963(4) 0.7168(5)
H29 H 0.3297 0.8618 0.7269
C26 C 0.4060(4) 0.7887(4) 0.7995(5)
H30 H 0.4048 0.8161 0.8623
C27 C 0.4027(3) 0.6878(4) 0.7873(4)
H31 H 0.4046 0.6590 0.7252
C28 C 0.3221(4) 0.6381(4) 0.7853(5)
H32 H 0.3226 0.6628 0.8497
C29 C 0.2464(4) 0.6510(5) 0.7049(6)
H33 H 0.2429 0.6196 0.6404
C30 C 0.1641(6) 0.6143(9) 0.7056(11)
H34 H 0.1577 0.5512 0.7076
H35 H 0.1613 0.6525 0.7628
O22 O 0.4812(3) 0.8387(3) 0.8032(4)
O23 O 0.4740(3) 0.6810(3) 0.8694(4)
O24 O 0.3179(3) 0.5422(3) 0.7656(3)
O25 O 0.2550(3) 0.7481(3) 0.7161(4)
O26 O 0.0975(18) 0.617(2) 0.613(2)
C31 C 0.3090(3) 0.4990(4) 0.8336(4)
H36 H 0.3145 0.5463 0.8917
C32 C 0.3783(3) 0.4515(4) 0.8649(4)
H37 H 0.3708 0.4196 0.9100
C33 C 0.3705(3) 0.3786(4) 0.7741(4)
H38 H 0.3762 0.4086 0.7269
C34 C 0.2848(3) 0.3101(4) 0.7271(4)
H39 H 0.2817 0.2751 0.7716
C35 C 0.2147(3) 0.3586(4) 0.7045(4)
H40 H 0.2115 0.3839 0.6510
C36 C 0.1298(4) 0.2930(4) 0.6738(5)
H41 H 0.0881 0.3278 0.6646
H42 H 0.1132 0.2466 0.6108
O28 O 0.4595(3) 0.5168(3) 0.9160(3)
O29 O 0.4343(3) 0.3322(3) 0.8034(4)
O30 O 0.2741(3) 0.2476(3) 0.6362(3)
O31 O 0.2298(3) 0.4330(3) 0.7903(3)
O32 O 0.1300(3) 0.2475(3) 0.7444(4)
C37 C 0.2537(4) 0.1516(4) 0.6231(5)
H43 H 0.2536 0.1422 0.6835
C38 C 0.3204(4) 0.1119(4) 0.6033(4)
H44 H 0.3068 0.0457 0.5964
C39 C 0.3199(3) 0.1208(4) 0.5097(4)
H45 H 0.3328 0.1864 0.5144
C40 C 0.2333(3) 0.0690(4) 0.4242(4)
H46 H 0.2229 0.0026 0.4162
C41 C 0.1667(4) 0.1054(5) 0.4481(5)
H47 H 0.1709 0.1686 0.4446
C42 C 0.0788(4) 0.0448(6) 0.3779(6)
H48 H 0.0385 0.0727 0.3926
H49 H 0.0680 0.0415 0.3107
O33 O 0.4006(3) 0.1561(3) 0.6858(4)
O34 O 0.3798(3) 0.0799(3) 0.4893(3)
O35 O 0.2321(3) 0.0833(3) 0.3361(3)
O36 O 0.1742(3) 0.1052(3) 0.5426(4)
O37 O 0.0667(4) -0.0470(4) 0.3848(5)
C43 C 0.7272(3) 0.2731(3) 0.8621(4)
H50 H 0.7263 0.2115 0.8696
C44 C 0.6602(3) 0.3075(4) 0.8860(4)
H51 H 0.6719 0.3104 0.9541
C45 C 0.6631(3) 0.4041(4) 0.8766(4)
H52 H 0.6510 0.4018 0.8086
C46 C 0.7496(3) 0.4671(4) 0.9471(4)
H53 H 0.7595 0.4738 1.0154
C47 C 0.8170(3) 0.4287(4) 0.9275(4)
H54 H 0.8128 0.4318 0.8634
C48 C 0.9051(3) 0.4797(4) 1.0075(5)
H55 H 0.9452 0.4538 0.9903
H56 H 0.9166 0.5444 1.0111
O38 O 0.5797(3) 0.2447(3) 0.8200(3)
O39 O 0.6018(2) 0.4369(3) 0.9016(3)
O40 O 0.7530(2) 0.5557(3) 0.9315(3)
O41 O 0.8078(3) 0.3348(3) 0.9279(3)
O42 O 0.9162(3) 0.4737(4) 1.1013(4)
C49 C 0.7822(3) 0.6356(4) 1.0149(4)
H57 H 0.7926 0.6169 1.0740
C50 C 0.7141(4) 0.6866(4) 0.9979(4)
H58 H 0.7340 0.7414 1.0561
C51 C 0.6992(3) 0.7186(4) 0.9099(5)
H59 H 0.6788 0.6643 0.8510
C52 C 0.7817(4) 0.7795(4) 0.9252(4)
H60 H 0.8000 0.8368 0.9802
C53 C 0.8496(4) 0.7280(5) 0.9465(5)
H61 H 0.8330 0.6749 0.8877
O43 O 0.6393(3) 0.6280(3) 0.9884(4)
O44 O 0.6370(3) 0.7687(3) 0.8965(4)
O45 O 0.7690(3) 0.8010(3) 0.8367(3)
O46 O 0.8573(3) 0.6938(3) 1.0284(3)
O47 O 0.9568(5) 0.8632(6) 1.0575(6)
C54 C 0.9349(5) 0.7862(6) 0.9729(6)
H62 H 0.9757 0.7505 0.9875
H63 H 0.9340 0.8075 0.9183
C55 C 0.7880(3) 0.8968(4) 0.8441(4)
H64 H 0.8019 0.9353 0.9110
C56 C 0.7097(3) 0.9122(4) 0.7691(4)
H65 H 0.7214 0.9774 0.7723
C57 C 0.6882(3) 0.8526(4) 0.6663(4)
H66 H 0.6762 0.7870 0.6619
C58 C 0.7619(3) 0.8777(4) 0.6446(4)
H67 H 0.7694 0.9408 0.6405
C59 C 0.8433(3) 0.8712(4) 0.7253(4)
H68 H 0.8396 0.8058 0.7202
C60 C 0.9206(4) 0.9129(4) 0.7149(5)
H69 H 0.9709 0.9110 0.7688
H70 H 0.9179 0.8767 0.6532
O48 O 0.6415(3) 0.8912(3) 0.7925(4)
O49 O 0.6157(3) 0.8697(3) 0.5969(3)
O50 O 0.7425(3) 0.8129(3) 0.5508(3)
O51 O 0.8560(3) 0.9209(3) 0.8216(3)
O52 O 0.9248(3) 1.0041(3) 0.7162(5)
C61 C 0.7554(3) 0.8483(4) 0.4803(4)
H71 H 0.7733 0.9162 0.5061
C62 C 0.6729(3) 0.8168(4) 0.3861(4)
H72 H 0.6811 0.8448 0.3387
C63 C 0.6462(3) 0.7117(4) 0.3403(4)
H73 H 0.6361 0.6824 0.3859
C64 C 0.7170(4) 0.6830(4) 0.3206(5)
H74 H 0.7257 0.7095 0.2724
C65 C 0.7978(3) 0.7166(4) 0.4188(5)
H75 H 0.7893 0.6878 0.4656
O53 O 0.6109(3) 0.8488(3) 0.4087(3)
O54 O 0.5706(3) 0.6855(3) 0.2495(3)
O55 O 0.6934(3) 0.5833(3) 0.2832(3)
O56 O 0.8182(3) 0.8159(3) 0.4589(4)
C66 C 0.8719(5) 0.6945(7) 0.4036(7)
H76 H 0.9228 0.7231 0.4654
H77 H 0.8638 0.6279 0.3857
O57 O 0.8819(6) 0.7252(7) 0.3312(9)
C67 C 0.6915(4) 0.5442(4) 0.1901(4)
H78 H 0.6976 0.5932 0.1606
C68 C 0.6072(3) 0.4735(4) 0.1241(4)
H79 H 0.6049 0.4452 0.0594
C69 C 0.5968(3) 0.3986(4) 0.1706(4)
H80 H 0.5973 0.4261 0.2345
C70 C 0.6687(3) 0.3544(4) 0.1858(4)
H81 H 0.6627 0.3187 0.1213
C71 C 0.7544(3) 0.4279(4) 0.2421(4)
H82 H 0.7653 0.4547 0.3110
C72 C 0.8256(4) 0.3871(5) 0.2399(5)
H83 H 0.8781 0.4360 0.2736
H84 H 0.8310 0.3420 0.2751
O58 O 0.5407(3) 0.5178(3) 0.1112(3)
O59 O 0.5196(3) 0.3273(3) 0.1071(4)
O60 O 0.6644(3) 0.2935(3) 0.2418(3)
O61 O 0.7557(3) 0.5004(3) 0.1983(3)
O62 O 0.8115(3) 0.3437(4) 0.1418(4)
C73 C 0.6643(4) 0.2011(4) 0.2052(4)
H85 H 0.6637 0.1904 0.1402
C74 C 0.5848(4) 0.1369(4) 0.1946(5)
H86 H 0.5847 0.0727 0.1678
C75 C 0.5862(3) 0.1491(4) 0.2935(4)
H87 H 0.5855 0.2126 0.3217
C76 C 0.6652(3) 0.1296(4) 0.3625(4)
H88 H 0.6626 0.0640 0.3384
C77 C 0.7436(4) 0.1907(5) 0.3661(5)
H89 H 0.7506 0.2556 0.4001
C78 C 0.8221(5) 0.1635(7) 0.4211(7)
H90 H 0.8703 0.2021 0.4214
H91 H 0.8320 0.1731 0.4892
O63 O 0.8124(5) 0.0688(6) 0.3748(8)
O64 O 0.5121(3) 0.1524(3) 0.1272(3)
O65 O 0.5136(3) 0.0843(3) 0.2819(4)
O66 O 0.6701(2) 0.1513(3) 0.4589(3)
O67 O 0.7366(3) 0.1825(3) 0.2701(4)
C79 C 0.6776(3) 0.0817(4) 0.5043(4)
H92 H 0.6727 0.0243 0.4567
C80 C 0.6052(3) 0.0651(3) 0.5325(4)
H93 H 0.6089 0.0149 0.5619
C81 C 0.6127(3) 0.1521(4) 0.6078(4)
H94 H 0.6084 0.2025 0.5788
C82 C 0.6984(3) 0.1785(3) 0.6974(4)
H95 H 0.7009 0.1316 0.7312
C83 C 0.7693(3) 0.1881(4) 0.6663(4)
H96 H 0.7715 0.2415 0.6421
C84 C 0.8549(3) 0.2010(4) 0.7510(4)
H97 H 0.8969 0.2021 0.7264
H98 H 0.8707 0.2602 0.8014
O68 O 0.5268(3) 0.0380(3) 0.4463(3)
O69 O 0.5464(3) 0.1350(3) 0.6350(3)
O70 O 0.7080(2) 0.2666(3) 0.7626(3)
O71 O 0.7551(2) 0.1056(3) 0.5887(3)
O72 O 0.8539(3) 0.1287(3) 0.7938(3)
O73 O 0.488(2) 0.024(2) 0.734(3)
O75 O 0.0566(4) 0.0623(3) 0.6778(6)
O76 O 0.9604(4) 0.6432(5) 0.2353(5)
O77 O 0.7724(5) 0.1567(5) 0.0552(6)
O78 O 0.8945(4) 0.1517(6) 0.9868(5)
O79 O 0.5143(11) 0.8958(10) 0.2478(12)
O81 O 0.517(2) 1.0082(19) 0.959(2)
O83 O 0.4381(12) 0.7361(12) 0.0461(12)
O85 O 0.6174(14) -0.0876(13) 0.0358(15)
O87 O 0.1818(6) 0.9686(6) 0.7108(6)
O89 O 0.6422(7) 1.0611(8) 0.8679(10)
O90 O 0.7736(11) 1.0235(13) 0.1562(14)
O91 O 0.101(2) 0.814(2) 0.744(2)
O92 O 0.199(2) 0.886(2) 0.853(2)
O93 O 0.385(2) 0.874(3) 0.170(3)
O94 O 0.0846(7) 0.8675(10) 0.9143(10)
O95 O 0.1791(10) 0.7736(12) 0.0255(13)
O96 O 0.0074(7) 0.3250(8) 0.1237(7)
O97 O 0.396(2) 0.969(2) 1.010(2)
O99 O 0.0337(4) 0.8128(4) 0.2237(5)
O100 O 0.5168(7) 0.1958(7) 0.9358(7)
O102 O 0.6267(11) 0.7649(11) 1.1212(12)
O104 O 0.3329(10) 0.0856(11) 0.8402(12)
O105 O 0.9428(7) -0.0216(8) 0.4602(11)
O107 O 0.9764(12) 0.7141(14) 0.7331(15)
O109 O 0.8982(16) 0.9479(18) 0.168(2)
N1 N 0.0890(5) 0.2990(6) 0.3133(7)
C85 C 0.1507(5) 0.3716(6) 0.3880(6)
C86 C 0.1360(6) 0.4567(6) 0.3835(8)
O112 O 0.1613(7) 0.5046(7) 0.3541(10)
C87 C 0.2231(6) 0.3554(6) 0.3617(7)
C88 C 0.3088(5) 0.4247(7) 0.4310(9)
C89 C 0.3546(5) 0.4182(9) 0.5238(9)
C90 C 0.3401(6) 0.4970(8) 0.4046(10)
C91 C 0.4299(5) 0.4837(10) 0.5900(11)
C92 C 0.4161(6) 0.5622(9) 0.4705(13)
C93 C 0.4610(6) 0.5557(10) 0.5632(12)
O113 O 0.0873(6) 0.4848(7) 0.4283(11)
C94 C 0.0581(8) 0.5623(8) 0.3980(15)
C95 C 0.0270(6) 0.2545(7) 0.3423(9)
O114 O 0.0482(7) 0.2705(9) 0.4345(10)
C96 C -0.0524(6) 0.1814(8) 0.2682(12)
N2 N 0.8983(5) 0.5398(5) 0.7440(6)
C97 C 0.8244(4) 0.4832(5) 0.6522(5)
C98 C 0.8444(5) 0.4700(8) 0.5652(6)
O115 O 0.8270(7) 0.5113(11) 0.5079(7)
C99 C 0.7513(5) 0.5306(6) 0.6338(7)
C100 C 0.6635(5) 0.4700(8) 0.5548(8)
C101 C 0.6225(4) 0.3958(10) 0.5721(10)
C102 C 0.6257(6) 0.4855(10) 0.4640(8)
C103 C 0.5451(4) 0.3369(11) 0.4992(12)
C104 C 0.5479(6) 0.4271(12) 0.3913(9)
C105 C 0.5077(5) 0.3526(12) 0.4089(12)
C106 C 1.0373(6) 0.5660(8) 0.8795(8)
C107 C 0.9535(5) 0.5033(6) 0.7979(6)
O116 O 0.9361(5) 0.4183(7) 0.7808(7)
O117 O 0.8948(6) 0.4127(10) 0.5675(7)
C108 C 0.9358(9) 0.4101(15) 0.5051(9)
O6? O -0.0101(7) 0.0501(8) 0.0736(9)
O27? O 0.1678(16) 0.6531(18) 0.799(2)
O74? O 0.4653(5) 0.0264(5) 0.7564(6)
O80? O 0.5425(10) 0.8952(9) 0.2364(10)
O82? O 0.482(2) 1.0110(19) 0.946(2)
O84? O 0.4650(12) 0.7172(12) 0.0522(12)
O86? O 0.579(3) -0.084(3) 0.022(3)
O88? O 0.6281(14) 1.0518(16) 0.9074(19)
O98? O 0.345(2) 0.947(2) 0.979(2)
O101? O 0.4836(10) 0.2236(11) 0.9187(12)
O103? O 0.567(3) 0.730(3) 1.090(3)
O106? O 0.9700(19) 0.050(2) 0.483(2)
O108? O 0.866(2) 0.881(3) 0.206(3)
O110? O 0.888(3) 0.944(4) 0.212(4)
O111? O 0.016(8) 0.619(9) 0.807(10)
N3? N 0.9497(6) 0.5176(7) 0.6782(8)
C109? C 0.8983(7) 0.4529(8) 0.5781(7)
C110? C 0.9480(9) 0.4461(11) 0.5190(9)
O118? O 0.9633(11) 0.5083(14) 0.4830(11)
C111? C 0.8199(7) 0.4856(10) 0.5235(8)
C112? C 0.7588(7) 0.4919(10) 0.5701(9)
C113? C 0.7465(9) 0.5781(11) 0.6052(12)
C114? C 0.7182(6) 0.4136(11) 0.5818(11)
C115? C 0.6954(9) 0.5862(14) 0.6527(14)
C116? C 0.6665(6) 0.4215(14) 0.6288(13)
C117? C 0.6552(8) 0.5077(15) 0.6645(15)
C118? C 1.0217(7) 0.5611(10) 0.8584(8)
C119? C 0.9722(6) 0.4900(8) 0.7565(7)
O119? O 0.9529(7) 0.4062(8) 0.7461(9)
O120? O 0.9767(10) 0.3646(12) 0.5063(10)
C120? C 1.0284(12) 0.3716(17) 0.4565(13)
loop_
_geom_bond_atom_site_label_1
_geom_bond_atom_site_label_2
_geom_bond_site_symmetry_1
_geom_bond_site_symmetry_2
C1 H1 1_555 1_555
C2 C1 1_555 1_555
H2 C2 1_555 1_555
C3 C2 1_555 1_555
H3 C3 1_555 1_555
C4 C3 1_555 1_555
H4 C4 1_555 1_555
C5 C4 1_555 1_555
H5 C5 1_555 1_555
C6 C5 1_555 1_555
H6 C6 1_555 1_555
H7 C6 1_555 1_555
O1 C2 1_555 1_555
O2 C3 1_555 1_555
O3 C4 1_555 1_555
O4 C1 1_555 1_555
O5 C6 1_555 1_555
C7 O3 1_555 1_555
H8 C7 1_555 1_555
C8 C7 1_555 1_555
H9 C8 1_555 1_555
C9 C8 1_555 1_555
H10 C9 1_555 1_555
C10 C9 1_555 1_555
H11 C10 1_555 1_555
C11 C10 1_555 1_555
H12 C11 1_555 1_555
C12 C11 1_555 1_555
H13 C12 1_555 1_555
H14 C12 1_555 1_555
O7 C8 1_555 1_555
O8 C9 1_555 1_555
O9 C10 1_555 1_555
O10 C7 1_555 1_555
O11 C12 1_555 1_555
C13 O9 1_555 1_555
H15 C13 1_555 1_555
C14 C13 1_555 1_555
H16 C14 1_555 1_555
C15 C14 1_555 1_555
H17 C15 1_555 1_555
C16 C15 1_555 1_555
H18 C16 1_555 1_555
C17 C16 1_555 1_555
H19 C17 1_555 1_555
C18 C17 1_555 1_555
H20 C18 1_555 1_555
H21 C18 1_555 1_555
O12 C14 1_555 1_555
O13 C15 1_555 1_555
O14 C16 1_555 1_555
O15 C13 1_555 1_555
O16 C18 1_555 1_555
C19 O14 1_555 1_555
H22 C19 1_555 1_555
C20 C19 1_555 1_555
H23 C20 1_555 1_555
C21 C20 1_555 1_555
H24 C21 1_555 1_555
C22 C21 1_555 1_555
H25 C22 1_555 1_555
C23 C22 1_555 1_555
H26 C23 1_555 1_555
C24 C23 1_555 1_555
H27 C24 1_555 1_555
H28 C24 1_555 1_555
O17 C20 1_555 1_555
O18 C21 1_555 1_555
O19 C22 1_555 1_555
O20 C19 1_555 1_555
O21 C24 1_555 1_555
C25 O19 1_555 1_555
H29 C25 1_555 1_555
C26 C25 1_555 1_555
H30 C26 1_555 1_555
C27 C26 1_555 1_555
H31 C27 1_555 1_555
C28 C27 1_555 1_555
H32 C28 1_555 1_555
C29 C28 1_555 1_555
H33 C29 1_555 1_555
C30 C29 1_555 1_555
H34 C30 1_555 1_555
H35 C30 1_555 1_555
O22 C26 1_555 1_555
O23 C27 1_555 1_555
O24 C28 1_555 1_555
O25 C25 1_555 1_555
O26 C30 1_555 1_555
C31 O24 1_555 1_555
H36 C31 1_555 1_555
C32 C31 1_555 1_555
H37 C32 1_555 1_555
C33 C32 1_555 1_555
H38 C33 1_555 1_555
C34 C33 1_555 1_555
H39 C34 1_555 1_555
C35 C34 1_555 1_555
H40 C35 1_555 1_555
C36 C35 1_555 1_555
H41 C36 1_555 1_555
H42 C36 1_555 1_555
O28 C32 1_555 1_555
O29 C33 1_555 1_555
O30 C34 1_555 1_555
O31 C31 1_555 1_555
O32 C36 1_555 1_555
C37 O30 1_555 1_555
H43 C37 1_555 1_555
C38 C37 1_555 1_555
H44 C38 1_555 1_555
C39 C38 1_555 1_555
H45 C39 1_555 1_555
C40 C39 1_555 1_555
H46 C40 1_555 1_555
C41 C40 1_555 1_555
H47 C41 1_555 1_555
C42 C41 1_555 1_555
H48 C42 1_555 1_555
H49 C42 1_555 1_555
O33 C38 1_555 1_555
O34 C39 1_555 1_555
O35 C1 1_555 1_555
O36 C37 1_555 1_555
O37 C42 1_555 1_555
C43 H50 1_555 1_555
C44 C43 1_555 1_555
H51 C44 1_555 1_555
C45 C44 1_555 1_555
H52 C45 1_555 1_555
C46 C45 1_555 1_555
H53 C46 1_555 1_555
C47 C46 1_555 1_555
H54 C47 1_555 1_555
C48 C47 1_555 1_555
H55 C48 1_555 1_555
H56 C48 1_555 1_555
O38 C44 1_555 1_555
O39 C45 1_555 1_555
O40 C46 1_555 1_555
O41 C43 1_555 1_555
O42 C48 1_555 1_555
C49 O40 1_555 1_555
H57 C49 1_555 1_555
C50 C49 1_555 1_555
H58 C50 1_555 1_555
C51 C50 1_555 1_555
H59 C51 1_555 1_555
C52 C51 1_555 1_555
H60 C52 1_555 1_555
C53 C52 1_555 1_555
H61 C53 1_555 1_555
O43 C50 1_555 1_555
O44 C51 1_555 1_555
O45 C52 1_555 1_555
O46 C49 1_555 1_555
O47 C54 1_555 1_555
C54 C53 1_555 1_555
H62 C54 1_555 1_555
H63 C54 1_555 1_555
C55 O45 1_555 1_555
H64 C55 1_555 1_555
C56 C55 1_555 1_555
H65 C56 1_555 1_555
C57 C56 1_555 1_555
H66 C57 1_555 1_555
C58 C57 1_555 1_555
H67 C58 1_555 1_555
C59 C58 1_555 1_555
H68 C59 1_555 1_555
C60 C59 1_555 1_555
H69 C60 1_555 1_555
H70 C60 1_555 1_555
O48 C56 1_555 1_555
O49 C57 1_555 1_555
O50 C58 1_555 1_555
O51 C55 1_555 1_555
O52 C60 1_555 1_555
C61 O50 1_555 1_555
H71 C61 1_555 1_555
C62 C61 1_555 1_555
H72 C62 1_555 1_555
C63 C62 1_555 1_555
H73 C63 1_555 1_555
C64 C63 1_555 1_555
H74 C64 1_555 1_555
C65 C64 1_555 1_555
H75 C65 1_555 1_555
O53 C62 1_555 1_555
O54 C63 1_555 1_555
O55 C64 1_555 1_555
O56 C61 1_555 1_555
C66 C65 1_555 1_555
H76 C66 1_555 1_555
H77 C66 1_555 1_555
O57 C66 1_555 1_555
C67 O55 1_555 1_555
H78 C67 1_555 1_555
C68 C67 1_555 1_555
H79 C68 1_555 1_555
C69 C68 1_555 1_555
H80 C69 1_555 1_555
C70 C69 1_555 1_555
H81 C70 1_555 1_555
C71 C70 1_555 1_555
H82 C71 1_555 1_555
C72 C71 1_555 1_555
H83 C72 1_555 1_555
H84 C72 1_555 1_555
O58 C68 1_555 1_555
O59 C69 1_555 1_555
O60 C70 1_555 1_555
O61 C67 1_555 1_555
O62 C72 1_555 1_555
C73 O60 1_555 1_555
H85 C73 1_555 1_555
C74 C73 1_555 1_555
H86 C74 1_555 1_555
C75 C74 1_555 1_555
H87 C75 1_555 1_555
C76 C75 1_555 1_555
H88 C76 1_555 1_555
C77 C76 1_555 1_555
H89 C77 1_555 1_555
C78 C77 1_555 1_555
H90 C78 1_555 1_555
H91 C78 1_555 1_555
O63 C78 1_555 1_555
O64 C74 1_555 1_555
O65 C75 1_555 1_555
O66 C76 1_555 1_555
O67 C73 1_555 1_555
C79 O66 1_555 1_555
H92 C79 1_555 1_555
C80 C79 1_555 1_555
H93 C80 1_555 1_555
C81 C80 1_555 1_555
H94 C81 1_555 1_555
C82 C81 1_555 1_555
H95 C82 1_555 1_555
C83 C82 1_555 1_555
H96 C83 1_555 1_555
C84 C83 1_555 1_555
H97 C84 1_555 1_555
H98 C84 1_555 1_555
O68 C80 1_555 1_555
O69 C81 1_555 1_555
O70 C43 1_555 1_555
O71 C79 1_555 1_555
O72 C84 1_555 1_555
N1 C85 1_555 1_555
C85 C86 1_555 1_555
C86 O112 1_555 1_555
C87 C85 1_555 1_555
C88 C87 1_555 1_555
C89 C88 1_555 1_555
C90 C88 1_555 1_555
C91 C89 1_555 1_555
C92 C90 1_555 1_555
C93 C91 1_555 1_555
O113 C86 1_555 1_555
C94 O113 1_555 1_555
C95 N1 1_555 1_555
O114 C95 1_555 1_555
C96 C95 1_555 1_555
N2 C97 1_555 1_555
C97 C98 1_555 1_555
C98 O115 1_555 1_555
C99 C97 1_555 1_555
C100 C99 1_555 1_555
C101 C100 1_555 1_555
C102 C100 1_555 1_555
C103 C101 1_555 1_555
C104 C102 1_555 1_555
C105 C103 1_555 1_555
C106 C107 1_555 1_555
C107 N2 1_555 1_555
O116 C107 1_555 1_555
O117 C98 1_555 1_555
C108 O117 1_555 1_555
C5 O4 1_555 1_555
C11 O10 1_555 1_555
C17 O15 1_555 1_555
C23 O20 1_555 1_555
C29 O25 1_555 1_555
C35 O31 1_555 1_555
C40 O35 1_555 1_555
C41 O36 1_555 1_555
C47 O41 1_555 1_555
C53 O46 1_555 1_555
C59 O51 1_555 1_555
C65 O56 1_555 1_555
C71 O61 1_555 1_555
C77 O67 1_555 1_555
C82 O70 1_555 1_555
C83 O71 1_555 1_555
C92 C93 1_555 1_555
C104 C105 1_555 1_555

#END
