
#######################################################################
#
#                 Cambridge Crystallographic Data Centre
#                                CCDC 
#
#######################################################################
#
# If this CIF has been generated from an entry in the Cambridge 
# Structural Database, then it will include bibliographic, chemical, 
# crystal, experimental, refinement or atomic coordinate data resulting 
# from the CCDC's data processing and validation procedures.
#
#######################################################################

data_DOCXEA
_chemical_formula_moiety         'C26 H12 S4'
_chemical_name_systematic        
"[1]benzothieno[2''',3''':4'',5'']thieno[3'',2'':6',7']naphtho[2',3':4,5]thieno[3,2-b][1]benzothiophene"
_symmetry_cell_setting           monoclinic
_symmetry_space_group_name_H-M   'P 21/n'
_symmetry_Int_Tables_number      14
_space_group_name_Hall           '-P 2yn'
loop_
_symmetry_equiv_pos_site_id
_symmetry_equiv_pos_as_xyz
1 x,y,z
2 1/2-x,1/2+y,1/2-z
3 -x,-y,-z
4 1/2+x,1/2-y,1/2+z
_cell_length_a                   40.290(2)
_cell_length_b                   7.8081(4)
_cell_length_c                   5.9894(3)
_cell_angle_alpha                90
_cell_angle_beta                 93.483(7)
_cell_angle_gamma                90
_cell_volume                     1880.72
_exptl_crystal_colour            yellow
_exptl_crystal_description       platelet
_cell_formula_units_Z            4
loop_
_atom_site_label
_atom_site_type_symbol
_atom_site_fract_x
_atom_site_fract_y
_atom_site_fract_z
S1 S 0.16418(4) 0.8160(2) 0.5619(3)
S2 S 0.37658(4) 0.8193(2) 0.8772(3)
S3 S 0.33398(4) 1.0384(2) 1.4339(3)
S4 S 0.12192(4) 1.0408(2) 1.1166(3)
C1 C 0.13603(15) 0.8967(8) 0.7432(11)
C2 C 0.10002(16) 0.9040(8) 0.7296(12)
C3 C 0.07659(16) 0.8475(9) 0.5645(13)
C4 C 0.04312(16) 0.8712(9) 0.5975(13)
C5 C 0.03264(17) 0.9522(9) 0.7897(12)
C6 C 0.05543(16) 1.0103(9) 0.9537(12)
C7 C 0.08933(16) 0.9849(9) 0.9256(12)
C8 C 0.15027(15) 0.9619(9) 0.9362(12)
C9 C 0.18643(16) 0.9524(8) 0.9537(12)
C10 C 0.20943(15) 1.0002(8) 1.1203(12)
C11 C 0.24378(16) 0.9682(8) 1.0975(12)
C12 C 0.26771(15) 1.0173(9) 1.2663(13)
C13 C 0.30114(16) 0.9854(9) 1.2403(12)
C14 C 0.36217(15) 0.9603(8) 1.2521(11)
C15 C 0.39811(16) 0.9589(8) 1.2623(12)
C16 C 0.42136(16) 1.0216(9) 1.4240(13)
C17 C 0.45472(17) 1.0059(9) 1.3874(13)
C18 C 0.46555(17) 0.9260(9) 1.1941(12)
C19 C 0.44311(16) 0.8640(9) 1.0331(12)
C20 C 0.40903(15) 0.8818(8) 1.0651(11)
C21 C 0.34809(15) 0.8919(8) 1.0591(12)
C22 C 0.31173(16) 0.9036(8) 1.0432(11)
C23 C 0.28864(15) 0.8532(9) 0.8743(12)
C24 C 0.25429(16) 0.8858(9) 0.8971(12)
C25 C 0.23032(15) 0.8361(8) 0.7286(12)
C26 C 0.19712(15) 0.8687(9) 0.7560(11)
H1 H 0.08343 0.79406 0.43236
H2 H 0.02695 0.83167 0.48738
H3 H 0.00955 0.96728 0.80734
H4 H 0.04826 1.0663 1.08303
H5 H 0.20238 1.05471 1.2511
H6 H 0.261 1.07223 1.39769
H7 H 0.41439 1.07401 1.55639
H8 H 0.47075 1.05007 1.49519
H9 H 0.48869 0.91489 1.17519
H10 H 0.45043 0.81008 0.90258
H11 H 0.29574 0.79732 0.74456
H12 H 0.23694 0.78067 0.59731
loop_
_geom_bond_atom_site_label_1
_geom_bond_atom_site_label_2
_geom_bond_site_symmetry_1
_geom_bond_site_symmetry_2
S1 C1 1_555 1_555
S2 C20 1_555 1_555
S3 C13 1_555 1_555
S4 C7 1_555 1_555
C1 C2 1_555 1_555
C2 C3 1_555 1_555
C3 C4 1_555 1_555
C4 C5 1_555 1_555
C5 C6 1_555 1_555
C6 C7 1_555 1_555
C7 C2 1_555 1_555
C8 S4 1_555 1_555
C9 C8 1_555 1_555
C10 C9 1_555 1_555
C11 C10 1_555 1_555
C12 C11 1_555 1_555
C13 C12 1_555 1_555
C14 S3 1_555 1_555
C15 C14 1_555 1_555
C16 C15 1_555 1_555
C17 C16 1_555 1_555
C18 C17 1_555 1_555
C19 C18 1_555 1_555
C20 C15 1_555 1_555
C21 S2 1_555 1_555
C22 C13 1_555 1_555
C23 C22 1_555 1_555
C24 C11 1_555 1_555
C25 C24 1_555 1_555
C26 S1 1_555 1_555
H1 C3 1_555 1_555
H2 C4 1_555 1_555
H3 C5 1_555 1_555
H4 C6 1_555 1_555
H5 C10 1_555 1_555
H6 C12 1_555 1_555
H7 C16 1_555 1_555
H8 C17 1_555 1_555
H9 C18 1_555 1_555
H10 C19 1_555 1_555
H11 C23 1_555 1_555
H12 C25 1_555 1_555
C1 C8 1_555 1_555
C9 C26 1_555 1_555
C14 C21 1_555 1_555
C19 C20 1_555 1_555
C21 C22 1_555 1_555
C23 C24 1_555 1_555
C25 C26 1_555 1_555

#END
