
#######################################################################
#
#                 Cambridge Crystallographic Data Centre
#                                CCDC 
#
#######################################################################
#
# If this CIF has been generated from an entry in the Cambridge 
# Structural Database, then it will include bibliographic, chemical, 
# crystal, experimental, refinement or atomic coordinate data resulting 
# from the CCDC's data processing and validation procedures.
#
#######################################################################

data_DOCYPO04
_chemical_formula_moiety         'C9 H14 N3 O7 P1,H2 O1'
_chemical_name_systematic        "2'-Deoxycytidine-5'-monophosphate monohydrate"
_symmetry_cell_setting           orthorhombic
_symmetry_space_group_name_H-M   'P 21 21 21'
_symmetry_Int_Tables_number      19
_space_group_name_Hall           'P 2ac 2ab'
loop_
_symmetry_equiv_pos_site_id
_symmetry_equiv_pos_as_xyz
1 x,y,z
2 1/2+x,1/2-y,-z
3 -x,1/2+y,1/2-z
4 1/2-x,-y,1/2+z
_cell_length_a                   6.7482(7)
_cell_length_b                   11.3307(12)
_cell_length_c                   16.5692(18)
_cell_angle_alpha                90
_cell_angle_beta                 90
_cell_angle_gamma                90
_cell_volume                     1266.91
_cell_formula_units_Z            4
loop_
_atom_site_label
_atom_site_type_symbol
_atom_site_fract_x
_atom_site_fract_y
_atom_site_fract_z
N1 N 0.30181(8) -0.02102(5) -0.00737(4)
C1 C 0.43164(9) 0.05034(6) -0.04818(4)
N2 N 0.35471(9) 0.15427(6) -0.07924(4)
C2 C 0.15818(10) 0.18193(6) -0.07818(4)
C3 C 0.02904(10) 0.10452(7) -0.03678(4)
C4 C 0.10491(9) 0.00523(6) -0.00340(4)
O1 O 0.60656(8) 0.02434(6) -0.05673(4)
N3 N 0.09349(11) 0.27728(6) -0.11514(5)
C5 C 0.38198(9) -0.13620(6) 0.02327(4)
C6 C 0.54876(9) -0.12114(6) 0.08561(4)
C7 C 0.48824(10) -0.20357(6) 0.15427(4)
C8 C 0.26334(10) -0.20864(6) 0.14623(5)
O2 O 0.22725(9) -0.19818(5) 0.06078(4)
O3 O 0.57177(10) -0.31807(5) 0.13947(4)
C9 C 0.15129(13) -0.11632(7) 0.19393(6)
O4 O 0.21607(10) -0.00034(5) 0.17111(4)
O5 O -0.13228(9) 0.07998(6) 0.18054(4)
O6 O 0.10094(9) 0.12017(7) 0.29064(3)
O7 O 0.16489(9) 0.21406(6) 0.15217(5)
P1 P 0.08114(3) 0.10995(2) 0.19625(1)
H1 H 0.4551(70) 0.2120(46) -0.1211(30)
H2 H 0.1852 0.3240 -0.1409
H3 H -0.0412(83) 0.2881(50) -0.1135(2)
H4 H -0.0975(57) 0.1208(32) -0.0388(20)
H5 H 0.0142(79) -0.0528(45) 0.0316(32)
H6 H 0.4286(74) -0.1913(39) -0.0259(27)
H7 H 0.574(13) -0.0354(78) 0.1056(51)
H8 H 0.6714(93) -0.1414(57) 0.0644(37)
H9 H 0.526(10) -0.1741(60) 0.2166(41)
H10 H 0.2054(79) -0.2979(47) 0.1670(31)
H11 H 0.4920(62) -0.3703(37) 0.1574(26)
H12 H 0.193(13) -0.1362(72) 0.2531(55)
H13 H 0.0076(94) -0.1218(65) 0.1896(40)
H14 H 0.218(10) 0.1418(58) 0.2979(43)
O8 O 0.35976(10) -0.49895(6) 0.19580(5)
H15 H 0.2770(54) -0.4812(33) 0.2360(24)
H16 H 0.2681(76) -0.5181(43) 0.1641(31)
loop_
_geom_bond_atom_site_label_1
_geom_bond_atom_site_label_2
_geom_bond_site_symmetry_1
_geom_bond_site_symmetry_2
N1 C1 1_555 1_555
C1 N2 1_555 1_555
N2 C2 1_555 1_555
C2 C3 1_555 1_555
C3 C4 1_555 1_555
C4 N1 1_555 1_555
O1 C1 1_555 1_555
N3 C2 1_555 1_555
C5 N1 1_555 1_555
C6 C5 1_555 1_555
C7 C6 1_555 1_555
C8 C7 1_555 1_555
O2 C5 1_555 1_555
O3 C7 1_555 1_555
C9 C8 1_555 1_555
O4 C9 1_555 1_555
O5 P1 1_555 1_555
O6 P1 1_555 1_555
O7 P1 1_555 1_555
P1 O4 1_555 1_555
O8 H15 1_555 1_555
H1 N2 1_555 1_555
H2 N3 1_555 1_555
H3 N3 1_555 1_555
H4 C3 1_555 1_555
H5 C4 1_555 1_555
H6 C5 1_555 1_555
H7 C6 1_555 1_555
H8 C6 1_555 1_555
H9 C7 1_555 1_555
H10 C8 1_555 1_555
H11 O3 1_555 1_555
H12 C9 1_555 1_555
H13 C9 1_555 1_555
H14 O6 1_555 1_555
H16 O8 1_555 1_555
C8 O2 1_555 1_555

#END
