
#######################################################################
#
#                 Cambridge Crystallographic Data Centre
#                                CCDC 
#
#######################################################################
#
# If this CIF has been generated from an entry in the Cambridge 
# Structural Database, then it will include bibliographic, chemical, 
# crystal, experimental, refinement or atomic coordinate data resulting 
# from the CCDC's data processing and validation procedures.
#
#######################################################################

data_DODCIK
_chemical_formula_moiety         'C24 H31 Br2 N1 O5'
_chemical_name_systematic        
'methyl 4-bromo-6-(4-bromo-8-methoxy-2-methylenebicyclo[3.2.1]oct-6-yl)-2-ethyl-1,7-dioxo-1,2,5,5a,6,7,8,9-octahydro-9aH-2-benzazepine-9a-carboxylate'
_symmetry_cell_setting           monoclinic
_symmetry_space_group_name_H-M   'P 21/c'
_symmetry_Int_Tables_number      14
_space_group_name_Hall           '-P 2ybc'
loop_
_symmetry_equiv_pos_site_id
_symmetry_equiv_pos_as_xyz
1 x,y,z
2 -x,1/2+y,1/2-z
3 -x,-y,-z
4 x,1/2-y,1/2+z
_cell_length_a                   12.855(3)
_cell_length_b                   11.319(2)
_cell_length_c                   17.342(4)
_cell_angle_alpha                90
_cell_angle_beta                 108.73(3)
_cell_angle_gamma                90
_cell_volume                     2389.73
_cell_formula_units_Z            4
loop_
_atom_site_label
_atom_site_type_symbol
_atom_site_fract_x
_atom_site_fract_y
_atom_site_fract_z
Br1 Br 0.83064(3) 0.21255(3) 0.08711(2)
Br2 Br 0.29730(3) 0.31586(3) 0.23192(2)
O1 O 0.49063(19) 0.0628(2) 0.27453(15)
O2 O 0.19869(18) 0.1597(2) -0.02239(14)
O3 O 0.7975(2) 0.4546(2) 0.24237(16)
O4 O 0.8553(2) 0.4440(2) 0.37798(15)
O5 O 0.81936(19) 0.1699(2) 0.42728(14)
N1 N 0.9109(2) 0.1759(2) 0.33640(17)
C1 C 0.5310(3) 0.1607(3) 0.2811(2)
C2 C 0.5816(3) 0.2205(3) 0.3625(2)
H1 H 0.6250 0.1618 0.4022
H2 H 0.5222 0.2495 0.3824
C3 C 0.6560(3) 0.3241(3) 0.3584(2)
H3 H 0.7003 0.3473 0.4144
H4 H 0.6100 0.3926 0.3326
C4 C 0.7343(3) 0.2925(3) 0.3091(2)
C5 C 0.6652(3) 0.2487(3) 0.2213(2)
H5 H 0.6700 0.3124 0.1826
C6 C 0.7174(3) 0.1383(3) 0.1979(2)
H6 H 0.7261 0.0761 0.2397
H7 H 0.6699 0.1072 0.1450
C7 C 0.8270(3) 0.1723(3) 0.1922(2)
C8 C 0.2883(3) 0.2891(3) 0.1168(2)
H8 H 0.2088 0.2769 0.0857
C9 C 0.3477(3) 0.1764(3) 0.1066(2)
H9 H 0.3248 0.1081 0.1340
C10 C 0.4745(3) 0.1802(3) 0.1277(2)
H10 H 0.4993 0.0964 0.1278
C11 C 0.5407(3) 0.2325(3) 0.2103(2)
H11 H 0.5098 0.3126 0.2139
C12 C 0.4940(3) 0.2415(3) 0.0528(2)
H12 H 0.5291 0.3196 0.0683
H13 H 0.5419 0.1923 0.0311
C13 C 0.3787(3) 0.2556(3) -0.0116(2)
H14 H 0.3811 0.2436 -0.0681
C14 C 0.3145(3) 0.1561(3) 0.0139(2)
H15 H 0.3427 0.0776 0.0029
C15 C 0.3240(3) 0.3992(3) 0.0815(2)
H16 H 0.2710 0.4639 0.0786
H17 H 0.3970 0.4250 0.1175
C16 C 0.3294(3) 0.3737(3) -0.0025(2)
C17 C 0.9145(3) 0.1915(3) 0.2571(2)
H18 H 0.9812 0.2164 0.2495
C18 C 0.7979(3) 0.4055(3) 0.3033(2)
C19 C 0.8229(3) 0.2049(3) 0.3618(2)
C20 C 1.0026(3) 0.1091(3) 0.3935(2)
H19 H 1.0132 0.1361 0.4498
H20 H 1.0711 0.1258 0.3809
C21 C 0.9814(3) -0.0227(3) 0.3881(2)
H21 H 0.9149 -0.0398 0.4021
H22 H 1.0441 -0.0637 0.4262
H23 H 0.9716 -0.0498 0.3325
C22 C 0.1648(3) 0.1396(3) -0.1078(2)
H24 H 0.1911 0.2041 -0.1343
H25 H 0.0844 0.1362 -0.1292
H26 H 0.1954 0.0646 -0.1188
C23 C 0.2960(3) 0.4501(3) -0.0632(2)
H27 H 0.3027 0.4316 -0.1148
H28 H 0.2654 0.5236 -0.0551
C24 C 0.9176(3) 0.5513(3) 0.3809(2)
H29 H 0.9784 0.5356 0.3599
H30 H 0.9468 0.5789 0.4374
H31 H 0.8696 0.6121 0.3475
loop_
_geom_bond_atom_site_label_1
_geom_bond_atom_site_label_2
_geom_bond_site_symmetry_1
_geom_bond_site_symmetry_2
Br1 C7 1_555 1_555
Br2 C8 1_555 1_555
O1 C1 1_555 1_555
O2 C14 1_555 1_555
O3 C18 1_555 1_555
O4 C18 1_555 1_555
O5 C19 1_555 1_555
N1 C17 1_555 1_555
C1 C2 1_555 1_555
C2 H1 1_555 1_555
H2 C2 1_555 1_555
C3 C2 1_555 1_555
H3 C3 1_555 1_555
H4 C3 1_555 1_555
C4 C3 1_555 1_555
C5 C4 1_555 1_555
H5 C5 1_555 1_555
C6 C5 1_555 1_555
H6 C6 1_555 1_555
H7 C6 1_555 1_555
C7 C6 1_555 1_555
C8 H8 1_555 1_555
C9 C8 1_555 1_555
H9 C9 1_555 1_555
C10 C9 1_555 1_555
H10 C10 1_555 1_555
C11 C1 1_555 1_555
H11 C11 1_555 1_555
C12 C10 1_555 1_555
H12 C12 1_555 1_555
H13 C12 1_555 1_555
C13 C12 1_555 1_555
H14 C13 1_555 1_555
C14 C9 1_555 1_555
H15 C14 1_555 1_555
C15 C8 1_555 1_555
H16 C15 1_555 1_555
H17 C15 1_555 1_555
C16 C13 1_555 1_555
C17 C7 1_555 1_555
H18 C17 1_555 1_555
C18 C4 1_555 1_555
C19 N1 1_555 1_555
C20 N1 1_555 1_555
H19 C20 1_555 1_555
H20 C20 1_555 1_555
C21 C20 1_555 1_555
H21 C21 1_555 1_555
H22 C21 1_555 1_555
H23 C21 1_555 1_555
C22 O2 1_555 1_555
H24 C22 1_555 1_555
H25 C22 1_555 1_555
H26 C22 1_555 1_555
C23 C16 1_555 1_555
H27 C23 1_555 1_555
H28 C23 1_555 1_555
C24 O4 1_555 1_555
H29 C24 1_555 1_555
H30 C24 1_555 1_555
H31 C24 1_555 1_555
C4 C19 1_555 1_555
C5 C11 1_555 1_555
C10 C11 1_555 1_555
C13 C14 1_555 1_555
C15 C16 1_555 1_555

#END
