
#######################################################################
#
#                 Cambridge Crystallographic Data Centre
#                                CCDC 
#
#######################################################################
#
# If this CIF has been generated from an entry in the Cambridge 
# Structural Database, then it will include bibliographic, chemical, 
# crystal, experimental, refinement or atomic coordinate data resulting 
# from the CCDC's data processing and validation procedures.
#
#######################################################################

data_DODDEF01
_chemical_formula_moiety         'C19 H18 N2'
_chemical_name_systematic        
1,3-dimethyl-2-phenyl-2,3-dihydro-1H-perimidine
_symmetry_cell_setting           monoclinic
_symmetry_space_group_name_H-M   'P 21/n'
_symmetry_Int_Tables_number      14
_space_group_name_Hall           '-P 2yn'
loop_
_symmetry_equiv_pos_site_id
_symmetry_equiv_pos_as_xyz
1 x,y,z
2 1/2-x,1/2+y,1/2-z
3 -x,-y,-z
4 1/2+x,1/2-y,1/2+z
_cell_length_a                   7.3106(18)
_cell_length_b                   11.224(3)
_cell_length_c                   18.317(5)
_cell_angle_alpha                90
_cell_angle_beta                 97.366(3)
_cell_angle_gamma                90
_cell_volume                     1490.58
_exptl_crystal_description       block
_cell_formula_units_Z            4
loop_
_atom_site_label
_atom_site_type_symbol
_atom_site_fract_x
_atom_site_fract_y
_atom_site_fract_z
N1 N 0.08218(19) 0.93827(13) 0.15917(8)
C1 C 0.2626(2) 0.77365(14) 0.12440(9)
C2 C 0.0995(2) 0.84273(15) 0.11334(9)
C3 C 0.3428(2) 1.08405(14) 0.16192(9)
C4 C 0.4052(2) 0.80368(16) 0.18155(10)
N2 N 0.3682(2) 0.89313(14) 0.22948(8)
C5 C 0.2799(3) 0.67250(16) 0.07926(11)
C6 C 0.3941(3) 1.18891(16) 0.19800(10)
H1 H 0.3649 1.2008 0.2454
C7 C 0.5340(3) 1.25995(17) 0.09681(11)
H2 H 0.5987 1.3186 0.0750
C8 C 0.3889(3) 1.06907(16) 0.09180(10)
H3 H 0.3550 0.9996 0.0658
C9 C 0.2449(2) 0.98869(16) 0.20166(9)
H4 H 0.2034 1.0272 0.2446
C10 C 0.1283(4) 0.6437(2) 0.02467(12)
H5 H 0.1353 0.5770 -0.0050
C11 C -0.0398(3) 0.8104(2) 0.05887(11)
H6 H -0.1467 0.8560 0.0512
C12 C 0.4848(3) 1.15649(17) 0.06005(11)
H7 H 0.5164 1.1450 0.0130
C13 C 0.4874(3) 1.27617(17) 0.16549(12)
H8 H 0.5189 1.3467 0.1906
C14 C 0.4419(4) 0.6069(2) 0.09017(16)
H9 H 0.4550 0.5401 0.0612
C15 C 0.5655(3) 0.7372(2) 0.18907(14)
H10 H 0.6630 0.7570 0.2247
C16 C -0.0228(4) 0.7116(2) 0.01578(13)
H11 H -0.1190 0.6916 -0.0204
C17 C -0.0699(3) 1.0214(2) 0.14245(13)
H12 H -0.0630 1.0576 0.0954
H13 H -0.0625 1.0820 0.1797
H14 H -0.1848 0.9795 0.1413
C18 C 0.5799(4) 0.6385(2) 0.14188(18)
H15 H 0.6884 0.5943 0.1470
C19 C 0.5063(4) 0.9248(2) 0.29063(13)
H16 H 0.5426 0.8549 0.3190
H17 H 0.4556 0.9822 0.3213
H18 H 0.6119 0.9584 0.2720
loop_
_geom_bond_atom_site_label_1
_geom_bond_atom_site_label_2
_geom_bond_site_symmetry_1
_geom_bond_site_symmetry_2
N1 C2 1_555 1_555
C1 C2 1_555 1_555
C2 C11 1_555 1_555
C3 C6 1_555 1_555
C4 C1 1_555 1_555
N2 C4 1_555 1_555
C5 C1 1_555 1_555
C6 H1 1_555 1_555
C7 H2 1_555 1_555
C8 C3 1_555 1_555
H3 C8 1_555 1_555
C9 N1 1_555 1_555
H4 C9 1_555 1_555
C10 C5 1_555 1_555
H5 C10 1_555 1_555
C11 H6 1_555 1_555
C12 C7 1_555 1_555
H7 C12 1_555 1_555
C13 C6 1_555 1_555
H8 C13 1_555 1_555
C14 C5 1_555 1_555
H9 C14 1_555 1_555
C15 C4 1_555 1_555
H10 C15 1_555 1_555
C16 C10 1_555 1_555
H11 C16 1_555 1_555
C17 N1 1_555 1_555
H12 C17 1_555 1_555
H13 C17 1_555 1_555
H14 C17 1_555 1_555
C18 C14 1_555 1_555
H15 C18 1_555 1_555
C19 N2 1_555 1_555
H16 C19 1_555 1_555
H17 C19 1_555 1_555
H18 C19 1_555 1_555
C3 C9 1_555 1_555
N2 C9 1_555 1_555
C7 C13 1_555 1_555
C8 C12 1_555 1_555
C11 C16 1_555 1_555
C15 C18 1_555 1_555

#END
