
#######################################################################
#
#                 Cambridge Crystallographic Data Centre
#                                CCDC 
#
#######################################################################
#
# If this CIF has been generated from an entry in the Cambridge 
# Structural Database, then it will include bibliographic, chemical, 
# crystal, experimental, refinement or atomic coordinate data resulting 
# from the CCDC's data processing and validation procedures.
#
#######################################################################

data_DODREV
_chemical_formula_moiety         'C16 H18 B1 Cl2 O2 P1'
_chemical_name_systematic        
'2,6-dichlorophenyl ((dimethylphosphorane)boranyl)(phenyl)acetate'
_symmetry_cell_setting           orthorhombic
_symmetry_space_group_name_H-M   'P 21 21 21'
_symmetry_Int_Tables_number      19
_space_group_name_Hall           'P 2ac 2ab'
loop_
_symmetry_equiv_pos_site_id
_symmetry_equiv_pos_as_xyz
1 x,y,z
2 1/2-x,-y,1/2+z
3 -x,1/2+y,1/2-z
4 1/2+x,1/2-y,-z
_cell_length_a                   10.142(2)
_cell_length_b                   11.748(2)
_cell_length_c                   15.056(3)
_cell_angle_alpha                90
_cell_angle_beta                 90
_cell_angle_gamma                90
_cell_volume                     1793.9
_cell_formula_units_Z            4
loop_
_atom_site_label
_atom_site_type_symbol
_atom_site_fract_x
_atom_site_fract_y
_atom_site_fract_z
P1 P 0.60263(8) -0.27994(6) 0.11588(4)
Cl1 Cl 0.92808(7) 0.16492(7) 0.34500(4)
Cl2 Cl 0.89081(8) 0.10678(7) -0.00709(5)
O1 O 0.66007(16) 0.15570(15) 0.14167(12)
O2 O 0.83791(16) 0.05442(14) 0.18225(10)
B1 B 0.6673(4) -0.1263(3) 0.0967(2)
C1 C 0.6347(2) -0.04298(19) 0.18149(14)
H1 H 0.6736 -0.0777 0.2345
C2 C 0.4898(2) -0.0295(2) 0.19797(15)
C3 C 0.4076(3) 0.0297(2) 0.14042(17)
H2 H 0.4435 0.0659 0.0911
C4 C 0.2738(3) 0.0357(2) 0.1555(2)
H3 H 0.2207 0.0775 0.1170
C5 C 0.2182(3) -0.0192(3) 0.2262(2)
H4 H 0.1277 -0.0150 0.2356
C6 C 0.2960(3) -0.0802(2) 0.2833(2)
H5 H 0.2586 -0.1185 0.3311
C7 C 0.4306(3) -0.0846(2) 0.26920(16)
H6 H 0.4830 -0.1256 0.3085
C8 C 0.4289(3) -0.3042(3) 0.1082(2)
H7 H 0.3996 -0.2881 0.0489
H8 H 0.3838 -0.2553 0.1493
H9 H 0.4101 -0.3822 0.1224
C9 C 0.6777(4) -0.3770(2) 0.0397(2)
H10 H 0.6425 -0.4519 0.0489
H11 H 0.7713 -0.3781 0.0493
H12 H 0.6598 -0.3530 -0.0200
C10 C 0.7035(2) 0.0667(2) 0.16556(14)
C11 C 0.9163(2) 0.1491(2) 0.16710(15)
C12 C 0.9686(2) 0.2064(2) 0.23824(16)
C13 C 1.0515(3) 0.2985(2) 0.2260(2)
H13 H 1.0845 0.3382 0.2746
C14 C 1.0843(3) 0.3303(3) 0.1419(2)
H14 H 1.1407 0.3917 0.1334
C15 C 1.0356(3) 0.2734(3) 0.0695(2)
H15 H 1.0589 0.2956 0.0123
C16 C 0.9514(3) 0.1822(2) 0.08272(16)
H16 H 0.773(3) -0.145(2) 0.0885(16)
H17 H 0.619(3) -0.103(2) 0.036(2)
H18 H 0.635(2) -0.318(2) 0.1939(16)
loop_
_geom_bond_atom_site_label_1
_geom_bond_atom_site_label_2
_geom_bond_site_symmetry_1
_geom_bond_site_symmetry_2
P1 B1 1_555 1_555
Cl1 C12 1_555 1_555
Cl2 C16 1_555 1_555
O1 C10 1_555 1_555
O2 C10 1_555 1_555
B1 C1 1_555 1_555
C1 H1 1_555 1_555
C2 C1 1_555 1_555
C3 C2 1_555 1_555
H2 C3 1_555 1_555
C4 C3 1_555 1_555
H3 C4 1_555 1_555
C5 C4 1_555 1_555
H4 C5 1_555 1_555
C6 C5 1_555 1_555
H5 C6 1_555 1_555
C7 C2 1_555 1_555
H6 C7 1_555 1_555
C8 P1 1_555 1_555
H7 C8 1_555 1_555
H8 C8 1_555 1_555
H9 C8 1_555 1_555
C9 P1 1_555 1_555
H10 C9 1_555 1_555
H11 C9 1_555 1_555
H12 C9 1_555 1_555
C10 C1 1_555 1_555
C11 O2 1_555 1_555
C12 C11 1_555 1_555
C13 C12 1_555 1_555
H13 C13 1_555 1_555
C14 C13 1_555 1_555
H14 C14 1_555 1_555
C15 C14 1_555 1_555
H15 C15 1_555 1_555
C16 C11 1_555 1_555
H16 B1 1_555 1_555
H17 B1 1_555 1_555
H18 P1 1_555 1_555
C6 C7 1_555 1_555
C15 C16 1_555 1_555

#END
