
#######################################################################
#
#                 Cambridge Crystallographic Data Centre
#                                CCDC 
#
#######################################################################
#
# If this CIF has been generated from an entry in the Cambridge 
# Structural Database, then it will include bibliographic, chemical, 
# crystal, experimental, refinement or atomic coordinate data resulting 
# from the CCDC's data processing and validation procedures.
#
#######################################################################

data_DODZOL
_chemical_compound_source        
'dried bulb of Fritillaria delavayi Franch (Liliaceae)'
_chemical_name_common            'Chuanbeinone hydroiodide'
_chemical_formula_moiety         'C27 H44 N1 O2 1+,I1 1-'
_chemical_name_systematic        
'cis(22R,25S)-20-Deoxy-5\a-cevanin-3\b-ol-6-one hydroiodide'
_chemical_properties_biological  
'coronary dilator and cardiotropic and antiserotonin activity'
_symmetry_cell_setting           orthorhombic
_symmetry_space_group_name_H-M   'P 21 21 21'
_symmetry_Int_Tables_number      19
_space_group_name_Hall           'P 2ac 2ab'
loop_
_symmetry_equiv_pos_site_id
_symmetry_equiv_pos_as_xyz
1 x,y,z
2 1/2+x,1/2-y,-z
3 -x,1/2+y,1/2-z
4 1/2-x,-y,1/2+z
_cell_length_a                   14.977(6)
_cell_length_b                   22.199(7)
_cell_length_c                   7.852(3)
_cell_angle_alpha                90
_cell_angle_beta                 90
_cell_angle_gamma                90
_cell_volume                     2610.59
_exptl_crystal_colour            colorless
_chemical_melting_point          303-306deg.C
_cell_formula_units_Z            4
loop_
_atom_site_label
_atom_site_type_symbol
_atom_site_fract_x
_atom_site_fract_y
_atom_site_fract_z
C1 C 0.6413(3) 0.4878(2) -0.1961(6)
C2 C 0.6070(3) 0.4338(2) -0.2977(6)
C3 C 0.5828(3) 0.3808(2) -0.1816(6)
C4 C 0.5196(3) 0.3984(2) -0.0408(6)
C5 C 0.5564(3) 0.4518(2) 0.0599(6)
C6 C 0.5004(3) 0.4703(2) 0.2083(6)
C7 C 0.5397(4) 0.5175(2) 0.3246(7)
C8 C 0.5623(3) 0.5726(2) 0.2129(6)
C9 C 0.6192(3) 0.5561(2) 0.0603(6)
C10 C 0.5759(3) 0.5080(2) -0.0562(5)
C11 C 0.6407(3) 0.6187(2) -0.0152(5)
C12 C 0.6539(3) 0.6595(2) 0.1446(5)
C13 C 0.6056(3) 0.7203(2) 0.1287(5)
C14 C 0.6145(3) 0.6237(2) 0.2995(6)
C15 C 0.5575(4) 0.6616(2) 0.4227(7)
C16 C 0.6033(4) 0.7226(2) 0.4541(6)
C17 C 0.6119(3) 0.7599(2) 0.2912(6)
C18 C 0.6222(3) 0.7558(2) -0.0345(5)
C19 C 0.4895(3) 0.5322(2) -0.1394(6)
C20 C 0.6927(3) 0.8025(2) 0.2912(5)
C21 C 0.7846(3) 0.7736(2) 0.3214(7)
C22 C 0.6909(3) 0.8411(2) 0.1285(5)
C23 C 0.7618(3) 0.8913(2) 0.1225(6)
C24 C 0.7565(3) 0.9262(2) -0.0428(7)
C25 C 0.7727(3) 0.8836(2) -0.1906(6)
C26 C 0.7010(3) 0.8346(2) -0.1883(6)
C27 C 0.7729(4) 0.9161(2) -0.3626(7)
O1 O 0.5410(2) 0.3335(1) -0.2773(5)
O2 O 0.4257(3) 0.4501(2) 0.2329(6)
N1 N 0.6996(2) 0.8002(1) -0.0259(4)
H1 H 0.659(4) 0.527(3) -0.272(8)
H2 H 0.694(4) 0.475(3) -0.135(8)
H3 H 0.547(4) 0.443(3) -0.367(8)
H4 H 0.646(4) 0.424(3) -0.393(8)
H5 H 0.648(4) 0.369(3) -0.119(8)
H6 H 0.460(4) 0.418(3) -0.076(8)
H7 H 0.506(4) 0.358(3) 0.072(8)
H8 H 0.620(4) 0.444(3) 0.125(8)
H9 H 0.496(4) 0.527(3) 0.406(8)
H10 H 0.579(4) 0.506(3) 0.356(8)
H11 H 0.505(4) 0.590(3) 0.167(8)
H12 H 0.673(4) 0.540(3) 0.084(8)
H13 H 0.589(4) 0.634(3) -0.101(8)
H14 H 0.694(4) 0.622(3) -0.091(8)
H15 H 0.719(4) 0.668(2) 0.170(8)
H16 H 0.545(4) 0.714(2) 0.141(7)
H17 H 0.669(4) 0.603(3) 0.364(8)
H18 H 0.545(4) 0.635(3) 0.543(9)
H19 H 0.496(4) 0.672(3) 0.358(9)
H20 H 0.575(5) 0.742(3) 0.553(9)
H21 H 0.653(4) 0.714(3) 0.481(9)
H22 H 0.555(4) 0.783(3) 0.280(8)
H23 H 0.636(4) 0.730(3) -0.128(8)
H24 H 0.574(4) 0.781(2) -0.045(8)
H25 H 0.450(4) 0.508(3) -0.207(8)
H26 H 0.496(4) 0.569(3) -0.213(8)
H27 H 0.453(4) 0.546(3) -0.048(8)
H28 H 0.683(4) 0.831(3) 0.385(8)
H29 H 0.807(4) 0.751(3) 0.227(9)
H30 H 0.841(4) 0.802(3) 0.338(8)
H31 H 0.787(4) 0.749(3) 0.416(9)
H32 H 0.631(4) 0.858(2) 0.108(7)
H33 H 0.746(4) 0.921(3) 0.232(9)
H34 H 0.828(4) 0.879(3) 0.131(8)
H35 H 0.801(4) 0.955(3) -0.032(9)
H36 H 0.704(4) 0.947(3) -0.070(9)
H37 H 0.833(4) 0.866(3) -0.164(8)
H38 H 0.637(4) 0.854(3) -0.205(8)
H39 H 0.713(4) 0.807(3) -0.275(8)
H40 H 0.814(5) 0.948(3) -0.356(9)
H41 H 0.797(5) 0.887(3) -0.454(10)
H42 H 0.730(5) 0.928(3) -0.388(10)
H43 H 0.759(4) 0.776(2) -0.007(8)
I1 I 0.8609(1) 0.7030(1) -0.1761(1)
loop_
_geom_bond_atom_site_label_1
_geom_bond_atom_site_label_2
_geom_bond_site_symmetry_1
_geom_bond_site_symmetry_2
C1 C2 1_555 1_555
C2 C3 1_555 1_555
C3 C4 1_555 1_555
C4 C5 1_555 1_555
C5 C6 1_555 1_555
C6 C7 1_555 1_555
C7 C8 1_555 1_555
C8 C9 1_555 1_555
C9 C10 1_555 1_555
C10 C1 1_555 1_555
C11 C9 1_555 1_555
C12 C11 1_555 1_555
C13 C12 1_555 1_555
C14 C8 1_555 1_555
C15 C14 1_555 1_555
C16 C15 1_555 1_555
C17 C13 1_555 1_555
C18 C13 1_555 1_555
C19 C10 1_555 1_555
C20 C17 1_555 1_555
C21 C20 1_555 1_555
C22 C20 1_555 1_555
C23 C22 1_555 1_555
C24 C23 1_555 1_555
C25 C24 1_555 1_555
C26 C25 1_555 1_555
C27 C25 1_555 1_555
O1 C3 1_555 1_555
O2 C6 1_555 1_555
N1 C18 1_555 1_555
H1 C1 1_555 1_555
H2 C1 1_555 1_555
H3 C2 1_555 1_555
H4 C2 1_555 1_555
H5 C3 1_555 1_555
H6 C4 1_555 1_555
H7 C4 1_555 1_555
H8 C5 1_555 1_555
H9 C7 1_555 1_555
H10 C7 1_555 1_555
H11 C8 1_555 1_555
H12 C9 1_555 1_555
H13 C11 1_555 1_555
H14 C11 1_555 1_555
H15 C12 1_555 1_555
H16 C13 1_555 1_555
H17 C14 1_555 1_555
H18 C15 1_555 1_555
H19 C15 1_555 1_555
H20 C16 1_555 1_555
H21 C16 1_555 1_555
H22 C17 1_555 1_555
H23 C18 1_555 1_555
H24 C18 1_555 1_555
H25 C19 1_555 1_555
H26 C19 1_555 1_555
H27 C19 1_555 1_555
H28 C20 1_555 1_555
H29 C21 1_555 1_555
H30 C21 1_555 1_555
H31 C21 1_555 1_555
H32 C22 1_555 1_555
H33 C23 1_555 1_555
H34 C23 1_555 1_555
H35 C24 1_555 1_555
H36 C24 1_555 1_555
H37 C25 1_555 1_555
H38 C26 1_555 1_555
H39 C26 1_555 1_555
H40 C27 1_555 1_555
H41 C27 1_555 1_555
H42 C27 1_555 1_555
H43 N1 1_555 1_555
C5 C10 1_555 1_555
C12 C14 1_555 1_555
C16 C17 1_555 1_555
C22 N1 1_555 1_555
C26 N1 1_555 1_555

#END
