
#######################################################################
#
#                 Cambridge Crystallographic Data Centre
#                                CCDC 
#
#######################################################################
#
# If this CIF has been generated from an entry in the Cambridge 
# Structural Database, then it will include bibliographic, chemical, 
# crystal, experimental, refinement or atomic coordinate data resulting 
# from the CCDC's data processing and validation procedures.
#
#######################################################################

data_DOFFAG
_chemical_compound_source        'fungus Stereum sp. CCTCC AF 207024'
_chemical_name_common            
(3aR*,5S*,5aR*,9S*,9aR*,9bS*)-5,8-dimethyl-1-methylene-1,2,3a,4,5,5a,6,9,9a,9b-decahydronaphtho(2,1-b)furan-3a,9,9b-triol
_chemical_formula_moiety         'C15 H22 O4'
_chemical_name_systematic        'Stereumin B'
_chemical_properties_biological  
'nematicidal activity against the nematode Panagrellus redivivus'
_symmetry_cell_setting           orthorhombic
_symmetry_space_group_name_H-M   'P 21 21 21'
_symmetry_Int_Tables_number      19
_space_group_name_Hall           'P 2ac 2ab'
loop_
_symmetry_equiv_pos_site_id
_symmetry_equiv_pos_as_xyz
1 x,y,z
2 1/2-x,-y,1/2+z
3 -x,1/2+y,1/2-z
4 1/2+x,1/2-y,-z
_cell_length_a                   9.4412(10)
_cell_length_b                   11.1335(12)
_cell_length_c                   13.4732(14)
_cell_angle_alpha                90
_cell_angle_beta                 90
_cell_angle_gamma                90
_cell_volume                     1416.22
_exptl_crystal_colour            colorless
_exptl_crystal_description       block
_cell_formula_units_Z            4
loop_
_atom_site_label
_atom_site_type_symbol
_atom_site_fract_x
_atom_site_fract_y
_atom_site_fract_z
O1 O 0.54689(18) 0.25015(18) 0.16690(13)
O2 O 0.7499(2) 0.35522(16) 0.13343(14)
O3 O 0.8811(2) 0.05737(18) -0.09682(11)
O4 O 0.68387(18) 0.19844(16) -0.00912(12)
C1 C 0.6142(2) 0.0576(2) 0.11526(16)
C2 C 0.4895(3) 0.1358(3) 0.1393(2)
H1 H 0.4281 0.1438 0.0819
H2 H 0.4352 0.1018 0.1935
C3 C 0.6999(2) 0.2435(2) 0.16122(17)
C4 C 0.7605(2) 0.2099(2) 0.26061(16)
H3 H 0.7083 0.1418 0.2867
H4 H 0.7474 0.2765 0.3061
C5 C 0.9167(2) 0.1781(2) 0.25688(16)
H5 H 0.9690 0.2500 0.2364
C6 C 1.1063(3) 0.0587(2) 0.17029(17)
H6 H 1.1530 0.1361 0.1654
H7 H 1.1415 0.0191 0.2295
C7 C 1.1450(3) -0.0152(2) 0.08146(19)
H8 H 1.2356 -0.0478 0.0794
C8 C 1.0598(3) -0.0376(2) 0.00570(18)
C9 C 0.9129(2) 0.01269(19) 0.00086(15)
H9 H 0.8475 -0.0537 0.0140
C10 C 0.6190(3) -0.0591(3) 0.13323(19)
H10 H 0.5419 -0.0973 0.1625
H11 H 0.6994 -0.1030 0.1167
C11 C 0.9675(3) 0.1432(3) 0.36129(19)
H12 H 0.9398 0.2043 0.4078
H13 H 1.0688 0.1356 0.3613
H14 H 0.9256 0.0680 0.3801
C12 C 1.1018(3) -0.1181(3) -0.0785(2)
H15 H 1.1916 -0.1545 -0.0641
H16 H 1.1090 -0.0717 -0.1384
H17 H 1.0315 -0.1796 -0.0870
C13 C 0.9472(2) 0.0790(2) 0.18152(15)
H18 H 0.9038 0.0044 0.2052
C14 C 0.8836(2) 0.11007(19) 0.07945(15)
H19 H 0.9342 0.1819 0.0567
C15 C 0.7271(2) 0.1454(2) 0.08353(15)
H20 H 0.738(3) 0.363(3) 0.0737(14)
H21 H 0.948(3) 0.102(3) -0.110(3)
H22 H 0.730(3) 0.163(2) -0.0517(17)
loop_
_geom_bond_atom_site_label_1
_geom_bond_atom_site_label_2
_geom_bond_site_symmetry_1
_geom_bond_site_symmetry_2
O1 C2 1_555 1_555
O2 C3 1_555 1_555
O3 C9 1_555 1_555
O4 C15 1_555 1_555
C1 C2 1_555 1_555
C2 H1 1_555 1_555
H2 C2 1_555 1_555
C3 O1 1_555 1_555
C4 C3 1_555 1_555
H3 C4 1_555 1_555
H4 C4 1_555 1_555
C5 C4 1_555 1_555
H5 C5 1_555 1_555
C6 H6 1_555 1_555
H7 C6 1_555 1_555
C7 C6 1_555 1_555
H8 C7 1_555 1_555
C8 C7 1_555 1_555
C9 C8 1_555 1_555
H9 C9 1_555 1_555
C10 C1 1_555 1_555
H10 C10 1_555 1_555
H11 C10 1_555 1_555
C11 C5 1_555 1_555
H12 C11 1_555 1_555
H13 C11 1_555 1_555
H14 C11 1_555 1_555
C12 C8 1_555 1_555
H15 C12 1_555 1_555
H16 C12 1_555 1_555
H17 C12 1_555 1_555
C13 C5 1_555 1_555
H18 C13 1_555 1_555
C14 C9 1_555 1_555
H19 C14 1_555 1_555
C15 C1 1_555 1_555
H20 O2 1_555 1_555
H21 O3 1_555 1_555
H22 O4 1_555 1_555
C3 C15 1_555 1_555
C6 C13 1_555 1_555
C13 C14 1_555 1_555
C14 C15 1_555 1_555

#END
