
#######################################################################
#
#                 Cambridge Crystallographic Data Centre
#                                CCDC 
#
#######################################################################
#
# If this CIF has been generated from an entry in the Cambridge 
# Structural Database, then it will include bibliographic, chemical, 
# crystal, experimental, refinement or atomic coordinate data resulting 
# from the CCDC's data processing and validation procedures.
#
#######################################################################

data_DOFKUG
_chemical_formula_moiety         
'2(C60 H44 N4 S16),C38 H44 N6 2+,2(C2 H6 O1),2(I1 1-),5(C1 H1 Cl3)'
_chemical_name_systematic        
"bis(6,14,22,30-tetrakis(1,3-Benzodithiol-2-ylidene)-2,2,10,10,18,18,26,26-octamethyl-5,7,13,15,21,23,29,31-octathia-33,34,35,36-tetraazanonacyclo[25.5.1.1^3,9^.1^11,17^.1^19,25^.0^4,8^.0^12,16^.0^20,24^.0^28,32^]hexatriaconta-1(32),3,8,11,16,19,24,27-octaene) 4,4'-(5,10,10,15,20,20-hexamethyl-5,10,15,20,22,24-hexahydroporphyrin-5,15-diyl)bis(1-methylpyridinium) bis(iodide) chloroform ethanol solvate"
_symmetry_cell_setting           monoclinic
_symmetry_space_group_name_H-M   'P 21/n'
_symmetry_Int_Tables_number      14
_space_group_name_Hall           '-P 2yn'
loop_
_symmetry_equiv_pos_site_id
_symmetry_equiv_pos_as_xyz
1 x,y,z
2 1/2-x,1/2+y,1/2-z
3 -x,-y,-z
4 1/2+x,1/2-y,1/2+z
_cell_length_a                   18.262(5)
_cell_length_b                   28.491(7)
_cell_length_c                   18.268(5)
_cell_angle_alpha                90
_cell_angle_beta                 92.079(4)
_cell_angle_gamma                90
_cell_volume                     9498.63
_exptl_crystal_colour            greenish
_exptl_crystal_description       prism
_cell_formula_units_Z            2
loop_
_atom_site_label
_atom_site_type_symbol
_atom_site_fract_x
_atom_site_fract_y
_atom_site_fract_z
C1 C 0.7772(6) 0.1825(4) 0.4650(6)
C2 C 0.8154(6) 0.2055(4) 0.4156(5)
C3 C 0.8877(6) 0.1920(4) 0.4188(6)
C4 C 0.8964(6) 0.1605(4) 0.4727(6)
C5 C 0.8753(6) 0.2518(5) 0.3121(7)
C6 C 0.8860(6) 0.2752(4) 0.2508(6)
C7 C 0.8655(6) 0.3125(3) 0.1223(7)
C8 C 0.8346(7) 0.3299(3) 0.0551(6)
H1 H 0.7850 0.3373 0.0513
C9 C 0.8760(7) 0.3356(4) -0.0022(7)
H2 H 0.8554 0.3478 -0.0454
C10 C 0.9508(7) 0.3235(4) 0.0013(8)
H3 H 0.9785 0.3265 -0.0402
C11 C 0.9834(7) 0.3071(4) 0.0662(7)
H4 H 1.0327 0.2989 0.0691
C12 C 0.9386(6) 0.3032(4) 0.1281(7)
C13 C 0.9643(6) 0.1327(3) 0.5011(6)
C14 C 0.9452(8) 0.0824(4) 0.5221(9)
H5 H 0.9858 0.0687 0.5492
H6 H 0.9351 0.0643 0.4785
H7 H 0.9029 0.0825 0.5517
C15 C 1.0221(7) 0.1320(4) 0.4480(6)
H8 H 1.0050 0.1158 0.4046
H9 H 1.0643 0.1162 0.4688
H10 H 1.0350 0.1636 0.4357
C16 C 0.9929(5) 0.1575(3) 0.5731(6)
C17 C 1.0461(6) 0.1922(4) 0.5818(6)
C18 C 1.0499(6) 0.2055(4) 0.6556(6)
C19 C 0.9961(6) 0.1803(3) 0.6930(7)
C20 C 1.1520(6) 0.2524(5) 0.5951(7)
C21 C 1.2090(7) 0.2785(4) 0.5795(6)
C22 C 1.3363(6) 0.2969(4) 0.5315(6)
C23 C 1.3377(6) 0.3116(3) 0.6056(7)
C24 C 1.4038(6) 0.3251(4) 0.6380(7)
H11 H 1.4062 0.3363 0.6858
C25 C 1.4664(7) 0.3215(4) 0.5979(8)
H12 H 1.5113 0.3269 0.6221
C26 C 1.4666(8) 0.3109(5) 0.5271(8)
H13 H 1.5095 0.3129 0.5014
C27 C 1.3992(7) 0.2962(4) 0.4909(7)
H14 H 1.3978 0.2865 0.4422
C28 C 0.9768(5) 0.1823(4) 0.7703(6)
C29 C 0.9538(7) 0.1324(4) 0.7980(7)
H15 H 0.9967 0.1134 0.8061
H16 H 0.9219 0.1178 0.7619
H17 H 0.9287 0.1355 0.8431
C30 C 1.0393(6) 0.1990(5) 0.8208(6)
H18 H 1.0573 0.2285 0.8035
H19 H 1.0781 0.1763 0.8214
H20 H 1.0221 0.2029 0.8695
C31 C 0.9101(6) 0.2155(4) 0.7776(5)
C32 C 0.9091(5) 0.2650(4) 0.7891(5)
C33 C 0.8345(6) 0.2799(4) 0.7843(6)
C34 C 0.7919(6) 0.2414(4) 0.7702(5)
C35 C 0.9124(5) 0.3546(4) 0.8120(7)
C36 C 0.9334(6) 0.3960(4) 0.8344(8)
C37 C 0.9385(8) 0.4840(4) 0.8745(7)
C38 C 1.0122(8) 0.4677(4) 0.8828(7)
C39 C 1.0673(8) 0.4967(5) 0.9063(7)
H21 H 1.1145 0.4848 0.9136
C40 C 1.0540(10) 0.5441(7) 0.9199(11)
H22 H 1.0920 0.5639 0.9352
C41 C 0.9859(12) 0.5607(6) 0.9105(10)
H23 H 0.9757 0.5923 0.9182
C42 C 0.9280(9) 0.5280(6) 0.8879(9)
H24 H 0.8805 0.5396 0.8827
C43 C 0.7097(6) 0.2370(3) 0.7569(6)
C44 C 0.6805(7) 0.1897(3) 0.7845(6)
H25 H 0.6959 0.1855 0.8349
H26 H 0.6996 0.1647 0.7557
H27 H 0.6280 0.1896 0.7802
C45 C 0.6699(6) 0.2759(4) 0.7960(6)
H28 H 0.6796 0.3054 0.7730
H29 H 0.6867 0.2770 0.8464
H30 H 0.6181 0.2699 0.7935
C46 C 0.6950(5) 0.2409(3) 0.6739(6)
C47 C 0.6791(5) 0.2780(4) 0.6283(6)
C48 C 0.6780(5) 0.2644(3) 0.5561(5)
C49 C 0.6910(5) 0.2170(4) 0.5525(5)
C50 C 0.6969(6) 0.1850(4) 0.4890(7)
C51 C 0.6689(7) 0.1344(4) 0.5071(7)
H31 H 0.6958 0.1224 0.5491
H32 H 0.6760 0.1141 0.4659
H33 H 0.6177 0.1356 0.5172
C52 C 0.6507(6) 0.2031(5) 0.4231(6)
H34 H 0.6009 0.2073 0.4369
H35 H 0.6523 0.1808 0.3838
H36 H 0.6700 0.2326 0.4073
C53 C 0.6530(5) 0.3538(4) 0.5530(6)
C54 C 0.6344(6) 0.3966(4) 0.5308(6)
C55 C 0.6045(10) 0.4727(5) 0.4527(10)
C56 C 0.6045(7) 0.4856(4) 0.5214(10)
C57 C 0.5892(9) 0.5338(5) 0.5471(11)
H37 H 0.5882 0.5418 0.5964
C58 C 0.5769(12) 0.5650(5) 0.4926(13)
H38 H 0.5699 0.5965 0.5040
C59 C 0.5741(11) 0.5497(6) 0.4131(13)
H39 H 0.5609 0.5711 0.3765
C60 C 0.5916(8) 0.5032(6) 0.3947(10)
H40 H 0.5944 0.4936 0.3463
N1 N 0.8378(4) 0.2024(3) 0.7649(5)
H41 H 0.8233 0.1743 0.7553
N2 N 0.9638(5) 0.1523(3) 0.6404(5)
H42 H 0.9286 0.1332 0.6488
N3 N 0.8300(5) 0.1545(3) 0.5023(5)
H43 H 0.8215 0.1363 0.5385
N4 N 0.7010(4) 0.2044(3) 0.6239(5)
H44 H 0.7104 0.1760 0.6372
S1 S 0.66475(15) 0.33895(9) 0.64631(15)
S2 S 0.66400(17) 0.30775(11) 0.48832(17)
S3 S 0.6241(2) 0.41242(12) 0.4374(2)
S4 S 0.6234(2) 0.44280(12) 0.5928(2)
S5 S 0.79091(18) 0.25186(17) 0.35164(18)
S6 S 0.94761(17) 0.21947(13) 0.35657(18)
S7 S 0.97399(16) 0.28249(11) 0.21278(18)
S8 S 0.81665(17) 0.30611(12) 0.20209(17)
S9 S 1.10431(16) 0.22103(12) 0.52215(18)
S10 S 1.11215(17) 0.25069(14) 0.68032(19)
S11 S 1.25497(17) 0.31230(11) 0.64859(19)
S12 S 1.24989(16) 0.28005(11) 0.49458(17)
S13 S 0.97714(16) 0.30805(10) 0.79797(19)
S14 S 0.82081(16) 0.34075(10) 0.78597(18)
S15 S 0.87348(19) 0.44424(11) 0.8426(2)
S16 S 1.02584(19) 0.40867(11) 0.8602(2)
I1 I 0.78760(6) 0.09070(3) 0.67495(7)
C61 C 0.8791(7) 0.2605(4) 0.5986(7)
H45 H 0.8708 0.2331 0.5689
H46 H 0.8384 0.2650 0.6297
H47 H 0.9231 0.2566 0.6282
C62 C 0.9353(6) 0.3051(4) 0.4987(6)
H48 H 0.9683 0.2805 0.4945
C63 C 0.8397(6) 0.3395(3) 0.5586(6)
H49 H 0.8060 0.3382 0.5956
C64 C 0.9388(8) 0.3421(4) 0.4517(8)
H50 H 0.9730 0.3422 0.4152
C65 C 0.8416(7) 0.3786(4) 0.5129(7)
H51 H 0.8095 0.4035 0.5192
C66 C 0.8911(7) 0.3799(4) 0.4586(7)
C67 C 0.8938(8) 0.4192(4) 0.4024(6)
C68 C 0.8437(9) 0.4012(6) 0.3374(9)
H52 H 0.8631 0.3724 0.3191
H53 H 0.8421 0.4243 0.2990
H54 H 0.7951 0.3960 0.3540
C69 C 0.9668(10) 0.4292(5) 0.3764(7)
C70 C 0.9979(12) 0.4238(12) 0.3050(11)
H55 H 0.9720 0.4136 0.2633
C71 C 0.8565(9) 0.4648(4) 0.4339(8)
C72 C 0.8047(11) 0.4925(6) 0.4059(11)
H56 H 0.7801 0.4881 0.3610
C73 C 0.7929(10) 0.5291(6) 0.4534(13)
H57 H 0.7603 0.5538 0.4455
C74 C 0.8373(9) 0.5227(5) 0.5138(10)
C75 C 0.7959(18) 0.5898(8) 0.5844(18)
H58 H 0.7966 0.6053 0.5378
H59 H 0.8166 0.6101 0.6217
H60 H 0.7463 0.5822 0.5956
C76 C 0.8378(10) 0.5478(5) 0.5817(11)
C77 C 0.7991(13) 0.5089(8) 0.6468(12)
H61 H 0.8264 0.4801 0.6485
H62 H 0.7490 0.5024 0.6325
H63 H 0.8010 0.5233 0.6943
C78 C 0.9100(10) 0.5550(4) 0.6182(11)
C79 C 0.9305(14) 0.5644(12) 0.6930(13)
H64 H 0.9003 0.5626 0.7327
N5 N 0.8868(4) 0.3033(3) 0.5495(5)
N6 N 0.8767(6) 0.4820(3) 0.5000(6)
H65 H 0.9092 0.4698 0.5294
N7 N 1.0273(7) 0.4377(3) 0.4193(6)
H66 H 1.0264 0.4386 0.4663
C61B C 1.1209(7) 0.7395(4) 0.4014(7)
H45B H 1.1292 0.7669 0.4311
H46B H 1.1616 0.7350 0.3703
H47B H 1.0769 0.7434 0.3718
C62B C 1.0647(6) 0.6949(4) 0.5013(6)
H48B H 1.0317 0.7195 0.5055
C63B C 1.1603(6) 0.6605(3) 0.4414(6)
H49B H 1.1940 0.6618 0.4044
C64B C 1.0612(8) 0.6579(4) 0.5483(8)
H50B H 1.0270 0.6578 0.5848
C65B C 1.1584(7) 0.6214(4) 0.4871(7)
H51B H 1.1905 0.5965 0.4808
C66B C 1.1089(7) 0.6201(4) 0.5414(7)
C67B C 1.1062(8) 0.5808(4) 0.5976(6)
C68B C 1.1563(9) 0.5988(6) 0.6626(9)
H52B H 1.1369 0.6276 0.6809
H53B H 1.1579 0.5757 0.7010
H54B H 1.2049 0.6040 0.6460
C69B C 1.0332(10) 0.5708(5) 0.6236(7)
C70B C 1.0021(12) 0.5762(12) 0.6950(11)
H55B H 1.0280 0.5864 0.7367
C71B C 1.1435(9) 0.5352(4) 0.5661(8)
C72B C 1.1953(11) 0.5075(6) 0.5941(11)
H56B H 1.2199 0.5119 0.6390
C73B C 1.2071(10) 0.4709(6) 0.5466(13)
H57B H 1.2397 0.4462 0.5545
C74B C 1.1627(9) 0.4773(5) 0.4862(10)
C75B C 1.2041(18) 0.4102(8) 0.4156(18)
H58B H 1.2034 0.3947 0.4622
H59B H 1.1834 0.3899 0.3783
H60B H 1.2537 0.4178 0.4044
C76B C 1.1622(10) 0.4522(5) 0.4183(11)
C77B C 1.2009(13) 0.4911(8) 0.3532(12)
H61B H 1.1736 0.5199 0.3515
H62B H 1.2510 0.4976 0.3675
H63B H 1.1990 0.4767 0.3057
C78B C 1.0900(10) 0.4450(4) 0.3818(11)
C79B C 1.0695(14) 0.4356(12) 0.3070(13)
H64B H 1.0997 0.4374 0.2673
N5B N 1.1132(4) 0.6967(3) 0.4505(5)
N6B N 1.1233(6) 0.5180(3) 0.5000(6)
H65B H 1.0908 0.5302 0.4706
N7B N 0.9727(7) 0.5623(3) 0.5807(6)
H66B H 0.9736 0.5614 0.5337
Cl1 Cl 1.1803(6) 0.0965(4) 0.7459(7)
Cl2 Cl 1.0749(5) 0.0434(4) 0.6666(6)
Cl3 Cl 1.1916(8) 0.0850(4) 0.5919(8)
C80 C 1.1334(8) 0.0909(6) 0.6629(7)
H67 H 1.1039 0.1193 0.6545
Cl4 Cl 0.7856(4) 0.0421(3) 0.3996(4)
Cl5 Cl 0.8753(5) 0.0781(4) 0.2895(5)
Cl6 Cl 0.7195(6) 0.0915(4) 0.2812(6)
C81 C 0.7970(5) 0.0866(7) 0.3372(8)
H68 H 0.8028 0.1160 0.3646
Cl10 Cl 0.8426(7) -0.0855(3) 0.6956(7)
Cl11 Cl 0.8454(9) -0.0272(4) 0.5698(6)
Cl12 Cl 0.9475(8) -0.0124(5) 0.6889(9)
C83 C 0.8600(10) -0.0301(6) 0.6634(8)
H70 H 0.8256 -0.0085 0.6858
O1 O 0.9962(9) 0.4387(6) 0.5744(7)
C85 C 1.0231(8) 0.4197(5) 0.6327(7)
H72 H 0.9820 0.4083 0.6598
H73 H 1.0456 0.4447 0.6617
C86 C 1.0776(8) 0.3805(5) 0.6317(7)
H74 H 1.0912 0.3717 0.6810
H75 H 1.1203 0.3906 0.6070
H76 H 1.0563 0.3540 0.6064
Cl7? Cl 0.7038(11) 0.0377(7) 0.2912(12)
Cl8? Cl 0.7746(12) 0.1247(6) 0.3201(10)
Cl9? Cl 0.8243(12) 0.0653(8) 0.2081(13)
C82? C 0.7493(13) 0.0843(7) 0.2539(12)
H69? H 0.7157 0.0997 0.2184
Cl13? Cl 0.8297(12) -0.0650(8) 0.7039(11)
Cl14? Cl 0.9229(11) -0.0199(4) 0.6044(8)
Cl15? Cl 0.9450(9) -0.0058(7) 0.7570(9)
C84? C 0.8812(11) -0.0159(8) 0.6873(8)
H71? H 0.8479 0.0111 0.6848
loop_
_geom_bond_atom_site_label_1
_geom_bond_atom_site_label_2
_geom_bond_site_symmetry_1
_geom_bond_site_symmetry_2
C1 C2 1_555 1_555
C2 C3 1_555 1_555
C3 C4 1_555 1_555
C4 C13 1_555 1_555
C5 C6 1_555 1_555
C6 S7 1_555 1_555
C7 C8 1_555 1_555
C8 H1 1_555 1_555
C9 C8 1_555 1_555
H2 C9 1_555 1_555
C10 C9 1_555 1_555
H3 C10 1_555 1_555
C11 C10 1_555 1_555
H4 C11 1_555 1_555
C12 C7 1_555 1_555
C13 C14 1_555 1_555
C14 H5 1_555 1_555
H6 C14 1_555 1_555
H7 C14 1_555 1_555
C15 C13 1_555 1_555
H8 C15 1_555 1_555
H9 C15 1_555 1_555
H10 C15 1_555 1_555
C16 C13 1_555 1_555
C17 C16 1_555 1_555
C18 C17 1_555 1_555
C19 C18 1_555 1_555
C20 C21 1_555 1_555
C21 S11 1_555 1_555
C22 C23 1_555 1_555
C23 C24 1_555 1_555
C24 H11 1_555 1_555
C25 C24 1_555 1_555
H12 C25 1_555 1_555
C26 C25 1_555 1_555
H13 C26 1_555 1_555
C27 C22 1_555 1_555
H14 C27 1_555 1_555
C28 C19 1_555 1_555
C29 C28 1_555 1_555
H15 C29 1_555 1_555
H16 C29 1_555 1_555
H17 C29 1_555 1_555
C30 C28 1_555 1_555
H18 C30 1_555 1_555
H19 C30 1_555 1_555
H20 C30 1_555 1_555
C31 C28 1_555 1_555
C32 C31 1_555 1_555
C33 C32 1_555 1_555
C34 C33 1_555 1_555
C35 C36 1_555 1_555
C36 S15 1_555 1_555
C37 C38 1_555 1_555
C38 C39 1_555 1_555
C39 H21 1_555 1_555
C40 C39 1_555 1_555
H22 C40 1_555 1_555
C41 C40 1_555 1_555
H23 C41 1_555 1_555
C42 C37 1_555 1_555
H24 C42 1_555 1_555
C43 C34 1_555 1_555
C44 C43 1_555 1_555
H25 C44 1_555 1_555
H26 C44 1_555 1_555
H27 C44 1_555 1_555
C45 C43 1_555 1_555
H28 C45 1_555 1_555
H29 C45 1_555 1_555
H30 C45 1_555 1_555
C46 C43 1_555 1_555
C47 C46 1_555 1_555
C48 C47 1_555 1_555
C49 C48 1_555 1_555
C50 C1 1_555 1_555
C51 C50 1_555 1_555
H31 C51 1_555 1_555
H32 C51 1_555 1_555
H33 C51 1_555 1_555
C52 C50 1_555 1_555
H34 C52 1_555 1_555
H35 C52 1_555 1_555
H36 C52 1_555 1_555
C53 C54 1_555 1_555
C54 S3 1_555 1_555
C55 C56 1_555 1_555
C56 C57 1_555 1_555
C57 H37 1_555 1_555
C58 C57 1_555 1_555
H38 C58 1_555 1_555
C59 C58 1_555 1_555
H39 C59 1_555 1_555
C60 C55 1_555 1_555
H40 C60 1_555 1_555
N1 C31 1_555 1_555
H41 N1 1_555 1_555
N2 C16 1_555 1_555
H42 N2 1_555 1_555
N3 C1 1_555 1_555
H43 N3 1_555 1_555
N4 C46 1_555 1_555
H44 N4 1_555 1_555
S1 C47 1_555 1_555
S2 C48 1_555 1_555
S3 C55 1_555 1_555
S4 C54 1_555 1_555
S5 C2 1_555 1_555
S6 C3 1_555 1_555
S7 C12 1_555 1_555
S8 C6 1_555 1_555
S9 C17 1_555 1_555
S10 C18 1_555 1_555
S11 C23 1_555 1_555
S12 C21 1_555 1_555
S13 C32 1_555 1_555
S14 C33 1_555 1_555
S15 C37 1_555 1_555
S16 C36 1_555 1_555
C61 H45 1_555 1_555
H46 C61 1_555 1_555
H47 C61 1_555 1_555
C62 H48 1_555 1_555
C63 H49 1_555 1_555
C64 C62 1_555 1_555
H50 C64 1_555 1_555
C65 C63 1_555 1_555
H51 C65 1_555 1_555
C66 C64 1_555 1_555
C67 C66 1_555 1_555
C68 C67 1_555 1_555
H52 C68 1_555 1_555
H53 C68 1_555 1_555
H54 C68 1_555 1_555
C69 C67 1_555 1_555
C70 C69 1_555 1_555
H55 C70 1_555 1_555
C71 C67 1_555 1_555
C72 C71 1_555 1_555
H56 C72 1_555 1_555
C73 C72 1_555 1_555
H57 C73 1_555 1_555
C74 C73 1_555 1_555
C75 H58 1_555 1_555
H59 C75 1_555 1_555
H60 C75 1_555 1_555
C76 C74 1_555 1_555
C77 C76 1_555 1_555
H61 C77 1_555 1_555
H62 C77 1_555 1_555
H63 C77 1_555 1_555
C78 C76 1_555 1_555
C79 C78 1_555 1_555
H64 C79 1_555 1_555
N5 C61 1_555 1_555
N6 C71 1_555 1_555
H65 N6 1_555 1_555
N7 C69 1_555 1_555
H66 N7 1_555 1_555
Cl1 C80 1_555 1_555
Cl2 C80 1_555 1_555
Cl3 C80 1_555 1_555
C80 H67 1_555 1_555
Cl4 C81 1_555 1_555
Cl5 C81 1_555 1_555
Cl6 C81 1_555 1_555
C81 H68 1_555 1_555
Cl10 C83 1_555 1_555
Cl11 C83 1_555 1_555
Cl12 C83 1_555 1_555
C83 H70 1_555 1_555
O1 C85 1_555 1_555
C85 H72 1_555 1_555
H73 C85 1_555 1_555
C86 C85 1_555 1_555
H74 C86 1_555 1_555
H75 C86 1_555 1_555
H76 C86 1_555 1_555
C61B H45B 1_555 1_555
H46B C61B 1_555 1_555
H47B C61B 1_555 1_555
C62B H48B 1_555 1_555
C63B H49B 1_555 1_555
C64B C62B 1_555 1_555
H50B C64B 1_555 1_555
C65B C63B 1_555 1_555
H51B C65B 1_555 1_555
C66B C64B 1_555 1_555
C67B C66B 1_555 1_555
C68B C67B 1_555 1_555
H52B C68B 1_555 1_555
H53B C68B 1_555 1_555
H54B C68B 1_555 1_555
C69B C67B 1_555 1_555
C70B C79 1_555 1_555
H55B C70B 1_555 1_555
C71B C67B 1_555 1_555
C72B C71B 1_555 1_555
H56B C72B 1_555 1_555
C73B C72B 1_555 1_555
H57B C73B 1_555 1_555
C74B C73B 1_555 1_555
C75B H58B 1_555 1_555
H59B C75B 1_555 1_555
H60B C75B 1_555 1_555
C76B C74B 1_555 1_555
C77B C76B 1_555 1_555
H61B C77B 1_555 1_555
H62B C77B 1_555 1_555
H63B C77B 1_555 1_555
C78B N7 1_555 1_555
C79B C70 1_555 1_555
H64B C79B 1_555 1_555
N5B C61B 1_555 1_555
N6B C71B 1_555 1_555
H65B N6B 1_555 1_555
N7B C78 1_555 1_555
H66B N7B 1_555 1_555
C4 N3 1_555 1_555
C5 S5 1_555 1_555
C5 S6 1_555 1_555
C7 S8 1_555 1_555
C11 C12 1_555 1_555
C19 N2 1_555 1_555
C20 S9 1_555 1_555
C20 S10 1_555 1_555
C22 S12 1_555 1_555
C26 C27 1_555 1_555
C34 N1 1_555 1_555
C35 S13 1_555 1_555
C35 S14 1_555 1_555
C38 S16 1_555 1_555
C41 C42 1_555 1_555
C49 C50 1_555 1_555
C49 N4 1_555 1_555
C53 S1 1_555 1_555
C53 S2 1_555 1_555
C56 S4 1_555 1_555
C59 C60 1_555 1_555
C62 N5 1_555 1_555
C63 N5 1_555 1_555
C65 C66 1_555 1_555
C74 N6 1_555 1_555
C75 C76 1_555 1_555
C62B N5B 1_555 1_555
C63B N5B 1_555 1_555
C65B C66B 1_555 1_555
C69B C70B 1_555 1_555
C69B N7B 1_555 1_555
C74B N6B 1_555 1_555
C75B C76B 1_555 1_555
C76B C78B 1_555 1_555
C78B C79B 1_555 1_555

#END
