
#######################################################################
#
#                 Cambridge Crystallographic Data Centre
#                                CCDC 
#
#######################################################################
#
# If this CIF has been generated from an entry in the Cambridge 
# Structural Database, then it will include bibliographic, chemical, 
# crystal, experimental, refinement or atomic coordinate data resulting 
# from the CCDC's data processing and validation procedures.
#
#######################################################################

data_DOFXAY
_chemical_formula_moiety         'H12 Mg1 O6 2+,2(C5 H2 N3 O5 1-),2(H2 O1)'
_chemical_name_systematic        
'Hexa-aqua-magnesium bis(3,5-dinitropyridin-2-one) dihydrate'
_symmetry_cell_setting           triclinic
_symmetry_space_group_name_H-M   'P -1'
_symmetry_Int_Tables_number      2
_space_group_name_Hall           '-P 1'
loop_
_symmetry_equiv_pos_site_id
_symmetry_equiv_pos_as_xyz
1 x,y,z
2 -x,-y,-z
_cell_length_a                   7.1859(11)
_cell_length_b                   7.6277(11)
_cell_length_c                   11.0183(16)
_cell_angle_alpha                74.795(2)
_cell_angle_beta                 82.016(2)
_cell_angle_gamma                70.996(2)
_cell_volume                     550.08
_cell_formula_units_Z            1
loop_
_atom_site_label
_atom_site_type_symbol
_atom_site_fract_x
_atom_site_fract_y
_atom_site_fract_z
Mg1 Mg 0.0000 0.5000 0.5000
O6 O 0.02672(17) 0.21503(15) 0.52225(11)
O7 O 0.23795(16) 0.41847(16) 0.60698(11)
O8 O 0.19131(16) 0.48769(18) 0.34329(11)
H3 H -0.048(2) 0.158(3) 0.5677(16)
H4 H 0.295(3) 0.494(2) 0.6132(19)
H5 H 0.105(2) 0.146(2) 0.4780(17)
H6 H 0.295(3) 0.3089(14) 0.6472(17)
H9 H 0.173(3) 0.564(3) 0.2737(14)
H10 H 0.3127(15) 0.436(3) 0.3510(18)
O6A O -0.02672(17) 0.78497(15) 0.47775(11)
O7A O -0.23795(16) 0.58153(16) 0.39302(11)
O8A O -0.19131(16) 0.51231(18) 0.65671(11)
H3A H 0.048(2) 0.842(3) 0.4323(16)
H4A H -0.295(3) 0.506(2) 0.3868(19)
H5A H -0.105(2) 0.854(2) 0.5220(17)
H6A H -0.295(3) 0.6911(14) 0.3528(17)
H9A H -0.173(3) 0.436(3) 0.7263(14)
H10A H -0.3127(15) 0.564(3) 0.6490(18)
O1 O 0.28662(16) -0.05006(15) 0.38277(10)
O2 O -0.05262(17) 0.12860(19) 0.25940(12)
O3 O -0.0443(2) 0.3986(2) 0.13863(15)
O4 O 0.5508(3) 0.4023(2) -0.12557(14)
O5 O 0.8257(2) 0.1928(3) -0.06777(16)
N1 N 0.56005(18) -0.06156(18) 0.24948(12)
N2 N 0.03731(19) 0.2343(2) 0.19343(12)
N3 N 0.6473(2) 0.2616(2) -0.05223(14)
C1 C 0.2514(2) 0.1630(2) 0.17957(14)
C2 C 0.3424(2) 0.2482(2) 0.07400(14)
H1 H 0.2706 0.3515 0.0154
C3 C 0.5449(2) 0.1751(2) 0.05768(14)
C4 C 0.6466(2) 0.0167(2) 0.14517(15)
H2 H 0.7813 -0.0364 0.1297
C5 C 0.3609(2) 0.01263(19) 0.27667(14)
O9 O 0.42134(17) 0.69655(17) 0.61034(12)
H7 H 0.406(3) 0.768(3) 0.5378(10)
H8 H 0.337(3) 0.750(3) 0.6599(14)
loop_
_geom_bond_atom_site_label_1
_geom_bond_atom_site_label_2
_geom_bond_site_symmetry_1
_geom_bond_site_symmetry_2
Mg1 O6 1_555 1_555
O1 C5 1_555 1_555
O2 N2 1_555 1_555
O3 N2 1_555 1_555
O4 N3 1_555 1_555
O5 N3 1_555 1_555
O6 H3 1_555 1_555
O7 Mg1 1_555 1_555
O8 Mg1 1_555 1_555
O9 H7 1_555 1_555
N1 C4 1_555 1_555
N2 C1 1_555 1_555
N3 C3 1_555 1_555
C1 C2 1_555 1_555
C2 H1 1_555 1_555
C3 C2 1_555 1_555
C4 C3 1_555 1_555
H2 C4 1_555 1_555
C5 N1 1_555 1_555
H4 O7 1_555 1_555
H5 O6 1_555 1_555
H6 O7 1_555 1_555
H8 O9 1_555 1_555
H9 O8 1_555 1_555
H10 O8 1_555 1_555
O6A Mg1 1_555 1_555
O7A Mg1 1_555 1_555
O8A Mg1 1_555 1_555
H3A O6A 1_555 1_555
H4A O7A 1_555 1_555
H5A O6A 1_555 1_555
H6A O7A 1_555 1_555
H9A O8A 1_555 1_555
H10A O8A 1_555 1_555
C1 C5 1_555 1_555

#END
