
#######################################################################
#
#                 Cambridge Crystallographic Data Centre
#                                CCDC 
#
#######################################################################
#
# If this CIF has been generated from an entry in the Cambridge 
# Structural Database, then it will include bibliographic, chemical, 
# crystal, experimental, refinement or atomic coordinate data resulting 
# from the CCDC's data processing and validation procedures.
#
#######################################################################

data_DOGCIN
_chemical_formula_moiety         'C20 H20 N2 O1'
_chemical_name_systematic        
1'-benzyl-3'-methyl-4,5-dihydro-1'H-spiro[pyrrole-3,4'-quinolin]-2'(3'H)-one
_symmetry_cell_setting           monoclinic
_symmetry_space_group_name_H-M   'C 2/c'
_symmetry_Int_Tables_number      15
_space_group_name_Hall           '-C 2yn'
loop_
_symmetry_equiv_pos_site_id
_symmetry_equiv_pos_as_xyz
1 x,y,z
2 -x,y,1/2-z
3 1/2+x,1/2+y,z
4 1/2-x,1/2+y,1/2-z
5 -x,-y,-z
6 x,-y,1/2+z
7 1/2-x,1/2-y,-z
8 1/2+x,1/2-y,1/2+z
_cell_length_a                   32.01(3)
_cell_length_b                   5.880(5)
_cell_length_c                   17.369(14)
_cell_angle_alpha                90
_cell_angle_beta                 102.83(3)
_cell_angle_gamma                90
_cell_volume                     3187.55
_exptl_crystal_colour            colorless
_exptl_crystal_description       block
_cell_formula_units_Z            8
loop_
_atom_site_label
_atom_site_type_symbol
_atom_site_fract_x
_atom_site_fract_y
_atom_site_fract_z
O1 O 0.16614(5) 0.8487(2) 0.06806(9)
N1 N 0.12651(5) 0.6598(2) 0.14183(8)
C1 C 0.20165(7) 0.5936(3) 0.26829(11)
H1 H 0.1937 0.4828 0.2287
N2 N 0.05550(6) 0.1789(3) -0.10586(10)
C2 C 0.23792(7) 0.5603(4) 0.32760(13)
H2 H 0.2546 0.4285 0.3278
C3 C 0.24961(8) 0.7201(4) 0.38630(13)
H3 H 0.2739 0.6964 0.4272
C4 C 0.22548(8) 0.9156(4) 0.38474(13)
H4 H 0.2335 1.0256 0.4245
C5 C 0.18954(7) 0.9501(3) 0.32484(12)
H5 H 0.1736 1.0847 0.3238
C6 C 0.17686(6) 0.7880(3) 0.26629(10)
C7 C 0.13685(7) 0.8352(3) 0.20336(11)
H6 H 0.1126 0.8505 0.2288
H7 H 0.1404 0.9810 0.1782
C8 C 0.09926(6) 0.4750(3) 0.15042(10)
C9 C 0.08966(7) 0.4270(3) 0.22343(11)
H8 H 0.1028 0.5120 0.2681
C10 C 0.06089(7) 0.2547(3) 0.23065(13)
H9 H 0.0549 0.2233 0.2802
C11 C 0.04127(7) 0.1305(3) 0.16563(12)
H10 H 0.0211 0.0180 0.1699
C12 C 0.05174(7) 0.1736(3) 0.09343(12)
H11 H 0.0389 0.0856 0.0494
C13 C 0.08074(6) 0.3430(3) 0.08432(10)
C14 C 0.09162(6) 0.3960(3) 0.00509(10)
C15 C 0.05757(6) 0.5523(3) -0.04653(11)
H12 H 0.0399 0.6265 -0.0145
H13 H 0.0712 0.6694 -0.0728
C16 C 0.03075(7) 0.3912(3) -0.10683(12)
H14 H 0.0033 0.3597 -0.0929
H15 H 0.0251 0.4596 -0.1596
C17 C 0.08675(7) 0.1857(3) -0.04702(11)
H16 H 0.1064 0.0648 -0.0358
C18 C 0.13860(7) 0.4812(3) 0.02081(11)
H17 H 0.1566 0.3561 0.0484
C19 C 0.14495(7) 0.6809(3) 0.07732(11)
C20 C 0.15566(8) 0.5357(4) -0.05298(12)
H18 H 0.1852 0.5862 -0.0372
H19 H 0.1384 0.6549 -0.0830
H20 H 0.1542 0.4003 -0.0854
loop_
_geom_bond_atom_site_label_1
_geom_bond_atom_site_label_2
_geom_bond_site_symmetry_1
_geom_bond_site_symmetry_2
O1 C19 1_555 1_555
N1 C7 1_555 1_555
C1 H1 1_555 1_555
N2 C16 1_555 1_555
C2 C1 1_555 1_555
H2 C2 1_555 1_555
C3 C2 1_555 1_555
H3 C3 1_555 1_555
C4 C3 1_555 1_555
H4 C4 1_555 1_555
C5 C4 1_555 1_555
H5 C5 1_555 1_555
C6 C1 1_555 1_555
C7 C6 1_555 1_555
H6 C7 1_555 1_555
H7 C7 1_555 1_555
C8 N1 1_555 1_555
C9 C8 1_555 1_555
H8 C9 1_555 1_555
C10 C9 1_555 1_555
H9 C10 1_555 1_555
C11 C10 1_555 1_555
H10 C11 1_555 1_555
C12 C11 1_555 1_555
H11 C12 1_555 1_555
C13 C8 1_555 1_555
C14 C13 1_555 1_555
C15 C14 1_555 1_555
H12 C15 1_555 1_555
H13 C15 1_555 1_555
C16 C15 1_555 1_555
H14 C16 1_555 1_555
H15 C16 1_555 1_555
C17 N2 1_555 1_555
H16 C17 1_555 1_555
C18 C14 1_555 1_555
H17 C18 1_555 1_555
C19 N1 1_555 1_555
C20 C18 1_555 1_555
H18 C20 1_555 1_555
H19 C20 1_555 1_555
H20 C20 1_555 1_555
C5 C6 1_555 1_555
C12 C13 1_555 1_555
C14 C17 1_555 1_555
C18 C19 1_555 1_555

#END
