
#######################################################################
#
#                 Cambridge Crystallographic Data Centre
#                                CCDC 
#
#######################################################################
#
# If this CIF has been generated from an entry in the Cambridge 
# Structural Database, then it will include bibliographic, chemical, 
# crystal, experimental, refinement or atomic coordinate data resulting 
# from the CCDC's data processing and validation procedures.
#
#######################################################################

data_DOGHIS
_chemical_formula_moiety         
'C48 H48 N32 O16,4(C16 H13 N2 1+),16(H2 O1),4(Cl1 1-)'
_chemical_name_systematic        
"Cucurbit(8)uril tetrakis(N-phenyl-4,4'-bipyridinium) tetrachloride hexadecahydrate"
_symmetry_cell_setting           monoclinic
_symmetry_space_group_name_H-M   'C 2/c'
_symmetry_Int_Tables_number      15
_space_group_name_Hall           '-C 2yn'
loop_
_symmetry_equiv_pos_site_id
_symmetry_equiv_pos_as_xyz
1 x,y,z
2 -x,y,1/2-z
3 1/2+x,1/2+y,z
4 1/2-x,1/2+y,1/2-z
5 -x,-y,-z
6 x,-y,1/2+z
7 1/2-x,1/2-y,-z
8 1/2+x,1/2-y,1/2+z
_cell_length_a                   28.0534(17)
_cell_length_b                   20.7219(13)
_cell_length_c                   16.8276(10)
_cell_angle_alpha                90
_cell_angle_beta                 107.4410(10)
_cell_angle_gamma                90
_cell_volume                     9332.49
_cell_formula_units_Z            4
loop_
_atom_site_label
_atom_site_type_symbol
_atom_site_fract_x
_atom_site_fract_y
_atom_site_fract_z
Cl1 Cl 0.0000 0.40294(9) 0.2500
N1 N 0.59439(11) 0.26525(13) 0.67249(15)
N2 N 0.56933(10) 0.17517(13) 0.60171(15)
N3 N 0.55808(10) 0.33054(13) 0.54869(15)
N4 N 0.54039(10) 0.23950(13) 0.47592(15)
N5 N 0.57489(10) 0.08205(13) 0.51891(15)
N6 N 0.61483(9) 0.02374(12) 0.44879(15)
N7 N 0.54562(10) 0.14620(13) 0.39212(15)
N8 N 0.56852(9) 0.07196(13) 0.31588(14)
N9 N 0.67712(9) -0.01858(13) 0.39037(15)
N10 N 0.74690(9) -0.02705(13) 0.35516(15)
N11 N 0.63301(9) 0.03330(12) 0.25865(15)
N12 N 0.70676(9) 0.04122(12) 0.23654(15)
N13 N 0.82830(9) 0.00958(13) 0.35418(15)
N14 N 0.89271(10) 0.07649(13) 0.38845(15)
N15 N 0.78797(9) 0.07851(13) 0.23579(15)
N16 N 0.85334(10) 0.14369(12) 0.26911(15)
O1 O 0.63557(10) 0.17039(12) 0.72216(14)
O2 O 0.55293(10) 0.33254(13) 0.40978(14)
O3 O 0.64866(9) 0.03346(12) 0.59113(13)
O4 O 0.55706(9) 0.17602(12) 0.26647(13)
O5 O 0.75125(9) -0.03672(14) 0.49344(14)
O6 O 0.64461(9) 0.11336(11) 0.17143(15)
O7 O 0.87472(10) 0.01773(13) 0.49223(14)
O8 O 0.77672(10) 0.18439(12) 0.19425(16)
C1 C 0.60332(12) 0.20051(16) 0.67145(19)
C2 C 0.54980(12) 0.28451(15) 0.60789(18)
H1 H 0.5236 0.2991 0.6313
C3 C 0.53445(11) 0.22243(15) 0.55622(18)
H2 H 0.4999 0.2102 0.5511
C4 C 0.55059(11) 0.30379(17) 0.47152(19)
C5 C 0.61656(11) 0.04507(15) 0.52670(17)
C6 C 0.54300(11) 0.08591(16) 0.43435(17)
H3 H 0.5084 0.0744 0.4301
C7 C 0.56667(11) 0.03663(15) 0.38809(17)
H4 H 0.5464 -0.0026 0.3732
C8 C 0.55723(11) 0.13575(16) 0.31918(17)
C9 C 0.72764(12) -0.02823(15) 0.42109(18)
C10 C 0.65979(10) -0.02261(14) 0.30059(17)
H5 H 0.6411 -0.0625 0.2817
C11 C 0.70861(11) -0.02078(14) 0.27691(17)
H6 H 0.7100 -0.0562 0.2391
C12 C 0.65972(11) 0.06740(14) 0.21727(17)
C13 C 0.86594(12) 0.03328(16) 0.41955(19)
C14 C 0.82871(11) 0.03592(15) 0.27504(17)
H7 H 0.8324 0.0019 0.2368
C15 C 0.87453(12) 0.08154(15) 0.29874(18)
H8 H 0.8999(13) 0.0684(17) 0.273(2)
C16 C 0.80349(12) 0.13960(15) 0.22920(18)
C17 C 0.56183(13) 0.10642(15) 0.58953(19)
H9 H 0.5817 0.0843 0.6392
H10 H 0.5270 0.0966 0.5825
C18 C 0.51691(13) 0.20241(17) 0.40117(19)
H11 H 0.4841 0.1885 0.4024
H12 H 0.5123 0.2300 0.3529
C19 C 0.64446(12) -0.03168(16) 0.4402(2)
H13 H 0.6644 -0.0456 0.4952
H14 H 0.6222 -0.0668 0.4150
C20 C 0.58045(11) 0.04372(16) 0.24567(17)
H15 H 0.5633 0.0027 0.2326
H16 H 0.5678 0.0717 0.1978
C21 C 0.79751(11) -0.04453(15) 0.3616(2)
H17 H 0.7972 -0.0756 0.3184
H18 H 0.8124 -0.0653 0.4149
C22 C 0.73923(11) 0.05545(17) 0.18630(17)
H19 H 0.7236 0.0879 0.1453
H20 H 0.7435 0.0168 0.1567
C23 C 0.55923(12) 0.39926(16) 0.5624(2)
H21 H 0.5346 0.4101 0.5903
H22 H 0.5497 0.4209 0.5089
C24 C 0.88385(14) 0.19620(16) 0.25445(18)
H23 H 0.9104 0.1785 0.2351
H24 H 0.8634 0.2237 0.2107
N1F N 0.90561(11) 0.23475(13) 0.32751(15)
N2F N 0.93067(10) 0.32483(13) 0.39829(15)
N3F N 0.94192(10) 0.16946(13) 0.45131(15)
N4F N 0.95961(10) 0.26050(13) 0.52408(15)
N5F N 0.92511(10) 0.41795(13) 0.48109(15)
N6F N 0.88517(9) 0.47626(12) 0.55121(15)
N7F N 0.95438(10) 0.35380(13) 0.60788(15)
N8F N 0.93148(9) 0.42804(13) 0.68412(14)
N9F N 0.82288(9) 0.51858(13) 0.60963(15)
N10F N 0.75310(9) 0.52705(13) 0.64484(15)
N11F N 0.86699(9) 0.46670(12) 0.74135(15)
N12F N 0.79324(9) 0.45878(12) 0.76346(15)
N13F N 0.67170(9) 0.49042(13) 0.64582(15)
N14F N 0.60729(10) 0.42351(13) 0.61155(15)
N15F N 0.71203(9) 0.42149(13) 0.76421(15)
N16F N 0.64666(10) 0.35631(12) 0.73089(15)
O1F O 0.86443(10) 0.32961(12) 0.27784(14)
O2F O 0.94707(10) 0.16746(13) 0.59022(14)
O3F O 0.85134(9) 0.46654(12) 0.40887(13)
O4F O 0.94294(9) 0.32398(12) 0.73353(13)
O5F O 0.74875(9) 0.53672(14) 0.50656(14)
O6F O 0.85539(9) 0.38664(11) 0.82857(15)
O7F O 0.62528(10) 0.48227(13) 0.50777(14)
O8F O 0.72328(10) 0.31561(12) 0.80575(16)
C1F C 0.89668(12) 0.29949(16) 0.32855(19)
C2F C 0.95020(12) 0.21549(15) 0.39211(18)
H1F H 0.9764 0.2009 0.3687
C3F C 0.96555(11) 0.27757(15) 0.44378(18)
H2F H 1.0001 0.2898 0.4489
C4F C 0.94941(11) 0.19621(17) 0.52848(19)
C5F C 0.88344(11) 0.45493(15) 0.47330(17)
C6F C 0.95700(11) 0.41409(16) 0.56565(17)
H3F H 0.9916 0.4256 0.5699
C7F C 0.93333(11) 0.46337(15) 0.61191(17)
H4F H 0.9536 0.5026 0.6268
C8F C 0.94277(11) 0.36425(16) 0.68082(17)
C9F C 0.77236(12) 0.52823(15) 0.57891(18)
C10F C 0.84021(10) 0.52261(14) 0.69941(17)
H5F H 0.8589 0.5625 0.7183
C11F C 0.79139(11) 0.52078(14) 0.72309(17)
H6F H 0.7900 0.5562 0.7609
C12F C 0.84028(11) 0.43260(14) 0.78273(17)
C13F C 0.63406(12) 0.46672(16) 0.58045(19)
C14F C 0.67129(11) 0.46408(15) 0.72496(17)
H7F H 0.6676 0.4981 0.7632
C15F C 0.62547(12) 0.41846(15) 0.70126(18)
H8F H 0.6001(13) 0.4316(17) 0.727(2)
C16F C 0.69651(12) 0.36040(15) 0.77080(18)
C17F C 0.93817(13) 0.39358(15) 0.41047(19)
H9F H 0.9183 0.4157 0.3608
H10F H 0.9730 0.4034 0.4175
C18F C 0.98309(13) 0.29759(17) 0.59883(19)
H11F H 1.0159 0.3115 0.5976
H12F H 0.9877 0.2700 0.6471
C19F C 0.85554(12) 0.53168(16) 0.5598(2)
H13F H 0.8356 0.5456 0.5048
H14F H 0.8778 0.5668 0.5850
C20F C 0.91955(11) 0.45628(16) 0.75433(17)
H15F H 0.9367 0.4973 0.7674
H16F H 0.9322 0.4283 0.8022
C21F C 0.70249(11) 0.54453(15) 0.6384(2)
H17F H 0.7028 0.5756 0.6816
H18F H 0.6876 0.5653 0.5851
C22F C 0.76077(11) 0.44455(17) 0.81370(17)
H19F H 0.7764 0.4121 0.8547
H20F H 0.7565 0.4832 0.8433
C23F C 0.94077(12) 0.10074(16) 0.4376(2)
H21F H 0.9654 0.0899 0.4097
H22F H 0.9503 0.0791 0.4911
C24F C 0.61615(14) 0.30380(16) 0.74555(18)
H23F H 0.5896 0.3215 0.7649
H24F H 0.6366 0.2763 0.7893
N17 N 0.64608(12) 0.26620(15) 0.2629(2)
N18 N 0.7770(2) 0.1093(2) 0.6372(3)
C25 C 0.65395(16) 0.2377(3) 0.4010(3)
H25 H 0.6421 0.2412 0.4469
C26 C 0.63005(16) 0.2694(3) 0.3302(3)
H26 H 0.6019 0.2939 0.3281
C27 C 0.68639(16) 0.2299(2) 0.2668(3)
H27 H 0.6979 0.2272 0.2205
C28 C 0.71045(18) 0.1974(2) 0.3366(3)
H28 H 0.7380 0.1722 0.3369
C29 C 0.69586(14) 0.19998(18) 0.4070(2)
C30 C 0.72279(16) 0.16659(19) 0.4858(2)
C31 C 0.7641(2) 0.1280(3) 0.4927(3)
H29 H 0.7751 0.1209 0.4465
C32 C 0.7890(2) 0.0999(3) 0.5682(3)
H30 H 0.8158 0.0728 0.5704
C33 C 0.7384(3) 0.1460(3) 0.6312(3)
H31 H 0.7294 0.1535 0.6792
C34 C 0.7100(2) 0.1742(2) 0.5584(3)
H32 H 0.6821 0.1986 0.5581
C35 C 0.62021(14) 0.3009(2) 0.1889(3)
C36 C 0.60224(17) 0.3616(3) 0.1950(4)
H33 H 0.6065 0.3803 0.2469
C37 C 0.57749(19) 0.3949(3) 0.1226(5)
H34 H 0.5645 0.4357 0.1260
C38 C 0.5722(2) 0.3678(4) 0.0470(4)
H35 H 0.5564 0.3905 -0.0013
C39 C 0.5903(2) 0.3067(3) 0.0415(4)
H36 H 0.5865 0.2885 -0.0105
C40 C 0.61367(19) 0.2729(3) 0.1112(3)
H37 H 0.6252 0.2313 0.1072
O9 O 0.06469(11) 0.3996(2) 0.5210(2)
H38 H 0.0709 0.3616 0.5148
H39 H 0.0851 0.3875 0.5654
O10 O 0.97202(12) 0.10305(17) 0.1837(2)
H40 H 0.9509 0.0687 0.1434
O11 O 0.0431(4) 0.9475(4) 0.3162(5)
H41 H 0.0710 0.9541 0.3181
O12 O 0.7933(5) 0.8092(7) 0.5138(5)
H42 H 0.8154 0.7774 0.5279
H43 H 0.7785 0.8489 0.5146
O13 O 0.7552(3) 0.3191(3) 0.1598(4)
H44 H 0.7343 0.2951 0.1134
O14 O 0.8299(4) 0.3152(5) 0.0705(9)
H45 H 0.8048 0.3216 0.1009
O15 O 0.9301(2) 0.3185(2) 0.1117(4)
H46 H 0.8980 0.3134 0.0926
H47 H 0.9446 0.2900 0.1485
O16 O 0.84532(19) 0.9110(2) 0.5958(3)
H48 H 0.8745 0.9155 0.5995
N17F N 0.85392(12) 0.23380(15) 0.7371(2)
N18F N 0.7230(2) 0.3907(2) 0.3628(3)
C25F C 0.84605(16) 0.2623(3) 0.5990(3)
H25F H 0.8579 0.2588 0.5531
C26F C 0.86995(16) 0.2306(3) 0.6698(3)
H26F H 0.8981 0.2061 0.6719
C27F C 0.81361(16) 0.2701(2) 0.7332(3)
H27F H 0.8021 0.2728 0.7795
C28F C 0.78955(18) 0.3026(2) 0.6634(3)
H28F H 0.7620 0.3278 0.6631
C29F C 0.80414(14) 0.30002(18) 0.5930(2)
C30F C 0.77721(16) 0.33341(19) 0.5142(2)
C31F C 0.7359(2) 0.3720(3) 0.5073(3)
H29F H 0.7249 0.3791 0.5535
C32F C 0.7110(2) 0.4001(3) 0.4318(3)
H30F H 0.6842 0.4272 0.4296
C33F C 0.7616(3) 0.3540(3) 0.3688(3)
H31F H 0.7706 0.3465 0.3208
C34F C 0.7900(2) 0.3258(2) 0.4416(3)
H32F H 0.8179 0.3014 0.4419
C35F C 0.87979(14) 0.1991(2) 0.8111(3)
C36F C 0.89776(17) 0.1384(3) 0.8050(4)
H33F H 0.8935 0.1197 0.7531
C37F C 0.92251(19) 0.1051(3) 0.8774(5)
H34F H 0.9355 0.0643 0.8740
C38F C 0.9278(2) 0.1322(4) 0.9530(4)
H35F H 0.9436 0.1095 1.0013
C39F C 0.9097(2) 0.1933(3) 0.9585(4)
H36F H 0.9135 0.2115 1.0105
C40F C 0.88633(19) 0.2271(3) 0.8888(3)
H37F H 0.8748 0.2687 0.8928
loop_
_geom_bond_atom_site_label_1
_geom_bond_atom_site_label_2
_geom_bond_site_symmetry_1
_geom_bond_site_symmetry_2
N1 C1 1_555 1_555
N2 C1 1_555 1_555
N3 C2 1_555 1_555
N4 C3 1_555 1_555
N5 C5 1_555 1_555
N6 C5 1_555 1_555
N7 C6 1_555 1_555
N8 C7 1_555 1_555
N9 C9 1_555 1_555
N10 C9 1_555 1_555
N11 C10 1_555 1_555
N12 C11 1_555 1_555
N13 C13 1_555 1_555
N14 C13 1_555 1_555
N15 C14 1_555 1_555
N16 C15 1_555 1_555
O1 C1 1_555 1_555
O2 C4 1_555 1_555
O3 C5 1_555 1_555
O4 C8 1_555 1_555
O5 C9 1_555 1_555
O6 C12 1_555 1_555
O7 C13 1_555 1_555
O8 C16 1_555 1_555
C2 N1 1_555 1_555
H1 C2 1_555 1_555
C3 N2 1_555 1_555
H2 C3 1_555 1_555
C4 N3 1_555 1_555
C6 N5 1_555 1_555
H3 C6 1_555 1_555
C7 N6 1_555 1_555
H4 C7 1_555 1_555
C8 N7 1_555 1_555
C10 N9 1_555 1_555
H5 C10 1_555 1_555
C11 N10 1_555 1_555
H6 C11 1_555 1_555
C12 N11 1_555 1_555
C14 N13 1_555 1_555
H7 C14 1_555 1_555
C15 N14 1_555 1_555
H8 C15 1_555 1_555
C16 N15 1_555 1_555
C17 N2 1_555 1_555
H9 C17 1_555 1_555
H10 C17 1_555 1_555
C18 N4 1_555 1_555
H11 C18 1_555 1_555
H12 C18 1_555 1_555
C19 N6 1_555 1_555
H13 C19 1_555 1_555
H14 C19 1_555 1_555
C20 N8 1_555 1_555
H15 C20 1_555 1_555
H16 C20 1_555 1_555
C21 N10 1_555 1_555
H17 C21 1_555 1_555
H18 C21 1_555 1_555
C22 N12 1_555 1_555
H19 C22 1_555 1_555
H20 C22 1_555 1_555
C23 N3 1_555 1_555
H21 C23 1_555 1_555
H22 C23 1_555 1_555
C24 N16 1_555 1_555
H23 C24 1_555 1_555
H24 C24 1_555 1_555
N17 C26 1_555 1_555
N18 C32 1_555 1_555
C25 H25 1_555 1_555
C26 C25 1_555 1_555
H26 C26 1_555 1_555
C27 N17 1_555 1_555
H27 C27 1_555 1_555
C28 C27 1_555 1_555
H28 C28 1_555 1_555
C29 C25 1_555 1_555
C30 C29 1_555 1_555
C31 C30 1_555 1_555
H29 C31 1_555 1_555
C32 C31 1_555 1_555
H30 C32 1_555 1_555
C33 N18 1_555 1_555
H31 C33 1_555 1_555
C34 C30 1_555 1_555
H32 C34 1_555 1_555
C35 N17 1_555 1_555
C36 C35 1_555 1_555
H33 C36 1_555 1_555
C37 C36 1_555 1_555
H34 C37 1_555 1_555
C38 C37 1_555 1_555
H35 C38 1_555 1_555
C39 C38 1_555 1_555
H36 C39 1_555 1_555
C40 C35 1_555 1_555
H37 C40 1_555 1_555
O9 H38 1_555 1_555
H39 O9 1_555 1_555
O10 H40 1_555 1_555
O11 H41 1_555 1_555
O12 H42 1_555 1_555
H43 O12 1_555 1_555
O13 H44 1_555 1_555
O14 H45 1_555 1_555
O15 H46 1_555 1_555
H47 O15 1_555 1_555
O16 H48 1_555 1_555
N1F C24 1_555 1_555
N2F C1F 1_555 1_555
N3F C2F 1_555 1_555
N4F C3F 1_555 1_555
N5F C5F 1_555 1_555
N6F C5F 1_555 1_555
N7F C6F 1_555 1_555
N8F C7F 1_555 1_555
N9F C9F 1_555 1_555
N10F C9F 1_555 1_555
N11F C10F 1_555 1_555
N12F C11F 1_555 1_555
N13F C13F 1_555 1_555
N14F C23 1_555 1_555
N15F C14F 1_555 1_555
N16F C15F 1_555 1_555
O1F C1F 1_555 1_555
O2F C4F 1_555 1_555
O3F C5F 1_555 1_555
O4F C8F 1_555 1_555
O5F C9F 1_555 1_555
O6F C12F 1_555 1_555
O7F C13F 1_555 1_555
O8F C16F 1_555 1_555
C1F N1F 1_555 1_555
C2F N1F 1_555 1_555
H1F C2F 1_555 1_555
C3F N2F 1_555 1_555
H2F C3F 1_555 1_555
C4F N3F 1_555 1_555
C6F N5F 1_555 1_555
H3F C6F 1_555 1_555
C7F N6F 1_555 1_555
H4F C7F 1_555 1_555
C8F N7F 1_555 1_555
C10F N9F 1_555 1_555
H5F C10F 1_555 1_555
C11F N10F 1_555 1_555
H6F C11F 1_555 1_555
C12F N11F 1_555 1_555
C13F N14F 1_555 1_555
C14F N13F 1_555 1_555
H7F C14F 1_555 1_555
C15F N14F 1_555 1_555
H8F C15F 1_555 1_555
C16F N15F 1_555 1_555
C17F N2F 1_555 1_555
H9F C17F 1_555 1_555
H10F C17F 1_555 1_555
C18F N4F 1_555 1_555
H11F C18F 1_555 1_555
H12F C18F 1_555 1_555
C19F N6F 1_555 1_555
H13F C19F 1_555 1_555
H14F C19F 1_555 1_555
C20F N8F 1_555 1_555
H15F C20F 1_555 1_555
H16F C20F 1_555 1_555
C21F N10F 1_555 1_555
H17F C21F 1_555 1_555
H18F C21F 1_555 1_555
C22F N12F 1_555 1_555
H19F C22F 1_555 1_555
H20F C22F 1_555 1_555
C23F N14 1_555 1_555
H21F C23F 1_555 1_555
H22F C23F 1_555 1_555
C24F N1 1_555 1_555
H23F C24F 1_555 1_555
H24F C24F 1_555 1_555
N17F C26F 1_555 1_555
N18F C32F 1_555 1_555
C25F H25F 1_555 1_555
C26F C25F 1_555 1_555
H26F C26F 1_555 1_555
C27F N17F 1_555 1_555
H27F C27F 1_555 1_555
C28F C27F 1_555 1_555
H28F C28F 1_555 1_555
C29F C25F 1_555 1_555
C30F C29F 1_555 1_555
C31F C30F 1_555 1_555
H29F C31F 1_555 1_555
C32F C31F 1_555 1_555
H30F C32F 1_555 1_555
C33F N18F 1_555 1_555
H31F C33F 1_555 1_555
C34F C30F 1_555 1_555
H32F C34F 1_555 1_555
C35F N17F 1_555 1_555
C36F C35F 1_555 1_555
H33F C36F 1_555 1_555
C37F C36F 1_555 1_555
H34F C37F 1_555 1_555
C38F C37F 1_555 1_555
H35F C38F 1_555 1_555
C39F C38F 1_555 1_555
H36F C39F 1_555 1_555
C40F C35F 1_555 1_555
H37F C40F 1_555 1_555
N4 C4 1_555 1_555
N5 C17 1_555 1_555
N7 C18 1_555 1_555
N8 C8 1_555 1_555
N9 C19 1_555 1_555
N11 C20 1_555 1_555
N12 C12 1_555 1_555
N13 C21 1_555 1_555
N15 C22 1_555 1_555
N16 C16 1_555 1_555
C2 C3 1_555 1_555
C6 C7 1_555 1_555
C10 C11 1_555 1_555
C14 C15 1_555 1_555
C28 C29 1_555 1_555
C33 C34 1_555 1_555
C39 C40 1_555 1_555
N3F C23F 1_555 1_555
N4F C4F 1_555 1_555
N5F C17F 1_555 1_555
N7F C18F 1_555 1_555
N8F C8F 1_555 1_555
N9F C19F 1_555 1_555
N11F C20F 1_555 1_555
N12F C12F 1_555 1_555
N13F C21F 1_555 1_555
N15F C22F 1_555 1_555
N16F C16F 1_555 1_555
N16F C24F 1_555 1_555
C2F C3F 1_555 1_555
C6F C7F 1_555 1_555
C10F C11F 1_555 1_555
C14F C15F 1_555 1_555
C28F C29F 1_555 1_555
C33F C34F 1_555 1_555
C39F C40F 1_555 1_555

#END
