
#######################################################################
#
#                 Cambridge Crystallographic Data Centre
#                                CCDC 
#
#######################################################################
#
# If this CIF has been generated from an entry in the Cambridge 
# Structural Database, then it will include bibliographic, chemical, 
# crystal, experimental, refinement or atomic coordinate data resulting 
# from the CCDC's data processing and validation procedures.
#
#######################################################################

data_DOGKAN
_chemical_formula_moiety         'C35 H23 N3 O2,C3 H7 N1 O1'
_chemical_name_systematic        
"N,N'-bis(9-anthryl)pyridine-2,6-dicarboxamide N,N-dimethylformamide solvate"
_symmetry_cell_setting           triclinic
_symmetry_space_group_name_H-M   'P -1'
_symmetry_Int_Tables_number      2
_space_group_name_Hall           '-P 1'
loop_
_symmetry_equiv_pos_site_id
_symmetry_equiv_pos_as_xyz
1 x,y,z
2 -x,-y,-z
_cell_length_a                   9.4445(4)
_cell_length_b                   12.4788(5)
_cell_length_c                   13.8247(5)
_cell_angle_alpha                72.002(2)
_cell_angle_beta                 76.863(2)
_cell_angle_gamma                72.732(2)
_cell_volume                     1463.17
_exptl_crystal_colour            colorless
_exptl_crystal_description       'rectangular parallelepiped'
_cell_formula_units_Z            2
loop_
_atom_site_label
_atom_site_type_symbol
_atom_site_fract_x
_atom_site_fract_y
_atom_site_fract_z
O1 O 0.71504(11) -0.14156(9) 0.24162(8)
O2 O 0.04757(12) 0.14879(9) 0.49730(9)
N1 N 0.38998(13) 0.03875(10) 0.35033(9)
N2 N 0.62438(14) 0.05545(10) 0.20030(9)
H1 H 0.549(2) 0.1115(16) 0.2141(13)
N3 N 0.18298(14) 0.23798(10) 0.35192(10)
H2 H 0.268(2) 0.2273(14) 0.3128(14)
C1 C 0.62225(16) -0.05346(12) 0.25670(10)
C2 C 0.49340(15) -0.06013(12) 0.34432(10)
C3 C 0.48560(17) -0.16635(12) 0.41470(11)
H3 H 0.565(2) -0.2337(16) 0.4093(13)
C4 C 0.36629(18) -0.16957(13) 0.49402(11)
H4 H 0.357(2) -0.2412(16) 0.5437(14)
C5 C 0.25666(17) -0.06818(12) 0.50019(11)
H5 H 0.1687(19) -0.0659(14) 0.5534(13)
C6 C 0.27434(16) 0.03361(12) 0.42618(10)
C7 C 0.15592(16) 0.14585(12) 0.42978(11)
C8 C 0.73810(16) 0.08612(12) 0.11705(11)
C9 C 0.69937(16) 0.13415(12) 0.01752(11)
C10 C 0.55575(17) 0.14260(13) -0.00543(12)
H6 H 0.4803(19) 0.1156(14) 0.0507(14)
C11 C 0.52229(19) 0.19092(14) -0.10309(12)
H7 H 0.425(2) 0.1960(17) -0.1189(15)
C12 C 0.63019(19) 0.23418(14) -0.18429(12)
H8 H 0.602(2) 0.2708(18) -0.2521(16)
C13 C 0.76882(18) 0.22539(13) -0.16592(12)
H9 H 0.845(2) 0.2557(16) -0.2226(14)
C14 C 0.80996(17) 0.17434(12) -0.06533(11)
C15 C 0.95267(17) 0.16372(13) -0.04592(11)
H10 H 1.029(2) 0.1920(16) -0.1025(14)
C16 C 0.99126(16) 0.11439(12) 0.05265(11)
C17 C 1.13757(17) 0.10247(14) 0.07314(12)
H11 H 1.214(2) 0.1310(15) 0.0144(14)
C18 C 1.17424(19) 0.05357(15) 0.16953(13)
H12 H 1.276(2) 0.0470(17) 0.1816(15)
C19 C 1.06678(18) 0.01274(14) 0.25225(12)
H13 H 1.098(2) -0.0273(16) 0.3209(15)
C20 C 0.92581(17) 0.02286(13) 0.23676(11)
H14 H 0.8523(19) -0.0063(14) 0.2957(13)
C21 C 0.88189(16) 0.07418(12) 0.13681(11)
C22 C 0.09647(16) 0.35492(12) 0.34663(11)
C23 C -0.04311(16) 0.39319(13) 0.31209(11)
C24 C -0.10747(18) 0.31996(14) 0.28249(12)
H15 H -0.053(2) 0.2402(16) 0.2853(13)
C25 C -0.2448(2) 0.36172(17) 0.25056(13)
H16 H -0.286(2) 0.3086(17) 0.2331(14)
C26 C -0.3256(2) 0.47896(17) 0.24539(14)
H17 H -0.423(3) 0.5061(19) 0.2213(17)
C27 C -0.26730(19) 0.55151(16) 0.27107(13)
H18 H -0.321(2) 0.6353(18) 0.2651(15)
C28 C -0.12561(17) 0.51190(13) 0.30622(11)
C29 C -0.06758(18) 0.58469(13) 0.33694(11)
H19 H -0.124(2) 0.6657(17) 0.3329(14)
C30 C 0.06919(18) 0.54582(13) 0.37329(11)
C31 C 0.1271(2) 0.61723(14) 0.40938(11)
H20 H 0.063(2) 0.6916(17) 0.4107(14)
C32 C 0.2624(2) 0.57909(15) 0.44225(12)
H21 H 0.307(2) 0.6189(16) 0.4649(14)
C33 C 0.3508(2) 0.46559(15) 0.44076(12)
H22 H 0.456(2) 0.4382(17) 0.4645(15)
C34 C 0.29907(18) 0.39265(14) 0.40957(12)
H23 H 0.362(2) 0.3113(16) 0.4081(14)
C35 C 0.15639(17) 0.42911(12) 0.37583(10)
O3 O 0.4372(4) 0.2925(3) 0.1873(3)
N4 N 0.2897(7) 0.4374(3) 0.0799(3)
C36 C 0.3917(4) 0.3903(2) 0.14156(19)
H24 H 0.4372 0.4440 0.1511
C37 C 0.2058(4) 0.3596(3) 0.0650(2)
H25 H 0.2543 0.2783 0.0946
H26 H 0.2065 0.3723 -0.0086
H27 H 0.1020 0.3777 0.0994
C38 C 0.2272(7) 0.5584(3) 0.0411(3)
H28 H 0.2863 0.6031 0.0551
H29 H 0.1235 0.5791 0.0747
H30 H 0.2290 0.5761 -0.0333
O4? O 0.4114(11) 0.2827(9) 0.1758(7)
N5? N 0.2528(12) 0.4269(11) 0.0820(9)
C39? C 0.3172(7) 0.3278(6) 0.1246(5)
H31? H 0.2789 0.2719 0.1120
C40? C 0.311(2) 0.5268(18) 0.0931(16)
H32? H 0.4025 0.4935 0.1249
H33? H 0.2340 0.5712 0.1365
H34? H 0.3327 0.5785 0.0250
C41? C 0.1266(13) 0.4691(10) 0.0318(9)
H35? H 0.0990 0.4040 0.0217
H36? H 0.1495 0.5225 -0.0351
H37? H 0.0430 0.5104 0.0737
loop_
_geom_bond_atom_site_label_1
_geom_bond_atom_site_label_2
_geom_bond_site_symmetry_1
_geom_bond_site_symmetry_2
O1 C1 1_555 1_555
O2 C7 1_555 1_555
N1 C2 1_555 1_555
N2 H1 1_555 1_555
N3 H2 1_555 1_555
C1 N2 1_555 1_555
C2 C1 1_555 1_555
C3 C2 1_555 1_555
H3 C3 1_555 1_555
C4 C3 1_555 1_555
H4 C4 1_555 1_555
C5 C4 1_555 1_555
H5 C5 1_555 1_555
C6 N1 1_555 1_555
C7 N3 1_555 1_555
C8 N2 1_555 1_555
C9 C8 1_555 1_555
C10 C9 1_555 1_555
H6 C10 1_555 1_555
C11 C10 1_555 1_555
H7 C11 1_555 1_555
C12 C11 1_555 1_555
H8 C12 1_555 1_555
C13 C12 1_555 1_555
H9 C13 1_555 1_555
C14 C9 1_555 1_555
C15 C14 1_555 1_555
H10 C15 1_555 1_555
C16 C15 1_555 1_555
C17 C16 1_555 1_555
H11 C17 1_555 1_555
C18 C17 1_555 1_555
H12 C18 1_555 1_555
C19 C18 1_555 1_555
H13 C19 1_555 1_555
C20 C19 1_555 1_555
H14 C20 1_555 1_555
C21 C8 1_555 1_555
C22 N3 1_555 1_555
C23 C22 1_555 1_555
C24 C23 1_555 1_555
H15 C24 1_555 1_555
C25 C24 1_555 1_555
H16 C25 1_555 1_555
C26 C25 1_555 1_555
H17 C26 1_555 1_555
C27 C26 1_555 1_555
H18 C27 1_555 1_555
C28 C23 1_555 1_555
C29 C28 1_555 1_555
H19 C29 1_555 1_555
C30 C29 1_555 1_555
C31 C30 1_555 1_555
H20 C31 1_555 1_555
C32 C31 1_555 1_555
H21 C32 1_555 1_555
C33 C32 1_555 1_555
H22 C33 1_555 1_555
C34 C33 1_555 1_555
H23 C34 1_555 1_555
C35 C22 1_555 1_555
O3 C36 1_555 1_555
N4 C36 1_555 1_555
C36 H24 1_555 1_555
C37 N4 1_555 1_555
H25 C37 1_555 1_555
H26 C37 1_555 1_555
H27 C37 1_555 1_555
C38 N4 1_555 1_555
H28 C38 1_555 1_555
H29 C38 1_555 1_555
H30 C38 1_555 1_555
C5 C6 1_555 1_555
C6 C7 1_555 1_555
C13 C14 1_555 1_555
C16 C21 1_555 1_555
C20 C21 1_555 1_555
C27 C28 1_555 1_555
C30 C35 1_555 1_555
C34 C35 1_555 1_555

#END
