
#######################################################################
#
#                 Cambridge Crystallographic Data Centre
#                                CCDC 
#
#######################################################################
#
# If this CIF has been generated from an entry in the Cambridge 
# Structural Database, then it will include bibliographic, chemical, 
# crystal, experimental, refinement or atomic coordinate data resulting 
# from the CCDC's data processing and validation procedures.
#
#######################################################################

data_DOGLIU
_chemical_formula_moiety         'C12 H10 Cl2 N2 P2'
_chemical_name_systematic        
cis-2,4-Dichloro-1,3-diphenyl-1,3,2,4-diazadiphosphetidine
_symmetry_cell_setting           orthorhombic
_symmetry_space_group_name_H-M   'C m c 21'
_symmetry_Int_Tables_number      36
_space_group_name_Hall           'C 2n -2'
loop_
_symmetry_equiv_pos_site_id
_symmetry_equiv_pos_as_xyz
1 x,y,z
2 1/2+x,1/2+y,z
3 -x,y,z
4 1/2-x,1/2+y,z
5 x,-y,1/2+z
6 1/2+x,1/2-y,1/2+z
7 -x,-y,1/2+z
8 1/2-x,1/2-y,1/2+z
_cell_length_a                   16.034(5)
_cell_length_b                   11.405(3)
_cell_length_c                   7.826(2)
_cell_angle_alpha                90
_cell_angle_beta                 90
_cell_angle_gamma                90
_cell_volume                     1431.12
_exptl_crystal_colour            colorless
_chemical_melting_point          153-154deg.C
_cell_formula_units_Z            4
_chemical_properties_physical    'Highly air-sensitive'
loop_
_atom_site_label
_atom_site_type_symbol
_atom_site_fract_x
_atom_site_fract_y
_atom_site_fract_z
P1 P 0.0000 0.2118(4) 0.7500
P2 P 0.0000 0.0656(4) 0.4967(8)
Cl1 Cl 0.0000 0.3811(3) 0.653(1)
Cl2 Cl 0.0000 0.1648(5) 0.2708(9)
N1 N 0.0681(5) 0.1385(7) 0.623(1)
C1 C 0.1567(3) 0.1330(7) 0.626(2)
C2 C 0.2029(5) 0.2202(6) 0.707(1)
C3 C 0.2896(5) 0.2143(7) 0.708(2)
C4 C 0.3302(3) 0.1212(8) 0.629(2)
C5 C 0.2840(5) 0.0340(7) 0.548(1)
C6 C 0.1973(5) 0.0399(6) 0.547(1)
N1B N -0.0681(5) 0.1385(7) 0.623(1)
C1B C -0.1567(3) 0.1330(7) 0.626(2)
C2B C -0.2029(5) 0.2202(6) 0.707(1)
C6B C -0.1973(5) 0.0399(6) 0.547(1)
C3B C -0.2896(5) 0.2143(7) 0.708(2)
C5B C -0.2840(5) 0.0340(7) 0.548(1)
C4B C -0.3302(3) 0.1212(8) 0.629(2)
loop_
_geom_bond_atom_site_label_1
_geom_bond_atom_site_label_2
_geom_bond_site_symmetry_1
_geom_bond_site_symmetry_2
P1 Cl1 1_555 1_555
P2 Cl2 1_555 1_555
N1 P1 1_555 1_555
C1 N1 1_555 1_555
C2 C1 1_555 1_555
C3 C2 1_555 1_555
C4 C3 1_555 1_555
C5 C4 1_555 1_555
C6 C1 1_555 1_555
N1B P1 1_555 1_555
C1B N1B 1_555 1_555
C2B C1B 1_555 1_555
C6B C1B 1_555 1_555
C3B C2B 1_555 1_555
C5B C6B 1_555 1_555
C4B C3B 1_555 1_555
P2 N1 1_555 1_555
P2 N1B 1_555 1_555
C5 C6 1_555 1_555
C5B C4B 1_555 1_555

#END
