
#######################################################################
#
#                 Cambridge Crystallographic Data Centre
#                                CCDC 
#
#######################################################################
#
# If this CIF has been generated from an entry in the Cambridge 
# Structural Database, then it will include bibliographic, chemical, 
# crystal, experimental, refinement or atomic coordinate data resulting 
# from the CCDC's data processing and validation procedures.
#
#######################################################################

data_DOGLOA
_chemical_formula_moiety         'C36 H30 N4 P2,C1 H2 Cl2'
_chemical_name_systematic        
'trans-2,4-bis(Diphenylamino)-1,3-diphenyl-1,3,2,4-diazadiphosphetidine dichloromethane solvate'
_symmetry_cell_setting           monoclinic
_symmetry_space_group_name_H-M   'P 21/c'
_symmetry_Int_Tables_number      14
_space_group_name_Hall           '-P 2ybc'
loop_
_symmetry_equiv_pos_site_id
_symmetry_equiv_pos_as_xyz
1 x,y,z
2 -x,1/2+y,1/2-z
3 -x,-y,-z
4 x,1/2-y,1/2+z
_cell_length_a                   7.795(3)
_cell_length_b                   13.533(8)
_cell_length_c                   17.046(7)
_cell_angle_alpha                90
_cell_angle_beta                 103.12(3)
_cell_angle_gamma                90
_cell_volume                     1751.24
_exptl_crystal_colour            colorless
_chemical_melting_point          274.5-275.5deg.C
_cell_formula_units_Z            2
loop_
_atom_site_label
_atom_site_type_symbol
_atom_site_fract_x
_atom_site_fract_y
_atom_site_fract_z
P1 P 0.6367(5) 0.4512(3) 0.0426(2)
N1 N 0.412(1) 0.4413(7) 0.0097(5)
N2 N 0.663(1) 0.4852(6) 0.1412(5)
C1 C 0.300(1) 0.3635(6) 0.0203(5)
C2 C 0.124(1) 0.3625(6) 0.0204(5)
C3 C 0.0143(9) 0.2858(7) 0.0076(5)
C4 C 0.081(1) 0.2102(6) 0.0459(6)
C5 C 0.257(1) 0.2112(6) 0.0867(5)
C6 C 0.3667(9) 0.2878(7) 0.0739(5)
C7 C 0.545(1) 0.5556(6) 0.1640(5)
C8 C 0.5840(9) 0.6560(7) 0.1664(5)
C9 C 0.470(1) 0.7235(5) 0.1896(5)
C10 C 0.317(1) 0.6906(7) 0.2104(5)
C11 C 0.2782(9) 0.5902(7) 0.2080(5)
C12 C 0.392(1) 0.5226(5) 0.1848(5)
C13 C 0.8045(9) 0.4468(6) 0.2020(4)
C14 C 0.928(1) 0.3832(6) 0.1820(4)
C15 C 1.0620(10) 0.3440(6) 0.2422(5)
C16 C 1.0720(10) 0.3683(6) 0.3225(4)
C17 C 0.948(1) 0.4319(7) 0.3423(3)
C18 C 0.8145(10) 0.4711(6) 0.2822(5)
N1B N 0.588(1) 0.5587(7) -0.0097(5)
P1B P 0.3633(5) 0.5488(3) -0.0426(2)
C1B C 0.700(1) 0.6365(6) -0.0203(5)
N2B N 0.337(1) 0.5148(6) -0.1412(5)
C2B C 0.876(1) 0.6375(6) -0.0204(5)
C6B C 0.6333(9) 0.7122(7) -0.0739(5)
C7B C 0.455(1) 0.4444(6) -0.1640(5)
C13B C 0.1955(9) 0.5532(6) -0.2020(4)
C3B C 0.9857(9) 0.7142(7) -0.0076(5)
C5B C 0.743(1) 0.7888(6) -0.0867(5)
C8B C 0.4160(9) 0.3440(7) -0.1664(5)
C12B C 0.608(1) 0.4774(5) -0.1848(5)
C14B C 0.072(1) 0.6168(6) -0.1820(4)
C18B C 0.1855(10) 0.5289(6) -0.2822(5)
C4B C 0.919(1) 0.7898(6) -0.0459(6)
C9B C 0.530(1) 0.2765(5) -0.1896(5)
C11B C 0.7218(9) 0.4098(7) -0.2080(5)
C15B C -0.0620(10) 0.6560(6) -0.2422(5)
C17B C 0.052(1) 0.5681(7) -0.3423(3)
C10B C 0.683(1) 0.3094(7) -0.2104(5)
C16B C -0.0720(10) 0.6317(6) -0.3225(4)
loop_
_geom_bond_atom_site_label_1
_geom_bond_atom_site_label_2
_geom_bond_site_symmetry_1
_geom_bond_site_symmetry_2
P1 N1 1_555 1_555
N1 C1 1_555 1_555
N2 P1 1_555 1_555
C1 C2 1_555 1_555
C2 C3 1_555 1_555
C3 C4 1_555 1_555
C4 C5 1_555 1_555
C5 C6 1_555 1_555
C6 C1 1_555 1_555
C7 N2 1_555 1_555
C8 C7 1_555 1_555
C9 C8 1_555 1_555
C10 C9 1_555 1_555
C11 C10 1_555 1_555
C12 C7 1_555 1_555
C13 N2 1_555 1_555
C14 C13 1_555 1_555
C15 C14 1_555 1_555
C16 C15 1_555 1_555
C17 C16 1_555 1_555
C18 C13 1_555 1_555
N1B P1 1_555 1_555
P1B N1 1_555 1_555
C1B N1B 1_555 1_555
N2B P1B 1_555 1_555
C2B C1B 1_555 1_555
C6B C1B 1_555 1_555
C7B N2B 1_555 1_555
C13B N2B 1_555 1_555
C3B C2B 1_555 1_555
C5B C6B 1_555 1_555
C8B C7B 1_555 1_555
C12B C7B 1_555 1_555
C14B C13B 1_555 1_555
C18B C13B 1_555 1_555
C4B C3B 1_555 1_555
C9B C8B 1_555 1_555
C11B C12B 1_555 1_555
C15B C14B 1_555 1_555
C17B C18B 1_555 1_555
C10B C9B 1_555 1_555
C16B C15B 1_555 1_555
C11 C12 1_555 1_555
C17 C18 1_555 1_555
N1B P1B 1_555 1_555
C5B C4B 1_555 1_555
C11B C10B 1_555 1_555
C17B C16B 1_555 1_555

#END
