
#######################################################################
#
#                 Cambridge Crystallographic Data Centre
#                                CCDC 
#
#######################################################################
#
# If this CIF has been generated from an entry in the Cambridge 
# Structural Database, then it will include bibliographic, chemical, 
# crystal, experimental, refinement or atomic coordinate data resulting 
# from the CCDC's data processing and validation procedures.
#
#######################################################################

data_DOGMAP
_chemical_formula_moiety         'C25 H26 O2'
_chemical_name_systematic        6-(4-methoxyphenyl)-1,6-diphenylhexan-1-one
_symmetry_cell_setting           orthorhombic
_symmetry_space_group_name_H-M   'P 21 21 21'
_symmetry_Int_Tables_number      19
_space_group_name_Hall           'P 2ac 2ab'
loop_
_symmetry_equiv_pos_site_id
_symmetry_equiv_pos_as_xyz
1 x,y,z
2 1/2-x,-y,1/2+z
3 1/2+x,1/2-y,-z
4 -x,1/2+y,1/2-z
_cell_length_a                   5.42580(10)
_cell_length_b                   8.18170(10)
_cell_length_c                   43.389(3)
_cell_angle_alpha                90
_cell_angle_beta                 90
_cell_angle_gamma                90
_cell_volume                     1926.14
_exptl_crystal_colour            colorless
_exptl_crystal_description       block
_cell_formula_units_Z            4
loop_
_atom_site_label
_atom_site_type_symbol
_atom_site_fract_x
_atom_site_fract_y
_atom_site_fract_z
O1 O -0.3021(2) -0.22472(15) -0.21321(2)
O2 O 0.6644(2) 0.03266(14) -0.43951(2)
C1 C 0.4958(3) -0.01941(18) -0.45536(3)
C2 C 0.2739(3) -0.09388(18) -0.40579(3)
H1 H 0.4293 -0.1356 -0.3980
H2 H 0.2592 0.0192 -0.3993
C3 C -0.2024(3) -0.25918(17) -0.30856(3)
C4 C 0.0527(3) -0.18541(17) -0.35676(3)
H3 H 0.0546 -0.0721 -0.3502
H4 H 0.1982 -0.2380 -0.3484
C5 C 0.0639(3) -0.19207(18) -0.39194(3)
H5 H 0.0807 -0.3052 -0.3983
H6 H -0.0906 -0.1515 -0.4002
C6 C -0.1778(3) -0.26905(18) -0.34362(3)
H7 H -0.3207 -0.2120 -0.3523
C7 C -0.2790(3) -0.24134(18) -0.24459(3)
C8 C -0.3956(3) -0.34142(18) -0.29433(3)
H8 H -0.5015 -0.4038 -0.3064
C9 C 0.5067(3) 0.00043(17) -0.48978(3)
C10 C 0.2756(3) -0.10140(19) -0.44089(3)
H9 H 0.2724 -0.2151 -0.4472
H10 H 0.1268 -0.0499 -0.4486
C11 C -0.0470(3) -0.16728(19) -0.28974(3)
H11 H 0.0840 -0.1108 -0.2985
C12 C -0.0168(3) -0.55853(18) -0.34518(3)
H12 H 0.1052 -0.5271 -0.3313
C13 C 0.3264(3) -0.06407(19) -0.50932(3)
H13 H 0.1972 -0.1253 -0.5012
C14 C 0.3408(3) -0.0364(2) -0.54085(3)
H14 H 0.2212 -0.0796 -0.5539
C15 C 0.7125(3) 0.11765(19) -0.53381(3)
H15 H 0.8423 0.1777 -0.5421
C16 C -0.1923(3) -0.44520(17) -0.35466(3)
C17 C -0.2030(3) -0.76759(18) -0.37659(3)
H16 H -0.2042 -0.8740 -0.3841
C18 C 0.5326(3) 0.0552(2) -0.55302(3)
H17 H 0.5401 0.0745 -0.5741
C19 C -0.0837(3) -0.1584(2) -0.25816(3)
H18 H 0.0227 -0.0967 -0.2460
C20 C -0.4363(3) -0.3340(2) -0.26277(3)
H19 H -0.5673 -0.3903 -0.2539
C21 C -0.3818(3) -0.65755(19) -0.38566(3)
H20 H -0.5062 -0.6905 -0.3990
C22 C -0.0214(3) -0.71760(18) -0.35611(3)
H21 H 0.0982 -0.7915 -0.3497
C23 C 0.7001(3) 0.09114(18) -0.50224(3)
H22 H 0.8210 0.1340 -0.4894
C24 C -0.3763(3) -0.49744(18) -0.37483(3)
H23 H -0.4972 -0.4241 -0.3811
C25 C -0.5116(3) -0.3005(2) -0.19927(3)
H24 H -0.6592 -0.2618 -0.2090
H25 H -0.5162 -0.2737 -0.1777
H26 H -0.5003 -0.4169 -0.2017
loop_
_geom_bond_atom_site_label_1
_geom_bond_atom_site_label_2
_geom_bond_site_symmetry_1
_geom_bond_site_symmetry_2
O1 C7 1_555 1_555
O2 C1 1_555 1_555
C1 C9 1_555 1_555
C2 H1 1_555 1_555
H2 C2 1_555 1_555
C3 C6 1_555 1_555
C4 H3 1_555 1_555
H4 C4 1_555 1_555
C5 C2 1_555 1_555
H5 C5 1_555 1_555
H6 C5 1_555 1_555
C6 C4 1_555 1_555
H7 C6 1_555 1_555
C7 C19 1_555 1_555
C8 C3 1_555 1_555
H8 C8 1_555 1_555
C9 C13 1_555 1_555
C10 C1 1_555 1_555
H9 C10 1_555 1_555
H10 C10 1_555 1_555
C11 C3 1_555 1_555
H11 C11 1_555 1_555
C12 H12 1_555 1_555
C13 H13 1_555 1_555
C14 C13 1_555 1_555
H14 C14 1_555 1_555
C15 H15 1_555 1_555
C16 C6 1_555 1_555
C17 H16 1_555 1_555
C18 C14 1_555 1_555
H17 C18 1_555 1_555
C19 C11 1_555 1_555
H18 C19 1_555 1_555
C20 C7 1_555 1_555
H19 C20 1_555 1_555
C21 C17 1_555 1_555
H20 C21 1_555 1_555
C22 C12 1_555 1_555
H21 C22 1_555 1_555
C23 C9 1_555 1_555
H22 C23 1_555 1_555
C24 C16 1_555 1_555
H23 C24 1_555 1_555
C25 O1 1_555 1_555
H24 C25 1_555 1_555
H25 C25 1_555 1_555
H26 C25 1_555 1_555
C2 C10 1_555 1_555
C4 C5 1_555 1_555
C8 C20 1_555 1_555
C12 C16 1_555 1_555
C15 C18 1_555 1_555
C15 C23 1_555 1_555
C17 C22 1_555 1_555
C21 C24 1_555 1_555

#END
