
#######################################################################
#
#                 Cambridge Crystallographic Data Centre
#                                CCDC 
#
#######################################################################
#
# If this CIF has been generated from an entry in the Cambridge 
# Structural Database, then it will include bibliographic, chemical, 
# crystal, experimental, refinement or atomic coordinate data resulting 
# from the CCDC's data processing and validation procedures.
#
#######################################################################

data_DOGREY
_chemical_formula_moiety         'C20 H22 F2 N2 S3 Si2'
_chemical_name_systematic        
5,6-Difluoro-4,7-bis(5-(trimethylsilyl)-2-thienyl)-2,1,3-benzothiadiazole
_symmetry_cell_setting           monoclinic
_symmetry_space_group_name_H-M   'P 21/c'
_symmetry_Int_Tables_number      14
_space_group_name_Hall           '-P 2ybc'
loop_
_symmetry_equiv_pos_site_id
_symmetry_equiv_pos_as_xyz
1 x,y,z
2 -x,1/2+y,1/2-z
3 -x,-y,-z
4 x,1/2-y,1/2+z
_cell_length_a                   6.1739(9)
_cell_length_b                   10.7483(15)
_cell_length_c                   33.914(5)
_cell_angle_alpha                90
_cell_angle_beta                 91.104(2)
_cell_angle_gamma                90
_cell_volume                     2250.08
_exptl_crystal_colour            orange
_exptl_crystal_description       plate
_cell_formula_units_Z            4
loop_
_atom_site_label
_atom_site_type_symbol
_atom_site_fract_x
_atom_site_fract_y
_atom_site_fract_z
Si1 Si 0.12635(13) 0.10576(8) 0.42438(2)
Si2 Si 1.37878(13) 0.13127(8) 0.07331(2)
S1 S 0.46909(13) 0.12736(8) 0.35858(2)
S2 S 1.03504(13) 0.10502(8) 0.13917(2)
S3 S 0.4693(3) -0.06705(16) 0.18529(5)
F1 F 0.822(2) 0.2296(14) 0.3203(4)
F2 F 1.094(3) 0.2662(17) 0.2664(6)
N1 N 0.411(4) -0.032(3) 0.2329(6)
N2 N 0.698(3) -0.0052(19) 0.1780(6)
C1 C -0.0637(5) -0.0180(3) 0.44005(11)
H1 H -0.1740 -0.0295 0.4201
H2 H -0.1295 0.0060 0.4643
H3 H 0.0144 -0.0944 0.4439
C2 C -0.0215(5) 0.2564(3) 0.41943(10)
H4 H -0.1385 0.2474 0.4006
H5 H 0.0762 0.3196 0.4106
H6 H -0.0782 0.2797 0.4445
C3 C 0.3571(5) 0.1252(3) 0.46019(10)
H7 H 0.3035 0.1545 0.4849
H8 H 0.4582 0.1844 0.4500
H9 H 0.4283 0.0466 0.4641
C4 C 0.2359(5) 0.0604(3) 0.37537(9)
C5 C 0.1461(5) -0.0130(3) 0.34633(10)
H10 H 0.0201 -0.0588 0.3498
C6 C 0.2608(5) -0.0131(3) 0.31076(10)
H11 H 0.2175 -0.0583 0.2886
C7 C 0.4442(5) 0.0608(3) 0.31214(9)
C8 C 0.5974(5) 0.0865(3) 0.28093(9)
C9 C 0.5780(5) 0.0373(3) 0.24264(9)
C10 C 0.7256(5) 0.0670(3) 0.21207(9)
C11 C 0.9071(5) 0.1450(3) 0.21700(9)
C12 C 0.9256(5) 0.1940(3) 0.25515(9)
C13 C 0.7777(5) 0.1649(3) 0.28559(9)
C14 C 1.0601(5) 0.1713(3) 0.18572(9)
C15 C 1.2421(5) 0.2455(3) 0.18723(10)
H12 H 1.2851 0.2903 0.2095
C16 C 1.3571(6) 0.2469(3) 0.15153(10)
H13 H 1.4828 0.2931 0.1482
C17 C 1.2670(5) 0.1744(3) 0.12233(9)
C18 C 1.1508(5) 0.1160(3) 0.03651(10)
H14 H 1.0821 0.1954 0.0328
H15 H 1.0470 0.0572 0.0460
H16 H 1.2062 0.0877 0.0118
C19 C 1.5222(5) -0.0211(3) 0.07768(10)
H17 H 1.5793 -0.0437 0.0526
H18 H 1.4223 -0.0838 0.0860
H19 H 1.6387 -0.0142 0.0967
C20 C 1.5749(5) 0.2545(3) 0.05976(10)
H20 H 1.6930 0.2555 0.0786
H21 H 1.5037 0.3339 0.0597
H22 H 1.6294 0.2378 0.0340
S4? S 1.0335(3) 0.29918(17) 0.31226(5)
F3? F 0.421(3) -0.048(3) 0.2302(4)
F4? F 0.664(2) 0.0202(13) 0.1771(4)
N3? N 0.834(4) 0.207(3) 0.3196(7)
N4? N 1.074(6) 0.285(3) 0.2664(10)
loop_
_geom_bond_atom_site_label_1
_geom_bond_atom_site_label_2
_geom_bond_site_symmetry_1
_geom_bond_site_symmetry_2
Si1 C1 1_555 1_555
Si2 C17 1_555 1_555
S1 C4 1_555 1_555
S2 C14 1_555 1_555
S3 N1 1_555 1_555
F1 C13 1_555 1_555
F2 C12 1_555 1_555
N1 C9 1_555 1_555
N2 S3 1_555 1_555
C1 H1 1_555 1_555
H2 C1 1_555 1_555
H3 C1 1_555 1_555
C2 Si1 1_555 1_555
H4 C2 1_555 1_555
H5 C2 1_555 1_555
H6 C2 1_555 1_555
C3 Si1 1_555 1_555
H7 C3 1_555 1_555
H8 C3 1_555 1_555
H9 C3 1_555 1_555
C4 Si1 1_555 1_555
C5 C4 1_555 1_555
H10 C5 1_555 1_555
C6 C5 1_555 1_555
H11 C6 1_555 1_555
C7 S1 1_555 1_555
C8 C7 1_555 1_555
C9 C8 1_555 1_555
C10 N2 1_555 1_555
C11 C10 1_555 1_555
C12 C11 1_555 1_555
C13 C8 1_555 1_555
C14 C11 1_555 1_555
C15 C14 1_555 1_555
H12 C15 1_555 1_555
C16 C15 1_555 1_555
H13 C16 1_555 1_555
C17 S2 1_555 1_555
C18 Si2 1_555 1_555
H14 C18 1_555 1_555
H15 C18 1_555 1_555
H16 C18 1_555 1_555
C19 Si2 1_555 1_555
H17 C19 1_555 1_555
H18 C19 1_555 1_555
H19 C19 1_555 1_555
C20 Si2 1_555 1_555
H20 C20 1_555 1_555
H21 C20 1_555 1_555
H22 C20 1_555 1_555
C6 C7 1_555 1_555
C9 C10 1_555 1_555
C12 C13 1_555 1_555
C16 C17 1_555 1_555

#END
