
#######################################################################
#
#                 Cambridge Crystallographic Data Centre
#                                CCDC 
#
#######################################################################
#
# If this CIF has been generated from an entry in the Cambridge 
# Structural Database, then it will include bibliographic, chemical, 
# crystal, experimental, refinement or atomic coordinate data resulting 
# from the CCDC's data processing and validation procedures.
#
#######################################################################

data_DOGTEY
_chemical_formula_moiety         'C10 H9 Br1 O2 S1'
_chemical_name_systematic        6-p-Bromophenyl-1,4-oxathian-2-one
_symmetry_cell_setting           monoclinic
_symmetry_space_group_name_H-M   'P 21/c'
_symmetry_Int_Tables_number      14
_space_group_name_Hall           '-P 2ybc'
loop_
_symmetry_equiv_pos_site_id
_symmetry_equiv_pos_as_xyz
1 x,y,z
2 -x,1/2+y,1/2-z
3 -x,-y,-z
4 x,1/2-y,1/2+z
_cell_length_a                   7.129(4)
_cell_length_b                   8.698(6)
_cell_length_c                   16.633(14)
_cell_angle_alpha                90
_cell_angle_beta                 97.13(6)
_cell_angle_gamma                90
_cell_volume                     1023.4
_exptl_crystal_colour            colorless
_cell_formula_units_Z            4
loop_
_atom_site_label
_atom_site_type_symbol
_atom_site_fract_x
_atom_site_fract_y
_atom_site_fract_z
Br1 Br -0.59047(6) 0.44937(5) 0.35382(3)
S1 S 0.14987(15) 0.15847(12) 0.01827(6)
O1 O 0.1090(3) 0.4573(2) 0.1122(1)
O2 O 0.2965(4) 0.5644(3) 0.0343(1)
C1 C 0.2478(5) 0.4497(4) 0.0646(2)
C2 C 0.3331(5) 0.2940(4) 0.0547(2)
C3 C -0.0152(4) 0.1985(4) 0.0896(2)
C4 C 0.0553(4) 0.3185(4) 0.1515(2)
C5 C -0.0964(4) 0.3624(3) 0.2025(2)
C6 C -0.0957(5) 0.2968(3) 0.2778(2)
C7 C -0.2413(4) 0.3254(3) 0.3238(2)
C8 C -0.3857(4) 0.4193(3) 0.2936(1)
C9 C -0.3863(4) 0.4898(4) 0.2196(2)
C10 C -0.2418(4) 0.4590(4) 0.1742(1)
H1 H 0.409(4) 0.249(3) 0.106(2)
H2 H 0.414(5) 0.299(4) 0.017(2)
H3 H -0.021(6) 0.116(5) 0.119(2)
H4 H -0.128(4) 0.221(3) 0.062(2)
H5 H 0.182(4) 0.280(3) 0.188(2)
H6 H 0.002(5) 0.233(4) 0.304(2)
H7 H -0.244(5) 0.278(4) 0.372(2)
H8 H -0.493(5) 0.555(3) 0.200(2)
H9 H -0.243(4) 0.498(3) 0.126(2)
loop_
_geom_bond_atom_site_label_1
_geom_bond_atom_site_label_2
_geom_bond_site_symmetry_1
_geom_bond_site_symmetry_2
Br1 C8 1_555 1_555
S1 C2 1_555 1_555
O1 C1 1_555 1_555
O2 C1 1_555 1_555
C1 C2 1_555 1_555
C2 H1 1_555 1_555
C3 S1 1_555 1_555
C4 O1 1_555 1_555
C5 C4 1_555 1_555
C6 C5 1_555 1_555
C7 C6 1_555 1_555
C8 C7 1_555 1_555
C9 C8 1_555 1_555
C10 C5 1_555 1_555
H2 C2 1_555 1_555
H3 C3 1_555 1_555
H4 C3 1_555 1_555
H5 C4 1_555 1_555
H6 C6 1_555 1_555
H7 C7 1_555 1_555
H8 C9 1_555 1_555
H9 C10 1_555 1_555
C3 C4 1_555 1_555
C9 C10 1_555 1_555

#END
