
#######################################################################
#
#                 Cambridge Crystallographic Data Centre
#                                CCDC 
#
#######################################################################
#
# If this CIF has been generated from an entry in the Cambridge 
# Structural Database, then it will include bibliographic, chemical, 
# crystal, experimental, refinement or atomic coordinate data resulting 
# from the CCDC's data processing and validation procedures.
#
#######################################################################

data_DOHGEM
_chemical_formula_moiety         'C11 H13 N7 S1'
_chemical_name_systematic        9-(2-((4-Imidazolyl)methylthio)ethyl)adenine
_symmetry_cell_setting           monoclinic
_symmetry_space_group_name_H-M   'P 21/c'
_symmetry_Int_Tables_number      14
_space_group_name_Hall           '-P 2ybc'
loop_
_symmetry_equiv_pos_site_id
_symmetry_equiv_pos_as_xyz
1 x,y,z
2 -x,1/2+y,1/2-z
3 -x,-y,-z
4 x,1/2-y,1/2+z
_cell_length_a                   15.495(1)
_cell_length_b                   8.345(1)
_cell_length_c                   9.926(1)
_cell_angle_alpha                90
_cell_angle_beta                 97.205(5)
_cell_angle_gamma                90
_cell_volume                     1273.35
_cell_formula_units_Z            4
loop_
_atom_site_label
_atom_site_type_symbol
_atom_site_fract_x
_atom_site_fract_y
_atom_site_fract_z
N1 N 0.0679(3) -0.0400(5) -0.1258(4)
C1 C 0.1238(4) -0.0801(6) -0.0174(6)
N2 N 0.1701(2) 0.0114(5) 0.0741(4)
C2 C 0.1532(3) 0.1658(6) 0.0447(4)
C3 C 0.0966(3) 0.2283(5) -0.0610(4)
C4 C 0.0519(3) 0.1173(6) -0.1507(5)
N3 N -0.0052(3) 0.1562(5) -0.2577(4)
N4 N 0.0976(2) 0.3954(4) -0.0577(4)
C5 C 0.1545(3) 0.4300(6) 0.0491(5)
N5 N 0.1897(2) 0.2958(5) 0.1152(3)
C6 C 0.2582(3) 0.2891(7) 0.2297(4)
C7 C 0.3437(3) 0.2328(7) 0.1875(5)
S1 S 0.38575(8) 0.3588(2) 0.0624(1)
C8 C 0.4486(4) 0.5062(8) 0.1700(6)
C9 C 0.3952(3) 0.6035(6) 0.2526(4)
N6 N 0.3333(3) 0.7114(5) 0.1940(4)
C10 C 0.2981(4) 0.7772(7) 0.2954(5)
N7 N 0.3340(3) 0.7155(6) 0.4157(4)
C11 C 0.3952(3) 0.6066(7) 0.3900(5)
H1 H -0.036(3) 0.078(6) -0.311(5)
H2 H 0.138(3) -0.198(6) -0.004(4)
H3 H -0.018(3) 0.260(6) -0.279(4)
H4 H 0.175(3) 0.547(5) 0.083(4)
H5 H 0.245(2) 0.206(5) 0.302(4)
H6 H 0.263(3) 0.391(6) 0.281(5)
H7 H 0.394(3) 0.236(6) 0.276(5)
H8 H 0.339(3) 0.121(6) 0.145(5)
H9 H 0.495(3) 0.440(5) 0.219(4)
H10 H 0.474(3) 0.588(6) 0.106(5)
H11 H 0.248(3) 0.858(6) 0.287(4)
H12 H 0.321(3) 0.749(6) 0.490(5)
H13 H 0.436(3) 0.543(6) 0.459(5)
loop_
_geom_bond_atom_site_label_1
_geom_bond_atom_site_label_2
_geom_bond_site_symmetry_1
_geom_bond_site_symmetry_2
N1 C1 1_555 1_555
C1 N2 1_555 1_555
N2 C2 1_555 1_555
C2 C3 1_555 1_555
C3 C4 1_555 1_555
C4 N1 1_555 1_555
N3 C4 1_555 1_555
N4 C3 1_555 1_555
C5 N4 1_555 1_555
N5 C2 1_555 1_555
C6 N5 1_555 1_555
C7 C6 1_555 1_555
S1 C7 1_555 1_555
C8 S1 1_555 1_555
C9 C8 1_555 1_555
N6 C9 1_555 1_555
C10 N6 1_555 1_555
N7 C10 1_555 1_555
C11 C9 1_555 1_555
H1 N3 1_555 1_555
H2 C1 1_555 1_555
H3 N3 1_555 1_555
H4 C5 1_555 1_555
H5 C6 1_555 1_555
H6 C6 1_555 1_555
H7 C7 1_555 1_555
H8 C7 1_555 1_555
H9 C8 1_555 1_555
H10 C8 1_555 1_555
H11 C10 1_555 1_555
H12 N7 1_555 1_555
H13 C11 1_555 1_555
C5 N5 1_555 1_555
N7 C11 1_555 1_555

#END
