
#######################################################################
#
#                 Cambridge Crystallographic Data Centre
#                                CCDC 
#
#######################################################################
#
# If this CIF has been generated from an entry in the Cambridge 
# Structural Database, then it will include bibliographic, chemical, 
# crystal, experimental, refinement or atomic coordinate data resulting 
# from the CCDC's data processing and validation procedures.
#
#######################################################################

data_DOHKES
_chemical_formula_moiety         'C36 H48 N1 O10 1+,F6 P1 1-'
_chemical_name_systematic        
'N-(4-((6,7,9,10,12,13,20,21,23,24,26,27-dodecahydrodibenzo[b,n][1,4,7,10,13,16,19,22]octaoxacyclotetracosin-2-ylcarbonyl)oxy)benzyl)butan-1-aminium hexafluorophosphate unknown solvate'
_symmetry_cell_setting           triclinic
_symmetry_space_group_name_H-M   'P -1'
_symmetry_Int_Tables_number      2
_space_group_name_Hall           '-P 1'
loop_
_symmetry_equiv_pos_site_id
_symmetry_equiv_pos_as_xyz
1 x,y,z
2 -x,-y,-z
_cell_length_a                   11.9860(5)
_cell_length_b                   12.2786(7)
_cell_length_c                   16.2211(9)
_cell_angle_alpha                103.393(5)
_cell_angle_beta                 110.555(5)
_cell_angle_gamma                92.801(4)
_cell_volume                     2152.18
_exptl_crystal_colour            colorless
_exptl_crystal_description       block
_cell_formula_units_Z            2
loop_
_atom_site_label
_atom_site_type_symbol
_atom_site_fract_x
_atom_site_fract_y
_atom_site_fract_z
P1 P 0.10442(12) 0.55935(13) 0.30064(12)
F1 F -0.0300(3) 0.5496(4) 0.2317(3)
F2 F 0.0560(3) 0.5801(3) 0.3812(3)
F3 F 0.0855(3) 0.4274(3) 0.2921(3)
F4 F 0.1517(3) 0.5356(3) 0.2186(3)
F5 F 0.1224(3) 0.6901(3) 0.3073(3)
F6 F 0.2376(3) 0.5678(3) 0.3688(3)
O1 O 0.8875(6) -0.0360(5) 0.3096(5)
O2 O 0.8509(7) 0.1956(6) 0.3202(6)
O3 O 0.6860(8) 0.3494(9) 0.2842(5)
O4 O 0.5092(2) -0.2363(2) 0.3041(2)
O5 O 0.6825(5) 0.6348(5) 0.0934(4)
O6 O 0.7354(2) -0.2103(2) 0.3288(2)
C1 C 0.5438(5) -0.3592(4) 0.4088(4)
H1 H 0.4614 -0.3693 0.4014
C2 C 0.6245(5) -0.4133(4) 0.4638(4)
H2 H 0.5967 -0.4630 0.4917
C3 C 0.7441(5) -0.3960(5) 0.4783(4)
H3 H 0.7998 -0.4304 0.5187
C4 C 0.7832(5) -0.3296(4) 0.4352(4)
H4 H 0.8663 -0.3192 0.4447
C5 C 0.7034(4) -0.2761(4) 0.3770(3)
C6 C 0.8576(7) -0.2131(9) 0.3358(6)
H5 H 0.8729 -0.2922 0.3193
H6 H 0.9136 -0.1757 0.3989
C7 C 0.8738(9) -0.1533(7) 0.2729(6)
H7 H 0.9460 -0.1734 0.2598
H8 H 0.8032 -0.1765 0.2147
C8 C 0.9088(7) 0.0252(6) 0.2519(6)
H9 H 0.8357 0.0126 0.1959
H10 H 0.9751 -0.0025 0.2337
C9 C 0.9402(7) 0.1452(6) 0.2971(7)
H11 H 1.0127 0.1566 0.3533
H12 H 0.9614 0.1842 0.2565
C10 C 0.8783(8) 0.3176(6) 0.3607(6)
H13 H 0.8656 0.3353 0.4192
H14 H 0.9642 0.3422 0.3743
C11 C 0.8082(6) 0.3779(6) 0.3045(6)
H15 H 0.8233 0.3628 0.2470
H16 H 0.8320 0.4598 0.3349
C12 C 0.6005(4) 0.4102(4) 0.2323(4)
C13 C 0.6337(4) 0.4853(4) 0.1899(4)
H17 H 0.7152 0.4990 0.1957
C14 C 0.5477(5) 0.5406(4) 0.1391(4)
C15 C 0.4285(4) 0.5207(4) 0.1306(4)
H18 H 0.3698 0.5584 0.0959
C16 C 0.3953(4) 0.4455(4) 0.1730(4)
H19 H 0.3139 0.4319 0.1672
C17 C 0.4813(5) 0.3903(4) 0.2238(4)
C18 C 0.5848(8) 0.6203(7) 0.0963(6)
C19 C 0.6041(5) 0.7992(4) -0.0054(3)
H20 H 0.6827 0.7829 0.0241
C20 C 0.5863(4) 0.8702(4) -0.0617(3)
H21 H 0.6537 0.9049 -0.0688
C21 C 0.4705(4) 0.8925(3) -0.1090(3)
C22 C 0.3762(4) 0.8458(3) -0.0916(3)
H22 H 0.2974 0.8624 -0.1199
C23 C 0.3941(5) 0.7755(4) -0.0340(3)
H23 H 0.3281 0.7436 -0.0236
C24 C 0.4486(4) 0.9635(3) -0.1742(3)
H24 H 0.3779 1.0021 -0.1746
H25 H 0.5193 1.0222 -0.1540
C25 C 0.3844(4) 0.9553(4) -0.3373(3)
H26 H 0.4412 1.0256 -0.3197
H27 H 0.3052 0.9774 -0.3398
C26 C 0.3722(6) 0.8877(5) -0.4309(4)
H28 H 0.3158 0.8171 -0.4489
H29 H 0.4515 0.8666 -0.4291
C27 C 0.3251(7) 0.9559(6) -0.5032(4)
H30 H 0.3695 1.0337 -0.4786
H31 H 0.3399 0.9196 -0.5589
C28 C 0.1963(7) 0.9602(7) -0.5265(5)
H32 H 0.1679 1.0020 -0.5728
H33 H 0.1821 0.9984 -0.4717
H34 H 0.1525 0.8831 -0.5506
N1 N 0.4270(3) 0.8947(3) -0.2674(2)
H35 H 0.4974 0.8690 -0.2684
H36 H 0.3710 0.8326 -0.2814
C29 C 0.5081(5) 0.7522(3) 0.0079(3)
O7 O 0.4955(7) 0.6804(7) 0.0620(5)
C30 C 0.5818(4) -0.2903(3) 0.3644(3)
O8 O 0.4723(15) 0.332(2) 0.2532(15)
C31 C 0.3480(8) 0.3350(7) 0.2362(8)
H37 H 0.3348 0.4138 0.2573
H38 H 0.3009 0.3076 0.1697
C32 C 0.3084(10) 0.2667(8) 0.2821(8)
H39 H 0.3600 0.2928 0.3478
H40 H 0.2255 0.2797 0.2765
O9 O 0.3081(7) 0.1495(8) 0.2529(9)
C33 C 0.2280(8) 0.0625(7) 0.2340(9)
H41 H 0.1546 0.0774 0.1881
H42 H 0.2106 0.0707 0.2903
C34 C 0.2302(9) -0.0538(9) 0.2034(9)
H43 H 0.1792 -0.0952 0.2261
H44 H 0.1934 -0.0766 0.1359
O10 O 0.342(3) -0.0868(17) 0.230(3)
C35 C 0.3291(13) -0.2072(14) 0.1985(10)
H45 H 0.3674 -0.2270 0.1530
H46 H 0.2425 -0.2377 0.1674
C36 C 0.3828(11) -0.261(2) 0.2717(15)
H47 H 0.3545 -0.2328 0.3221
H48 H 0.3581 -0.3439 0.2485
O11? O 0.4566(16) 0.320(2) 0.2731(16)
O12? O 0.3470(8) 0.1313(8) 0.2876(9)
O13? O 0.324(3) -0.0942(18) 0.248(3)
O14? O 0.3741(7) 0.6022(5) 0.0482(5)
O15? O 0.5613(9) 0.6818(8) 0.0700(7)
C37? C 0.5344(6) 0.4025(6) 0.2236(5)
C38? C 0.4775(4) 0.4682(5) 0.1665(5)
H49? H 0.3925 0.4655 0.1460
C39? C 0.5448(5) 0.5378(5) 0.1393(5)
C40? C 0.6691(5) 0.5418(5) 0.1693(5)
H50? H 0.7151 0.5893 0.1508
C41? C 0.7261(4) 0.4761(6) 0.2265(5)
H51? H 0.8110 0.4787 0.2470
C42? C 0.6588(6) 0.4064(6) 0.2536(5)
C43? C 0.3414(10) 0.2431(8) 0.3354(8)
H52? H 0.2644 0.2442 0.3452
H53? H 0.4078 0.2648 0.3960
C44? C 0.2688(9) 0.0792(8) 0.3025(9)
H54? H 0.1938 0.1131 0.2827
H55? H 0.2948 0.0892 0.3692
C45? C 0.2429(10) -0.0395(8) 0.2577(9)
H56? H 0.2053 -0.0765 0.2916
H57? H 0.1807 -0.0490 0.1962
C46? C 0.3144(14) -0.2134(15) 0.2163(11)
H58? H 0.3412 -0.2318 0.1641
H59? H 0.2289 -0.2467 0.1939
C47? C 0.3840(12) -0.264(2) 0.2850(16)
H60? H 0.3610 -0.3470 0.2638
H61? H 0.3675 -0.2360 0.3413
C48? C 0.4810(9) 0.6085(8) 0.0801(7)
C49? C 0.3501(9) 0.3207(9) 0.2876(8)
H62? H 0.2814 0.3016 0.2282
H63? H 0.3466 0.3972 0.3225
O16? O 0.7027(15) 0.342(2) 0.3186(12)
O17? O 0.8603(15) 0.1870(11) 0.3646(11)
C50? C 0.9593(13) 0.1529(11) 0.3493(13)
H64? H 1.0315 0.1842 0.4056
H65? H 0.9690 0.1837 0.3005
C51? C 0.9517(12) 0.0344(10) 0.3234(12)
H66? H 1.0104 0.0177 0.2934
H67? H 0.9823 0.0107 0.3807
O18? O 0.8471(12) -0.0376(9) 0.2681(10)
C52? C 0.8268(12) 0.3676(11) 0.3701(12)
H68? H 0.8675 0.3800 0.3287
H69? H 0.8408 0.4404 0.4166
C53? C 0.8763(14) 0.3004(10) 0.4089(11)
H70? H 0.8525 0.3055 0.4621
H71? H 0.9639 0.3272 0.4336
C54? C 0.8476(17) -0.1547(12) 0.2444(11)
H72? H 0.7800 -0.1877 0.1854
H73? H 0.9229 -0.1685 0.2342
C55? C 0.8384(14) -0.2137(18) 0.3063(12)
H74? H 0.9096 -0.1845 0.3636
H75? H 0.8437 -0.2940 0.2814
loop_
_geom_bond_atom_site_label_1
_geom_bond_atom_site_label_2
_geom_bond_site_symmetry_1
_geom_bond_site_symmetry_2
P1 F1 1_555 1_555
F2 P1 1_555 1_555
F3 P1 1_555 1_555
F4 P1 1_555 1_555
F5 P1 1_555 1_555
F6 P1 1_555 1_555
O1 C7 1_555 1_555
O2 C9 1_555 1_555
O3 C11 1_555 1_555
O4 C30 1_555 1_555
O5 C18 1_555 1_555
O6 C5 1_555 1_555
C1 H1 1_555 1_555
C2 C1 1_555 1_555
H2 C2 1_555 1_555
C3 C2 1_555 1_555
H3 C3 1_555 1_555
C4 C3 1_555 1_555
H4 C4 1_555 1_555
C5 C4 1_555 1_555
C6 O6 1_555 1_555
H5 C6 1_555 1_555
H6 C6 1_555 1_555
C7 C6 1_555 1_555
H7 C7 1_555 1_555
H8 C7 1_555 1_555
C8 O1 1_555 1_555
H9 C8 1_555 1_555
H10 C8 1_555 1_555
C9 C8 1_555 1_555
H11 C9 1_555 1_555
H12 C9 1_555 1_555
C10 O2 1_555 1_555
H13 C10 1_555 1_555
H14 C10 1_555 1_555
C11 C10 1_555 1_555
H15 C11 1_555 1_555
H16 C11 1_555 1_555
C12 O3 1_555 1_555
C13 C12 1_555 1_555
H17 C13 1_555 1_555
C14 C13 1_555 1_555
C15 C14 1_555 1_555
H18 C15 1_555 1_555
C16 C15 1_555 1_555
H19 C16 1_555 1_555
C17 C12 1_555 1_555
C18 C14 1_555 1_555
C19 H20 1_555 1_555
C20 C19 1_555 1_555
H21 C20 1_555 1_555
C21 C20 1_555 1_555
C22 C21 1_555 1_555
H22 C22 1_555 1_555
C23 C22 1_555 1_555
H23 C23 1_555 1_555
C24 C21 1_555 1_555
H24 C24 1_555 1_555
H25 C24 1_555 1_555
C25 H26 1_555 1_555
H27 C25 1_555 1_555
C26 C25 1_555 1_555
H28 C26 1_555 1_555
H29 C26 1_555 1_555
C27 C26 1_555 1_555
H30 C27 1_555 1_555
H31 C27 1_555 1_555
C28 C27 1_555 1_555
H32 C28 1_555 1_555
H33 C28 1_555 1_555
H34 C28 1_555 1_555
N1 C24 1_555 1_555
H35 N1 1_555 1_555
H36 N1 1_555 1_555
C29 C19 1_555 1_555
O7 C18 1_555 1_555
C30 C1 1_555 1_555
O8 C17 1_555 1_555
C31 O8 1_555 1_555
H37 C31 1_555 1_555
H38 C31 1_555 1_555
C32 C31 1_555 1_555
H39 C32 1_555 1_555
H40 C32 1_555 1_555
O9 C32 1_555 1_555
C33 O9 1_555 1_555
H41 C33 1_555 1_555
H42 C33 1_555 1_555
C34 C33 1_555 1_555
H43 C34 1_555 1_555
H44 C34 1_555 1_555
O10 C34 1_555 1_555
C35 O10 1_555 1_555
H45 C35 1_555 1_555
H46 C35 1_555 1_555
C36 O4 1_555 1_555
H47 C36 1_555 1_555
H48 C36 1_555 1_555
C5 C30 1_555 1_555
C16 C17 1_555 1_555
C23 C29 1_555 1_555
C25 N1 1_555 1_555
C29 O7 1_555 1_555
C35 C36 1_555 1_555

#END
