
#######################################################################
#
#                 Cambridge Crystallographic Data Centre
#                                CCDC 
#
#######################################################################
#
# If this CIF has been generated from an entry in the Cambridge 
# Structural Database, then it will include bibliographic, chemical, 
# crystal, experimental, refinement or atomic coordinate data resulting 
# from the CCDC's data processing and validation procedures.
#
#######################################################################

data_DOHSEZ
_chemical_name_common            
"C-Isobutylcalix(4)resorcinarene bis(4,4'-bipyridine) acetonitrile dihydrate clathrate"
_chemical_formula_moiety         'C44 H56 O8,2(C10 H8 N2),C2 H3 N1,2(H2 O1)'
_chemical_name_systematic        
"2,8,14,20-Tetraisobutyl-4,6,10,12,16,18,22,24-octahydroxycalix(4)arene bis(4,4'-bipyridine) acetonitrile dihydrate clathrate"
_symmetry_cell_setting           monoclinic
_symmetry_space_group_name_H-M   'P 2/n'
_symmetry_Int_Tables_number      13
_space_group_name_Hall           '-P 2yac'
loop_
_symmetry_equiv_pos_site_id
_symmetry_equiv_pos_as_xyz
1 x,y,z
2 1/2-x,y,1/2-z
3 -x,-y,-z
4 1/2+x,-y,1/2+z
_cell_length_a                   17.4163(12)
_cell_length_b                   9.2246(7)
_cell_length_c                   19.6092(14)
_cell_angle_alpha                90
_cell_angle_beta                 93.522(2)
_cell_angle_gamma                90
_cell_volume                     3144.43
_exptl_crystal_colour            'light yellow'
_exptl_crystal_description       block
_chemical_melting_point          265-270deg.C
_cell_formula_units_Z            2
loop_
_atom_site_label
_atom_site_type_symbol
_atom_site_fract_x
_atom_site_fract_y
_atom_site_fract_z
O1 O 0.10389(9) 0.13849(18) 0.44688(9)
H1 H 0.0704 0.1496 0.4161
O2 O 0.37348(9) 0.14548(18) 0.47457(8)
H2 H 0.4103 0.1617 0.4516
O3 O 0.50173(9) 0.19394(17) 0.40097(7)
H3 H 0.5339 0.1298 0.3980
O4 O 0.51245(9) 0.17250(18) 0.15661(8)
H4 H 0.5432 0.1081 0.1677
C1 C 0.17006(12) 0.2063(2) 0.42983(10)
C2 C 0.23880(12) 0.1458(2) 0.45585(11)
H5 H 0.2381 0.0604 0.4810
C3 C 0.30840(12) 0.2117(2) 0.44457(10)
C4 C 0.31136(11) 0.3383(2) 0.40620(10)
C5 C 0.24136(11) 0.3939(2) 0.37918(10)
H6 H 0.2424 0.4758 0.3516
C6 C 0.16975(11) 0.3337(2) 0.39114(9)
C7 C 0.47834(11) 0.2420(2) 0.33679(10)
C8 C 0.42267(11) 0.3516(2) 0.33102(10)
C9 C 0.40046(10) 0.3994(2) 0.26542(10)
H7 H 0.3632 0.4717 0.2608
C10 C 0.43063(11) 0.3456(2) 0.20610(10)
C11 C 0.48439(11) 0.2328(2) 0.21423(11)
C12 C 0.50872(12) 0.1827(2) 0.27885(11)
H8 H 0.5454 0.1095 0.2834
C13 C 0.38769(11) 0.4136(2) 0.39415(10)
H9 H 0.4231 0.3899 0.4333
C14 C 0.37970(12) 0.5804(2) 0.39263(12)
H10 H 0.3290 0.6268 0.3920
C15 C 0.4539(3) 0.6621(5) 0.4216(3)
C16 C 0.5213(5) 0.6168(13) 0.4109(7)
C17 C 0.4349(4) 0.8241(6) 0.4234(4)
C21 C 0.09473(11) 0.4050(2) 0.36444(10)
H11 H 0.0553 0.3768 0.3954
C22 C 0.09836(13) 0.5722(2) 0.36510(12)
H12 H 0.0487 0.6098 0.3485
H13 H 0.1359 0.6033 0.3336
C23 C 0.1198(2) 0.6398(3) 0.43634(18)
C24 C 0.0700(6) 0.6133(11) 0.4885(4)
C25 C 0.1147(19) 0.8135(14) 0.4256(12)
O1A O 0.39611(9) 0.13849(18) 0.05312(9)
H1A H 0.4296 0.1496 0.0839
O2A O 0.12652(9) 0.14548(18) 0.02543(8)
H2A H 0.0897 0.1617 0.0484
O3A O -0.00173(9) 0.19394(17) 0.09903(7)
H3A H -0.0339 0.1298 0.1020
O4A O -0.01245(9) 0.17250(18) 0.34339(8)
H4A H -0.0432 0.1081 0.3323
C1A C 0.32994(12) 0.2063(2) 0.07017(10)
C2A C 0.26120(12) 0.1458(2) 0.04415(11)
H5A H 0.2619 0.0604 0.0190
C3A C 0.19160(12) 0.2117(2) 0.05543(10)
C4A C 0.18864(11) 0.3383(2) 0.09380(10)
C5A C 0.25864(11) 0.3939(2) 0.12082(10)
H6A H 0.2576 0.4758 0.1484
C6A C 0.33025(11) 0.3337(2) 0.10886(9)
C7A C 0.02166(11) 0.2420(2) 0.16321(10)
C8A C 0.07733(11) 0.3516(2) 0.16898(10)
C9A C 0.09954(10) 0.3994(2) 0.23458(10)
H7A H 0.1368 0.4717 0.2392
C10A C 0.06937(11) 0.3456(2) 0.29390(10)
C11A C 0.01561(11) 0.2328(2) 0.28577(11)
C12A C -0.00872(12) 0.1827(2) 0.22115(11)
H8A H -0.0454 0.1095 0.2166
C13A C 0.11231(11) 0.4136(2) 0.10585(10)
H9A H 0.0769 0.3899 0.0667
C14A C 0.12030(12) 0.5804(2) 0.10737(12)
H10A H 0.1710 0.6268 0.1080
C15A C 0.0461(3) 0.6621(5) 0.0784(3)
C16A C -0.0213(5) 0.6168(13) 0.0891(7)
C17A C 0.0651(4) 0.8241(6) 0.0766(4)
C21A C 0.40527(11) 0.4050(2) 0.13556(10)
H11A H 0.4447 0.3768 0.1046
C22A C 0.40164(13) 0.5722(2) 0.13490(12)
H12A H 0.4513 0.6098 0.1515
H13A H 0.3641 0.6033 0.1664
C23A C 0.3802(2) 0.6398(3) 0.06366(18)
C24A C 0.4300(6) 0.6133(11) 0.0115(4)
C25A C 0.3853(19) 0.8135(14) 0.0744(12)
O5 O 0.62215(10) 0.0126(2) 0.39943(11)
H24 H 0.6321(16) -0.030(3) 0.4396(16)
H25 H 0.664(2) 0.065(4) 0.3943(17)
N1 N 0.27135(16) 0.7628(3) 0.62682(15)
N2 N 0.09374(15) 0.0813(3) 0.67600(12)
C28 C 0.2958(2) 0.6421(4) 0.5986(2)
H14 H 0.3370 0.6486 0.5708
C29 C 0.26359(18) 0.5065(3) 0.60807(19)
H15 H 0.2834 0.4250 0.5874
C30 C 0.20135(14) 0.4943(3) 0.64879(13)
C31 C 0.16384(14) 0.3519(3) 0.65883(13)
C32 C 0.1536(2) 0.2535(3) 0.60646(15)
H16 H 0.1704 0.2760 0.5636
C33 C 0.1188(2) 0.1227(3) 0.61656(15)
H17 H 0.1125 0.0594 0.5797
C34 C 0.1031(2) 0.1761(4) 0.72716(16)
H18 H 0.0861 0.1500 0.7695
C35 C 0.13667(19) 0.3106(3) 0.72092(15)
H19 H 0.1410 0.3732 0.7581
C36 C 0.17573(16) 0.6202(3) 0.67834(16)
H20 H 0.1345 0.6176 0.7063
C37 C 0.21191(18) 0.7494(3) 0.66589(18)
H21 H 0.1936 0.8327 0.6861
N3 N 0.7500 0.2303(8) 0.7500
C38 C 0.7500 -0.0553(16) 0.7500
H22 H 0.7500 -0.1561 0.7500
H23 H 0.6977(8) -0.036(4) 0.7547(17)
C39 C 0.7500 0.1024(9) 0.7500
H23A H 0.8023(8) -0.036(4) 0.7453(17)
C18? C 0.4529(3) 0.6668(5) 0.3706(3)
C19? C 0.5222(7) 0.6387(11) 0.3774(8)
C20? C 0.4336(5) 0.8322(7) 0.3744(5)
C26? C 0.4599(13) 0.709(4) 0.0402(14)
C27? C 0.3387(9) 0.7803(13) 0.0714(7)
loop_
_geom_bond_atom_site_label_1
_geom_bond_atom_site_label_2
_geom_bond_site_symmetry_1
_geom_bond_site_symmetry_2
O1 H1 1_555 1_555
O2 H2 1_555 1_555
O3 H3 1_555 1_555
O4 H4 1_555 1_555
O5 H24 1_555 1_555
N1 C28 1_555 1_555
N2 C33 1_555 1_555
C1 O1 1_555 1_555
C2 C1 1_555 1_555
H5 C2 1_555 1_555
C3 O2 1_555 1_555
C4 C3 1_555 1_555
C5 C4 1_555 1_555
H6 C5 1_555 1_555
C6 C1 1_555 1_555
C7 O3 1_555 1_555
C8 C7 1_555 1_555
C9 C8 1_555 1_555
H7 C9 1_555 1_555
C10 C9 1_555 1_555
C11 O4 1_555 1_555
C12 C7 1_555 1_555
H8 C12 1_555 1_555
C13 C4 1_555 1_555
H9 C13 1_555 1_555
C14 C13 1_555 1_555
H10 C14 1_555 1_555
C15 C14 1_555 1_555
C16 C15 1_555 1_555
C17 C15 1_555 1_555
C21 C6 1_555 1_555
H11 C21 1_555 1_555
C22 C21 1_555 1_555
H12 C22 1_555 1_555
H13 C22 1_555 1_555
C23 C22 1_555 1_555
C24 C23 1_555 1_555
C25 C23 1_555 1_555
C28 H14 1_555 1_555
C29 C28 1_555 1_555
H15 C29 1_555 1_555
C30 C29 1_555 1_555
C31 C30 1_555 1_555
C32 C31 1_555 1_555
H16 C32 1_555 1_555
C33 C32 1_555 1_555
H17 C33 1_555 1_555
C34 N2 1_555 1_555
H18 C34 1_555 1_555
C35 C31 1_555 1_555
H19 C35 1_555 1_555
C36 C30 1_555 1_555
H20 C36 1_555 1_555
C37 N1 1_555 1_555
H21 C37 1_555 1_555
N3 C39 1_555 1_555
C38 H22 1_555 1_555
H23 C38 1_555 1_555
C39 C38 1_555 1_555
H25 O5 1_555 1_555
O1A H1A 1_555 1_555
O2A H2A 1_555 1_555
O3A H3A 1_555 1_555
O4A H4A 1_555 1_555
C1A O1A 1_555 1_555
C2A C1A 1_555 1_555
H5A C2A 1_555 1_555
C3A O2A 1_555 1_555
C4A C3A 1_555 1_555
C5A C4A 1_555 1_555
H6A C5A 1_555 1_555
C6A C1A 1_555 1_555
C7A O3A 1_555 1_555
C8A C7A 1_555 1_555
C9A C8A 1_555 1_555
H7A C9A 1_555 1_555
C10A C21 1_555 1_555
C11A O4A 1_555 1_555
C12A C7A 1_555 1_555
H8A C12A 1_555 1_555
C13A C4A 1_555 1_555
H9A C13A 1_555 1_555
C14A C13A 1_555 1_555
H10A C14A 1_555 1_555
C15A C14A 1_555 1_555
C16A C15A 1_555 1_555
C17A C15A 1_555 1_555
C21A C10 1_555 1_555
H11A C21A 1_555 1_555
C22A C21A 1_555 1_555
H12A C22A 1_555 1_555
H13A C22A 1_555 1_555
C23A C22A 1_555 1_555
C24A C23A 1_555 1_555
C25A C23A 1_555 1_555
H23A C38 1_555 1_555
C2 C3 1_555 1_555
C5 C6 1_555 1_555
C8 C13 1_555 1_555
C10 C11 1_555 1_555
C11 C12 1_555 1_555
C34 C35 1_555 1_555
C36 C37 1_555 1_555
C2A C3A 1_555 1_555
C5A C6A 1_555 1_555
C6A C21A 1_555 1_555
C8A C13A 1_555 1_555
C9A C10A 1_555 1_555
C10A C11A 1_555 1_555
C11A C12A 1_555 1_555

#END
