
#######################################################################
#
#                 Cambridge Crystallographic Data Centre
#                                CCDC 
#
#######################################################################
#
# If this CIF has been generated from an entry in the Cambridge 
# Structural Database, then it will include bibliographic, chemical, 
# crystal, experimental, refinement or atomic coordinate data resulting 
# from the CCDC's data processing and validation procedures.
#
#######################################################################

data_DOJKIW
_chemical_formula_moiety         'C22 H17 N3 O1 S1'
_chemical_name_systematic        
5-Amino-2-phenyl-4-(9H-thioxanthen-9-yl)-1,2-dihydro-3H-pyrazol-3-one
_symmetry_cell_setting           monoclinic
_symmetry_space_group_name_H-M   'P 21/c'
_symmetry_Int_Tables_number      14
_space_group_name_Hall           '-P 2ybc'
loop_
_symmetry_equiv_pos_site_id
_symmetry_equiv_pos_as_xyz
1 x,y,z
2 -x,1/2+y,1/2-z
3 -x,-y,-z
4 x,1/2-y,1/2+z
_cell_length_a                   18.179(4)
_cell_length_b                   8.333(1)
_cell_length_c                   11.961(7)
_cell_angle_alpha                90
_cell_angle_beta                 95.88(3)
_cell_angle_gamma                90
_cell_volume                     1802.39
_cell_formula_units_Z            4
loop_
_atom_site_label
_atom_site_type_symbol
_atom_site_fract_x
_atom_site_fract_y
_atom_site_fract_z
N1 N 0.1360(2) -0.1918(4) 0.5894(3)
N2 N 0.1238(2) -0.2372(4) 0.4751(3)
C1 C 0.1747(2) -0.1568(4) 0.4161(3)
C2 C 0.2251(2) -0.0761(4) 0.4960(3)
C3 C 0.2017(2) -0.1070(5) 0.5995(3)
O1 O 0.1731(2) -0.1624(3) 0.3117(2)
N3 N 0.2304(2) -0.0660(5) 0.7047(3)
C4 C 0.2915(2) 0.0146(4) 0.4618(3)
C5 C 0.3628(2) -0.0811(4) 0.4857(3)
C6 C 0.3812(2) -0.1957(5) 0.4078(3)
C7 C 0.4441(3) -0.2905(5) 0.4286(4)
C8 C 0.4901(2) -0.2714(5) 0.5271(4)
C9 C 0.4738(2) -0.1568(5) 0.6047(3)
C10 C 0.4109(2) -0.0615(4) 0.5834(3)
S1 S 0.3957(1) 0.0841(2) 0.6860(1)
C11 C 0.3410(2) 0.2258(4) 0.6065(3)
C12 C 0.3424(3) 0.3824(5) 0.6480(3)
C13 C 0.3010(3) 0.5002(5) 0.5904(4)
C14 C 0.2593(3) 0.4621(5) 0.4903(4)
C15 C 0.2575(2) 0.3056(5) 0.4491(3)
C16 C 0.2977(2) 0.1838(4) 0.5076(3)
C17 C 0.0504(2) -0.2805(4) 0.4321(3)
C18 C -0.0094(2) -0.2192(5) 0.4791(4)
C19 C -0.0805(3) -0.2615(3) 0.4334(5)
C20 C -0.0901(3) -0.3658(6) 0.3432(4)
C21 C -0.0300(3) -0.4277(7) 0.2985(4)
C22 C 0.0410(2) -0.3866(5) 0.3430(3)
H1 H 0.126(3) -0.285(6) 0.648(4)
H2 H 0.213(2) -0.130(5) 0.758(3)
H3 H 0.280(2) -0.029(5) 0.717(3)
H4 H 0.282(2) 0.026(4) 0.372(3)
H5 H 0.345(2) -0.212(5) 0.329(3)
H6 H 0.457(3) -0.370(5) 0.364(4)
H7 H 0.539(3) -0.333(5) 0.545(4)
H8 H 0.506(2) -0.137(5) 0.682(3)
H9 H 0.375(3) 0.411(6) 0.725(4)
H10 H 0.303(3) 0.622(6) 0.625(4)
H11 H 0.228(3) 0.547(6) 0.450(4)
H12 H 0.225(2) 0.279(5) 0.374(3)
H13 H 0.000(3) -0.148(5) 0.547(3)
H14 H -0.123(3) -0.217(6) 0.461(4)
H15 H -0.144(3) -0.393(5) 0.303(4)
H16 H -0.038(3) -0.511(6) 0.236(4)
H17 H 0.089(2) -0.424(5) 0.306(4)
loop_
_geom_bond_atom_site_label_1
_geom_bond_atom_site_label_2
_geom_bond_site_symmetry_1
_geom_bond_site_symmetry_2
N1 N2 1_555 1_555
N2 C1 1_555 1_555
C1 C2 1_555 1_555
C2 C3 1_555 1_555
C3 N1 1_555 1_555
O1 C1 1_555 1_555
N3 C3 1_555 1_555
C4 C2 1_555 1_555
C5 C4 1_555 1_555
C6 C5 1_555 1_555
C7 C6 1_555 1_555
C8 C7 1_555 1_555
C9 C8 1_555 1_555
C10 C5 1_555 1_555
S1 C10 1_555 1_555
C11 S1 1_555 1_555
C12 C11 1_555 1_555
C13 C12 1_555 1_555
C14 C13 1_555 1_555
C15 C14 1_555 1_555
C16 C4 1_555 1_555
C17 N2 1_555 1_555
C18 C17 1_555 1_555
C19 C18 1_555 1_555
C20 C19 1_555 1_555
C21 C20 1_555 1_555
C22 C17 1_555 1_555
H1 N1 1_555 1_555
H2 N3 1_555 1_555
H3 N3 1_555 1_555
H4 C4 1_555 1_555
H5 C6 1_555 1_555
H6 C7 1_555 1_555
H7 C8 1_555 1_555
H8 C9 1_555 1_555
H9 C12 1_555 1_555
H10 C13 1_555 1_555
H11 C14 1_555 1_555
H12 C15 1_555 1_555
H13 C18 1_555 1_555
H14 C19 1_555 1_555
H15 C20 1_555 1_555
H16 C21 1_555 1_555
H17 C22 1_555 1_555
C9 C10 1_555 1_555
C11 C16 1_555 1_555
C15 C16 1_555 1_555
C21 C22 1_555 1_555

#END
