
#######################################################################
#
#                 Cambridge Crystallographic Data Centre
#                                CCDC 
#
#######################################################################
#
# If this CIF has been generated from an entry in the Cambridge 
# Structural Database, then it will include bibliographic, chemical, 
# crystal, experimental, refinement or atomic coordinate data resulting 
# from the CCDC's data processing and validation procedures.
#
#######################################################################

data_DOJWOQ
_chemical_formula_moiety         '3(C40 H44 N24 O12),2(C9 H13 N2 1+),2(Cl1 1-)'
_chemical_name_systematic        
'Bis(4-(pyrrolidin-1-yl)pyridinium) tris(tetramethylcucurbit[6]uril) bis(chloride) unknown solvate'
_symmetry_cell_setting           triclinic
_symmetry_space_group_name_H-M   'P -1'
_symmetry_Int_Tables_number      2
_space_group_name_Hall           '-P 1'
loop_
_symmetry_equiv_pos_site_id
_symmetry_equiv_pos_as_xyz
1 x,y,z
2 -x,-y,-z
_cell_length_a                   14.6042(7)
_cell_length_b                   18.9617(10)
_cell_length_c                   22.6534(9)
_cell_angle_alpha                96.608(4)
_cell_angle_beta                 104.969(4)
_cell_angle_gamma                111.880(5)
_cell_volume                     5465.27
_exptl_crystal_colour            colorless
_exptl_crystal_description       block
_cell_formula_units_Z            1
loop_
_atom_site_label
_atom_site_type_symbol
_atom_site_fract_x
_atom_site_fract_y
_atom_site_fract_z
C41 C 0.8831(5) 0.9483(4) 0.1728(3)
H45 H 0.9097 0.9202 0.1483
H46 H 0.8814 0.9927 0.1558
C42 C 0.7771(6) 0.8959(6) 0.1726(3)
H47 H 0.7290 0.9201 0.1612
H48 H 0.7503 0.8464 0.1425
C43 C 0.7882(6) 0.8842(6) 0.2340(3)
H49 H 0.7817 0.8314 0.2339
H50 H 0.7327 0.8900 0.2471
C44 C 0.8888(5) 0.9397(5) 0.2786(3)
H51 H 0.8809 0.9791 0.3055
H52 H 0.9226 0.9133 0.3045
C45 C 1.0485(5) 1.0239(4) 0.2611(3)
C46 C 1.1054(5) 1.0586(4) 0.2212(3)
H53 H 1.0697 1.0489 0.1787
C47 C 1.2062(5) 1.1034(4) 0.2427(3)
H54 H 1.2410 1.1225 0.2149
C48 C 1.2116(5) 1.0943(4) 0.3444(3)
H55 H 1.2495 1.1078 0.3870
C49 C 1.1078(5) 1.0461(4) 0.3246(3)
H56 H 1.0760 1.0279 0.3538
N25 N 0.9471(4) 0.9738(3) 0.2392(2)
N26 N 1.2598(4) 1.1221(3) 0.3047(2)
H57 H 1.3255 1.1522 0.3184
C50 C 1.1920(5) 0.4043(4) 0.6311(3)
C51 C 1.0443(4) 0.3236(4) 0.6621(3)
H58 H 1.0449 0.3127 0.7030
H59 H 1.0527 0.2821 0.6380
C52 C 0.8846(5) 0.2850(4) 0.5675(3)
C53 C 0.7091(5) 0.2521(4) 0.4971(3)
H60 H 0.6455 0.2254 0.5065
H61 H 0.7238 0.2126 0.4753
C54 C 0.7117(4) 0.2979(4) 0.3999(3)
C55 C 0.6619(5) 0.3396(3) 0.3009(3)
H62 H 0.6736 0.2960 0.2832
H63 H 0.5912 0.3314 0.2783
C56 C 0.8297(5) 0.4178(4) 0.2852(3)
C57 C 1.2836(4) 0.5186(3) 0.7141(2)
C58 C 1.3865(4) 0.5375(4) 0.7652(3)
H64 H 1.3891 0.5668 0.8036
H65 H 1.4437 0.5679 0.7523
H66 H 1.3914 0.4898 0.7719
C59 C 1.1795(4) 0.4615(4) 0.7261(3)
C60 C 1.2031(5) 0.4351(4) 0.7872(3)
H67 H 1.2347 0.4796 0.8222
H68 H 1.2501 0.4107 0.7873
H69 H 1.1393 0.3984 0.7905
C61 C 0.8914(5) 0.3540(4) 0.6609(3)
H70 H 0.8812 0.3308 0.6964
C62 C 0.7847(4) 0.3343(4) 0.6095(3)
H71 H 0.7262 0.3007 0.6213
C63 C 0.6263(4) 0.3431(3) 0.4588(3)
H72 H 0.5591 0.3091 0.4619
C64 C 0.6133(4) 0.3705(3) 0.3972(3)
H73 H 0.5398 0.3483 0.3709
C65 C 1.0237(4) 0.4889(4) 0.7355(3)
H74 H 1.0165 0.5361 0.7503
H75 H 1.0222 0.4602 0.7683
C66 C 0.8658(6) 0.4679(5) 0.6487(3)
C67 C 0.6890(4) 0.4172(4) 0.5714(3)
H76 H 0.6279 0.3756 0.5743
H77 H 0.6917 0.4665 0.5911
C68 C 0.6891(4) 0.4798(4) 0.4840(3)
C69 C 0.6431(4) 0.5051(4) 0.3753(3)
H78 H 0.6470 0.5528 0.3988
H79 H 0.5747 0.4792 0.3433
N27 N 1.2764(4) 0.4748(3) 0.6555(2)
N28 N 1.1318(3) 0.3976(3) 0.6705(2)
N29 N 0.9440(4) 0.3235(3) 0.6301(3)
N30 N 0.7931(4) 0.2929(3) 0.5553(2)
N31 N 0.6914(3) 0.3020(3) 0.4552(2)
N32 N 0.6734(3) 0.3423(3) 0.3675(2)
N33 N 0.7360(3) 0.4123(3) 0.2930(2)
N34 N 0.6548(4) 0.4540(3) 0.4179(2)
N35 N 0.6775(3) 0.4152(3) 0.5067(2)
N36 N 0.7816(4) 0.4088(3) 0.6064(2)
N37 N 0.9347(4) 0.4413(3) 0.6794(2)
N38 N 1.1226(4) 0.5106(3) 0.7260(2)
O13 O 1.1684(3) 0.3564(3) 0.58357(19)
O14 O 0.9123(3) 0.2485(3) 0.5317(2)
O15 O 0.7552(3) 0.2599(2) 0.3817(2)
O16 O 0.8601(3) 0.3663(3) 0.2868(2)
O17 O 0.7208(3) 0.5452(3) 0.51259(19)
O18 O 0.8790(4) 0.5366(3) 0.6600(2)
C50A C 0.8080(5) 0.5957(4) 0.3689(3)
C51A C 0.9557(4) 0.6764(4) 0.3379(3)
H58A H 0.9551 0.6873 0.2970
H59A H 0.9473 0.7179 0.3620
C52A C 1.1154(5) 0.7150(4) 0.4325(3)
C53A C 1.2909(5) 0.7479(4) 0.5029(3)
H60A H 1.3545 0.7746 0.4935
H61A H 1.2762 0.7874 0.5247
C54A C 1.2883(4) 0.7021(4) 0.6001(3)
C55A C 1.3381(5) 0.6604(3) 0.6991(3)
H62A H 1.3264 0.7040 0.7168
H63A H 1.4088 0.6686 0.7217
C56A C 1.1703(5) 0.5822(4) 0.7148(3)
C57A C 0.7164(4) 0.4814(3) 0.2859(2)
C58A C 0.6135(4) 0.4625(4) 0.2348(3)
H64A H 0.6109 0.4332 0.1964
H65A H 0.5563 0.4321 0.2477
H66A H 0.6086 0.5102 0.2281
C59A C 0.8205(4) 0.5385(4) 0.2739(3)
C60A C 0.7969(5) 0.5649(4) 0.2128(3)
H67A H 0.7653 0.5204 0.1778
H68A H 0.7499 0.5893 0.2127
H69A H 0.8607 0.6016 0.2095
C61A C 1.1086(5) 0.6460(4) 0.3391(3)
H70A H 1.1188 0.6692 0.3036
C62A C 1.2153(4) 0.6657(4) 0.3905(3)
H71A H 1.2738 0.6993 0.3787
C63A C 1.3737(4) 0.6569(3) 0.5412(3)
H72A H 1.4409 0.6909 0.5381
C64A C 1.3867(4) 0.6295(3) 0.6028(3)
H73A H 1.4602 0.6517 0.6291
C65A C 0.9763(4) 0.5111(4) 0.2645(3)
H74A H 0.9835 0.4639 0.2497
H75A H 0.9778 0.5398 0.2317
C66A C 1.1342(6) 0.5321(5) 0.3513(3)
C67A C 1.3110(4) 0.5828(4) 0.4286(3)
H76A H 1.3721 0.6244 0.4257
H77A H 1.3083 0.5335 0.4089
C68A C 1.3109(4) 0.5202(4) 0.5160(3)
C69A C 1.3569(4) 0.4949(4) 0.6247(3)
H78A H 1.3530 0.4472 0.6012
H79A H 1.4253 0.5208 0.6567
N27A N 0.7236(4) 0.5252(3) 0.3445(2)
N28A N 0.8682(3) 0.6024(3) 0.3295(2)
N29A N 1.0560(4) 0.6765(3) 0.3699(3)
N30A N 1.2069(4) 0.7071(3) 0.4447(2)
N31A N 1.3086(3) 0.6980(3) 0.5448(2)
N32A N 1.3266(3) 0.6577(3) 0.6325(2)
N33A N 1.2640(3) 0.5877(3) 0.7070(2)
N34A N 1.3452(4) 0.5460(3) 0.5821(2)
N35A N 1.3225(3) 0.5848(3) 0.4933(2)
N36A N 1.2184(4) 0.5912(3) 0.3936(2)
N37A N 1.0653(4) 0.5587(3) 0.3206(2)
N38A N 0.8774(4) 0.4894(3) 0.2740(2)
O13A O 0.8316(3) 0.6436(3) 0.41643(19)
O14A O 1.0877(3) 0.7515(3) 0.4683(2)
O15A O 1.2448(3) 0.7401(2) 0.6183(2)
O16A O 1.1399(3) 0.6337(3) 0.7132(2)
O17A O 1.2792(3) 0.4548(3) 0.48741(19)
O18A O 1.1210(4) 0.4634(3) 0.3400(2)
C1 C 0.2909(4) 0.3807(3) 0.3295(2)
H1 H 0.2649 0.4209 0.3286
H2 H 0.3665 0.4064 0.3436
C2 C 0.3248(5) 0.3210(3) 0.2408(3)
C3 C 0.3298(4) 0.2790(4) 0.1343(3)
H3 H 0.3083 0.2985 0.0978
H4 H 0.4041 0.3100 0.1551
C4 C 0.3837(5) 0.1727(4) 0.1407(3)
C5 C 0.4095(5) 0.0503(5) 0.1301(3)
H5 H 0.4036 0.0151 0.0933
H6 H 0.4822 0.0870 0.1487
C6 C 0.4375(5) 0.0275(5) 0.2362(3)
C7 C 0.4504(5) -0.0370(5) 0.3260(3)
H7 H 0.4566 -0.0863 0.3217
H8 H 0.5202 0.0050 0.3414
C8 C 0.4404(5) 0.0290(4) 0.4217(3)
C9 C 0.4100(4) 0.0641(3) 0.5225(2)
H9 H 0.4055 0.0346 0.5548
H10 H 0.4814 0.1030 0.5344
C10 C 0.3754(4) 0.1795(3) 0.5155(2)
C11 C 0.3224(4) 0.2864(3) 0.5237(2)
H11 H 0.3964 0.3201 0.5373
H12 H 0.2927 0.3047 0.5525
C12 C 0.3291(4) 0.3336(3) 0.4252(2)
C13 C 0.1643(4) 0.2832(3) 0.4403(2)
H13 H 0.1518 0.3140 0.4726
C14 C 0.1528(4) 0.3131(3) 0.3792(3)
H14 H 0.1331 0.3572 0.3822
C15 C 0.1546(4) 0.3154(4) 0.2204(3)
H15 H 0.1396 0.3616 0.2198
C16 C 0.1688(4) 0.2855(3) 0.1570(3)
H16 H 0.1611 0.3180 0.1270
C17 C 0.2243(4) 0.1411(4) 0.0596(2)
C18 C 0.2197(5) 0.1731(4) 0.0003(3)
H17 H 0.1641 0.1343 -0.0349
H18 H 0.2848 0.1858 -0.0076
H19 H 0.2074 0.2193 0.0063
C19 C 0.2503(5) 0.0664(4) 0.0596(3)
C20 C 0.2609(5) 0.0346(4) -0.0017(3)
H20 H 0.1953 0.0163 -0.0348
H21 H 0.2808 -0.0079 0.0026
H22 H 0.3133 0.0754 -0.0117
C21 C 0.2982(5) -0.0732(4) 0.1552(3)
H23 H 0.3079 -0.1066 0.1232
C22 C 0.3138(5) -0.0995(4) 0.2187(3)
H24 H 0.3324 -0.1442 0.2171
C23 C 0.3122(6) -0.0982(4) 0.3776(3)
H25 H 0.3292 -0.1435 0.3787
C24 C 0.3046(5) -0.0657(3) 0.4429(3)
H26 H 0.3163 -0.0972 0.4729
C25 C 0.2492(4) 0.0773(3) 0.5406(2)
C26 C 0.2686(5) 0.0574(4) 0.6033(3)
H27 H 0.2047 0.0389 0.6129
H28 H 0.3197 0.1032 0.6349
H29 H 0.2939 0.0174 0.6022
C27 C 0.2199(4) 0.1504(3) 0.5394(2)
C28 C 0.2051(4) 0.1821(4) 0.5985(3)
H30 H 0.1472 0.1427 0.6055
H31 H 0.1914 0.2273 0.5942
H32 H 0.2673 0.1963 0.6335
C29 C 0.0563(4) 0.1579(4) 0.4653(3)
H33 H 0.0606 0.1927 0.5018
H34 H -0.0158 0.1202 0.4461
C30 C 0.0269(4) 0.1831(4) 0.3572(3)
C31 C 0.0151(4) 0.2510(4) 0.2701(2)
H35 H 0.0070 0.2996 0.2755
H36 H -0.0541 0.2083 0.2545
C32 C 0.0260(4) 0.1888(4) 0.1711(3)
C33 C 0.0874(5) 0.0366(4) 0.0711(2)
C34 C 0.1426(5) -0.0697(4) 0.0761(3)
H37 H 0.1657 -0.0915 0.0451
H38 H 0.0679 -0.1000 0.0649
C35 C 0.1419(6) -0.1114(4) 0.1760(3)
C36 C 0.1741(5) -0.1666(4) 0.2678(3)
H39 H 0.1999 -0.2069 0.2673
H40 H 0.0984 -0.1922 0.2529
C37 C 0.1409(6) -0.1115(4) 0.3624(3)
C38 C 0.1484(5) -0.0638(4) 0.4725(3)
H41 H 0.0746 -0.0984 0.4548
H42 H 0.1777 -0.0804 0.5089
C39 C 0.0844(5) 0.0380(4) 0.4647(3)
C40 C 0.0618(5) 0.1582(4) 0.0714(3)
H43 H -0.0114 0.1221 0.0569
H44 H 0.0724 0.1919 0.0424
N1 N 0.2543(3) 0.3331(3) 0.2675(2)
N2 N 0.2736(3) 0.2899(3) 0.1779(2)
N3 N 0.3115(4) 0.1989(3) 0.1137(2)
N4 N 0.3471(4) 0.0938(3) 0.1101(2)
N5 N 0.3804(4) 0.0057(3) 0.1743(2)
N6 N 0.3932(4) -0.0310(3) 0.2645(2)
N7 N 0.3963(4) -0.0321(3) 0.3707(2)
N8 N 0.3850(4) 0.0109(3) 0.4626(2)
N9 N 0.3419(3) 0.1036(3) 0.5207(2)
N10 N 0.3083(3) 0.2077(3) 0.5260(2)
N11 N 0.2720(3) 0.2913(3) 0.45948(19)
N12 N 0.2579(3) 0.3361(3) 0.3738(2)
N13 N 0.0719(3) 0.2444(3) 0.3309(2)
N14 N 0.0680(3) 0.2492(3) 0.2237(2)
N15 N 0.0877(3) 0.2059(3) 0.1340(2)
N16 N 0.1244(3) 0.1145(3) 0.0711(2)
N17 N 0.1615(4) 0.0101(3) 0.0722(2)
N18 N 0.1933(4) -0.0793(3) 0.1372(2)
N19 N 0.2088(4) -0.1190(3) 0.2259(2)
N20 N 0.2114(4) -0.1192(3) 0.3341(2)
N21 N 0.1989(4) -0.0723(3) 0.4258(2)
N22 N 0.1593(4) 0.0137(3) 0.4925(2)
N23 N 0.1212(3) 0.1166(3) 0.4854(2)
N24 N 0.0876(3) 0.2039(3) 0.4201(2)
O1 O 0.4158(3) 0.3366(2) 0.26884(18)
O2 O 0.4651(3) 0.2103(3) 0.18329(19)
O3 O 0.5149(3) 0.0888(3) 0.2637(2)
O4 O 0.5188(3) 0.0909(3) 0.43199(18)
O5 O 0.4535(3) 0.2148(2) 0.5015(2)
O6 O 0.4214(3) 0.3605(2) 0.43711(17)
O7 O 0.0481(4) -0.1317(2) 0.1666(2)
O8 O -0.0021(3) -0.0033(3) 0.07088(17)
O9 O -0.0564(3) 0.1282(3) 0.15775(19)
O10 O -0.0529(3) 0.1259(3) 0.33114(19)
O11 O -0.0021(3) -0.0051(3) 0.42720(17)
O12 O 0.0469(4) -0.1359(3) 0.3380(2)
loop_
_geom_bond_atom_site_label_1
_geom_bond_atom_site_label_2
_geom_bond_site_symmetry_1
_geom_bond_site_symmetry_2
C1 H1 1_555 1_555
H2 C1 1_555 1_555
C2 N1 1_555 1_555
C3 H3 1_555 1_555
H4 C3 1_555 1_555
C4 N3 1_555 1_555
C5 H5 1_555 1_555
H6 C5 1_555 1_555
C6 N5 1_555 1_555
C7 H7 1_555 1_555
H8 C7 1_555 1_555
C8 N7 1_555 1_555
C9 H9 1_555 1_555
H10 C9 1_555 1_555
C10 N9 1_555 1_555
C11 H11 1_555 1_555
H12 C11 1_555 1_555
C12 N11 1_555 1_555
C13 H13 1_555 1_555
C14 C13 1_555 1_555
H14 C14 1_555 1_555
C15 H15 1_555 1_555
C16 C15 1_555 1_555
H16 C16 1_555 1_555
C17 C18 1_555 1_555
C18 H17 1_555 1_555
H18 C18 1_555 1_555
H19 C18 1_555 1_555
C19 C17 1_555 1_555
C20 C19 1_555 1_555
H20 C20 1_555 1_555
H21 C20 1_555 1_555
H22 C20 1_555 1_555
C21 H23 1_555 1_555
C22 C21 1_555 1_555
H24 C22 1_555 1_555
C23 H25 1_555 1_555
C24 C23 1_555 1_555
H26 C24 1_555 1_555
C25 C26 1_555 1_555
C26 H27 1_555 1_555
H28 C26 1_555 1_555
H29 C26 1_555 1_555
C27 C25 1_555 1_555
C28 C27 1_555 1_555
H30 C28 1_555 1_555
H31 C28 1_555 1_555
H32 C28 1_555 1_555
C29 H33 1_555 1_555
H34 C29 1_555 1_555
C30 N13 1_555 1_555
C31 H35 1_555 1_555
H36 C31 1_555 1_555
C32 N14 1_555 1_555
C33 N16 1_555 1_555
C34 H37 1_555 1_555
H38 C34 1_555 1_555
C35 N18 1_555 1_555
C36 H39 1_555 1_555
H40 C36 1_555 1_555
C37 N20 1_555 1_555
C38 H41 1_555 1_555
H42 C38 1_555 1_555
C39 N22 1_555 1_555
C40 H43 1_555 1_555
H44 C40 1_555 1_555
N1 C1 1_555 1_555
N2 C2 1_555 1_555
N3 C3 1_555 1_555
N4 C4 1_555 1_555
N5 C5 1_555 1_555
N6 C6 1_555 1_555
N7 C7 1_555 1_555
N8 C8 1_555 1_555
N9 C9 1_555 1_555
N10 C10 1_555 1_555
N11 C11 1_555 1_555
N12 C1 1_555 1_555
N13 C14 1_555 1_555
N14 C15 1_555 1_555
N15 C16 1_555 1_555
N16 C17 1_555 1_555
N17 C19 1_555 1_555
N18 C21 1_555 1_555
N19 C22 1_555 1_555
N20 C23 1_555 1_555
N21 C24 1_555 1_555
N22 C25 1_555 1_555
N23 C27 1_555 1_555
N24 C13 1_555 1_555
O1 C2 1_555 1_555
O2 C4 1_555 1_555
O3 C6 1_555 1_555
O4 C8 1_555 1_555
O5 C10 1_555 1_555
O6 C12 1_555 1_555
O7 C35 1_555 1_555
O8 C33 1_555 1_555
O9 C32 1_555 1_555
O10 C30 1_555 1_555
O11 C39 1_555 1_555
O12 C37 1_555 1_555
C41 H45 1_555 1_555
H46 C41 1_555 1_555
C42 C41 1_555 1_555
H47 C42 1_555 1_555
H48 C42 1_555 1_555
C43 C42 1_555 1_555
H49 C43 1_555 1_555
H50 C43 1_555 1_555
C44 C43 1_555 1_555
H51 C44 1_555 1_555
H52 C44 1_555 1_555
C45 C46 1_555 1_555
C46 H53 1_555 1_555
C47 C46 1_555 1_555
H54 C47 1_555 1_555
C48 H55 1_555 1_555
C49 C45 1_555 1_555
H56 C49 1_555 1_555
N25 C41 1_555 1_555
N26 C47 1_555 1_555
H57 N26 1_555 1_555
C50 N27 1_555 1_555
C51 H58 1_555 1_555
H59 C51 1_555 1_555
C52 N29 1_555 1_555
C53 H60 1_555 1_555
H61 C53 1_555 1_555
C54 N31 1_555 1_555
C55 H62 1_555 1_555
H63 C55 1_555 1_555
C56 N33 1_555 1_555
C57 C58 1_555 1_555
C58 H64 1_555 1_555
H65 C58 1_555 1_555
H66 C58 1_555 1_555
C59 C57 1_555 1_555
C60 C59 1_555 1_555
H67 C60 1_555 1_555
H68 C60 1_555 1_555
H69 C60 1_555 1_555
C61 H70 1_555 1_555
C62 C61 1_555 1_555
H71 C62 1_555 1_555
C63 H72 1_555 1_555
C64 C63 1_555 1_555
H73 C64 1_555 1_555
C65 H74 1_555 1_555
H75 C65 1_555 1_555
C66 N36 1_555 1_555
C67 H76 1_555 1_555
H77 C67 1_555 1_555
C68 N34 1_555 1_555
C69 H78 1_555 1_555
H79 C69 1_555 1_555
N27 C57 1_555 1_555
N28 C50 1_555 1_555
N29 C51 1_555 1_555
N30 C52 1_555 1_555
N31 C53 1_555 1_555
N32 C54 1_555 1_555
N33 C55 1_555 1_555
N34 C64 1_555 1_555
N35 C63 1_555 1_555
N36 C62 1_555 1_555
N37 C61 1_555 1_555
N38 C59 1_555 1_555
O13 C50 1_555 1_555
O14 C52 1_555 1_555
O15 C54 1_555 1_555
O16 C56 1_555 1_555
O17 C68 1_555 1_555
O18 C66 1_555 1_555
C50A N27A 1_555 1_555
C51A H58A 1_555 1_555
H59A C51A 1_555 1_555
C52A N29A 1_555 1_555
C53A H60A 1_555 1_555
H61A C53A 1_555 1_555
C54A N31A 1_555 1_555
C55A H62A 1_555 1_555
H63A C55A 1_555 1_555
C56A N38 1_555 1_555
C57A N33 1_555 1_555
C58A C57A 1_555 1_555
H64A C58A 1_555 1_555
H65A C58A 1_555 1_555
H66A C58A 1_555 1_555
C59A C57A 1_555 1_555
C60A C59A 1_555 1_555
H67A C60A 1_555 1_555
H68A C60A 1_555 1_555
H69A C60A 1_555 1_555
C61A H70A 1_555 1_555
C62A C61A 1_555 1_555
H71A C62A 1_555 1_555
C63A H72A 1_555 1_555
C64A C63A 1_555 1_555
H73A C64A 1_555 1_555
C65A H74A 1_555 1_555
H75A C65A 1_555 1_555
C66A N36A 1_555 1_555
C67A H76A 1_555 1_555
H77A C67A 1_555 1_555
C68A N34A 1_555 1_555
C69A N27 1_555 1_555
H78A C69A 1_555 1_555
H79A C69A 1_555 1_555
N27A C69 1_555 1_555
N28A C50A 1_555 1_555
N29A C51A 1_555 1_555
N30A C52A 1_555 1_555
N31A C53A 1_555 1_555
N32A C54A 1_555 1_555
N33A C57 1_555 1_555
N34A C64A 1_555 1_555
N35A C63A 1_555 1_555
N36A C62A 1_555 1_555
N37A C61A 1_555 1_555
N38A C56 1_555 1_555
O13A C50A 1_555 1_555
O14A C52A 1_555 1_555
O15A C54A 1_555 1_555
O16A C56A 1_555 1_555
O17A C68A 1_555 1_555
O18A C66A 1_555 1_555
C3 N2 1_555 1_555
C5 N4 1_555 1_555
C7 N6 1_555 1_555
C9 N8 1_555 1_555
C11 N10 1_555 1_555
C12 N12 1_555 1_555
C13 N11 1_555 1_555
C14 N12 1_555 1_555
C15 N1 1_555 1_555
C16 N2 1_555 1_555
C17 N3 1_555 1_555
C19 N4 1_555 1_555
C21 N5 1_555 1_555
C22 N6 1_555 1_555
C23 N7 1_555 1_555
C24 N8 1_555 1_555
C25 N9 1_555 1_555
C27 N10 1_555 1_555
C29 N23 1_555 1_555
C29 N24 1_555 1_555
C30 N24 1_555 1_555
C31 N13 1_555 1_555
C31 N14 1_555 1_555
C32 N15 1_555 1_555
C33 N17 1_555 1_555
C34 N17 1_555 1_555
C34 N18 1_555 1_555
C35 N19 1_555 1_555
C36 N19 1_555 1_555
C36 N20 1_555 1_555
C37 N21 1_555 1_555
C38 N21 1_555 1_555
C38 N22 1_555 1_555
C39 N23 1_555 1_555
C40 N15 1_555 1_555
C40 N16 1_555 1_555
C44 N25 1_555 1_555
C45 N25 1_555 1_555
C48 C49 1_555 1_555
C48 N26 1_555 1_555
C51 N28 1_555 1_555
C53 N30 1_555 1_555
C55 N32 1_555 1_555
C59 N28 1_555 1_555
C61 N29 1_555 1_555
C62 N30 1_555 1_555
C63 N31 1_555 1_555
C64 N32 1_555 1_555
C65 N37 1_555 1_555
C65 N38 1_555 1_555
C66 N37 1_555 1_555
C67 N35 1_555 1_555
C67 N36 1_555 1_555
C68 N35 1_555 1_555
C69 N34 1_555 1_555
C51A N28A 1_555 1_555
C53A N30A 1_555 1_555
C55A N32A 1_555 1_555
C55A N33A 1_555 1_555
C56A N33A 1_555 1_555
C57A N27A 1_555 1_555
C59A N28A 1_555 1_555
C59A N38A 1_555 1_555
C61A N29A 1_555 1_555
C62A N30A 1_555 1_555
C63A N31A 1_555 1_555
C64A N32A 1_555 1_555
C65A N37A 1_555 1_555
C65A N38A 1_555 1_555
C66A N37A 1_555 1_555
C67A N35A 1_555 1_555
C67A N36A 1_555 1_555
C68A N35A 1_555 1_555
C69A N34A 1_555 1_555

#END
