
#######################################################################
#
#                 Cambridge Crystallographic Data Centre
#                                CCDC 
#
#######################################################################
#
# If this CIF has been generated from an entry in the Cambridge 
# Structural Database, then it will include bibliographic, chemical, 
# crystal, experimental, refinement or atomic coordinate data resulting 
# from the CCDC's data processing and validation procedures.
#
#######################################################################

data_DOJXAC
_chemical_formula_moiety         'C25 H22 O1 S1'
_chemical_name_systematic        
(3Z,4E)-3-benzylidene-4-[(4-methylphenyl)sulfanyl]-5-phenylpent-4-en-2-one
_symmetry_cell_setting           monoclinic
_symmetry_space_group_name_H-M   'C c'
_symmetry_Int_Tables_number      9
_space_group_name_Hall           'C -2yc'
loop_
_symmetry_equiv_pos_site_id
_symmetry_equiv_pos_as_xyz
1 x,y,z
2 x,-y,1/2+z
3 1/2+x,1/2+y,z
4 1/2+x,1/2-y,1/2+z
_cell_length_a                   14.66600(10)
_cell_length_b                   15.82580(10)
_cell_length_c                   11.1284(2)
_cell_angle_alpha                90
_cell_angle_beta                 127.9370(10)
_cell_angle_gamma                90
_cell_volume                     2037.11
_exptl_crystal_colour            yellow
_exptl_crystal_description       block
_cell_formula_units_Z            4
loop_
_atom_site_label
_atom_site_type_symbol
_atom_site_fract_x
_atom_site_fract_y
_atom_site_fract_z
S1 S 0.44862(4) 0.49099(3) 0.31250(5)
O1 O 0.75792(13) 0.45524(9) 0.48648(15)
C1 C 0.57380(15) 0.66659(11) 0.5913(2)
C2 C 0.57990(17) 0.69588(13) 0.7142(2)
H1 H 0.6321 0.6714 0.8096
C3 C 0.5095(2) 0.76080(16) 0.6964(3)
H2 H 0.5146 0.7795 0.7795
C4 C 0.4319(2) 0.79778(15) 0.5560(3)
H3 H 0.3846 0.8417 0.5437
C5 C 0.4253(2) 0.76944(16) 0.4361(3)
H4 H 0.3719 0.7937 0.3408
C6 C 0.4955(2) 0.70573(14) 0.4513(3)
H5 H 0.4905 0.6887 0.3674
C7 C 0.65465(15) 0.64971(11) 0.26957(19)
C8 C 0.63871(17) 0.68023(13) 0.1402(2)
H6 H 0.5751 0.6620 0.0446
C9 C 0.7145(2) 0.73645(15) 0.1503(3)
H7 H 0.7015 0.7555 0.0619
C10 C 0.8093(2) 0.76497(15) 0.2899(3)
H8 H 0.8600 0.8037 0.2964
C11 C 0.8279(2) 0.73531(15) 0.4193(3)
H9 H 0.8923 0.7534 0.5144
C12 C 0.75166(18) 0.67880(14) 0.4094(2)
H10 H 0.7655 0.6598 0.4984
C13 C 0.33566(16) 0.50525(12) 0.1152(2)
C14 C 0.26979(19) 0.57807(15) 0.0626(3)
H11 H 0.2854 0.6206 0.1306
C15 C 0.1807(2) 0.58754(17) -0.0911(3)
H12 H 0.1378 0.6372 -0.1256
C16 C 0.1539(2) 0.52501(19) -0.1947(3)
C17 C 0.2183(2) 0.45182(19) -0.1388(3)
H13 H 0.2001 0.4080 -0.2059
C18 C 0.30883(18) 0.44177(15) 0.0133(2)
H14 H 0.3520 0.3922 0.0475
C19 C 0.0589(3) 0.5381(3) -0.3624(3)
H15 H 0.0247 0.5928 -0.3784
H16 H 0.0009 0.4953 -0.3993
H17 H 0.0905 0.5347 -0.4164
C20 C 0.56831(14) 0.59140(10) 0.24819(18)
H18 H 0.5070 0.5788 0.1475
C21 C 0.56504(14) 0.55356(10) 0.35309(18)
C22 C 0.65652(15) 0.55309(9) 0.52163(19)
C23 C 0.75433(15) 0.49393(10) 0.5779(2)
C24 C 0.84936(17) 0.48429(13) 0.7451(2)
H19 H 0.9048 0.4440 0.7611
H20 H 0.8176 0.4648 0.7942
H21 H 0.8866 0.5378 0.7874
C25 C 0.65257(15) 0.59917(11) 0.61990(18)
H22 H 0.7089 0.5859 0.7221
loop_
_geom_bond_atom_site_label_1
_geom_bond_atom_site_label_2
_geom_bond_site_symmetry_1
_geom_bond_site_symmetry_2
S1 C13 1_555 1_555
O1 C23 1_555 1_555
C1 C2 1_555 1_555
C2 H1 1_555 1_555
C3 C2 1_555 1_555
H2 C3 1_555 1_555
C4 C3 1_555 1_555
H3 C4 1_555 1_555
C5 C4 1_555 1_555
H4 C5 1_555 1_555
C6 C1 1_555 1_555
H5 C6 1_555 1_555
C7 C8 1_555 1_555
C8 H6 1_555 1_555
C9 C8 1_555 1_555
H7 C9 1_555 1_555
C10 C9 1_555 1_555
H8 C10 1_555 1_555
C11 C10 1_555 1_555
H9 C11 1_555 1_555
C12 C7 1_555 1_555
H10 C12 1_555 1_555
C13 C14 1_555 1_555
C14 H11 1_555 1_555
C15 C14 1_555 1_555
H12 C15 1_555 1_555
C16 C15 1_555 1_555
C17 C16 1_555 1_555
H13 C17 1_555 1_555
C18 C13 1_555 1_555
H14 C18 1_555 1_555
C19 C16 1_555 1_555
H15 C19 1_555 1_555
H16 C19 1_555 1_555
H17 C19 1_555 1_555
C20 C7 1_555 1_555
H18 C20 1_555 1_555
C21 S1 1_555 1_555
C22 C21 1_555 1_555
C23 C22 1_555 1_555
C24 C23 1_555 1_555
H19 C24 1_555 1_555
H20 C24 1_555 1_555
H21 C24 1_555 1_555
C25 C1 1_555 1_555
H22 C25 1_555 1_555
C5 C6 1_555 1_555
C11 C12 1_555 1_555
C17 C18 1_555 1_555
C20 C21 1_555 1_555
C22 C25 1_555 1_555

#END
