
#######################################################################
#
#                 Cambridge Crystallographic Data Centre
#                                CCDC 
#
#######################################################################
#
# If this CIF has been generated from an entry in the Cambridge 
# Structural Database, then it will include bibliographic, chemical, 
# crystal, experimental, refinement or atomic coordinate data resulting 
# from the CCDC's data processing and validation procedures.
#
#######################################################################

data_DOKFAM
_chemical_formula_moiety         'C20 H16 F1 N1 O3'
_chemical_name_systematic        
'ethyl 3-fluoro-6-hydroxy-11-methyl-11H-benzo[a]carbazole-5-carboxylate'
_symmetry_cell_setting           triclinic
_symmetry_space_group_name_H-M   'P -1'
_symmetry_Int_Tables_number      2
_space_group_name_Hall           '-P 1'
loop_
_symmetry_equiv_pos_site_id
_symmetry_equiv_pos_as_xyz
1 x,y,z
2 -x,-y,-z
_cell_length_a                   7.4769(6)
_cell_length_b                   13.2694(17)
_cell_length_c                   17.6881(19)
_cell_angle_alpha                109.273(11)
_cell_angle_beta                 91.136(8)
_cell_angle_gamma                104.201(9)
_cell_volume                     1596.16
_cell_formula_units_Z            4
loop_
_atom_site_label
_atom_site_type_symbol
_atom_site_fract_x
_atom_site_fract_y
_atom_site_fract_z
F1 F 1.1796(3) 0.8235(2) 0.49953(14)
O1 O 1.0912(4) 0.7016(2) 0.11323(18)
O2 O 1.1928(4) 0.8038(2) 0.24045(18)
O3 O 0.8915(4) 0.5080(2) 0.07463(15)
H1 H 0.9555 0.5633 0.0678
N1 N 0.6824(4) 0.3427(3) 0.25648(18)
C1 C 0.6131(5) 0.2739(3) 0.1774(2)
C2 C 0.4475(6) 0.1173(4) 0.0689(3)
H2 H 0.3671 0.0465 0.0493
C3 C 0.4944(5) 0.1677(3) 0.1508(3)
H3 H 0.4488 0.1323 0.1867
C4 C 0.5155(6) 0.1683(4) 0.0150(3)
H4 H 0.4817 0.1306 -0.0399
C5 C 0.6334(5) 0.2748(4) 0.0410(2)
H5 H 0.6784 0.3094 0.0047
C6 C 0.6822(5) 0.3282(3) 0.1244(2)
C7 C 0.7957(5) 0.4353(3) 0.1735(2)
C8 C 0.7937(4) 0.4414(3) 0.2543(2)
C9 C 0.8933(5) 0.5387(3) 0.3187(2)
C10 C 0.9932(5) 0.6306(3) 0.2972(2)
C11 C 0.9937(5) 0.6232(3) 0.2132(2)
C12 C 0.8951(5) 0.5250(3) 0.1545(2)
C13 C 1.0877(5) 0.7261(3) 0.3618(3)
H6 H 1.1531 0.7887 0.3516
C14 C 1.0844(6) 0.7277(4) 0.4388(3)
C15 C 0.9932(5) 0.6411(4) 0.4609(2)
H7 H 0.9964 0.6457 0.5146
C16 C 0.8975(5) 0.5475(3) 0.4005(2)
H8 H 0.8324 0.4873 0.4136
C17 C 1.0932(5) 0.7104(4) 0.1849(3)
C18 C 1.3071(7) 0.8881(4) 0.2123(3)
H9 H 1.2294 0.9211 0.1886
H10 H 1.3824 0.8555 0.1721
C19 C 1.4267(7) 0.9728(4) 0.2842(3)
H11 H 1.5239 1.0203 0.2675
H12 H 1.4801 0.9368 0.3142
H13 H 1.3534 1.0161 0.3176
C20 C 0.6453(6) 0.3063(3) 0.3248(2)
H14 H 0.5609 0.2335 0.3068
H15 H 0.5912 0.3568 0.3634
H16 H 0.7594 0.3043 0.3494
F2 F 1.6728(4) 0.7593(2) 0.18003(17)
O4 O 1.4397(4) 0.5914(2) 0.47647(17)
O5 O 1.2526(4) 0.4005(2) 0.39697(15)
H17 H 1.3070 0.4525 0.4370
O6 O 1.5494(4) 0.7150(2) 0.41793(16)
N2 N 1.1169(4) 0.2699(3) 0.12476(19)
C21 C 1.0434(5) 0.1898(4) 0.1576(3)
C22 C 0.9398(6) 0.0798(4) 0.1194(3)
H18 H 0.9058 0.0510 0.0641
C23 C 0.8902(6) 0.0161(5) 0.1668(4)
H19 H 0.8217 -0.0573 0.1428
C24 C 0.9387(6) 0.0573(4) 0.2491(3)
H20 H 0.9037 0.0110 0.2789
C25 C 1.0386(5) 0.1662(4) 0.2878(3)
H21 H 1.0701 0.1938 0.3433
C26 C 1.0908(5) 0.2335(4) 0.2417(3)
C27 C 1.1999(5) 0.3446(3) 0.2583(2)
C28 C 1.2143(5) 0.3650(4) 0.1866(2)
C29 C 1.3246(5) 0.4676(4) 0.1830(2)
C30 C 1.4148(5) 0.5516(3) 0.2575(2)
C31 C 1.3881(5) 0.5324(3) 0.3336(2)
C32 C 1.2824(5) 0.4289(3) 0.3308(2)
C33 C 1.3564(6) 0.4891(4) 0.1107(3)
H22 H 1.2978 0.4352 0.0622
C34 C 1.4693(7) 0.5854(5) 0.1091(3)
H23 H 1.4883 0.5979 0.0608
C35 C 1.5539(7) 0.6632(4) 0.1809(3)
C36 C 1.5319(5) 0.6510(4) 0.2537(3)
H24 H 1.5931 0.7074 0.3007
C37 C 1.4595(5) 0.6129(4) 0.4136(3)
C38 C 1.6224(6) 0.7955(4) 0.4981(3)
H25 H 1.7068 0.7694 0.5247
H26 H 1.5221 0.8074 0.5310
C39 C 1.7230(7) 0.9010(4) 0.4858(3)
H27 H 1.7960 0.9514 0.5351
H28 H 1.6343 0.9341 0.4705
H29 H 1.8027 0.8848 0.4441
C40 C 1.0852(5) 0.2528(4) 0.0387(2)
H30 H 0.9995 0.1817 0.0117
H31 H 1.2007 0.2557 0.0157
H32 H 1.0346 0.3098 0.0324
loop_
_geom_bond_atom_site_label_1
_geom_bond_atom_site_label_2
_geom_bond_site_symmetry_1
_geom_bond_site_symmetry_2
F1 C14 1_555 1_555
O1 C17 1_555 1_555
O2 C17 1_555 1_555
O3 H1 1_555 1_555
N1 C1 1_555 1_555
C1 C3 1_555 1_555
C2 H2 1_555 1_555
C3 C2 1_555 1_555
H3 C3 1_555 1_555
C4 C2 1_555 1_555
H4 C4 1_555 1_555
C5 C4 1_555 1_555
H5 C5 1_555 1_555
C6 C1 1_555 1_555
C7 C6 1_555 1_555
C8 N1 1_555 1_555
C9 C8 1_555 1_555
C10 C9 1_555 1_555
C11 C10 1_555 1_555
C12 O3 1_555 1_555
C13 C10 1_555 1_555
H6 C13 1_555 1_555
C14 C13 1_555 1_555
C15 C14 1_555 1_555
H7 C15 1_555 1_555
C16 C9 1_555 1_555
H8 C16 1_555 1_555
C17 C11 1_555 1_555
C18 O2 1_555 1_555
H9 C18 1_555 1_555
H10 C18 1_555 1_555
C19 C18 1_555 1_555
H11 C19 1_555 1_555
H12 C19 1_555 1_555
H13 C19 1_555 1_555
C20 N1 1_555 1_555
H14 C20 1_555 1_555
H15 C20 1_555 1_555
H16 C20 1_555 1_555
F2 C35 1_555 1_555
O4 C37 1_555 1_555
O5 H17 1_555 1_555
O6 C37 1_555 1_555
N2 C21 1_555 1_555
C21 C22 1_555 1_555
C22 H18 1_555 1_555
C23 C22 1_555 1_555
H19 C23 1_555 1_555
C24 C23 1_555 1_555
H20 C24 1_555 1_555
C25 C24 1_555 1_555
H21 C25 1_555 1_555
C26 C21 1_555 1_555
C27 C26 1_555 1_555
C28 N2 1_555 1_555
C29 C28 1_555 1_555
C30 C29 1_555 1_555
C31 C30 1_555 1_555
C32 O5 1_555 1_555
C33 C29 1_555 1_555
H22 C33 1_555 1_555
C34 C33 1_555 1_555
H23 C34 1_555 1_555
C35 C34 1_555 1_555
C36 C30 1_555 1_555
H24 C36 1_555 1_555
C37 C31 1_555 1_555
C38 O6 1_555 1_555
H25 C38 1_555 1_555
H26 C38 1_555 1_555
C39 C38 1_555 1_555
H27 C39 1_555 1_555
H28 C39 1_555 1_555
H29 C39 1_555 1_555
C40 N2 1_555 1_555
H30 C40 1_555 1_555
H31 C40 1_555 1_555
H32 C40 1_555 1_555
C5 C6 1_555 1_555
C7 C8 1_555 1_555
C7 C12 1_555 1_555
C11 C12 1_555 1_555
C15 C16 1_555 1_555
C25 C26 1_555 1_555
C27 C28 1_555 1_555
C27 C32 1_555 1_555
C31 C32 1_555 1_555
C35 C36 1_555 1_555

#END
