
#######################################################################
#
#                 Cambridge Crystallographic Data Centre
#                                CCDC 
#
#######################################################################
#
# If this CIF has been generated from an entry in the Cambridge 
# Structural Database, then it will include bibliographic, chemical, 
# crystal, experimental, refinement or atomic coordinate data resulting 
# from the CCDC's data processing and validation procedures.
#
#######################################################################

data_DOKJAQ
_chemical_formula_moiety         'C29 H26 N2 O6 S1'
_chemical_name_systematic        
'Ethyl 1-((4-methylphenyl)sulfonyl)-6,8-dioxo-2,7-diphenyl-1,7-diazaspiro[4.4]non-2-ene-3-carboxylate'
_symmetry_cell_setting           monoclinic
_symmetry_space_group_name_H-M   'P 21/n'
_symmetry_Int_Tables_number      14
_space_group_name_Hall           '-P 2yn'
loop_
_symmetry_equiv_pos_site_id
_symmetry_equiv_pos_as_xyz
1 x,y,z
2 1/2-x,1/2+y,1/2-z
3 -x,-y,-z
4 1/2+x,1/2-y,1/2+z
_cell_length_a                   18.614(4)
_cell_length_b                   8.3550(17)
_cell_length_c                   18.861(4)
_cell_angle_alpha                90
_cell_angle_beta                 116.82(3)
_cell_angle_gamma                90
_cell_volume                     2617.73
_cell_formula_units_Z            4
loop_
_atom_site_label
_atom_site_type_symbol
_atom_site_fract_x
_atom_site_fract_y
_atom_site_fract_z
S1 S 0.84375(2) 1.07807(4) 0.02212(2)
O1 O 0.78346(6) 1.20071(13) -0.01076(7)
O2 O 0.92649(6) 1.12394(13) 0.05561(7)
O3 O 0.64232(6) 0.99419(13) 0.00999(7)
O4 O 0.73217(7) 1.48731(14) 0.11850(7)
O5 O 0.93570(6) 0.63073(14) 0.25992(7)
O6 O 0.83963(6) 0.68068(14) 0.29810(7)
N1 N 0.82315(7) 0.98916(16) 0.08924(8)
N2 N 0.66998(7) 1.25622(15) 0.05162(7)
C1 C 0.86769(8) 0.86106(18) 0.13892(8)
C2 C 0.84107(8) 0.82943(18) 0.19261(9)
C3 C 0.77003(9) 0.93351(19) 0.17918(9)
H1 H 0.7762 0.9813 0.2297
H2 H 0.7193 0.8715 0.1550
C4 C 0.77119(8) 1.06413(19) 0.12156(9)
C5 C 0.68666(9) 1.09496(19) 0.05353(9)
C6 C 0.73288(8) 1.34450(19) 0.10977(9)
C7 C 0.80029(9) 1.23052(19) 0.15833(9)
H3 H 0.8108 1.2318 0.2147
H4 H 0.8504 1.2605 0.1554
C8 C 0.82640(9) 0.92875(18) -0.04958(9)
C9 C 0.75163(9) 0.8541(2) -0.08569(10)
H5 H 0.7113 0.8771 -0.0694
C10 C 0.73759(10) 0.7454(2) -0.14591(11)
H6 H 0.6871 0.6924 -0.1706
C11 C 0.79554(10) 0.7118(2) -0.17124(10)
C12 C 0.87005(10) 0.7869(2) -0.13323(10)
H7 H 0.9105 0.7637 -0.1493
C13 C 0.88620(9) 0.89511(19) -0.07215(9)
H8 H 0.9374 0.9454 -0.0462
C14 C 0.77905(12) 0.5996(3) -0.23965(13)
H9 H 0.7345 0.5281 -0.2471
H10 H 0.8273 0.5361 -0.2281
H11 H 0.7646 0.6620 -0.2882
C15 C 0.92816(8) 0.77242(17) 0.12356(8)
C16 C 0.90705(9) 0.62283(18) 0.08737(9)
H12 H 0.8542 0.5824 0.0712
C17 C 0.96279(11) 0.5330(2) 0.07497(10)
H13 H 0.9485 0.4307 0.0506
C18 C 1.03971(10) 0.5930(2) 0.09820(10)
H14 H 1.0778 0.5320 0.0891
C19 C 1.06106(10) 0.7410(2) 0.13452(10)
H15 H 1.1139 0.7811 0.1505
C20 C 1.00564(9) 0.83127(19) 0.14771(9)
H16 H 1.0205 0.9326 0.1731
C21 C 0.87032(9) 0.70656(18) 0.25474(9)
C22 C 0.96926(10) 0.5046(2) 0.31874(10)
H17 H 0.9266 0.4287 0.3145
H18 H 0.9945 0.5503 0.3730
C23 C 1.03109(11) 0.4212(2) 0.30152(11)
H19 H 1.0052 0.3770 0.2476
H20 H 1.0557 0.3344 0.3399
H21 H 1.0727 0.4979 0.3058
C24 C 0.59767(8) 1.32614(18) -0.00832(9)
C25 C 0.60272(10) 1.4423(2) -0.05785(10)
H22 H 0.6537 1.4773 -0.0520
C26 C 0.53196(11) 1.5074(2) -0.11668(11)
H23 H 0.5343 1.5871 -0.1515
C27 C 0.45807(11) 1.4554(2) -0.12420(11)
H24 H 0.4099 1.5003 -0.1642
C28 C 0.45378(9) 1.3394(2) -0.07442(10)
H25 H 0.4029 1.3049 -0.0801
C29 C 0.52391(9) 1.27289(19) -0.01591(10)
H26 H 0.5214 1.1922 0.0184
loop_
_geom_bond_atom_site_label_1
_geom_bond_atom_site_label_2
_geom_bond_site_symmetry_1
_geom_bond_site_symmetry_2
S1 O1 1_555 1_555
O2 S1 1_555 1_555
O3 C5 1_555 1_555
O4 C6 1_555 1_555
O5 C21 1_555 1_555
O6 C21 1_555 1_555
N1 S1 1_555 1_555
N2 C5 1_555 1_555
C1 N1 1_555 1_555
C2 C1 1_555 1_555
C3 C2 1_555 1_555
H1 C3 1_555 1_555
H2 C3 1_555 1_555
C4 N1 1_555 1_555
C5 C4 1_555 1_555
C6 N2 1_555 1_555
C7 C4 1_555 1_555
H3 C7 1_555 1_555
H4 C7 1_555 1_555
C8 S1 1_555 1_555
C9 C8 1_555 1_555
H5 C9 1_555 1_555
C10 C9 1_555 1_555
H6 C10 1_555 1_555
C11 C10 1_555 1_555
C12 C11 1_555 1_555
H7 C12 1_555 1_555
C13 C8 1_555 1_555
H8 C13 1_555 1_555
C14 C11 1_555 1_555
H9 C14 1_555 1_555
H10 C14 1_555 1_555
H11 C14 1_555 1_555
C15 C1 1_555 1_555
C16 C15 1_555 1_555
H12 C16 1_555 1_555
C17 C16 1_555 1_555
H13 C17 1_555 1_555
C18 C17 1_555 1_555
H14 C18 1_555 1_555
C19 C18 1_555 1_555
H15 C19 1_555 1_555
C20 C15 1_555 1_555
H16 C20 1_555 1_555
C21 C2 1_555 1_555
C22 O5 1_555 1_555
H17 C22 1_555 1_555
H18 C22 1_555 1_555
C23 C22 1_555 1_555
H19 C23 1_555 1_555
H20 C23 1_555 1_555
H21 C23 1_555 1_555
C24 N2 1_555 1_555
C25 C24 1_555 1_555
H22 C25 1_555 1_555
C26 C25 1_555 1_555
H23 C26 1_555 1_555
C27 C26 1_555 1_555
H24 C27 1_555 1_555
C28 C27 1_555 1_555
H25 C28 1_555 1_555
C29 C24 1_555 1_555
H26 C29 1_555 1_555
C3 C4 1_555 1_555
C6 C7 1_555 1_555
C12 C13 1_555 1_555
C19 C20 1_555 1_555
C28 C29 1_555 1_555

#END
