
#######################################################################
#
#                 Cambridge Crystallographic Data Centre
#                                CCDC 
#
#######################################################################
#
# If this CIF has been generated from an entry in the Cambridge 
# Structural Database, then it will include bibliographic, chemical, 
# crystal, experimental, refinement or atomic coordinate data resulting 
# from the CCDC's data processing and validation procedures.
#
#######################################################################

data_DOKLAQ
_chemical_compound_source        'roots of Harrisonia perforate Blanco Merr'
_chemical_name_common            'Niu-Jing V monohydrate'
_chemical_formula_moiety         'C16 H14 O6,H2 O1'
_chemical_name_systematic        'Perforatic acid monohydrate'
_symmetry_cell_setting           monoclinic
_symmetry_space_group_name_H-M   'P 21/c'
_symmetry_Int_Tables_number      14
_space_group_name_Hall           '-P 2ybc'
loop_
_symmetry_equiv_pos_site_id
_symmetry_equiv_pos_as_xyz
1 x,y,z
2 -x,1/2+y,1/2-z
3 -x,-y,-z
4 x,1/2-y,1/2+z
_cell_length_a                   9.620(6)
_cell_length_b                   14.660(8)
_cell_length_c                   10.709(6)
_cell_angle_alpha                90
_cell_angle_beta                 101.12
_cell_angle_gamma                90
_cell_volume                     1481.93
_exptl_crystal_colour            yellow
_cell_formula_units_Z            4
loop_
_atom_site_label
_atom_site_type_symbol
_atom_site_fract_x
_atom_site_fract_y
_atom_site_fract_z
O1 O 0.4311(3) 0.6644(2) 0.2656(3)
O2 O 0.2982(3) 0.7377(2) 0.3804(3)
O3 O -0.1834(3) 0.7203(2) 0.1076(2)
O4 O -0.2735(3) 0.6450(2) -0.1220(2)
O5 O 0.0621(3) 0.4889(2) -0.3118(2)
O6 O 0.2121(2) 0.6294(2) 0.0858(2)
C1 C 0.3196(4) 0.6912(3) 0.2826(3)
C2 C 0.1849(4) 0.6770(2) 0.1865(3)
C3 C 0.0571(4) 0.7076(3) 0.1959(3)
C4 C -0.0667(4) 0.6917(3) 0.0956(3)
C5 C -0.0363(4) 0.6407(2) -0.0139(3)
C6 C -0.1400(4) 0.6167(2) -0.1219(3)
C7 C -0.3800(4) 0.6196(4) -0.2296(4)
C8 C -0.1035(4) 0.5674(3) -0.2196(3)
C9 C 0.0357(4) 0.5406(2) -0.2139(3)
C10 C 0.2074(4) 0.4820(3) -0.3349(3)
C11 C 0.2319(5) 0.5618(3) -0.4159(4)
C12 C 0.2109(6) 0.3922(3) -0.4024(5)
C13 C 0.3120(4) 0.4836(3) -0.2104(4)
C14 C 0.2829(4) 0.5232(3) -0.1078(4)
C15 C 0.1427(4) 0.5616(2) -0.1104(3)
C16 C 0.1018(4) 0.6112(2) -0.0139(3)
O7 O -0.4803(4) 0.7114(3) 0.0329(3)
loop_
_geom_bond_atom_site_label_1
_geom_bond_atom_site_label_2
_geom_bond_site_symmetry_1
_geom_bond_site_symmetry_2
O1 C1 1_555 1_555
O2 C1 1_555 1_555
O3 C4 1_555 1_555
O4 C6 1_555 1_555
O5 C9 1_555 1_555
O6 C2 1_555 1_555
C1 C2 1_555 1_555
C2 C3 1_555 1_555
C3 C4 1_555 1_555
C4 C5 1_555 1_555
C5 C6 1_555 1_555
C6 C8 1_555 1_555
C7 O4 1_555 1_555
C8 C9 1_555 1_555
C9 C15 1_555 1_555
C10 O5 1_555 1_555
C11 C10 1_555 1_555
C12 C10 1_555 1_555
C13 C10 1_555 1_555
C14 C13 1_555 1_555
C15 C14 1_555 1_555
C16 O6 1_555 1_555
C5 C16 1_555 1_555
C15 C16 1_555 1_555

#END
