
#######################################################################
#
#                 Cambridge Crystallographic Data Centre
#                                CCDC 
#
#######################################################################
#
# If this CIF has been generated from an entry in the Cambridge 
# Structural Database, then it will include bibliographic, chemical, 
# crystal, experimental, refinement or atomic coordinate data resulting 
# from the CCDC's data processing and validation procedures.
#
#######################################################################

data_DOKMUM
_chemical_formula_moiety         'C18 H30 O3 Si2'
_chemical_name_systematic        
4,9-bis(trimethylsilyl)-3a,4,5,6,7,8,9,9a-octahydronaphtho[2,3-c]furan-1,3-dione
_symmetry_cell_setting           monoclinic
_symmetry_space_group_name_H-M   'I 2/a'
_symmetry_Int_Tables_number      15
_space_group_name_Hall           '-I 2ya'
loop_
_symmetry_equiv_pos_site_id
_symmetry_equiv_pos_as_xyz
1 x,y,z
2 1/2+x,1/2+y,1/2+z
3 1/2-x,y,-z
4 -x,1/2+y,1/2-z
5 -x,-y,-z
6 1/2-x,1/2-y,1/2-z
7 1/2+x,-y,z
8 x,1/2-y,1/2+z
_cell_length_a                   22.522(5)
_cell_length_b                   7.7077(15)
_cell_length_c                   23.317(5)
_cell_angle_alpha                90
_cell_angle_beta                 98.55(3)
_cell_angle_gamma                90
_cell_volume                     4002.68
_exptl_crystal_colour            colorless
_exptl_crystal_description       plate
_chemical_melting_point          '132-133 deg.C'
_cell_formula_units_Z            8
_exptl_crystal_recrystallization_method ether/hexane
loop_
_atom_site_label
_atom_site_type_symbol
_atom_site_fract_x
_atom_site_fract_y
_atom_site_fract_z
Si1 Si 0.14175(3) 0.19940(8) 0.41975(3)
Si2 Si -0.15294(3) 0.24902(8) 0.35587(3)
O1 O 0.00678(9) 0.3055(2) 0.24790(7)
O2 O 0.10392(11) 0.2886(5) 0.28168(10)
O3 O -0.09198(10) 0.2774(4) 0.23225(9)
C1 C 0.05447(12) 0.2531(4) 0.28868(10)
C2 C 0.03240(9) 0.1531(3) 0.33657(8)
H1 H 0.0460 0.0299 0.3350
C3 C 0.05702(9) 0.2291(2) 0.39702(8)
H2 H 0.0389 0.1531 0.4245
C4 C 0.02753(9) 0.4050(2) 0.40296(8)
C5 C 0.06516(10) 0.5569(3) 0.42790(10)
H3 H 0.0880 0.6031 0.3981
H4 H 0.0944 0.5166 0.4611
C6 C 0.02682(12) 0.7019(3) 0.44809(11)
H5 H 0.0104 0.6644 0.4832
H6 H 0.0518 0.8063 0.4581
C7 C -0.02373(11) 0.7441(3) 0.40041(10)
H7 H -0.0070 0.7787 0.3652
H8 H -0.0470 0.8432 0.4124
C8 C -0.06525(10) 0.5885(3) 0.38659(10)
H9 H -0.0932 0.5825 0.4155
H10 H -0.0895 0.6059 0.3480
C9 C -0.03201(9) 0.4181(2) 0.38660(8)
C10 C -0.06684(9) 0.2532(3) 0.36789(8)
H11 H -0.0566 0.1764 0.4025
C11 C -0.03633(9) 0.1592(3) 0.32134(8)
H12 H -0.0522 0.0381 0.3164
C12 C -0.04680(12) 0.2504(3) 0.26384(10)
C13 C 0.19237(12) 0.3702(4) 0.39774(16)
H13 H 0.2336 0.3258 0.4021
H14 H 0.1910 0.4726 0.4224
H15 H 0.1792 0.4020 0.3572
C14 C 0.15403(12) 0.1840(4) 0.50076(11)
H16 H 0.1951 0.1447 0.5142
H17 H 0.1255 0.1011 0.5131
H18 H 0.1479 0.2983 0.5174
C15 C 0.16277(10) -0.0146(3) 0.39164(11)
H19 H 0.1598 -0.0092 0.3493
H20 H 0.1355 -0.1042 0.4023
H21 H 0.2041 -0.0431 0.4085
C16 C -0.19386(12) 0.4085(4) 0.30428(13)
H22 H -0.1799 0.3984 0.2665
H23 H -0.1861 0.5263 0.3194
H24 H -0.2370 0.3847 0.2998
C17 C -0.17601(11) 0.2857(3) 0.42905(11)
H25 H -0.1684 0.4069 0.4406
H26 H -0.1528 0.2091 0.4575
H27 H -0.2189 0.2603 0.4272
C18 C -0.17448(10) 0.0234(3) 0.33160(11)
H28 H -0.2181 0.0097 0.3286
H29 H -0.1544 -0.0599 0.3598
H30 H -0.1622 0.0022 0.2936
loop_
_geom_bond_atom_site_label_1
_geom_bond_atom_site_label_2
_geom_bond_site_symmetry_1
_geom_bond_site_symmetry_2
Si1 C3 1_555 1_555
Si2 C10 1_555 1_555
O1 C1 1_555 1_555
O2 C1 1_555 1_555
O3 C12 1_555 1_555
C1 C2 1_555 1_555
C2 H1 1_555 1_555
C3 C2 1_555 1_555
H2 C3 1_555 1_555
C4 C3 1_555 1_555
C5 C4 1_555 1_555
H3 C5 1_555 1_555
H4 C5 1_555 1_555
C6 C5 1_555 1_555
H5 C6 1_555 1_555
H6 C6 1_555 1_555
C7 C6 1_555 1_555
H7 C7 1_555 1_555
H8 C7 1_555 1_555
C8 C7 1_555 1_555
H9 C8 1_555 1_555
H10 C8 1_555 1_555
C9 C4 1_555 1_555
C10 C9 1_555 1_555
H11 C10 1_555 1_555
C11 C2 1_555 1_555
H12 C11 1_555 1_555
C12 O1 1_555 1_555
C13 Si1 1_555 1_555
H13 C13 1_555 1_555
H14 C13 1_555 1_555
H15 C13 1_555 1_555
C14 Si1 1_555 1_555
H16 C14 1_555 1_555
H17 C14 1_555 1_555
H18 C14 1_555 1_555
C15 Si1 1_555 1_555
H19 C15 1_555 1_555
H20 C15 1_555 1_555
H21 C15 1_555 1_555
C16 Si2 1_555 1_555
H22 C16 1_555 1_555
H23 C16 1_555 1_555
H24 C16 1_555 1_555
C17 Si2 1_555 1_555
H25 C17 1_555 1_555
H26 C17 1_555 1_555
H27 C17 1_555 1_555
C18 Si2 1_555 1_555
H28 C18 1_555 1_555
H29 C18 1_555 1_555
H30 C18 1_555 1_555
C8 C9 1_555 1_555
C10 C11 1_555 1_555
C11 C12 1_555 1_555

#END
