
#######################################################################
#
#                 Cambridge Crystallographic Data Centre
#                                CCDC 
#
#######################################################################
#
# If this CIF has been generated from an entry in the Cambridge 
# Structural Database, then it will include bibliographic, chemical, 
# crystal, experimental, refinement or atomic coordinate data resulting 
# from the CCDC's data processing and validation procedures.
#
#######################################################################

data_DOKMIB
_chemical_formula_moiety         'C5 H6 N3 O2 1+,Br1 1-'
_chemical_name_systematic        '2-Amino-3-nitropyridinium bromide'
_symmetry_cell_setting           orthorhombic
_symmetry_space_group_name_H-M   'C m c 21'
_symmetry_Int_Tables_number      36
_space_group_name_Hall           'C 2n -2'
loop_
_symmetry_equiv_pos_site_id
_symmetry_equiv_pos_as_xyz
1 x,y,z
2 -x,-y,1/2+z
3 -x,y,z
4 x,-y,1/2+z
5 1/2+x,1/2+y,z
6 1/2-x,1/2-y,1/2+z
7 1/2-x,1/2+y,z
8 1/2+x,1/2-y,1/2+z
_cell_length_a                   6.758(10)
_cell_length_b                   13.15(2)
_cell_length_c                   9.269(14)
_cell_angle_alpha                90
_cell_angle_beta                 90
_cell_angle_gamma                90
_cell_volume                     823.715
_cell_formula_units_Z            4
loop_
_atom_site_label
_atom_site_type_symbol
_atom_site_fract_x
_atom_site_fract_y
_atom_site_fract_z
Br1 Br 0.0000 0.33917(6) 0.74015(12)
O1 O -0.5000 0.4806(4) 0.7487(17)
C1 C -0.5000 0.3075(7) 0.7160(11)
N1 N -0.5000 0.3514(6) 0.9738(12)
H1 H -0.5000 0.3293 1.0634
H2 H -0.5000 0.4172 0.9561
C2 C -0.5000 0.2852(7) 0.8646(11)
N2 N -0.5000 0.4105(7) 0.6639(13)
C3 C -0.5000 0.2302(11) 0.6177(15)
H3 H -0.5000 0.2469 0.5179
N3 N -0.5000 0.1873(9) 0.8993(12)
H4 H -0.5000 0.1714 0.9915
C4 C -0.5000 0.1089(11) 0.8004(19)
H5 H -0.5000 0.0403 0.8325
C5 C -0.5000 0.1303(12) 0.6559(18)
H6 H -0.5000 0.0778 0.5855
O2 O -0.5000 0.4239(8) 0.5341(12)
loop_
_geom_bond_atom_site_label_1
_geom_bond_atom_site_label_2
_geom_bond_site_symmetry_1
_geom_bond_site_symmetry_2
O1 N2 1_555 1_555
C1 C2 1_555 1_555
N1 H1 1_555 1_555
H2 N1 1_555 1_555
C2 N1 1_555 1_555
N2 C1 1_555 1_555
C3 C1 1_555 1_555
H3 C3 1_555 1_555
N3 C2 1_555 1_555
H4 N3 1_555 1_555
C4 N3 1_555 1_555
H5 C4 1_555 1_555
C5 C3 1_555 1_555
H6 C5 1_555 1_555
O2 N2 1_555 1_555
C4 C5 1_555 1_555

#END
