
#######################################################################
#
#                 Cambridge Crystallographic Data Centre
#                                CCDC 
#
#######################################################################
#
# If this CIF has been generated from an entry in the Cambridge 
# Structural Database, then it will include bibliographic, chemical, 
# crystal, experimental, refinement or atomic coordinate data resulting 
# from the CCDC's data processing and validation procedures.
#
#######################################################################

data_DOKTAZ
_chemical_formula_moiety         'C11 H12 O2'
_chemical_name_systematic        
1,2,3,4-Tetrahydro-1,4-methanonaphthalene-2,3-diol
_symmetry_cell_setting           orthorhombic
_symmetry_space_group_name_H-M   'P b c a'
_symmetry_Int_Tables_number      61
_space_group_name_Hall           '-P 2ac 2ab'
loop_
_symmetry_equiv_pos_site_id
_symmetry_equiv_pos_as_xyz
1 x,y,z
2 1/2-x,-y,1/2+z
3 -x,1/2+y,1/2-z
4 1/2+x,1/2-y,-z
5 -x,-y,-z
6 1/2+x,y,1/2-z
7 x,1/2-y,1/2+z
8 1/2-x,1/2+y,z
_cell_length_a                   10.240(2)
_cell_length_b                   6.2370(12)
_cell_length_c                   27.503(6)
_cell_angle_alpha                90
_cell_angle_beta                 90
_cell_angle_gamma                90
_cell_volume                     1756.53
_exptl_crystal_colour            colorless
_cell_formula_units_Z            8
_exptl_crystal_recrystallization_method acetone
loop_
_atom_site_label
_atom_site_type_symbol
_atom_site_fract_x
_atom_site_fract_y
_atom_site_fract_z
O1 O 0.65327(18) 0.2295(4) 0.51706(7)
H1 H 0.6083 0.1798 0.4936
C1 C 0.5544(4) 0.5675(6) 0.71478(12)
H2 H 0.5950 0.6468 0.7391
O2 O 0.40283(18) 0.1947(3) 0.51141(7)
H3 H 0.3270 0.2214 0.5040
C2 C 0.4181(4) 0.5663(6) 0.71136(12)
H4 H 0.3686 0.6463 0.7332
C3 C 0.3563(3) 0.4465(5) 0.67558(11)
H5 H 0.2657 0.4456 0.6733
C4 C 0.4303(3) 0.3299(5) 0.64387(10)
C5 C 0.5676(3) 0.3324(5) 0.64679(10)
C6 C 0.6296(3) 0.4508(6) 0.68204(11)
H6 H 0.7203 0.4529 0.6840
C7 C 0.3981(3) 0.1886(5) 0.60039(10)
H7 H 0.3096 0.1286 0.6003
C8 C 0.4366(2) 0.3095(5) 0.55428(10)
H8 H 0.3991 0.4540 0.5540
C9 C 0.5897(2) 0.3180(5) 0.55809(10)
H9 H 0.6174 0.4673 0.5621
C10 C 0.6168(3) 0.1942(5) 0.60542(10)
H10 H 0.7059 0.1395 0.6091
C11 C 0.5087(3) 0.0226(5) 0.60427(11)
H11 H 0.5142 -0.0706 0.5761
H12 H 0.5046 -0.0617 0.6339
loop_
_geom_bond_atom_site_label_1
_geom_bond_atom_site_label_2
_geom_bond_site_symmetry_1
_geom_bond_site_symmetry_2
O1 H1 1_555 1_555
C1 H2 1_555 1_555
O2 H3 1_555 1_555
C2 C1 1_555 1_555
H4 C2 1_555 1_555
C3 C2 1_555 1_555
H5 C3 1_555 1_555
C4 C3 1_555 1_555
C5 C4 1_555 1_555
C6 C1 1_555 1_555
H6 C6 1_555 1_555
C7 C4 1_555 1_555
H7 C7 1_555 1_555
C8 O2 1_555 1_555
H8 C8 1_555 1_555
C9 O1 1_555 1_555
H9 C9 1_555 1_555
C10 C5 1_555 1_555
H10 C10 1_555 1_555
C11 C7 1_555 1_555
H11 C11 1_555 1_555
H12 C11 1_555 1_555
C5 C6 1_555 1_555
C7 C8 1_555 1_555
C8 C9 1_555 1_555
C9 C10 1_555 1_555
C10 C11 1_555 1_555

#END
