
#######################################################################
#
#                 Cambridge Crystallographic Data Centre
#                                CCDC 
#
#######################################################################
#
# If this CIF has been generated from an entry in the Cambridge 
# Structural Database, then it will include bibliographic, chemical, 
# crystal, experimental, refinement or atomic coordinate data resulting 
# from the CCDC's data processing and validation procedures.
#
#######################################################################

data_DOKTED
_chemical_formula_moiety         'C7 H5 Cl1 N2 O3'
_chemical_name_systematic        4-Chloro-3-nitrobenzamide
_symmetry_cell_setting           monoclinic
_symmetry_space_group_name_H-M   'P 21/n'
_symmetry_Int_Tables_number      14
_space_group_name_Hall           '-P 2yn'
loop_
_symmetry_equiv_pos_site_id
_symmetry_equiv_pos_as_xyz
1 x,y,z
2 1/2-x,1/2+y,1/2-z
3 -x,-y,-z
4 1/2+x,1/2-y,1/2+z
_cell_length_a                   8.8490(18)
_cell_length_b                   7.5470(15)
_cell_length_c                   12.374(3)
_cell_angle_alpha                90
_cell_angle_beta                 101.18(3)
_cell_angle_gamma                90
_cell_volume                     810.696
_exptl_crystal_colour            colorless
_exptl_crystal_description       block
_cell_formula_units_Z            4
_exptl_crystal_recrystallization_method methanol
loop_
_atom_site_label
_atom_site_type_symbol
_atom_site_fract_x
_atom_site_fract_y
_atom_site_fract_z
Cl1 Cl 0.65545(17) 0.0416(2) 0.36001(13)
O1 O 0.7053(5) 0.1130(7) 0.5888(4)
O2 O 0.8610(5) 0.3068(6) 0.6677(3)
O3 O 1.3178(4) 0.4669(5) 0.5500(2)
N1 N 0.8103(5) 0.2076(5) 0.5896(3)
N2 N 1.3809(5) 0.3507(7) 0.3985(4)
H1 H 1.4701 0.4002 0.4120
H2 H 1.3546 0.2856 0.3409
C1 C 0.8373(6) 0.1359(7) 0.3967(4)
C2 C 0.9221(6) 0.1454(7) 0.3143(4)
H3 H 0.8819 0.1004 0.2448
C3 C 1.0637(6) 0.2201(7) 0.3346(4)
H4 H 1.1188 0.2260 0.2779
C4 C 1.1312(5) 0.2902(6) 0.4397(3)
C5 C 1.0412(5) 0.2840(6) 0.5196(3)
H5 H 1.0790 0.3319 0.5888
C6 C 0.8958(5) 0.2076(6) 0.4985(4)
C7 C 1.2837(6) 0.3746(7) 0.4668(4)
loop_
_geom_bond_atom_site_label_1
_geom_bond_atom_site_label_2
_geom_bond_site_symmetry_1
_geom_bond_site_symmetry_2
Cl1 C1 1_555 1_555
O1 N1 1_555 1_555
O2 N1 1_555 1_555
O3 C7 1_555 1_555
N1 C6 1_555 1_555
N2 H1 1_555 1_555
H2 N2 1_555 1_555
C1 C2 1_555 1_555
C2 H3 1_555 1_555
C3 C2 1_555 1_555
H4 C3 1_555 1_555
C4 C3 1_555 1_555
C5 C4 1_555 1_555
H5 C5 1_555 1_555
C6 C1 1_555 1_555
C7 N2 1_555 1_555
C4 C7 1_555 1_555
C5 C6 1_555 1_555

#END
