
#######################################################################
#
#                 Cambridge Crystallographic Data Centre
#                                CCDC 
#
#######################################################################
#
# If this CIF has been generated from an entry in the Cambridge 
# Structural Database, then it will include bibliographic, chemical, 
# crystal, experimental, refinement or atomic coordinate data resulting 
# from the CCDC's data processing and validation procedures.
#
#######################################################################

data_DOKVUV
_chemical_formula_moiety         'C15 H14 N2 O4'
_chemical_name_systematic        'Ethyl 4-anilino-3-nitrobenzoate'
_symmetry_cell_setting           monoclinic
_symmetry_space_group_name_H-M   'P 21/n'
_symmetry_Int_Tables_number      14
_space_group_name_Hall           '-P 2yn'
loop_
_symmetry_equiv_pos_site_id
_symmetry_equiv_pos_as_xyz
1 x,y,z
2 1/2-x,1/2+y,1/2-z
3 -x,-y,-z
4 1/2+x,1/2-y,1/2+z
_cell_length_a                   10.683(2)
_cell_length_b                   9.905(2)
_cell_length_c                   13.698(3)
_cell_angle_alpha                90
_cell_angle_beta                 105.05(3)
_cell_angle_gamma                90
_cell_volume                     1399.74
_exptl_crystal_colour            colorless
_exptl_crystal_description       block
_cell_formula_units_Z            4
_exptl_crystal_recrystallization_method ethanol
loop_
_atom_site_label
_atom_site_type_symbol
_atom_site_fract_x
_atom_site_fract_y
_atom_site_fract_z
O1 O 0.0229(3) 0.1219(3) 0.2353(2)
O2 O 0.1935(2) -0.0076(3) 0.2291(2)
O3 O -0.0506(3) -0.4222(3) -0.1083(3)
O4 O 0.1353(3) -0.3433(4) -0.0297(3)
N1 N 0.0155(3) -0.3404(4) -0.0480(3)
N2 N -0.2640(3) -0.2968(4) -0.1003(2)
H1 H -0.2321 -0.3625 -0.1271
C1 C 0.0290(5) 0.2946(6) 0.3560(4)
H2 H 0.0836 0.3471 0.4092
H3 H -0.0328 0.2455 0.3820
H4 H -0.0159 0.3535 0.3027
C2 C 0.1084(4) 0.1999(5) 0.3166(4)
H5 H 0.1541 0.1399 0.3700
H6 H 0.1718 0.2486 0.2909
C3 C 0.0774(4) 0.0183(4) 0.2003(3)
C4 C -0.0131(3) -0.0606(4) 0.1202(3)
C5 C 0.0350(3) -0.1607(4) 0.0723(3)
H7 H 0.1238 -0.1764 0.0897
C6 C -0.0450(3) -0.2399(4) -0.0018(3)
C7 C -0.1821(3) -0.2191(4) -0.0295(3)
C8 C -0.2275(3) -0.1155(4) 0.0203(3)
H8 H -0.3161 -0.0984 0.0034
C9 C -0.1479(3) -0.0370(4) 0.0934(3)
H9 H -0.1827 0.0313 0.1249
C10 C -0.4030(3) -0.2732(5) -0.1322(3)
C11 C -0.4831(4) -0.3588(6) -0.1004(4)
H10 H -0.4487 -0.4284 -0.0559
C12 C -0.6166(5) -0.3428(7) -0.1342(5)
H11 H -0.6722 -0.4012 -0.1127
C13 C -0.6650(4) -0.2397(7) -0.1995(5)
H12 H -0.7543 -0.2280 -0.2219
C14 C -0.5848(4) -0.1536(6) -0.2324(4)
H13 H -0.6199 -0.0841 -0.2768
C15 C -0.4501(4) -0.1691(5) -0.1999(4)
H14 H -0.3944 -0.1122 -0.2226
loop_
_geom_bond_atom_site_label_1
_geom_bond_atom_site_label_2
_geom_bond_site_symmetry_1
_geom_bond_site_symmetry_2
O1 C2 1_555 1_555
O2 C3 1_555 1_555
O3 N1 1_555 1_555
O4 N1 1_555 1_555
N1 C6 1_555 1_555
N2 H1 1_555 1_555
C1 H2 1_555 1_555
H3 C1 1_555 1_555
H4 C1 1_555 1_555
C2 C1 1_555 1_555
H5 C2 1_555 1_555
H6 C2 1_555 1_555
C3 O1 1_555 1_555
C4 C3 1_555 1_555
C5 C4 1_555 1_555
H7 C5 1_555 1_555
C6 C5 1_555 1_555
C7 N2 1_555 1_555
C8 C7 1_555 1_555
H8 C8 1_555 1_555
C9 C4 1_555 1_555
H9 C9 1_555 1_555
C10 N2 1_555 1_555
C11 C10 1_555 1_555
H10 C11 1_555 1_555
C12 C11 1_555 1_555
H11 C12 1_555 1_555
C13 C12 1_555 1_555
H12 C13 1_555 1_555
C14 C13 1_555 1_555
H13 C14 1_555 1_555
C15 C10 1_555 1_555
H14 C15 1_555 1_555
C6 C7 1_555 1_555
C8 C9 1_555 1_555
C14 C15 1_555 1_555

#END
