
#######################################################################
#
#                 Cambridge Crystallographic Data Centre
#                                CCDC 
#
#######################################################################
#
# If this CIF has been generated from an entry in the Cambridge 
# Structural Database, then it will include bibliographic, chemical, 
# crystal, experimental, refinement or atomic coordinate data resulting 
# from the CCDC's data processing and validation procedures.
#
#######################################################################

data_DOKVEF
_chemical_formula_moiety         'C18 H14 F3 N3 O5,H2 O1'
_chemical_name_systematic        
'5-Benzoyl-4-hydroxy-6-(4-nitrophenyl)-4-trifluoromethyl-3,4,5,6-tetrahydropyrimidin-2(1H)-one monohydrate'
_symmetry_cell_setting           orthorhombic
_symmetry_space_group_name_H-M   'P n a 21'
_symmetry_Int_Tables_number      33
_space_group_name_Hall           'P 2c -2n'
loop_
_symmetry_equiv_pos_site_id
_symmetry_equiv_pos_as_xyz
1 x,y,z
2 -x,-y,1/2+z
3 1/2-x,1/2+y,1/2+z
4 1/2+x,1/2-y,z
_cell_length_a                   14.389(3)
_cell_length_b                   9.0391(18)
_cell_length_c                   28.141(6)
_cell_angle_alpha                90
_cell_angle_beta                 90
_cell_angle_gamma                90
_cell_volume                     3660.12
_exptl_crystal_colour            colorless
_exptl_crystal_description       Prism
_cell_formula_units_Z            8
_exptl_crystal_recrystallization_method ethanol
loop_
_atom_site_label
_atom_site_type_symbol
_atom_site_fract_x
_atom_site_fract_y
_atom_site_fract_z
N1 N -0.09671(16) 0.3614(2) 0.59693(8)
H1 H -0.158(2) 0.351(3) 0.5850(13)
N2 N 0.05590(16) 0.2777(3) 0.59022(9)
H2 H 0.088(3) 0.198(4) 0.5786(14)
N3 N 0.40154(18) 0.2937(3) 0.73426(9)
O1 O -0.06318(13) 0.1373(2) 0.56457(7)
O2 O 0.09085(15) 0.7349(2) 0.62345(8)
O3 O 0.38832(18) 0.2127(3) 0.76856(9)
O4 O 0.47761(17) 0.3480(3) 0.72524(11)
O5 O -0.04878(14) 0.5953(2) 0.56735(7)
H5 H -0.101(3) 0.613(4) 0.5511(14)
C1 C -0.03449(18) 0.2551(3) 0.58280(10)
C2 C 0.09768(18) 0.4139(3) 0.60829(9)
H7 H 0.1185 0.4770 0.5811
C3 C 0.02400(17) 0.4968(3) 0.63747(9)
H8 H 0.0100 0.4373 0.6666
C4 C -0.06557(18) 0.5103(3) 0.60803(9)
C5 C 0.17991(18) 0.3796(3) 0.64030(9)
C6 C 0.17091(19) 0.2707(3) 0.67560(11)
H9 H 0.1153 0.2144 0.6777
C7 C 0.2428(2) 0.2452(3) 0.70731(10)
H10 H 0.2368 0.1733 0.7317
C8 C 0.32376(19) 0.3271(3) 0.70250(10)
C9 C 0.33499(19) 0.4337(3) 0.66753(10)
H11 H 0.3915 0.4873 0.6648
C10 C 0.26174(19) 0.4602(3) 0.63676(10)
H12 H 0.2676 0.5342 0.6130
C11 C 0.06423(19) 0.6473(3) 0.65320(10)
C12 C 0.0703(2) 0.6817(3) 0.70501(11)
C13 C 0.0605(2) 0.5753(3) 0.74055(11)
H13 H 0.0485 0.4751 0.7324
C14 C 0.0685(3) 0.6161(4) 0.78780(13)
H14 H 0.0626 0.5434 0.8120
C15 C 0.0846(3) 0.7598(5) 0.79987(15)
H15 H 0.0898 0.7863 0.8324
C16 C 0.0935(3) 0.8662(4) 0.76563(17)
H16 H 0.1037 0.9663 0.7745
C17 C 0.0875(3) 0.8281(4) 0.71771(14)
H17 H 0.0950 0.9016 0.6939
C18 C -0.14246(19) 0.5841(3) 0.63835(10)
F1 F -0.14776(12) 0.52363(19) 0.68178(6)
F2 F -0.22576(11) 0.57373(19) 0.61866(6)
F3 F -0.12376(13) 0.72802(19) 0.64456(7)
N4 N 0.17052(16) 1.1349(2) 0.98405(8)
H3 H 0.117(2) 1.137(3) 0.9964(13)
N5 N 0.32327(15) 1.2159(3) 0.99252(9)
H4 H 0.364(3) 1.277(4) 1.0061(14)
N6 N 0.66618(17) 1.2226(3) 0.84793(9)
O6 O 0.20406(14) 1.35887(19) 1.01700(7)
O7 O 0.36076(15) 0.7632(2) 0.95958(8)
O8 O 0.64950(18) 1.2982(3) 0.81335(9)
O9 O 0.74415(16) 1.1810(3) 0.85877(10)
O10 O 0.21816(13) 0.9012(2) 1.01373(7)
H6 H 0.1681(18) 0.889(4) 1.0294(13)
C19 C 0.23177(18) 1.2409(3) 0.99904(10)
C20 C 0.36507(18) 1.0817(3) 0.97328(10)
H18 H 0.3873 1.0176 0.9999
C21 C 0.29152(17) 0.9978(3) 0.94407(9)
H19 H 0.2781 1.0563 0.9147
C22 C 0.20117(18) 0.9860(3) 0.97330(9)
C23 C 0.44638(18) 1.1209(3) 0.94105(10)
C24 C 0.43558(19) 1.2302(3) 0.90652(11)
H20 H 0.3790 1.2840 0.9047
C25 C 0.5063(2) 1.2605(3) 0.87512(11)
H21 H 0.4986 1.3324 0.8508
C26 C 0.58888(18) 1.1836(3) 0.87981(10)
C27 C 0.60266(19) 1.0753(3) 0.91366(10)
H22 H 0.6603 1.0247 0.9161
C28 C 0.52921(19) 1.0424(3) 0.94424(10)
H23 H 0.5358 0.9663 0.9673
C29 C 0.33101(19) 0.8468(3) 0.92912(10)
C30 C 0.3331(2) 0.8049(3) 0.87787(11)
C31 C 0.3250(2) 0.9069(3) 0.84102(11)
H24 H 0.3171 1.0090 0.8480
C32 C 0.3284(3) 0.8593(4) 0.79407(12)
H25 H 0.3237 0.9292 0.7690
C33 C 0.3385(3) 0.7107(4) 0.78375(14)
H26 H 0.3397 0.6785 0.7516
C34 C 0.3470(3) 0.6092(4) 0.82007(14)
H27 H 0.3544 0.5072 0.8128
C35 C 0.3447(3) 0.6548(3) 0.86693(12)
H28 H 0.3509 0.5843 0.8918
C36 C 0.1248(2) 0.9125(3) 0.94281(10)
F4 F 0.04104(12) 0.92471(19) 0.96255(6)
F5 F 0.12020(12) 0.97358(19) 0.89937(6)
F6 F 0.14278(13) 0.76842(18) 0.93679(8)
O11 O 0.21603(13) 0.1296(2) 0.54929(8)
H29 H 0.215(3) 0.183(4) 0.5257(15)
H30 H 0.228(3) 0.046(4) 0.5390(14)
O12 O 0.01675(13) 0.8681(2) 0.53237(8)
H31 H 0.012(2) 0.807(4) 0.5554(15)
H32 H 0.015(3) 0.948(4) 0.5459(14)
loop_
_geom_bond_atom_site_label_1
_geom_bond_atom_site_label_2
_geom_bond_site_symmetry_1
_geom_bond_site_symmetry_2
N1 H1 1_555 1_555
N2 H2 1_555 1_555
N3 O3 1_555 1_555
N4 H3 1_555 1_555
N5 H4 1_555 1_555
N6 O8 1_555 1_555
O1 C1 1_555 1_555
O2 C11 1_555 1_555
O4 N3 1_555 1_555
O5 H5 1_555 1_555
O6 C19 1_555 1_555
O7 C29 1_555 1_555
O9 N6 1_555 1_555
O10 H6 1_555 1_555
C1 N1 1_555 1_555
C2 N2 1_555 1_555
H7 C2 1_555 1_555
C3 C2 1_555 1_555
H8 C3 1_555 1_555
C4 N1 1_555 1_555
C5 C2 1_555 1_555
C6 C5 1_555 1_555
H9 C6 1_555 1_555
C7 C6 1_555 1_555
H10 C7 1_555 1_555
C8 N3 1_555 1_555
C9 C8 1_555 1_555
H11 C9 1_555 1_555
C10 C5 1_555 1_555
H12 C10 1_555 1_555
C11 C3 1_555 1_555
C12 C11 1_555 1_555
C13 C12 1_555 1_555
H13 C13 1_555 1_555
C14 C13 1_555 1_555
H14 C14 1_555 1_555
C15 C14 1_555 1_555
H15 C15 1_555 1_555
C16 C15 1_555 1_555
H16 C16 1_555 1_555
C17 C12 1_555 1_555
H17 C17 1_555 1_555
C18 C4 1_555 1_555
C19 N4 1_555 1_555
C20 N5 1_555 1_555
H18 C20 1_555 1_555
C21 C20 1_555 1_555
H19 C21 1_555 1_555
C22 N4 1_555 1_555
C23 C20 1_555 1_555
C24 C23 1_555 1_555
H20 C24 1_555 1_555
C25 C24 1_555 1_555
H21 C25 1_555 1_555
C26 N6 1_555 1_555
C27 C26 1_555 1_555
H22 C27 1_555 1_555
C28 C23 1_555 1_555
H23 C28 1_555 1_555
C29 C21 1_555 1_555
C30 C29 1_555 1_555
C31 C30 1_555 1_555
H24 C31 1_555 1_555
C32 C31 1_555 1_555
H25 C32 1_555 1_555
C33 C32 1_555 1_555
H26 C33 1_555 1_555
C34 C33 1_555 1_555
H27 C34 1_555 1_555
C35 C30 1_555 1_555
H28 C35 1_555 1_555
C36 C22 1_555 1_555
F1 C18 1_555 1_555
F2 C18 1_555 1_555
F3 C18 1_555 1_555
F4 C36 1_555 1_555
F5 C36 1_555 1_555
F6 C36 1_555 1_555
O11 H29 1_555 1_555
H30 O11 1_555 1_555
O12 H31 1_555 1_555
H32 O12 1_555 1_555
N2 C1 1_555 1_555
N5 C19 1_555 1_555
O5 C4 1_555 1_555
O10 C22 1_555 1_555
C3 C4 1_555 1_555
C7 C8 1_555 1_555
C9 C10 1_555 1_555
C16 C17 1_555 1_555
C21 C22 1_555 1_555
C25 C26 1_555 1_555
C27 C28 1_555 1_555
C34 C35 1_555 1_555

#END
