
#######################################################################
#
#                 Cambridge Crystallographic Data Centre
#                                CCDC 
#
#######################################################################
#
# If this CIF has been generated from an entry in the Cambridge 
# Structural Database, then it will include bibliographic, chemical, 
# crystal, experimental, refinement or atomic coordinate data resulting 
# from the CCDC's data processing and validation procedures.
#
#######################################################################

data_DOKYEI
_chemical_formula_moiety         'C22 H16 N2'
_chemical_name_systematic        2,3,5-Triphenylpyrazine
_symmetry_cell_setting           orthorhombic
_symmetry_space_group_name_H-M   'P n a 21'
_symmetry_Int_Tables_number      33
_space_group_name_Hall           'P 2c -2n'
loop_
_symmetry_equiv_pos_site_id
_symmetry_equiv_pos_as_xyz
1 x,y,z
2 -x,-y,1/2+z
3 1/2-x,1/2+y,1/2+z
4 1/2+x,1/2-y,z
_cell_length_a                   15.563(2)
_cell_length_b                   6.2005(9)
_cell_length_c                   16.845(3)
_cell_angle_alpha                90
_cell_angle_beta                 90
_cell_angle_gamma                90
_cell_volume                     1625.52
_exptl_crystal_colour            colorless
_exptl_crystal_description       chunk
_chemical_melting_point          '421 K'
_cell_formula_units_Z            4
loop_
_atom_site_label
_atom_site_type_symbol
_atom_site_fract_x
_atom_site_fract_y
_atom_site_fract_z
N1 N 0.2355(2) 0.1296(5) 0.19242(19)
N2 N 0.3436(2) -0.1252(5) 0.10173(19)
C1 C 0.2412(3) 0.1612(5) 0.1141(2)
C2 C 0.3009(3) 0.0395(6) 0.0686(2)
C3 C 0.3329(3) -0.1640(6) 0.1791(2)
C4 C 0.2822(3) -0.0252(7) 0.2244(3)
C5 C 0.1810(3) 0.3188(6) 0.0793(2)
C6 C 0.1658(3) 0.5110(6) 0.1192(3)
C7 C 0.1074(3) 0.6577(7) 0.0897(3)
C8 C 0.0622(3) 0.6125(8) 0.0212(3)
C9 C 0.0760(3) 0.4218(8) -0.0185(3)
C10 C 0.1359(3) 0.2775(8) 0.0110(3)
C11 C 0.3243(3) 0.0908(7) -0.0142(2)
C12 C 0.3486(3) 0.2977(7) -0.0358(3)
C13 C 0.3772(3) 0.3414(7) -0.1116(3)
C14 C 0.3783(3) 0.1810(8) -0.1676(3)
C15 C 0.3525(3) -0.0229(8) -0.1474(3)
C16 C 0.3261(3) -0.0692(6) -0.0714(2)
C17 C 0.3770(3) -0.3528(6) 0.2136(2)
C18 C 0.4302(3) -0.4792(7) 0.1662(3)
C19 C 0.4682(3) -0.6620(7) 0.1961(3)
C20 C 0.4543(3) -0.7247(8) 0.2734(3)
C21 C 0.4017(4) -0.6012(8) 0.3210(3)
C22 C 0.3635(3) -0.4195(7) 0.2911(3)
H1 H 0.28114 -0.04259 0.27921
H2 H 0.19510 0.54089 0.16601
H3 H 0.09840 0.78757 0.11605
H4 H 0.02234 0.71109 0.00186
H5 H 0.04549 0.39011 -0.06447
H6 H 0.14584 0.14928 -0.01612
H7 H 0.34552 0.40842 0.00137
H8 H 0.39584 0.47943 -0.12464
H9 H 0.39640 0.21058 -0.21902
H10 H 0.35281 -0.13135 -0.18555
H11 H 0.30936 -0.20876 -0.05833
H12 H 0.44015 -0.43949 0.11371
H13 H 0.50365 -0.74446 0.16366
H14 H 0.48007 -0.84883 0.29325
H15 H 0.39220 -0.64112 0.37352
H16 H 0.32749 -0.33888 0.32367
loop_
_geom_bond_atom_site_label_1
_geom_bond_atom_site_label_2
_geom_bond_site_symmetry_1
_geom_bond_site_symmetry_2
N1 C1 1_555 1_555
N2 C2 1_555 1_555
C1 C2 1_555 1_555
C2 C11 1_555 1_555
C3 N2 1_555 1_555
C4 N1 1_555 1_555
C5 C1 1_555 1_555
C6 C5 1_555 1_555
C7 C6 1_555 1_555
C8 C7 1_555 1_555
C9 C8 1_555 1_555
C10 C5 1_555 1_555
C11 C12 1_555 1_555
C12 C13 1_555 1_555
C13 C14 1_555 1_555
C14 C15 1_555 1_555
C15 C16 1_555 1_555
C16 C11 1_555 1_555
C17 C3 1_555 1_555
C18 C17 1_555 1_555
C19 C18 1_555 1_555
C20 C19 1_555 1_555
C21 C20 1_555 1_555
C22 C17 1_555 1_555
H1 C4 1_555 1_555
H2 C6 1_555 1_555
H3 C7 1_555 1_555
H4 C8 1_555 1_555
H5 C9 1_555 1_555
H6 C10 1_555 1_555
H7 C12 1_555 1_555
H8 C13 1_555 1_555
H9 C14 1_555 1_555
H10 C15 1_555 1_555
H11 C16 1_555 1_555
H12 C18 1_555 1_555
H13 C19 1_555 1_555
H14 C20 1_555 1_555
H15 C21 1_555 1_555
H16 C22 1_555 1_555
C3 C4 1_555 1_555
C9 C10 1_555 1_555
C21 C22 1_555 1_555

#END
