
#######################################################################
#
#                 Cambridge Crystallographic Data Centre
#                                CCDC 
#
#######################################################################
#
# If this CIF has been generated from an entry in the Cambridge 
# Structural Database, then it will include bibliographic, chemical, 
# crystal, experimental, refinement or atomic coordinate data resulting 
# from the CCDC's data processing and validation procedures.
#
#######################################################################

data_DOLBIR07
_chemical_formula_moiety         'C2 H5 N1 O2'
_chemical_name_systematic        glycine
_symmetry_cell_setting           monoclinic
_symmetry_space_group_name_H-M   'P 21/n'
_symmetry_Int_Tables_number      14
_space_group_name_Hall           '-P 2yn'
loop_
_symmetry_equiv_pos_site_id
_symmetry_equiv_pos_as_xyz
1 x,y,z
2 1/2-x,1/2+y,1/2-z
3 -x,-y,-z
4 1/2+x,1/2-y,1/2+z
_cell_length_a                   5.0855(3)
_cell_length_b                   11.8018(8)
_cell_length_c                   5.4600(4)
_cell_angle_alpha                90
_cell_angle_beta                 111.9730(10)
_cell_angle_gamma                90
_cell_volume                     303.895
_exptl_crystal_colour            colorless
_exptl_crystal_description       prism
_cell_formula_units_Z            4
loop_
_atom_site_label
_atom_site_type_symbol
_atom_site_fract_x
_atom_site_fract_y
_atom_site_fract_z
O1 O 0.69761(15) 0.09378(6) 0.26363(14)
O2 O 1.15466(15) 0.14227(7) 0.39332(15)
N1 N 0.70414(18) 0.08855(8) 0.75945(17)
H1 H 0.5364 0.1176 0.6476
H2 H 0.7205 0.1000 0.9293
H3 H 0.7098 0.0129 0.7293
C1 C 0.9300(2) 0.12501(8) 0.43382(19)
C2 C 0.9416(2) 0.14578(9) 0.71398(19)
H4 H 1.1240 0.1172 0.8427
H5 H 0.9325 0.2283 0.7430
loop_
_geom_bond_atom_site_label_1
_geom_bond_atom_site_label_2
_geom_bond_site_symmetry_1
_geom_bond_site_symmetry_2
O1 C1 1_555 1_555
O2 C1 1_555 1_555
N1 H1 1_555 1_555
H2 N1 1_555 1_555
H3 N1 1_555 1_555
C1 C2 1_555 1_555
C2 N1 1_555 1_555
H4 C2 1_555 1_555
H5 C2 1_555 1_555

#END
