
#######################################################################
#
#                 Cambridge Crystallographic Data Centre
#                                CCDC 
#
#######################################################################
#
# If this CIF has been generated from an entry in the Cambridge 
# Structural Database, then it will include bibliographic, chemical, 
# crystal, experimental, refinement or atomic coordinate data resulting 
# from the CCDC's data processing and validation procedures.
#
#######################################################################

data_DOLCEO
_chemical_name_common            
"25,27-(2,2'-[(5,10,10,15,20,20-hexamethyl-5,10,15,20,22,24-hexahydroporphyrin-5,15-diyl)bis(benzene-4,1-diyloxy)]diethanolate)-26,28-dihydroxycalix(4)arene chloroform methanol solvate"
_chemical_formula_moiety         'C70 H68 N4 O6,C1 H1 Cl3,2(C2 H6 O1)'
_chemical_name_systematic        
'1,37,42,42,51,51-hexamethyl-6,9,29,32-tetraoxa-56,57,58,59-tetraazatridecacyclo[35.9.9.7^11,27^.2^2,5^.2^33,36^.1^17,21^.1^38,41^.1^43,46^.1^47,50^.1^52,55^.1^63,67^.0^10,15^.0^23,28^]doheptaconta-2,4,10,12,14,17(69),18,20,23,25,27,33,35,38,40,43,45,47,49,52,54,60,63(72),64,66,70-hexacosaene-69,72-diol chloroform methanol solvate'
_symmetry_cell_setting           monoclinic
_symmetry_space_group_name_H-M   'P 21/c'
_symmetry_Int_Tables_number      14
_space_group_name_Hall           '-P 2ybc'
loop_
_symmetry_equiv_pos_site_id
_symmetry_equiv_pos_as_xyz
1 x,y,z
2 -x,1/2+y,1/2-z
3 -x,-y,-z
4 x,1/2-y,1/2+z
_cell_length_a                   18.865(3)
_cell_length_b                   17.828(3)
_cell_length_c                   20.315(4)
_cell_angle_alpha                90
_cell_angle_beta                 107.064(3)
_cell_angle_gamma                90
_cell_volume                     6531.67
_exptl_crystal_colour            colorless
_exptl_crystal_description       prisms
_cell_formula_units_Z            4
loop_
_atom_site_label
_atom_site_type_symbol
_atom_site_fract_x
_atom_site_fract_y
_atom_site_fract_z
O1 O 0.57378(9) 0.66088(13) 0.76648(9)
O2 O 0.42270(9) 0.70112(13) 0.61933(9)
O3 O 0.46855(9) 0.67516(12) 0.41927(9)
O4 O 0.65997(9) 0.71771(11) 0.45568(9)
O5 O 0.43883(10) 0.58357(11) 0.52293(10)
H1 H 0.4298 0.6172 0.5483
O6 O 0.42691(11) 0.77966(11) 0.49916(10)
H2 H 0.4411 0.7864 0.5420
N1 N 0.96319(9) 0.72135(10) 0.68208(9)
H3 H 0.9222 0.6967 0.6801
N2 N 0.96658(10) 0.59475(10) 0.78687(9)
H4 H 0.9909 0.6303 0.8145
N3 N 0.90101(10) 0.70575(10) 0.88391(9)
H5 H 0.8650 0.7206 0.8479
N4 N 0.93028(10) 0.83888(10) 0.79608(9)
H6 H 0.9738 0.8175 0.8022
C1 C 0.96739(11) 0.79783(11) 0.67471(10)
C2 C 1.03981(12) 0.81439(12) 0.68075(12)
H7 H 1.0596 0.8629 0.6778
C3 C 1.08029(12) 0.74575(12) 0.69225(12)
H8 H 1.1319 0.7404 0.6983
C4 C 1.03179(11) 0.68868(11) 0.69305(10)
C5 C 1.04358(11) 0.60505(12) 0.70409(11)
C6 C 0.98189(11) 0.57104(11) 0.72807(11)
C7 C 0.93186(12) 0.51541(12) 0.69974(12)
H9 H 0.9287 0.4886 0.6586
C8 C 0.88569(12) 0.50513(13) 0.74295(12)
H10 H 0.8464 0.4699 0.7361
C9 C 0.90777(12) 0.55496(12) 0.79640(11)
C10 C 0.87705(12) 0.56827(12) 0.85656(11)
C11 C 0.91766(11) 0.63197(12) 0.90122(11)
C12 C 0.97663(13) 0.63270(14) 0.95991(12)
H11 H 1.0009 0.5899 0.9841
C13 C 0.99513(14) 0.70847(15) 0.97816(12)
H12 H 1.0336 0.7254 1.0169
C14 C 0.94739(12) 0.75304(13) 0.92970(11)
C15 C 0.93817(12) 0.83759(13) 0.92229(12)
C16 C 0.89995(12) 0.85718(12) 0.84814(11)
C17 C 0.83239(13) 0.88954(14) 0.81756(13)
H13 H 0.7987 0.9077 0.8406
C18 C 0.82173(13) 0.89120(13) 0.74589(12)
H14 H 0.7798 0.9112 0.7122
C19 C 0.88255(11) 0.85887(12) 0.73320(11)
C20 C 0.90011(11) 0.84789(11) 0.66535(11)
C21 C 1.04484(14) 0.56720(13) 0.63657(12)
H15 H 1.0540 0.5134 0.6444
H16 H 1.0843 0.5893 0.6205
H17 H 0.9970 0.5747 0.6017
C22 C 1.11920(13) 0.59162(14) 0.75750(13)
H18 H 1.1189 0.6131 0.8018
H19 H 1.1582 0.6157 0.7420
H20 H 1.1288 0.5376 0.7628
C23 C 0.88829(14) 0.49538(13) 0.89974(13)
H21 H 0.8571 0.4555 0.8729
H22 H 0.8745 0.5043 0.9420
H23 H 0.9405 0.4802 0.9117
C24 C 0.89134(15) 0.86524(15) 0.96782(13)
H24 H 0.8870 0.9200 0.9647
H25 H 0.9153 0.8507 1.0157
H26 H 0.8418 0.8427 0.9521
C25 C 1.01488(13) 0.87541(14) 0.94731(13)
H27 H 1.0444 0.8614 0.9168
H28 H 1.0403 0.8589 0.9943
H29 H 1.0087 0.9300 0.9467
C26 C 0.91851(13) 0.92565(12) 0.64061(12)
H30 H 0.9591 0.9487 0.6766
H31 H 0.8746 0.9579 0.6309
H32 H 0.9335 0.9196 0.5986
C27 C 0.79424(12) 0.58955(12) 0.82945(11)
C28 C 0.76735(12) 0.62981(13) 0.76913(12)
H33 H 0.7998 0.6408 0.7424
C29 C 0.69447(13) 0.65480(15) 0.74620(12)
H34 H 0.6777 0.6826 0.7046
C30 C 0.64678(13) 0.63888(15) 0.78429(13)
C31 C 0.67226(14) 0.5982(2) 0.84484(15)
H35 H 0.6394 0.5865 0.8710
C32 C 0.74497(14) 0.57461(17) 0.86722(14)
H36 H 0.7618 0.5476 0.9093
C33 C 0.54131(13) 0.68486(17) 0.69788(13)
H37 H 0.5466 0.6458 0.6650
H38 H 0.5650 0.7316 0.6886
C34 C 0.46075(13) 0.6982(2) 0.69166(13)
H39 H 0.4410 0.6569 0.7137
H40 H 0.4545 0.7460 0.7142
C35 C 0.34550(13) 0.70154(18) 0.60614(12)
C36 C 0.30860(15) 0.76928(19) 0.59152(13)
C37 C 0.23158(16) 0.7681(2) 0.58051(14)
H41 H 0.2042 0.8135 0.5705
C38 C 0.19535(15) 0.7020(2) 0.58399(14)
H42 H 0.1435 0.7027 0.5778
C39 C 0.23268(16) 0.6354(2) 0.59613(15)
H43 H 0.2065 0.5903 0.5977
C40 C 0.30948(14) 0.6332(2) 0.60634(13)
C41 C 0.34822(17) 0.55840(19) 0.61149(15)
H44 H 0.3305 0.5247 0.6421
H45 H 0.4023 0.5655 0.6319
C42 C 0.33319(15) 0.52289(17) 0.54117(15)
C43 C 0.37728(14) 0.53902(15) 0.49846(14)
C44 C 0.36096(15) 0.50965(15) 0.43250(15)
C45 C 0.29794(18) 0.46493(17) 0.40926(17)
H46 H 0.2851 0.4454 0.3638
C46 C 0.25388(19) 0.44833(19) 0.4506(2)
H47 H 0.2113 0.4175 0.4339
C47 C 0.27215(17) 0.47681(19) 0.51606(19)
H48 H 0.2422 0.4647 0.5449
C48 C 0.40720(16) 0.52870(16) 0.38487(15)
H49 H 0.4592 0.5377 0.4125
H50 H 0.4066 0.4858 0.3538
C49 C 0.37737(13) 0.59752(14) 0.34270(12)
C50 C 0.40602(12) 0.66868(14) 0.36210(12)
C51 C 0.37307(14) 0.73395(15) 0.32926(13)
C52 C 0.31172(15) 0.72607(17) 0.27189(14)
H51 H 0.2884 0.7694 0.2479
C53 C 0.28426(14) 0.65614(18) 0.24938(13)
H52 H 0.2431 0.6516 0.2093
C54 C 0.31588(14) 0.59280(16) 0.28444(13)
H53 H 0.2955 0.5450 0.2688
C55 C 0.40112(19) 0.81154(16) 0.35522(19)
H54 H 0.3982 0.8442 0.3151
H55 H 0.4540 0.8077 0.3823
C56 C 0.35855(15) 0.84846(15) 0.39960(16)
C57 C 0.37287(14) 0.83040(15) 0.46941(15)
C58 C 0.33444(15) 0.86491(17) 0.51081(15)
C59 C 0.28198(18) 0.9193(2) 0.47996(18)
H56 H 0.2554 0.9440 0.5069
C60 C 0.26774(18) 0.9382(2) 0.41173(19)
H57 H 0.2321 0.9757 0.3920
C61 C 0.30546(17) 0.90227(18) 0.37209(17)
H58 H 0.2947 0.9148 0.3247
C62 C 0.34826(18) 0.8418(2) 0.58497(16)
H59 H 0.3311 0.8821 0.6101
H60 H 0.4022 0.8352 0.6066
C63 C 0.53799(13) 0.67752(17) 0.40360(13)
H61 H 0.5383 0.7189 0.3712
H62 H 0.5470 0.6297 0.3827
C64 C 0.59611(13) 0.69021(16) 0.47146(13)
H63 H 0.5785 0.7272 0.4995
H64 H 0.6076 0.6427 0.4976
C65 C 0.71598(12) 0.74644(13) 0.50903(12)
C66 C 0.77236(13) 0.78253(15) 0.49162(12)
H65 H 0.7714 0.7853 0.4447
C67 C 0.83039(13) 0.81476(15) 0.54164(12)
H66 H 0.8688 0.8393 0.5284
C68 C 0.83397(11) 0.81219(11) 0.61087(11)
C69 C 0.77795(14) 0.77324(15) 0.62752(12)
H67 H 0.7795 0.7689 0.6745
C70 C 0.71945(15) 0.74020(16) 0.57733(13)
H68 H 0.6821 0.7135 0.5903
O7 O 1.07382(12) 0.75006(16) 0.84322(10)
H69 H 1.0823 0.7560 0.8052
C71 C 1.1428(2) 0.7485(2) 0.89742(16)
H70 H 1.1691 0.7015 0.8936
H71 H 1.1319 0.7475 0.9422
C72 C 1.1936(2) 0.8136(3) 0.8974(2)
H72 H 1.2041 0.8159 0.8530
H73 H 1.2401 0.8070 0.9344
H74 H 1.1697 0.8603 0.9048
O8 O 0.5615(2) 0.8384(2) 0.5803(2)
C73 C 0.5997(4) 0.8957(4) 0.5517(4)
C74 C 0.5531(7) 0.9497(7) 0.5112(8)
Cl1 Cl 0.48380(10) 0.92346(13) 0.74080(8)
Cl2 Cl 0.63052(10) 0.86291(14) 0.77946(13)
Cl3 Cl 0.6029(3) 1.00034(15) 0.70741(14)
C75 C 0.5639(3) 0.9141(3) 0.7173(3)
Cl4? Cl 0.5460(3) 0.8794(3) 0.6087(3)
Cl5? Cl 0.6326(5) 0.8986(6) 0.7478(5)
Cl6? Cl 0.5133(5) 0.9930(5) 0.6998(4)
C76? C 0.5783(7) 0.9418(8) 0.6750(5)
C77? C 0.5794(8) 0.9033(8) 0.4832(6)
loop_
_geom_bond_atom_site_label_1
_geom_bond_atom_site_label_2
_geom_bond_site_symmetry_1
_geom_bond_site_symmetry_2
O1 C30 1_555 1_555
O2 C34 1_555 1_555
O3 C50 1_555 1_555
O4 C64 1_555 1_555
O5 H1 1_555 1_555
O6 H2 1_555 1_555
N1 H3 1_555 1_555
N2 H4 1_555 1_555
N3 H5 1_555 1_555
N4 H6 1_555 1_555
C1 N1 1_555 1_555
C2 C1 1_555 1_555
H7 C2 1_555 1_555
C3 C2 1_555 1_555
H8 C3 1_555 1_555
C4 N1 1_555 1_555
C5 C4 1_555 1_555
C6 N2 1_555 1_555
C7 C6 1_555 1_555
H9 C7 1_555 1_555
C8 C7 1_555 1_555
H10 C8 1_555 1_555
C9 N2 1_555 1_555
C10 C9 1_555 1_555
C11 N3 1_555 1_555
C12 C11 1_555 1_555
H11 C12 1_555 1_555
C13 C12 1_555 1_555
H12 C13 1_555 1_555
C14 N3 1_555 1_555
C15 C14 1_555 1_555
C16 N4 1_555 1_555
C17 C16 1_555 1_555
H13 C17 1_555 1_555
C18 C17 1_555 1_555
H14 C18 1_555 1_555
C19 N4 1_555 1_555
C20 C1 1_555 1_555
C21 C5 1_555 1_555
H15 C21 1_555 1_555
H16 C21 1_555 1_555
H17 C21 1_555 1_555
C22 C5 1_555 1_555
H18 C22 1_555 1_555
H19 C22 1_555 1_555
H20 C22 1_555 1_555
C23 C10 1_555 1_555
H21 C23 1_555 1_555
H22 C23 1_555 1_555
H23 C23 1_555 1_555
C24 C15 1_555 1_555
H24 C24 1_555 1_555
H25 C24 1_555 1_555
H26 C24 1_555 1_555
C25 C15 1_555 1_555
H27 C25 1_555 1_555
H28 C25 1_555 1_555
H29 C25 1_555 1_555
C26 C20 1_555 1_555
H30 C26 1_555 1_555
H31 C26 1_555 1_555
H32 C26 1_555 1_555
C27 C10 1_555 1_555
C28 C27 1_555 1_555
H33 C28 1_555 1_555
C29 C28 1_555 1_555
H34 C29 1_555 1_555
C30 C29 1_555 1_555
C31 C30 1_555 1_555
H35 C31 1_555 1_555
C32 C27 1_555 1_555
H36 C32 1_555 1_555
C33 O1 1_555 1_555
H37 C33 1_555 1_555
H38 C33 1_555 1_555
C34 C33 1_555 1_555
H39 C34 1_555 1_555
H40 C34 1_555 1_555
C35 O2 1_555 1_555
C36 C35 1_555 1_555
C37 C36 1_555 1_555
H41 C37 1_555 1_555
C38 C37 1_555 1_555
H42 C38 1_555 1_555
C39 C38 1_555 1_555
H43 C39 1_555 1_555
C40 C35 1_555 1_555
C41 C40 1_555 1_555
H44 C41 1_555 1_555
H45 C41 1_555 1_555
C42 C41 1_555 1_555
C43 O5 1_555 1_555
C44 C43 1_555 1_555
C45 C44 1_555 1_555
H46 C45 1_555 1_555
C46 C45 1_555 1_555
H47 C46 1_555 1_555
C47 C42 1_555 1_555
H48 C47 1_555 1_555
C48 C44 1_555 1_555
H49 C48 1_555 1_555
H50 C48 1_555 1_555
C49 C48 1_555 1_555
C50 C49 1_555 1_555
C51 C50 1_555 1_555
C52 C51 1_555 1_555
H51 C52 1_555 1_555
C53 C52 1_555 1_555
H52 C53 1_555 1_555
C54 C49 1_555 1_555
H53 C54 1_555 1_555
C55 C51 1_555 1_555
H54 C55 1_555 1_555
H55 C55 1_555 1_555
C56 C55 1_555 1_555
C57 O6 1_555 1_555
C58 C57 1_555 1_555
C59 C58 1_555 1_555
H56 C59 1_555 1_555
C60 C59 1_555 1_555
H57 C60 1_555 1_555
C61 C56 1_555 1_555
H58 C61 1_555 1_555
C62 C36 1_555 1_555
H59 C62 1_555 1_555
H60 C62 1_555 1_555
C63 O3 1_555 1_555
H61 C63 1_555 1_555
H62 C63 1_555 1_555
C64 C63 1_555 1_555
H63 C64 1_555 1_555
H64 C64 1_555 1_555
C65 O4 1_555 1_555
C66 C65 1_555 1_555
H65 C66 1_555 1_555
C67 C66 1_555 1_555
H66 C67 1_555 1_555
C68 C20 1_555 1_555
C69 C68 1_555 1_555
H67 C69 1_555 1_555
C70 C65 1_555 1_555
H68 C70 1_555 1_555
O7 H69 1_555 1_555
C71 O7 1_555 1_555
H70 C71 1_555 1_555
H71 C71 1_555 1_555
C72 C71 1_555 1_555
H72 C72 1_555 1_555
H73 C72 1_555 1_555
H74 C72 1_555 1_555
O8 C73 1_555 1_555
C73 C74 1_555 1_555
Cl1 C75 1_555 1_555
Cl2 C75 1_555 1_555
Cl3 C75 1_555 1_555
C3 C4 1_555 1_555
C5 C6 1_555 1_555
C8 C9 1_555 1_555
C10 C11 1_555 1_555
C13 C14 1_555 1_555
C15 C16 1_555 1_555
C18 C19 1_555 1_555
C19 C20 1_555 1_555
C31 C32 1_555 1_555
C39 C40 1_555 1_555
C42 C43 1_555 1_555
C46 C47 1_555 1_555
C53 C54 1_555 1_555
C56 C57 1_555 1_555
C58 C62 1_555 1_555
C60 C61 1_555 1_555
C67 C68 1_555 1_555
C69 C70 1_555 1_555

#END
