
#######################################################################
#
#                 Cambridge Crystallographic Data Centre
#                                CCDC 
#
#######################################################################
#
# If this CIF has been generated from an entry in the Cambridge 
# Structural Database, then it will include bibliographic, chemical, 
# crystal, experimental, refinement or atomic coordinate data resulting 
# from the CCDC's data processing and validation procedures.
#
#######################################################################

data_DOLCUE
_chemical_name_common            
"Cesium 25,27-(2,2'-[(5,10,10,15,20,20-hexamethyl-5,10,15,20,22,24-hexahydroporphyrin-5,15-diyl)bis(benzene-4,1-diyloxy)]diethanolate)-26,28-dimethoxycalix(4)arene chloride chloroform methanol solvate"
_chemical_formula_moiety         
'C72 H72 N4 O6,C1 H4 O1,Cl1 1-,Cs1 1+,C1 H1 Cl3'
_chemical_name_systematic        
'Cesium 69,72-dimethoxy-1,37,42,42,51,51-hexamethyl-6,9,29,32-tetraoxa-56,57,58,59-tetraazatridecacyclo[35.9.9.7^11,27^.2^2,5^.2^33,36^.1^17,21^.1^38,41^.1^43,46^.1^47,50^.1^52,55^.1^63,67^.0^10,15^.0^23,28^]doheptaconta-2,4,10,12,14,17(69),18,20,23,25,27,33,35,38,40,43,45,47,49,52,54,60,63(72),64,66,70-hexacosaene chloride chloroform methanol solvate'
_symmetry_cell_setting           monoclinic
_symmetry_space_group_name_H-M   'P 2/n'
_symmetry_Int_Tables_number      13
_space_group_name_Hall           '-P 2yac'
loop_
_symmetry_equiv_pos_site_id
_symmetry_equiv_pos_as_xyz
1 x,y,z
2 1/2-x,y,1/2-z
3 -x,-y,-z
4 1/2+x,-y,1/2+z
_cell_length_a                   28.4416(13)
_cell_length_b                   17.3237(8)
_cell_length_c                   28.5922(14)
_cell_angle_alpha                90
_cell_angle_beta                 90.135(3)
_cell_angle_gamma                90
_cell_volume                     14087.7
_exptl_crystal_colour            colorless
_exptl_crystal_description       plates
_cell_formula_units_Z            8
loop_
_atom_site_label
_atom_site_type_symbol
_atom_site_fract_x
_atom_site_fract_y
_atom_site_fract_z
N1 N 0.2408(5) 0.8441(9) -0.0532(6)
H1 H 0.2482 0.7978 -0.0450
N2 N 0.3631(5) 0.8498(8) -0.0395(5)
H2 H 0.3496 0.8093 -0.0285
N3 N 0.3505(6) 0.8308(9) 0.0764(6)
H3 H 0.3372 0.7979 0.0581
N4 N 0.2295(6) 0.8260(11) 0.0673(7)
H4 H 0.2419 0.7868 0.0536
O1 O 0.4389(4) 0.5131(8) 0.0213(5)
O2 O 0.3939(4) 0.3632(8) -0.0034(5)
O3 O 0.2018(4) 0.3807(8) -0.0376(5)
O4 O 0.1463(5) 0.5214(8) -0.0238(5)
O5 O 0.3106(5) 0.3016(9) -0.0572(5)
O6 O 0.2749(5) 0.2874(8) 0.0983(5)
C1 C 0.1995(8) 0.8965(14) -0.0354(9)
C2 C 0.1977(7) 0.9590(11) -0.0590(8)
H5 H 0.1757 0.9981 -0.0548
C3 C 0.2347(7) 0.9600(11) -0.0931(8)
H6 H 0.2393 0.9978 -0.1157
C4 C 0.2628(6) 0.8936(11) -0.0863(7)
C5 C 0.3041(7) 0.8696(11) -0.1089(7)
C6 C 0.3481(6) 0.8877(10) -0.0787(7)
C7 C 0.3807(7) 0.9500(12) -0.0784(8)
H7 H 0.3796 0.9894 -0.1006
C8 C 0.4153(7) 0.9485(12) -0.0420(8)
H8 H 0.4399 0.9822 -0.0352
C9 C 0.4011(6) 0.8822(11) -0.0203(7)
C10 C 0.4241(9) 0.8443(14) 0.0264(10)
C11 C 0.3931(7) 0.8610(12) 0.0677(8)
C12 C 0.4041(8) 0.9203(13) 0.1010(8)
H9 H 0.4303 0.9521 0.1029
C13 C 0.3624(8) 0.9170(12) 0.1315(8)
H10 H 0.3579 0.9499 0.1568
C14 C 0.3292(7) 0.8576(11) 0.1181(8)
C15 C 0.2877(8) 0.8280(13) 0.1363(8)
C16 C 0.2454(7) 0.8568(11) 0.1089(8)
C17 C 0.2108(9) 0.9146(15) 0.1195(10)
H11 H 0.2086 0.9421 0.1474
C18 C 0.1806(6) 0.9226(11) 0.0804(7)
H12 H 0.1576 0.9602 0.0764
C19 C 0.1909(6) 0.8669(10) 0.0504(7)
C20 C 0.1713(7) 0.8447(11) 0.0022(8)
C21 C 0.3068(8) 0.9177(12) -0.1549(7)
H13 H 0.2786 0.9098 -0.1729
H14 H 0.3335 0.9014 -0.1729
H15 H 0.3098 0.9715 -0.1474
C22 C 0.3063(7) 0.7829(11) -0.1206(7)
H16 H 0.2997 0.7533 -0.0929
H17 H 0.3371 0.7702 -0.1318
H18 H 0.2834 0.7710 -0.1443
C23 C 0.4737(7) 0.8794(13) 0.0332(8)
H19 H 0.4709 0.9333 0.0404
H20 H 0.4915 0.8732 0.0050
H21 H 0.4894 0.8535 0.0585
C24 C 0.2852(9) 0.8643(14) 0.1865(8)
H22 H 0.2621 0.8374 0.2047
H23 H 0.2767 0.9178 0.1840
H24 H 0.3154 0.8600 0.2014
C25 C 0.2851(8) 0.7486(13) 0.1373(9)
H25 H 0.2833 0.7291 0.1059
H26 H 0.2576 0.7331 0.1543
H27 H 0.3126 0.7282 0.1525
C26 C 0.1209(7) 0.8842(12) -0.0023(8)
H28 H 0.1108 0.8829 -0.0343
H29 H 0.1229 0.9369 0.0081
H30 H 0.0988 0.8568 0.0168
C27 C 0.4277(6) 0.7602(12) 0.0197(8)
C28 C 0.4331(6) 0.7113(12) -0.0192(8)
H31 H 0.4349 0.7373 -0.0476
C29 C 0.4359(6) 0.6377(11) -0.0230(8)
H32 H 0.4368 0.6148 -0.0524
C30 C 0.4375(6) 0.5883(12) 0.0203(8)
C31 C 0.4339(6) 0.6309(11) 0.0627(7)
H33 H 0.4341 0.6050 0.0912
C32 C 0.4301(6) 0.7070(11) 0.0617(8)
H34 H 0.4288 0.7311 0.0907
C33 C 0.4432(7) 0.4693(10) -0.0205(8)
H35 H 0.4166 0.4789 -0.0409
H36 H 0.4718 0.4835 -0.0368
C34 C 0.4447(7) 0.3907(11) -0.0075(8)
H37 H 0.4610 0.3846 0.0221
H38 H 0.4612 0.3609 -0.0311
C35 C 0.3923(7) 0.2874(12) 0.0138(8)
C36 C 0.3788(7) 0.2820(12) 0.0626(8)
C37 C 0.3788(7) 0.2032(13) 0.0746(9)
H39 H 0.3718 0.1938 0.1059
C38 C 0.3865(7) 0.1426(12) 0.0510(8)
H40 H 0.3882 0.0941 0.0650
C39 C 0.3920(8) 0.1521(14) 0.0050(10)
H41 H 0.3926 0.1091 -0.0145
C40 C 0.3969(6) 0.2256(10) -0.0141(7)
C41 C 0.3697(7) 0.3471(12) 0.0915(8)
H42 H 0.3971 0.3805 0.0914
H43 H 0.3648 0.3297 0.1234
C42 C 0.3263(7) 0.3943(12) 0.0755(8)
C43 C 0.2814(8) 0.3566(13) 0.0789(8)
C44 C 0.2391(7) 0.3936(11) 0.0589(7)
C45 C 0.2456(8) 0.4640(13) 0.0419(8)
H44 H 0.2193 0.4882 0.0292
C46 C 0.2905(7) 0.5084(13) 0.0408(8)
H45 H 0.2923 0.5586 0.0293
C47 C 0.3295(7) 0.4689(11) 0.0582(7)
H46 H 0.3586 0.4934 0.0583
C48 C 0.1931(7) 0.3559(11) 0.0576(8)
H47 H 0.1697 0.3922 0.0464
H48 H 0.1844 0.3405 0.0891
C49 C 0.1934(7) 0.2859(12) 0.0264(8)
C50 C 0.2005(7) 0.3043(12) -0.0237(9)
C51 C 0.2103(7) 0.2360(12) -0.0528(8)
C52 C 0.2058(7) 0.1721(12) -0.0367(8)
H49 H 0.2100 0.1307 -0.0569
C53 C 0.1953(7) 0.1555(13) 0.0078(9)
H50 H 0.1916 0.1053 0.0186
C54 C 0.1905(7) 0.2182(14) 0.0358(9)
H51 H 0.1840 0.2073 0.0670
C55 C 0.2310(8) 0.2521(13) -0.1018(9)
H52 H 0.2080 0.2351 -0.1247
H53 H 0.2339 0.3076 -0.1051
C56 C 0.2765(8) 0.2176(12) -0.1146(9)
C57 C 0.3163(8) 0.2469(13) -0.0853(9)
C58 C 0.3574(10) 0.2138(15) -0.0938(10)
C59 C 0.3647(8) 0.1468(12) -0.1258(8)
H54 H 0.3931 0.1204 -0.1281
C60 C 0.3258(9) 0.1280(13) -0.1514(9)
H55 H 0.3287 0.0890 -0.1735
C61 C 0.2816(9) 0.1635(13) -0.1465(9)
H56 H 0.2565 0.1490 -0.1655
C62 C 0.4016(7) 0.2392(11) -0.0652(8)
H57 H 0.4287 0.2111 -0.0766
H58 H 0.4071 0.2937 -0.0706
C63 C 0.2661(9) 0.2930(13) 0.1473(9)
H59 H 0.2935 0.3129 0.1628
H60 H 0.2589 0.2428 0.1595
H61 H 0.2400 0.3271 0.1526
C64 C 0.3144(8) 0.3770(12) -0.0711(9)
H62 H 0.3453 0.3859 -0.0835
H63 H 0.3093 0.4103 -0.0448
H64 H 0.2913 0.3875 -0.0949
C65 C 0.1575(8) 0.4072(13) -0.0598(9)
H65 H 0.1554 0.3857 -0.0910
H66 H 0.1311 0.3877 -0.0419
C66 C 0.1544(7) 0.4863(12) -0.0625(9)
H67 H 0.1836 0.5058 -0.0753
H68 H 0.1295 0.4993 -0.0844
C67 C 0.1509(7) 0.5987(13) -0.0189(9)
C68 C 0.1514(7) 0.6343(13) 0.0230(9)
H69 H 0.1466 0.6029 0.0489
C69 C 0.1575(7) 0.7064(12) 0.0315(8)
H70 H 0.1572 0.7233 0.0624
C70 C 0.1648(7) 0.7608(12) -0.0045(8)
C71 C 0.1590(8) 0.7250(14) -0.0474(10)
H71 H 0.1557 0.7586 -0.0726
C72 C 0.1576(7) 0.6591(13) -0.0573(8)
H72 H 0.1606 0.6438 -0.0884
O7 O 0.2727(6) 1.1168(9) 0.0845(6)
C73 C 0.2844(10) 1.0786(18) 0.1289(11)
H73 H 0.3097 1.0429 0.1241
H74 H 0.2573 1.0511 0.1402
H75 H 0.2936 1.1166 0.1516
Cl1 Cl 0.29677(18) 0.7112(3) 0.0045(2)
Cs2 Cs 0.01760(5) 0.04498(7) 0.20480(5)
O8 O 0.0190(4) 0.5081(7) 0.0603(4)
O9 O -0.0066(4) 0.6556(8) 0.1042(5)
O10 O -0.0430(4) 0.6430(7) 0.2967(5)
O11 O -0.0293(5) 0.5019(8) 0.3526(5)
O12 O -0.0608(5) 0.7169(8) 0.1883(5)
O13 O 0.0947(4) 0.7371(7) 0.2221(5)
N5 N 0.0776(5) 0.1972(8) 0.1514(6)
H76 H 0.0594 0.2324 0.1623
N6 N -0.0395(5) 0.1775(8) 0.1351(6)
H77 H -0.0313 0.2194 0.1491
N7 N -0.0548(5) 0.1756(8) 0.2549(5)
H78 H -0.0428 0.2184 0.2453
N8 N 0.0624(5) 0.1958(8) 0.2700(6)
H79 H 0.0500 0.2350 0.2563
C74 C 0.1183(6) 0.1680(10) 0.1740(7)
C75 C 0.1354(7) 0.1084(11) 0.1440(7)
H80 H 0.1617 0.0777 0.1489
C76 C 0.1039(6) 0.1054(11) 0.1047(7)
H81 H 0.1057 0.0706 0.0800
C77 C 0.0718(7) 0.1603(11) 0.1094(8)
C78 C 0.0276(7) 0.1829(11) 0.0771(7)
C79 C -0.0161(7) 0.1464(11) 0.0977(8)
C80 C -0.0387(7) 0.0773(12) 0.0884(8)
H82 H -0.0294 0.0407 0.0664
C81 C -0.0781(7) 0.0717(10) 0.1176(7)
H83 H -0.1004 0.0325 0.1166
C82 C -0.0785(7) 0.1327(10) 0.1476(7)
C83 C -0.1116(7) 0.1558(11) 0.1877(8)
C84 C -0.0904(7) 0.1297(11) 0.2322(8)
C85 C -0.0939(7) 0.0638(11) 0.2566(7)
H84 H -0.1107 0.0201 0.2477
C86 C -0.0673(8) 0.0728(13) 0.2984(9)
H85 H -0.0669 0.0385 0.3234
C87 C -0.0441(6) 0.1356(10) 0.2958(7)
C88 C -0.0060(8) 0.1742(12) 0.3298(9)
C89 C 0.0428(7) 0.1558(12) 0.3072(8)
C90 C 0.0751(7) 0.1051(11) 0.3219(8)
H86 H 0.0726 0.0753 0.3488
C91 C 0.1130(7) 0.1035(10) 0.2910(7)
H87 H 0.1384 0.0698 0.2918
C92 C 0.1051(7) 0.1624(11) 0.2586(7)
C93 C 0.1359(6) 0.1954(11) 0.2173(7)
C94 C 0.0391(8) 0.1479(12) 0.0313(8)
H88 H 0.0581 0.1027 0.0361
H89 H 0.0560 0.1845 0.0126
H90 H 0.0105 0.1336 0.0156
C95 C -0.1581(9) 0.1020(14) 0.1825(10)
H91 H -0.1802 0.1152 0.2065
H92 H -0.1494 0.0487 0.1856
H93 H -0.1721 0.1103 0.1524
C96 C -0.1207(7) 0.2347(12) 0.1884(8)
H94 H -0.1396 0.2470 0.2152
H95 H -0.1373 0.2491 0.1605
H96 H -0.0915 0.2626 0.1901
C97 C -0.0095(8) 0.1397(13) 0.3784(7)
H97 H -0.0108 0.0845 0.3762
H98 H -0.0376 0.1583 0.3933
H99 H 0.0174 0.1546 0.3965
C98 C 0.1880(7) 0.1636(12) 0.2272(8)
H100 H 0.2106 0.1984 0.2138
H101 H 0.1915 0.1135 0.2133
H102 H 0.1932 0.1601 0.2603
C99 C 0.1337(6) 0.2845(10) 0.2193(7)
H103 H 0.1593 0.3057 0.2016
H104 H 0.1361 0.3013 0.2512
H105 H 0.1044 0.3019 0.2062
C100 C 0.0281(7) 0.2699(11) 0.0735(7)
C101 C 0.0641(6) 0.3169(10) 0.0743(7)
H106 H 0.0936 0.2940 0.0771
C102 C 0.0636(7) 0.3946(12) 0.0714(7)
H107 H 0.0912 0.4230 0.0741
C103 C 0.0177(6) 0.4336(9) 0.0639(6)
C104 C -0.0219(7) 0.3849(11) 0.0627(7)
H108 H -0.0516 0.4068 0.0595
C105 C -0.0182(7) 0.3099(12) 0.0658(7)
H109 H -0.0453 0.2801 0.0633
C106 C -0.0222(7) 0.5488(10) 0.0554(7)
H110 H -0.0437 0.5353 0.0804
H111 H -0.0371 0.5359 0.0258
C107 C -0.0119(7) 0.6317(11) 0.0570(8)
H112 H 0.0167 0.6423 0.0398
H113 H -0.0374 0.6603 0.0424
C108 C 0.0077(7) 0.7339(12) 0.1095(7)
C109 C 0.0571(7) 0.7389(11) 0.1228(7)
C110 C 0.0751(6) 0.8149(9) 0.1216(6)
H114 H 0.1072 0.8237 0.1246
C111 C 0.0445(7) 0.8760(13) 0.1158(7)
H115 H 0.0558 0.9263 0.1164
C112 C -0.0009(8) 0.8634(12) 0.1094(7)
H116 H -0.0207 0.9059 0.1068
C113 C -0.0190(9) 0.7960(15) 0.1067(9)
C114 C -0.0735(7) 0.7877(12) 0.0959(8)
H117 H -0.0821 0.8213 0.0701
H118 H -0.0805 0.7350 0.0869
C115 C -0.1016(7) 0.8090(12) 0.1386(8)
C116 C -0.0934(8) 0.7742(15) 0.1813(10)
C117 C -0.1207(7) 0.7999(12) 0.2216(8)
C118 C -0.1508(8) 0.8603(14) 0.2170(10)
H119 H -0.1655 0.8799 0.2435
C119 C -0.1603(8) 0.8939(13) 0.1733(10)
H120 H -0.1857 0.9273 0.1698
C120 C -0.1334(9) 0.8778(15) 0.1378(10)
H121 H -0.1339 0.9096 0.1116
C121 C -0.1066(8) 0.7593(13) 0.2681(9)
H122 H -0.1292 0.7734 0.2920
H123 H -0.1087 0.7039 0.2636
C122 C -0.0581(8) 0.7785(12) 0.2856(8)
C123 C -0.0263(8) 0.7180(11) 0.2943(7)
C124 C 0.0194(7) 0.7337(11) 0.3019(7)
C125 C 0.0333(8) 0.8114(11) 0.3082(8)
H124 H 0.0643 0.8225 0.3161
C126 C 0.0028(9) 0.8685(15) 0.3031(9)
H125 H 0.0133 0.9187 0.3080
C127 C -0.0422(8) 0.8580(11) 0.2912(7)
H126 H -0.0624 0.8995 0.2867
C128 C 0.0577(7) 0.6736(11) 0.3048(7)
H127 H 0.0518 0.6390 0.3308
H128 H 0.0879 0.6984 0.3099
C129 C 0.0585(6) 0.6276(11) 0.2584(7)
C130 C 0.0765(7) 0.6676(12) 0.2192(8)
C131 C 0.0729(6) 0.6292(11) 0.1726(7)
C132 C 0.0558(7) 0.5550(11) 0.1719(8)
H129 H 0.0559 0.5304 0.1430
C133 C 0.0387(7) 0.5122(12) 0.2089(8)
H130 H 0.0260 0.4629 0.2066
C134 C 0.0435(7) 0.5570(12) 0.2528(8)
H131 H 0.0346 0.5314 0.2800
C135 C 0.0911(7) 0.6703(11) 0.1321(7)
H132 H 0.0923 0.6364 0.1051
H133 H 0.1226 0.6892 0.1384
C136 C -0.0755(8) 0.6456(12) 0.1849(8)
H134 H -0.0499 0.6110 0.1912
H135 H -0.0872 0.6365 0.1539
H136 H -0.1001 0.6369 0.2071
C137 C 0.1442(7) 0.7300(12) 0.2326(9)
H137 H 0.1482 0.7216 0.2656
H138 H 0.1601 0.7765 0.2237
H139 H 0.1571 0.6872 0.2157
C138 C -0.0635(8) 0.6232(12) 0.3410(9)
H140 H -0.0932 0.6499 0.3447
H141 H -0.0427 0.6390 0.3662
C139 C -0.0711(7) 0.5394(12) 0.3431(8)
H142 H -0.0939 0.5276 0.3672
H143 H -0.0836 0.5214 0.3134
C140 C -0.0248(8) 0.4284(13) 0.3498(8)
C141 C 0.0175(7) 0.3867(12) 0.3499(7)
H144 H 0.0441 0.4161 0.3563
C142 C 0.0254(7) 0.3163(11) 0.3427(7)
H145 H 0.0557 0.2960 0.3433
C143 C -0.0158(8) 0.2682(12) 0.3335(8)
C144 C -0.0576(7) 0.2996(10) 0.3345(7)
H146 H -0.0836 0.2679 0.3302
C145 C -0.0643(9) 0.3710(15) 0.3412(9)
H147 H -0.0950 0.3893 0.3408
O14 O 0.0852(7) -0.0943(11) 0.2280(6)
Cl2 Cl 0.00227(17) 0.3113(3) 0.2025(2)
Cs1 Cs 0.29618(5) 0.97976(8) 0.01996(6)
loop_
_geom_bond_atom_site_label_1
_geom_bond_atom_site_label_2
_geom_bond_site_symmetry_1
_geom_bond_site_symmetry_2
N1 H1 1_555 1_555
N2 H2 1_555 1_555
N3 H3 1_555 1_555
N4 H4 1_555 1_555
O1 C30 1_555 1_555
O2 C34 1_555 1_555
O3 C50 1_555 1_555
O4 C66 1_555 1_555
O5 C57 1_555 1_555
O6 C43 1_555 1_555
C1 N1 1_555 1_555
C2 C1 1_555 1_555
H5 C2 1_555 1_555
C3 C2 1_555 1_555
H6 C3 1_555 1_555
C4 N1 1_555 1_555
C5 C4 1_555 1_555
C6 N2 1_555 1_555
C7 C6 1_555 1_555
H7 C7 1_555 1_555
C8 C7 1_555 1_555
H8 C8 1_555 1_555
C9 N2 1_555 1_555
C10 C9 1_555 1_555
C11 N3 1_555 1_555
C12 C11 1_555 1_555
H9 C12 1_555 1_555
C13 C12 1_555 1_555
H10 C13 1_555 1_555
C14 N3 1_555 1_555
C15 C14 1_555 1_555
C16 N4 1_555 1_555
C17 C16 1_555 1_555
H11 C17 1_555 1_555
C18 C17 1_555 1_555
H12 C18 1_555 1_555
C19 N4 1_555 1_555
C20 C1 1_555 1_555
C21 C5 1_555 1_555
H13 C21 1_555 1_555
H14 C21 1_555 1_555
H15 C21 1_555 1_555
C22 C5 1_555 1_555
H16 C22 1_555 1_555
H17 C22 1_555 1_555
H18 C22 1_555 1_555
C23 C10 1_555 1_555
H19 C23 1_555 1_555
H20 C23 1_555 1_555
H21 C23 1_555 1_555
C24 C15 1_555 1_555
H22 C24 1_555 1_555
H23 C24 1_555 1_555
H24 C24 1_555 1_555
C25 C15 1_555 1_555
H25 C25 1_555 1_555
H26 C25 1_555 1_555
H27 C25 1_555 1_555
C26 C20 1_555 1_555
H28 C26 1_555 1_555
H29 C26 1_555 1_555
H30 C26 1_555 1_555
C27 C10 1_555 1_555
C28 C27 1_555 1_555
H31 C28 1_555 1_555
C29 C28 1_555 1_555
H32 C29 1_555 1_555
C30 C29 1_555 1_555
C31 C30 1_555 1_555
H33 C31 1_555 1_555
C32 C27 1_555 1_555
H34 C32 1_555 1_555
C33 O1 1_555 1_555
H35 C33 1_555 1_555
H36 C33 1_555 1_555
C34 C33 1_555 1_555
H37 C34 1_555 1_555
H38 C34 1_555 1_555
C35 O2 1_555 1_555
C36 C35 1_555 1_555
C37 C36 1_555 1_555
H39 C37 1_555 1_555
C38 C37 1_555 1_555
H40 C38 1_555 1_555
C39 C38 1_555 1_555
H41 C39 1_555 1_555
C40 C35 1_555 1_555
C41 C36 1_555 1_555
H42 C41 1_555 1_555
H43 C41 1_555 1_555
C42 C41 1_555 1_555
C43 C42 1_555 1_555
C44 C43 1_555 1_555
C45 C44 1_555 1_555
H44 C45 1_555 1_555
C46 C45 1_555 1_555
H45 C46 1_555 1_555
C47 C42 1_555 1_555
H46 C47 1_555 1_555
C48 C44 1_555 1_555
H47 C48 1_555 1_555
H48 C48 1_555 1_555
C49 C48 1_555 1_555
C50 C49 1_555 1_555
C51 C50 1_555 1_555
C52 C51 1_555 1_555
H49 C52 1_555 1_555
C53 C52 1_555 1_555
H50 C53 1_555 1_555
C54 C49 1_555 1_555
H51 C54 1_555 1_555
C55 C51 1_555 1_555
H52 C55 1_555 1_555
H53 C55 1_555 1_555
C56 C55 1_555 1_555
C57 C56 1_555 1_555
C58 C57 1_555 1_555
C59 C58 1_555 1_555
H54 C59 1_555 1_555
C60 C59 1_555 1_555
H55 C60 1_555 1_555
C61 C56 1_555 1_555
H56 C61 1_555 1_555
C62 C40 1_555 1_555
H57 C62 1_555 1_555
H58 C62 1_555 1_555
C63 O6 1_555 1_555
H59 C63 1_555 1_555
H60 C63 1_555 1_555
H61 C63 1_555 1_555
C64 O5 1_555 1_555
H62 C64 1_555 1_555
H63 C64 1_555 1_555
H64 C64 1_555 1_555
C65 O3 1_555 1_555
H65 C65 1_555 1_555
H66 C65 1_555 1_555
C66 C65 1_555 1_555
H67 C66 1_555 1_555
H68 C66 1_555 1_555
C67 O4 1_555 1_555
C68 C67 1_555 1_555
H69 C68 1_555 1_555
C69 C68 1_555 1_555
H70 C69 1_555 1_555
C70 C20 1_555 1_555
C71 C70 1_555 1_555
H71 C71 1_555 1_555
C72 C67 1_555 1_555
H72 C72 1_555 1_555
O7 C73 1_555 1_555
C73 H73 1_555 1_555
H74 C73 1_555 1_555
H75 C73 1_555 1_555
O8 C103 1_555 1_555
O9 C107 1_555 1_555
O10 C123 1_555 1_555
O11 C139 1_555 1_555
O12 C116 1_555 1_555
O13 C130 1_555 1_555
N5 H76 1_555 1_555
N6 H77 1_555 1_555
N7 H78 1_555 1_555
N8 H79 1_555 1_555
C74 N5 1_555 1_555
C75 C74 1_555 1_555
H80 C75 1_555 1_555
C76 C75 1_555 1_555
H81 C76 1_555 1_555
C77 N5 1_555 1_555
C78 C77 1_555 1_555
C79 N6 1_555 1_555
C80 C79 1_555 1_555
H82 C80 1_555 1_555
C81 C80 1_555 1_555
H83 C81 1_555 1_555
C82 N6 1_555 1_555
C83 C82 1_555 1_555
C84 N7 1_555 1_555
C85 C84 1_555 1_555
H84 C85 1_555 1_555
C86 C85 1_555 1_555
H85 C86 1_555 1_555
C87 N7 1_555 1_555
C88 C87 1_555 1_555
C89 N8 1_555 1_555
C90 C89 1_555 1_555
H86 C90 1_555 1_555
C91 C90 1_555 1_555
H87 C91 1_555 1_555
C92 N8 1_555 1_555
C93 C74 1_555 1_555
C94 C78 1_555 1_555
H88 C94 1_555 1_555
H89 C94 1_555 1_555
H90 C94 1_555 1_555
C95 C83 1_555 1_555
H91 C95 1_555 1_555
H92 C95 1_555 1_555
H93 C95 1_555 1_555
C96 C83 1_555 1_555
H94 C96 1_555 1_555
H95 C96 1_555 1_555
H96 C96 1_555 1_555
C97 C88 1_555 1_555
H97 C97 1_555 1_555
H98 C97 1_555 1_555
H99 C97 1_555 1_555
C98 C93 1_555 1_555
H100 C98 1_555 1_555
H101 C98 1_555 1_555
H102 C98 1_555 1_555
C99 C93 1_555 1_555
H103 C99 1_555 1_555
H104 C99 1_555 1_555
H105 C99 1_555 1_555
C100 C78 1_555 1_555
C101 C100 1_555 1_555
H106 C101 1_555 1_555
C102 C101 1_555 1_555
H107 C102 1_555 1_555
C103 C102 1_555 1_555
C104 C103 1_555 1_555
H108 C104 1_555 1_555
C105 C100 1_555 1_555
H109 C105 1_555 1_555
C106 O8 1_555 1_555
H110 C106 1_555 1_555
H111 C106 1_555 1_555
C107 C106 1_555 1_555
H112 C107 1_555 1_555
H113 C107 1_555 1_555
C108 O9 1_555 1_555
C109 C108 1_555 1_555
C110 C109 1_555 1_555
H114 C110 1_555 1_555
C111 C110 1_555 1_555
H115 C111 1_555 1_555
C112 C111 1_555 1_555
H116 C112 1_555 1_555
C113 C108 1_555 1_555
C114 C113 1_555 1_555
H117 C114 1_555 1_555
H118 C114 1_555 1_555
C115 C114 1_555 1_555
C116 C115 1_555 1_555
C117 C116 1_555 1_555
C118 C117 1_555 1_555
H119 C118 1_555 1_555
C119 C118 1_555 1_555
H120 C119 1_555 1_555
C120 C115 1_555 1_555
H121 C120 1_555 1_555
C121 C117 1_555 1_555
H122 C121 1_555 1_555
H123 C121 1_555 1_555
C122 C121 1_555 1_555
C123 C122 1_555 1_555
C124 C123 1_555 1_555
C125 C124 1_555 1_555
H124 C125 1_555 1_555
C126 C125 1_555 1_555
H125 C126 1_555 1_555
C127 C122 1_555 1_555
H126 C127 1_555 1_555
C128 C124 1_555 1_555
H127 C128 1_555 1_555
H128 C128 1_555 1_555
C129 C128 1_555 1_555
C130 C129 1_555 1_555
C131 C130 1_555 1_555
C132 C131 1_555 1_555
H129 C132 1_555 1_555
C133 C132 1_555 1_555
H130 C133 1_555 1_555
C134 C129 1_555 1_555
H131 C134 1_555 1_555
C135 C109 1_555 1_555
H132 C135 1_555 1_555
H133 C135 1_555 1_555
C136 O12 1_555 1_555
H134 C136 1_555 1_555
H135 C136 1_555 1_555
H136 C136 1_555 1_555
C137 O13 1_555 1_555
H137 C137 1_555 1_555
H138 C137 1_555 1_555
H139 C137 1_555 1_555
C138 O10 1_555 1_555
H140 C138 1_555 1_555
H141 C138 1_555 1_555
C139 C138 1_555 1_555
H142 C139 1_555 1_555
H143 C139 1_555 1_555
C140 O11 1_555 1_555
C141 C140 1_555 1_555
H144 C141 1_555 1_555
C142 C141 1_555 1_555
H145 C142 1_555 1_555
C143 C88 1_555 1_555
C144 C143 1_555 1_555
H146 C144 1_555 1_555
C145 C140 1_555 1_555
H147 C145 1_555 1_555
C3 C4 1_555 1_555
C5 C6 1_555 1_555
C8 C9 1_555 1_555
C10 C11 1_555 1_555
C13 C14 1_555 1_555
C15 C16 1_555 1_555
C18 C19 1_555 1_555
C19 C20 1_555 1_555
C31 C32 1_555 1_555
C39 C40 1_555 1_555
C46 C47 1_555 1_555
C53 C54 1_555 1_555
C58 C62 1_555 1_555
C60 C61 1_555 1_555
C69 C70 1_555 1_555
C71 C72 1_555 1_555
C76 C77 1_555 1_555
C78 C79 1_555 1_555
C81 C82 1_555 1_555
C83 C84 1_555 1_555
C86 C87 1_555 1_555
C88 C89 1_555 1_555
C91 C92 1_555 1_555
C92 C93 1_555 1_555
C104 C105 1_555 1_555
C112 C113 1_555 1_555
C119 C120 1_555 1_555
C126 C127 1_555 1_555
C131 C135 1_555 1_555
C133 C134 1_555 1_555
C142 C143 1_555 1_555
C144 C145 1_555 1_555

#END
