
#######################################################################
#
#                 Cambridge Crystallographic Data Centre
#                                CCDC 
#
#######################################################################
#
# If this CIF has been generated from an entry in the Cambridge 
# Structural Database, then it will include bibliographic, chemical, 
# crystal, experimental, refinement or atomic coordinate data resulting 
# from the CCDC's data processing and validation procedures.
#
#######################################################################

data_DOLCEN01
_chemical_formula_moiety         'C14 H9 N1 O2'
_chemical_name_systematic        2-Phenyl-4H-3,1-benzoxazin-4-one
_symmetry_cell_setting           monoclinic
_symmetry_space_group_name_H-M   'P 21/n'
_symmetry_Int_Tables_number      14
_space_group_name_Hall           '-P 2yn'
loop_
_symmetry_equiv_pos_site_id
_symmetry_equiv_pos_as_xyz
1 x,y,z
2 1/2-x,1/2+y,1/2-z
3 -x,-y,-z
4 1/2+x,1/2-y,1/2+z
_cell_length_a                   13.366(4)
_cell_length_b                   3.9100(12)
_cell_length_c                   20.520(6)
_cell_angle_alpha                90
_cell_angle_beta                 95.020(5)
_cell_angle_gamma                90
_cell_volume                     1068.28
_cell_formula_units_Z            4
loop_
_atom_site_label
_atom_site_type_symbol
_atom_site_fract_x
_atom_site_fract_y
_atom_site_fract_z
N1 N 0.59144(17) 0.9227(6) 0.72661(12)
O1 O 0.41583(17) 1.4226(7) 0.58822(11)
O2 O 0.44241(14) 1.2026(6) 0.68706(9)
C1 C 0.6279(2) 0.9660(7) 0.66495(14)
C2 C 0.7235(2) 0.8440(8) 0.65447(15)
H1 H 0.7631 0.7389 0.6883
C3 C 0.7588(2) 0.8807(9) 0.59370(16)
H2 H 0.8223 0.7989 0.5868
C4 C 0.7015(2) 1.0366(9) 0.54294(16)
H3 H 0.7264 1.0570 0.5022
C5 C 0.6080(2) 1.1619(8) 0.55252(15)
H4 H 0.5696 1.2690 0.5185
C6 C 0.5710(2) 1.1276(7) 0.61351(14)
C7 C 0.4725(2) 1.2628(8) 0.62524(14)
C8 C 0.5040(2) 1.0365(7) 0.73433(13)
C9 C 0.4568(2) 1.0032(8) 0.79608(15)
C10 C 0.3593(2) 1.1123(9) 0.80185(17)
H5 H 0.3218 1.2079 0.7661
C11 C 0.3177(3) 1.0783(10) 0.8613(2)
H6 H 0.2523 1.1508 0.8653
C12 C 0.3733(3) 0.9380(11) 0.9138(2)
H7 H 0.3451 0.9152 0.9535
C13 C 0.4702(3) 0.8306(10) 0.90857(17)
H8 H 0.5075 0.7383 0.9447
C14 C 0.5121(3) 0.8595(9) 0.84980(15)
H9 H 0.5773 0.7831 0.8461
loop_
_geom_bond_atom_site_label_1
_geom_bond_atom_site_label_2
_geom_bond_site_symmetry_1
_geom_bond_site_symmetry_2
N1 C1 1_555 1_555
O1 C7 1_555 1_555
O2 C7 1_555 1_555
C1 C2 1_555 1_555
C2 H1 1_555 1_555
C3 C2 1_555 1_555
H2 C3 1_555 1_555
C4 C3 1_555 1_555
H3 C4 1_555 1_555
C5 C4 1_555 1_555
H4 C5 1_555 1_555
C6 C1 1_555 1_555
C7 C6 1_555 1_555
C8 N1 1_555 1_555
C9 C8 1_555 1_555
C10 C9 1_555 1_555
H5 C10 1_555 1_555
C11 C10 1_555 1_555
H6 C11 1_555 1_555
C12 C11 1_555 1_555
H7 C12 1_555 1_555
C13 C12 1_555 1_555
H8 C13 1_555 1_555
C14 C9 1_555 1_555
H9 C14 1_555 1_555
O2 C8 1_555 1_555
C5 C6 1_555 1_555
C13 C14 1_555 1_555

#END
