
#######################################################################
#
#                 Cambridge Crystallographic Data Centre
#                                CCDC 
#
#######################################################################
#
# If this CIF has been generated from an entry in the Cambridge 
# Structural Database, then it will include bibliographic, chemical, 
# crystal, experimental, refinement or atomic coordinate data resulting 
# from the CCDC's data processing and validation procedures.
#
#######################################################################

data_DOLDEP
_chemical_name_common            
"tetraethylammonium 25,27-(2,2'-[(5,10,10,15,20,20-hexamethyl-5,10,15,20,22,24-hexahydroporphyrin-5,15-diyl)bis(benzene-4,1-diyloxy)]diethanolate)-26,28-dimethoxycalix(4)arene bis(fluoride) dichloromethane unknown solvate sesquihydrate"
_chemical_formula_moiety         
'C72 H72 N4 O6,C8 H20 N1 1+,1.5(H2 O1),F1 1-,1.5(C1 H2 Cl2)'
_chemical_name_systematic        
'tetraethylammonium 69,72-dimethoxy-1,37,42,42,51,51-hexamethyl-6,9,29,32-tetraoxa-56,57,58,59-tetraazatridecacyclo[35.9.9.7^11,27^.2^2,5^.2^33,36^.1^17,21^.1^38,41^.1^43,46^.1^47,50^.1^52,55^.1^63,67^.0^10,15^.0^23,28^]doheptaconta-2,4,10,12,14,17(69),18,20,23,25,27,33,35,38,40,43,45,47,49,52,54,60,63(72),64,66,70-hexacosaene bis(fluoride) dichloromethane unknown solvate sesquihydrate'
_symmetry_cell_setting           triclinic
_symmetry_space_group_name_H-M   'P -1'
_symmetry_Int_Tables_number      2
_space_group_name_Hall           '-P 1'
loop_
_symmetry_equiv_pos_site_id
_symmetry_equiv_pos_as_xyz
1 x,y,z
2 -x,-y,-z
_cell_length_a                   17.7069(4)
_cell_length_b                   19.2391(3)
_cell_length_c                   27.8205(6)
_cell_angle_alpha                71.903(2)
_cell_angle_beta                 75.381(2)
_cell_angle_gamma                69.249(2)
_cell_volume                     8315.53
_exptl_crystal_colour            colorless
_exptl_crystal_description       prism
_cell_formula_units_Z            4
loop_
_atom_site_label
_atom_site_type_symbol
_atom_site_fract_x
_atom_site_fract_y
_atom_site_fract_z
Cl1 Cl 0.5745(3) 0.8809(2) 0.50502(17)
C1 C 0.6493(11) 0.7955(11) 0.5091(16)
H1 H 0.6758 0.7791 0.5398
H2 H 0.6907 0.7932 0.4777
Cl2 Cl 0.5618(3) 0.7383(3) 0.51617(19)
F1 F 0.69539(11) 0.68557(10) 0.17279(7)
F2 F 0.64478(9) 0.64107(9) 0.64248(6)
O1 O 0.76944(14) 0.36365(13) 0.24498(9)
O2 O 0.75398(17) 0.27811(13) 0.18363(9)
O3 O 0.8215(3) 0.45383(16) -0.01340(11)
O4 O 0.7388(2) 0.60952(17) -0.01657(12)
O5 O 0.6960(2) 0.38120(16) 0.07635(10)
N1 N 0.78022(15) 0.70474(14) 0.23468(10)
H3 H 0.7568 0.6954 0.2140
N2 N 0.59413(16) 0.69769(15) 0.26548(12)
H4 H 0.6240 0.6869 0.2367
N3 N 0.55461(16) 0.80524(14) 0.15272(12)
H5 H 0.5972 0.7644 0.1585
N4 N 0.73806(14) 0.81768(13) 0.12352(10)
H6 H 0.7270 0.7740 0.1380
C2 C 0.83299(17) 0.74849(17) 0.21926(12)
C3 C 0.8551(2) 0.7496(2) 0.26292(13)
H7 H 0.8910 0.7755 0.2642
C4 C 0.8154(2) 0.7055(2) 0.30546(14)
H8 H 0.8197 0.6966 0.3404
C5 C 0.7694(2) 0.67778(17) 0.28711(12)
C6 C 0.7119(2) 0.63053(19) 0.31508(13)
C7 C 0.6236(2) 0.67922(19) 0.31044(14)
C8 C 0.5600(3) 0.7060(2) 0.34613(17)
H9 H 0.5624 0.7019 0.3807
C9 C 0.4907(2) 0.7405(2) 0.32226(18)
H10 H 0.4373 0.7640 0.3381
C10 C 0.5122(2) 0.7351(2) 0.27157(16)
C11 C 0.4620(2) 0.7543(2) 0.23036(18)
C12 C 0.48003(19) 0.81639(19) 0.18438(17)
C13 C 0.4314(2) 0.8873(2) 0.1623(2)
H11 H 0.3764 0.9110 0.1758
C14 C 0.4768(2) 0.9187(2) 0.11655(19)
H12 H 0.4579 0.9671 0.0937
C15 C 0.5535(2) 0.86670(17) 0.11088(16)
C16 C 0.6261(2) 0.86917(17) 0.06934(14)
C17 C 0.6954(2) 0.87691(16) 0.08856(13)
C18 C 0.7302(2) 0.93470(18) 0.07576(14)
H13 H 0.7133 0.9831 0.0525
C19 C 0.7965(2) 0.90906(18) 0.10366(14)
H14 H 0.8317 0.9373 0.1024
C20 C 0.80019(18) 0.83601(17) 0.13272(12)
C21 C 0.86480(18) 0.77761(18) 0.16378(13)
C22 C 0.9320(2) 0.8128(3) 0.16008(16)
H15 H 0.9082 0.8585 0.1738
H16 H 0.9567 0.8271 0.1241
H17 H 0.9741 0.7752 0.1799
C23 C 0.9029(2) 0.7091(2) 0.13831(14)
H18 H 0.9470 0.6709 0.1562
H19 H 0.9250 0.7273 0.1023
H20 H 0.8608 0.6858 0.1403
C24 C 0.7221(3) 0.6016(2) 0.37218(15)
H21 H 0.7110 0.6455 0.3864
H22 H 0.7781 0.5684 0.3752
H23 H 0.6835 0.5726 0.3910
C25 C 0.3701(2) 0.7808(3) 0.2529(2)
H24 H 0.3581 0.7427 0.2842
H25 H 0.3371 0.7860 0.2277
H26 H 0.3569 0.8303 0.2609
C26 C 0.4780(3) 0.6809(2) 0.2122(2)
H27 H 0.5341 0.6664 0.1939
H28 H 0.4394 0.6910 0.1892
H29 H 0.4704 0.6390 0.2420
C27 C 0.6013(3) 0.9382(2) 0.02410(17)
H30 H 0.5587 0.9327 0.0102
H31 H 0.6492 0.9404 -0.0027
H32 H 0.5804 0.9855 0.0359
C28 C 0.7289(2) 0.55924(17) 0.29442(12)
C29 C 0.79927(18) 0.53013(17) 0.26330(13)
H33 H 0.8404 0.5552 0.2523
C30 C 0.81158(19) 0.46466(18) 0.24748(13)
H34 H 0.8611 0.4452 0.2262
C31 C 0.75242(18) 0.42773(17) 0.26254(12)
C32 C 0.6805(2) 0.4571(2) 0.29239(17)
H35 H 0.6388 0.4328 0.3024
C33 C 0.6693(3) 0.5223(2) 0.30777(17)
H36 H 0.6191 0.5425 0.3282
C34 C 0.7062(2) 0.3289(2) 0.25733(14)
H37 H 0.6584 0.3648 0.2412
H38 H 0.6886 0.3161 0.2949
C35 C 0.7376(3) 0.2575(2) 0.23821(13)
H39 H 0.7883 0.2235 0.2519
H40 H 0.6964 0.2294 0.2499
C36 C 0.7573(2) 0.22154(19) 0.16097(12)
C37 C 0.6864(2) 0.2259(2) 0.14613(13)
C38 C 0.6907(3) 0.1715(2) 0.12124(16)
H41 H 0.6432 0.1737 0.1102
C39 C 0.7618(4) 0.1154(2) 0.1126(2)
H42 H 0.7631 0.0780 0.0964
C40 C 0.8328(3) 0.1126(2) 0.12734(19)
H43 H 0.8824 0.0737 0.1208
C41 C 0.8314(3) 0.1664(2) 0.15155(15)
C42 C 0.6079(2) 0.2907(3) 0.15189(15)
H44 H 0.5644 0.2695 0.1748
H45 H 0.6165 0.3261 0.1679
C43 C 0.5806(3) 0.3346(3) 0.10084(17)
C44 C 0.6278(3) 0.3764(2) 0.06371(15)
C45 C 0.6099(3) 0.4091(3) 0.01431(17)
C46 C 0.5403(4) 0.4027(4) 0.0032(2)
H46 H 0.5271 0.4246 -0.0304
C47 C 0.4921(4) 0.3662(4) 0.0391(3)
H47 H 0.4437 0.3646 0.0311
C48 C 0.5116(3) 0.3303(3) 0.0881(2)
H48 H 0.4778 0.3028 0.1128
C49 C 0.6701(4) 0.4465(3) -0.02654(17)
H49 H 0.6471 0.4716 -0.0588
H50 H 0.6789 0.4861 -0.0147
C50 C 0.7511(4) 0.3857(3) -0.03613(15)
C51 C 0.8224(4) 0.3900(2) -0.02690(14)
C52 C 0.8958(3) 0.3303(2) -0.02874(15)
C53 C 0.8968(3) 0.2671(3) -0.04339(17)
H51 H 0.9459 0.2259 -0.0453
C54 C 0.8282(3) 0.2635(3) -0.05502(18)
H52 H 0.8303 0.2207 -0.0661
C55 C 0.7550(4) 0.3222(3) -0.05082(18)
H53 H 0.7072 0.3185 -0.0582
C56 C 0.9711(3) 0.3318(3) -0.01265(18)
C57 C 0.9101(3) 0.1680(3) 0.16361(19)
C58 C 0.6816(5) 0.4472(3) 0.0948(2)
H54 H 0.6518 0.4931 0.0716
H55 H 0.7340 0.4524 0.0962
H56 H 0.6490 0.4413 0.1292
C59 C 0.8312(4) 0.5154(3) -0.05795(18)
H57 H 0.7891 0.5281 -0.0795
H58 H 0.8858 0.5002 -0.0788
C60 C 0.8218(4) 0.5831(3) -0.0387(2)
H59 H 0.8578 0.5680 -0.0128
H60 H 0.8370 0.6241 -0.0673
C61 C 0.7160(3) 0.6713(2) 0.00454(16)
C62 C 0.6371(3) 0.6909(2) 0.03038(18)
H61 H 0.6024 0.6612 0.0334
C63 C 0.6078(3) 0.7529(2) 0.05193(18)
H62 H 0.5530 0.7660 0.0693
C64 C 0.6582(2) 0.79676(18) 0.04841(14)
C65 C 0.7377(3) 0.7752(2) 0.02344(15)
H63 H 0.7730 0.8038 0.0213
C66 C 0.7679(3) 0.7131(2) 0.00131(16)
H64 H 0.8229 0.6995 -0.0157
C67 C 0.9940(4) 0.2608(4) 0.0279(2)
C68 C 0.9498(8) 0.2482(8) 0.0767(3)
C69 C 0.9664(4) 0.1802(4) 0.1125(3)
C70 C 1.0373(4) 0.1227(5) 0.1001(3)
H65 H 1.0517 0.0751 0.1246
C71 C 1.0844(6) 0.1328(7) 0.0556(4)
H66 H 1.1331 0.0932 0.0487
C72 C 1.0635(4) 0.2026(4) 0.0172(3)
H67 H 1.0972 0.2089 -0.0153
C73 C 0.8911(6) 0.3581(6) 0.1115(4)
H68 H 0.9073 0.3305 0.1452
H69 H 0.8400 0.3996 0.1155
H70 H 0.9341 0.3798 0.0895
O6 O 0.8793(3) 0.3062(2) 0.08850(17)
N5 N 0.59289(17) 0.95350(16) 0.24885(13)
C74 C 0.5924(2) 0.9520(2) 0.19489(16)
H71 H 0.6491 0.9280 0.1796
H72 H 0.5593 0.9189 0.1967
C75 C 0.5593(3) 1.0290(2) 0.1599(2)
H73 H 0.5019 1.0519 0.1733
H74 H 0.5633 1.0227 0.1256
H75 H 0.5912 1.0626 0.1579
C76 C 0.5081(2) 0.9919(2) 0.2749(2)
H76 H 0.5115 0.9881 0.3107
H77 H 0.4919 1.0470 0.2573
C77 C 0.4416(2) 0.9587(2) 0.2758(2)
H78 H 0.4368 0.9630 0.2406
H79 H 0.3894 0.9871 0.2928
H80 H 0.4557 0.9046 0.2945
C78 C 0.6474(2) 1.0002(2) 0.24832(18)
H81 H 0.6273 1.0524 0.2266
H82 H 0.6415 1.0051 0.2836
C79 C 0.7371(2) 0.9674(3) 0.22915(19)
H83 H 0.7596 0.9186 0.2529
H84 H 0.7662 1.0034 0.2269
H85 H 0.7437 0.9590 0.1952
C80 C 0.6252(2) 0.8705(2) 0.27829(16)
H86 H 0.5882 0.8422 0.2782
H87 H 0.6797 0.8470 0.2600
C81 C 0.6327(3) 0.8606(3) 0.33267(18)
H88 H 0.6659 0.8915 0.3335
H89 H 0.6590 0.8065 0.3477
H90 H 0.5781 0.8774 0.3524
O7 O 0.9611(2) 0.5096(3) 0.13601(17)
O8 O 0.7902(3) 0.5800(3) 0.12480(17)
O9 O 0.46238(15) 0.5783(2) 0.52737(9)
O10 O 0.33464(15) 0.71478(16) 0.48691(10)
O11 O 0.27883(18) 0.96698(12) 0.56112(11)
O12 O 0.38457(18) 0.9392(2) 0.63552(14)
O13 O 0.2468(2) 0.80828(19) 0.57593(14)
N6 N 0.75556(14) 0.71360(14) 0.63702(11)
H91 H 0.7144 0.7006 0.6340
N7 N 0.79101(14) 0.56125(14) 0.59414(10)
H92 H 0.7427 0.5878 0.6072
N8 N 0.68324(13) 0.48882(12) 0.69727(9)
H93 H 0.6661 0.5368 0.6799
N9 N 0.65055(14) 0.63700(12) 0.74113(10)
H94 H 0.6446 0.6394 0.7101
C82 C 0.1776(4) 0.8956(2) 0.64546(15)
C83 C 0.75533(18) 0.74570(16) 0.67476(13)
C84 C 0.8311(2) 0.7567(2) 0.66619(16)
H95 H 0.8490 0.7777 0.6864
C85 C 0.8768(2) 0.7313(2) 0.62242(17)
H96 H 0.9311 0.7323 0.6077
C86 C 0.82935(18) 0.70458(18) 0.60449(15)
C87 C 0.84478(19) 0.6757(2) 0.55704(15)
C88 C 0.85478(18) 0.5905(2) 0.56951(14)
C89 C 0.9192(2) 0.5311(2) 0.55566(17)
H97 H 0.9719 0.5340 0.5381
C90 C 0.89292(19) 0.4645(2) 0.57231(16)
H98 H 0.9250 0.4148 0.5681
C91 C 0.81328(17) 0.48479(18) 0.59551(12)
C92 C 0.75281(17) 0.43874(16) 0.61818(12)
C93 C 0.73066(16) 0.42849(14) 0.67568(12)
C94 C 0.74527(18) 0.36422(15) 0.71562(13)
H99 H 0.7766 0.3138 0.7126
C95 C 0.7056(2) 0.38615(16) 0.76200(13)
H100 H 0.7060 0.3533 0.7955
C96 C 0.66639(18) 0.46368(15) 0.74964(11)
C97 C 0.6081(2) 0.51636(17) 0.78281(13)
C98 C 0.6402(2) 0.57928(16) 0.78356(12)
C99 C 0.6563(2) 0.59460(19) 0.82420(14)
H101 H 0.6546 0.5640 0.8584
C100 C 0.6761(2) 0.66539(18) 0.80566(14)
H102 H 0.6897 0.6903 0.8254
C101 C 0.67165(19) 0.69082(16) 0.75401(12)
C102 C 0.68201(18) 0.76372(16) 0.71538(13)
C103 C 0.7740(2) 0.7199(2) 0.52725(15)
H103 H 0.7234 0.7108 0.5484
H104 H 0.7848 0.7026 0.4959
H105 H 0.7682 0.7748 0.5183
C104 C 0.9238(3) 0.6902(3) 0.5231(2)
H106 H 0.9210 0.7437 0.5183
H107 H 0.9296 0.6801 0.4898
H108 H 0.9710 0.6562 0.5398
C105 C 0.7916(2) 0.35910(19) 0.60635(16)
H109 H 0.8409 0.3318 0.6222
H110 H 0.8061 0.3652 0.5692
H111 H 0.7523 0.3297 0.6201
C106 C 0.5932(3) 0.4681(2) 0.83779(15)
H112 H 0.5693 0.4292 0.8379
H113 H 0.5555 0.5014 0.8596
H114 H 0.6452 0.4429 0.8509
C107 C 0.5268(2) 0.5533(2) 0.76187(17)
H115 H 0.5361 0.5842 0.7268
H116 H 0.4877 0.5863 0.7835
H117 H 0.5049 0.5132 0.7619
C108 C 0.6944(2) 0.81526(19) 0.74373(16)
H118 H 0.7418 0.7872 0.7615
H119 H 0.6454 0.8298 0.7688
H120 H 0.7039 0.8615 0.7190
C109 C 0.67513(17) 0.47858(17) 0.59308(11)
C110 C 0.67892(18) 0.51992(18) 0.54263(12)
H121 H 0.7301 0.5255 0.5237
C111 C 0.60970(19) 0.5538(2) 0.51874(12)
H122 H 0.6139 0.5816 0.4839
C112 C 0.5348(2) 0.5466(2) 0.54623(13)
C113 C 0.5303(2) 0.5046(3) 0.59670(13)
H123 H 0.4790 0.4994 0.6157
C114 C 0.59963(19) 0.4698(2) 0.61994(12)
H124 H 0.5958 0.4400 0.6543
C115 C 0.4648(2) 0.6215(2) 0.47533(13)
H125 H 0.5006 0.5886 0.4522
H126 H 0.4864 0.6647 0.4701
C116 C 0.3788(2) 0.6512(2) 0.46424(14)
H127 H 0.3791 0.6678 0.4268
H128 H 0.3520 0.6102 0.4787
C117 C 0.2508(2) 0.7381(2) 0.48524(15)
C118 C 0.2216(2) 0.7884(2) 0.44211(15)
C119 C 0.1382(2) 0.8095(3) 0.43969(19)
H129 H 0.1171 0.8443 0.4101
C120 C 0.0873(3) 0.7796(3) 0.4805(3)
H130 H 0.0313 0.7916 0.4782
C121 C 0.1162(3) 0.7326(3) 0.5245(2)
H131 H 0.0792 0.7146 0.5529
C122 C 0.2002(3) 0.7103(2) 0.52833(18)
C123 C 0.2779(2) 0.8241(3) 0.39776(15)
C124 C 0.2508(3) 0.8998(3) 0.3900(2)
C125 C 0.2567(4) 0.9362(8) 0.4240(3)
C126 C 0.2276(3) 1.0140(3) 0.4186(2)
C127 C 0.1904(4) 1.0586(5) 0.3776(3)
H132 H 0.1695 1.1127 0.3729
C128 C 0.1834(4) 1.0232(5) 0.3421(3)
H133 H 0.1576 1.0541 0.3132
C129 C 0.2130(3) 0.9448(4) 0.3484(2)
H134 H 0.2074 0.9220 0.3242
O14 O 0.2947(2) 0.8901(2) 0.46744(15)
C130 C 0.3803(4) 0.8746(4) 0.4621(4)
H135 H 0.4082 0.8255 0.4527
H136 H 0.3945 0.8718 0.4946
H137 H 0.3974 0.9155 0.4353
C131 C 0.2286(2) 1.0558(2) 0.46458(18)
C132 C 0.1696(2) 1.03220(18) 0.51112(16)
C133 C 0.1965(3) 0.98618(18) 0.55687(16)
C134 C 0.1448(3) 0.9544(2) 0.59835(16)
C135 C 0.0621(4) 0.9748(3) 0.59379(19)
H138 H 0.0255 0.9546 0.6214
C136 C 0.0335(3) 1.0235(3) 0.55010(19)
H139 H -0.0231 1.0384 0.5481
C137 C 0.0863(3) 1.0506(2) 0.50932(17)
H140 H 0.0658 1.0829 0.4789
C138 C 0.1478(3) 0.8234(3) 0.6499(2)
C139 C 0.1894(3) 0.7791(4) 0.6163(2)
C140 C 0.1759(3) 0.7168(3) 0.61680(19)
C141 C 0.1151(4) 0.6918(4) 0.6535(3)
H141 H 0.1043 0.6464 0.6543
C142 C 0.0715(5) 0.7342(5) 0.6882(3)
H142 H 0.0302 0.7174 0.7135
C143 C 0.0852(4) 0.8006(5) 0.6878(3)
H143 H 0.0539 0.8299 0.7119
C144 C 0.3289(3) 0.7809(4) 0.5851(3)
H144 H 0.3326 0.8005 0.6127
H145 H 0.3646 0.7985 0.5539
H146 H 0.3463 0.7247 0.5951
C145 C 0.2304(3) 0.6628(2) 0.57886(16)
C146 C 0.2968(3) 1.0232(2) 0.5765(2)
H147 H 0.2588 1.0347 0.6078
H148 H 0.2899 1.0713 0.5490
C147 C 0.3834(3) 0.9923(2) 0.5866(2)
H149 H 0.4196 0.9664 0.5598
H150 H 0.4031 1.0346 0.5864
C148 C 0.4585(2) 0.8985(2) 0.65148(16)
C149 C 0.5324(2) 0.9105(2) 0.62646(15)
H151 H 0.5347 0.9491 0.5954
C150 C 0.6038(2) 0.86583(17) 0.64688(13)
H152 H 0.6543 0.8746 0.6293
C151 C 0.60318(17) 0.80934(15) 0.69178(12)
C152 C 0.52799(19) 0.79903(17) 0.71680(14)
H153 H 0.5255 0.7608 0.7480
C153 C 0.4563(2) 0.8434(2) 0.69718(16)
H154 H 0.4055 0.8357 0.7152
O15 O 0.4839(4) 0.6851(5) 0.6359(3)
N10 N 0.92708(18) 0.48391(17) 0.73749(16)
C154 C 0.8703(3) 0.5627(2) 0.7393(2)
H155 H 0.8144 0.5592 0.7546
H156 H 0.8685 0.5952 0.7040
C155 C 0.8972(4) 0.6010(3) 0.7712(3)
H157 H 0.9093 0.5648 0.8039
H158 H 0.8529 0.6468 0.7776
H159 H 0.9462 0.6156 0.7521
C156 C 1.0130(3) 0.4852(3) 0.7147(3)
H160 H 1.0487 0.4319 0.7166
H161 H 1.0321 0.5072 0.7356
C157 C 1.0221(3) 0.5309(4) 0.6598(3)
H162 H 1.0097 0.5060 0.6381
H163 H 1.0783 0.5334 0.6484
H164 H 0.9841 0.5829 0.6571
C158 C 0.9306(4) 0.4306(3) 0.7914(3)
H165 H 0.9679 0.3792 0.7884
H166 H 0.9545 0.4503 0.8110
C159 C 0.8487(5) 0.4223(3) 0.8212(2)
H167 H 0.8113 0.4728 0.8246
H168 H 0.8561 0.3886 0.8554
H169 H 0.8258 0.4002 0.8031
C160 C 0.8938(2) 0.4541(2) 0.7046(2)
H170 H 0.8370 0.4541 0.7201
H171 H 0.8924 0.4894 0.6701
C161 C 0.9449(3) 0.3730(2) 0.6993(2)
H172 H 1.0006 0.3731 0.6823
H173 H 0.9200 0.3565 0.6787
H174 H 0.9468 0.3377 0.7333
C162? C 0.2602(7) 0.9528(7) 0.4270(3)
C163? C 0.2847(4) 0.9953(3) 0.4489(2)
C164? C 0.3652(4) 0.9697(4) 0.4548(2)
H175? H 0.3850 0.9966 0.4698
C165? C 0.4172(5) 0.9066(4) 0.4393(3)
H176? H 0.4730 0.8904 0.4434
C166? C 0.3910(4) 0.8656(4) 0.4180(2)
H177? H 0.4285 0.8215 0.4075
C167? C 0.3084(4) 0.8888(4) 0.4115(2)
O16? O 0.1755(3) 0.9794(2) 0.42012(18)
C168? C 0.1622(7) 1.0358(6) 0.3718(4)
H178? H 0.1134 1.0787 0.3775
H179? H 0.1544 1.0120 0.3477
H180? H 0.2098 1.0547 0.3575
C169? C 0.2270(4) 0.7724(5) 0.61602(16)
C170? C 0.2547(4) 0.8167(3) 0.63127(14)
C171? C 0.3378(5) 0.7961(3) 0.63190(18)
H181? H 0.3583 0.8275 0.6425
C172? C 0.3931(5) 0.7295(4) 0.6172(2)
C173? C 0.3624(4) 0.6838(3) 0.6022(2)
H182? H 0.3990 0.6391 0.5920
C174? C 0.2789(4) 0.7021(3) 0.60159(19)
O17? O 0.1436(4) 0.7869(3) 0.61765(18)
C175? C 0.1013(5) 0.7520(7) 0.6667(4)
H183? H 0.1219 0.6960 0.6726
H184? H 0.0424 0.7692 0.6659
H185? H 0.1114 0.7673 0.6944
C176? C 0.9717(8) 0.3183(6) 0.0450(4)
C177? C 0.9599(17) 0.2515(12) 0.0784(4)
C178? C 0.9388(8) 0.2426(6) 0.1301(4)
C179? C 0.9283(9) 0.3042(7) 0.1498(5)
H186? H 0.9121 0.2996 0.1857
C180? C 0.9405(10) 0.3687(8) 0.1200(5)
H187? H 0.9361 0.4089 0.1345
C181? C 0.9600(9) 0.3782(7) 0.0661(5)
H188? H 0.9650 0.4259 0.0445
C182? C 1.0643(10) 0.1472(15) 0.0494(11)
H189? H 1.0968 0.1829 0.0389
H190? H 1.0751 0.1204 0.0224
H191? H 1.0792 0.1097 0.0812
O18? O 0.9785(5) 0.1891(5) 0.0576(3)
C183? C 0.5630(11) 0.7323(9) 0.5391(6)
H192? H 0.5099 0.7216 0.5466
H193? H 0.6019 0.6905 0.5600
Cl3? Cl 0.55253(11) 0.82004(11) 0.54633(8)
Cl4? Cl 0.61136(10) 0.75313(9) 0.45907(5)
loop_
_geom_bond_atom_site_label_1
_geom_bond_atom_site_label_2
_geom_bond_site_symmetry_1
_geom_bond_site_symmetry_2
Cl1 C1 1_555 1_555
C1 H1 1_555 1_555
H2 C1 1_555 1_555
Cl2 C1 1_555 1_555
O1 C31 1_555 1_555
O2 C35 1_555 1_555
O3 C51 1_555 1_555
O4 C60 1_555 1_555
O5 C44 1_555 1_555
N1 H3 1_555 1_555
N2 H4 1_555 1_555
N3 H5 1_555 1_555
N4 H6 1_555 1_555
C2 N1 1_555 1_555
C3 C2 1_555 1_555
H7 C3 1_555 1_555
C4 C3 1_555 1_555
H8 C4 1_555 1_555
C5 N1 1_555 1_555
C6 C5 1_555 1_555
C7 N2 1_555 1_555
C8 C7 1_555 1_555
H9 C8 1_555 1_555
C9 C8 1_555 1_555
H10 C9 1_555 1_555
C10 N2 1_555 1_555
C11 C10 1_555 1_555
C12 N3 1_555 1_555
C13 C12 1_555 1_555
H11 C13 1_555 1_555
C14 C13 1_555 1_555
H12 C14 1_555 1_555
C15 N3 1_555 1_555
C16 C15 1_555 1_555
C17 N4 1_555 1_555
C18 C17 1_555 1_555
H13 C18 1_555 1_555
C19 C18 1_555 1_555
H14 C19 1_555 1_555
C20 N4 1_555 1_555
C21 C2 1_555 1_555
C22 C21 1_555 1_555
H15 C22 1_555 1_555
H16 C22 1_555 1_555
H17 C22 1_555 1_555
C23 C21 1_555 1_555
H18 C23 1_555 1_555
H19 C23 1_555 1_555
H20 C23 1_555 1_555
C24 C6 1_555 1_555
H21 C24 1_555 1_555
H22 C24 1_555 1_555
H23 C24 1_555 1_555
C25 C11 1_555 1_555
H24 C25 1_555 1_555
H25 C25 1_555 1_555
H26 C25 1_555 1_555
C26 C11 1_555 1_555
H27 C26 1_555 1_555
H28 C26 1_555 1_555
H29 C26 1_555 1_555
C27 C16 1_555 1_555
H30 C27 1_555 1_555
H31 C27 1_555 1_555
H32 C27 1_555 1_555
C28 C6 1_555 1_555
C29 C28 1_555 1_555
H33 C29 1_555 1_555
C30 C29 1_555 1_555
H34 C30 1_555 1_555
C31 C30 1_555 1_555
C32 C31 1_555 1_555
H35 C32 1_555 1_555
C33 C28 1_555 1_555
H36 C33 1_555 1_555
C34 O1 1_555 1_555
H37 C34 1_555 1_555
H38 C34 1_555 1_555
C35 C34 1_555 1_555
H39 C35 1_555 1_555
H40 C35 1_555 1_555
C36 O2 1_555 1_555
C37 C36 1_555 1_555
C38 C37 1_555 1_555
H41 C38 1_555 1_555
C39 C38 1_555 1_555
H42 C39 1_555 1_555
C40 C39 1_555 1_555
H43 C40 1_555 1_555
C41 C36 1_555 1_555
C42 C37 1_555 1_555
H44 C42 1_555 1_555
H45 C42 1_555 1_555
C43 C42 1_555 1_555
C44 C43 1_555 1_555
C45 C44 1_555 1_555
C46 C45 1_555 1_555
H46 C46 1_555 1_555
C47 C46 1_555 1_555
H47 C47 1_555 1_555
C48 C43 1_555 1_555
H48 C48 1_555 1_555
C49 C45 1_555 1_555
H49 C49 1_555 1_555
H50 C49 1_555 1_555
C50 C49 1_555 1_555
C51 C50 1_555 1_555
C52 C51 1_555 1_555
C53 C52 1_555 1_555
H51 C53 1_555 1_555
C54 C53 1_555 1_555
H52 C54 1_555 1_555
C55 C50 1_555 1_555
H53 C55 1_555 1_555
C56 C52 1_555 1_555
C57 C41 1_555 1_555
C58 O5 1_555 1_555
H54 C58 1_555 1_555
H55 C58 1_555 1_555
H56 C58 1_555 1_555
C59 O3 1_555 1_555
H57 C59 1_555 1_555
H58 C59 1_555 1_555
C60 C59 1_555 1_555
H59 C60 1_555 1_555
H60 C60 1_555 1_555
C61 O4 1_555 1_555
C62 C61 1_555 1_555
H61 C62 1_555 1_555
C63 C62 1_555 1_555
H62 C63 1_555 1_555
C64 C16 1_555 1_555
C65 C64 1_555 1_555
H63 C65 1_555 1_555
C66 C61 1_555 1_555
H64 C66 1_555 1_555
C67 C56 1_555 1_555
C68 C67 1_555 1_555
C69 C57 1_555 1_555
C70 C69 1_555 1_555
H65 C70 1_555 1_555
C71 C70 1_555 1_555
H66 C71 1_555 1_555
C72 C67 1_555 1_555
H67 C72 1_555 1_555
C73 H68 1_555 1_555
H69 C73 1_555 1_555
H70 C73 1_555 1_555
O6 C68 1_555 1_555
N5 C74 1_555 1_555
C74 H71 1_555 1_555
H72 C74 1_555 1_555
C75 C74 1_555 1_555
H73 C75 1_555 1_555
H74 C75 1_555 1_555
H75 C75 1_555 1_555
C76 N5 1_555 1_555
H76 C76 1_555 1_555
H77 C76 1_555 1_555
C77 C76 1_555 1_555
H78 C77 1_555 1_555
H79 C77 1_555 1_555
H80 C77 1_555 1_555
C78 N5 1_555 1_555
H81 C78 1_555 1_555
H82 C78 1_555 1_555
C79 C78 1_555 1_555
H83 C79 1_555 1_555
H84 C79 1_555 1_555
H85 C79 1_555 1_555
C80 N5 1_555 1_555
H86 C80 1_555 1_555
H87 C80 1_555 1_555
C81 C80 1_555 1_555
H88 C81 1_555 1_555
H89 C81 1_555 1_555
H90 C81 1_555 1_555
O9 C112 1_555 1_555
O10 C116 1_555 1_555
O11 C133 1_555 1_555
O12 C147 1_555 1_555
O13 C139 1_555 1_555
N6 H91 1_555 1_555
N7 H92 1_555 1_555
N8 H93 1_555 1_555
N9 H94 1_555 1_555
C82 C134 1_555 1_555
C83 N6 1_555 1_555
C84 C83 1_555 1_555
H95 C84 1_555 1_555
C85 C84 1_555 1_555
H96 C85 1_555 1_555
C86 N6 1_555 1_555
C87 C86 1_555 1_555
C88 N7 1_555 1_555
C89 C88 1_555 1_555
H97 C89 1_555 1_555
C90 C89 1_555 1_555
H98 C90 1_555 1_555
C91 N7 1_555 1_555
C92 C91 1_555 1_555
C93 N8 1_555 1_555
C94 C93 1_555 1_555
H99 C94 1_555 1_555
C95 C94 1_555 1_555
H100 C95 1_555 1_555
C96 N8 1_555 1_555
C97 C96 1_555 1_555
C98 N9 1_555 1_555
C99 C98 1_555 1_555
H101 C99 1_555 1_555
C100 C99 1_555 1_555
H102 C100 1_555 1_555
C101 N9 1_555 1_555
C102 C83 1_555 1_555
C103 C87 1_555 1_555
H103 C103 1_555 1_555
H104 C103 1_555 1_555
H105 C103 1_555 1_555
C104 C87 1_555 1_555
H106 C104 1_555 1_555
H107 C104 1_555 1_555
H108 C104 1_555 1_555
C105 C92 1_555 1_555
H109 C105 1_555 1_555
H110 C105 1_555 1_555
H111 C105 1_555 1_555
C106 C97 1_555 1_555
H112 C106 1_555 1_555
H113 C106 1_555 1_555
H114 C106 1_555 1_555
C107 C97 1_555 1_555
H115 C107 1_555 1_555
H116 C107 1_555 1_555
H117 C107 1_555 1_555
C108 C102 1_555 1_555
H118 C108 1_555 1_555
H119 C108 1_555 1_555
H120 C108 1_555 1_555
C109 C92 1_555 1_555
C110 C109 1_555 1_555
H121 C110 1_555 1_555
C111 C110 1_555 1_555
H122 C111 1_555 1_555
C112 C111 1_555 1_555
C113 C112 1_555 1_555
H123 C113 1_555 1_555
C114 C109 1_555 1_555
H124 C114 1_555 1_555
C115 O9 1_555 1_555
H125 C115 1_555 1_555
H126 C115 1_555 1_555
C116 C115 1_555 1_555
H127 C116 1_555 1_555
H128 C116 1_555 1_555
C117 O10 1_555 1_555
C118 C117 1_555 1_555
C119 C118 1_555 1_555
H129 C119 1_555 1_555
C120 C119 1_555 1_555
H130 C120 1_555 1_555
C121 C120 1_555 1_555
H131 C121 1_555 1_555
C122 C117 1_555 1_555
C123 C118 1_555 1_555
C124 C123 1_555 1_555
C125 C124 1_555 1_555
C126 C125 1_555 1_555
C127 C126 1_555 1_555
H132 C127 1_555 1_555
C128 C127 1_555 1_555
H133 C128 1_555 1_555
C129 C124 1_555 1_555
H134 C129 1_555 1_555
O14 C125 1_555 1_555
C130 O14 1_555 1_555
H135 C130 1_555 1_555
H136 C130 1_555 1_555
H137 C130 1_555 1_555
C131 C126 1_555 1_555
C132 C131 1_555 1_555
C133 C132 1_555 1_555
C134 C133 1_555 1_555
C135 C134 1_555 1_555
H138 C135 1_555 1_555
C136 C135 1_555 1_555
H139 C136 1_555 1_555
C137 C132 1_555 1_555
H140 C137 1_555 1_555
C138 C82 1_555 1_555
C139 C138 1_555 1_555
C140 C139 1_555 1_555
C141 C140 1_555 1_555
H141 C141 1_555 1_555
C142 C141 1_555 1_555
H142 C142 1_555 1_555
C143 C138 1_555 1_555
H143 C143 1_555 1_555
C144 O13 1_555 1_555
H144 C144 1_555 1_555
H145 C144 1_555 1_555
H146 C144 1_555 1_555
C145 C122 1_555 1_555
C146 O11 1_555 1_555
H147 C146 1_555 1_555
H148 C146 1_555 1_555
C147 C146 1_555 1_555
H149 C147 1_555 1_555
H150 C147 1_555 1_555
C148 O12 1_555 1_555
C149 C148 1_555 1_555
H151 C149 1_555 1_555
C150 C149 1_555 1_555
H152 C150 1_555 1_555
C151 C102 1_555 1_555
C152 C151 1_555 1_555
H153 C152 1_555 1_555
C153 C148 1_555 1_555
H154 C153 1_555 1_555
N10 C154 1_555 1_555
C154 H155 1_555 1_555
H156 C154 1_555 1_555
C155 C154 1_555 1_555
H157 C155 1_555 1_555
H158 C155 1_555 1_555
H159 C155 1_555 1_555
C156 N10 1_555 1_555
H160 C156 1_555 1_555
H161 C156 1_555 1_555
C157 C156 1_555 1_555
H162 C157 1_555 1_555
H163 C157 1_555 1_555
H164 C157 1_555 1_555
C158 N10 1_555 1_555
H165 C158 1_555 1_555
H166 C158 1_555 1_555
C159 C158 1_555 1_555
H167 C159 1_555 1_555
H168 C159 1_555 1_555
H169 C159 1_555 1_555
C160 N10 1_555 1_555
H170 C160 1_555 1_555
H171 C160 1_555 1_555
C161 C160 1_555 1_555
H172 C161 1_555 1_555
H173 C161 1_555 1_555
H174 C161 1_555 1_555
C4 C5 1_555 1_555
C6 C7 1_555 1_555
C9 C10 1_555 1_555
C11 C12 1_555 1_555
C14 C15 1_555 1_555
C16 C17 1_555 1_555
C19 C20 1_555 1_555
C20 C21 1_555 1_555
C32 C33 1_555 1_555
C40 C41 1_555 1_555
C47 C48 1_555 1_555
C54 C55 1_555 1_555
C63 C64 1_555 1_555
C65 C66 1_555 1_555
C68 C69 1_555 1_555
C71 C72 1_555 1_555
C73 O6 1_555 1_555
C85 C86 1_555 1_555
C87 C88 1_555 1_555
C90 C91 1_555 1_555
C92 C93 1_555 1_555
C95 C96 1_555 1_555
C97 C98 1_555 1_555
C100 C101 1_555 1_555
C101 C102 1_555 1_555
C113 C114 1_555 1_555
C121 C122 1_555 1_555
C128 C129 1_555 1_555
C136 C137 1_555 1_555
C140 C145 1_555 1_555
C142 C143 1_555 1_555
C150 C151 1_555 1_555
C152 C153 1_555 1_555

#END
