
#######################################################################
#
#                 Cambridge Crystallographic Data Centre
#                                CCDC 
#
#######################################################################
#
# If this CIF has been generated from an entry in the Cambridge 
# Structural Database, then it will include bibliographic, chemical, 
# crystal, experimental, refinement or atomic coordinate data resulting 
# from the CCDC's data processing and validation procedures.
#
#######################################################################

data_DOLMOI
_chemical_formula_moiety         'C26 H26 N2 O5'
_chemical_name_systematic        
'ethyl 9-benzoyl-4-(4-methoxyphenyl)-2-methyl-6-oxo-1,6,7,8-tetrahydro-4H-pyrido[1,2-a]pyrimidine-3-carboxylate'
_symmetry_cell_setting           triclinic
_symmetry_space_group_name_H-M   'P -1'
_symmetry_Int_Tables_number      2
_space_group_name_Hall           '-P 1'
loop_
_symmetry_equiv_pos_site_id
_symmetry_equiv_pos_as_xyz
1 x,y,z
2 -x,-y,-z
_cell_length_a                   8.2925(4)
_cell_length_b                   16.1905(12)
_cell_length_c                   18.3113(17)
_cell_angle_alpha                102.701(7)
_cell_angle_beta                 100.959(6)
_cell_angle_gamma                97.914(5)
_cell_volume                     2312.86
_exptl_crystal_colour            'light yellow'
_exptl_crystal_description       block
_cell_formula_units_Z            4
loop_
_atom_site_label
_atom_site_type_symbol
_atom_site_fract_x
_atom_site_fract_y
_atom_site_fract_z
O1 O 0.7029(2) 0.27276(14) -0.00194(13)
O2 O 0.8801(3) 0.58118(14) 0.29012(14)
O3 O 0.2073(2) 0.50677(14) 0.00647(13)
O4 O 0.2136(2) 0.36824(14) -0.04063(12)
O5 O 0.1443(3) 0.10266(15) 0.17536(13)
N1 N 0.6322(3) 0.50058(15) 0.17874(14)
H1 H 0.6602 0.5352 0.2239
N2 N 0.6651(2) 0.37708(14) 0.09514(13)
C1 C 0.7654(3) 0.32986(18) 0.05557(18)
C2 C 0.9486(3) 0.35801(19) 0.08870(17)
H2 H 0.9900 0.4062 0.0696
H3 H 1.0049 0.3112 0.0716
C3 C 0.9905(3) 0.38446(19) 0.17495(17)
H4 H 1.1091 0.4078 0.1936
H5 H 0.9652 0.3344 0.1946
C4 C 0.8918(3) 0.45144(17) 0.20412(16)
C5 C 0.7316(3) 0.44277(17) 0.16052(16)
C6 C 0.9585(3) 0.52269(19) 0.26923(18)
C7 C 1.1333(3) 0.53253(18) 0.31495(17)
C8 C 1.2395(4) 0.6115(2) 0.3350(2)
H6 H 1.2039 0.6578 0.3188
C9 C 1.4002(4) 0.6215(2) 0.3798(2)
H7 H 1.4726 0.6743 0.3923
C10 C 1.4524(4) 0.5543(3) 0.4056(2)
H8 H 1.5603 0.5614 0.4350
C11 C 1.3473(4) 0.4779(2) 0.3885(2)
H9 H 1.3816 0.4329 0.4076
C12 C 1.1890(3) 0.4662(2) 0.34263(19)
H10 H 1.1185 0.4128 0.3302
C13 C 0.4887(3) 0.50739(18) 0.12915(17)
C14 C 0.4160(3) 0.44086(18) 0.06903(16)
C15 C 0.4822(3) 0.35763(17) 0.06039(16)
H11 H 0.4681 0.3329 0.0052
C16 C 0.4350(4) 0.5925(2) 0.1522(2)
H12 H 0.4658 0.6136 0.2071
H13 H 0.3159 0.5851 0.1348
H14 H 0.4890 0.6332 0.1293
C17 C 0.2709(3) 0.4446(2) 0.01046(17)
C18 C 0.0654(4) 0.3614(2) -0.1001(2)
H15 H -0.0208 0.3844 -0.0773
H16 H 0.0920 0.3940 -0.1362
C19 C 0.0066(6) 0.2710(3) -0.1395(3)
H17 H -0.0898 0.2652 -0.1800
H18 H -0.0226 0.2396 -0.1037
H19 H 0.0935 0.2486 -0.1609
C20 C 0.3909(3) 0.29018(17) 0.09140(16)
C21 C 0.3732(3) 0.30571(19) 0.16708(17)
H20 H 0.4177 0.3597 0.2004
C22 C 0.2908(3) 0.2424(2) 0.19336(18)
H21 H 0.2801 0.2540 0.2441
C23 C 0.2237(3) 0.1614(2) 0.14447(18)
C24 C 0.2392(4) 0.1452(2) 0.06947(19)
H22 H 0.1938 0.0913 0.0360
C25 C 0.3227(3) 0.20959(19) 0.04400(18)
H23 H 0.3330 0.1979 -0.0068
C26 C 0.1035(4) 0.0148(2) 0.1326(2)
H24 H 0.0270 0.0095 0.0846
H25 H 0.0525 -0.0198 0.1615
H26 H 0.2035 -0.0046 0.1228
O6 O 0.1233(2) -0.10965(12) 0.29272(14)
O7 O 0.3058(2) 0.28435(12) 0.45228(12)
O8 O 0.7935(2) 0.00018(13) 0.49894(12)
O9 O 0.6618(2) -0.10065(11) 0.39168(11)
O10 O 0.6674(3) 0.01191(18) 0.07217(14)
N3 N 0.4433(2) 0.15169(13) 0.42342(13)
H27 H 0.4624 0.2071 0.4354
N4 N 0.2797(2) 0.02347(12) 0.34585(12)
C27 C 0.4336(3) -0.01207(16) 0.33970(15)
H28 H 0.4067 -0.0739 0.3364
C28 C 0.5662(3) 0.02858(16) 0.41262(15)
C29 C 0.5712(3) 0.11087(16) 0.44925(15)
C30 C 0.2900(3) 0.10979(16) 0.38050(15)
C31 C 0.1527(3) 0.14977(16) 0.37306(15)
C32 C -0.0121(3) 0.09352(17) 0.32827(17)
H29 H -0.1027 0.1175 0.3462
H30 H -0.0256 0.0924 0.2743
C33 C -0.0206(3) 0.00295(16) 0.33766(17)
H31 H -0.0290 0.0031 0.3898
H32 H -0.1209 -0.0334 0.3030
C34 C 0.1273(3) -0.03452(18) 0.32179(17)
C35 C 0.1699(3) 0.23879(17) 0.41116(16)
C36 C 0.0222(3) 0.28271(17) 0.40507(18)
C37 C -0.0936(3) 0.27105(19) 0.3360(2)
H33 H -0.0843 0.2324 0.2919
C38 C -0.2228(4) 0.3171(2) 0.3331(3)
H34 H -0.2992 0.3099 0.2868
C39 C -0.2379(5) 0.3729(3) 0.3981(4)
H35 H -0.3262 0.4027 0.3962
C40 C -0.1240(5) 0.3855(2) 0.4661(3)
H36 H -0.1343 0.4243 0.5099
C41 C 0.0058(4) 0.34074(19) 0.4698(2)
H37 H 0.0829 0.3496 0.5162
C42 C 0.6861(3) -0.02225(17) 0.44058(17)
C43 C 0.7737(4) -0.15785(19) 0.4115(2)
H38 H 0.7397 -0.1843 0.4502
H39 H 0.8871 -0.1257 0.4321
C44 C 0.7659(5) -0.2250(2) 0.3408(2)
H40 H 0.8117 -0.1989 0.3051
H41 H 0.6516 -0.2523 0.3180
H42 H 0.8293 -0.2672 0.3536
C45 C 0.7019(3) 0.16725(18) 0.51631(18)
H43 H 0.7098 0.2262 0.5137
H44 H 0.8079 0.1502 0.5149
H45 H 0.6718 0.1615 0.5633
C46 C 0.4912(3) -0.00291(16) 0.26785(15)
C47 C 0.5004(4) -0.0752(2) 0.21356(19)
H46 H 0.4660 -0.1296 0.2204
C48 C 0.5595(5) -0.0681(2) 0.1499(2)
H47 H 0.5658 -0.1177 0.1144
C49 C 0.6099(4) 0.0114(2) 0.13731(17)
C50 C 0.5972(3) 0.08381(19) 0.18918(17)
H48 H 0.6268 0.1380 0.1809
C51 C 0.5400(3) 0.07591(18) 0.25401(17)
H49 H 0.5344 0.1256 0.2895
C52 C 0.7093(5) 0.0935(3) 0.0561(2)
H50 H 0.7383 0.0851 0.0070
H51 H 0.8026 0.1282 0.0953
H52 H 0.6151 0.1220 0.0552
loop_
_geom_bond_atom_site_label_1
_geom_bond_atom_site_label_2
_geom_bond_site_symmetry_1
_geom_bond_site_symmetry_2
O1 C1 1_555 1_555
O2 C6 1_555 1_555
O3 C17 1_555 1_555
O4 C17 1_555 1_555
O5 C23 1_555 1_555
N1 H1 1_555 1_555
N2 C1 1_555 1_555
C1 C2 1_555 1_555
C2 H2 1_555 1_555
H3 C2 1_555 1_555
C3 C2 1_555 1_555
H4 C3 1_555 1_555
H5 C3 1_555 1_555
C4 C3 1_555 1_555
C5 N1 1_555 1_555
C6 C4 1_555 1_555
C7 C6 1_555 1_555
C8 C7 1_555 1_555
H6 C8 1_555 1_555
C9 C8 1_555 1_555
H7 C9 1_555 1_555
C10 C9 1_555 1_555
H8 C10 1_555 1_555
C11 C10 1_555 1_555
H9 C11 1_555 1_555
C12 C7 1_555 1_555
H10 C12 1_555 1_555
C13 N1 1_555 1_555
C14 C13 1_555 1_555
C15 N2 1_555 1_555
H11 C15 1_555 1_555
C16 C13 1_555 1_555
H12 C16 1_555 1_555
H13 C16 1_555 1_555
H14 C16 1_555 1_555
C17 C14 1_555 1_555
C18 O4 1_555 1_555
H15 C18 1_555 1_555
H16 C18 1_555 1_555
C19 C18 1_555 1_555
H17 C19 1_555 1_555
H18 C19 1_555 1_555
H19 C19 1_555 1_555
C20 C15 1_555 1_555
C21 C20 1_555 1_555
H20 C21 1_555 1_555
C22 C21 1_555 1_555
H21 C22 1_555 1_555
C23 C22 1_555 1_555
C24 C23 1_555 1_555
H22 C24 1_555 1_555
C25 C20 1_555 1_555
H23 C25 1_555 1_555
C26 O5 1_555 1_555
H24 C26 1_555 1_555
H25 C26 1_555 1_555
H26 C26 1_555 1_555
O6 C34 1_555 1_555
O7 C35 1_555 1_555
O8 C42 1_555 1_555
O9 C42 1_555 1_555
O10 C49 1_555 1_555
N3 H27 1_555 1_555
N4 C27 1_555 1_555
C27 H28 1_555 1_555
C28 C27 1_555 1_555
C29 N3 1_555 1_555
C30 N3 1_555 1_555
C31 C30 1_555 1_555
C32 C31 1_555 1_555
H29 C32 1_555 1_555
H30 C32 1_555 1_555
C33 C32 1_555 1_555
H31 C33 1_555 1_555
H32 C33 1_555 1_555
C34 N4 1_555 1_555
C35 C31 1_555 1_555
C36 C35 1_555 1_555
C37 C36 1_555 1_555
H33 C37 1_555 1_555
C38 C37 1_555 1_555
H34 C38 1_555 1_555
C39 C38 1_555 1_555
H35 C39 1_555 1_555
C40 C39 1_555 1_555
H36 C40 1_555 1_555
C41 C36 1_555 1_555
H37 C41 1_555 1_555
C42 C28 1_555 1_555
C43 O9 1_555 1_555
H38 C43 1_555 1_555
H39 C43 1_555 1_555
C44 C43 1_555 1_555
H40 C44 1_555 1_555
H41 C44 1_555 1_555
H42 C44 1_555 1_555
C45 C29 1_555 1_555
H43 C45 1_555 1_555
H44 C45 1_555 1_555
H45 C45 1_555 1_555
C46 C27 1_555 1_555
C47 C46 1_555 1_555
H46 C47 1_555 1_555
C48 C47 1_555 1_555
H47 C48 1_555 1_555
C49 C48 1_555 1_555
C50 C49 1_555 1_555
H48 C50 1_555 1_555
C51 C46 1_555 1_555
H49 C51 1_555 1_555
C52 O10 1_555 1_555
H50 C52 1_555 1_555
H51 C52 1_555 1_555
H52 C52 1_555 1_555
N2 C5 1_555 1_555
C4 C5 1_555 1_555
C11 C12 1_555 1_555
C14 C15 1_555 1_555
C24 C25 1_555 1_555
N4 C30 1_555 1_555
C28 C29 1_555 1_555
C33 C34 1_555 1_555
C40 C41 1_555 1_555
C50 C51 1_555 1_555

#END
