
#######################################################################
#
#                 Cambridge Crystallographic Data Centre
#                                CCDC 
#
#######################################################################
#
# If this CIF has been generated from an entry in the Cambridge 
# Structural Database, then it will include bibliographic, chemical, 
# crystal, experimental, refinement or atomic coordinate data resulting 
# from the CCDC's data processing and validation procedures.
#
#######################################################################

data_DOMGUI
_chemical_formula_moiety         
'2(C18 H12 N2),2(C16 H36 N1 1+),O4 S1 2-,0.25(C1 H2 Cl2),0.5(H2 O1)'
_chemical_name_systematic        
'bis(Tetra-n-butylammonium) bis(indolo(2,3-a)carbazole) sulfate dichloromethane solvate hemihydrate'
_symmetry_cell_setting           triclinic
_symmetry_space_group_name_H-M   'P -1'
_symmetry_Int_Tables_number      2
_space_group_name_Hall           '-P 1'
loop_
_symmetry_equiv_pos_site_id
_symmetry_equiv_pos_as_xyz
1 x,y,z
2 -x,-y,-z
_cell_length_a                   13.3572(2)
_cell_length_b                   17.5978(3)
_cell_length_c                   28.2466(5)
_cell_angle_alpha                88.0490(10)
_cell_angle_beta                 87.7290(10)
_cell_angle_gamma                84.2600(10)
_cell_volume                     6598.07
_exptl_crystal_description       needle
_cell_formula_units_Z            4
loop_
_atom_site_label
_atom_site_type_symbol
_atom_site_fract_x
_atom_site_fract_y
_atom_site_fract_z
S1 S 0.42098(14) 0.27937(10) 0.34595(6)
O1 O 0.3795(4) 0.3451(3) 0.31735(16)
O2 O 0.4962(4) 0.3035(3) 0.37671(16)
O3 O 0.4669(4) 0.2187(3) 0.31442(17)
O4 O 0.3399(4) 0.2488(3) 0.37514(16)
S2 S 0.95817(12) 0.19402(9) 0.13632(5)
O5 O 0.9848(4) 0.2543(2) 0.16666(15)
O6 O 0.9236(3) 0.1306(2) 0.16528(14)
O7 O 0.8785(3) 0.2269(3) 0.10513(15)
O8 O 1.0475(3) 0.1656(2) 0.10676(14)
N1 N 0.8941(3) 0.3966(3) 0.12488(16)
N2 N 0.7119(4) 0.3216(3) 0.07985(16)
C1 C 0.9474(5) 0.4529(3) 0.1409(2)
C2 C 1.0378(5) 0.4469(4) 0.1619(2)
C3 C 1.0770(5) 0.5123(4) 0.1755(2)
C4 C 1.0216(6) 0.5850(4) 0.1667(2)
C5 C 0.9306(5) 0.5916(4) 0.1456(2)
C6 C 0.8905(5) 0.5251(3) 0.1318(2)
C7 C 0.7980(5) 0.5101(3) 0.1112(2)
C8 C 0.8042(4) 0.4292(3) 0.1070(2)
C9 C 0.7247(4) 0.3972(3) 0.08834(19)
C10 C 0.7129(5) 0.5559(3) 0.0974(2)
C11 C 0.6337(5) 0.5239(3) 0.0789(2)
C12 C 0.6383(4) 0.4440(3) 0.07392(19)
C13 C 0.5710(4) 0.3937(3) 0.0560(2)
C14 C 0.4769(4) 0.4047(4) 0.0358(2)
C15 C 0.4343(5) 0.3433(4) 0.0189(2)
C16 C 0.4831(5) 0.2698(4) 0.0243(2)
C17 C 0.5759(5) 0.2570(4) 0.0448(2)
C18 C 0.6190(4) 0.3178(3) 0.0607(2)
N3 N 0.2141(3) 0.1436(2) 0.24225(12)
C19 C 0.2307(5) 0.1835(4) 0.19447(16)
C20 C 0.3157(5) 0.2343(4) 0.19220(17)
C21 C 0.3427(4) 0.2567(4) 0.14106(18)
C22 C 0.2574(5) 0.2982(5) 0.1137(3)
C23 C 0.2026(5) 0.2017(3) 0.28114(19)
C24 C 0.1158(5) 0.2631(4) 0.2759(2)
C25 C 0.1142(6) 0.3202(4) 0.3154(2)
C26 C 0.0267(6) 0.3818(5) 0.3124(3)
C27 C 0.1190(4) 0.1036(4) 0.23968(19)
C28 C 0.0775(9) 0.0690(7) 0.2852(3)
C29 C -0.0124(9) 0.0246(8) 0.2775(5)
C30 C -0.0523(13) -0.0145(10) 0.3219(6)
C35 C 0.3032(5) 0.0863(3) 0.2538(2)
C36 C 0.3326(6) 0.0288(3) 0.2158(2)
C37 C 0.3964(6) -0.0405(4) 0.2359(3)
C38 C 0.3271(9) -0.0935(6) 0.2607(4)
N4 N -0.0333(4) 0.9779(3) 0.1536(2)
N5 N 0.1719(5) 1.0334(3) 0.11000(18)
C41 C -0.0974(6) 0.9275(4) 0.1746(3)
C42 C -0.1987(7) 0.9383(5) 0.1854(3)
C43 C -0.2502(7) 0.8812(5) 0.2047(4)
C44 C -0.1961(8) 0.8078(5) 0.2125(4)
C45 C -0.0951(7) 0.7966(5) 0.2024(3)
C46 C -0.0428(6) 0.8558(4) 0.1818(3)
C47 C 0.0604(6) 0.8629(4) 0.1673(2)
C48 C 0.0630(6) 0.9399(3) 0.1497(2)
C49 C 0.1514(5) 0.9631(3) 0.1302(2)
C50 C 0.1474(6) 0.8120(4) 0.1658(3)
C51 C 0.2361(6) 0.8353(4) 0.1461(3)
C52 C 0.2376(5) 0.9108(3) 0.1274(2)
C53 C 0.3145(6) 0.9503(4) 0.1037(2)
C54 C 0.4148(6) 0.9308(4) 0.0895(3)
C55 C 0.4687(6) 0.9850(4) 0.0663(3)
C56 C 0.4245(6) 1.0589(4) 0.0570(2)
C57 C 0.3256(6) 1.0803(4) 0.0699(2)
C58 C 0.2719(6) 1.0266(4) 0.0932(2)
N6 N 0.0071(3) 0.7583(2) 0.02526(11)
C59 C 0.0529(5) 0.8230(3) -0.00195(16)
C60 C 0.0861(5) 0.8857(3) 0.02732(17)
C61 C 0.1298(4) 0.9467(3) -0.0046(2)
C62 C 0.2293(5) 0.9188(4) -0.0288(3)
C63 C -0.0872(3) 0.7872(4) 0.05360(17)
C64 C -0.1714(4) 0.8279(4) 0.02529(19)
C65 C -0.2590(5) 0.8584(4) 0.0578(2)
C66 C -0.3115(6) 0.7980(5) 0.0857(3)
C67 C -0.0179(5) 0.7025(3) -0.01139(16)
C68 C -0.0769(5) 0.6375(3) 0.00600(17)
C69 C -0.0823(5) 0.5826(3) -0.03420(19)
C70 C -0.1561(5) 0.5235(4) -0.0241(3)
C71 C 0.0793(3) 0.7201(3) 0.06108(16)
C72 C 0.1834(4) 0.6924(3) 0.04190(17)
C73 C 0.2431(4) 0.6497(4) 0.08108(18)
C74 C 0.3433(6) 0.6136(6) 0.0615(4)
N7 N 0.3857(10) 0.4957(6) 0.3329(5)
N8 N 0.5945(9) 0.4325(6) 0.3784(5)
C77 C 0.3165(12) 0.5483(7) 0.3129(4)
C78 C 0.2241(12) 0.5394(8) 0.2961(5)
C79 C 0.1666(15) 0.6015(10) 0.2781(5)
C80 C 0.2053(16) 0.6745(10) 0.2741(7)
C81 C 0.2959(16) 0.6846(8) 0.2907(6)
C82 C 0.3544(12) 0.6208(7) 0.3112(5)
C83 C 0.4548(12) 0.6099(6) 0.3279(5)
C84 C 0.4722(11) 0.5308(6) 0.3420(5)
C85 C 0.5597(11) 0.5050(7) 0.3625(7)
C86 C 0.5279(15) 0.6590(8) 0.3347(7)
C87 C 0.6201(13) 0.6305(8) 0.3532(5)
C88 C 0.6361(11) 0.5533(7) 0.3682(5)
C89 C 0.7190(11) 0.5073(9) 0.3891(6)
C90 C 0.8151(13) 0.5212(13) 0.4013(6)
C91 C 0.8794(14) 0.4644(14) 0.4215(8)
C92 C 0.8511(14) 0.3897(15) 0.4243(9)
C93 C 0.7551(13) 0.3738(10) 0.4133(7)
C94 C 0.6918(10) 0.4312(9) 0.3951(6)
N11 N 0.4050(5) 0.2605(4) 0.5077(2)
C113 C 0.3369(7) 0.2296(7) 0.5465(3)
C114 C 0.2466(9) 0.1938(8) 0.5300(3)
C115 C 0.1963(9) 0.1645(8) 0.5754(4)
C116 C 0.1132(11) 0.1207(9) 0.5583(5)
C117 C 0.3411(9) 0.3149(6) 0.4756(3)
C118 C 0.2792(9) 0.3814(5) 0.4987(3)
C119 C 0.2557(13) 0.4477(7) 0.4635(5)
C120 C 0.1720(16) 0.4192(13) 0.4365(8)
C124 C 0.4817(7) 0.2993(6) 0.5340(3)
C125 C 0.5614(8) 0.3309(6) 0.5016(3)
C126 C 0.6368(15) 0.3659(13) 0.5313(7)
C127 C 0.708(2) 0.3157(16) 0.5624(9)
C131 C 0.4564(7) 0.1979(4) 0.4769(3)
C132 C 0.5292(7) 0.1376(5) 0.4998(3)
C133 C 0.5750(9) 0.0813(7) 0.4632(4)
C134 C 0.6579(10) 0.0210(7) 0.4778(5)
N12 N 0.4330(8) 0.0732(6) 0.3596(4)
N13 N 0.2172(8) 0.1415(6) 0.4025(4)
C138 C 0.5058(10) 0.0209(7) 0.3456(6)
C139 C 0.5961(9) 0.0244(7) 0.3232(5)
C140 C 0.6634(10) -0.0369(7) 0.3095(5)
C141 C 0.6294(10) -0.1098(7) 0.3251(5)
C142 C 0.5436(10) -0.1138(7) 0.3485(5)
C143 C 0.4732(9) -0.0533(6) 0.3599(5)
C144 C 0.3753(9) -0.0419(6) 0.3804(5)
C145 C 0.3482(9) 0.0391(6) 0.3800(5)
C146 C 0.2590(9) 0.0688(6) 0.3977(6)
C147 C 0.3055(9) -0.0908(7) 0.3978(5)
C148 C 0.2143(10) -0.0608(7) 0.4130(5)
C149 C 0.1848(9) 0.0204(6) 0.4154(5)
C150 C 0.0973(9) 0.0674(6) 0.4301(5)
C151 C 0.0024(9) 0.0583(7) 0.4500(5)
C152 C -0.0640(11) 0.1179(7) 0.4631(5)
C153 C -0.0411(9) 0.1924(7) 0.4556(5)
C154 C 0.0510(9) 0.2047(7) 0.4341(5)
C155 C 0.1172(9) 0.1460(6) 0.4224(5)
N16 N 0.6871(3) 0.3243(2) 0.24190(12)
C174 C 0.5788(4) 0.3597(4) 0.24560(18)
C175 C 0.5399(4) 0.4021(4) 0.20151(19)
C176 C 0.4365(5) 0.4440(4) 0.2122(2)
C177 C 0.3918(6) 0.4823(5) 0.1680(3)
C178 C 0.7605(5) 0.3841(3) 0.23226(19)
C179 C 0.7658(6) 0.4405(4) 0.2710(2)
C180 C 0.8195(6) 0.5082(4) 0.2518(3)
C181 C 0.8396(14) 0.5745(7) 0.2816(5)
C184 C 0.7094(5) 0.2816(4) 0.28851(16)
C185 C 0.8102(5) 0.2341(4) 0.2894(2)
C186 C 0.8370(8) 0.2106(6) 0.3400(2)
C187 C 0.7666(9) 0.1558(7) 0.3621(5)
C190 C 0.7023(5) 0.2696(3) 0.20127(18)
C191 C 0.6338(5) 0.2060(3) 0.2043(2)
C192 C 0.6539(5) 0.1530(4) 0.1627(2)
C193 C 0.5845(5) 0.0899(4) 0.1629(3)
C194 C 0.4998(16) 0.6775(11) 0.2025(5)
Cl1 Cl 0.5317(5) 0.7685(4) 0.2199(2)
Cl2 Cl 0.4817(4) 0.6946(3) 0.14053(18)
O9 O 0.0373(6) 0.6245(5) 0.4529(3)
C31? C 0.1190(4) 0.1036(4) 0.23968(19)
C32? C 0.1111(15) 0.0458(13) 0.2802(7)
C33? C 0.0223(19) 0.0004(17) 0.2721(10)
C34? C -0.012(3) -0.0468(19) 0.3145(10)
C39? C 0.3964(6) -0.0405(4) 0.2359(3)
C40? C 0.4538(19) -0.1071(12) 0.2109(9)
C75? C 0.2431(4) 0.6497(4) 0.08108(18)
C76? C 0.3556(7) 0.652(3) 0.0728(16)
N9? N 0.3463(11) 0.5045(9) 0.3347(9)
N10? N 0.5626(12) 0.4481(9) 0.3744(10)
C95? C 0.2703(12) 0.5554(10) 0.3192(10)
C96? C 0.1768(13) 0.5435(11) 0.3061(8)
C97? C 0.1127(16) 0.6042(12) 0.2915(10)
C98? C 0.1479(15) 0.6787(12) 0.2860(9)
C99? C 0.2368(15) 0.6929(11) 0.3026(9)
C100? C 0.3049(12) 0.6293(9) 0.3156(9)
C101? C 0.4064(12) 0.6227(9) 0.3316(9)
C102? C 0.4308(11) 0.5438(9) 0.3427(9)
C103? C 0.5246(16) 0.5188(10) 0.3574(17)
C104? C 0.4784(15) 0.6740(12) 0.3316(15)
C105? C 0.5721(14) 0.6498(9) 0.3505(10)
C106? C 0.5969(14) 0.5715(9) 0.3622(13)
C107? C 0.6855(15) 0.5280(10) 0.3791(15)
C108? C 0.7811(13) 0.5456(11) 0.3893(11)
C109? C 0.8465(18) 0.4918(11) 0.4120(15)
C110? C 0.8225(15) 0.4165(10) 0.4182(11)
C111? C 0.7315(15) 0.3950(10) 0.4037(14)
C112? C 0.6624(14) 0.4515(9) 0.3883(12)
C121? C 0.2792(9) 0.3814(5) 0.4987(3)
C122? C 0.1876(13) 0.4029(19) 0.4688(7)
C123? C 0.210(3) 0.436(2) 0.4197(8)
C128? C 0.5614(8) 0.3309(6) 0.5016(3)
C129? C 0.5829(18) 0.4052(8) 0.5235(7)
C130? C 0.663(2) 0.3611(16) 0.5530(11)
C135? C 0.5292(7) 0.1376(5) 0.4998(3)
C136? C 0.556(2) 0.083(3) 0.4596(15)
C137? C 0.650(3) 0.121(3) 0.4437(16)
N14? N 0.3904(10) 0.0805(8) 0.3663(6)
N15? N 0.1830(11) 0.1624(7) 0.4086(6)
C156? C 0.4612(12) 0.0226(8) 0.3557(8)
C157? C 0.5558(13) 0.0216(10) 0.3358(8)
C158? C 0.6139(14) -0.0448(9) 0.3262(7)
C159? C 0.5794(14) -0.1186(10) 0.3348(8)
C160? C 0.4835(14) -0.1179(9) 0.3558(7)
C161? C 0.4253(12) -0.0502(8) 0.3681(8)
C162? C 0.3224(12) -0.0312(8) 0.3865(7)
C163? C 0.3062(12) 0.0498(8) 0.3875(9)
C164? C 0.2174(12) 0.0868(8) 0.4047(8)
C165? C 0.2517(13) -0.0790(9) 0.4033(8)
C166? C 0.1586(13) -0.0412(8) 0.4207(7)
C167? C 0.1422(12) 0.0403(8) 0.4215(8)
C168? C 0.0583(12) 0.0946(8) 0.4371(7)
C169? C -0.0350(13) 0.0862(10) 0.4582(8)
C170? C -0.0979(13) 0.1523(10) 0.4713(7)
C171? C -0.0669(13) 0.2252(10) 0.4647(7)
C172? C 0.0256(13) 0.2349(9) 0.4418(7)
C173? C 0.0853(13) 0.1698(8) 0.4289(9)
C182? C 0.8195(6) 0.5082(4) 0.2518(3)
C183? C 0.7409(11) 0.5713(8) 0.2364(6)
C188? C 0.818(2) 0.190(3) 0.3365(9)
C189? C 0.733(3) 0.181(3) 0.3729(17)
O10? O 0.0083(13) 0.6545(10) 0.4372(6)
O11? O -0.061(2) 0.6877(15) 0.3883(9)
O12? O -0.0647(17) 0.7174(13) 0.3409(8)
loop_
_geom_bond_atom_site_label_1
_geom_bond_atom_site_label_2
_geom_bond_site_symmetry_1
_geom_bond_site_symmetry_2
S1 O1 1_555 1_555
S2 O5 1_555 1_555
O2 S1 1_555 1_555
O3 S1 1_555 1_555
O4 S1 1_555 1_555
O6 S2 1_555 1_555
O7 S2 1_555 1_555
O8 S2 1_555 1_555
N1 C1 1_555 1_555
N2 C9 1_555 1_555
C1 C2 1_555 1_555
C2 C3 1_555 1_555
C3 C4 1_555 1_555
C4 C5 1_555 1_555
C5 C6 1_555 1_555
C6 C1 1_555 1_555
C7 C6 1_555 1_555
C8 N1 1_555 1_555
C9 C8 1_555 1_555
C10 C7 1_555 1_555
C11 C10 1_555 1_555
C12 C9 1_555 1_555
C13 C12 1_555 1_555
C14 C13 1_555 1_555
C15 C14 1_555 1_555
C16 C15 1_555 1_555
C17 C16 1_555 1_555
C18 N2 1_555 1_555
N3 C19 1_555 1_555
C19 C20 1_555 1_555
C20 C21 1_555 1_555
C21 C22 1_555 1_555
C23 N3 1_555 1_555
C24 C23 1_555 1_555
C25 C24 1_555 1_555
C26 C25 1_555 1_555
C27 N3 1_555 1_555
C28 C27 1_555 1_555
C29 C28 1_555 1_555
C30 C29 1_555 1_555
C35 N3 1_555 1_555
C36 C35 1_555 1_555
C37 C36 1_555 1_555
C38 C37 1_555 1_555
N4 C41 1_555 1_555
N5 C49 1_555 1_555
C41 C42 1_555 1_555
C42 C43 1_555 1_555
C43 C44 1_555 1_555
C44 C45 1_555 1_555
C45 C46 1_555 1_555
C46 C41 1_555 1_555
C47 C46 1_555 1_555
C48 N4 1_555 1_555
C49 C48 1_555 1_555
C50 C47 1_555 1_555
C51 C50 1_555 1_555
C52 C49 1_555 1_555
C53 C52 1_555 1_555
C54 C53 1_555 1_555
C55 C54 1_555 1_555
C56 C55 1_555 1_555
C57 C56 1_555 1_555
C58 N5 1_555 1_555
N6 C59 1_555 1_555
C59 C60 1_555 1_555
C60 C61 1_555 1_555
C61 C62 1_555 1_555
C63 N6 1_555 1_555
C64 C63 1_555 1_555
C65 C64 1_555 1_555
C66 C65 1_555 1_555
C67 N6 1_555 1_555
C68 C67 1_555 1_555
C69 C68 1_555 1_555
C70 C69 1_555 1_555
C71 N6 1_555 1_555
C72 C71 1_555 1_555
C73 C72 1_555 1_555
C74 C73 1_555 1_555
N7 C77 1_555 1_555
N8 C85 1_555 1_555
C77 C78 1_555 1_555
C78 C79 1_555 1_555
C79 C80 1_555 1_555
C80 C81 1_555 1_555
C81 C82 1_555 1_555
C82 C77 1_555 1_555
C83 C82 1_555 1_555
C84 N7 1_555 1_555
C85 C84 1_555 1_555
C86 C83 1_555 1_555
C87 C86 1_555 1_555
C88 C85 1_555 1_555
C89 C88 1_555 1_555
C90 C89 1_555 1_555
C91 C90 1_555 1_555
C92 C91 1_555 1_555
C93 C92 1_555 1_555
C94 N8 1_555 1_555
N11 C113 1_555 1_555
C113 C114 1_555 1_555
C114 C115 1_555 1_555
C115 C116 1_555 1_555
C117 N11 1_555 1_555
C118 C117 1_555 1_555
C119 C118 1_555 1_555
C120 C119 1_555 1_555
C124 N11 1_555 1_555
C125 C124 1_555 1_555
C126 C125 1_555 1_555
C127 C126 1_555 1_555
C131 N11 1_555 1_555
C132 C131 1_555 1_555
C133 C132 1_555 1_555
C134 C133 1_555 1_555
N12 C138 1_555 1_555
N13 C146 1_555 1_555
C138 C139 1_555 1_555
C139 C140 1_555 1_555
C140 C141 1_555 1_555
C141 C142 1_555 1_555
C142 C143 1_555 1_555
C143 C138 1_555 1_555
C144 C143 1_555 1_555
C145 N12 1_555 1_555
C146 C145 1_555 1_555
C147 C144 1_555 1_555
C148 C147 1_555 1_555
C149 C146 1_555 1_555
C150 C149 1_555 1_555
C151 C150 1_555 1_555
C152 C151 1_555 1_555
C153 C152 1_555 1_555
C154 C153 1_555 1_555
C155 N13 1_555 1_555
N16 C174 1_555 1_555
C174 C175 1_555 1_555
C175 C176 1_555 1_555
C176 C177 1_555 1_555
C178 N16 1_555 1_555
C179 C178 1_555 1_555
C180 C179 1_555 1_555
C181 C180 1_555 1_555
C184 N16 1_555 1_555
C185 C184 1_555 1_555
C186 C185 1_555 1_555
C187 C186 1_555 1_555
C190 N16 1_555 1_555
C191 C190 1_555 1_555
C192 C191 1_555 1_555
C193 C192 1_555 1_555
C194 Cl1 1_555 1_555
Cl2 C194 1_555 1_555
C7 C8 1_555 1_555
C11 C12 1_555 1_555
C13 C18 1_555 1_555
C17 C18 1_555 1_555
C47 C48 1_555 1_555
C51 C52 1_555 1_555
C53 C58 1_555 1_555
C57 C58 1_555 1_555
C83 C84 1_555 1_555
C87 C88 1_555 1_555
C89 C94 1_555 1_555
C93 C94 1_555 1_555
C144 C145 1_555 1_555
C148 C149 1_555 1_555
C150 C155 1_555 1_555
C154 C155 1_555 1_555

#END
