
#######################################################################
#
#                 Cambridge Crystallographic Data Centre
#                                CCDC 
#
#######################################################################
#
# If this CIF has been generated from an entry in the Cambridge 
# Structural Database, then it will include bibliographic, chemical, 
# crystal, experimental, refinement or atomic coordinate data resulting 
# from the CCDC's data processing and validation procedures.
#
#######################################################################

data_DOMZUC01
_chemical_formula_moiety         'C12 H11 Br1 O3'
_chemical_name_systematic        
3-Bromo-5-methoxy-4-(2-methylphenyl)furan-2(5H)-one
_symmetry_cell_setting           monoclinic
_symmetry_space_group_name_H-M   'P 21/c'
_symmetry_Int_Tables_number      14
_space_group_name_Hall           '-P 2ybc'
loop_
_symmetry_equiv_pos_site_id
_symmetry_equiv_pos_as_xyz
1 x,y,z
2 -x,1/2+y,1/2-z
3 -x,-y,-z
4 x,1/2-y,1/2+z
_cell_length_a                   7.631(3)
_cell_length_b                   22.640(9)
_cell_length_c                   7.631(3)
_cell_angle_alpha                90
_cell_angle_beta                 118.07
_cell_angle_gamma                90
_cell_volume                     1163.3
_exptl_crystal_colour            white
_exptl_crystal_description       block
_cell_formula_units_Z            4
loop_
_atom_site_label
_atom_site_type_symbol
_atom_site_fract_x
_atom_site_fract_y
_atom_site_fract_z
Br1 Br 1.13194(7) 0.13253(2) 0.94852(7)
O1 O 0.3931(5) 0.14463(11) 0.5696(4)
O2 O 0.6101(5) 0.21749(11) 0.7663(5)
C1 C 0.7495(6) 0.04031(19) 0.5210(6)
C2 C 0.7192(6) 0.10046(18) 0.4858(6)
C3 C 0.8712(6) 0.15777(16) 0.8102(6)
C4 C 0.6763(6) 0.12347(19) 0.2972(7)
H1 H 0.6499 0.1635 0.2715
C5 C 0.7450(6) 0.0049(2) 0.3722(7)
H2 H 0.7663 -0.0355 0.3943
C6 C 0.6733(7) 0.0872(2) 0.1529(7)
H3 H 0.6471 0.1024 0.0297
C7 C 0.7278(6) 0.14245(17) 0.6372(6)
C8 C 0.7992(8) 0.20546(19) 0.8982(7)
C9 C 0.2077(7) 0.1764(2) 0.4959(8)
H4 H 0.2049 0.1981 0.6027
H5 H 0.0992 0.1489 0.4424
H6 H 0.1958 0.2034 0.3938
C10 C 0.7097(6) 0.0278(2) 0.1918(8)
H7 H 0.7104 0.0030 0.0951
O3 O 0.8879(5) 0.23059(13) 1.0530(5)
C11 C 0.7769(7) 0.01250(18) 0.7120(7)
H8 H 0.9126 0.0168 0.8121
H9 H 0.7438 -0.0287 0.6904
H10 H 0.6916 0.0317 0.7551
C12 C 0.5477(7) 0.18014(17) 0.5929(7)
H11 H 0.5110 0.2041 0.4737
loop_
_geom_bond_atom_site_label_1
_geom_bond_atom_site_label_2
_geom_bond_site_symmetry_1
_geom_bond_site_symmetry_2
Br1 C3 1_555 1_555
O1 C9 1_555 1_555
O2 C8 1_555 1_555
C1 C2 1_555 1_555
C2 C4 1_555 1_555
C3 C7 1_555 1_555
C4 H1 1_555 1_555
C5 C1 1_555 1_555
H2 C5 1_555 1_555
C6 C4 1_555 1_555
H3 C6 1_555 1_555
C7 C2 1_555 1_555
C8 C3 1_555 1_555
C9 H4 1_555 1_555
H5 C9 1_555 1_555
H6 C9 1_555 1_555
C10 C5 1_555 1_555
H7 C10 1_555 1_555
O3 C8 1_555 1_555
C11 C1 1_555 1_555
H8 C11 1_555 1_555
H9 C11 1_555 1_555
H10 C11 1_555 1_555
C12 O1 1_555 1_555
H11 C12 1_555 1_555
O2 C12 1_555 1_555
C6 C10 1_555 1_555
C7 C12 1_555 1_555

#END
