
#######################################################################
#
#                 Cambridge Crystallographic Data Centre
#                                CCDC 
#
#######################################################################
#
# If this CIF has been generated from an entry in the Cambridge 
# Structural Database, then it will include bibliographic, chemical, 
# crystal, experimental, refinement or atomic coordinate data resulting 
# from the CCDC's data processing and validation procedures.
#
#######################################################################

data_DONBUF
_chemical_formula_moiety         'C20 H7 F5 S3'
_chemical_name_systematic        
2-(pentafluorophenyl)-6-phenylbisthieno[3,2-b:2',3'-d]thiophene
_symmetry_cell_setting           monoclinic
_symmetry_space_group_name_H-M   'P 21/c'
_symmetry_Int_Tables_number      14
_space_group_name_Hall           '-P 2ybc'
loop_
_symmetry_equiv_pos_site_id
_symmetry_equiv_pos_as_xyz
1 x,y,z
2 -x,1/2+y,1/2-z
3 -x,-y,-z
4 x,1/2-y,1/2+z
_cell_length_a                   5.8734(2)
_cell_length_b                   36.1226(12)
_cell_length_c                   7.4967(2)
_cell_angle_alpha                90
_cell_angle_beta                 91.667(2)
_cell_angle_gamma                90
_cell_volume                     1589.85
_exptl_crystal_colour            yellow
_exptl_crystal_description       thin
_cell_formula_units_Z            4
loop_
_atom_site_label
_atom_site_type_symbol
_atom_site_fract_x
_atom_site_fract_y
_atom_site_fract_z
S1 S 0.19240(17) 0.80837(3) 0.79638(14)
S2 S 0.77334(17) 0.75424(3) 0.99990(14)
S3 S 0.19663(17) 0.69917(3) 0.79654(14)
F1 F -0.0149(4) 0.63576(7) 0.6990(4)
F2 F -0.1020(4) 0.56406(7) 0.6682(4)
F3 F 0.2046(5) 0.51280(7) 0.7894(4)
F4 F 0.6068(4) 0.53593(7) 0.9459(4)
F5 F 0.6969(4) 0.60692(7) 0.9836(4)
C1 C 0.3352(7) 0.88187(12) 0.8404(5)
C2 C 0.1247(7) 0.89412(12) 0.7697(6)
C3 C 0.0776(8) 0.93164(13) 0.7533(6)
C4 C 0.2375(8) 0.95805(12) 0.8061(6)
C5 C 0.4480(8) 0.94615(13) 0.8776(6)
C6 C 0.4956(7) 0.90885(12) 0.8950(6)
C7 C 0.3891(7) 0.84242(12) 0.8619(5)
C8 C 0.5877(7) 0.82714(12) 0.9313(6)
C9 C 0.5799(7) 0.78829(12) 0.9312(5)
C10 C 0.3768(7) 0.77351(11) 0.8616(5)
C11 C 0.3775(7) 0.73430(11) 0.8640(6)
C12 C 0.5813(7) 0.72004(12) 0.9346(5)
C13 C 0.5926(7) 0.68106(12) 0.9348(5)
C14 C 0.3961(7) 0.66527(11) 0.8627(5)
C15 C 0.3463(7) 0.62585(12) 0.8428(5)
C16 C 0.1451(7) 0.61188(12) 0.7631(6)
C17 C 0.0965(7) 0.57482(12) 0.7457(6)
C18 C 0.2504(7) 0.54870(12) 0.8073(6)
C19 C 0.4533(7) 0.56066(12) 0.8869(6)
C20 C 0.4967(7) 0.59779(12) 0.9026(5)
H1 H 0.022(8) 0.8756(13) 0.726(6)
H2 H -0.052(8) 0.9376(12) 0.704(6)
H3 H 0.221(8) 0.9851(14) 0.813(6)
H4 H 0.584(12) 0.9653(19) 0.930(9)
H5 H 0.628(10) 0.9021(15) 0.948(8)
H6 H 0.704(9) 0.8420(14) 0.979(7)
H7 H 0.720(9) 0.6670(15) 0.984(7)
loop_
_geom_bond_atom_site_label_1
_geom_bond_atom_site_label_2
_geom_bond_site_symmetry_1
_geom_bond_site_symmetry_2
S1 C7 1_555 1_555
S2 C9 1_555 1_555
S3 C11 1_555 1_555
F1 C16 1_555 1_555
F2 C17 1_555 1_555
F3 C18 1_555 1_555
F4 C19 1_555 1_555
F5 C20 1_555 1_555
C1 C2 1_555 1_555
C2 C3 1_555 1_555
C3 C4 1_555 1_555
C4 C5 1_555 1_555
C5 C6 1_555 1_555
C6 C1 1_555 1_555
C7 C1 1_555 1_555
C8 C7 1_555 1_555
C9 C8 1_555 1_555
C10 S1 1_555 1_555
C11 C10 1_555 1_555
C12 S2 1_555 1_555
C13 C12 1_555 1_555
C14 S3 1_555 1_555
C15 C14 1_555 1_555
C16 C15 1_555 1_555
C17 C16 1_555 1_555
C18 C17 1_555 1_555
C19 C18 1_555 1_555
C20 C15 1_555 1_555
H1 C2 1_555 1_555
H2 C3 1_555 1_555
H3 C4 1_555 1_555
H4 C5 1_555 1_555
H5 C6 1_555 1_555
H6 C8 1_555 1_555
H7 C13 1_555 1_555
C9 C10 1_555 1_555
C11 C12 1_555 1_555
C13 C14 1_555 1_555
C19 C20 1_555 1_555

#END
