
#######################################################################
#
#                 Cambridge Crystallographic Data Centre
#                                CCDC 
#
#######################################################################
#
# If this CIF has been generated from an entry in the Cambridge 
# Structural Database, then it will include bibliographic, chemical, 
# crystal, experimental, refinement or atomic coordinate data resulting 
# from the CCDC's data processing and validation procedures.
#
#######################################################################

data_DONDUG
_chemical_formula_moiety         'C20 H13 N3 O1,C1 H2 Cl2'
_chemical_name_systematic        
'2-(5-Methylbenzoxazol-2-yl)-1,10-phenanthroline dichloromethane solvate'
_symmetry_cell_setting           orthorhombic
_symmetry_space_group_name_H-M   'P b c a'
_symmetry_Int_Tables_number      61
_space_group_name_Hall           '-P 2ac 2ab'
loop_
_symmetry_equiv_pos_site_id
_symmetry_equiv_pos_as_xyz
1 x,y,z
2 1/2-x,-y,1/2+z
3 -x,1/2+y,1/2-z
4 1/2+x,1/2-y,-z
5 -x,-y,-z
6 1/2+x,y,1/2-z
7 x,1/2-y,1/2+z
8 1/2-x,1/2+y,z
_cell_length_a                   7.1956(14)
_cell_length_b                   14.399(3)
_cell_length_c                   35.157(7)
_cell_angle_alpha                90
_cell_angle_beta                 90
_cell_angle_gamma                90
_cell_volume                     3642.6
_exptl_crystal_colour            brown
_exptl_crystal_description       block
_chemical_melting_point          198-200deg.C
_cell_formula_units_Z            8
_exptl_crystal_recrystallization_method dichloromethane/hexane
loop_
_atom_site_label
_atom_site_type_symbol
_atom_site_fract_x
_atom_site_fract_y
_atom_site_fract_z
N1 N -0.3936(2) 0.91539(11) 0.06805(5)
O1 O -0.2558(2) 1.02974(9) 0.03435(4)
N2 N -0.3485(2) 1.03003(11) 0.13496(5)
N3 N -0.4312(2) 0.96436(11) 0.20644(5)
C1 C -0.2865(3) 0.95689(13) 0.00981(6)
C2 C -0.3242(3) 0.99816(14) 0.06863(6)
C3 C -0.2826(3) 1.20540(14) 0.22916(6)
H1 H -0.2654 1.2446 0.2506
C4 C -0.3715(3) 1.05305(13) 0.20285(5)
C5 C -0.4165(3) 0.80311(13) 0.01222(6)
H2 H -0.4763 0.7544 0.0258
C6 C -0.3065(3) 1.06313(13) 0.10070(6)
C7 C -0.4660(3) 0.93382(14) 0.24116(6)
H3 H -0.5100 0.8719 0.2437
C8 C -0.3715(3) 0.79296(14) -0.02595(6)
C9 C -0.3821(3) 1.07550(15) 0.27093(6)
H4 H -0.3647 1.1128 0.2929
C10 C -0.3719(3) 0.88656(13) 0.03024(5)
C11 C -0.2676(3) 1.18117(13) 0.16105(6)
C12 C -0.3290(3) 1.08808(13) 0.16497(6)
C13 C -0.2288(3) 1.21324(14) 0.12439(7)
H5 H -0.1896 1.2756 0.1206
C14 C -0.4429(3) 0.98599(15) 0.27447(6)
H6 H -0.4687 0.9600 0.2987
C15 C -0.3455(3) 1.11224(14) 0.23467(6)
C16 C -0.2472(3) 1.23867(15) 0.19400(7)
H7 H -0.2081 1.3013 0.1911
C17 C -0.2412(3) 0.94982(15) -0.02837(6)
H8 H -0.1830 0.9991 -0.0418
C18 C -0.4061(3) 0.70266(15) -0.04659(7)
H9 H -0.4852 0.6626 -0.0309
H10 H -0.2874 0.6715 -0.0514
H11 H -0.4683 0.7153 -0.0708
C19 C -0.2471(3) 1.15467(14) 0.09393(6)
H12 H -0.2205 1.1754 0.0689
C20 C -0.2858(3) 0.86649(15) -0.04569(6)
H13 H -0.2577 0.8586 -0.0719
Cl1 Cl -0.78282(12) 0.78276(5) 0.15706(2)
Cl2 Cl -0.87405(13) 0.96265(6) 0.124889(18)
C21 C -0.6952(3) 0.88557(16) 0.13766(6)
H14 H -0.6200 0.8707 0.1149
H15 H -0.6128 0.9160 0.1565
loop_
_geom_bond_atom_site_label_1
_geom_bond_atom_site_label_2
_geom_bond_site_symmetry_1
_geom_bond_site_symmetry_2
N1 C2 1_555 1_555
O1 C1 1_555 1_555
N2 C6 1_555 1_555
N3 C4 1_555 1_555
C1 C10 1_555 1_555
C2 O1 1_555 1_555
C3 H1 1_555 1_555
C4 C12 1_555 1_555
C5 H2 1_555 1_555
C6 C2 1_555 1_555
C7 N3 1_555 1_555
H3 C7 1_555 1_555
C8 C5 1_555 1_555
C9 H4 1_555 1_555
C10 N1 1_555 1_555
C11 C12 1_555 1_555
C12 N2 1_555 1_555
C13 C11 1_555 1_555
H5 C13 1_555 1_555
C14 C7 1_555 1_555
H6 C14 1_555 1_555
C15 C3 1_555 1_555
C16 C3 1_555 1_555
H7 C16 1_555 1_555
C17 C1 1_555 1_555
H8 C17 1_555 1_555
C18 C8 1_555 1_555
H9 C18 1_555 1_555
H10 C18 1_555 1_555
H11 C18 1_555 1_555
C19 C6 1_555 1_555
H12 C19 1_555 1_555
C20 C8 1_555 1_555
H13 C20 1_555 1_555
Cl1 C21 1_555 1_555
Cl2 C21 1_555 1_555
C21 H14 1_555 1_555
H15 C21 1_555 1_555
C4 C15 1_555 1_555
C5 C10 1_555 1_555
C9 C14 1_555 1_555
C9 C15 1_555 1_555
C11 C16 1_555 1_555
C13 C19 1_555 1_555
C17 C20 1_555 1_555

#END
