
#######################################################################
#
#                 Cambridge Crystallographic Data Centre
#                                CCDC 
#
#######################################################################
#
# If this CIF has been generated from an entry in the Cambridge 
# Structural Database, then it will include bibliographic, chemical, 
# crystal, experimental, refinement or atomic coordinate data resulting 
# from the CCDC's data processing and validation procedures.
#
#######################################################################

data_DONFOB
_chemical_formula_moiety         'C5 H12 N1 O6 S4 1-,Na1 1+,H2 O1'
_chemical_name_systematic        
'Sodium N,N-dimethylammonium-2-propane-1,3-dithiosulfonate monohydrate'
_chemical_properties_biological  'insecticidal agent'
_symmetry_cell_setting           monoclinic
_symmetry_space_group_name_H-M   'P 21/n'
_symmetry_Int_Tables_number      14
_space_group_name_Hall           '-P 2yn'
loop_
_symmetry_equiv_pos_site_id
_symmetry_equiv_pos_as_xyz
1 x,y,z
2 1/2-x,1/2+y,1/2-z
3 -x,-y,-z
4 1/2+x,1/2-y,1/2+z
_cell_length_a                   8.0972(9)
_cell_length_b                   16.262(4)
_cell_length_c                   10.370(3)
_cell_angle_alpha                90
_cell_angle_beta                 94.26(2)
_cell_angle_gamma                90
_cell_volume                     1361.71
_cell_formula_units_Z            4
loop_
_atom_site_label
_atom_site_type_symbol
_atom_site_fract_x
_atom_site_fract_y
_atom_site_fract_z
S1 S 0.77401(9) 0.56027(4) 0.19975(7)
S2 S 0.26900(9) 0.35224(5) 0.17876(7)
S3 S 0.88487(9) 0.51657(5) 0.37397(7)
S4 S 0.34737(10) 0.37145(5) 0.37417(7)
N1 N 0.8268(3) 0.3335(2) 0.2861(2)
O1 O 0.7721(3) 0.4920(1) 0.1089(2)
O2 O 0.6106(3) 0.5867(2) 0.2248(2)
O3 O 0.8875(3) 0.6244(1) 0.1691(2)
O4 O 0.3954(3) 0.3855(1) 0.1024(2)
O5 O 0.2468(3) 0.2649(1) 0.1639(2)
O6 O 0.1153(3) 0.3982(2) 0.1672(2)
C1 C 0.7889(5) 0.2836(2) 0.1666(3)
C2 C 0.9141(4) 0.2844(2) 0.3918(3)
C3 C 0.6767(3) 0.3794(2) 0.3270(3)
C4 C 0.5487(4) 0.3219(2) 0.3792(3)
C5 C 0.7252(4) 0.4473(2) 0.4226(3)
H1 H 0.899(5) 0.267(2) 0.137(4)
H2 H 0.723(4) 0.240(2) 0.190(3)
H3 H 0.742(4) 0.318(2) 0.105(3)
H4 H 0.855(4) 0.249(2) 0.418(3)
H5 H 1.019(5) 0.261(2) 0.355(3)
H6 H 0.947(5) 0.317(2) 0.466(4)
H7 H 0.633(4) 0.401(2) 0.247(3)
H8 H 0.579(4) 0.314(2) 0.470(3)
H9 H 0.540(4) 0.272(2) 0.328(3)
H10 H 0.628(4) 0.478(2) 0.439(3)
H11 H 0.773(4) 0.427(2) 0.509(3)
H12 H 0.888(4) 0.373(2) 0.264(3)
O7 O 0.2533(5) 0.6193(3) 0.1560(5)
H13 H 0.246(8) 0.567(4) 0.223(6)
H14 H 0.307(8) 0.598(4) 0.155(7)
Na1 Na 0.4345(3) 0.0350(2) 0.4456(3)
Na2 Na 0.0636(3) 0.0324(2) 0.4498(2)
loop_
_geom_bond_atom_site_label_1
_geom_bond_atom_site_label_2
_geom_bond_site_symmetry_1
_geom_bond_site_symmetry_2
S1 S3 1_555 1_555
S2 S4 1_555 1_555
S3 C5 1_555 1_555
S4 C4 1_555 1_555
N1 C1 1_555 1_555
O1 S1 1_555 1_555
O2 S1 1_555 1_555
O3 S1 1_555 1_555
O4 S2 1_555 1_555
O5 S2 1_555 1_555
O6 S2 1_555 1_555
O7 H13 1_555 1_555
C1 H1 1_555 1_555
C2 N1 1_555 1_555
C3 N1 1_555 1_555
C4 C3 1_555 1_555
C5 C3 1_555 1_555
H2 C1 1_555 1_555
H3 C1 1_555 1_555
H4 C2 1_555 1_555
H5 C2 1_555 1_555
H6 C2 1_555 1_555
H7 C3 1_555 1_555
H8 C4 1_555 1_555
H9 C4 1_555 1_555
H10 C5 1_555 1_555
H11 C5 1_555 1_555
H12 N1 1_555 1_555
H14 O7 1_555 1_555

#END
