
#######################################################################
#
#                 Cambridge Crystallographic Data Centre
#                                CCDC 
#
#######################################################################
#
# If this CIF has been generated from an entry in the Cambridge 
# Structural Database, then it will include bibliographic, chemical, 
# crystal, experimental, refinement or atomic coordinate data resulting 
# from the CCDC's data processing and validation procedures.
#
#######################################################################

data_DONFIV
_chemical_name_common            'BODIPY dye'
_chemical_formula_moiety         'C27 H16 B1 I1 N2 O2'
_chemical_name_systematic        
8-(4-Iodophenyl)-3,5-bis(2-oxyphenyl)-4-bora-3a,4a-diaza-s-indecene
_symmetry_cell_setting           triclinic
_symmetry_space_group_name_H-M   'P -1'
_symmetry_Int_Tables_number      2
_space_group_name_Hall           '-P 1'
loop_
_symmetry_equiv_pos_site_id
_symmetry_equiv_pos_as_xyz
1 x,y,z
2 -x,-y,-z
_cell_length_a                   8.1736(11)
_cell_length_b                   9.2522(9)
_cell_length_c                   15.222(2)
_cell_angle_alpha                97.112(10)
_cell_angle_beta                 100.579(11)
_cell_angle_gamma                104.200(10)
_cell_volume                     1079.65
_exptl_crystal_colour            'dark green'
_chemical_melting_point          '295-296 deg.C'
_cell_formula_units_Z            2
loop_
_atom_site_label
_atom_site_type_symbol
_atom_site_fract_x
_atom_site_fract_y
_atom_site_fract_z
I1 I 1.33410(4) 0.81642(4) 0.619238(19)
O1 O 0.2117(3) 0.3300(3) 0.81542(15)
O2 O 0.3540(3) 0.1373(3) 0.83374(16)
N1 N 0.3806(4) 0.2877(3) 0.70667(19)
N2 N 0.5378(4) 0.3919(3) 0.86156(19)
C1 C 0.0683(4) 0.2412(4) 0.7543(2)
C2 C -0.0900(5) 0.2083(4) 0.7806(2)
H1 H -0.0954 0.2462 0.8406
C3 C -0.2391(5) 0.1208(4) 0.7195(3)
H2 H -0.3459 0.0978 0.7381
C4 C -0.2335(5) 0.0663(4) 0.6309(3)
H3 H -0.3360 0.0063 0.5892
C5 C -0.0775(5) 0.1002(4) 0.6039(3)
H4 H -0.0742 0.0646 0.5431
C6 C 0.0740(4) 0.1856(4) 0.6644(2)
C7 C 0.2390(4) 0.2358(4) 0.6384(2)
C8 C 0.2848(5) 0.2719(4) 0.5566(2)
H5 H 0.2119 0.2442 0.4975
C9 C 0.4564(5) 0.3555(4) 0.5801(2)
H6 H 0.5232 0.3960 0.5394
C10 C 0.5159(4) 0.3707(4) 0.6750(2)
C11 C 0.6615(4) 0.4703(4) 0.7370(2)
C12 C 0.6701(4) 0.4813(4) 0.8303(2)
C13 C 0.8094(5) 0.5450(4) 0.9072(3)
H7 H 0.9162 0.6151 0.9077
C14 C 0.7627(5) 0.4877(5) 0.9802(3)
H8 H 0.8306 0.5112 1.0405
C15 C 0.5946(5) 0.3869(4) 0.9497(2)
C16 C 0.4926(5) 0.2702(4) 0.9873(2)
C17 C 0.5164(6) 0.2682(5) 1.0810(3)
H9 H 0.5986 0.3497 1.1230
C18 C 0.4219(6) 0.1498(5) 1.1121(3)
H10 H 0.4368 0.1505 1.1755
C19 C 0.3032(7) 0.0275(5) 1.0509(3)
H11 H 0.2380 -0.0544 1.0731
C20 C 0.2798(6) 0.0247(5) 0.9579(3)
H12 H 0.1999 -0.0591 0.9167
C21 C 0.3739(5) 0.1453(4) 0.9255(2)
C22 C 0.8099(5) 0.5569(4) 0.7043(2)
C23 C 0.8819(5) 0.4815(4) 0.6436(2)
H13 H 0.8280 0.3777 0.6184
C24 C 1.0310(5) 0.5557(4) 0.6194(3)
H14 H 1.0812 0.5029 0.5790
C25 C 1.1058(5) 0.7071(5) 0.6546(3)
C26 C 1.0336(5) 0.7880(5) 0.7128(3)
H15 H 1.0842 0.8932 0.7347
C27 C 0.8860(5) 0.7115(4) 0.7381(3)
H16 H 0.8362 0.7644 0.7787
B1 B 0.3691(5) 0.2850(4) 0.8053(3)
loop_
_geom_bond_atom_site_label_1
_geom_bond_atom_site_label_2
_geom_bond_site_symmetry_1
_geom_bond_site_symmetry_2
I1 C25 1_555 1_555
O1 C1 1_555 1_555
O2 C21 1_555 1_555
N1 C7 1_555 1_555
N2 C12 1_555 1_555
C1 C2 1_555 1_555
C2 H1 1_555 1_555
C3 C2 1_555 1_555
H2 C3 1_555 1_555
C4 C3 1_555 1_555
H3 C4 1_555 1_555
C5 C4 1_555 1_555
H4 C5 1_555 1_555
C6 C1 1_555 1_555
C7 C6 1_555 1_555
C8 C7 1_555 1_555
H5 C8 1_555 1_555
C9 C8 1_555 1_555
H6 C9 1_555 1_555
C10 N1 1_555 1_555
C11 C10 1_555 1_555
C12 C11 1_555 1_555
C13 C12 1_555 1_555
H7 C13 1_555 1_555
C14 C13 1_555 1_555
H8 C14 1_555 1_555
C15 N2 1_555 1_555
C16 C15 1_555 1_555
C17 C16 1_555 1_555
H9 C17 1_555 1_555
C18 C17 1_555 1_555
H10 C18 1_555 1_555
C19 C18 1_555 1_555
H11 C19 1_555 1_555
C20 C19 1_555 1_555
H12 C20 1_555 1_555
C21 C16 1_555 1_555
C22 C11 1_555 1_555
C23 C22 1_555 1_555
H13 C23 1_555 1_555
C24 C23 1_555 1_555
H14 C24 1_555 1_555
C25 C24 1_555 1_555
C26 C25 1_555 1_555
H15 C26 1_555 1_555
C27 C22 1_555 1_555
H16 C27 1_555 1_555
B1 O1 1_555 1_555
O2 B1 1_555 1_555
N1 B1 1_555 1_555
N2 B1 1_555 1_555
C5 C6 1_555 1_555
C9 C10 1_555 1_555
C14 C15 1_555 1_555
C20 C21 1_555 1_555
C26 C27 1_555 1_555

#END
