
#######################################################################
#
#                 Cambridge Crystallographic Data Centre
#                                CCDC 
#
#######################################################################
#
# If this CIF has been generated from an entry in the Cambridge 
# Structural Database, then it will include bibliographic, chemical, 
# crystal, experimental, refinement or atomic coordinate data resulting 
# from the CCDC's data processing and validation procedures.
#
#######################################################################

data_DONHAP10
_chemical_compound_source        'Rabdosia macrocalyx (Dunn) Hava'
_chemical_name_common            'Rabdocalin A'
_chemical_formula_moiety         'C24 H30 O9'
_chemical_name_systematic        Macrocalin-A
_chemical_properties_biological  'anticancer activity'
_symmetry_cell_setting           orthorhombic
_symmetry_space_group_name_H-M   'P 21 21 21'
_symmetry_Int_Tables_number      19
_space_group_name_Hall           'P 2ac 2ab'
loop_
_symmetry_equiv_pos_site_id
_symmetry_equiv_pos_as_xyz
1 x,y,z
2 1/2+x,1/2-y,-z
3 -x,1/2+y,1/2-z
4 1/2-x,-y,1/2+z
_cell_length_a                   8.410(7)
_cell_length_b                   15.919(4)
_cell_length_c                   16.996(3)
_cell_angle_alpha                90
_cell_angle_beta                 90
_cell_angle_gamma                90
_cell_volume                     2275.4
_exptl_crystal_colour            colorless
_cell_formula_units_Z            4
loop_
_atom_site_label
_atom_site_type_symbol
_atom_site_fract_x
_atom_site_fract_y
_atom_site_fract_z
O1 O -0.0673(3) 0.9782(2) 0.2856(1)
O2 O 0.0936(3) 0.9753(2) 0.3862(1)
O3 O 0.1825(4) 1.0668(2) 0.0879(2)
O4 O 0.4092(3) 0.9783(2) 0.3107(2)
O5 O 0.2779(3) 0.9444(2) 0.0211(2)
O6 O 0.0100(3) 0.7715(2) 0.1566(1)
O7 O 0.0083(4) 0.7228(2) 0.0332(2)
O8 O 0.1721(3) 0.7971(2) 0.3904(1)
O9 O -0.0932(3) 0.7964(2) 0.3971(1)
C1 C -0.1035(4) 0.9463(2) 0.2073(2)
C2 C -0.2510(4) 0.9906(3) 0.1784(2)
C3 C -0.2835(4) 0.9605(3) 0.0951(2)
C4 C -0.1537(5) 0.9868(3) 0.0367(2)
C5 C 0.0100(4) 0.9532(2) 0.0658(2)
C6 C 0.1521(5) 1.0019(3) 0.0330(2)
C7 C 0.0651(4) 0.9516(2) 0.3207(2)
C8 C 0.1757(4) 0.8922(2) 0.2774(2)
C9 C 0.1711(4) 0.8950(2) 0.1836(2)
C10 C 0.0437(4) 0.9588(2) 0.1557(2)
C11 C 0.1687(4) 0.8075(2) 0.1469(2)
C12 C 0.2908(5) 0.7483(3) 0.1839(2)
C13 C 0.3142(4) 0.7622(3) 0.2731(2)
C14 C 0.1608(4) 0.8004(2) 0.3058(2)
C15 C 0.3526(4) 0.9104(3) 0.2976(2)
C16 C 0.4343(4) 0.8279(3) 0.2928(2)
C17 C 0.5893(5) 0.8194(4) 0.3078(2)
C18 C -0.1594(6) 1.0806(3) 0.0238(3)
C19 C -0.1865(5) 0.9441(3) -0.0430(2)
C20 C 0.1120(5) 1.0480(2) 0.1624(2)
C21 C -0.0556(5) 0.7300(3) 0.0950(2)
C22 C -0.2169(6) 0.6967(3) 0.1162(3)
C23 C 0.0313(4) 0.7952(2) 0.4301(2)
C24 C 0.0572(4) 0.7955(3) 0.5164(2)
loop_
_geom_bond_atom_site_label_1
_geom_bond_atom_site_label_2
_geom_bond_site_symmetry_1
_geom_bond_site_symmetry_2
O1 C1 1_555 1_555
O2 C7 1_555 1_555
O3 C6 1_555 1_555
O4 C15 1_555 1_555
O5 C6 1_555 1_555
O6 C11 1_555 1_555
O7 C21 1_555 1_555
O8 C14 1_555 1_555
O9 C23 1_555 1_555
C1 C2 1_555 1_555
C2 C3 1_555 1_555
C3 C4 1_555 1_555
C4 C5 1_555 1_555
C5 C6 1_555 1_555
C7 O1 1_555 1_555
C8 C7 1_555 1_555
C9 C8 1_555 1_555
C10 C1 1_555 1_555
C11 C9 1_555 1_555
C12 C11 1_555 1_555
C13 C12 1_555 1_555
C14 C8 1_555 1_555
C15 C8 1_555 1_555
C16 C13 1_555 1_555
C17 C16 1_555 1_555
C18 C4 1_555 1_555
C19 C4 1_555 1_555
C20 O3 1_555 1_555
C21 O6 1_555 1_555
C22 C21 1_555 1_555
C23 O8 1_555 1_555
C24 C23 1_555 1_555
C5 C10 1_555 1_555
C9 C10 1_555 1_555
C10 C20 1_555 1_555
C13 C14 1_555 1_555
C15 C16 1_555 1_555

#END
