
#######################################################################
#
#                 Cambridge Crystallographic Data Centre
#                                CCDC 
#
#######################################################################
#
# If this CIF has been generated from an entry in the Cambridge 
# Structural Database, then it will include bibliographic, chemical, 
# crystal, experimental, refinement or atomic coordinate data resulting 
# from the CCDC's data processing and validation procedures.
#
#######################################################################

data_DONHET
_chemical_compound_source        'Rabdosia Macrophylla'
_chemical_formula_moiety         'C24 H36 O9'
_chemical_name_systematic        Rabdophyllin-H
_chemical_properties_biological  'anticancer agent'
_symmetry_cell_setting           monoclinic
_symmetry_space_group_name_H-M   'C 2'
_symmetry_Int_Tables_number      5
_space_group_name_Hall           'C 2y'
loop_
_symmetry_equiv_pos_site_id
_symmetry_equiv_pos_as_xyz
1 x,y,z
2 1/2+x,1/2+y,z
3 -x,y,-z
4 1/2-x,1/2+y,-z
_cell_length_a                   29.204(4)
_cell_length_b                   8.082(2)
_cell_length_c                   9.675(1)
_cell_angle_alpha                90
_cell_angle_beta                 93.41(1)
_cell_angle_gamma                90
_cell_volume                     2279.52
_exptl_crystal_colour            colorless
_cell_formula_units_Z            4
loop_
_atom_site_label
_atom_site_type_symbol
_atom_site_fract_x
_atom_site_fract_y
_atom_site_fract_z
O1 O 0.4194(1) -0.0370(4) 0.1687(3)
O2 O 0.3920(1) -0.0228(4) 0.3826(3)
O3 O 0.3039(1) 0.0614(4) 0.2635(3)
O4 O 0.3268(1) 0.3907(4) 0.3036(4)
O5 O 0.3799(1) 0.6372(4) 0.3168(3)
O6 O 0.4562(1) 0.1978(4) 0.4423(3)
O7 O 0.2877(2) -0.1929(6) 0.3436(5)
O8 O 0.4384(7) 0.6715(4) 0.5524(4)
O9 O 0.4299(1) 0.6598(6) 0.7769(4)
C1 C 0.3798(2) 0.2011(8) -0.1547(5)
C2 C 0.3587(2) 0.0712(8) -0.2560(5)
C3 C 0.3096(2) 0.0269(8) -0.2157(5)
C4 C 0.3106(2) -0.0524(7) -0.0711(5)
C5 C 0.3345(1) 0.0715(6) 0.0350(5)
C6 C 0.3400(1) 0.0000 0.1821(5)
C7 C 0.3870(1) 0.0463(5) 0.2489(4)
C8 C 0.3984(1) 0.2328(5) 0.2497(4)
C9 C 0.3918(2) 0.2957(6) 0.0955(5)
C10 C 0.3817(1) 0.1432(6) -0.0031(4)
C11 C 0.4329(2) 0.4003(7) 0.0499(5)
C12 C 0.4518(2) 0.5225(7) 0.1634(5)
C13 C 0.4487(1) 0.4570(6) 0.3130(5)
C14 C 0.4485(1) 0.2671(6) 0.3041(5)
C15 C 0.3715(1) 0.3410(5) 0.3523(4)
C16 C 0.4023(1) 0.4971(5) 0.3783(5)
C17 C 0.4087(2) 0.5273(6) 0.5338(5)
C18 C 0.2598(2) -0.0731(8) -0.0318(6)
C19 C 0.3320(2) -0.2262(7) -0.0741(6)
C20 C 0.4203(1) 0.0183(7) 0.0263(5)
C21 C 0.2800(2) -0.0446(8) 0.3397(6)
C22 C 0.2442(2) 0.0406(10) 0.4189(7)
C23 C 0.4468(1) 0.7230(6) 0.6810(5)
C24 C 0.4791(2) 0.8688(7) 0.6913(5)
loop_
_geom_bond_atom_site_label_1
_geom_bond_atom_site_label_2
_geom_bond_site_symmetry_1
_geom_bond_site_symmetry_2
O1 C7 1_555 1_555
O2 C7 1_555 1_555
O3 C6 1_555 1_555
O4 C15 1_555 1_555
O5 C16 1_555 1_555
O6 C14 1_555 1_555
O7 C21 1_555 1_555
O8 C17 1_555 1_555
O9 C23 1_555 1_555
C1 C2 1_555 1_555
C2 C3 1_555 1_555
C3 C4 1_555 1_555
C4 C5 1_555 1_555
C5 C6 1_555 1_555
C6 C7 1_555 1_555
C7 C8 1_555 1_555
C8 C9 1_555 1_555
C9 C10 1_555 1_555
C10 C1 1_555 1_555
C11 C9 1_555 1_555
C12 C11 1_555 1_555
C13 C12 1_555 1_555
C14 C8 1_555 1_555
C15 C8 1_555 1_555
C16 C13 1_555 1_555
C17 C16 1_555 1_555
C18 C4 1_555 1_555
C19 C4 1_555 1_555
C20 O1 1_555 1_555
C21 O3 1_555 1_555
C22 C21 1_555 1_555
C23 O8 1_555 1_555
C24 C23 1_555 1_555
C5 C10 1_555 1_555
C10 C20 1_555 1_555
C13 C14 1_555 1_555
C15 C16 1_555 1_555

#END
