
#######################################################################
#
#                 Cambridge Crystallographic Data Centre
#                                CCDC 
#
#######################################################################
#
# If this CIF has been generated from an entry in the Cambridge 
# Structural Database, then it will include bibliographic, chemical, 
# crystal, experimental, refinement or atomic coordinate data resulting 
# from the CCDC's data processing and validation procedures.
#
#######################################################################

data_DONJEV
_chemical_formula_moiety         'C15 H7 N3 S1'
_chemical_name_systematic        2-(m-Cyanophenyl)-5-cyanobenzothiazole
_symmetry_cell_setting           monoclinic
_symmetry_space_group_name_H-M   'P 21/c'
_symmetry_Int_Tables_number      14
_space_group_name_Hall           '-P 2ybc'
loop_
_symmetry_equiv_pos_site_id
_symmetry_equiv_pos_as_xyz
1 x,y,z
2 -x,1/2+y,1/2-z
3 -x,-y,-z
4 x,1/2-y,1/2+z
_cell_length_a                   23.793(7)
_cell_length_b                   3.852(1)
_cell_length_c                   27.004(11)
_cell_angle_alpha                90
_cell_angle_beta                 98.40(3)
_cell_angle_gamma                90
_cell_volume                     2448.38
_exptl_crystal_colour            white
_cell_formula_units_Z            8
loop_
_atom_site_label
_atom_site_type_symbol
_atom_site_fract_x
_atom_site_fract_y
_atom_site_fract_z
S1 S 0.3098(11) 0.1823(5) 0.0413(1)
N1 N 0.4138(2) -0.0467(9) 0.0661(2)
N2 N 0.4563(3) 0.0906(8) 0.2885(2)
N3 N 0.2816(3) 0.1747(9) -0.1896(2)
C1 C 0.4322(3) 0.1030(9) 0.2495(2)
C2 C 0.4000(3) 0.1176(8) 0.1985(2)
C3 C 0.3430(3) 0.2425(9) 0.1935(2)
C4 C 0.4257(3) 0.0211(9) 0.1582(2)
C5 C 0.3108(3) 0.2769(9) 0.1451(2)
C6 C 0.3378(3) 0.1750(9) 0.1057(2)
C7 C 0.3932(3) 0.0423(8) 0.1107(2)
C8 C 0.3743(3) 0.0098(8) 0.0273(2)
C9 C 0.3838(3) -0.0574(8) -0.0239(2)
C10 C 0.4344(3) -0.2100(9) -0.0324(2)
C11 C 0.3430(3) 0.0368(8) -0.0642(2)
C12 C 0.4452(3) -0.2646(9) -0.0811(2)
C13 C 0.4053(3) -0.1750(9) -0.1218(2)
C14 C 0.3540(3) -0.0209(8) -0.1133(2)
C15 C 0.3131(3) 0.0936(9) -0.1563(2)
H1 H 0.320(3) 0.216(5) 0.226(2)
H2 H 0.463(4) -0.073(6) 0.160(3)
H3 H 0.480(3) -0.394(7) -0.085(2)
H4 H 0.300(3) 0.123(6) -0.060(2)
H8 H 0.262(3) 0.351(5) 0.141(2)
H9 H 0.464(3) -0.295(6) -0.005(2)
H10 H 0.413(3) -0.194(6) -0.157(2)
S2 S 0.1871(1) 0.7953(5) 0.1914(1)
N4 N 0.0868(2) 0.5162(9) 0.1765(2)
N5 N 0.0455(3) 0.2030(9) -0.0416(2)
N6 N 0.2184(3) 1.0179(11) 0.4243(2)
C16 C 0.0687(3) 0.3069(9) -0.0051(2)
C17 C 0.1009(3) 0.4379(9) 0.0420(2)
C18 C 0.1553(3) 0.5860(9) 0.0428(2)
C19 C 0.1853(3) 0.7085(9) 0.0873(2)
C20 C 0.0746(3) 0.4087(9) 0.0849(2)
C21 C 0.1064(3) 0.5304(9) 0.1298(2)
C22 C 0.1598(2) 0.6752(9) 0.1300(2)
C23 C 0.1248(3) 0.6469(9) 0.2118(2)
C24 C 0.1159(2) 0.6611(9) 0.2640(2)
C25 C 0.0636(3) 0.5407(9) 0.2765(2)
C26 C 0.0519(3) 0.5431(9) 0.3250(2)
C27 C 0.1562(3) 0.7903(9) 0.3017(2)
C28 C 0.0933(3) 0.6701(9) 0.3631(2)
C29 C 0.1446(3) 0.7955(9) 0.3510(2)
C30 C 0.1873(3) 0.9232(9) 0.3913(2)
H5 H 0.228(3) 0.828(6) 0.086(2)
H6 H 0.036(3) 0.432(7) 0.248(3)
H7 H 0.082(3) 0.650(6) 0.400(2)
H11 H 0.176(3) 0.606(7) 0.011(2)
H12 H 0.029(3) 0.274(7) 0.081(2)
H13 H 0.013(3) 0.447(6) 0.337(2)
H14 H 0.199(3) 0.899(7) 0.294(2)
loop_
_geom_bond_atom_site_label_1
_geom_bond_atom_site_label_2
_geom_bond_site_symmetry_1
_geom_bond_site_symmetry_2
S1 C6 1_555 1_555
S2 C22 1_555 1_555
N1 C7 1_555 1_555
N2 C1 1_555 1_555
N3 C15 1_555 1_555
N4 C21 1_555 1_555
N5 C16 1_555 1_555
N6 C30 1_555 1_555
C1 C2 1_555 1_555
C2 C3 1_555 1_555
C3 C5 1_555 1_555
C4 C2 1_555 1_555
C5 C6 1_555 1_555
C6 C7 1_555 1_555
C7 C4 1_555 1_555
C8 S1 1_555 1_555
C9 C8 1_555 1_555
C10 C9 1_555 1_555
C11 C9 1_555 1_555
C12 C10 1_555 1_555
C13 C12 1_555 1_555
C14 C11 1_555 1_555
C15 C14 1_555 1_555
C16 C17 1_555 1_555
C17 C18 1_555 1_555
C18 C19 1_555 1_555
C19 C22 1_555 1_555
C20 C17 1_555 1_555
C21 C20 1_555 1_555
C22 C21 1_555 1_555
C23 S2 1_555 1_555
C24 C23 1_555 1_555
C25 C24 1_555 1_555
C26 C25 1_555 1_555
C27 C24 1_555 1_555
C28 C26 1_555 1_555
C29 C27 1_555 1_555
C30 C29 1_555 1_555
H1 C3 1_555 1_555
H2 C4 1_555 1_555
H3 C12 1_555 1_555
H4 C11 1_555 1_555
H5 C19 1_555 1_555
H6 C25 1_555 1_555
H7 C28 1_555 1_555
H8 C5 1_555 1_555
H9 C10 1_555 1_555
H10 C13 1_555 1_555
H11 C18 1_555 1_555
H12 C20 1_555 1_555
H13 C26 1_555 1_555
H14 C27 1_555 1_555
N1 C8 1_555 1_555
N4 C23 1_555 1_555
C13 C14 1_555 1_555
C28 C29 1_555 1_555

#END
