
#######################################################################
#
#                 Cambridge Crystallographic Data Centre
#                                CCDC 
#
#######################################################################
#
# If this CIF has been generated from an entry in the Cambridge 
# Structural Database, then it will include bibliographic, chemical, 
# crystal, experimental, refinement or atomic coordinate data resulting 
# from the CCDC's data processing and validation procedures.
#
#######################################################################

data_DONKIA
_chemical_compound_source        'cedar Lycopodiales Rhoipteleacae'
_chemical_formula_moiety         'C16 H23 N1 O2'
_chemical_name_systematic        'Phlegmariurine A'
_chemical_properties_biological  drug
_symmetry_cell_setting           monoclinic
_symmetry_space_group_name_H-M   'P 21'
_symmetry_Int_Tables_number      4
_space_group_name_Hall           'P 2yb'
loop_
_symmetry_equiv_pos_site_id
_symmetry_equiv_pos_as_xyz
1 x,y,z
2 -x,1/2+y,-z
_cell_length_a                   15.410
_cell_length_b                   12.049
_cell_length_c                   7.907
_cell_angle_alpha                90
_cell_angle_beta                 100.7
_cell_angle_gamma                90
_cell_volume                     1442.61
_cell_formula_units_Z            4
loop_
_atom_site_label
_atom_site_type_symbol
_atom_site_fract_x
_atom_site_fract_y
_atom_site_fract_z
C1 C -0.0417(2) 0.2706(3) 0.2472(4)
C2 C -0.0215(2) 0.2204(3) 0.4295(4)
C3 C -0.0302(2) 0.0949(3) 0.4475(4)
C4 C 0.0548(2) 0.0264(3) 0.4400(4)
C5 C 0.1299(2) 0.0648(3) 0.5781(4)
C6 C 0.2079(2) 0.1019(3) 0.5005(4)
C7 C 0.1779(2) 0.0709(3) 0.3126(4)
C8 C 0.2399(2) 0.0885(3) 0.1885(4)
C9 C -0.0116(2) 0.1760(3) -0.0185(4)
C10 C -0.0339(2) 0.0573(3) 0.0222(4)
C11 C 0.0459(2) -0.0115(3) 0.1093(4)
C12 C 0.0960(2) 0.0312(2) 0.2792(4)
C13 C 0.1033(2) 0.2878(2) 0.1743(4)
C14 C 0.1716(2) 0.2698(3) 0.0592(4)
C15 C 0.2554(2) 0.2114(3) 0.1499(4)
C16 C 0.3257(2) 0.2175(3) 0.0340(5)
N1 N 0.0222(2) 0.2441(2) 0.1346(3)
O1 O 0.1285(2) 0.0655(3) 0.7312(3)
O2 O 0.1248(2) 0.3458(2) 0.3048(3)
H1 H -0.105(2) 0.244(3) 0.184(4)
H2 H -0.044(2) 0.361(3) 0.261(4)
H3 H -0.066(2) 0.259(3) 0.500(5)
H4 H 0.047(2) 0.245(3) 0.487(4)
H5 H -0.083(2) 0.067(3) 0.354(4)
H6 H -0.050(2) 0.079(3) 0.564(4)
H7 H 0.032(2) -0.058(3) 0.457(4)
H8 H 0.268(2) 0.060(3) 0.562(4)
H9 H 0.220(2) 0.194(3) 0.527(5)
H10 H 0.214(2) 0.049(3) 0.069(4)
H11 H 0.305(2) 0.048(3) 0.244(5)
H12 H 0.035(2) 0.179(3) -0.098(4)
H13 H -0.071(2) 0.217(3) -0.085(4)
H14 H -0.063(2) 0.016(3) -0.088(4)
H15 H -0.084(2) 0.058(3) 0.104(4)
H16 H 0.026(2) -0.092(3) 0.131(5)
H17 H 0.091(2) -0.021(3) 0.018(4)
H18 H 0.144(2) 0.228(3) -0.050(4)
H19 H 0.189(2) 0.351(3) 0.016(5)
H20 H 0.277(2) 0.254(3) 0.270(4)
H21 H 0.388(2) 0.179(4) 0.094(4)
H22 H 0.298(2) 0.183(4) -0.084(4)
H23 H 0.343(3) 0.303(3) 0.014(5)
C17 C 0.4870(2) 0.0628(3) 0.5305(5)
C18 C 0.5470(2) 0.0781(3) 0.7060(5)
C19 C 0.6296(3) 0.0063(3) 0.7457(4)
C20 C 0.7152(2) 0.0574(3) 0.6993(4)
C21 C 0.7376(2) 0.1644(4) 0.7995(4)
C22 C 0.7372(2) 0.2611(3) 0.6789(4)
C23 C 0.7284(2) 0.2047(3) 0.5054(4)
C24 C 0.7342(2) 0.2726(3) 0.3483(4)
C25 C 0.5429(8) 0.0140(4) 0.2604(5)
C26 C 0.6246(3) -0.0546(3) 0.3309(5)
C27 C 0.7120(2) 0.0113(3) 0.3752(5)
C28 C 0.7159(2) 0.0956(3) 0.5156(4)
C29 C 0.5340(2) 0.2116(3) 0.3663(5)
C30 C 0.5717(2) 0.2592(4) 0.2135(4)
C31 C 0.6494(2) 0.3366(3) 0.2753(4)
C32 C 0.6652(3) 0.4089(3) 0.1236(5)
N2 N 0.5237(2) 0.1007(2) 0.3793(4)
O3 O 0.7537(2) 0.1697(3) 0.9559(3)
O4 O 0.5119(2) 0.2760(2) 0.4681(4)
H24 H 0.470(3) -0.026(4) 0.508(5)
H25 H 0.425(2) 0.105(3) 0.529(4)
H26 H 0.509(2) 0.062(2) 0.805(5)
H27 H 0.566(2) 0.162(4) 0.726(4)
H28 H 0.643(3) -0.011(3) 0.882(5)
H29 H 0.614(3) -0.075(4) 0.683(5)
H30 H 0.763(2) -0.012(3) 0.737(4)
H31 H 0.681(3) 0.322(4) 0.682(5)
H32 H 0.797(3) 0.311(4) 0.711(5)
H33 H 0.748(2) 0.219(3) 0.254(4)
H34 H 0.552(3) 0.050(4) 0.145(5)
H35 H 0.484(3) -0.042(4) 0.223(5)
H36 H 0.615(2) -0.098(3) 0.438(5)
H37 H 0.630(3) -0.114(4) 0.242(5)
H38 H 0.768(3) -0.052(4) 0.408(5)
H39 H 0.723(2) 0.053(3) 0.263(5)
H40 H 0.591(2) 0.193(4) 0.137(5)
H41 H 0.519(3) 0.305(4) 0.136(5)
H42 H 0.633(2) 0.389(3) 0.370(4)
H43 H 0.722(3) 0.463(4) 0.166(5)
H44 H 0.679(3) 0.362(4) 0.027(5)
H45 H 0.604(3) 0.454(4) 0.069(5)
loop_
_geom_bond_atom_site_label_1
_geom_bond_atom_site_label_2
_geom_bond_site_symmetry_1
_geom_bond_site_symmetry_2
C1 C2 1_555 1_555
C2 C3 1_555 1_555
C3 C4 1_555 1_555
C4 C5 1_555 1_555
C5 C6 1_555 1_555
C6 C7 1_555 1_555
C7 C8 1_555 1_555
C8 C15 1_555 1_555
C9 C10 1_555 1_555
C10 C11 1_555 1_555
C11 C12 1_555 1_555
C12 C4 1_555 1_555
C13 C14 1_555 1_555
C14 C15 1_555 1_555
C15 C16 1_555 1_555
C16 H21 1_555 1_555
N1 C1 1_555 1_555
O1 C5 1_555 1_555
O2 C13 1_555 1_555
H1 C1 1_555 1_555
H2 C1 1_555 1_555
H3 C2 1_555 1_555
H4 C2 1_555 1_555
H5 C3 1_555 1_555
H6 C3 1_555 1_555
H7 C4 1_555 1_555
H8 C6 1_555 1_555
H9 C6 1_555 1_555
H10 C8 1_555 1_555
H11 C8 1_555 1_555
H12 C9 1_555 1_555
H13 C9 1_555 1_555
H14 C10 1_555 1_555
H15 C10 1_555 1_555
H16 C11 1_555 1_555
H17 C11 1_555 1_555
H18 C14 1_555 1_555
H19 C14 1_555 1_555
H20 C15 1_555 1_555
H22 C16 1_555 1_555
H23 C16 1_555 1_555
C17 C18 1_555 1_555
C18 C19 1_555 1_555
C19 C20 1_555 1_555
C20 C21 1_555 1_555
C21 C22 1_555 1_555
C22 C23 1_555 1_555
C23 C24 1_555 1_555
C24 C31 1_555 1_555
C25 C26 1_555 1_555
C26 C27 1_555 1_555
C27 C28 1_555 1_555
C28 C20 1_555 1_555
C29 C30 1_555 1_555
C30 C31 1_555 1_555
C31 C32 1_555 1_555
C32 H43 1_555 1_555
N2 C17 1_555 1_555
O3 C21 1_555 1_555
O4 C29 1_555 1_555
H24 C17 1_555 1_555
H25 C17 1_555 1_555
H26 C18 1_555 1_555
H27 C18 1_555 1_555
H28 C19 1_555 1_555
H29 C19 1_555 1_555
H30 C20 1_555 1_555
H31 C22 1_555 1_555
H32 C22 1_555 1_555
H33 C24 1_555 1_555
H34 C25 1_555 1_555
H35 C25 1_555 1_555
H36 C26 1_555 1_555
H37 C26 1_555 1_555
H38 C27 1_555 1_555
H39 C27 1_555 1_555
H40 C30 1_555 1_555
H41 C30 1_555 1_555
H42 C31 1_555 1_555
H44 C32 1_555 1_555
H45 C32 1_555 1_555
C7 C12 1_555 1_555
C9 N1 1_555 1_555
C13 N1 1_555 1_555
C23 C28 1_555 1_555
C25 N2 1_555 1_555
C29 N2 1_555 1_555

#END
