
#######################################################################
#
#                 Cambridge Crystallographic Data Centre
#                                CCDC 
#
#######################################################################
#
# If this CIF has been generated from an entry in the Cambridge 
# Structural Database, then it will include bibliographic, chemical, 
# crystal, experimental, refinement or atomic coordinate data resulting 
# from the CCDC's data processing and validation procedures.
#
#######################################################################

data_DOPBOZ10
_chemical_formula_moiety         'C26 H54 N7 P3 S2'
_chemical_name_systematic        
4,5-Benzo-1,3-bis(bis(diethylamino)thiophosphato-P)-2-diethylamino-2,1,3-phosphadiazolidine
_symmetry_cell_setting           orthorhombic
_symmetry_space_group_name_H-M   'P b c a'
_symmetry_Int_Tables_number      61
_space_group_name_Hall           '-P 2ac 2ab'
loop_
_symmetry_equiv_pos_site_id
_symmetry_equiv_pos_as_xyz
1 x,y,z
2 1/2-x,1/2+y,z
3 x,1/2-y,1/2+z
4 1/2-x,-y,1/2+z
5 -x,-y,-z
6 1/2+x,1/2-y,-z
7 -x,1/2+y,1/2-z
8 1/2+x,y,1/2-z
_cell_length_a                   14.652(5)
_cell_length_b                   18.911(9)
_cell_length_c                   24.324(9)
_cell_angle_alpha                90
_cell_angle_beta                 90
_cell_angle_gamma                90
_cell_volume                     6739.79
_chemical_melting_point          115-118deg.C
_cell_formula_units_Z            8
loop_
_atom_site_label
_atom_site_type_symbol
_atom_site_fract_x
_atom_site_fract_y
_atom_site_fract_z
S1 S -0.1787(1) 0.1083(1) -0.0307(1)
S2 S 0.0047(1) 0.0894(1) 0.2836(1)
P1 P -0.2452(1) 0.1015(1) 0.0382(1)
P2 P -0.1547(1) 0.0439(1) 0.1388(1)
P3 P -0.1195(1) 0.0884(1) 0.2560(1)
N1 N -0.1815(3) 0.1138(2) 0.0947(2)
N2 N -0.1299(3) 0.1080(2) 0.1895(2)
N3 N -0.3254(3) 0.1621(3) 0.0447(2)
N4 N -0.2905(3) 0.0225(2) 0.0474(2)
N5 N -0.0576(4) 0.0141(3) 0.1150(3)
N6 N -0.1664(3) 0.0090(2) 0.2594(2)
N7 N -0.1838(3) 0.1490(3) 0.2850(2)
C1 C -0.1409(4) 0.1791(3) 0.1114(2)
C2 C -0.1120(4) 0.1755(3) 0.1655(3)
C3 C -0.0687(4) 0.2331(3) 0.1905(3)
C4 C -0.0581(5) 0.2937(3) 0.1592(3)
C5 C -0.0874(4) 0.2974(3) 0.1054(3)
C6 C -0.1299(4) 0.2398(3) 0.0805(3)
C7 C -0.3844(5) 0.1756(4) -0.0040(3)
C8 C -0.3567(6) 0.2400(4) -0.0371(3)
C9 C -0.3626(5) 0.1854(3) 0.0976(3)
C10 C -0.3759(5) 0.2650(3) 0.1020(3)
C11 C -0.3585(4) 0.0113(3) 0.0911(3)
C12 C -0.4577(4) 0.0126(4) 0.0710(3)
C13 C -0.2499(5) -0.0443(4) 0.0238(3)
C14 C -0.3076(6) -0.0790(4) -0.0156(3)
C15 C 0.0156(7) 0.0565(5) 0.0751(4)
C16 C 0.0710(8) 0.0787(5) 0.1138(4)
C17 C -0.0406(4) -0.0614(3) 0.1168(3)
C18 C 0.0307(5) -0.0837(3) 0.1580(3)
C19 C -0.2668(4) 0.0036(3) 0.2526(3)
C20 C -0.2991(5) -0.0673(3) 0.2300(3)
C21 C -0.1228(4) -0.0512(3) 0.2877(3)
C22 C -0.1598(5) -0.0652(4) 0.3454(3)
C23 C -0.2718(5) 0.1739(4) 0.2617(3)
C24 C -0.2941(6) 0.2472(4) 0.2694(4)
C25 C -0.1761(5) 0.1567(4) 0.3454(3)
C26 C -0.1249(5) 0.2216(4) 0.3622(4)
H1 H -0.0477 0.2308 0.2279
H2 H -0.0288 0.3342 0.1753
H3 H -0.0787 0.3404 0.0848
H4 H -0.1508 0.2420 0.0430
H5 H -0.3805 0.1352 -0.0279
H6 H -0.4464 0.1814 0.0082
H7 H -0.4001 0.2479 -0.0661
H8 H -0.2970 0.2330 -0.0527
H9 H -0.3556 0.2804 -0.0131
H10 H -0.4208 0.1631 0.1031
H11 H -0.3212 0.1709 0.1262
H12 H -0.4182 0.2803 0.0742
H13 H -0.3182 0.2882 0.0965
H14 H -0.3994 0.2769 0.1377
H15 H -0.3472 -0.0338 0.1080
H16 H -0.3511 0.0482 0.1180
H17 H -0.4661 -0.0231 0.0433
H18 H -0.4713 0.0583 0.0557
H19 H -0.4980 0.0034 0.1014
H20 H -0.2384 -0.0767 0.0536
H21 H -0.1931 -0.0324 0.0062
H22 H -0.2730 -0.1145 -0.0348
H23 H -0.3301 -0.0448 -0.0415
H24 H -0.3582 -0.1009 0.0030
H25 H -0.0126 0.0949 0.0555
H26 H 0.0449 0.0252 0.0495
H27 H 0.1224 0.1012 0.0965
H28 H 0.0919 0.0393 0.1355
H29 H 0.0403 0.1121 0.1372
H30 H -0.0970 -0.0847 0.1261
H31 H -0.0212 -0.0765 0.0809
H32 H 0.0268 -0.1339 0.1636
H33 H 0.0207 -0.0597 0.1923
H34 H 0.0903 -0.0719 0.1442
H35 H -0.2951 0.0111 0.2878
H36 H -0.2860 0.0400 0.2276
H37 H -0.2725 -0.0753 0.1944
H38 H -0.3646 -0.0670 0.2268
H39 H -0.2807 -0.1044 0.2547
H40 H -0.1320 -0.0930 0.2659
H41 H -0.0585 -0.0417 0.2908
H42 H -0.1571 -0.0225 0.3667
H43 H -0.1237 -0.1012 0.3629
H44 H -0.2221 -0.0808 0.3427
H45 H -0.3197 0.1465 0.2784
H46 H -0.2705 0.1649 0.2228
H47 H -0.3501 0.2577 0.2505
H48 H -0.2459 0.2761 0.2548
H49 H -0.3013 0.2568 0.3080
H50 H -0.2365 0.1589 0.3608
H51 H -0.1446 0.1161 0.3597
H52 H -0.0616 0.2165 0.3526
H53 H -0.1303 0.2280 0.4013
loop_
_geom_bond_atom_site_label_1
_geom_bond_atom_site_label_2
_geom_bond_site_symmetry_1
_geom_bond_site_symmetry_2
S1 P1 1_555 1_555
S2 P3 1_555 1_555
P1 N1 1_555 1_555
P2 N1 1_555 1_555
P3 N2 1_555 1_555
N1 C1 1_555 1_555
N2 P2 1_555 1_555
N3 P1 1_555 1_555
N4 P1 1_555 1_555
N5 P2 1_555 1_555
N6 P3 1_555 1_555
N7 P3 1_555 1_555
C1 C2 1_555 1_555
C2 N2 1_555 1_555
C3 C2 1_555 1_555
C4 C3 1_555 1_555
C5 C4 1_555 1_555
C6 C1 1_555 1_555
C7 N3 1_555 1_555
C8 C7 1_555 1_555
C9 N3 1_555 1_555
C10 C9 1_555 1_555
C11 N4 1_555 1_555
C12 C11 1_555 1_555
C13 N4 1_555 1_555
C14 C13 1_555 1_555
C15 N5 1_555 1_555
C16 C15 1_555 1_555
C17 N5 1_555 1_555
C18 C17 1_555 1_555
C19 N6 1_555 1_555
C20 C19 1_555 1_555
C21 N6 1_555 1_555
C22 C21 1_555 1_555
C23 N7 1_555 1_555
C24 C23 1_555 1_555
C25 N7 1_555 1_555
C26 C25 1_555 1_555
H1 C3 1_555 1_555
H2 C4 1_555 1_555
H3 C5 1_555 1_555
H4 C6 1_555 1_555
H5 C7 1_555 1_555
H6 C7 1_555 1_555
H7 C8 1_555 1_555
H8 C8 1_555 1_555
H9 C8 1_555 1_555
H10 C9 1_555 1_555
H11 C9 1_555 1_555
H12 C10 1_555 1_555
H13 C10 1_555 1_555
H14 C10 1_555 1_555
H15 C11 1_555 1_555
H16 C11 1_555 1_555
H17 C12 1_555 1_555
H18 C12 1_555 1_555
H19 C12 1_555 1_555
H20 C13 1_555 1_555
H21 C13 1_555 1_555
H22 C14 1_555 1_555
H23 C14 1_555 1_555
H24 C14 1_555 1_555
H25 C15 1_555 1_555
H26 C15 1_555 1_555
H27 C16 1_555 1_555
H28 C16 1_555 1_555
H29 C16 1_555 1_555
H30 C17 1_555 1_555
H31 C17 1_555 1_555
H32 C18 1_555 1_555
H33 C18 1_555 1_555
H34 C18 1_555 1_555
H35 C19 1_555 1_555
H36 C19 1_555 1_555
H37 C20 1_555 1_555
H38 C20 1_555 1_555
H39 C20 1_555 1_555
H40 C21 1_555 1_555
H41 C21 1_555 1_555
H42 C22 1_555 1_555
H43 C22 1_555 1_555
H44 C22 1_555 1_555
H45 C23 1_555 1_555
H46 C23 1_555 1_555
H47 C24 1_555 1_555
H48 C24 1_555 1_555
H49 C24 1_555 1_555
H50 C25 1_555 1_555
H51 C25 1_555 1_555
H52 C26 1_555 1_555
H53 C26 1_555 1_555
C5 C6 1_555 1_555

#END
