
#######################################################################
#
#                 Cambridge Crystallographic Data Centre
#                                CCDC 
#
#######################################################################
#
# If this CIF has been generated from an entry in the Cambridge 
# Structural Database, then it will include bibliographic, chemical, 
# crystal, experimental, refinement or atomic coordinate data resulting 
# from the CCDC's data processing and validation procedures.
#
#######################################################################

data_DOPBEQ
_chemical_formula_moiety         'C13 H11 N3'
_chemical_name_systematic        5-Methyl-1-(1-naphthyl)-1,2,3-triazole
_symmetry_cell_setting           orthorhombic
_symmetry_space_group_name_H-M   'P b c a'
_symmetry_Int_Tables_number      61
_space_group_name_Hall           '-P 2ac 2ab'
loop_
_symmetry_equiv_pos_site_id
_symmetry_equiv_pos_as_xyz
1 x,y,z
2 1/2-x,-y,1/2+z
3 1/2+x,1/2-y,-z
4 -x,1/2+y,1/2-z
5 -x,-y,-z
6 1/2+x,y,1/2-z
7 1/2-x,1/2+y,z
8 x,1/2-y,1/2+z
_cell_length_a                   10.373(2)
_cell_length_b                   11.691(2)
_cell_length_c                   17.579(4)
_cell_angle_alpha                90
_cell_angle_beta                 90
_cell_angle_gamma                90
_cell_volume                     2131.82
_exptl_crystal_colour            'light yellow'
_exptl_crystal_description       block
_chemical_melting_point          '117-118 deg.C'
_cell_formula_units_Z            8
_exptl_crystal_recrystallization_method 'ethyl acetate/petroleum ether'
loop_
_atom_site_label
_atom_site_type_symbol
_atom_site_fract_x
_atom_site_fract_y
_atom_site_fract_z
N1 N 1.3553(7) 0.8888(7) 1.0944(4)
N2 N 1.4426(8) 0.8091(8) 1.0710(4)
N3 N 1.3807(12) 0.7382(8) 1.0271(5)
C1 C 1.4741(10) 1.1576(9) 1.2379(5)
H1 H 1.5034 1.2185 1.2703
C2 C 1.5074(11) 1.1591(9) 1.1618(7)
H2 H 1.5587 1.2200 1.1412
C3 C 1.4685(9) 1.0698(8) 1.1143(6)
H3 H 1.4906 1.0700 1.0613
C4 C 1.3928(8) 0.9798(7) 1.1439(5)
C5 C 1.3517(8) 0.9753(8) 1.2223(5)
C6 C 1.3968(8) 1.0690(9) 1.2666(5)
C7 C 1.3599(9) 1.0694(9) 1.3468(5)
H4 H 1.3867 1.1304 1.3797
C8 C 1.2821(11) 0.9845(12) 1.3738(6)
H5 H 1.2579 0.9866 1.4265
C9 C 1.2454(9) 0.8921(10) 1.3284(4)
H6 H 1.1912 0.8345 1.3507
C10 C 1.2767(7) 0.8920(10) 1.2523(4)
H7 H 1.2499 0.8291 1.2209
C11 C 1.1181(10) 0.9313(9) 1.0784(5)
H8 H 1.1373 0.9922 1.1133
H9 H 1.0880 0.9630 1.0313
H10 H 1.0525 0.8831 1.0998
C12 C 1.2346(8) 0.8621(7) 1.0652(5)
C13 C 1.2559(8) 0.7675(7) 1.0223(5)
H11 H 1.1929 0.7279 0.9921
N4? N 1.3569(7) 0.6119(7) 1.5935(3)
N5? N 1.4466(7) 0.6857(7) 1.5687(4)
N6? N 1.3838(8) 0.7603(6) 1.5261(4)
C14? C 1.4742(9) 0.3452(9) 1.7366(6)
H12? H 1.5053 0.2862 1.7699
C15? C 1.5093(9) 0.3465(8) 1.6617(6)
H13? H 1.5617 0.2861 1.6413
C16? C 1.4654(9) 0.4363(9) 1.6156(6)
H14? H 1.4895 0.4365 1.5629
C17? C 1.3935(8) 0.5194(9) 1.6417(5)
C18? C 1.3568(8) 0.5215(7) 1.7192(5)
C19? C 1.3956(8) 0.4311(8) 1.7676(5)
C20? C 1.3554(10) 0.4319(10) 1.8441(5)
H15? H 1.3820 0.3704 1.8767
C21? C 1.2853(11) 0.5168(9) 1.8728(6)
H16? H 1.2589 0.5159 1.9252
C22? C 1.2414(8) 0.6044(9) 1.8249(6)
H17? H 1.1920 0.6669 1.8450
C23? C 1.2820(9) 0.6120(8) 1.7519(4)
H18? H 1.2538 0.6733 1.7196
C24? C 1.1215(9) 0.5667(9) 1.5825(5)
H19? H 1.0490 0.5987 1.5560
H20? H 1.1351 0.4894 1.5659
H21? H 1.1048 0.5674 1.6362
C25? C 1.2411(9) 0.6325(8) 1.5660(5)
C26? C 1.2621(12) 0.7274(11) 1.5218(6)
H22? H 1.1959 0.7672 1.4942
loop_
_geom_bond_atom_site_label_1
_geom_bond_atom_site_label_2
_geom_bond_site_symmetry_1
_geom_bond_site_symmetry_2
N1 N2 1_555 1_555
N2 N3 1_555 1_555
N3 C13 1_555 1_555
C1 H1 1_555 1_555
C2 C1 1_555 1_555
H2 C2 1_555 1_555
C3 C2 1_555 1_555
H3 C3 1_555 1_555
C4 N1 1_555 1_555
C5 C4 1_555 1_555
C6 C1 1_555 1_555
C7 C6 1_555 1_555
H4 C7 1_555 1_555
C8 C7 1_555 1_555
H5 C8 1_555 1_555
C9 C8 1_555 1_555
H6 C9 1_555 1_555
C10 C5 1_555 1_555
H7 C10 1_555 1_555
C11 H8 1_555 1_555
H9 C11 1_555 1_555
H10 C11 1_555 1_555
C12 N1 1_555 1_555
C13 C12 1_555 1_555
H11 C13 1_555 1_555
C3 C4 1_555 1_555
C5 C6 1_555 1_555
C9 C10 1_555 1_555
C11 C12 1_555 1_555

#END
