
#######################################################################
#
#                 Cambridge Crystallographic Data Centre
#                                CCDC 
#
#######################################################################
#
# If this CIF has been generated from an entry in the Cambridge 
# Structural Database, then it will include bibliographic, chemical, 
# crystal, experimental, refinement or atomic coordinate data resulting 
# from the CCDC's data processing and validation procedures.
#
#######################################################################

data_DOPDAO
_chemical_formula_moiety         'C44 H34 Cl2 N8 O5,2(C2 H6 O1 S1),1.5(H2 O1)'
_chemical_name_systematic        
"2',7'-Dichloro-3',6'-dihydroxy-4',5'-bis((2-pyrazinylmethyl) (2-pyridylmethyl)aminomethyl)-3H-spiro[2-benzofuran-1,9'-xanthen]-3-one dimethylsulfoxide solvate sesquihydrate"
_symmetry_cell_setting           triclinic
_symmetry_space_group_name_H-M   'P -1'
_symmetry_Int_Tables_number      2
_space_group_name_Hall           '-P 1'
loop_
_symmetry_equiv_pos_site_id
_symmetry_equiv_pos_as_xyz
1 x,y,z
2 -x,-y,-z
_cell_length_a                   13.207(2)
_cell_length_b                   13.372(2)
_cell_length_c                   16.028(3)
_cell_angle_alpha                83.814(3)
_cell_angle_beta                 76.198(3)
_cell_angle_gamma                60.728(3)
_cell_volume                     2397.74
_exptl_crystal_colour            colorless
_exptl_crystal_description       plate
_chemical_melting_point          '206.1-208.3 deg.C'
_cell_formula_units_Z            2
_exptl_crystal_recrystallization_method dimethylsulfoxide/water
loop_
_atom_site_label
_atom_site_type_symbol
_atom_site_fract_x
_atom_site_fract_y
_atom_site_fract_z
O1 O 0.50501(18) 0.08303(19) 0.81224(13)
H1 H 0.556(3) 0.009(2) 0.821(2)
O2 O 0.65427(16) -0.02686(15) 0.51844(12)
O3 O 0.82903(17) -0.16502(18) 0.23329(13)
H2 H 0.882(3) -0.216(2) 0.2648(19)
O4 O 0.38155(15) 0.23933(15) 0.45230(12)
O5 O 0.23232(18) 0.38989(17) 0.40572(15)
N1 N 0.7451(2) -0.1114(2) 0.73155(15)
N2 N 0.6119(2) -0.1322(2) 0.88423(17)
N3 N 0.9264(3) -0.0027(3) 0.8455(2)
N4 N 1.0223(2) -0.0991(2) 0.68163(19)
N5 N 0.93887(19) -0.26461(19) 0.36334(15)
N6 N 1.1826(2) -0.2012(2) 0.3545(2)
N7 N 0.8773(3) -0.5790(3) 0.3548(2)
N8 N 0.9780(2) -0.4522(2) 0.25692(18)
C1 C 0.5406(3) -0.1378(4) 0.9575(2)
H3 H 0.4699 -0.0698 0.9790
C2 C 0.5645(4) -0.2362(4) 1.0025(3)
H4 H 0.5125 -0.2361 1.0549
C3 C 0.6647(4) -0.3352(4) 0.9710(3)
H5 H 0.6844 -0.4048 1.0018
C4 C 0.7363(4) -0.3321(3) 0.8943(3)
H6 H 0.8042 -0.4004 0.8697
C5 C 0.7087(3) -0.2286(3) 0.8532(2)
C6 C 0.7924(3) -0.2221(2) 0.77364(19)
H7 H 0.8673 -0.2385 0.7890
H8 H 0.8116 -0.2823 0.7326
C7 C 0.8413(3) -0.0979(3) 0.67381(19)
H9 H 0.8075 -0.0339 0.6342
H10 H 0.8946 -0.1687 0.6388
C8 C 0.9120(3) -0.0744(3) 0.7219(2)
C9 C 0.8649(3) -0.0272(3) 0.8030(2)
H11 H 0.7862 -0.0113 0.8300
C10 C 1.0386(3) -0.0304(4) 0.8038(3)
H12 H 1.0869 -0.0170 0.8316
C11 C 1.0843(3) -0.0768(3) 0.7235(3)
H13 H 1.1634 -0.0938 0.6965
C12 C 0.6565(2) -0.0991(2) 0.68559(18)
H14 H 0.6047 -0.1284 0.7217
H15 H 0.6972 -0.1459 0.6322
C13 C 1.2855(3) -0.2187(3) 0.3025(3)
H16 H 1.3337 -0.1960 0.3223
C14 C 1.3244(3) -0.2663(3) 0.2241(3)
H17 H 1.3983 -0.2768 0.1897
C15 C 1.2563(3) -0.3002(4) 0.1934(3)
H18 H 1.2827 -0.3348 0.1381
C16 C 1.1482(3) -0.2823(3) 0.2455(2)
H19 H 1.0988 -0.3041 0.2265
C17 C 1.1145(3) -0.2326(3) 0.3248(2)
C18 C 0.9985(2) -0.2066(3) 0.3856(2)
H20 H 1.0131 -0.2293 0.4442
H21 H 0.9448 -0.1228 0.3865
C19 C 1.0004(3) -0.3876(2) 0.3839(2)
H22 H 0.9839 -0.3970 0.4470
H23 H 1.0872 -0.4182 0.3636
C20 C 0.9611(2) -0.4543(2) 0.3430(2)
C21 C 0.9106(3) -0.5166(3) 0.3912(2)
H24 H 0.8988 -0.5156 0.4520
C22 C 0.8959(3) -0.5776(3) 0.2707(3)
H25 H 0.8751 -0.6218 0.2426
C23 C 0.9441(3) -0.5149(3) 0.2222(2)
H26 H 0.9540 -0.5156 0.1616
C24 C 0.8145(2) -0.2127(2) 0.41159(18)
H27 H 0.8120 -0.2062 0.4731
H28 H 0.7807 -0.2632 0.4070
C25 C 0.5795(2) 0.0587(2) 0.57819(17)
C26 C 0.5810(2) 0.0241(2) 0.66326(18)
C27 C 0.5096(2) 0.1057(2) 0.72846(18)
C28 C 0.4381(2) 0.2194(2) 0.70516(18)
C29 C 0.4373(2) 0.2499(2) 0.62147(19)
H29 H 0.3872 0.3272 0.6081
C30 C 0.5083(2) 0.1703(2) 0.55495(18)
C31 C 0.5038(2) 0.2037(2) 0.46278(18)
C32 C 0.5891(2) 0.1045(2) 0.40269(18)
C33 C 0.6000(2) 0.1174(2) 0.31447(18)
H30 H 0.5526 0.1901 0.2921
C34 C 0.6774(2) 0.0277(2) 0.25888(18)
C35 C 0.7502(2) -0.0796(2) 0.28994(18)
C36 C 0.7403(2) -0.0959(2) 0.37806(17)
C37 C 0.6594(2) -0.0031(2) 0.43286(17)
C38 C 0.5146(2) 0.3105(2) 0.43597(18)
C39 C 0.6104(2) 0.3291(3) 0.43099(18)
H31 H 0.6806 0.2725 0.4484
C40 C 0.5994(3) 0.4335(3) 0.3996(2)
H32 H 0.6631 0.4492 0.3957
C41 C 0.4966(3) 0.5163(3) 0.3735(2)
H33 H 0.4922 0.5869 0.3513
C42 C 0.4018(3) 0.4976(2) 0.3792(2)
H34 H 0.3311 0.5544 0.3624
C43 C 0.4134(2) 0.3927(2) 0.41039(19)
C44 C 0.3303(2) 0.3466(2) 0.42075(19)
Cl1 Cl 0.35123(7) 0.32263(7) 0.78589(5)
Cl2 Cl 0.68938(7) 0.04761(7) 0.14920(5)
S1 S 1.60595(15) -0.56554(12) 0.09784(8)
O6 O 1.6594(4) -0.6120(3) 0.00779(19)
C45 C 1.4880(2) -0.5962(2) 0.13840(12)
H35 H 1.4210 -0.5457 0.1115
H36 H 1.4632 -0.5836 0.2007
H37 H 1.5143 -0.6763 0.1255
C46 C 1.7068(2) -0.6705(2) 0.16038(12)
H41 H 1.7817 -0.6675 0.1466
H42 H 1.7224 -0.7472 0.1469
H43 H 1.6712 -0.6539 0.2217
S3 S 1.0347(2) -0.3561(2) 1.03078(12)
O7 O 1.0949(2) -0.4062(2) 0.94269(12)
C47 C 1.0435(2) -0.2283(2) 1.03105(12)
H47 H 1.1271 -0.2467 1.0191
H48 H 1.0033 -0.1907 1.0874
H49 H 1.0051 -0.1768 0.9868
C48 C 0.9027(13) -0.3159(14) 1.0477(11)
H50 H 0.8897 -0.3821 1.0479
H51 H 0.8688 -0.2629 1.0025
H52 H 0.8640 -0.2766 1.1036
O10 O 1.1551(3) -0.0880(3) 0.5083(2)
H65 H 1.090(3) -0.089(4) 0.545(3)
H66 H 1.153(4) -0.122(4) 0.462(2)
O11 O 0.7267(5) 0.1427(5) 0.9785(3)
S2? S 1.6272(10) -0.6602(12) 0.0869(8)
H38? H 1.4384 -0.5458 0.0988
H39? H 1.4792 -0.5505 0.1862
H40? H 1.4631 -0.6537 0.1608
H44? H 1.7918 -0.7086 0.1338
H45? H 1.6915 -0.7151 0.2097
H46? H 1.6826 -0.5935 0.1798
S4? S 0.9174(4) -0.2126(5) 0.9772(2)
O8? O 0.9973(13) -0.2773(12) 0.8986(9)
C49? C 0.9884(17) -0.1619(15) 1.0278(13)
H53? H 1.0566 -0.1625 0.9865
H54? H 1.0158 -0.2116 1.0762
H55? H 0.9323 -0.0835 1.0490
C50? C 0.8212(15) -0.200(2) 1.0296(14)
H56? H 0.7810 -0.2285 1.0023
H57? H 0.7686 -0.1188 1.0444
H58? H 0.8407 -0.2438 1.0819
S5? S 0.9743(6) -0.2972(9) 1.0061(5)
O9? O 1.022(3) -0.317(3) 0.9138(19)
C51? C 1.031(2) -0.224(3) 1.0397(18)
H59? H 1.1108 -0.2464 1.0053
H60? H 1.0342 -0.2401 1.1003
H61? H 0.9797 -0.1412 1.0330
C52? C 0.865(3) -0.274(3) 1.039(2)
H62? H 0.8481 -0.3279 1.0160
H63? H 0.8110 -0.1955 1.0241
H64? H 0.8535 -0.2808 1.1016
loop_
_geom_bond_atom_site_label_1
_geom_bond_atom_site_label_2
_geom_bond_site_symmetry_1
_geom_bond_site_symmetry_2
O1 H1 1_555 1_555
O2 C25 1_555 1_555
O3 H2 1_555 1_555
O4 C31 1_555 1_555
O5 C44 1_555 1_555
N1 C6 1_555 1_555
N2 C1 1_555 1_555
N3 C9 1_555 1_555
N4 C8 1_555 1_555
N5 C18 1_555 1_555
N6 C13 1_555 1_555
N7 C21 1_555 1_555
N8 C20 1_555 1_555
C1 H3 1_555 1_555
C2 C1 1_555 1_555
H4 C2 1_555 1_555
C3 C2 1_555 1_555
H5 C3 1_555 1_555
C4 C3 1_555 1_555
H6 C4 1_555 1_555
C5 N2 1_555 1_555
C6 C5 1_555 1_555
H7 C6 1_555 1_555
H8 C6 1_555 1_555
C7 N1 1_555 1_555
H9 C7 1_555 1_555
H10 C7 1_555 1_555
C8 C7 1_555 1_555
C9 C8 1_555 1_555
H11 C9 1_555 1_555
C10 N3 1_555 1_555
H12 C10 1_555 1_555
C11 N4 1_555 1_555
H13 C11 1_555 1_555
C12 N1 1_555 1_555
H14 C12 1_555 1_555
H15 C12 1_555 1_555
C13 H16 1_555 1_555
C14 C13 1_555 1_555
H17 C14 1_555 1_555
C15 C14 1_555 1_555
H18 C15 1_555 1_555
C16 C15 1_555 1_555
H19 C16 1_555 1_555
C17 N6 1_555 1_555
C18 C17 1_555 1_555
H20 C18 1_555 1_555
H21 C18 1_555 1_555
C19 N5 1_555 1_555
H22 C19 1_555 1_555
H23 C19 1_555 1_555
C20 C19 1_555 1_555
C21 C20 1_555 1_555
H24 C21 1_555 1_555
C22 N7 1_555 1_555
H25 C22 1_555 1_555
C23 N8 1_555 1_555
H26 C23 1_555 1_555
C24 N5 1_555 1_555
H27 C24 1_555 1_555
H28 C24 1_555 1_555
C25 C26 1_555 1_555
C26 C12 1_555 1_555
C27 O1 1_555 1_555
C28 C27 1_555 1_555
C29 C28 1_555 1_555
H29 C29 1_555 1_555
C30 C25 1_555 1_555
C31 C30 1_555 1_555
C32 C31 1_555 1_555
C33 C32 1_555 1_555
H30 C33 1_555 1_555
C34 C33 1_555 1_555
C35 O3 1_555 1_555
C36 C24 1_555 1_555
C37 O2 1_555 1_555
C38 C31 1_555 1_555
C39 C38 1_555 1_555
H31 C39 1_555 1_555
C40 C39 1_555 1_555
H32 C40 1_555 1_555
C41 C40 1_555 1_555
H33 C41 1_555 1_555
C42 C41 1_555 1_555
H34 C42 1_555 1_555
C43 C38 1_555 1_555
C44 O4 1_555 1_555
Cl1 C28 1_555 1_555
Cl2 C34 1_555 1_555
S1 O6 1_555 1_555
C45 S1 1_555 1_555
H35 C45 1_555 1_555
H36 C45 1_555 1_555
H37 C45 1_555 1_555
C46 S1 1_555 1_555
H41 C46 1_555 1_555
H42 C46 1_555 1_555
H43 C46 1_555 1_555
S3 O7 1_555 1_555
C47 S3 1_555 1_555
H47 C47 1_555 1_555
H48 C47 1_555 1_555
H49 C47 1_555 1_555
C48 S3 1_555 1_555
H50 C48 1_555 1_555
H51 C48 1_555 1_555
H52 C48 1_555 1_555
O10 H65 1_555 1_555
H66 O10 1_555 1_555
C4 C5 1_555 1_555
C10 C11 1_555 1_555
C16 C17 1_555 1_555
C22 C23 1_555 1_555
C26 C27 1_555 1_555
C29 C30 1_555 1_555
C32 C37 1_555 1_555
C34 C35 1_555 1_555
C35 C36 1_555 1_555
C36 C37 1_555 1_555
C42 C43 1_555 1_555
C43 C44 1_555 1_555

#END
