
#######################################################################
#
#                 Cambridge Crystallographic Data Centre
#                                CCDC 
#
#######################################################################
#
# If this CIF has been generated from an entry in the Cambridge 
# Structural Database, then it will include bibliographic, chemical, 
# crystal, experimental, refinement or atomic coordinate data resulting 
# from the CCDC's data processing and validation procedures.
#
#######################################################################

data_DOPGAS
_chemical_compound_source        'salvia substolonifera'
_chemical_formula_moiety         'C22 H30 O8'
_chemical_name_systematic        
'2a-acetoxy-1a,5,7a-trimethyl-4-oxo-1a,2,2a,4,6,6a,7a,8,9,9a-decahydrobisoxireno[4,5:8,9]cyclodeca[1,2-b]furan-6-yl 2-methylbutanoate'
_symmetry_cell_setting           monoclinic
_symmetry_space_group_name_H-M   'P 21'
_symmetry_Int_Tables_number      4
_space_group_name_Hall           'P 2yb'
loop_
_symmetry_equiv_pos_site_id
_symmetry_equiv_pos_as_xyz
1 x,y,z
2 -x,1/2+y,-z
_cell_length_a                   9.6450(2)
_cell_length_b                   12.5905(3)
_cell_length_c                   10.3647(2)
_cell_angle_alpha                90
_cell_angle_beta                 117.6420(10)
_cell_angle_gamma                90
_cell_volume                     1114.98
_exptl_crystal_colour            colorless
_exptl_crystal_description       block
_cell_formula_units_Z            2
_chemical_properties_physical    Oxygen-sensitive
loop_
_atom_site_label
_atom_site_type_symbol
_atom_site_fract_x
_atom_site_fract_y
_atom_site_fract_z
O1 O 1.1541(5) 0.6490(4) 0.9635(3)
O2 O 0.7290(4) 0.9052(2) 0.5545(4)
O3 O 0.9832(4) 0.4790(2) 0.5413(4)
O4 O 0.7822(5) 0.3678(3) 0.4350(6)
O5 O 0.6631(3) 0.7723(2) 0.3264(3)
O6 O 0.7689(6) 0.8231(7) 0.1863(5)
O7 O 1.0993(3) 0.6224(2) 0.4844(3)
O8 O 0.9414(4) 0.5498(4) 0.2654(4)
C1 C 1.0373(6) 0.7272(4) 0.8779(5)
H1 H 1.0790 0.7844 0.8418
C2 C 0.9151(7) 0.7649(5) 0.9200(5)
H2 H 0.9649 0.7914 1.0192
H3 H 0.8463 0.7067 0.9138
C3 C 0.8210(7) 0.8541(4) 0.8136(6)
H4 H 0.7413 0.8791 0.8385
H5 H 0.8907 0.9131 0.8257
C4 C 0.7430(5) 0.8200(3) 0.6552(5)
C5 C 0.8376(5) 0.8228(3) 0.5778(4)
H6 H 0.9465 0.8440 0.6399
C6 C 0.8157(4) 0.7550(3) 0.4463(4)
H7 H 0.8923 0.7797 0.4157
C7 C 0.8410(4) 0.6375(3) 0.4747(4)
C8 C 1.0057(4) 0.5917(3) 0.5533(4)
C9 C 1.1122(5) 0.6186(4) 0.7128(4)
H8 H 1.1960 0.5667 0.7508
H9 H 1.1596 0.6872 0.7161
C10 C 1.0403(5) 0.6228(4) 0.8154(5)
C11 C 0.7387(5) 0.5576(3) 0.4251(5)
C12 C 0.8282(5) 0.4572(3) 0.4631(6)
C13 C 0.5643(5) 0.5504(4) 0.3391(7)
H10 H 0.5195 0.6198 0.3300
H11 H 0.5248 0.5042 0.3882
H12 H 0.5367 0.5226 0.2440
C14 C 0.9359(7) 0.5328(4) 0.8110(6)
H13 H 0.9846 0.4664 0.8104
H14 H 0.8373 0.5384 0.7246
H15 H 0.9191 0.5361 0.8953
C15 C 0.6001(6) 0.7513(5) 0.6056(7)
H16 H 0.5232 0.7870 0.6241
H17 H 0.6280 0.6853 0.6579
H18 H 0.5579 0.7377 0.5032
C16 C 0.6558(6) 0.8063(4) 0.2019(5)
C17 C 0.496(3) 0.8273(10) 0.0819(18)
H19 H 0.4189 0.7925 0.1048
C18 C 0.4646(17) 0.9464(9) 0.0683(13)
H20 H 0.3600 0.9597 -0.0093
H21 H 0.5384 0.9811 0.0429
C19 C 0.480(2) 0.9934(13) 0.2112(16)
H22 H 0.4601 1.0684 0.1994
H23 H 0.4061 0.9599 0.2356
H24 H 0.5843 0.9813 0.2877
C20 C 0.484(2) 0.7801(13) -0.0570(15)
H25 H 0.3818 0.7928 -0.1357
H26 H 0.5612 0.8124 -0.0787
H27 H 0.5029 0.7049 -0.0446
C21 C 1.0552(5) 0.6020(3) 0.3425(5)
C22 C 1.1691(7) 0.6512(5) 0.3011(6)
H28 H 1.1450 0.6298 0.2041
H29 H 1.2730 0.6283 0.3677
H30 H 1.1628 0.7271 0.3049
C23? C 0.480(3) 0.8132(11) 0.0901(19)
H31? H 0.4348 0.7426 0.0846
C24? C 0.3942(14) 0.8900(11) 0.1434(15)
H32? H 0.2822 0.8843 0.0814
H33? H 0.4160 0.8713 0.2418
C25? C 0.447(3) 1.0043(11) 0.141(3)
H34? H 0.3926 1.0516 0.1744
H35? H 0.5577 1.0100 0.2033
H36? H 0.4241 1.0230 0.0431
C26? C 0.456(2) 0.8402(19) -0.0593(15)
H37? H 0.5117 0.7902 -0.0881
H38? H 0.3465 0.8373 -0.1268
H39? H 0.4948 0.9105 -0.0590
loop_
_geom_bond_atom_site_label_1
_geom_bond_atom_site_label_2
_geom_bond_site_symmetry_1
_geom_bond_site_symmetry_2
O1 C1 1_555 1_555
O2 C4 1_555 1_555
O3 C8 1_555 1_555
O4 C12 1_555 1_555
O5 C6 1_555 1_555
O6 C16 1_555 1_555
O7 C8 1_555 1_555
O8 C21 1_555 1_555
C1 H1 1_555 1_555
C2 C1 1_555 1_555
H2 C2 1_555 1_555
H3 C2 1_555 1_555
C3 C2 1_555 1_555
H4 C3 1_555 1_555
H5 C3 1_555 1_555
C4 C3 1_555 1_555
C5 O2 1_555 1_555
H6 C5 1_555 1_555
C6 C5 1_555 1_555
H7 C6 1_555 1_555
C7 C6 1_555 1_555
C8 C7 1_555 1_555
C9 C8 1_555 1_555
H8 C9 1_555 1_555
H9 C9 1_555 1_555
C10 O1 1_555 1_555
C11 C7 1_555 1_555
C12 O3 1_555 1_555
C13 C11 1_555 1_555
H10 C13 1_555 1_555
H11 C13 1_555 1_555
H12 C13 1_555 1_555
C14 C10 1_555 1_555
H13 C14 1_555 1_555
H14 C14 1_555 1_555
H15 C14 1_555 1_555
C15 C4 1_555 1_555
H16 C15 1_555 1_555
H17 C15 1_555 1_555
H18 C15 1_555 1_555
C16 O5 1_555 1_555
C17 C16 1_555 1_555
H19 C17 1_555 1_555
C18 C17 1_555 1_555
H20 C18 1_555 1_555
H21 C18 1_555 1_555
C19 C18 1_555 1_555
H22 C19 1_555 1_555
H23 C19 1_555 1_555
H24 C19 1_555 1_555
C20 C17 1_555 1_555
H25 C20 1_555 1_555
H26 C20 1_555 1_555
H27 C20 1_555 1_555
C21 O7 1_555 1_555
C22 C21 1_555 1_555
H28 C22 1_555 1_555
H29 C22 1_555 1_555
H30 C22 1_555 1_555
C1 C10 1_555 1_555
C4 C5 1_555 1_555
C9 C10 1_555 1_555
C11 C12 1_555 1_555

#END
