
#######################################################################
#
#                 Cambridge Crystallographic Data Centre
#                                CCDC 
#
#######################################################################
#
# If this CIF has been generated from an entry in the Cambridge 
# Structural Database, then it will include bibliographic, chemical, 
# crystal, experimental, refinement or atomic coordinate data resulting 
# from the CCDC's data processing and validation procedures.
#
#######################################################################

data_DOPMUS
_chemical_name_common            'theophylline 3-hydroxybenzoic acid'
_chemical_formula_moiety         'C7 H8 N4 O2,C7 H6 O3'
_chemical_name_systematic        
'1,3-dimethyl-3,7-dihydro-1H-purine-2,6-dione 3-hydroxybenzoic acid'
_symmetry_cell_setting           triclinic
_symmetry_space_group_name_H-M   'P -1'
_symmetry_Int_Tables_number      2
_space_group_name_Hall           '-P 1'
loop_
_symmetry_equiv_pos_site_id
_symmetry_equiv_pos_as_xyz
1 x,y,z
2 -x,-y,-z
_cell_length_a                   7.683(2)
_cell_length_b                   8.191(2)
_cell_length_c                   23.307(6)
_cell_angle_alpha                98.202(5)
_cell_angle_beta                 92.589(5)
_cell_angle_gamma                103.123(4)
_cell_volume                     1409.24
_exptl_crystal_colour            colorless
_exptl_crystal_description       plate
_cell_formula_units_Z            4
loop_
_atom_site_label
_atom_site_type_symbol
_atom_site_fract_x
_atom_site_fract_y
_atom_site_fract_z
O1 O 0.91351(18) 0.73081(19) 0.14906(6)
O2 O 0.5304(2) 0.7675(2) -0.00298(6)
N1 N 0.5843(2) 0.5026(2) 0.19137(7)
H1 H 0.6659 0.5011 0.2177
N2 N 0.7210(2) 0.7437(2) 0.07205(7)
N3 N 0.4094(2) 0.6135(2) 0.06502(7)
N4 N 0.3143(2) 0.4550(2) 0.14368(7)
C1 C 0.4084(3) 0.4289(3) 0.18962(9)
H2 H 0.3577 0.3663 0.2175
C2 C 0.6081(2) 0.5807(2) 0.14281(8)
C3 C 0.7611(2) 0.6877(2) 0.12415(8)
C4 C 0.8657(3) 0.8595(3) 0.04801(9)
H3 H 0.8834 0.8091 0.0096
H4 H 0.9747 0.8795 0.0725
H5 H 0.8333 0.9653 0.0463
C5 C 0.5518(2) 0.7112(2) 0.04199(8)
C6 C 0.2271(3) 0.5927(3) 0.03840(10)
H6 H 0.2064 0.5075 0.0044
H7 H 0.2141 0.6984 0.0277
H8 H 0.1416 0.5584 0.0658
C7 C 0.4399(2) 0.5498(2) 0.11473(8)
O3 O 0.84161(19) 0.45252(17) 0.26944(6)
O4 O 1.1493(2) 0.50837(18) 0.44682(6)
N5 N 1.0421(2) 0.8221(2) 0.26774(7)
H9 H 0.9826 0.7985 0.2343
N6 N 1.0002(2) 0.48173(19) 0.35771(7)
N7 N 1.1927(2) 0.74217(19) 0.40282(7)
N8 N 1.2198(2) 0.9719(2) 0.34509(7)
C8 C 1.1462(3) 0.9736(3) 0.29237(9)
H10 H 1.1650 1.0698 0.2744
C9 C 1.0500(2) 0.7125(2) 0.30714(8)
C10 C 0.9540(2) 0.5415(2) 0.30753(8)
C11 C 0.9180(3) 0.3030(2) 0.36258(10)
H11 H 1.0106 0.2430 0.3667
H12 H 0.8407 0.2506 0.3282
H13 H 0.8495 0.2993 0.3960
C12 C 1.1167(2) 0.5735(2) 0.40493(8)
C13 C 1.3056(3) 0.8474(3) 0.45335(8)
H14 H 1.4290 0.8473 0.4485
H15 H 1.2708 0.8021 0.4880
H16 H 1.2909 0.9616 0.4566
C14 C 1.1584(2) 0.8077(2) 0.35388(8)
O5 O 0.03379(19) 0.1786(2) 0.20232(7)
O6 O -0.0437(2) 0.3031(2) 0.12895(7)
H17 H 0.073(5) 0.349(4) 0.1329(14)
O7 O -0.69965(19) 0.0346(2) 0.07723(7)
H18 H -0.658(4) 0.096(4) 0.0491(13)
C15 C -0.0793(3) 0.2007(3) 0.16850(9)
C16 C -0.2739(3) 0.1122(2) 0.16654(8)
C17 C -0.3959(3) 0.1211(2) 0.12186(9)
H19 H -0.3583 0.1849 0.0928
C18 C -0.5751(3) 0.0340(3) 0.12072(9)
C19 C -0.6316(3) -0.0589(3) 0.16478(9)
H20 H -0.7511 -0.1162 0.1643
C20 C -0.5094(3) -0.0658(3) 0.20947(9)
H21 H -0.5478 -0.1274 0.2390
C21 C -0.3300(3) 0.0185(3) 0.21065(9)
H22 H -0.2483 0.0124 0.2405
O8 O 1.3427(2) 1.35707(19) 0.32001(7)
O9 O 1.4542(2) 1.26699(19) 0.39671(7)
H23 H 1.379(4) 1.173(4) 0.3789(13)
O10 O 1.8902(2) 1.78111(18) 0.50706(7)
H24 H 1.872(4) 1.689(4) 0.5267(13)
C22 C 1.4431(3) 1.3840(2) 0.36367(8)
C23 C 1.5668(2) 1.5543(2) 0.38523(8)
C24 C 1.6689(3) 1.5851(2) 0.43796(8)
H25 H 1.6599 1.5004 0.4611
C25 C 1.7857(3) 1.7442(2) 0.45619(8)
C26 C 1.7972(3) 1.8711(2) 0.42134(9)
H26 H 1.8751 1.9768 0.4331
C27 C 1.6924(3) 1.8393(3) 0.36926(9)
H27 H 1.6994 1.9245 0.3464
C28 C 1.5766(3) 1.6808(3) 0.35069(9)
H28 H 1.5067 1.6600 0.3156
loop_
_geom_bond_atom_site_label_1
_geom_bond_atom_site_label_2
_geom_bond_site_symmetry_1
_geom_bond_site_symmetry_2
O1 C3 1_555 1_555
O2 C5 1_555 1_555
N1 H1 1_555 1_555
N2 C3 1_555 1_555
N3 C5 1_555 1_555
N4 C1 1_555 1_555
C1 N1 1_555 1_555
H2 C1 1_555 1_555
C2 N1 1_555 1_555
C3 C2 1_555 1_555
C4 N2 1_555 1_555
H3 C4 1_555 1_555
H4 C4 1_555 1_555
H5 C4 1_555 1_555
C5 N2 1_555 1_555
C6 N3 1_555 1_555
H6 C6 1_555 1_555
H7 C6 1_555 1_555
H8 C6 1_555 1_555
C7 N3 1_555 1_555
O3 C10 1_555 1_555
O4 C12 1_555 1_555
N5 H9 1_555 1_555
N6 C10 1_555 1_555
N7 C12 1_555 1_555
N8 C8 1_555 1_555
C8 N5 1_555 1_555
H10 C8 1_555 1_555
C9 N5 1_555 1_555
C10 C9 1_555 1_555
C11 N6 1_555 1_555
H11 C11 1_555 1_555
H12 C11 1_555 1_555
H13 C11 1_555 1_555
C12 N6 1_555 1_555
C13 N7 1_555 1_555
H14 C13 1_555 1_555
H15 C13 1_555 1_555
H16 C13 1_555 1_555
C14 N7 1_555 1_555
O5 C15 1_555 1_555
O6 H17 1_555 1_555
O7 H18 1_555 1_555
C15 O6 1_555 1_555
C16 C15 1_555 1_555
C17 C16 1_555 1_555
H19 C17 1_555 1_555
C18 O7 1_555 1_555
C19 C18 1_555 1_555
H20 C19 1_555 1_555
C20 C19 1_555 1_555
H21 C20 1_555 1_555
C21 C16 1_555 1_555
H22 C21 1_555 1_555
O8 C22 1_555 1_555
O9 H23 1_555 1_555
O10 H24 1_555 1_555
C22 O9 1_555 1_555
C23 C22 1_555 1_555
C24 C23 1_555 1_555
H25 C24 1_555 1_555
C25 O10 1_555 1_555
C26 C25 1_555 1_555
H26 C26 1_555 1_555
C27 C26 1_555 1_555
H27 C27 1_555 1_555
C28 C23 1_555 1_555
H28 C28 1_555 1_555
N4 C7 1_555 1_555
C2 C7 1_555 1_555
N8 C14 1_555 1_555
C9 C14 1_555 1_555
C17 C18 1_555 1_555
C20 C21 1_555 1_555
C24 C25 1_555 1_555
C27 C28 1_555 1_555

#END
