
#######################################################################
#
#                 Cambridge Crystallographic Data Centre
#                                CCDC 
#
#######################################################################
#
# If this CIF has been generated from an entry in the Cambridge 
# Structural Database, then it will include bibliographic, chemical, 
# crystal, experimental, refinement or atomic coordinate data resulting 
# from the CCDC's data processing and validation procedures.
#
#######################################################################

data_DOPNED
_chemical_name_common            'theophylline 2,4-dihydroxybenzoic acid'
_chemical_formula_moiety         'C7 H8 N4 O2,C7 H6 O4'
_chemical_name_systematic        
'1,3-dimethyl-3,7-dihydro-1H-purine-2,6-dione 2,4-dihydroxybenzoic acid'
_symmetry_cell_setting           monoclinic
_symmetry_space_group_name_H-M   'P 21/c'
_symmetry_Int_Tables_number      14
_space_group_name_Hall           '-P 2ybc'
loop_
_symmetry_equiv_pos_site_id
_symmetry_equiv_pos_as_xyz
1 x,y,z
2 -x,1/2+y,1/2-z
3 -x,-y,-z
4 x,1/2-y,1/2+z
_cell_length_a                   12.565(4)
_cell_length_b                   7.894(3)
_cell_length_c                   14.528(5)
_cell_angle_alpha                90
_cell_angle_beta                 98.840(6)
_cell_angle_gamma                90
_cell_volume                     1423.89
_exptl_crystal_colour            colorless
_exptl_crystal_description       parallelepiped
_cell_formula_units_Z            4
loop_
_atom_site_label
_atom_site_type_symbol
_atom_site_fract_x
_atom_site_fract_y
_atom_site_fract_z
O1 O 0.43743(7) 0.72069(11) 1.06573(6)
O2 O 0.14418(7) 0.37669(12) 0.99182(6)
N1 N 0.47528(8) 0.66571(14) 0.86344(7)
H1 H 0.5275 0.7336 0.8829
N2 N 0.29485(8) 0.53963(12) 1.02875(6)
N3 N 0.24481(8) 0.42383(13) 0.87783(7)
N4 N 0.36466(9) 0.49774(15) 0.76731(7)
C1 C 0.45093(10) 0.59888(18) 0.77773(8)
H2 H 0.4905 0.6210 0.7300
C2 C 0.39939(9) 0.60320(15) 0.91390(7)
C3 C 0.38310(9) 0.63030(14) 1.00684(7)
C4 C 0.27088(10) 0.54958(18) 1.12428(8)
H3 H 0.2709 0.4377 1.1501
H4 H 0.2014 0.6004 1.1237
H5 H 0.3247 0.6172 1.1615
C5 C 0.22297(9) 0.44272(14) 0.96675(8)
C6 C 0.16666(11) 0.33586(17) 0.80840(9)
H6 H 0.1105 0.4131 0.7835
H7 H 0.1361 0.2422 0.8374
H8 H 0.2024 0.2949 0.7589
C7 C 0.33318(9) 0.50276(14) 0.85257(8)
O3 O 0.60399(7) 0.92205(13) 1.08895(6)
H9 H 0.5518 0.8634 1.0686
O4 O 0.64426(7) 0.87422(12) 0.94641(6)
O5 O 0.81628(7) 1.02958(13) 0.89847(6)
H10 H 0.7609 0.9733 0.8886
O6 O 1.03248(7) 1.33890(12) 1.13572(6)
H11 H 1.0675 1.3528 1.0931
C8 C 0.66640(9) 0.94028(15) 1.02390(8)
C9 C 0.76241(9) 1.04330(14) 1.05192(8)
C10 C 0.83304(9) 1.08052(15) 0.98809(8)
C11 C 0.92476(9) 1.17832(15) 1.01587(8)
H12 H 0.9716 1.2019 0.9738
C12 C 0.94632(9) 1.24046(15) 1.10610(8)
C13 C 0.87677(10) 1.20484(16) 1.17062(8)
H13 H 0.8915 1.2460 1.2312
C14 C 0.78668(10) 1.10831(16) 1.14287(8)
H14 H 0.7404 1.0852 1.1854
loop_
_geom_bond_atom_site_label_1
_geom_bond_atom_site_label_2
_geom_bond_site_symmetry_1
_geom_bond_site_symmetry_2
O1 C3 1_555 1_555
O2 C5 1_555 1_555
N1 H1 1_555 1_555
N2 C3 1_555 1_555
N3 C5 1_555 1_555
N4 C1 1_555 1_555
C1 N1 1_555 1_555
H2 C1 1_555 1_555
C2 N1 1_555 1_555
C3 C2 1_555 1_555
C4 N2 1_555 1_555
H3 C4 1_555 1_555
H4 C4 1_555 1_555
H5 C4 1_555 1_555
C5 N2 1_555 1_555
C6 N3 1_555 1_555
H6 C6 1_555 1_555
H7 C6 1_555 1_555
H8 C6 1_555 1_555
C7 N3 1_555 1_555
O3 H9 1_555 1_555
O4 C8 1_555 1_555
O5 H10 1_555 1_555
O6 H11 1_555 1_555
C8 O3 1_555 1_555
C9 C8 1_555 1_555
C10 O5 1_555 1_555
C11 C10 1_555 1_555
H12 C11 1_555 1_555
C12 O6 1_555 1_555
C13 C12 1_555 1_555
H13 C13 1_555 1_555
C14 C9 1_555 1_555
H14 C14 1_555 1_555
N4 C7 1_555 1_555
C2 C7 1_555 1_555
C9 C10 1_555 1_555
C11 C12 1_555 1_555
C13 C14 1_555 1_555

#END
