
#######################################################################
#
#                 Cambridge Crystallographic Data Centre
#                                CCDC 
#
#######################################################################
#
# If this CIF has been generated from an entry in the Cambridge 
# Structural Database, then it will include bibliographic, chemical, 
# crystal, experimental, refinement or atomic coordinate data resulting 
# from the CCDC's data processing and validation procedures.
#
#######################################################################

data_DOPRIL
_chemical_formula_moiety         'C48 H38 N12 O4'
_chemical_name_systematic        
"4,4',4'',4'''-porphyrin-5,10,15,20-tetrayltetrabenzohydrazide unknown solvate"
_symmetry_cell_setting           monoclinic
_symmetry_space_group_name_H-M   'P 2/c'
_symmetry_Int_Tables_number      13
_space_group_name_Hall           '-P 2yc'
loop_
_symmetry_equiv_pos_site_id
_symmetry_equiv_pos_as_xyz
1 x,y,z
2 -x,y,1/2-z
3 -x,-y,-z
4 x,-y,1/2+z
_cell_length_a                   15.4686(21)
_cell_length_b                   7.1733(9)
_cell_length_c                   23.1540(31)
_cell_angle_alpha                90
_cell_angle_beta                 104.225(3)
_cell_angle_gamma                90
_cell_volume                     2490.41
_exptl_crystal_colour            purple
_cell_formula_units_Z            2
loop_
_atom_site_label
_atom_site_type_symbol
_atom_site_fract_x
_atom_site_fract_y
_atom_site_fract_z
C1 C 0.3586 1.3881 0.2064
O1 O 0.3281 1.5453 0.2130
N1 N 0.3662 1.3265 0.1551
H1 H 0.3838 1.2088 0.1510
N2 N 0.3482 1.4520 0.1050
H2 H 0.3306 1.5694 0.1098
H3 H 0.3531 1.4133 0.0690
C2 C 0.6547 0.7713 0.4968
C3 C 0.6728 0.9287 0.4644
H4 H 0.7289 0.9885 0.4693
C4 C 0.5958 0.9784 0.4253
H5 H 0.5887 1.0791 0.3979
C5 C 0.5274 0.8541 0.4324
C6 C 0.4396 0.8504 0.3975
C7 C 0.3737 0.7244 0.4025
C8 C 0.2829 0.7277 0.3663
H6 H 0.2588 0.8132 0.3351
C9 C 0.2395 0.5880 0.3849
H7 H 0.1785 0.5564 0.3696
C10 C 0.3019 0.4937 0.4326
C11 C 0.2828 0.3332 0.4613
C12 C 0.4181 0.9913 0.3478
C13 C 0.4149 1.1809 0.3598
H8 H 0.4264 1.2234 0.3998
C14 C 0.3949 1.3065 0.3136
H9 H 0.3911 1.4355 0.3220
C15 C 0.3802 1.2479 0.2551
C16 C 0.3842 1.0601 0.2433
H10 H 0.3743 1.0180 0.2033
C17 C 0.4024 0.9337 0.2892
H11 H 0.4042 0.8045 0.2806
C18 C 0.1888 0.2647 0.4479
C19 C 0.1214 0.3724 0.4609
H12 H 0.1347 0.4926 0.4780
C20 C 0.0348 0.3052 0.4491
H13 H -0.0111 0.3804 0.4576
C21 C 0.0148 0.1285 0.4249
C22 C 0.0816 0.0242 0.4108
H14 H 0.0684 -0.0953 0.3931
C23 C 0.1674 0.0922 0.4221
H15 H 0.2126 0.0188 0.4120
C24 C -0.0774 0.0583 0.4140
N3 N 0.5656 0.7307 0.4770
H16 H 0.5375 0.6407 0.4907
N4 N 0.3834 0.5804 0.4427
N5 N -0.0909 -0.1016 0.3854
H17 H -0.0474 -0.1559 0.3734
N6 N -0.1778 -0.1867 0.3740
H18 H -0.2211 -0.1317 0.3862
H19 H -0.1876 -0.2937 0.3549
O2 O -0.1370 0.1390 0.4300
C1B C 0.6414 -0.3881 0.7936
O1B O 0.6719 -0.5453 0.7870
N1B N 0.6338 -0.3265 0.8449
H1B H 0.6162 -0.2088 0.8490
N2B N 0.6518 -0.4520 0.8950
H2B H 0.6694 -0.5694 0.8902
H3B H 0.6469 -0.4133 0.9310
C2B C 0.3453 0.2287 0.5032
C3B C 0.3272 0.0713 0.5356
H4B H 0.2711 0.0115 0.5307
C4B C 0.4042 0.0216 0.5747
H5B H 0.4113 -0.0791 0.6021
C5B C 0.4726 0.1459 0.5676
C6B C 0.5604 0.1496 0.6025
C7B C 0.6263 0.2756 0.5975
C8B C 0.7171 0.2723 0.6337
H6B H 0.7412 0.1868 0.6649
C9B C 0.7605 0.4120 0.6151
H7B H 0.8215 0.4436 0.6304
C10B C 0.6981 0.5063 0.5674
C11B C 0.7172 0.6668 0.5387
C12B C 0.5819 0.0087 0.6522
C13B C 0.5851 -0.1809 0.6402
H8B H 0.5736 -0.2234 0.6002
C14B C 0.6051 -0.3065 0.6864
H9B H 0.6089 -0.4355 0.6780
C15B C 0.6198 -0.2479 0.7449
C16B C 0.6158 -0.0601 0.7567
H10B H 0.6257 -0.0180 0.7967
C17B C 0.5976 0.0663 0.7108
H11B H 0.5958 0.1955 0.7194
C18B C 0.8112 0.7353 0.5521
C19B C 0.8786 0.6276 0.5391
H12B H 0.8653 0.5074 0.5220
C20B C 0.9652 0.6948 0.5509
H13B H 1.0111 0.6196 0.5424
C21B C 0.9852 0.8715 0.5751
C22B C 0.9184 0.9758 0.5892
H14B H 0.9316 1.0953 0.6069
C23B C 0.8326 0.9078 0.5779
H15B H 0.7874 0.9812 0.5880
C24B C 1.0774 0.9417 0.5860
N3B N 0.4344 0.2693 0.5230
H16B H 0.4625 0.3593 0.5093
N4B N 0.6166 0.4196 0.5573
N5B N 1.0909 1.1016 0.6146
H17B H 1.0474 1.1559 0.6266
N6B N 1.1778 1.1867 0.6260
H18B H 1.2211 1.1317 0.6138
H19B H 1.1876 1.2937 0.6451
O2B O 1.1370 0.8610 0.5700
O3? O 0.3757 1.5579 0.2140
N7? N 0.3341 1.3078 0.1512
H20? H 0.3377 1.1836 0.1468
N8? N 0.3044 1.4297 0.0992
H21? H 0.3011 1.5537 0.1042
H22? H 0.2889 1.3806 0.0623
loop_
_geom_bond_atom_site_label_1
_geom_bond_atom_site_label_2
_geom_bond_site_symmetry_1
_geom_bond_site_symmetry_2
C1 O1 1_555 1_555
N1 C1 1_555 1_555
H1 N1 1_555 1_555
N2 N1 1_555 1_555
H2 N2 1_555 1_555
H3 N2 1_555 1_555
C2 C3 1_555 1_555
C3 H4 1_555 1_555
C4 C3 1_555 1_555
H5 C4 1_555 1_555
C5 C4 1_555 1_555
C6 C5 1_555 1_555
C7 C6 1_555 1_555
C8 C7 1_555 1_555
H6 C8 1_555 1_555
C9 C8 1_555 1_555
H7 C9 1_555 1_555
C10 C9 1_555 1_555
C11 C10 1_555 1_555
C12 C6 1_555 1_555
C13 C12 1_555 1_555
H8 C13 1_555 1_555
C14 C13 1_555 1_555
H9 C14 1_555 1_555
C15 C1 1_555 1_555
C16 C15 1_555 1_555
H10 C16 1_555 1_555
C17 C12 1_555 1_555
H11 C17 1_555 1_555
C18 C11 1_555 1_555
C19 C18 1_555 1_555
H12 C19 1_555 1_555
C20 C19 1_555 1_555
H13 C20 1_555 1_555
C21 C20 1_555 1_555
C22 C21 1_555 1_555
H14 C22 1_555 1_555
C23 C18 1_555 1_555
H15 C23 1_555 1_555
C24 C21 1_555 1_555
N3 C2 1_555 1_555
H16 N3 1_555 1_555
N4 C7 1_555 1_555
N5 C24 1_555 1_555
H17 N5 1_555 1_555
N6 N5 1_555 1_555
H18 N6 1_555 1_555
H19 N6 1_555 1_555
O2 C24 1_555 1_555
C1B O1B 1_555 1_555
N1B C1B 1_555 1_555
H1B N1B 1_555 1_555
N2B N1B 1_555 1_555
H2B N2B 1_555 1_555
H3B N2B 1_555 1_555
C2B C11 1_555 1_555
C3B C2B 1_555 1_555
H4B C3B 1_555 1_555
C4B C3B 1_555 1_555
H5B C4B 1_555 1_555
C5B C4B 1_555 1_555
C6B C5B 1_555 1_555
C7B C6B 1_555 1_555
C8B C7B 1_555 1_555
H6B C8B 1_555 1_555
C9B C8B 1_555 1_555
H7B C9B 1_555 1_555
C10B C9B 1_555 1_555
C11B C2 1_555 1_555
C12B C6B 1_555 1_555
C13B C12B 1_555 1_555
H8B C13B 1_555 1_555
C14B C13B 1_555 1_555
H9B C14B 1_555 1_555
C15B C1B 1_555 1_555
C16B C15B 1_555 1_555
H10B C16B 1_555 1_555
C17B C12B 1_555 1_555
H11B C17B 1_555 1_555
C18B C11B 1_555 1_555
C19B C18B 1_555 1_555
H12B C19B 1_555 1_555
C20B C19B 1_555 1_555
H13B C20B 1_555 1_555
C21B C20B 1_555 1_555
C22B C21B 1_555 1_555
H14B C22B 1_555 1_555
C23B C18B 1_555 1_555
H15B C23B 1_555 1_555
C24B C21B 1_555 1_555
N3B C2B 1_555 1_555
H16B N3B 1_555 1_555
N4B C7B 1_555 1_555
N5B C24B 1_555 1_555
H17B N5B 1_555 1_555
N6B N5B 1_555 1_555
H18B N6B 1_555 1_555
H19B N6B 1_555 1_555
O2B C24B 1_555 1_555
C5 N3 1_555 1_555
C10 N4 1_555 1_555
C14 C15 1_555 1_555
C16 C17 1_555 1_555
C22 C23 1_555 1_555
C5B N3B 1_555 1_555
C10B C11B 1_555 1_555
C10B N4B 1_555 1_555
C14B C15B 1_555 1_555
C16B C17B 1_555 1_555
C22B C23B 1_555 1_555

#END
