
#######################################################################
#
#                 Cambridge Crystallographic Data Centre
#                                CCDC 
#
#######################################################################
#
# If this CIF has been generated from an entry in the Cambridge 
# Structural Database, then it will include bibliographic, chemical, 
# crystal, experimental, refinement or atomic coordinate data resulting 
# from the CCDC's data processing and validation procedures.
#
#######################################################################

data_DOPVEJ
_chemical_formula_moiety         'C35 H59 Li1 O11,H2 O1'
_chemical_name_systematic        'Monensin B-lithium monohydrate'
_symmetry_cell_setting           orthorhombic
_symmetry_space_group_name_H-M   'P 21 21 21'
_symmetry_Int_Tables_number      19
_space_group_name_Hall           'P 2ac 2ab'
loop_
_symmetry_equiv_pos_site_id
_symmetry_equiv_pos_as_xyz
1 x,y,z
2 1/2+x,1/2-y,-z
3 -x,1/2+y,1/2-z
4 1/2-x,-y,1/2+z
_cell_length_a                   12.014(2)
_cell_length_b                   14.978(2)
_cell_length_c                   20.724(4)
_cell_angle_alpha                90
_cell_angle_beta                 90
_cell_angle_gamma                90
_cell_volume                     3729.19
_cell_formula_units_Z            4
loop_
_atom_site_label
_atom_site_type_symbol
_atom_site_fract_x
_atom_site_fract_y
_atom_site_fract_z
O1 O 0.4810(3) -0.0076(2) 0.1207(2)
O2 O 0.4202(3) 0.1283(2) 0.0957(2)
O3 O 0.7326(3) 0.1354(2) -0.0055(2)
O4 O 0.4804(2) 0.2235(2) 0.2576(1)
O5 O 0.7491(2) 0.1461(2) 0.2224(1)
O6 O 0.6293(2) 0.0989(2) 0.3039(1)
O7 O 0.5022(2) 0.0169(2) 0.3908(1)
O8 O 0.3594(2) 0.1639(2) 0.3976(1)
O9 O 0.2557(2) 0.1336(2) 0.2920(1)
O10 O 0.2939(2) 0.1818(2) 0.1883(1)
O11 O 0.3891(2) 0.0184(2) 0.2337(1)
Li1 Li 0.4498(6) 0.1063(5) 0.3042(4)
C1 C 0.4824(4) 0.0618(4) 0.0865(2)
C2 C 0.5661(4) 0.0704(3) 0.0316(2)
C3 C 0.6562(4) 0.1402(3) 0.0476(2)
C4 C 0.7230(4) 0.1266(3) 0.1102(2)
C5 C 0.6652(3) 0.1564(3) 0.1730(2)
C6 C 0.6226(4) 0.2530(3) 0.1738(2)
C7 C 0.5779(4) 0.2744(3) 0.2414(2)
C8 C 0.6629(4) 0.2553(3) 0.2930(2)
C9 C 0.7121(4) 0.1626(3) 0.2866(2)
C10 C 0.8103(4) 0.1440(4) 0.3305(3)
C11 C 0.8020(4) 0.0429(3) 0.3432(3)
C12 C 0.6771(4) 0.0222(3) 0.3373(2)
C13 C 0.6194(4) 0.0194(3) 0.4031(2)
C14 C 0.6317(5) 0.0985(4) 0.4485(2)
C15 C 0.5267(4) 0.0968(4) 0.4882(2)
C16 C 0.4445(4) 0.0371(3) 0.4507(2)
C17 C 0.3373(4) 0.0791(3) 0.4289(2)
C18 C 0.2437(4) 0.1010(4) 0.4762(2)
C19 C 0.1706(4) 0.1564(4) 0.4315(2)
C20 C 0.2532(4) 0.2098(3) 0.3915(2)
C21 C 0.2258(4) 0.2187(3) 0.3185(2)
C22 C 0.1038(4) 0.2418(3) 0.3059(2)
C23 C 0.0771(4) 0.2254(3) 0.2349(3)
C24 C 0.1084(4) 0.1317(4) 0.2138(2)
C25 C 0.2328(4) 0.1195(3) 0.2255(2)
C26 C 0.2755(4) 0.0245(3) 0.2151(2)
C27 C 0.5073(5) 0.0945(4) -0.0318(3)
C28 C 0.7825(7) 0.2168(4) -0.0230(3)
C29 C 0.7652(4) 0.0286(3) 0.1168(3)
C30 C 0.7108(5) 0.3214(3) 0.1544(3)
C31 C 0.6535(5) -0.0606(3) 0.2980(3)
C32 C 0.4203(6) -0.0504(4) 0.4865(3)
C33 C 0.2781(5) 0.1534(4) 0.5367(2)
C34 C 0.0769(5) 0.3375(4) 0.3262(3)
C35 C 0.0742(6) 0.1145(6) 0.1467(3)
O12 O 0.5241(4) -0.1694(3) 0.0586(2)
loop_
_geom_bond_atom_site_label_1
_geom_bond_atom_site_label_2
_geom_bond_site_symmetry_1
_geom_bond_site_symmetry_2
O1 C1 1_555 1_555
O2 C1 1_555 1_555
O3 C3 1_555 1_555
O4 Li1 1_555 1_555
O5 C5 1_555 1_555
O6 Li1 1_555 1_555
O7 C13 1_555 1_555
O8 C17 1_555 1_555
O9 C21 1_555 1_555
O10 C25 1_555 1_555
O11 Li1 1_555 1_555
C1 C2 1_555 1_555
C2 C3 1_555 1_555
C3 C4 1_555 1_555
C4 C5 1_555 1_555
C5 C6 1_555 1_555
C6 C7 1_555 1_555
C7 O4 1_555 1_555
C8 C7 1_555 1_555
C9 O5 1_555 1_555
C10 C9 1_555 1_555
C11 C10 1_555 1_555
C12 O6 1_555 1_555
C13 C12 1_555 1_555
C14 C13 1_555 1_555
C15 C14 1_555 1_555
C16 O7 1_555 1_555
C17 C16 1_555 1_555
C18 C17 1_555 1_555
C19 C18 1_555 1_555
C20 O8 1_555 1_555
C21 C20 1_555 1_555
C22 C21 1_555 1_555
C23 C22 1_555 1_555
C24 C23 1_555 1_555
C25 O9 1_555 1_555
C26 O11 1_555 1_555
C27 C2 1_555 1_555
C28 O3 1_555 1_555
C29 C4 1_555 1_555
C30 C6 1_555 1_555
C31 C12 1_555 1_555
C32 C16 1_555 1_555
C33 C18 1_555 1_555
C34 C22 1_555 1_555
C35 C24 1_555 1_555
O6 C9 1_555 1_555
C8 C9 1_555 1_555
C11 C12 1_555 1_555
C15 C16 1_555 1_555
C19 C20 1_555 1_555
C24 C25 1_555 1_555
C25 C26 1_555 1_555

#END
