
#######################################################################
#
#                 Cambridge Crystallographic Data Centre
#                                CCDC 
#
#######################################################################
#
# If this CIF has been generated from an entry in the Cambridge 
# Structural Database, then it will include bibliographic, chemical, 
# crystal, experimental, refinement or atomic coordinate data resulting 
# from the CCDC's data processing and validation procedures.
#
#######################################################################

data_DOPXIP
_chemical_name_common            
"4a,9b-trans-8-Fluoro-5-(4-fluorophenyl)-2-(N'-(3-bromophenyl)-carbamoyl)-1,2,3,4,4a,9b-hexahydro-gamma-carboline acetic acid solvate"
_chemical_formula_moiety         'C24 H20 Br1 F2 N3 O1,C2 H4 O2'
_chemical_name_systematic        
"4a,9b-trans-8-Fluoro-5-(4-fluorophenyl)-2-(N'-(3-bromophenyl)-carbamoyl)-1,2,3,4,4a,9b-hexahydro-1H-pyrido(4,3-b)indole acetic acid solvate"
_chemical_properties_biological  'neuroleptic activity'
_symmetry_cell_setting           triclinic
_symmetry_space_group_name_H-M   'P 1'
_symmetry_Int_Tables_number      1
_space_group_name_Hall           'P 1'
loop_
_symmetry_equiv_pos_site_id
_symmetry_equiv_pos_as_xyz
1 x,y,z
_cell_length_a                   14.539(2)
_cell_length_b                   9.868(1)
_cell_length_c                   9.760(1)
_cell_angle_alpha                115.49(1)
_cell_angle_beta                 91.66(1)
_cell_angle_gamma                103.18(1)
_cell_volume                     1217.74
_cell_formula_units_Z            2
loop_
_atom_site_label
_atom_site_type_symbol
_atom_site_fract_x
_atom_site_fract_y
_atom_site_fract_z
Br1 Br 0.0000 0.0000 0.0000
N1 N -0.7186(6) -0.3561(10) -0.6337(10)
C1 C -0.6256(8) -0.2485(13) -0.6072(12)
C2 C -0.5625(9) -0.2978(14) -0.5249(14)
C3 C -0.6020(9) -0.4726(15) -0.6079(14)
C4 C -0.6967(9) -0.5054(14) -0.6744(14)
C5 C -0.6163(8) -0.0778(16) -0.5140(13)
C6 C -0.5150(8) 0.0090(12) -0.4957(14)
N2 N -0.4494(7) -0.0477(10) -0.4233(10)
C7 C -0.4600(7) -0.2172(12) -0.5042(12)
C8 C -0.5629(9) -0.5933(14) -0.6167(13)
C9 C -0.6232(9) -0.7396(15) -0.6938(14)
C10 C -0.7102(11) -0.7732(16) -0.7604(16)
C11 C -0.7495(9) -0.6494(17) -0.7512(15)
C12 C -0.3787(8) 0.0636(15) -0.3153(14)
O1 O -0.3644(6) 0.2013(9) -0.2725(9)
N3 N -0.3199(7) 0.0087(11) -0.2439(11)
C13 C -0.2380(8) 0.0954(13) -0.1417(13)
C14 C -0.2259(9) 0.2548(14) -0.0418(13)
C15 C -0.1424(10) 0.3373(14) 0.0662(15)
C16 C -0.0723(9) 0.2633(15) 0.0798(14)
C17 C -0.0912(9) 0.1094(16) -0.0173(14)
C18 C -0.1693(9) 0.0243(15) -0.1250(15)
C19 C -0.7973(8) -0.3492(14) -0.7189(14)
C20 C -0.7984(10) -0.3566(27) -0.8686(21)
C21 C -0.8760(10) -0.3652(28) -0.9415(24)
C22 C -0.9482(11) -0.3357(17) -0.8687(23)
C23 C -0.9483(10) -0.3069(21) -0.7175(22)
C24 C -0.8703(8) -0.3236(18) -0.6560(15)
F1 F -0.5895(7) -0.8628(9) -0.7096(8)
F2 F -1.0243(7) -0.3162(13) -0.9499(15)
Br2 Br -0.8054(1) -0.1255(2) -0.1876(2)
N4 N -0.1038(6) 0.2417(10) 0.5214(10)
C25 C -0.1654(8) 0.1156(13) 0.3844(12)
C26 C -0.2476(8) 0.1770(15) 0.3689(15)
C27 C -0.2008(10) 0.3471(15) 0.4323(14)
C28 C -0.1144(9) 0.3743(14) 0.5136(14)
C29 C -0.1978(9) -0.0484(13) 0.3747(15)
C30 C -0.2650(9) -0.1462(12) 0.2273(16)
N5 N -0.3423(6) -0.0855(11) 0.1953(11)
C31 C -0.3151(8) 0.0830(10) 0.2276(12)
C32 C -0.2287(9) 0.4629(15) 0.4184(15)
C33 C -0.1671(12) 0.6154(16) 0.5033(16)
C34 C -0.0814(10) 0.6475(15) 0.5807(16)
C35 C -0.0503(10) 0.5306(15) 0.5963(16)
C36 C -0.4213(8) -0.1859(13) 0.0974(12)
O2 O -0.4389(7) -0.3291(10) 0.0658(10)
N6 N -0.4780(7) -0.1320(11) 0.0317(11)
C37 C -0.5620(8) -0.2259(13) -0.0708(12)
C38 C -0.5820(8) -0.3859(13) -0.1712(13)
C39 C -0.6650(9) -0.4598(15) -0.2661(15)
C40 C -0.7322(9) -0.3920(16) -0.2767(14)
C41 C -0.7128(8) -0.2278(15) -0.1799(14)
C42 C -0.6307(9) -0.1501(15) -0.0771(15)
C43 C -0.0136(9) 0.2275(14) 0.5659(13)
C44 C 0.0132(12) 0.2736(23) 0.7130(19)
C45 C 0.1016(12) 0.2256(26) 0.7564(19)
C46 C 0.1526(10) 0.1788(16) 0.6579(19)
C47 C 0.1334(12) 0.1537(24) 0.5295(25)
C48 C 0.0482(11) 0.1691(22) 0.4688(18)
F3 F -0.2001(7) 0.7330(8) 0.4942(9)
F4 F 0.2380(6) 0.1701(12) 0.7013(13)
O3 O -0.3445(7) -0.3263(10) -0.2717(12)
C49 C -0.3329(9) -0.4305(18) -0.2577(14)
C50 C -0.2457(9) -0.4365(16) -0.1657(15)
O4 O -0.3952(6) -0.5694(10) -0.3289(10)
O5 O -0.4050(6) -0.5559(10) -0.8863(10)
C51 C -0.4717(9) -0.6940(13) -0.9578(13)
C52 C -0.5541(10) -0.7027(15) -1.0422(16)
O6 O -0.4549(7) -0.8056(11) -0.9403(12)
loop_
_geom_bond_atom_site_label_1
_geom_bond_atom_site_label_2
_geom_bond_site_symmetry_1
_geom_bond_site_symmetry_2
Br1 C17 1_555 1_555
N1 C1 1_555 1_555
C1 C2 1_555 1_555
C2 C3 1_555 1_555
C3 C4 1_555 1_555
C4 N1 1_555 1_555
C5 C1 1_555 1_555
C6 C5 1_555 1_555
N2 C6 1_555 1_555
C7 C2 1_555 1_555
C8 C3 1_555 1_555
C9 C8 1_555 1_555
C10 C9 1_555 1_555
C11 C4 1_555 1_555
C12 N2 1_555 1_555
O1 C12 1_555 1_555
N3 C12 1_555 1_555
C13 N3 1_555 1_555
C14 C13 1_555 1_555
C15 C14 1_555 1_555
C16 C15 1_555 1_555
C17 C16 1_555 1_555
C18 C13 1_555 1_555
C19 N1 1_555 1_555
C20 C19 1_555 1_555
C21 C20 1_555 1_555
C22 C21 1_555 1_555
C23 C22 1_555 1_555
C24 C19 1_555 1_555
F1 C9 1_555 1_555
F2 C22 1_555 1_555
Br2 C41 1_555 1_555
N4 C25 1_555 1_555
C25 C26 1_555 1_555
C26 C27 1_555 1_555
C27 C28 1_555 1_555
C28 N4 1_555 1_555
C29 C25 1_555 1_555
C30 C29 1_555 1_555
N5 C30 1_555 1_555
C31 C26 1_555 1_555
C32 C27 1_555 1_555
C33 C32 1_555 1_555
C34 C33 1_555 1_555
C35 C28 1_555 1_555
C36 N5 1_555 1_555
O2 C36 1_555 1_555
N6 C36 1_555 1_555
C37 N6 1_555 1_555
C38 C37 1_555 1_555
C39 C38 1_555 1_555
C40 C39 1_555 1_555
C41 C40 1_555 1_555
C42 C37 1_555 1_555
C43 N4 1_555 1_555
C44 C43 1_555 1_555
C45 C44 1_555 1_555
C46 C45 1_555 1_555
C47 C46 1_555 1_555
C48 C43 1_555 1_555
F3 C33 1_555 1_555
F4 C46 1_555 1_555
O3 C49 1_555 1_555
C49 C50 1_555 1_555
O4 C49 1_555 1_555
O5 C51 1_555 1_555
C51 C52 1_555 1_555
O6 C51 1_555 1_555
N2 C7 1_555 1_555
C10 C11 1_555 1_555
C17 C18 1_555 1_555
C23 C24 1_555 1_555
N5 C31 1_555 1_555
C34 C35 1_555 1_555
C41 C42 1_555 1_555
C47 C48 1_555 1_555

#END
