
#######################################################################
#
#                 Cambridge Crystallographic Data Centre
#                                CCDC 
#
#######################################################################
#
# If this CIF has been generated from an entry in the Cambridge 
# Structural Database, then it will include bibliographic, chemical, 
# crystal, experimental, refinement or atomic coordinate data resulting 
# from the CCDC's data processing and validation procedures.
#
#######################################################################

data_DOQJUP
_chemical_formula_moiety         'C78 H32 O11,C7 H8,C2 H6 O1'
_chemical_name_systematic        
'1,3-(3,6-dioxocyclohex-4-en-1,2-diyl)-9-hydroxy-2,12-epoxy-6,18-bis(t-butylperoxy)-1(9)a-homo-1a-oxa-C60fullerene toluene ethanol solvate'
_symmetry_cell_setting           monoclinic
_symmetry_space_group_name_H-M   'P 21/c'
_symmetry_Int_Tables_number      14
_space_group_name_Hall           '-P 2ybc'
loop_
_symmetry_equiv_pos_site_id
_symmetry_equiv_pos_as_xyz
1 x,y,z
2 -x,1/2+y,1/2-z
3 -x,-y,-z
4 x,1/2-y,1/2+z
_cell_length_a                   15.358(3)
_cell_length_b                   13.053(3)
_cell_length_c                   28.534(6)
_cell_angle_alpha                90
_cell_angle_beta                 98.99(3)
_cell_angle_gamma                90
_cell_volume                     5649.88
_exptl_crystal_colour            red
_exptl_crystal_description       needle
_cell_formula_units_Z            4
_exptl_crystal_recrystallization_method toluene/ethanol
loop_
_atom_site_label
_atom_site_type_symbol
_atom_site_fract_x
_atom_site_fract_y
_atom_site_fract_z
C1 C 0.1229(2) 0.8278(2) 0.29416(12)
C2 C 0.1561(2) 0.8984(2) 0.36876(11)
C3 C 0.1293(2) 0.9964(3) 0.33566(12)
C4 C 0.1934(2) 1.0863(3) 0.34075(13)
C5 C 0.2301(2) 1.1210(3) 0.29883(13)
H1 H 0.2668 1.1800 0.3023
C6 C 0.2160(2) 1.0762(3) 0.25628(13)
H2 H 0.2431 1.1039 0.2314
C7 C 0.1597(2) 0.9853(3) 0.24689(13)
C8 C 0.1097(2) 0.9461(3) 0.28449(12)
C9 C 0.1590(2) 0.8932(2) 0.42378(12)
C10 C 0.1352(2) 1.0859(3) 0.50731(13)
C11 C 0.1215(2) 1.0671(3) 0.55777(12)
H3 H 0.0629 1.0378 0.5579
H4 H 0.1264 1.1321 0.5752
H5 H 0.1665 1.0193 0.5730
C12 C 0.0672(2) 1.1589(3) 0.48200(13)
H6 H 0.0750 1.1649 0.4487
H7 H 0.0744 1.2264 0.4972
H8 H 0.0080 1.1327 0.4838
C13 C 0.2286(2) 1.1211(3) 0.50478(14)
H9 H 0.2703 1.0681 0.5183
H10 H 0.2406 1.1847 0.5229
H11 H 0.2350 1.1331 0.4716
C14 C 0.3293(2) 0.8723(2) 0.37913(12)
C15 C 0.4758(2) 1.0746(3) 0.40793(13)
C16 C 0.4232(3) 1.0961(3) 0.44694(14)
H12 H 0.3610 1.1049 0.4334
H13 H 0.4451 1.1589 0.4636
H14 H 0.4292 1.0387 0.4693
C17 C 0.4622(3) 1.1558(3) 0.37017(15)
H15 H 0.4963 1.1386 0.3450
H16 H 0.4819 1.2221 0.3841
H17 H 0.3994 1.1597 0.3568
C18 C 0.5733(2) 1.0588(3) 0.42646(14)
H18 H 0.5803 1.0029 0.4497
H19 H 0.5981 1.1219 0.4416
H20 H 0.6043 1.0414 0.4000
C19 C 0.2851(2) 0.7486(3) 0.28771(12)
C20 C 0.4172(2) 0.9004(3) 0.22936(14)
C21 C 0.3787(3) 0.9063(4) 0.17735(14)
H21 H 0.3488 0.8417 0.1674
H22 H 0.4260 0.9183 0.1586
H23 H 0.3362 0.9628 0.1723
C22 C 0.4826(2) 0.8138(3) 0.23948(15)
H24 H 0.5030 0.8094 0.2737
H25 H 0.5330 0.8264 0.2230
H26 H 0.4542 0.7492 0.2282
C23 C 0.4574(3) 1.0009(3) 0.24971(16)
H27 H 0.4154 1.0568 0.2411
H28 H 0.5117 1.0148 0.2368
H29 H 0.4710 0.9956 0.2843
C24 C 0.2387(2) 0.8577(2) 0.35274(11)
C25 C 0.2192(2) 0.8097(2) 0.31077(12)
C26 C 0.0865(2) 0.8285(2) 0.34009(12)
C27 C 0.0274(2) 0.7584(2) 0.35897(12)
C28 C 0.0771(2) 0.6619(3) 0.26069(12)
C29 C 0.2514(2) 0.6388(2) 0.27614(11)
C30 C 0.3207(2) 0.5684(3) 0.29619(12)
C31 C 0.3897(2) 0.6237(3) 0.32506(13)
C32 C 0.1666(2) 0.6050(2) 0.26756(11)
C33 C 0.1471(2) 0.5027(3) 0.28274(11)
C34 C 0.2132(2) 0.4342(3) 0.30042(12)
C35 C 0.3035(2) 0.4678(3) 0.30655(12)
C36 C 0.0670(2) 0.5067(3) 0.30349(12)
C37 C 0.0361(2) 0.6118(2) 0.30073(12)
C38 C 0.0075(2) 0.6522(3) 0.33960(12)
C39 C -0.0001(2) 0.5882(3) 0.38001(12)
C40 C 0.0215(2) 0.4844(3) 0.38048(12)
C41 C 0.0581(2) 0.4434(3) 0.34155(13)
C42 C 0.0399(2) 0.7497(2) 0.41146(12)
C43 C 0.0184(2) 0.6472(3) 0.42301(13)
C44 C 0.1027(2) 0.8056(3) 0.44010(12)
C45 C 0.1479(2) 0.7568(3) 0.48203(12)
C46 C 0.1257(2) 0.6587(3) 0.49498(12)
C47 C 0.0582(2) 0.6015(3) 0.46523(12)
C48 C 0.2507(2) 0.8586(2) 0.45066(11)
C49 C 0.2397(2) 0.7886(3) 0.48832(12)
C50 C 0.3048(2) 0.7187(3) 0.50687(11)
C51 C 0.2818(2) 0.6163(3) 0.51985(11)
C52 C 0.1948(2) 0.5856(3) 0.51445(11)
C53 C 0.3840(2) 0.7141(3) 0.48617(11)
C54 C 0.4120(2) 0.6074(3) 0.48620(12)
C55 C 0.3482(2) 0.5475(3) 0.50709(12)
C56 C 0.4296(2) 0.7374(2) 0.40807(12)
C57 C 0.4574(2) 0.6353(3) 0.40830(13)
C58 C 0.3866(2) 0.7850(2) 0.36600(12)
C59 C 0.3662(2) 0.7300(3) 0.32516(12)
C60 C 0.1683(2) 0.4859(3) 0.49568(12)
C61 C 0.2316(2) 0.4188(3) 0.48305(12)
C62 C 0.2130(2) 0.3592(2) 0.43967(13)
C63 C 0.1314(2) 0.3680(2) 0.41058(13)
C64 C 0.0656(2) 0.4383(3) 0.42379(13)
C65 C 0.0841(2) 0.4955(3) 0.46526(13)
C66 C 0.3231(2) 0.4503(3) 0.48888(12)
C67 C 0.3610(2) 0.4100(2) 0.44877(13)
C68 C 0.2929(2) 0.3541(2) 0.41853(13)
C69 C 0.2883(2) 0.3588(2) 0.36992(13)
C70 C 0.4219(2) 0.4690(3) 0.42877(13)
C71 C 0.4157(2) 0.4736(3) 0.37796(13)
C72 C 0.3506(2) 0.4198(2) 0.34897(13)
C73 C 0.3267(2) 0.8520(2) 0.43120(12)
C74 C 0.3931(2) 0.7771(2) 0.44840(12)
C75 C 0.4370(2) 0.5772(3) 0.36526(13)
C76 C 0.4475(2) 0.5693(3) 0.44788(13)
C77 C 0.1266(2) 0.3719(2) 0.35973(13)
C78 C 0.2030(2) 0.3683(2) 0.33960(12)
O1 O 0.15069(16) 0.94451(19) 0.20744(8)
O2 O 0.21236(16) 1.13083(18) 0.37834(9)
O3 O 0.35761(14) 0.97276(16) 0.36752(8)
O4 O 0.45294(14) 0.97415(17) 0.38742(9)
O5 O 0.30191(15) 0.79085(18) 0.24383(8)
O6 O 0.34638(15) 0.88889(17) 0.25778(8)
O7 O 0.13039(14) 0.99116(17) 0.43636(8)
O8 O 0.12166(15) 0.98316(17) 0.48753(8)
O9 O -0.00563(14) 0.85395(17) 0.33694(8)
O10 O 0.07710(14) 0.77026(16) 0.25702(8)
O11 O 0.02594(15) 0.63355(18) 0.21721(8)
H43 H 0.0263 0.5695 0.2144
H45 H 0.043(2) 0.950(2) 0.2727(11)
H46 H 0.068(2) 1.030(2) 0.3432(10)
C79 C 0.7402(3) 0.7045(4) 0.36626(17)
C80 C 0.7873(3) 0.7599(4) 0.33846(16)
H30 H 0.8407 0.7317 0.3313
C81 C 0.7613(3) 0.8551(5) 0.32014(17)
H31 H 0.7967 0.8922 0.3015
C82 C 0.6846(4) 0.8936(5) 0.3294(2)
H32 H 0.6640 0.9582 0.3169
C83 C 0.6344(4) 0.8353(6) 0.3585(2)
H33 H 0.5802 0.8622 0.3652
C84 C 0.6631(3) 0.7409(5) 0.3771(2)
H34 H 0.6299 0.7031 0.3966
C85 C 0.7688(4) 0.6085(4) 0.38787(18)
H35 H 0.8194 0.6200 0.4128
H36 H 0.7860 0.5623 0.3638
H37 H 0.7206 0.5776 0.4018
C86 C 0.1332(3) 0.7563(4) 0.12098(16)
H38 H 0.1573 0.8250 0.1156
H39 H 0.0954 0.7347 0.0913
C87 C 0.08416(18) 0.7620(2) 0.15636(9)
H40 H 0.0772 0.6932 0.1691
H41 H 0.0260 0.7903 0.1440
H42 H 0.1137 0.8064 0.1817
O12 O 0.2094(4) 0.6801(4) 0.1331(2)
H44 H 0.1934 0.6221 0.1222
loop_
_geom_bond_atom_site_label_1
_geom_bond_atom_site_label_2
_geom_bond_site_symmetry_1
_geom_bond_site_symmetry_2
C1 C8 1_555 1_555
C2 C3 1_555 1_555
C3 C4 1_555 1_555
C4 C5 1_555 1_555
C5 H1 1_555 1_555
C6 C5 1_555 1_555
H2 C6 1_555 1_555
C7 C6 1_555 1_555
C8 C3 1_555 1_555
C9 C2 1_555 1_555
C10 C11 1_555 1_555
C11 H3 1_555 1_555
H4 C11 1_555 1_555
H5 C11 1_555 1_555
C12 C10 1_555 1_555
H6 C12 1_555 1_555
H7 C12 1_555 1_555
H8 C12 1_555 1_555
C13 C10 1_555 1_555
H9 C13 1_555 1_555
H10 C13 1_555 1_555
H11 C13 1_555 1_555
C14 C24 1_555 1_555
C15 C16 1_555 1_555
C16 H12 1_555 1_555
H13 C16 1_555 1_555
H14 C16 1_555 1_555
C17 C15 1_555 1_555
H15 C17 1_555 1_555
H16 C17 1_555 1_555
H17 C17 1_555 1_555
C18 C15 1_555 1_555
H18 C18 1_555 1_555
H19 C18 1_555 1_555
H20 C18 1_555 1_555
C19 C25 1_555 1_555
C20 C21 1_555 1_555
C21 H21 1_555 1_555
H22 C21 1_555 1_555
H23 C21 1_555 1_555
C22 C20 1_555 1_555
H24 C22 1_555 1_555
H25 C22 1_555 1_555
H26 C22 1_555 1_555
C23 C20 1_555 1_555
H27 C23 1_555 1_555
H28 C23 1_555 1_555
H29 C23 1_555 1_555
C24 C2 1_555 1_555
C25 C1 1_555 1_555
C26 C1 1_555 1_555
C27 C26 1_555 1_555
C28 C32 1_555 1_555
C29 C19 1_555 1_555
C30 C29 1_555 1_555
C31 C30 1_555 1_555
C32 C29 1_555 1_555
C33 C32 1_555 1_555
C34 C33 1_555 1_555
C35 C30 1_555 1_555
C36 C33 1_555 1_555
C37 C28 1_555 1_555
C38 C27 1_555 1_555
C39 C38 1_555 1_555
C40 C39 1_555 1_555
C41 C36 1_555 1_555
C42 C27 1_555 1_555
C43 C39 1_555 1_555
C44 C9 1_555 1_555
C45 C44 1_555 1_555
C46 C45 1_555 1_555
C47 C43 1_555 1_555
C48 C9 1_555 1_555
C49 C45 1_555 1_555
C50 C49 1_555 1_555
C51 C50 1_555 1_555
C52 C46 1_555 1_555
C53 C50 1_555 1_555
C54 C53 1_555 1_555
C55 C51 1_555 1_555
C56 C57 1_555 1_555
C57 C75 1_555 1_555
C58 C14 1_555 1_555
C59 C19 1_555 1_555
C60 C52 1_555 1_555
C61 C60 1_555 1_555
C62 C61 1_555 1_555
C63 C62 1_555 1_555
C64 C40 1_555 1_555
C65 C47 1_555 1_555
C66 C55 1_555 1_555
C67 C66 1_555 1_555
C68 C62 1_555 1_555
C69 C68 1_555 1_555
C70 C67 1_555 1_555
C71 C70 1_555 1_555
C72 C35 1_555 1_555
C73 C14 1_555 1_555
C74 C53 1_555 1_555
C75 C31 1_555 1_555
C76 C54 1_555 1_555
C77 C41 1_555 1_555
C78 C34 1_555 1_555
C79 C80 1_555 1_555
C80 H30 1_555 1_555
C81 C80 1_555 1_555
H31 C81 1_555 1_555
C82 C81 1_555 1_555
H32 C82 1_555 1_555
C83 C82 1_555 1_555
H33 C83 1_555 1_555
C84 C79 1_555 1_555
H34 C84 1_555 1_555
C85 C79 1_555 1_555
H35 C85 1_555 1_555
H36 C85 1_555 1_555
H37 C85 1_555 1_555
C86 H38 1_555 1_555
H39 C86 1_555 1_555
C87 C86 1_555 1_555
H40 C87 1_555 1_555
H41 C87 1_555 1_555
H42 C87 1_555 1_555
O1 C7 1_555 1_555
O2 C4 1_555 1_555
O3 C14 1_555 1_555
O4 C15 1_555 1_555
O5 C19 1_555 1_555
O6 C20 1_555 1_555
O7 C9 1_555 1_555
O8 C10 1_555 1_555
O9 C26 1_555 1_555
O10 C1 1_555 1_555
O11 C28 1_555 1_555
H43 O11 1_555 1_555
O12 C86 1_555 1_555
H44 O12 1_555 1_555
H45 C8 1_555 1_555
H46 C3 1_555 1_555
C2 C26 1_555 1_555
C7 C8 1_555 1_555
C24 C25 1_555 1_555
C27 O9 1_555 1_555
C28 O10 1_555 1_555
C31 C59 1_555 1_555
C34 C35 1_555 1_555
C36 C37 1_555 1_555
C37 C38 1_555 1_555
C40 C41 1_555 1_555
C42 C43 1_555 1_555
C42 C44 1_555 1_555
C46 C47 1_555 1_555
C48 C49 1_555 1_555
C48 C73 1_555 1_555
C51 C52 1_555 1_555
C54 C55 1_555 1_555
C56 C58 1_555 1_555
C56 C74 1_555 1_555
C57 C76 1_555 1_555
C58 C59 1_555 1_555
C60 C65 1_555 1_555
C61 C66 1_555 1_555
C63 C64 1_555 1_555
C63 C77 1_555 1_555
C64 C65 1_555 1_555
C67 C68 1_555 1_555
C69 C72 1_555 1_555
C69 C78 1_555 1_555
C70 C76 1_555 1_555
C71 C72 1_555 1_555
C71 C75 1_555 1_555
C73 C74 1_555 1_555
C77 C78 1_555 1_555
C83 C84 1_555 1_555
O3 O4 1_555 1_555
O5 O6 1_555 1_555
O7 O8 1_555 1_555

#END
