
#######################################################################
#
#                 Cambridge Crystallographic Data Centre
#                                CCDC 
#
#######################################################################
#
# If this CIF has been generated from an entry in the Cambridge 
# Structural Database, then it will include bibliographic, chemical, 
# crystal, experimental, refinement or atomic coordinate data resulting 
# from the CCDC's data processing and validation procedures.
#
#######################################################################

data_DOQKIE
_chemical_formula_moiety         'C24 H38 N4 O4 2+,C18 H8 N2 O8 2-,6(H2 O1)'
_chemical_name_systematic        
"2,2'-(1,5-Naphthalenediylbis(oxy(1-oxo-2,1-ethanediyl)imino))bis(N,N,N-trimethylethanaminium) (1,8:4,5-naphthalenetetracarboxylic diimide-N,N'-diacetate) hexahydrate"
_symmetry_cell_setting           triclinic
_symmetry_space_group_name_H-M   'P -1'
_symmetry_Int_Tables_number      2
_space_group_name_Hall           '-P 1'
loop_
_symmetry_equiv_pos_site_id
_symmetry_equiv_pos_as_xyz
1 x,y,z
2 -x,-y,-z
_cell_length_a                   8.3691(1)
_cell_length_b                   8.4678(2)
_cell_length_c                   15.9082(3)
_cell_angle_alpha                85.201(1)
_cell_angle_beta                 75.792(1)
_cell_angle_gamma                83.444(1)
_cell_volume                     1083.93
_exptl_crystal_description       block
_cell_formula_units_Z            1
loop_
_atom_site_label
_atom_site_type_symbol
_atom_site_fract_x
_atom_site_fract_y
_atom_site_fract_z
O1 O 0.97375(11) 0.29410(11) 0.86059(6)
N1 N 0.90278(13) 0.25786(12) 0.70984(7)
H1 H 0.8487 0.3266 0.7479
C1 C 1.01593(13) 0.32080(13) 0.93584(7)
O2 O 1.07554(14) 0.02974(12) 0.68922(7)
N2 N 0.64766(12) 0.09393(11) 0.61904(6)
C2 C 1.09120(15) 0.20576(14) 0.98368(8)
H2 H 1.1146 0.0994 0.9661
C3 C 1.13342(14) 0.24759(14) 1.05942(8)
H3 H 1.1849 0.1678 1.0924
C4 C 1.10205(13) 0.39964(14) 1.08622(7)
H4 H 1.1331 0.4253 1.1366
C5 C 0.97749(12) 0.48093(13) 0.96198(6)
C6 C 1.04254(15) 0.14752(14) 0.82245(8)
H5 H 0.9944 0.0580 0.8607
H6 H 1.1636 0.1349 0.8171
C7 C 1.00851(14) 0.14193(14) 0.73378(8)
C8 C 0.87506(15) 0.27294(14) 0.62266(7)
H7 H 0.9480 0.1891 0.5881
H8 H 0.9082 0.3773 0.5952
C9 C 0.69756(15) 0.25998(13) 0.61848(8)
H9 H 0.6228 0.3134 0.6685
H10 H 0.6788 0.3198 0.5650
C10 C 0.46866(19) 0.1096(2) 0.61626(14)
H11 H 0.4323 0.0035 0.6166
H12 H 0.4548 0.1716 0.5632
H13 H 0.4020 0.1640 0.6671
C11 C 0.7475(2) 0.01145(16) 0.54100(9)
H14 H 0.7021 -0.0889 0.5377
H15 H 0.8627 -0.0106 0.5455
H16 H 0.7431 0.0797 0.4886
C12 C 0.66690(19) -0.00512(16) 0.69900(9)
H17 H 0.6208 -0.1068 0.7000
H18 H 0.6078 0.0516 0.7506
H19 H 0.7847 -0.0250 0.6988
O1A O 1.02625(11) 0.70590(11) 1.13941(6)
N1A N 1.09722(13) 0.74214(12) 1.29016(7)
H1A H 1.1513 0.6734 1.2521
C1A C 0.98407(13) 0.67920(13) 1.06416(7)
O2A O 0.92446(14) 0.97026(12) 1.31078(7)
N2A N 1.35234(12) 0.90607(11) 1.38096(6)
C2A C 0.90880(15) 0.79424(14) 1.01632(8)
H2A H 0.8854 0.9006 1.0339
C3A C 0.86658(14) 0.75241(14) 0.94058(8)
H3A H 0.8151 0.8322 0.9076
C4A C 0.89795(13) 0.60036(14) 0.91378(7)
H4A H 0.8669 0.5747 0.8634
C5A C 1.02251(12) 0.51907(13) 1.03802(6)
C6A C 0.95746(15) 0.85248(14) 1.17755(8)
H5A H 1.0056 0.9420 1.1393
H6A H 0.8364 0.8651 1.1829
C7A C 0.99149(14) 0.85807(14) 1.26622(8)
C8A C 1.12494(15) 0.72706(14) 1.37734(7)
H7A H 1.0520 0.8109 1.4119
H8A H 1.0918 0.6227 1.4048
C9A C 1.30244(15) 0.74002(13) 1.38152(8)
H9A H 1.3772 0.6866 1.3315
H10A H 1.3212 0.6802 1.4350
C10A C 1.53134(19) 0.8904(2) 1.38374(14)
H11A H 1.5677 0.9965 1.3834
H12A H 1.5452 0.8284 1.4368
H13A H 1.5980 0.8360 1.3329
C11A C 1.2525(2) 0.98855(16) 1.45900(9)
H14A H 1.2979 1.0889 1.4623
H15A H 1.1373 1.0106 1.4545
H16A H 1.2569 0.9203 1.5114
C12A C 1.33310(19) 1.00512(16) 1.30100(9)
H17A H 1.3792 1.1068 1.3000
H18A H 1.3922 0.9484 1.2494
H19A H 1.2153 1.0250 1.3012
N3 N 0.32782(11) 0.60803(12) 0.81902(6)
O3 O 0.31039(14) 0.86918(11) 0.84850(7)
O4 O 0.36943(12) 0.35073(11) 0.78298(6)
O5 O 0.51510(11) 0.65302(13) 0.65053(6)
O6 O 0.29873(11) 0.63851(13) 0.59428(6)
C13 C 0.38363(13) 0.44876(13) 0.83222(7)
C14 C 0.45867(13) 0.40442(12) 0.90713(6)
C15 C 0.46787(12) 0.52199(12) 0.96292(6)
C16 C 0.41281(13) 0.68260(12) 0.94655(6)
C17 C 0.34710(13) 0.73043(13) 0.86863(7)
C18 C 0.42062(15) 0.79563(13) 1.00286(7)
H20 H 0.3817 0.9035 0.9921
C19 C 0.48574(15) 0.75238(13) 1.07613(7)
H21 H 0.4915 0.8312 1.1141
C20 C 0.24636(13) 0.64736(15) 0.74701(7)
H22 H 0.1862 0.7549 0.7541
H23 H 0.1635 0.5710 0.7506
C21 C 0.36437(13) 0.64417(13) 0.65681(7)
N3A N 0.67218(11) 0.39197(12) 1.18098(6)
O3A O 0.68961(14) 0.13082(11) 1.15150(7)
O4A O 0.63057(12) 0.64927(11) 1.21702(6)
O5A O 0.48490(11) 0.34698(13) 1.34947(6)
O6A O 0.70127(11) 0.36149(13) 1.40572(6)
C13A C 0.61637(13) 0.55124(13) 1.16778(7)
C14A C 0.54133(13) 0.59558(12) 1.09287(6)
C15A C 0.53213(12) 0.47801(12) 1.03708(6)
C16A C 0.58719(13) 0.31740(12) 1.05345(6)
C17A C 0.65290(13) 0.26957(13) 1.13137(7)
C18A C 0.57938(15) 0.20437(13) 0.99714(7)
H20A H 0.6183 0.0965 1.0079
C19A C 0.51426(15) 0.24762(13) 0.92387(7)
H21A H 0.5085 0.1688 0.8859
C20A C 0.75364(13) 0.35264(15) 1.25299(7)
H22A H 0.8138 0.2451 1.2459
H23A H 0.8365 0.4290 1.2494
C21A C 0.63563(13) 0.35583(13) 1.34319(7)
O7 O 0.74017(13) 0.57926(13) 0.74928(7)
H24 H 0.652(2) 0.596(3) 0.7249(15)
H25 H 0.824(2) 0.624(3) 0.7105(14)
O8 O 0.75736(12) 0.61768(13) 0.49930(7)
H26 H 0.672(3) 0.623(3) 0.5466(13)
H27 H 0.738(3) 0.555(3) 0.4622(13)
O9 O 0.96390(13) 0.70219(14) 0.60654(8)
H28 H 0.935(3) 0.662(3) 0.5621(14)
H29 H 1.072(2) 0.680(3) 0.6020(15)
loop_
_geom_bond_atom_site_label_1
_geom_bond_atom_site_label_2
_geom_bond_site_symmetry_1
_geom_bond_site_symmetry_2
O1 C1 1_555 1_555
N1 H1 1_555 1_555
C1 C2 1_555 1_555
O2 C7 1_555 1_555
N2 C9 1_555 1_555
C2 H2 1_555 1_555
C3 C2 1_555 1_555
H3 C3 1_555 1_555
C4 C3 1_555 1_555
H4 C4 1_555 1_555
C5 C1 1_555 1_555
C6 O1 1_555 1_555
H5 C6 1_555 1_555
H6 C6 1_555 1_555
C7 N1 1_555 1_555
C8 N1 1_555 1_555
H7 C8 1_555 1_555
H8 C8 1_555 1_555
C9 C8 1_555 1_555
H9 C9 1_555 1_555
H10 C9 1_555 1_555
C10 N2 1_555 1_555
H11 C10 1_555 1_555
H12 C10 1_555 1_555
H13 C10 1_555 1_555
C11 N2 1_555 1_555
H14 C11 1_555 1_555
H15 C11 1_555 1_555
H16 C11 1_555 1_555
C12 N2 1_555 1_555
H17 C12 1_555 1_555
H18 C12 1_555 1_555
H19 C12 1_555 1_555
N3 C13 1_555 1_555
O3 C17 1_555 1_555
O4 C13 1_555 1_555
O5 C21 1_555 1_555
O6 C21 1_555 1_555
C13 C14 1_555 1_555
C14 C15 1_555 1_555
C15 C16 1_555 1_555
C16 C17 1_555 1_555
C17 N3 1_555 1_555
C18 C16 1_555 1_555
H20 C18 1_555 1_555
C19 C18 1_555 1_555
H21 C19 1_555 1_555
C20 N3 1_555 1_555
H22 C20 1_555 1_555
H23 C20 1_555 1_555
C21 C20 1_555 1_555
O7 H24 1_555 1_555
H25 O7 1_555 1_555
O8 H26 1_555 1_555
H27 O8 1_555 1_555
O9 H28 1_555 1_555
H29 O9 1_555 1_555
O1A C1A 1_555 1_555
N1A H1A 1_555 1_555
C1A C2A 1_555 1_555
O2A C7A 1_555 1_555
N2A C9A 1_555 1_555
C2A H2A 1_555 1_555
C3A C2A 1_555 1_555
H3A C3A 1_555 1_555
C4A C5 1_555 1_555
H4A C4A 1_555 1_555
C5A C4 1_555 1_555
C6A O1A 1_555 1_555
H5A C6A 1_555 1_555
H6A C6A 1_555 1_555
C7A N1A 1_555 1_555
C8A N1A 1_555 1_555
H7A C8A 1_555 1_555
H8A C8A 1_555 1_555
C9A C8A 1_555 1_555
H9A C9A 1_555 1_555
H10A C9A 1_555 1_555
C10A N2A 1_555 1_555
H11A C10A 1_555 1_555
H12A C10A 1_555 1_555
H13A C10A 1_555 1_555
C11A N2A 1_555 1_555
H14A C11A 1_555 1_555
H15A C11A 1_555 1_555
H16A C11A 1_555 1_555
C12A N2A 1_555 1_555
H17A C12A 1_555 1_555
H18A C12A 1_555 1_555
H19A C12A 1_555 1_555
N3A C13A 1_555 1_555
O3A C17A 1_555 1_555
O4A C13A 1_555 1_555
O5A C21A 1_555 1_555
O6A C21A 1_555 1_555
C13A C14A 1_555 1_555
C14A C19 1_555 1_555
C15A C15 1_555 1_555
C16A C15A 1_555 1_555
C17A N3A 1_555 1_555
C18A C16A 1_555 1_555
H20A C18A 1_555 1_555
C19A C14 1_555 1_555
H21A C19A 1_555 1_555
C20A N3A 1_555 1_555
H22A C20A 1_555 1_555
H23A C20A 1_555 1_555
C21A C20A 1_555 1_555
C5 C5A 1_555 1_555
C6 C7 1_555 1_555
C1A C5A 1_555 1_555
C3A C4A 1_555 1_555
C6A C7A 1_555 1_555
C14A C15A 1_555 1_555
C16A C17A 1_555 1_555
C18A C19A 1_555 1_555

#END
