
#######################################################################
#
#                 Cambridge Crystallographic Data Centre
#                                CCDC 
#
#######################################################################
#
# If this CIF has been generated from an entry in the Cambridge 
# Structural Database, then it will include bibliographic, chemical, 
# crystal, experimental, refinement or atomic coordinate data resulting 
# from the CCDC's data processing and validation procedures.
#
#######################################################################

data_DOQRIM
_chemical_formula_moiety         'C34 H20 O4 S4'
_chemical_name_systematic        
4-(2-(4,5-bis(4-Formylphenyl)-1,3-dithiol-2-ylidene)-5-(4-formylphenyl)-1,3-dithiol-4-yl)benzaldehyde
_symmetry_cell_setting           triclinic
_symmetry_space_group_name_H-M   'P -1'
_symmetry_Int_Tables_number      2
_space_group_name_Hall           '-P 1'
loop_
_symmetry_equiv_pos_site_id
_symmetry_equiv_pos_as_xyz
1 x,y,z
2 -x,-y,-z
_cell_length_a                   9.0590(12)
_cell_length_b                   11.3961(16)
_cell_length_c                   15.780(2)
_cell_angle_alpha                68.8889(16)
_cell_angle_beta                 79.0989(17)
_cell_angle_gamma                67.1611(16)
_cell_volume                     1398.29
_exptl_crystal_colour            red
_exptl_crystal_description       plate
_cell_formula_units_Z            2
loop_
_atom_site_label
_atom_site_type_symbol
_atom_site_fract_x
_atom_site_fract_y
_atom_site_fract_z
C1 C 0.3260(2) 0.40280(17) 0.96038(12)
S1 S 0.32586(5) 0.43422(4) 1.06121(3)
C2 C 0.4945(2) 0.29194(17) 1.10430(12)
C3 C 0.5672(2) 0.21218(17) 1.05133(12)
S2 S 0.48007(5) 0.25761(4) 0.94817(3)
C4 C 0.2162(2) 0.48487(17) 0.89785(12)
S3 S 0.06733(5) 0.63172(4) 0.91069(3)
C5 C 0.0166(2) 0.70091(17) 0.79624(12)
C6 C 0.0781(2) 0.61954(17) 0.74430(12)
S4 S 0.20761(6) 0.45575(4) 0.79734(3)
C7 C 0.5228(2) 0.26978(18) 1.19921(13)
C8 C 0.5616(3) 0.1408(2) 1.26400(14)
H1 H 0.5767 0.0655 1.2462
C9 C 0.5779(3) 0.1236(2) 1.35328(14)
H2 H 0.6053 0.0363 1.3967
C10 C 0.5542(3) 0.2344(2) 1.38008(14)
C11 C 0.5138(3) 0.3617(2) 1.31705(14)
H3 H 0.4974 0.4367 1.3356
C12 C 0.4972(2) 0.38056(19) 1.22688(13)
H4 H 0.4685 0.4683 1.1840
C13 C 0.5637(4) 0.2187(3) 1.47614(16)
H5 H 0.5482 0.2961 1.4915
O1 O 0.5905(3) 0.1113(2) 1.53668(14)
C14 C 0.7088(2) 0.08713(18) 1.07100(12)
C15 C 0.8344(2) 0.07070(19) 1.11916(14)
H6 H 0.8304 0.1429 1.1373
C16 C 0.9628(2) -0.04700(18) 1.14069(14)
H7 H 1.0472 -0.0559 1.1729
C17 C 0.9685(2) -0.15499(18) 1.11462(12)
C18 C 0.8461(2) -0.13730(18) 1.06269(13)
H8 H 0.8515 -0.2078 1.0422
C19 C 0.7192(2) -0.01824(18) 1.04188(13)
H9 H 0.6371 -0.0072 1.0071
C20 C 1.1005(2) -0.28590(19) 1.14005(14)
H10 H 1.1033 -0.3527 1.1165
O2 O 1.20553(19) -0.31355(17) 1.18907(12)
C21 C -0.0936(2) 0.84243(17) 0.77014(12)
C22 C -0.2290(2) 0.88242(18) 0.82643(12)
H11 H -0.2478 0.8194 0.8822
C23 C -0.3360(2) 1.01297(18) 0.80162(13)
H12 H -0.4290 1.0388 0.8398
C24 C -0.3080(2) 1.10665(18) 0.72094(12)
C25 C -0.1691(2) 1.06937(18) 0.66557(12)
H13 H -0.1481 1.1339 0.6114
C26 C -0.0625(2) 0.93831(18) 0.69001(13)
H14 H 0.0318 0.9131 0.6526
C27 C -0.4286(3) 1.24377(19) 0.69597(14)
H15 H -0.5232 1.2599 0.7347
O3 O -0.41724(19) 1.33754(14) 0.63032(10)
C28 C 0.0388(2) 0.64475(18) 0.65084(13)
C29 C -0.1165(2) 0.7245(2) 0.62049(14)
H16 H -0.1977 0.7638 0.6601
C30 C -0.1513(3) 0.7459(2) 0.53349(14)
H17 H -0.2555 0.8019 0.5129
C31 C -0.0348(3) 0.6860(2) 0.47568(14)
C32 C 0.1180(3) 0.6048(2) 0.50534(14)
H18 H 0.1968 0.5625 0.4663
C33 C 0.1559(3) 0.5850(2) 0.59207(14)
H19 H 0.2612 0.5310 0.6115
C34 C -0.0733(4) 0.7076(3) 0.38231(17)
H20 H 0.0106 0.6658 0.3450
O4 O -0.2011(3) 0.7732(2) 0.35046(14)
loop_
_geom_bond_atom_site_label_1
_geom_bond_atom_site_label_2
_geom_bond_site_symmetry_1
_geom_bond_site_symmetry_2
C1 S1 1_555 1_555
S1 C2 1_555 1_555
C2 C3 1_555 1_555
C3 S2 1_555 1_555
S2 C1 1_555 1_555
C4 C1 1_555 1_555
S3 C4 1_555 1_555
C5 S3 1_555 1_555
C6 C5 1_555 1_555
S4 C4 1_555 1_555
C7 C2 1_555 1_555
C8 C7 1_555 1_555
H1 C8 1_555 1_555
C9 C8 1_555 1_555
H2 C9 1_555 1_555
C10 C9 1_555 1_555
C11 C10 1_555 1_555
H3 C11 1_555 1_555
C12 C7 1_555 1_555
H4 C12 1_555 1_555
C13 C10 1_555 1_555
H5 C13 1_555 1_555
O1 C13 1_555 1_555
C14 C3 1_555 1_555
C15 C14 1_555 1_555
H6 C15 1_555 1_555
C16 C15 1_555 1_555
H7 C16 1_555 1_555
C17 C16 1_555 1_555
C18 C17 1_555 1_555
H8 C18 1_555 1_555
C19 C14 1_555 1_555
H9 C19 1_555 1_555
C20 C17 1_555 1_555
H10 C20 1_555 1_555
O2 C20 1_555 1_555
C21 C5 1_555 1_555
C22 C21 1_555 1_555
H11 C22 1_555 1_555
C23 C22 1_555 1_555
H12 C23 1_555 1_555
C24 C23 1_555 1_555
C25 C24 1_555 1_555
H13 C25 1_555 1_555
C26 C21 1_555 1_555
H14 C26 1_555 1_555
C27 C24 1_555 1_555
H15 C27 1_555 1_555
O3 C27 1_555 1_555
C28 C6 1_555 1_555
C29 C28 1_555 1_555
H16 C29 1_555 1_555
C30 C29 1_555 1_555
H17 C30 1_555 1_555
C31 C30 1_555 1_555
C32 C31 1_555 1_555
H18 C32 1_555 1_555
C33 C28 1_555 1_555
H19 C33 1_555 1_555
C34 C31 1_555 1_555
H20 C34 1_555 1_555
O4 C34 1_555 1_555
C6 S4 1_555 1_555
C11 C12 1_555 1_555
C18 C19 1_555 1_555
C25 C26 1_555 1_555
C32 C33 1_555 1_555

#END
