
#######################################################################
#
#                 Cambridge Crystallographic Data Centre
#                                CCDC 
#
#######################################################################
#
# If this CIF has been generated from an entry in the Cambridge 
# Structural Database, then it will include bibliographic, chemical, 
# crystal, experimental, refinement or atomic coordinate data resulting 
# from the CCDC's data processing and validation procedures.
#
#######################################################################

data_DOQYUF
_chemical_formula_moiety         'C58 H66 N8 S2,2(C1 H1 Cl3)'
_chemical_name_systematic        
"2,2'-(2,2'-Bithiene-5,5'-diyl)bis(1-dodecyl-1H-imidazo[4,5-f][1,10]phenanthroline) chloroform solvate"
_symmetry_cell_setting           triclinic
_symmetry_space_group_name_H-M   'P -1'
_symmetry_Int_Tables_number      2
_space_group_name_Hall           '-P 1'
loop_
_symmetry_equiv_pos_site_id
_symmetry_equiv_pos_as_xyz
1 x,y,z
2 -x,-y,-z
_cell_length_a                   6.517(5)
_cell_length_b                   13.913(10)
_cell_length_c                   19.107(13)
_cell_angle_alpha                73.054(10)
_cell_angle_beta                 87.076(11)
_cell_angle_gamma                79.024(10)
_cell_volume                     1626.89
_exptl_crystal_colour            yellow
_exptl_crystal_description       needle
_cell_formula_units_Z            1
loop_
_atom_site_label
_atom_site_type_symbol
_atom_site_fract_x
_atom_site_fract_y
_atom_site_fract_z
C1 C 1.1524(15) 0.4259(8) 0.2599(6)
H1 H 1.1266 0.3821 0.2341
C2 C 1.0080(14) 0.5149(7) 0.2559(5)
H2 H 0.8848 0.5285 0.2293
C3 C 1.0472(12) 0.5834(7) 0.2913(5)
H3 H 0.9499 0.6422 0.2901
C4 C 1.2397(11) 0.5616(6) 0.3295(4)
C5 C 1.3062(11) 0.6224(5) 0.3657(4)
C6 C 1.4982(10) 0.6002(6) 0.4017(4)
C7 C 1.6340(10) 0.5016(5) 0.4069(4)
C8 C 1.8224(11) 0.4721(6) 0.4447(5)
H4 H 1.8689 0.5162 0.4660
C9 C 1.9389(13) 0.3774(7) 0.4503(5)
H5 H 2.0600 0.3529 0.4786
C10 C 1.8664(13) 0.3183(6) 0.4108(5)
H6 H 1.9503 0.2564 0.4104
C11 C 1.5704(11) 0.4362(6) 0.3736(5)
C12 C 1.3787(12) 0.4662(7) 0.3321(5)
C13 C 1.3641(11) 0.7449(5) 0.4169(4)
C14 C 1.3510(12) 0.8385(6) 0.4330(5)
C15 C 1.2102(14) 0.9299(6) 0.4154(6)
H7 H 1.0906 0.9426 0.3872
C16 C 1.2692(15) 1.0005(7) 0.4452(6)
H8 H 1.1869 1.0646 0.4401
C17 C 1.4453(13) 0.9722(6) 0.4805(5)
C18 C 1.0020(11) 0.7733(6) 0.3612(5)
H9 H 0.9132 0.7223 0.3721
H10 H 0.9624 0.8153 0.3941
C19 C 0.9582(12) 0.8382(6) 0.2862(5)
H11 H 1.0227 0.8008 0.2526
H12 H 1.0220 0.8980 0.2784
C20 C 0.7273(12) 0.8727(7) 0.2685(5)
H13 H 0.6647 0.8122 0.2781
H14 H 0.6650 0.9102 0.3022
C21 C 0.6694(13) 0.9359(8) 0.1948(5)
H15 H 0.7315 0.8987 0.1609
H16 H 0.7305 0.9968 0.1852
C22 C 0.4382(12) 0.9686(7) 0.1788(5)
H17 H 0.3781 0.9077 0.1863
H18 H 0.3751 1.0032 0.2141
C23 C 0.3792(13) 1.0367(8) 0.1044(5)
H19 H 0.4384 1.0017 0.0688
H20 H 0.4410 1.0972 0.0961
C24 C 0.1484(13) 1.0695(8) 0.0911(5)
H21 H 0.0878 1.1022 0.1277
H22 H 0.0870 1.0093 0.0970
C25 C 0.0908(14) 1.1445(9) 0.0137(6)
H23 H 0.1474 1.2058 0.0086
H24 H 0.1564 1.1129 -0.0228
C26 C -0.1393(18) 1.1741(12) -0.0009(7)
H25 H -0.1970 1.1120 0.0109
H26 H -0.2008 1.2122 0.0326
C27 C -0.2048(15) 1.2335(11) -0.0735(7)
H27 H -0.1448 1.1955 -0.1072
H28 H -0.1480 1.2959 -0.0855
C28 C -0.4371(15) 1.2618(11) -0.0857(6)
H29 H -0.4917 1.1998 -0.0798
H30 H -0.4993 1.2922 -0.0482
C29 C -0.5045(18) 1.3343(11) -0.1589(7)
H31 H -0.5223 1.2963 -0.1921
H32 H -0.4001 1.3754 -0.1775
H33 H -0.6346 1.3777 -0.1541
N1 N 1.3254(11) 0.4019(6) 0.2994(5)
N2 N 1.6903(11) 0.3451(5) 0.3751(4)
N3 N 1.2211(9) 0.7200(5) 0.3776(4)
N4 N 1.5339(8) 0.6729(4) 0.4313(4)
S1 S 1.5464(3) 0.84739(16) 0.48647(14)
C1A C 1.8476(15) 1.5741(8) 0.7401(6)
H1A H 1.8734 1.6179 0.7659
C2A C 1.9920(14) 1.4851(7) 0.7441(5)
H2A H 2.1152 1.4715 0.7707
C3A C 1.9528(12) 1.4166(7) 0.7087(5)
H3A H 2.0501 1.3578 0.7099
C4A C 1.7603(11) 1.4384(6) 0.6705(4)
C5A C 1.6938(11) 1.3776(5) 0.6343(4)
C6A C 1.5018(10) 1.3998(6) 0.5983(4)
C7A C 1.3660(10) 1.4984(5) 0.5931(4)
C8A C 1.1776(11) 1.5279(6) 0.5553(5)
H4A H 1.1311 1.4838 0.5340
C9A C 1.0611(13) 1.6226(7) 0.5497(5)
H5A H 0.9400 1.6471 0.5214
C10A C 1.1336(13) 1.6817(6) 0.5892(5)
H6A H 1.0497 1.7436 0.5896
C11A C 1.4296(11) 1.5638(6) 0.6264(5)
C12A C 1.6213(12) 1.5338(7) 0.6679(5)
C13A C 1.6359(11) 1.2551(5) 0.5831(4)
C14A C 1.6490(12) 1.1615(6) 0.5670(5)
C15A C 1.7898(14) 1.0701(6) 0.5846(6)
H7A H 1.9094 1.0574 0.6128
C16A C 1.7308(15) 0.9995(7) 0.5548(6)
H8A H 1.8131 0.9354 0.5599
C17A C 1.5547(13) 1.0278(6) 0.5195(5)
C18A C 1.9980(11) 1.2267(6) 0.6388(5)
H9A H 2.0868 1.2777 0.6279
H10A H 2.0376 1.1847 0.6059
C19A C 2.0418(12) 1.1618(6) 0.7138(5)
H11A H 1.9773 1.1992 0.7474
H12A H 1.9780 1.1020 0.7216
C20A C 2.2727(12) 1.1273(7) 0.7315(5)
H13A H 2.3353 1.1878 0.7219
H14A H 2.3350 1.0898 0.6978
C21A C 2.3306(13) 1.0641(8) 0.8052(5)
H15A H 2.2685 1.1013 0.8391
H16A H 2.2695 1.0032 0.8148
C22A C 2.5618(12) 1.0314(7) 0.8212(5)
H17A H 2.6219 1.0923 0.8137
H18A H 2.6249 0.9968 0.7859
C23A C 2.6208(13) 0.9633(8) 0.8956(5)
H19A H 2.5616 0.9983 0.9312
H20A H 2.5590 0.9028 0.9039
C24A C 2.8516(13) 0.9305(8) 0.9089(5)
H21A H 2.9122 0.8978 0.8723
H22A H 2.9130 0.9907 0.9030
C25A C 2.9092(14) 0.8555(9) 0.9863(6)
H23A H 2.8526 0.7942 0.9914
H24A H 2.8436 0.8871 1.0228
C26A C 3.1393(18) 0.8259(12) 1.0009(7)
H25A H 3.1970 0.8880 0.9891
H26A H 3.2008 0.7878 0.9674
C27A C 3.2048(15) 0.7665(11) 1.0735(7)
H27A H 3.1448 0.8045 1.1072
H28A H 3.1480 0.7041 1.0855
C28A C 3.4371(15) 0.7382(11) 1.0857(6)
H29A H 3.4917 0.8002 1.0798
H30A H 3.4993 0.7078 1.0482
C29A C 3.5045(18) 0.6657(11) 1.1589(7)
H31A H 3.5223 0.7037 1.1921
H32A H 3.4001 0.6246 1.1775
H33A H 3.6346 0.6223 1.1541
N1A N 1.6746(11) 1.5981(6) 0.7006(5)
N2A N 1.3097(11) 1.6549(5) 0.6249(4)
N3A N 1.7789(9) 1.2800(5) 0.6224(4)
N4A N 1.4661(8) 1.3271(4) 0.5687(4)
S1A S 1.4536(3) 1.15261(16) 0.51353(14)
C30 C 0.652(2) 0.2224(10) 0.2619(9)
H34 H 0.5696 0.2748 0.2904
Cl1 Cl 0.4343(15) 0.1803(8) 0.2435(9)
Cl2 Cl 0.822(2) 0.1209(8) 0.3169(10)
Cl3 Cl 0.740(2) 0.3005(13) 0.1867(7)
Cl4? Cl 0.545(3) 0.1228(9) 0.3178(6)
Cl5? Cl 0.9264(17) 0.1775(13) 0.2612(8)
Cl6? Cl 0.564(3) 0.2530(10) 0.1760(5)
loop_
_geom_bond_atom_site_label_1
_geom_bond_atom_site_label_2
_geom_bond_site_symmetry_1
_geom_bond_site_symmetry_2
C1 H1 1_555 1_555
C2 C1 1_555 1_555
H2 C2 1_555 1_555
C3 C2 1_555 1_555
H3 C3 1_555 1_555
C4 C3 1_555 1_555
C5 C4 1_555 1_555
C6 C5 1_555 1_555
C7 C6 1_555 1_555
C8 C7 1_555 1_555
H4 C8 1_555 1_555
C9 C8 1_555 1_555
H5 C9 1_555 1_555
C10 C9 1_555 1_555
H6 C10 1_555 1_555
C11 C7 1_555 1_555
C12 C4 1_555 1_555
C13 C14 1_555 1_555
C14 C15 1_555 1_555
C15 H7 1_555 1_555
C16 C15 1_555 1_555
H8 C16 1_555 1_555
C17 C16 1_555 1_555
C18 H9 1_555 1_555
H10 C18 1_555 1_555
C19 C18 1_555 1_555
H11 C19 1_555 1_555
H12 C19 1_555 1_555
C20 C19 1_555 1_555
H13 C20 1_555 1_555
H14 C20 1_555 1_555
C21 C20 1_555 1_555
H15 C21 1_555 1_555
H16 C21 1_555 1_555
C22 C21 1_555 1_555
H17 C22 1_555 1_555
H18 C22 1_555 1_555
C23 C22 1_555 1_555
H19 C23 1_555 1_555
H20 C23 1_555 1_555
C24 C23 1_555 1_555
H21 C24 1_555 1_555
H22 C24 1_555 1_555
C25 C24 1_555 1_555
H23 C25 1_555 1_555
H24 C25 1_555 1_555
C26 C25 1_555 1_555
H25 C26 1_555 1_555
H26 C26 1_555 1_555
C27 C26 1_555 1_555
H27 C27 1_555 1_555
H28 C27 1_555 1_555
C28 C27 1_555 1_555
H29 C28 1_555 1_555
H30 C28 1_555 1_555
C29 C28 1_555 1_555
H31 C29 1_555 1_555
H32 C29 1_555 1_555
H33 C29 1_555 1_555
N1 C1 1_555 1_555
N2 C10 1_555 1_555
N3 C5 1_555 1_555
N4 C6 1_555 1_555
S1 C14 1_555 1_555
C30 H34 1_555 1_555
Cl1 C30 1_555 1_555
Cl2 C30 1_555 1_555
Cl3 C30 1_555 1_555
C1A H1A 1_555 1_555
C2A C1A 1_555 1_555
H2A C2A 1_555 1_555
C3A C2A 1_555 1_555
H3A C3A 1_555 1_555
C4A C3A 1_555 1_555
C5A C4A 1_555 1_555
C6A C5A 1_555 1_555
C7A C6A 1_555 1_555
C8A C7A 1_555 1_555
H4A C8A 1_555 1_555
C9A C8A 1_555 1_555
H5A C9A 1_555 1_555
C10A C9A 1_555 1_555
H6A C10A 1_555 1_555
C11A C7A 1_555 1_555
C12A C4A 1_555 1_555
C13A C14A 1_555 1_555
C14A C15A 1_555 1_555
C15A H7A 1_555 1_555
C16A C15A 1_555 1_555
H8A C16A 1_555 1_555
C17A C17 1_555 1_555
C18A H9A 1_555 1_555
H10A C18A 1_555 1_555
C19A C18A 1_555 1_555
H11A C19A 1_555 1_555
H12A C19A 1_555 1_555
C20A C19A 1_555 1_555
H13A C20A 1_555 1_555
H14A C20A 1_555 1_555
C21A C20A 1_555 1_555
H15A C21A 1_555 1_555
H16A C21A 1_555 1_555
C22A C21A 1_555 1_555
H17A C22A 1_555 1_555
H18A C22A 1_555 1_555
C23A C22A 1_555 1_555
H19A C23A 1_555 1_555
H20A C23A 1_555 1_555
C24A C23A 1_555 1_555
H21A C24A 1_555 1_555
H22A C24A 1_555 1_555
C25A C24A 1_555 1_555
H23A C25A 1_555 1_555
H24A C25A 1_555 1_555
C26A C25A 1_555 1_555
H25A C26A 1_555 1_555
H26A C26A 1_555 1_555
C27A C26A 1_555 1_555
H27A C27A 1_555 1_555
H28A C27A 1_555 1_555
C28A C27A 1_555 1_555
H29A C28A 1_555 1_555
H30A C28A 1_555 1_555
C29A C28A 1_555 1_555
H31A C29A 1_555 1_555
H32A C29A 1_555 1_555
H33A C29A 1_555 1_555
N1A C1A 1_555 1_555
N2A C10A 1_555 1_555
N3A C5A 1_555 1_555
N4A C6A 1_555 1_555
S1A C14A 1_555 1_555
C11 C12 1_555 1_555
C11 N2 1_555 1_555
C12 N1 1_555 1_555
C13 N3 1_555 1_555
C13 N4 1_555 1_555
C17 S1 1_555 1_555
C18 N3 1_555 1_555
C11A C12A 1_555 1_555
C11A N2A 1_555 1_555
C12A N1A 1_555 1_555
C13A N3A 1_555 1_555
C13A N4A 1_555 1_555
C16A C17A 1_555 1_555
C17A S1A 1_555 1_555
C18A N3A 1_555 1_555

#END
