
#######################################################################
#
#                 Cambridge Crystallographic Data Centre
#                                CCDC 
#
#######################################################################
#
# If this CIF has been generated from an entry in the Cambridge 
# Structural Database, then it will include bibliographic, chemical, 
# crystal, experimental, refinement or atomic coordinate data resulting 
# from the CCDC's data processing and validation procedures.
#
#######################################################################

data_DOQYEO
_chemical_formula_moiety         'C95 H36,C1 H1 Cl3'
_chemical_name_systematic        
'1,6,9,12,15,18-hexahydro-6,9,12,15,18-pentakis(3-methylphenyl)C60fullerene chloroform solvate'
_symmetry_cell_setting           orthorhombic
_symmetry_space_group_name_H-M   'P n m a'
_symmetry_Int_Tables_number      62
_space_group_name_Hall           '-P 2ac 2n'
loop_
_symmetry_equiv_pos_site_id
_symmetry_equiv_pos_as_xyz
1 x,y,z
2 1/2-x,-y,1/2+z
3 -x,1/2+y,-z
4 1/2+x,1/2-y,1/2-z
5 -x,-y,-z
6 1/2+x,y,1/2-z
7 x,1/2-y,z
8 1/2-x,1/2+y,1/2+z
_cell_length_a                   18.298(5)
_cell_length_b                   17.955(5)
_cell_length_c                   17.352(5)
_cell_angle_alpha                90
_cell_angle_beta                 90
_cell_angle_gamma                90
_cell_volume                     5700.84
_exptl_crystal_colour            red
_exptl_crystal_description       platelet
_cell_formula_units_Z            4
_exptl_crystal_recrystallization_method 'chloroform/carbon disulfide'
loop_
_atom_site_label
_atom_site_type_symbol
_atom_site_fract_x
_atom_site_fract_y
_atom_site_fract_z
C53 C 0.1832(18) 0.2500 0.7728(10)
Cl4 Cl 0.1441(3) 0.2500 0.6817(3)
Cl5 Cl 0.1836(4) 0.3317(5) 0.8276(5)
Cl5F Cl 0.1836(4) 0.1683(5) 0.8276(5)
C1 C 0.94010(16) 0.33732(16) 0.90214(16)
C2 C 1.00713(15) 0.28819(16) 0.91693(16)
C3 C 1.05863(16) 0.32776(17) 0.96498(17)
C4 C 1.02269(16) 0.39344(16) 0.99540(17)
C5 C 0.94903(17) 0.39530(15) 0.96715(16)
C6 C 0.89402(16) 0.41934(15) 1.01455(16)
C7 C 0.81435(16) 0.39027(15) 1.01054(16)
C8 C 0.81845(16) 0.31435(15) 0.97344(16)
C9 C 0.87134(17) 0.29161(16) 0.91901(19)
C10 C 0.7835(2) 0.2500 1.0038(3)
C11 C 0.7383(2) 0.2500 1.0770(2)
C12 C 0.76445(15) 0.31600(15) 1.12624(16)
C13 C 0.79910(15) 0.37759(15) 1.09709(16)
C14 C 0.85270(16) 0.41613(15) 1.14261(16)
C15 C 0.91086(17) 0.44120(15) 1.09231(16)
C16 C 0.98271(17) 0.44294(16) 1.11945(17)
C17 C 1.04031(17) 0.41830(17) 1.06943(18)
C18 C 1.09354(16) 0.37816(19) 1.11534(18)
C19 C 1.12822(16) 0.31547(19) 1.08608(19)
C20 C 1.11070(16) 0.28995(18) 1.00845(18)
C21 C 1.1387(2) 0.2500 1.1336(3)
C22 C 1.1145(2) 0.2500 1.2099(3)
C23 C 1.07822(17) 0.31539(18) 1.24066(18)
C24 C 1.06795(17) 0.37822(18) 1.19501(18)
C25 C 0.99913(17) 0.41840(16) 1.19690(17)
C26 C 0.94325(17) 0.39459(16) 1.24522(16)
C27 C 0.86818(16) 0.39393(16) 1.21785(16)
C28 C 0.83228(16) 0.32894(15) 1.24873(16)
C29 C 0.78267(15) 0.29043(15) 1.20243(16)
C30 C 0.88492(16) 0.28880(16) 1.29541(15)
C31 C 0.95382(17) 0.32901(16) 1.29316(16)
C32 C 1.01951(17) 0.29048(17) 1.29122(16)
C33 C 0.93781(16) 0.37290(16) 0.82157(16)
C34 C 0.9883(2) 0.3539(2) 0.76529(19)
H1 H 1.0270 0.3204 0.7769
C35 C 0.9820(2) 0.3843(2) 0.6913(2)
H2 H 1.0164 0.3712 0.6526
C36 C 0.9261(2) 0.4333(2) 0.67423(19)
H3 H 0.9223 0.4533 0.6237
C37 C 0.87518(19) 0.45368(18) 0.73020(18)
C38 C 0.88244(17) 0.42349(17) 0.80363(18)
H4 H 0.8488 0.4377 0.8426
C39 C 0.8134(2) 0.5059(2) 0.7113(2)
H5 H 0.7923 0.5252 0.7592
H6 H 0.8319 0.5474 0.6803
H7 H 0.7758 0.4790 0.6822
C40 C 0.76027(16) 0.44514(15) 0.97394(16)
C41 C 0.71378(18) 0.42283(18) 0.91479(18)
H8 H 0.7162 0.3734 0.8954
C42 C 0.6637(2) 0.4732(2) 0.8842(2)
H9 H 0.6324 0.4583 0.8433
C43 C 0.65943(19) 0.54467(19) 0.91313(19)
H10 H 0.6248 0.5784 0.8921
C44 C 0.70498(18) 0.56822(17) 0.97262(19)
C45 C 0.75600(16) 0.51823(16) 1.00181(17)
H11 H 0.7885 0.5339 1.0413
C46 C 0.6984(2) 0.64614(18) 1.0047(2)
H12 H 0.6566 0.6486 1.0399
H13 H 0.7432 0.6589 1.0328
H14 H 0.6913 0.6815 0.9624
C47 C 0.6563(2) 0.2500 1.0581(2)
C48 C 0.61965(16) 0.31690(18) 1.04629(17)
H15 H 0.6443 0.3627 1.0554
C49 C 0.54719(17) 0.3176(2) 1.02115(19)
C50 C 0.5116(3) 0.2500 1.0079(3)
H16 H 0.4627 0.2500 0.9897
C51 C 0.5133(3) 0.3988(3) 1.0179(3)
H17 H 0.4654 0.3969 0.9928
H18 H 0.5077 0.4181 1.0704
H19 H 0.5459 0.4316 0.9886
C1F C 0.94010(16) 0.16268(16) 0.90214(16)
C2F C 1.00713(15) 0.21181(16) 0.91693(16)
C3F C 1.05863(16) 0.17224(17) 0.96498(17)
C4F C 1.02269(16) 0.10656(16) 0.99540(17)
C5F C 0.94903(17) 0.10470(15) 0.96715(16)
C6F C 0.89402(16) 0.08066(15) 1.01455(16)
C7F C 0.81435(16) 0.10973(15) 1.01054(16)
C8F C 0.81845(16) 0.18565(15) 0.97344(16)
C9F C 0.87134(17) 0.20839(16) 0.91901(19)
C12F C 0.76445(15) 0.18400(15) 1.12624(16)
C13F C 0.79910(15) 0.12241(15) 1.09709(16)
C14F C 0.85270(16) 0.08387(15) 1.14261(16)
C15F C 0.91086(17) 0.05880(15) 1.09231(16)
C16F C 0.98271(17) 0.05706(16) 1.11945(17)
C17F C 1.04031(17) 0.08170(17) 1.06943(18)
C18F C 1.09354(16) 0.12184(19) 1.11534(18)
C19F C 1.12822(16) 0.18453(19) 1.08608(19)
C20F C 1.11070(16) 0.21005(18) 1.00845(18)
C23F C 1.07822(17) 0.18461(18) 1.24066(18)
C24F C 1.06795(17) 0.12178(18) 1.19501(18)
C25F C 0.99913(17) 0.08160(16) 1.19690(17)
C26F C 0.94325(17) 0.10541(16) 1.24522(16)
C27F C 0.86818(16) 0.10607(16) 1.21785(16)
C28F C 0.83228(16) 0.17106(15) 1.24873(16)
C29F C 0.78267(15) 0.20957(15) 1.20243(16)
C30F C 0.88492(16) 0.21120(16) 1.29541(15)
C31F C 0.95382(17) 0.17099(16) 1.29316(16)
C32F C 1.01951(17) 0.20952(17) 1.29122(16)
C33F C 0.93781(16) 0.12710(16) 0.82157(16)
C34F C 0.9883(2) 0.1461(2) 0.76529(19)
H1F H 1.0270 0.1796 0.7769
C35F C 0.9820(2) 0.1157(2) 0.6913(2)
H2F H 1.0164 0.1288 0.6526
C36F C 0.9261(2) 0.0667(2) 0.67423(19)
H3F H 0.9223 0.0467 0.6237
C37F C 0.87518(19) 0.04632(18) 0.73020(18)
C38F C 0.88244(17) 0.07651(17) 0.80363(18)
H4F H 0.8488 0.0623 0.8426
C39F C 0.8134(2) -0.0059(2) 0.7113(2)
H5F H 0.7923 -0.0252 0.7592
H6F H 0.8319 -0.0474 0.6803
H7F H 0.7758 0.0210 0.6822
C40F C 0.76027(16) 0.05486(15) 0.97394(16)
C41F C 0.71378(18) 0.07717(18) 0.91479(18)
H8F H 0.7162 0.1266 0.8954
C42F C 0.6637(2) 0.0268(2) 0.8842(2)
H9F H 0.6324 0.0417 0.8433
C43F C 0.65943(19) -0.04467(19) 0.91313(19)
H10F H 0.6248 -0.0784 0.8921
C44F C 0.70498(18) -0.06822(17) 0.97262(19)
C45F C 0.75600(16) -0.01823(16) 1.00181(17)
H11F H 0.7885 -0.0339 1.0413
C46F C 0.6984(2) -0.14614(18) 1.0047(2)
H12F H 0.6566 -0.1486 1.0399
H13F H 0.7432 -0.1589 1.0328
H14F H 0.6913 -0.1815 0.9624
C48F C 0.61965(16) 0.18310(18) 1.04629(17)
H15F H 0.6443 0.1373 1.0554
C49F C 0.54719(17) 0.1824(2) 1.02115(19)
C51F C 0.5133(3) 0.1012(3) 1.0179(3)
H17F H 0.4654 0.1031 0.9928
H18F H 0.5077 0.0819 1.0704
H19F H 0.5459 0.0684 0.9886
C52? C 0.2362(5) 0.2033(4) 0.7536(6)
H20? H 0.2640 0.1725 0.7156
Cl1? Cl 0.2980(3) 0.2500 0.7944(3)
Cl2? Cl 0.1726(2) 0.2500 0.6954(2)
Cl3? Cl 0.1918(3) 0.3594(3) 0.8041(4)
H21? H 0.2357 0.2500 0.7570
C54? C 0.2323(8) 0.2500 0.8206(14)
H22? H 0.2209 0.2500 0.8770
Cl6? Cl 0.3260(3) 0.2500 0.8058(3)
Cl7? Cl 0.1964(4) 0.1707(4) 0.7763(5)
loop_
_geom_bond_atom_site_label_1
_geom_bond_atom_site_label_2
_geom_bond_site_symmetry_1
_geom_bond_site_symmetry_2
C1 C2 1_555 1_555
C2 C3 1_555 1_555
C3 C4 1_555 1_555
C4 C5 1_555 1_555
C5 C1 1_555 1_555
C6 C5 1_555 1_555
C7 C6 1_555 1_555
C8 C7 1_555 1_555
C9 C1 1_555 1_555
C10 C8 1_555 1_555
C11 C10 1_555 1_555
C12 C11 1_555 1_555
C13 C7 1_555 1_555
C14 C13 1_555 1_555
C15 C6 1_555 1_555
C16 C15 1_555 1_555
C17 C4 1_555 1_555
C18 C17 1_555 1_555
C19 C18 1_555 1_555
C20 C3 1_555 1_555
C21 C19 1_555 1_555
C22 C21 1_555 1_555
C23 C22 1_555 1_555
C24 C18 1_555 1_555
C25 C16 1_555 1_555
C26 C25 1_555 1_555
C27 C14 1_555 1_555
C28 C27 1_555 1_555
C29 C12 1_555 1_555
C30 C28 1_555 1_555
C31 C26 1_555 1_555
C32 C23 1_555 1_555
C33 C1 1_555 1_555
C34 C33 1_555 1_555
H1 C34 1_555 1_555
C35 C34 1_555 1_555
H2 C35 1_555 1_555
C36 C35 1_555 1_555
H3 C36 1_555 1_555
C37 C36 1_555 1_555
C38 C33 1_555 1_555
H4 C38 1_555 1_555
C39 C37 1_555 1_555
H5 C39 1_555 1_555
H6 C39 1_555 1_555
H7 C39 1_555 1_555
C40 C7 1_555 1_555
C41 C40 1_555 1_555
H8 C41 1_555 1_555
C42 C41 1_555 1_555
H9 C42 1_555 1_555
C43 C42 1_555 1_555
H10 C43 1_555 1_555
C44 C43 1_555 1_555
C45 C40 1_555 1_555
H11 C45 1_555 1_555
C46 C44 1_555 1_555
H12 C46 1_555 1_555
H13 C46 1_555 1_555
H14 C46 1_555 1_555
C47 C11 1_555 1_555
C48 C47 1_555 1_555
H15 C48 1_555 1_555
C49 C48 1_555 1_555
C50 C49 1_555 1_555
H16 C50 1_555 1_555
C51 C49 1_555 1_555
H17 C51 1_555 1_555
H18 C51 1_555 1_555
H19 C51 1_555 1_555
C53 Cl4 1_555 1_555
Cl5 C53 1_555 1_555
C1F C2F 1_555 1_555
C2F C2 1_555 1_555
C3F C2F 1_555 1_555
C4F C3F 1_555 1_555
C5F C1F 1_555 1_555
C6F C5F 1_555 1_555
C7F C6F 1_555 1_555
C8F C10 1_555 1_555
C9F C9 1_555 1_555
C12F C11 1_555 1_555
C13F C7F 1_555 1_555
C14F C13F 1_555 1_555
C15F C6F 1_555 1_555
C16F C15F 1_555 1_555
C17F C4F 1_555 1_555
C18F C17F 1_555 1_555
C19F C21 1_555 1_555
C20F C20 1_555 1_555
C23F C22 1_555 1_555
C24F C18F 1_555 1_555
C25F C16F 1_555 1_555
C26F C25F 1_555 1_555
C27F C14F 1_555 1_555
C28F C27F 1_555 1_555
C29F C29 1_555 1_555
C30F C30 1_555 1_555
C31F C26F 1_555 1_555
C32F C32 1_555 1_555
C33F C1F 1_555 1_555
C34F C33F 1_555 1_555
H1F C34F 1_555 1_555
C35F C34F 1_555 1_555
H2F C35F 1_555 1_555
C36F C35F 1_555 1_555
H3F C36F 1_555 1_555
C37F C36F 1_555 1_555
C38F C33F 1_555 1_555
H4F C38F 1_555 1_555
C39F C37F 1_555 1_555
H5F C39F 1_555 1_555
H6F C39F 1_555 1_555
H7F C39F 1_555 1_555
C40F C7F 1_555 1_555
C41F C40F 1_555 1_555
H8F C41F 1_555 1_555
C42F C41F 1_555 1_555
H9F C42F 1_555 1_555
C43F C42F 1_555 1_555
H10F C43F 1_555 1_555
C44F C43F 1_555 1_555
C45F C40F 1_555 1_555
H11F C45F 1_555 1_555
C46F C44F 1_555 1_555
H12F C46F 1_555 1_555
H13F C46F 1_555 1_555
H14F C46F 1_555 1_555
C48F C47 1_555 1_555
H15F C48F 1_555 1_555
C49F C50 1_555 1_555
C51F C49F 1_555 1_555
H17F C51F 1_555 1_555
H18F C51F 1_555 1_555
H19F C51F 1_555 1_555
Cl5F C53 1_555 1_555
C8 C9 1_555 1_555
C12 C13 1_555 1_555
C14 C15 1_555 1_555
C16 C17 1_555 1_555
C19 C20 1_555 1_555
C23 C24 1_555 1_555
C24 C25 1_555 1_555
C26 C27 1_555 1_555
C28 C29 1_555 1_555
C30 C31 1_555 1_555
C31 C32 1_555 1_555
C37 C38 1_555 1_555
C44 C45 1_555 1_555
C1F C9F 1_555 1_555
C3F C20F 1_555 1_555
C4F C5F 1_555 1_555
C7F C8F 1_555 1_555
C8F C9F 1_555 1_555
C12F C13F 1_555 1_555
C12F C29F 1_555 1_555
C14F C15F 1_555 1_555
C16F C17F 1_555 1_555
C18F C19F 1_555 1_555
C19F C20F 1_555 1_555
C23F C24F 1_555 1_555
C23F C32F 1_555 1_555
C24F C25F 1_555 1_555
C26F C27F 1_555 1_555
C28F C29F 1_555 1_555
C28F C30F 1_555 1_555
C30F C31F 1_555 1_555
C31F C32F 1_555 1_555
C37F C38F 1_555 1_555
C44F C45F 1_555 1_555
C48F C49F 1_555 1_555

#END
