
#######################################################################
#
#                 Cambridge Crystallographic Data Centre
#                                CCDC 
#
#######################################################################
#
# If this CIF has been generated from an entry in the Cambridge 
# Structural Database, then it will include bibliographic, chemical, 
# crystal, experimental, refinement or atomic coordinate data resulting 
# from the CCDC's data processing and validation procedures.
#
#######################################################################

data_DOQYUE
_chemical_formula_moiety         'C95 H36,1.88(C6 H5 Cl1)'
_chemical_name_systematic        
'1,6,9,12,15,18-hexahydro-6,9,12,15,18-pentakis(3-methylphenyl)C60fullerene chlorobenzene solvate'
_symmetry_cell_setting           monoclinic
_symmetry_space_group_name_H-M   'P 21/n'
_symmetry_Int_Tables_number      14
_space_group_name_Hall           '-P 2yn'
loop_
_symmetry_equiv_pos_site_id
_symmetry_equiv_pos_as_xyz
1 x,y,z
2 1/2-x,1/2+y,1/2-z
3 -x,-y,-z
4 1/2+x,1/2-y,1/2+z
_cell_length_a                   14.1988(13)
_cell_length_b                   18.8417(18)
_cell_length_c                   47.797(5)
_cell_angle_alpha                90
_cell_angle_beta                 93.5980(10)
_cell_angle_gamma                90
_cell_volume                     12761.9
_exptl_crystal_colour            red
_exptl_crystal_description       prism
_cell_formula_units_Z            8
loop_
_atom_site_label
_atom_site_type_symbol
_atom_site_fract_x
_atom_site_fract_y
_atom_site_fract_z
Cl1 Cl 0.0521(3) 0.8053(2) 0.11479(8)
C1 C 0.1681(3) 0.7836(4) 0.12445(15)
C2 C 0.2199(4) 0.8112(4) 0.14757(14)
H1 H 0.1899 0.8404 0.1606
C3 C 0.3156(4) 0.7961(4) 0.15168(12)
H2 H 0.3511 0.8150 0.1675
C4 C 0.3595(3) 0.7534(4) 0.13268(13)
H3 H 0.4249 0.7431 0.1355
C5 C 0.3077(4) 0.7258(3) 0.10955(12)
H4 H 0.3377 0.6966 0.0966
C6 C 0.2120(4) 0.7409(4) 0.10544(12)
H5 H 0.1766 0.7220 0.0896
C19 C 0.34978(17) 0.28808(13) 0.02090(5)
C20 C 0.35650(19) 0.30482(13) 0.05183(5)
H16 H 0.2853 0.3090 0.0557
C21 C 0.38628(16) 0.23482(12) 0.06468(5)
C22 C 0.37866(16) 0.18333(12) 0.04477(5)
C23 C 0.35583(17) 0.21635(12) 0.01748(5)
C24 C 0.36800(17) 0.17864(12) -0.00988(5)
C25 C 0.44371(17) 0.12106(12) -0.00439(5)
C26 C 0.46461(17) 0.08990(12) 0.02133(5)
C27 C 0.41518(17) 0.10825(12) 0.04829(5)
C28 C 0.49997(16) 0.11197(12) 0.06972(5)
C29 C 0.51205(16) 0.16466(13) 0.08943(5)
C30 C 0.44156(16) 0.22660(12) 0.09269(5)
C31 C 0.51080(16) 0.28941(12) 0.09499(4)
C32 C 0.49729(17) 0.35251(12) 0.08112(5)
C33 C 0.41094(17) 0.37236(12) 0.06187(5)
C34 C 0.46043(18) 0.40717(12) 0.03751(5)
C35 C 0.43982(18) 0.39401(13) 0.00961(5)
C36 C 0.51405(19) 0.39994(13) -0.00973(5)
C37 C 0.50141(19) 0.34414(13) -0.03055(5)
C38 C 0.41996(18) 0.30338(13) -0.02444(5)
C39 C 0.42099(18) 0.23092(13) -0.02811(5)
C40 C 0.50313(18) 0.19719(13) -0.03801(5)
C41 C 0.51697(18) 0.12986(13) -0.02350(5)
C42 C 0.60791(19) 0.10453(13) -0.01728(5)
C43 C 0.62989(18) 0.07223(13) 0.00963(5)
C44 C 0.55916(18) 0.06656(12) 0.02854(5)
C45 C 0.58124(17) 0.08045(12) 0.05807(5)
C46 C 0.67252(18) 0.09958(13) 0.06742(5)
C47 C 0.68566(17) 0.15517(14) 0.08808(5)
C48 C 0.60617(17) 0.18797(13) 0.09810(5)
C49 C 0.60530(17) 0.26428(13) 0.10167(5)
C50 C 0.68355(17) 0.30479(14) 0.09548(5)
C51 C 0.66933(18) 0.37145(14) 0.08129(5)
C52 C 0.57735(18) 0.39375(13) 0.07386(5)
C53 C 0.55473(19) 0.42697(13) 0.04694(5)
C54 C 0.62615(19) 0.43623(13) 0.02842(5)
C55 C 0.6044(2) 0.42208(13) -0.00094(5)
C56 C 0.36431(18) 0.34142(13) -0.00223(5)
C57 C 0.68645(19) 0.38820(14) -0.01188(5)
C58 C 0.67426(19) 0.33458(15) -0.03184(5)
C59 C 0.57968(19) 0.31242(14) -0.04143(5)
C60 C 0.58068(19) 0.23656(14) -0.04548(5)
C61 C 0.67542(19) 0.21101(14) -0.03824(5)
C62 C 0.68882(19) 0.14647(14) -0.02454(5)
C63 C 0.76118(18) 0.13976(15) -0.00174(5)
C64 C 0.72436(18) 0.09352(14) 0.01935(5)
C65 C 0.74553(17) 0.10713(14) 0.04757(5)
C66 C 0.80356(17) 0.16765(15) 0.05605(5)
C67 C 0.76660(17) 0.19752(15) 0.08108(5)
C68 C 0.76562(17) 0.27070(15) 0.08481(5)
C69 C 0.80181(18) 0.31709(15) 0.06370(5)
C70 C 0.74216(18) 0.37973(14) 0.06163(5)
C71 C 0.72056(19) 0.41148(14) 0.03570(5)
C72 C 0.75835(19) 0.38156(15) 0.01077(6)
C73 C 0.81573(19) 0.32166(16) 0.01269(6)
C74 C 0.83792(18) 0.28844(16) 0.03985(6)
C75 C 0.83878(18) 0.21245(16) 0.03587(6)
C76 C 0.81648(18) 0.19792(16) 0.00631(6)
C77 C 0.80301(19) 0.26498(16) -0.00792(6)
C78 C 0.7334(2) 0.27151(15) -0.02992(5)
C79 C 0.33774(17) 0.05556(12) 0.05556(5)
C80 C 0.3449(2) 0.01625(14) 0.08006(6)
H17 H 0.3989 0.0208 0.0927
C81 C 0.2719(2) -0.03040(17) 0.08618(6)
H18 H 0.2769 -0.0579 0.1029
C82 C 0.1927(2) -0.03648(17) 0.06797(6)
H19 H 0.1435 -0.0681 0.0723
C83 C 0.18424(19) 0.00310(15) 0.04347(6)
C84 C 0.25775(18) 0.04822(13) 0.03734(5)
H20 H 0.2533 0.0746 0.0204
C85 C 0.0968(2) -0.00172(18) 0.02366(7)
H21 H 0.0447 0.0237 0.0317
H22 H 0.0794 -0.0517 0.0208
H23 H 0.1098 0.0197 0.0056
C86 C 0.38124(16) 0.21947(12) 0.11796(5)
C87 C 0.29140(17) 0.18972(13) 0.11498(5)
H24 H 0.2678 0.1724 0.0972
C88 C 0.23631(17) 0.18530(14) 0.13789(5)
H25 H 0.1753 0.1645 0.1358
C89 C 0.26989(17) 0.21117(14) 0.16386(5)
H26 H 0.2316 0.2079 0.1794
C90 C 0.35931(17) 0.24187(13) 0.16735(5)
C91 C 0.41438(17) 0.24526(13) 0.14424(5)
H27 H 0.4757 0.2655 0.1464
C92 C 0.39448(19) 0.27205(16) 0.19526(5)
H28 H 0.3412 0.2915 0.2049
H29 H 0.4402 0.3098 0.1923
H30 H 0.4249 0.2344 0.2068
C93 C 0.34793(17) 0.42256(13) 0.07784(5)
C94 C 0.3374(2) 0.49423(14) 0.07113(6)
H31 H 0.3677 0.5135 0.0557
C95 C 0.2822(2) 0.53738(15) 0.08717(6)
H32 H 0.2740 0.5860 0.0823
C96 C 0.2392(2) 0.51030(15) 0.11006(6)
H33 H 0.2026 0.5406 0.1210
C97 C 0.24914(19) 0.43869(14) 0.11720(5)
C98 C 0.30304(18) 0.39604(13) 0.10087(5)
H34 H 0.3098 0.3472 0.1054
C99 C 0.2037(2) 0.40752(16) 0.14228(6)
H35 H 0.1896 0.3573 0.1388
H36 H 0.1451 0.4331 0.1453
H37 H 0.2471 0.4120 0.1590
C100 C 0.2735(2) 0.37662(13) -0.01437(5)
C101 C 0.2258(2) 0.42479(15) 0.00150(6)
H38 H 0.2515 0.4380 0.0196
C102 C 0.1410(2) 0.45383(16) -0.00883(7)
H39 H 0.1094 0.4877 0.0019
C103 C 0.1023(3) 0.4333(2) -0.03502(8)
H40 H 0.0446 0.4537 -0.0421
C104 C 0.1465(3) 0.3838(2) -0.05074(8)
C105 C 0.2332(3) 0.35738(19) -0.04061(7)
H41 H 0.2659 0.3253 -0.0519
C106 C 0.0961(4) 0.3521(3) -0.07711(10)
H42 H 0.0292 0.3654 -0.0779
H43 H 0.1018 0.3003 -0.0766
H44 H 0.1249 0.3705 -0.0938
C107 C 0.27582(17) 0.15224(13) -0.02504(5)
C108 C 0.27539(19) 0.09187(14) -0.04181(5)
H45 H 0.3315 0.0649 -0.0431
C109 C 0.1932(2) 0.07099(15) -0.05669(6)
H46 H 0.1935 0.0299 -0.0682
C110 C 0.1111(2) 0.10919(16) -0.05493(6)
H47 H 0.0555 0.0947 -0.0655
C111 C 0.1088(2) 0.16868(17) -0.03782(6)
C112 C 0.19258(19) 0.18991(15) -0.02318(5)
H48 H 0.1924 0.2311 -0.0117
C113 C 0.0186(2) 0.2086(2) -0.03424(9)
H49 H -0.0288 0.1945 -0.0490
H50 H 0.0304 0.2597 -0.0355
H51 H -0.0047 0.1976 -0.0159
C114 C 0.07748(18) 0.28596(13) 0.27082(6)
C115 C 0.00437(17) 0.31957(13) 0.28594(5)
C116 C -0.04782(18) 0.26652(13) 0.29837(5)
C117 C -0.0070(2) 0.19775(14) 0.29192(6)
C118 C 0.06663(17) 0.21165(13) 0.27336(5)
C119 C 0.10356(16) 0.15831(12) 0.25314(5)
C120 C 0.02173(16) 0.10629(12) 0.24539(5)
C121 C -0.05274(17) 0.09409(12) 0.26187(5)
C122 C -0.06485(16) 0.12949(12) 0.29040(5)
C123 C -0.17005(16) 0.15035(13) 0.28696(5)
C124 C -0.20597(16) 0.21441(13) 0.29452(5)
C125 C -0.14747(16) 0.27618(13) 0.30727(5)
C126 C -0.19025(16) 0.33906(13) 0.29002(5)
C127 C -0.13907(17) 0.39162(12) 0.27826(5)
C128 C -0.03050(16) 0.39451(12) 0.28050(5)
C129 C -0.01078(16) 0.41211(12) 0.24989(5)
C130 C 0.05784(16) 0.38028(12) 0.23522(5)
C131 C 0.12473(16) 0.32164(12) 0.24707(5)
C132 C 0.11925(16) 0.26920(13) 0.22222(5)
C133 C 0.11034(15) 0.19688(13) 0.22498(5)
C134 C 0.06131(16) 0.15736(12) 0.20290(5)
C135 C 0.00682(16) 0.10192(12) 0.21539(5)
C136 C -0.07967(18) 0.08171(13) 0.20260(5)
C137 C -0.15747(17) 0.06855(13) 0.21995(5)
C138 C -0.14361(17) 0.07658(12) 0.24879(5)
C139 C -0.21566(17) 0.11054(13) 0.26425(5)
C140 C -0.29851(16) 0.13509(13) 0.25024(5)
C141 C -0.33621(16) 0.20271(13) 0.25802(5)
C142 C -0.28890(16) 0.24199(13) 0.27944(5)
C143 C -0.27939(16) 0.31808(13) 0.27655(5)
C144 C -0.31700(16) 0.35209(13) 0.25258(5)
C145 C -0.26275(17) 0.40705(13) 0.24010(5)
C146 C -0.17434(17) 0.42460(12) 0.25272(5)
C147 C -0.09587(17) 0.43710(12) 0.23532(5)
C148 C -0.03766(18) 0.39905(13) 0.19079(5)
C149 C 0.04281(17) 0.37214(13) 0.20544(5)
C150 C 0.08037(16) 0.30412(13) 0.19754(5)
C151 C 0.03693(17) 0.26574(14) 0.17540(5)
C152 C 0.02702(17) 0.19005(14) 0.17819(5)
C153 C -0.06414(18) 0.16975(14) 0.16522(5)
C154 C -0.11662(18) 0.11702(14) 0.17721(5)
C155 C -0.21779(18) 0.12520(15) 0.17871(5)
C156 C -0.24302(17) 0.09534(13) 0.20521(5)
C157 C -0.31228(17) 0.12803(14) 0.22011(5)
C158 C -0.35854(17) 0.19125(14) 0.20930(5)
C159 C -0.37347(16) 0.23795(14) 0.23290(5)
C160 C -0.36399(16) 0.31131(14) 0.23006(5)
C161 C -0.33870(17) 0.34152(15) 0.20370(5)
C162 C -0.32425(18) 0.29689(16) 0.18103(5)
C163 C -0.24570(19) 0.31004(16) 0.16369(5)
C164 C -0.18511(19) 0.36699(15) 0.16977(5)
C165 C -0.08420(18) 0.35855(14) 0.16815(5)
C166 C -0.04809(19) 0.29314(15) 0.16053(5)
C167 C -0.11039(19) 0.23367(15) 0.15436(5)
C168 C -0.20780(19) 0.24216(16) 0.15584(5)
C169 C -0.26242(19) 0.18651(15) 0.16829(5)
C170 C -0.10905(17) 0.43269(13) 0.20633(5)
C171 C -0.33435(18) 0.22050(15) 0.18382(5)
C172 C -0.20046(18) 0.41328(14) 0.19330(5)
C173 C -0.27595(17) 0.40075(14) 0.20989(5)
C174 C -0.04534(16) 0.08066(13) 0.31575(5)
C175 C -0.0217(2) 0.00955(14) 0.31298(6)
H52 H -0.0168 -0.0105 0.2949
C176 C -0.0051(2) -0.03228(15) 0.33677(6)
H53 H 0.0115 -0.0808 0.3348
C177 C -0.0125(2) -0.00388(16) 0.36307(6)
H54 H -0.0004 -0.0330 0.3791
C178 C -0.0375(2) 0.06691(17) 0.36649(6)
C179 C -0.05364(19) 0.10834(15) 0.34254(5)
H55 H -0.0707 0.1567 0.3445
C180 C -0.0479(3) 0.0982(2) 0.39517(7)
H56 H 0.0140 0.1138 0.4031
H57 H -0.0736 0.0623 0.4074
H58 H -0.0908 0.1390 0.3936
C181 C -0.15480(17) 0.28648(13) 0.33875(5)
C182 C -0.2278(2) 0.25602(16) 0.35262(6)
H59 H -0.2730 0.2268 0.3427
C183 C -0.2343(2) 0.26856(19) 0.38113(6)
H60 H -0.2839 0.2474 0.3907
C184 C -0.1692(2) 0.31160(18) 0.39574(6)
H61 H -0.1735 0.3189 0.4153
C185 C -0.0976(2) 0.34414(17) 0.38192(6)
C186 C -0.0906(2) 0.33060(15) 0.35356(5)
H62 H -0.0410 0.3519 0.3441
C187 C -0.0293(4) 0.3957(2) 0.39654(8)
H63 H 0.0219 0.3693 0.4065
H64 H -0.0625 0.4242 0.4099
H65 H -0.0031 0.4270 0.3826
C188 C 0.01196(17) 0.44908(12) 0.30144(5)
C189 C -0.04447(18) 0.49344(13) 0.31653(5)
H66 H -0.1112 0.4903 0.3141
C190 C -0.0027(2) 0.54255(14) 0.33533(6)
H67 H -0.0414 0.5727 0.3457
C191 C 0.0943(2) 0.54772(15) 0.33904(6)
H68 H 0.1220 0.5812 0.3520
C192 C 0.1521(2) 0.50375(15) 0.32382(6)
C193 C 0.10949(18) 0.45508(14) 0.30513(6)
H69 H 0.1480 0.4252 0.2946
C194 C 0.2583(2) 0.5095(2) 0.32694(9)
H70 H 0.2864 0.4693 0.3175
H71 H 0.2791 0.5089 0.3469
H72 H 0.2783 0.5539 0.3185
C195 C 0.22672(16) 0.34586(12) 0.25429(5)
C196 C 0.26071(18) 0.40905(14) 0.24354(6)
H73 H 0.2199 0.4389 0.2323
C197 C 0.35456(19) 0.42822(15) 0.24938(7)
H74 H 0.3776 0.4714 0.2422
C198 C 0.41470(18) 0.38475(15) 0.26563(6)
H75 H 0.4786 0.3984 0.2694
C199 C 0.38251(18) 0.32128(15) 0.27647(6)
C200 C 0.28779(17) 0.30291(13) 0.27062(5)
H76 H 0.2647 0.2599 0.2780
C201 C 0.4472(2) 0.27326(18) 0.29389(8)
H77 H 0.5096 0.2729 0.2862
H78 H 0.4213 0.2250 0.2935
H79 H 0.4527 0.2906 0.3133
C202 C 0.19553(16) 0.12261(12) 0.26433(5)
C203 C 0.20127(18) 0.09222(14) 0.29097(5)
H80 H 0.1472 0.0914 0.3017
C204 C 0.28543(19) 0.06317(15) 0.30183(6)
H81 H 0.2886 0.0422 0.3199
C205 C 0.36517(18) 0.06448(14) 0.28647(6)
H82 H 0.4226 0.0447 0.2942
C206 C 0.36143(17) 0.09457(13) 0.25989(6)
C207 C 0.27535(17) 0.12283(13) 0.24898(5)
H83 H 0.2716 0.1426 0.2307
C208 C 0.44822(18) 0.10032(15) 0.24338(6)
H84 H 0.4726 0.1489 0.2446
H85 H 0.4319 0.0884 0.2237
H86 H 0.4965 0.0674 0.2511
Cl4 Cl 0.05688(10) 0.40865(7) 0.06066(3)
C209 C 0.0638(2) 0.3181(2) 0.06425(7)
C210 C 0.0973(2) 0.2783(2) 0.04272(7)
H87 H 0.1172 0.3004 0.0262
C211 C 0.1010(2) 0.2053(2) 0.04581(7)
H88 H 0.1244 0.1769 0.0314
C212 C 0.0708(3) 0.1730(3) 0.06988(7)
H89 H 0.0731 0.1229 0.0719
C213 C 0.0374(2) 0.2151(3) 0.09086(7)
H90 H 0.0168 0.1933 0.1073
C214 C 0.0335(2) 0.2871(3) 0.08844(7)
H91 H 0.0105 0.3154 0.1030
Cl5 Cl 0.90841(5) 0.62639(5) 0.183275(17)
C215 C 0.8976(2) 0.57061(15) 0.15449(6)
C216 C 0.9784(2) 0.54874(17) 0.14208(6)
H92 H 1.0387 0.5648 0.1491
C217 C 0.9699(2) 0.50317(18) 0.11936(6)
H93 H 1.0246 0.4878 0.1106
C218 C 0.8823(2) 0.48014(17) 0.10946(7)
H94 H 0.8766 0.4488 0.0939
C219 C 0.8026(2) 0.50216(18) 0.12193(7)
H95 H 0.7423 0.4861 0.1148
C220 C 0.8094(2) 0.54764(16) 0.14478(6)
H96 H 0.7545 0.5626 0.1535
Cl6 Cl 1.05160(10) 1.02189(10) 0.11710(3)
C221 C 0.9480(3) 0.9952(2) 0.13100(8)
C222 C 0.9522(3) 0.9468(2) 0.15298(9)
H97 H 1.0115 0.9297 0.1604
C223 C 0.8695(3) 0.9234(2) 0.16407(9)
H98 H 0.8723 0.8903 0.1791
C224 C 0.7827(3) 0.9484(2) 0.15320(10)
H99 H 0.7261 0.9325 0.1608
C225 C 0.7785(3) 0.9969(2) 0.13122(9)
H100 H 0.7192 1.0140 0.1238
C226 C 0.8612(3) 1.02029(18) 0.12013(7)
H101 H 0.8584 1.0534 0.1051
Cl2? Cl 0.0365(3) 0.7820(3) 0.12040(11)
C7? C 0.1535(6) 0.7724(7) 0.1286(3)
C8? C 0.2079(7) 0.8285(5) 0.1394(3)
H6? H 0.1804 0.8741 0.1412
C9? C 0.3025(7) 0.8179(5) 0.1476(2)
H7? H 0.3397 0.8562 0.1550
C10? C 0.3427(6) 0.7511(6) 0.1450(3)
H8? H 0.4073 0.7438 0.1506
C11? C 0.2882(9) 0.6950(5) 0.1342(3)
H9? H 0.3157 0.6494 0.1324
C12? C 0.1936(8) 0.7056(6) 0.1260(3)
H10? H 0.1564 0.6673 0.1186
Cl3? Cl 0.0378(6) 0.7509(5) 0.12694(19)
C13? C 0.3090(11) 0.7814(11) 0.1093(4)
H11? H 0.3431 0.8058 0.0958
C14? C 0.2109(11) 0.7830(9) 0.1075(3)
H12? H 0.1780 0.8086 0.0928
C15? C 0.1610(9) 0.7473(9) 0.1273(3)
C16? C 0.2091(12) 0.7098(9) 0.1488(3)
H13? H 0.1750 0.6854 0.1623
C17? C 0.3072(12) 0.7082(11) 0.1505(4)
H14? H 0.3401 0.6826 0.1652
C18? C 0.3571(9) 0.7439(13) 0.1308(5)
H15? H 0.4241 0.7428 0.1320
C227? C 0.9187(6) 1.0015(4) 0.12461(12)
C228? C 0.8298(5) 0.9807(4) 0.13208(14)
C229? C 0.8211(4) 0.9338(4) 0.15424(16)
C230? C 0.9014(5) 0.9078(4) 0.16893(16)
C231? C 0.9903(4) 0.9287(5) 0.16146(16)
C232? C 0.9990(4) 0.9755(4) 0.13930(14)
Cl7? Cl 0.93500(19) 1.06234(13) 0.09909(5)
H102? H 0.7749 0.9985 0.1220
H103? H 0.7604 0.9196 0.1593
H104? H 0.8955 0.8758 0.1841
H105? H 1.0452 0.9109 0.1715
H106? H 1.0597 0.9898 0.1342
loop_
_geom_bond_atom_site_label_1
_geom_bond_atom_site_label_2
_geom_bond_site_symmetry_1
_geom_bond_site_symmetry_2
Cl1 C1 1_555 1_555
C1 C2 1_555 1_555
C2 H1 1_555 1_555
C3 C2 1_555 1_555
H2 C3 1_555 1_555
C4 C3 1_555 1_555
H3 C4 1_555 1_555
C5 C4 1_555 1_555
H4 C5 1_555 1_555
C6 C1 1_555 1_555
H5 C6 1_555 1_555
C19 C20 1_555 1_555
C20 H16 1_555 1_555
C21 C20 1_555 1_555
C22 C21 1_555 1_555
C23 C19 1_555 1_555
C24 C23 1_555 1_555
C25 C24 1_555 1_555
C26 C25 1_555 1_555
C27 C22 1_555 1_555
C28 C27 1_555 1_555
C29 C28 1_555 1_555
C30 C21 1_555 1_555
C31 C30 1_555 1_555
C32 C31 1_555 1_555
C33 C20 1_555 1_555
C34 C33 1_555 1_555
C35 C34 1_555 1_555
C36 C35 1_555 1_555
C37 C36 1_555 1_555
C38 C37 1_555 1_555
C39 C24 1_555 1_555
C40 C39 1_555 1_555
C41 C25 1_555 1_555
C42 C41 1_555 1_555
C43 C42 1_555 1_555
C44 C26 1_555 1_555
C45 C28 1_555 1_555
C46 C45 1_555 1_555
C47 C46 1_555 1_555
C48 C29 1_555 1_555
C49 C31 1_555 1_555
C50 C49 1_555 1_555
C51 C50 1_555 1_555
C52 C32 1_555 1_555
C53 C34 1_555 1_555
C54 C53 1_555 1_555
C55 C36 1_555 1_555
C56 C19 1_555 1_555
C57 C55 1_555 1_555
C58 C57 1_555 1_555
C59 C37 1_555 1_555
C60 C40 1_555 1_555
C61 C60 1_555 1_555
C62 C42 1_555 1_555
C63 C62 1_555 1_555
C64 C43 1_555 1_555
C65 C46 1_555 1_555
C66 C65 1_555 1_555
C67 C47 1_555 1_555
C68 C50 1_555 1_555
C69 C68 1_555 1_555
C70 C51 1_555 1_555
C71 C54 1_555 1_555
C72 C57 1_555 1_555
C73 C72 1_555 1_555
C74 C69 1_555 1_555
C75 C66 1_555 1_555
C76 C63 1_555 1_555
C77 C73 1_555 1_555
C78 C58 1_555 1_555
C79 C27 1_555 1_555
C80 C79 1_555 1_555
H17 C80 1_555 1_555
C81 C80 1_555 1_555
H18 C81 1_555 1_555
C82 C81 1_555 1_555
H19 C82 1_555 1_555
C83 C82 1_555 1_555
C84 C79 1_555 1_555
H20 C84 1_555 1_555
C85 C83 1_555 1_555
H21 C85 1_555 1_555
H22 C85 1_555 1_555
H23 C85 1_555 1_555
C86 C30 1_555 1_555
C87 C86 1_555 1_555
H24 C87 1_555 1_555
C88 C87 1_555 1_555
H25 C88 1_555 1_555
C89 C88 1_555 1_555
H26 C89 1_555 1_555
C90 C89 1_555 1_555
C91 C86 1_555 1_555
H27 C91 1_555 1_555
C92 C90 1_555 1_555
H28 C92 1_555 1_555
H29 C92 1_555 1_555
H30 C92 1_555 1_555
C93 C33 1_555 1_555
C94 C93 1_555 1_555
H31 C94 1_555 1_555
C95 C94 1_555 1_555
H32 C95 1_555 1_555
C96 C95 1_555 1_555
H33 C96 1_555 1_555
C97 C96 1_555 1_555
C98 C93 1_555 1_555
H34 C98 1_555 1_555
C99 C97 1_555 1_555
H35 C99 1_555 1_555
H36 C99 1_555 1_555
H37 C99 1_555 1_555
C100 C56 1_555 1_555
C101 C100 1_555 1_555
H38 C101 1_555 1_555
C102 C101 1_555 1_555
H39 C102 1_555 1_555
C103 C102 1_555 1_555
H40 C103 1_555 1_555
C104 C103 1_555 1_555
C105 C100 1_555 1_555
H41 C105 1_555 1_555
C106 C104 1_555 1_555
H42 C106 1_555 1_555
H43 C106 1_555 1_555
H44 C106 1_555 1_555
C107 C24 1_555 1_555
C108 C107 1_555 1_555
H45 C108 1_555 1_555
C109 C108 1_555 1_555
H46 C109 1_555 1_555
C110 C109 1_555 1_555
H47 C110 1_555 1_555
C111 C110 1_555 1_555
C112 C107 1_555 1_555
H48 C112 1_555 1_555
C113 C111 1_555 1_555
H49 C113 1_555 1_555
H50 C113 1_555 1_555
H51 C113 1_555 1_555
C114 C115 1_555 1_555
C115 C116 1_555 1_555
C116 C117 1_555 1_555
C117 C118 1_555 1_555
C118 C114 1_555 1_555
C119 C118 1_555 1_555
C120 C119 1_555 1_555
C121 C120 1_555 1_555
C122 C117 1_555 1_555
C123 C122 1_555 1_555
C124 C123 1_555 1_555
C125 C116 1_555 1_555
C126 C125 1_555 1_555
C127 C126 1_555 1_555
C128 C115 1_555 1_555
C129 C128 1_555 1_555
C130 C129 1_555 1_555
C131 C114 1_555 1_555
C132 C131 1_555 1_555
C133 C119 1_555 1_555
C134 C133 1_555 1_555
C135 C120 1_555 1_555
C136 C135 1_555 1_555
C137 C136 1_555 1_555
C138 C121 1_555 1_555
C139 C123 1_555 1_555
C140 C139 1_555 1_555
C141 C140 1_555 1_555
C142 C124 1_555 1_555
C143 C126 1_555 1_555
C144 C143 1_555 1_555
C145 C144 1_555 1_555
C146 C127 1_555 1_555
C147 C129 1_555 1_555
C148 C149 1_555 1_555
C149 C130 1_555 1_555
C150 C132 1_555 1_555
C151 C150 1_555 1_555
C152 C134 1_555 1_555
C153 C152 1_555 1_555
C154 C136 1_555 1_555
C155 C154 1_555 1_555
C156 C137 1_555 1_555
C157 C140 1_555 1_555
C158 C157 1_555 1_555
C159 C141 1_555 1_555
C160 C144 1_555 1_555
C161 C160 1_555 1_555
C162 C161 1_555 1_555
C163 C162 1_555 1_555
C164 C163 1_555 1_555
C165 C148 1_555 1_555
C166 C151 1_555 1_555
C167 C153 1_555 1_555
C168 C163 1_555 1_555
C169 C155 1_555 1_555
C170 C147 1_555 1_555
C171 C158 1_555 1_555
C172 C164 1_555 1_555
C173 C145 1_555 1_555
C174 C122 1_555 1_555
C175 C174 1_555 1_555
H52 C175 1_555 1_555
C176 C175 1_555 1_555
H53 C176 1_555 1_555
C177 C176 1_555 1_555
H54 C177 1_555 1_555
C178 C177 1_555 1_555
C179 C174 1_555 1_555
H55 C179 1_555 1_555
C180 C178 1_555 1_555
H56 C180 1_555 1_555
H57 C180 1_555 1_555
H58 C180 1_555 1_555
C181 C125 1_555 1_555
C182 C181 1_555 1_555
H59 C182 1_555 1_555
C183 C182 1_555 1_555
H60 C183 1_555 1_555
C184 C183 1_555 1_555
H61 C184 1_555 1_555
C185 C184 1_555 1_555
C186 C181 1_555 1_555
H62 C186 1_555 1_555
C187 C185 1_555 1_555
H63 C187 1_555 1_555
H64 C187 1_555 1_555
H65 C187 1_555 1_555
C188 C128 1_555 1_555
C189 C188 1_555 1_555
H66 C189 1_555 1_555
C190 C189 1_555 1_555
H67 C190 1_555 1_555
C191 C190 1_555 1_555
H68 C191 1_555 1_555
C192 C191 1_555 1_555
C193 C188 1_555 1_555
H69 C193 1_555 1_555
C194 C192 1_555 1_555
H70 C194 1_555 1_555
H71 C194 1_555 1_555
H72 C194 1_555 1_555
C195 C131 1_555 1_555
C196 C195 1_555 1_555
H73 C196 1_555 1_555
C197 C196 1_555 1_555
H74 C197 1_555 1_555
C198 C197 1_555 1_555
H75 C198 1_555 1_555
C199 C198 1_555 1_555
C200 C195 1_555 1_555
H76 C200 1_555 1_555
C201 C199 1_555 1_555
H77 C201 1_555 1_555
H78 C201 1_555 1_555
H79 C201 1_555 1_555
C202 C119 1_555 1_555
C203 C202 1_555 1_555
H80 C203 1_555 1_555
C204 C203 1_555 1_555
H81 C204 1_555 1_555
C205 C204 1_555 1_555
H82 C205 1_555 1_555
C206 C205 1_555 1_555
C207 C202 1_555 1_555
H83 C207 1_555 1_555
C208 C206 1_555 1_555
H84 C208 1_555 1_555
H85 C208 1_555 1_555
H86 C208 1_555 1_555
Cl4 C209 1_555 1_555
C209 C210 1_555 1_555
C210 H87 1_555 1_555
C211 C210 1_555 1_555
H88 C211 1_555 1_555
C212 C211 1_555 1_555
H89 C212 1_555 1_555
C213 C212 1_555 1_555
H90 C213 1_555 1_555
C214 C209 1_555 1_555
H91 C214 1_555 1_555
Cl5 C215 1_555 1_555
C215 C216 1_555 1_555
C216 H92 1_555 1_555
C217 C216 1_555 1_555
H93 C217 1_555 1_555
C218 C217 1_555 1_555
H94 C218 1_555 1_555
C219 C218 1_555 1_555
H95 C219 1_555 1_555
C220 C215 1_555 1_555
H96 C220 1_555 1_555
Cl6 C221 1_555 1_555
C221 C222 1_555 1_555
C222 H97 1_555 1_555
C223 C222 1_555 1_555
H98 C223 1_555 1_555
C224 C223 1_555 1_555
H99 C224 1_555 1_555
C225 C224 1_555 1_555
H100 C225 1_555 1_555
C226 C221 1_555 1_555
H101 C226 1_555 1_555
C5 C6 1_555 1_555
C22 C23 1_555 1_555
C26 C27 1_555 1_555
C29 C30 1_555 1_555
C32 C33 1_555 1_555
C35 C56 1_555 1_555
C38 C39 1_555 1_555
C38 C56 1_555 1_555
C40 C41 1_555 1_555
C43 C44 1_555 1_555
C44 C45 1_555 1_555
C47 C48 1_555 1_555
C48 C49 1_555 1_555
C51 C52 1_555 1_555
C52 C53 1_555 1_555
C54 C55 1_555 1_555
C58 C59 1_555 1_555
C59 C60 1_555 1_555
C61 C62 1_555 1_555
C61 C78 1_555 1_555
C63 C64 1_555 1_555
C64 C65 1_555 1_555
C66 C67 1_555 1_555
C67 C68 1_555 1_555
C69 C70 1_555 1_555
C70 C71 1_555 1_555
C71 C72 1_555 1_555
C73 C74 1_555 1_555
C74 C75 1_555 1_555
C75 C76 1_555 1_555
C76 C77 1_555 1_555
C77 C78 1_555 1_555
C83 C84 1_555 1_555
C90 C91 1_555 1_555
C97 C98 1_555 1_555
C104 C105 1_555 1_555
C111 C112 1_555 1_555
C121 C122 1_555 1_555
C124 C125 1_555 1_555
C127 C128 1_555 1_555
C130 C131 1_555 1_555
C132 C133 1_555 1_555
C134 C135 1_555 1_555
C137 C138 1_555 1_555
C138 C139 1_555 1_555
C141 C142 1_555 1_555
C142 C143 1_555 1_555
C145 C146 1_555 1_555
C146 C147 1_555 1_555
C148 C170 1_555 1_555
C149 C150 1_555 1_555
C151 C152 1_555 1_555
C153 C154 1_555 1_555
C155 C156 1_555 1_555
C156 C157 1_555 1_555
C158 C159 1_555 1_555
C159 C160 1_555 1_555
C161 C173 1_555 1_555
C162 C171 1_555 1_555
C164 C165 1_555 1_555
C165 C166 1_555 1_555
C166 C167 1_555 1_555
C167 C168 1_555 1_555
C168 C169 1_555 1_555
C169 C171 1_555 1_555
C170 C172 1_555 1_555
C172 C173 1_555 1_555
C178 C179 1_555 1_555
C185 C186 1_555 1_555
C192 C193 1_555 1_555
C199 C200 1_555 1_555
C206 C207 1_555 1_555
C213 C214 1_555 1_555
C219 C220 1_555 1_555
C225 C226 1_555 1_555

#END
