
#######################################################################
#
#                 Cambridge Crystallographic Data Centre
#                                CCDC 
#
#######################################################################
#
# If this CIF has been generated from an entry in the Cambridge 
# Structural Database, then it will include bibliographic, chemical, 
# crystal, experimental, refinement or atomic coordinate data resulting 
# from the CCDC's data processing and validation procedures.
#
#######################################################################

data_DOQZUG
_chemical_formula_moiety         'C29 H21 Br1 N4 S3,H2 O1,C1 H1 Cl3'
_chemical_name_systematic        
"2-(5''-Bromo-2,2':5',2''-terthiophen-5-yl)-1-butyl-1H-imidazo[4,5-f][1,10]phenanthroline chloroform solvate monohydrate"
_symmetry_cell_setting           monoclinic
_symmetry_space_group_name_H-M   'C 2/c'
_symmetry_Int_Tables_number      15
_space_group_name_Hall           '-C 2yn'
loop_
_symmetry_equiv_pos_site_id
_symmetry_equiv_pos_as_xyz
1 x,y,z
2 -x,y,1/2-z
3 1/2+x,1/2+y,z
4 1/2-x,1/2+y,1/2-z
5 -x,-y,-z
6 x,-y,1/2+z
7 1/2-x,1/2-y,-z
8 1/2+x,1/2-y,1/2+z
_cell_length_a                   38.26(3)
_cell_length_b                   8.509(6)
_cell_length_c                   19.464(14)
_cell_angle_alpha                90
_cell_angle_beta                 93.179(11)
_cell_angle_gamma                90
_cell_volume                     6326.84
_exptl_crystal_colour            brown
_exptl_crystal_description       block
_cell_formula_units_Z            8
loop_
_atom_site_label
_atom_site_type_symbol
_atom_site_fract_x
_atom_site_fract_y
_atom_site_fract_z
Br1 Br 0.54504(4) 1.4859(2) 0.87425(9)
C1 C 0.0825(3) 0.6447(13) 1.0835(6)
H1 H 0.0608 0.6042 1.0936
C2 C 0.0834(4) 0.7179(13) 1.0254(5)
H2 H 0.0639 0.7246 0.9948
C3 C 0.1176(3) 0.7909(11) 1.0108(5)
H3 H 0.1200 0.8461 0.9701
C4 C 0.1461(3) 0.7755(11) 1.0590(4)
C5 C 0.1809(2) 0.8337(11) 1.0539(4)
C6 C 0.2080(3) 0.8120(9) 1.1024(4)
C7 C 0.2026(3) 0.7177(10) 1.1653(4)
C8 C 0.2284(2) 0.6876(11) 1.2142(5)
H4 H 0.2508 0.7276 1.2096
C9 C 0.2216(3) 0.6001(11) 1.2692(5)
H5 H 0.2390 0.5793 1.3032
C10 C 0.1867(4) 0.5388(12) 1.2743(5)
H6 H 0.1821 0.4778 1.3123
C11 C 0.1690(3) 0.6568(11) 1.1725(4)
C12 C 0.1392(3) 0.6836(10) 1.1197(4)
C13 C 0.2310(2) 0.9408(9) 1.0247(4)
C14 C 0.2574(2) 1.0202(10) 0.9869(5)
C15 C 0.2580(3) 1.0982(11) 0.9264(5)
H7 H 0.2382 1.1087 0.8969
C16 C 0.2904(3) 1.1620(11) 0.9108(4)
H8 H 0.2946 1.2145 0.8702
C17 C 0.3143(2) 1.1378(11) 0.9616(4)
C18 C 0.3512(3) 1.1804(10) 0.9665(4)
C19 C 0.3771(3) 1.1523(13) 1.0173(5)
H9 H 0.3729 1.0954 1.0568
C20 C 0.4086(3) 1.2125(13) 1.0058(5)
H10 H 0.4278 1.2013 1.0369
C21 C 0.4105(3) 1.2905(12) 0.9460(6)
C22 C 0.4393(3) 1.3740(13) 0.9121(5)
C23 C 0.4385(3) 1.4855(14) 0.8621(6)
H11 H 0.4180 1.5301 0.8425
C24 C 0.4721(4) 1.5249(17) 0.8436(7)
H12 H 0.4763 1.5932 0.8077
C25 C 0.1791(2) 0.9943(12) 0.9440(5)
H13 H 0.1909 1.0925 0.9351
H14 H 0.1552 1.0200 0.9542
C26 C 0.1779(3) 0.9015(12) 0.8808(5)
H15 H 0.1643 0.8066 0.8865
H16 H 0.2014 0.8719 0.8695
C27 C 0.1599(5) 1.0090(19) 0.8208(6)
H17 H 0.1352 1.0222 0.8280
H18 H 0.1708 1.1120 0.8212
C28 C 0.1642(6) 0.936(2) 0.7580(10)
H19 H 0.1879 0.9489 0.7453
H20 H 0.1486 0.9828 0.7234
H21 H 0.1590 0.8262 0.7618
C29 C 0.4978(3) 1.4566(16) 0.8817(7)
N1 N 0.1086(2) 0.6193(10) 1.1311(4)
N2 N 0.1609(2) 0.5656(9) 1.2271(4)
N3 N 0.19589(19) 0.9243(8) 1.0043(3)
N4 N 0.23821(19) 0.8763(8) 1.0861(3)
S1 S 0.29802(6) 1.0341(3) 1.02984(11)
S2 S 0.36954(7) 1.2860(3) 0.90091(12)
S3 S 0.48160(8) 1.3313(4) 0.93823(16)
C30 C 0.4177(3) 0.9873(12) 0.2311(5)
H22 H 0.3991 0.9991 0.2634
Cl1 Cl 0.40121(11) 0.8823(6) 0.1621(2)
Cl2 Cl 0.45185(12) 0.8886(8) 0.2727(2)
Cl3 Cl 0.42894(18) 1.1707(6) 0.2040(2)
O1 O 0.4996(3) 0.006(3) 0.4244(16)
H23 H 0.5210 0.0321 0.4287
H24 H 0.5041 -0.0907 0.4190
loop_
_geom_bond_atom_site_label_1
_geom_bond_atom_site_label_2
_geom_bond_site_symmetry_1
_geom_bond_site_symmetry_2
Br1 C29 1_555 1_555
C1 H1 1_555 1_555
C2 C1 1_555 1_555
H2 C2 1_555 1_555
C3 C2 1_555 1_555
H3 C3 1_555 1_555
C4 C3 1_555 1_555
C5 C4 1_555 1_555
C6 C5 1_555 1_555
C7 C6 1_555 1_555
C8 C7 1_555 1_555
H4 C8 1_555 1_555
C9 C8 1_555 1_555
H5 C9 1_555 1_555
C10 C9 1_555 1_555
H6 C10 1_555 1_555
C11 C7 1_555 1_555
C12 C4 1_555 1_555
C13 C14 1_555 1_555
C14 C15 1_555 1_555
C15 H7 1_555 1_555
C16 C15 1_555 1_555
H8 C16 1_555 1_555
C17 C16 1_555 1_555
C18 C17 1_555 1_555
C19 C18 1_555 1_555
H9 C19 1_555 1_555
C20 C19 1_555 1_555
H10 C20 1_555 1_555
C21 C20 1_555 1_555
C22 C21 1_555 1_555
C23 C22 1_555 1_555
H11 C23 1_555 1_555
C24 C23 1_555 1_555
H12 C24 1_555 1_555
C25 H13 1_555 1_555
H14 C25 1_555 1_555
C26 C25 1_555 1_555
H15 C26 1_555 1_555
H16 C26 1_555 1_555
C27 C26 1_555 1_555
H17 C27 1_555 1_555
H18 C27 1_555 1_555
C28 C27 1_555 1_555
H19 C28 1_555 1_555
H20 C28 1_555 1_555
H21 C28 1_555 1_555
C29 C24 1_555 1_555
N1 C1 1_555 1_555
N2 C10 1_555 1_555
N3 C5 1_555 1_555
N4 C6 1_555 1_555
S1 C14 1_555 1_555
S2 C18 1_555 1_555
S3 C22 1_555 1_555
C30 H22 1_555 1_555
Cl1 C30 1_555 1_555
Cl2 C30 1_555 1_555
Cl3 C30 1_555 1_555
O1 H23 1_555 1_555
H24 O1 1_555 1_555
C11 C12 1_555 1_555
C11 N2 1_555 1_555
C12 N1 1_555 1_555
C13 N3 1_555 1_555
C13 N4 1_555 1_555
C17 S1 1_555 1_555
C21 S2 1_555 1_555
C25 N3 1_555 1_555
C29 S3 1_555 1_555

#END
