
#######################################################################
#
#                 Cambridge Crystallographic Data Centre
#                                CCDC 
#
#######################################################################
#
# If this CIF has been generated from an entry in the Cambridge 
# Structural Database, then it will include bibliographic, chemical, 
# crystal, experimental, refinement or atomic coordinate data resulting 
# from the CCDC's data processing and validation procedures.
#
#######################################################################

data_DOQZIU
_chemical_formula_moiety         'C24 H16 N4 S2,C1 H1 Cl3'
_chemical_name_systematic        
"1-Allyl-2-(2,2'-bithiophen-5-yl)-1H-imidazo[4,5-f][1,10]phenanthroline chloroform solvate"
_symmetry_cell_setting           monoclinic
_symmetry_space_group_name_H-M   'P 21/c'
_symmetry_Int_Tables_number      14
_space_group_name_Hall           '-P 2ybc'
loop_
_symmetry_equiv_pos_site_id
_symmetry_equiv_pos_as_xyz
1 x,y,z
2 -x,1/2+y,1/2-z
3 -x,-y,-z
4 x,1/2-y,1/2+z
_cell_length_a                   9.2348(11)
_cell_length_b                   22.283(3)
_cell_length_c                   13.6673(19)
_cell_angle_alpha                90
_cell_angle_beta                 117.964(2)
_cell_angle_gamma                90
_cell_volume                     2484.07
_exptl_crystal_colour            yellow
_exptl_crystal_description       block
_cell_formula_units_Z            4
loop_
_atom_site_label
_atom_site_type_symbol
_atom_site_fract_x
_atom_site_fract_y
_atom_site_fract_z
C1 C 1.3591(5) -0.0163(2) 0.5508(4)
H1 H 1.4637 -0.0229 0.6088
C2 C 1.3231(5) 0.0401(2) 0.5024(4)
H2 H 1.4031 0.0698 0.5264
C3 C 1.1692(5) 0.0517(2) 0.4193(4)
H3 H 1.1436 0.0893 0.3857
C4 C 1.0494(4) 0.00613(18) 0.3850(3)
C5 C 0.8814(4) 0.01094(17) 0.3025(3)
C6 C 0.7743(4) -0.03662(18) 0.2713(3)
C7 C 0.8218(4) -0.09435(18) 0.3222(3)
C8 C 0.7165(5) -0.1432(2) 0.2969(4)
H4 H 0.6080 -0.1401 0.2422
C9 C 0.7735(6) -0.1954(2) 0.3528(4)
H5 H 0.7043 -0.2283 0.3381
C10 C 0.9370(6) -0.1990(2) 0.4323(4)
H6 H 0.9748 -0.2353 0.4690
C11 C 0.9857(5) -0.10109(18) 0.4055(3)
C12 C 1.0995(4) -0.05096(18) 0.4368(3)
C13 C 0.6338(4) 0.03706(18) 0.1729(3)
C14 C 0.4981(5) 0.07210(19) 0.0917(3)
C15 C 0.4919(5) 0.1252(2) 0.0405(4)
H7 H 0.5841 0.1477 0.0537
C16 C 0.3302(6) 0.1424(2) -0.0347(4)
H8 H 0.3051 0.1780 -0.0751
C17 C 0.2149(5) 0.10225(19) -0.0426(3)
C18 C 0.0381(5) 0.1045(2) -0.1137(3)
C19 C -0.0780(4) 0.05545(19) -0.1307(3)
H9 H -0.0538 0.0174 -0.0991
C20 C -0.2411(6) 0.0793(3) -0.2086(5)
H10 H -0.3371 0.0572 -0.2321
C21 C -0.2387(7) 0.1343(4) -0.2417(5)
H11 H -0.3330 0.1539 -0.2926
C22 C 0.8347(5) 0.12281(19) 0.2593(4)
H12 H 0.9049 0.1286 0.3380
H13 H 0.7357 0.1460 0.2386
C23 C 0.9200(6) 0.1473(2) 0.1988(5)
H14 H 0.9595 0.1864 0.2159
C24 C 0.9443(9) 0.1199(3) 0.1259(6)
H15 H 0.9070 0.0808 0.1061
H16 H 0.9992 0.1391 0.0925
N1 N 1.2546(4) -0.06095(16) 0.5196(3)
N2 N 1.0427(4) -0.15383(17) 0.4595(3)
N3 N 0.7902(4) 0.05951(15) 0.2400(3)
N4 N 0.6205(4) -0.02002(15) 0.1910(3)
S1 S 0.30507(12) 0.04235(5) 0.04473(9)
S2 S -0.0550(2) 0.16650(8) -0.18603(16)
C25 C 0.5667(6) 0.1867(2) 0.4078(4)
H17 H 0.6595 0.1596 0.4482
Cl1 Cl 0.4695(3) 0.20070(10) 0.48818(19)
Cl2 Cl 0.4231(2) 0.15104(8) 0.28600(14)
Cl3 Cl 0.63703(19) 0.25222(8) 0.37569(18)
loop_
_geom_bond_atom_site_label_1
_geom_bond_atom_site_label_2
_geom_bond_site_symmetry_1
_geom_bond_site_symmetry_2
C1 H1 1_555 1_555
C2 C1 1_555 1_555
H2 C2 1_555 1_555
C3 C2 1_555 1_555
H3 C3 1_555 1_555
C4 C3 1_555 1_555
C5 C4 1_555 1_555
C6 C5 1_555 1_555
C7 C6 1_555 1_555
C8 C7 1_555 1_555
H4 C8 1_555 1_555
C9 C8 1_555 1_555
H5 C9 1_555 1_555
C10 C9 1_555 1_555
H6 C10 1_555 1_555
C11 C7 1_555 1_555
C12 C4 1_555 1_555
C13 C14 1_555 1_555
C14 C15 1_555 1_555
C15 H7 1_555 1_555
C16 C15 1_555 1_555
H8 C16 1_555 1_555
C17 C16 1_555 1_555
C18 C17 1_555 1_555
C19 C18 1_555 1_555
H9 C19 1_555 1_555
C20 C19 1_555 1_555
H10 C20 1_555 1_555
C21 C20 1_555 1_555
H11 C21 1_555 1_555
C22 H12 1_555 1_555
H13 C22 1_555 1_555
C23 C22 1_555 1_555
H14 C23 1_555 1_555
C24 C23 1_555 1_555
H15 C24 1_555 1_555
H16 C24 1_555 1_555
N1 C1 1_555 1_555
N2 C10 1_555 1_555
N3 C5 1_555 1_555
N4 C6 1_555 1_555
S1 C14 1_555 1_555
S2 C18 1_555 1_555
C25 H17 1_555 1_555
Cl1 C25 1_555 1_555
Cl2 C25 1_555 1_555
Cl3 C25 1_555 1_555
C11 C12 1_555 1_555
C11 N2 1_555 1_555
C12 N1 1_555 1_555
C13 N3 1_555 1_555
C13 N4 1_555 1_555
C17 S1 1_555 1_555
C21 S2 1_555 1_555
C22 N3 1_555 1_555

#END
