
#######################################################################
#
#                 Cambridge Crystallographic Data Centre
#                                CCDC 
#
#######################################################################
#
# If this CIF has been generated from an entry in the Cambridge 
# Structural Database, then it will include bibliographic, chemical, 
# crystal, experimental, refinement or atomic coordinate data resulting 
# from the CCDC's data processing and validation procedures.
#
#######################################################################

data_DORCEU
_chemical_name_common            
'3,22-bis(isopropyl)-7,8,17,18-tetramethyl-12,13-diethylnaphthosapphyrin acetate chloroform solvate'
_chemical_formula_moiety         'C44 H48 N5 1+,C2 H3 O2 1-,C1 H1 Cl3'
_chemical_name_systematic        
'19,20-diethyl-31,35-diisopropyl-14,15,24,25-tetramethyl-10,29,33,34-tetraaza-32-azoniaoctacyclo[26.2.1.1^8,11^.1^13,16^.1^18,21^.1^23,26^.0^2,7^.0^9,30^]pentatriaconta-1,3,5,7,9(30),11(35),12,14,16(34),17,19,21,23(32),24,26,28(31)-hexadecaene acetate chloroform solvate'
_symmetry_cell_setting           monoclinic
_symmetry_space_group_name_H-M   'P 21/n'
_symmetry_Int_Tables_number      14
_space_group_name_Hall           '-P 2yn'
loop_
_symmetry_equiv_pos_site_id
_symmetry_equiv_pos_as_xyz
1 x,y,z
2 1/2-x,1/2+y,1/2-z
3 -x,-y,-z
4 1/2+x,1/2-y,1/2+z
_cell_length_a                   11.6995(8)
_cell_length_b                   23.4822(17)
_cell_length_c                   16.0875(9)
_cell_angle_alpha                90
_cell_angle_beta                 104.644(6)
_cell_angle_gamma                90
_cell_volume                     4276.15
_exptl_crystal_colour            green
_exptl_crystal_description       block
_cell_formula_units_Z            4
loop_
_atom_site_label
_atom_site_type_symbol
_atom_site_fract_x
_atom_site_fract_y
_atom_site_fract_z
Cl1 Cl 0.2772(2) 0.20536(11) 0.94317(16)
Cl2 Cl 0.0456(2) 0.24489(14) 0.88151(18)
Cl3 Cl 0.2314(3) 0.30659(14) 0.8385(2)
C1 C 0.1832(6) 0.2396(3) 0.8581(4)
H1 H 0.175(6) 0.216(3) 0.806(4)
N1 N 0.0890(4) 0.5652(2) 0.5750(3)
N2 N 0.0246(4) 0.5969(2) 0.7387(3)
N3 N 0.1716(4) 0.5416(2) 0.9031(3)
N4 N 0.2723(3) 0.48267(18) 0.5937(2)
C2 C -0.0235(4) 0.6176(2) 0.6587(3)
C3 C 0.0076(4) 0.6034(2) 0.5849(3)
C4 C -0.0484(4) 0.6298(2) 0.5050(3)
C5 C -0.1104(4) 0.6585(2) 0.6621(3)
N5 N 0.3480(4) 0.4577(2) 0.8155(3)
C6 C 0.0064(4) 0.6116(2) 0.8843(3)
H2 H -0.0353 0.6317 0.9169
C7 C -0.1719(4) 0.6861(2) 0.5819(3)
C8 C 0.0033(4) 0.6052(2) 0.4447(3)
C9 C -0.1361(4) 0.6739(2) 0.5042(3)
C10 C 0.2388(4) 0.5104(2) 0.9684(3)
C11 C -0.0247(4) 0.6242(2) 0.7970(3)
C12 C 0.1687(4) 0.5307(2) 0.4607(3)
H3 H 0.1646 0.5332 0.4023
C13 C -0.1107(4) 0.6631(2) 0.7495(3)
C14 C 0.0896(4) 0.5739(2) 0.9304(3)
C15 C 0.3777(4) 0.4495(2) 0.9026(3)
C16 C 0.1967(5) 0.5216(2) 1.0423(3)
C17 C 0.2512(4) 0.4939(2) 0.5065(3)
C18 C 0.0896(4) 0.5652(2) 0.4901(3)
C19 C 0.1072(5) 0.5592(3) 1.0207(3)
C20 C 0.4672(5) 0.4054(2) 0.9192(3)
C21 C -0.2603(5) 0.7264(3) 0.5768(4)
H4 H -0.2884 0.7329 0.6252
C22 C 0.3598(5) 0.4432(2) 0.6120(3)
C23 C 0.3306(5) 0.4730(2) 0.9659(3)
H5 H 0.3702 0.4606 1.0205
C24 C 0.3288(5) 0.4596(3) 0.4700(3)
C25 C 0.4118(4) 0.4216(2) 0.7767(3)
C26 C 0.3947(5) 0.4288(3) 0.5336(4)
C27 C 0.4144(5) 0.4172(2) 0.6909(3)
H6 H 0.4672 0.3892 0.6836
C28 C 0.4849(5) 0.3886(2) 0.8423(4)
C29 C -0.1853(5) 0.7069(3) 0.4312(3)
H7 H -0.1605 0.7007 0.3814
C30 C -0.0222(5) 0.6172(3) 0.3494(3)
H8 H -0.096(5) 0.639(2) 0.335(3)
C31 C -0.0443(5) 0.5660(3) 0.2929(3)
H9 H -0.0798 0.5774 0.2348
H10 H -0.0966 0.5405 0.3121
H11 H 0.0291 0.5470 0.2955
C32 C -0.1864(5) 0.7032(3) 0.7876(3)
H12 H -0.218(5) 0.731(3) 0.742(3)
C33 C 0.5645(5) 0.3405(3) 0.8286(4)
H13 H 0.5223 0.3175 0.7806
H14 H 0.5828 0.3165 0.8793
C34 C 0.3326(6) 0.4617(3) 0.3768(3)
H15 H 0.3659 0.4974 0.3654
H16 H 0.2539 0.4582 0.3407
H17 H 0.3803 0.4310 0.3652
C35 C -0.3085(5) 0.7574(3) 0.5029(4)
H18 H -0.3672 0.7842 0.5024
C36 C 0.2438(6) 0.4936(3) 1.1281(3)
H19 H 0.2000 0.5067 1.1674
H20 H 0.3257 0.5032 1.1500
H21 H 0.2358 0.4530 1.1218
C37 C 0.5318(5) 0.3834(3) 1.0086(3)
H22 H 0.6116 0.3724 1.0082
H23 H 0.5372 0.4139 1.0502
C38 C 0.0315(5) 0.5826(3) 1.0759(3)
H24 H -0.0503 0.5767 1.0478
H25 H 0.0463 0.6227 1.0847
H26 H 0.0503 0.5635 1.1304
C39 C 0.4911(6) 0.3865(3) 0.5294(4)
H27 H 0.4923 0.3807 0.4706
H28 H 0.4759 0.3509 0.5541
H29 H 0.5662 0.4011 0.5610
C40 C -0.2696(5) 0.7485(3) 0.4308(4)
H30 H -0.2995 0.7701 0.3817
C41 C 0.4704(7) 0.3340(4) 1.0353(5)
H31 H 0.3892 0.3436 1.0304
H32 H 0.5079 0.3243 1.0938
H33 H 0.4744 0.3020 0.9989
C42 C 0.0705(8) 0.6551(4) 0.3281(4)
H34 H 0.1430 0.6342 0.3357
H35 H 0.0833 0.6876 0.3654
H36 H 0.0444 0.6675 0.2695
C43 C -0.1198(7) 0.7390(3) 0.8612(4)
H37 H -0.1570 0.7755 0.8592
H38 H -0.0399 0.7438 0.8571
H39 H -0.1197 0.7204 0.9144
C44 C -0.2919(6) 0.6737(4) 0.8022(6)
H40 H -0.2693 0.6514 0.8538
H41 H -0.3248 0.6492 0.7544
H42 H -0.3498 0.7014 0.8079
C45 C 0.6793(7) 0.3611(4) 0.8109(6)
H43 H 0.6624 0.3896 0.7668
H44 H 0.7190 0.3296 0.7924
H45 H 0.7290 0.3770 0.8624
H46 H 0.314(4) 0.484(2) 0.798(3)
H47 H 0.079(4) 0.579(2) 0.752(3)
H48 H 0.133(5) 0.547(3) 0.604(3)
H49 H 0.177(5) 0.541(2) 0.867(3)
O1 O 0.2494(3) 0.55881(17) 0.7582(2)
O2 O 0.2911(4) 0.6498(2) 0.7732(3)
C46 C 0.3173(4) 0.6004(3) 0.7542(3)
C47 C 0.4205(5) 0.5913(3) 0.7231(5)
H50 H 0.4629 0.6265 0.7251
H51 H 0.3972 0.5778 0.6649
H52 H 0.4703 0.5635 0.7584
loop_
_geom_bond_atom_site_label_1
_geom_bond_atom_site_label_2
_geom_bond_site_symmetry_1
_geom_bond_site_symmetry_2
Cl1 C1 1_555 1_555
Cl2 C1 1_555 1_555
Cl3 C1 1_555 1_555
C1 H1 1_555 1_555
N1 C3 1_555 1_555
N2 C2 1_555 1_555
N3 C10 1_555 1_555
N4 C17 1_555 1_555
C2 C3 1_555 1_555
C3 C4 1_555 1_555
C4 C8 1_555 1_555
C5 C2 1_555 1_555
N5 C15 1_555 1_555
C6 H2 1_555 1_555
C7 C5 1_555 1_555
C8 C18 1_555 1_555
C9 C4 1_555 1_555
C10 C16 1_555 1_555
C11 N2 1_555 1_555
C12 H3 1_555 1_555
C13 C5 1_555 1_555
C14 N3 1_555 1_555
C15 C20 1_555 1_555
C16 C19 1_555 1_555
C17 C12 1_555 1_555
C18 N1 1_555 1_555
C19 C14 1_555 1_555
C20 C28 1_555 1_555
C21 C7 1_555 1_555
H4 C21 1_555 1_555
C22 N4 1_555 1_555
C23 C10 1_555 1_555
H5 C23 1_555 1_555
C24 C17 1_555 1_555
C25 N5 1_555 1_555
C26 C22 1_555 1_555
C27 C22 1_555 1_555
H6 C27 1_555 1_555
C28 C25 1_555 1_555
C29 C9 1_555 1_555
H7 C29 1_555 1_555
C30 C8 1_555 1_555
H8 C30 1_555 1_555
C31 C30 1_555 1_555
H9 C31 1_555 1_555
H10 C31 1_555 1_555
H11 C31 1_555 1_555
C32 C13 1_555 1_555
H12 C32 1_555 1_555
C33 C28 1_555 1_555
H13 C33 1_555 1_555
H14 C33 1_555 1_555
C34 C24 1_555 1_555
H15 C34 1_555 1_555
H16 C34 1_555 1_555
H17 C34 1_555 1_555
C35 C21 1_555 1_555
H18 C35 1_555 1_555
C36 C16 1_555 1_555
H19 C36 1_555 1_555
H20 C36 1_555 1_555
H21 C36 1_555 1_555
C37 C20 1_555 1_555
H22 C37 1_555 1_555
H23 C37 1_555 1_555
C38 C19 1_555 1_555
H24 C38 1_555 1_555
H25 C38 1_555 1_555
H26 C38 1_555 1_555
C39 C26 1_555 1_555
H27 C39 1_555 1_555
H28 C39 1_555 1_555
H29 C39 1_555 1_555
C40 C29 1_555 1_555
H30 C40 1_555 1_555
C41 C37 1_555 1_555
H31 C41 1_555 1_555
H32 C41 1_555 1_555
H33 C41 1_555 1_555
C42 C30 1_555 1_555
H34 C42 1_555 1_555
H35 C42 1_555 1_555
H36 C42 1_555 1_555
C43 C32 1_555 1_555
H37 C43 1_555 1_555
H38 C43 1_555 1_555
H39 C43 1_555 1_555
C44 C32 1_555 1_555
H40 C44 1_555 1_555
H41 C44 1_555 1_555
H42 C44 1_555 1_555
C45 C33 1_555 1_555
H43 C45 1_555 1_555
H44 C45 1_555 1_555
H45 C45 1_555 1_555
H46 N5 1_555 1_555
H47 N2 1_555 1_555
H48 N1 1_555 1_555
H49 N3 1_555 1_555
O1 C46 1_555 1_555
O2 C46 1_555 1_555
C46 C47 1_555 1_555
C47 H50 1_555 1_555
H51 C47 1_555 1_555
H52 C47 1_555 1_555
C6 C11 1_555 1_555
C6 C14 1_555 1_555
C7 C9 1_555 1_555
C11 C13 1_555 1_555
C12 C18 1_555 1_555
C15 C23 1_555 1_555
C24 C26 1_555 1_555
C25 C27 1_555 1_555
C35 C40 1_555 1_555

#END
