
#######################################################################
#
#                 Cambridge Crystallographic Data Centre
#                                CCDC 
#
#######################################################################
#
# If this CIF has been generated from an entry in the Cambridge 
# Structural Database, then it will include bibliographic, chemical, 
# crystal, experimental, refinement or atomic coordinate data resulting 
# from the CCDC's data processing and validation procedures.
#
#######################################################################

data_DORCOE
_chemical_formula_moiety         'C28 H28 O4 Si4'
_chemical_name_systematic        
4',4',8',8'-tetramethyldispiro[dibenzo[b,d]silole-5,2'-[1,3,5,7,2,4,6,8]tetroxatetrasilocane-6',5''-dibenzo[b,d]silole]
_symmetry_cell_setting           orthorhombic
_symmetry_space_group_name_H-M   'P 21 21 21'
_symmetry_Int_Tables_number      19
_space_group_name_Hall           'P 2ac 2ab'
loop_
_symmetry_equiv_pos_site_id
_symmetry_equiv_pos_as_xyz
1 x,y,z
2 1/2-x,-y,1/2+z
3 -x,1/2+y,1/2-z
4 1/2+x,1/2-y,-z
_cell_length_a                   8.232(3)
_cell_length_b                   15.943(6)
_cell_length_c                   20.609(9)
_cell_angle_alpha                90
_cell_angle_beta                 90
_cell_angle_gamma                90
_cell_volume                     2704.78
_exptl_crystal_colour            colorless
_exptl_crystal_description       block
_cell_formula_units_Z            4
loop_
_atom_site_label
_atom_site_type_symbol
_atom_site_fract_x
_atom_site_fract_y
_atom_site_fract_z
Si1 Si 0.61851(6) 0.46016(3) 0.71661(3)
Si2 Si 0.25596(6) 0.47800(3) 0.69149(3)
Si3 Si 0.36774(6) 0.53619(3) 0.55499(2)
Si4 Si 0.73014(6) 0.52415(3) 0.58110(3)
O1 O 0.42826(17) 0.43342(9) 0.71282(7)
O2 O 0.29408(17) 0.53733(9) 0.62814(7)
O3 O 0.55678(17) 0.56539(9) 0.55784(7)
O4 O 0.69119(17) 0.46339(9) 0.64344(7)
C1 C 0.7402(2) 0.39253(13) 0.77119(9)
C2 C 0.7737(3) 0.30691(13) 0.77096(10)
H1 H 0.7284 0.2721 0.7383
C3 C 0.8737(3) 0.27211(14) 0.81855(11)
H2 H 0.8957 0.2136 0.8185
C4 C 0.9409(3) 0.32321(16) 0.86606(12)
H3 H 1.0095 0.2993 0.8982
C5 C 0.9093(3) 0.40854(15) 0.86723(11)
H4 H 0.9556 0.4429 0.9000
C6 C 0.8088(2) 0.44371(14) 0.81980(10)
C7 C 0.7650(3) 0.53464(13) 0.81624(9)
C8 C 0.8212(3) 0.59626(15) 0.85870(11)
H5 H 0.8943 0.5820 0.8926
C9 C 0.7696(3) 0.67852(15) 0.85098(12)
H6 H 0.8067 0.7203 0.8803
C10 C 0.6648(3) 0.70080(15) 0.80116(12)
H7 H 0.6297 0.7573 0.7967
C11 C 0.6113(3) 0.63978(15) 0.75774(11)
H8 H 0.5411 0.6551 0.7231
C12 C 0.6596(3) 0.55677(13) 0.76448(10)
C13 C 0.1814(3) 0.54680(15) 0.75682(10)
H9 H 0.0750 0.5695 0.7448
H10 H 0.2582 0.5930 0.7633
H11 H 0.1715 0.5145 0.7971
C14 C 0.1102(3) 0.39492(14) 0.67010(12)
H12 H 0.0034 0.4200 0.6618
H13 H 0.1017 0.3550 0.7061
H14 H 0.1478 0.3656 0.6311
C15 C 0.2457(3) 0.59837(13) 0.49696(9)
C16 C 0.2067(3) 0.68335(14) 0.49425(10)
H15 H 0.2476 0.7206 0.5263
C17 C 0.1081(3) 0.71370(15) 0.44481(11)
H16 H 0.0807 0.7716 0.4434
C18 C 0.0498(3) 0.65974(17) 0.39772(12)
H17 H -0.0165 0.6810 0.3638
C19 C 0.0870(3) 0.57469(15) 0.39947(11)
H18 H 0.0459 0.5381 0.3670
C20 C 0.1845(2) 0.54358(14) 0.44894(10)
C21 C 0.2323(3) 0.45350(13) 0.45674(10)
C22 C 0.1822(3) 0.38806(16) 0.41613(11)
H19 H 0.1098 0.3987 0.3812
C23 C 0.2393(4) 0.30730(15) 0.42751(12)
H20 H 0.2076 0.2631 0.3993
C24 C 0.3421(3) 0.29013(15) 0.47938(12)
H21 H 0.3808 0.2347 0.4864
C25 C 0.3879(3) 0.35459(14) 0.52087(11)
H22 H 0.4565 0.3428 0.5568
C26 C 0.3342(3) 0.43626(14) 0.51029(10)
C27 C 0.8146(3) 0.45679(15) 0.51686(10)
H23 H 0.7393 0.4106 0.5080
H24 H 0.9193 0.4340 0.5311
H25 H 0.8302 0.4899 0.4773
C28 C 0.8677(3) 0.61039(14) 0.60359(11)
H26 H 0.8837 0.6473 0.5661
H27 H 0.9725 0.5873 0.6173
H28 H 0.8199 0.6425 0.6394
loop_
_geom_bond_atom_site_label_1
_geom_bond_atom_site_label_2
_geom_bond_site_symmetry_1
_geom_bond_site_symmetry_2
Si1 O1 1_555 1_555
Si2 O1 1_555 1_555
Si3 O2 1_555 1_555
Si4 O3 1_555 1_555
O2 Si2 1_555 1_555
O3 Si3 1_555 1_555
O4 Si1 1_555 1_555
C1 Si1 1_555 1_555
C2 C1 1_555 1_555
H1 C2 1_555 1_555
C3 C2 1_555 1_555
H2 C3 1_555 1_555
C4 C3 1_555 1_555
H3 C4 1_555 1_555
C5 C4 1_555 1_555
H4 C5 1_555 1_555
C6 C1 1_555 1_555
C7 C6 1_555 1_555
C8 C7 1_555 1_555
H5 C8 1_555 1_555
C9 C8 1_555 1_555
H6 C9 1_555 1_555
C10 C9 1_555 1_555
H7 C10 1_555 1_555
C11 C10 1_555 1_555
H8 C11 1_555 1_555
C12 Si1 1_555 1_555
C13 Si2 1_555 1_555
H9 C13 1_555 1_555
H10 C13 1_555 1_555
H11 C13 1_555 1_555
C14 Si2 1_555 1_555
H12 C14 1_555 1_555
H13 C14 1_555 1_555
H14 C14 1_555 1_555
C15 Si3 1_555 1_555
C16 C15 1_555 1_555
H15 C16 1_555 1_555
C17 C16 1_555 1_555
H16 C17 1_555 1_555
C18 C17 1_555 1_555
H17 C18 1_555 1_555
C19 C18 1_555 1_555
H18 C19 1_555 1_555
C20 C15 1_555 1_555
C21 C20 1_555 1_555
C22 C21 1_555 1_555
H19 C22 1_555 1_555
C23 C22 1_555 1_555
H20 C23 1_555 1_555
C24 C23 1_555 1_555
H21 C24 1_555 1_555
C25 C24 1_555 1_555
H22 C25 1_555 1_555
C26 Si3 1_555 1_555
C27 Si4 1_555 1_555
H23 C27 1_555 1_555
H24 C27 1_555 1_555
H25 C27 1_555 1_555
C28 Si4 1_555 1_555
H26 C28 1_555 1_555
H27 C28 1_555 1_555
H28 C28 1_555 1_555
Si4 O4 1_555 1_555
C5 C6 1_555 1_555
C7 C12 1_555 1_555
C11 C12 1_555 1_555
C19 C20 1_555 1_555
C21 C26 1_555 1_555
C25 C26 1_555 1_555

#END
