
#######################################################################
#
#                 Cambridge Crystallographic Data Centre
#                                CCDC 
#
#######################################################################
#
# If this CIF has been generated from an entry in the Cambridge 
# Structural Database, then it will include bibliographic, chemical, 
# crystal, experimental, refinement or atomic coordinate data resulting 
# from the CCDC's data processing and validation procedures.
#
#######################################################################

data_DORCIY
_chemical_name_common            
'3,22-bis(isopropyl)-7,8,17,18-tetramethylnaphthosapphyrin chloroform solvate hemihydrate'
_chemical_formula_moiety         'C40 H39 N5,0.5(H2 O1),C1 H1 Cl3'
_chemical_name_systematic        
'31,35-diisopropyl-14,15,24,25-tetramethyl-10,29,32,33,34-pentaazaoctacyclo[26.2.1.1^8,11^.1^13,16^.1^18,21^.1^23,26^.0^2,7^.0^9,30^]pentatriaconta-1(31),2,4,6,8(35),9(30),10,12,14,16(34),17,19,21,23,25,27-hexadecaene chloroform solvate hemihydrate'
_symmetry_cell_setting           monoclinic
_symmetry_space_group_name_H-M   'P 21/n'
_symmetry_Int_Tables_number      14
_space_group_name_Hall           '-P 2yn'
loop_
_symmetry_equiv_pos_site_id
_symmetry_equiv_pos_as_xyz
1 x,y,z
2 1/2-x,1/2+y,1/2-z
3 -x,-y,-z
4 1/2+x,1/2-y,1/2+z
_cell_length_a                   15.762(5)
_cell_length_b                   11.428(3)
_cell_length_c                   20.587(7)
_cell_angle_alpha                90
_cell_angle_beta                 91.35(4)
_cell_angle_gamma                90
_cell_volume                     3707.27
_exptl_crystal_colour            green
_exptl_crystal_description       block
_cell_formula_units_Z            4
loop_
_atom_site_label
_atom_site_type_symbol
_atom_site_fract_x
_atom_site_fract_y
_atom_site_fract_z
N1 N 0.4629(6) 0.1901(7) 0.0144(5)
N2 N 0.6222(6) 0.5187(7) 0.1214(4)
H1 H 0.6143 0.4972 0.0817
C1 C 0.4961(6) 0.3470(8) 0.2384(6)
N3 N 0.5771(6) 0.3583(8) -0.0924(4)
H2 H 0.5751 0.3689 -0.0511
N4 N 0.6815(5) 0.5737(7) -0.0059(5)
H3 H 0.6448 0.5252 0.0086
C2 C 0.5141(7) 0.4198(9) 0.2956(5)
C3 C 0.6096(6) 0.5356(8) 0.2291(6)
N5 N 0.5029(5) 0.3077(7) 0.1275(4)
C4 C 0.5703(7) 0.5162(9) 0.2916(6)
C5 C 0.3720(7) 0.0304(9) 0.0194(6)
C6 C 0.5817(7) 0.4743(9) 0.1725(6)
C7 C 0.7797(8) 0.7180(9) -0.0133(7)
C8 C 0.4571(7) 0.2238(10) 0.1578(6)
C9 C 0.6711(7) 0.6160(9) 0.2115(6)
C10 C 0.6234(8) 0.4273(11) -0.1349(7)
C11 C 0.7265(7) 0.6513(9) 0.0305(6)
C12 C 0.7665(9) 0.6754(10) -0.0724(7)
C13 C 0.4487(7) 0.1477(9) -0.0483(7)
C14 C 0.7297(8) 0.6918(10) 0.2521(5)
H4 H 0.721(6) 0.668(7) 0.297(4)
C15 C 0.4715(7) 0.4019(8) 0.3535(5)
H5 H 0.4354 0.3380 0.3570
C16 C 0.7256(7) 0.6672(9) 0.0981(6)
H6 H 0.7602 0.7262 0.1151
C17 C 0.6785(8) 0.6040(9) 0.1421(7)
C18 C 0.5269(6) 0.3807(9) 0.1756(6)
C19 C 0.4810(8) 0.1852(10) -0.1073(6)
H7 H 0.4606 0.1408 -0.1421
C20 C 0.4817(7) 0.4755(9) 0.4045(6)
H8 H 0.4512 0.4627 0.4420
C21 C 0.3574(7) -0.0261(8) -0.1004(5)
H9 H 0.3697 -0.1068 -0.0914
H10 H 0.3841 -0.0033 -0.1398
H11 H 0.2971 -0.0158 -0.1051
C22 C 0.3908(7) 0.0488(10) -0.0449(6)
C23 C 0.7053(7) 0.8200(7) 0.2490(5)
H12 H 0.6449 0.8274 0.2525
H13 H 0.7227 0.8525 0.2085
H14 H 0.7329 0.8612 0.2843
C24 C 0.4177(8) 0.1214(9) 0.0544(7)
C25 C 0.5365(9) 0.5689(10) 0.4018(6)
H15 H 0.5456 0.6175 0.4375
C26 C 0.5594(8) 0.2853(11) -0.1937(6)
H16 H 0.5417 0.2396 -0.2288
C27 C 0.3144(6) -0.0577(7) 0.0496(5)
H17 H 0.2790 -0.0928 0.0164
H18 H 0.2796 -0.0194 0.0808
H19 H 0.3479 -0.1171 0.0709
C28 C 0.6115(8) 0.3761(10) -0.1957(6)
H20 H 0.6371 0.4023 -0.2333
C29 C 0.5345(8) 0.2700(11) -0.1263(7)
C30 C 0.7040(8) 0.5845(10) -0.0705(7)
C31 C 0.5776(7) 0.5880(9) 0.3441(6)
H21 H 0.6122 0.6536 0.3411
C32 C 0.8400(6) 0.8125(8) 0.0097(5)
H22 H 0.8761 0.7825 0.0439
H23 H 0.8082 0.8778 0.0255
H24 H 0.8740 0.8374 -0.0259
C33 C 0.4144(6) 0.1347(8) 0.1214(6)
H25 H 0.3819 0.0814 0.1441
C34 C 0.4524(7) 0.0314(8) 0.2691(6)
H26 H 0.4251 -0.0015 0.2312
H27 H 0.4385 -0.0143 0.3065
H28 H 0.5127 0.0310 0.2639
C35 C 0.4547(7) 0.2422(9) 0.2271(6)
C36 C 0.6756(8) 0.5208(11) -0.1230(6)
H29 H 0.6981 0.5490 -0.1613
C37 C 0.8084(7) 0.7173(8) -0.1336(5)
H30 H 0.8533 0.7708 -0.1223
H31 H 0.7672 0.7561 -0.1611
H32 H 0.8313 0.6515 -0.1563
C38 C 0.4217(9) 0.1581(10) 0.2784(6)
H33 H 0.446(6) 0.184(8) 0.320(5)
C39 C 0.3260(8) 0.1671(10) 0.2837(6)
H34 H 0.2993 0.1390 0.2443
H35 H 0.3104 0.2473 0.2905
H36 H 0.3078 0.1206 0.3197
C40 C 0.8220(7) 0.6693(8) 0.2397(6)
H37 H 0.8296 0.5887 0.2280
H38 H 0.8551 0.6863 0.2782
H39 H 0.8401 0.7185 0.2048
Cl1 Cl 0.2743(3) 0.1922(4) 0.5630(3)
Cl2 Cl 0.4201(4) 0.0680(4) 0.5863(3)
Cl3 Cl 0.3889(5) 0.1716(5) 0.4662(3)
C41 C 0.3549(12) 0.0943(10) 0.5257(12)
H40 H 0.328(8) 0.022(10) 0.510(7)
O1 O 0.5000 0.5000 0.0000
loop_
_geom_bond_atom_site_label_1
_geom_bond_atom_site_label_2
_geom_bond_site_symmetry_1
_geom_bond_site_symmetry_2
N1 C13 1_555 1_555
N2 H1 1_555 1_555
C1 C2 1_555 1_555
N3 H2 1_555 1_555
N4 H3 1_555 1_555
C2 C4 1_555 1_555
C3 C4 1_555 1_555
N5 C8 1_555 1_555
C4 C31 1_555 1_555
C5 C22 1_555 1_555
C6 N2 1_555 1_555
C7 C11 1_555 1_555
C8 C33 1_555 1_555
C9 C3 1_555 1_555
C10 N3 1_555 1_555
C11 N4 1_555 1_555
C12 C7 1_555 1_555
C13 C19 1_555 1_555
C14 C9 1_555 1_555
H4 C14 1_555 1_555
C15 C2 1_555 1_555
H5 C15 1_555 1_555
C16 C11 1_555 1_555
H6 C16 1_555 1_555
C17 N2 1_555 1_555
C18 C1 1_555 1_555
C19 H7 1_555 1_555
C20 C15 1_555 1_555
H8 C20 1_555 1_555
C21 H9 1_555 1_555
H10 C21 1_555 1_555
H11 C21 1_555 1_555
C22 C13 1_555 1_555
C23 C14 1_555 1_555
H12 C23 1_555 1_555
H13 C23 1_555 1_555
H14 C23 1_555 1_555
C24 N1 1_555 1_555
C25 C20 1_555 1_555
H15 C25 1_555 1_555
C26 H16 1_555 1_555
C27 C5 1_555 1_555
H17 C27 1_555 1_555
H18 C27 1_555 1_555
H19 C27 1_555 1_555
C28 C10 1_555 1_555
H20 C28 1_555 1_555
C29 N3 1_555 1_555
C30 N4 1_555 1_555
C31 C25 1_555 1_555
H21 C31 1_555 1_555
C32 C7 1_555 1_555
H22 C32 1_555 1_555
H23 C32 1_555 1_555
H24 C32 1_555 1_555
C33 C24 1_555 1_555
H25 C33 1_555 1_555
C34 H26 1_555 1_555
H27 C34 1_555 1_555
H28 C34 1_555 1_555
C35 C1 1_555 1_555
C36 C10 1_555 1_555
H29 C36 1_555 1_555
C37 C12 1_555 1_555
H30 C37 1_555 1_555
H31 C37 1_555 1_555
H32 C37 1_555 1_555
C38 C34 1_555 1_555
H33 C38 1_555 1_555
C39 C38 1_555 1_555
H34 C39 1_555 1_555
H35 C39 1_555 1_555
H36 C39 1_555 1_555
C40 C14 1_555 1_555
H37 C40 1_555 1_555
H38 C40 1_555 1_555
H39 C40 1_555 1_555
Cl1 C41 1_555 1_555
Cl2 C41 1_555 1_555
Cl3 C41 1_555 1_555
C41 H40 1_555 1_555
C3 C6 1_555 1_555
N5 C18 1_555 1_555
C5 C24 1_555 1_555
C6 C18 1_555 1_555
C8 C35 1_555 1_555
C9 C17 1_555 1_555
C12 C30 1_555 1_555
C16 C17 1_555 1_555
C19 C29 1_555 1_555
C21 C22 1_555 1_555
C26 C28 1_555 1_555
C26 C29 1_555 1_555
C30 C36 1_555 1_555
C35 C38 1_555 1_555

#END
