
#######################################################################
#
#                 Cambridge Crystallographic Data Centre
#                                CCDC 
#
#######################################################################
#
# If this CIF has been generated from an entry in the Cambridge 
# Structural Database, then it will include bibliographic, chemical, 
# crystal, experimental, refinement or atomic coordinate data resulting 
# from the CCDC's data processing and validation procedures.
#
#######################################################################

data_DORDEV
_chemical_formula_moiety         'C32 H40 O6 Si6'
_chemical_name_systematic        
3',3',5',5',9',9',11',11'-octamethyldispiro[dibenzo[b,d]silole-5,1'-cyclohexasiloxane-7',5''-dibenzo[b,d]silole]
_symmetry_cell_setting           monoclinic
_symmetry_space_group_name_H-M   'P 21/n'
_symmetry_Int_Tables_number      14
_space_group_name_Hall           '-P 2yn'
loop_
_symmetry_equiv_pos_site_id
_symmetry_equiv_pos_as_xyz
1 x,y,z
2 1/2-x,1/2+y,1/2-z
3 -x,-y,-z
4 1/2+x,1/2-y,1/2+z
_cell_length_a                   8.9551(8)
_cell_length_b                   8.9057(17)
_cell_length_c                   22.7715(16)
_cell_angle_alpha                90
_cell_angle_beta                 94.779(5)
_cell_angle_gamma                90
_cell_volume                     1809.75
_exptl_crystal_colour            colorless
_exptl_crystal_description       block
_cell_formula_units_Z            2
loop_
_atom_site_label
_atom_site_type_symbol
_atom_site_fract_x
_atom_site_fract_y
_atom_site_fract_z
Si1 Si -0.14978(6) 0.28179(5) 0.09566(2)
Si2 Si 0.11082(5) 0.27591(5) 0.01415(2)
O1 O -0.05494(14) 0.27139(14) 0.03797(5)
O2 O 0.08217(15) 0.31179(16) -0.05599(5)
C1 C -0.3431(3) 0.2239(4) 0.07534(12)
H1 H -0.3841 0.2829 0.0414
H2 H -0.4035 0.2406 0.1087
H3 H -0.3451 0.1170 0.0650
C2 C -0.0596(3) 0.1674(3) 0.15536(10)
H4 H 0.0450 0.1988 0.1633
H5 H -0.0632 0.0614 0.1437
H6 H -0.1125 0.1807 0.1910
C3 C 0.2043(3) 0.0932(3) 0.02528(13)
H7 H 0.2199 0.0718 0.0676
H8 H 0.3013 0.0957 0.0083
H9 H 0.1415 0.0145 0.0059
C4 C 0.2250(2) 0.4262(2) 0.05120(9)
H10 H 0.1743 0.5229 0.0443
H11 H 0.3233 0.4294 0.0353
H12 H 0.2379 0.4061 0.0936
Si3 Si 0.1432(4) 0.3658(3) -0.11732(9)
O3 O 0.1367(5) 0.5460(3) -0.12283(18)
C5 C 0.0558(6) 0.2733(8) -0.1847(3)
C6 C -0.0909(6) 0.2737(6) -0.2109(3)
H13 H -0.1657 0.3305 -0.1937
C7 C -0.1286(6) 0.1917(7) -0.2620(2)
H14 H -0.2283 0.1937 -0.2799
C8 C -0.0197(6) 0.1071(6) -0.2867(2)
H15 H -0.0455 0.0504 -0.3214
C9 C 0.1259(6) 0.1045(6) -0.2613(2)
H16 H 0.1994 0.0464 -0.2788
C10 C 0.1655(6) 0.1866(7) -0.2103(3)
C11 C 0.3177(7) 0.1900(12) -0.1780(4)
C12 C 0.4403(7) 0.1066(10) -0.1933(3)
H17 H 0.4310 0.0423 -0.2267
C13 C 0.5758(6) 0.1179(7) -0.1595(3)
H18 H 0.6595 0.0612 -0.1699
C14 C 0.5905(6) 0.2104(6) -0.1110(3)
H19 H 0.6844 0.2183 -0.0884
C15 C 0.4682(7) 0.2923(8) -0.0949(3)
H20 H 0.4793 0.3550 -0.0611
C16 C 0.3293(7) 0.2839(15) -0.1276(5)
Si1B Si 0.14978(6) 0.71821(5) -0.09566(2)
Si2B Si -0.11082(5) 0.72409(5) -0.01415(2)
O1B O 0.05494(14) 0.72861(14) -0.03797(5)
O2B O -0.08217(15) 0.68821(16) 0.05599(5)
C1B C 0.3431(3) 0.7761(4) -0.07534(12)
H1B H 0.3841 0.7171 -0.0414
H2B H 0.4035 0.7594 -0.1087
H3B H 0.3451 0.8830 -0.0650
C2B C 0.0596(3) 0.8326(3) -0.15536(10)
H4B H -0.0450 0.8012 -0.1633
H5B H 0.0632 0.9386 -0.1437
H6B H 0.1125 0.8193 -0.1910
C3B C -0.2043(3) 0.9068(3) -0.02528(13)
H7B H -0.2199 0.9282 -0.0676
H8B H -0.3013 0.9043 -0.0083
H9B H -0.1415 0.9855 -0.0059
C4B C -0.2250(2) 0.5738(2) -0.05120(9)
H10B H -0.1743 0.4771 -0.0443
H11B H -0.3233 0.5706 -0.0353
H12B H -0.2379 0.5939 -0.0936
Si3B Si -0.1432(4) 0.6342(3) 0.11732(9)
O3B O -0.1367(5) 0.4540(3) 0.12283(18)
C5B C -0.0558(6) 0.7267(8) 0.1847(3)
C6B C 0.0909(6) 0.7263(6) 0.2109(3)
H13B H 0.1657 0.6695 0.1937
C7B C 0.1286(6) 0.8083(7) 0.2620(2)
H14B H 0.2283 0.8063 0.2799
C8B C 0.0197(6) 0.8929(6) 0.2867(2)
H15B H 0.0455 0.9496 0.3214
C9B C -0.1259(6) 0.8955(6) 0.2613(2)
H16B H -0.1994 0.9536 0.2788
C10B C -0.1655(6) 0.8134(7) 0.2103(3)
C11B C -0.3177(7) 0.8100(12) 0.1780(4)
C12B C -0.4403(7) 0.8934(10) 0.1933(3)
H17B H -0.4310 0.9577 0.2267
C13B C -0.5758(6) 0.8821(7) 0.1595(3)
H18B H -0.6595 0.9388 0.1699
C14B C -0.5905(6) 0.7896(6) 0.1110(3)
H19B H -0.6844 0.7817 0.0884
C15B C -0.4682(7) 0.7077(8) 0.0949(3)
H20B H -0.4793 0.6450 0.0611
C16B C -0.3293(7) 0.7161(15) 0.1276(5)
Si4? Si 0.1662(9) 0.3691(9) -0.1119(3)
O4? O 0.1845(12) 0.5487(9) -0.1063(4)
C17? C 0.0526(17) 0.301(2) -0.1781(7)
C18? C -0.0947(15) 0.3197(17) -0.2024(6)
H21? H -0.1612 0.3824 -0.1832
C19? C -0.1434(15) 0.2494(17) -0.2532(6)
H22? H -0.2438 0.2653 -0.2688
C20? C -0.0546(16) 0.1569(18) -0.2828(6)
H23? H -0.0946 0.1051 -0.3171
C21? C 0.0929(16) 0.1392(18) -0.2627(7)
H24? H 0.1589 0.0814 -0.2843
C22? C 0.1440(17) 0.209(2) -0.2091(8)
C23? C 0.3001(19) 0.189(3) -0.1832(10)
C24? C 0.4138(19) 0.104(3) -0.2057(8)
H25? H 0.3939 0.0494 -0.2414
C25? C 0.554(2) 0.099(2) -0.1761(7)
H26? H 0.6290 0.0378 -0.1914
C26? C 0.5900(17) 0.1776(18) -0.1257(7)
H27? H 0.6889 0.1734 -0.1072
C27? C 0.4827(19) 0.264(2) -0.1014(9)
H28? H 0.5062 0.3178 -0.0659
C28? C 0.3380(17) 0.270(4) -0.1305(13)
loop_
_geom_bond_atom_site_label_1
_geom_bond_atom_site_label_2
_geom_bond_site_symmetry_1
_geom_bond_site_symmetry_2
Si1 O1 1_555 1_555
Si2 O1 1_555 1_555
O2 Si2 1_555 1_555
C1 Si1 1_555 1_555
H1 C1 1_555 1_555
H2 C1 1_555 1_555
H3 C1 1_555 1_555
C2 Si1 1_555 1_555
H4 C2 1_555 1_555
H5 C2 1_555 1_555
H6 C2 1_555 1_555
C3 Si2 1_555 1_555
H7 C3 1_555 1_555
H8 C3 1_555 1_555
H9 C3 1_555 1_555
C4 Si2 1_555 1_555
H10 C4 1_555 1_555
H11 C4 1_555 1_555
H12 C4 1_555 1_555
Si3 O2 1_555 1_555
O3 Si3 1_555 1_555
C5 Si3 1_555 1_555
C6 C5 1_555 1_555
H13 C6 1_555 1_555
C7 C6 1_555 1_555
H14 C7 1_555 1_555
C8 C7 1_555 1_555
H15 C8 1_555 1_555
C9 C8 1_555 1_555
H16 C9 1_555 1_555
C10 C5 1_555 1_555
C11 C10 1_555 1_555
C12 C11 1_555 1_555
H17 C12 1_555 1_555
C13 C12 1_555 1_555
H18 C13 1_555 1_555
C14 C13 1_555 1_555
H19 C14 1_555 1_555
C15 C14 1_555 1_555
H20 C15 1_555 1_555
C16 Si3 1_555 1_555
Si1B O3 1_555 1_555
Si2B O1B 1_555 1_555
O1B Si1B 1_555 1_555
O2B Si2B 1_555 1_555
C1B Si1B 1_555 1_555
H1B C1B 1_555 1_555
H2B C1B 1_555 1_555
H3B C1B 1_555 1_555
C2B Si1B 1_555 1_555
H4B C2B 1_555 1_555
H5B C2B 1_555 1_555
H6B C2B 1_555 1_555
C3B Si2B 1_555 1_555
H7B C3B 1_555 1_555
H8B C3B 1_555 1_555
H9B C3B 1_555 1_555
C4B Si2B 1_555 1_555
H10B C4B 1_555 1_555
H11B C4B 1_555 1_555
H12B C4B 1_555 1_555
Si3B O2B 1_555 1_555
O3B Si1 1_555 1_555
C5B Si3B 1_555 1_555
C6B C5B 1_555 1_555
H13B C6B 1_555 1_555
C7B C6B 1_555 1_555
H14B C7B 1_555 1_555
C8B C7B 1_555 1_555
H15B C8B 1_555 1_555
C9B C8B 1_555 1_555
H16B C9B 1_555 1_555
C10B C5B 1_555 1_555
C11B C10B 1_555 1_555
C12B C11B 1_555 1_555
H17B C12B 1_555 1_555
C13B C12B 1_555 1_555
H18B C13B 1_555 1_555
C14B C13B 1_555 1_555
H19B C14B 1_555 1_555
C15B C14B 1_555 1_555
H20B C15B 1_555 1_555
C16B Si3B 1_555 1_555
C9 C10 1_555 1_555
C11 C16 1_555 1_555
C15 C16 1_555 1_555
Si3B O3B 1_555 1_555
C9B C10B 1_555 1_555
C11B C16B 1_555 1_555
C15B C16B 1_555 1_555

#END
