
#######################################################################
#
#                 Cambridge Crystallographic Data Centre
#                                CCDC 
#
#######################################################################
#
# If this CIF has been generated from an entry in the Cambridge 
# Structural Database, then it will include bibliographic, chemical, 
# crystal, experimental, refinement or atomic coordinate data resulting 
# from the CCDC's data processing and validation procedures.
#
#######################################################################

data_DORJIE
_chemical_formula_moiety         'C20 H20 N2 O4'
_chemical_name_systematic        
'(2R*,4R*)-2-Cyano-2-methyl-4-phenylpentyl 4-nitrobenzoate'
_symmetry_cell_setting           monoclinic
_symmetry_space_group_name_H-M   'C c'
_symmetry_Int_Tables_number      9
_space_group_name_Hall           'C -2yc'
loop_
_symmetry_equiv_pos_site_id
_symmetry_equiv_pos_as_xyz
1 x,y,z
2 x,-y,1/2+z
3 1/2+x,1/2+y,z
4 1/2+x,1/2-y,1/2+z
_cell_length_a                   11.6059(2)
_cell_length_b                   25.8704(6)
_cell_length_c                   6.7867(2)
_cell_angle_alpha                90.00
_cell_angle_beta                 116.219(1)
_cell_angle_gamma                90.00
_cell_volume                     1828.05
_exptl_crystal_colour            colorless
_exptl_crystal_description       plate
_chemical_melting_point          '84-86 deg.C'
_cell_formula_units_Z            4
loop_
_atom_site_label
_atom_site_type_symbol
_atom_site_fract_x
_atom_site_fract_y
_atom_site_fract_z
O1 O 0.43452(18) 0.44911(9) 1.0370(3)
C1 C 0.5998(3) 0.50927(12) 1.2151(4)
C2 C 0.6864(3) 0.46956(12) 1.3141(4)
H1 H 0.6591 0.4354 1.2841
C3 C 0.8123(3) 0.47993(13) 1.4558(5)
H2 H 0.8700 0.4533 1.5246
C4 C 0.8507(3) 0.53114(13) 1.4934(5)
C5 C 0.6411(3) 0.56006(13) 1.2562(4)
H3 H 0.5832 0.5868 1.1903
C6 C 0.7685(3) 0.57139(12) 1.3949(5)
H4 H 0.7972 0.6054 1.4204
C7 C 0.4627(3) 0.49966(14) 1.0644(4)
O2 O 0.3853(2) 0.53262(10) 0.9756(4)
N1 N 0.9833(3) 0.54259(15) 1.6489(5)
O3 O 1.0240(3) 0.58633(14) 1.6518(5)
C8 C 0.2821(3) 0.37948(12) 0.8951(5)
C9 C 0.3005(3) 0.43731(13) 0.9004(6)
H5 H 0.2750 0.4502 0.7527
H6 H 0.2475 0.4539 0.9593
C10 C 0.1390(3) 0.37051(12) 0.7361(5)
H7 H 0.0877 0.3882 0.7958
H8 H 0.1219 0.3871 0.5977
C11 C 0.0909(3) 0.31450(13) 0.6867(5)
H9 H 0.1377 0.2942 0.8205
O4 O 1.0463(3) 0.50883(14) 1.7772(6)
C12 C 0.3691(3) 0.35491(14) 0.8163(6)
C13 C 0.3166(4) 0.35872(16) 1.1274(6)
H10 H 0.3176 0.3216 1.1254
H11 H 0.2539 0.3704 1.1737
H12 H 0.3999 0.3712 1.2278
C14 C -0.0499(3) 0.31259(12) 0.6330(6)
C15 C -0.1447(4) 0.32765(16) 0.4320(8)
H13 H -0.1209 0.3391 0.3253
N2 N 0.4391(3) 0.33671(13) 0.7618(7)
C16 C -0.0883(5) 0.29678(14) 0.7860(8)
H14 H -0.0273 0.2872 0.9253
C17 C -0.3085(7) 0.3101(3) 0.536(2)
H15 H -0.3951 0.3093 0.5040
C18 C 0.1182(4) 0.29100(19) 0.5060(9)
H16 H 0.0823 0.2569 0.4727
H17 H 0.2094 0.2892 0.5546
H18 H 0.0803 0.3122 0.3768
C19 C -0.2730(6) 0.3264(2) 0.3826(14)
H19 H -0.3345 0.3368 0.2450
C20 C -0.2196(9) 0.2948(2) 0.7346(16)
H20 H -0.2452 0.2830 0.8386
loop_
_geom_bond_atom_site_label_1
_geom_bond_atom_site_label_2
_geom_bond_site_symmetry_1
_geom_bond_site_symmetry_2
O1 C7 1_555 1_555
C1 C2 1_555 1_555
C2 H1 1_555 1_555
C3 C2 1_555 1_555
H2 C3 1_555 1_555
C4 C3 1_555 1_555
C5 C1 1_555 1_555
H3 C5 1_555 1_555
C6 C4 1_555 1_555
H4 C6 1_555 1_555
C7 C1 1_555 1_555
O2 C7 1_555 1_555
N1 C4 1_555 1_555
O3 N1 1_555 1_555
C8 C9 1_555 1_555
C9 O1 1_555 1_555
H5 C9 1_555 1_555
H6 C9 1_555 1_555
C10 C8 1_555 1_555
H7 C10 1_555 1_555
H8 C10 1_555 1_555
C11 C10 1_555 1_555
H9 C11 1_555 1_555
O4 N1 1_555 1_555
C12 C8 1_555 1_555
C13 C8 1_555 1_555
H10 C13 1_555 1_555
H11 C13 1_555 1_555
H12 C13 1_555 1_555
C14 C11 1_555 1_555
C15 C14 1_555 1_555
H13 C15 1_555 1_555
N2 C12 1_555 1_555
C16 C14 1_555 1_555
H14 C16 1_555 1_555
C17 H15 1_555 1_555
C18 C11 1_555 1_555
H16 C18 1_555 1_555
H17 C18 1_555 1_555
H18 C18 1_555 1_555
C19 C15 1_555 1_555
H19 C19 1_555 1_555
C20 C16 1_555 1_555
H20 C20 1_555 1_555
C5 C6 1_555 1_555
C17 C19 1_555 1_555
C17 C20 1_555 1_555

#END
