
#######################################################################
#
#                 Cambridge Crystallographic Data Centre
#                                CCDC 
#
#######################################################################
#
# If this CIF has been generated from an entry in the Cambridge 
# Structural Database, then it will include bibliographic, chemical, 
# crystal, experimental, refinement or atomic coordinate data resulting 
# from the CCDC's data processing and validation procedures.
#
#######################################################################

data_DORPEG
_chemical_formula_moiety         'C52 H74 O8 P2 S2'
_chemical_name_systematic        
5,11,17,23-Tetra-t-butyl-25,27-bis(diethylthiophosphato)-26,28-dihydroxycalix(4)arene
_symmetry_cell_setting           orthorhombic
_symmetry_space_group_name_H-M   'P n m a'
_symmetry_Int_Tables_number      62
_space_group_name_Hall           '-P 2ac 2n'
loop_
_symmetry_equiv_pos_site_id
_symmetry_equiv_pos_as_xyz
1 x,y,z
2 1/2-x,-y,1/2+z
3 -x,1/2+y,-z
4 1/2+x,1/2-y,1/2-z
5 -x,-y,-z
6 1/2+x,y,1/2-z
7 x,1/2-y,z
8 1/2-x,1/2+y,1/2+z
_cell_length_a                   19.1231(11)
_cell_length_b                   21.1379(9)
_cell_length_c                   12.7985(6)
_cell_angle_alpha                90
_cell_angle_beta                 90
_cell_angle_gamma                90
_cell_volume                     5173.44
_exptl_crystal_colour            colorless
_exptl_crystal_description       platelet
_chemical_melting_point          'above 260 deg.C'
_cell_formula_units_Z            4
loop_
_atom_site_label
_atom_site_type_symbol
_atom_site_fract_x
_atom_site_fract_y
_atom_site_fract_z
P1 P 0.21960(6) 0.94839(5) 0.08517(9)
S1 S 0.28398(7) 1.01720(5) 0.10166(9)
O1 O 0.32111(19) 0.7500 0.1247(3)
O2 O 0.25338(13) 0.88236(12) 0.05597(19)
O3 O 0.1783(2) 0.9251(2) 0.1845(3)
O4 O 0.16087(19) 0.95840(16) 0.0015(4)
O5 O 0.23362(19) 0.7500 -0.0686(3)
C1 C 0.3835(3) 0.7500 0.1792(4)
C2 C 0.41422(19) 0.80747(17) 0.2062(3)
C3 C 0.4741(2) 0.80611(18) 0.2689(3)
H3 H 0.4947 0.8443 0.2879
C4 C 0.5044(3) 0.7500 0.3039(4)
C5 C 0.5683(3) 0.7500 0.3769(4)
C6 C 0.6350(3) 0.7500 0.3101(5)
C7 C 0.5684(3) 0.8086(3) 0.4482(4)
H7 H 0.5720 0.8461 0.4062
H8 H 0.5258 0.8098 0.4878
H9 H 0.6075 0.8064 0.4951
C8 C 0.3822(2) 0.86955(18) 0.1728(3)
H10 H 0.3351 0.8725 0.2006
H11 H 0.4093 0.9041 0.2019
C9 C 0.3795(2) 0.87651(17) 0.0545(3)
C10 C 0.31677(19) 0.88018(16) -0.0011(3)
C11 C 0.31423(19) 0.87702(16) -0.1091(3)
C12 C 0.3776(2) 0.87660(19) -0.1631(3)
H12 H 0.3767 0.8758 -0.2357
C13 C 0.4424(2) 0.8774(2) -0.1123(3)
C14 C 0.4413(2) 0.8760(2) -0.0024(3)
H13 H 0.4836 0.8747 0.0334
C15 C 0.5118(3) 0.8824(3) -0.1716(4)
C16 C 0.5350(6) 0.9547(4) -0.1631(10)
H14 H 0.5031 0.9806 -0.2022
H15 H 0.5345 0.9675 -0.0912
H16 H 0.5814 0.9595 -0.1909
C17 C 0.5065(5) 0.8726(5) -0.2856(6)
H17 H 0.4978 0.8287 -0.2997
H18 H 0.4687 0.8976 -0.3128
H19 H 0.5494 0.8852 -0.3183
C18 C 0.5717(3) 0.8507(3) -0.1170(4)
H20 H 0.6109 0.8480 -0.1636
H21 H 0.5845 0.8748 -0.0564
H22 H 0.5579 0.8089 -0.0961
C19 C 0.24550(19) 0.86912(17) -0.1696(3)
H23 H 0.2397 0.9040 -0.2181
H24 H 0.2064 0.8695 -0.1213
C20 C 0.24661(17) 0.80727(17) -0.2288(3)
C21 C 0.2423(2) 0.7500 -0.1758(4)
C22 C 0.25656(18) 0.80642(17) -0.3376(3)
H25 H 0.2596 0.8446 -0.3734
C23 C 0.2620(3) 0.7500 -0.3937(4)
C24 C 0.2795(3) 0.7500 -0.5108(4)
C25 C 0.3585(4) 0.7500 -0.5198(6)
H26 H 0.3771 0.7868 -0.4856
H27 H 0.3716 0.7500 -0.5923
C26 C 0.2492(4) 0.8076(3) -0.5653(4)
H28 H 0.2604 0.8059 -0.6384
H29 H 0.1994 0.8080 -0.5567
H30 H 0.2688 0.8453 -0.5354
C27 C 0.1427(6) 0.9630(4) 0.2481(6)
H31 H 0.1722 0.9988 0.2656
H32 H 0.1025 0.9792 0.2105
C28 C 0.1181(3) 0.9342(3) 0.3453(4)
H33 H 0.1576 0.9218 0.3869
H34 H 0.0905 0.9643 0.3834
H35 H 0.0902 0.8977 0.3295
C29 C 0.1542(3) 1.0114(3) -0.0688(4)
H36 H 0.1972 1.0357 -0.0683
H37 H 0.1467 0.9960 -0.1393
C30 C 0.0964(4) 1.0516(3) -0.0384(6)
H38 H 0.1006 1.0622 0.0342
H39 H 0.0972 1.0896 -0.0795
H40 H 0.0531 1.0297 -0.0499
P1F P 0.21960(6) 0.55161(5) 0.08517(9)
S1F S 0.28398(7) 0.48280(5) 0.10166(9)
O2F O 0.25338(13) 0.61764(12) 0.05597(19)
O3F O 0.1783(2) 0.5749(2) 0.1845(3)
O4F O 0.16087(19) 0.54160(16) 0.0015(4)
C2F C 0.41422(19) 0.69253(17) 0.2062(3)
C3F C 0.4741(2) 0.69389(18) 0.2689(3)
H3F H 0.4947 0.6557 0.2879
C7F C 0.5684(3) 0.6914(3) 0.4482(4)
H7F H 0.5720 0.6539 0.4062
H8F H 0.5258 0.6902 0.4878
H9F H 0.6075 0.6936 0.4951
C8F C 0.3822(2) 0.63045(18) 0.1728(3)
H10F H 0.3351 0.6275 0.2006
H11F H 0.4093 0.5959 0.2019
C9F C 0.3795(2) 0.62349(17) 0.0545(3)
C10F C 0.31677(19) 0.61982(16) -0.0011(3)
C11F C 0.31423(19) 0.62298(16) -0.1091(3)
C12F C 0.3776(2) 0.62340(19) -0.1631(3)
H12F H 0.3767 0.6242 -0.2357
C13F C 0.4424(2) 0.6226(2) -0.1123(3)
C14F C 0.4413(2) 0.6240(2) -0.0024(3)
H13F H 0.4836 0.6253 0.0334
C15F C 0.5118(3) 0.6176(3) -0.1716(4)
C16F C 0.5350(6) 0.5453(4) -0.1631(10)
H14F H 0.5031 0.5194 -0.2022
H15F H 0.5345 0.5325 -0.0912
H16F H 0.5814 0.5405 -0.1909
C17F C 0.5065(5) 0.6274(5) -0.2856(6)
H17F H 0.4978 0.6713 -0.2997
H18F H 0.4687 0.6024 -0.3128
H19F H 0.5494 0.6148 -0.3183
C18F C 0.5717(3) 0.6493(3) -0.1170(4)
H20F H 0.6109 0.6520 -0.1636
H21F H 0.5845 0.6252 -0.0564
H22F H 0.5579 0.6911 -0.0961
C19F C 0.24550(19) 0.63088(17) -0.1696(3)
H23F H 0.2397 0.5960 -0.2181
H24F H 0.2064 0.6305 -0.1213
C20F C 0.24661(17) 0.69273(17) -0.2288(3)
C22F C 0.25656(18) 0.69358(17) -0.3376(3)
H25F H 0.2596 0.6554 -0.3734
H26F H 0.3771 0.7132 -0.4856
C26F C 0.2492(4) 0.6924(3) -0.5653(4)
H28F H 0.2604 0.6941 -0.6384
H29F H 0.1994 0.6920 -0.5567
H30F H 0.2688 0.6547 -0.5354
C27F C 0.1427(6) 0.5370(4) 0.2481(6)
H31F H 0.1722 0.5012 0.2656
H32F H 0.1025 0.5208 0.2105
C28F C 0.1181(3) 0.5658(3) 0.3453(4)
H33F H 0.1576 0.5782 0.3869
H34F H 0.0905 0.5357 0.3834
H35F H 0.0902 0.6023 0.3295
C29F C 0.1542(3) 0.4886(3) -0.0688(4)
H36F H 0.1972 0.4643 -0.0683
H37F H 0.1467 0.5040 -0.1393
C30F C 0.0964(4) 0.4484(3) -0.0384(6)
H38F H 0.1006 0.4378 0.0342
H39F H 0.0972 0.4104 -0.0795
H40F H 0.0531 0.4703 -0.0499
H1? H 0.3103 0.7162 0.0913
H2? H 0.2451 0.7113 -0.0388
H4? H 0.6395 0.7100 0.2751
H5? H 0.6750 0.7567 0.3542
H6? H 0.6323 0.7833 0.2592
H41? H 0.3770 0.7126 -0.4873
loop_
_geom_bond_atom_site_label_1
_geom_bond_atom_site_label_2
_geom_bond_site_symmetry_1
_geom_bond_site_symmetry_2
P1 S1 1_555 1_555
O1 C1 1_555 1_555
O2 P1 1_555 1_555
O3 P1 1_555 1_555
O4 P1 1_555 1_555
O5 C21 1_555 1_555
C1 C2 1_555 1_555
C2 C3 1_555 1_555
C3 H3 1_555 1_555
C4 C3 1_555 1_555
C5 C4 1_555 1_555
C6 C5 1_555 1_555
C7 C5 1_555 1_555
H7 C7 1_555 1_555
H8 C7 1_555 1_555
H9 C7 1_555 1_555
C8 C2 1_555 1_555
H10 C8 1_555 1_555
H11 C8 1_555 1_555
C9 C8 1_555 1_555
C10 O2 1_555 1_555
C11 C10 1_555 1_555
C12 C11 1_555 1_555
H12 C12 1_555 1_555
C13 C12 1_555 1_555
C14 C9 1_555 1_555
H13 C14 1_555 1_555
C15 C13 1_555 1_555
C16 C15 1_555 1_555
H14 C16 1_555 1_555
H15 C16 1_555 1_555
H16 C16 1_555 1_555
C17 C15 1_555 1_555
H17 C17 1_555 1_555
H18 C17 1_555 1_555
H19 C17 1_555 1_555
C18 C15 1_555 1_555
H20 C18 1_555 1_555
H21 C18 1_555 1_555
H22 C18 1_555 1_555
C19 C11 1_555 1_555
H23 C19 1_555 1_555
H24 C19 1_555 1_555
C20 C19 1_555 1_555
C21 C20 1_555 1_555
C22 C20 1_555 1_555
H25 C22 1_555 1_555
C23 C22 1_555 1_555
C24 C23 1_555 1_555
C25 C24 1_555 1_555
H26 C25 1_555 1_555
H27 C25 1_555 1_555
C26 C24 1_555 1_555
H28 C26 1_555 1_555
H29 C26 1_555 1_555
H30 C26 1_555 1_555
C27 O3 1_555 1_555
H31 C27 1_555 1_555
H32 C27 1_555 1_555
C28 C27 1_555 1_555
H33 C28 1_555 1_555
H34 C28 1_555 1_555
H35 C28 1_555 1_555
C29 O4 1_555 1_555
H36 C29 1_555 1_555
H37 C29 1_555 1_555
C30 C29 1_555 1_555
H38 C30 1_555 1_555
H39 C30 1_555 1_555
H40 C30 1_555 1_555
P1F S1F 1_555 1_555
O2F P1F 1_555 1_555
O3F P1F 1_555 1_555
O4F P1F 1_555 1_555
C2F C1 1_555 1_555
C3F C4 1_555 1_555
H3F C3F 1_555 1_555
C7F C5 1_555 1_555
H7F C7F 1_555 1_555
H8F C7F 1_555 1_555
H9F C7F 1_555 1_555
C8F C2F 1_555 1_555
H10F C8F 1_555 1_555
H11F C8F 1_555 1_555
C9F C8F 1_555 1_555
C10F O2F 1_555 1_555
C11F C10F 1_555 1_555
C12F C11F 1_555 1_555
H12F C12F 1_555 1_555
C13F C12F 1_555 1_555
C14F C9F 1_555 1_555
H13F C14F 1_555 1_555
C15F C13F 1_555 1_555
C16F C15F 1_555 1_555
H14F C16F 1_555 1_555
H15F C16F 1_555 1_555
H16F C16F 1_555 1_555
C17F C15F 1_555 1_555
H17F C17F 1_555 1_555
H18F C17F 1_555 1_555
H19F C17F 1_555 1_555
C18F C15F 1_555 1_555
H20F C18F 1_555 1_555
H21F C18F 1_555 1_555
H22F C18F 1_555 1_555
C19F C11F 1_555 1_555
H23F C19F 1_555 1_555
H24F C19F 1_555 1_555
C20F C21 1_555 1_555
C22F C23 1_555 1_555
H25F C22F 1_555 1_555
H26F C25 1_555 1_555
C26F C24 1_555 1_555
H28F C26F 1_555 1_555
H29F C26F 1_555 1_555
H30F C26F 1_555 1_555
C27F O3F 1_555 1_555
H31F C27F 1_555 1_555
H32F C27F 1_555 1_555
C28F C27F 1_555 1_555
H33F C28F 1_555 1_555
H34F C28F 1_555 1_555
H35F C28F 1_555 1_555
C29F O4F 1_555 1_555
H36F C29F 1_555 1_555
H37F C29F 1_555 1_555
C30F C29F 1_555 1_555
H38F C30F 1_555 1_555
H39F C30F 1_555 1_555
H40F C30F 1_555 1_555
C9 C10 1_555 1_555
C13 C14 1_555 1_555
C2F C3F 1_555 1_555
C9F C10F 1_555 1_555
C13F C14F 1_555 1_555
C19F C20F 1_555 1_555
C20F C22F 1_555 1_555

#END
