
#######################################################################
#
#                 Cambridge Crystallographic Data Centre
#                                CCDC 
#
#######################################################################
#
# If this CIF has been generated from an entry in the Cambridge 
# Structural Database, then it will include bibliographic, chemical, 
# crystal, experimental, refinement or atomic coordinate data resulting 
# from the CCDC's data processing and validation procedures.
#
#######################################################################

data_DORSEJ
_chemical_formula_moiety         'C37 H36 N4,C2 H6 O1'
_chemical_name_systematic        
'2-Amino-4,5,7-tris(4-isopropylphenyl)-1H-indole-3,6-dicarbonitrile ethanol solvate'
_symmetry_cell_setting           monoclinic
_symmetry_space_group_name_H-M   'P 21/n'
_symmetry_Int_Tables_number      14
_space_group_name_Hall           '-P 2yn'
loop_
_symmetry_equiv_pos_site_id
_symmetry_equiv_pos_as_xyz
1 x,y,z
2 1/2-x,1/2+y,1/2-z
3 -x,-y,-z
4 1/2+x,1/2-y,1/2+z
_cell_length_a                   12.8905(14)
_cell_length_b                   18.936(2)
_cell_length_c                   14.3773(15)
_cell_angle_alpha                90
_cell_angle_beta                 91.727(2)
_cell_angle_gamma                90
_cell_volume                     3507.83
_exptl_crystal_colour            colorless
_exptl_crystal_description       block
_cell_formula_units_Z            4
loop_
_atom_site_label
_atom_site_type_symbol
_atom_site_fract_x
_atom_site_fract_y
_atom_site_fract_z
C1 C 0.64372(18) 0.05849(12) 0.44362(17)
N1 N 0.45705(17) 0.15802(11) 0.24453(15)
C2 C 0.51566(19) 0.13181(12) 0.31929(17)
C3 C 0.52997(19) 0.16092(12) 0.40695(17)
C4 C 0.62527(18) 0.03013(12) 0.35476(17)
C5 C 0.56164(18) 0.06762(12) 0.29164(16)
C6 C 0.59716(18) 0.12359(13) 0.46754(17)
C7 C 0.6225(2) 0.15445(14) 0.55693(19)
C8 C 0.66583(18) -0.04046(12) 0.32630(17)
C9 C 0.5265(2) 0.05580(13) 0.19726(18)
C10 C 0.5472(2) -0.00095(15) 0.13681(19)
C11 C 0.71026(19) 0.01981(13) 0.51355(17)
C12 C 0.4724(2) 0.22637(13) 0.43100(17)
C13 C 0.7273(2) -0.17356(15) 0.2617(2)
N2 N 0.6447(2) 0.18035(14) 0.62625(19)
C14 C 0.7423(2) -0.04714(14) 0.2615(2)
H1 H 0.7737 -0.0069 0.2383
C15 C 0.6235(2) -0.10111(14) 0.3609(2)
H2 H 0.5740 -0.0982 0.4064
C16 C 0.6711(2) -0.00097(15) 0.59811(19)
H3 H 0.6029 0.0100 0.6119
C17 C 0.8119(2) 0.00198(16) 0.4962(2)
H4 H 0.8405 0.0153 0.4402
N3 N 0.4144(2) 0.12711(14) 0.08994(17)
H6 H 0.4543 0.1151 0.0430
H7 H 0.4000 0.1730 0.0865
C18 C 0.7725(2) -0.11284(15) 0.2311(2)
H8 H 0.8252 -0.1160 0.1885
C19 C 0.4646(2) 0.11330(14) 0.17073(18)
C20 C 0.5199(3) 0.28932(15) 0.4545(2)
H9 H 0.5919 0.2913 0.4608
N4 N 0.5610(3) -0.04576(15) 0.08517(19)
C21 C 0.3648(2) 0.22540(17) 0.4264(2)
H10 H 0.3305 0.1833 0.4129
C22 C 0.7323(3) -0.03796(16) 0.6622(2)
H11 H 0.7045 -0.0512 0.7185
C23 C 0.8336(3) -0.05562(17) 0.6445(2)
C24 C 0.8716(2) -0.03506(18) 0.5605(3)
H12 H 0.9395 -0.0465 0.5466
C25 C 0.7546(3) -0.24498(17) 0.2213(3)
H13 H 0.8268 -0.2417 0.2022
C26 C 0.3544(3) 0.34943(18) 0.4617(2)
C27 C 0.3077(3) 0.2857(2) 0.4414(3)
H14 H 0.2356 0.2832 0.4377
C28 C 0.6538(3) -0.16669(15) 0.3287(3)
H15 H 0.6238 -0.2071 0.3530
C29 C 0.4617(3) 0.35015(17) 0.4690(3)
H16 H 0.4957 0.3921 0.4840
C30 C 0.9008(4) -0.0966(2) 0.7141(4)
C31 C 0.2862(4) 0.4151(2) 0.4726(3)
H17 H 0.2313 0.3992 0.5135
C32 C 0.6896(4) -0.2585(3) 0.1339(4)
H18 H 0.7094 -0.3028 0.1072
H19 H 0.7005 -0.2212 0.0900
H20 H 0.6176 -0.2601 0.1490
C33 C 0.7507(4) -0.30464(19) 0.2909(4)
H21 H 0.7950 -0.2937 0.3438
H22 H 0.7739 -0.3475 0.2625
H23 H 0.6807 -0.3106 0.3105
C34 C 0.2299(4) 0.4333(3) 0.3846(4)
H24 H 0.1846 0.4726 0.3949
H25 H 0.1896 0.3934 0.3635
H26 H 0.2789 0.4456 0.3383
C35 C 0.3331(4) 0.4723(3) 0.5218(4)
H27 H 0.3902 0.4901 0.4875
H28 H 0.3579 0.4564 0.5819
H29 H 0.2829 0.5092 0.5294
C36 C 0.9897(4) -0.0593(4) 0.7488(5)
H30 H 1.0197 -0.0841 0.8012
H31 H 0.9697 -0.0128 0.7676
H32 H 1.0398 -0.0559 0.7009
H38 H 0.4328 0.1970 0.2351
C39 C 0.8905(10) -0.1731(4) 0.7032(12)
H40 H 0.8226 -0.1841 0.6781
H41 H 0.9002 -0.1955 0.7628
H42 H 0.9420 -0.1900 0.6618
O1 O 0.3511(2) 0.27327(13) 0.1673(2)
C37 C 0.4048(5) 0.3383(3) 0.1617(6)
H33 H 0.3597 0.3732 0.1319
H34 H 0.4221 0.3549 0.2241
C38 C 0.4961(5) 0.3323(4) 0.1114(6)
H35 H 0.5304 0.3773 0.1099
H36 H 0.4791 0.3173 0.0490
H37 H 0.5413 0.2982 0.1410
H39 H 0.2797 0.2836 0.1568
H5? H 0.3557 0.1024 0.0865
C40? C 0.8450(10) -0.1409(11) 0.7807(14)
H43? H 0.7867 -0.1631 0.7495
H44? H 0.8209 -0.1120 0.8305
H45? H 0.8910 -0.1765 0.8056
loop_
_geom_bond_atom_site_label_1
_geom_bond_atom_site_label_2
_geom_bond_site_symmetry_1
_geom_bond_site_symmetry_2
C1 C4 1_555 1_555
N1 C2 1_555 1_555
C2 C3 1_555 1_555
C3 C6 1_555 1_555
C4 C5 1_555 1_555
C5 C2 1_555 1_555
C6 C1 1_555 1_555
C7 C6 1_555 1_555
C8 C4 1_555 1_555
C9 C5 1_555 1_555
C10 C9 1_555 1_555
C11 C1 1_555 1_555
C12 C3 1_555 1_555
C13 C18 1_555 1_555
N2 C7 1_555 1_555
C14 C8 1_555 1_555
H1 C14 1_555 1_555
C15 C8 1_555 1_555
H2 C15 1_555 1_555
C16 C11 1_555 1_555
H3 C16 1_555 1_555
C17 C11 1_555 1_555
H4 C17 1_555 1_555
N3 H6 1_555 1_555
H7 N3 1_555 1_555
C18 C14 1_555 1_555
H8 C18 1_555 1_555
C19 N1 1_555 1_555
C20 C12 1_555 1_555
H9 C20 1_555 1_555
N4 C10 1_555 1_555
C21 C12 1_555 1_555
H10 C21 1_555 1_555
C22 C16 1_555 1_555
H11 C22 1_555 1_555
C23 C22 1_555 1_555
C24 C17 1_555 1_555
H12 C24 1_555 1_555
C25 C13 1_555 1_555
H13 C25 1_555 1_555
C26 C27 1_555 1_555
C27 C21 1_555 1_555
H14 C27 1_555 1_555
C28 C13 1_555 1_555
H15 C28 1_555 1_555
C29 C20 1_555 1_555
H16 C29 1_555 1_555
C30 C23 1_555 1_555
C31 C26 1_555 1_555
H17 C31 1_555 1_555
C32 C25 1_555 1_555
H18 C32 1_555 1_555
H19 C32 1_555 1_555
H20 C32 1_555 1_555
C33 C25 1_555 1_555
H21 C33 1_555 1_555
H22 C33 1_555 1_555
H23 C33 1_555 1_555
C34 C31 1_555 1_555
H24 C34 1_555 1_555
H25 C34 1_555 1_555
H26 C34 1_555 1_555
C35 C31 1_555 1_555
H27 C35 1_555 1_555
H28 C35 1_555 1_555
H29 C35 1_555 1_555
C36 C30 1_555 1_555
H30 C36 1_555 1_555
H31 C36 1_555 1_555
H32 C36 1_555 1_555
O1 C37 1_555 1_555
C37 H33 1_555 1_555
H34 C37 1_555 1_555
C38 C37 1_555 1_555
H35 C38 1_555 1_555
H36 C38 1_555 1_555
H37 C38 1_555 1_555
H38 N1 1_555 1_555
H39 O1 1_555 1_555
C39 C30 1_555 1_555
H40 C39 1_555 1_555
H41 C39 1_555 1_555
H42 C39 1_555 1_555
C9 C19 1_555 1_555
C15 C28 1_555 1_555
N3 C19 1_555 1_555
C23 C24 1_555 1_555
C26 C29 1_555 1_555

#END
