
#######################################################################
#
#                 Cambridge Crystallographic Data Centre
#                                CCDC 
#
#######################################################################
#
# If this CIF has been generated from an entry in the Cambridge 
# Structural Database, then it will include bibliographic, chemical, 
# crystal, experimental, refinement or atomic coordinate data resulting 
# from the CCDC's data processing and validation procedures.
#
#######################################################################

data_DORTIO
_chemical_formula_moiety         'C28 H15 Cl3 N4'
_chemical_name_systematic        
2-Amino-4,5,7-tris(4-chlorophenyl)-1H-indole-3,6-dicarbonitrile
_symmetry_cell_setting           monoclinic
_symmetry_space_group_name_H-M   'P 21/c'
_symmetry_Int_Tables_number      14
_space_group_name_Hall           '-P 2ybc'
loop_
_symmetry_equiv_pos_site_id
_symmetry_equiv_pos_as_xyz
1 x,y,z
2 -x,1/2+y,1/2-z
3 -x,-y,-z
4 x,1/2-y,1/2+z
_cell_length_a                   11.2812(10)
_cell_length_b                   43.280(4)
_cell_length_c                   12.7042(12)
_cell_angle_alpha                90
_cell_angle_beta                 102.177(1)
_cell_angle_gamma                90
_cell_volume                     6063.27
_chemical_melting_point          '246-247 deg.C'
_cell_formula_units_Z            8
loop_
_atom_site_label
_atom_site_type_symbol
_atom_site_fract_x
_atom_site_fract_y
_atom_site_fract_z
Cl1 Cl 1.1492(4) 1.14052(8) 0.6482(4)
Cl2 Cl 0.6404(4) 0.82621(9) 0.7241(3)
Cl3 Cl 0.6351(5) 1.07962(15) 0.2050(4)
N1 N 0.9874(8) 0.9498(2) 0.8586(7)
H1 H 0.9753 0.9309 0.8753
C1 C 0.9252(9) 0.9649(2) 0.7673(9)
C2 C 0.9830(10) 1.0468(2) 0.6787(9)
C3 C 0.9299(10) 1.0159(2) 0.6814(8)
C4 C 0.7823(10) 0.9227(3) 0.6948(9)
C5 C 0.8303(10) 0.9546(2) 0.6857(8)
C6 C 1.0640(10) 0.9984(2) 0.8680(9)
C7 C 0.7876(10) 1.0249(3) 0.5043(9)
C8 C 1.1539(12) 1.0787(3) 0.6609(9)
H2 H 1.2343 1.0804 0.6549
C9 C 0.9748(10) 0.9957(2) 0.7674(8)
C10 C 0.8325(10) 1.0053(3) 0.5975(9)
C11 C 0.7896(9) 0.9742(3) 0.6032(9)
C12 C 0.8570(10) 1.0337(3) 0.4323(10)
H3 H 0.9369 1.0269 0.4446
C13 C 1.1026(11) 1.0498(3) 0.6696(10)
H4 H 1.1496 1.0322 0.6694
C14 C 0.6906(11) 0.9637(3) 0.5189(10)
N2 N 1.1377(10) 0.9606(3) 1.0072(8)
H5 H 1.1877 0.9732 1.0459
H6 H 1.1323 0.9419 1.0282
C15 C 1.1321(11) 1.0238(3) 0.9117(9)
C16 C 1.0724(10) 0.9697(3) 0.9194(8)
C17 C 0.6931(12) 0.8639(3) 0.7124(11)
N3 N 0.6176(10) 0.9552(3) 0.4553(10)
C18 C 1.0849(13) 1.1040(3) 0.6614(11)
C19 C 0.6664(12) 1.0349(3) 0.4807(10)
H7 H 0.6166 1.0298 0.5277
N4 N 1.1875(11) 1.0448(2) 0.9517(9)
C20 C 0.6743(11) 0.8860(3) 0.7820(11)
H8 H 0.6301 0.8814 0.8341
C21 C 0.8164(13) 1.0515(3) 0.3454(10)
H9 H 0.8677 1.0584 0.3018
C22 C 0.9157(12) 1.0733(3) 0.6752(11)
H10 H 0.8345 1.0721 0.6793
C23 C 0.7207(11) 0.9157(3) 0.7761(9)
H11 H 0.7105 0.9307 0.8260
C24 C 0.9697(14) 1.1028(3) 0.6655(15)
H12 H 0.9240 1.1208 0.6622
C25 C 0.8003(12) 0.8993(3) 0.6230(9)
H13 H 0.8436 0.9038 0.5702
C26 C 0.7565(11) 0.8707(3) 0.6289(11)
H14 H 0.7672 0.8556 0.5797
C27 C 0.6201(12) 1.0516(3) 0.3927(11)
H15 H 0.5395 1.0580 0.3787
C28 C 0.6946(14) 1.0591(3) 0.3241(12)
Cl4 Cl 0.2821(4) 0.74897(10) 1.2084(4)
Cl5 Cl 1.1504(4) 0.67428(9) 0.7302(4)
Cl6 Cl 1.3148(7) 0.83592(17) 0.7160(7)
C29 C 0.7867(10) 0.7595(2) 0.9819(8)
N5 N 0.7031(8) 0.8367(2) 1.0684(7)
H16 H 0.6391 0.8364 1.0952
C30 C 0.7555(10) 0.8111(2) 1.0310(8)
C31 C 0.7178(10) 0.7803(2) 1.0306(8)
C32 C 0.9526(9) 0.7443(2) 0.8895(8)
C33 C 0.6089(9) 0.7716(2) 1.0721(8)
C34 C 0.7499(11) 0.7266(3) 0.9754(9)
C35 C 0.8545(10) 0.8209(2) 0.9903(9)
N6 N 0.7333(10) 0.8895(2) 1.0817(9)
H17 H 0.6684 0.8913 1.1066
H18 H 0.7752 0.9056 1.0738
C36 C 0.7680(12) 0.8624(3) 1.0563(9)
C37 C 0.9226(10) 0.7994(2) 0.9441(9)
C38 C 0.8850(10) 0.7681(3) 0.9410(8)
C39 C 0.9381(11) 0.7431(3) 0.7786(9)
H19 H 0.8859 0.7569 0.7357
C40 C 0.8632(10) 0.8533(2) 1.0090(9)
C41 C 1.0003(12) 0.7217(3) 0.7315(9)
H20 H 0.9912 0.7211 0.6570
C42 C 0.5135(12) 0.7559(3) 1.0143(11)
H21 H 0.5172 0.7498 0.9449
C43 C 0.9525(11) 0.8743(3) 0.9901(10)
N7 N 0.7236(11) 0.7019(3) 0.9701(9)
C44 C 1.0228(10) 0.8096(3) 0.8919(9)
C45 C 1.0760(11) 0.7013(3) 0.7956(11)
C46 C 1.1383(12) 0.8010(4) 0.9318(13)
H22 H 1.1580 0.7892 0.9942
N8 N 1.0237(12) 0.8925(3) 0.9813(11)
C47 C 1.0261(12) 0.7235(3) 0.9512(10)
H23 H 1.0345 0.7237 1.0256
C48 C 0.4049(11) 0.7579(3) 1.1561(11)
C49 C 0.6039(12) 0.7815(3) 1.1800(10)
H24 H 0.6670 0.7927 1.2218
C50 C 1.0900(12) 0.7015(3) 0.9026(10)
H25 H 1.1412 0.6873 0.9446
C51 C 0.5026(14) 0.7737(3) 1.2187(11)
H26 H 0.4993 0.7791 1.2888
C52 C 1.2316(17) 0.8106(4) 0.875(2)
H27 H 1.3122 0.8051 0.9014
C53 C 0.4092(12) 0.7481(4) 1.0522(12)
H28 H 0.3460 0.7369 1.0102
C54 C 0.9935(16) 0.8268(4) 0.7938(16)
H29 H 0.9131 0.8322 0.7665
C55 C 1.201(2) 0.8270(4) 0.786(2)
C56 C 1.079(2) 0.8355(4) 0.7394(19)
H30 H 1.0598 0.8464 0.6751
loop_
_geom_bond_atom_site_label_1
_geom_bond_atom_site_label_2
_geom_bond_site_symmetry_1
_geom_bond_site_symmetry_2
Cl1 C18 1_555 1_555
Cl2 C17 1_555 1_555
Cl3 C28 1_555 1_555
N1 H1 1_555 1_555
C1 N1 1_555 1_555
C2 C3 1_555 1_555
C3 C9 1_555 1_555
C4 C5 1_555 1_555
C5 C1 1_555 1_555
C6 C9 1_555 1_555
C7 C10 1_555 1_555
C8 H2 1_555 1_555
C9 C1 1_555 1_555
C10 C3 1_555 1_555
C11 C5 1_555 1_555
C12 C7 1_555 1_555
H3 C12 1_555 1_555
C13 C2 1_555 1_555
H4 C13 1_555 1_555
C14 C11 1_555 1_555
N2 H5 1_555 1_555
H6 N2 1_555 1_555
C15 C6 1_555 1_555
C16 N1 1_555 1_555
C17 C20 1_555 1_555
N3 C14 1_555 1_555
C18 C8 1_555 1_555
C19 C7 1_555 1_555
H7 C19 1_555 1_555
N4 C15 1_555 1_555
C20 H8 1_555 1_555
C21 C12 1_555 1_555
H9 C21 1_555 1_555
C22 C2 1_555 1_555
H10 C22 1_555 1_555
C23 C4 1_555 1_555
H11 C23 1_555 1_555
C24 C18 1_555 1_555
H12 C24 1_555 1_555
C25 C4 1_555 1_555
H13 C25 1_555 1_555
C26 C17 1_555 1_555
H14 C26 1_555 1_555
C27 C19 1_555 1_555
H15 C27 1_555 1_555
C28 C21 1_555 1_555
Cl4 C48 1_555 1_555
Cl5 C45 1_555 1_555
Cl6 C55 1_555 1_555
C29 C31 1_555 1_555
N5 H16 1_555 1_555
C30 N5 1_555 1_555
C31 C30 1_555 1_555
C32 C38 1_555 1_555
C33 C31 1_555 1_555
C34 C29 1_555 1_555
C35 C30 1_555 1_555
N6 H17 1_555 1_555
H18 N6 1_555 1_555
C36 N5 1_555 1_555
C37 C35 1_555 1_555
C38 C29 1_555 1_555
C39 C32 1_555 1_555
H19 C39 1_555 1_555
C40 C35 1_555 1_555
C41 C39 1_555 1_555
H20 C41 1_555 1_555
C42 C33 1_555 1_555
H21 C42 1_555 1_555
C43 C40 1_555 1_555
N7 C34 1_555 1_555
C44 C37 1_555 1_555
C45 C41 1_555 1_555
C46 C44 1_555 1_555
H22 C46 1_555 1_555
N8 C43 1_555 1_555
C47 C32 1_555 1_555
H23 C47 1_555 1_555
C48 C51 1_555 1_555
C49 C33 1_555 1_555
H24 C49 1_555 1_555
C50 C45 1_555 1_555
H25 C50 1_555 1_555
C51 C49 1_555 1_555
H26 C51 1_555 1_555
C52 C46 1_555 1_555
H27 C52 1_555 1_555
C53 C42 1_555 1_555
H28 C53 1_555 1_555
C54 C44 1_555 1_555
H29 C54 1_555 1_555
C55 C52 1_555 1_555
C56 C54 1_555 1_555
H30 C56 1_555 1_555
C6 C16 1_555 1_555
C8 C13 1_555 1_555
C10 C11 1_555 1_555
N2 C16 1_555 1_555
C20 C23 1_555 1_555
C22 C24 1_555 1_555
C25 C26 1_555 1_555
C27 C28 1_555 1_555
N6 C36 1_555 1_555
C36 C40 1_555 1_555
C37 C38 1_555 1_555
C47 C50 1_555 1_555
C48 C53 1_555 1_555
C55 C56 1_555 1_555

#END
