
#######################################################################
#
#                 Cambridge Crystallographic Data Centre
#                                CCDC 
#
#######################################################################
#
# If this CIF has been generated from an entry in the Cambridge 
# Structural Database, then it will include bibliographic, chemical, 
# crystal, experimental, refinement or atomic coordinate data resulting 
# from the CCDC's data processing and validation procedures.
#
#######################################################################

data_DORVIQ
_chemical_formula_moiety         'C26 H14 Cl2 N4'
_chemical_name_systematic        
8,9-bis(4-Chlorophenyl)-4-methylpyrido(1,2-a)benzimidazole-6,7-dicarbonitrile
_symmetry_cell_setting           monoclinic
_symmetry_space_group_name_H-M   'P 21/n'
_symmetry_Int_Tables_number      14
_space_group_name_Hall           '-P 2yn'
loop_
_symmetry_equiv_pos_site_id
_symmetry_equiv_pos_as_xyz
1 x,y,z
2 1/2-x,1/2+y,1/2-z
3 -x,-y,-z
4 1/2+x,1/2-y,1/2+z
_cell_length_a                   16.979(2)
_cell_length_b                   7.1536(9)
_cell_length_c                   18.099(2)
_cell_angle_alpha                90
_cell_angle_beta                 103.972(2)
_cell_angle_gamma                90
_cell_volume                     2133.28
_chemical_melting_point          'above 300 deg.C'
_cell_formula_units_Z            4
loop_
_atom_site_label
_atom_site_type_symbol
_atom_site_fract_x
_atom_site_fract_y
_atom_site_fract_z
Cl1 Cl 0.45799(5) 0.23774(11) 0.01075(3)
Cl2 Cl 0.88518(4) 0.34095(11) 0.30952(4)
N1 N 0.36009(10) 0.2075(2) 0.47805(9)
N2 N 0.34218(9) 0.2299(2) 0.34954(9)
C1 C 0.64682(11) 0.2987(3) 0.37583(11)
C2 C 0.49319(12) 0.2643(3) 0.34908(11)
C3 C 0.56956(11) 0.2821(3) 0.40113(11)
C4 C 0.57619(12) 0.2777(3) 0.48046(11)
N3 N 0.71601(12) 0.3077(4) 0.57566(12)
C5 C 0.17713(13) 0.1894(3) 0.32373(13)
H1 H 0.1212 0.1722 0.3130
C6 C 0.29525(12) 0.2440(3) 0.27564(12)
H2 H 0.3193 0.2671 0.2355
C7 C 0.22078(12) 0.1810(3) 0.39743(13)
C8 C 0.51671(12) 0.4017(3) 0.22794(11)
H3 H 0.5424 0.5036 0.2556
C9 C 0.51535(12) 0.2471(3) 0.59129(12)
C10 C 0.43254(11) 0.2333(3) 0.45992(11)
C11 C 0.48642(11) 0.2589(3) 0.26555(11)
C12 C 0.65524(12) 0.2945(3) 0.53270(12)
C13 C 0.21434(12) 0.2236(3) 0.26303(12)
H4 H 0.1823 0.2322 0.2136
C14 C 0.42624(11) 0.2450(3) 0.38080(11)
C15 C 0.30641(12) 0.2054(3) 0.41054(11)
C16 C 0.68103(14) 0.1429(3) 0.35089(13)
H5 H 0.6544 0.0285 0.3477
C17 C 0.50897(11) 0.2519(3) 0.51110(11)
C18 C 0.79344(13) 0.3231(4) 0.33542(12)
C19 C 0.50926(13) 0.3945(3) 0.15020(12)
H6 H 0.5307 0.4896 0.1259
C20 C 0.76124(13) 0.4798(4) 0.36041(14)
H7 H 0.7884 0.5934 0.3635
N4 N 0.51894(13) 0.2455(3) 0.65502(11)
C21 C 0.75430(14) 0.1550(4) 0.33070(14)
H8 H 0.7769 0.0494 0.3140
C22 C 0.44826(12) 0.1078(3) 0.22219(11)
H9 H 0.4286 0.0097 0.2463
C23 C 0.43920(13) 0.1016(3) 0.14433(12)
H10 H 0.4127 0.0014 0.1161
C24 C 0.46973(14) 0.2452(3) 0.10884(12)
C25 C 0.68765(13) 0.4679(3) 0.38118(13)
H11 H 0.6658 0.5735 0.3987
C26 C 0.18493(14) 0.1501(4) 0.46410(14)
H12 H 0.1937 0.2588 0.4961
H13 H 0.2103 0.0439 0.4926
H14 H 0.1277 0.1276 0.4465
loop_
_geom_bond_atom_site_label_1
_geom_bond_atom_site_label_2
_geom_bond_site_symmetry_1
_geom_bond_site_symmetry_2
Cl1 C24 1_555 1_555
Cl2 C18 1_555 1_555
N1 C10 1_555 1_555
N2 C6 1_555 1_555
C1 C3 1_555 1_555
C2 C3 1_555 1_555
C3 C4 1_555 1_555
C4 C12 1_555 1_555
N3 C12 1_555 1_555
C5 H1 1_555 1_555
C6 H2 1_555 1_555
C7 C5 1_555 1_555
C8 H3 1_555 1_555
C9 C17 1_555 1_555
C10 C14 1_555 1_555
C11 C2 1_555 1_555
C13 C5 1_555 1_555
H4 C13 1_555 1_555
C14 N2 1_555 1_555
C15 N1 1_555 1_555
C16 C1 1_555 1_555
H5 C16 1_555 1_555
C17 C4 1_555 1_555
C18 C20 1_555 1_555
C19 C8 1_555 1_555
H6 C19 1_555 1_555
C20 H7 1_555 1_555
N4 C9 1_555 1_555
C21 C16 1_555 1_555
H8 C21 1_555 1_555
C22 C11 1_555 1_555
H9 C22 1_555 1_555
C23 C22 1_555 1_555
H10 C23 1_555 1_555
C24 C19 1_555 1_555
C25 C1 1_555 1_555
H11 C25 1_555 1_555
C26 C7 1_555 1_555
H12 C26 1_555 1_555
H13 C26 1_555 1_555
H14 C26 1_555 1_555
N2 C15 1_555 1_555
C2 C14 1_555 1_555
C6 C13 1_555 1_555
C7 C15 1_555 1_555
C8 C11 1_555 1_555
C10 C17 1_555 1_555
C18 C21 1_555 1_555
C20 C25 1_555 1_555
C23 C24 1_555 1_555

#END
