
#######################################################################
#
#                 Cambridge Crystallographic Data Centre
#                                CCDC 
#
#######################################################################
#
# If this CIF has been generated from an entry in the Cambridge 
# Structural Database, then it will include bibliographic, chemical, 
# crystal, experimental, refinement or atomic coordinate data resulting 
# from the CCDC's data processing and validation procedures.
#
#######################################################################

data_DORVOW
_chemical_formula_moiety         'C30 H24 N4'
_chemical_name_systematic        
8,9-bis(4-Ethylphenyl)-4-methylpyrido(1,2-a)benzimidazole-6,7-dicarbonitrile
_symmetry_cell_setting           triclinic
_symmetry_space_group_name_H-M   'P -1'
_symmetry_Int_Tables_number      2
_space_group_name_Hall           '-P 1'
loop_
_symmetry_equiv_pos_site_id
_symmetry_equiv_pos_as_xyz
1 x,y,z
2 -x,-y,-z
_cell_length_a                   10.1633(17)
_cell_length_b                   10.8830(17)
_cell_length_c                   12.100(2)
_cell_angle_alpha                78.048(2)
_cell_angle_beta                 67.239(2)
_cell_angle_gamma                79.691(2)
_cell_volume                     1200.1
_chemical_melting_point          'above 300 deg.C'
_cell_formula_units_Z            2
loop_
_atom_site_label
_atom_site_type_symbol
_atom_site_fract_x
_atom_site_fract_y
_atom_site_fract_z
N1 N 0.45951(18) 0.11861(15) 1.20565(15)
C1 C 0.8224(2) 0.02047(18) 0.91183(17)
N2 N 0.60129(17) 0.27472(14) 1.09567(15)
C2 C 0.7304(2) -0.07298(17) 0.98225(17)
C3 C 0.6675(2) 0.16566(17) 1.04323(17)
C4 C 0.9509(2) -0.01322(18) 0.80489(17)
C5 C 0.5181(2) -0.14591(19) 1.15578(19)
C6 C 0.6089(2) -0.04928(17) 1.08395(17)
C7 C 0.5758(2) 0.07323(17) 1.11410(17)
C8 C 0.7917(2) 0.14286(18) 0.94376(17)
C9 C 0.7617(2) -0.1993(2) 0.95210(18)
N3 N 0.7823(2) -0.30092(18) 0.93277(18)
C10 C 0.4772(2) 0.24014(18) 1.19233(18)
C11 C 0.6361(2) 0.39776(19) 1.0661(2)
H1 H 0.7176 0.4203 1.0000
N4 N 0.4461(2) -0.22330(18) 1.21294(19)
C12 C 0.8873(2) 0.24282(18) 0.87162(19)
C13 C 0.9332(2) -0.05613(19) 0.71163(19)
H2 H 0.8414 -0.0619 0.7153
C14 C 1.1898(2) -0.0814(2) 0.60348(19)
C15 C 0.3845(2) 0.3322(2) 1.2634(2)
C16 C 1.0891(2) -0.0049(2) 0.79617(19)
H3 H 1.1034 0.0232 0.8578
C17 C 1.2052(2) -0.0380(2) 0.6972(2)
H4 H 1.2970 -0.0310 0.6930
C18 C 0.8965(2) 0.2936(2) 0.7545(2)
H5 H 0.8445 0.2637 0.7190
C19 C 1.0513(2) -0.0904(2) 0.61342(19)
H6 H 1.0374 -0.1202 0.5525
C20 C 0.4245(3) 0.4513(2) 1.2331(2)
H7 H 0.3671 0.5134 1.2787
C21 C 0.5503(3) 0.4831(2) 1.1345(2)
H8 H 0.5740 0.5655 1.1167
C22 C 0.9670(3) 0.2897(2) 0.9217(2)
H9 H 0.9631 0.2564 1.0001
C23 C 0.9833(3) 0.3892(2) 0.6900(2)
H10 H 0.9891 0.4218 0.6111
C24 C 0.2499(3) 0.2944(2) 1.3638(2)
H11 H 0.2095 0.3595 1.4141
H12 H 0.2712 0.2169 1.4115
H13 H 0.1823 0.2826 1.3303
C25 C 1.3155(3) -0.1158(3) 0.4926(2)
H14 H 1.2867 -0.1739 0.4575
H15 H 1.3361 -0.0398 0.4334
C26 C 1.0612(3) 0.4372(2) 0.7398(3)
C27 C 1.0517(3) 0.3852(2) 0.8560(3)
H16 H 1.1038 0.4153 0.8912
C28 C 1.4519(3) -0.1744(3) 0.5120(3)
H17 H 1.4876 -0.1147 0.5389
H18 H 1.5222 -0.1974 0.4372
H19 H 1.4331 -0.2484 0.5723
C29 C 1.3034(3) 0.4915(4) 0.6027(4)
H20 H 1.3487 0.4537 0.6600
H21 H 1.3552 0.5592 0.5485
H22 H 1.3035 0.4290 0.5571
C30 C 1.1566(3) 0.5406(3) 0.6670(3)
H23 H 1.1171 0.5918 0.6089
H24 H 1.1565 0.5949 0.7213
loop_
_geom_bond_atom_site_label_1
_geom_bond_atom_site_label_2
_geom_bond_site_symmetry_1
_geom_bond_site_symmetry_2
N1 C7 1_555 1_555
C1 C2 1_555 1_555
N2 C3 1_555 1_555
C2 C6 1_555 1_555
C3 C7 1_555 1_555
C4 C1 1_555 1_555
C5 C6 1_555 1_555
C6 C7 1_555 1_555
C8 C1 1_555 1_555
C9 C2 1_555 1_555
N3 C9 1_555 1_555
C10 N1 1_555 1_555
C11 N2 1_555 1_555
H1 C11 1_555 1_555
N4 C5 1_555 1_555
C12 C8 1_555 1_555
C13 C4 1_555 1_555
H2 C13 1_555 1_555
C14 C17 1_555 1_555
C15 C10 1_555 1_555
C16 C4 1_555 1_555
H3 C16 1_555 1_555
C17 C16 1_555 1_555
H4 C17 1_555 1_555
C18 C12 1_555 1_555
H5 C18 1_555 1_555
C19 C13 1_555 1_555
H6 C19 1_555 1_555
C20 C15 1_555 1_555
H7 C20 1_555 1_555
C21 C11 1_555 1_555
H8 C21 1_555 1_555
C22 C12 1_555 1_555
H9 C22 1_555 1_555
C23 C18 1_555 1_555
H10 C23 1_555 1_555
C24 C15 1_555 1_555
H11 C24 1_555 1_555
H12 C24 1_555 1_555
H13 C24 1_555 1_555
C25 C14 1_555 1_555
H14 C25 1_555 1_555
H15 C25 1_555 1_555
C26 C23 1_555 1_555
C27 C22 1_555 1_555
H16 C27 1_555 1_555
C28 C25 1_555 1_555
H17 C28 1_555 1_555
H18 C28 1_555 1_555
H19 C28 1_555 1_555
C29 H20 1_555 1_555
H21 C29 1_555 1_555
H22 C29 1_555 1_555
C30 C26 1_555 1_555
H23 C30 1_555 1_555
H24 C30 1_555 1_555
N2 C10 1_555 1_555
C3 C8 1_555 1_555
C14 C19 1_555 1_555
C20 C21 1_555 1_555
C26 C27 1_555 1_555
C29 C30 1_555 1_555

#END
