
#######################################################################
#
#                 Cambridge Crystallographic Data Centre
#                                CCDC 
#
#######################################################################
#
# If this CIF has been generated from an entry in the Cambridge 
# Structural Database, then it will include bibliographic, chemical, 
# crystal, experimental, refinement or atomic coordinate data resulting 
# from the CCDC's data processing and validation procedures.
#
#######################################################################

data_DORVAI
_chemical_formula_moiety         'C26 H16 N4'
_chemical_name_systematic        
4-Methyl-8,9-diphenylpyrido(1,2-a)benzimidazole-6,7-dicarbonitrile
_symmetry_cell_setting           monoclinic
_symmetry_space_group_name_H-M   'P 21/n'
_symmetry_Int_Tables_number      14
_space_group_name_Hall           '-P 2yn'
loop_
_symmetry_equiv_pos_site_id
_symmetry_equiv_pos_as_xyz
1 x,y,z
2 1/2-x,1/2+y,1/2-z
3 -x,-y,-z
4 1/2+x,1/2-y,1/2+z
_cell_length_a                   10.9503(19)
_cell_length_b                   6.7085(12)
_cell_length_c                   27.210(5)
_cell_angle_alpha                90
_cell_angle_beta                 95.326(2)
_cell_angle_gamma                90
_cell_volume                     1990.22
_chemical_melting_point          'above 300 deg.C'
_cell_formula_units_Z            4
loop_
_atom_site_label
_atom_site_type_symbol
_atom_site_fract_x
_atom_site_fract_y
_atom_site_fract_z
C1 C 0.85022(16) 0.7067(2) 0.09016(6)
N1 N 0.69306(13) 0.7482(2) 0.01577(5)
N2 N 0.82803(14) 0.7755(2) -0.04273(5)
C2 C 0.97810(16) 0.6903(2) 0.10161(6)
C3 C 1.05833(15) 0.7133(2) 0.06462(7)
C4 C 1.01641(16) 0.7451(2) 0.01518(6)
C5 C 0.76736(16) 0.6927(3) 0.13035(6)
C6 C 0.88950(16) 0.7533(2) 0.00308(6)
C7 C 1.09940(17) 0.7658(3) -0.02222(7)
C8 C 0.81035(15) 0.7354(2) 0.04068(6)
C9 C 1.18907(19) 0.7072(3) 0.07843(7)
N3 N 1.16603(16) 0.7821(2) -0.05202(7)
C10 C 0.70960(17) 0.7699(3) -0.03408(6)
C11 C 0.49347(19) 0.7697(3) -0.05166(8)
H1 H 0.4237 0.7760 -0.0739
N4 N 1.29207(16) 0.7048(3) 0.08923(7)
C12 C 0.60562(18) 0.7802(3) -0.06925(7)
C13 C 0.57762(16) 0.7386(3) 0.03231(7)
H2 H 0.5681 0.7248 0.0657
C14 C 0.74315(18) 0.5111(3) 0.15126(7)
H3 H 0.7754 0.3950 0.1390
C15 C 1.02928(15) 0.6390(3) 0.15267(6)
C16 C 0.47936(18) 0.7498(3) -0.00112(8)
H4 H 0.4010 0.7441 0.0094
C17 C 0.6252(2) 0.7984(3) -0.12265(7)
H5 H 0.5474 0.8146 -0.1417
H6 H 0.6647 0.6802 -0.1332
H7 H 0.6759 0.9122 -0.1274
C18 C 0.71829(19) 0.8631(3) 0.14905(8)
H8 H 0.7336 0.9864 0.1353
C19 C 0.6713(2) 0.5008(4) 0.19032(8)
H9 H 0.6553 0.3779 0.2042
C20 C 1.03412(19) 0.7748(3) 0.19103(8)
H10 H 1.0053 0.9039 0.1852
C21 C 1.07305(17) 0.4481(3) 0.16212(7)
H11 H 1.0712 0.3554 0.1366
C22 C 1.0816(2) 0.7198(4) 0.23796(8)
H12 H 1.0852 0.8123 0.2635
C23 C 0.6234(2) 0.6709(4) 0.20868(9)
H13 H 0.5754 0.6636 0.2351
C24 C 0.6464(2) 0.8515(4) 0.18819(9)
H14 H 0.6136 0.9669 0.2006
C25 C 1.11950(19) 0.3944(4) 0.20923(8)
H15 H 1.1482 0.2655 0.2154
C26 C 1.12339(19) 0.5300(4) 0.24687(8)
H16 H 1.1544 0.4930 0.2785
loop_
_geom_bond_atom_site_label_1
_geom_bond_atom_site_label_2
_geom_bond_site_symmetry_1
_geom_bond_site_symmetry_2
C1 C2 1_555 1_555
N1 C8 1_555 1_555
N2 C6 1_555 1_555
C2 C3 1_555 1_555
C3 C4 1_555 1_555
C4 C6 1_555 1_555
C5 C1 1_555 1_555
C6 C8 1_555 1_555
C7 C4 1_555 1_555
C8 C1 1_555 1_555
C9 C3 1_555 1_555
N3 C7 1_555 1_555
C10 N1 1_555 1_555
C11 H1 1_555 1_555
N4 C9 1_555 1_555
C12 C10 1_555 1_555
C13 N1 1_555 1_555
H2 C13 1_555 1_555
C14 C5 1_555 1_555
H3 C14 1_555 1_555
C15 C2 1_555 1_555
C16 C11 1_555 1_555
H4 C16 1_555 1_555
C17 C12 1_555 1_555
H5 C17 1_555 1_555
H6 C17 1_555 1_555
H7 C17 1_555 1_555
C18 C5 1_555 1_555
H8 C18 1_555 1_555
C19 C14 1_555 1_555
H9 C19 1_555 1_555
C20 C15 1_555 1_555
H10 C20 1_555 1_555
C21 C15 1_555 1_555
H11 C21 1_555 1_555
C22 C20 1_555 1_555
H12 C22 1_555 1_555
C23 C19 1_555 1_555
H13 C23 1_555 1_555
C24 C18 1_555 1_555
H14 C24 1_555 1_555
C25 C21 1_555 1_555
H15 C25 1_555 1_555
C26 C22 1_555 1_555
H16 C26 1_555 1_555
N2 C10 1_555 1_555
C11 C12 1_555 1_555
C13 C16 1_555 1_555
C23 C24 1_555 1_555
C25 C26 1_555 1_555

#END
