
#######################################################################
#
#                 Cambridge Crystallographic Data Centre
#                                CCDC 
#
#######################################################################
#
# If this CIF has been generated from an entry in the Cambridge 
# Structural Database, then it will include bibliographic, chemical, 
# crystal, experimental, refinement or atomic coordinate data resulting 
# from the CCDC's data processing and validation procedures.
#
#######################################################################

data_DORXUE
_chemical_formula_moiety         'C31 H31 N3 O4 S1,0.5(C4 H8 O1)'
_chemical_name_systematic        
"(2R,2'E,4'R,5'E)/(2S,2'E,4'S,5'E)-Methyl 3-ethyl-2'-(1-methoxycarbonylethylidene)-4'-methyl-1'-phenyl-5'-(phenylimino)-3H-spiro[benzo(d)thiazole-2,3'-pyrrolidine]-4'-carboxylate tetrahydrofuran solvate"
_symmetry_cell_setting           triclinic
_symmetry_space_group_name_H-M   'P -1'
_symmetry_Int_Tables_number      2
_space_group_name_Hall           '-P 1'
loop_
_symmetry_equiv_pos_site_id
_symmetry_equiv_pos_as_xyz
1 x,y,z
2 -x,-y,-z
_cell_length_a                   10.5847(10)
_cell_length_b                   11.1324(12)
_cell_length_c                   13.8283(15)
_cell_angle_alpha                102.842(2)
_cell_angle_beta                 111.425(3)
_cell_angle_gamma                97.1790(10)
_cell_volume                     1440.23
_exptl_crystal_colour            colorless
_exptl_crystal_description       prism
_cell_formula_units_Z            2
loop_
_atom_site_label
_atom_site_type_symbol
_atom_site_fract_x
_atom_site_fract_y
_atom_site_fract_z
S1 S 0.39371(4) 0.86052(3) 0.37112(3)
O1 O -0.13176(12) 0.74810(11) 0.18956(9)
O2 O 0.07068(11) 0.72635(10) 0.30544(9)
O3 O 0.16773(12) 1.07887(12) 0.11513(9)
O4 O 0.32363(13) 1.02530(13) 0.05037(9)
N1 N 0.20984(12) 0.78105(11) 0.16545(9)
N2 N 0.26349(12) 1.09625(11) 0.34380(9)
N3 N 0.47867(12) 1.21567(11) 0.37633(9)
C1 C 0.27328(14) 0.89904(13) 0.25135(11)
C2 C 0.25349(15) 0.67547(13) 0.19226(12)
C3 C 0.35161(15) 0.70036(13) 0.29937(12)
C4 C 0.40169(15) 0.60586(14) 0.34045(13)
H1 H 0.4668 0.6247 0.4136
C5 C 0.35485(17) 0.48177(15) 0.27233(14)
H2 H 0.3891 0.4153 0.2987
C6 C 0.25873(17) 0.45561(15) 0.16666(15)
H3 H 0.2274 0.3708 0.1211
C7 C 0.20646(16) 0.55146(14) 0.12525(13)
H4 H 0.1399 0.5321 0.0525
C8 C 0.09081(15) 0.76766(14) 0.06395(11)
H5 H 0.0572 0.8469 0.0700
H6 H 0.0144 0.6988 0.0543
C9 C 0.12294(19) 0.73888(17) -0.03673(13)
H7 H 0.2016 0.8042 -0.0266
H8 H 0.0410 0.7378 -0.1002
H9 H 0.1469 0.6561 -0.0480
C10 C 0.18245(14) 0.97162(13) 0.29418(11)
C11 C 0.05490(14) 0.93027(13) 0.28926(11)
C12 C -0.01221(15) 0.79316(14) 0.25317(11)
C13 C 0.01321(18) 0.59221(14) 0.27785(16)
H10 H -0.0459 0.5785 0.3166
H11 H 0.0892 0.5484 0.2988
H12 H -0.0426 0.5590 0.1995
C14 C -0.03380(15) 1.01447(15) 0.32029(13)
H13 H -0.0130 1.0292 0.3976
H14 H -0.1325 0.9733 0.2773
H15 H -0.0135 1.0955 0.3060
C15 C 0.25232(14) 1.18532(13) 0.43129(11)
C16 C 0.26261(15) 1.15235(14) 0.52450(12)
H16 H 0.2718 1.0698 0.5292
C17 C 0.25931(16) 1.24196(17) 0.61079(13)
H17 H 0.2655 1.2206 0.6749
C18 C 0.24712(16) 1.36173(17) 0.60361(14)
H18 H 0.2471 1.4231 0.6636
C19 C 0.23490(16) 1.39350(15) 0.50997(15)
H19 H 0.2255 1.4761 0.5055
C20 C 0.23632(15) 1.30451(14) 0.42245(13)
H20 H 0.2264 1.3252 0.3574
C21 C 0.36173(14) 1.00495(13) 0.22605(11)
C22 C 0.27083(16) 1.03943(14) 0.12454(11)
C23 C 0.2480(2) 1.0634(3) -0.04465(16)
H21 H 0.1512 1.0149 -0.0791
H22 H 0.2918 1.0471 -0.0962
H23 H 0.2502 1.1539 -0.0227
C24 C 0.49316(15) 0.96751(14) 0.21941(12)
H24 H 0.5352 1.0252 0.1897
H25 H 0.4687 0.8808 0.1721
H26 H 0.5598 0.9725 0.2922
C25 C 0.38093(14) 1.11811(13) 0.32065(11)
C26 C 0.59690(15) 1.24282(13) 0.35264(12)
C27 C 0.58767(16) 1.27215(14) 0.25783(12)
H27 H 0.4996 1.2725 0.2054
C28 C 0.70733(17) 1.30091(15) 0.23985(14)
H28 H 0.7004 1.3193 0.1745
C29 C 0.83633(17) 1.30296(15) 0.31643(14)
H29 H 0.9177 1.3219 0.3035
C30 C 0.84635(16) 1.27718(14) 0.41231(13)
H30 H 0.9350 1.2795 0.4654
C31 C 0.72756(15) 1.24799(14) 0.43110(12)
H31 H 0.7352 1.2315 0.4973
O5? O 0.5102(4) 0.6105(3) 0.9534(3)
C32? C 0.4390(9) 0.4741(6) 0.9026(4)
H32? H 0.4533 0.4426 0.8378
H33? H 0.3406 0.4638 0.8833
C33? C 0.4990(6) 0.4061(4) 0.9844(4)
H34? H 0.5642 0.3628 0.9668
H35? H 0.4268 0.3456 0.9853
C34? C 0.5678(13) 0.5093(7) 1.0934(6)
H36? H 0.5386 0.4887 1.1470
H37? H 0.6673 0.5221 1.1196
C35? C 0.5251(5) 0.6304(5) 1.0656(3)
H38? H 0.4377 0.6348 1.0708
H39? H 0.5927 0.7070 1.1125
loop_
_geom_bond_atom_site_label_1
_geom_bond_atom_site_label_2
_geom_bond_site_symmetry_1
_geom_bond_site_symmetry_2
S1 C1 1_555 1_555
O1 C12 1_555 1_555
O2 C12 1_555 1_555
O3 C22 1_555 1_555
O4 C22 1_555 1_555
N1 C1 1_555 1_555
N2 C10 1_555 1_555
N3 C25 1_555 1_555
C1 C10 1_555 1_555
C2 N1 1_555 1_555
C3 S1 1_555 1_555
C4 C3 1_555 1_555
H1 C4 1_555 1_555
C5 C4 1_555 1_555
H2 C5 1_555 1_555
C6 C5 1_555 1_555
H3 C6 1_555 1_555
C7 C2 1_555 1_555
H4 C7 1_555 1_555
C8 N1 1_555 1_555
H5 C8 1_555 1_555
H6 C8 1_555 1_555
C9 C8 1_555 1_555
H7 C9 1_555 1_555
H8 C9 1_555 1_555
H9 C9 1_555 1_555
C10 C11 1_555 1_555
C11 C12 1_555 1_555
C13 O2 1_555 1_555
H10 C13 1_555 1_555
H11 C13 1_555 1_555
H12 C13 1_555 1_555
C14 C11 1_555 1_555
H13 C14 1_555 1_555
H14 C14 1_555 1_555
H15 C14 1_555 1_555
C15 N2 1_555 1_555
C16 C15 1_555 1_555
H16 C16 1_555 1_555
C17 C16 1_555 1_555
H17 C17 1_555 1_555
C18 C17 1_555 1_555
H18 C18 1_555 1_555
C19 C18 1_555 1_555
H19 C19 1_555 1_555
C20 C15 1_555 1_555
H20 C20 1_555 1_555
C21 C1 1_555 1_555
C22 C21 1_555 1_555
C23 O4 1_555 1_555
H21 C23 1_555 1_555
H22 C23 1_555 1_555
H23 C23 1_555 1_555
C24 C21 1_555 1_555
H24 C24 1_555 1_555
H25 C24 1_555 1_555
H26 C24 1_555 1_555
C25 N2 1_555 1_555
C26 N3 1_555 1_555
C27 C26 1_555 1_555
H27 C27 1_555 1_555
C28 C27 1_555 1_555
H28 C28 1_555 1_555
C29 C28 1_555 1_555
H29 C29 1_555 1_555
C30 C29 1_555 1_555
H30 C30 1_555 1_555
C31 C26 1_555 1_555
H31 C31 1_555 1_555
C2 C3 1_555 1_555
C6 C7 1_555 1_555
C19 C20 1_555 1_555
C21 C25 1_555 1_555
C30 C31 1_555 1_555

#END
