
#######################################################################
#
#                 Cambridge Crystallographic Data Centre
#                                CCDC 
#
#######################################################################
#
# If this CIF has been generated from an entry in the Cambridge 
# Structural Database, then it will include bibliographic, chemical, 
# crystal, experimental, refinement or atomic coordinate data resulting 
# from the CCDC's data processing and validation procedures.
#
#######################################################################

data_DORXIS
_chemical_formula_moiety         'C28 H29 Cl2 N3 O4 S1'
_chemical_name_systematic        
"Methyl 3-ethyl-2'-(1-methoxycarbonylethylidene)-4,4'-dimethyl-1'-(4-chlorophenyl)-5'-(4-chlorophenylimino)-3H-spiro(thiazole-2,3'-pyrrolidine)-4'-carboxylate"
_symmetry_cell_setting           orthorhombic
_symmetry_space_group_name_H-M   'P 21 21 21'
_symmetry_Int_Tables_number      19
_space_group_name_Hall           'P 2ac 2ab'
loop_
_symmetry_equiv_pos_site_id
_symmetry_equiv_pos_as_xyz
1 x,y,z
2 1/2+x,1/2-y,-z
3 -x,1/2+y,1/2-z
4 1/2-x,-y,1/2+z
_cell_length_a                   12.2526(19)
_cell_length_b                   13.692(2)
_cell_length_c                   16.757(3)
_cell_angle_alpha                90
_cell_angle_beta                 90
_cell_angle_gamma                90
_cell_volume                     2811.2
_exptl_crystal_colour            yellow
_exptl_crystal_description       block
_chemical_melting_point          '167-168 deg.C'
_cell_formula_units_Z            4
loop_
_atom_site_label
_atom_site_type_symbol
_atom_site_fract_x
_atom_site_fract_y
_atom_site_fract_z
Cl1 Cl 1.01765(3) 1.22781(3) 1.03258(3)
Cl2 Cl 1.01179(4) 0.52587(3) 0.68771(2)
S1 S 0.38591(3) 0.83301(3) 0.91623(2)
O1 O 0.35016(9) 1.06556(9) 1.05217(7)
O2 O 0.36719(8) 1.05717(8) 0.91920(6)
O3 O 0.56882(9) 0.64295(7) 0.90608(7)
O4 O 0.59770(8) 0.75954(7) 0.99809(6)
N1 N 0.48136(10) 0.93803(8) 0.80229(7)
N2 N 0.67886(9) 0.94441(9) 0.93151(7)
N3 N 0.80697(10) 0.85266(9) 0.86447(7)
C1 C 0.51168(11) 0.89166(9) 0.87766(8)
C2 C 0.32205(12) 0.85091(12) 0.82353(9)
H1 H 0.2538 0.8226 0.8098
C3 C 0.37862(12) 0.90804(11) 0.77430(9)
C4 C 0.34199(13) 0.93557(13) 0.69233(9)
H2 H 0.2712 0.9051 0.6812
H3 H 0.3958 0.9129 0.6532
H4 H 0.3349 1.0067 0.6888
C5 C 0.52634(13) 1.03366(11) 0.77930(9)
H5 H 0.5333 1.0744 0.8278
H6 H 0.4737 1.0664 0.7433
C6 C 0.63732(13) 1.02954(12) 0.73779(10)
H7 H 0.6919 1.0030 0.7747
H8 H 0.6589 1.0955 0.7215
H9 H 0.6323 0.9875 0.6906
C7 C 0.56616(11) 0.95863(10) 0.93887(8)
C8 C 0.52008(12) 1.01426(10) 0.99680(9)
C9 C 0.58049(12) 1.04804(11) 1.07003(9)
H10 H 0.6357 0.9994 1.0846
H11 H 0.5289 1.0561 1.1142
H12 H 0.6162 1.1106 1.0589
C10 C 0.40375(12) 1.04535(10) 0.99367(9)
C11 C 0.25456(14) 1.08570(14) 0.91125(12)
H13 H 0.2081 1.0386 0.9393
H14 H 0.2347 1.0872 0.8546
H15 H 0.2442 1.1507 0.9344
C12 C 0.70802(11) 0.86469(10) 0.88440(8)
C13 C 0.60347(11) 0.80969(10) 0.86314(8)
C14 C 0.60089(12) 0.76907(11) 0.77836(8)
H16 H 0.6251 0.8195 0.7409
H17 H 0.5263 0.7491 0.7650
H18 H 0.6496 0.7125 0.7747
C15 C 0.58747(11) 0.72656(10) 0.92320(9)
C16 C 0.57702(13) 0.68836(12) 1.06020(10)
H19 H 0.5036 0.6612 1.0535
H20 H 0.5825 0.7200 1.1125
H21 H 0.6309 0.6357 1.0566
C17 C 0.75999(11) 1.01350(10) 0.95652(8)
C18 C 0.75158(12) 1.11088(10) 0.93367(9)
H22 H 0.6922 1.1317 0.9014
C19 C 0.83001(12) 1.17766(10) 0.95800(9)
H23 H 0.8240 1.2447 0.9439
C20 C 0.91715(12) 1.14488(10) 1.00316(9)
C21 C 0.92763(12) 1.04779(11) 1.02522(9)
H24 H 0.9888 1.0266 1.0554
C22 C 0.84722(12) 0.98218(11) 1.00250(9)
H25 H 0.8519 0.9157 1.0185
C23 C 0.84643(11) 0.77177(11) 0.82093(8)
C24 C 0.84543(12) 0.67725(11) 0.85155(9)
H26 H 0.8107 0.6645 0.9012
C25 C 0.89492(12) 0.60143(10) 0.80994(9)
H27 H 0.8931 0.5368 0.8305
C26 C 0.94660(12) 0.62075(11) 0.73877(9)
C27 C 0.94866(13) 0.71423(11) 0.70690(9)
H28 H 0.9837 0.7264 0.6573
C28 C 0.89899(12) 0.78942(10) 0.74833(9)
H29 H 0.9006 0.8538 0.7272
loop_
_geom_bond_atom_site_label_1
_geom_bond_atom_site_label_2
_geom_bond_site_symmetry_1
_geom_bond_site_symmetry_2
Cl1 C20 1_555 1_555
Cl2 C26 1_555 1_555
S1 C1 1_555 1_555
O1 C10 1_555 1_555
O2 C10 1_555 1_555
O3 C15 1_555 1_555
O4 C15 1_555 1_555
N1 C1 1_555 1_555
N2 C7 1_555 1_555
N3 C12 1_555 1_555
C1 C7 1_555 1_555
C2 S1 1_555 1_555
H1 C2 1_555 1_555
C3 N1 1_555 1_555
C4 C3 1_555 1_555
H2 C4 1_555 1_555
H3 C4 1_555 1_555
H4 C4 1_555 1_555
C5 N1 1_555 1_555
H5 C5 1_555 1_555
H6 C5 1_555 1_555
C6 C5 1_555 1_555
H7 C6 1_555 1_555
H8 C6 1_555 1_555
H9 C6 1_555 1_555
C7 C8 1_555 1_555
C8 C9 1_555 1_555
C9 H10 1_555 1_555
H11 C9 1_555 1_555
H12 C9 1_555 1_555
C10 C8 1_555 1_555
C11 O2 1_555 1_555
H13 C11 1_555 1_555
H14 C11 1_555 1_555
H15 C11 1_555 1_555
C12 N2 1_555 1_555
C13 C1 1_555 1_555
C14 C13 1_555 1_555
H16 C14 1_555 1_555
H17 C14 1_555 1_555
H18 C14 1_555 1_555
C15 C13 1_555 1_555
C16 O4 1_555 1_555
H19 C16 1_555 1_555
H20 C16 1_555 1_555
H21 C16 1_555 1_555
C17 N2 1_555 1_555
C18 C17 1_555 1_555
H22 C18 1_555 1_555
C19 C18 1_555 1_555
H23 C19 1_555 1_555
C20 C19 1_555 1_555
C21 C20 1_555 1_555
H24 C21 1_555 1_555
C22 C17 1_555 1_555
H25 C22 1_555 1_555
C23 N3 1_555 1_555
C24 C23 1_555 1_555
H26 C24 1_555 1_555
C25 C24 1_555 1_555
H27 C25 1_555 1_555
C26 C25 1_555 1_555
C27 C26 1_555 1_555
H28 C27 1_555 1_555
C28 C23 1_555 1_555
H29 C28 1_555 1_555
C2 C3 1_555 1_555
C12 C13 1_555 1_555
C21 C22 1_555 1_555
C27 C28 1_555 1_555

#END
