
#######################################################################
#
#                 Cambridge Crystallographic Data Centre
#                                CCDC 
#
#######################################################################
#
# If this CIF has been generated from an entry in the Cambridge 
# Structural Database, then it will include bibliographic, chemical, 
# crystal, experimental, refinement or atomic coordinate data resulting 
# from the CCDC's data processing and validation procedures.
#
#######################################################################

data_DOSKEC
_chemical_formula_moiety         'C19 H28 N6'
_chemical_name_systematic        
2,5,8-tris(t-Butyl)-1,3,4,6,7,9-hexaazaphenalene
_symmetry_cell_setting           trigonal
_symmetry_space_group_name_H-M   'P 31 2 1'
_symmetry_Int_Tables_number      152
_space_group_name_Hall           'P 31 2"'
loop_
_symmetry_equiv_pos_site_id
_symmetry_equiv_pos_as_xyz
1 x,y,z
2 -y,x-y,1/3+z
3 -x+y,-x,2/3+z
4 y,x,-z
5 x-y,-y,2/3-z
6 -x,-x+y,1/3-z
_cell_length_a                   10.4574(5)
_cell_length_b                   10.4574(5)
_cell_length_c                   15.2536(11)
_cell_angle_alpha                90
_cell_angle_beta                 90
_cell_angle_gamma                120
_cell_volume                     1444.61
_exptl_crystal_colour            colorless
_chemical_melting_point          'above 300 deg.C'
_cell_formula_units_Z            3
_exptl_crystal_recrystallization_method toluene
loop_
_atom_site_label
_atom_site_type_symbol
_atom_site_fract_x
_atom_site_fract_y
_atom_site_fract_z
N1 N 0.4727(2) 0.0802(3) 0.89487(13)
N2 N 0.3197(3) 0.1724(3) 0.95016(15)
N3 N 0.0839(3) 0.0932(4) 0.8900(2)
C1 C 0.4417(3) 0.1594(3) 0.95126(16)
C2 C 0.3687(3) 0.0000 0.8333
C3 C 0.2343(4) 0.0000 0.8333
C4 C 0.2104(3) 0.0891(4) 0.89110(18)
C5 C -0.0199(5) 0.0000 0.8333
C6 C 0.5547(3) 0.2401(3) 1.02382(17)
C7 C 0.5059(4) 0.3232(4) 1.0859(2)
H1 H 0.5016 0.4020 1.0536
H2 H 0.5770 0.3663 1.1341
H3 H 0.4081 0.2544 1.1097
C8 C 0.5709(4) 0.1250(4) 1.0774(2)
H4 H 0.4744 0.0520 1.1010
H5 H 0.6401 0.1740 1.1258
H6 H 0.6085 0.0754 1.0396
C9 C 0.7025(4) 0.3493(4) 0.9832(2)
H7 H 0.7366 0.2961 0.9458
H8 H 0.7748 0.4008 1.0298
H9 H 0.6912 0.4213 0.9479
C10 C -0.1640(5) 0.0000 0.8333
C11 C -0.1377(9) 0.1578(8) 0.8484(7)
H10 H -0.0933 0.1934 0.9048
H11 H -0.0730 0.2218 0.8035
H12 H -0.2302 0.1562 0.8456
C12 C -0.2345(13) -0.0431(17) 0.7384(6)
H13 H -0.1136 0.1411 0.9421
H14 H -0.3250 -0.0406 0.7377
H15 H -0.1678 0.0249 0.6956
C13 C -0.2627(12) -0.1055(13) 0.9003(9)
H16 H -0.1403 0.0745 0.7105
H17 H -0.3537 -0.1040 0.9013
H18 H -0.0789 0.2039 0.7786
H19 H 0.305(9) 0.226(8) 0.987(4)
N1D N 0.3925(4) -0.0802(3) 0.77180(13)
N2D N 0.1473(4) -0.1724(3) 0.71651(15)
N3D N -0.0093(5) -0.0932(4) 0.7767(2)
C1D C 0.2823(4) -0.1594(3) 0.71541(16)
C4D C 0.1213(5) -0.0891(4) 0.77557(18)
C6D C 0.3146(4) -0.2401(3) 0.64285(17)
C7D C 0.1827(6) -0.3232(4) 0.5808(2)
H1D H 0.0996 -0.4020 0.6131
H2D H 0.2107 -0.3663 0.5326
H3D H 0.1537 -0.2544 0.5570
C8D C 0.4459(6) -0.1250(4) 0.5893(2)
H4D H 0.4224 -0.0520 0.5657
H5D H 0.4661 -0.1740 0.5409
H6D H 0.5331 -0.0754 0.6271
C9D C 0.3532(6) -0.3493(4) 0.6835(2)
H7D H 0.4405 -0.2961 0.7209
H8D H 0.3740 -0.4008 0.6369
H9D H 0.2699 -0.4213 0.7188
C11D C -0.2955(12) -0.1578(8) 0.8183(7)
H10D H -0.2867 -0.1934 0.7619
H11D H -0.2948 -0.2218 0.8632
H12D H -0.3864 -0.1562 0.8211
C12D C -0.1914(21) 0.0431(17) 0.9283(6)
H13D H -0.2547 -0.1411 0.7246
H14D H -0.2844 0.0406 0.9290
H15D H -0.1927 -0.0249 0.9711
C13D C -0.1572(18) 0.1055(13) 0.7664(9)
H16D H -0.2148 -0.0745 0.9562
H17D H -0.2497 0.1040 0.7654
H18D H -0.2828 -0.2039 0.8881
H19D H 0.079(12) -0.226(8) 0.680(4)
loop_
_geom_bond_atom_site_label_1
_geom_bond_atom_site_label_2
_geom_bond_site_symmetry_1
_geom_bond_site_symmetry_2
N1 C1 1_555 1_555
N2 C1 1_555 1_555
N3 C4 1_555 1_555
C1 C6 1_555 1_555
C2 N1 1_555 1_555
C3 C2 1_555 1_555
C4 N2 1_555 1_555
C5 N3 1_555 1_555
C6 C7 1_555 1_555
C7 H1 1_555 1_555
H2 C7 1_555 1_555
H3 C7 1_555 1_555
C8 C6 1_555 1_555
H4 C8 1_555 1_555
H5 C8 1_555 1_555
H6 C8 1_555 1_555
C9 C6 1_555 1_555
H7 C9 1_555 1_555
H8 C9 1_555 1_555
H9 C9 1_555 1_555
C10 C5 1_555 1_555
C11 C10 1_555 1_555
H10 C11 1_555 1_555
H11 C11 1_555 1_555
H12 C11 1_555 1_555
C12 C10 1_555 1_555
H13 H10 1_555 1_555
H14 C12 1_555 1_555
H15 C12 1_555 1_555
C13 C10 1_555 1_555
H16 C12 1_555 1_555
H17 C13 1_555 1_555
H18 C11 1_555 1_555
H19 N2 1_555 1_555
N1D C2 1_555 1_555
N2D C1D 1_555 1_555
N3D C5 1_555 1_555
C1D N1D 1_555 1_555
C4D C3 1_555 1_555
C6D C1D 1_555 1_555
C7D C6D 1_555 1_555
H1D C7D 1_555 1_555
H2D C7D 1_555 1_555
H3D C7D 1_555 1_555
C8D C6D 1_555 1_555
H4D C8D 1_555 1_555
H5D C8D 1_555 1_555
H6D C8D 1_555 1_555
C9D C6D 1_555 1_555
H7D C9D 1_555 1_555
H8D C9D 1_555 1_555
H9D C9D 1_555 1_555
C11D C10 1_555 1_555
H10D C11D 1_555 1_555
H11D C13 1_555 1_555
H12D C11D 1_555 1_555
C12D C10 1_555 1_555
H13D C12 1_555 1_555
H14D C12D 1_555 1_555
H15D C12D 1_555 1_555
C13D C10 1_555 1_555
H16D C13 1_555 1_555
H17D C13D 1_555 1_555
H18D C13 1_555 1_555
H19D N2D 1_555 1_555
C3 C4 1_555 1_555
C11 C12D 1_555 1_555
C11 C13D 1_555 1_555
H11 H18 1_555 1_555
H11 C13D 1_555 1_555
C12 C11D 1_555 1_555
C12 C13D 1_555 1_555
H13 C12D 1_555 1_555
H15 H16 1_555 1_555
C13 C11D 1_555 1_555
C13 C12D 1_555 1_555
H16 C13D 1_555 1_555
H18 C13D 1_555 1_555
N2D C4D 1_555 1_555
N3D C4D 1_555 1_555
C11D H11D 1_555 1_555
C11D H18D 1_555 1_555
H10D H13D 1_555 1_555
H11D H18D 1_555 1_555
C12D H16D 1_555 1_555
H15D H16D 1_555 1_555

#END
