
#######################################################################
#
#                 Cambridge Crystallographic Data Centre
#                                CCDC 
#
#######################################################################
#
# If this CIF has been generated from an entry in the Cambridge 
# Structural Database, then it will include bibliographic, chemical, 
# crystal, experimental, refinement or atomic coordinate data resulting 
# from the CCDC's data processing and validation procedures.
#
#######################################################################

data_DOSPIL
_chemical_formula_moiety         'C11 H21 N2 1+,C5 H7 O2 1-'
_chemical_name_systematic        
'4,5-Dimethyl-1,3-diisopropyl-1H-imidazol-3-ium 4-oxo-2-penten-2-olate'
_symmetry_cell_setting           monoclinic
_symmetry_space_group_name_H-M   'P 21/c'
_symmetry_Int_Tables_number      14
_space_group_name_Hall           '-P 2ybc'
loop_
_symmetry_equiv_pos_site_id
_symmetry_equiv_pos_as_xyz
1 x,y,z
2 -x,1/2+y,1/2-z
3 -x,-y,-z
4 x,1/2-y,1/2+z
_cell_length_a                   11.9282(13)
_cell_length_b                   10.3793(7)
_cell_length_c                   13.6153(15)
_cell_angle_alpha                90
_cell_angle_beta                 102.868(9)
_cell_angle_gamma                90
_cell_volume                     1643.33
_exptl_crystal_colour            colorless
_exptl_crystal_description       block
_cell_formula_units_Z            4
_exptl_crystal_recrystallization_method 'acetone/diethyl ether'
loop_
_atom_site_label
_atom_site_type_symbol
_atom_site_fract_x
_atom_site_fract_y
_atom_site_fract_z
N1 N 0.22435(10) 0.75187(12) 0.71562(9)
N2 N 0.39116(10) 0.68560(12) 0.79620(9)
C1 C 0.25537(12) 0.82857(14) 0.80134(10)
C2 C 0.36022(12) 0.78624(14) 0.85240(11)
C3 C 0.30726(12) 0.66654(14) 0.71458(11)
C4 C 0.11072(12) 0.75695(15) 0.64320(11)
C5 C 0.11933(15) 0.70255(19) 0.54188(12)
C6 C 0.02330(14) 0.6840(2) 0.68783(15)
C7 C 0.18323(14) 0.93725(16) 0.82304(12)
C8 C 0.43353(14) 0.83090(17) 0.94976(12)
C9 C 0.50080(13) 0.61242(16) 0.82034(12)
C10 C 0.5563(2) 0.6114(3) 0.7318(2)
C11 C 0.4810(3) 0.4773(4) 0.8501(4)
H1 H 0.3075(14) 0.5998(18) 0.6655(13)
H2 H 0.0931(14) 0.8480(17) 0.6356(12)
H3 H 0.1829(18) 0.746(2) 0.5178(16)
H4 H 0.1337(17) 0.609(2) 0.5458(15)
H5 H 0.0473(18) 0.7183(19) 0.4930(16)
H6 H 0.019(2) 0.718(2) 0.7556(19)
H7 H -0.051(2) 0.693(2) 0.6440(17)
H8 H 0.0454(18) 0.592(2) 0.6961(16)
H9 H 0.1670(16) 0.9960(18) 0.7670(15)
H10 H 0.1065(18) 0.9050(19) 0.8316(15)
H11 H 0.2238(17) 0.9822(19) 0.8829(16)
H12 H 0.3980(16) 0.9037(19) 0.9754(14)
H13 H 0.5086(18) 0.8581(19) 0.9419(15)
H14 H 0.4435(17) 0.760(2) 1.0012(16)
H15 H 0.5495(19) 0.659(2) 0.8738(17)
H16 H 0.632(2) 0.573(2) 0.7516(18)
H17 H 0.509(3) 0.562(4) 0.675(3)
H18 H 0.563(3) 0.697(4) 0.705(3)
H19 H 0.454(3) 0.487(3) 0.906(3)
H20 H 0.556(3) 0.431(3) 0.869(2)
H21 H 0.431(5) 0.438(5) 0.823(4)
O1 O 0.30230(10) 0.06468(11) 0.07070(9)
O2 O 0.15066(18) 0.43170(16) 0.09403(11)
C12 C 0.24907(12) 0.16722(15) 0.08099(11)
C13 C 0.23800(13) 0.26999(15) 0.01269(11)
C14 C 0.18592(15) 0.39099(17) 0.02031(12)
C15 C 0.1703(2) 0.4799(2) -0.07050(17)
C16 C 0.19255(18) 0.1732(2) 0.17011(14)
H22 H 0.2679(15) 0.2559(18) -0.0486(14)
H23 H 0.224(3) 0.547(3) -0.055(2)
H24 H 0.095(2) 0.519(3) -0.080(2)
H25 H 0.182(3) 0.436(3) -0.131(3)
H26 H 0.196(3) 0.093(4) 0.202(3)
H27 H 0.234(3) 0.227(3) 0.219(3)
H28 H 0.126(3) 0.225(3) 0.161(3)
loop_
_geom_bond_atom_site_label_1
_geom_bond_atom_site_label_2
_geom_bond_site_symmetry_1
_geom_bond_site_symmetry_2
N1 C1 1_555 1_555
N2 C2 1_555 1_555
O1 C12 1_555 1_555
O2 C14 1_555 1_555
C1 C2 1_555 1_555
C2 C8 1_555 1_555
C3 N1 1_555 1_555
C4 N1 1_555 1_555
C5 C4 1_555 1_555
C6 C4 1_555 1_555
C7 C1 1_555 1_555
C8 H12 1_555 1_555
C9 N2 1_555 1_555
C10 C9 1_555 1_555
C11 C9 1_555 1_555
C12 C13 1_555 1_555
C13 C14 1_555 1_555
C14 C15 1_555 1_555
C15 H23 1_555 1_555
C16 C12 1_555 1_555
H1 C3 1_555 1_555
H2 C4 1_555 1_555
H3 C5 1_555 1_555
H4 C5 1_555 1_555
H5 C5 1_555 1_555
H6 C6 1_555 1_555
H7 C6 1_555 1_555
H8 C6 1_555 1_555
H9 C7 1_555 1_555
H10 C7 1_555 1_555
H11 C7 1_555 1_555
H13 C8 1_555 1_555
H14 C8 1_555 1_555
H15 C9 1_555 1_555
H16 C10 1_555 1_555
H17 C10 1_555 1_555
H18 C10 1_555 1_555
H19 C11 1_555 1_555
H20 C11 1_555 1_555
H21 C11 1_555 1_555
H22 C13 1_555 1_555
H24 C15 1_555 1_555
H25 C15 1_555 1_555
H26 C16 1_555 1_555
H27 C16 1_555 1_555
H28 C16 1_555 1_555
N2 C3 1_555 1_555

#END
