
#######################################################################
#
#                 Cambridge Crystallographic Data Centre
#                                CCDC 
#
#######################################################################
#
# If this CIF has been generated from an entry in the Cambridge 
# Structural Database, then it will include bibliographic, chemical, 
# crystal, experimental, refinement or atomic coordinate data resulting 
# from the CCDC's data processing and validation procedures.
#
#######################################################################

data_DOSTOW
_chemical_name_common            
N-(bis(diethylamino)phosphoryl)-4-fluorobenzamide
_chemical_formula_moiety         'C15 H25 F1 N3 O2 P1'
_chemical_name_systematic        
"N-(4-fluorobenzoyl)-N',N',N",N"-tetraethylphosphoric triamide"
_symmetry_cell_setting           triclinic
_symmetry_space_group_name_H-M   'P -1'
_symmetry_Int_Tables_number      2
_space_group_name_Hall           '-P 1'
loop_
_symmetry_equiv_pos_site_id
_symmetry_equiv_pos_as_xyz
1 x,y,z
2 -x,-y,-z
_cell_length_a                   8.8477(6)
_cell_length_b                   9.7545(6)
_cell_length_c                   10.0198(7)
_cell_angle_alpha                79.993(2)
_cell_angle_beta                 77.973(2)
_cell_angle_gamma                83.658(2)
_cell_volume                     830.43
_exptl_crystal_colour            colorless
_exptl_crystal_description       BLOCK
_cell_formula_units_Z            2
loop_
_atom_site_label
_atom_site_type_symbol
_atom_site_fract_x
_atom_site_fract_y
_atom_site_fract_z
P1 P 0.33324(4) 0.02186(3) 0.34653(3)
F1 F 0.95876(10) 0.59701(9) 0.20166(9)
O1 O 0.41953(11) 0.26842(10) 0.12140(10)
O2 O 0.32711(10) -0.05119(10) 0.49006(9)
N1 N 0.47013(13) 0.13710(12) 0.32044(12)
H1 H 0.5313(17) 0.1195(17) 0.3780(15)
N2 N 0.16274(13) 0.09852(12) 0.32886(11)
N3 N 0.38792(13) -0.07024(12) 0.22089(12)
C1 C 0.66466(16) 0.35279(14) 0.33794(14)
H2 H 0.6209 0.2995 0.4232
C2 C 0.77961(16) 0.44066(15) 0.33328(15)
H3 H 0.8142 0.4496 0.4148
C3 C 0.84207(16) 0.51451(14) 0.20736(16)
C4 C 0.79169(17) 0.50976(15) 0.08756(15)
H4 H 0.8352 0.5641 0.0028
C5 C 0.67544(16) 0.42328(15) 0.09420(14)
H5 H 0.6376 0.4191 0.0131
C6 C 0.61338(15) 0.34253(14) 0.21805(14)
C7 C 0.49251(15) 0.24755(14) 0.21520(14)
C8 C 0.11485(16) 0.15042(15) 0.19562(14)
H6 H 0.1993 0.1255 0.1200
H7 H 0.0989 0.2535 0.1841
C9 C -0.03327(17) 0.09156(17) 0.18336(16)
H8 H -0.0651 0.1365 0.0971
H9 H -0.1155 0.1096 0.2619
H10 H -0.0146 -0.0093 0.1832
C10 C 0.07037(16) 0.16120(14) 0.44727(14)
H11 H 0.0799 0.0970 0.5337
H12 H -0.0401 0.1712 0.4394
C11 C 0.11976(17) 0.30341(16) 0.45679(16)
H13 H 0.0475 0.3437 0.5308
H14 H 0.1190 0.3655 0.3688
H15 H 0.2245 0.2925 0.4770
C12 C 0.55196(16) -0.08724(15) 0.15168(14)
H16 H 0.5876 0.0062 0.1105
H17 H 0.5588 -0.1411 0.0752
C13 C 0.66150(17) -0.16023(16) 0.24512(17)
H18 H 0.7661 -0.1723 0.1901
H19 H 0.6256 -0.2518 0.2890
H20 H 0.6633 -0.1035 0.3164
C14 C 0.28695(16) -0.17513(15) 0.20629(15)
H21 H 0.2814 -0.1668 0.1075
H22 H 0.1811 -0.1531 0.2574
C15 C 0.33795(18) -0.32526(15) 0.25750(16)
H23 H 0.2624 -0.3870 0.2470
H24 H 0.3447 -0.3351 0.3551
H25 H 0.4398 -0.3507 0.2034
loop_
_geom_bond_atom_site_label_1
_geom_bond_atom_site_label_2
_geom_bond_site_symmetry_1
_geom_bond_site_symmetry_2
P1 O2 1_555 1_555
F1 C3 1_555 1_555
O1 C7 1_555 1_555
N1 P1 1_555 1_555
H1 N1 1_555 1_555
N2 P1 1_555 1_555
N3 P1 1_555 1_555
C1 H2 1_555 1_555
C2 C1 1_555 1_555
H3 C2 1_555 1_555
C3 C2 1_555 1_555
C4 C3 1_555 1_555
H4 C4 1_555 1_555
C5 C4 1_555 1_555
H5 C5 1_555 1_555
C6 C1 1_555 1_555
C7 N1 1_555 1_555
C8 N2 1_555 1_555
H6 C8 1_555 1_555
H7 C8 1_555 1_555
C9 C8 1_555 1_555
H8 C9 1_555 1_555
H9 C9 1_555 1_555
H10 C9 1_555 1_555
C10 N2 1_555 1_555
H11 C10 1_555 1_555
H12 C10 1_555 1_555
C11 C10 1_555 1_555
H13 C11 1_555 1_555
H14 C11 1_555 1_555
H15 C11 1_555 1_555
C12 N3 1_555 1_555
H16 C12 1_555 1_555
H17 C12 1_555 1_555
C13 C12 1_555 1_555
H18 C13 1_555 1_555
H19 C13 1_555 1_555
H20 C13 1_555 1_555
C14 N3 1_555 1_555
H21 C14 1_555 1_555
H22 C14 1_555 1_555
C15 C14 1_555 1_555
H23 C15 1_555 1_555
H24 C15 1_555 1_555
H25 C15 1_555 1_555
C5 C6 1_555 1_555
C6 C7 1_555 1_555

#END
