
#######################################################################
#
#                 Cambridge Crystallographic Data Centre
#                                CCDC 
#
#######################################################################
#
# If this CIF has been generated from an entry in the Cambridge 
# Structural Database, then it will include bibliographic, chemical, 
# crystal, experimental, refinement or atomic coordinate data resulting 
# from the CCDC's data processing and validation procedures.
#
#######################################################################

data_DOSXIU
_chemical_formula_moiety         'C12 H16 N1 O4 1+,C1 H4 O1,Cl1 1-'
_chemical_name_systematic        
'3-carboxy-6,7-dimethoxy-1,2,3,4-tetrahydroisoquinolinium chloride methanol solvate'
_symmetry_cell_setting           orthorhombic
_symmetry_space_group_name_H-M   'P 21 21 21'
_symmetry_Int_Tables_number      19
_space_group_name_Hall           'P 2ac 2ab'
loop_
_symmetry_equiv_pos_site_id
_symmetry_equiv_pos_as_xyz
1 x,y,z
2 1/2-x,-y,1/2+z
3 -x,1/2+y,1/2-z
4 1/2+x,1/2-y,-z
_cell_length_a                   6.2745(4)
_cell_length_b                   9.0192(6)
_cell_length_c                   26.8007(17)
_cell_angle_alpha                90
_cell_angle_beta                 90
_cell_angle_gamma                90
_cell_volume                     1516.68
_exptl_crystal_colour            colorless
_exptl_crystal_description       block
_cell_formula_units_Z            4
_exptl_crystal_recrystallization_method methanol
loop_
_atom_site_label
_atom_site_type_symbol
_atom_site_fract_x
_atom_site_fract_y
_atom_site_fract_z
Cl1 Cl 0.47908(8) 0.47433(6) 0.964040(18)
O1 O -0.0972(3) 0.4094(2) 0.71956(6)
O2 O -0.3779(3) 0.52601(18) 0.77900(6)
O3 O 0.4781(3) -0.08977(18) 0.90958(6)
H1 H 0.5913 -0.1199 0.9211
O4 O 0.5141(2) 0.08499(16) 0.96786(5)
N1 N 0.1470(3) 0.21984(19) 0.94404(6)
H2 H 0.2473 0.2908 0.9464
H3 H 0.1264 0.1819 0.9747
C1 C -0.0557(3) 0.2878(3) 0.92615(7)
H4 H -0.0800 0.3797 0.9441
H5 H -0.1729 0.2213 0.9337
C2 C -0.0542(3) 0.3193(2) 0.87084(7)
C3 C 0.0970(3) 0.2589(2) 0.83953(7)
C4 C 0.2771(3) 0.1653(2) 0.85906(7)
H6 H 0.4050 0.2253 0.8614
H7 H 0.3050 0.0851 0.8358
C5 C 0.2252(3) 0.1006(2) 0.91038(7)
H8 H 0.1143 0.0248 0.9068
C6 C 0.4211(3) 0.0315(2) 0.93294(7)
C7 C 0.0841(4) 0.2881(2) 0.78812(7)
H9 H 0.1842 0.2468 0.7666
C8 C -0.0734(4) 0.3763(2) 0.76930(7)
C9 C -0.2275(4) 0.4385(2) 0.80134(8)
C10 C 0.0690(7) 0.3584(4) 0.68769(10)
H10 H 0.2018 0.4016 0.6979
H11 H 0.0386 0.3869 0.6539
H12 H 0.0786 0.2523 0.6897
C11 C -0.5327(4) 0.5940(3) 0.81060(10)
H13 H -0.6184 0.5187 0.8260
H14 H -0.6220 0.6581 0.7911
H15 H -0.4617 0.6508 0.8359
C12 C -0.2160(3) 0.4097(2) 0.85148(8)
H16 H -0.3166 0.4505 0.8729
O5 O 0.3518(3) 0.65042(16) 1.05675(5)
H17 H 0.3665 0.6034 1.0308
C13 C 0.4687(4) 0.7861(3) 1.05353(10)
H18 H 0.6179 0.7646 1.0503
H19 H 0.4452 0.8435 1.0832
H20 H 0.4214 0.8412 1.0250
loop_
_geom_bond_atom_site_label_1
_geom_bond_atom_site_label_2
_geom_bond_site_symmetry_1
_geom_bond_site_symmetry_2
O1 C8 1_555 1_555
O2 C9 1_555 1_555
O3 H1 1_555 1_555
O4 C6 1_555 1_555
N1 H2 1_555 1_555
H3 N1 1_555 1_555
C1 N1 1_555 1_555
H4 C1 1_555 1_555
H5 C1 1_555 1_555
C2 C1 1_555 1_555
C3 C2 1_555 1_555
C4 C3 1_555 1_555
H6 C4 1_555 1_555
H7 C4 1_555 1_555
C5 N1 1_555 1_555
H8 C5 1_555 1_555
C6 O3 1_555 1_555
C7 C3 1_555 1_555
H9 C7 1_555 1_555
C8 C7 1_555 1_555
C9 C8 1_555 1_555
C10 O1 1_555 1_555
H10 C10 1_555 1_555
H11 C10 1_555 1_555
H12 C10 1_555 1_555
C11 O2 1_555 1_555
H13 C11 1_555 1_555
H14 C11 1_555 1_555
H15 C11 1_555 1_555
C12 C2 1_555 1_555
H16 C12 1_555 1_555
O5 H17 1_555 1_555
C13 O5 1_555 1_555
H18 C13 1_555 1_555
H19 C13 1_555 1_555
H20 C13 1_555 1_555
C4 C5 1_555 1_555
C5 C6 1_555 1_555
C9 C12 1_555 1_555

#END
