
#######################################################################
#
#                 Cambridge Crystallographic Data Centre
#                                CCDC 
#
#######################################################################
#
# If this CIF has been generated from an entry in the Cambridge 
# Structural Database, then it will include bibliographic, chemical, 
# crystal, experimental, refinement or atomic coordinate data resulting 
# from the CCDC's data processing and validation procedures.
#
#######################################################################

data_DOSYER
_chemical_formula_moiety         'C39 H32 N2 O5'
_chemical_name_systematic        
2,15-dibutyl-8-methoxybenzo[de]benzo[3,4]pyrido[3',4',5':8,9]phenanthro[2,1-g]isoquinoline-1,3,14,16(2H,15H)-tetrone
_symmetry_cell_setting           monoclinic
_symmetry_space_group_name_H-M   'P 21/c'
_symmetry_Int_Tables_number      14
_space_group_name_Hall           '-P 2ybc'
loop_
_symmetry_equiv_pos_site_id
_symmetry_equiv_pos_as_xyz
1 x,y,z
2 -x,1/2+y,1/2-z
3 -x,-y,-z
4 x,1/2-y,1/2+z
_cell_length_a                   12.7675(2)
_cell_length_b                   31.0308(5)
_cell_length_c                   7.55930(10)
_cell_angle_alpha                90
_cell_angle_beta                 93.9960(10)
_cell_angle_gamma                90
_cell_volume                     2987.61
_cell_formula_units_Z            4
loop_
_atom_site_label
_atom_site_type_symbol
_atom_site_fract_x
_atom_site_fract_y
_atom_site_fract_z
C1 C 0.8439(4) 0.24794(18) 0.6147(6)
H1 H 0.9037 0.2648 0.5939
C2 C 0.8538(3) 0.20395(18) 0.6384(5)
C3 C 0.7671(3) 0.17945(14) 0.6712(5)
H2 H 0.7744 0.1498 0.6834
C4 C 0.6677(3) 0.19830(12) 0.6867(5)
C5 C 0.6588(3) 0.24350(12) 0.6636(4)
C6 C 0.7485(3) 0.26662(14) 0.6252(5)
H3 H 0.7424 0.2961 0.6060
C7 C 0.5561(3) 0.26365(11) 0.6537(4)
C8 C 0.4690(3) 0.23713(11) 0.6115(5)
C9 C 0.4781(3) 0.19050(11) 0.6334(4)
C10 C 0.5737(3) 0.17216(11) 0.6967(4)
C11 C 0.5747(3) 0.12763(12) 0.7536(5)
C12 C 0.6567(3) 0.10843(13) 0.8596(5)
H4 H 0.7145 0.1250 0.8985
C13 C 0.6536(4) 0.06587(14) 0.9069(6)
H5 H 0.7084 0.0543 0.9793
C14 C 0.5703(4) 0.03978(14) 0.8486(6)
H6 H 0.5718 0.0104 0.8735
C15 C 0.4858(3) 0.05751(12) 0.7542(5)
C16 C 0.4855(3) 0.10168(11) 0.7094(5)
C17 C 0.3940(3) 0.12037(11) 0.6262(5)
C18 C 0.3899(3) 0.16370(11) 0.5966(5)
H7 H 0.3273 0.1760 0.5508
C19 C 0.3003(4) 0.09416(13) 0.5768(6)
C20 C 0.3934(4) 0.03040(14) 0.7029(6)
C21 C 0.3726(3) 0.25629(12) 0.5554(5)
H8 H 0.3162 0.2386 0.5196
C22 C 0.3588(3) 0.29995(12) 0.5516(5)
C23 C 0.4402(3) 0.32712(11) 0.6198(5)
C24 C 0.5389(3) 0.30935(11) 0.6766(5)
C25 C 0.6127(3) 0.33756(13) 0.7649(5)
H9 H 0.6771 0.3267 0.8092
C26 C 0.5912(4) 0.38034(14) 0.7866(6)
H10 H 0.6407 0.3979 0.8472
C27 C 0.4962(4) 0.39795(13) 0.7190(6)
H11 H 0.4837 0.4273 0.7296
C28 C 0.4214(4) 0.37171(12) 0.6368(5)
C29 C 0.3200(4) 0.39007(14) 0.5704(6)
C30 C 0.2572(4) 0.31762(14) 0.4861(6)
C31 C 0.2104(4) 0.02340(15) 0.5719(7)
H12 H 0.1493 0.0419 0.5537
H13 H 0.1986 0.0040 0.6690
C32 C 0.2238(11) -0.0022(7) 0.407(2)
H14 H 0.2826 -0.0218 0.4269
H15 H 0.2393 0.0171 0.3111
C33 C 0.1243(18) -0.0279(6) 0.354(3)
H16 H 0.1431 -0.0563 0.3124
H17 H 0.0831 -0.0314 0.4556
C34 C 0.0604(12) -0.0047(5) 0.209(3)
H18 H 0.0479 0.0244 0.2455
H19 H -0.0055 -0.0192 0.1854
H20 H 0.0980 -0.0043 0.1032
C35 C 0.1379(4) 0.37937(16) 0.4482(8)
H21 H 0.1077 0.3640 0.3451
H22 H 0.1432 0.4096 0.4178
C36 C 0.0667(4) 0.3739(2) 0.6059(8)
H23 H 0.0671 0.3438 0.6397
H24 H 0.0977 0.3901 0.7061
C37 C -0.0398(5) 0.3873(3) 0.5737(10)
H25 H -0.0720 0.3713 0.4740
H26 H -0.0416 0.4177 0.5426
C38 C -0.1022(6) 0.3803(3) 0.7338(10)
H27 H -0.1058 0.3500 0.7586
H28 H -0.1719 0.3915 0.7104
H29 H -0.0685 0.3949 0.8342
C39 C 1.0349(5) 0.2066(3) 0.5578(12)
H30 H 1.0157 0.2191 0.4440
H31 H 1.0923 0.1870 0.5477
H32 H 1.0558 0.2290 0.6405
O1 O 0.9467(3) 0.18384(13) 0.6195(6)
N1 N 0.2427(3) 0.36204(11) 0.5008(5)
N2 N 0.3054(3) 0.05036(10) 0.6191(5)
O2 O 0.2209(3) 0.10941(9) 0.5040(5)
O3 O 0.3911(3) -0.00807(10) 0.7310(5)
O4 O 0.3028(3) 0.42890(10) 0.5699(5)
O5 O 0.1865(3) 0.29533(11) 0.4207(6)
H33? H 0.9213 0.1910 0.6302
H34? H 0.1475 0.0401 0.5879
H35? H 0.2097 -0.0017 0.6483
C40? C 0.215(2) 0.0088(11) 0.384(3)
H36? H 0.2731 -0.0109 0.3768
H37? H 0.2278 0.0336 0.3104
C41? C 0.1135(19) -0.0138(8) 0.307(3)
H38? H 0.0533 0.0043 0.3250
H39? H 0.1173 -0.0182 0.1810
C42? C 0.1006(14) -0.0554(7) 0.395(3)
H40? H 0.1659 -0.0708 0.4002
H41? H 0.0477 -0.0719 0.3288
H42? H 0.0797 -0.0507 0.5129
C43? C 1.0278(10) 0.2402(7) 0.548(3)
H43? H 1.0599 0.2312 0.6606
H44? H 1.0757 0.2582 0.4892
H45? H 1.0107 0.2153 0.4763
O6? O 0.9351(7) 0.2636(3) 0.5746(13)
loop_
_geom_bond_atom_site_label_1
_geom_bond_atom_site_label_2
_geom_bond_site_symmetry_1
_geom_bond_site_symmetry_2
C1 H1 1_555 1_555
C2 C1 1_555 1_555
C3 C2 1_555 1_555
H2 C3 1_555 1_555
C4 C3 1_555 1_555
C5 C4 1_555 1_555
C6 C1 1_555 1_555
H3 C6 1_555 1_555
C7 C5 1_555 1_555
C8 C7 1_555 1_555
C9 C8 1_555 1_555
C10 C4 1_555 1_555
C11 C10 1_555 1_555
C12 C11 1_555 1_555
H4 C12 1_555 1_555
C13 C12 1_555 1_555
H5 C13 1_555 1_555
C14 C13 1_555 1_555
H6 C14 1_555 1_555
C15 C14 1_555 1_555
C16 C11 1_555 1_555
C17 C16 1_555 1_555
C18 C9 1_555 1_555
H7 C18 1_555 1_555
C19 C17 1_555 1_555
C20 C15 1_555 1_555
C21 C8 1_555 1_555
H8 C21 1_555 1_555
C22 C21 1_555 1_555
C23 C22 1_555 1_555
C24 C7 1_555 1_555
C25 C24 1_555 1_555
H9 C25 1_555 1_555
C26 C25 1_555 1_555
H10 C26 1_555 1_555
C27 C26 1_555 1_555
H11 C27 1_555 1_555
C28 C23 1_555 1_555
C29 C28 1_555 1_555
C30 C22 1_555 1_555
C31 H12 1_555 1_555
H13 C31 1_555 1_555
C32 C31 1_555 1_555
H14 C32 1_555 1_555
H15 C32 1_555 1_555
C33 C32 1_555 1_555
H16 C33 1_555 1_555
H17 C33 1_555 1_555
C34 C33 1_555 1_555
H18 C34 1_555 1_555
H19 C34 1_555 1_555
H20 C34 1_555 1_555
C35 H21 1_555 1_555
H22 C35 1_555 1_555
C36 C35 1_555 1_555
H23 C36 1_555 1_555
H24 C36 1_555 1_555
C37 C36 1_555 1_555
H25 C37 1_555 1_555
H26 C37 1_555 1_555
C38 C37 1_555 1_555
H27 C38 1_555 1_555
H28 C38 1_555 1_555
H29 C38 1_555 1_555
C39 H30 1_555 1_555
H31 C39 1_555 1_555
H32 C39 1_555 1_555
O1 C2 1_555 1_555
N1 C29 1_555 1_555
N2 C19 1_555 1_555
O2 C19 1_555 1_555
O3 C20 1_555 1_555
O4 C29 1_555 1_555
O5 C30 1_555 1_555
C5 C6 1_555 1_555
C9 C10 1_555 1_555
C15 C16 1_555 1_555
C17 C18 1_555 1_555
C20 N2 1_555 1_555
C23 C24 1_555 1_555
C27 C28 1_555 1_555
C30 N1 1_555 1_555
C31 N2 1_555 1_555
C35 N1 1_555 1_555
C39 O1 1_555 1_555

#END
