
#######################################################################
#
#                 Cambridge Crystallographic Data Centre
#                                CCDC 
#
#######################################################################
#
# If this CIF has been generated from an entry in the Cambridge 
# Structural Database, then it will include bibliographic, chemical, 
# crystal, experimental, refinement or atomic coordinate data resulting 
# from the CCDC's data processing and validation procedures.
#
#######################################################################

data_DOTBOD
_chemical_formula_moiety         'C11 H11 N1 O2,2(H2 O1)'
_chemical_name_systematic        '8-(2-Hydroxy-ethanolato)-quinoline dihydrate'
_symmetry_cell_setting           orthorhombic
_symmetry_space_group_name_H-M   'P 21 21 21'
_symmetry_Int_Tables_number      19
_space_group_name_Hall           'P 2ac 2ab'
loop_
_symmetry_equiv_pos_site_id
_symmetry_equiv_pos_as_xyz
1 x,y,z
2 1/2+x,1/2-y,-z
3 -x,1/2+y,1/2-z
4 1/2-x,-y,1/2+z
_cell_length_a                   4.856(2)
_cell_length_b                   12.303(4)
_cell_length_c                   19.411(9)
_cell_angle_alpha                90
_cell_angle_beta                 90
_cell_angle_gamma                90
_cell_volume                     1159.68
_cell_formula_units_Z            4
loop_
_atom_site_label
_atom_site_type_symbol
_atom_site_fract_x
_atom_site_fract_y
_atom_site_fract_z
N1 N 0.8386(11) 0.5699(4) 0.5308(2)
C1 C 1.0303(14) 0.6358(5) 0.5055(3)
C2 C 1.0812(15) 0.6497(5) 0.4347(3)
C3 C 0.9404(15) 0.5877(4) 0.3892(3)
C4 C 0.7386(14) 0.5138(4) 0.4116(2)
C5 C 0.6966(15) 0.5088(5) 0.4845(3)
C6 C 0.5835(15) 0.4445(4) 0.3683(3)
C7 C 0.3920(14) 0.3750(5) 0.3958(3)
C8 C 0.3447(12) 0.3684(4) 0.4674(3)
C9 C 0.4914(15) 0.4361(5) 0.5102(3)
O1 O 0.4577(9) 0.4376(3) 0.5808(2)
C10 C 0.2889(14) 0.3569(5) 0.6122(3)
C11 C 0.3195(13) 0.3705(6) 0.6896(3)
O2 O 0.6025(8) 0.3645(4) 0.7105(2)
H1 H 1.1376 0.6776 0.5374
H2 H 1.2176 0.7004 0.4189
H3 H 0.9753 0.5950 0.3407
H4 H 0.6124 0.4464 0.3194
H5 H 0.2874 0.3294 0.3653
H6 H 0.2143 0.3175 0.4859
H7 H 0.1066 0.3714 0.5954
H8 H 0.3404 0.2839 0.6004
H9 H 0.2360 0.3131 0.7157
H10 H 0.2454 0.4391 0.7042
H11 H 0.7052 0.4297 0.7018
O3 O 0.7866(9) 0.5750(3) 0.6766(2)
H12 H 0.6211 0.6122 0.6899
H13 H 0.7877 0.5649 0.6275
O4 O 0.2643(10) 0.6759(3) 0.7151(2)
H14 H 0.2975 0.6011 0.7264
H15 H 0.3885 0.6983 0.6794
loop_
_geom_bond_atom_site_label_1
_geom_bond_atom_site_label_2
_geom_bond_site_symmetry_1
_geom_bond_site_symmetry_2
N1 C1 1_555 1_555
C1 C2 1_555 1_555
C2 C3 1_555 1_555
C3 C4 1_555 1_555
C4 C5 1_555 1_555
C5 N1 1_555 1_555
C6 C4 1_555 1_555
C7 C6 1_555 1_555
C8 C7 1_555 1_555
C9 C5 1_555 1_555
O1 C9 1_555 1_555
C10 O1 1_555 1_555
C11 C10 1_555 1_555
O2 C11 1_555 1_555
O3 H12 1_555 1_555
O4 H14 1_555 1_555
H1 C1 1_555 1_555
H2 C2 1_555 1_555
H3 C3 1_555 1_555
H4 C6 1_555 1_555
H5 C7 1_555 1_555
H6 C8 1_555 1_555
H7 C10 1_555 1_555
H8 C10 1_555 1_555
H9 C11 1_555 1_555
H10 C11 1_555 1_555
H11 O2 1_555 1_555
H13 O3 1_555 1_555
H15 O4 1_555 1_555
C8 C9 1_555 1_555

#END
