
#######################################################################
#
#                 Cambridge Crystallographic Data Centre
#                                CCDC 
#
#######################################################################
#
# If this CIF has been generated from an entry in the Cambridge 
# Structural Database, then it will include bibliographic, chemical, 
# crystal, experimental, refinement or atomic coordinate data resulting 
# from the CCDC's data processing and validation procedures.
#
#######################################################################

data_DOTFEZ
_chemical_formula_moiety         'C27 H21 N3 O6,2(H2 O1)'
_chemical_name_systematic        
'Benzene-1,3,5-triyltris(methylene) tri-isonicotinate dihydrate'
_symmetry_cell_setting           triclinic
_symmetry_space_group_name_H-M   'P -1'
_symmetry_Int_Tables_number      2
_space_group_name_Hall           '-P 1'
loop_
_symmetry_equiv_pos_site_id
_symmetry_equiv_pos_as_xyz
1 x,y,z
2 -x,-y,-z
_cell_length_a                   7.4117(4)
_cell_length_b                   12.1658(6)
_cell_length_c                   14.2115(7)
_cell_angle_alpha                85.918(3)
_cell_angle_beta                 77.087(3)
_cell_angle_gamma                77.944(3)
_cell_volume                     1221.08
_exptl_crystal_colour            colorless
_exptl_crystal_description       BLOCK
_cell_formula_units_Z            2
loop_
_atom_site_label
_atom_site_type_symbol
_atom_site_fract_x
_atom_site_fract_y
_atom_site_fract_z
O1 O 0.5650(2) 0.57422(10) 0.13154(9)
O2 O 0.34753(18) 0.72779(9) 0.17788(8)
O3 O -0.1745(2) 1.20594(11) 0.40677(10)
O4 O -0.07181(18) 1.06122(10) 0.30757(8)
O5 O 0.2686(2) 1.24253(11) -0.28020(9)
O6 O 0.14469(18) 1.22084(10) -0.12369(8)
N1 N 0.2757(3) 0.48493(15) 0.47600(12)
N2 N -0.3524(3) 0.87333(17) 0.60845(13)
N3 N -0.1582(2) 1.61369(13) -0.18493(11)
C1 C 0.4197(3) 0.43256(16) 0.41050(14)
H1 H 0.4853 0.3608 0.4275
C2 C 0.4793(3) 0.47612(15) 0.31949(13)
H2 H 0.5826 0.4350 0.2752
C3 C 0.3863(3) 0.58083(14) 0.29363(12)
C4 C 0.2396(3) 0.63775(16) 0.36128(13)
H3 H 0.1742 0.7107 0.3469
C5 C 0.1899(3) 0.58637(18) 0.45047(14)
H4 H 0.0880 0.6260 0.4965
C6 C 0.4445(3) 0.62537(14) 0.19312(13)
C7 C 0.3886(3) 0.77129(14) 0.07970(12)
H5 H 0.3439 0.7270 0.0370
H6 H 0.5268 0.7644 0.0569
C8 C 0.2929(2) 0.89202(13) 0.07509(12)
C9 C 0.1965(3) 0.95326(14) 0.15606(12)
H7 H 0.1886 0.9184 0.2184
C10 C -0.3765(3) 0.9816(2) 0.62548(15)
H8 H -0.4394 1.0066 0.6884
C11 C -0.3159(3) 1.06041(19) 0.55750(14)
H9 H -0.3375 1.1373 0.5732
C12 C -0.2234(3) 1.02458(16) 0.46627(12)
C13 C -0.1960(3) 0.91204(16) 0.44735(14)
H10 H -0.1325 0.8844 0.3853
C14 C -0.2625(3) 0.84041(19) 0.52027(16)
H11 H -0.2429 0.7630 0.5066
C15 C -0.1558(3) 1.10827(15) 0.39190(12)
C16 C 0.0104(3) 1.13438(14) 0.23254(12)
H12 H 0.0999 1.1701 0.2559
H13 H -0.0900 1.1944 0.2149
C17 C 0.1116(3) 1.06531(14) 0.14628(12)
C18 C 0.1247(2) 1.11650(14) 0.05535(12)
H14 H 0.0663 1.1931 0.0487
C19 C -0.1672(3) 1.54332(16) -0.10876(13)
H15 H -0.2501 1.5690 -0.0499
C20 C -0.0628(3) 1.43522(15) -0.11051(13)
H16 H -0.0727 1.3881 -0.0541
C21 C 0.0566(3) 1.39691(14) -0.19626(12)
C22 C 0.0700(3) 1.46968(15) -0.27596(13)
H17 H 0.1523 1.4466 -0.3357
C23 C -0.0394(3) 1.57633(15) -0.26620(14)
H18 H -0.0294 1.6262 -0.3208
C24 C 0.1686(3) 1.28002(15) -0.20642(12)
C25 C 0.2449(3) 1.10584(14) -0.12666(12)
H19 H 0.3804 1.1025 -0.1555
H20 H 0.1940 1.0621 -0.1671
C26 C 0.2227(2) 1.05623(14) -0.02587(12)
C27 C 0.3059(3) 0.94455(14) -0.01557(12)
H21 H 0.3729 0.9031 -0.0712
O7 O 0.2487(2) 0.65991(12) 0.89667(10)
H22 H 0.3317 0.6904 0.8606
H23 H 0.2877 0.5900 0.8984
O8 O 0.4832(2) 0.22362(11) 0.20526(10)
H24 H 0.4767 0.1925 0.2603
H25 H 0.3742 0.2547 0.1986
loop_
_geom_bond_atom_site_label_1
_geom_bond_atom_site_label_2
_geom_bond_site_symmetry_1
_geom_bond_site_symmetry_2
O1 C6 1_555 1_555
O2 C6 1_555 1_555
O3 C15 1_555 1_555
O4 C15 1_555 1_555
O5 C24 1_555 1_555
O6 C24 1_555 1_555
N1 C1 1_555 1_555
N2 C10 1_555 1_555
N3 C19 1_555 1_555
C1 H1 1_555 1_555
C2 C1 1_555 1_555
H2 C2 1_555 1_555
C3 C2 1_555 1_555
C4 C3 1_555 1_555
H3 C4 1_555 1_555
C5 N1 1_555 1_555
H4 C5 1_555 1_555
C6 C3 1_555 1_555
C7 O2 1_555 1_555
H5 C7 1_555 1_555
H6 C7 1_555 1_555
C8 C7 1_555 1_555
C9 C8 1_555 1_555
H7 C9 1_555 1_555
C10 H8 1_555 1_555
C11 C10 1_555 1_555
H9 C11 1_555 1_555
C12 C11 1_555 1_555
C13 C12 1_555 1_555
H10 C13 1_555 1_555
C14 N2 1_555 1_555
H11 C14 1_555 1_555
C15 C12 1_555 1_555
C16 O4 1_555 1_555
H12 C16 1_555 1_555
H13 C16 1_555 1_555
C17 C9 1_555 1_555
C18 C17 1_555 1_555
H14 C18 1_555 1_555
C19 H15 1_555 1_555
C20 C19 1_555 1_555
H16 C20 1_555 1_555
C21 C20 1_555 1_555
C22 C21 1_555 1_555
H17 C22 1_555 1_555
C23 N3 1_555 1_555
H18 C23 1_555 1_555
C24 C21 1_555 1_555
C25 O6 1_555 1_555
H19 C25 1_555 1_555
H20 C25 1_555 1_555
C26 C18 1_555 1_555
C27 C8 1_555 1_555
H21 C27 1_555 1_555
O7 H22 1_555 1_555
H23 O7 1_555 1_555
O8 H24 1_555 1_555
H25 O8 1_555 1_555
C4 C5 1_555 1_555
C13 C14 1_555 1_555
C16 C17 1_555 1_555
C22 C23 1_555 1_555
C25 C26 1_555 1_555
C26 C27 1_555 1_555

#END
