
#######################################################################
#
#                 Cambridge Crystallographic Data Centre
#                                CCDC 
#
#######################################################################
#
# If this CIF has been generated from an entry in the Cambridge 
# Structural Database, then it will include bibliographic, chemical, 
# crystal, experimental, refinement or atomic coordinate data resulting 
# from the CCDC's data processing and validation procedures.
#
#######################################################################

data_DOTKII
_chemical_formula_moiety         'C8 H7 N2 P1,C8 H7 N2 P1'
_chemical_name_systematic        
'3-phenyl-1H-1,2,4-diazaphosphole 5-phenyl-1H-1,2,4-diazaphosphole'
_symmetry_cell_setting           monoclinic
_symmetry_space_group_name_H-M   'P 21/n'
_symmetry_Int_Tables_number      14
_space_group_name_Hall           '-P 2yn'
loop_
_symmetry_equiv_pos_site_id
_symmetry_equiv_pos_as_xyz
1 x,y,z
2 1/2-x,1/2+y,1/2-z
3 -x,-y,-z
4 1/2+x,1/2-y,1/2+z
_cell_length_a                   15.1257(8)
_cell_length_b                   11.5748(6)
_cell_length_c                   19.0517(10)
_cell_angle_alpha                90
_cell_angle_beta                 93.5880(10)
_cell_angle_gamma                90
_cell_volume                     3328.98
_cell_formula_units_Z            8
loop_
_atom_site_label
_atom_site_type_symbol
_atom_site_fract_x
_atom_site_fract_y
_atom_site_fract_z
P1 P 0.70019(4) 0.27595(6) 0.19498(4)
N1 N 0.55867(12) 0.34089(17) 0.12485(10)
H1 H 0.5229 0.3806 0.0975
N2 N 0.53473(11) 0.24382(15) 0.15695(10)
C1 C 0.64213(15) 0.3697(2) 0.13911(13)
H2 H 0.6676 0.4352 0.1206
C2 C 0.60149(13) 0.19802(18) 0.19677(11)
C3 C 0.58503(13) 0.09305(18) 0.23774(11)
C4 C 0.51335(16) 0.0218(2) 0.22064(14)
H3 H 0.4758 0.0386 0.1815
C5 C 0.49710(19) -0.0736(2) 0.26091(16)
H4 H 0.4490 -0.1211 0.2485
C6 C 0.5516(2) -0.0991(2) 0.31940(16)
H5 H 0.5400 -0.1629 0.3471
C7 C 0.62275(19) -0.0299(2) 0.33638(14)
H6 H 0.6598 -0.0469 0.3758
C8 C 0.64045(16) 0.0650(2) 0.29584(13)
H7 H 0.6899 0.1104 0.3076
P2 P 0.61719(5) 0.55735(6) 0.34526(4)
N3 N 0.50762(13) 0.55142(16) 0.23565(10)
N4 N 0.48462(12) 0.46341(16) 0.27650(9)
H8 H 0.4413 0.4177 0.2650
C9 C 0.57575(16) 0.6086(2) 0.26480(13)
H9 H 0.5999 0.6725 0.2434
C10 C 0.53424(14) 0.45261(18) 0.33633(11)
C11 C 0.51799(14) 0.35841(19) 0.38575(11)
C12 C 0.47836(15) 0.2554(2) 0.36392(13)
H10 H 0.4604 0.2454 0.3167
C13 C 0.46520(18) 0.1678(2) 0.41083(16)
H11 H 0.4386 0.0993 0.3952
C14 C 0.4911(2) 0.1812(3) 0.48042(17)
H12 H 0.4817 0.1221 0.5122
C15 C 0.5309(2) 0.2814(3) 0.50306(15)
H13 H 0.5489 0.2902 0.5503
C16 C 0.54446(17) 0.3699(2) 0.45638(13)
H14 H 0.5716 0.4378 0.4725
P3 P 0.18111(5) 0.22579(8) 0.18646(5)
N5 N 0.33297(13) 0.32392(18) 0.21451(11)
N6 N 0.34758(11) 0.23564(16) 0.17101(10)
H15 H 0.3993 0.2201 0.1573
C17 C 0.24840(17) 0.3299(3) 0.22696(14)
H16 H 0.2263 0.3866 0.2557
C18 C 0.27633(13) 0.17380(19) 0.15064(11)
C19 C 0.28350(13) 0.07513(19) 0.10268(11)
C20 C 0.35505(16) 0.0608(2) 0.06147(12)
H17 H 0.4005 0.1150 0.0638
C21 C 0.3597(2) -0.0326(2) 0.01724(14)
H18 H 0.4085 -0.0415 -0.0096
C22 C 0.2926(2) -0.1130(2) 0.01249(16)
H19 H 0.2957 -0.1759 -0.0176
C23 C 0.2214(2) -0.0997(2) 0.05233(16)
H20 H 0.1758 -0.1537 0.0491
C24 C 0.21646(16) -0.0071(2) 0.09719(14)
H21 H 0.1677 0.0005 0.1242
P4 P 0.24182(5) 0.52874(8) 1.03901(4)
N7 N 0.38506(14) 0.55390(18) 1.11612(10)
H22 H 0.4226 0.5798 1.1481
N8 N 0.40332(12) 0.46738(16) 1.07254(10)
C25 C 0.30456(19) 0.5955(3) 1.10555(14)
H23 H 0.2833 0.6560 1.1318
C26 C 0.33438(14) 0.44233(19) 1.02825(11)
C27 C 0.34232(14) 0.34933(19) 0.97638(11)
C28 C 0.42362(15) 0.3144(2) 0.95406(12)
H24 H 0.4752 0.3502 0.9722
C29 C 0.42868(19) 0.2274(2) 0.90532(14)
H25 H 0.4836 0.2045 0.8909
C30 C 0.3532(2) 0.1742(2) 0.87783(14)
H26 H 0.3569 0.1156 0.8448
C31 C 0.27299(19) 0.2078(2) 0.89928(15)
H27 H 0.2218 0.1718 0.8807
C32 C 0.26681(16) 0.2944(2) 0.94815(13)
H28 H 0.2115 0.3163 0.9624
loop_
_geom_bond_atom_site_label_1
_geom_bond_atom_site_label_2
_geom_bond_site_symmetry_1
_geom_bond_site_symmetry_2
P1 C1 1_555 1_555
N1 H1 1_555 1_555
N2 N1 1_555 1_555
C1 N1 1_555 1_555
H2 C1 1_555 1_555
C2 P1 1_555 1_555
C3 C2 1_555 1_555
C4 C3 1_555 1_555
H3 C4 1_555 1_555
C5 C4 1_555 1_555
H4 C5 1_555 1_555
C6 C5 1_555 1_555
H5 C6 1_555 1_555
C7 C6 1_555 1_555
H6 C7 1_555 1_555
C8 C3 1_555 1_555
H7 C8 1_555 1_555
P2 C9 1_555 1_555
N3 N4 1_555 1_555
N4 H8 1_555 1_555
C9 N3 1_555 1_555
H9 C9 1_555 1_555
C10 P2 1_555 1_555
C11 C10 1_555 1_555
C12 C11 1_555 1_555
H10 C12 1_555 1_555
C13 C12 1_555 1_555
H11 C13 1_555 1_555
C14 C13 1_555 1_555
H12 C14 1_555 1_555
C15 C14 1_555 1_555
H13 C15 1_555 1_555
C16 C11 1_555 1_555
H14 C16 1_555 1_555
P3 C17 1_555 1_555
N5 N6 1_555 1_555
N6 H15 1_555 1_555
C17 N5 1_555 1_555
H16 C17 1_555 1_555
C18 P3 1_555 1_555
C19 C18 1_555 1_555
C20 C19 1_555 1_555
H17 C20 1_555 1_555
C21 C20 1_555 1_555
H18 C21 1_555 1_555
C22 C21 1_555 1_555
H19 C22 1_555 1_555
C23 C22 1_555 1_555
H20 C23 1_555 1_555
C24 C19 1_555 1_555
H21 C24 1_555 1_555
P4 C25 1_555 1_555
N7 H22 1_555 1_555
N8 N7 1_555 1_555
C25 N7 1_555 1_555
H23 C25 1_555 1_555
C26 P4 1_555 1_555
C27 C26 1_555 1_555
C28 C27 1_555 1_555
H24 C28 1_555 1_555
C29 C28 1_555 1_555
H25 C29 1_555 1_555
C30 C29 1_555 1_555
H26 C30 1_555 1_555
C31 C30 1_555 1_555
H27 C31 1_555 1_555
C32 C27 1_555 1_555
H28 C32 1_555 1_555
N2 C2 1_555 1_555
C7 C8 1_555 1_555
N4 C10 1_555 1_555
C15 C16 1_555 1_555
N6 C18 1_555 1_555
C23 C24 1_555 1_555
N8 C26 1_555 1_555
C31 C32 1_555 1_555

#END
