
#######################################################################
#
#                 Cambridge Crystallographic Data Centre
#                                CCDC 
#
#######################################################################
#
# If this CIF has been generated from an entry in the Cambridge 
# Structural Database, then it will include bibliographic, chemical, 
# crystal, experimental, refinement or atomic coordinate data resulting 
# from the CCDC's data processing and validation procedures.
#
#######################################################################

data_DOTMUU
_chemical_formula_moiety         'C30 H38 O12'
_chemical_name_systematic        
'(S)-Lacinilene C methyl ether tetra-O-acetyl-\a-D-glucopyranoside'
_symmetry_cell_setting           orthorhombic
_symmetry_space_group_name_H-M   'P 21 21 21'
_symmetry_Int_Tables_number      19
_space_group_name_Hall           'P 2ac 2ab'
loop_
_symmetry_equiv_pos_site_id
_symmetry_equiv_pos_as_xyz
1 x,y,z
2 1/2+x,1/2-y,-z
3 -x,1/2+y,1/2-z
4 1/2-x,-y,1/2+z
_cell_length_a                   12.121(3)
_cell_length_b                   12.494(3)
_cell_length_c                   20.198(4)
_cell_angle_alpha                90
_cell_angle_beta                 90
_cell_angle_gamma                90
_cell_volume                     3058.78
_cell_formula_units_Z            4
loop_
_atom_site_label
_atom_site_type_symbol
_atom_site_fract_x
_atom_site_fract_y
_atom_site_fract_z
H1 H 0.6783 0.1556 0.4901
H2 H 0.6485 -0.0502 0.5440
H3 H 0.7826 0.0003 0.4365
H4 H 0.5839 -0.1188 0.4333
H5 H 0.6273 0.0817 0.3827
H6 H 0.4907 0.0174 0.3172
H7 H 0.4348 0.1007 0.3633
H8 H 0.6475 0.4165 0.6876
H9 H 0.2788 0.3417 0.7281
H10 H 0.3704 0.1135 0.5550
H11 H 0.3882 0.4230 0.7618
H12 H 0.4707 0.5820 0.7832
H13 H 0.3949 0.5733 0.7147
H14 H 0.5222 0.5709 0.7072
H15 H 0.5276 0.3759 0.5189
H16 H 0.1081 0.2623 0.7378
H17 H 0.2167 0.0341 0.5088
H18 H 0.9446 0.0677 0.6300
H19 H 0.9445 -0.2722 0.5191
H20 H 0.4412 0.2878 0.5021
H21 H 0.5626 0.2746 0.4793
H22 H 0.0940 0.1447 0.7153
H23 H 0.0571 0.2374 0.6692
H24 H 0.1360 -0.0433 0.5451
H25 H 0.2598 -0.0415 0.5646
H26 H 0.9643 -0.0541 0.6408
H27 H 0.9007 0.0116 0.6936
H28 H 1.0155 -0.2681 0.4552
H29 H 0.8945 -0.3082 0.4519
H30 H 0.4906 0.3794 0.8403
H31 H 0.7401 -0.1802 0.2530
H32 H 0.2589 -0.1713 0.4264
H33 H 0.5939 0.3723 0.7953
H34 H 0.5622 0.4802 0.8282
H35 H 0.7418 -0.2990 0.2751
H36 H 0.6402 -0.2537 0.2378
H37 H 0.1627 -0.1101 0.3923
H38 H 0.2170 -0.2070 0.3571
O1 O 0.5834(4) 0.1302(4) 0.5699(2)
O2 O 0.5400(4) 0.0722(4) 0.4677(2)
O3 O 0.7245(5) 0.2923(6) 0.5977(3)
O4 O 0.7938(4) 0.0279(4) 0.5592(2)
O5 O 0.1756(4) 0.0769(4) 0.6028(3)
O6 O 0.7898(4) -0.1471(4) 0.4690(2)
O7 O 0.6737(5) -0.1081(5) 0.3503(2)
O8 O 0.3998(4) -0.0490(5) 0.3889(3)
O9 O 0.7497(5) -0.0912(6) 0.6385(3)
O10 O 0.9538(5) -0.0702(5) 0.4427(4)
O11 O 0.5823(8) -0.2631(6) 0.3672(4)
C1 C 0.2342(9) -0.143(1) 0.3841(6)
C2 C 0.6276(6) 0.0993(6) 0.5097(4)
C3 C 0.5404(6) 0.2389(6) 0.5779(4)
C4 C 0.6966(6) 0.0004(6) 0.5215(4)
C5 C 0.6286(6) 0.3011(7) 0.6164(4)
C6 C 0.5945(6) 0.3680(7) 0.6677(4)
C7 C 0.7335(6) -0.0483(6) 0.4575(3)
C8 C 0.4926(6) 0.3707(7) 0.6926(4)
C9 C 0.6358(6) -0.0667(6) 0.4151(4)
C10 C 0.3002(6) 0.2919(6) 0.6949(4)
C11 C 0.5738(6) 0.0358(6) 0.4043(4)
C12 C 0.4735(7) 0.0311(8) 0.3626(4)
C13 C 0.2229(6) 0.2217(6) 0.6726(4)
C14 C 0.2553(6) 0.1493(6) 0.6211(4)
C15 C 0.3574(6) 0.1565(6) 0.5927(3)
C16 C 0.4318(6) 0.2278(6) 0.6145(3)
C17 C 0.4108(7) 0.2972(7) 0.6671(4)
C18 C 0.4646(7) 0.4438(8) 0.7510(4)
C19 C 0.466(2) 0.550(1) 0.7386(6)
C20 C 0.526(2) 0.417(1) 0.8081(5)
C21 C 0.5212(8) 0.3012(7) 0.5153(4)
C22 C 0.1095(6) 0.2132(7) 0.7008(4)
C23 C 0.2042(7) -0.0009(7) 0.5547(5)
C24 C 0.8102(7) -0.0247(7) 0.6180(4)
C25 C 0.9145(8) 0.0091(9) 0.6477(5)
C26 C 0.9030(7) -0.1446(7) 0.4594(4)
C27 C 0.9478(7) -0.2570(8) 0.4750(4)
C28 C 0.6440(8) -0.2079(7) 0.3333(4)
C29 C 0.693(1) -0.238(1) 0.2727(5)
C30 C 0.3125(7) -0.0703(7) 0.3494(4)
O12 O 0.2998(5) -0.0293(6) 0.2976(3)
loop_
_geom_bond_atom_site_label_1
_geom_bond_atom_site_label_2
_geom_bond_site_symmetry_1
_geom_bond_site_symmetry_2
H1 C2 1_555 1_555
H2 C4 1_555 1_555
H3 C7 1_555 1_555
H4 C9 1_555 1_555
H5 C11 1_555 1_555
H6 C12 1_555 1_555
H7 C12 1_555 1_555
H8 C6 1_555 1_555
H9 C10 1_555 1_555
H10 C15 1_555 1_555
H11 C18 1_555 1_555
H12 C19 1_555 1_555
H13 C19 1_555 1_555
H14 C19 1_555 1_555
H15 C21 1_555 1_555
H16 C22 1_555 1_555
H17 C23 1_555 1_555
H18 C25 1_555 1_555
H19 C27 1_555 1_555
H20 C21 1_555 1_555
H21 C21 1_555 1_555
H22 C22 1_555 1_555
H23 C22 1_555 1_555
H24 C23 1_555 1_555
H25 C23 1_555 1_555
H26 C25 1_555 1_555
H27 C25 1_555 1_555
H28 C27 1_555 1_555
H29 C27 1_555 1_555
H30 C20 1_555 1_555
H31 C29 1_555 1_555
H32 C1 1_555 1_555
H33 C20 1_555 1_555
H34 C20 1_555 1_555
H35 C29 1_555 1_555
H36 C29 1_555 1_555
H37 C1 1_555 1_555
H38 C1 1_555 1_555
O1 C2 1_555 1_555
O2 C2 1_555 1_555
O3 C5 1_555 1_555
O4 C4 1_555 1_555
O5 C14 1_555 1_555
O6 C7 1_555 1_555
O7 C9 1_555 1_555
O8 C12 1_555 1_555
O9 C24 1_555 1_555
O10 C26 1_555 1_555
O11 C28 1_555 1_555
C1 C30 1_555 1_555
C2 C4 1_555 1_555
C3 O1 1_555 1_555
C4 C7 1_555 1_555
C5 C3 1_555 1_555
C6 C5 1_555 1_555
C7 C9 1_555 1_555
C8 C6 1_555 1_555
C9 C11 1_555 1_555
C10 C13 1_555 1_555
C11 O2 1_555 1_555
C12 C11 1_555 1_555
C13 C14 1_555 1_555
C14 C15 1_555 1_555
C15 C16 1_555 1_555
C16 C3 1_555 1_555
C17 C8 1_555 1_555
C18 C8 1_555 1_555
C19 C18 1_555 1_555
C20 C18 1_555 1_555
C21 C3 1_555 1_555
C22 C13 1_555 1_555
C23 O5 1_555 1_555
C24 O4 1_555 1_555
C25 C24 1_555 1_555
C26 O6 1_555 1_555
C27 C26 1_555 1_555
C28 O7 1_555 1_555
C29 C28 1_555 1_555
C30 O8 1_555 1_555
O12 C30 1_555 1_555
C10 C17 1_555 1_555
C16 C17 1_555 1_555

#END
