
#######################################################################
#
#                 Cambridge Crystallographic Data Centre
#                                CCDC 
#
#######################################################################
#
# If this CIF has been generated from an entry in the Cambridge 
# Structural Database, then it will include bibliographic, chemical, 
# crystal, experimental, refinement or atomic coordinate data resulting 
# from the CCDC's data processing and validation procedures.
#
#######################################################################

data_DOTNEF
_chemical_formula_moiety         'C17 H20 O6'
_chemical_name_systematic        
trans,trans-4,8-Dioxotetracyclo(5.4.2.0^2,6^.0^2,9^)tridecyl-10,13-diacetate
_symmetry_cell_setting           monoclinic
_symmetry_space_group_name_H-M   'P 21/c'
_symmetry_Int_Tables_number      14
_space_group_name_Hall           '-P 2ybc'
loop_
_symmetry_equiv_pos_site_id
_symmetry_equiv_pos_as_xyz
1 x,y,z
2 -x,1/2+y,1/2-z
3 -x,-y,-z
4 x,1/2-y,1/2+z
_cell_length_a                   8.4940(18)
_cell_length_b                   23.0502(39)
_cell_length_c                   7.8695(26)
_cell_angle_alpha                90
_cell_angle_beta                 98.918(23)
_cell_angle_gamma                90
_cell_volume                     1522.13
_exptl_crystal_colour            white
_chemical_melting_point          170deg.C
_cell_formula_units_Z            4
loop_
_atom_site_label
_atom_site_type_symbol
_atom_site_fract_x
_atom_site_fract_y
_atom_site_fract_z
C1 C 0.3125(5) 0.2899(2) 0.6719(5)
C2 C 0.1368(5) 0.2776(2) 0.6336(6)
O1 O 0.0806(4) 0.2295(1) 0.6122(7)
C3 C 0.0417(5) 0.3331(2) 0.6233(6)
C4 C 0.1662(4) 0.3787(2) 0.6957(5)
C5 C 0.3225(4) 0.3561(1) 0.6449(4)
C6 C 0.3129(4) 0.3736(2) 0.4523(5)
C7 C 0.2214(4) 0.4311(1) 0.4483(4)
O2 O 0.2062(3) 0.4661(1) 0.3326(3)
C8 C 0.1629(4) 0.4392(2) 0.6217(5)
C9 C 0.2871(4) 0.4774(1) 0.7358(4)
O3 O 0.2100(3) 0.5069(1) 0.8634(3)
C10 C 0.1521(4) 0.5607(2) 0.8250(5)
O4 O 0.1560(3) 0.5834(1) 0.6890(4)
C11 C 0.0829(6) 0.5866(2) 0.9698(6)
C12 C 0.4199(4) 0.4417(2) 0.8373(4)
C13 C 0.4702(4) 0.3904(1) 0.7324(4)
C14 C 0.5615(4) 0.4117(2) 0.5879(5)
C15 C 0.4831(4) 0.3838(1) 0.4224(4)
O5 O 0.5651(3) 0.3288(1) 0.4097(3)
C16 C 0.5986(4) 0.3124(2) 0.2560(5)
O6 O 0.5468(4) 0.3360(1) 0.1245(4)
C17 C 0.7062(5) 0.2615(2) 0.2707(6)
H1 H 0.3524(43) 0.2819(15) 0.7999(46)
H2 H 0.3807(44) 0.2658(15) 0.5968(46)
H3 H -0.0457(42) 0.3285(15) 0.6955(45)
H4 H 0.0056(43) 0.3371(15) 0.4854(47)
H5 H 0.1886(43) 0.3746(15) 0.8319(46)
H6 H 0.2576(47) 0.3515(17) 0.3720(52)
H7 H 0.0530(43) 0.4544(16) 0.6015(46)
H8 H 0.3274(43) 0.5072(15) 0.6626(45)
H9 H 0.0385(42) 0.6243(16) 0.9465(46)
H10 H 0.1384(43) 0.5696(15) 1.0666(45)
H11 H -0.0101(45) 0.5674(15) 0.9809(46)
H12 H 0.3932(42) 0.4273(15) 0.9401(45)
H13 H 0.5198(41) 0.4656(15) 0.8725(46)
H14 H 0.5406(42) 0.3678(15) 0.8047(46)
H15 H 0.6690(50) 0.3988(16) 0.6063(50)
H16 H 0.5550(45) 0.4548(18) 0.5715(47)
H17 H 0.4904(44) 0.4069(15) 0.3287(47)
H18 H 0.7101(43) 0.2413(16) 0.3704(48)
H19 H 0.7907(50) 0.2754(18) 0.2469(54)
H20 H 0.6771(43) 0.2374(15) 0.1847(48)
loop_
_geom_bond_atom_site_label_1
_geom_bond_atom_site_label_2
_geom_bond_site_symmetry_1
_geom_bond_site_symmetry_2
C1 C2 1_555 1_555
C2 O1 1_555 1_555
C3 C2 1_555 1_555
C4 C3 1_555 1_555
C5 C1 1_555 1_555
C6 C5 1_555 1_555
C7 C6 1_555 1_555
O2 C7 1_555 1_555
C8 C4 1_555 1_555
C9 C8 1_555 1_555
O3 C9 1_555 1_555
C10 O3 1_555 1_555
O4 C10 1_555 1_555
C11 C10 1_555 1_555
C12 C9 1_555 1_555
C13 C5 1_555 1_555
C14 C13 1_555 1_555
C15 C6 1_555 1_555
O5 C15 1_555 1_555
C16 O5 1_555 1_555
O6 C16 1_555 1_555
C17 C16 1_555 1_555
H1 C1 1_555 1_555
H2 C1 1_555 1_555
H3 C3 1_555 1_555
H4 C3 1_555 1_555
H5 C4 1_555 1_555
H6 C6 1_555 1_555
H7 C8 1_555 1_555
H8 C9 1_555 1_555
H9 C11 1_555 1_555
H10 C11 1_555 1_555
H11 C11 1_555 1_555
H12 C12 1_555 1_555
H13 C12 1_555 1_555
H14 C13 1_555 1_555
H15 C14 1_555 1_555
H16 C14 1_555 1_555
H17 C15 1_555 1_555
H18 C17 1_555 1_555
H19 C17 1_555 1_555
H20 C17 1_555 1_555
C4 C5 1_555 1_555
C7 C8 1_555 1_555
C12 C13 1_555 1_555
C14 C15 1_555 1_555

#END
