
#######################################################################
#
#                 Cambridge Crystallographic Data Centre
#                                CCDC 
#
#######################################################################
#
# If this CIF has been generated from an entry in the Cambridge 
# Structural Database, then it will include bibliographic, chemical, 
# crystal, experimental, refinement or atomic coordinate data resulting 
# from the CCDC's data processing and validation procedures.
#
#######################################################################

data_DOTVEO
_chemical_formula_moiety         'C20 H19 N1 O3'
_chemical_name_systematic        
5-Benzylidene-1-(2-hydroxy-1-phenylethyl)-3-methoxy-1,5-dihydro-2H-pyrrol-2-one
_symmetry_cell_setting           monoclinic
_symmetry_space_group_name_H-M   'P 21'
_symmetry_Int_Tables_number      4
_space_group_name_Hall           'P 2yb'
loop_
_symmetry_equiv_pos_site_id
_symmetry_equiv_pos_as_xyz
1 x,y,z
2 -x,1/2+y,-z
_cell_length_a                   8.4960(8)
_cell_length_b                   9.5350(8)
_cell_length_c                   20.6565(17)
_cell_angle_alpha                90
_cell_angle_beta                 90.00
_cell_angle_gamma                90
_cell_volume                     1673.37
_exptl_crystal_colour            colorless
_exptl_crystal_description       needle
_cell_formula_units_Z            4
loop_
_atom_site_label
_atom_site_type_symbol
_atom_site_fract_x
_atom_site_fract_y
_atom_site_fract_z
O1 O -0.0758(2) -0.23284(19) -0.37307(9)
H1 H -0.0859 -0.2510 -0.4116
O2 O 0.1930(2) 0.4253(2) -0.47832(9)
O3 O 0.1194(2) 0.1426(2) -0.50655(9)
C1 C 0.1797(3) 0.3294(3) -0.43081(14)
N1 N 0.1314(2) 0.1090(2) -0.39589(10)
C2 C 0.1397(3) 0.1855(3) -0.45104(13)
C3 C 0.1994(3) 0.2262(3) -0.22109(13)
C4 C 0.1087(3) -0.0444(3) -0.39701(13)
H2 H 0.0968 -0.0687 -0.4429
C5 C 0.1950(3) 0.3333(3) -0.36711(13)
H3 H 0.2195 0.4123 -0.3427
C6 C 0.2555(3) -0.1204(3) -0.37492(12)
C7 C 0.1675(3) 0.1477(3) -0.28040(13)
H4 H 0.1445 0.0531 -0.2749
C8 C 0.1672(3) 0.1936(3) -0.34153(13)
C9 C -0.0463(3) -0.0869(3) -0.36537(14)
H5 H -0.0426 -0.0643 -0.3196
H6 H -0.1317 -0.0339 -0.3847
C10 C 0.2623(3) -0.2000(3) -0.31907(13)
H7 H 0.1736 -0.2087 -0.2929
C11 C 0.3069(3) 0.3379(3) -0.21725(14)
H8 H 0.3635 0.3644 -0.2538
C12 C 0.5271(3) -0.1826(3) -0.39675(15)
H9 H 0.6155 -0.1770 -0.4232
C13 C 0.3291(4) 0.4080(4) -0.15999(15)
H10 H 0.4007 0.4817 -0.1581
C14 C 0.3901(3) -0.1127(3) -0.41412(13)
H11 H 0.3876 -0.0603 -0.4521
C15 C 0.2358(4) 0.5630(3) -0.45665(17)
H12 H 0.2441 0.6246 -0.4932
H13 H 0.3352 0.5588 -0.4346
H14 H 0.1568 0.5977 -0.4276
C16 C 0.4011(3) -0.2669(4) -0.30195(14)
H15 H 0.4060 -0.3176 -0.2635
C17 C 0.5327(3) -0.2591(4) -0.34142(15)
H16 H 0.6245 -0.3061 -0.3300
C18 C 0.2463(4) 0.3705(4) -0.10513(16)
H17 H 0.2608 0.4196 -0.0667
C19 C 0.1200(4) 0.1881(4) -0.16474(14)
H18 H 0.0508 0.1126 -0.1658
C20 C 0.1415(4) 0.2592(4) -0.10766(15)
H19 H 0.0859 0.2329 -0.0708
N2 N -0.3569(3) -0.9215(2) -0.12390(11)
O4 O -0.2663(2) -0.6203(2) -0.03417(9)
O5 O -0.5454(2) -1.2636(2) -0.10149(9)
H20 H -0.5781 -1.3097 -0.0708
O6 O -0.3489(2) -0.9026(2) -0.01160(9)
C21 C -0.2927(3) -0.7089(3) -0.08368(13)
C22 C -0.3361(3) -0.8654(3) -0.23883(12)
H21 H -0.3620 -0.9583 -0.2475
C23 C -0.3256(3) -0.8296(3) -0.17634(13)
C24 C -0.3841(3) -1.0739(3) -0.13204(12)
H22 H -0.4413 -1.0858 -0.1729
C25 C -0.3115(3) -0.7746(3) -0.29505(12)
C26 C -0.3352(3) -0.8552(3) -0.06675(13)
C27 C -0.4899(3) -1.1312(3) -0.07882(14)
H23 H -0.4312 -1.1425 -0.0389
H24 H -0.5773 -1.0680 -0.0710
C28 C -0.2874(3) -0.6942(3) -0.14775(14)
H25 H -0.2637 -0.6123 -0.1702
C29 C -0.2271(3) -1.1500(3) -0.13978(12)
C30 C -0.2020(3) -0.6654(3) -0.29664(13)
H26 H -0.1360 -0.6505 -0.2614
C31 C -0.2009(3) -1.2350(3) -0.19273(13)
H27 H -0.2801 -1.2470 -0.2233
C32 C -0.1089(3) -1.1343(3) -0.09441(14)
H28 H -0.1255 -1.0787 -0.0581
C33 C -0.2858(4) -0.6012(4) -0.40331(13)
H29 H -0.2787 -0.5426 -0.4392
C34 C -0.4043(3) -0.7969(3) -0.34948(13)
H30 H -0.4758 -0.8707 -0.3498
C35 C -0.1911(3) -0.5789(3) -0.35055(13)
H31 H -0.1191 -0.5054 -0.3509
C36 C -0.3919(4) -0.7111(3) -0.40304(14)
H32 H -0.4551 -0.7273 -0.4390
C37 C -0.2289(5) -0.4793(3) -0.05255(18)
H33 H -0.2120 -0.4238 -0.0144
H34 H -0.3145 -0.4406 -0.0771
H35 H -0.1351 -0.4792 -0.0785
C38 C 0.0348(4) -1.2016(3) -0.10308(16)
H36 H 0.1143 -1.1901 -0.0726
C39 C -0.0582(4) -1.3025(4) -0.20097(15)
H37 H -0.0423 -1.3598 -0.2368
C40 C 0.0602(4) -1.2849(4) -0.15627(16)
H38 H 0.1567 -1.3292 -0.1620
loop_
_geom_bond_atom_site_label_1
_geom_bond_atom_site_label_2
_geom_bond_site_symmetry_1
_geom_bond_site_symmetry_2
O1 H1 1_555 1_555
O2 C1 1_555 1_555
O3 C2 1_555 1_555
C1 C2 1_555 1_555
N1 C2 1_555 1_555
C3 C7 1_555 1_555
C4 N1 1_555 1_555
H2 C4 1_555 1_555
C5 C1 1_555 1_555
H3 C5 1_555 1_555
C6 C4 1_555 1_555
C7 H4 1_555 1_555
C8 N1 1_555 1_555
C9 O1 1_555 1_555
H5 C9 1_555 1_555
H6 C9 1_555 1_555
C10 C6 1_555 1_555
H7 C10 1_555 1_555
C11 C3 1_555 1_555
H8 C11 1_555 1_555
C12 H9 1_555 1_555
C13 C11 1_555 1_555
H10 C13 1_555 1_555
C14 C6 1_555 1_555
H11 C14 1_555 1_555
C15 O2 1_555 1_555
H12 C15 1_555 1_555
H13 C15 1_555 1_555
H14 C15 1_555 1_555
C16 C10 1_555 1_555
H15 C16 1_555 1_555
C17 C12 1_555 1_555
H16 C17 1_555 1_555
C18 C13 1_555 1_555
H17 C18 1_555 1_555
C19 C3 1_555 1_555
H18 C19 1_555 1_555
C20 C18 1_555 1_555
H19 C20 1_555 1_555
N2 C23 1_555 1_555
O4 C21 1_555 1_555
O5 H20 1_555 1_555
O6 C26 1_555 1_555
C21 C26 1_555 1_555
C22 H21 1_555 1_555
C23 C22 1_555 1_555
C24 N2 1_555 1_555
H22 C24 1_555 1_555
C25 C22 1_555 1_555
C26 N2 1_555 1_555
C27 O5 1_555 1_555
H23 C27 1_555 1_555
H24 C27 1_555 1_555
C28 C21 1_555 1_555
H25 C28 1_555 1_555
C29 C24 1_555 1_555
C30 C25 1_555 1_555
H26 C30 1_555 1_555
C31 C29 1_555 1_555
H27 C31 1_555 1_555
C32 C29 1_555 1_555
H28 C32 1_555 1_555
C33 H29 1_555 1_555
C34 C25 1_555 1_555
H30 C34 1_555 1_555
C35 C30 1_555 1_555
H31 C35 1_555 1_555
C36 C33 1_555 1_555
H32 C36 1_555 1_555
C37 O4 1_555 1_555
H33 C37 1_555 1_555
H34 C37 1_555 1_555
H35 C37 1_555 1_555
C38 C32 1_555 1_555
H36 C38 1_555 1_555
C39 C31 1_555 1_555
H37 C39 1_555 1_555
C40 C38 1_555 1_555
H38 C40 1_555 1_555
C4 C9 1_555 1_555
C5 C8 1_555 1_555
C7 C8 1_555 1_555
C12 C14 1_555 1_555
C16 C17 1_555 1_555
C19 C20 1_555 1_555
C23 C28 1_555 1_555
C24 C27 1_555 1_555
C33 C35 1_555 1_555
C34 C36 1_555 1_555
C39 C40 1_555 1_555

#END
