
#######################################################################
#
#                 Cambridge Crystallographic Data Centre
#                                CCDC 
#
#######################################################################
#
# If this CIF has been generated from an entry in the Cambridge 
# Structural Database, then it will include bibliographic, chemical, 
# crystal, experimental, refinement or atomic coordinate data resulting 
# from the CCDC's data processing and validation procedures.
#
#######################################################################

data_DOVCIB
_chemical_formula_moiety         'C24 H19 N3 O6'
_chemical_name_systematic        
2,4-bis(2-(4-methylphenyl)vinyl)-1,3,5-trinitrobenzene
_symmetry_cell_setting           triclinic
_symmetry_space_group_name_H-M   'P -1'
_symmetry_Int_Tables_number      2
_space_group_name_Hall           '-P 1'
loop_
_symmetry_equiv_pos_site_id
_symmetry_equiv_pos_as_xyz
1 x,y,z
2 -x,-y,-z
_cell_length_a                   9.3280(10)
_cell_length_b                   11.1953(12)
_cell_length_c                   12.3666(14)
_cell_angle_alpha                116.1080(10)
_cell_angle_beta                 95.146(2)
_cell_angle_gamma                105.5230(10)
_cell_volume                     1084.77
_exptl_crystal_colour            orange
_exptl_crystal_description       block
_chemical_melting_point          '158.4 deg.C'
_cell_formula_units_Z            2
_exptl_crystal_recrystallization_method acetone
loop_
_atom_site_label
_atom_site_type_symbol
_atom_site_fract_x
_atom_site_fract_y
_atom_site_fract_z
O1 O 0.67829(15) 0.55366(16) 0.71962(12)
O2 O 0.70939(16) 0.44715(16) 0.82507(14)
O3 O 0.39955(16) 0.82163(16) 1.11533(13)
O4 O 0.55559(17) 0.8814(2) 1.28236(13)
O5 O 1.07756(15) 1.06402(15) 1.28717(13)
O6 O 1.15101(14) 1.01590(14) 1.11762(13)
N1 N 0.70495(16) 0.55050(19) 0.81598(15)
N2 N 0.52299(18) 0.83814(16) 1.17236(15)
N3 N 1.05693(17) 0.99536(16) 1.17513(15)
C1 C 1.2926(2) 0.7966(2) 0.82416(17)
H1 H 1.3134 0.8377 0.9102
C2 C 1.4120(2) 0.7995(2) 0.76665(18)
H2 H 1.5122 0.8442 0.8147
C3 C 1.3866(2) 0.7375(2) 0.63925(19)
C4 C 1.5181(2) 0.7397(3) 0.5760(2)
H3 H 1.6078 0.8183 0.6324
H4 H 1.4913 0.7491 0.5041
H5 H 1.5388 0.6530 0.5514
C5 C 1.2368(2) 0.6758(2) 0.57130(18)
H6 H 1.2165 0.6338 0.4853
C6 C 1.1162(2) 0.6751(2) 0.62839(17)
H7 H 1.0164 0.6348 0.5802
C7 C 1.14117(19) 0.73317(18) 0.75578(16)
C8 C 1.01036(19) 0.73271(17) 0.81266(16)
H8 H 0.9177 0.7152 0.7635
C9 C 1.01014(19) 0.75459(17) 0.92662(16)
H9 H 1.0971 0.7579 0.9725
C10 C 0.88246(18) 0.77424(17) 0.98676(15)
C11 C 0.73165(18) 0.68073(17) 0.93382(14)
C12 C 0.60528(18) 0.69212(17) 0.98634(15)
C13 C 0.64223(18) 0.80885(18) 1.10489(15)
C14 C 0.78839(18) 0.90294(18) 1.16586(15)
H10 H 0.8083 0.9768 1.2461
C15 C 0.90443(18) 0.88593(17) 1.10627(15)
C16 C 0.44984(19) 0.58705(18) 0.93022(16)
H11 H 0.3943 0.5743 0.9855
C17 C 0.3788(2) 0.5086(2) 0.81219(18)
H12 H 0.4335 0.5190 0.7557
C18 C 0.22191(19) 0.40623(19) 0.76059(16)
C19 C 0.1775(2) 0.3072(3) 0.63665(18)
H13 H 0.2476 0.3067 0.5877
C20 C 0.0322(2) 0.2094(3) 0.58375(19)
H14 H 0.0062 0.1433 0.4999
C21 C -0.0761(2) 0.2067(2) 0.65210(18)
C22 C -0.2369(2) 0.1015(3) 0.5922(2)
H15 H -0.2755 0.0735 0.6500
H16 H -0.2360 0.0198 0.5199
H17 H -0.3014 0.1442 0.5687
C23 C -0.0327(2) 0.3054(2) 0.77609(18)
H18 H -0.1035 0.3061 0.8245
C24 C 0.1138(2) 0.40329(19) 0.82999(17)
H19 H 0.1403 0.4682 0.9142
loop_
_geom_bond_atom_site_label_1
_geom_bond_atom_site_label_2
_geom_bond_site_symmetry_1
_geom_bond_site_symmetry_2
O1 N1 1_555 1_555
O2 N1 1_555 1_555
O3 N2 1_555 1_555
O4 N2 1_555 1_555
O5 N3 1_555 1_555
O6 N3 1_555 1_555
N1 C11 1_555 1_555
N2 C13 1_555 1_555
N3 C15 1_555 1_555
C1 H1 1_555 1_555
C2 C1 1_555 1_555
H2 C2 1_555 1_555
C3 C2 1_555 1_555
C4 C3 1_555 1_555
H3 C4 1_555 1_555
H4 C4 1_555 1_555
H5 C4 1_555 1_555
C5 C3 1_555 1_555
H6 C5 1_555 1_555
C6 C5 1_555 1_555
H7 C6 1_555 1_555
C7 C1 1_555 1_555
C8 C7 1_555 1_555
H8 C8 1_555 1_555
C9 C8 1_555 1_555
H9 C9 1_555 1_555
C10 C9 1_555 1_555
C11 C10 1_555 1_555
C12 C11 1_555 1_555
C13 C12 1_555 1_555
C14 C13 1_555 1_555
H10 C14 1_555 1_555
C15 C10 1_555 1_555
C16 C12 1_555 1_555
H11 C16 1_555 1_555
C17 C16 1_555 1_555
H12 C17 1_555 1_555
C18 C17 1_555 1_555
C19 C18 1_555 1_555
H13 C19 1_555 1_555
C20 C19 1_555 1_555
H14 C20 1_555 1_555
C21 C20 1_555 1_555
C22 C21 1_555 1_555
H15 C22 1_555 1_555
H16 C22 1_555 1_555
H17 C22 1_555 1_555
C23 C21 1_555 1_555
H18 C23 1_555 1_555
C24 C18 1_555 1_555
H19 C24 1_555 1_555
C6 C7 1_555 1_555
C14 C15 1_555 1_555
C23 C24 1_555 1_555

#END
