
#######################################################################
#
#                 Cambridge Crystallographic Data Centre
#                                CCDC 
#
#######################################################################
#
# If this CIF has been generated from an entry in the Cambridge 
# Structural Database, then it will include bibliographic, chemical, 
# crystal, experimental, refinement or atomic coordinate data resulting 
# from the CCDC's data processing and validation procedures.
#
#######################################################################

data_DOVFEA
_chemical_name_common            
7-Methyl-5-p-tolylbenzo[e][1,4]thiazepin-2(1H,3H,5H)-one
_chemical_formula_moiety         'C17 H17 N1 O1 S1'
_chemical_name_systematic        
7-Methyl-5-(4-methylphenyl)-1,5-dihydro-4,1-benzothiazepin-2(3H)-one
_symmetry_cell_setting           orthorhombic
_symmetry_space_group_name_H-M   'P c c n'
_symmetry_Int_Tables_number      56
_space_group_name_Hall           '-P 2ab 2ac'
loop_
_symmetry_equiv_pos_site_id
_symmetry_equiv_pos_as_xyz
1 x,y,z
2 1/2-x,1/2-y,z
3 -x,1/2+y,1/2-z
4 1/2+x,-y,1/2-z
5 -x,-y,-z
6 1/2+x,1/2+y,-z
7 x,1/2-y,1/2+z
8 1/2-x,y,1/2+z
_cell_length_a                   14.4220(12)
_cell_length_b                   25.714(3)
_cell_length_c                   7.9543(10)
_cell_angle_alpha                90
_cell_angle_beta                 90
_cell_angle_gamma                90
_cell_volume                     2949.83
_chemical_melting_point          'above 300 deg.C'
_cell_formula_units_Z            8
_exptl_crystal_recrystallization_method acetone/ethanol
loop_
_atom_site_label
_atom_site_type_symbol
_atom_site_fract_x
_atom_site_fract_y
_atom_site_fract_z
N1 N 0.3560(2) 0.70806(12) 1.0905(4)
H1 H 0.3411 0.7391 1.0605
O1 O 0.2051(2) 0.68471(11) 1.0847(5)
S1 S 0.36281(7) 0.58078(4) 0.99417(14)
C1 C 0.2870(3) 0.67322(16) 1.1091(6)
C2 C 0.3162(3) 0.61952(14) 1.1642(5)
H2 H 0.2630 0.6017 1.2118
H3 H 0.3627 0.6226 1.2518
C3 C 0.4419(3) 0.62762(14) 0.8946(5)
H4 H 0.4034 0.6526 0.8333
C4 C 0.4966(2) 0.65827(13) 1.0244(5)
C5 C 0.4519(3) 0.69728(14) 1.1167(5)
C6 C 0.5006(3) 0.72691(15) 1.2299(5)
H5 H 0.4705 0.7532 1.2891
C7 C 0.5940(3) 0.71794(17) 1.2566(6)
H6 H 0.6260 0.7380 1.3346
C8 C 0.6407(3) 0.67935(17) 1.1686(5)
C9 C 0.5900(3) 0.65048(15) 1.0539(5)
H7 H 0.6204 0.6246 0.9938
C10 C 0.7421(3) 0.66800(19) 1.1970(6)
H8 H 0.7786 0.6873 1.1177
H9 H 0.7533 0.6315 1.1822
H10 H 0.7590 0.6780 1.3092
C11 C 0.4980(3) 0.59830(14) 0.7652(5)
C12 C 0.5003(3) 0.61601(15) 0.6015(5)
H11 H 0.4673 0.6458 0.5730
C13 C 0.5509(3) 0.59010(16) 0.4782(5)
H12 H 0.5510 0.6027 0.3686
C14 C 0.6011(3) 0.54568(16) 0.5174(6)
C15 C 0.5975(3) 0.52758(16) 0.6800(6)
H13 H 0.6299 0.4976 0.7083
C16 C 0.5469(3) 0.55294(15) 0.8016(5)
H14 H 0.5453 0.5396 0.9102
C17 C 0.6570(3) 0.51768(19) 0.3853(6)
H15 H 0.7219 0.5227 0.4067
H16 H 0.6418 0.5313 0.2763
H17 H 0.6429 0.4812 0.3887
loop_
_geom_bond_atom_site_label_1
_geom_bond_atom_site_label_2
_geom_bond_site_symmetry_1
_geom_bond_site_symmetry_2
N1 H1 1_555 1_555
O1 C1 1_555 1_555
S1 C2 1_555 1_555
C1 N1 1_555 1_555
C2 C1 1_555 1_555
H2 C2 1_555 1_555
H3 C2 1_555 1_555
C3 S1 1_555 1_555
H4 C3 1_555 1_555
C4 C3 1_555 1_555
C5 N1 1_555 1_555
C6 C5 1_555 1_555
H5 C6 1_555 1_555
C7 C6 1_555 1_555
H6 C7 1_555 1_555
C8 C7 1_555 1_555
C9 C4 1_555 1_555
H7 C9 1_555 1_555
C10 C8 1_555 1_555
H8 C10 1_555 1_555
H9 C10 1_555 1_555
H10 C10 1_555 1_555
C11 C3 1_555 1_555
C12 C11 1_555 1_555
H11 C12 1_555 1_555
C13 C12 1_555 1_555
H12 C13 1_555 1_555
C14 C13 1_555 1_555
C15 C14 1_555 1_555
H13 C15 1_555 1_555
C16 C11 1_555 1_555
H14 C16 1_555 1_555
C17 C14 1_555 1_555
H15 C17 1_555 1_555
H16 C17 1_555 1_555
H17 C17 1_555 1_555
C4 C5 1_555 1_555
C8 C9 1_555 1_555
C15 C16 1_555 1_555

#END
