
#######################################################################
#
#                 Cambridge Crystallographic Data Centre
#                                CCDC 
#
#######################################################################
#
# If this CIF has been generated from an entry in the Cambridge 
# Structural Database, then it will include bibliographic, chemical, 
# crystal, experimental, refinement or atomic coordinate data resulting 
# from the CCDC's data processing and validation procedures.
#
#######################################################################

data_DOVJIH
_chemical_compound_source        'Dictyota dichotoma'
_chemical_formula_moiety         'C20 H32 O3'
_chemical_name_systematic        
(1S*,2E,4R*,7Z,11S*,12S*)-4,12-Dihydroxydolabella-2,7-dien-9-one
_symmetry_cell_setting           rhombohedral
_symmetry_space_group_name_H-M   'R 3'
_symmetry_Int_Tables_number      146
_space_group_name_Hall           'P 3*'
loop_
_symmetry_equiv_pos_site_id
_symmetry_equiv_pos_as_xyz
1 x,y,z
2 z,x,y
3 y,z,x
_cell_length_a                   11.528(1)
_cell_length_b                   11.528(1)
_cell_length_c                   11.528(1)
_cell_angle_alpha                80.54(1)
_cell_angle_beta                 80.54(1)
_cell_angle_gamma                80.54(1)
_cell_volume                     1475.7
_chemical_melting_point          153-155deg.C
_cell_formula_units_Z            3
loop_
_atom_site_label
_atom_site_type_symbol
_atom_site_fract_x
_atom_site_fract_y
_atom_site_fract_z
C1 C 0.2899(10) -0.2784(10) 0.6238(10)
C2 C 0.2954(10) -0.1740(11) 0.5259(10)
C3 C 0.3702(9) -0.0977(10) 0.5103(10)
C4 C 0.3767(10) 0.0112(10) 0.4127(11)
C5 C 0.3483(11) 0.1253(10) 0.4671(11)
C6 C 0.2261(11) 0.1407(11) 0.5465(12)
C7 C 0.2301(11) 0.1143(12) 0.6797(12)
C8 C 0.1890(11) 0.0340(11) 0.7632(12)
C9 C 0.1177(10) -0.0506(12) 0.7294(11)
C10 C 0.1430(11) -0.1785(11) 0.7915(10)
C11 C 0.1648(11) -0.2671(10) 0.7019(10)
C12 C 0.1398(12) -0.3959(11) 0.7576(11)
C13 C 0.2267(13) -0.4754(12) 0.6762(12)
C14 C 0.2808(13) -0.3951(11) 0.5699(10)
C15 C 0.3908(10) -0.2964(12) 0.6961(12)
C16 C 0.2962(12) 0.0125(13) 0.3195(12)
C17 C 0.2068(13) 0.0269(14) 0.8910(13)
C18 C -0.0045(14) -0.3979(14) 0.7699(13)
C19 C -0.0202(16) -0.5317(16) 0.8344(15)
C20 C -0.0493(17) -0.3785(16) 0.6563(16)
O1 O 0.4980(7) 0.0063(6) 0.3588(7)
O2 O 0.0417(7) -0.0224(7) 0.6663(8)
O3 O 0.1708(7) -0.4235(7) 0.8745(7)
H1 H 0.230(10) -0.160(9) 0.462(10)
H2 H 0.430(9) -0.104(9) 0.564(9)
H3 H 0.355(8) 0.202(8) 0.390(8)
H4 H 0.404(10) 0.120(10) 0.512(10)
H5 H 0.157(10) 0.100(10) 0.514(10)
H6 H 0.191(11) 0.236(11) 0.526(11)
H7 H 0.285(10) 0.169(11) 0.709(11)
H8 H 0.077(9) -0.186(9) 0.849(9)
H9 H 0.223(9) -0.183(9) 0.838(9)
H10 H 0.111(9) -0.230(9) 0.645(9)
H11 H 0.160(14) -0.531(15) 0.643(14)
H12 H 0.299(11) -0.537(11) 0.731(11)
H13 H 0.218(11) -0.363(11) 0.496(11)
H14 H 0.382(10) -0.434(10) 0.528(11)
H15 H -0.071(13) -0.327(13) 0.799(13)
H16 H 0.388(10) -0.369(11) 0.767(11)
H17 H 0.476(10) -0.314(10) 0.644(10)
H18 H 0.396(11) -0.226(11) 0.747(10)
H19 H 0.195(9) 0.017(9) 0.361(9)
H20 H 0.314(9) 0.091(9) 0.248(9)
H21 H 0.315(13) -0.062(14) 0.274(13)
H22 H 0.252(10) -0.064(11) 0.921(11)
H23 H 0.234(12) 0.090(13) 0.891(13)
H24 H 0.125(11) 0.028(12) 0.938(11)
H25 H 0.010(11) -0.551(11) 0.900(11)
H26 H -0.100(13) -0.527(13) 0.856(15)
H27 H 0.035(10) -0.590(10) 0.777(10)
H28 H 0.012(15) -0.446(15) 0.641(16)
H29 H -0.137(13) -0.392(14) 0.685(14)
H30 H -0.053(16) -0.287(14) 0.627(16)
H31 H 0.536(10) 0.039(10) 0.406(10)
H32 H 0.233(12) -0.371(12) 0.911(12)
loop_
_geom_bond_atom_site_label_1
_geom_bond_atom_site_label_2
_geom_bond_site_symmetry_1
_geom_bond_site_symmetry_2
C1 C2 1_555 1_555
C2 C3 1_555 1_555
C3 C4 1_555 1_555
C4 C5 1_555 1_555
C5 C6 1_555 1_555
C6 C7 1_555 1_555
C7 C8 1_555 1_555
C8 C9 1_555 1_555
C9 C10 1_555 1_555
C10 C11 1_555 1_555
C11 C1 1_555 1_555
C12 C11 1_555 1_555
C13 C12 1_555 1_555
C14 C1 1_555 1_555
C15 C1 1_555 1_555
C16 C4 1_555 1_555
C17 C8 1_555 1_555
C18 C12 1_555 1_555
C19 C18 1_555 1_555
C20 C18 1_555 1_555
O1 C4 1_555 1_555
O2 C9 1_555 1_555
O3 C12 1_555 1_555
H1 C2 1_555 1_555
H2 C3 1_555 1_555
H3 C5 1_555 1_555
H4 C5 1_555 1_555
H5 C6 1_555 1_555
H6 C6 1_555 1_555
H7 C7 1_555 1_555
H8 C10 1_555 1_555
H9 C10 1_555 1_555
H10 C11 1_555 1_555
H11 C13 1_555 1_555
H12 C13 1_555 1_555
H13 C14 1_555 1_555
H14 C14 1_555 1_555
H15 C18 1_555 1_555
H16 C15 1_555 1_555
H17 C15 1_555 1_555
H18 C15 1_555 1_555
H19 C16 1_555 1_555
H20 C16 1_555 1_555
H21 C16 1_555 1_555
H22 C17 1_555 1_555
H23 C17 1_555 1_555
H24 C17 1_555 1_555
H25 C19 1_555 1_555
H26 C19 1_555 1_555
H27 C19 1_555 1_555
H28 C20 1_555 1_555
H29 C20 1_555 1_555
H30 C20 1_555 1_555
H31 O1 1_555 1_555
H32 O3 1_555 1_555
C13 C14 1_555 1_555

#END
