
#######################################################################
#
#                 Cambridge Crystallographic Data Centre
#                                CCDC 
#
#######################################################################
#
# If this CIF has been generated from an entry in the Cambridge 
# Structural Database, then it will include bibliographic, chemical, 
# crystal, experimental, refinement or atomic coordinate data resulting 
# from the CCDC's data processing and validation procedures.
#
#######################################################################

data_DOVJON
_chemical_compound_source        'Dictyota dichotoma'
_chemical_formula_moiety         'C22 H32 O3'
_chemical_name_systematic        
(1R*,3E,7E,9S*,11S*)-9-Acetoxydolabella-3,7,12-trien-16-al
_symmetry_cell_setting           monoclinic
_symmetry_space_group_name_H-M   'P 21'
_symmetry_Int_Tables_number      4
_space_group_name_Hall           'P 2yb'
loop_
_symmetry_equiv_pos_site_id
_symmetry_equiv_pos_as_xyz
1 x,y,z
2 -x,1/2+y,-z
_cell_length_a                   7.637(2)
_cell_length_b                   9.761(2)
_cell_length_c                   13.935(3)
_cell_angle_alpha                90
_cell_angle_beta                 82.21(4)
_cell_angle_gamma                90
_cell_volume                     1029.19
_chemical_melting_point          163-165deg.C
_cell_formula_units_Z            2
loop_
_atom_site_label
_atom_site_type_symbol
_atom_site_fract_x
_atom_site_fract_y
_atom_site_fract_z
C1 C 0.4892(5) 0.3446(5) 0.7795(3)
C2 C 0.3764(6) 0.2192(6) 0.7713(3)
C3 C 0.4185(6) 0.1379(6) 0.6786(3)
C4 C 0.4214(6) 0.0026(5) 0.6670(3)
C5 C 0.3811(6) -0.1053(6) 0.7437(3)
C6 C 0.5420(6) -0.1555(6) 0.7884(3)
C7 C 0.6081(6) -0.0423(6) 0.8457(3)
C8 C 0.7607(6) 0.0303(5) 0.8253(3)
C9 C 0.7812(6) 0.1561(6) 0.8842(3)
C10 C 0.8145(6) 0.2870(6) 0.8274(3)
C11 C 0.6956(5) 0.3188(5) 0.7480(3)
C12 C 0.7587(6) 0.4453(5) 0.6884(3)
C13 C 0.6217(7) 0.5213(5) 0.6703(3)
C14 C 0.4461(7) 0.4608(6) 0.7092(4)
C15 C 0.4562(7) 0.4007(7) 0.8823(3)
C16 C 0.4807(8) -0.0464(7) 0.5683(4)
C17 C 0.9002(7) 0.0004(7) 0.7422(4)
C18 C 0.9493(6) 0.4672(6) 0.6525(3)
C19 C 0.9921(10) 0.6131(9) 0.6110(5)
C20 C 1.0112(10) 0.3599(9) 0.5770(5)
C21 C 0.9390(7) 0.1879(7) 1.0178(4)
C22 C 1.1101(10) 0.1631(10) 1.0587(5)
O1 O 0.4935(7) -0.1655(5) 0.5444(3)
O2 O 0.9349(4) 0.1326 0.9346(2)
O3 O 0.8162(8) 0.2626(9) 1.0566(3)
H1 H 0.374(8) 0.165(8) 0.836(4)
H2 H 0.231(7) 0.252(6) 0.774(3)
H3 H 0.419(7) 0.199(7) 0.622(4)
H4 H 0.285(7) -0.091(7) 0.783(4)
H5 H 0.612(8) -0.172(7) 0.750(4)
H6 H 0.525(8) -0.236(7) 0.830(4)
H7 H 0.545(7) -0.006(7) 0.911(4)
H8 H 0.653(7) 0.154(7) 0.932(3)
H9 H 0.951(8) 0.278(8) 0.785(4)
H10 H 0.843(7) 0.366(7) 0.871(4)
H11 H 0.713(7) 0.233(7) 0.692(4)
H12 H 0.633(8) 0.598(7) 0.630(4)
H13 H 0.384(11) 0.528(9) 0.740(5)
H14 H 0.388(9) 0.425(8) 0.650(4)
H15 H 0.497(7) 0.340(7) 0.926(4)
H16 H 0.366(8) 0.400(8) 0.905(4)
H17 H 0.512(7) 0.478(8) 0.900(4)
H18 H 0.511(9) 0.028(8) 0.516(4)
H19 H 1.016(9) -0.010(10) 0.763(5)
H20 H 0.867(10) -0.077(11) 0.710(5)
H21 H 0.907(9) 0.074(9) 0.693(5)
H22 H 1.011(7) 0.464(7) 0.717(4)
H23 H 0.971(13) 0.668(14) 0.663(6)
H24 H 1.126(10) 0.616(9) 0.592(5)
H25 H 0.942(9) 0.637(11) 0.547(4)
H26 H 0.945(10) 0.392(12) 0.521(6)
H27 H 1.111(14) 0.369(13) 0.557(7)
H28 H 0.998(11) 0.272(12) 0.602(5)
H29 H 1.040(8) 0.130(9) 1.081(4)
H30 H 1.103(8) 0.243(8) 1.103(4)
H31 H 1.224(8) 0.132(8) 1.003(4)
loop_
_geom_bond_atom_site_label_1
_geom_bond_atom_site_label_2
_geom_bond_site_symmetry_1
_geom_bond_site_symmetry_2
C1 C2 1_555 1_555
C2 C3 1_555 1_555
C3 C4 1_555 1_555
C4 C5 1_555 1_555
C5 C6 1_555 1_555
C6 C7 1_555 1_555
C7 C8 1_555 1_555
C8 C9 1_555 1_555
C9 C10 1_555 1_555
C10 C11 1_555 1_555
C11 C1 1_555 1_555
C12 C11 1_555 1_555
C13 C12 1_555 1_555
C14 C1 1_555 1_555
C15 C1 1_555 1_555
C16 C4 1_555 1_555
C17 C8 1_555 1_555
C18 C12 1_555 1_555
C19 C18 1_555 1_555
C20 C18 1_555 1_555
C21 C22 1_555 1_555
C22 H29 1_555 1_555
O1 C16 1_555 1_555
O2 C9 1_555 1_555
O3 C21 1_555 1_555
H1 C2 1_555 1_555
H2 C2 1_555 1_555
H3 C3 1_555 1_555
H4 C5 1_555 1_555
H5 C6 1_555 1_555
H6 C6 1_555 1_555
H7 C7 1_555 1_555
H8 C9 1_555 1_555
H9 C10 1_555 1_555
H10 C10 1_555 1_555
H11 C11 1_555 1_555
H12 C13 1_555 1_555
H13 C14 1_555 1_555
H14 C14 1_555 1_555
H15 C15 1_555 1_555
H16 C15 1_555 1_555
H17 C15 1_555 1_555
H18 C16 1_555 1_555
H19 C17 1_555 1_555
H20 C17 1_555 1_555
H21 C17 1_555 1_555
H22 C18 1_555 1_555
H23 C19 1_555 1_555
H24 C19 1_555 1_555
H25 C19 1_555 1_555
H26 C20 1_555 1_555
H27 C20 1_555 1_555
H28 C20 1_555 1_555
H30 C22 1_555 1_555
H31 C22 1_555 1_555
C13 C14 1_555 1_555
C21 O2 1_555 1_555

#END
