
#######################################################################
#
#                 Cambridge Crystallographic Data Centre
#                                CCDC 
#
#######################################################################
#
# If this CIF has been generated from an entry in the Cambridge 
# Structural Database, then it will include bibliographic, chemical, 
# crystal, experimental, refinement or atomic coordinate data resulting 
# from the CCDC's data processing and validation procedures.
#
#######################################################################

data_DOVLAC
_chemical_name_common            selenosulflower
_chemical_formula_moiety         'C16 S4 Se4'
_chemical_name_systematic        
1,12:3,4:6,7:9,10-tetraepiselenocycloocta[1,2-c:3,4-c':5,6-c'':7,8-c''']tetrathiophene
_symmetry_cell_setting           monoclinic
_symmetry_space_group_name_H-M   'P 21/n'
_symmetry_Int_Tables_number      14
_space_group_name_Hall           '-P 2yn'
loop_
_symmetry_equiv_pos_site_id
_symmetry_equiv_pos_as_xyz
1 x,y,z
2 1/2-x,1/2+y,1/2-z
3 -x,-y,-z
4 1/2+x,1/2-y,1/2+z
_cell_length_a                   4.0290(8)
_cell_length_b                   16.680(3)
_cell_length_c                   11.270(2)
_cell_angle_alpha                90
_cell_angle_beta                 94.30(3)
_cell_angle_gamma                90
_cell_volume                     755.254
_exptl_crystal_colour            colorless
_exptl_crystal_description       needle
_cell_formula_units_Z            2
loop_
_atom_site_label
_atom_site_type_symbol
_atom_site_fract_x
_atom_site_fract_y
_atom_site_fract_z
Se1 Se 0.1637(3) 0.62491(7) 0.31076(12)
Se2 Se 0.8452(4) 0.30090(8) 0.22424(12)
S3 S 0.503407 0.446842 0.375236
S4 S 0.030435 0.727033 0.055397
C1 C 0.580(3) 0.4412(5) 0.1391(9)
C2 C 0.421(3) 0.5170(6) 0.1620(9)
C3 C 0.692(2) 0.4005(5) 0.0396(8)
C4 C 0.169(3) 0.6432(6) 0.1476(9)
C5 C 0.370(3) 0.5281(6) 0.2783(9)
C6 C 0.311(3) 0.5827(5) 0.0842(9)
C7 C 0.643(3) 0.3998(6) 0.2449(9)
C8 C 0.824(3) 0.3267(6) 0.0666(8)
Se1B Se 0.8363(3) 0.37509(7) -0.31076(12)
Se2B Se 0.1548(4) 0.69910(8) -0.22424(12)
S3B S 0.496593 0.553158 -0.375236
S4B S 0.969565 0.272967 -0.055397
C1B C 0.420(3) 0.5588(5) -0.1391(9)
C2B C 0.579(3) 0.4830(6) -0.1620(9)
C3B C 0.308(2) 0.5995(5) -0.0396(8)
C4B C 0.831(3) 0.3568(6) -0.1476(9)
C5B C 0.630(3) 0.4719(6) -0.2783(9)
C6B C 0.689(3) 0.4173(5) -0.0842(9)
C7B C 0.357(3) 0.6002(6) -0.2449(9)
C8B C 0.176(3) 0.6733(6) -0.0666(8)
S1? S 0.163679 0.624912 0.310765
S2? S 0.845195 0.300902 0.224236
Se3? Se 0.5034(5) 0.44684(11) 0.37524(16)
Se4? Se 0.0304(5) 0.72703(12) 0.05540(17)
loop_
_geom_bond_atom_site_label_1
_geom_bond_atom_site_label_2
_geom_bond_site_symmetry_1
_geom_bond_site_symmetry_2
Se1 C4 1_555 1_555
Se2 C7 1_555 1_555
S3 C5 1_555 1_555
S4 C4 1_555 1_555
C1 C2 1_555 1_555
C2 C5 1_555 1_555
C3 C1 1_555 1_555
C4 C6 1_555 1_555
C5 Se1 1_555 1_555
C6 C2 1_555 1_555
C7 S3 1_555 1_555
C8 Se2 1_555 1_555
Se1B C4B 1_555 1_555
Se2B C7B 1_555 1_555
S3B C5B 1_555 1_555
S4B C8 1_555 1_555
C1B C2B 1_555 1_555
C2B C5B 1_555 1_555
C3B C6 1_555 1_555
C4B S4B 1_555 1_555
C5B Se1B 1_555 1_555
C6B C3 1_555 1_555
C7B S3B 1_555 1_555
C8B S4 1_555 1_555
C1 C7 1_555 1_555
C3 C8 1_555 1_555
Se2B C8B 1_555 1_555
C1B C3B 1_555 1_555
C1B C7B 1_555 1_555
C2B C6B 1_555 1_555
C3B C8B 1_555 1_555
C4B C6B 1_555 1_555

#END
