
#######################################################################
#
#                 Cambridge Crystallographic Data Centre
#                                CCDC 
#
#######################################################################
#
# If this CIF has been generated from an entry in the Cambridge 
# Structural Database, then it will include bibliographic, chemical, 
# crystal, experimental, refinement or atomic coordinate data resulting 
# from the CCDC's data processing and validation procedures.
#
#######################################################################

data_DOVMIL
_chemical_formula_moiety         'C30 H28 Cl2 N2 O7,H2 O1'
_chemical_name_systematic        
"2',7'-Dichloro-3',6'-dihydroxy-4',5'-bis(4-morpholinylmethyl)-3H-spiro[2-benzofuran-1,9'-xanthen]-3-one monohydrate"
_symmetry_cell_setting           monoclinic
_symmetry_space_group_name_H-M   'C 2/m'
_symmetry_Int_Tables_number      12
_space_group_name_Hall           '-C 2y'
loop_
_symmetry_equiv_pos_site_id
_symmetry_equiv_pos_as_xyz
1 x,y,z
2 -x,y,-z
3 1/2+x,1/2+y,z
4 1/2-x,1/2+y,-z
5 -x,-y,-z
6 x,-y,z
7 1/2-x,1/2-y,-z
8 1/2+x,1/2-y,z
_cell_length_a                   21.357(2)
_cell_length_b                   16.3275(15)
_cell_length_c                   8.9215(8)
_cell_angle_alpha                90
_cell_angle_beta                 101.698(2)
_cell_angle_gamma                90
_cell_volume                     3046.37
_exptl_crystal_colour            'pale yellow'
_exptl_crystal_description       rod
_chemical_melting_point          '300 deg.C (dec.)'
_cell_formula_units_Z            4
loop_
_atom_site_label
_atom_site_type_symbol
_atom_site_fract_x
_atom_site_fract_y
_atom_site_fract_z
Cl1 Cl 0.11231(5) 0.18246(6) 0.75566(14)
N1 N -0.12090(14) 0.29168(18) 0.7843(3)
O1 O 0.13103(19) 0.5000 0.5532(4)
O2 O 0.2158(3) 0.5000 0.4434(6)
O3 O -0.01355(16) 0.5000 0.7624(4)
O4 O -0.01396(13) 0.21156(15) 0.8131(3)
H1 H -0.0489 0.2217 0.8335
O5 O -0.23280(13) 0.19637(17) 0.6773(3)
C1 C 0.1962(3) 0.5000 0.5594(9)
C2 C 0.2286(3) 0.5000 0.7182(9)
C3 C 0.2935(3) 0.5000 0.7837(13)
H2 H 0.3245 0.5000 0.7240
C4 C 0.3100(4) 0.5000 0.9448(16)
H3 H 0.3531 0.5000 0.9919
C5 C 0.2658(4) 0.5000 1.0334(10)
H4 H 0.2787 0.5000 1.1394
C6 C 0.2016(3) 0.5000 0.9680(8)
H5 H 0.1712 0.5000 1.0292
C7 C 0.1829(3) 0.5000 0.8111(7)
C8 C 0.1174(2) 0.5000 0.7106(6)
C9 C 0.08055(18) 0.4240(2) 0.7295(4)
C10 C 0.10792(18) 0.3468(2) 0.7276(4)
H6 H 0.1490 0.3422 0.7086
C11 C 0.07562(19) 0.2776(2) 0.7533(4)
C12 C 0.01365(18) 0.2811(2) 0.7824(4)
C13 C -0.01704(17) 0.3574(2) 0.7776(4)
C14 C 0.01790(18) 0.4272(2) 0.7534(4)
C15 C -0.08272(17) 0.3678(2) 0.8091(4)
H7 H -0.0793 0.3855 0.9143
H8 H -0.1048 0.4104 0.7431
C16 C -0.14366(19) 0.2739(2) 0.6207(4)
H9 H -0.1076 0.2704 0.5701
H10 H -0.1715 0.3175 0.5731
C17 C -0.1795(2) 0.1940(3) 0.6041(5)
H11 H -0.1943 0.1819 0.4962
H12 H -0.1508 0.1503 0.6485
C18 C -0.2124(2) 0.2157(3) 0.8335(5)
H13 H -0.1848 0.1724 0.8837
H14 H -0.2493 0.2189 0.8812
C19 C -0.1767(2) 0.2959(3) 0.8557(5)
H15 H -0.2047 0.3399 0.8099
H16 H -0.1631 0.3072 0.9641
Cl1E Cl 0.11231(5) 0.81754(6) 0.75566(14)
N1E N -0.12090(14) 0.70832(18) 0.7843(3)
O4E O -0.01396(13) 0.78844(15) 0.8131(3)
H1E H -0.0489 0.7783 0.8335
O5E O -0.23280(13) 0.80363(17) 0.6773(3)
C9E C 0.08055(18) 0.5760(2) 0.7295(4)
C10E C 0.10792(18) 0.6532(2) 0.7276(4)
H6E H 0.1490 0.6578 0.7086
C11E C 0.07562(19) 0.7224(2) 0.7533(4)
C12E C 0.01365(18) 0.7189(2) 0.7824(4)
C13E C -0.01704(17) 0.6426(2) 0.7776(4)
C14E C 0.01790(18) 0.5728(2) 0.7534(4)
C15E C -0.08272(17) 0.6322(2) 0.8091(4)
H7E H -0.0793 0.6145 0.9143
H8E H -0.1048 0.5896 0.7431
C16E C -0.14366(19) 0.7261(2) 0.6207(4)
H9E H -0.1076 0.7296 0.5701
H10E H -0.1715 0.6825 0.5731
C17E C -0.1795(2) 0.8060(3) 0.6041(5)
H11E H -0.1943 0.8181 0.4962
H12E H -0.1508 0.8497 0.6485
C18E C -0.2124(2) 0.7843(3) 0.8335(5)
H13E H -0.1848 0.8276 0.8837
H14E H -0.2493 0.7811 0.8812
C19E C -0.1767(2) 0.7041(3) 0.8557(5)
H15E H -0.2047 0.6601 0.8099
H16E H -0.1631 0.6928 0.9641
O6 O 0.4482(14) 0.5000 0.579(3)
H17 H 0.4199(13) 0.5000 0.495(3)
H18 H 0.456(3) 0.5000 0.677(3)
loop_
_geom_bond_atom_site_label_1
_geom_bond_atom_site_label_2
_geom_bond_site_symmetry_1
_geom_bond_site_symmetry_2
Cl1 C11 1_555 1_555
N1 C15 1_555 1_555
O1 C1 1_555 1_555
O2 C1 1_555 1_555
O3 C14 1_555 1_555
O4 H1 1_555 1_555
O5 C17 1_555 1_555
C1 C2 1_555 1_555
C2 C3 1_555 1_555
C3 H2 1_555 1_555
C4 C3 1_555 1_555
H3 C4 1_555 1_555
C5 C4 1_555 1_555
H4 C5 1_555 1_555
C6 C5 1_555 1_555
H5 C6 1_555 1_555
C7 C2 1_555 1_555
C8 O1 1_555 1_555
C9 C8 1_555 1_555
C10 C9 1_555 1_555
H6 C10 1_555 1_555
C11 C10 1_555 1_555
C12 O4 1_555 1_555
C13 C12 1_555 1_555
C14 C9 1_555 1_555
C15 C13 1_555 1_555
H7 C15 1_555 1_555
H8 C15 1_555 1_555
C16 N1 1_555 1_555
H9 C16 1_555 1_555
H10 C16 1_555 1_555
C17 C16 1_555 1_555
H11 C17 1_555 1_555
H12 C17 1_555 1_555
C18 O5 1_555 1_555
H13 C18 1_555 1_555
H14 C18 1_555 1_555
C19 N1 1_555 1_555
H15 C19 1_555 1_555
H16 C19 1_555 1_555
O6 H17 1_555 1_555
H18 O6 1_555 1_555
Cl1E C11E 1_555 1_555
N1E C15E 1_555 1_555
O4E H1E 1_555 1_555
O5E C17E 1_555 1_555
C9E C8 1_555 1_555
C10E C9E 1_555 1_555
H6E C10E 1_555 1_555
C11E C10E 1_555 1_555
C12E O4E 1_555 1_555
C13E C12E 1_555 1_555
C14E O3 1_555 1_555
C15E C13E 1_555 1_555
H7E C15E 1_555 1_555
H8E C15E 1_555 1_555
C16E N1E 1_555 1_555
H9E C16E 1_555 1_555
H10E C16E 1_555 1_555
C17E C16E 1_555 1_555
H11E C17E 1_555 1_555
H12E C17E 1_555 1_555
C18E O5E 1_555 1_555
H13E C18E 1_555 1_555
H14E C18E 1_555 1_555
C19E N1E 1_555 1_555
H15E C19E 1_555 1_555
H16E C19E 1_555 1_555
C6 C7 1_555 1_555
C7 C8 1_555 1_555
C11 C12 1_555 1_555
C13 C14 1_555 1_555
C18 C19 1_555 1_555
C9E C14E 1_555 1_555
C11E C12E 1_555 1_555
C13E C14E 1_555 1_555
C18E C19E 1_555 1_555

#END
