
#######################################################################
#
#                 Cambridge Crystallographic Data Centre
#                                CCDC 
#
#######################################################################
#
# If this CIF has been generated from an entry in the Cambridge 
# Structural Database, then it will include bibliographic, chemical, 
# crystal, experimental, refinement or atomic coordinate data resulting 
# from the CCDC's data processing and validation procedures.
#
#######################################################################

data_DOVNIM
_chemical_formula_moiety         'C6 H16 F4 N2 Si1'
_chemical_name_systematic        
tetrafluorido-(1,2-bis(dimethylamino)ethane)-silicon(iv)
_symmetry_cell_setting           monoclinic
_symmetry_space_group_name_H-M   'P 21'
_symmetry_Int_Tables_number      4
_space_group_name_Hall           'P 2yb'
loop_
_symmetry_equiv_pos_site_id
_symmetry_equiv_pos_as_xyz
1 x,y,z
2 -x,1/2+y,-z
_cell_length_a                   6.3146(15)
_cell_length_b                   10.648(2)
_cell_length_c                   7.6840(15)
_cell_angle_alpha                90
_cell_angle_beta                 112.180(10)
_cell_angle_gamma                90
_cell_volume                     478.424
_exptl_crystal_colour            colorless
_exptl_crystal_description       block
_cell_formula_units_Z            2
loop_
_atom_site_label
_atom_site_type_symbol
_atom_site_fract_x
_atom_site_fract_y
_atom_site_fract_z
Si1 Si 0.41114(7) 0.73431(4) 0.23284(6)
F1 F 0.5905(2) 0.62435(10) 0.35544(16)
F2 F 0.20136(18) 0.83044(10) 0.11530(15)
F3 F 0.51176(16) 0.73197(12) 0.06442(13)
F4 F 0.5762(2) 0.84833(10) 0.35530(17)
N1 N 0.2002(3) 0.58777(15) 0.1078(2)
N2 N 0.2650(2) 0.72508(16) 0.42916(17)
C1 C -0.0071(3) 0.62481(18) -0.0584(3)
H1 H -0.0916 0.5493 -0.1191
H2 H 0.0398 0.6711 -0.1481
H3 H -0.1054 0.6783 -0.0170
C2 C 0.3189(3) 0.48839(18) 0.0399(3)
H4 H 0.4588 0.4623 0.1435
H5 H 0.3582 0.5221 -0.0628
H6 H 0.2173 0.4159 -0.0054
C3 C 0.1278(3) 0.53096(18) 0.2541(2)
H7 H 0.2533 0.4793 0.3416
H8 H -0.0069 0.4761 0.1942
C4 C 0.0685(3) 0.6358(2) 0.3597(3)
H9 H -0.0703 0.6802 0.2758
H10 H 0.0371 0.6011 0.4671
C5 C 0.1758(4) 0.84869(19) 0.4622(3)
H11 H 0.0589 0.8788 0.3445
H12 H 0.3015 0.9095 0.5064
H13 H 0.1083 0.8391 0.5572
C6 C 0.4315(3) 0.6816(2) 0.6156(2)
H14 H 0.3635 0.6911 0.7103
H15 H 0.5712 0.7322 0.6517
H16 H 0.4689 0.5931 0.6070
loop_
_geom_bond_atom_site_label_1
_geom_bond_atom_site_label_2
_geom_bond_site_symmetry_1
_geom_bond_site_symmetry_2
Si1 F1 1_555 1_555
F2 Si1 1_555 1_555
F3 Si1 1_555 1_555
F4 Si1 1_555 1_555
N1 Si1 1_555 1_555
N2 Si1 1_555 1_555
C1 N1 1_555 1_555
H1 C1 1_555 1_555
H2 C1 1_555 1_555
H3 C1 1_555 1_555
C2 N1 1_555 1_555
H4 C2 1_555 1_555
H5 C2 1_555 1_555
H6 C2 1_555 1_555
C3 N1 1_555 1_555
H7 C3 1_555 1_555
H8 C3 1_555 1_555
C4 N2 1_555 1_555
H9 C4 1_555 1_555
H10 C4 1_555 1_555
C5 N2 1_555 1_555
H11 C5 1_555 1_555
H12 C5 1_555 1_555
H13 C5 1_555 1_555
C6 N2 1_555 1_555
H14 C6 1_555 1_555
H15 C6 1_555 1_555
H16 C6 1_555 1_555
C3 C4 1_555 1_555

#END
