
#######################################################################
#
#                 Cambridge Crystallographic Data Centre
#                                CCDC 
#
#######################################################################
#
# If this CIF has been generated from an entry in the Cambridge 
# Structural Database, then it will include bibliographic, chemical, 
# crystal, experimental, refinement or atomic coordinate data resulting 
# from the CCDC's data processing and validation procedures.
#
#######################################################################

data_DOVPAG
_chemical_formula_moiety         'C26 H25 N1 O5'
_chemical_name_systematic        
'(2S*,3R*,5R*)-dimethyl 5-hydroxy-1,2,3-triphenyl-2,5-pyrrolidinedicarboxylate'
_symmetry_cell_setting           triclinic
_symmetry_space_group_name_H-M   'P -1'
_symmetry_Int_Tables_number      2
_space_group_name_Hall           '-P 1'
loop_
_symmetry_equiv_pos_site_id
_symmetry_equiv_pos_as_xyz
1 x,y,z
2 -x,-y,-z
_cell_length_a                   9.0431(2)
_cell_length_b                   9.1987(2)
_cell_length_c                   14.3311(2)
_cell_angle_alpha                104.7420(10)
_cell_angle_beta                 98.0810(10)
_cell_angle_gamma                101.1600(10)
_cell_volume                     1108.22
_exptl_crystal_colour            colorless
_exptl_crystal_description       block
_cell_formula_units_Z            2
loop_
_atom_site_label
_atom_site_type_symbol
_atom_site_fract_x
_atom_site_fract_y
_atom_site_fract_z
O1 O -0.06397(12) 0.07091(13) 0.27324(8)
O2 O -0.11204(12) 0.13671(13) 0.13572(8)
O3 O 0.40702(15) 0.19031(17) 0.53443(8)
O4 O 0.18128(13) 0.04256(14) 0.44408(8)
O5 O 0.44786(12) 0.35621(13) 0.41252(8)
H1 H 0.4611 0.4295 0.4619
C1 C 0.3167(2) 0.36968(19) -0.00371(12)
H2 H 0.3543 0.3933 -0.0566
C2 C 0.40942(19) 0.33251(18) 0.06630(13)
H3 H 0.5115 0.3347 0.0621
C3 C 0.35253(16) 0.29178(17) 0.14318(11)
H4 H 0.4173 0.2679 0.1905
C4 C 0.20059(15) 0.28601(14) 0.15078(9)
C5 C 0.11026(17) 0.33172(18) 0.08201(11)
H5 H 0.0098 0.3355 0.0878
C6 C 0.1677(2) 0.37169(19) 0.00495(11)
H6 H 0.1051 0.4000 -0.0412
C7 C 0.01685(16) 0.47751(16) 0.30681(9)
C8 C 0.0393(2) 0.60978(19) 0.27612(12)
H7 H 0.1346 0.6491 0.2633
C9 C -0.0776(3) 0.6841(2) 0.26422(15)
H8 H -0.0605 0.7731 0.2438
C10 C -0.2181(3) 0.6275(3) 0.28227(14)
H9 H -0.2970 0.6773 0.2736
C11 C -0.2432(2) 0.4967(2) 0.31329(13)
H10 H -0.3391 0.4580 0.3255
C12 C -0.12611(18) 0.42280(19) 0.32631(11)
H11 H -0.1433 0.3354 0.3484
C13 C 0.29018(15) 0.04284(15) 0.24872(9)
C14 C 0.21138(16) -0.05629(16) 0.15701(10)
H12 H 0.1282 -0.0325 0.1232
C15 C 0.25618(19) -0.18984(17) 0.11606(11)
H13 H 0.2031 -0.2544 0.0545
C16 C 0.3778(2) -0.22897(19) 0.16462(12)
H14 H 0.4057 -0.3202 0.1372
C17 C 0.4571(2) -0.1309(2) 0.25425(12)
H15 H 0.5397 -0.1561 0.2878
C18 C 0.41650(18) 0.00430(19) 0.29541(11)
H16 H 0.4741 0.0708 0.3552
C19 C 0.14204(15) 0.24577(15) 0.23900(9)
C20 C 0.14881(16) 0.40112(15) 0.31962(9)
H17 H 0.2418 0.4755 0.3187
C21 C 0.17993(17) 0.35807(17) 0.41495(10)
H18 H 0.0870 0.2986 0.4266
H19 H 0.2223 0.4494 0.4708
C22 C 0.29695(16) 0.26073(17) 0.39567(10)
C23 C -0.02215(15) 0.13977(15) 0.21769(9)
C24 C -0.2702(2) 0.0507(3) 0.11841(16)
H20 H -0.3254 0.0559 0.0575
H21 H -0.3173 0.0947 0.1714
H22 H -0.2730 -0.0554 0.1149
C25 C 0.30251(18) 0.15865(19) 0.46532(10)
C26 C 0.1810(3) -0.0591(3) 0.50659(16)
H23 H 0.0880 -0.1398 0.4848
H24 H 0.1867 -0.0007 0.5734
H25 H 0.2681 -0.1042 0.5030
N1 N 0.24692(13) 0.17808(13) 0.29261(7)
loop_
_geom_bond_atom_site_label_1
_geom_bond_atom_site_label_2
_geom_bond_site_symmetry_1
_geom_bond_site_symmetry_2
O1 C23 1_555 1_555
O2 C23 1_555 1_555
O3 C25 1_555 1_555
O4 C25 1_555 1_555
O5 H1 1_555 1_555
C1 H2 1_555 1_555
C2 C1 1_555 1_555
H3 C2 1_555 1_555
C3 C2 1_555 1_555
H4 C3 1_555 1_555
C4 C3 1_555 1_555
C5 C4 1_555 1_555
H5 C5 1_555 1_555
C6 C1 1_555 1_555
H6 C6 1_555 1_555
C7 C8 1_555 1_555
C8 H7 1_555 1_555
C9 C8 1_555 1_555
H8 C9 1_555 1_555
C10 C9 1_555 1_555
H9 C10 1_555 1_555
C11 C10 1_555 1_555
H10 C11 1_555 1_555
C12 C7 1_555 1_555
H11 C12 1_555 1_555
C13 C14 1_555 1_555
C14 H12 1_555 1_555
C15 C14 1_555 1_555
H13 C15 1_555 1_555
C16 C15 1_555 1_555
H14 C16 1_555 1_555
C17 C16 1_555 1_555
H15 C17 1_555 1_555
C18 C13 1_555 1_555
H16 C18 1_555 1_555
C19 C4 1_555 1_555
C20 C7 1_555 1_555
H17 C20 1_555 1_555
C21 C20 1_555 1_555
H18 C21 1_555 1_555
H19 C21 1_555 1_555
C22 O5 1_555 1_555
C23 C19 1_555 1_555
C24 O2 1_555 1_555
H20 C24 1_555 1_555
H21 C24 1_555 1_555
H22 C24 1_555 1_555
C25 C22 1_555 1_555
C26 O4 1_555 1_555
H23 C26 1_555 1_555
H24 C26 1_555 1_555
H25 C26 1_555 1_555
N1 C13 1_555 1_555
C5 C6 1_555 1_555
C11 C12 1_555 1_555
C17 C18 1_555 1_555
C19 C20 1_555 1_555
C19 N1 1_555 1_555
C21 C22 1_555 1_555
C22 N1 1_555 1_555

#END
