
#######################################################################
#
#                 Cambridge Crystallographic Data Centre
#                                CCDC 
#
#######################################################################
#
# If this CIF has been generated from an entry in the Cambridge 
# Structural Database, then it will include bibliographic, chemical, 
# crystal, experimental, refinement or atomic coordinate data resulting 
# from the CCDC's data processing and validation procedures.
#
#######################################################################

data_DOVXAP
_chemical_formula_moiety         'C15 H19 N2 O4'
_chemical_name_systematic        
'(2-(4-(methoxycarbonyl)phenyl)-4,4,5,5-tetramethyl-3-oxido-4,5-dihydro-1H-imidazol-1-yl)oxidanyl radical'
_symmetry_cell_setting           triclinic
_symmetry_space_group_name_H-M   'P -1'
_symmetry_Int_Tables_number      2
_space_group_name_Hall           '-P 1'
loop_
_symmetry_equiv_pos_site_id
_symmetry_equiv_pos_as_xyz
1 x,y,z
2 -x,-y,-z
_cell_length_a                   9.5761(6)
_cell_length_b                   10.1949(7)
_cell_length_c                   15.8509(10)
_cell_angle_alpha                102.611(6)
_cell_angle_beta                 96.527(5)
_cell_angle_gamma                96.021(5)
_cell_volume                     1486.87
_cell_formula_units_Z            4
loop_
_atom_site_label
_atom_site_type_symbol
_atom_site_fract_x
_atom_site_fract_y
_atom_site_fract_z
O1 O 0.50663(11) 0.42178(12) 0.27934(8)
O2 O -0.21012(12) 0.33447(12) 0.40126(7)
O3 O 0.00677(11) -0.05391(12) 0.37162(7)
N1 N -0.08765(13) 0.02641(13) 0.38137(8)
N2 N -0.19000(13) 0.21152(14) 0.39808(8)
C1 C 0.06528(15) 0.23819(16) 0.37568(9)
C2 C 0.24161(16) 0.43455(17) 0.42627(10)
H1 H 0.2767 0.5153 0.4668
C3 C 0.26425(16) 0.26556(17) 0.29821(10)
H2 H 0.3139 0.2340 0.2524
C4 C 0.14033(16) 0.18990(17) 0.30742(10)
H3 H 0.1073 0.1073 0.2683
C5 C 0.11669(16) 0.36048(17) 0.43491(10)
H4 H 0.0669 0.3926 0.4805
C6 C -0.06776(15) 0.16014(16) 0.38478(9)
C7 C 0.44391(17) 0.47686(18) 0.34760(11)
C8 C -0.29213(17) 0.14498(18) 0.51733(10)
H5 H -0.1984 0.1394 0.5438
H6 H -0.3593 0.0822 0.5342
H7 H -0.3144 0.2354 0.5364
C9 C 0.31480(16) 0.38837(17) 0.35705(10)
O4 O 0.48584(15) 0.58711(14) 0.39396(10)
C10 C -0.29893(15) 0.10982(16) 0.41819(9)
C11 C -0.24113(15) -0.02505(17) 0.38167(9)
C12 C -0.44549(16) 0.12390(19) 0.37515(11)
H8 H -0.4705 0.2112 0.4007
H9 H -0.5139 0.0541 0.3840
H10 H -0.4444 0.1153 0.3137
C13 C -0.30050(17) -0.09235(18) 0.28652(10)
H11 H -0.2939 -0.0262 0.2519
H12 H -0.3980 -0.1292 0.2829
H13 H -0.2468 -0.1639 0.2651
C14 C -0.24942(17) -0.12900(18) 0.43757(11)
H14 H -0.2048 -0.2053 0.4123
H15 H -0.3470 -0.1587 0.4402
H16 H -0.2017 -0.0885 0.4955
C15 C 0.63303(19) 0.5029(2) 0.26698(13)
H17 H 0.6649 0.4605 0.2136
H18 H 0.7062 0.5100 0.3151
H19 H 0.6117 0.5918 0.2640
O5 O 0.07599(12) 0.93601(12) 0.13552(7)
O6 O -0.66465(11) 0.77607(13) -0.09964(7)
O7 O -0.13222(12) 0.49202(12) 0.09635(8)
N3 N 0.05668(13) 0.81043(14) 0.13700(8)
O8 O -0.53029(12) 0.92834(14) -0.14939(8)
N4 N -0.04401(13) 0.60117(14) 0.12066(8)
C16 C -0.41896(16) 0.80772(17) -0.05300(9)
C17 C -0.06106(16) 0.72177(17) 0.10165(9)
C18 C -0.16853(17) 0.84945(17) 0.00030(10)
H20 H -0.0793 0.8964 0.0018
C19 C -0.32006(16) 0.67961(17) 0.04459(10)
H21 H -0.3321 0.6131 0.0760
C20 C -0.43553(16) 0.70753(17) -0.00631(10)
H22 H -0.5246 0.6591 -0.0093
C21 C -0.18530(16) 0.75108(17) 0.04901(9)
C22 C 0.04396(17) 0.61950(19) 0.27337(10)
H23 H 0.0006 0.7004 0.2894
H24 H 0.1255 0.6227 0.3154
H25 H -0.0229 0.5417 0.2720
C23 C -0.54111(17) 0.84513(18) -0.10626(10)
C24 C -0.28486(17) 0.87682(18) -0.05010(10)
H26 H -0.2731 0.9422 -0.0824
C25 C 0.08975(16) 0.60944(17) 0.18273(10)
C26 C 0.17488(16) 0.74173(17) 0.17194(9)
C27 C 0.15859(19) 0.48266(19) 0.15556(11)
H27 H 0.1001 0.4061 0.1647
H28 H 0.2501 0.4930 0.1898
H29 H 0.1693 0.4685 0.0949
C28 C 0.25713(17) 0.83332(18) 0.25540(10)
H30 H 0.3089 0.9102 0.2419
H31 H 0.3222 0.7837 0.2820
H32 H 0.1922 0.8639 0.2950
C29 C 0.27197(18) 0.7190(2) 0.10123(11)
H33 H 0.2192 0.6630 0.0482
H34 H 0.3496 0.6750 0.1201
H35 H 0.3080 0.8048 0.0910
C30 C -0.79040(18) 0.8042(2) -0.14959(12)
H36 H -0.7830 0.7793 -0.2108
H37 H -0.7983 0.8992 -0.1330
H38 H -0.8729 0.7527 -0.1380
loop_
_geom_bond_atom_site_label_1
_geom_bond_atom_site_label_2
_geom_bond_site_symmetry_1
_geom_bond_site_symmetry_2
O1 C7 1_555 1_555
O2 N2 1_555 1_555
O3 N1 1_555 1_555
N1 C6 1_555 1_555
N2 C6 1_555 1_555
C1 C4 1_555 1_555
C2 H1 1_555 1_555
C3 H2 1_555 1_555
C4 C3 1_555 1_555
H3 C4 1_555 1_555
C5 C1 1_555 1_555
H4 C5 1_555 1_555
C6 C1 1_555 1_555
C7 C9 1_555 1_555
C8 H5 1_555 1_555
H6 C8 1_555 1_555
H7 C8 1_555 1_555
C9 C2 1_555 1_555
O4 C7 1_555 1_555
C10 N2 1_555 1_555
C11 N1 1_555 1_555
C12 C10 1_555 1_555
H8 C12 1_555 1_555
H9 C12 1_555 1_555
H10 C12 1_555 1_555
C13 C11 1_555 1_555
H11 C13 1_555 1_555
H12 C13 1_555 1_555
H13 C13 1_555 1_555
C14 C11 1_555 1_555
H14 C14 1_555 1_555
H15 C14 1_555 1_555
H16 C14 1_555 1_555
C15 O1 1_555 1_555
H17 C15 1_555 1_555
H18 C15 1_555 1_555
H19 C15 1_555 1_555
O5 N3 1_555 1_555
O6 C23 1_555 1_555
O7 N4 1_555 1_555
N3 C17 1_555 1_555
O8 C23 1_555 1_555
N4 C17 1_555 1_555
C16 C20 1_555 1_555
C17 C21 1_555 1_555
C18 H20 1_555 1_555
C19 H21 1_555 1_555
C20 C19 1_555 1_555
H22 C20 1_555 1_555
C21 C18 1_555 1_555
C22 H23 1_555 1_555
H24 C22 1_555 1_555
H25 C22 1_555 1_555
C23 C16 1_555 1_555
C24 C16 1_555 1_555
H26 C24 1_555 1_555
C25 N4 1_555 1_555
C26 N3 1_555 1_555
C27 C25 1_555 1_555
H27 C27 1_555 1_555
H28 C27 1_555 1_555
H29 C27 1_555 1_555
C28 C26 1_555 1_555
H30 C28 1_555 1_555
H31 C28 1_555 1_555
H32 C28 1_555 1_555
C29 C26 1_555 1_555
H33 C29 1_555 1_555
H34 C29 1_555 1_555
H35 C29 1_555 1_555
C30 O6 1_555 1_555
H36 C30 1_555 1_555
H37 C30 1_555 1_555
H38 C30 1_555 1_555
C2 C5 1_555 1_555
C3 C9 1_555 1_555
C8 C10 1_555 1_555
C10 C11 1_555 1_555
C18 C24 1_555 1_555
C19 C21 1_555 1_555
C22 C25 1_555 1_555
C25 C26 1_555 1_555

#END
