
#######################################################################
#
#                 Cambridge Crystallographic Data Centre
#                                CCDC 
#
#######################################################################
#
# If this CIF has been generated from an entry in the Cambridge 
# Structural Database, then it will include bibliographic, chemical, 
# crystal, experimental, refinement or atomic coordinate data resulting 
# from the CCDC's data processing and validation procedures.
#
#######################################################################

data_DOVYOE
_chemical_formula_moiety         'C10 H10 I1 N2 1+,Cl1 O4 1-'
_chemical_name_systematic        'bis(pyridine)iodonium perchlorate'
_symmetry_cell_setting           monoclinic
_symmetry_space_group_name_H-M   'C 2/n'
_symmetry_Int_Tables_number      15
_space_group_name_Hall           '-C 2ybc'
loop_
_symmetry_equiv_pos_site_id
_symmetry_equiv_pos_as_xyz
1 x,y,z
2 1/2+x,1/2+y,z
3 1/2-x,y,1/2-z
4 -x,1/2+y,1/2-z
5 -x,-y,-z
6 1/2-x,1/2-y,-z
7 1/2+x,-y,1/2+z
8 x,1/2-y,1/2+z
_cell_length_a                   12.5366(7)
_cell_length_b                   8.0714(4)
_cell_length_c                   14.9230(9)
_cell_angle_alpha                90
_cell_angle_beta                 113.319(7)
_cell_angle_gamma                90
_cell_volume                     1386.68
_exptl_crystal_colour            colorless
_exptl_crystal_description       block
_cell_formula_units_Z            4
loop_
_atom_site_label
_atom_site_type_symbol
_atom_site_fract_x
_atom_site_fract_y
_atom_site_fract_z
I1 I 0.0000 0.0000 0.0000
N1 N -0.0706(4) 0.2073(4) 0.0613(2)
C1 C -0.1017(5) 0.3482(6) 0.0133(4)
C2 C -0.1451(7) 0.4795(6) 0.0477(5)
C3 C -0.1546(6) 0.4585(7) 0.1362(5)
C4 C -0.1232(6) 0.3113(8) 0.1865(4)
C5 C -0.0803(5) 0.1883(6) 0.1455(4)
H1 H -0.0943 0.3595 -0.0463
H2 H -0.1671 0.5778 0.0126
H3 H -0.1831 0.5437 0.1619
H4 H -0.1317 0.2947 0.2441
H5 H -0.0572 0.0883 0.1782
N1D N 0.0706(4) -0.2073(4) -0.0613(2)
C1D C 0.1017(5) -0.3482(6) -0.0133(4)
C2D C 0.1451(7) -0.4795(6) -0.0477(5)
C3D C 0.1546(6) -0.4585(7) -0.1362(5)
C4D C 0.1232(6) -0.3113(8) -0.1865(4)
C5D C 0.0803(5) -0.1883(6) -0.1455(4)
H1D H 0.0943 -0.3595 0.0463
H2D H 0.1671 -0.5778 -0.0126
H3D H 0.1831 -0.5437 -0.1619
H4D H 0.1317 -0.2947 -0.2441
H5D H 0.0572 -0.0883 -0.1782
Cl1 Cl 0.7500 -0.1129(11) 0.2500
O1 O 0.8463(5) -0.0122(11) 0.3024(11)
O2 O 0.7237(16) -0.2135(11) 0.3155(9)
O1B O 0.6537(5) -0.0122(11) 0.1976(11)
O2B O 0.7763(16) -0.2135(11) 0.1845(9)
O3? O 0.814(2) 0.022(3) 0.284(2)
O4? O 0.807(3) -0.135(3) 0.1530(18)
Cl2? Cl 0.7671(14) -0.1218(14) 0.2284(13)
O5? O 0.6450(15) -0.112(3) 0.188(2)
O6? O 0.8024(17) -0.262(3) 0.2891(16)
loop_
_geom_bond_atom_site_label_1
_geom_bond_atom_site_label_2
_geom_bond_site_symmetry_1
_geom_bond_site_symmetry_2
I1 N1 1_555 1_555
N1 C1 1_555 1_555
C1 C2 1_555 1_555
C2 C3 1_555 1_555
C3 C4 1_555 1_555
C4 C5 1_555 1_555
C5 N1 1_555 1_555
H1 C1 1_555 1_555
H2 C2 1_555 1_555
H3 C3 1_555 1_555
H4 C4 1_555 1_555
H5 C5 1_555 1_555
Cl1 O1 1_555 1_555
O2 Cl1 1_555 1_555
N1D I1 1_555 1_555
C1D N1D 1_555 1_555
C2D C1D 1_555 1_555
C3D C2D 1_555 1_555
C4D C3D 1_555 1_555
C5D N1D 1_555 1_555
H1D C1D 1_555 1_555
H2D C2D 1_555 1_555
H3D C3D 1_555 1_555
H4D C4D 1_555 1_555
H5D C5D 1_555 1_555
O1B Cl1 1_555 1_555
O2B Cl1 1_555 1_555
C4D C5D 1_555 1_555

#END
