
#######################################################################
#
#                 Cambridge Crystallographic Data Centre
#                                CCDC 
#
#######################################################################
#
# If this CIF has been generated from an entry in the Cambridge 
# Structural Database, then it will include bibliographic, chemical, 
# crystal, experimental, refinement or atomic coordinate data resulting 
# from the CCDC's data processing and validation procedures.
#
#######################################################################

data_DOVZAR
_chemical_formula_moiety         'C10 H10 I1 N2 1+,C1 F3 O3 S1 1-'
_chemical_name_systematic        
'bis(pyridine)iodonium trifluoromethanesulfonate'
_symmetry_cell_setting           triclinic
_symmetry_space_group_name_H-M   'P -1'
_symmetry_Int_Tables_number      2
_space_group_name_Hall           '-P 1'
loop_
_symmetry_equiv_pos_site_id
_symmetry_equiv_pos_as_xyz
1 x,y,z
2 -x,-y,-z
_cell_length_a                   7.2427(4)
_cell_length_b                   10.7513(7)
_cell_length_c                   10.8275(6)
_cell_angle_alpha                92.950(5)
_cell_angle_beta                 106.067(5)
_cell_angle_gamma                104.941(5)
_cell_volume                     775.917
_exptl_crystal_colour            colorless
_exptl_crystal_description       plate
_cell_formula_units_Z            2
loop_
_atom_site_label
_atom_site_type_symbol
_atom_site_fract_x
_atom_site_fract_y
_atom_site_fract_z
C1 C 0.3059(11) 0.3449(7) 0.3386(6)
F1 F 0.3464(11) 0.4687(5) 0.3783(6)
F2 F 0.2990(12) 0.2851(7) 0.4397(5)
F3 F 0.4602(10) 0.3313(11) 0.3081(7)
S1 S 0.0746(2) 0.28925(11) 0.20686(11)
O1 O 0.0583(10) 0.1565(4) 0.1697(5)
O2 O 0.1114(10) 0.3737(5) 0.1132(4)
O3 O -0.0722(9) 0.3103(5) 0.2656(5)
I1 I 0.72024(3) 0.00364(2) 0.39805(2)
N1 N 0.6031(6) -0.1388(4) 0.2141(4)
C2 C 0.5061(10) -0.2614(6) 0.2124(6)
C3 C 0.4294(12) -0.3487(7) 0.1000(8)
C4 C 0.4573(12) -0.3062(7) -0.0127(7)
C5 C 0.5655(12) -0.1801(7) -0.0108(6)
C6 C 0.6373(9) -0.0980(5) 0.1056(5)
N2 N 0.8426(6) 0.1456(4) 0.5799(4)
C7 C 0.8617(9) 0.1047(6) 0.6964(5)
C8 C 0.9423(10) 0.1916(8) 0.8095(5)
C9 C 1.0060(11) 0.3229(8) 0.8012(6)
C10 C 0.9870(12) 0.3627(7) 0.6824(7)
C11 C 0.9036(11) 0.2721(6) 0.5727(6)
H1 H 0.4878 -0.2897 0.2894
H2 H 0.3618 -0.4350 0.1011
H3 H 0.4045 -0.3631 -0.0894
H4 H 0.5882 -0.1505 -0.0853
H5 H 0.7102 -0.0126 0.1091
H6 H 0.8215 0.0176 0.6997
H7 H 0.9551 0.1618 0.8900
H8 H 1.0607 0.3835 0.8761
H9 H 1.0318 0.4503 0.6746
H10 H 0.8892 0.2998 0.4913
loop_
_geom_bond_atom_site_label_1
_geom_bond_atom_site_label_2
_geom_bond_site_symmetry_1
_geom_bond_site_symmetry_2
C1 F1 1_555 1_555
F2 C1 1_555 1_555
F3 C1 1_555 1_555
S1 C1 1_555 1_555
O1 S1 1_555 1_555
O2 S1 1_555 1_555
O3 S1 1_555 1_555
I1 N1 1_555 1_555
N1 C2 1_555 1_555
C2 C3 1_555 1_555
C3 C4 1_555 1_555
C4 C5 1_555 1_555
C5 C6 1_555 1_555
C6 N1 1_555 1_555
N2 I1 1_555 1_555
C7 N2 1_555 1_555
C8 C7 1_555 1_555
C9 C8 1_555 1_555
C10 C9 1_555 1_555
C11 N2 1_555 1_555
H1 C2 1_555 1_555
H2 C3 1_555 1_555
H3 C4 1_555 1_555
H4 C5 1_555 1_555
H5 C6 1_555 1_555
H6 C7 1_555 1_555
H7 C8 1_555 1_555
H8 C9 1_555 1_555
H9 C10 1_555 1_555
H10 C11 1_555 1_555
C10 C11 1_555 1_555

#END
