
#######################################################################
#
#                 Cambridge Crystallographic Data Centre
#                                CCDC 
#
#######################################################################
#
# If this CIF has been generated from an entry in the Cambridge 
# Structural Database, then it will include bibliographic, chemical, 
# crystal, experimental, refinement or atomic coordinate data resulting 
# from the CCDC's data processing and validation procedures.
#
#######################################################################

data_DOVZOF01
_chemical_formula_moiety         'C10 H10 Br1 N2 1+,B1 F4 1-'
_chemical_name_systematic        'bis(pyridine)bromonium tetrafluoroborate'
_symmetry_cell_setting           monoclinic
_symmetry_space_group_name_H-M   'P 21/c'
_symmetry_Int_Tables_number      14
_space_group_name_Hall           '-P 2ybc'
loop_
_symmetry_equiv_pos_site_id
_symmetry_equiv_pos_as_xyz
1 x,y,z
2 -x,1/2+y,1/2-z
3 -x,-y,-z
4 x,1/2-y,1/2+z
_cell_length_a                   13.7220(5)
_cell_length_b                   13.2565(5)
_cell_length_c                   7.0604(3)
_cell_angle_alpha                90
_cell_angle_beta                 97.109(4)
_cell_angle_gamma                90
_cell_volume                     1274.45
_exptl_crystal_colour            colorless
_exptl_crystal_description       lath
_cell_formula_units_Z            4
loop_
_atom_site_label
_atom_site_type_symbol
_atom_site_fract_x
_atom_site_fract_y
_atom_site_fract_z
B1 B 0.2038(2) 1.0613(2) 0.0571(4)
F1 F 0.1756(9) 1.0395(9) 0.2363(11)
F2 F 0.2425(10) 1.1545(6) 0.0577(16)
F3 F 0.1265(7) 1.0459(7) -0.0800(15)
F4 F 0.2763(6) 0.9896(7) 0.0237(18)
Br1 Br 0.317573(15) 0.834072(16) 0.52493(3)
N1 N 0.17683(13) 0.80652(15) 0.5796(3)
C1 C 0.11738(18) 0.88433(18) 0.6007(3)
C2 C 0.02170(19) 0.8689(2) 0.6309(4)
C3 C -0.01272(18) 0.7710(2) 0.6376(3)
C4 C 0.04946(18) 0.6912(2) 0.6153(4)
C5 C 0.14508(17) 0.71123(18) 0.5871(3)
N2 N 0.46231(14) 0.86309(15) 0.4568(3)
C6 C 0.54161(19) 0.83427(18) 0.5734(4)
C7 C 0.6349(2) 0.8453(2) 0.5252(5)
C8 C 0.64676(18) 0.8885(2) 0.3524(5)
C9 C 0.56499(19) 0.9197(2) 0.2340(4)
C10 C 0.47292(18) 0.90594(19) 0.2896(4)
H1 H 0.1428 0.9501 0.5966
H2 H -0.0200 0.9221 0.6433
H3 H -0.0768 0.7599 0.6569
H4 H 0.0274 0.6264 0.6182
H5 H 0.1882 0.6594 0.5716
H6 H 0.5317 0.8076 0.6894
H7 H 0.6890 0.8247 0.6073
H8 H 0.7085 0.8956 0.3185
H9 H 0.5717 0.9501 0.1184
H10 H 0.4158 0.9252 0.2098
F5? F 0.1573(10) 1.0266(10) 0.2042(18)
F6? F 0.2170(8) 1.1661(4) 0.0809(18)
F7? F 0.1468(9) 1.0482(10) -0.1176(14)
F8? F 0.2926(7) 1.0148(11) 0.0500(19)
loop_
_geom_bond_atom_site_label_1
_geom_bond_atom_site_label_2
_geom_bond_site_symmetry_1
_geom_bond_site_symmetry_2
B1 F1 1_555 1_555
F2 B1 1_555 1_555
F3 B1 1_555 1_555
F4 B1 1_555 1_555
Br1 N1 1_555 1_555
N1 C1 1_555 1_555
C1 C2 1_555 1_555
C2 C3 1_555 1_555
C3 C4 1_555 1_555
C4 C5 1_555 1_555
C5 N1 1_555 1_555
N2 Br1 1_555 1_555
C6 N2 1_555 1_555
C7 C6 1_555 1_555
C8 C7 1_555 1_555
C9 C8 1_555 1_555
C10 N2 1_555 1_555
H1 C1 1_555 1_555
H2 C2 1_555 1_555
H3 C3 1_555 1_555
H4 C4 1_555 1_555
H5 C5 1_555 1_555
H6 C6 1_555 1_555
H7 C7 1_555 1_555
H8 C8 1_555 1_555
H9 C9 1_555 1_555
H10 C10 1_555 1_555
C9 C10 1_555 1_555

#END
