
#######################################################################
#
#                 Cambridge Crystallographic Data Centre
#                                CCDC 
#
#######################################################################
#
# If this CIF has been generated from an entry in the Cambridge 
# Structural Database, then it will include bibliographic, chemical, 
# crystal, experimental, refinement or atomic coordinate data resulting 
# from the CCDC's data processing and validation procedures.
#
#######################################################################

data_DOWCIC
_chemical_formula_moiety         'C24 H14 S2'
_chemical_name_systematic        5,5'-bis(phenylethynyl)-2,2'-bithiophene
_symmetry_cell_setting           monoclinic
_symmetry_space_group_name_H-M   'C 2/c'
_symmetry_Int_Tables_number      15
_space_group_name_Hall           '-C 2yn'
loop_
_symmetry_equiv_pos_site_id
_symmetry_equiv_pos_as_xyz
1 x,y,z
2 -x,y,1/2-z
3 1/2+x,1/2+y,z
4 1/2-x,1/2+y,1/2-z
5 -x,-y,-z
6 x,-y,1/2+z
7 1/2-x,1/2-y,-z
8 1/2+x,1/2-y,1/2+z
_cell_length_a                   32.633(7)
_cell_length_b                   4.9552(10)
_cell_length_c                   11.018(2)
_cell_angle_alpha                90
_cell_angle_beta                 104.70(3)
_cell_angle_gamma                90
_cell_volume                     1723.33
_chemical_melting_point          '162 deg.C'
_cell_formula_units_Z            4
_exptl_crystal_recrystallization_method dichloromethane
loop_
_atom_site_label
_atom_site_type_symbol
_atom_site_fract_x
_atom_site_fract_y
_atom_site_fract_z
S1 S 0.03310(3) 1.1890(2) 0.12921(10)
C1 C 0.01727(14) 1.4066(9) 0.0024(4)
C2 C 0.04055(13) 1.3613(9) -0.0826(4)
H1 H 0.0364 1.4592 -0.1588
C3 C 0.07111(13) 1.1571(9) -0.0471(4)
H2 H 0.0895 1.1028 -0.0972
C4 C 0.07176(14) 1.0436(9) 0.0672(4)
C5 C 0.09823(13) 0.8380(9) 0.1325(4)
C6 C 0.12161(13) 0.6645(9) 0.1879(4)
C7 C 0.14994(14) 0.4583(10) 0.2522(4)
C8 C 0.18165(14) 0.3591(10) 0.1997(5)
H3 H 0.1844 0.4277 0.1216
C9 C 0.20910(16) 0.1613(10) 0.2612(5)
H4 H 0.2304 0.0934 0.2243
C10 C 0.20589(15) 0.0611(11) 0.3760(5)
H5 H 0.2251 -0.0725 0.4184
C11 C 0.17438(15) 0.1577(11) 0.4282(5)
H6 H 0.1718 0.0885 0.5063
C12 C 0.14662(15) 0.3543(9) 0.3672(4)
H7 H 0.1251 0.4192 0.4038
S1D S -0.03310(3) 1.8110(2) -0.12921(10)
C1D C -0.01727(14) 1.5934(9) -0.0024(4)
C2D C -0.04055(13) 1.6387(9) 0.0826(4)
H1D H -0.0364 1.5408 0.1588
C3D C -0.07111(13) 1.8429(9) 0.0471(4)
H2D H -0.0895 1.8972 0.0972
C4D C -0.07176(14) 1.9564(9) -0.0672(4)
C5D C -0.09823(13) 2.1620(9) -0.1325(4)
C6D C -0.12161(13) 2.3355(9) -0.1879(4)
C7D C -0.14994(14) 2.5417(10) -0.2522(4)
C8D C -0.18165(14) 2.6409(10) -0.1997(5)
H3D H -0.1844 2.5723 -0.1216
C9D C -0.20910(16) 2.8387(10) -0.2612(5)
H4D H -0.2304 2.9066 -0.2243
C10D C -0.20589(15) 2.9389(11) -0.3760(5)
H5D H -0.2251 3.0725 -0.4184
C11D C -0.17438(15) 2.8423(11) -0.4282(5)
H6D H -0.1718 2.9115 -0.5063
C12D C -0.14662(15) 2.6457(9) -0.3672(4)
H7D H -0.1251 2.5808 -0.4038
loop_
_geom_bond_atom_site_label_1
_geom_bond_atom_site_label_2
_geom_bond_site_symmetry_1
_geom_bond_site_symmetry_2
S1 C1 1_555 1_555
C1 C2 1_555 1_555
C2 H1 1_555 1_555
C3 C2 1_555 1_555
H2 C3 1_555 1_555
C4 S1 1_555 1_555
C5 C4 1_555 1_555
C6 C5 1_555 1_555
C7 C6 1_555 1_555
C8 C7 1_555 1_555
H3 C8 1_555 1_555
C9 C8 1_555 1_555
H4 C9 1_555 1_555
C10 C9 1_555 1_555
H5 C10 1_555 1_555
C11 C10 1_555 1_555
H6 C11 1_555 1_555
C12 C7 1_555 1_555
H7 C12 1_555 1_555
S1D C1D 1_555 1_555
C1D C1 1_555 1_555
C2D C1D 1_555 1_555
H1D C2D 1_555 1_555
C3D C2D 1_555 1_555
H2D C3D 1_555 1_555
C4D S1D 1_555 1_555
C5D C4D 1_555 1_555
C6D C5D 1_555 1_555
C7D C6D 1_555 1_555
C8D C7D 1_555 1_555
H3D C8D 1_555 1_555
C9D C8D 1_555 1_555
H4D C9D 1_555 1_555
C10D C9D 1_555 1_555
H5D C10D 1_555 1_555
C11D C10D 1_555 1_555
H6D C11D 1_555 1_555
C12D C7D 1_555 1_555
H7D C12D 1_555 1_555
C3 C4 1_555 1_555
C11 C12 1_555 1_555
C3D C4D 1_555 1_555
C11D C12D 1_555 1_555

#END
