
#######################################################################
#
#                 Cambridge Crystallographic Data Centre
#                                CCDC 
#
#######################################################################
#
# If this CIF has been generated from an entry in the Cambridge 
# Structural Database, then it will include bibliographic, chemical, 
# crystal, experimental, refinement or atomic coordinate data resulting 
# from the CCDC's data processing and validation procedures.
#
#######################################################################

data_DOWGUS
_chemical_formula_moiety         'C25 H22 N2 O2'
_chemical_name_systematic        
(S,S)-1-(2-hydroxy-1-phenylethyl)-3-phenyl-2,3-dihydroimidazo[1,2-b]isoquinolin-5(1H)-one
_symmetry_cell_setting           orthorhombic
_symmetry_space_group_name_H-M   'P 21 21 21'
_symmetry_Int_Tables_number      19
_space_group_name_Hall           'P 2ac 2ab'
loop_
_symmetry_equiv_pos_site_id
_symmetry_equiv_pos_as_xyz
1 x,y,z
2 1/2-x,-y,1/2+z
3 1/2+x,1/2-y,-z
4 -x,1/2+y,1/2-z
_cell_length_a                   5.341(5)
_cell_length_b                   16.735(5)
_cell_length_c                   22.129(5)
_cell_angle_alpha                90
_cell_angle_beta                 90
_cell_angle_gamma                90
_cell_volume                     1977.93
_chemical_melting_point          '87-90 deg.C'
_cell_formula_units_Z            4
loop_
_atom_site_label
_atom_site_type_symbol
_atom_site_fract_x
_atom_site_fract_y
_atom_site_fract_z
O1 O 0.5230(3) 1.03531(8) 0.71783(6)
H1 H 0.5557 1.0687 0.7438
O2 O 0.2623(3) 0.66781(8) 0.73138(6)
N1 N 0.2120(3) 0.91952(8) 0.66681(7)
N2 N 0.2582(3) 0.79250(8) 0.69327(6)
C1 C 0.6294(4) 0.75906(12) 0.61061(9)
C2 C 0.0668(4) 0.82220(11) 0.73523(8)
H2 H -0.0837 0.7889 0.7325
C3 C 0.2590(4) 0.99600(10) 0.63738(9)
H3 H 0.4149 0.9894 0.6146
C4 C 0.3484(4) 0.71579(11) 0.69398(9)
C5 C 0.5458(4) 0.69856(11) 0.65031(9)
C6 C 0.0120(4) 0.90640(11) 0.70962(9)
H4 H -0.1499 0.9079 0.6898
H5 H 0.0150 0.9463 0.7414
C7 C 0.0592(4) 1.01590(11) 0.59127(9)
C8 C 0.3106(4) 1.06061(11) 0.68421(10)
H6 H 0.3442 1.1113 0.6645
H7 H 0.1672 1.0672 0.7107
C9 C 0.3400(4) 0.85169(10) 0.65421(8)
C10 C 0.5213(5) 0.83629(13) 0.61292(10)
C11 C 0.1588(4) 0.82482(11) 0.80005(9)
C12 C -0.1092(4) 1.07798(13) 0.59793(11)
H8 H -0.1035 1.1100 0.6322
C13 C 0.8248(5) 0.74000(14) 0.57044(10)
H9 H 0.8836 0.7789 0.5440
C14 C 0.0458(5) 0.97048(12) 0.53888(11)
H10 H 0.1602 0.9293 0.5329
C15 C 0.6547(5) 0.62254(13) 0.64770(10)
H11 H 0.5977 0.5824 0.6733
C16 C 0.0300(5) 0.78702(13) 0.84494(10)
H12 H -0.1120 0.7572 0.8359
C17 C 0.9291(5) 0.66622(16) 0.56938(11)
H13 H 1.0589 0.6554 0.5426
C18 C -0.2885(5) 1.09276(15) 0.55299(13)
H14 H -0.4004 1.1349 0.5575
C19 C 0.3174(7) 0.83796(18) 0.91839(13)
H15 H 0.3708 0.8423 0.9582
C20 C 0.1135(7) 0.79345(16) 0.90528(12)
H16 H 0.0283 0.7670 0.9360
C21 C -0.1327(5) 0.98509(16) 0.49565(11)
H17 H -0.1397 0.9533 0.4612
C22 C -0.3002(5) 1.04606(17) 0.50291(13)
H18 H -0.4216 1.0555 0.4737
C23 C 0.4461(6) 0.87677(19) 0.87372(13)
H19 H 0.5862 0.9074 0.8830
C24 C 0.8441(6) 0.60671(16) 0.60784(12)
H20 H 0.9158 0.5561 0.6065
C25 C 0.3660(5) 0.86988(16) 0.81520(11)
H21 H 0.4535 0.8963 0.7848
H22 H 0.565(4) 0.8752(11) 0.5861(8)
loop_
_geom_bond_atom_site_label_1
_geom_bond_atom_site_label_2
_geom_bond_site_symmetry_1
_geom_bond_site_symmetry_2
O1 H1 1_555 1_555
O2 C4 1_555 1_555
N1 C3 1_555 1_555
N2 C2 1_555 1_555
C1 C5 1_555 1_555
C2 H2 1_555 1_555
C3 H3 1_555 1_555
C4 N2 1_555 1_555
C5 C4 1_555 1_555
C6 N1 1_555 1_555
H4 C6 1_555 1_555
H5 C6 1_555 1_555
C7 C3 1_555 1_555
C8 O1 1_555 1_555
H6 C8 1_555 1_555
H7 C8 1_555 1_555
C9 N1 1_555 1_555
C10 C1 1_555 1_555
C11 C2 1_555 1_555
C12 C7 1_555 1_555
H8 C12 1_555 1_555
C13 C1 1_555 1_555
H9 C13 1_555 1_555
C14 C7 1_555 1_555
H10 C14 1_555 1_555
C15 C5 1_555 1_555
H11 C15 1_555 1_555
C16 C11 1_555 1_555
H12 C16 1_555 1_555
C17 C13 1_555 1_555
H13 C17 1_555 1_555
C18 C12 1_555 1_555
H14 C18 1_555 1_555
C19 H15 1_555 1_555
C20 C16 1_555 1_555
H16 C20 1_555 1_555
C21 C14 1_555 1_555
H17 C21 1_555 1_555
C22 C18 1_555 1_555
H18 C22 1_555 1_555
C23 C19 1_555 1_555
H19 C23 1_555 1_555
C24 C15 1_555 1_555
H20 C24 1_555 1_555
C25 C11 1_555 1_555
H21 C25 1_555 1_555
H22 C10 1_555 1_555
N2 C9 1_555 1_555
C2 C6 1_555 1_555
C3 C8 1_555 1_555
C9 C10 1_555 1_555
C17 C24 1_555 1_555
C19 C20 1_555 1_555
C21 C22 1_555 1_555
C23 C25 1_555 1_555

#END
