
#######################################################################
#
#                 Cambridge Crystallographic Data Centre
#                                CCDC 
#
#######################################################################
#
# If this CIF has been generated from an entry in the Cambridge 
# Structural Database, then it will include bibliographic, chemical, 
# crystal, experimental, refinement or atomic coordinate data resulting 
# from the CCDC's data processing and validation procedures.
#
#######################################################################

data_DOWGEB
_chemical_formula_moiety         'C36 H46 N4'
_chemical_name_systematic        5,10,15,20-tetrakis(2-Methylpropyl)porphyrin
_symmetry_cell_setting           monoclinic
_symmetry_space_group_name_H-M   'P 2/n'
_symmetry_Int_Tables_number      13
_space_group_name_Hall           '-P 2yac'
loop_
_symmetry_equiv_pos_site_id
_symmetry_equiv_pos_as_xyz
1 x,y,z
2 1/2-x,y,1/2-z
3 -x,-y,-z
4 1/2+x,-y,1/2+z
_cell_length_a                   11.210(7)
_cell_length_b                   6.419(3)
_cell_length_c                   21.217(15)
_cell_angle_alpha                90
_cell_angle_beta                 101.51(5)
_cell_angle_gamma                90
_cell_volume                     1496.01
_exptl_crystal_colour            black
_exptl_crystal_description       parallelepiped
_chemical_melting_point          285deg.C
_cell_formula_units_Z            2
_exptl_crystal_recrystallization_method chloroform/n-hexane
loop_
_atom_site_label
_atom_site_type_symbol
_atom_site_fract_x
_atom_site_fract_y
_atom_site_fract_z
N1 N 0.4410(3) 0.2674(6) 0.4355(2)
H1 H 0.4691(3) 0.3756(6) 0.4593(2)
N2 N 0.6752(3) 0.3690(6) 0.5180(2)
C1 C 0.3246(4) 0.2403(7) 0.4028(2)
C2 C 0.3160(4) 0.0441(8) 0.3681(2)
H2 H 0.2457(4) -0.0114(8) 0.3407(2)
C3 C 0.4268(4) -0.0432(8) 0.3823(2)
H3 H 0.4490(4) -0.1740(8) 0.3671(2)
C4 C 0.5064(4) 0.0951(7) 0.4246(2)
C5 C 0.6295(4) 0.0546(7) 0.4497(2)
C6 C 0.6784(4) -0.1528(7) 0.4331(2)
H4 H 0.6176(4) -0.2611(7) 0.4373(2)
H5 H 0.7528(4) -0.1837(7) 0.4656(2)
C7 C 0.7103(4) -0.1749(8) 0.3651(2)
H6 H 0.6346(4) -0.1465(8) 0.3324(2)
C8 C 0.7478(5) -0.3973(8) 0.3566(3)
H7 H 0.6831(5) -0.4916(8) 0.3639(3)
H8 H 0.8230(5) -0.4281(8) 0.3876(3)
H9 H 0.7616(5) -0.4165(8) 0.3128(3)
C9 C 0.8067(5) -0.0195(9) 0.3545(2)
H10 H 0.7785(5) 0.1223(9) 0.3604(2)
H11 H 0.8211(5) -0.0346(9) 0.3106(2)
H12 H 0.8825(5) -0.0460(9) 0.3854(2)
C10 C 0.7074(4) 0.1849(7) 0.4920(2)
C11 C 0.8337(4) 0.1577(8) 0.5163(2)
H13 H 0.8818(4) 0.0457(8) 0.5059(2)
C12 C 0.8746(4) 0.3156(8) 0.5562(2)
H14 H 0.9560(4) 0.3343(8) 0.5788(2)
C13 C 0.7741(4) 0.4513(7) 0.5589(2)
C14 C 0.2236(4) 0.3703(8) 0.4036(2)
C15 C 0.1039(4) 0.3052(8) 0.3600(2)
H15 H 0.0931(4) 0.1532(8) 0.3644(2)
H16 H 0.0359(4) 0.3757(8) 0.3748(2)
C16 C 0.0964(4) 0.3566(8) 0.2882(2)
H17 H 0.1710(4) 0.2984(8) 0.2755(2)
C17 C 0.0942(6) 0.5857(9) 0.2753(3)
H18 H 0.1658(6) 0.6510(9) 0.3021(3)
H19 H 0.0953(6) 0.6099(9) 0.2298(3)
H20 H 0.0201(6) 0.6463(9) 0.2856(3)
C18 C -0.0134(4) 0.2484(9) 0.2476(2)
H21 H -0.0094(4) 0.0988(9) 0.2569(2)
H22 H -0.0882(4) 0.3063(9) 0.2577(2)
H23 H -0.0132(4) 0.2705(9) 0.2019(2)
C14B C 0.7764(4) 0.6297(8) 0.5964(2)
C1B C 0.6754(4) 0.7597(7) 0.5972(2)
N1B N 0.5590(3) 0.7326(6) 0.5645(2)
H1B H 0.5309(3) 0.6244(6) 0.5407(2)
C4B C 0.4936(4) 0.9049(7) 0.5754(2)
C3B C 0.5732(4) 1.0432(8) 0.6177(2)
C2B C 0.6840(4) 0.9559(8) 0.6319(2)
H2B H 0.7543(4) 1.0114(8) 0.6593(2)
H3B H 0.5510(4) 1.1740(8) 0.6329(2)
C5B C 0.3705(4) 0.9454(7) 0.5503(2)
C6B C 0.3216(4) 1.1528(7) 0.5669(2)
H4B H 0.3824(4) 1.2611(7) 0.5627(2)
H5B H 0.2472(4) 1.1837(7) 0.5344(2)
C7B C 0.2897(4) 1.1749(8) 0.6349(2)
H6B H 0.3654(4) 1.1465(8) 0.6676(2)
C8B C 0.2522(5) 1.3973(8) 0.6434(3)
H7B H 0.3169(5) 1.4916(8) 0.6361(3)
H8B H 0.1770(5) 1.4281(8) 0.6124(3)
H9B H 0.2384(5) 1.4165(8) 0.6872(3)
C9B C 0.1933(5) 1.0195(9) 0.6455(2)
H10B H 0.2215(5) 0.8777(9) 0.6396(2)
H11B H 0.1789(5) 1.0346(9) 0.6894(2)
H12B H 0.1175(5) 1.0460(9) 0.6146(2)
C10B C 0.2926(4) 0.8151(7) 0.5080(2)
N2B N 0.3248(3) 0.6310(6) 0.4820(2)
C13B C 0.2259(4) 0.5487(7) 0.4411(2)
C12B C 0.1254(4) 0.6844(8) 0.4438(2)
C11B C 0.1663(4) 0.8423(8) 0.4837(2)
H13B H 0.1182(4) 0.9543(8) 0.4941(2)
H14B H 0.0440(4) 0.6657(8) 0.4212(2)
C15B C 0.8961(4) 0.6948(8) 0.6400(2)
H15B H 0.9069(4) 0.8468(8) 0.6356(2)
H16B H 0.9641(4) 0.6243(8) 0.6252(2)
C16B C 0.9036(4) 0.6434(8) 0.7118(2)
H17B H 0.8290(4) 0.7016(8) 0.7245(2)
C17B C 0.9058(6) 0.4143(9) 0.7247(3)
H18B H 0.8342(6) 0.3490(9) 0.6979(3)
H19B H 0.9047(6) 0.3901(9) 0.7702(3)
H20B H 0.9799(6) 0.3537(9) 0.7144(3)
C18B C 1.0134(4) 0.7516(9) 0.7524(2)
H21B H 1.0094(4) 0.9012(9) 0.7431(2)
H22B H 1.0882(4) 0.6937(9) 0.7423(2)
H23B H 1.0132(4) 0.7295(9) 0.7981(2)
H24? H 0.6020(3) 0.4250(6) 0.5096(2)
loop_
_geom_bond_atom_site_label_1
_geom_bond_atom_site_label_2
_geom_bond_site_symmetry_1
_geom_bond_site_symmetry_2
N1 H1 1_555 1_555
N2 C10 1_555 1_555
C1 N1 1_555 1_555
C2 C1 1_555 1_555
H2 C2 1_555 1_555
C3 C2 1_555 1_555
H3 C3 1_555 1_555
C4 N1 1_555 1_555
C5 C4 1_555 1_555
C6 C5 1_555 1_555
H4 C6 1_555 1_555
H5 C6 1_555 1_555
C7 C6 1_555 1_555
H6 C7 1_555 1_555
C8 C7 1_555 1_555
H7 C8 1_555 1_555
H8 C8 1_555 1_555
H9 C8 1_555 1_555
C9 C7 1_555 1_555
H10 C9 1_555 1_555
H11 C9 1_555 1_555
H12 C9 1_555 1_555
C10 C5 1_555 1_555
C11 C10 1_555 1_555
H13 C11 1_555 1_555
C12 C11 1_555 1_555
H14 C12 1_555 1_555
C13 N2 1_555 1_555
C14 C1 1_555 1_555
C15 C14 1_555 1_555
H15 C15 1_555 1_555
H16 C15 1_555 1_555
C16 C15 1_555 1_555
H17 C16 1_555 1_555
C17 C16 1_555 1_555
H18 C17 1_555 1_555
H19 C17 1_555 1_555
H20 C17 1_555 1_555
C18 C16 1_555 1_555
H21 C18 1_555 1_555
H22 C18 1_555 1_555
H23 C18 1_555 1_555
C14B C13 1_555 1_555
C1B C14B 1_555 1_555
N1B C1B 1_555 1_555
H1B N1B 1_555 1_555
C4B N1B 1_555 1_555
C3B C4B 1_555 1_555
C2B C1B 1_555 1_555
H2B C2B 1_555 1_555
H3B C3B 1_555 1_555
C5B C4B 1_555 1_555
C6B C5B 1_555 1_555
H4B C6B 1_555 1_555
H5B C6B 1_555 1_555
C7B C6B 1_555 1_555
H6B C7B 1_555 1_555
C8B C7B 1_555 1_555
H7B C8B 1_555 1_555
H8B C8B 1_555 1_555
H9B C8B 1_555 1_555
C9B C7B 1_555 1_555
H10B C9B 1_555 1_555
H11B C9B 1_555 1_555
H12B C9B 1_555 1_555
C10B C5B 1_555 1_555
N2B C10B 1_555 1_555
C13B C14 1_555 1_555
C12B C13B 1_555 1_555
C11B C10B 1_555 1_555
H13B C11B 1_555 1_555
H14B C12B 1_555 1_555
C15B C14B 1_555 1_555
H15B C15B 1_555 1_555
H16B C15B 1_555 1_555
C16B C15B 1_555 1_555
H17B C16B 1_555 1_555
C17B C16B 1_555 1_555
H18B C17B 1_555 1_555
H19B C17B 1_555 1_555
H20B C17B 1_555 1_555
C18B C16B 1_555 1_555
H21B C18B 1_555 1_555
H22B C18B 1_555 1_555
H23B C18B 1_555 1_555
C3 C4 1_555 1_555
C12 C13 1_555 1_555
C3B C2B 1_555 1_555
N2B C13B 1_555 1_555
C12B C11B 1_555 1_555

#END
