
#######################################################################
#
#                 Cambridge Crystallographic Data Centre
#                                CCDC 
#
#######################################################################
#
# If this CIF has been generated from an entry in the Cambridge 
# Structural Database, then it will include bibliographic, chemical, 
# crystal, experimental, refinement or atomic coordinate data resulting 
# from the CCDC's data processing and validation procedures.
#
#######################################################################

data_DOWHUT
_chemical_name_common            (E)-3-(Naphthalen-2-ylmethylene)indolin-2-one
_chemical_formula_moiety         'C19 H13 N1 O1'
_chemical_name_systematic        
3-(2-Naphthylmethylene)-1,3-dihydro-2H-indol-2-one
_chemical_properties_biological  'tested for antiproliferative activity'
_symmetry_cell_setting           monoclinic
_symmetry_space_group_name_H-M   'P 21/c'
_symmetry_Int_Tables_number      14
_space_group_name_Hall           '-P 2ybc'
loop_
_symmetry_equiv_pos_site_id
_symmetry_equiv_pos_as_xyz
1 x,y,z
2 -x,1/2+y,1/2-z
3 -x,-y,-z
4 x,1/2-y,1/2+z
_cell_length_a                   13.8226(10)
_cell_length_b                   3.9414(3)
_cell_length_c                   24.9076(16)
_cell_angle_alpha                90
_cell_angle_beta                 101.261(2)
_cell_angle_gamma                90
_cell_volume                     1330.85
_exptl_crystal_colour            yellow
_exptl_crystal_description       needle
_chemical_melting_point          '198-199 deg.C'
_cell_formula_units_Z            4
_exptl_crystal_recrystallization_method ethanol
loop_
_atom_site_label
_atom_site_type_symbol
_atom_site_fract_x
_atom_site_fract_y
_atom_site_fract_z
O1 O 0.36918(8) -0.4226(4) 0.50301(5)
N1 N 0.45998(10) -0.2344(4) 0.44075(5)
H1 H 0.5170(13) -0.326(5) 0.4574(7)
C1 C 0.37621(11) -0.2783(4) 0.46016(6)
C2 C 0.29379(11) -0.1226(4) 0.41925(6)
C3 C 0.34042(10) 0.0065(4) 0.37520(6)
C4 C 0.30813(12) 0.1845(4) 0.32699(6)
H2 H 0.2419 0.2421 0.3164
C5 C 0.37467(12) 0.2760(4) 0.29474(7)
H3 H 0.3527 0.3911 0.2620
C6 C 0.47370(12) 0.1979(5) 0.31068(7)
H4 H 0.5174 0.2609 0.2884
C7 C 0.50896(12) 0.0279(4) 0.35912(7)
H5 H 0.5757 -0.0214 0.3701
C8 C 0.44164(11) -0.0660(4) 0.39051(6)
C9 C 0.20369(11) -0.1194(4) 0.43108(7)
H6 H 0.2011 -0.2012 0.4658
C10 C 0.10791(11) -0.0106(4) 0.39934(7)
C11 C 0.08056(11) -0.0576(4) 0.34199(7)
H7 H 0.1255 -0.1524 0.3230
C12 C -0.01051(12) 0.0338(4) 0.31436(7)
H8 H -0.0269 -0.0023 0.2768
C13 C -0.08038(11) 0.1818(4) 0.34134(7)
C14 C -0.17603(12) 0.2828(5) 0.31393(8)
H9 H -0.1938 0.2582 0.2762
C15 C -0.24170(13) 0.4144(5) 0.34208(9)
H10 H -0.3040 0.4785 0.3234
C16 C -0.21710(13) 0.4551(5) 0.39880(9)
H11 H -0.2631 0.5443 0.4176
C17 C -0.12596(13) 0.3644(5) 0.42659(8)
H12 H -0.1100 0.3944 0.4643
C18 C -0.05534(11) 0.2253(4) 0.39884(6)
C19 C 0.03926(11) 0.1220(4) 0.42638(6)
H13 H 0.0555 0.1449 0.4642
loop_
_geom_bond_atom_site_label_1
_geom_bond_atom_site_label_2
_geom_bond_site_symmetry_1
_geom_bond_site_symmetry_2
O1 C1 1_555 1_555
N1 H1 1_555 1_555
C1 N1 1_555 1_555
C2 C1 1_555 1_555
C3 C2 1_555 1_555
C4 C3 1_555 1_555
H2 C4 1_555 1_555
C5 C4 1_555 1_555
H3 C5 1_555 1_555
C6 C5 1_555 1_555
H4 C6 1_555 1_555
C7 C6 1_555 1_555
H5 C7 1_555 1_555
C8 N1 1_555 1_555
C9 C2 1_555 1_555
H6 C9 1_555 1_555
C10 C9 1_555 1_555
C11 C10 1_555 1_555
H7 C11 1_555 1_555
C12 C11 1_555 1_555
H8 C12 1_555 1_555
C13 C12 1_555 1_555
C14 C13 1_555 1_555
H9 C14 1_555 1_555
C15 C14 1_555 1_555
H10 C15 1_555 1_555
C16 C15 1_555 1_555
H11 C16 1_555 1_555
C17 C16 1_555 1_555
H12 C17 1_555 1_555
C18 C13 1_555 1_555
C19 C10 1_555 1_555
H13 C19 1_555 1_555
C3 C8 1_555 1_555
C7 C8 1_555 1_555
C17 C18 1_555 1_555
C18 C19 1_555 1_555

#END
