
#######################################################################
#
#                 Cambridge Crystallographic Data Centre
#                                CCDC 
#
#######################################################################
#
# If this CIF has been generated from an entry in the Cambridge 
# Structural Database, then it will include bibliographic, chemical, 
# crystal, experimental, refinement or atomic coordinate data resulting 
# from the CCDC's data processing and validation procedures.
#
#######################################################################

data_DOWHAZ
_chemical_formula_moiety         'C22 H32 N2 O2,0.17(H2 O1)'
_chemical_name_systematic        
(S,S)-4-methyl-2-((3-(4-(2-methylpropyl)-4,5-dihydro-1,3-oxazol-2-yl)-1H-inden-2-yl)amino)pentan-1-ol
_symmetry_cell_setting           hexagonal
_symmetry_space_group_name_H-M   'P 64'
_symmetry_Int_Tables_number      172
_space_group_name_Hall           'P 64'
loop_
_symmetry_equiv_pos_site_id
_symmetry_equiv_pos_as_xyz
1 x,y,z
2 -y,x-y,1/3+z
3 -x+y,-x,2/3+z
4 -x,-y,z
5 y,-x+y,1/3+z
6 x-y,x,2/3+z
_cell_length_a                   30.3427(3)
_cell_length_b                   30.3427(3)
_cell_length_c                   12.00570(10)
_cell_angle_alpha                90
_cell_angle_beta                 90
_cell_angle_gamma                120
_cell_volume                     9572.53
_cell_formula_units_Z            18
loop_
_atom_site_label
_atom_site_type_symbol
_atom_site_fract_x
_atom_site_fract_y
_atom_site_fract_z
O1 O 1.5000 0.5000 0.3729(3)
H4 H 1.4712(18) 0.4975(19) 0.345(4)
H4C H 1.5288(18) 0.5025(19) 0.345(4)
H1 H 1.0357(9) 0.2396(9) 0.441(2)
O2 O 0.95639(6) 0.17734(6) 0.71365(15)
N1 N 1.06172(8) 0.26177(8) 0.45418(18)
N2 N 0.96675(7) 0.18394(7) 0.52658(17)
C1 C 0.98489(8) 0.20281(8) 0.6234(2)
C3 C 1.06814(8) 0.27317(8) 0.5615(2)
C4 C 1.05503(8) 0.27120(8) 0.7519(2)
C5 C 1.10408(8) 0.31261(8) 0.7331(2)
C6 C 1.13362(9) 0.34254(9) 0.8194(2)
H5 H 1.1658 0.3702 0.8060
C8 C 1.03303(8) 0.24756(8) 0.64480(19)
C10 C 1.03667(9) 0.25996(9) 0.8602(2)
H7 H 1.0044 0.2326 0.8742
C19 C 1.06681(10) 0.28983(11) 0.9475(2)
H12 H 1.0546 0.2821 1.0201
C20 C 1.11593(8) 0.31665(9) 0.6108(2)
H13 H 1.1452 0.3127 0.5965
H14 H 1.1224 0.3491 0.5811
O5 O 1.03645(8) 0.29031(9) 0.24215(19)
H15 H 1.0145 0.2775 0.2905
C22 C 1.11431(10) 0.33057(10) 0.9280(2)
H16 H 1.1339 0.3504 0.9873
C27 C 0.92054(9) 0.13384(9) 0.5478(2)
H22 H 0.8930 0.1291 0.4977
C29 C 1.09859(9) 0.28504(9) 0.3642(2)
H24 H 1.1322 0.3070 0.3971
C31 C 0.90750(10) 0.13949(11) 0.6671(3)
H25 H 0.8832 0.1513 0.6696
H26 H 0.8936 0.1075 0.7070
C34 C 1.10067(11) 0.24343(10) 0.2973(2)
H30 H 1.0682 0.2233 0.2601
H31 H 1.1264 0.2595 0.2400
C38 C 0.93130(11) 0.09075(10) 0.5342(3)
H36 H 0.8992 0.0590 0.5397
H37 H 0.9522 0.0918 0.5965
C39 C 1.11215(11) 0.20775(11) 0.3636(3)
H38 H 1.0878 0.1944 0.4254
C42 C 1.08475(12) 0.31790(11) 0.2927(3)
H42 H 1.0855 0.3445 0.3389
H43 H 1.1103 0.3342 0.2351
C44 C 0.95731(10) 0.08916(10) 0.4284(3)
H45 H 0.9901 0.1209 0.4245
C47 C 1.16530(13) 0.23502(15) 0.4140(4)
H49 H 1.1708 0.2112 0.4554
H50 H 1.1685 0.2615 0.4628
H51 H 1.1901 0.2496 0.3555
C52 C 0.96845(19) 0.04568(16) 0.4301(4)
H59 H 0.9873 0.0479 0.4961
H60 H 0.9881 0.0477 0.3655
H61 H 0.9370 0.0138 0.4296
C56 C 0.92769(18) 0.08669(19) 0.3269(3)
H69 H 0.9456 0.0859 0.2617
H70 H 0.9236 0.1161 0.3243
H71 H 0.8948 0.0565 0.3295
C61 C 1.10429(16) 0.16264(13) 0.2940(4)
H80 H 1.1123 0.1411 0.3379
H81 H 1.1262 0.1746 0.2301
H82 H 1.0695 0.1437 0.2702
H2 H 1.4997(11) 0.5901(10) 0.299(2)
O3 O 1.43189(7) 0.50951(7) 0.03428(17)
C2 C 1.46265(9) 0.53717(8) 0.1197(2)
N3 N 1.44331(8) 0.52564(8) 0.2177(2)
N5 N 1.53122(9) 0.61491(8) 0.2784(2)
C11 C 1.53827(9) 0.59138(9) -0.0138(2)
C12 C 1.61932(11) 0.65640(10) -0.0863(3)
H8 H 1.6513 0.6848 -0.0755
C14 C 1.54293(9) 0.61306(9) 0.1725(2)
C16 C 1.51258(9) 0.57787(8) 0.0934(2)
C17 C 1.59256(10) 0.65231(10) 0.1190(3)
H10 H 1.5972 0.6862 0.1251
H11 H 1.6214 0.6520 0.1530
C21 C 1.58613(10) 0.63546(9) 0.0010(3)
C24 C 1.38699(11) 0.46858(11) 0.0870(3)
H18 H 1.3884 0.4373 0.0873
H19 H 1.3563 0.4626 0.0488
C25 C 1.52382(11) 0.57036(10) -0.1187(2)
H20 H 1.4919 0.5419 -0.1300
C26 C 1.38863(10) 0.48753(10) 0.2046(3)
H21 H 1.3784 0.4598 0.2583
C37 C 1.60455(13) 0.63456(13) -0.1917(3)
H35 H 1.6267 0.6487 -0.2517
C40 C 1.56272(10) 0.65211(11) 0.3619(3)
H39 H 1.5864 0.6836 0.3230
C43 C 1.55735(13) 0.59221(12) -0.2075(3)
H44 H 1.5478 0.5781 -0.2782
C45 C 1.36776(11) 0.54753(13) 0.3169(3)
H46 H 1.4029 0.5754 0.3087
C46 C 1.35619(10) 0.51255(12) 0.2188(3)
H47 H 1.3595 0.5318 0.1517
H48 H 1.3209 0.4858 0.2242
C48 C 1.52959(13) 0.66375(16) 0.4375(3)
H52 H 1.5515 0.6895 0.4907
H53 H 1.5073 0.6332 0.4794
C51 C 1.59370(16) 0.63414(17) 0.4250(4)
H56 H 1.6124 0.6258 0.3715
H57 H 1.6185 0.6622 0.4700
O7 O 1.56713(15) 0.59317(14) 0.4926(3)
H58 H 1.5463 0.5690 0.4556
C53 C 1.33379(16) 0.5711(2) 0.3204(5)
H62 H 1.3359 0.5875 0.2506
H63 H 1.3448 0.5958 0.3793
H64 H 1.2992 0.5450 0.3337
C54 C 1.49690(12) 0.68208(15) 0.3804(4)
H65 H 1.4752 0.6557 0.3270
C60 C 1.3645(2) 0.52129(19) 0.4254(4)
H77 H 1.3864 0.5070 0.4228
H78 H 1.3300 0.4947 0.4376
H79 H 1.3749 0.5455 0.4852
C62 C 1.4614(2) 0.6869(3) 0.4643(6)
H83 H 1.4430 0.6557 0.5054
H84 H 1.4379 0.6937 0.4252
H85 H 1.4812 0.7143 0.5149
C63 C 1.52671(18) 0.73089(17) 0.3153(6)
H86 H 1.5486 0.7272 0.2630
H87 H 1.5469 0.7583 0.3656
H88 H 1.5036 0.7382 0.2759
H3 H 1.2474(11) 0.4195(11) 0.648(3)
N4 N 1.25898(8) 0.39807(9) 0.6288(2)
C7 C 1.23298(8) 0.40226(8) 0.4409(2)
O4 O 1.24342(8) 0.30002(7) 0.70858(18)
H6 H 1.2276 0.2741 0.7459
C9 C 1.24043(8) 0.38639(8) 0.3318(2)
C13 C 1.27022(8) 0.36315(9) 0.3446(2)
C15 C 1.22486(10) 0.39083(10) 0.2253(3)
H9 H 1.2053 0.4062 0.2146
C18 C 1.25734(8) 0.38902(8) 0.5205(2)
C23 C 1.28306(10) 0.34421(10) 0.2539(3)
H17 H 1.3023 0.3284 0.2635
N6 N 1.20746(9) 0.44859(9) 0.5651(3)
O6 O 1.19160(9) 0.44719(9) 0.3805(2)
C28 C 1.29067(10) 0.39155(10) 0.7115(2)
H23 H 1.3182 0.3898 0.6725
C30 C 1.21018(9) 0.43287(9) 0.4685(3)
C32 C 1.26737(11) 0.34862(11) 0.1484(3)
H27 H 1.2760 0.3359 0.0870
C33 C 1.28285(9) 0.36310(9) 0.4647(2)
H28 H 1.3194 0.3819 0.4766
H29 H 1.2694 0.3287 0.4922
C35 C 1.23899(12) 0.37187(11) 0.1350(3)
H32 H 1.2289 0.3751 0.0637
C36 C 1.26074(11) 0.34331(11) 0.7784(3)
H33 H 1.2821 0.3420 0.8369
H34 H 1.2318 0.3432 0.8131
C41 C 1.31422(15) 0.43745(12) 0.7892(3)
H40 H 1.3339 0.4320 0.8455
H41 H 1.2870 0.4394 0.8270
C49 C 1.18774(15) 0.48409(13) 0.5467(5)
H54 H 1.1596 0.4759 0.5981
C50 C 1.34869(14) 0.48864(12) 0.7322(4)
H55 H 1.3301 0.4918 0.6688
C55 C 1.39690(16) 0.49185(15) 0.6888(5)
H66 H 1.3884 0.4650 0.6360
H67 H 1.4155 0.4884 0.7497
H68 H 1.4175 0.5242 0.6533
C57 C 1.2269(2) 0.53861(15) 0.5575(5)
H72 H 1.2539 0.5453 0.5051
H73 H 1.2115 0.5584 0.5332
C58 C 1.1683(2) 0.4743(2) 0.4276(6)
H74 H 1.1315 0.4538 0.4255
H75 H 1.1789 0.5060 0.3883
C59 C 1.24983(19) 0.5580(2) 0.6621(5)
H76 H 1.2623 0.5363 0.6929
C64 C 1.3607(2) 0.53225(16) 0.8136(5)
H89 H 1.3295 0.5295 0.8397
H90 H 1.3806 0.5642 0.7762
H91 H 1.3796 0.5303 0.8757
C65 C 1.2945(3) 0.6143(2) 0.6569(7)
H92 H 1.3093 0.6249 0.7295
H93 H 1.2818 0.6359 0.6323
H94 H 1.3199 0.6167 0.6056
C66 C 1.2110(3) 0.5596(4) 0.7447(7)
H95 H 1.2268 0.5710 0.8163
H96 H 1.1819 0.5262 0.7517
H97 H 1.2005 0.5826 0.7171
loop_
_geom_bond_atom_site_label_1
_geom_bond_atom_site_label_2
_geom_bond_site_symmetry_1
_geom_bond_site_symmetry_2
O1 H4 1_555 1_555
H1 N1 1_555 1_555
H2 N5 1_555 1_555
H3 N4 1_555 1_555
O2 C1 1_555 1_555
N1 C3 1_555 1_555
O3 C2 1_555 1_555
N2 C1 1_555 1_555
C1 C8 1_555 1_555
C2 N3 1_555 1_555
C3 C8 1_555 1_555
N3 C26 1_555 1_555
N4 C18 1_555 1_555
C4 C5 1_555 1_555
C5 C6 1_555 1_555
C6 H5 1_555 1_555
C7 C9 1_555 1_555
C8 C4 1_555 1_555
N5 C14 1_555 1_555
O4 H6 1_555 1_555
C9 C13 1_555 1_555
C10 C4 1_555 1_555
H7 C10 1_555 1_555
C11 C16 1_555 1_555
C12 H8 1_555 1_555
C13 C23 1_555 1_555
C14 C16 1_555 1_555
C15 C9 1_555 1_555
H9 C15 1_555 1_555
C16 C2 1_555 1_555
C17 C14 1_555 1_555
H10 C17 1_555 1_555
H11 C17 1_555 1_555
C18 C7 1_555 1_555
C19 C10 1_555 1_555
H12 C19 1_555 1_555
C20 C3 1_555 1_555
H13 C20 1_555 1_555
H14 C20 1_555 1_555
C21 C11 1_555 1_555
O5 H15 1_555 1_555
C22 C6 1_555 1_555
H16 C22 1_555 1_555
C23 H17 1_555 1_555
C24 O3 1_555 1_555
H18 C24 1_555 1_555
H19 C24 1_555 1_555
C25 C11 1_555 1_555
H20 C25 1_555 1_555
C26 C24 1_555 1_555
H21 C26 1_555 1_555
C27 N2 1_555 1_555
H22 C27 1_555 1_555
N6 C30 1_555 1_555
O6 C30 1_555 1_555
C28 N4 1_555 1_555
H23 C28 1_555 1_555
C29 N1 1_555 1_555
H24 C29 1_555 1_555
C30 C7 1_555 1_555
C31 O2 1_555 1_555
H25 C31 1_555 1_555
H26 C31 1_555 1_555
C32 C23 1_555 1_555
H27 C32 1_555 1_555
C33 C13 1_555 1_555
H28 C33 1_555 1_555
H29 C33 1_555 1_555
C34 C29 1_555 1_555
H30 C34 1_555 1_555
H31 C34 1_555 1_555
C35 C15 1_555 1_555
H32 C35 1_555 1_555
C36 O4 1_555 1_555
H33 C36 1_555 1_555
H34 C36 1_555 1_555
C37 C12 1_555 1_555
H35 C37 1_555 1_555
C38 C27 1_555 1_555
H36 C38 1_555 1_555
H37 C38 1_555 1_555
C39 C34 1_555 1_555
H38 C39 1_555 1_555
C40 N5 1_555 1_555
H39 C40 1_555 1_555
C41 C28 1_555 1_555
H40 C41 1_555 1_555
H41 C41 1_555 1_555
C42 O5 1_555 1_555
H42 C42 1_555 1_555
H43 C42 1_555 1_555
C43 C25 1_555 1_555
H44 C43 1_555 1_555
C44 C38 1_555 1_555
H45 C44 1_555 1_555
C45 H46 1_555 1_555
C46 C26 1_555 1_555
H47 C46 1_555 1_555
H48 C46 1_555 1_555
C47 C39 1_555 1_555
H49 C47 1_555 1_555
H50 C47 1_555 1_555
H51 C47 1_555 1_555
C48 C40 1_555 1_555
H52 C48 1_555 1_555
H53 C48 1_555 1_555
C49 N6 1_555 1_555
H54 C49 1_555 1_555
C50 C41 1_555 1_555
H55 C50 1_555 1_555
C51 C40 1_555 1_555
H56 C51 1_555 1_555
H57 C51 1_555 1_555
O7 C51 1_555 1_555
H58 O7 1_555 1_555
C52 C44 1_555 1_555
H59 C52 1_555 1_555
H60 C52 1_555 1_555
H61 C52 1_555 1_555
C53 C45 1_555 1_555
H62 C53 1_555 1_555
H63 C53 1_555 1_555
H64 C53 1_555 1_555
C54 C48 1_555 1_555
H65 C54 1_555 1_555
C55 C50 1_555 1_555
H66 C55 1_555 1_555
H67 C55 1_555 1_555
H68 C55 1_555 1_555
C56 C44 1_555 1_555
H69 C56 1_555 1_555
H70 C56 1_555 1_555
H71 C56 1_555 1_555
C57 C49 1_555 1_555
H72 C57 1_555 1_555
H73 C57 1_555 1_555
C58 O6 1_555 1_555
H74 C58 1_555 1_555
H75 C58 1_555 1_555
C59 C57 1_555 1_555
H76 C59 1_555 1_555
C60 C45 1_555 1_555
H77 C60 1_555 1_555
H78 C60 1_555 1_555
H79 C60 1_555 1_555
C61 C39 1_555 1_555
H80 C61 1_555 1_555
H81 C61 1_555 1_555
H82 C61 1_555 1_555
C62 C54 1_555 1_555
H83 C62 1_555 1_555
H84 C62 1_555 1_555
H85 C62 1_555 1_555
C63 C54 1_555 1_555
H86 C63 1_555 1_555
H87 C63 1_555 1_555
H88 C63 1_555 1_555
C64 C50 1_555 1_555
H89 C64 1_555 1_555
H90 C64 1_555 1_555
H91 C64 1_555 1_555
C65 C59 1_555 1_555
H92 C65 1_555 1_555
H93 C65 1_555 1_555
H94 C65 1_555 1_555
C66 C59 1_555 1_555
H95 C66 1_555 1_555
H96 C66 1_555 1_555
H97 C66 1_555 1_555
H4C O1 1_555 1_555
C5 C20 1_555 1_555
C12 C21 1_555 1_555
C17 C21 1_555 1_555
C18 C33 1_555 1_555
C19 C22 1_555 1_555
C27 C31 1_555 1_555
C28 C36 1_555 1_555
C29 C42 1_555 1_555
C32 C35 1_555 1_555
C37 C43 1_555 1_555
C45 C46 1_555 1_555
C49 C58 1_555 1_555

#END
