
#######################################################################
#
#                 Cambridge Crystallographic Data Centre
#                                CCDC 
#
#######################################################################
#
# If this CIF has been generated from an entry in the Cambridge 
# Structural Database, then it will include bibliographic, chemical, 
# crystal, experimental, refinement or atomic coordinate data resulting 
# from the CCDC's data processing and validation procedures.
#
#######################################################################

data_DOWHON
_chemical_name_common            (E)-3-(4-Ethylbenzylidene)indolin-2-one
_chemical_formula_moiety         'C17 H15 N1 O1'
_chemical_name_systematic        
(E)-3-(4-Ethylbenzylidene)-1,3-dihydro-2H-indol-2-one
_chemical_properties_biological  'tested for antiproliferative activity'
_symmetry_cell_setting           monoclinic
_symmetry_space_group_name_H-M   'P 21/n'
_symmetry_Int_Tables_number      14
_space_group_name_Hall           '-P 2yn'
loop_
_symmetry_equiv_pos_site_id
_symmetry_equiv_pos_as_xyz
1 x,y,z
2 1/2-x,1/2+y,1/2-z
3 -x,-y,-z
4 1/2+x,1/2-y,1/2+z
_cell_length_a                   12.440(2)
_cell_length_b                   4.9770(10)
_cell_length_c                   22.227(4)
_cell_angle_alpha                90
_cell_angle_beta                 105.446(4)
_cell_angle_gamma                90
_cell_volume                     1326.46
_exptl_crystal_colour            yellow
_exptl_crystal_description       rod
_chemical_melting_point          '165-167 deg.C'
_cell_formula_units_Z            4
_exptl_crystal_recrystallization_method ethanol
loop_
_atom_site_label
_atom_site_type_symbol
_atom_site_fract_x
_atom_site_fract_y
_atom_site_fract_z
N1 N 0.2957(3) 0.1792(7) 0.19420(15)
H1 H 0.241(3) 0.212(9) 0.2130(17)
O1 O 0.3876(2) -0.1516(7) 0.26083(13)
C1 C 0.3796(3) 0.0023(9) 0.21626(17)
C2 C 0.3114(3) 0.3197(8) 0.14318(17)
C3 C 0.2429(3) 0.5131(10) 0.1086(2)
H2 H 0.1772 0.5675 0.1184
C4 C 0.2742(4) 0.6232(12) 0.0593(2)
H3 H 0.2288 0.7545 0.0346
C5 C 0.3709(4) 0.5450(13) 0.0455(2)
H4 H 0.3911 0.6249 0.0118
C6 C 0.4387(3) 0.3502(10) 0.08064(18)
H5 H 0.5042 0.2969 0.0705
C7 C 0.4100(3) 0.2344(8) 0.13052(15)
C8 C 0.4579(3) 0.0305(8) 0.17652(15)
C9 C 0.5503(3) -0.1211(8) 0.18973(16)
H6 H 0.5603 -0.2351 0.2245
C10 C 0.6419(4) -0.1316(12) 0.1552(2)
C11 C 0.7492(5) -0.1744(12) 0.19282(17)
H7 H 0.7616 -0.1921 0.2362
C12 C 0.8383(3) -0.1910(12) 0.1662(2)
H8 H 0.9108 -0.2200 0.1917
C13 C 0.8200(3) -0.1648(12) 0.1020(2)
C14 C 0.7127(4) -0.1220(11) 0.06442(17)
H9 H 0.7004 -0.1043 0.0210
C15 C 0.6236(3) -0.1054(11) 0.0910(2)
H10 H 0.5511 -0.0764 0.0656
C16 C 0.9179(8) -0.183(2) 0.0717(4)
H11 H 0.9560 -0.3538 0.0849
H12 H 0.8854 -0.1954 0.0265
C17 C 0.9983(18) 0.013(4) 0.0816(11)
H13 H 1.0523 -0.0314 0.0587
H14 H 1.0356 0.0235 0.1258
H15 H 0.9639 0.1842 0.0672
C18? C 0.6491(4) -0.1332(11) 0.1674(3)
C19? C 0.7048(5) -0.3757(9) 0.1680(3)
C20? C 0.8018(5) -0.3852(9) 0.1482(3)
C21? C 0.8431(4) -0.1524(12) 0.1280(4)
C22? C 0.7874(5) 0.0901(10) 0.1275(3)
C23? C 0.6904(4) 0.0996(8) 0.1472(3)
C24? C 0.9580(14) -0.178(3) 0.1144(9)
C25? C 0.9954(15) 0.056(4) 0.0943(14)
H16? H 0.6768 -0.5331 0.1816
H17? H 0.8394 -0.5492 0.1486
H18? H 0.8153 0.2475 0.1138
H19? H 0.6527 0.2636 0.1469
H20? H 1.0126 -0.2378 0.1525
H21? H 0.9534 -0.3168 0.0826
H22? H 1.0655 0.0224 0.0842
H23? H 1.0065 0.1902 0.1270
H24? H 0.9407 0.1202 0.0574
loop_
_geom_bond_atom_site_label_1
_geom_bond_atom_site_label_2
_geom_bond_site_symmetry_1
_geom_bond_site_symmetry_2
N1 H1 1_555 1_555
O1 C1 1_555 1_555
C1 N1 1_555 1_555
C2 N1 1_555 1_555
C3 C2 1_555 1_555
H2 C3 1_555 1_555
C4 C3 1_555 1_555
H3 C4 1_555 1_555
C5 C4 1_555 1_555
H4 C5 1_555 1_555
C6 C5 1_555 1_555
H5 C6 1_555 1_555
C7 C2 1_555 1_555
C8 C1 1_555 1_555
C9 C8 1_555 1_555
H6 C9 1_555 1_555
C10 C9 1_555 1_555
C11 C10 1_555 1_555
H7 C11 1_555 1_555
C12 C11 1_555 1_555
H8 C12 1_555 1_555
C13 C12 1_555 1_555
C14 C13 1_555 1_555
H9 C14 1_555 1_555
C15 C10 1_555 1_555
H10 C15 1_555 1_555
C16 C13 1_555 1_555
H11 C16 1_555 1_555
H12 C16 1_555 1_555
C17 C16 1_555 1_555
H13 C17 1_555 1_555
H14 C17 1_555 1_555
H15 C17 1_555 1_555
C6 C7 1_555 1_555
C7 C8 1_555 1_555
C14 C15 1_555 1_555

#END
