
#######################################################################
#
#                 Cambridge Crystallographic Data Centre
#                                CCDC 
#
#######################################################################
#
# If this CIF has been generated from an entry in the Cambridge 
# Structural Database, then it will include bibliographic, chemical, 
# crystal, experimental, refinement or atomic coordinate data resulting 
# from the CCDC's data processing and validation procedures.
#
#######################################################################

data_DOWTEQ
_chemical_formula_moiety         'C10 H6 O6 S2 2-,C2 H8 N1 1+,C1 H6 N3 1+,H2 O1'
_chemical_name_systematic        
'guanidinium ethanaminium naphthalene-1,5-disulfonate monohydrate'
_symmetry_cell_setting           triclinic
_symmetry_space_group_name_H-M   'P -1'
_symmetry_Int_Tables_number      2
_space_group_name_Hall           '-P 1'
loop_
_symmetry_equiv_pos_site_id
_symmetry_equiv_pos_as_xyz
1 x,y,z
2 -x,-y,-z
_cell_length_a                   8.7810(18)
_cell_length_b                   9.3448(19)
_cell_length_c                   11.695(2)
_cell_angle_alpha                97.23(3)
_cell_angle_beta                 101.57(3)
_cell_angle_gamma                90.37(3)
_cell_volume                     932.182
_exptl_crystal_colour            colorless
_exptl_crystal_description       block
_cell_formula_units_Z            2
loop_
_atom_site_label
_atom_site_type_symbol
_atom_site_fract_x
_atom_site_fract_y
_atom_site_fract_z
C1 C 0.5191(7) 1.5608(6) 0.2948(6)
H1 H 0.6066 1.5547 0.2569
H2 H 0.5542 1.5929 0.3773
H3 H 0.4474 1.6283 0.2605
C2 C 0.4465(6) 1.4277(6) 0.2803(6)
H4 H 0.3644 1.4294 0.3249
H5 H 0.5201 1.3557 0.3061
N1 N 0.3787(4) 1.3945(4) 0.1472(3)
H6 H 0.3134 1.4628 0.1248
H7 H 0.3281 1.3092 0.1323
H8 H 0.4557 1.3922 0.1078
C3 C 0.8779(4) 1.3541(4) 0.3981(3)
H9 H 0.8501 1.3227 0.3178
S1 S 0.99020(10) 1.50402(10) 0.79488(9)
O1 O 0.8877(3) 1.4147(3) 0.8418(2)
O2 O 0.9565(3) 1.6557(3) 0.8121(2)
O3 O 1.1531(3) 1.4754(3) 0.8372(2)
C4 C 1.0185(4) 1.5245(3) 0.5612(3)
C5 C 0.9524(4) 1.4483(4) 0.6397(3)
C6 C 0.8193(4) 1.2837(4) 0.4746(4)
H10 H 0.7538 1.2030 0.4461
C7 C 0.8551(4) 1.3296(4) 0.5961(4)
H11 H 0.8130 1.2798 0.6471
C3A C 1.1221(4) 1.6459(4) 0.6019(3)
H9A H 1.1499 1.6773 0.6822
S1A S 1.00980(10) 1.49598(10) 0.20512(9)
O1A O 1.1123(3) 1.5853(3) 0.1582(2)
O2A O 1.0435(3) 1.3443(3) 0.1879(2)
O3A O 0.8469(3) 1.5246(3) 0.1628(2)
C4A C 0.9815(4) 1.4755(3) 0.4388(3)
C5A C 1.0476(4) 1.5517(4) 0.3603(3)
C6A C 1.1807(4) 1.7163(4) 0.5254(4)
H10A H 1.2462 1.7970 0.5539
C7A C 1.1449(4) 1.6704(4) 0.4039(4)
H11A H 1.1870 1.7202 0.3529
S2 S 0.41725(11) 1.02630(10) 0.20327(7)
O4 O 0.2801(3) 1.0900(3) 0.1404(2)
C8 C 0.3960(4) 1.0433(3) 0.3529(3)
C9 C 0.5105(3) 0.9891(3) 0.4408(3)
O5 O 0.4270(4) 0.8738(3) 0.1650(2)
C10 C 0.2694(4) 1.1129(4) 0.3812(3)
H12 H 0.1963 1.1475 0.3228
O6 O 0.5599(3) 1.1063(3) 0.2040(2)
C11 C 0.6435(4) 0.9163(4) 0.4159(3)
H13 H 0.6582 0.9013 0.3387
C12 C 0.2499(4) 1.1322(4) 0.4975(3)
H14 H 0.1630 1.1787 0.5160
S2A S 0.58275(11) 0.97370(10) 0.79673(7)
O4A O 0.7199(3) 0.9100(3) 0.8596(2)
C8A C 0.6040(4) 0.9567(3) 0.6471(3)
C9A C 0.4895(3) 1.0109(3) 0.5592(3)
O5A O 0.5730(4) 1.1262(3) 0.8350(2)
C10A C 0.7306(4) 0.8871(4) 0.6188(3)
H12A H 0.8037 0.8525 0.6772
O6A O 0.4401(3) 0.8937(3) 0.7960(2)
C11A C 0.3565(4) 1.0837(4) 0.5841(3)
H13A H 0.3418 1.0987 0.6613
C12A C 0.7501(4) 0.8678(4) 0.5025(3)
H14A H 0.8370 0.8213 0.4840
N2 N 0.7728(3) 0.8273(3) 0.1310(3)
H15 H 0.6818 0.8556 0.1383
H16 H 0.7922 0.7369 0.1262
C13 C 0.8830(4) 0.9229(4) 0.1274(3)
N3 N 0.8539(4) 1.0607(3) 0.1348(3)
H17 H 0.7629 1.0892 0.1420
H18 H 0.9256 1.1226 0.1324
N4 N 1.0225(4) 0.8783(4) 0.1153(3)
H19 H 1.0943 0.9399 0.1122
H20 H 1.0412 0.7878 0.1105
O7 O 0.6125(3) 1.3591(4) 0.0100(3)
H21 H 0.618(5) 1.277(3) -0.032(4)
H22 H 0.698(4) 1.371(5) 0.060(3)
loop_
_geom_bond_atom_site_label_1
_geom_bond_atom_site_label_2
_geom_bond_site_symmetry_1
_geom_bond_site_symmetry_2
C1 H1 1_555 1_555
H2 C1 1_555 1_555
H3 C1 1_555 1_555
C2 C1 1_555 1_555
H4 C2 1_555 1_555
H5 C2 1_555 1_555
N1 C2 1_555 1_555
H6 N1 1_555 1_555
H7 N1 1_555 1_555
H8 N1 1_555 1_555
C3 H9 1_555 1_555
S1 O1 1_555 1_555
O2 S1 1_555 1_555
O3 S1 1_555 1_555
C4 C5 1_555 1_555
C5 S1 1_555 1_555
C6 C3 1_555 1_555
H10 C6 1_555 1_555
C7 C5 1_555 1_555
H11 C7 1_555 1_555
S2 O4 1_555 1_555
C8 S2 1_555 1_555
C9 C8 1_555 1_555
O5 S2 1_555 1_555
C10 C8 1_555 1_555
H12 C10 1_555 1_555
O6 S2 1_555 1_555
C11 C9 1_555 1_555
H13 C11 1_555 1_555
C12 C10 1_555 1_555
H14 C12 1_555 1_555
N2 H15 1_555 1_555
H16 N2 1_555 1_555
C13 N2 1_555 1_555
N3 C13 1_555 1_555
H17 N3 1_555 1_555
H18 N3 1_555 1_555
N4 C13 1_555 1_555
H19 N4 1_555 1_555
H20 N4 1_555 1_555
O7 H21 1_555 1_555
H22 O7 1_555 1_555
C3A C4 1_555 1_555
H9A C3A 1_555 1_555
S1A O1A 1_555 1_555
O2A S1A 1_555 1_555
O3A S1A 1_555 1_555
C4A C3 1_555 1_555
C5A S1A 1_555 1_555
C6A C3A 1_555 1_555
H10A C6A 1_555 1_555
C7A C5A 1_555 1_555
H11A C7A 1_555 1_555
S2A O4A 1_555 1_555
C8A S2A 1_555 1_555
C9A C9 1_555 1_555
O5A S2A 1_555 1_555
C10A C8A 1_555 1_555
H12A C10A 1_555 1_555
O6A S2A 1_555 1_555
C11A C12 1_555 1_555
H13A C11A 1_555 1_555
C12A C11 1_555 1_555
H14A C12A 1_555 1_555
C4 C4A 1_555 1_555
C6 C7 1_555 1_555
C4A C5A 1_555 1_555
C6A C7A 1_555 1_555
C8A C9A 1_555 1_555
C9A C11A 1_555 1_555
C10A C12A 1_555 1_555

#END
