
#######################################################################
#
#                 Cambridge Crystallographic Data Centre
#                                CCDC 
#
#######################################################################
#
# If this CIF has been generated from an entry in the Cambridge 
# Structural Database, then it will include bibliographic, chemical, 
# crystal, experimental, refinement or atomic coordinate data resulting 
# from the CCDC's data processing and validation procedures.
#
#######################################################################

data_DOWTIU
_chemical_formula_moiety         'C10 H6 O6 S2 2-,C3 H10 N1 1+,C1 H6 N3 1+'
_chemical_name_systematic        
'guanidinium propan-1-aminium naphthalene-1,5-disulfonate'
_symmetry_cell_setting           triclinic
_symmetry_space_group_name_H-M   'P -1'
_symmetry_Int_Tables_number      2
_space_group_name_Hall           '-P 1'
loop_
_symmetry_equiv_pos_site_id
_symmetry_equiv_pos_as_xyz
1 x,y,z
2 -x,-y,-z
_cell_length_a                   8.9071(18)
_cell_length_b                   9.2503(19)
_cell_length_c                   11.408(2)
_cell_angle_alpha                80.05(3)
_cell_angle_beta                 81.21(3)
_cell_angle_gamma                88.06(3)
_cell_volume                     914.905
_exptl_crystal_colour            colorless
_exptl_crystal_description       block
_cell_formula_units_Z            2
loop_
_atom_site_label
_atom_site_type_symbol
_atom_site_fract_x
_atom_site_fract_y
_atom_site_fract_z
S1 S 0.51136(6) 1.04278(6) 0.19333(4)
O1 O 0.64763(18) 0.95425(18) 0.17130(14)
O2 O 0.39163(19) 1.00445(19) 0.13112(13)
O3 O 0.5428(2) 1.19965(17) 0.16772(14)
C1 C 0.4420(2) 0.9957(2) 0.34972(18)
C2 C 0.3024(3) 0.9301(3) 0.3819(2)
H1 H 0.2472 0.9133 0.3227
C3 C 0.2429(3) 0.8883(3) 0.5035(2)
H2 H 0.1485 0.8435 0.5248
C4 C 0.3227(2) 0.9129(2) 0.59091(19)
H3 H 0.2807 0.8865 0.6713
C5 C 0.4689(2) 0.9782(2) 0.56167(16)
S1A S 0.48864(6) 0.95722(6) 0.80667(4)
O1A O 0.35237(18) 1.04575(18) 0.82870(14)
O2A O 0.60837(19) 0.99555(19) 0.86888(13)
O3A O 0.4572(2) 0.80035(17) 0.83228(14)
C1A C 0.5580(2) 1.0043(2) 0.65028(18)
C2A C 0.6976(3) 1.0699(3) 0.6181(2)
H1A H 0.7528 1.0867 0.6773
C3A C 0.7571(3) 1.1117(3) 0.4965(2)
H2A H 0.8515 1.1565 0.4752
C4A C 0.6773(2) 1.0871(2) 0.40909(19)
H3A H 0.7193 1.1135 0.3287
C5A C 0.5311(2) 1.0218(2) 0.43833(16)
S2 S 0.10696(7) 0.57948(6) 0.19143(5)
O4 O 0.2198(2) 0.4985(2) 0.12068(16)
O5 O -0.0434(2) 0.5720(2) 0.16022(16)
O6 O 0.1585(2) 0.72841(19) 0.18785(16)
C6 C 0.1895(3) 0.3667(3) 0.3668(2)
H4 H 0.2532 0.3346 0.3037
C7 C 0.0993(3) 0.4878(2) 0.3441(2)
C8 C 0.0008(2) 0.5400(2) 0.44070(19)
C9 C -0.0946(3) 0.6653(3) 0.4215(2)
H5 H -0.0942 0.7174 0.3440
C10 C -0.1866(3) 0.7096(3) 0.5154(2)
H6 H -0.2486 0.7917 0.5014
S2A S -0.10696(7) 0.42052(6) 0.80857(5)
O4A O -0.2198(2) 0.5015(2) 0.87932(16)
O5A O 0.0434(2) 0.4280(2) 0.83978(16)
O6A O -0.1585(2) 0.27159(19) 0.81215(16)
C6A C -0.1895(3) 0.6333(3) 0.6332(2)
H4A H -0.2532 0.6654 0.6963
C7A C -0.0993(3) 0.5122(2) 0.6559(2)
C8A C -0.0008(2) 0.4600(2) 0.55930(19)
C9A C 0.0946(3) 0.3347(3) 0.5785(2)
H5A H 0.0942 0.2826 0.6560
C10A C 0.1866(3) 0.2904(3) 0.4846(2)
H6A H 0.2486 0.2083 0.4986
N1 N 1.1415(2) 0.1988(3) 0.1044(2)
H7 H 1.2149 0.1360 0.1070
H8 H 1.1606 0.2912 0.0902
N2 N 0.8876(2) 0.2525(2) 0.1187(2)
H9 H 0.7945 0.2247 0.1307
H10 H 0.9085 0.3446 0.1045
N3 N 0.9686(3) 0.0122(2) 0.1441(2)
H11 H 1.0412 -0.0514 0.1468
H12 H 0.8758 -0.0165 0.1556
C11 C 0.9993(3) 0.1532(3) 0.1223(2)
N4 N 0.4913(2) 0.7092(2) 0.08660(17)
H13 H 0.5380 0.7922 0.0882
H14 H 0.3948 0.7140 0.1207
H15 H 0.4947 0.6966 0.0106
C12 C 0.5682(3) 0.5842(3) 0.1535(2)
H16 H 0.6752 0.5846 0.1205
H17 H 0.5254 0.4931 0.1429
C13 C 0.5518(3) 0.5907(3) 0.2852(2)
H18 H 0.4452 0.6015 0.3165
H19 H 0.6051 0.6757 0.2967
C14 C 0.6151(3) 0.4533(3) 0.3540(3)
H20 H 0.7184 0.4384 0.3192
H21 H 0.5553 0.3703 0.3499
H22 H 0.6118 0.4639 0.4366
loop_
_geom_bond_atom_site_label_1
_geom_bond_atom_site_label_2
_geom_bond_site_symmetry_1
_geom_bond_site_symmetry_2
S1 O1 1_555 1_555
O2 S1 1_555 1_555
O3 S1 1_555 1_555
C1 S1 1_555 1_555
C2 C1 1_555 1_555
H1 C2 1_555 1_555
C3 C2 1_555 1_555
H2 C3 1_555 1_555
C4 C3 1_555 1_555
H3 C4 1_555 1_555
C5 C4 1_555 1_555
S2 O4 1_555 1_555
O5 S2 1_555 1_555
O6 S2 1_555 1_555
C6 H4 1_555 1_555
C7 S2 1_555 1_555
C8 C7 1_555 1_555
C9 C8 1_555 1_555
H5 C9 1_555 1_555
C10 C9 1_555 1_555
H6 C10 1_555 1_555
N1 H7 1_555 1_555
H8 N1 1_555 1_555
N2 H9 1_555 1_555
H10 N2 1_555 1_555
N3 H11 1_555 1_555
H12 N3 1_555 1_555
C11 N1 1_555 1_555
N4 H13 1_555 1_555
H14 N4 1_555 1_555
H15 N4 1_555 1_555
C12 N4 1_555 1_555
H16 C12 1_555 1_555
H17 C12 1_555 1_555
C13 C12 1_555 1_555
H18 C13 1_555 1_555
H19 C13 1_555 1_555
C14 C13 1_555 1_555
H20 C14 1_555 1_555
H21 C14 1_555 1_555
H22 C14 1_555 1_555
S1A O1A 1_555 1_555
O2A S1A 1_555 1_555
O3A S1A 1_555 1_555
C1A C5 1_555 1_555
C2A C1A 1_555 1_555
H1A C2A 1_555 1_555
C3A C2A 1_555 1_555
H2A C3A 1_555 1_555
C4A C3A 1_555 1_555
H3A C4A 1_555 1_555
C5A C1 1_555 1_555
S2A O4A 1_555 1_555
O5A S2A 1_555 1_555
O6A S2A 1_555 1_555
C6A C10 1_555 1_555
H4A C6A 1_555 1_555
C7A S2A 1_555 1_555
C8A C8 1_555 1_555
C9A C8A 1_555 1_555
H5A C9A 1_555 1_555
C10A C6 1_555 1_555
H6A C10A 1_555 1_555
C5 C5A 1_555 1_555
C6 C7 1_555 1_555
N2 C11 1_555 1_555
N3 C11 1_555 1_555
S1A C1A 1_555 1_555
C4A C5A 1_555 1_555
C6A C7A 1_555 1_555
C7A C8A 1_555 1_555
C9A C10A 1_555 1_555

#END
