
#######################################################################
#
#                 Cambridge Crystallographic Data Centre
#                                CCDC 
#
#######################################################################
#
# If this CIF has been generated from an entry in the Cambridge 
# Structural Database, then it will include bibliographic, chemical, 
# crystal, experimental, refinement or atomic coordinate data resulting 
# from the CCDC's data processing and validation procedures.
#
#######################################################################

data_DOWVOC40
_chemical_formula_moiety         'C10 H6 O6 S2 2-,C5 H6 N1 1+,C1 H6 N3 1+'
_chemical_name_systematic        
'guanidinium pyridinium naphthalene-1,5-disulfonate'
_symmetry_cell_setting           triclinic
_symmetry_space_group_name_H-M   'P -1'
_symmetry_Int_Tables_number      2
_space_group_name_Hall           '-P 1'
loop_
_symmetry_equiv_pos_site_id
_symmetry_equiv_pos_as_xyz
1 x,y,z
2 -x,-y,-z
_cell_length_a                   8.038(8)
_cell_length_b                   8.174(8)
_cell_length_c                   14.132(14)
_cell_angle_alpha                92.308(10)
_cell_angle_beta                 100.312(18)
_cell_angle_gamma                90.536(16)
_cell_volume                     912.641
_exptl_crystal_colour            colorless
_exptl_crystal_description       block
_cell_formula_units_Z            2
loop_
_atom_site_label
_atom_site_type_symbol
_atom_site_fract_x
_atom_site_fract_y
_atom_site_fract_z
C1 C 0.1766(3) 0.7678(3) 0.34666(19)
H1 H 0.2124 0.7190 0.4050
C2 C 0.2114(4) 0.6989(3) 0.2641(2)
H2 H 0.2747 0.6040 0.2656
C3 C 0.1539(4) 0.7682(4) 0.1786(2)
H3 H 0.1771 0.7205 0.1217
C4 C 0.0609(4) 0.9095(4) 0.1769(2)
H4 H 0.0187 0.9566 0.1188
C5 C 0.0322(3) 0.9787(3) 0.2612(2)
H5 H -0.0276 1.0755 0.2616
N1 N 0.0902(3) 0.9070(3) 0.34364(17)
H6 H 0.0714 0.9520 0.3967
C6 C 0.3861(3) 0.2002(3) 0.48000(15)
C7 C 0.4872(3) 0.2806(3) 0.42718(16)
H7 H 0.4605 0.3856 0.4071
C8 C 0.3684(3) -0.2034(3) 0.59637(17)
H8 H 0.2994 -0.2592 0.6309
C9 C 0.3286(3) -0.0490(3) 0.56945(16)
H9 H 0.2352 0.0007 0.5881
C10 C 0.4273(3) 0.0388(3) 0.51309(15)
O1 O 0.05892(19) 0.1844(2) 0.47092(12)
O2 O 0.2258(2) 0.3321(2) 0.60862(12)
O3 O 0.1865(2) 0.4489(2) 0.45008(13)
S1 S 0.19949(7) 0.30162(7) 0.50408(4)
C6A C 0.6139(3) -0.2002(3) 0.52000(15)
C7A C 0.5128(3) -0.2806(3) 0.57282(16)
H7A H 0.5395 -0.3856 0.5929
C8A C 0.6316(3) 0.2034(3) 0.40363(17)
H8A H 0.7006 0.2592 0.3691
C9A C 0.6714(3) 0.0490(3) 0.43055(16)
H9A H 0.7648 -0.0007 0.4119
C10A C 0.5727(3) -0.0388(3) 0.48691(15)
O1A O 0.94108(19) -0.1844(2) 0.52908(12)
O2A O 0.7742(2) -0.3321(2) 0.39138(12)
O3A O 0.8135(2) -0.4489(2) 0.54992(13)
S1A S 0.80051(7) -0.30162(7) 0.49592(4)
C11 C 0.4051(3) 0.1274(3) 0.09032(16)
C12 C 0.4688(3) 0.0535(3) 0.17422(16)
H10 H 0.4408 0.0927 0.2319
C13 C 0.5769(3) -0.0819(3) 0.17360(17)
H11 H 0.6202 -0.1308 0.2309
C14 C 0.3818(3) 0.1414(3) -0.08899(16)
H12 H 0.3111 0.2309 -0.0896
C15 C 0.4449(3) 0.0688(3) -0.00013(16)
O4 O 0.1111(2) 0.2608(2) 0.03329(12)
O5 O 0.3611(2) 0.43972(19) 0.06691(11)
O6 O 0.2530(2) 0.3173(2) 0.19810(11)
S2 S 0.27103(7) 0.29917(7) 0.09744(4)
C11A C 0.5949(3) -0.1274(3) -0.09032(16)
C12A C 0.5312(3) -0.0535(3) -0.17422(16)
H10A H 0.5592 -0.0927 -0.2319
C13A C 0.4231(3) 0.0819(3) -0.17360(17)
H11A H 0.3798 0.1308 -0.2309
C14A C 0.6182(3) -0.1414(3) 0.08899(16)
H12A H 0.6889 -0.2309 0.0896
C15A C 0.5551(3) -0.0688(3) 0.00013(16)
O4A O 0.8889(2) -0.2608(2) -0.03329(12)
O5A O 0.6389(2) -0.43972(19) -0.06691(11)
O6A O 0.7470(2) -0.3173(2) -0.19810(11)
S2A S 0.72897(7) -0.29917(7) -0.09744(4)
C16 C 0.8034(3) 0.4277(3) 0.19101(16)
N2 N 0.8061(3) 0.3770(3) 0.10085(14)
H13 H 0.8937 0.3286 0.0869
H14 H 0.7202 0.3925 0.0564
N3 N 0.9358(2) 0.4039(3) 0.25965(14)
H15 H 1.0235 0.3555 0.2458
H16 H 0.9340 0.4368 0.3180
N4 N 0.6661(2) 0.4987(2) 0.21294(14)
H17 H 0.6631 0.5290 0.2716
H18 H 0.5802 0.5141 0.1685
loop_
_geom_bond_atom_site_label_1
_geom_bond_atom_site_label_2
_geom_bond_site_symmetry_1
_geom_bond_site_symmetry_2
C1 H1 1_555 1_555
C2 C1 1_555 1_555
H2 C2 1_555 1_555
C3 C2 1_555 1_555
H3 C3 1_555 1_555
C4 C3 1_555 1_555
H4 C4 1_555 1_555
C5 C4 1_555 1_555
H5 C5 1_555 1_555
N1 C1 1_555 1_555
H6 N1 1_555 1_555
C6 C7 1_555 1_555
C7 H7 1_555 1_555
C8 H8 1_555 1_555
C9 C8 1_555 1_555
H9 C9 1_555 1_555
C10 C6 1_555 1_555
O1 S1 1_555 1_555
O2 S1 1_555 1_555
O3 S1 1_555 1_555
S1 C6 1_555 1_555
C11 C12 1_555 1_555
C12 H10 1_555 1_555
C13 C12 1_555 1_555
H11 C13 1_555 1_555
C14 H12 1_555 1_555
C15 C11 1_555 1_555
O4 S2 1_555 1_555
O5 S2 1_555 1_555
O6 S2 1_555 1_555
S2 C11 1_555 1_555
C16 N2 1_555 1_555
N2 H13 1_555 1_555
H14 N2 1_555 1_555
N3 C16 1_555 1_555
H15 N3 1_555 1_555
H16 N3 1_555 1_555
N4 C16 1_555 1_555
H17 N4 1_555 1_555
H18 N4 1_555 1_555
C6A C7A 1_555 1_555
C7A C8 1_555 1_555
H7A C7A 1_555 1_555
C8A C7 1_555 1_555
H8A C8A 1_555 1_555
C9A C8A 1_555 1_555
H9A C9A 1_555 1_555
C10A C10 1_555 1_555
O1A S1A 1_555 1_555
O2A S1A 1_555 1_555
O3A S1A 1_555 1_555
S1A C6A 1_555 1_555
C11A C12A 1_555 1_555
C12A H10A 1_555 1_555
C13A C14 1_555 1_555
H11A C13A 1_555 1_555
C14A C13 1_555 1_555
H12A C14A 1_555 1_555
C15A C15 1_555 1_555
O4A S2A 1_555 1_555
O5A S2A 1_555 1_555
O6A S2A 1_555 1_555
S2A C11A 1_555 1_555
C5 N1 1_555 1_555
C9 C10 1_555 1_555
C14 C15 1_555 1_555
C6A C10A 1_555 1_555
C9A C10A 1_555 1_555
C11A C15A 1_555 1_555
C12A C13A 1_555 1_555
C14A C15A 1_555 1_555

#END
