
#######################################################################
#
#                 Cambridge Crystallographic Data Centre
#                                CCDC 
#
#######################################################################
#
# If this CIF has been generated from an entry in the Cambridge 
# Structural Database, then it will include bibliographic, chemical, 
# crystal, experimental, refinement or atomic coordinate data resulting 
# from the CCDC's data processing and validation procedures.
#
#######################################################################

data_DOWVOC28
_chemical_formula_moiety         'C10 H6 O6 S2 2-,C5 H6 N1 1+,C1 H6 N3 1+'
_chemical_name_systematic        
'Guandinium pyridinium naphthalene-1,5-disulfonate'
_symmetry_cell_setting           triclinic
_symmetry_space_group_name_H-M   'P -1'
_symmetry_Int_Tables_number      2
_space_group_name_Hall           '-P 1'
loop_
_symmetry_equiv_pos_site_id
_symmetry_equiv_pos_as_xyz
1 x,y,z
2 -x,-y,-z
_cell_length_a                   7.961(6)
_cell_length_b                   8.127(6)
_cell_length_c                   14.041(11)
_cell_angle_alpha                92.111(8)
_cell_angle_beta                 99.219(14)
_cell_angle_gamma                90.526(13)
_cell_volume                     895.992
_exptl_crystal_colour            colorless
_exptl_crystal_description       block
_cell_formula_units_Z            2
loop_
_atom_site_label
_atom_site_type_symbol
_atom_site_fract_x
_atom_site_fract_y
_atom_site_fract_z
C1 C 0.1773(3) 0.7833(3) 0.34894(19)
H1 H 0.2151 0.7417 0.4093
C2 C 0.2074(3) 0.7006(3) 0.26687(19)
H2 H 0.2696 0.6041 0.2710
C3 C 0.1452(3) 0.7611(3) 0.17845(19)
H3 H 0.1640 0.7049 0.1223
C4 C 0.0543(4) 0.9059(3) 0.17287(19)
H4 H 0.0096 0.9469 0.1133
C5 C 0.0319(3) 0.9871(3) 0.2565(2)
H5 H -0.0262 1.0860 0.2544
N1 N 0.0931(3) 0.9247(3) 0.34119(15)
H6 H 0.0776 0.9777 0.3931
C6 C 0.4025(3) 0.1276(3) 0.09084(16)
C7 C 0.4640(3) 0.0528(3) 0.17459(17)
H7 H 0.4342 0.0919 0.2326
C8 C 0.5722(3) -0.0832(3) 0.17374(17)
H8 H 0.6141 -0.1327 0.2312
C9 C 0.3838(3) 0.1429(3) -0.08853(17)
H9 H 0.3126 0.2331 -0.0889
C10 C 0.4450(3) 0.0693(3) 0.00000(16)
O1 O 0.2473(2) 0.3183(2) 0.19893(11)
O2 O 0.1085(2) 0.2630(2) 0.03420(12)
O3 O 0.3605(2) 0.44098(19) 0.06717(12)
S1 S 0.26825(7) 0.30035(7) 0.09798(4)
C6A C 0.5975(3) -0.1276(3) -0.09084(16)
C7A C 0.5360(3) -0.0528(3) -0.17459(17)
H7A H 0.5658 -0.0919 -0.2326
C8A C 0.4278(3) 0.0832(3) -0.17374(17)
H8A H 0.3859 0.1327 -0.2312
C9A C 0.6162(3) -0.1429(3) 0.08853(17)
H9A H 0.6874 -0.2331 0.0889
C10A C 0.5550(3) -0.0693(3) 0.00000(16)
O1A O 0.7527(2) -0.3183(2) -0.19893(11)
O2A O 0.8915(2) -0.2630(2) -0.03420(12)
O3A O 0.6395(2) -0.44098(19) -0.06717(12)
S1A S 0.73175(7) -0.30035(7) -0.09798(4)
C11 C 0.3866(3) 0.2013(3) 0.47963(16)
C12 C 0.4882(3) 0.2798(3) 0.42492(17)
H10 H 0.4614 0.3850 0.4039
C13 C 0.6335(3) 0.2010(3) 0.40050(17)
H11 H 0.7036 0.2563 0.3649
C14 C 0.6727(3) 0.0466(3) 0.42787(16)
H12 H 0.7664 -0.0044 0.4084
C15 C 0.4275(3) 0.0396(3) 0.51380(15)
O4 O 0.0584(2) 0.18291(19) 0.46991(12)
O5 O 0.2194(2) 0.3331(2) 0.60736(11)
O6 O 0.1852(2) 0.4496(2) 0.44807(12)
S2 S 0.19735(7) 0.30224(7) 0.50284(4)
C11A C 0.6134(3) -0.2013(3) 0.52037(16)
C12A C 0.5118(3) -0.2798(3) 0.57508(17)
H10A H 0.5386 -0.3850 0.5961
C13A C 0.3665(3) -0.2010(3) 0.59950(17)
H11A H 0.2964 -0.2563 0.6351
C14A C 0.3273(3) -0.0466(3) 0.57213(16)
H12A H 0.2336 0.0044 0.5916
C15A C 0.5725(3) -0.0396(3) 0.48620(15)
O4A O 0.9416(2) -0.18291(19) 0.53009(12)
O5A O 0.7806(2) -0.3331(2) 0.39264(11)
O6A O 0.8148(2) -0.4496(2) 0.55193(12)
S2A S 0.80265(7) -0.30224(7) 0.49716(4)
C16 C 0.2032(3) 0.5681(3) 0.80713(16)
N2 N 0.0706(2) 0.5891(2) 0.73891(14)
H13 H 0.0746 0.5567 0.6803
H14 H -0.0194 0.6351 0.7532
N3 N 0.3423(2) 0.4970(2) 0.78529(14)
H15 H 0.3464 0.4645 0.7267
H16 H 0.4283 0.4834 0.8297
N4 N 0.1996(3) 0.6219(3) 0.89730(14)
H17 H 0.1110 0.6707 0.9115
H18 H 0.2860 0.6080 0.9414
loop_
_geom_bond_atom_site_label_1
_geom_bond_atom_site_label_2
_geom_bond_site_symmetry_1
_geom_bond_site_symmetry_2
C1 H1 1_555 1_555
C2 C1 1_555 1_555
H2 C2 1_555 1_555
C3 C2 1_555 1_555
H3 C3 1_555 1_555
C4 C3 1_555 1_555
H4 C4 1_555 1_555
C5 C4 1_555 1_555
H5 C5 1_555 1_555
N1 C1 1_555 1_555
H6 N1 1_555 1_555
C6 C7 1_555 1_555
C7 H7 1_555 1_555
C8 C7 1_555 1_555
H8 C8 1_555 1_555
C9 H9 1_555 1_555
C10 C6 1_555 1_555
O1 S1 1_555 1_555
O2 S1 1_555 1_555
O3 S1 1_555 1_555
S1 C6 1_555 1_555
C11 C12 1_555 1_555
C12 H10 1_555 1_555
C13 C12 1_555 1_555
H11 C13 1_555 1_555
C14 C13 1_555 1_555
H12 C14 1_555 1_555
C15 C11 1_555 1_555
O4 S2 1_555 1_555
O5 S2 1_555 1_555
O6 S2 1_555 1_555
S2 C11 1_555 1_555
C16 N2 1_555 1_555
N2 H13 1_555 1_555
H14 N2 1_555 1_555
N3 C16 1_555 1_555
H15 N3 1_555 1_555
H16 N3 1_555 1_555
N4 C16 1_555 1_555
H17 N4 1_555 1_555
H18 N4 1_555 1_555
C6A C7A 1_555 1_555
C7A H7A 1_555 1_555
C8A C9 1_555 1_555
H8A C8A 1_555 1_555
C9A C8 1_555 1_555
H9A C9A 1_555 1_555
C10A C10 1_555 1_555
O1A S1A 1_555 1_555
O2A S1A 1_555 1_555
O3A S1A 1_555 1_555
S1A C6A 1_555 1_555
C11A C12A 1_555 1_555
C12A H10A 1_555 1_555
C13A C12A 1_555 1_555
H11A C13A 1_555 1_555
C14A C15 1_555 1_555
H12A C14A 1_555 1_555
C15A C14 1_555 1_555
O4A S2A 1_555 1_555
O5A S2A 1_555 1_555
O6A S2A 1_555 1_555
S2A C11A 1_555 1_555
C5 N1 1_555 1_555
C9 C10 1_555 1_555
C15 C15A 1_555 1_555
C6A C10A 1_555 1_555
C7A C8A 1_555 1_555
C9A C10A 1_555 1_555
C11A C15A 1_555 1_555
C13A C14A 1_555 1_555

#END
