
#######################################################################
#
#                 Cambridge Crystallographic Data Centre
#                                CCDC 
#
#######################################################################
#
# If this CIF has been generated from an entry in the Cambridge 
# Structural Database, then it will include bibliographic, chemical, 
# crystal, experimental, refinement or atomic coordinate data resulting 
# from the CCDC's data processing and validation procedures.
#
#######################################################################

data_DOWVOC48
_chemical_formula_moiety         'C10 H6 O6 S2 2-,C5 H6 N1 1+,C1 H6 N3 1+'
_chemical_name_systematic        
'guanidinium pyridinium naphthalene-1,5-disulfonate'
_symmetry_cell_setting           triclinic
_symmetry_space_group_name_H-M   'P -1'
_symmetry_Int_Tables_number      2
_space_group_name_Hall           '-P 1'
loop_
_symmetry_equiv_pos_site_id
_symmetry_equiv_pos_as_xyz
1 x,y,z
2 -x,-y,-z
_cell_length_a                   8.053(4)
_cell_length_b                   8.201(4)
_cell_length_c                   14.111(7)
_cell_angle_alpha                92.267(5)
_cell_angle_beta                 101.921(8)
_cell_angle_gamma                90.169(7)
_cell_volume                     911.057
_exptl_crystal_colour            colorless
_exptl_crystal_description       block
_cell_formula_units_Z            2
loop_
_atom_site_label
_atom_site_type_symbol
_atom_site_fract_x
_atom_site_fract_y
_atom_site_fract_z
C1 C 0.7844(4) 1.3101(4) 0.7378(3)
H1 H 0.7195 1.4038 0.7371
C2 C 0.8325(5) 1.2308(5) 0.8197(2)
H2 H 0.8020 1.2695 0.8765
C3 C 0.9271(5) 1.0917(4) 0.8197(2)
H3 H 0.9640 1.0368 0.8765
C4 C 0.9661(4) 1.0356(4) 0.7340(3)
H4 H 1.0264 0.9396 0.7316
C5 C 0.9167(3) 1.1199(3) 0.65448(18)
H5 H 0.9441 1.0827 0.5966
N1 N 0.8304(3) 1.2539(3) 0.65657(19)
H6 H 0.8023 1.3075 0.6046
C6 C 0.6107(3) 0.7982(3) 0.51997(15)
C7 C 0.5081(3) 0.7196(3) 0.57021(16)
H7 H 0.5334 0.6142 0.5901
C8 C 0.6353(3) 1.2020(3) 0.40835(17)
H8 H 0.7054 1.2573 0.3754
C9 C 0.6733(3) 1.0472(3) 0.43479(16)
H9 H 0.7670 0.9969 0.4179
C10 C 0.5724(3) 0.9604(3) 0.48797(14)
O1 O 0.8008(3) 0.5441(2) 0.54825(14)
O2 O 0.7621(3) 0.6650(2) 0.39140(12)
O3 O 0.9370(2) 0.7999(2) 0.53163(14)
S1 S 0.79234(7) 0.69237(7) 0.49593(4)
C6A C 0.3893(3) 1.2018(3) 0.48003(15)
C7A C 0.4919(3) 1.2804(3) 0.42979(16)
H7A H 0.4666 1.3858 0.4099
C8A C 0.3647(3) 0.7980(3) 0.59165(17)
H8A H 0.2946 0.7427 0.6246
C9A C 0.3267(3) 0.9528(3) 0.56521(16)
H9A H 0.2330 1.0031 0.5821
C10A C 0.4276(3) 1.0396(3) 0.51203(14)
O1A O 0.1992(3) 1.4559(2) 0.45175(14)
O2A O 0.2379(3) 1.3350(2) 0.60860(12)
O3A O 0.0630(2) 1.2001(2) 0.46837(14)
S1A S 0.20766(7) 1.30763(7) 0.50407(4)
C11 C 0.5906(3) 0.8733(3) 0.91001(15)
C12 C 0.5237(3) 0.9477(3) 0.82568(16)
H10 H 0.5499 0.9088 0.7678
C13 C 0.4155(3) 1.0828(3) 0.82566(17)
H11 H 0.3698 1.1318 0.7678
C14 C 0.6218(3) 0.8586(3) 1.08960(17)
H12 H 0.6928 0.7692 1.0903
C15 C 0.5549(3) 0.9310(2) 1.00059(15)
O4 O 0.6376(2) 0.56323(19) 0.93340(12)
O5 O 0.8862(2) 0.7410(2) 0.96742(12)
O6 O 0.7387(2) 0.6848(2) 0.80198(12)
S2 S 0.72464(7) 0.70277(7) 0.90282(4)
C11A C 0.4094(3) 1.1267(3) 1.08999(15)
C12A C 0.4763(3) 1.0523(3) 1.17432(16)
H10A H 0.4501 1.0912 1.2322
C13A C 0.5845(3) 0.9172(3) 1.17434(17)
H11A H 0.6302 0.8682 1.2322
C14A C 0.3782(3) 1.1414(3) 0.91040(17)
H12A H 0.3072 1.2308 0.9097
C15A C 0.4451(3) 1.0690(2) 0.99941(15)
O4A O 0.3624(2) 1.43677(19) 1.06660(12)
O5A O 0.1138(2) 1.2590(2) 1.03258(12)
O6A O 0.2613(2) 1.3152(2) 1.19802(12)
S2A S 0.27536(7) 1.29723(7) 1.09718(4)
C16 C 0.8109(3) 0.4219(3) 0.18917(16)
N2 N 0.9447(3) 0.3925(3) 0.25791(15)
H13 H 0.9439 0.4191 0.3174
H14 H 1.0324 0.3469 0.2432
N3 N 0.8115(3) 0.3758(3) 0.09808(14)
H15 H 0.7237 0.3914 0.0532
H16 H 0.8998 0.3301 0.0839
N4 N 0.6767(3) 0.4916(2) 0.21135(14)
H17 H 0.6755 0.5183 0.2708
H18 H 0.5898 0.5105 0.1665
loop_
_geom_bond_atom_site_label_1
_geom_bond_atom_site_label_2
_geom_bond_site_symmetry_1
_geom_bond_site_symmetry_2
C1 H1 1_555 1_555
C2 C1 1_555 1_555
H2 C2 1_555 1_555
C3 C2 1_555 1_555
H3 C3 1_555 1_555
C4 C3 1_555 1_555
H4 C4 1_555 1_555
C5 C4 1_555 1_555
H5 C5 1_555 1_555
N1 C1 1_555 1_555
H6 N1 1_555 1_555
C6 C7 1_555 1_555
C7 H7 1_555 1_555
C8 H8 1_555 1_555
C9 C8 1_555 1_555
H9 C9 1_555 1_555
C10 C6 1_555 1_555
O1 S1 1_555 1_555
O2 S1 1_555 1_555
O3 S1 1_555 1_555
S1 C6 1_555 1_555
C11 C12 1_555 1_555
C12 H10 1_555 1_555
C13 C12 1_555 1_555
H11 C13 1_555 1_555
C14 H12 1_555 1_555
C15 C11 1_555 1_555
O4 S2 1_555 1_555
O5 S2 1_555 1_555
O6 S2 1_555 1_555
S2 C11 1_555 1_555
C16 N2 1_555 1_555
N2 H13 1_555 1_555
H14 N2 1_555 1_555
N3 C16 1_555 1_555
H15 N3 1_555 1_555
H16 N3 1_555 1_555
N4 C16 1_555 1_555
H17 N4 1_555 1_555
H18 N4 1_555 1_555
C6A C7A 1_555 1_555
C7A C8 1_555 1_555
H7A C7A 1_555 1_555
C8A C7 1_555 1_555
H8A C8A 1_555 1_555
C9A C8A 1_555 1_555
H9A C9A 1_555 1_555
C10A C10 1_555 1_555
O1A S1A 1_555 1_555
O2A S1A 1_555 1_555
O3A S1A 1_555 1_555
S1A C6A 1_555 1_555
C11A C12A 1_555 1_555
C12A H10A 1_555 1_555
C13A C14 1_555 1_555
H11A C13A 1_555 1_555
C14A C13 1_555 1_555
H12A C14A 1_555 1_555
C15A C15 1_555 1_555
O4A S2A 1_555 1_555
O5A S2A 1_555 1_555
O6A S2A 1_555 1_555
S2A C11A 1_555 1_555
C5 N1 1_555 1_555
C9 C10 1_555 1_555
C14 C15 1_555 1_555
C6A C10A 1_555 1_555
C9A C10A 1_555 1_555
C11A C15A 1_555 1_555
C12A C13A 1_555 1_555
C14A C15A 1_555 1_555

#END
