
#######################################################################
#
#                 Cambridge Crystallographic Data Centre
#                                CCDC 
#
#######################################################################
#
# If this CIF has been generated from an entry in the Cambridge 
# Structural Database, then it will include bibliographic, chemical, 
# crystal, experimental, refinement or atomic coordinate data resulting 
# from the CCDC's data processing and validation procedures.
#
#######################################################################

data_DOWVOC33
_chemical_formula_moiety         'C10 H6 O6 S2 2-,C5 H6 N1 1+,C1 H6 N3 1+'
_chemical_name_systematic        
'guanidinium pyridinium naphthalene-1,5-disulfonate'
_symmetry_cell_setting           triclinic
_symmetry_space_group_name_H-M   'P -1'
_symmetry_Int_Tables_number      2
_space_group_name_Hall           '-P 1'
loop_
_symmetry_equiv_pos_site_id
_symmetry_equiv_pos_as_xyz
1 x,y,z
2 -x,-y,-z
_cell_length_a                   7.982(6)
_cell_length_b                   8.142(6)
_cell_length_c                   14.067(12)
_cell_angle_alpha                92.179(9)
_cell_angle_beta                 99.398(16)
_cell_angle_gamma                90.530(13)
_cell_volume                     901.173
_exptl_crystal_colour            colorless
_exptl_crystal_description       block
_cell_formula_units_Z            2
loop_
_atom_site_label
_atom_site_type_symbol
_atom_site_fract_x
_atom_site_fract_y
_atom_site_fract_z
C1 C 0.1778(3) 0.7810(3) 0.34856(19)
H1 H 0.2155 0.7382 0.4085
C2 C 0.2081(3) 0.7007(3) 0.2658(2)
H2 H 0.2702 0.6044 0.2692
C3 C 0.1467(4) 0.7627(3) 0.17843(19)
H3 H 0.1659 0.7082 0.1220
C4 C 0.0559(4) 0.9065(3) 0.1738(2)
H4 H 0.0118 0.9486 0.1145
C5 C 0.0317(3) 0.9860(3) 0.2574(2)
H5 H -0.0271 1.0842 0.2557
N1 N 0.0929(3) 0.9222(3) 0.34147(16)
H6 H 0.0772 0.9740 0.3936
C6 C 0.4029(3) 0.1275(3) 0.09086(16)
C7 C 0.4651(3) 0.0528(3) 0.17457(16)
H7 H 0.4359 0.0918 0.2326
C8 C 0.5730(3) -0.0829(3) 0.17351(17)
H8 H 0.6147 -0.1326 0.2309
C9 C 0.3828(3) 0.1423(3) -0.08871(17)
H9 H 0.3112 0.2318 -0.0892
C10 C 0.4450(3) 0.0690(3) -0.00016(16)
O1 O 0.3605(2) 0.44059(19) 0.06712(12)
O2 O 0.1090(2) 0.2627(2) 0.03399(12)
O3 O 0.2483(2) 0.3183(2) 0.19878(11)
S1 S 0.26878(7) 0.30025(7) 0.09784(4)
C6A C 0.5971(3) -0.1275(3) -0.09086(16)
C7A C 0.5349(3) -0.0528(3) -0.17457(16)
H7A H 0.5641 -0.0918 -0.2326
C8A C 0.4270(3) 0.0829(3) -0.17351(17)
H8A H 0.3853 0.1326 -0.2309
C9A C 0.6172(3) -0.1423(3) 0.08871(17)
H9A H 0.6888 -0.2318 0.0892
C10A C 0.5550(3) -0.0690(3) 0.00016(16)
O1A O 0.6395(2) -0.44059(19) -0.06712(12)
O2A O 0.8910(2) -0.2627(2) -0.03399(12)
O3A O 0.7517(2) -0.3183(2) -0.19878(11)
S1A S 0.73122(7) -0.30025(7) -0.09784(4)
C11 C 0.6139(3) 0.7990(3) 0.52024(15)
C12 C 0.5124(3) 0.7205(3) 0.57468(17)
H10 H 0.5394 0.6156 0.5957
C13 C 0.6328(3) 1.2014(3) 0.40106(17)
H11 H 0.7028 1.2570 0.3659
C14 C 0.6721(3) 1.0468(3) 0.42817(16)
H12 H 0.7653 0.9960 0.4085
C15 C 0.5730(3) 0.9604(3) 0.48630(15)
O4 O 0.7796(2) 0.6674(2) 0.39225(11)
O5 O 0.9414(2) 0.81722(19) 0.52972(12)
O6 O 0.8150(2) 0.5511(2) 0.55141(12)
S2 S 0.80243(7) 0.69832(7) 0.49686(4)
C11A C 0.3861(3) 1.2010(3) 0.47976(15)
C12A C 0.4876(3) 1.2795(3) 0.42532(17)
H10A H 0.4606 1.3844 0.4043
C13A C 0.3672(3) 0.7986(3) 0.59894(17)
H11A H 0.2972 0.7430 0.6341
C14A C 0.3279(3) 0.9532(3) 0.57183(16)
H12A H 0.2347 1.0040 0.5915
C15A C 0.4270(3) 1.0396(3) 0.51370(15)
O4A O 0.2204(2) 1.3326(2) 0.60775(11)
O5A O 0.0586(2) 1.18278(19) 0.47028(12)
O6A O 0.1850(2) 1.4489(2) 0.44859(12)
S2A S 0.19757(7) 1.30168(7) 0.50314(4)
C16 C 0.7984(3) 0.4316(3) 0.19269(16)
N2 N 0.9306(2) 0.4100(2) 0.26071(14)
H13 H 0.9268 0.4417 0.3193
H14 H 1.0204 0.3643 0.2463
N3 N 0.8018(3) 0.3779(3) 0.10228(14)
H15 H 0.8902 0.3291 0.0882
H16 H 0.7157 0.3920 0.0581
N4 N 0.6593(2) 0.5021(2) 0.21438(14)
H17 H 0.6549 0.5340 0.2729
H18 H 0.5735 0.5159 0.1699
loop_
_geom_bond_atom_site_label_1
_geom_bond_atom_site_label_2
_geom_bond_site_symmetry_1
_geom_bond_site_symmetry_2
C1 H1 1_555 1_555
C2 C1 1_555 1_555
H2 C2 1_555 1_555
C3 C2 1_555 1_555
H3 C3 1_555 1_555
C4 C3 1_555 1_555
H4 C4 1_555 1_555
C5 C4 1_555 1_555
H5 C5 1_555 1_555
N1 C1 1_555 1_555
H6 N1 1_555 1_555
C6 C7 1_555 1_555
C7 H7 1_555 1_555
C8 C7 1_555 1_555
H8 C8 1_555 1_555
C9 H9 1_555 1_555
C10 C6 1_555 1_555
O1 S1 1_555 1_555
O2 S1 1_555 1_555
O3 S1 1_555 1_555
S1 C6 1_555 1_555
C11 C12 1_555 1_555
C12 H10 1_555 1_555
C13 H11 1_555 1_555
C14 C13 1_555 1_555
H12 C14 1_555 1_555
C15 C11 1_555 1_555
O4 S2 1_555 1_555
O5 S2 1_555 1_555
O6 S2 1_555 1_555
S2 C11 1_555 1_555
C16 N2 1_555 1_555
N2 H13 1_555 1_555
H14 N2 1_555 1_555
N3 C16 1_555 1_555
H15 N3 1_555 1_555
H16 N3 1_555 1_555
N4 C16 1_555 1_555
H17 N4 1_555 1_555
H18 N4 1_555 1_555
C6A C7A 1_555 1_555
C7A H7A 1_555 1_555
C8A C9 1_555 1_555
H8A C8A 1_555 1_555
C9A C8 1_555 1_555
H9A C9A 1_555 1_555
C10A C10 1_555 1_555
O1A S1A 1_555 1_555
O2A S1A 1_555 1_555
O3A S1A 1_555 1_555
S1A C6A 1_555 1_555
C11A C12A 1_555 1_555
C12A C13 1_555 1_555
H10A C12A 1_555 1_555
C13A C12 1_555 1_555
H11A C13A 1_555 1_555
C14A C13A 1_555 1_555
H12A C14A 1_555 1_555
C15A C15 1_555 1_555
O4A S2A 1_555 1_555
O5A S2A 1_555 1_555
O6A S2A 1_555 1_555
S2A C11A 1_555 1_555
C5 N1 1_555 1_555
C9 C10 1_555 1_555
C14 C15 1_555 1_555
C6A C10A 1_555 1_555
C7A C8A 1_555 1_555
C9A C10A 1_555 1_555
C11A C15A 1_555 1_555
C14A C15A 1_555 1_555

#END
