
#######################################################################
#
#                 Cambridge Crystallographic Data Centre
#                                CCDC 
#
#######################################################################
#
# If this CIF has been generated from an entry in the Cambridge 
# Structural Database, then it will include bibliographic, chemical, 
# crystal, experimental, refinement or atomic coordinate data resulting 
# from the CCDC's data processing and validation procedures.
#
#######################################################################

data_DOWVOC04
_chemical_formula_moiety         'C10 H6 O6 S2 2-,C5 H6 N1 1+,C1 H6 N3 1+'
_chemical_name_systematic        
'guanidinium pyridinium naphthalene-1,5-disulfonate'
_symmetry_cell_setting           triclinic
_symmetry_space_group_name_H-M   'P -1'
_symmetry_Int_Tables_number      2
_space_group_name_Hall           '-P 1'
loop_
_symmetry_equiv_pos_site_id
_symmetry_equiv_pos_as_xyz
1 x,y,z
2 -x,-y,-z
_cell_length_a                   8.059(4)
_cell_length_b                   8.213(4)
_cell_length_c                   14.116(7)
_cell_angle_alpha                92.266(5)
_cell_angle_beta                 101.980(8)
_cell_angle_gamma                90.041(6)
_cell_volume                     913.216
_exptl_crystal_colour            colorless
_exptl_crystal_description       block
_cell_formula_units_Z            2
loop_
_atom_site_label
_atom_site_type_symbol
_atom_site_fract_x
_atom_site_fract_y
_atom_site_fract_z
C1 C 0.2152(4) 0.6901(4) 0.2624(3)
H1 H 0.2798 0.5961 0.2632
C2 C 0.1687(5) 0.7684(5) 0.1806(2)
H2 H 0.1998 0.7294 0.1241
C3 C 0.0745(5) 0.9072(5) 0.1806(2)
H3 H 0.0381 0.9623 0.1238
C4 C 0.0347(4) 0.9637(4) 0.2663(3)
H4 H -0.0257 1.0597 0.2686
C5 C 0.0835(3) 0.8793(3) 0.34555(18)
H5 H 0.0558 0.9163 0.4034
N1 N 0.1696(3) 0.7456(3) 0.34335(19)
H6 H 0.1977 0.6918 0.3952
C6 C 0.3895(3) 0.2020(3) 0.48009(15)
C7 C 0.4923(3) 0.2801(3) 0.43008(16)
H7 H 0.4674 0.3855 0.4102
C8 C 0.3642(3) -0.2010(3) 0.59118(17)
H8 H 0.2939 -0.2561 0.6239
C9 C 0.3263(3) -0.0462(3) 0.56495(16)
H9 H 0.2326 0.0043 0.5817
C10 C 0.4280(2) 0.0399(2) 0.51200(14)
O1 O 0.2388(3) 0.3354(2) 0.60860(12)
O2 O 0.0634(2) 0.2017(2) 0.46820(14)
O3 O 0.2004(3) 0.4560(2) 0.45190(14)
S1 S 0.20839(7) 0.30820(7) 0.50409(4)
C6A C 0.6105(3) -0.2020(3) 0.51991(15)
C7A C 0.5077(3) -0.2801(3) 0.56992(16)
H7A H 0.5326 -0.3855 0.5898
C8A C 0.6358(3) 0.2010(3) 0.40882(17)
H8A H 0.7061 0.2561 0.3761
C9A C 0.6737(3) 0.0462(3) 0.43505(16)
H9A H 0.7674 -0.0043 0.4183
C10A C 0.5720(2) -0.0399(2) 0.48800(14)
O1A O 0.7612(3) -0.3354(2) 0.39140(12)
O2A O 0.9366(2) -0.2017(2) 0.53180(14)
O3A O 0.7996(3) -0.4560(2) 0.54810(14)
S1A S 0.79161(7) -0.30820(7) 0.49591(4)
C11 C 0.4094(3) 0.1267(2) 0.08999(15)
C12 C 0.4765(3) 0.0524(3) 0.17420(16)
H10 H 0.4508 0.0915 0.2321
C13 C 0.5842(3) -0.0828(3) 0.17431(17)
H11 H 0.6295 -0.1321 0.2321
C14 C 0.3781(3) 0.1412(3) -0.08961(16)
H12 H 0.3068 0.2303 -0.0903
C15 C 0.4453(3) 0.0686(2) -0.00054(15)
O4 O 0.1143(2) 0.2596(2) 0.03263(12)
O5 O 0.2619(2) 0.3153(2) 0.19799(11)
O6 O 0.3628(2) 0.43633(19) 0.06656(12)
S2 S 0.27577(7) 0.29724(7) 0.09723(4)
C11A C 0.5906(3) -0.1267(2) -0.08999(15)
C12A C 0.5235(3) -0.0524(3) -0.17420(16)
H10A H 0.5492 -0.0915 -0.2321
C13A C 0.4158(3) 0.0828(3) -0.17431(17)
H11A H 0.3705 0.1321 -0.2321
C14A C 0.6219(3) -0.1412(3) 0.08961(16)
H12A H 0.6932 -0.2303 0.0903
C15A C 0.5547(3) -0.0686(2) 0.00054(15)
O4A O 0.8857(2) -0.2596(2) -0.03263(12)
O5A O 0.7381(2) -0.3153(2) -0.19799(11)
O6A O 0.6372(2) -0.43633(19) -0.06656(12)
S2A S 0.72423(7) -0.29724(7) -0.09723(4)
C16 C 0.1884(3) 0.5782(3) 0.81080(16)
N2 N 0.0547(3) 0.6079(3) 0.74226(15)
H13 H 0.0555 0.5820 0.6827
H14 H -0.0331 0.6531 0.7572
N3 N 0.1885(3) 0.6240(3) 0.90180(14)
H15 H 0.2767 0.6086 0.9465
H16 H 0.1002 0.6692 0.9162
N4 N 0.3228(2) 0.5092(2) 0.78848(14)
H17 H 0.3240 0.4832 0.7290
H18 H 0.4097 0.4900 0.8333
loop_
_geom_bond_atom_site_label_1
_geom_bond_atom_site_label_2
_geom_bond_site_symmetry_1
_geom_bond_site_symmetry_2
C1 H1 1_555 1_555
C2 C1 1_555 1_555
H2 C2 1_555 1_555
C3 C2 1_555 1_555
H3 C3 1_555 1_555
C4 C3 1_555 1_555
H4 C4 1_555 1_555
C5 C4 1_555 1_555
H5 C5 1_555 1_555
N1 C1 1_555 1_555
H6 N1 1_555 1_555
C6 C7 1_555 1_555
C7 H7 1_555 1_555
C8 H8 1_555 1_555
C9 C8 1_555 1_555
H9 C9 1_555 1_555
C10 C6 1_555 1_555
O1 S1 1_555 1_555
O2 S1 1_555 1_555
O3 S1 1_555 1_555
S1 C6 1_555 1_555
C11 C12 1_555 1_555
C12 H10 1_555 1_555
C13 C12 1_555 1_555
H11 C13 1_555 1_555
C14 H12 1_555 1_555
C15 C11 1_555 1_555
O4 S2 1_555 1_555
O5 S2 1_555 1_555
O6 S2 1_555 1_555
S2 C11 1_555 1_555
C16 N2 1_555 1_555
N2 H13 1_555 1_555
H14 N2 1_555 1_555
N3 C16 1_555 1_555
H15 N3 1_555 1_555
H16 N3 1_555 1_555
N4 C16 1_555 1_555
H17 N4 1_555 1_555
H18 N4 1_555 1_555
C6A C7A 1_555 1_555
C7A C8 1_555 1_555
H7A C7A 1_555 1_555
C8A C7 1_555 1_555
H8A C8A 1_555 1_555
C9A C8A 1_555 1_555
H9A C9A 1_555 1_555
C10A C10 1_555 1_555
O1A S1A 1_555 1_555
O2A S1A 1_555 1_555
O3A S1A 1_555 1_555
S1A C6A 1_555 1_555
C11A C12A 1_555 1_555
C12A H10A 1_555 1_555
C13A C14 1_555 1_555
H11A C13A 1_555 1_555
C14A C13 1_555 1_555
H12A C14A 1_555 1_555
C15A C15 1_555 1_555
O4A S2A 1_555 1_555
O5A S2A 1_555 1_555
O6A S2A 1_555 1_555
S2A C11A 1_555 1_555
C5 N1 1_555 1_555
C9 C10 1_555 1_555
C14 C15 1_555 1_555
C6A C10A 1_555 1_555
C9A C10A 1_555 1_555
C11A C15A 1_555 1_555
C12A C13A 1_555 1_555
C14A C15A 1_555 1_555

#END
