
#######################################################################
#
#                 Cambridge Crystallographic Data Centre
#                                CCDC 
#
#######################################################################
#
# If this CIF has been generated from an entry in the Cambridge 
# Structural Database, then it will include bibliographic, chemical, 
# crystal, experimental, refinement or atomic coordinate data resulting 
# from the CCDC's data processing and validation procedures.
#
#######################################################################

data_DOWVOC34
_chemical_formula_moiety         'C10 H6 O6 S2 2-,C5 H6 N1 1+,C1 H6 N3 1+'
_chemical_name_systematic        
'guanidinium pyridinium naphthalene-1,5-disulfonate'
_symmetry_cell_setting           triclinic
_symmetry_space_group_name_H-M   'P -1'
_symmetry_Int_Tables_number      2
_space_group_name_Hall           '-P 1'
loop_
_symmetry_equiv_pos_site_id
_symmetry_equiv_pos_as_xyz
1 x,y,z
2 -x,-y,-z
_cell_length_a                   7.994(6)
_cell_length_b                   8.153(6)
_cell_length_c                   14.085(12)
_cell_angle_alpha                92.195(9)
_cell_angle_beta                 99.444(16)
_cell_angle_gamma                90.518(14)
_cell_volume                     904.775
_exptl_crystal_colour            colorless
_exptl_crystal_description       block
_cell_formula_units_Z            2
loop_
_atom_site_label
_atom_site_type_symbol
_atom_site_fract_x
_atom_site_fract_y
_atom_site_fract_z
C1 C 0.1772(3) 0.7801(3) 0.34816(19)
H1 H 0.2141 0.7365 0.4079
C2 C 0.2083(4) 0.7008(3) 0.2658(2)
H2 H 0.2708 0.6050 0.2691
C3 C 0.1472(4) 0.7630(4) 0.1787(2)
H3 H 0.1666 0.7087 0.1223
C4 C 0.0560(4) 0.9071(4) 0.1741(2)
H4 H 0.0122 0.9496 0.1149
C5 C 0.0318(3) 0.9855(3) 0.2580(2)
H5 H -0.0271 1.0834 0.2566
N1 N 0.0930(3) 0.9209(3) 0.34167(16)
H6 H 0.0776 0.9722 0.3940
C6 C 0.4030(3) 0.1277(3) 0.09075(17)
C7 C 0.4651(3) 0.0531(3) 0.17445(17)
H7 H 0.4359 0.0922 0.2323
C8 C 0.5732(3) -0.0827(3) 0.17366(17)
H8 H 0.6149 -0.1325 0.2309
C9 C 0.3830(3) 0.1416(3) -0.08865(17)
H9 H 0.3111 0.2307 -0.0891
C10 C 0.4451(3) 0.0692(3) -0.00016(16)
O1 O 0.2485(2) 0.3181(2) 0.19859(12)
O2 O 0.1093(2) 0.2625(2) 0.03394(12)
O3 O 0.3606(2) 0.4405(2) 0.06705(12)
S1 S 0.26894(8) 0.30022(7) 0.09783(4)
C6A C 0.5970(3) -0.1277(3) -0.09075(17)
C7A C 0.5349(3) -0.0531(3) -0.17445(17)
H7A H 0.5641 -0.0922 -0.2323
C8A C 0.4268(3) 0.0827(3) -0.17366(17)
H8A H 0.3851 0.1325 -0.2309
C9A C 0.6170(3) -0.1416(3) 0.08865(17)
H9A H 0.6889 -0.2307 0.0891
C10A C 0.5549(3) -0.0692(3) 0.00016(16)
O1A O 0.7515(2) -0.3181(2) -0.19859(12)
O2A O 0.8907(2) -0.2625(2) -0.03394(12)
O3A O 0.6394(2) -0.4405(2) -0.06705(12)
S1A S 0.73106(8) -0.30022(7) -0.09783(4)
C11 C 0.3861(3) 0.2005(3) 0.47965(16)
C12 C 0.4873(3) 0.2794(3) 0.42548(17)
H10 H 0.4603 0.3842 0.4047
C13 C 0.6325(3) 0.2016(3) 0.40134(17)
H11 H 0.7021 0.2572 0.3662
C14 C 0.3278(3) -0.0472(3) 0.57154(16)
H12 H 0.2344 0.0032 0.5909
C15 C 0.4270(3) 0.0393(3) 0.51368(16)
O4 O 0.0586(2) 0.18256(19) 0.47041(12)
O5 O 0.2208(2) 0.3325(2) 0.60767(12)
O6 O 0.1851(2) 0.4486(2) 0.44868(13)
S2 S 0.19762(7) 0.30157(7) 0.50318(4)
C11A C 0.6139(3) -0.2005(3) 0.52035(16)
C12A C 0.5127(3) -0.2794(3) 0.57452(17)
H10A H 0.5397 -0.3842 0.5953
C13A C 0.3675(3) -0.2016(3) 0.59866(17)
H11A H 0.2979 -0.2572 0.6338
C14A C 0.6722(3) 0.0472(3) 0.42846(16)
H12A H 0.7656 -0.0032 0.4091
C15A C 0.5730(3) -0.0393(3) 0.48632(16)
O4A O 0.9414(2) -0.18256(19) 0.52959(12)
O5A O 0.7792(2) -0.3325(2) 0.39233(12)
O6A O 0.8149(2) -0.4486(2) 0.55132(13)
S2A S 0.80238(7) -0.30157(7) 0.49682(4)
C16 C 0.7982(3) 0.4312(3) 0.19246(16)
N2 N 0.8018(3) 0.3778(3) 0.10226(14)
H13 H 0.8901 0.3292 0.0882
H14 H 0.7158 0.3920 0.0581
N3 N 0.9305(3) 0.4096(3) 0.26066(15)
H15 H 0.9268 0.4416 0.3192
H16 H 1.0201 0.3637 0.2464
N4 N 0.6597(3) 0.5021(2) 0.21417(14)
H17 H 0.6557 0.5341 0.2726
H18 H 0.5740 0.5160 0.1698
loop_
_geom_bond_atom_site_label_1
_geom_bond_atom_site_label_2
_geom_bond_site_symmetry_1
_geom_bond_site_symmetry_2
C1 H1 1_555 1_555
C2 C1 1_555 1_555
H2 C2 1_555 1_555
C3 C2 1_555 1_555
H3 C3 1_555 1_555
C4 C3 1_555 1_555
H4 C4 1_555 1_555
C5 C4 1_555 1_555
H5 C5 1_555 1_555
N1 C1 1_555 1_555
H6 N1 1_555 1_555
C6 C7 1_555 1_555
C7 H7 1_555 1_555
C8 C7 1_555 1_555
H8 C8 1_555 1_555
C9 H9 1_555 1_555
C10 C6 1_555 1_555
O1 S1 1_555 1_555
O2 S1 1_555 1_555
O3 S1 1_555 1_555
S1 C6 1_555 1_555
C11 C12 1_555 1_555
C12 H10 1_555 1_555
C13 C12 1_555 1_555
H11 C13 1_555 1_555
C14 H12 1_555 1_555
C15 C11 1_555 1_555
O4 S2 1_555 1_555
O5 S2 1_555 1_555
O6 S2 1_555 1_555
S2 C11 1_555 1_555
C16 N2 1_555 1_555
N2 H13 1_555 1_555
H14 N2 1_555 1_555
N3 C16 1_555 1_555
H15 N3 1_555 1_555
H16 N3 1_555 1_555
N4 C16 1_555 1_555
H17 N4 1_555 1_555
H18 N4 1_555 1_555
C6A C7A 1_555 1_555
C7A H7A 1_555 1_555
C8A C9 1_555 1_555
H8A C8A 1_555 1_555
C9A C8 1_555 1_555
H9A C9A 1_555 1_555
C10A C10 1_555 1_555
O1A S1A 1_555 1_555
O2A S1A 1_555 1_555
O3A S1A 1_555 1_555
S1A C6A 1_555 1_555
C11A C12A 1_555 1_555
C12A H10A 1_555 1_555
C13A C14 1_555 1_555
H11A C13A 1_555 1_555
C14A C13 1_555 1_555
H12A C14A 1_555 1_555
C15A C15 1_555 1_555
O4A S2A 1_555 1_555
O5A S2A 1_555 1_555
O6A S2A 1_555 1_555
S2A C11A 1_555 1_555
C5 N1 1_555 1_555
C9 C10 1_555 1_555
C14 C15 1_555 1_555
C6A C10A 1_555 1_555
C7A C8A 1_555 1_555
C9A C10A 1_555 1_555
C11A C15A 1_555 1_555
C12A C13A 1_555 1_555
C14A C15A 1_555 1_555

#END
