
#######################################################################
#
#                 Cambridge Crystallographic Data Centre
#                                CCDC 
#
#######################################################################
#
# If this CIF has been generated from an entry in the Cambridge 
# Structural Database, then it will include bibliographic, chemical, 
# crystal, experimental, refinement or atomic coordinate data resulting 
# from the CCDC's data processing and validation procedures.
#
#######################################################################

data_DOWVOC46
_chemical_formula_moiety         'C10 H6 O6 S2 2-,C5 H6 N1 1+,C1 H6 N3 1+'
_chemical_name_systematic        
'guanidinium pyridinium naphthalene-1,5-disulfonate'
_symmetry_cell_setting           triclinic
_symmetry_space_group_name_H-M   'P -1'
_symmetry_Int_Tables_number      2
_space_group_name_Hall           '-P 1'
loop_
_symmetry_equiv_pos_site_id
_symmetry_equiv_pos_as_xyz
1 x,y,z
2 -x,-y,-z
_cell_length_a                   8.051(4)
_cell_length_b                   8.196(4)
_cell_length_c                   14.111(8)
_cell_angle_alpha                92.269(5)
_cell_angle_beta                 101.856(9)
_cell_angle_gamma                90.232(7)
_cell_volume                     910.48
_exptl_crystal_colour            colorless
_exptl_crystal_description       block
_cell_formula_units_Z            2
loop_
_atom_site_label
_atom_site_type_symbol
_atom_site_fract_x
_atom_site_fract_y
_atom_site_fract_z
C1 C 0.7844(4) 0.3095(4) 0.7377(3)
H1 H 0.7193 0.4031 0.7369
C2 C 0.8330(4) 0.2308(5) 0.8198(2)
H2 H 0.8029 0.2701 0.8766
C3 C 0.9278(4) 0.0914(4) 0.8199(2)
H3 H 0.9651 0.0368 0.8767
C4 C 0.9660(4) 0.0350(4) 0.7340(2)
H4 H 1.0262 -0.0612 0.7315
C5 C 0.9164(3) 0.1187(3) 0.65438(18)
H5 H 0.9436 0.0812 0.5964
N1 N 0.8298(3) 0.2533(3) 0.65660(18)
H6 H 0.8015 0.3067 0.6046
C6 C 0.6111(3) 0.7982(3) 0.51987(15)
C7 C 0.5081(3) 0.7194(3) 0.57022(16)
H7 H 0.5334 0.6139 0.5901
C8 C 0.6357(3) 1.2022(3) 0.40818(17)
H8 H 0.7059 1.2576 0.3752
C9 C 0.6736(3) 1.0473(3) 0.43458(16)
H9 H 0.7672 0.9970 0.4176
C10 C 0.5722(2) 0.9604(3) 0.48797(14)
O1 O 0.8013(3) 0.5443(2) 0.54842(14)
O2 O 0.7626(3) 0.6651(2) 0.39130(12)
O3 O 0.9375(2) 0.8011(2) 0.53167(14)
S1 S 0.79276(7) 0.69276(7) 0.49591(4)
C6A C 0.3889(3) 1.2018(3) 0.48013(15)
C7A C 0.4919(3) 1.2806(3) 0.42978(16)
H7A H 0.4666 1.3861 0.4099
C8A C 0.3643(3) 0.7978(3) 0.59182(17)
H8A H 0.2941 0.7424 0.6248
C9A C 0.3264(3) 0.9527(3) 0.56542(16)
H9A H 0.2328 1.0030 0.5824
C10A C 0.4278(2) 1.0396(3) 0.51203(14)
O1A O 0.1987(3) 1.4557(2) 0.45158(14)
O2A O 0.2374(3) 1.3349(2) 0.60870(12)
O3A O 0.0625(2) 1.1989(2) 0.46833(14)
S1A S 0.20724(7) 1.30724(7) 0.50409(4)
C11 C 0.5910(3) 0.8730(3) 0.90993(15)
C12 C 0.5242(3) 0.9476(3) 0.82589(16)
H10 H 0.5503 0.9087 0.7679
C13 C 0.4161(3) 1.0829(3) 0.82576(17)
H11 H 0.3709 1.1320 0.7680
C14 C 0.6218(3) 0.8587(3) 1.08961(16)
H12 H 0.6930 0.7694 1.0903
C15 C 0.5550(3) 0.9314(2) 1.00052(15)
O4 O 0.6376(2) 0.56323(19) 0.93338(12)
O5 O 0.8865(2) 0.7412(2) 0.96743(12)
O6 O 0.7391(2) 0.6847(2) 0.80194(11)
S2 S 0.72489(7) 0.70280(7) 0.90276(4)
C11A C 0.4090(3) 1.1270(3) 1.09007(15)
C12A C 0.4758(3) 1.0524(3) 1.17411(16)
H10A H 0.4497 1.0913 1.2321
C13A C 0.5839(3) 0.9171(3) 1.17424(17)
H11A H 0.6291 0.8680 1.2320
C14A C 0.3782(3) 1.1413(3) 0.91039(16)
H12A H 0.3070 1.2306 0.9097
C15A C 0.4450(3) 1.0686(2) 0.99948(15)
O4A O 0.3624(2) 1.43677(19) 1.06662(12)
O5A O 0.1135(2) 1.2588(2) 1.03257(12)
O6A O 0.2609(2) 1.3153(2) 1.19806(11)
S2A S 0.27511(7) 1.29720(7) 1.09724(4)
C16 C 0.8106(3) 0.4221(3) 0.18911(16)
N2 N 0.6763(2) 0.4920(2) 0.21147(14)
H13 H 0.6753 0.5188 0.2709
H14 H 0.5894 0.5109 0.1667
N3 N 0.8112(3) 0.3760(3) 0.09809(14)
H15 H 0.7235 0.3919 0.0533
H16 H 0.8994 0.3303 0.0838
N4 N 0.9444(3) 0.3929(3) 0.25792(14)
H17 H 0.9436 0.4197 0.3174
H18 H 1.0322 0.3471 0.2432
loop_
_geom_bond_atom_site_label_1
_geom_bond_atom_site_label_2
_geom_bond_site_symmetry_1
_geom_bond_site_symmetry_2
C1 H1 1_555 1_555
C2 C1 1_555 1_555
H2 C2 1_555 1_555
C3 C2 1_555 1_555
H3 C3 1_555 1_555
C4 C3 1_555 1_555
H4 C4 1_555 1_555
C5 C4 1_555 1_555
H5 C5 1_555 1_555
N1 C1 1_555 1_555
H6 N1 1_555 1_555
C6 C7 1_555 1_555
C7 H7 1_555 1_555
C8 H8 1_555 1_555
C9 C8 1_555 1_555
H9 C9 1_555 1_555
C10 C6 1_555 1_555
O1 S1 1_555 1_555
O2 S1 1_555 1_555
O3 S1 1_555 1_555
S1 C6 1_555 1_555
C11 C12 1_555 1_555
C12 H10 1_555 1_555
C13 C12 1_555 1_555
H11 C13 1_555 1_555
C14 H12 1_555 1_555
C15 C11 1_555 1_555
O4 S2 1_555 1_555
O5 S2 1_555 1_555
O6 S2 1_555 1_555
S2 C11 1_555 1_555
C16 N2 1_555 1_555
N2 H13 1_555 1_555
H14 N2 1_555 1_555
N3 C16 1_555 1_555
H15 N3 1_555 1_555
H16 N3 1_555 1_555
N4 C16 1_555 1_555
H17 N4 1_555 1_555
H18 N4 1_555 1_555
C6A C7A 1_555 1_555
C7A C8 1_555 1_555
H7A C7A 1_555 1_555
C8A C7 1_555 1_555
H8A C8A 1_555 1_555
C9A C8A 1_555 1_555
H9A C9A 1_555 1_555
C10A C10 1_555 1_555
O1A S1A 1_555 1_555
O2A S1A 1_555 1_555
O3A S1A 1_555 1_555
S1A C6A 1_555 1_555
C11A C12A 1_555 1_555
C12A H10A 1_555 1_555
C13A C14 1_555 1_555
H11A C13A 1_555 1_555
C14A C13 1_555 1_555
H12A C14A 1_555 1_555
C15A C15 1_555 1_555
O4A S2A 1_555 1_555
O5A S2A 1_555 1_555
O6A S2A 1_555 1_555
S2A C11A 1_555 1_555
C5 N1 1_555 1_555
C9 C10 1_555 1_555
C14 C15 1_555 1_555
C6A C10A 1_555 1_555
C9A C10A 1_555 1_555
C11A C15A 1_555 1_555
C12A C13A 1_555 1_555
C14A C15A 1_555 1_555

#END
