
#######################################################################
#
#                 Cambridge Crystallographic Data Centre
#                                CCDC 
#
#######################################################################
#
# If this CIF has been generated from an entry in the Cambridge 
# Structural Database, then it will include bibliographic, chemical, 
# crystal, experimental, refinement or atomic coordinate data resulting 
# from the CCDC's data processing and validation procedures.
#
#######################################################################

data_DOWVOC44
_chemical_formula_moiety         'C10 H6 O6 S2 2-,C5 H6 N1 1+,C1 H6 N3 1+'
_chemical_name_systematic        
'guanidinium pyridinium naphthalene-1,5-disulfonate'
_symmetry_cell_setting           triclinic
_symmetry_space_group_name_H-M   'P -1'
_symmetry_Int_Tables_number      2
_space_group_name_Hall           '-P 1'
loop_
_symmetry_equiv_pos_site_id
_symmetry_equiv_pos_as_xyz
1 x,y,z
2 -x,-y,-z
_cell_length_a                   8.048(4)
_cell_length_b                   8.189(4)
_cell_length_c                   14.108(8)
_cell_angle_alpha                92.274(5)
_cell_angle_beta                 101.776(8)
_cell_angle_gamma                90.294(7)
_cell_volume                     909.419
_exptl_crystal_colour            colorless
_exptl_crystal_description       block
_cell_formula_units_Z            2
loop_
_atom_site_label
_atom_site_type_symbol
_atom_site_fract_x
_atom_site_fract_y
_atom_site_fract_z
C1 C 0.2157(4) 0.6922(4) 0.2621(3)
H1 H 0.2814 0.5990 0.2625
C2 C 0.1655(5) 0.7710(5) 0.1799(2)
H2 H 0.1948 0.7318 0.1228
C3 C 0.0713(4) 0.9093(4) 0.1802(2)
H3 H 0.0338 0.9640 0.1234
C4 C 0.0331(4) 0.9658(4) 0.2659(3)
H4 H -0.0278 1.0616 0.2682
C5 C 0.0835(3) 0.8834(3) 0.34542(19)
H5 H 0.0567 0.9218 0.4033
N1 N 0.1705(3) 0.7487(3) 0.34395(19)
H6 H 0.1991 0.6956 0.3961
C6 C 0.3889(3) 0.2013(3) 0.48009(16)
C7 C 0.4912(3) 0.2805(3) 0.42963(18)
H7 H 0.4658 0.3861 0.4098
C8 C 0.3655(3) -0.2021(3) 0.59226(18)
H8 H 0.2959 -0.2575 0.6258
C9 C 0.3266(3) -0.0472(3) 0.56548(17)
H9 H 0.2326 0.0029 0.5823
C10 C 0.4276(3) 0.0392(3) 0.51206(15)
O1 O 0.0623(2) 0.1973(2) 0.46863(14)
O2 O 0.2364(3) 0.3344(2) 0.60861(13)
O3 O 0.1974(3) 0.4549(2) 0.45124(14)
S1 S 0.20647(7) 0.30658(7) 0.50410(4)
C6A C 0.6111(3) -0.2013(3) 0.51991(16)
C7A C 0.5088(3) -0.2805(3) 0.57037(18)
H7A H 0.5342 -0.3861 0.5902
C8A C 0.6345(3) 0.2021(3) 0.40774(18)
H8A H 0.7041 0.2575 0.3742
C9A C 0.6734(3) 0.0472(3) 0.43452(17)
H9A H 0.7674 -0.0029 0.4177
C10A C 0.5724(3) -0.0392(3) 0.48794(15)
O1A O 0.9377(2) -0.1973(2) 0.53137(14)
O2A O 0.7636(3) -0.3344(2) 0.39139(13)
O3A O 0.8026(3) -0.4549(2) 0.54876(14)
S1A S 0.79353(7) -0.30658(7) 0.49590(4)
C11 C 0.4093(3) 0.1265(3) 0.09028(16)
C12 C 0.4755(3) 0.0525(3) 0.17446(17)
H10 H 0.4491 0.0912 0.2324
C13 C 0.5837(3) -0.0823(3) 0.17412(18)
H11 H 0.6296 -0.1313 0.2318
C14 C 0.3790(3) 0.1406(3) -0.08921(18)
H12 H 0.3083 0.2302 -0.0898
C15 C 0.4450(3) 0.0683(3) -0.00044(16)
O4 O 0.3620(2) 0.43695(19) 0.06660(12)
O5 O 0.1134(2) 0.2584(2) 0.03277(13)
O6 O 0.2601(2) 0.3151(2) 0.19814(12)
S2 S 0.27476(7) 0.29723(7) 0.09723(4)
C11A C 0.5907(3) -0.1265(3) -0.09028(16)
C12A C 0.5245(3) -0.0525(3) -0.17446(17)
H10A H 0.5509 -0.0912 -0.2324
C13A C 0.4163(3) 0.0823(3) -0.17412(18)
H11A H 0.3704 0.1313 -0.2318
C14A C 0.6210(3) -0.1406(3) 0.08921(18)
H12A H 0.6917 -0.2302 0.0898
C15A C 0.5550(3) -0.0683(3) 0.00044(16)
O4A O 0.6380(2) -0.43695(19) -0.06660(12)
O5A O 0.8866(2) -0.2584(2) -0.03277(13)
O6A O 0.7399(2) -0.3151(2) -0.19814(12)
S2A S 0.72524(7) -0.29723(7) -0.09723(4)
C16 C 0.1893(3) 0.5779(3) 0.81058(16)
N2 N 0.0562(3) 0.6071(3) 0.74192(15)
H13 H 0.0572 0.5801 0.6825
H14 H -0.0316 0.6530 0.7566
N3 N 0.3242(3) 0.5075(2) 0.78852(15)
H15 H 0.3256 0.4804 0.7292
H16 H 0.4107 0.4887 0.8335
N4 N 0.1890(3) 0.6247(3) 0.90189(15)
H17 H 0.2769 0.6090 0.9466
H18 H 0.1010 0.6707 0.9162
loop_
_geom_bond_atom_site_label_1
_geom_bond_atom_site_label_2
_geom_bond_site_symmetry_1
_geom_bond_site_symmetry_2
C1 H1 1_555 1_555
C2 C1 1_555 1_555
H2 C2 1_555 1_555
C3 C2 1_555 1_555
H3 C3 1_555 1_555
C4 C3 1_555 1_555
H4 C4 1_555 1_555
C5 C4 1_555 1_555
H5 C5 1_555 1_555
N1 C1 1_555 1_555
H6 N1 1_555 1_555
C6 C7 1_555 1_555
C7 H7 1_555 1_555
C8 H8 1_555 1_555
C9 C8 1_555 1_555
H9 C9 1_555 1_555
C10 C6 1_555 1_555
O1 S1 1_555 1_555
O2 S1 1_555 1_555
O3 S1 1_555 1_555
S1 C6 1_555 1_555
C11 C12 1_555 1_555
C12 H10 1_555 1_555
C13 C12 1_555 1_555
H11 C13 1_555 1_555
C14 H12 1_555 1_555
C15 C11 1_555 1_555
O4 S2 1_555 1_555
O5 S2 1_555 1_555
O6 S2 1_555 1_555
S2 C11 1_555 1_555
C16 N2 1_555 1_555
N2 H13 1_555 1_555
H14 N2 1_555 1_555
N3 C16 1_555 1_555
H15 N3 1_555 1_555
H16 N3 1_555 1_555
N4 C16 1_555 1_555
H17 N4 1_555 1_555
H18 N4 1_555 1_555
C6A C7A 1_555 1_555
C7A C8 1_555 1_555
H7A C7A 1_555 1_555
C8A C7 1_555 1_555
H8A C8A 1_555 1_555
C9A C8A 1_555 1_555
H9A C9A 1_555 1_555
C10A C10 1_555 1_555
O1A S1A 1_555 1_555
O2A S1A 1_555 1_555
O3A S1A 1_555 1_555
S1A C6A 1_555 1_555
C11A C12A 1_555 1_555
C12A H10A 1_555 1_555
C13A C14 1_555 1_555
H11A C13A 1_555 1_555
C14A C13 1_555 1_555
H12A C14A 1_555 1_555
C15A C15 1_555 1_555
O4A S2A 1_555 1_555
O5A S2A 1_555 1_555
O6A S2A 1_555 1_555
S2A C11A 1_555 1_555
C5 N1 1_555 1_555
C9 C10 1_555 1_555
C14 C15 1_555 1_555
C6A C10A 1_555 1_555
C9A C10A 1_555 1_555
C11A C15A 1_555 1_555
C12A C13A 1_555 1_555
C14A C15A 1_555 1_555

#END
