
#######################################################################
#
#                 Cambridge Crystallographic Data Centre
#                                CCDC 
#
#######################################################################
#
# If this CIF has been generated from an entry in the Cambridge 
# Structural Database, then it will include bibliographic, chemical, 
# crystal, experimental, refinement or atomic coordinate data resulting 
# from the CCDC's data processing and validation procedures.
#
#######################################################################

data_DOWVES
_chemical_formula_moiety         'C10 H6 O6 S2 2-,C3 H5 N2 1+,C1 H6 N3 1+'
_chemical_name_systematic        
'guanidinium 1H-imidazol-3-ium naphthalene-1,5-disulfonate'
_symmetry_cell_setting           triclinic
_symmetry_space_group_name_H-M   'P -1'
_symmetry_Int_Tables_number      2
_space_group_name_Hall           '-P 1'
loop_
_symmetry_equiv_pos_site_id
_symmetry_equiv_pos_as_xyz
1 x,y,z
2 -x,-y,-z
_cell_length_a                   7.9285(16)
_cell_length_b                   8.0601(16)
_cell_length_c                   14.012(3)
_cell_angle_alpha                81.25(3)
_cell_angle_beta                 84.47(3)
_cell_angle_gamma                87.88(3)
_cell_volume                     880.662
_exptl_crystal_colour            colorless
_exptl_crystal_description       block
_cell_formula_units_Z            2
loop_
_atom_site_label
_atom_site_type_symbol
_atom_site_fract_x
_atom_site_fract_y
_atom_site_fract_z
C1 C 0.7249(5) 0.3894(6) 0.1873(3)
N1 N 0.8058(3) 0.3349(3) 0.2655(2)
H1 H 0.9108 0.2915 0.2699
N2 N 0.5607(3) 0.4093(3) 0.31580(19)
H2 H 0.4735 0.4281 0.3529
C2 C 0.7059(4) 0.3522(4) 0.3427(2)
H3 H 0.7338 0.3250 0.4064
C3 C 0.5700(5) 0.4345(5) 0.2186(3)
H4 H 0.775(6) 0.392(6) 0.126(3)
H5 H 0.479(5) 0.474(5) 0.185(3)
S1 S 0.18254(8) 0.23616(7) 0.09989(4)
O1 O 0.1533(2) 0.2581(2) 0.20138(13)
O2 O 0.2215(3) 0.3915(2) 0.03717(14)
C4 C 0.4290(3) 0.0571(3) 0.00049(17)
O3 O 0.0449(2) 0.1480(2) 0.07035(13)
C5 C 0.3630(3) 0.1017(3) 0.09158(17)
C6 C 0.4325(3) 0.0394(3) 0.17438(18)
H6 H 0.3878 0.0713 0.2329
C7 C 0.5715(4) -0.0729(4) 0.17262(19)
H7 H 0.6180 -0.1160 0.2300
C8 C 0.3615(3) 0.1191(3) -0.08746(18)
H8 H 0.2689 0.1934 -0.0873
S1A S 0.81746(8) -0.23616(7) -0.09989(4)
O1A O 0.8467(2) -0.2581(2) -0.20138(13)
O2A O 0.7785(3) -0.3915(2) -0.03717(14)
C4A C 0.5710(3) -0.0571(3) -0.00049(17)
O3A O 0.9551(2) -0.1480(2) -0.07035(13)
C5A C 0.6370(3) -0.1017(3) -0.09158(17)
C6A C 0.5675(3) -0.0394(3) -0.17438(18)
H6A H 0.6122 -0.0713 -0.2329
C7A C 0.4285(4) 0.0729(4) -0.17262(19)
H7A H 0.3820 0.1160 -0.2300
C8A C 0.6385(3) -0.1191(3) 0.08746(18)
H8A H 0.7311 -0.1934 0.0873
N3 N 0.1063(3) 0.5891(3) 0.26000(15)
H9 H 0.1596 0.5014 0.2436
H10 H 0.0730 0.5929 0.3199
N4 N -0.0028(3) 0.8518(3) 0.22003(16)
H11 H -0.0337 0.8553 0.2803
H12 H -0.0234 0.9364 0.1770
C9 C 0.0759(3) 0.7170(3) 0.19365(17)
N5 N 0.1263(3) 0.7123(3) 0.10198(15)
H13 H 0.1796 0.6249 0.0852
H14 H 0.1059 0.7965 0.0588
S2 S 0.17370(7) 0.29237(7) 0.48598(4)
O4 O 0.1290(2) 0.2841(2) 0.58903(12)
O5 O 0.2861(2) 0.4292(2) 0.44813(13)
O6 O 0.0304(2) 0.2910(2) 0.43070(14)
C10 C 0.2933(3) 0.1050(3) 0.47138(15)
C11 C 0.4541(3) 0.0741(3) 0.50905(15)
C12 C 0.2279(3) -0.0070(3) 0.42284(17)
H15 H 0.1216 0.0138 0.4001
C13 C 0.5268(3) 0.1853(3) 0.56169(16)
H16 H 0.4670 0.2820 0.5747
C14 C 0.3185(3) -0.1530(3) 0.40668(18)
H17 H 0.2716 -0.2291 0.3737
S2A S 0.82630(7) -0.29237(7) 0.51402(4)
O4A O 0.8710(2) -0.2841(2) 0.41097(12)
O5A O 0.7139(2) -0.4292(2) 0.55187(13)
O6A O 0.9696(2) -0.2910(2) 0.56930(14)
C10A C 0.7067(3) -0.1050(3) 0.52862(15)
C11A C 0.5459(3) -0.0741(3) 0.49095(15)
C12A C 0.7721(3) 0.0070(3) 0.57716(17)
H15A H 0.8784 -0.0138 0.5999
C13A C 0.4732(3) -0.1853(3) 0.43831(16)
H16A H 0.5330 -0.2820 0.4253
C14A C 0.6815(3) 0.1530(3) 0.59332(18)
H17A H 0.7284 0.2291 0.6263
loop_
_geom_bond_atom_site_label_1
_geom_bond_atom_site_label_2
_geom_bond_site_symmetry_1
_geom_bond_site_symmetry_2
C1 N1 1_555 1_555
N1 H1 1_555 1_555
N2 H2 1_555 1_555
C2 N1 1_555 1_555
H3 C2 1_555 1_555
C3 C1 1_555 1_555
H4 C1 1_555 1_555
H5 C3 1_555 1_555
S1 O1 1_555 1_555
O2 S1 1_555 1_555
C4 C5 1_555 1_555
O3 S1 1_555 1_555
C5 S1 1_555 1_555
C6 C5 1_555 1_555
H6 C6 1_555 1_555
C7 C6 1_555 1_555
H7 C7 1_555 1_555
C8 C4 1_555 1_555
H8 C8 1_555 1_555
N3 H9 1_555 1_555
H10 N3 1_555 1_555
N4 H11 1_555 1_555
H12 N4 1_555 1_555
C9 N3 1_555 1_555
N5 C9 1_555 1_555
H13 N5 1_555 1_555
H14 N5 1_555 1_555
S2 O4 1_555 1_555
O5 S2 1_555 1_555
O6 S2 1_555 1_555
C10 S2 1_555 1_555
C11 C10 1_555 1_555
C12 C10 1_555 1_555
H15 C12 1_555 1_555
C13 C11 1_555 1_555
H16 C13 1_555 1_555
C14 C12 1_555 1_555
H17 C14 1_555 1_555
S1A O1A 1_555 1_555
O2A S1A 1_555 1_555
C4A C4 1_555 1_555
O3A S1A 1_555 1_555
C5A S1A 1_555 1_555
C6A C5A 1_555 1_555
H6A C6A 1_555 1_555
C7A C8 1_555 1_555
H7A C7A 1_555 1_555
C8A C7 1_555 1_555
H8A C8A 1_555 1_555
S2A O4A 1_555 1_555
O5A S2A 1_555 1_555
O6A S2A 1_555 1_555
C10A S2A 1_555 1_555
C11A C11 1_555 1_555
C12A C10A 1_555 1_555
H15A C12A 1_555 1_555
C13A C14 1_555 1_555
H16A C13A 1_555 1_555
C14A C13 1_555 1_555
H17A C14A 1_555 1_555
N2 C2 1_555 1_555
N2 C3 1_555 1_555
N4 C9 1_555 1_555
C4A C5A 1_555 1_555
C4A C8A 1_555 1_555
C6A C7A 1_555 1_555
C10A C11A 1_555 1_555
C11A C13A 1_555 1_555
C12A C14A 1_555 1_555

#END
