
#######################################################################
#
#                 Cambridge Crystallographic Data Centre
#                                CCDC 
#
#######################################################################
#
# If this CIF has been generated from an entry in the Cambridge 
# Structural Database, then it will include bibliographic, chemical, 
# crystal, experimental, refinement or atomic coordinate data resulting 
# from the CCDC's data processing and validation procedures.
#
#######################################################################

data_DOWVIW
_chemical_formula_moiety         'C10 H6 O6 S2 2-,C3 H5 N2 1+,C1 H6 N3 1+'
_chemical_name_systematic        
'guanidinium 1H-pyrazol-2-ium naphthalene-1,5-disulfonate'
_symmetry_cell_setting           triclinic
_symmetry_space_group_name_H-M   'P -1'
_symmetry_Int_Tables_number      2
_space_group_name_Hall           '-P 1'
loop_
_symmetry_equiv_pos_site_id
_symmetry_equiv_pos_as_xyz
1 x,y,z
2 -x,-y,-z
_cell_length_a                   8.1391(16)
_cell_length_b                   8.4780(17)
_cell_length_c                   12.896(3)
_cell_angle_alpha                87.42(3)
_cell_angle_beta                 80.55(3)
_cell_angle_gamma                84.57(3)
_cell_volume                     873.457
_exptl_crystal_colour            colorless
_exptl_crystal_description       block
_cell_formula_units_Z            2
loop_
_atom_site_label
_atom_site_type_symbol
_atom_site_fract_x
_atom_site_fract_y
_atom_site_fract_z
S1 S 0.13765(8) 0.75170(7) 0.53335(5)
O1 O 0.0987(2) 0.7365(2) 0.42749(14)
O2 O 0.1238(2) 0.9161(2) 0.56460(16)
C1 C 0.4132(3) 0.5232(3) 0.50151(18)
O3 O 0.0439(2) 0.6508(2) 0.61085(14)
C2 C 0.3541(3) 0.6849(3) 0.52591(19)
C3 C 0.4622(3) 0.7903(3) 0.5450(2)
H1 H 0.4222 0.8944 0.5605
C4 C 0.3052(3) 0.4092(3) 0.4802(2)
H2 H 0.1921 0.4393 0.4809
C5 C 0.6336(3) 0.7427(3) 0.5412(2)
H3 H 0.7058 0.8161 0.5535
S1A S 0.86235(8) 0.24830(7) 0.46665(5)
O1A O 0.9013(2) 0.2635(2) 0.57251(14)
O2A O 0.8762(2) 0.0839(2) 0.43540(16)
C1A C 0.5868(3) 0.4768(3) 0.49849(18)
O3A O 0.9561(2) 0.3492(2) 0.38915(14)
C2A C 0.6459(3) 0.3151(3) 0.47409(19)
C3A C 0.5378(3) 0.2097(3) 0.4550(2)
H1A H 0.5778 0.1056 0.4395
C4A C 0.6948(3) 0.5908(3) 0.5198(2)
H2A H 0.8079 0.5607 0.5191
C5A C 0.3664(3) 0.2573(3) 0.4588(2)
H3A H 0.2942 0.1839 0.4465
N1 N 0.8529(3) 0.8898(4) 0.7596(2)
H4 H 0.9481 0.8358 0.7443
C6 C 0.7393(5) 0.8608(4) 0.8394(3)
H5 H 0.7465 0.7785 0.8890
N2 N 0.8012(4) 1.0120(4) 0.7067(2)
H6 H 0.8562 1.0522 0.6506
C7 C 0.6098(4) 0.9706(5) 0.8376(3)
H7 H 0.5107 0.9804 0.8854
C8 C 0.6538(6) 1.0642(4) 0.7516(4)
H8 H 0.5890 1.1510 0.7288
S2 S 0.20411(8) 0.74962(8) 0.89521(5)
O4 O 0.2077(3) 0.8756(2) 0.96720(16)
O5 O 0.2157(3) 0.8064(2) 0.78639(15)
O6 O 0.0620(2) 0.6539(2) 0.92656(16)
C9 C 0.4262(3) 0.5534(3) 1.00036(19)
C10 C 0.3860(3) 0.6157(3) 0.9016(2)
C11 C 0.4861(4) 0.5756(3) 0.8089(2)
H9 H 0.4570 0.6167 0.7456
C12 C 0.3252(3) 0.5902(3) 1.0987(2)
H10 H 0.2285 0.6584 1.1001
C13 C 0.6322(4) 0.4731(4) 0.8083(2)
H11 H 0.7003 0.4479 0.7449
S2A S 0.79589(8) 0.25038(8) 1.10479(5)
O4A O 0.7923(3) 0.1244(2) 1.03280(16)
O5A O 0.7843(3) 0.1936(2) 1.21361(15)
O6A O 0.9380(2) 0.3461(2) 1.07344(16)
C9A C 0.5738(3) 0.4466(3) 0.99964(19)
C10A C 0.6140(3) 0.3843(3) 1.0984(2)
C11A C 0.5139(4) 0.4244(3) 1.1911(2)
H9A H 0.5430 0.3833 1.2544
C12A C 0.6748(3) 0.4098(3) 0.9013(2)
H10A H 0.7715 0.3416 0.8999
C13A C 0.3678(4) 0.5269(4) 1.1917(2)
H11A H 0.2997 0.5521 1.2551
C14 C 0.1417(3) 0.2522(3) 0.7910(2)
N3 N 0.1799(3) 0.1473(3) 0.7163(2)
H12 H 0.1724 0.1754 0.6522
H13 H 0.2123 0.0508 0.7317
N4 N 0.1559(3) 0.2088(3) 0.88959(19)
H14 H 0.1326 0.2772 0.9383
H15 H 0.1883 0.1122 0.9047
N5 N 0.0920(3) 0.4002(3) 0.7682(2)
H16 H 0.0842 0.4290 0.7043
H17 H 0.0673 0.4680 0.8173
loop_
_geom_bond_atom_site_label_1
_geom_bond_atom_site_label_2
_geom_bond_site_symmetry_1
_geom_bond_site_symmetry_2
S1 O1 1_555 1_555
O2 S1 1_555 1_555
C1 C2 1_555 1_555
O3 S1 1_555 1_555
C2 S1 1_555 1_555
C3 C2 1_555 1_555
H1 C3 1_555 1_555
C4 C1 1_555 1_555
H2 C4 1_555 1_555
C5 C3 1_555 1_555
H3 C5 1_555 1_555
N1 H4 1_555 1_555
C6 N1 1_555 1_555
H5 C6 1_555 1_555
N2 N1 1_555 1_555
H6 N2 1_555 1_555
C7 C6 1_555 1_555
H7 C7 1_555 1_555
C8 N2 1_555 1_555
H8 C8 1_555 1_555
S2 O4 1_555 1_555
O5 S2 1_555 1_555
O6 S2 1_555 1_555
C9 C10 1_555 1_555
C10 S2 1_555 1_555
C11 C10 1_555 1_555
H9 C11 1_555 1_555
C12 C9 1_555 1_555
H10 C12 1_555 1_555
C13 C11 1_555 1_555
H11 C13 1_555 1_555
C14 N3 1_555 1_555
N3 H12 1_555 1_555
H13 N3 1_555 1_555
N4 C14 1_555 1_555
H14 N4 1_555 1_555
H15 N4 1_555 1_555
N5 C14 1_555 1_555
H16 N5 1_555 1_555
H17 N5 1_555 1_555
S1A O1A 1_555 1_555
O2A S1A 1_555 1_555
C1A C1 1_555 1_555
O3A S1A 1_555 1_555
C2A S1A 1_555 1_555
C3A C2A 1_555 1_555
H1A C3A 1_555 1_555
C4A C5 1_555 1_555
H2A C4A 1_555 1_555
C5A C4 1_555 1_555
H3A C5A 1_555 1_555
S2A O4A 1_555 1_555
O5A S2A 1_555 1_555
O6A S2A 1_555 1_555
C9A C9 1_555 1_555
C10A S2A 1_555 1_555
C11A C10A 1_555 1_555
H9A C11A 1_555 1_555
C12A C13 1_555 1_555
H10A C12A 1_555 1_555
C13A C12 1_555 1_555
H11A C13A 1_555 1_555
C7 C8 1_555 1_555
C1A C2A 1_555 1_555
C1A C4A 1_555 1_555
C3A C5A 1_555 1_555
C9A C10A 1_555 1_555
C9A C12A 1_555 1_555
C11A C13A 1_555 1_555

#END
