
#######################################################################
#
#                 Cambridge Crystallographic Data Centre
#                                CCDC 
#
#######################################################################
#
# If this CIF has been generated from an entry in the Cambridge 
# Structural Database, then it will include bibliographic, chemical, 
# crystal, experimental, refinement or atomic coordinate data resulting 
# from the CCDC's data processing and validation procedures.
#
#######################################################################

data_DOWVOC36
_chemical_formula_moiety         'C10 H6 O6 S2 2-,C5 H6 N1 1+,C1 H6 N3 1+'
_chemical_name_systematic        
'guanidinium pyridinium naphthalene-1,5-disulfonate'
_symmetry_cell_setting           triclinic
_symmetry_space_group_name_H-M   'P -1'
_symmetry_Int_Tables_number      2
_space_group_name_Hall           '-P 1'
loop_
_symmetry_equiv_pos_site_id
_symmetry_equiv_pos_as_xyz
1 x,y,z
2 -x,-y,-z
_cell_length_a                   8.000(6)
_cell_length_b                   8.152(7)
_cell_length_c                   14.090(11)
_cell_angle_alpha                92.224(15)
_cell_angle_beta                 99.586(18)
_cell_angle_gamma                90.53(2)
_cell_volume                     905.265
_exptl_crystal_colour            colorless
_exptl_crystal_description       block
_cell_formula_units_Z            2
loop_
_atom_site_label
_atom_site_type_symbol
_atom_site_fract_x
_atom_site_fract_y
_atom_site_fract_z
C1 C 0.8224(4) 0.2220(3) 0.6519(2)
H1 H 0.7851 0.2662 0.5924
C2 C 0.7911(4) 0.2999(3) 0.7345(2)
H2 H 0.7289 0.3959 0.7316
C3 C 0.8516(4) 0.2363(4) 0.8214(2)
H3 H 0.8315 0.2894 0.8779
C4 C 0.9429(4) 0.0930(4) 0.8255(2)
H4 H 0.9865 0.0501 0.8846
C5 C 0.9680(4) 0.0154(3) 0.7417(2)
H5 H 1.0268 -0.0826 0.7430
N1 N 0.9076(3) 0.0809(3) 0.65773(17)
H6 H 0.9240 0.0307 0.6053
C6 C 0.5964(3) 0.8722(3) 0.90928(17)
C7 C 0.5340(3) 0.9466(3) 0.82557(17)
H7 H 0.5629 0.9074 0.7677
C8 C 0.4261(3) 1.0825(3) 0.82643(18)
H8 H 0.3841 1.1319 0.7691
C9 C 0.6171(3) 0.8579(3) 1.08865(18)
H9 H 0.6882 0.7682 1.0891
C10 C 0.5549(3) 0.9310(3) 1.00005(17)
O1 O 0.7504(2) 0.6820(2) 0.80151(12)
O2 O 0.6392(2) 0.5595(2) 0.93290(12)
O3 O 0.8902(2) 0.7377(2) 0.96618(13)
S1 S 0.73073(8) 0.70003(7) 0.90226(4)
C6A C 0.4036(3) 1.1278(3) 1.09072(17)
C7A C 0.4660(3) 1.0534(3) 1.17443(17)
H7A H 0.4371 1.0926 1.2323
C8A C 0.5739(3) 0.9175(3) 1.17357(18)
H8A H 0.6159 0.8681 1.2309
C9A C 0.3829(3) 1.1421(3) 0.91135(18)
H9A H 0.3118 1.2318 0.9109
C10A C 0.4451(3) 1.0690(3) 0.99995(17)
O1A O 0.2496(2) 1.3180(2) 1.19849(12)
O2A O 0.3608(2) 1.4405(2) 1.06710(12)
O3A O 0.1098(2) 1.2623(2) 1.03382(13)
S1A S 0.26927(8) 1.29997(7) 1.09774(4)
C11 C 0.6142(3) 0.7996(3) 0.52012(16)
C12 C 0.5129(3) 0.7201(3) 0.57410(18)
H10 H 0.5398 0.6151 0.5947
C13 C 0.3677(3) 0.7982(3) 0.59816(18)
H11 H 0.2979 0.7426 0.6331
C14 C 0.6716(3) 1.0476(3) 0.42876(17)
H12 H 0.7647 0.9971 0.4093
C15 C 0.5727(3) 0.9608(3) 0.48648(16)
O4 O 0.7788(2) 0.6676(2) 0.39207(12)
O5 O 0.8148(2) 0.5512(2) 0.55104(13)
O6 O 0.9414(2) 0.8175(2) 0.52939(13)
S2 S 0.80216(8) 0.69853(7) 0.49656(4)
C11A C 0.3858(3) 1.2004(3) 0.47988(16)
C12A C 0.4871(3) 1.2799(3) 0.42590(18)
H10A H 0.4602 1.3849 0.4053
C13A C 0.6323(3) 1.2018(3) 0.40184(18)
H11A H 0.7021 1.2574 0.3669
C14A C 0.3284(3) 0.9524(3) 0.57124(17)
H12A H 0.2353 1.0029 0.5907
C15A C 0.4273(3) 1.0392(3) 0.51352(16)
O4A O 0.2212(2) 1.3324(2) 0.60793(12)
O5A O 0.1852(2) 1.4488(2) 0.44896(13)
O6A O 0.0586(2) 1.1825(2) 0.47061(13)
S2A S 0.19784(8) 1.30147(7) 0.50344(4)
C16 C 0.2005(3) 0.5695(3) 0.80777(17)
N2 N 0.3392(3) 0.4985(2) 0.78587(15)
H13 H 0.3430 0.4669 0.7273
H14 H 0.4250 0.4843 0.8303
N3 N 0.0684(3) 0.5914(3) 0.73946(15)
H15 H 0.0721 0.5598 0.6809
H16 H -0.0212 0.6373 0.7537
N4 N 0.1973(3) 0.6225(3) 0.89805(15)
H17 H 0.1092 0.6711 0.9122
H18 H 0.2833 0.6080 0.9422
loop_
_geom_bond_atom_site_label_1
_geom_bond_atom_site_label_2
_geom_bond_site_symmetry_1
_geom_bond_site_symmetry_2
C1 H1 1_555 1_555
C2 C1 1_555 1_555
H2 C2 1_555 1_555
C3 C2 1_555 1_555
H3 C3 1_555 1_555
C4 C3 1_555 1_555
H4 C4 1_555 1_555
C5 C4 1_555 1_555
H5 C5 1_555 1_555
N1 C1 1_555 1_555
H6 N1 1_555 1_555
C6 C7 1_555 1_555
C7 H7 1_555 1_555
C8 C7 1_555 1_555
H8 C8 1_555 1_555
C9 H9 1_555 1_555
C10 C6 1_555 1_555
O1 S1 1_555 1_555
O2 S1 1_555 1_555
O3 S1 1_555 1_555
S1 C6 1_555 1_555
C11 C12 1_555 1_555
C12 H10 1_555 1_555
C13 C12 1_555 1_555
H11 C13 1_555 1_555
C14 H12 1_555 1_555
C15 C11 1_555 1_555
O4 S2 1_555 1_555
O5 S2 1_555 1_555
O6 S2 1_555 1_555
S2 C11 1_555 1_555
C16 N2 1_555 1_555
N2 H13 1_555 1_555
H14 N2 1_555 1_555
N3 C16 1_555 1_555
H15 N3 1_555 1_555
H16 N3 1_555 1_555
N4 C16 1_555 1_555
H17 N4 1_555 1_555
H18 N4 1_555 1_555
C6A C7A 1_555 1_555
C7A H7A 1_555 1_555
C8A C9 1_555 1_555
H8A C8A 1_555 1_555
C9A C8 1_555 1_555
H9A C9A 1_555 1_555
C10A C10 1_555 1_555
O1A S1A 1_555 1_555
O2A S1A 1_555 1_555
O3A S1A 1_555 1_555
S1A C6A 1_555 1_555
C11A C12A 1_555 1_555
C12A H10A 1_555 1_555
C13A C14 1_555 1_555
H11A C13A 1_555 1_555
C14A C13 1_555 1_555
H12A C14A 1_555 1_555
C15A C15 1_555 1_555
O4A S2A 1_555 1_555
O5A S2A 1_555 1_555
O6A S2A 1_555 1_555
S2A C11A 1_555 1_555
C5 N1 1_555 1_555
C9 C10 1_555 1_555
C14 C15 1_555 1_555
C6A C10A 1_555 1_555
C7A C8A 1_555 1_555
C9A C10A 1_555 1_555
C11A C15A 1_555 1_555
C12A C13A 1_555 1_555
C14A C15A 1_555 1_555

#END
