
#######################################################################
#
#                 Cambridge Crystallographic Data Centre
#                                CCDC 
#
#######################################################################
#
# If this CIF has been generated from an entry in the Cambridge 
# Structural Database, then it will include bibliographic, chemical, 
# crystal, experimental, refinement or atomic coordinate data resulting 
# from the CCDC's data processing and validation procedures.
#
#######################################################################

data_DOWVOC
_chemical_formula_moiety         'C10 H6 O6 S2 2-,C5 H6 N1 1+,C1 H6 N3 1+'
_chemical_name_systematic        
'guanidinium pyridinium naphthalene-1,5-disulfonate'
_symmetry_cell_setting           triclinic
_symmetry_space_group_name_H-M   'P -1'
_symmetry_Int_Tables_number      2
_space_group_name_Hall           '-P 1'
loop_
_symmetry_equiv_pos_site_id
_symmetry_equiv_pos_as_xyz
1 x,y,z
2 -x,-y,-z
_cell_length_a                   8.0779(16)
_cell_length_b                   8.2327(16)
_cell_length_c                   14.159(3)
_cell_angle_alpha                87.74(3)
_cell_angle_beta                 78.03(3)
_cell_angle_gamma                89.80(3)
_cell_volume                     920.414
_exptl_crystal_colour            colorless
_exptl_crystal_description       block
_cell_formula_units_Z            2
loop_
_atom_site_label
_atom_site_type_symbol
_atom_site_fract_x
_atom_site_fract_y
_atom_site_fract_z
S1 S 0.20920(7) 0.80913(6) -0.00419(4)
O1 O 0.0639(2) 0.7044(2) 0.03193(15)
O2 O 0.2016(3) 0.9573(2) 0.04803(15)
O3 O 0.2397(3) 0.8355(2) -0.10845(12)
C1 C 0.4932(3) 0.7794(3) 0.06963(16)
H1 H 0.4681 0.8847 0.0893
C2 C 0.3904(2) 0.7015(2) 0.01984(14)
C3 C 0.4280(2) 0.5397(2) -0.01199(13)
C4 C 0.3266(3) 0.4542(3) -0.06452(15)
H2 H 0.2331 0.5052 -0.0810
C5 C 0.6364(3) 0.7006(3) 0.09110(17)
H3 H 0.7066 0.7552 0.1238
S1A S 0.79080(7) 0.19087(6) 0.00419(4)
O1A O 0.9361(2) 0.2956(2) -0.03193(15)
O2A O 0.7984(3) 0.0427(2) -0.04803(15)
O3A O 0.7603(3) 0.1645(2) 0.10845(12)
C1A C 0.5068(3) 0.2206(3) -0.06963(16)
H1A H 0.5319 0.1153 -0.0893
C2A C 0.6096(2) 0.2985(2) -0.01984(14)
C3A C 0.5720(2) 0.4603(2) 0.01199(13)
C4A C 0.6734(3) 0.5458(3) 0.06452(15)
H2A H 0.7669 0.4948 0.0810
C5A C 0.3636(3) 0.2994(3) -0.09110(17)
H3A H 0.2934 0.2448 -0.1238
S2 S 0.27627(6) 0.79741(6) 0.40276(4)
O4 O 0.2634(2) 0.8158(2) 0.30176(12)
O5 O 0.3627(2) 0.93560(19) 0.43346(12)
O6 O 0.1149(2) 0.7602(2) 0.46710(13)
C6 C 0.4456(2) 0.5686(2) 0.50024(14)
C7 C 0.4097(3) 0.6264(2) 0.40973(14)
C8 C 0.4773(3) 0.5525(3) 0.32557(16)
H4 H 0.4525 0.5920 0.2677
C9 C 0.5841(3) 0.4172(3) 0.32598(16)
H5 H 0.6292 0.3677 0.2684
C10 C 0.3783(3) 0.6418(3) 0.58938(15)
H6 H 0.3075 0.7312 0.5901
S2A S 0.72373(6) 0.20259(6) 0.59724(4)
O4A O 0.7366(2) 0.1842(2) 0.69824(12)
O5A O 0.6373(2) 0.06440(19) 0.56654(12)
O6A O 0.8851(2) 0.2398(2) 0.53290(13)
C6A C 0.5544(2) 0.4314(2) 0.49976(14)
C7A C 0.5903(3) 0.3736(2) 0.59027(14)
C8A C 0.5227(3) 0.4475(3) 0.67443(16)
H4A H 0.5475 0.4080 0.7323
C9A C 0.4159(3) 0.5828(3) 0.67402(16)
H5A H 0.3708 0.6323 0.7316
C10A C 0.6217(3) 0.3582(3) 0.41062(15)
H6A H 0.6925 0.2688 0.4099
N1 N 0.0840(3) 0.3769(4) 0.15424(19)
H7 H 0.0577 0.4104 0.1010
C11 C 0.0765(5) 0.4078(5) 0.3188(2)
H8 H 0.0422 0.4640 0.3752
C12 C 0.0356(4) 0.4633(4) 0.2345(3)
H9 H -0.0247 0.5593 0.2323
C13 C 0.1700(4) 0.2434(3) 0.15676(19)
H10 H 0.1998 0.1852 0.1008
C14 C 0.2158(5) 0.1884(4) 0.2351(3)
H11 H 0.2806 0.0946 0.2337
C15 C 0.1690(5) 0.2679(5) 0.3190(3)
H12 H 0.1992 0.2280 0.3754
N2 N 0.0537(3) 0.1089(3) 0.75820(14)
H13 H 0.0549 0.0829 0.8175
H14 H -0.0343 0.1540 0.7436
N3 N 0.3228(2) 0.0105(2) 0.71166(14)
H15 H 0.4108 -0.0059 0.6672
H16 H 0.3228 -0.0182 0.7707
N4 N 0.1881(3) 0.1237(3) 0.59818(14)
H17 H 0.2761 0.1072 0.5538
H18 H 0.1001 0.1688 0.5834
C16 C 0.1879(3) 0.0795(2) 0.68923(15)
loop_
_geom_bond_atom_site_label_1
_geom_bond_atom_site_label_2
_geom_bond_site_symmetry_1
_geom_bond_site_symmetry_2
S1 O1 1_555 1_555
O2 S1 1_555 1_555
O3 S1 1_555 1_555
C1 H1 1_555 1_555
C2 S1 1_555 1_555
C3 C2 1_555 1_555
C4 C3 1_555 1_555
H2 C4 1_555 1_555
C5 C1 1_555 1_555
H3 C5 1_555 1_555
S2 O4 1_555 1_555
O5 S2 1_555 1_555
O6 S2 1_555 1_555
C6 C7 1_555 1_555
C7 S2 1_555 1_555
C8 C7 1_555 1_555
H4 C8 1_555 1_555
C9 C8 1_555 1_555
H5 C9 1_555 1_555
C10 C6 1_555 1_555
H6 C10 1_555 1_555
N1 H7 1_555 1_555
C11 H8 1_555 1_555
C12 N1 1_555 1_555
H9 C12 1_555 1_555
C13 N1 1_555 1_555
H10 C13 1_555 1_555
C14 C13 1_555 1_555
H11 C14 1_555 1_555
C15 C11 1_555 1_555
H12 C15 1_555 1_555
N2 H13 1_555 1_555
H14 N2 1_555 1_555
N3 H15 1_555 1_555
H16 N3 1_555 1_555
N4 H17 1_555 1_555
H18 N4 1_555 1_555
C16 N2 1_555 1_555
S1A O1A 1_555 1_555
O2A S1A 1_555 1_555
O3A S1A 1_555 1_555
C1A H1A 1_555 1_555
C2A S1A 1_555 1_555
C3A C3 1_555 1_555
C4A C5 1_555 1_555
H2A C4A 1_555 1_555
C5A C4 1_555 1_555
H3A C5A 1_555 1_555
S2A O4A 1_555 1_555
O5A S2A 1_555 1_555
O6A S2A 1_555 1_555
C6A C6 1_555 1_555
C7A S2A 1_555 1_555
C8A C7A 1_555 1_555
H4A C8A 1_555 1_555
C9A C10 1_555 1_555
H5A C9A 1_555 1_555
C10A C9 1_555 1_555
H6A C10A 1_555 1_555
C1 C2 1_555 1_555
C11 C12 1_555 1_555
C14 C15 1_555 1_555
N3 C16 1_555 1_555
N4 C16 1_555 1_555
C1A C2A 1_555 1_555
C1A C5A 1_555 1_555
C2A C3A 1_555 1_555
C3A C4A 1_555 1_555
C6A C7A 1_555 1_555
C6A C10A 1_555 1_555
C8A C9A 1_555 1_555

#END
