
#######################################################################
#
#                 Cambridge Crystallographic Data Centre
#                                CCDC 
#
#######################################################################
#
# If this CIF has been generated from an entry in the Cambridge 
# Structural Database, then it will include bibliographic, chemical, 
# crystal, experimental, refinement or atomic coordinate data resulting 
# from the CCDC's data processing and validation procedures.
#
#######################################################################

data_DOWVOC03
_chemical_formula_moiety         'C10 H6 O6 S2 2-,C5 H6 N1 1+,C1 H6 N3 1+'
_chemical_name_systematic        
'guanidinium pyridinium naphthalene-1,5-disulfonate'
_symmetry_cell_setting           triclinic
_symmetry_space_group_name_H-M   'P -1'
_symmetry_Int_Tables_number      2
_space_group_name_Hall           '-P 1'
loop_
_symmetry_equiv_pos_site_id
_symmetry_equiv_pos_as_xyz
1 x,y,z
2 -x,-y,-z
_cell_length_a                   8.061(4)
_cell_length_b                   8.214(4)
_cell_length_c                   14.122(7)
_cell_angle_alpha                92.273(5)
_cell_angle_beta                 101.975(8)
_cell_angle_gamma                90.073(7)
_cell_volume                     913.949
_exptl_crystal_colour            colorless
_exptl_crystal_description       block
_cell_formula_units_Z            2
loop_
_atom_site_label
_atom_site_type_symbol
_atom_site_fract_x
_atom_site_fract_y
_atom_site_fract_z
C1 C 0.7846(4) 0.3096(4) 0.7374(3)
H1 H 0.7197 0.4033 0.7367
C2 C 0.8313(5) 0.2315(5) 0.8191(2)
H2 H 0.8006 0.2704 0.8757
C3 C 0.9258(5) 0.0920(4) 0.8189(2)
H3 H 0.9621 0.0366 0.8755
C4 C 0.9654(4) 0.0365(4) 0.7339(3)
H4 H 1.0260 -0.0594 0.7316
C5 C 0.9166(3) 0.1204(3) 0.65436(18)
H5 H 0.9444 0.0832 0.5966
N1 N 0.8300(3) 0.2547(3) 0.65643(18)
H6 H 0.8018 0.3086 0.6046
C6 C 0.6105(3) 0.7981(2) 0.51998(14)
C7 C 0.5076(3) 0.7201(3) 0.56992(16)
H7 H 0.5324 0.6146 0.5895
C8 C 0.6357(3) 1.2011(3) 0.40831(17)
H8 H 0.7054 1.2559 0.3750
C9 C 0.6737(3) 1.0469(3) 0.43509(16)
H9 H 0.7676 0.9966 0.4186
C10 C 0.5722(2) 0.9600(2) 0.48811(13)
O1 O 0.9369(2) 0.7988(2) 0.53181(13)
O2 O 0.7613(2) 0.6645(2) 0.39153(12)
O3 O 0.8000(2) 0.5440(2) 0.54843(14)
S1 S 0.79171(7) 0.69193(7) 0.49586(4)
C6A C 0.3895(3) 1.2019(2) 0.48002(14)
C7A C 0.4924(3) 1.2799(3) 0.43008(16)
H7A H 0.4676 1.3854 0.4105
C8A C 0.3643(3) 0.7989(3) 0.59169(17)
H8A H 0.2946 0.7441 0.6250
C9A C 0.3263(3) 0.9531(3) 0.56491(16)
H9A H 0.2324 1.0034 0.5814
C10A C 0.4278(2) 1.0400(2) 0.51189(13)
O1A O 0.0631(2) 1.2012(2) 0.46819(13)
O2A O 0.2387(2) 1.3355(2) 0.60847(12)
O3A O 0.2000(2) 1.4560(2) 0.45157(14)
S1A S 0.20829(7) 1.30807(7) 0.50414(4)
C11 C 0.5905(3) 0.8732(2) 0.90970(15)
C12 C 0.5234(3) 0.9477(3) 0.82542(16)
H10 H 0.5491 0.9090 0.7674
C13 C 0.4156(3) 1.0825(3) 0.82590(16)
H11 H 0.3697 1.1316 0.7682
C14 C 0.6215(3) 0.8586(3) 1.08924(16)
H12 H 0.6922 0.7690 1.0899
C15 C 0.5545(3) 0.9312(2) 1.00032(15)
O4 O 0.7379(2) 0.6848(2) 0.80180(11)
O5 O 0.6372(2) 0.56352(19) 0.93356(12)
O6 O 0.8858(2) 0.7406(2) 0.96720(12)
S2 S 0.72433(7) 0.70278(7) 0.90279(4)
C11A C 0.4095(3) 1.1268(2) 1.09030(15)
C12A C 0.4766(3) 1.0523(3) 1.17458(16)
H10A H 0.4509 1.0910 1.2326
C13A C 0.5844(3) 0.9175(3) 1.17410(16)
H11A H 0.6303 0.8684 1.2318
C14A C 0.3785(3) 1.1414(3) 0.91076(16)
H12A H 0.3078 1.2310 0.9101
C15A C 0.4455(3) 1.0688(2) 0.99968(15)
O4A O 0.2621(2) 1.3152(2) 1.19820(11)
O5A O 0.3628(2) 1.43648(19) 1.06644(12)
O6A O 0.1142(2) 1.2594(2) 1.03280(12)
S2A S 0.27567(7) 1.29722(7) 1.09721(4)
C16 C 0.8115(3) 0.4219(3) 0.18940(15)
N2 N 0.6770(2) 0.4909(2) 0.21160(14)
H13 H 0.6757 0.5172 0.2710
H14 H 0.5902 0.5099 0.1667
N3 N 0.8116(3) 0.3759(3) 0.09821(14)
H15 H 0.7235 0.3912 0.0535
H16 H 0.8998 0.3307 0.0838
N4 N 0.9454(3) 0.3923(3) 0.25782(14)
H17 H 0.9449 0.4183 0.3173
H18 H 1.0331 0.3471 0.2428
loop_
_geom_bond_atom_site_label_1
_geom_bond_atom_site_label_2
_geom_bond_site_symmetry_1
_geom_bond_site_symmetry_2
C1 H1 1_555 1_555
C2 C1 1_555 1_555
H2 C2 1_555 1_555
C3 C2 1_555 1_555
H3 C3 1_555 1_555
C4 C3 1_555 1_555
H4 C4 1_555 1_555
C5 C4 1_555 1_555
H5 C5 1_555 1_555
N1 C1 1_555 1_555
H6 N1 1_555 1_555
C6 C7 1_555 1_555
C7 H7 1_555 1_555
C8 H8 1_555 1_555
C9 C8 1_555 1_555
H9 C9 1_555 1_555
C10 C6 1_555 1_555
O1 S1 1_555 1_555
O2 S1 1_555 1_555
O3 S1 1_555 1_555
S1 C6 1_555 1_555
C11 C12 1_555 1_555
C12 H10 1_555 1_555
C13 C12 1_555 1_555
H11 C13 1_555 1_555
C14 H12 1_555 1_555
C15 C11 1_555 1_555
O4 S2 1_555 1_555
O5 S2 1_555 1_555
O6 S2 1_555 1_555
S2 C11 1_555 1_555
C16 N2 1_555 1_555
N2 H13 1_555 1_555
H14 N2 1_555 1_555
N3 C16 1_555 1_555
H15 N3 1_555 1_555
H16 N3 1_555 1_555
N4 C16 1_555 1_555
H17 N4 1_555 1_555
H18 N4 1_555 1_555
C6A C7A 1_555 1_555
C7A C8 1_555 1_555
H7A C7A 1_555 1_555
C8A C7 1_555 1_555
H8A C8A 1_555 1_555
C9A C8A 1_555 1_555
H9A C9A 1_555 1_555
C10A C10 1_555 1_555
O1A S1A 1_555 1_555
O2A S1A 1_555 1_555
O3A S1A 1_555 1_555
S1A C6A 1_555 1_555
C11A C12A 1_555 1_555
C12A H10A 1_555 1_555
C13A C14 1_555 1_555
H11A C13A 1_555 1_555
C14A C13 1_555 1_555
H12A C14A 1_555 1_555
C15A C15 1_555 1_555
O4A S2A 1_555 1_555
O5A S2A 1_555 1_555
O6A S2A 1_555 1_555
S2A C11A 1_555 1_555
C5 N1 1_555 1_555
C9 C10 1_555 1_555
C14 C15 1_555 1_555
C6A C10A 1_555 1_555
C9A C10A 1_555 1_555
C11A C15A 1_555 1_555
C12A C13A 1_555 1_555
C14A C15A 1_555 1_555

#END
