
#######################################################################
#
#                 Cambridge Crystallographic Data Centre
#                                CCDC 
#
#######################################################################
#
# If this CIF has been generated from an entry in the Cambridge 
# Structural Database, then it will include bibliographic, chemical, 
# crystal, experimental, refinement or atomic coordinate data resulting 
# from the CCDC's data processing and validation procedures.
#
#######################################################################

data_DOWVOC39
_chemical_formula_moiety         'C10 H6 O6 S2 2-,C5 H6 N1 1+,C1 H6 N3 1+'
_chemical_name_systematic        
'guanidinium pyridinium naphthalene-1,5-disulfonate'
_symmetry_cell_setting           triclinic
_symmetry_space_group_name_H-M   'P -1'
_symmetry_Int_Tables_number      2
_space_group_name_Hall           '-P 1'
loop_
_symmetry_equiv_pos_site_id
_symmetry_equiv_pos_as_xyz
1 x,y,z
2 -x,-y,-z
_cell_length_a                   8.012(6)
_cell_length_b                   8.154(7)
_cell_length_c                   14.095(12)
_cell_angle_alpha                92.292(17)
_cell_angle_beta                 100.00(2)
_cell_angle_gamma                90.54(2)
_cell_volume                     905.984
_exptl_crystal_colour            colorless
_exptl_crystal_description       block
_cell_formula_units_Z            2
loop_
_atom_site_label
_atom_site_type_symbol
_atom_site_fract_x
_atom_site_fract_y
_atom_site_fract_z
C1 C 0.1773(4) 0.7720(4) 0.3473(2)
H1 H 0.2137 0.7249 0.4062
C2 C 0.2103(4) 0.6998(4) 0.2645(3)
H2 H 0.2733 0.6043 0.2664
C3 C 0.1517(4) 0.7664(4) 0.1792(2)
H3 H 0.1740 0.7160 0.1225
C4 C 0.0586(4) 0.9090(4) 0.1754(2)
H4 H 0.0157 0.9541 0.1167
C5 C 0.0319(4) 0.9812(4) 0.2605(3)
H5 H -0.0277 1.0785 0.2606
N1 N 0.0915(3) 0.9121(4) 0.34309(19)
H6 H 0.0742 0.9594 0.3961
C6 C 0.4044(3) 0.1276(3) 0.09064(18)
C7 C 0.4677(3) 0.0534(3) 0.17438(19)
H7 H 0.4390 0.0925 0.2322
C8 C 0.5762(4) -0.0821(3) 0.17393(19)
H8 H 0.6195 -0.1312 0.2313
C9 C 0.3826(4) 0.1408(3) -0.08859(19)
H9 H 0.3117 0.2305 -0.0890
C10 C 0.4447(3) 0.0693(3) -0.00036(18)
O1 O 0.2515(2) 0.3178(2) 0.19808(13)
O2 O 0.1105(2) 0.2612(2) 0.03339(13)
O3 O 0.3607(2) 0.4400(2) 0.06664(13)
S1 S 0.27032(8) 0.29959(8) 0.09759(5)
C6A C 0.5956(3) -0.1276(3) -0.09064(18)
C7A C 0.5323(3) -0.0534(3) -0.17438(19)
H7A H 0.5610 -0.0925 -0.2322
C8A C 0.4238(4) 0.0821(3) -0.17393(19)
H8A H 0.3805 0.1312 -0.2313
C9A C 0.6174(4) -0.1408(3) 0.08859(19)
H9A H 0.6883 -0.2305 0.0890
C10A C 0.5553(3) -0.0693(3) 0.00036(18)
O1A O 0.7485(2) -0.3178(2) -0.19808(13)
O2A O 0.8895(2) -0.2612(2) -0.03339(13)
O3A O 0.6393(2) -0.4400(2) -0.06664(13)
S1A S 0.72968(8) -0.29959(8) -0.09759(5)
C11 C 0.3862(3) 0.2000(3) 0.48001(18)
C12 C 0.4867(3) 0.2805(3) 0.42659(19)
H10 H 0.4595 0.3856 0.4064
C13 C 0.6313(3) 0.2032(3) 0.40255(19)
H11 H 0.7004 0.2589 0.3675
C14 C 0.3288(3) -0.0485(3) 0.57014(18)
H12 H 0.2350 0.0013 0.5889
C15 C 0.4273(3) 0.0389(3) 0.51348(17)
O4 O 0.0584(2) 0.1834(2) 0.47064(14)
O5 O 0.2236(3) 0.3324(2) 0.60819(13)
O6 O 0.1856(3) 0.4486(2) 0.44989(14)
S2 S 0.19868(8) 0.30137(8) 0.50384(5)
C11A C 0.6138(3) -0.2000(3) 0.51999(18)
C12A C 0.5133(3) -0.2805(3) 0.57341(19)
H10A H 0.5405 -0.3856 0.5936
C13A C 0.3687(3) -0.2032(3) 0.59745(19)
H11A H 0.2996 -0.2589 0.6325
C14A C 0.6712(3) 0.0485(3) 0.42986(18)
H12A H 0.7650 -0.0013 0.4111
C15A C 0.5727(3) -0.0389(3) 0.48652(17)
O4A O 0.9416(2) -0.1834(2) 0.52936(14)
O5A O 0.7764(3) -0.3324(2) 0.39181(13)
O6A O 0.8144(3) -0.4486(2) 0.55011(14)
S2A S 0.80132(8) -0.30137(8) 0.49616(5)
C16 C 0.8018(3) 0.4288(3) 0.19188(18)
N2 N 0.6638(3) 0.4998(3) 0.21350(16)
H13 H 0.6603 0.5310 0.2721
H14 H 0.5781 0.5146 0.1689
N3 N 0.8045(3) 0.3776(3) 0.10128(16)
H15 H 0.8925 0.3294 0.0870
H16 H 0.7183 0.3928 0.0570
N4 N 0.9336(3) 0.4056(3) 0.25968(16)
H17 H 0.9308 0.4366 0.3184
H18 H 1.0225 0.3596 0.2452
loop_
_geom_bond_atom_site_label_1
_geom_bond_atom_site_label_2
_geom_bond_site_symmetry_1
_geom_bond_site_symmetry_2
C1 H1 1_555 1_555
C2 C1 1_555 1_555
H2 C2 1_555 1_555
C3 C2 1_555 1_555
H3 C3 1_555 1_555
C4 C3 1_555 1_555
H4 C4 1_555 1_555
C5 C4 1_555 1_555
H5 C5 1_555 1_555
N1 C1 1_555 1_555
H6 N1 1_555 1_555
C6 C7 1_555 1_555
C7 H7 1_555 1_555
C8 C7 1_555 1_555
H8 C8 1_555 1_555
C9 H9 1_555 1_555
C10 C6 1_555 1_555
O1 S1 1_555 1_555
O2 S1 1_555 1_555
O3 S1 1_555 1_555
S1 C6 1_555 1_555
C11 C12 1_555 1_555
C12 H10 1_555 1_555
C13 C12 1_555 1_555
H11 C13 1_555 1_555
C14 H12 1_555 1_555
C15 C11 1_555 1_555
O4 S2 1_555 1_555
O5 S2 1_555 1_555
O6 S2 1_555 1_555
S2 C11 1_555 1_555
C16 N2 1_555 1_555
N2 H13 1_555 1_555
H14 N2 1_555 1_555
N3 C16 1_555 1_555
H15 N3 1_555 1_555
H16 N3 1_555 1_555
N4 C16 1_555 1_555
H17 N4 1_555 1_555
H18 N4 1_555 1_555
C6A C7A 1_555 1_555
C7A H7A 1_555 1_555
C8A C9 1_555 1_555
H8A C8A 1_555 1_555
C9A C8 1_555 1_555
H9A C9A 1_555 1_555
C10A C10 1_555 1_555
O1A S1A 1_555 1_555
O2A S1A 1_555 1_555
O3A S1A 1_555 1_555
S1A C6A 1_555 1_555
C11A C12A 1_555 1_555
C12A H10A 1_555 1_555
C13A C14 1_555 1_555
H11A C13A 1_555 1_555
C14A C13 1_555 1_555
H12A C14A 1_555 1_555
C15A C15 1_555 1_555
O4A S2A 1_555 1_555
O5A S2A 1_555 1_555
O6A S2A 1_555 1_555
S2A C11A 1_555 1_555
C5 N1 1_555 1_555
C9 C10 1_555 1_555
C14 C15 1_555 1_555
C6A C10A 1_555 1_555
C7A C8A 1_555 1_555
C9A C10A 1_555 1_555
C11A C15A 1_555 1_555
C12A C13A 1_555 1_555
C14A C15A 1_555 1_555

#END
