
#######################################################################
#
#                 Cambridge Crystallographic Data Centre
#                                CCDC 
#
#######################################################################
#
# If this CIF has been generated from an entry in the Cambridge 
# Structural Database, then it will include bibliographic, chemical, 
# crystal, experimental, refinement or atomic coordinate data resulting 
# from the CCDC's data processing and validation procedures.
#
#######################################################################

data_DOWVOC43
_chemical_formula_moiety         'C10 H6 O6 S2 2-,C5 H6 N1 1+,C1 H6 N3 1+'
_chemical_name_systematic        
'guanidinium pyridinium naphthalene-1,5-disulfonate'
_symmetry_cell_setting           triclinic
_symmetry_space_group_name_H-M   'P -1'
_symmetry_Int_Tables_number      2
_space_group_name_Hall           '-P 1'
loop_
_symmetry_equiv_pos_site_id
_symmetry_equiv_pos_as_xyz
1 x,y,z
2 -x,-y,-z
_cell_length_a                   8.043(4)
_cell_length_b                   8.183(4)
_cell_length_c                   14.106(8)
_cell_angle_alpha                92.276(5)
_cell_angle_beta                 101.704(9)
_cell_angle_gamma                90.338(7)
_cell_volume                     908.286
_exptl_crystal_colour            colorless
_exptl_crystal_description       block
_cell_formula_units_Z            2
loop_
_atom_site_label
_atom_site_type_symbol
_atom_site_fract_x
_atom_site_fract_y
_atom_site_fract_z
C1 C 0.7850(4) 0.3086(4) 0.7379(3)
H1 H 0.7201 0.4024 0.7373
C2 C 0.8350(5) 0.2303(5) 0.8203(2)
H2 H 0.8059 0.2701 0.8773
C3 C 0.9292(4) 0.0911(4) 0.8201(2)
H3 H 0.9667 0.0368 0.8771
C4 C 0.9672(4) 0.0335(4) 0.7344(2)
H4 H 1.0281 -0.0623 0.7322
C5 C 0.9161(3) 0.1159(3) 0.65429(17)
H5 H 0.9423 0.0773 0.5962
N1 N 0.8290(3) 0.2513(3) 0.65643(19)
H6 H 0.7997 0.3040 0.6043
C6 C 0.6114(3) 0.7983(3) 0.51997(15)
C7 C 0.5092(3) 0.7193(3) 0.57049(16)
H7 H 0.5348 0.6138 0.5904
C8 C 0.6346(3) 1.2028(3) 0.40761(17)
H8 H 0.7045 1.2585 0.3744
C9 C 0.6731(3) 1.0481(3) 0.43406(16)
H9 H 0.7668 0.9980 0.4168
C10 C 0.5726(3) 0.9608(3) 0.48785(14)
O1 O 0.7644(3) 0.6656(2) 0.39134(12)
O2 O 0.9380(2) 0.8035(2) 0.53105(14)
O3 O 0.8035(3) 0.5456(2) 0.54854(14)
S1 S 0.79402(7) 0.69381(7) 0.49590(4)
C6A C 0.3886(3) 1.2017(3) 0.48003(15)
C7A C 0.4908(3) 1.2807(3) 0.42951(16)
H7A H 0.4652 1.3862 0.4096
C8A C 0.3654(3) 0.7972(3) 0.59239(17)
H8A H 0.2955 0.7415 0.6256
C9A C 0.3269(3) 0.9519(3) 0.56594(16)
H9A H 0.2332 1.0020 0.5832
C10A C 0.4274(3) 1.0392(3) 0.51215(14)
O1A O 0.2356(3) 1.3344(2) 0.60866(12)
O2A O 0.0620(2) 1.1965(2) 0.46895(14)
O3A O 0.1965(3) 1.4544(2) 0.45146(14)
S1A S 0.20598(7) 1.30619(7) 0.50410(4)
C11 C 0.5913(3) 0.8732(3) 0.90991(16)
C12 C 0.5250(3) 0.9474(3) 0.82577(16)
H10 H 0.5517 0.9086 0.7679
C13 C 0.4163(3) 1.0824(3) 0.82569(17)
H11 H 0.3707 1.1311 0.7679
C14 C 0.6215(3) 0.8587(3) 1.08949(17)
H12 H 0.6922 0.7691 1.0900
C15 C 0.5551(3) 0.9315(2) 1.00064(15)
O4 O 0.7403(2) 0.6845(2) 0.80190(11)
O5 O 0.6379(2) 0.56265(19) 0.93335(12)
O6 O 0.8869(2) 0.7413(2) 0.96745(12)
S2 S 0.72545(7) 0.70268(7) 0.90278(4)
C11A C 0.4087(3) 1.1268(3) 1.09009(16)
C12A C 0.4750(3) 1.0526(3) 1.17423(16)
H10A H 0.4483 1.0914 1.2321
C13A C 0.5837(3) 0.9176(3) 1.17431(17)
H11A H 0.6293 0.8689 1.2321
C14A C 0.3785(3) 1.1413(3) 0.91051(17)
H12A H 0.3078 1.2309 0.9100
C15A C 0.4449(3) 1.0685(2) 0.99936(15)
O4A O 0.2597(2) 1.3155(2) 1.19810(11)
O5A O 0.3621(2) 1.43735(19) 1.06665(12)
O6A O 0.1131(2) 1.2587(2) 1.03255(12)
S2A S 0.27455(7) 1.29732(7) 1.09722(4)
C16 C 0.8103(3) 0.4226(3) 0.18942(16)
N2 N 0.9434(3) 0.3938(3) 0.25802(15)
H13 H 0.9423 0.4209 0.3174
H14 H 1.0313 0.3479 0.2433
N3 N 0.8106(3) 0.3757(3) 0.09817(14)
H15 H 0.7227 0.3911 0.0535
H16 H 0.8987 0.3298 0.0838
N4 N 0.6754(3) 0.4928(2) 0.21145(14)
H17 H 0.6739 0.5200 0.2708
H18 H 0.5888 0.5114 0.1665
loop_
_geom_bond_atom_site_label_1
_geom_bond_atom_site_label_2
_geom_bond_site_symmetry_1
_geom_bond_site_symmetry_2
C1 H1 1_555 1_555
C2 C1 1_555 1_555
H2 C2 1_555 1_555
C3 C2 1_555 1_555
H3 C3 1_555 1_555
C4 C3 1_555 1_555
H4 C4 1_555 1_555
C5 C4 1_555 1_555
H5 C5 1_555 1_555
N1 C1 1_555 1_555
H6 N1 1_555 1_555
C6 C7 1_555 1_555
C7 H7 1_555 1_555
C8 H8 1_555 1_555
C9 C8 1_555 1_555
H9 C9 1_555 1_555
C10 C6 1_555 1_555
O1 S1 1_555 1_555
O2 S1 1_555 1_555
O3 S1 1_555 1_555
S1 C6 1_555 1_555
C11 C12 1_555 1_555
C12 H10 1_555 1_555
C13 C12 1_555 1_555
H11 C13 1_555 1_555
C14 H12 1_555 1_555
C15 C11 1_555 1_555
O4 S2 1_555 1_555
O5 S2 1_555 1_555
O6 S2 1_555 1_555
S2 C11 1_555 1_555
C16 N2 1_555 1_555
N2 H13 1_555 1_555
H14 N2 1_555 1_555
N3 C16 1_555 1_555
H15 N3 1_555 1_555
H16 N3 1_555 1_555
N4 C16 1_555 1_555
H17 N4 1_555 1_555
H18 N4 1_555 1_555
C6A C7A 1_555 1_555
C7A C8 1_555 1_555
H7A C7A 1_555 1_555
C8A C7 1_555 1_555
H8A C8A 1_555 1_555
C9A C8A 1_555 1_555
H9A C9A 1_555 1_555
C10A C10 1_555 1_555
O1A S1A 1_555 1_555
O2A S1A 1_555 1_555
O3A S1A 1_555 1_555
S1A C6A 1_555 1_555
C11A C12A 1_555 1_555
C12A H10A 1_555 1_555
C13A C14 1_555 1_555
H11A C13A 1_555 1_555
C14A C13 1_555 1_555
H12A C14A 1_555 1_555
C15A C15 1_555 1_555
O4A S2A 1_555 1_555
O5A S2A 1_555 1_555
O6A S2A 1_555 1_555
S2A C11A 1_555 1_555
C5 N1 1_555 1_555
C9 C10 1_555 1_555
C14 C15 1_555 1_555
C6A C10A 1_555 1_555
C9A C10A 1_555 1_555
C11A C15A 1_555 1_555
C12A C13A 1_555 1_555
C14A C15A 1_555 1_555

#END
