
#######################################################################
#
#                 Cambridge Crystallographic Data Centre
#                                CCDC 
#
#######################################################################
#
# If this CIF has been generated from an entry in the Cambridge 
# Structural Database, then it will include bibliographic, chemical, 
# crystal, experimental, refinement or atomic coordinate data resulting 
# from the CCDC's data processing and validation procedures.
#
#######################################################################

data_DOXBAV
_chemical_formula_moiety         'C17 H23 N1 O1 Si1,H2 O1'
_chemical_name_systematic        
'1-(Trimethylsilyl)-2,3,3a,4,5,11-hexahydro-6H-benzo[c]cyclopenta[f]azocin-6-one monohydrate'
_symmetry_cell_setting           monoclinic
_symmetry_space_group_name_H-M   'P 21/n'
_symmetry_Int_Tables_number      14
_space_group_name_Hall           '-P 2yn'
loop_
_symmetry_equiv_pos_site_id
_symmetry_equiv_pos_as_xyz
1 x,y,z
2 1/2-x,1/2+y,1/2-z
3 -x,-y,-z
4 1/2+x,1/2-y,1/2+z
_cell_length_a                   7.8451(6)
_cell_length_b                   10.8055(10)
_cell_length_c                   41.681(3)
_cell_angle_alpha                90
_cell_angle_beta                 92.188(5)
_cell_angle_gamma                90
_cell_volume                     3530.73
_exptl_crystal_colour            yellow
_exptl_crystal_description       platelet
_cell_formula_units_Z            8
loop_
_atom_site_label
_atom_site_type_symbol
_atom_site_fract_x
_atom_site_fract_y
_atom_site_fract_z
Si1 Si 0.2312(2) 0.89884(17) 0.05838(4)
O1 O 0.1635(4) 1.0279(4) 0.23139(8)
N1 N 0.2309(5) 0.8531(4) 0.20583(9)
H1 H 0.3223 0.8483 0.2178
C1 C 0.0111(5) 0.9861(4) 0.15333(10)
C2 C -0.1326(6) 1.0007(5) 0.13313(11)
H2 H -0.1193 1.0086 0.1111
C3 C -0.2935(6) 1.0038(5) 0.14488(13)
H3 H -0.3879 1.0123 0.1309
C4 C -0.3153(6) 0.9943(5) 0.17712(13)
H4 H -0.4242 0.9987 0.1851
C5 C -0.1763(6) 0.9781(5) 0.19790(12)
H5 H -0.1915 0.9710 0.2198
C6 C -0.0129(5) 0.9724(4) 0.18604(10)
C7 C 0.1346(5) 0.9527(5) 0.20941(10)
C8 C 0.1973(6) 0.7508(4) 0.18354(11)
H6 H 0.0759 0.7481 0.1782
H7 H 0.2279 0.6738 0.1942
C9 C 0.2935(6) 0.7596(4) 0.15259(11)
H8 H 0.4140 0.7735 0.1586
C10 C 0.2830(6) 0.6409(5) 0.13254(12)
H9 H 0.3721 0.5834 0.1394
H10 H 0.1731 0.6011 0.1346
C11 C 0.3066(6) 0.6827(5) 0.09811(12)
H11 H 0.2350 0.6350 0.0832
H12 H 0.4246 0.6741 0.0923
C12 C 0.2523(6) 0.8201(5) 0.09812(11)
C13 C 0.2406(5) 0.8582(4) 0.12826(11)
C14 C 0.1873(6) 0.9840(4) 0.13934(11)
H13 H 0.1884 1.0408 0.1213
H14 H 0.2700 1.0134 0.1555
C15 C 0.0216(12) 0.8567(10) 0.03845(19)
H15 H 0.0027 0.7694 0.0406
H16 H 0.0226 0.8780 0.0161
H17 H -0.0682 0.9012 0.0484
C16 C 0.4061(13) 0.8438(11) 0.03346(19)
H18 H 0.5138 0.8606 0.0443
H19 H 0.4006 0.8859 0.0132
H20 H 0.3945 0.7563 0.0300
C17 C 0.2441(12) 1.0695(8) 0.05936(17)
H21 H 0.1431 1.1024 0.0685
H22 H 0.2533 1.1004 0.0379
H23 H 0.3424 1.0943 0.0722
Si2 Si 0.7175(3) 0.40098(19) 0.06095(4)
O2 O 0.6640(4) 0.2902(4) 0.23400(8)
N2 N 0.7301(5) 0.4637(4) 0.20772(8)
H24 H 0.8205 0.4703 0.2199
C18 C 0.5105(5) 0.3252(4) 0.15619(10)
C19 C 0.3665(6) 0.3041(5) 0.13631(11)
H25 H 0.3799 0.2899 0.1145
C20 C 0.2052(6) 0.3039(5) 0.14809(12)
H26 H 0.1107 0.2918 0.1343
C21 C 0.1840(6) 0.3215(5) 0.18024(12)
H27 H 0.0749 0.3210 0.1882
C22 C 0.3228(6) 0.3398(5) 0.20066(11)
H28 H 0.3082 0.3495 0.2226
C23 C 0.4855(5) 0.3438(4) 0.18857(10)
C24 C 0.6343(6) 0.3637(5) 0.21175(10)
C25 C 0.6970(6) 0.5630(5) 0.18471(10)
H29 H 0.7270 0.6413 0.1948
H30 H 0.5758 0.5650 0.1792
C26 C 0.7944(6) 0.5507(4) 0.15406(11)
H31 H 0.9150 0.5369 0.1600
C27 C 0.7812(6) 0.6676(5) 0.13314(12)
H32 H 0.6708 0.7068 0.1350
H33 H 0.8696 0.7266 0.1395
C28 C 0.8044(7) 0.6226(6) 0.09912(12)
H34 H 0.9226 0.6294 0.0934
H35 H 0.7340 0.6699 0.0839
C29 C 0.7478(6) 0.4873(5) 0.09978(12)
C30 C 0.7376(5) 0.4504(5) 0.13040(10)
C31 C 0.6857(6) 0.3235(4) 0.14217(11)
H36 H 0.6858 0.2655 0.1244
H37 H 0.7686 0.2952 0.1584
C32 C 0.7529(13) 0.2300(8) 0.06363(18)
H38 H 0.8670 0.2140 0.0717
H39 H 0.7367 0.1938 0.0427
H40 H 0.6730 0.1945 0.0779
C33 C 0.4906(12) 0.4153(10) 0.04514(19)
H41 H 0.4147 0.3895 0.0614
H42 H 0.4740 0.3639 0.0265
H43 H 0.4673 0.4999 0.0395
C34 C 0.8532(15) 0.4728(12) 0.0320(2)
H44 H 0.8232 0.5585 0.0297
H45 H 0.8382 0.4318 0.0117
H46 H 0.9703 0.4662 0.0394
O3 O 0.4946(5) 0.7414(4) 0.24389(11)
H47 H 0.597(3) 0.759(5) 0.2491(11)
H48 H 0.471(6) 0.676(3) 0.2540(11)
O4 O -0.0024(6) 0.5714(4) 0.24540(11)
H49 H 0.103(4) 0.587(8) 0.2485(17)
H50 H -0.051(11) 0.632(6) 0.2543(19)
loop_
_geom_bond_atom_site_label_1
_geom_bond_atom_site_label_2
_geom_bond_site_symmetry_1
_geom_bond_site_symmetry_2
Si1 C12 1_555 1_555
O1 C7 1_555 1_555
N1 H1 1_555 1_555
C1 C2 1_555 1_555
C2 H2 1_555 1_555
C3 C2 1_555 1_555
H3 C3 1_555 1_555
C4 C3 1_555 1_555
H4 C4 1_555 1_555
C5 C4 1_555 1_555
H5 C5 1_555 1_555
C6 C1 1_555 1_555
C7 N1 1_555 1_555
C8 N1 1_555 1_555
H6 C8 1_555 1_555
H7 C8 1_555 1_555
C9 C8 1_555 1_555
H8 C9 1_555 1_555
C10 C9 1_555 1_555
H9 C10 1_555 1_555
H10 C10 1_555 1_555
C11 C10 1_555 1_555
H11 C11 1_555 1_555
H12 C11 1_555 1_555
C12 C11 1_555 1_555
C13 C9 1_555 1_555
C14 C1 1_555 1_555
H13 C14 1_555 1_555
H14 C14 1_555 1_555
C15 Si1 1_555 1_555
H15 C15 1_555 1_555
H16 C15 1_555 1_555
H17 C15 1_555 1_555
C16 Si1 1_555 1_555
H18 C16 1_555 1_555
H19 C16 1_555 1_555
H20 C16 1_555 1_555
C17 Si1 1_555 1_555
H21 C17 1_555 1_555
H22 C17 1_555 1_555
H23 C17 1_555 1_555
Si2 C29 1_555 1_555
O2 C24 1_555 1_555
N2 H24 1_555 1_555
C18 C19 1_555 1_555
C19 H25 1_555 1_555
C20 C19 1_555 1_555
H26 C20 1_555 1_555
C21 C20 1_555 1_555
H27 C21 1_555 1_555
C22 C21 1_555 1_555
H28 C22 1_555 1_555
C23 C18 1_555 1_555
C24 N2 1_555 1_555
C25 N2 1_555 1_555
H29 C25 1_555 1_555
H30 C25 1_555 1_555
C26 C25 1_555 1_555
H31 C26 1_555 1_555
C27 C26 1_555 1_555
H32 C27 1_555 1_555
H33 C27 1_555 1_555
C28 C27 1_555 1_555
H34 C28 1_555 1_555
H35 C28 1_555 1_555
C29 C28 1_555 1_555
C30 C26 1_555 1_555
C31 C18 1_555 1_555
H36 C31 1_555 1_555
H37 C31 1_555 1_555
C32 Si2 1_555 1_555
H38 C32 1_555 1_555
H39 C32 1_555 1_555
H40 C32 1_555 1_555
C33 Si2 1_555 1_555
H41 C33 1_555 1_555
H42 C33 1_555 1_555
H43 C33 1_555 1_555
C34 Si2 1_555 1_555
H44 C34 1_555 1_555
H45 C34 1_555 1_555
H46 C34 1_555 1_555
O3 H47 1_555 1_555
H48 O3 1_555 1_555
O4 H49 1_555 1_555
H50 O4 1_555 1_555
C5 C6 1_555 1_555
C6 C7 1_555 1_555
C12 C13 1_555 1_555
C13 C14 1_555 1_555
C22 C23 1_555 1_555
C23 C24 1_555 1_555
C29 C30 1_555 1_555
C30 C31 1_555 1_555

#END
