
#######################################################################
#
#                 Cambridge Crystallographic Data Centre
#                                CCDC 
#
#######################################################################
#
# If this CIF has been generated from an entry in the Cambridge 
# Structural Database, then it will include bibliographic, chemical, 
# crystal, experimental, refinement or atomic coordinate data resulting 
# from the CCDC's data processing and validation procedures.
#
#######################################################################

data_DOXKAE
_chemical_formula_moiety         'C22 H22 Br1 Cl2 N5 O2 S1'
_chemical_name_systematic        
3-bromo-N-(4-chloro-2-methyl-6-((2-methyl-1-(methylsulfanyl)propan-2-yl)carbamoyl)phenyl)-1-(3-chloropyridin-2-yl)-1H-pyrazole-5-carboxamide
_symmetry_cell_setting           monoclinic
_symmetry_space_group_name_H-M   'P 21/c'
_symmetry_Int_Tables_number      14
_space_group_name_Hall           '-P 2ybc'
loop_
_symmetry_equiv_pos_site_id
_symmetry_equiv_pos_as_xyz
1 x,y,z
2 -x,1/2+y,1/2-z
3 -x,-y,-z
4 x,1/2-y,1/2+z
_cell_length_a                   9.498(2)
_cell_length_b                   11.107(2)
_cell_length_c                   23.921(5)
_cell_angle_alpha                90
_cell_angle_beta                 96.991(3)
_cell_angle_gamma                90
_cell_volume                     2504.77
_exptl_crystal_colour            colorless
_exptl_crystal_description       Prism
_cell_formula_units_Z            4
loop_
_atom_site_label
_atom_site_type_symbol
_atom_site_fract_x
_atom_site_fract_y
_atom_site_fract_z
Br1 Br 1.02418(4) 0.61821(4) 0.343162(18)
S1 S 0.73311(12) 0.70004(9) 0.51893(5)
Cl1 Cl 0.75016(10) 1.04856(8) 0.26103(4)
Cl2 Cl 0.55851(14) 1.40530(9) 0.59263(4)
O1 O 0.5703(2) 1.01198(19) 0.39310(9)
O2 O 0.9173(2) 0.96895(18) 0.55147(9)
N1 N 0.4556(3) 0.8172(2) 0.29428(11)
N2 N 0.6958(3) 0.8338(2) 0.32967(10)
N3 N 0.7717(3) 0.7416(2) 0.31128(11)
N4 N 0.7858(3) 1.0461(2) 0.44436(10)
H1 H 0.8735(16) 1.016(3) 0.4502(13)
N5 N 0.7220(3) 0.9235(2) 0.59279(11)
H2 H 0.6303(14) 0.937(3) 0.5951(13)
C1 C 0.3416(4) 0.8597(3) 0.26197(14)
H3 H 0.2550 0.8167 0.2613
C2 C 0.3426(4) 0.9625(3) 0.22951(13)
H4 H 0.2579 0.9906 0.2083
C3 C 0.4686(4) 1.0238(3) 0.22841(13)
H5 H 0.4735 1.0940 0.2061
C4 C 0.5876(4) 0.9792(3) 0.26103(13)
C5 C 0.5745(3) 0.8775(3) 0.29366(12)
C6 C 0.8834(4) 0.7349(3) 0.35001(15)
C7 C 0.8857(3) 0.8214(3) 0.39223(14)
H6 H 0.9556 0.8334 0.4237
C8 C 0.7627(3) 0.8856(3) 0.37756(12)
C9 C 0.6964(3) 0.9868(3) 0.40553(12)
C10 C 0.7349(3) 1.1351(3) 0.48034(12)
C11 C 0.6943(3) 1.2477(3) 0.45881(13)
C12 C 0.6386(4) 1.3295(3) 0.49418(13)
H7 H 0.6081 1.4065 0.4803
C13 C 0.6274(4) 1.2993(3) 0.54931(14)
C14 C 0.6714(3) 1.1893(3) 0.57136(13)
H8 H 0.6636 1.1706 0.6096
C15 C 0.7272(3) 1.1063(3) 0.53693(12)
C16 C 0.7124(4) 1.2833(3) 0.39895(13)
H9 H 0.8133 1.2808 0.3940
H10 H 0.6760 1.3650 0.3916
H11 H 0.6598 1.2270 0.3726
C17 C 0.7956(3) 0.9931(3) 0.56069(12)
C18 C 0.7811(4) 0.8149(3) 0.62375(14)
C19 C 0.8959(4) 0.8536(4) 0.67029(15)
H12 H 0.9709 0.8965 0.6537
H13 H 0.9360 0.7823 0.6905
H14 H 0.8546 0.9069 0.6966
C20 C 0.6588(4) 0.7554(3) 0.64897(16)
H15 H 0.6191 0.8123 0.6742
H16 H 0.6935 0.6838 0.6703
H17 H 0.5850 0.7320 0.6187
C21 C 0.8444(4) 0.7273(3) 0.58398(16)
H18 H 0.8637 0.6496 0.6037
H19 H 0.9363 0.7599 0.5753
C22 C 0.8488(6) 0.5961(4) 0.4888(2)
H20 H 0.9420 0.6334 0.4879
H21 H 0.8080 0.5755 0.4504
H22 H 0.8592 0.5228 0.5117
loop_
_geom_bond_atom_site_label_1
_geom_bond_atom_site_label_2
_geom_bond_site_symmetry_1
_geom_bond_site_symmetry_2
Br1 C6 1_555 1_555
S1 C21 1_555 1_555
Cl1 C4 1_555 1_555
Cl2 C13 1_555 1_555
O1 C9 1_555 1_555
O2 C17 1_555 1_555
N1 C1 1_555 1_555
N2 N3 1_555 1_555
N3 C6 1_555 1_555
N4 H1 1_555 1_555
N5 H2 1_555 1_555
C1 H3 1_555 1_555
C2 C1 1_555 1_555
H4 C2 1_555 1_555
C3 C2 1_555 1_555
H5 C3 1_555 1_555
C4 C3 1_555 1_555
C5 N1 1_555 1_555
C6 C7 1_555 1_555
C7 H6 1_555 1_555
C8 N2 1_555 1_555
C9 N4 1_555 1_555
C10 N4 1_555 1_555
C11 C10 1_555 1_555
C12 C11 1_555 1_555
H7 C12 1_555 1_555
C13 C12 1_555 1_555
C14 C13 1_555 1_555
H8 C14 1_555 1_555
C15 C10 1_555 1_555
C16 C11 1_555 1_555
H9 C16 1_555 1_555
H10 C16 1_555 1_555
H11 C16 1_555 1_555
C17 N5 1_555 1_555
C18 N5 1_555 1_555
C19 C18 1_555 1_555
H12 C19 1_555 1_555
H13 C19 1_555 1_555
H14 C19 1_555 1_555
C20 C18 1_555 1_555
H15 C20 1_555 1_555
H16 C20 1_555 1_555
H17 C20 1_555 1_555
C21 C18 1_555 1_555
H18 C21 1_555 1_555
H19 C21 1_555 1_555
C22 S1 1_555 1_555
H20 C22 1_555 1_555
H21 C22 1_555 1_555
H22 C22 1_555 1_555
N2 C5 1_555 1_555
C4 C5 1_555 1_555
C7 C8 1_555 1_555
C8 C9 1_555 1_555
C14 C15 1_555 1_555
C15 C17 1_555 1_555

#END
