
#######################################################################
#
#                 Cambridge Crystallographic Data Centre
#                                CCDC 
#
#######################################################################
#
# If this CIF has been generated from an entry in the Cambridge 
# Structural Database, then it will include bibliographic, chemical, 
# crystal, experimental, refinement or atomic coordinate data resulting 
# from the CCDC's data processing and validation procedures.
#
#######################################################################

data_DOXKUY
_chemical_formula_moiety         'C11 H12 N3 1+,F6 P1 1-'
_chemical_name_systematic        
'3-((pyridin-3-ylmethyl)amino)pyridinium hexafluorophosphate'
_symmetry_cell_setting           monoclinic
_symmetry_space_group_name_H-M   'C 2/c'
_symmetry_Int_Tables_number      15
_space_group_name_Hall           '-C 2yn'
loop_
_symmetry_equiv_pos_site_id
_symmetry_equiv_pos_as_xyz
1 x,y,z
2 1/2+x,1/2+y,z
3 -x,y,1/2-z
4 1/2-x,1/2+y,1/2-z
5 -x,-y,-z
6 1/2-x,1/2-y,-z
7 x,-y,1/2+z
8 1/2+x,1/2-y,1/2+z
_cell_length_a                   9.6171(16)
_cell_length_b                   18.157(2)
_cell_length_c                   9.2979(17)
_cell_angle_alpha                90
_cell_angle_beta                 120.02(2)
_cell_angle_gamma                90
_cell_volume                     1405.78
_exptl_crystal_colour            colorless
_exptl_crystal_description       prism
_cell_formula_units_Z            4
loop_
_atom_site_label
_atom_site_type_symbol
_atom_site_fract_x
_atom_site_fract_y
_atom_site_fract_z
N1 N 0.6605(3) 0.35549(17) -0.1524(4)
H1 H 0.5591 0.3476 -0.2132
N2 N 0.9181(4) 0.48167(18) 0.1790(4)
H2 H 0.8515 0.5161 0.1662
C1 C 0.8730(3) 0.42300(17) 0.0634(4)
C2 C 0.9792(4) 0.3788(2) 0.0442(5)
H3 H 1.0889 0.3868 0.1114
C3 C 0.9268(5) 0.3234(3) -0.0719(6)
H4 H 1.0002 0.2936 -0.0820
C4 C 0.7652(5) 0.3124(3) -0.1723(5)
H5 H 0.7276 0.2758 -0.2533
C5 C 0.7096(3) 0.40783(18) -0.0449(4)
H6 H 0.6334 0.4370 -0.0385
N1B N 1.3395(3) 0.35549(17) 0.6524(4)
H1B H 1.4409 0.3476 0.7132
N2B N 1.0819(4) 0.48167(18) 0.3210(4)
H2B H 1.1485 0.5161 0.3338
C1B C 1.1270(3) 0.42300(17) 0.4366(4)
C2B C 1.0208(4) 0.3788(2) 0.4558(5)
H3B H 0.9111 0.3868 0.3886
C3B C 1.0732(5) 0.3234(3) 0.5719(6)
H4B H 0.9998 0.2936 0.5820
C4B C 1.2348(5) 0.3124(3) 0.6723(5)
H5B H 1.2724 0.2758 0.7533
C5B C 1.2904(3) 0.40783(18) 0.5449(4)
H6B H 1.3666 0.4370 0.5385
P1 P 0.5000 0.39165(8) 0.2500
F1 F 0.6123(3) 0.45275(16) 0.2448(4)
F2 F 0.3958(4) 0.4010(3) 0.0519(5)
F3 F 0.3858(4) 0.33359(18) 0.2550(7)
F1B F 0.3877(3) 0.45275(16) 0.2552(4)
F2B F 0.6042(4) 0.4010(3) 0.4481(5)
F3B F 0.6142(4) 0.33359(18) 0.2450(7)
C6? C 0.9181(4) 0.48167(18) 0.1790(4)
H7? H 0.8446 0.4820 0.2219
H8? H 0.9024 0.5274 0.1190
loop_
_geom_bond_atom_site_label_1
_geom_bond_atom_site_label_2
_geom_bond_site_symmetry_1
_geom_bond_site_symmetry_2
P1 F1 1_555 1_555
F2 P1 1_555 1_555
F3 P1 1_555 1_555
N1 H1 1_555 1_555
N2 H2 1_555 1_555
C1 N2 1_555 1_555
C2 C1 1_555 1_555
H3 C2 1_555 1_555
C3 C2 1_555 1_555
H4 C3 1_555 1_555
C4 N1 1_555 1_555
H5 C4 1_555 1_555
C5 N1 1_555 1_555
H6 C5 1_555 1_555
F1B P1 1_555 1_555
F2B P1 1_555 1_555
F3B P1 1_555 1_555
N1B H1B 1_555 1_555
N2B N2 1_555 1_555
H2B N2B 1_555 1_555
C1B N2B 1_555 1_555
C2B C1B 1_555 1_555
H3B C2B 1_555 1_555
C3B C2B 1_555 1_555
H4B C3B 1_555 1_555
C4B N1B 1_555 1_555
H5B C4B 1_555 1_555
C5B N1B 1_555 1_555
H6B C5B 1_555 1_555
C1 C5 1_555 1_555
C3 C4 1_555 1_555
C1B C5B 1_555 1_555
C3B C4B 1_555 1_555

#END
