
#######################################################################
#
#                 Cambridge Crystallographic Data Centre
#                                CCDC 
#
#######################################################################
#
# If this CIF has been generated from an entry in the Cambridge 
# Structural Database, then it will include bibliographic, chemical, 
# crystal, experimental, refinement or atomic coordinate data resulting 
# from the CCDC's data processing and validation procedures.
#
#######################################################################

data_DOXLIN
_chemical_formula_moiety         'C11 H13 N3 2+,2(Cl1 O4 1-)'
_chemical_name_systematic        
'3-((pyridinium-3-ylmethyl)amino)pyridinium diperchlorate'
_symmetry_cell_setting           monoclinic
_symmetry_space_group_name_H-M   'C 2/c'
_symmetry_Int_Tables_number      15
_space_group_name_Hall           '-C 2yn'
loop_
_symmetry_equiv_pos_site_id
_symmetry_equiv_pos_as_xyz
1 x,y,z
2 -x,y,1/2-z
3 1/2+x,1/2+y,z
4 1/2-x,1/2+y,1/2-z
5 -x,-y,-z
6 x,-y,1/2+z
7 1/2-x,1/2-y,-z
8 1/2+x,1/2-y,1/2+z
_cell_length_a                   33.723(3)
_cell_length_b                   5.2963(5)
_cell_length_c                   18.2092(13)
_cell_angle_alpha                90
_cell_angle_beta                 110.111(7)
_cell_angle_gamma                90
_cell_volume                     3053.99
_exptl_crystal_colour            colorless
_exptl_crystal_description       prism
_cell_formula_units_Z            8
loop_
_atom_site_label
_atom_site_type_symbol
_atom_site_fract_x
_atom_site_fract_y
_atom_site_fract_z
Cl1 Cl 0.20236(2) -0.26943(14) 0.32205(4)
O1 O 0.21759(8) -0.4104(5) 0.27073(13)
O2 O 0.15868(8) -0.3214(6) 0.30462(18)
O3 O 0.20656(9) -0.0035(5) 0.30988(14)
O4 O 0.22567(8) -0.3284(5) 0.40197(12)
Cl2 Cl 0.05067(3) 0.36385(16) 0.39455(4)
O5 O 0.05195(12) 0.4405(6) 0.46870(16)
O6 O 0.08030(14) 0.5066(7) 0.3732(2)
O7 O 0.01069(12) 0.3982(8) 0.3391(2)
O8 O 0.06152(9) 0.1028(5) 0.39515(16)
N1 N 0.20968(8) -0.2370(5) 0.10857(16)
H1 H 0.2240(10) -0.325(6) 0.1484(14)
N2 N 0.13520(9) 0.2825(6) 0.05802(18)
H2 H 0.1184(10) 0.335(7) 0.0136(12)
N3 N 0.07320(9) 0.0195(6) 0.24770(16)
H3 H 0.0734(13) 0.033(8) 0.2948(10)
C1 C 0.18597(9) -0.0462(6) 0.11766(17)
H4 H 0.1869 0.0004 0.1675
C2 C 0.15996(8) 0.0823(5) 0.05265(16)
C3 C 0.16092(9) 0.0029(6) -0.01995(17)
H5 H 0.1446 0.0870 -0.0651
C4 C 0.18525(10) -0.1949(6) -0.02542(19)
H6 H 0.1850 -0.2477 -0.0743
C5 C 0.20998(10) -0.3167(6) 0.0399(2)
H7 H 0.2267 -0.4526 0.0364
C6 C 0.12812(10) 0.3459(6) 0.1295(2)
H8 H 0.1165 0.5152 0.1244
H9 H 0.1552 0.3490 0.1716
C7 C 0.09866(10) 0.1744(6) 0.2269(2)
H10 H 0.1162 0.2849 0.2636
C8 C 0.09929(9) 0.1722(6) 0.15236(18)
C9 C 0.07194(10) 0.0087(7) 0.10006(19)
H11 H 0.0709 0.0046 0.0484
C10 C 0.04602(11) -0.1489(8) 0.1238(2)
H12 H 0.0277 -0.2592 0.0883
C11 C 0.04726(11) -0.1426(7) 0.1986(2)
H13 H 0.0303 -0.2497 0.2155
loop_
_geom_bond_atom_site_label_1
_geom_bond_atom_site_label_2
_geom_bond_site_symmetry_1
_geom_bond_site_symmetry_2
Cl1 O1 1_555 1_555
O2 Cl1 1_555 1_555
O3 Cl1 1_555 1_555
O4 Cl1 1_555 1_555
Cl2 O5 1_555 1_555
O6 Cl2 1_555 1_555
O7 Cl2 1_555 1_555
O8 Cl2 1_555 1_555
N1 H1 1_555 1_555
N2 H2 1_555 1_555
N3 H3 1_555 1_555
C1 N1 1_555 1_555
H4 C1 1_555 1_555
C2 N2 1_555 1_555
C3 C2 1_555 1_555
H5 C3 1_555 1_555
C4 C3 1_555 1_555
H6 C4 1_555 1_555
C5 N1 1_555 1_555
H7 C5 1_555 1_555
C6 N2 1_555 1_555
H8 C6 1_555 1_555
H9 C6 1_555 1_555
C7 N3 1_555 1_555
H10 C7 1_555 1_555
C8 C6 1_555 1_555
C9 C8 1_555 1_555
H11 C9 1_555 1_555
C10 C9 1_555 1_555
H12 C10 1_555 1_555
C11 N3 1_555 1_555
H13 C11 1_555 1_555
C1 C2 1_555 1_555
C4 C5 1_555 1_555
C7 C8 1_555 1_555
C10 C11 1_555 1_555

#END
