
#######################################################################
#
#                 Cambridge Crystallographic Data Centre
#                                CCDC 
#
#######################################################################
#
# If this CIF has been generated from an entry in the Cambridge 
# Structural Database, then it will include bibliographic, chemical, 
# crystal, experimental, refinement or atomic coordinate data resulting 
# from the CCDC's data processing and validation procedures.
#
#######################################################################

data_DOXREP
_chemical_compound_source        'root bark of Acanthopanax gracilistylus'
_chemical_name_common            
'(4R,5S,10R)-11,14-Dihydroxy-7-oxo-16-devinyl-ent-pimara-8,11,13-trien-17-oic acid methanol solvate'
_chemical_formula_moiety         'C18 H22 O5,C1 H4 O1'
_chemical_name_systematic        
'11,14-Dihydroxy-13-methyl-7-oxopodocarpa-8,11,13-trien-15-oic acid methanol solvate'
_symmetry_cell_setting           orthorhombic
_symmetry_space_group_name_H-M   'P 21 21 21'
_symmetry_Int_Tables_number      19
_space_group_name_Hall           'P 2ac 2ab'
loop_
_symmetry_equiv_pos_site_id
_symmetry_equiv_pos_as_xyz
1 x,y,z
2 1/2+x,1/2-y,-z
3 -x,1/2+y,1/2-z
4 1/2-x,-y,1/2+z
_cell_length_a                   6.6202(3)
_cell_length_b                   8.3463(3)
_cell_length_c                   31.1256(11)
_cell_angle_alpha                90
_cell_angle_beta                 90
_cell_angle_gamma                90
_cell_volume                     1719.82
_exptl_crystal_colour            yellow
_exptl_crystal_description       plate
_chemical_melting_point          '268-270 deg.C'
_cell_formula_units_Z            4
loop_
_atom_site_label
_atom_site_type_symbol
_atom_site_fract_x
_atom_site_fract_y
_atom_site_fract_z
O1 O 0.6175(2) 0.41314(15) 0.02522(4)
O2 O 0.6074(2) 0.23870(15) -0.04198(4)
H1 H 0.6103 0.3242 -0.0278
O3 O 0.6349(2) -0.29071(16) 0.06364(4)
H2 H 0.6400 -0.3718 0.0477
O4 O 0.8351(2) 0.29719(17) 0.18500(4)
O5 O 0.6889(2) 0.11510(19) 0.22750(4)
H3 H 0.7947 0.1286 0.2420
C1 C 0.4277(3) -0.1030(2) 0.12589(7)
H4 H 0.2988 -0.0849 0.1105
H5 H 0.4699 -0.2150 0.1204
C2 C 0.3925(4) -0.0813(3) 0.17384(6)
H6 H 0.5160 -0.1131 0.1896
H7 H 0.2813 -0.1525 0.1831
C3 C 0.3396(3) 0.0912(3) 0.18505(6)
H8 H 0.3293 0.1011 0.2167
H9 H 0.2054 0.1168 0.1728
C4 C 0.4934(3) 0.2136(2) 0.16856(6)
C5 C 0.5227(3) 0.1847(2) 0.11938(6)
H10 H 0.3845 0.1961 0.1068
C6 C 0.6506(3) 0.3081(2) 0.09598(6)
H11 H 0.6113 0.4172 0.1052
H12 H 0.7949 0.2920 0.1032
C7 C 0.6208(3) 0.2916(2) 0.04846(6)
C8 C 0.6045(3) 0.1305(2) 0.03053(6)
C9 C 0.6013(3) -0.0052(2) 0.05827(6)
C10 C 0.5902(3) 0.0118(2) 0.10738(6)
C11 C 0.6182(3) -0.1551(2) 0.03879(6)
C12 C 0.6209(3) -0.1702(2) -0.00588(6)
H13 H 0.6275 -0.2746 -0.0180
C13 C 0.6144(3) -0.0402(2) -0.03322(6)
C14 C 0.6073(3) 0.1115(2) -0.01461(6)
C15 C 0.6222(3) -0.0599(2) -0.08110(6)
H14 H 0.7570 -0.0310 -0.0915
H15 H 0.5213 0.0101 -0.0945
H16 H 0.5933 -0.1716 -0.0886
C16 C 0.8016(3) -0.0303(2) 0.12472(6)
H17 H 0.8403 -0.1373 0.1147
H18 H 0.7992 -0.0288 0.1562
H19 H 0.8997 0.0486 0.1143
C17 C 0.4060(3) 0.3826(3) 0.17705(6)
H20 H 0.3855 0.3973 0.2080
H21 H 0.2765 0.3938 0.1621
H22 H 0.5006 0.4638 0.1664
C18 C 0.6917(3) 0.2110(2) 0.19384(6)
C19 C 0.8849(4) 0.6748(3) 0.20383(8)
H23 H 0.7387 0.6611 0.2072
H24 H 0.9211 0.6628 0.1735
H25 H 0.9241 0.7817 0.2138
O6 O 0.9849(2) 0.55989(18) 0.22788(5)
H26 H 0.9700 0.4697 0.2163
loop_
_geom_bond_atom_site_label_1
_geom_bond_atom_site_label_2
_geom_bond_site_symmetry_1
_geom_bond_site_symmetry_2
O1 C7 1_555 1_555
O2 H1 1_555 1_555
O3 H2 1_555 1_555
O4 C18 1_555 1_555
O5 H3 1_555 1_555
C1 H4 1_555 1_555
H5 C1 1_555 1_555
C2 C1 1_555 1_555
H6 C2 1_555 1_555
H7 C2 1_555 1_555
C3 C2 1_555 1_555
H8 C3 1_555 1_555
H9 C3 1_555 1_555
C4 C3 1_555 1_555
C5 C4 1_555 1_555
H10 C5 1_555 1_555
C6 C5 1_555 1_555
H11 C6 1_555 1_555
H12 C6 1_555 1_555
C7 C6 1_555 1_555
C8 C7 1_555 1_555
C9 C8 1_555 1_555
C10 C1 1_555 1_555
C11 O3 1_555 1_555
C12 C11 1_555 1_555
H13 C12 1_555 1_555
C13 C12 1_555 1_555
C14 O2 1_555 1_555
C15 C13 1_555 1_555
H14 C15 1_555 1_555
H15 C15 1_555 1_555
H16 C15 1_555 1_555
C16 C10 1_555 1_555
H17 C16 1_555 1_555
H18 C16 1_555 1_555
H19 C16 1_555 1_555
C17 C4 1_555 1_555
H20 C17 1_555 1_555
H21 C17 1_555 1_555
H22 C17 1_555 1_555
C18 O5 1_555 1_555
C19 H23 1_555 1_555
H24 C19 1_555 1_555
H25 C19 1_555 1_555
O6 C19 1_555 1_555
H26 O6 1_555 1_555
C4 C18 1_555 1_555
C5 C10 1_555 1_555
C8 C14 1_555 1_555
C9 C10 1_555 1_555
C9 C11 1_555 1_555
C13 C14 1_555 1_555

#END
