
#######################################################################
#
#                 Cambridge Crystallographic Data Centre
#                                CCDC 
#
#######################################################################
#
# If this CIF has been generated from an entry in the Cambridge 
# Structural Database, then it will include bibliographic, chemical, 
# crystal, experimental, refinement or atomic coordinate data resulting 
# from the CCDC's data processing and validation procedures.
#
#######################################################################

data_DOYBAU
_chemical_formula_moiety         'C20 H26'
_chemical_name_systematic        2,3-Dimethyl-2,3-di-p-tolylbutane
_symmetry_cell_setting           monoclinic
_symmetry_space_group_name_H-M   'P 21/c'
_symmetry_Int_Tables_number      14
_space_group_name_Hall           '-P 2ybc'
loop_
_symmetry_equiv_pos_site_id
_symmetry_equiv_pos_as_xyz
1 x,y,z
2 -x,1/2+y,1/2-z
3 -x,-y,-z
4 x,1/2-y,1/2+z
_cell_length_a                   9.207(4)
_cell_length_b                   12.791(3)
_cell_length_c                   6.711(2)
_cell_angle_alpha                90
_cell_angle_beta                 100.93(3)
_cell_angle_gamma                90
_cell_volume                     775.996
_exptl_crystal_colour            colorless
_cell_formula_units_Z            2
loop_
_atom_site_label
_atom_site_type_symbol
_atom_site_fract_x
_atom_site_fract_y
_atom_site_fract_z
C1 C 0.6971(2) 0.0755(1) 0.4500(3)
C2 C 0.5618(2) 0.0975(1) 0.3261(3)
C3 C 0.5537(2) 0.1329(1) 0.1282(3)
C4 C 0.6852(2) 0.1475(1) 0.0602(3)
C5 C 0.8206(2) 0.1253(1) 0.1842(3)
C6 C 0.8307(2) 0.0873(1) 0.3816(2)
C7 C 0.9794(2) 0.0596(1) 0.5170(2)
C8 C 1.1008(2) 0.1336(1) 0.4701(3)
C9 C 0.9713(2) 0.0795(1) 0.7405(3)
C10 C 0.4054(2) 0.1532(2) -0.0056(4)
H1 H 0.695 0.043 0.584
H2 H 0.471 0.082 0.375
H3 H 0.695 0.166 -0.082
H4 H 0.918 0.145 0.168
H5 H 1.082 0.207 0.500
H6 H 1.109 0.125 0.333
H7 H 1.193 0.125 0.541
H8 H 0.918 0.145 0.750
H9 H 0.891 0.043 0.793
H10 H 1.071 0.066 0.804
H11 H 0.419 0.177 -0.135
H12 H 0.349 0.090 -0.021
H13 H 0.354 0.205 0.055
C7B C 1.0206(2) -0.0596(1) 0.4830(2)
C6B C 1.1693(2) -0.0873(1) 0.6184(2)
C8B C 0.8992(2) -0.1336(1) 0.5299(3)
C9B C 1.0287(2) -0.0795(1) 0.2595(3)
C1B C 1.3029(2) -0.0755(1) 0.5500(3)
C5B C 1.1794(2) -0.1253(1) 0.8158(3)
H5B H 0.918 -0.207 0.500
H6B H 0.891 -0.125 0.667
H7B H 0.807 -0.125 0.459
H8B H 1.082 -0.145 0.250
H9B H 1.109 -0.043 0.207
H10B H 0.929 -0.066 0.196
C2B C 1.4382(2) -0.0975(1) 0.6739(3)
H1B H 1.305 -0.043 0.416
C4B C 1.3148(2) -0.1475(1) 0.9398(3)
H4B H 1.082 -0.145 0.832
C3B C 1.4463(2) -0.1329(1) 0.8718(3)
H2B H 1.529 -0.082 0.625
H3B H 1.305 -0.166 1.082
C10B C 1.5946(2) -0.1532(2) 1.0056(4)
H11B H 1.581 -0.177 1.135
H12B H 1.651 -0.090 1.021
H13B H 1.646 -0.205 0.945
loop_
_geom_bond_atom_site_label_1
_geom_bond_atom_site_label_2
_geom_bond_site_symmetry_1
_geom_bond_site_symmetry_2
C1 C2 1_555 1_555
C2 C3 1_555 1_555
C3 C4 1_555 1_555
C4 C5 1_555 1_555
C5 C6 1_555 1_555
C6 C1 1_555 1_555
C7 C6 1_555 1_555
C8 C7 1_555 1_555
C9 C7 1_555 1_555
C10 C3 1_555 1_555
H1 C1 1_555 1_555
H2 C2 1_555 1_555
H3 C4 1_555 1_555
H4 C5 1_555 1_555
H5 C8 1_555 1_555
H6 C8 1_555 1_555
H7 C8 1_555 1_555
H8 C9 1_555 1_555
H9 C9 1_555 1_555
H10 C9 1_555 1_555
H11 C10 1_555 1_555
H12 C10 1_555 1_555
H13 C10 1_555 1_555
C7B C7 1_555 1_555
C6B C7B 1_555 1_555
C8B C7B 1_555 1_555
C9B C7B 1_555 1_555
C1B C6B 1_555 1_555
C5B C6B 1_555 1_555
H5B C8B 1_555 1_555
H6B C8B 1_555 1_555
H7B C8B 1_555 1_555
H8B C9B 1_555 1_555
H9B C9B 1_555 1_555
H10B C9B 1_555 1_555
C2B C1B 1_555 1_555
H1B C1B 1_555 1_555
C4B C5B 1_555 1_555
H4B C5B 1_555 1_555
C3B C2B 1_555 1_555
H2B C2B 1_555 1_555
H3B C4B 1_555 1_555
C10B C3B 1_555 1_555
H11B C10B 1_555 1_555
H12B C10B 1_555 1_555
H13B C10B 1_555 1_555
C4B C3B 1_555 1_555

#END
