
#######################################################################
#
#                 Cambridge Crystallographic Data Centre
#                                CCDC 
#
#######################################################################
#
# If this CIF has been generated from an entry in the Cambridge 
# Structural Database, then it will include bibliographic, chemical, 
# crystal, experimental, refinement or atomic coordinate data resulting 
# from the CCDC's data processing and validation procedures.
#
#######################################################################

data_DOYHOP
_chemical_formula_moiety         'C19 H17 Cl1 N2 O3 S2'
_chemical_name_systematic        
"Ethyl 7'-(4-chlorophenyl)-2'-cyano-5'-oxo-6',7'-dihydrospiro[1,3-dithiolane-2,1'-pyrrolizine]-7a'(5'H)-carboxylate"
_symmetry_cell_setting           monoclinic
_symmetry_space_group_name_H-M   'P 21/n'
_symmetry_Int_Tables_number      14
_space_group_name_Hall           '-P 2yn'
loop_
_symmetry_equiv_pos_site_id
_symmetry_equiv_pos_as_xyz
1 x,y,z
2 1/2-x,1/2+y,1/2-z
3 -x,-y,-z
4 1/2+x,1/2-y,1/2+z
_cell_length_a                   14.183(5)
_cell_length_b                   9.837(5)
_cell_length_c                   14.433(5)
_cell_angle_alpha                90
_cell_angle_beta                 103.262(5)
_cell_angle_gamma                90
_cell_volume                     1959.96
_exptl_crystal_colour            white
_chemical_melting_point          '184-186 deg.C'
_cell_formula_units_Z            4
loop_
_atom_site_label
_atom_site_type_symbol
_atom_site_fract_x
_atom_site_fract_y
_atom_site_fract_z
C1 C 0.52777(13) -0.27186(19) 0.39992(15)
C2 C 0.55003(15) -0.2617(2) 0.49699(16)
H1 H 0.5315 -0.3299 0.5338
C3 C 0.60030(14) -0.1494(2) 0.53997(14)
H2 H 0.6146 -0.1423 0.6060
C4 C 0.62981(12) -0.04704(17) 0.48698(12)
C5 C 0.60628(14) -0.06103(19) 0.38886(13)
H3 H 0.6247 0.0066 0.3516
N1 N 0.83002(11) 0.19366(15) 0.58702(10)
C6 C 0.55611(15) -0.1730(2) 0.34485(15)
H4 H 0.5418 -0.1811 0.2789
C7 C 0.84137(11) -0.00327(16) 0.49325(11)
C8 C 0.68141(12) 0.07923(17) 0.53262(12)
H5 H 0.6360 0.1548 0.5140
C9 C 0.88597(13) 0.29606(18) 0.56211(13)
H6 H 0.9331 0.3447 0.6047
C10 C 0.89632(17) -0.2142(2) 0.56764(18)
H7 H 0.9107 -0.2353 0.5067
H8 H 0.9569 -0.2012 0.6141
C11 C 0.79426(16) 0.1780(2) 0.66751(13)
C12 C 0.71065(15) 0.0801(2) 0.64245(13)
H9 H 0.6571 0.1104 0.6688
H10 H 0.7302 -0.0099 0.6668
C13 C 0.70368(18) 0.2745(2) 0.23161(14)
H11 H 0.7385 0.3575 0.2252
H12 H 0.6796 0.2362 0.1687
C14 C 0.62141(17) 0.3045(2) 0.27647(16)
H13 H 0.5794 0.2257 0.2723
H14 H 0.5836 0.3800 0.2443
C15 C 0.8413(2) -0.3235(3) 0.5971(3)
H15 H 0.8203 -0.2965 0.6531
H16 H 0.8813 -0.4030 0.6109
H17 H 0.7858 -0.3434 0.5469
C16 C 0.86250(12) 0.31517(16) 0.46775(12)
C17 C 0.77636(11) 0.12021(16) 0.50224(11)
C18 C 0.77556(11) 0.22840(15) 0.42042(11)
C19 C 0.90169(13) 0.41527(18) 0.41639(13)
O1 O 0.83728(11) -0.09203(15) 0.56013(11)
O2 O 0.89083(11) -0.01483(15) 0.43713(10)
O3 O 0.82758(15) 0.2345(2) 0.74197(11)
N2 N 0.93142(13) 0.49448(18) 0.37261(13)
S1 S 0.78279(4) 0.15583(4) 0.30550(3)
S2 S 0.67252(3) 0.34706(5) 0.40008(4)
Cl1 Cl 0.46019(5) -0.41040(6) 0.34498(5)
loop_
_geom_bond_atom_site_label_1
_geom_bond_atom_site_label_2
_geom_bond_site_symmetry_1
_geom_bond_site_symmetry_2
C1 C2 1_555 1_555
C2 H1 1_555 1_555
C3 C2 1_555 1_555
H2 C3 1_555 1_555
C4 C3 1_555 1_555
C5 C4 1_555 1_555
H3 C5 1_555 1_555
N1 C9 1_555 1_555
C6 C1 1_555 1_555
H4 C6 1_555 1_555
C7 C17 1_555 1_555
C8 C4 1_555 1_555
H5 C8 1_555 1_555
C9 H6 1_555 1_555
C10 H7 1_555 1_555
H8 C10 1_555 1_555
C11 N1 1_555 1_555
C12 C8 1_555 1_555
H9 C12 1_555 1_555
H10 C12 1_555 1_555
C13 H11 1_555 1_555
H12 C13 1_555 1_555
C14 C13 1_555 1_555
H13 C14 1_555 1_555
H14 C14 1_555 1_555
C15 C10 1_555 1_555
H15 C15 1_555 1_555
H16 C15 1_555 1_555
H17 C15 1_555 1_555
C16 C9 1_555 1_555
C17 N1 1_555 1_555
C18 C16 1_555 1_555
C19 C16 1_555 1_555
O1 C7 1_555 1_555
O2 C7 1_555 1_555
O3 C11 1_555 1_555
N2 C19 1_555 1_555
S1 C13 1_555 1_555
S2 C14 1_555 1_555
Cl1 C1 1_555 1_555
C5 C6 1_555 1_555
C8 C17 1_555 1_555
C10 O1 1_555 1_555
C11 C12 1_555 1_555
C17 C18 1_555 1_555
C18 S1 1_555 1_555
C18 S2 1_555 1_555

#END
