
#######################################################################
#
#                 Cambridge Crystallographic Data Centre
#                                CCDC 
#
#######################################################################
#
# If this CIF has been generated from an entry in the Cambridge 
# Structural Database, then it will include bibliographic, chemical, 
# crystal, experimental, refinement or atomic coordinate data resulting 
# from the CCDC's data processing and validation procedures.
#
#######################################################################

data_DOYJAD
_chemical_formula_moiety         'C25 H25 N1 O5'
_chemical_name_systematic        
'7a-Ethyl 2-methyl 6-methyl-3-oxo-1,7-diphenyl-2,3-dihydro-1H-pyrrolizine-2,7a(7H)-dicarboxylate'
_symmetry_cell_setting           orthorhombic
_symmetry_space_group_name_H-M   'P n a 21'
_symmetry_Int_Tables_number      33
_space_group_name_Hall           'P 2c -2n'
loop_
_symmetry_equiv_pos_site_id
_symmetry_equiv_pos_as_xyz
1 x,y,z
2 -x,-y,1/2+z
3 1/2-x,1/2+y,1/2+z
4 1/2+x,1/2-y,z
_cell_length_a                   15.446(5)
_cell_length_b                   9.587(5)
_cell_length_c                   15.302(5)
_cell_angle_alpha                90
_cell_angle_beta                 90
_cell_angle_gamma                90
_cell_volume                     2265.93
_chemical_melting_point          '108-110 deg.C'
_cell_formula_units_Z            4
loop_
_atom_site_label
_atom_site_type_symbol
_atom_site_fract_x
_atom_site_fract_y
_atom_site_fract_z
C1 C 0.0127(3) 0.9559(5) 0.1649(3)
C2 C 0.0598(4) 0.8999(7) 0.0979(4)
O1 O 0.2280(4) 0.7112(5) 0.1263(3)
O2 O 0.2481(3) 0.8484(5) 0.0111(3)
C3 C 0.1545(4) 0.9315(6) 0.1173(4)
C4 C 0.2138(4) 0.8188(6) 0.0861(4)
C5 C 0.0649(3) 1.0140(5) 0.2378(4)
C6 C -0.0713(4) 0.9295(7) 0.1958(5)
C7 C 0.1558(3) 0.9463(5) 0.2187(4)
C8 C -0.0772(4) 0.9406(7) 0.2817(5)
C9 C 0.2705(4) 1.1335(7) 0.2244(5)
C10 C 0.0498(4) 0.8536(6) 0.3743(4)
C11 C 0.2741(4) 0.9513(8) 0.3289(5)
C12 C 0.0121(4) 0.9736(6) 0.3204(4)
C13 C 0.0876(5) 0.8821(8) 0.4541(5)
C14 C 0.2348(3) 1.0149(6) 0.2577(4)
C15 C 0.0481(5) 0.7163(7) 0.3421(5)
C16 C 0.1260(6) 0.7758(10) 0.5012(6)
C17 C 0.3799(6) 1.1343(11) 0.3354(7)
C18 C 0.3429(5) 1.1953(10) 0.2646(6)
C19 C 0.1255(7) 0.6401(10) 0.4703(7)
C20 C 0.0885(6) 0.6089(9) 0.3883(7)
C21 C 0.3466(5) 1.0080(11) 0.3686(7)
C22 C 0.3085(6) 0.7469(9) -0.0253(6)
O3 O 0.0780(3) 1.2448(5) 0.2965(3)
O4 O 0.0725(5) 1.2190(5) 0.1519(3)
O5 O 0.0309(3) 0.8382(6) 0.0370(3)
C23 C 0.0714(4) 1.1742(6) 0.2325(4)
C24 C -0.1535(5) 0.9215(9) 0.3382(6)
C25 C 0.0960(15) 1.3812(12) 0.1392(9)
loop_
_geom_bond_atom_site_label_1
_geom_bond_atom_site_label_2
_geom_bond_site_symmetry_1
_geom_bond_site_symmetry_2
C1 C2 1_555 1_555
C2 C3 1_555 1_555
O1 C4 1_555 1_555
O2 C4 1_555 1_555
C3 C4 1_555 1_555
C5 C1 1_555 1_555
C6 C1 1_555 1_555
C7 C3 1_555 1_555
C8 C6 1_555 1_555
C9 C14 1_555 1_555
C10 C12 1_555 1_555
C11 C14 1_555 1_555
C12 C5 1_555 1_555
C13 C10 1_555 1_555
C14 C7 1_555 1_555
C15 C10 1_555 1_555
C16 C13 1_555 1_555
C17 C18 1_555 1_555
C18 C9 1_555 1_555
C19 C16 1_555 1_555
C20 C15 1_555 1_555
C21 C11 1_555 1_555
C22 O2 1_555 1_555
O3 C23 1_555 1_555
O4 C23 1_555 1_555
O5 C2 1_555 1_555
C23 C5 1_555 1_555
C24 C8 1_555 1_555
C25 O4 1_555 1_555
C5 C7 1_555 1_555
C8 C12 1_555 1_555
C17 C21 1_555 1_555
C19 C20 1_555 1_555

#END
