
#######################################################################
#
#                 Cambridge Crystallographic Data Centre
#                                CCDC 
#
#######################################################################
#
# If this CIF has been generated from an entry in the Cambridge 
# Structural Database, then it will include bibliographic, chemical, 
# crystal, experimental, refinement or atomic coordinate data resulting 
# from the CCDC's data processing and validation procedures.
#
#######################################################################

data_DOYKAF
_chemical_formula_moiety         'C19 H26 O7'
_chemical_name_systematic        
'methyl 7-acetyl-3,8-dihydroxy-4,4,9,9-tetramethyl-5,11-dioxatetracyclo[8.2.1.0^1,6^.0^8,12^]tridec-6-ene-12-carboxylate'
_symmetry_cell_setting           orthorhombic
_symmetry_space_group_name_H-M   'P 21 21 21'
_symmetry_Int_Tables_number      19
_space_group_name_Hall           'P 2ac 2ab'
loop_
_symmetry_equiv_pos_site_id
_symmetry_equiv_pos_as_xyz
1 x,y,z
2 1/2-x,-y,1/2+z
3 1/2+x,1/2-y,-z
4 -x,1/2+y,1/2-z
_cell_length_a                   9.14520(10)
_cell_length_b                   12.5627(2)
_cell_length_c                   16.2841(2)
_cell_angle_alpha                90
_cell_angle_beta                 90
_cell_angle_gamma                90
_cell_volume                     1870.85
_exptl_crystal_colour            colorless
_exptl_crystal_description       block
_cell_formula_units_Z            4
loop_
_atom_site_label
_atom_site_type_symbol
_atom_site_fract_x
_atom_site_fract_y
_atom_site_fract_z
O1 O 0.69793(16) 0.25679(10) 0.86008(8)
O2 O 0.75727(18) 0.00662(11) 0.84977(9)
H1 H 0.8030 -0.0435 0.8302
O3 O 0.58821(16) 0.12881(11) 0.59323(8)
O4 O 0.42886(19) 0.05680(14) 0.82588(10)
O5 O 0.48489(18) 0.15913(13) 0.93242(9)
O6 O 0.8644(2) -0.09533(13) 0.71319(13)
O7 O 0.5156(3) 0.35241(13) 0.58187(11)
H2 H 0.5020 0.4115 0.6019
C1 C 0.6314(2) 0.17369(13) 0.81442(10)
C2 C 0.7210(2) 0.05696(14) 0.70632(11)
C3 C 0.6003(2) 0.22170(13) 0.72744(10)
C4 C 0.5037(2) 0.12349(14) 0.85729(11)
C5 C 0.7565(2) 0.09260(14) 0.79298(11)
C6 C 0.7286(2) 0.30351(15) 0.72452(11)
H3 H 0.7877 0.2938 0.6756
H4 H 0.6924 0.3761 0.7259
C7 C 0.4201(3) 0.27779(18) 0.61943(13)
H5 H 0.3191 0.3014 0.6111
C8 C 0.6327(2) 0.12902(13) 0.67134(10)
C9 C 0.4494(2) 0.26970(17) 0.71166(12)
H6 H 0.4442 0.3400 0.7362
H7 H 0.3752 0.2255 0.7371
C10 C 0.8151(2) 0.27706(15) 0.80204(12)
H8 H 0.8796 0.3352 0.8194
C11 C 0.8937(2) 0.16810(16) 0.79949(13)
C12 C 0.7832(2) -0.03975(16) 0.67127(14)
C13 C 0.4414(3) 0.17113(18) 0.57597(12)
C14 C 1.0029(3) 0.1579(2) 0.72857(17)
H9 H 1.0737 0.2141 0.7321
H10 H 0.9517 0.1629 0.6772
H11 H 1.0516 0.0904 0.7319
C15 C 0.4383(4) 0.1834(3) 0.48333(15)
H12 H 0.4527 0.1152 0.4580
H13 H 0.5149 0.2310 0.4665
H14 H 0.3455 0.2119 0.4668
C16 C 0.3653(3) 0.1109(3) 0.97795(16)
H15 H 0.3597 0.1423 1.0316
H16 H 0.3821 0.0358 0.9831
H17 H 0.2751 0.1228 0.9493
C17 C 0.9743(3) 0.1512(2) 0.88090(17)
H18 H 1.0236 0.0837 0.8799
H19 H 0.9053 0.1522 0.9253
H20 H 1.0446 0.2070 0.8886
C18 C 0.3330(3) 0.0880(2) 0.60491(19)
H21 H 0.3374 0.0824 0.6637
H22 H 0.3568 0.0205 0.5808
H23 H 0.2361 0.1085 0.5886
C19 C 0.7452(4) -0.0720(3) 0.58549(19)
H24 H 0.7963 -0.1363 0.5717
H25 H 0.7731 -0.0164 0.5481
H26 H 0.6417 -0.0839 0.5816
loop_
_geom_bond_atom_site_label_1
_geom_bond_atom_site_label_2
_geom_bond_site_symmetry_1
_geom_bond_site_symmetry_2
O1 C1 1_555 1_555
O2 H1 1_555 1_555
O3 C8 1_555 1_555
O4 C4 1_555 1_555
O5 C4 1_555 1_555
O6 C12 1_555 1_555
O7 H2 1_555 1_555
C1 C3 1_555 1_555
C2 C5 1_555 1_555
C3 C6 1_555 1_555
C4 C1 1_555 1_555
C5 O2 1_555 1_555
C6 H3 1_555 1_555
H4 C6 1_555 1_555
C7 O7 1_555 1_555
H5 C7 1_555 1_555
C8 C2 1_555 1_555
C9 C3 1_555 1_555
H6 C9 1_555 1_555
H7 C9 1_555 1_555
C10 O1 1_555 1_555
H8 C10 1_555 1_555
C11 C5 1_555 1_555
C12 C2 1_555 1_555
C13 O3 1_555 1_555
C14 C11 1_555 1_555
H9 C14 1_555 1_555
H10 C14 1_555 1_555
H11 C14 1_555 1_555
C15 C13 1_555 1_555
H12 C15 1_555 1_555
H13 C15 1_555 1_555
H14 C15 1_555 1_555
C16 O5 1_555 1_555
H15 C16 1_555 1_555
H16 C16 1_555 1_555
H17 C16 1_555 1_555
C17 C11 1_555 1_555
H18 C17 1_555 1_555
H19 C17 1_555 1_555
H20 C17 1_555 1_555
C18 C13 1_555 1_555
H21 C18 1_555 1_555
H22 C18 1_555 1_555
H23 C18 1_555 1_555
C19 C12 1_555 1_555
H24 C19 1_555 1_555
H25 C19 1_555 1_555
H26 C19 1_555 1_555
C1 C5 1_555 1_555
C3 C8 1_555 1_555
C6 C10 1_555 1_555
C7 C9 1_555 1_555
C7 C13 1_555 1_555
C10 C11 1_555 1_555

#END
