
#######################################################################
#
#                 Cambridge Crystallographic Data Centre
#                                CCDC 
#
#######################################################################
#
# If this CIF has been generated from an entry in the Cambridge 
# Structural Database, then it will include bibliographic, chemical, 
# crystal, experimental, refinement or atomic coordinate data resulting 
# from the CCDC's data processing and validation procedures.
#
#######################################################################

data_DOYKEJ
_chemical_name_common            
"(1S,2S,3R,4R)-ethyl 1'-benzyl-4-(3,3-dibromoallyl)-2'-oxo-3-phenylspiro[cyclobutane-1,3'-indoline]-2-carboxylate"
_chemical_formula_moiety         'C30 H27 Br2 N1 O3'
_chemical_name_systematic        
"ethyl 1'-benzyl-4-(3,3-dibromoprop-2-en-1-yl)-2'-oxo-3-phenyl-1',2'-dihydrospiro[cyclobutane-1,3'-indole]-2-carboxylate"
_symmetry_cell_setting           orthorhombic
_symmetry_space_group_name_H-M   'P 21 21 21'
_symmetry_Int_Tables_number      19
_space_group_name_Hall           'P 2ac 2ab'
loop_
_symmetry_equiv_pos_site_id
_symmetry_equiv_pos_as_xyz
1 x,y,z
2 1/2+x,1/2-y,-z
3 -x,1/2+y,1/2-z
4 1/2-x,-y,1/2+z
_cell_length_a                   8.4071(8)
_cell_length_b                   11.8768(11)
_cell_length_c                   25.798(2)
_cell_angle_alpha                90
_cell_angle_beta                 90
_cell_angle_gamma                90
_cell_volume                     2575.92
_exptl_crystal_colour            colorless
_exptl_crystal_description       prism
_cell_formula_units_Z            4
_exptl_crystal_recrystallization_method dichloromethane/ethanol
loop_
_atom_site_label
_atom_site_type_symbol
_atom_site_fract_x
_atom_site_fract_y
_atom_site_fract_z
Br1 Br 1.07433(3) 0.685326(18) 0.788433(8)
Br2 Br 1.21537(3) 0.70445(2) 0.675225(10)
O1 O 0.6128(2) 0.58898(14) 0.51142(6)
O2 O 0.4295(2) 0.62843(13) 0.57279(6)
O3 O 0.5173(2) 0.46368(13) 0.70878(6)
N1 N 0.6050(2) 0.64695(15) 0.71676(7)
C1 C 0.8251(3) 0.6037(2) 0.89943(9)
H1 H 0.8884 0.5882 0.9291
C2 C 0.7715(3) 0.5164(2) 0.86823(10)
H2 H 0.8001 0.4409 0.8762
C3 C 0.6762(3) 0.53842(19) 0.82534(9)
H3 H 0.6388 0.4779 0.8046
C4 C 0.6352(3) 0.64944(19) 0.81260(8)
C5 C 0.5285(3) 0.6724(2) 0.76654(8)
H4 H 0.4307 0.6265 0.7698
H5 H 0.4967 0.7527 0.7669
C6 C 0.5927(3) 0.54507(18) 0.69292(8)
C7 C 0.6931(3) 0.54835(17) 0.64380(8)
C8 C 0.6194(3) 0.49320(18) 0.59412(8)
H6 H 0.5345 0.4384 0.6041
C9 C 0.7771(3) 0.43044(16) 0.58371(8)
H7 H 0.8461 0.4767 0.5604
C10 C 0.7722(3) 0.31069(18) 0.56451(8)
C11 C 0.8571(3) 0.27794(19) 0.52082(9)
H8 H 0.9196 0.3316 0.5026
C12 C 0.8511(3) 0.1667(2) 0.50356(9)
H9 H 0.9096 0.1452 0.4736
C13 C 0.7613(3) 0.0878(2) 0.52944(10)
H10 H 0.7584 0.0122 0.5175
C14 C 0.6925(3) 0.72325(17) 0.68620(8)
C15 C 0.7242(3) 0.83595(18) 0.69551(9)
H11 H 0.6878 0.8724 0.7261
C16 C 0.8121(3) 0.8935(2) 0.65795(10)
H12 H 0.8351 0.9710 0.6630
C17 C 0.8667(3) 0.84073(19) 0.61351(9)
H13 H 0.9263 0.8822 0.5887
C18 C 0.8348(3) 0.72740(19) 0.60491(9)
H14 H 0.8725 0.6910 0.5745
C19 C 0.7470(3) 0.66836(17) 0.64143(8)
C20 C 0.8225(3) 0.45308(18) 0.64123(8)
H15 H 0.7869 0.3880 0.6629
C21 C 0.9940(3) 0.4816(2) 0.65487(9)
H16 H 1.0596 0.4124 0.6534
H17 H 1.0368 0.5356 0.6292
C22 C 1.0043(3) 0.53180(18) 0.70810(9)
H18 H 0.9483 0.4941 0.7350
C23 C 1.0841(3) 0.62371(17) 0.72124(8)
C24 C 0.6746(3) 0.11919(19) 0.57314(9)
H19 H 0.6108 0.0654 0.5908
C25 C 0.6820(3) 0.22935(18) 0.59067(9)
H20 H 0.6248 0.2501 0.6210
C26 C 0.5566(3) 0.57451(17) 0.55399(8)
C27 C 0.3638(3) 0.7195(2) 0.54131(9)
H21 H 0.2523 0.7337 0.5518
H22 H 0.3638 0.6966 0.5044
C28 C 0.4588(3) 0.8258(2) 0.54744(10)
H23 H 0.4705 0.8432 0.5844
H24 H 0.4037 0.8880 0.5301
H25 H 0.5642 0.8156 0.5319
C29 C 0.6915(3) 0.73688(19) 0.84373(9)
H26 H 0.6656 0.8126 0.8354
C30 C 0.7853(3) 0.7137(2) 0.88690(8)
H27 H 0.8225 0.7738 0.9080
loop_
_geom_bond_atom_site_label_1
_geom_bond_atom_site_label_2
_geom_bond_site_symmetry_1
_geom_bond_site_symmetry_2
Br1 C23 1_555 1_555
Br2 C23 1_555 1_555
O1 C26 1_555 1_555
O2 C26 1_555 1_555
O3 C6 1_555 1_555
N1 C5 1_555 1_555
C1 H1 1_555 1_555
C2 C1 1_555 1_555
H2 C2 1_555 1_555
C3 C2 1_555 1_555
H3 C3 1_555 1_555
C4 C3 1_555 1_555
C5 C4 1_555 1_555
H4 C5 1_555 1_555
H5 C5 1_555 1_555
C6 N1 1_555 1_555
C7 C6 1_555 1_555
C8 C7 1_555 1_555
H6 C8 1_555 1_555
C9 C8 1_555 1_555
H7 C9 1_555 1_555
C10 C9 1_555 1_555
C11 C10 1_555 1_555
H8 C11 1_555 1_555
C12 C11 1_555 1_555
H9 C12 1_555 1_555
C13 C12 1_555 1_555
H10 C13 1_555 1_555
C14 N1 1_555 1_555
C15 C14 1_555 1_555
H11 C15 1_555 1_555
C16 C15 1_555 1_555
H12 C16 1_555 1_555
C17 C16 1_555 1_555
H13 C17 1_555 1_555
C18 C17 1_555 1_555
H14 C18 1_555 1_555
C19 C7 1_555 1_555
C20 C7 1_555 1_555
H15 C20 1_555 1_555
C21 C20 1_555 1_555
H16 C21 1_555 1_555
H17 C21 1_555 1_555
C22 C21 1_555 1_555
H18 C22 1_555 1_555
C23 C22 1_555 1_555
C24 C13 1_555 1_555
H19 C24 1_555 1_555
C25 C10 1_555 1_555
H20 C25 1_555 1_555
C26 C8 1_555 1_555
C27 O2 1_555 1_555
H21 C27 1_555 1_555
H22 C27 1_555 1_555
C28 C27 1_555 1_555
H23 C28 1_555 1_555
H24 C28 1_555 1_555
H25 C28 1_555 1_555
C29 C4 1_555 1_555
H26 C29 1_555 1_555
C30 C1 1_555 1_555
H27 C30 1_555 1_555
C9 C20 1_555 1_555
C14 C19 1_555 1_555
C18 C19 1_555 1_555
C24 C25 1_555 1_555
C29 C30 1_555 1_555

#END
