
#######################################################################
#
#                 Cambridge Crystallographic Data Centre
#                                CCDC 
#
#######################################################################
#
# If this CIF has been generated from an entry in the Cambridge 
# Structural Database, then it will include bibliographic, chemical, 
# crystal, experimental, refinement or atomic coordinate data resulting 
# from the CCDC's data processing and validation procedures.
#
#######################################################################

data_DOYLIO
_chemical_formula_moiety         'C12 H9 N3 O1'
_chemical_name_systematic        
3-oxo-2-phenyl-2,3-dihydro[1,2,3]triazolo[1,5-a]pyridin-8-ium-1-ide
_symmetry_cell_setting           monoclinic
_symmetry_space_group_name_H-M   'C 2/c'
_symmetry_Int_Tables_number      15
_space_group_name_Hall           '-C 2yn'
loop_
_symmetry_equiv_pos_site_id
_symmetry_equiv_pos_as_xyz
1 x,y,z
2 -x,y,1/2-z
3 1/2+x,1/2+y,z
4 1/2-x,1/2+y,1/2-z
5 -x,-y,-z
6 x,-y,1/2+z
7 1/2-x,1/2-y,-z
8 1/2+x,1/2-y,1/2+z
_cell_length_a                   11.477(3)
_cell_length_b                   8.789(2)
_cell_length_c                   19.955(6)
_cell_angle_alpha                90
_cell_angle_beta                 103.778(8)
_cell_angle_gamma                90
_cell_volume                     1954.97
_exptl_crystal_colour            yellow
_exptl_crystal_description       plate
_cell_formula_units_Z            8
loop_
_atom_site_label
_atom_site_type_symbol
_atom_site_fract_x
_atom_site_fract_y
_atom_site_fract_z
C1 C 0.53996(13) 0.46465(15) 0.61050(7)
H1 H 0.4834 0.522 0.5796
C2 C 0.57140(13) 0.50052(15) 0.67839(7)
H2 H 0.5351 0.5835 0.694
C3 C 0.65793(12) 0.41553(15) 0.72635(7)
H3 H 0.678 0.442 0.7728
C4 C 0.71159(12) 0.29342(15) 0.70296(7)
H4 H 0.7692 0.2364 0.7334
C5 C 0.67862(11) 0.25578(14) 0.63289(7)
C6 C 0.70941(12) 0.13423(15) 0.59267(7)
C7 C 0.62334(11) 0.07578(14) 0.46590(7)
C8 C 0.69900(13) -0.04716(15) 0.46325(7)
H5 H 0.7605 -0.0716 0.5013
C9 C 0.68124(13) -0.13282(15) 0.40298(8)
H6 H 0.7307 -0.2157 0.401
C10 C 0.59068(13) -0.09574(16) 0.34609(7)
H7 H 0.5798 -0.1529 0.3059
C11 C 0.51613(13) 0.02687(16) 0.34916(7)
H8 H 0.4555 0.0518 0.3108
C12 C 0.53122(12) 0.11275(15) 0.40900(7)
H9 H 0.4804 0.1941 0.4111
N1 N 0.59409(10) 0.34093(12) 0.58853(6)
N2 N 0.56636(10) 0.29164(12) 0.52380(6)
N3 N 0.63787(10) 0.16434(12) 0.52704(6)
O1 O 0.77908(9) 0.02554(11) 0.61008(5)
loop_
_geom_bond_atom_site_label_1
_geom_bond_atom_site_label_2
_geom_bond_site_symmetry_1
_geom_bond_site_symmetry_2
C1 H1 1_555 1_555
C2 C1 1_555 1_555
H2 C2 1_555 1_555
C3 C2 1_555 1_555
H3 C3 1_555 1_555
C4 C3 1_555 1_555
H4 C4 1_555 1_555
C5 C4 1_555 1_555
C6 C5 1_555 1_555
C7 C8 1_555 1_555
C8 H5 1_555 1_555
C9 C8 1_555 1_555
H6 C9 1_555 1_555
C10 C9 1_555 1_555
H7 C10 1_555 1_555
C11 C10 1_555 1_555
H8 C11 1_555 1_555
C12 C7 1_555 1_555
H9 C12 1_555 1_555
N1 C1 1_555 1_555
N2 N1 1_555 1_555
N3 C6 1_555 1_555
O1 C6 1_555 1_555
C5 N1 1_555 1_555
C7 N3 1_555 1_555
C11 C12 1_555 1_555
N2 N3 1_555 1_555

#END
