
#######################################################################
#
#                 Cambridge Crystallographic Data Centre
#                                CCDC 
#
#######################################################################
#
# If this CIF has been generated from an entry in the Cambridge 
# Structural Database, then it will include bibliographic, chemical, 
# crystal, experimental, refinement or atomic coordinate data resulting 
# from the CCDC's data processing and validation procedures.
#
#######################################################################

data_DOYLAG
_chemical_formula_moiety         'C17 H12 N2 O4'
_chemical_name_systematic        
1-(1-methyl-1H-indol-3-yl)-2-(4-nitrophenyl)ethane-1,2-dione
_symmetry_cell_setting           monoclinic
_symmetry_space_group_name_H-M   'P 21/c'
_symmetry_Int_Tables_number      14
_space_group_name_Hall           '-P 2ybc'
loop_
_symmetry_equiv_pos_site_id
_symmetry_equiv_pos_as_xyz
1 x,y,z
2 -x,1/2+y,1/2-z
3 -x,-y,-z
4 x,1/2-y,1/2+z
_cell_length_a                   13.389(3)
_cell_length_b                   7.7940(19)
_cell_length_c                   13.881(3)
_cell_angle_alpha                90
_cell_angle_beta                 90.579(4)
_cell_angle_gamma                90
_cell_volume                     1448.46
_exptl_crystal_colour            colorless
_exptl_crystal_description       block
_cell_formula_units_Z            4
loop_
_atom_site_label
_atom_site_type_symbol
_atom_site_fract_x
_atom_site_fract_y
_atom_site_fract_z
C1 C 0.61181(13) 0.8441(2) 0.62206(12)
H1 H 0.5504 0.8166 0.5943
C2 C 0.62434(11) 0.9218(2) 0.71119(11)
C3 C 0.73064(11) 0.9393(2) 0.72572(11)
C4 C 0.77567(12) 0.8709(2) 0.64330(11)
C5 C 0.87822(14) 0.8688(3) 0.63098(13)
H2 H 0.9068 0.8216 0.5762
C6 C 0.93579(14) 0.9393(3) 0.70315(15)
H3 H 1.0049 0.9412 0.6968
C7 C 0.89297(14) 1.0083(3) 0.78587(14)
H4 H 0.9341 1.0538 0.8339
C8 C 0.79126(12) 1.0101(2) 0.79765(12)
H5 H 0.7633 1.0578 0.8526
C9 C 0.71706(17) 0.7346(3) 0.48786(13)
H6 H 0.6601 0.6661 0.4704
H7 H 0.7754 0.6630 0.4913
H8 H 0.7266 0.8222 0.4402
C10 C 0.54781(12) 0.9794(2) 0.77448(12)
C11 C 0.43846(12) 0.9638(2) 0.74075(13)
C12 C 0.36184(11) 0.9053(2) 0.81061(12)
C13 C 0.26218(12) 0.9360(3) 0.78823(13)
H9 H 0.2451 0.9944 0.7320
C14 C 0.18863(13) 0.8801(3) 0.84907(14)
H10 H 0.1217 0.9022 0.8352
C15 C 0.21569(13) 0.7910(2) 0.93079(13)
C16 C 0.31309(13) 0.7578(2) 0.95495(13)
H11 H 0.3293 0.6971 1.0106
C17 C 0.38670(12) 0.8169(2) 0.89445(12)
H12 H 0.4535 0.7973 0.9099
N1 N 0.70052(11) 0.81413(19) 0.58139(10)
N2 N 0.13602(13) 0.7311(3) 0.99504(13)
O1 O 0.56278(9) 1.04937(18) 0.85237(9)
O2 O 0.41611(9) 1.0085(2) 0.65963(9)
O3 O 0.15763(12) 0.6311(2) 1.05939(11)
O4 O 0.05190(13) 0.7859(3) 0.98079(14)
loop_
_geom_bond_atom_site_label_1
_geom_bond_atom_site_label_2
_geom_bond_site_symmetry_1
_geom_bond_site_symmetry_2
C1 H1 1_555 1_555
C2 C1 1_555 1_555
C3 C2 1_555 1_555
C4 C3 1_555 1_555
C5 C4 1_555 1_555
H2 C5 1_555 1_555
C6 C5 1_555 1_555
H3 C6 1_555 1_555
C7 C6 1_555 1_555
H4 C7 1_555 1_555
C8 C3 1_555 1_555
H5 C8 1_555 1_555
C9 H6 1_555 1_555
H7 C9 1_555 1_555
H8 C9 1_555 1_555
C10 C2 1_555 1_555
C11 C10 1_555 1_555
C12 C11 1_555 1_555
C13 C12 1_555 1_555
H9 C13 1_555 1_555
C14 C13 1_555 1_555
H10 C14 1_555 1_555
C15 C14 1_555 1_555
C16 C15 1_555 1_555
H11 C16 1_555 1_555
C17 C12 1_555 1_555
H12 C17 1_555 1_555
N1 C1 1_555 1_555
N2 C15 1_555 1_555
O1 C10 1_555 1_555
O2 C11 1_555 1_555
O3 N2 1_555 1_555
O4 N2 1_555 1_555
C4 N1 1_555 1_555
C7 C8 1_555 1_555
C9 N1 1_555 1_555
C16 C17 1_555 1_555

#END
