
#######################################################################
#
#                 Cambridge Crystallographic Data Centre
#                                CCDC 
#
#######################################################################
#
# If this CIF has been generated from an entry in the Cambridge 
# Structural Database, then it will include bibliographic, chemical, 
# crystal, experimental, refinement or atomic coordinate data resulting 
# from the CCDC's data processing and validation procedures.
#
#######################################################################

data_DOYLEK
_chemical_formula_moiety         'C18 H13 N3 O1'
_chemical_name_systematic        
3-oxo-2,7-diphenyl-2,3-dihydro[1,2,3]triazolo[1,5-a]pyridin-8-ium-1-ide
_symmetry_cell_setting           monoclinic
_symmetry_space_group_name_H-M   'P 21/c'
_symmetry_Int_Tables_number      14
_space_group_name_Hall           '-P 2ybc'
loop_
_symmetry_equiv_pos_site_id
_symmetry_equiv_pos_as_xyz
1 x,y,z
2 -x,1/2+y,1/2-z
3 -x,-y,-z
4 x,1/2-y,1/2+z
_cell_length_a                   8.3217(6)
_cell_length_b                   9.5453(6)
_cell_length_c                   17.1799(11)
_cell_angle_alpha                90
_cell_angle_beta                 100.577(3)
_cell_angle_gamma                90
_cell_volume                     1341.47
_exptl_crystal_colour            yellow
_exptl_crystal_description       plate
_cell_formula_units_Z            4
loop_
_atom_site_label
_atom_site_type_symbol
_atom_site_fract_x
_atom_site_fract_y
_atom_site_fract_z
C1 C 0.61529(19) 0.79024(16) 0.52702(9)
C2 C 0.49123(18) 0.69317(16) 0.53881(9)
C3 C 0.48376(19) 0.59339(16) 0.59764(9)
H1 H 0.5678 0.5878 0.6432
C4 C 0.35333(18) 0.50416(17) 0.58837(9)
H2 H 0.3457 0.4348 0.6272
C5 C 0.22963(19) 0.51651(16) 0.52014(9)
H3 H 0.1403 0.453 0.5138
C6 C 0.23264(18) 0.61509(15) 0.46307(9)
C7 C 0.10392(18) 0.63268(16) 0.39196(9)
C8 C 0.04797(18) 0.51612(17) 0.34581(9)
H4 H 0.0953 0.4267 0.3589
C9 C -0.07719(19) 0.53139(17) 0.28074(10)
H5 H -0.1136 0.4523 0.2488
C10 C -0.14973(19) 0.66086(17) 0.26184(9)
H6 H -0.2344 0.6708 0.2169
C11 C -0.09717(19) 0.77606(17) 0.30938(9)
H7 H -0.1488 0.8643 0.2979
C12 C 0.02978(19) 0.76279(16) 0.37332(9)
H8 H 0.0667 0.8425 0.4047
C13 C 0.61743(18) 0.95396(16) 0.41007(9)
C14 C 0.76777(18) 1.01385(16) 0.44163(9)
H9 H 0.8239 0.9873 0.4927
C15 C 0.83501(19) 1.11285(16) 0.39771(10)
H10 H 0.9377 1.1539 0.419
C16 C 0.7540(2) 1.15225(17) 0.32336(10)
H11 H 0.8015 1.219 0.2933
C17 C 0.60282(19) 1.09361(16) 0.29292(10)
H12 H 0.5459 1.1222 0.2423
C18 C 0.53369(19) 0.99365(16) 0.33546(9)
H13 H 0.4309 0.9529 0.314
N1 N 0.36924(15) 0.70280(13) 0.47353(7)
N2 N 0.39649(15) 0.79703(13) 0.41991(7)
N3 N 0.54743(14) 0.85031(13) 0.45367(7)
O1 O 0.75013(13) 0.81503(12) 0.56845(7)
loop_
_geom_bond_atom_site_label_1
_geom_bond_atom_site_label_2
_geom_bond_site_symmetry_1
_geom_bond_site_symmetry_2
C1 C2 1_555 1_555
C2 C3 1_555 1_555
C3 H1 1_555 1_555
C4 C3 1_555 1_555
H2 C4 1_555 1_555
C5 C4 1_555 1_555
H3 C5 1_555 1_555
C6 C5 1_555 1_555
C7 C6 1_555 1_555
C8 C7 1_555 1_555
H4 C8 1_555 1_555
C9 C8 1_555 1_555
H5 C9 1_555 1_555
C10 C9 1_555 1_555
H6 C10 1_555 1_555
C11 C10 1_555 1_555
H7 C11 1_555 1_555
C12 C7 1_555 1_555
H8 C12 1_555 1_555
C13 C14 1_555 1_555
C14 H9 1_555 1_555
C15 C14 1_555 1_555
H10 C15 1_555 1_555
C16 C15 1_555 1_555
H11 C16 1_555 1_555
C17 C16 1_555 1_555
H12 C17 1_555 1_555
C18 C13 1_555 1_555
H13 C18 1_555 1_555
N1 C2 1_555 1_555
N2 N1 1_555 1_555
N3 C1 1_555 1_555
O1 C1 1_555 1_555
C6 N1 1_555 1_555
C11 C12 1_555 1_555
C13 N3 1_555 1_555
C17 C18 1_555 1_555
N2 N3 1_555 1_555

#END
