
#######################################################################
#
#                 Cambridge Crystallographic Data Centre
#                                CCDC 
#
#######################################################################
#
# If this CIF has been generated from an entry in the Cambridge 
# Structural Database, then it will include bibliographic, chemical, 
# crystal, experimental, refinement or atomic coordinate data resulting 
# from the CCDC's data processing and validation procedures.
#
#######################################################################

data_DOYMIO
_chemical_formula_moiety         'C21 H19 N3 O1'
_chemical_name_systematic        
((2E)-1-(4-(Dimethylamino)phenyl)-3-(4-methoxyphenyl)prop-2-en-1-ylidene)malononitrile
_symmetry_cell_setting           triclinic
_symmetry_space_group_name_H-M   'P -1'
_symmetry_Int_Tables_number      2
_space_group_name_Hall           '-P 1'
loop_
_symmetry_equiv_pos_site_id
_symmetry_equiv_pos_as_xyz
1 x,y,z
2 -x,-y,-z
_cell_length_a                   7.8176(2)
_cell_length_b                   15.0473(4)
_cell_length_c                   16.0532(5)
_cell_angle_alpha                104.702(2)
_cell_angle_beta                 90.581(2)
_cell_angle_gamma                104.638(2)
_cell_volume                     1761.71
_exptl_crystal_colour            red
_exptl_crystal_description       plate
_chemical_melting_point          '157-159 deg.C'
_cell_formula_units_Z            4
_exptl_crystal_recrystallization_method pentane/chloroform
loop_
_atom_site_label
_atom_site_type_symbol
_atom_site_fract_x
_atom_site_fract_y
_atom_site_fract_z
O1 O 0.22312(19) 0.92393(10) 0.93357(10)
N1 N -0.3336(2) 0.13079(11) 0.61061(10)
N2 N -0.5630(2) 0.20331(13) 1.00297(11)
N3 N -0.3597(3) 0.49646(13) 1.15168(11)
C1 C -0.3828(2) 0.37288(13) 1.00451(11)
C2 C -0.3085(2) 0.40000(13) 0.93404(11)
C3 C -0.2260(2) 0.50010(13) 0.94320(12)
C4 C -0.1144(2) 0.53604(13) 0.88974(12)
C5 C -0.0306(2) 0.63646(13) 0.89977(11)
C6 C -0.0714(3) 0.70942(13) 0.96343(12)
C7 C 0.0132(3) 0.80341(14) 0.97184(12)
C8 C 0.1453(2) 0.82846(13) 0.91791(12)
C9 C 0.1855(2) 0.75797(14) 0.85287(12)
C10 C 0.0976(2) 0.66382(14) 0.84405(12)
C11 C 0.3728(3) 0.95162(18) 0.88642(18)
C12 C -0.3147(2) 0.32924(12) 0.85122(11)
C13 C -0.3535(2) 0.34906(13) 0.77349(11)
C14 C -0.3607(2) 0.28376(13) 0.69515(11)
C15 C -0.3279(2) 0.19534(12) 0.68965(11)
C16 C -0.2912(2) 0.17456(13) 0.76786(12)
C17 C -0.2843(2) 0.24033(13) 0.84595(12)
C18 C -0.3122(3) 0.16522(18) 0.53401(13)
C19 C -0.2892(4) 0.04234(16) 0.60594(16)
C20 C -0.4808(2) 0.27814(14) 1.00218(11)
C21 C -0.3695(3) 0.44129(14) 1.08640(12)
H1 H -0.251(3) 0.2252(14) 0.8992(13)
H2 H -0.085(3) 0.4905(15) 0.8404(14)
H3 H -0.161(3) 0.6934(14) 1.0036(13)
H4 H -0.390(2) 0.3014(13) 0.6426(12)
H5 H -0.387(3) 0.4089(15) 0.7744(12)
H6 H 0.126(2) 0.6130(14) 0.7988(12)
H7 H -0.248(3) 0.5443(16) 0.9965(14)
H8 H -0.209(4) 0.220(2) 0.5416(17)
H9 H -0.021(3) 0.8571(17) 1.0162(16)
H10 H -0.270(2) 0.1136(14) 0.7669(12)
H11 H -0.418(4) 0.1889(18) 0.5177(16)
H12 H 0.271(3) 0.7751(15) 0.8138(14)
H13 H -0.301(4) 0.114(2) 0.4840(19)
H14 H 0.409(3) 1.0205(18) 0.9075(15)
H15 H -0.341(4) -0.0019(19) 0.5480(18)
H16 H -0.355(4) 0.009(2) 0.6487(18)
H17 H 0.345(4) 0.9358(19) 0.8231(19)
H18 H 0.465(3) 0.9186(18) 0.8957(16)
H19 H -0.163(5) 0.045(2) 0.614(2)
O2 O 0.71457(19) 0.91862(10) 0.77344(9)
N4 N 0.1719(2) 0.13078(11) 0.71277(10)
N5 N -0.0698(2) 0.19885(13) 0.34938(12)
N6 N 0.1346(3) 0.49234(13) 0.34256(11)
C22 C 0.1104(2) 0.36844(13) 0.43050(11)
C23 C 0.1843(2) 0.39546(12) 0.51449(11)
C24 C 0.2681(2) 0.49575(13) 0.55361(12)
C25 C 0.3820(2) 0.53115(13) 0.62381(12)
C26 C 0.4667(2) 0.63157(12) 0.66312(11)
C27 C 0.5888(2) 0.65801(13) 0.73433(12)
C28 C 0.6757(2) 0.75233(14) 0.77316(12)
C29 C 0.6381(2) 0.82313(13) 0.74083(12)
C30 C 0.5131(3) 0.79879(14) 0.67099(12)
C31 C 0.4301(3) 0.70503(13) 0.63256(12)
C32 C 0.8465(4) 0.94612(19) 0.84349(18)
C33 C 0.1791(2) 0.32574(12) 0.56415(11)
C34 C 0.2082(2) 0.23632(13) 0.52766(12)
C35 C 0.2045(2) 0.17217(13) 0.57589(12)
C36 C 0.1730(2) 0.19418(12) 0.66381(11)
C37 C 0.1405(2) 0.28297(13) 0.70004(12)
C38 C 0.1437(2) 0.34668(13) 0.65159(11)
C39 C 0.2045(3) 0.03942(16) 0.67415(17)
C40 C 0.1968(3) 0.16584(18) 0.80580(14)
C41 C 0.0117(3) 0.27337(14) 0.38657(12)
C42 C 0.1239(3) 0.43681(13) 0.38109(12)
H20 H 0.416(3) 0.4894(15) 0.6545(12)
H21 H 0.237(3) 0.2217(14) 0.4673(13)
H22 H 0.609(3) 0.6082(15) 0.7560(13)
H23 H 0.118(3) 0.3007(14) 0.7594(13)
H24 H 0.116(2) 0.4060(15) 0.6794(12)
H25 H 0.240(3) 0.5369(15) 0.5207(13)
H26 H 0.347(3) 0.6904(15) 0.5805(15)
H27 H 0.758(3) 0.7682(14) 0.8238(13)
H28 H 0.208(3) 0.1141(19) 0.8313(16)
H29 H 0.490(3) 0.8507(18) 0.6470(15)
H30 H 0.225(3) 0.1090(16) 0.5475(14)
H31 H 0.125(4) 0.004(2) 0.6187(19)
H32 H 0.090(3) 0.1868(17) 0.8310(15)
H33 H 0.804(4) 0.929(2) 0.8953(18)
H34 H 0.285(4) 0.2284(19) 0.8250(16)
H35 H 0.183(4) 0.003(2) 0.714(2)
H36 H 0.884(4) 1.017(2) 0.8570(18)
H37 H 0.333(4) 0.0464(18) 0.6572(16)
H38 H 0.950(4) 0.919(2) 0.824(2)
loop_
_geom_bond_atom_site_label_1
_geom_bond_atom_site_label_2
_geom_bond_site_symmetry_1
_geom_bond_site_symmetry_2
O1 C8 1_555 1_555
N1 C15 1_555 1_555
N2 C20 1_555 1_555
N3 C21 1_555 1_555
C1 C2 1_555 1_555
C2 C3 1_555 1_555
C3 C4 1_555 1_555
C4 C5 1_555 1_555
C5 C6 1_555 1_555
C6 C7 1_555 1_555
C7 C8 1_555 1_555
C8 C9 1_555 1_555
C9 C10 1_555 1_555
C10 C5 1_555 1_555
C11 O1 1_555 1_555
C12 C2 1_555 1_555
C13 C12 1_555 1_555
C14 C13 1_555 1_555
C15 C14 1_555 1_555
C16 C15 1_555 1_555
C17 C12 1_555 1_555
C18 N1 1_555 1_555
C19 N1 1_555 1_555
C20 C1 1_555 1_555
C21 C1 1_555 1_555
H1 C17 1_555 1_555
H2 C4 1_555 1_555
H3 C6 1_555 1_555
H4 C14 1_555 1_555
H5 C13 1_555 1_555
H6 C10 1_555 1_555
H7 C3 1_555 1_555
H8 C18 1_555 1_555
H9 C7 1_555 1_555
H10 C16 1_555 1_555
H11 C18 1_555 1_555
H12 C9 1_555 1_555
H13 C18 1_555 1_555
H14 C11 1_555 1_555
H15 C19 1_555 1_555
H16 C19 1_555 1_555
H17 C11 1_555 1_555
H18 C11 1_555 1_555
H19 C19 1_555 1_555
O2 C29 1_555 1_555
N4 C36 1_555 1_555
N5 C41 1_555 1_555
N6 C42 1_555 1_555
C22 C23 1_555 1_555
C23 C24 1_555 1_555
C24 C25 1_555 1_555
C25 C26 1_555 1_555
C26 C27 1_555 1_555
C27 C28 1_555 1_555
C28 C29 1_555 1_555
C29 C30 1_555 1_555
C30 C31 1_555 1_555
C31 C26 1_555 1_555
C32 O2 1_555 1_555
C33 C23 1_555 1_555
C34 C33 1_555 1_555
C35 C34 1_555 1_555
C36 C35 1_555 1_555
C37 C36 1_555 1_555
C38 C33 1_555 1_555
C39 N4 1_555 1_555
C40 N4 1_555 1_555
C41 C22 1_555 1_555
C42 C22 1_555 1_555
H20 C25 1_555 1_555
H21 C34 1_555 1_555
H22 C27 1_555 1_555
H23 C37 1_555 1_555
H24 C38 1_555 1_555
H25 C24 1_555 1_555
H26 C31 1_555 1_555
H27 C28 1_555 1_555
H28 C40 1_555 1_555
H29 C30 1_555 1_555
H30 C35 1_555 1_555
H31 C39 1_555 1_555
H32 C40 1_555 1_555
H33 C32 1_555 1_555
H34 C40 1_555 1_555
H35 C39 1_555 1_555
H36 C32 1_555 1_555
H37 C39 1_555 1_555
H38 C32 1_555 1_555
C16 C17 1_555 1_555
C37 C38 1_555 1_555

#END
