
#######################################################################
#
#                 Cambridge Crystallographic Data Centre
#                                CCDC 
#
#######################################################################
#
# If this CIF has been generated from an entry in the Cambridge 
# Structural Database, then it will include bibliographic, chemical, 
# crystal, experimental, refinement or atomic coordinate data resulting 
# from the CCDC's data processing and validation procedures.
#
#######################################################################

data_DOYMOU
_chemical_formula_moiety         'C19 H18 N2 O2'
_chemical_name_systematic        
'Ethyl 5-methyl-1,3-diphenyl-1H-pyrazole-4-carboxylate'
_symmetry_cell_setting           monoclinic
_symmetry_space_group_name_H-M   'P 21/c'
_symmetry_Int_Tables_number      14
_space_group_name_Hall           '-P 2ybc'
loop_
_symmetry_equiv_pos_site_id
_symmetry_equiv_pos_as_xyz
1 x,y,z
2 -x,1/2+y,1/2-z
3 -x,-y,-z
4 x,1/2-y,1/2+z
_cell_length_a                   8.2775(12)
_cell_length_b                   15.616(2)
_cell_length_c                   12.3892(18)
_cell_angle_alpha                90
_cell_angle_beta                 98.896(3)
_cell_angle_gamma                90
_cell_volume                     1582.18
_exptl_crystal_colour            'pale yellow'
_exptl_crystal_description       block
_cell_formula_units_Z            4
loop_
_atom_site_label
_atom_site_type_symbol
_atom_site_fract_x
_atom_site_fract_y
_atom_site_fract_z
C1 C 0.7523(2) 0.90071(10) 0.98010(13)
C2 C 0.7237(2) 0.97692(10) 1.03702(12)
C3 C 0.7613(2) 1.04377(11) 0.97179(13)
C4 C 0.7391(2) 0.80937(10) 1.00842(13)
C5 C 0.6747(2) 0.75167(11) 0.92821(14)
H1 H 0.6364 0.7717 0.8564
C6 C 0.6654(2) 0.66551(11) 0.95105(15)
H2 H 0.6192 0.6268 0.8956
C7 C 0.7237(2) 0.63569(12) 1.05505(15)
H3 H 0.7181 0.5764 1.0711
C8 C 0.7894(2) 0.69213(12) 1.13494(15)
H4 H 0.8300 0.6716 1.2061
C9 C 0.7971(2) 0.77848(11) 1.11265(14)
H5 H 0.8422 0.8170 1.1686
C10 C 0.6516(2) 0.98271(11) 1.13753(13)
C11 C 0.5903(2) 1.07657(11) 1.27715(13)
H6 H 0.6242 1.0300 1.3300
H7 H 0.4693 1.0777 1.2614
C12 C 0.6543(2) 1.16077(12) 1.32298(14)
H8 H 0.7740 1.1588 1.3382
H9 H 0.6111 1.1724 1.3908
H10 H 0.6199 1.2063 1.2699
C13 C 0.7656(2) 1.13859(10) 0.98996(14)
H11 H 0.8309 1.1656 0.9398
H12 H 0.8147 1.1508 1.0655
H13 H 0.6540 1.1614 0.9764
C14 C 0.8440(2) 1.04605(11) 0.78446(13)
C15 C 0.7527(2) 1.11303(11) 0.73610(14)
H14 H 0.6617 1.1337 0.7666
C16 C 0.7937(2) 1.15005(12) 0.64303(14)
H15 H 0.7320 1.1971 0.6101
C17 C 0.9243(2) 1.11907(12) 0.59729(15)
H16 H 0.9541 1.1456 0.5342
C18 C 1.0104(2) 1.04987(12) 0.64355(14)
H17 H 1.0977 1.0272 0.6108
C19 C 0.9714(2) 1.01284(11) 0.73750(13)
H18 H 1.0316 0.9650 0.7695
N1 N 0.80464(17) 1.00706(8) 0.88146(10)
N2 N 0.80224(17) 0.91929(8) 0.88587(11)
O1 O 0.59209(14) 0.92351(8) 1.18073(9)
O2 O 0.65786(14) 1.06288(7) 1.17762(9)
loop_
_geom_bond_atom_site_label_1
_geom_bond_atom_site_label_2
_geom_bond_site_symmetry_1
_geom_bond_site_symmetry_2
C1 C2 1_555 1_555
C2 C3 1_555 1_555
C3 C13 1_555 1_555
C4 C1 1_555 1_555
C5 C4 1_555 1_555
H1 C5 1_555 1_555
C6 C5 1_555 1_555
H2 C6 1_555 1_555
C7 C6 1_555 1_555
H3 C7 1_555 1_555
C8 C7 1_555 1_555
H4 C8 1_555 1_555
C9 C4 1_555 1_555
H5 C9 1_555 1_555
C10 C2 1_555 1_555
C11 H6 1_555 1_555
H7 C11 1_555 1_555
C12 C11 1_555 1_555
H8 C12 1_555 1_555
H9 C12 1_555 1_555
H10 C12 1_555 1_555
C13 H11 1_555 1_555
H12 C13 1_555 1_555
H13 C13 1_555 1_555
C14 C15 1_555 1_555
C15 H14 1_555 1_555
C16 C15 1_555 1_555
H15 C16 1_555 1_555
C17 C16 1_555 1_555
H16 C17 1_555 1_555
C18 C17 1_555 1_555
H17 C18 1_555 1_555
C19 C14 1_555 1_555
H18 C19 1_555 1_555
N1 C3 1_555 1_555
N2 C1 1_555 1_555
O1 C10 1_555 1_555
O2 C10 1_555 1_555
C8 C9 1_555 1_555
C11 O2 1_555 1_555
C14 N1 1_555 1_555
C18 C19 1_555 1_555
N1 N2 1_555 1_555

#END
