
#######################################################################
#
#                 Cambridge Crystallographic Data Centre
#                                CCDC 
#
#######################################################################
#
# If this CIF has been generated from an entry in the Cambridge 
# Structural Database, then it will include bibliographic, chemical, 
# crystal, experimental, refinement or atomic coordinate data resulting 
# from the CCDC's data processing and validation procedures.
#
#######################################################################

data_DOYNEL
_chemical_formula_moiety         'C25 H19 F3 N2 O2'
_chemical_name_systematic        
'Ethyl 1,5-diphenyl-3-(4-(trifluoromethyl)phenyl)-1H-pyrazole-4-carboxylate'
_symmetry_cell_setting           triclinic
_symmetry_space_group_name_H-M   'P -1'
_symmetry_Int_Tables_number      2
_space_group_name_Hall           '-P 1'
loop_
_symmetry_equiv_pos_site_id
_symmetry_equiv_pos_as_xyz
1 x,y,z
2 -x,-y,-z
_cell_length_a                   9.801(2)
_cell_length_b                   9.982(2)
_cell_length_c                   12.377(3)
_cell_angle_alpha                78.875(5)
_cell_angle_beta                 88.801(5)
_cell_angle_gamma                64.005(4)
_cell_volume                     1065.15
_exptl_crystal_colour            colorless
_exptl_crystal_description       block
_cell_formula_units_Z            2
loop_
_atom_site_label
_atom_site_type_symbol
_atom_site_fract_x
_atom_site_fract_y
_atom_site_fract_z
C1 C 1.0171(5) 0.7811(5) -0.0733(4)
C2 C 1.0300(5) 0.7005(5) 0.0346(4)
C3 C 0.8955(5) 0.7918(5) 0.0818(4)
C4 C 1.1241(5) 0.7461(5) -0.1602(4)
C5 C 1.1852(5) 0.8458(5) -0.2036(4)
H1 H 1.1594 0.9357 -0.1759
C6 C 1.2825(5) 0.8141(5) -0.2860(4)
H2 H 1.3245 0.8822 -0.3144
C7 C 1.3211(5) 0.6850(5) -0.3291(4)
H3 H 1.3877 0.6650 -0.3871
C8 C 1.2607(5) 0.5859(6) -0.2861(4)
H4 H 1.2874 0.4958 -0.3137
C9 C 1.1628(5) 0.6168(5) -0.2042(4)
H5 H 1.1204 0.5488 -0.1767
C10 C 1.1487(6) 0.5527(6) 0.0859(4)
C11 C 1.4140(5) 0.3852(5) 0.0955(4)
H6 H 1.3978 0.3488 0.1727
H7 H 1.5096 0.3962 0.0958
C12 C 1.4280(6) 0.2715(5) 0.0283(4)
H8 H 1.3425 0.2456 0.0398
H9 H 1.5239 0.1795 0.0509
H10 H 1.4269 0.3148 -0.0500
C13 C 0.8465(5) 0.7732(5) 0.1964(4)
C14 C 0.9491(6) 0.7038(5) 0.2877(4)
H11 H 1.0550 0.6613 0.2774
C15 C 0.9023(6) 0.6945(5) 0.3930(4)
H12 H 0.9743 0.6474 0.4551
C16 C 0.7479(6) 0.7552(5) 0.4067(4)
C17 C 0.6428(6) 0.8268(5) 0.3175(4)
H13 H 0.5369 0.8702 0.3280
C18 C 0.6930(5) 0.8346(5) 0.2123(4)
H14 H 0.6209 0.8830 0.1502
C19 C 0.7012(7) 0.7369(7) 0.5189(5)
C20 C 0.8155(5) 1.0304(5) -0.1796(4)
C21 C 0.7409(5) 1.1762(5) -0.1637(4)
H15 H 0.7344 1.1962 -0.0913
C22 C 0.6749(5) 1.2948(5) -0.2540(4)
H16 H 0.6218 1.3968 -0.2442
C23 C 0.6873(5) 1.2630(6) -0.3585(4)
H17 H 0.6441 1.3439 -0.4209
C24 C 0.7609(5) 1.1163(6) -0.3729(4)
H18 H 0.7691 1.0964 -0.4454
C25 C 0.8236(5) 0.9965(5) -0.2834(4)
H19 H 0.8709 0.8941 -0.2928
F1 F 0.6931(4) 0.6057(4) 0.5555(3)
F2 F 0.7865(5) 0.7405(6) 0.5961(3)
F3 F 0.5587(5) 0.8352(4) 0.5354(3)
N1 N 0.8845(4) 0.9079(4) -0.0842(3)
N2 N 0.8090(4) 0.9206(4) 0.0098(3)
O1 O 1.1325(4) 0.4565(4) 0.1527(3)
O2 O 1.2874(3) 0.5323(3) 0.0510(2)
loop_
_geom_bond_atom_site_label_1
_geom_bond_atom_site_label_2
_geom_bond_site_symmetry_1
_geom_bond_site_symmetry_2
C1 C2 1_555 1_555
C2 C3 1_555 1_555
C3 C13 1_555 1_555
C4 C1 1_555 1_555
C5 C4 1_555 1_555
H1 C5 1_555 1_555
C6 C5 1_555 1_555
H2 C6 1_555 1_555
C7 C6 1_555 1_555
H3 C7 1_555 1_555
C8 C7 1_555 1_555
H4 C8 1_555 1_555
C9 C4 1_555 1_555
H5 C9 1_555 1_555
C10 C2 1_555 1_555
C11 H6 1_555 1_555
H7 C11 1_555 1_555
C12 C11 1_555 1_555
H8 C12 1_555 1_555
H9 C12 1_555 1_555
H10 C12 1_555 1_555
C13 C14 1_555 1_555
C14 H11 1_555 1_555
C15 C14 1_555 1_555
H12 C15 1_555 1_555
C16 C15 1_555 1_555
C17 C16 1_555 1_555
H13 C17 1_555 1_555
C18 C13 1_555 1_555
H14 C18 1_555 1_555
C19 C16 1_555 1_555
C20 C21 1_555 1_555
C21 H15 1_555 1_555
C22 C21 1_555 1_555
H16 C22 1_555 1_555
C23 C22 1_555 1_555
H17 C23 1_555 1_555
C24 C23 1_555 1_555
H18 C24 1_555 1_555
C25 C20 1_555 1_555
H19 C25 1_555 1_555
F1 C19 1_555 1_555
F2 C19 1_555 1_555
F3 C19 1_555 1_555
N1 C1 1_555 1_555
N2 C3 1_555 1_555
O1 C10 1_555 1_555
O2 C10 1_555 1_555
C8 C9 1_555 1_555
C11 O2 1_555 1_555
C17 C18 1_555 1_555
C20 N1 1_555 1_555
C24 C25 1_555 1_555
N1 N2 1_555 1_555

#END
