
#######################################################################
#
#                 Cambridge Crystallographic Data Centre
#                                CCDC 
#
#######################################################################
#
# If this CIF has been generated from an entry in the Cambridge 
# Structural Database, then it will include bibliographic, chemical, 
# crystal, experimental, refinement or atomic coordinate data resulting 
# from the CCDC's data processing and validation procedures.
#
#######################################################################

data_DOYQOZ
_chemical_formula_moiety         'C25 H25 N1 O4'
_chemical_name_systematic        
"Dimethyl 2'-methyl-2-phenyl-5-vinyl-3H-spiro[cyclopentane-1,3'-indole]-3,3-dicarboxylate"
_symmetry_cell_setting           triclinic
_symmetry_space_group_name_H-M   'P -1'
_symmetry_Int_Tables_number      2
_space_group_name_Hall           '-P 1'
loop_
_symmetry_equiv_pos_site_id
_symmetry_equiv_pos_as_xyz
1 x,y,z
2 -x,-y,-z
_cell_length_a                   10.1067(2)
_cell_length_b                   11.5787(3)
_cell_length_c                   19.2079(5)
_cell_angle_alpha                83.811(2)
_cell_angle_beta                 82.159(2)
_cell_angle_gamma                76.354(2)
_cell_volume                     2157.2
_cell_formula_units_Z            4
loop_
_atom_site_label
_atom_site_type_symbol
_atom_site_fract_x
_atom_site_fract_y
_atom_site_fract_z
O1 O 0.70603(9) 1.19789(8) 0.54810(5)
O2 O 0.49514(8) 1.28505(8) 0.52071(5)
O3 O 0.76010(10) 1.42876(9) 0.52700(5)
O4 O 0.92860(9) 1.34487(9) 0.44732(6)
C1 C 0.60292(13) 1.43402(10) 0.40720(7)
H1 H 0.5068 1.4357 0.4218
H2 H 0.6222 1.5076 0.4185
C2 C 0.69458(11) 1.32524(10) 0.44441(6)
C3 C 0.75214(11) 1.23545(10) 0.38560(6)
H3 H 0.8422 1.2510 0.3673
C4 C 0.66224(12) 1.28173(10) 0.32398(6)
C5 C 0.40916(12) 1.25174(11) 0.36705(7)
H4 H 0.3957 1.2927 0.4074
C6 C 0.53192(12) 1.23850(10) 0.32371(6)
C7 C 0.30594(14) 1.20279(12) 0.34939(7)
H5 H 0.2230 1.2117 0.3782
C8 C 0.81112(12) 1.36469(10) 0.47173(7)
C9 C 0.63782(14) 1.41868(11) 0.32815(7)
H6 H 0.7257 1.4409 0.3133
N1 N 0.67671(13) 1.17738(11) 0.22218(6)
C10 C 0.78082(11) 1.10348(10) 0.40803(6)
C11 C 0.61719(11) 1.26972(10) 0.50813(6)
C12 C 0.32494(16) 1.14128(13) 0.28985(8)
H7 H 0.2550 1.1086 0.2793
C13 C 0.67897(13) 1.04106(11) 0.43124(7)
H8 H 0.5874 1.0804 0.4310
C14 C 0.54812(14) 1.17778(11) 0.26293(7)
C15 C 0.71131(15) 0.92179(12) 0.45457(8)
H9 H 0.6415 0.8820 0.4701
C16 C 0.85429(18) 1.4701(2) 0.56261(11)
H10 H 0.8880 1.5318 0.5332
H11 H 0.9297 1.4050 0.5724
H12 H 0.8081 1.5011 0.6060
C17 C 0.44668(16) 1.12761(13) 0.24571(8)
H13 H 0.4600 1.0859 0.2056
C18 C 0.65121(17) 1.12722(15) 0.60632(8)
H14 H 0.5988 1.0793 0.5892
H15 H 0.5932 1.1789 0.6395
H16 H 0.7251 1.0764 0.6291
C19 C 0.73941(14) 1.23588(12) 0.25436(7)
C20 C 0.87774(18) 1.25538(18) 0.22546(9)
H17 H 0.9450 1.2082 0.2540
H18 H 0.8781 1.3381 0.2258
H19 H 0.8992 1.2324 0.1780
C21 C 0.84510(16) 0.86171(13) 0.45505(9)
H20 H 0.8666 0.7815 0.4710
C22 C 0.94696(16) 0.92096(15) 0.43177(10)
H21 H 1.0382 0.8805 0.4316
C23 C 0.91543(14) 1.04076(13) 0.40849(8)
H22 H 0.9860 1.0796 0.3929
C24 C 0.53693(18) 1.49162(13) 0.28171(8)
H23 H 0.5507 1.4744 0.2347
C25 C 0.43209(18) 1.57640(14) 0.29951(10)
H24 H 0.4134 1.5974 0.3458
H25 H 0.3757 1.6161 0.2659
O5 O 0.76639(11) 0.83112(10) -0.02505(5)
O6 O 0.59383(11) 0.99024(9) 0.09851(6)
O7 O 0.99014(11) 0.78071(11) -0.01344(6)
C26 C 0.73590(13) 0.68035(11) 0.11404(6)
O8 O 0.74729(13) 1.06620(10) 0.02495(7)
C27 C 0.78345(13) 0.78303(11) 0.13823(6)
H26 H 0.7009 0.8290 0.1641
C28 C 0.82959(13) 0.87649(11) 0.07987(7)
N2 N 0.88917(15) 0.61988(13) 0.29414(7)
C29 C 0.59607(15) 0.68911(14) 0.11933(8)
H27 H 0.5365 0.7555 0.1381
C30 C 0.89114(13) 0.75490(12) 0.19202(7)
C31 C 0.82163(17) 0.58062(14) 0.08619(9)
H28 H 0.9160 0.5731 0.0814
C32 C 0.93343(16) 0.87720(13) 0.18778(8)
H29 H 0.8561 0.9341 0.2104
C33 C 1.00451(16) 0.57561(13) 0.24583(8)
C34 C 0.94628(15) 0.91449(13) 0.10884(8)
H30 H 1.0346 0.8750 0.0861
H31 H 0.9370 1.0000 0.1007
C35 C 1.01188(13) 0.65032(12) 0.18377(7)
C36 C 0.82580(16) 0.71825(14) 0.26519(7)
C37 C 1.11935(14) 0.62021(13) 0.13164(9)
H32 H 1.1266 0.6692 0.0903
C38 C 0.70798(15) 0.98209(12) 0.07023(8)
C39 C 1.0566(2) 0.87387(16) 0.22440(11)
H33 H 1.0519 0.8459 0.2717
C40 C 1.1010(2) 0.47137(14) 0.25672(10)
H34 H 1.0941 0.4224 0.2981
C41 C 0.5431(2) 0.60160(18) 0.09736(11)
H35 H 0.4487 0.6100 0.1006
C42 C 0.6959(2) 0.7888(2) 0.30018(9)
H36 H 0.6216 0.7879 0.2741
H37 H 0.7038 0.8695 0.3016
H38 H 0.6786 0.7544 0.3474
C43 C 0.87467(14) 0.82453(11) 0.00872(7)
C44 C 0.7684(2) 0.49131(15) 0.06521(10)
H39 H 0.8273 0.4238 0.0474
C45 C 0.6294(2) 0.50244(17) 0.07076(10)
H40 H 0.5938 0.4428 0.0565
C46 C 0.7901(2) 0.7747(2) -0.09027(10)
H41 H 0.8448 0.8154 -0.1247
H42 H 0.7038 0.7781 -0.1070
H43 H 0.8373 0.6929 -0.0826
C47 C 1.21730(15) 0.51401(14) 0.14260(11)
H44 H 1.2898 0.4917 0.1078
C48 C 1.1680(2) 0.9053(2) 0.19770(14)
H45 H 1.1783 0.9339 0.1506
H46 H 1.2381 0.8994 0.2255
C49 C 1.20783(19) 0.44179(15) 0.20449(11)
H47 H 1.2747 0.3722 0.2109
C50 C 0.6417(3) 1.17098(19) 0.01170(17)
H48 H 0.6787 1.2254 -0.0224
H49 H 0.6083 1.2087 0.0548
H50 H 0.5677 1.1487 -0.0061
loop_
_geom_bond_atom_site_label_1
_geom_bond_atom_site_label_2
_geom_bond_site_symmetry_1
_geom_bond_site_symmetry_2
O1 C11 1_555 1_555
O2 C11 1_555 1_555
O3 C8 1_555 1_555
O4 C8 1_555 1_555
C1 H1 1_555 1_555
H2 C1 1_555 1_555
C2 C1 1_555 1_555
C3 C2 1_555 1_555
H3 C3 1_555 1_555
C4 C3 1_555 1_555
C5 H4 1_555 1_555
C6 C4 1_555 1_555
C7 C5 1_555 1_555
H5 C7 1_555 1_555
C8 C2 1_555 1_555
C9 C1 1_555 1_555
H6 C9 1_555 1_555
N1 C14 1_555 1_555
C10 C3 1_555 1_555
C11 C2 1_555 1_555
C12 C7 1_555 1_555
H7 C12 1_555 1_555
C13 C10 1_555 1_555
H8 C13 1_555 1_555
C14 C6 1_555 1_555
C15 C13 1_555 1_555
H9 C15 1_555 1_555
C16 O3 1_555 1_555
H10 C16 1_555 1_555
H11 C16 1_555 1_555
H12 C16 1_555 1_555
C17 C12 1_555 1_555
H13 C17 1_555 1_555
C18 O1 1_555 1_555
H14 C18 1_555 1_555
H15 C18 1_555 1_555
H16 C18 1_555 1_555
C19 C4 1_555 1_555
C20 C19 1_555 1_555
H17 C20 1_555 1_555
H18 C20 1_555 1_555
H19 C20 1_555 1_555
C21 C15 1_555 1_555
H20 C21 1_555 1_555
C22 C21 1_555 1_555
H21 C22 1_555 1_555
C23 C10 1_555 1_555
H22 C23 1_555 1_555
C24 C9 1_555 1_555
H23 C24 1_555 1_555
C25 C24 1_555 1_555
H24 C25 1_555 1_555
H25 C25 1_555 1_555
O5 C43 1_555 1_555
O6 C38 1_555 1_555
O7 C43 1_555 1_555
C26 C27 1_555 1_555
O8 C38 1_555 1_555
C27 H26 1_555 1_555
C28 C27 1_555 1_555
N2 C33 1_555 1_555
C29 C26 1_555 1_555
H27 C29 1_555 1_555
C30 C27 1_555 1_555
C31 C26 1_555 1_555
H28 C31 1_555 1_555
C32 C30 1_555 1_555
H29 C32 1_555 1_555
C33 C35 1_555 1_555
C34 C28 1_555 1_555
H30 C34 1_555 1_555
H31 C34 1_555 1_555
C35 C30 1_555 1_555
C36 N2 1_555 1_555
C37 C35 1_555 1_555
H32 C37 1_555 1_555
C38 C28 1_555 1_555
C39 C32 1_555 1_555
H33 C39 1_555 1_555
C40 C33 1_555 1_555
H34 C40 1_555 1_555
C41 C29 1_555 1_555
H35 C41 1_555 1_555
C42 C36 1_555 1_555
H36 C42 1_555 1_555
H37 C42 1_555 1_555
H38 C42 1_555 1_555
C43 C28 1_555 1_555
C44 C31 1_555 1_555
H39 C44 1_555 1_555
C45 C41 1_555 1_555
H40 C45 1_555 1_555
C46 O5 1_555 1_555
H41 C46 1_555 1_555
H42 C46 1_555 1_555
H43 C46 1_555 1_555
C47 C37 1_555 1_555
H44 C47 1_555 1_555
C48 C39 1_555 1_555
H45 C48 1_555 1_555
H46 C48 1_555 1_555
C49 C40 1_555 1_555
H47 C49 1_555 1_555
C50 O8 1_555 1_555
H48 C50 1_555 1_555
H49 C50 1_555 1_555
H50 C50 1_555 1_555
C4 C9 1_555 1_555
C5 C6 1_555 1_555
N1 C19 1_555 1_555
C14 C17 1_555 1_555
C22 C23 1_555 1_555
C30 C36 1_555 1_555
C32 C34 1_555 1_555
C44 C45 1_555 1_555
C47 C49 1_555 1_555

#END
