
#######################################################################
#
#                 Cambridge Crystallographic Data Centre
#                                CCDC 
#
#######################################################################
#
# If this CIF has been generated from an entry in the Cambridge 
# Structural Database, then it will include bibliographic, chemical, 
# crystal, experimental, refinement or atomic coordinate data resulting 
# from the CCDC's data processing and validation procedures.
#
#######################################################################

data_DOYQUF
_chemical_formula_moiety         'C24 H23 N1 O4'
_chemical_name_systematic        
"Dimethyl 2-phenyl-5-vinyl-3H-spiro[cyclopentane-1,3'-indole]-3,3-dicarboxylate"
_symmetry_cell_setting           monoclinic
_symmetry_space_group_name_H-M   'P 21/c'
_symmetry_Int_Tables_number      14
_space_group_name_Hall           '-P 2ybc'
loop_
_symmetry_equiv_pos_site_id
_symmetry_equiv_pos_as_xyz
1 x,y,z
2 -x,1/2+y,1/2-z
3 -x,-y,-z
4 x,1/2-y,1/2+z
_cell_length_a                   9.62570(10)
_cell_length_b                   24.6776(2)
_cell_length_c                   9.19830(10)
_cell_angle_alpha                90
_cell_angle_beta                 108.9360(10)
_cell_angle_gamma                90
_cell_volume                     2066.71
_cell_formula_units_Z            4
loop_
_atom_site_label
_atom_site_type_symbol
_atom_site_fract_x
_atom_site_fract_y
_atom_site_fract_z
O1 O -0.21325(10) -0.05745(4) 0.74073(11)
O2 O -0.00728(12) -0.00878(4) 0.78591(11)
O3 O -0.23351(11) -0.06492(4) 0.41691(11)
O4 O -0.21455(12) -0.15313(4) 0.46845(12)
N1 N 0.39399(13) -0.12020(6) 0.99493(14)
C1 C -0.03812(12) -0.09087(4) 0.63436(12)
C2 C 0.19782(13) -0.13713(5) 0.76534(13)
C3 C 0.03068(12) -0.14094(4) 0.73872(12)
H1 H -0.0025 -0.1726 0.6723
C4 C -0.17284(13) -0.10787(5) 0.50039(13)
C5 C 0.19834(13) -0.11673(5) 0.60597(14)
H2 H 0.1596 -0.1459 0.5315
C6 C 0.27993(14) -0.18880(5) 0.82276(15)
C7 C 0.08435(13) -0.07135(5) 0.57035(14)
H3 H 0.0445 -0.0652 0.4604
H4 H 0.1280 -0.0379 0.6199
C8 C 0.02793(16) -0.12078(6) 1.01067(15)
H5 H 0.0892 -0.0912 1.0165
C9 C -0.01579(13) -0.15192(5) 0.87803(13)
C10 C -0.08251(14) -0.04670(5) 0.72706(13)
C11 C 0.25958(17) -0.24111(6) 0.76706(19)
H6 H 0.1837 -0.2497 0.6776
C12 C 0.39282(15) -0.17641(7) 0.95726(17)
C13 C 0.28590(14) -0.09896(6) 0.89066(14)
H7 H 0.2626 -0.0624 0.8915
C14 C 0.34785(16) -0.10197(6) 0.60020(17)
H8 H 0.4235 -0.1261 0.6469
C15 C -0.35589(17) -0.07539(7) 0.27830(17)
H9 H -0.3227 -0.0966 0.2084
H10 H -0.3951 -0.0416 0.2306
H11 H -0.4309 -0.0949 0.3041
C16 C 0.38306(19) -0.05962(7) 0.5377(2)
H12 H 0.3117 -0.0342 0.4894
H13 H 0.4798 -0.0545 0.5410
C17 C 0.3567(2) -0.28075(7) 0.8496(3)
H14 H 0.3455 -0.3163 0.8144
C18 C -0.0183(2) -0.13310(7) 1.13454(17)
H15 H 0.0120 -0.1116 1.2223
C19 C 0.48902(18) -0.21585(9) 1.0392(2)
H16 H 0.5643 -0.2075 1.1293
C20 C -0.10599(17) -0.19570(6) 0.87578(18)
H17 H -0.1374 -0.2174 0.7885
C21 C -0.1076(2) -0.17630(7) 1.1292(2)
H18 H -0.1391 -0.1842 1.2123
C22 C -0.2577(2) -0.02361(8) 0.8467(2)
H19 H -0.2739 0.0127 0.8075
H20 H -0.1818 -0.0236 0.9449
H21 H -0.3467 -0.0376 0.8578
C23 C 0.4690(2) -0.26808(9) 0.9820(3)
H22 H 0.5327 -0.2953 1.0341
C24 C -0.1506(2) -0.20793(7) 1.0007(2)
H23 H -0.2102 -0.2379 0.9970
loop_
_geom_bond_atom_site_label_1
_geom_bond_atom_site_label_2
_geom_bond_site_symmetry_1
_geom_bond_site_symmetry_2
O1 C10 1_555 1_555
O2 C10 1_555 1_555
O3 C4 1_555 1_555
O4 C4 1_555 1_555
N1 C12 1_555 1_555
C1 C3 1_555 1_555
C2 C3 1_555 1_555
C3 H1 1_555 1_555
C4 C1 1_555 1_555
C5 C2 1_555 1_555
H2 C5 1_555 1_555
C6 C2 1_555 1_555
C7 C1 1_555 1_555
H3 C7 1_555 1_555
H4 C7 1_555 1_555
C8 H5 1_555 1_555
C9 C3 1_555 1_555
C10 C1 1_555 1_555
C11 C6 1_555 1_555
H6 C11 1_555 1_555
C12 C6 1_555 1_555
C13 N1 1_555 1_555
H7 C13 1_555 1_555
C14 C5 1_555 1_555
H8 C14 1_555 1_555
C15 O3 1_555 1_555
H9 C15 1_555 1_555
H10 C15 1_555 1_555
H11 C15 1_555 1_555
C16 C14 1_555 1_555
H12 C16 1_555 1_555
H13 C16 1_555 1_555
C17 C11 1_555 1_555
H14 C17 1_555 1_555
C18 C8 1_555 1_555
H15 C18 1_555 1_555
C19 C12 1_555 1_555
H16 C19 1_555 1_555
C20 C9 1_555 1_555
H17 C20 1_555 1_555
C21 C18 1_555 1_555
H18 C21 1_555 1_555
C22 O1 1_555 1_555
H19 C22 1_555 1_555
H20 C22 1_555 1_555
H21 C22 1_555 1_555
C23 C17 1_555 1_555
H22 C23 1_555 1_555
C24 C20 1_555 1_555
H23 C24 1_555 1_555
C2 C13 1_555 1_555
C5 C7 1_555 1_555
C8 C9 1_555 1_555
C19 C23 1_555 1_555
C21 C24 1_555 1_555

#END
