
#######################################################################
#
#                 Cambridge Crystallographic Data Centre
#                                CCDC 
#
#######################################################################
#
# If this CIF has been generated from an entry in the Cambridge 
# Structural Database, then it will include bibliographic, chemical, 
# crystal, experimental, refinement or atomic coordinate data resulting 
# from the CCDC's data processing and validation procedures.
#
#######################################################################

data_DOYRIU
_chemical_formula_moiety         'C18 H19 N1 O4'
_chemical_name_systematic        
2-Methoxy-2,6,8,9-tetrahydro-1H-[1,3]dioxolo[4,5-g]indolo[7a,1-a]isoquinolin-9-ol
_symmetry_cell_setting           monoclinic
_symmetry_space_group_name_H-M   'C 2'
_symmetry_Int_Tables_number      5
_space_group_name_Hall           'C 2y'
loop_
_symmetry_equiv_pos_site_id
_symmetry_equiv_pos_as_xyz
1 x,y,z
2 -x,y,-z
3 1/2+x,1/2+y,z
4 1/2-x,1/2+y,-z
_cell_length_a                   19.1884(7)
_cell_length_b                   9.1223(3)
_cell_length_c                   8.7982(3)
_cell_angle_alpha                90
_cell_angle_beta                 90.5400(10)
_cell_angle_gamma                90
_cell_volume                     1539.99
_exptl_crystal_colour            colorless
_exptl_crystal_description       block
_cell_formula_units_Z            4
loop_
_atom_site_label
_atom_site_type_symbol
_atom_site_fract_x
_atom_site_fract_y
_atom_site_fract_z
O1 O 0.21598(8) 0.41086(18) 0.57991(16)
O2 O -0.03319(8) -0.15697(18) 0.2543(2)
O3 O -0.07510(7) 0.06135(17) 0.3496(2)
O4 O 0.19339(8) -0.05671(19) -0.0141(2)
H1 H 0.2349 -0.0772 -0.0189
C1 C 0.09147(8) 0.20547(18) 0.20817(18)
C2 C 0.26362(13) 0.2956(3) 0.6080(3)
H2 H 0.2386 0.2053 0.6197
H3 H 0.2897 0.3159 0.6993
H4 H 0.2950 0.2873 0.5241
C3 C 0.16379(9) 0.3731(2) 0.4701(2)
H5 H 0.1401 0.2837 0.5034
C4 C 0.19512(8) 0.3459(2) 0.31419(19)
H6 H 0.2203 0.2537 0.3154
H7 H 0.2280 0.4234 0.2913
C5 C 0.13812(8) 0.34105(19) 0.18963(19)
C6 C 0.02595(9) 0.21197(19) 0.2779(2)
H8 H 0.0081 0.2994 0.3156
C7 C -0.01024(8) 0.0831(2) 0.2876(2)
C8 C 0.01452(10) -0.0463(2) 0.2315(3)
C9 C 0.11234(11) 0.4967(2) 0.4682(3)
H9 H 0.1007 0.5401 0.5602
C10 C 0.08262(10) 0.5475(2) 0.3421(3)
H10 H 0.0510 0.6245 0.3480
C11 C 0.09863(9) 0.48444(19) 0.1942(2)
C12 C 0.08890(11) 0.5351(2) 0.0547(3)
H11 H 0.0646 0.6205 0.0311
C13 C 0.12191(12) 0.4372(3) -0.0597(3)
H12 H 0.0873 0.3777 -0.1120
H13 H 0.1478 0.4933 -0.1339
N1 N 0.16896(8) 0.3456(2) 0.03432(17)
C14 C 0.11633(8) 0.0737(2) 0.1516(2)
C15 C 0.07797(10) -0.0560(2) 0.1624(3)
H14 H 0.0947 -0.1444 0.1247
C16 C -0.08879(12) -0.0893(3) 0.3348(3)
H15 H -0.1324 -0.1038 0.2801
H16 H -0.0930 -0.1334 0.4346
C17 C 0.18511(9) 0.0743(2) 0.0700(2)
H17 H 0.2234 0.0846 0.1437
C18 C 0.18484(13) 0.2032(3) -0.0380(3)
H18 H 0.2302 0.2097 -0.0855
H19 H 0.1507 0.1850 -0.1178
loop_
_geom_bond_atom_site_label_1
_geom_bond_atom_site_label_2
_geom_bond_site_symmetry_1
_geom_bond_site_symmetry_2
O1 C2 1_555 1_555
O2 C8 1_555 1_555
O3 C7 1_555 1_555
O4 H1 1_555 1_555
C1 C5 1_555 1_555
C2 H2 1_555 1_555
H3 C2 1_555 1_555
H4 C2 1_555 1_555
C3 O1 1_555 1_555
H5 C3 1_555 1_555
C4 C3 1_555 1_555
H6 C4 1_555 1_555
H7 C4 1_555 1_555
C5 C4 1_555 1_555
C6 C1 1_555 1_555
H8 C6 1_555 1_555
C7 C6 1_555 1_555
C8 C7 1_555 1_555
C9 C3 1_555 1_555
H9 C9 1_555 1_555
C10 C9 1_555 1_555
H10 C10 1_555 1_555
C11 C5 1_555 1_555
C12 C11 1_555 1_555
H11 C12 1_555 1_555
C13 C12 1_555 1_555
H12 C13 1_555 1_555
H13 C13 1_555 1_555
N1 C5 1_555 1_555
C14 C1 1_555 1_555
C15 C8 1_555 1_555
H14 C15 1_555 1_555
C16 O2 1_555 1_555
H15 C16 1_555 1_555
H16 C16 1_555 1_555
C17 O4 1_555 1_555
H17 C17 1_555 1_555
C18 N1 1_555 1_555
H18 C18 1_555 1_555
H19 C18 1_555 1_555
O3 C16 1_555 1_555
C10 C11 1_555 1_555
C13 N1 1_555 1_555
C14 C15 1_555 1_555
C14 C17 1_555 1_555
C17 C18 1_555 1_555

#END
