
#######################################################################
#
#                 Cambridge Crystallographic Data Centre
#                                CCDC 
#
#######################################################################
#
# If this CIF has been generated from an entry in the Cambridge 
# Structural Database, then it will include bibliographic, chemical, 
# crystal, experimental, refinement or atomic coordinate data resulting 
# from the CCDC's data processing and validation procedures.
#
#######################################################################

data_DOZJOT
_chemical_formula_moiety         'C42 H60 O3 P2'
_chemical_name_systematic        
1,3-bis((2-isopropyl-5-methylcyclohexyl)(phenyl)phosphoryl)-3-(4-methylphenyl)propan-1-ol
_symmetry_cell_setting           monoclinic
_symmetry_space_group_name_H-M   'P 21'
_symmetry_Int_Tables_number      4
_space_group_name_Hall           'P 2yb'
loop_
_symmetry_equiv_pos_site_id
_symmetry_equiv_pos_as_xyz
1 x,y,z
2 -x,1/2+y,-z
_cell_length_a                   12.9832(11)
_cell_length_b                   6.1872(6)
_cell_length_c                   25.679(3)
_cell_angle_alpha                90
_cell_angle_beta                 101.453(2)
_cell_angle_gamma                90
_cell_volume                     2021.71
_exptl_crystal_colour            colorless
_exptl_crystal_description       block
_cell_formula_units_Z            2
loop_
_atom_site_label
_atom_site_type_symbol
_atom_site_fract_x
_atom_site_fract_y
_atom_site_fract_z
P1 P 0.19950(10) 0.6873(2) 0.81234(5)
P2 P 0.35106(10) 1.0718(2) 0.65093(5)
O1 O 0.2539(2) 0.4996(5) 0.79378(12)
O2 O 0.1959(3) 1.1081(6) 0.80592(18)
H1 H 0.2224 1.2226 0.7993
C1 C 0.3484(3) 1.0936(9) 0.72238(15)
H2 H 0.3237 1.2388 0.7289
C2 C 0.2564(4) 0.9340(8) 0.79289(19)
H3 H 0.3270 0.9475 0.8149
C3 C 0.2105(3) 0.6948(9) 0.88397(16)
H4 H 0.1916 0.5501 0.8944
C4 C 0.4554(4) 1.0613(10) 0.75802(18)
C5 C 0.4804(4) 1.1627(9) 0.64686(17)
C6 C 0.0561(5) 1.0090(12) 0.9754(2)
H5 H 0.0697 1.1485 0.9618
H6 H 0.0646 1.0164 1.0133
H7 H -0.0145 0.9657 0.9602
C7 C 0.1334(4) 0.8438(10) 0.9607(2)
H8 H 0.1114 0.6992 0.9696
O3 O 0.3317(3) 0.8448(6) 0.63216(12)
C8 C 0.5509(4) 1.0179(9) 0.63278(19)
H9 H 0.5294 0.8770 0.6238
C9 C 0.0600(4) 0.6802(10) 0.78616(19)
C10 C 0.2685(3) 0.9294(9) 0.73555(17)
H10 H 0.2006 0.9577 0.7130
H11 H 0.2901 0.7854 0.7273
C11 C 0.3228(4) 0.7395(8) 0.91568(18)
H12 H 0.3393 0.8897 0.9084
C12 C 0.2602(4) 1.2739(8) 0.61597(16)
H13 H 0.2949 1.4151 0.6213
C13 C 0.4106(4) 0.5992(9) 0.90104(18)
H14 H 0.4041 0.6108 0.8625
C14 C 0.6171(4) 1.4347(11) 0.6579(2)
H15 H 0.6386 1.5762 0.6660
C15 C 0.3237(4) 1.2052(11) 0.52780(19)
H16 H 0.3739 1.1086 0.5500
C16 C 0.6024(5) 0.8330(11) 0.7942(2)
H17 H 0.6344 0.6982 0.7951
C17 C 0.1321(4) 0.8509(10) 0.90121(19)
H18 H 0.1481 0.9968 0.8915
H19 H 0.0619 0.8159 0.8821
C18 C 0.6858(5) 1.2841(14) 0.6446(3)
H20 H 0.7549 1.3232 0.6445
C19 C 0.1587(4) 1.2863(9) 0.63839(18)
H21 H 0.1246 1.1461 0.6343
H22 H 0.1773 1.3177 0.6761
C20 C 0.0082(5) 0.4919(11) 0.7937(2)
H23 H 0.0458 0.3756 0.8108
C21 C 0.6516(5) 0.9959(13) 0.8261(2)
C22 C 0.3211(4) 0.7258(11) 0.97513(18)
H24 H 0.3026 0.5798 0.9835
H25 H 0.3909 0.7559 0.9954
C23 C 0.0810(4) 1.4567(12) 0.6116(2)
H26 H 0.1151 1.5986 0.6168
C24 C 0.5154(4) 1.3707(10) 0.65892(19)
H27 H 0.4690 1.4717 0.6681
C25 C 0.6008(4) 1.1902(12) 0.8225(2)
H28 H 0.6319 1.3040 0.8436
C26 C 0.0545(4) 1.4090(14) 0.5527(2)
H29 H 0.0078 1.5202 0.5349
H30 H 0.0181 1.2716 0.5469
C27 C 0.6530(5) 1.0787(13) 0.6318(2)
H31 H 0.6995 0.9786 0.6224
C28 C 0.2301(4) 1.2316(10) 0.55550(17)
H32 H 0.1924 1.0936 0.5512
C29 C 0.0025(5) 0.8498(12) 0.7604(2)
H33 H 0.0362 0.9781 0.7549
C30 C 0.2431(4) 0.8841(12) 0.99188(19)
H34 H 0.2440 0.8674 1.0295
H35 H 0.2640 1.0311 0.9859
C31 C 0.5065(4) 0.8654(10) 0.76097(19)
H36 H 0.4753 0.7516 0.7399
C32 C 0.1530(4) 1.4007(12) 0.5291(2)
H37 H 0.1332 1.3692 0.4915
H38 H 0.1868 1.5412 0.5330
C33 C 0.5052(4) 1.2248(10) 0.7890(2)
H39 H 0.4742 1.3607 0.7875
C34 C -0.1539(7) 0.643(2) 0.7502(4)
H40 H -0.2258 0.6297 0.7375
C35 C -0.0173(4) 1.4614(16) 0.6360(2)
H41 H -0.0618 1.5787 0.6209
H42 H 0.0028 1.4810 0.6737
H43 H -0.0547 1.3274 0.6287
C36 C -0.0986(7) 0.4745(17) 0.7762(3)
H44 H -0.1331 0.3478 0.7821
C37 C 0.7555(4) 0.9613(13) 0.8641(2)
H45 H 0.7632 0.8111 0.8734
H46 H 0.7570 1.0458 0.8956
H47 H 0.8120 1.0050 0.8474
C38 C 0.2917(4) 1.0971(12) 0.47369(19)
H48 H 0.2625 0.9573 0.4780
H49 H 0.3523 1.0814 0.4578
H50 H 0.2401 1.1846 0.4512
C39 C -0.1049(6) 0.8308(18) 0.7427(3)
H51 H -0.1434 0.9463 0.7256
C40 C 0.3812(4) 1.4165(14) 0.5227(2)
H52 H 0.3384 1.5066 0.4966
H53 H 0.4465 1.3863 0.5120
H54 H 0.3949 1.4896 0.5564
C41 C 0.4028(4) 0.3615(9) 0.9133(2)
H55 H 0.4095 0.3425 0.9510
H56 H 0.4580 0.2842 0.9015
H57 H 0.3360 0.3070 0.8954
C42 C 0.5200(4) 0.6877(11) 0.9262(2)
H58 H 0.5322 0.6683 0.9640
H59 H 0.5233 0.8388 0.9182
H60 H 0.5727 0.6113 0.9121
loop_
_geom_bond_atom_site_label_1
_geom_bond_atom_site_label_2
_geom_bond_site_symmetry_1
_geom_bond_site_symmetry_2
P1 O1 1_555 1_555
P2 C1 1_555 1_555
O2 H1 1_555 1_555
C1 H2 1_555 1_555
C2 P1 1_555 1_555
H3 C2 1_555 1_555
C3 P1 1_555 1_555
H4 C3 1_555 1_555
C4 C1 1_555 1_555
C5 P2 1_555 1_555
C6 H5 1_555 1_555
H6 C6 1_555 1_555
H7 C6 1_555 1_555
C7 C6 1_555 1_555
H8 C7 1_555 1_555
O3 P2 1_555 1_555
C8 C5 1_555 1_555
H9 C8 1_555 1_555
C9 P1 1_555 1_555
C10 C1 1_555 1_555
H10 C10 1_555 1_555
H11 C10 1_555 1_555
C11 C3 1_555 1_555
H12 C11 1_555 1_555
C12 P2 1_555 1_555
H13 C12 1_555 1_555
C13 C11 1_555 1_555
H14 C13 1_555 1_555
C14 H15 1_555 1_555
C15 H16 1_555 1_555
C16 H17 1_555 1_555
C17 C3 1_555 1_555
H18 C17 1_555 1_555
H19 C17 1_555 1_555
C18 C14 1_555 1_555
H20 C18 1_555 1_555
C19 C12 1_555 1_555
H21 C19 1_555 1_555
H22 C19 1_555 1_555
C20 C9 1_555 1_555
H23 C20 1_555 1_555
C21 C16 1_555 1_555
C22 C11 1_555 1_555
H24 C22 1_555 1_555
H25 C22 1_555 1_555
C23 C19 1_555 1_555
H26 C23 1_555 1_555
C24 C5 1_555 1_555
H27 C24 1_555 1_555
C25 C21 1_555 1_555
H28 C25 1_555 1_555
C26 C23 1_555 1_555
H29 C26 1_555 1_555
H30 C26 1_555 1_555
C27 C8 1_555 1_555
H31 C27 1_555 1_555
C28 C12 1_555 1_555
H32 C28 1_555 1_555
C29 C9 1_555 1_555
H33 C29 1_555 1_555
C30 C7 1_555 1_555
H34 C30 1_555 1_555
H35 C30 1_555 1_555
C31 C4 1_555 1_555
H36 C31 1_555 1_555
C32 C26 1_555 1_555
H37 C32 1_555 1_555
H38 C32 1_555 1_555
C33 C4 1_555 1_555
H39 C33 1_555 1_555
C34 H40 1_555 1_555
C35 C23 1_555 1_555
H41 C35 1_555 1_555
H42 C35 1_555 1_555
H43 C35 1_555 1_555
C36 C20 1_555 1_555
H44 C36 1_555 1_555
C37 C21 1_555 1_555
H45 C37 1_555 1_555
H46 C37 1_555 1_555
H47 C37 1_555 1_555
C38 C15 1_555 1_555
H48 C38 1_555 1_555
H49 C38 1_555 1_555
H50 C38 1_555 1_555
C39 C29 1_555 1_555
H51 C39 1_555 1_555
C40 C15 1_555 1_555
H52 C40 1_555 1_555
H53 C40 1_555 1_555
H54 C40 1_555 1_555
C41 C13 1_555 1_555
H55 C41 1_555 1_555
H56 C41 1_555 1_555
H57 C41 1_555 1_555
C42 C13 1_555 1_555
H58 C42 1_555 1_555
H59 C42 1_555 1_555
H60 C42 1_555 1_555
O2 C2 1_555 1_555
C2 C10 1_555 1_555
C7 C17 1_555 1_555
C14 C24 1_555 1_555
C15 C28 1_555 1_555
C16 C31 1_555 1_555
C18 C27 1_555 1_555
C22 C30 1_555 1_555
C25 C33 1_555 1_555
C28 C32 1_555 1_555
C34 C36 1_555 1_555
C34 C39 1_555 1_555

#END
