
#######################################################################
#
#                 Cambridge Crystallographic Data Centre
#                                CCDC 
#
#######################################################################
#
# If this CIF has been generated from an entry in the Cambridge 
# Structural Database, then it will include bibliographic, chemical, 
# crystal, experimental, refinement or atomic coordinate data resulting 
# from the CCDC's data processing and validation procedures.
#
#######################################################################

data_DOZKUA
_chemical_formula_moiety         'C22 H19 N5 O2'
_chemical_name_systematic        
'ethyl 4,4-dicyano-3-phenyl-1,3,4,11b-tetrahydro-2H-pyrazino[2,1-a]phthalazine-1-carboxylate'
_symmetry_cell_setting           orthorhombic
_symmetry_space_group_name_H-M   'P 21 21 21'
_symmetry_Int_Tables_number      19
_space_group_name_Hall           'P 2ac 2ab'
loop_
_symmetry_equiv_pos_site_id
_symmetry_equiv_pos_as_xyz
1 x,y,z
2 1/2-x,-y,1/2+z
3 -x,1/2+y,1/2-z
4 1/2+x,1/2-y,-z
_cell_length_a                   8.5210(6)
_cell_length_b                   12.1957(13)
_cell_length_c                   19.0720(18)
_cell_angle_alpha                90
_cell_angle_beta                 90
_cell_angle_gamma                90
_cell_volume                     1981.95
_exptl_crystal_colour            colorless
_exptl_crystal_description       block
_cell_formula_units_Z            4
_exptl_crystal_recrystallization_method 'dichloromethane/ methanol'
loop_
_atom_site_label
_atom_site_type_symbol
_atom_site_fract_x
_atom_site_fract_y
_atom_site_fract_z
O1 O 0.95491(19) -0.06562(12) 0.92579(7)
O2 O 0.9733(2) 0.11776(12) 0.92909(8)
N1 N 0.6971(2) -0.14226(17) 0.68919(10)
N2 N 0.7673(2) -0.04920(15) 0.72045(8)
N3 N 1.02116(19) 0.05953(13) 0.78276(8)
H1 H 1.0696 0.1162 0.8020
N4 N 0.8229(3) 0.0101(2) 0.55134(11)
N5 N 1.1039(3) -0.19268(16) 0.68982(12)
C1 C 0.7909(2) -0.05783(17) 0.79752(10)
H2 H 0.8538 -0.1251 0.8080
C2 C 0.6274(2) -0.07131(18) 0.82770(11)
C3 C 0.5766(3) -0.0250(2) 0.88967(13)
H3 H 0.6434 0.0232 0.9150
C4 C 0.4265(3) -0.0489(3) 0.91517(15)
H4 H 0.3919 -0.0171 0.9579
C5 C 0.3288(3) -0.1182(3) 0.87882(17)
H5 H 0.2272 -0.1343 0.8966
C6 C 0.3780(3) -0.1645(2) 0.81646(15)
H6 H 0.3101 -0.2121 0.7913
C7 C 0.5272(3) -0.1413(2) 0.79060(12)
C8 C 0.5833(3) -0.1839(2) 0.72416(13)
H7 H 0.5325 -0.2467 0.7054
C9 C 0.9104(2) -0.02516(17) 0.68068(10)
C10 C 0.9881(2) 0.08086(15) 0.70922(10)
H8 H 0.9118 0.1429 0.7056
C11 C 0.8784(2) 0.04209(16) 0.82448(10)
H9 H 0.8095 0.1084 0.8227
C12 C 0.8621(3) -0.0079(2) 0.60693(11)
C13 C 1.0230(3) -0.11913(16) 0.68429(11)
C14 C 1.1350(2) 0.10942(15) 0.66869(10)
C15 C 1.1249(3) 0.17952(17) 0.61109(10)
H10 H 1.0273 0.2123 0.5995
C16 C 1.2568(3) 0.20172(18) 0.57057(11)
H11 H 1.2493 0.2498 0.5315
C17 C 1.3984(3) 0.15390(19) 0.58723(12)
H12 H 1.4880 0.1674 0.5589
C18 C 1.4104(3) 0.08590(19) 0.64545(13)
H13 H 1.5088 0.0546 0.6575
C19 C 1.2794(2) 0.06366(17) 0.68593(12)
H14 H 1.2882 0.0170 0.7256
C20 C 0.9374(2) 0.02264(16) 0.89921(10)
C21 C 1.0433(3) 0.1119(2) 0.99913(11)
H15 H 1.1323 0.0597 0.9993
H16 H 0.9645 0.0868 1.0337
C22 C 1.0984(5) 0.2232(3) 1.01712(19)
H17 H 1.1488 0.2219 1.0633
H18 H 1.0089 0.2736 1.0182
H19 H 1.1742 0.2479 0.9818
loop_
_geom_bond_atom_site_label_1
_geom_bond_atom_site_label_2
_geom_bond_site_symmetry_1
_geom_bond_site_symmetry_2
O1 C20 1_555 1_555
O2 C20 1_555 1_555
N1 N2 1_555 1_555
N2 C1 1_555 1_555
N3 H1 1_555 1_555
N4 C12 1_555 1_555
N5 C13 1_555 1_555
C1 H2 1_555 1_555
C2 C1 1_555 1_555
C3 C2 1_555 1_555
H3 C3 1_555 1_555
C4 C3 1_555 1_555
H4 C4 1_555 1_555
C5 C4 1_555 1_555
H5 C5 1_555 1_555
C6 C5 1_555 1_555
H6 C6 1_555 1_555
C7 C2 1_555 1_555
C8 N1 1_555 1_555
H7 C8 1_555 1_555
C9 N2 1_555 1_555
C10 N3 1_555 1_555
H8 C10 1_555 1_555
C11 N3 1_555 1_555
H9 C11 1_555 1_555
C12 C9 1_555 1_555
C13 C9 1_555 1_555
C14 C10 1_555 1_555
C15 C14 1_555 1_555
H10 C15 1_555 1_555
C16 C15 1_555 1_555
H11 C16 1_555 1_555
C17 C16 1_555 1_555
H12 C17 1_555 1_555
C18 C17 1_555 1_555
H13 C18 1_555 1_555
C19 C14 1_555 1_555
H14 C19 1_555 1_555
C20 C11 1_555 1_555
C21 O2 1_555 1_555
H15 C21 1_555 1_555
H16 C21 1_555 1_555
C22 C21 1_555 1_555
H17 C22 1_555 1_555
H18 C22 1_555 1_555
H19 C22 1_555 1_555
C1 C11 1_555 1_555
C6 C7 1_555 1_555
C7 C8 1_555 1_555
C9 C10 1_555 1_555
C18 C19 1_555 1_555

#END
