
#######################################################################
#
#                 Cambridge Crystallographic Data Centre
#                                CCDC 
#
#######################################################################
#
# If this CIF has been generated from an entry in the Cambridge 
# Structural Database, then it will include bibliographic, chemical, 
# crystal, experimental, refinement or atomic coordinate data resulting 
# from the CCDC's data processing and validation procedures.
#
#######################################################################

data_DOZKUZ
_chemical_formula_moiety         'C15 H18 N2 O2'
_chemical_name_systematic        
'1-Methyl-3-(2-methylphenyl)-4-oxo-2,3-diazaspiro[4.4]non-1-ene 2-oxide'
_symmetry_cell_setting           orthorhombic
_symmetry_space_group_name_H-M   'P b c a'
_symmetry_Int_Tables_number      61
_space_group_name_Hall           '-P 2ac 2ab'
loop_
_symmetry_equiv_pos_site_id
_symmetry_equiv_pos_as_xyz
1 x,y,z
2 1/2-x,-y,1/2+z
3 1/2+x,1/2-y,-z
4 -x,1/2+y,1/2-z
5 -x,-y,-z
6 1/2+x,y,1/2-z
7 1/2-x,1/2+y,z
8 x,1/2-y,1/2+z
_cell_length_a                   11.725(3)
_cell_length_b                   13.381(3)
_cell_length_c                   17.617(4)
_cell_angle_alpha                90
_cell_angle_beta                 90
_cell_angle_gamma                90
_cell_volume                     2763.97
_exptl_crystal_colour            colorless
_exptl_crystal_description       block
_chemical_melting_point          145-147deg.C
_cell_formula_units_Z            8
loop_
_atom_site_label
_atom_site_type_symbol
_atom_site_fract_x
_atom_site_fract_y
_atom_site_fract_z
C1 C 0.1576(6) 0.3775(5) 0.6926(4)
H1 H 0.0990 0.3956 0.7281
H2 H 0.1875 0.3130 0.7056
H3 H 0.1261 0.3753 0.6423
C2 C 0.4081(4) 0.1995(3) 0.5766(2)
C3 C 0.2476(5) 0.4503(4) 0.6952(3)
C4 C 0.2379(5) 0.5357(4) 0.7413(3)
H4 H 0.1738 0.5450 0.7717
C5 C 0.3228(6) 0.6043(4) 0.7411(3)
H5 H 0.3172 0.6600 0.7725
C6 C 0.4148(5) 0.5939(4) 0.6967(3)
H6 H 0.4715 0.6425 0.6974
C7 C 0.4267(5) 0.5114(4) 0.6498(3)
H7 H 0.4902 0.5040 0.6186
C8 C 0.3419(5) 0.4411(4) 0.6507(3)
C9 C 0.3003(5) 0.3364(4) 0.5362(3)
C10 C 0.3377(4) 0.2330(3) 0.5115(2)
C11 C 0.2335(4) 0.1650(4) 0.4935(3)
H8 H 0.2376 0.1037 0.5228
H9 H 0.1630 0.1991 0.5061
C12 C 0.2380(6) 0.1427(5) 0.4112(3)
H10 H 0.2255 0.0720 0.4025
H11 H 0.1793 0.1799 0.3846
C13 C 0.3454(6) 0.1706(6) 0.3850(4)
H12 H 0.3374 0.2029 0.3360
H13 H 0.3914 0.1110 0.3779
C14 C 0.4027(5) 0.2361(4) 0.4351(3)
H14 H 0.4030 0.3035 0.4148
H15 H 0.4811 0.2147 0.4422
C15 C 0.4695(4) 0.1039(3) 0.5857(3)
H16 H 0.5079 0.1032 0.6338
H17 H 0.5244 0.0967 0.5457
H18 H 0.4160 0.0496 0.5836
N1 N 0.4138(3) 0.2679(2) 0.62766(19)
N2 N 0.3518(4) 0.3557(3) 0.6032(2)
O1 O 0.4631(3) 0.2718(2) 0.69108(17)
O2 O 0.2375(4) 0.3930(3) 0.5024(2)
loop_
_geom_bond_atom_site_label_1
_geom_bond_atom_site_label_2
_geom_bond_site_symmetry_1
_geom_bond_site_symmetry_2
C1 H1 1_555 1_555
H2 C1 1_555 1_555
H3 C1 1_555 1_555
C2 C10 1_555 1_555
C3 C1 1_555 1_555
C4 C3 1_555 1_555
H4 C4 1_555 1_555
C5 C4 1_555 1_555
H5 C5 1_555 1_555
C6 C5 1_555 1_555
H6 C6 1_555 1_555
C7 C6 1_555 1_555
H7 C7 1_555 1_555
C8 C3 1_555 1_555
C9 C10 1_555 1_555
C10 C11 1_555 1_555
C11 H8 1_555 1_555
H9 C11 1_555 1_555
C12 C11 1_555 1_555
H10 C12 1_555 1_555
H11 C12 1_555 1_555
C13 C12 1_555 1_555
H12 C13 1_555 1_555
H13 C13 1_555 1_555
C14 C10 1_555 1_555
H14 C14 1_555 1_555
H15 C14 1_555 1_555
C15 C2 1_555 1_555
H16 C15 1_555 1_555
H17 C15 1_555 1_555
H18 C15 1_555 1_555
N1 C2 1_555 1_555
N2 C8 1_555 1_555
O1 N1 1_555 1_555
O2 C9 1_555 1_555
C7 C8 1_555 1_555
C9 N2 1_555 1_555
C13 C14 1_555 1_555
N1 N2 1_555 1_555

#END
