
#######################################################################
#
#                 Cambridge Crystallographic Data Centre
#                                CCDC 
#
#######################################################################
#
# If this CIF has been generated from an entry in the Cambridge 
# Structural Database, then it will include bibliographic, chemical, 
# crystal, experimental, refinement or atomic coordinate data resulting 
# from the CCDC's data processing and validation procedures.
#
#######################################################################

data_DOZLIN02
_chemical_formula_moiety         'C11 H9 N1 O2'
_chemical_name_systematic        (Z)-4-benzylidene-2-methyloxazol-5(4H)-one
_symmetry_cell_setting           orthorhombic
_symmetry_space_group_name_H-M   'P b c a'
_symmetry_Int_Tables_number      61
_space_group_name_Hall           '-P 2ac 2ab'
loop_
_symmetry_equiv_pos_site_id
_symmetry_equiv_pos_as_xyz
1 x,y,z
2 1/2-x,-y,1/2+z
3 1/2+x,1/2-y,-z
4 -x,1/2+y,1/2-z
5 -x,-y,-z
6 1/2+x,y,1/2-z
7 1/2-x,1/2+y,z
8 x,1/2-y,1/2+z
_cell_length_a                   10.82841(14)
_cell_length_b                   7.84591(10)
_cell_length_c                   20.9791(3)
_cell_angle_alpha                90
_cell_angle_beta                 90
_cell_angle_gamma                90
_cell_volume                     1782.36
_exptl_crystal_colour            yellow
_exptl_crystal_description       block
_cell_formula_units_Z            8
_exptl_crystal_recrystallization_method dichloromethane/hexane
_exptl_crystal_preparation       ', Luminescent'
loop_
_atom_site_label
_atom_site_type_symbol
_atom_site_fract_x
_atom_site_fract_y
_atom_site_fract_z
O1 O 0.13344(6) 0.08235(9) 0.47063(3)
O2 O 0.30769(6) -0.02242(10) 0.51553(3)
N1 N 0.21052(7) 0.23605(11) 0.38828(4)
C1 C 0.11388(9) 0.18648(12) 0.41815(5)
C2 C 0.26058(10) 0.06336(13) 0.47484(5)
C3 C 0.31096(9) 0.16456(12) 0.42156(5)
C4 C 0.43281(9) 0.18207(12) 0.41059(5)
H1 H 0.4856 0.1230 0.4393
C5 C 0.49487(9) 0.27905(13) 0.36082(5)
C6 C 0.62465(9) 0.27600(13) 0.35889(5)
H2 H 0.6691 0.2117 0.3896
C7 C 0.68814(10) 0.36614(14) 0.31249(5)
H3 H 0.7758 0.3617 0.3113
C8 C 0.62468(10) 0.46294(14) 0.26774(5)
H4 H 0.6686 0.5254 0.2363
C9 C 0.49619(10) 0.46773(13) 0.26936(5)
H5 H 0.4525 0.5342 0.2389
C10 C 0.43146(9) 0.37632(13) 0.31501(5)
H6 H 0.3438 0.3794 0.3153
C11 C -0.01625(9) 0.22871(14) 0.40441(5)
H7 H -0.0649 0.1235 0.4021
H8 H -0.0214 0.2890 0.3636
H9 H -0.0489 0.3016 0.4384
loop_
_geom_bond_atom_site_label_1
_geom_bond_atom_site_label_2
_geom_bond_site_symmetry_1
_geom_bond_site_symmetry_2
O1 C1 1_555 1_555
O2 C2 1_555 1_555
N1 C1 1_555 1_555
C1 C11 1_555 1_555
C2 O1 1_555 1_555
C3 N1 1_555 1_555
C4 C3 1_555 1_555
H1 C4 1_555 1_555
C5 C4 1_555 1_555
C6 C5 1_555 1_555
H2 C6 1_555 1_555
C7 C6 1_555 1_555
H3 C7 1_555 1_555
C8 C7 1_555 1_555
H4 C8 1_555 1_555
C9 C8 1_555 1_555
H5 C9 1_555 1_555
C10 C5 1_555 1_555
H6 C10 1_555 1_555
C11 H7 1_555 1_555
H8 C11 1_555 1_555
H9 C11 1_555 1_555
C2 C3 1_555 1_555
C9 C10 1_555 1_555

#END
