
#######################################################################
#
#                 Cambridge Crystallographic Data Centre
#                                CCDC 
#
#######################################################################
#
# If this CIF has been generated from an entry in the Cambridge 
# Structural Database, then it will include bibliographic, chemical, 
# crystal, experimental, refinement or atomic coordinate data resulting 
# from the CCDC's data processing and validation procedures.
#
#######################################################################

data_DOZNEN
_chemical_formula_moiety         'C19 H14 Br1 N3 S1'
_chemical_name_systematic        
'2-amino-4-(4-bromophenyl)-9-methyl-4,9-dihydrothiopyrano[2,3-b]indole-3-carbonitrile unknown solvate'
_symmetry_cell_setting           monoclinic
_symmetry_space_group_name_H-M   'C 2'
_symmetry_Int_Tables_number      5
_space_group_name_Hall           'C 2y'
loop_
_symmetry_equiv_pos_site_id
_symmetry_equiv_pos_as_xyz
1 x,y,z
2 -x,y,-z
3 1/2+x,1/2+y,z
4 1/2-x,1/2+y,-z
_cell_length_a                   15.462(2)
_cell_length_b                   10.2505(15)
_cell_length_c                   12.0023(18)
_cell_angle_alpha                90
_cell_angle_beta                 97.974(3)
_cell_angle_gamma                90
_cell_volume                     1883.89
_exptl_crystal_colour            colorless
_exptl_crystal_description       prismatic
_cell_formula_units_Z            4
loop_
_atom_site_label
_atom_site_type_symbol
_atom_site_fract_x
_atom_site_fract_y
_atom_site_fract_z
Br1 Br 0.18570(7) 1.02033(11) 0.64037(7)
S1 S 0.16883(9) 0.57411(12) 0.09740(13)
N1 N 0.2356(4) 0.7723(6) 0.0082(5)
H1 H 0.2420 0.8516 -0.0125
H2 H 0.2716 0.7132 -0.0073
N2 N 0.0275(4) 0.4443(5) 0.1536(4)
N3 N 0.1257(4) 1.0595(5) 0.0161(6)
C1 C 0.1692(3) 0.7405(5) 0.0648(4)
C2 C 0.1096(4) 0.8293(5) 0.0923(4)
C3 C 0.0406(3) 0.8035(5) 0.1694(4)
H3 H -0.0119 0.8527 0.1395
C4 C 0.0164(3) 0.6615(6) 0.1671(5)
C5 C 0.0648(4) 0.5628(5) 0.1421(4)
C6 C -0.0501(4) 0.4678(6) 0.1928(6)
C7 C -0.0599(3) 0.6060(7) 0.2015(4)
C8 C -0.1359(4) 0.6549(9) 0.2402(6)
H4 H -0.1446 0.7440 0.2480
C9 C -0.1964(4) 0.5652(11) 0.2658(7)
H5 H -0.2476 0.5951 0.2898
C10 C -0.1839(5) 0.4318(9) 0.2572(7)
H6 H -0.2269 0.3759 0.2760
C11 C -0.1120(5) 0.3796(9) 0.2228(7)
H7 H -0.1040 0.2898 0.2193
C12 C 0.1188(4) 0.9571(6) 0.0536(5)
C13 C 0.0666(7) 0.3206(6) 0.1412(8)
H8 H 0.0963 0.3217 0.0761
H9 H 0.0222 0.2545 0.1324
H10 H 0.1078 0.3021 0.2068
C14 C 0.0716(3) 0.8546(5) 0.2874(5)
C15 C 0.1193(4) 0.7789(6) 0.3660(5)
H11 H 0.1295 0.6921 0.3492
C16 C 0.1533(5) 0.8280(8) 0.4711(6)
H12 H 0.1869 0.7756 0.5236
C17 C 0.1365(5) 0.9532(8) 0.4953(6)
C18 C 0.0874(5) 1.0326(8) 0.4233(7)
H13 H 0.0748 1.1172 0.4441
C19 C 0.0559(5) 0.9850(6) 0.3166(7)
H14 H 0.0241 1.0396 0.2642
loop_
_geom_bond_atom_site_label_1
_geom_bond_atom_site_label_2
_geom_bond_site_symmetry_1
_geom_bond_site_symmetry_2
Br1 C17 1_555 1_555
S1 C1 1_555 1_555
N1 H1 1_555 1_555
H2 N1 1_555 1_555
N2 C5 1_555 1_555
N3 C12 1_555 1_555
C1 N1 1_555 1_555
C2 C1 1_555 1_555
C3 C2 1_555 1_555
H3 C3 1_555 1_555
C4 C3 1_555 1_555
C5 S1 1_555 1_555
C6 N2 1_555 1_555
C7 C4 1_555 1_555
C8 C7 1_555 1_555
H4 C8 1_555 1_555
C9 C8 1_555 1_555
H5 C9 1_555 1_555
C10 C9 1_555 1_555
H6 C10 1_555 1_555
C11 C6 1_555 1_555
H7 C11 1_555 1_555
C12 C2 1_555 1_555
C13 N2 1_555 1_555
H8 C13 1_555 1_555
H9 C13 1_555 1_555
H10 C13 1_555 1_555
C14 C3 1_555 1_555
C15 C14 1_555 1_555
H11 C15 1_555 1_555
C16 C15 1_555 1_555
H12 C16 1_555 1_555
C17 C16 1_555 1_555
C18 C17 1_555 1_555
H13 C18 1_555 1_555
C19 C14 1_555 1_555
H14 C19 1_555 1_555
C4 C5 1_555 1_555
C6 C7 1_555 1_555
C10 C11 1_555 1_555
C18 C19 1_555 1_555

#END
