
#######################################################################
#
#                 Cambridge Crystallographic Data Centre
#                                CCDC 
#
#######################################################################
#
# If this CIF has been generated from an entry in the Cambridge 
# Structural Database, then it will include bibliographic, chemical, 
# crystal, experimental, refinement or atomic coordinate data resulting 
# from the CCDC's data processing and validation procedures.
#
#######################################################################

data_DOZNIP
_chemical_formula_moiety         'C2 H2 N7 O4 1-,K1 1+'
_chemical_name_systematic        'Potassium 3,5-dinitramino-1,2,4-triazolate'
_symmetry_cell_setting           monoclinic
_symmetry_space_group_name_H-M   'P a'
_symmetry_Int_Tables_number      7
_space_group_name_Hall           'P -2ya'
loop_
_symmetry_equiv_pos_site_id
_symmetry_equiv_pos_as_xyz
1 x,y,z
2 1/2+x,-y,z
_cell_length_a                   6.597(2)
_cell_length_b                   5.167(2)
_cell_length_c                   10.427(5)
_cell_angle_alpha                90
_cell_angle_beta                 95.230(1)
_cell_angle_gamma                90
_cell_volume                     353.942
_cell_formula_units_Z            2
loop_
_atom_site_label
_atom_site_type_symbol
_atom_site_fract_x
_atom_site_fract_y
_atom_site_fract_z
K1 K 0.5521 0.2313(1) 0.1630(1)
O1 O 0.3328(6) -0.0894(5) 0.9426(3)
O2 O 0.2967(5) -0.4925(6) 0.9981(3)
O3 O 0.6445(6) -0.2584(5) 0.2345(3)
O4 O 0.6474(5) -0.4856(5) 0.4106(3)
N1 N 0.3396(5) -0.3263(7) 0.9186(3)
N2 N 0.3931(5) -0.4178(5) 0.8073(3)
N3 N 0.4348(5) 0.0223(5) 0.7170(3)
N4 N 0.4813(5) 0.1147(5) 0.5990(3)
N5 N 0.4828(5) -0.3137(5) 0.6009(3)
N6 N 0.5460(5) -0.0732(5) 0.4040(3)
N7 N 0.6145(5) -0.2805(5) 0.3503(3)
C1 C 0.4341(5) -0.2368(6) 0.7193(3)
C2 C 0.5095(5) -0.0960(5) 0.5306(3)
H1 H 0.5228 0.0841 0.3577
H2 H 0.4012 -0.5983 0.7901
loop_
_geom_bond_atom_site_label_1
_geom_bond_atom_site_label_2
_geom_bond_site_symmetry_1
_geom_bond_site_symmetry_2
O1 N1 1_555 1_555
O2 N1 1_555 1_555
O3 N7 1_555 1_555
O4 N7 1_555 1_555
N1 N2 1_555 1_555
N2 C1 1_555 1_555
N3 N4 1_555 1_555
N4 C2 1_555 1_555
N5 C1 1_555 1_555
N6 N7 1_555 1_555
C1 N3 1_555 1_555
C2 N5 1_555 1_555
H1 N6 1_555 1_555
H2 N2 1_555 1_555
N6 C2 1_555 1_555

#END
