
#######################################################################
#
#                 Cambridge Crystallographic Data Centre
#                                CCDC 
#
#######################################################################
#
# If this CIF has been generated from an entry in the Cambridge 
# Structural Database, then it will include bibliographic, chemical, 
# crystal, experimental, refinement or atomic coordinate data resulting 
# from the CCDC's data processing and validation procedures.
#
#######################################################################

data_DOZNOV
_chemical_formula_moiety         'C2 H2 N7 O4 1-,H4 N1 1+'
_chemical_name_systematic        'Ammonium 3,5-dinitramino-1,2,4-triazolate'
_symmetry_cell_setting           orthorhombic
_symmetry_space_group_name_H-M   'P 21 21 21'
_symmetry_Int_Tables_number      19
_space_group_name_Hall           'P 2ac 2ab'
loop_
_symmetry_equiv_pos_site_id
_symmetry_equiv_pos_as_xyz
1 x,y,z
2 1/2+x,1/2-y,-z
3 -x,1/2+y,1/2-z
4 1/2-x,-y,1/2+z
_cell_length_a                   4.591(5)
_cell_length_b                   8.680(1)
_cell_length_c                   18.663(3)
_cell_angle_alpha                90
_cell_angle_beta                 90
_cell_angle_gamma                90
_cell_volume                     743.718
_cell_formula_units_Z            4
loop_
_atom_site_label
_atom_site_type_symbol
_atom_site_fract_x
_atom_site_fract_y
_atom_site_fract_z
O1 O 0.5238(7) -0.2674(3) 0.9364(2)
O2 O 0.4668(7) -0.0424(3) 0.9860(1)
O3 O -0.5302(8) 0.1140(3) 0.7479(2)
O4 O -0.8127(7) 0.3161(3) 0.7537(2)
N1 N 0.3992(7) -0.1414(4) 0.9407(2)
N2 N 0.1878(8) -0.1162(4) 0.8916(2)
N3 N 0.0436(7) 0.1315(4) 0.9469(2)
N4 N -0.1557(8) 0.2441(4) 0.9293(2)
N5 N -0.1625(7) 0.0550(4) 0.8492(2)
N6 N -0.4904(8) 0.2830(4) 0.8394(2)
N7 N -0.6078(7) 0.2355(4) 0.7792(2)
C1 C 0.0416(9) 0.0177(4) 0.8993(2)
C2 C -0.2766(9) 0.1949(4) 0.8695(2)
H1 H 0.1477 -0.1879 0.8540
H2 H -0.5552 0.3746 0.8639
N8 N 0.4867(9) 0.4335(4) 0.3574(2)
H3 H 0.4356 0.4839 0.4019
H4 H 0.3920 0.4839 0.3187
H5 H 0.6917 0.4380 0.3508
H6 H 0.4067 0.3288 0.3591
loop_
_geom_bond_atom_site_label_1
_geom_bond_atom_site_label_2
_geom_bond_site_symmetry_1
_geom_bond_site_symmetry_2
O1 N1 1_555 1_555
O2 N1 1_555 1_555
O3 N7 1_555 1_555
O4 N7 1_555 1_555
N1 N2 1_555 1_555
N2 C1 1_555 1_555
N3 N4 1_555 1_555
N4 C2 1_555 1_555
N5 C1 1_555 1_555
N6 N7 1_555 1_555
N8 H3 1_555 1_555
C1 N3 1_555 1_555
C2 N5 1_555 1_555
H1 N2 1_555 1_555
H2 N6 1_555 1_555
H4 N8 1_555 1_555
H5 N8 1_555 1_555
H6 N8 1_555 1_555
N6 C2 1_555 1_555

#END
