
#######################################################################
#
#                 Cambridge Crystallographic Data Centre
#                                CCDC 
#
#######################################################################
#
# If this CIF has been generated from an entry in the Cambridge 
# Structural Database, then it will include bibliographic, chemical, 
# crystal, experimental, refinement or atomic coordinate data resulting 
# from the CCDC's data processing and validation procedures.
#
#######################################################################

data_DOZPAL
_chemical_formula_moiety         'C11 H8 N2 O4'
_chemical_name_systematic        'methyl 5-nitroquinoline-3-carboxylate'
_symmetry_cell_setting           orthorhombic
_symmetry_space_group_name_H-M   'P b c 21'
_symmetry_Int_Tables_number      29
_space_group_name_Hall           'P 2c -2b'
loop_
_symmetry_equiv_pos_site_id
_symmetry_equiv_pos_as_xyz
1 x,y,z
2 -x,-y,1/2+z
3 -x,1/2+y,z
4 x,1/2-y,1/2+z
_cell_length_a                   3.7687(3)
_cell_length_b                   15.5159(15)
_cell_length_c                   17.9508(10)
_cell_angle_alpha                90
_cell_angle_beta                 90
_cell_angle_gamma                90
_cell_volume                     1049.67
_exptl_crystal_colour            'light yellow'
_exptl_crystal_description       block
_cell_formula_units_Z            4
loop_
_atom_site_label
_atom_site_type_symbol
_atom_site_fract_x
_atom_site_fract_y
_atom_site_fract_z
O1 O -0.0492(16) -0.3727(3) -0.4857(2)
O2 O 0.1850(15) -0.4337(2) -0.5817(2)
O3 O -0.3329(14) -0.3569(2) -0.90058(19)
O4 O -0.3912(9) -0.44964(18) -0.80678(17)
N1 N 0.0834(13) -0.3701(3) -0.5477(2)
C1 C 0.1362(12) -0.2855(3) -0.5818(2)
C2 C 0.2567(14) -0.2213(3) -0.5373(3)
H1 H 0.2930 -0.2310 -0.4868
C3 C 0.3262(16) -0.1399(3) -0.5683(3)
H2 H 0.4117 -0.0958 -0.5382
C4 C 0.2691(14) -0.1255(3) -0.6420(3)
H3 H 0.3218 -0.0717 -0.6621
C5 C 0.1304(12) -0.1910(3) -0.6886(2)
C6 C 0.0613(10) -0.2738(3) -0.6593(2)
N2 N 0.0719(11) -0.1702(2) -0.7619(2)
C7 C -0.0593(12) -0.2302(3) -0.8047(3)
H4 H -0.0969 -0.2168 -0.8545
C8 C -0.1485(11) -0.3143(3) -0.7805(2)
C9 C -0.0852(12) -0.3362(3) -0.7077(2)
H5 H -0.1379 -0.3912 -0.6904
C10 C -0.3013(13) -0.3750(3) -0.8359(2)
C11 C -0.5398(16) -0.5130(3) -0.8575(3)
H6 H -0.3524 -0.5390 -0.8859
H7 H -0.7039 -0.4852 -0.8906
H8 H -0.6615 -0.5566 -0.8294
loop_
_geom_bond_atom_site_label_1
_geom_bond_atom_site_label_2
_geom_bond_site_symmetry_1
_geom_bond_site_symmetry_2
O1 N1 1_555 1_555
O2 N1 1_555 1_555
O3 C10 1_555 1_555
O4 C10 1_555 1_555
N1 C1 1_555 1_555
C1 C2 1_555 1_555
C2 H1 1_555 1_555
C3 C2 1_555 1_555
H2 C3 1_555 1_555
C4 C3 1_555 1_555
H3 C4 1_555 1_555
C5 C4 1_555 1_555
C6 C1 1_555 1_555
N2 C5 1_555 1_555
C7 N2 1_555 1_555
H4 C7 1_555 1_555
C8 C7 1_555 1_555
C9 C6 1_555 1_555
H5 C9 1_555 1_555
C10 C8 1_555 1_555
C11 O4 1_555 1_555
H6 C11 1_555 1_555
H7 C11 1_555 1_555
H8 C11 1_555 1_555
C5 C6 1_555 1_555
C8 C9 1_555 1_555

#END
