
#######################################################################
#
#                 Cambridge Crystallographic Data Centre
#                                CCDC 
#
#######################################################################
#
# If this CIF has been generated from an entry in the Cambridge 
# Structural Database, then it will include bibliographic, chemical, 
# crystal, experimental, refinement or atomic coordinate data resulting 
# from the CCDC's data processing and validation procedures.
#
#######################################################################

data_DOZPEN
_chemical_formula_moiety         'C28 H24 P2 2+,2(C12 H4 N4 1-),2(C12 H4 N4)'
_chemical_name_systematic        
'bis(Diphenylphosphonium)-cyclohexadiene tetrakis(tetracyanoquinodimethane)'
_symmetry_cell_setting           triclinic
_symmetry_space_group_name_H-M   'P -1'
_symmetry_Int_Tables_number      2
_space_group_name_Hall           '-P 1'
loop_
_symmetry_equiv_pos_site_id
_symmetry_equiv_pos_as_xyz
1 x,y,z
2 -x,-y,-z
_cell_length_a                   11.801(3)
_cell_length_b                   16.401(4)
_cell_length_c                   8.753(3)
_cell_angle_alpha                104.70(3)
_cell_angle_beta                 98.15(2)
_cell_angle_gamma                101.80(3)
_cell_volume                     1570.14
_exptl_crystal_colour            black
_cell_formula_units_Z            1
loop_
_atom_site_label
_atom_site_type_symbol
_atom_site_fract_x
_atom_site_fract_y
_atom_site_fract_z
P1 P 0.6400(1) -0.00120(8) -0.0257(2)
C25 C 0.6885(4) 0.0534(3) -0.1652(6)
C26 C 0.7156(4) 0.1432(3) -0.1315(7)
C27 C 0.7595(5) 0.1830(3) -0.2373(7)
C28 C 0.7756(5) 0.1339(4) -0.3812(6)
C29 C 0.7504(6) 0.0446(4) -0.4189(7)
C30 C 0.7059(5) 0.0049(3) -0.3107(6)
C31 C 0.7566(4) -0.0440(3) 0.0475(5)
C32 C 0.7524(4) -0.1314(3) -0.0079(6)
C33 C 0.8459(5) -0.1620(3) 0.0422(7)
C34 C 0.9466(5) -0.1063(3) 0.1481(8)
C35 C 0.9489(5) -0.0202(4) 0.2055(8)
C36 C 0.8562(5) 0.0119(3) 0.1530(7)
C37 C 0.6013(4) 0.0716(3) 0.1364(6)
C38 C 0.5088(4) -0.0884(3) -0.1214(6)
C38A C 0.4912(4) 0.0884(3) 0.1214(6)
C37A C 0.3987(4) -0.0716(3) -0.1364(6)
P1A P 0.3600(1) 0.00120(8) 0.0257(2)
C25A C 0.3115(4) -0.0534(3) 0.1652(6)
C31A C 0.2434(4) 0.0440(3) -0.0475(5)
C26A C 0.2844(4) -0.1432(3) 0.1315(7)
C30A C 0.2941(5) -0.0049(3) 0.3107(6)
C32A C 0.2476(4) 0.1314(3) 0.0079(6)
C36A C 0.1438(5) -0.0119(3) -0.1530(7)
C27A C 0.2405(5) -0.1830(3) 0.2373(7)
C29A C 0.2496(6) -0.0446(4) 0.4189(7)
C33A C 0.1541(5) 0.1620(3) -0.0422(7)
C35A C 0.0511(5) 0.0202(4) -0.2055(8)
C28A C 0.2244(5) -0.1339(4) 0.3812(6)
C34A C 0.0534(5) 0.1063(3) -0.1481(8)
N1 N 0.7858(3) 0.4284(3) -0.1674(5)
N2 N 0.5888(4) 0.2855(2) 0.0963(5)
N3 N 0.3867(4) 0.7405(3) 0.5475(5)
N4 N 0.5778(4) 0.8788(2) 0.2674(5)
C1 C 0.6284(3) 0.5101(3) 0.1258(5)
C2 C 0.6687(4) 0.5906(3) 0.0896(5)
C3 C 0.6351(4) 0.6622(3) 0.1603(5)
C4 C 0.5594(4) 0.6614(3) 0.2752(5)
C5 C 0.5215(3) 0.5817(3) 0.3120(5)
C6 C 0.5533(4) 0.5090(2) 0.2416(5)
C7 C 0.6608(3) 0.4351(3) 0.0505(5)
C8 C 0.7313(4) 0.4328(3) -0.0697(5)
C9 C 0.6206(4) 0.3536(3) 0.0792(5)
C10 C 0.5223(4) 0.7355(3) 0.3422(5)
C11 C 0.4464(4) 0.7373(3) 0.4555(5)
C12 C 0.5552(4) 0.8146(3) 0.2999(6)
N5 N 1.0559(4) 0.3619(3) -0.9771(5)
N6 N 0.8667(4) 0.2296(2) -0.6916(5)
N7 N 0.8607(5) 0.8245(3) -0.5053(6)
N8 N 0.6549(4) 0.6674(3) -0.2629(5)
C13 C 0.8984(4) 0.4487(3) -0.6854(5)
C14 C 0.9391(4) 0.5297(3) -0.7191(5)
C15 C 0.9075(4) 0.6023(3) -0.6481(5)
C16 C 0.8342(4) 0.6014(3) -0.5319(5)
C17 C 0.7949(4) 0.5217(3) -0.4958(5)
C18 C 0.8254(4) 0.4490(3) -0.5690(5)
C19 C 0.9308(4) 0.3735(3) -0.7597(5)
C20 C 1.0014(4) 0.3693(3) -0.8790(6)
C21 C 0.8948(4) 0.2942(3) -0.7211(5)
C22 C 0.7975(4) 0.6753(3) -0.4589(5)
C23 C 0.8342(4) 0.7569(3) -0.4863(6)
C24 C 0.7190(4) 0.6712(3) -0.3500(6)
loop_
_geom_bond_atom_site_label_1
_geom_bond_atom_site_label_2
_geom_bond_site_symmetry_1
_geom_bond_site_symmetry_2
P1 C25 1_555 1_555
N1 C8 1_555 1_555
N2 C9 1_555 1_555
N3 C11 1_555 1_555
N4 C12 1_555 1_555
N5 C20 1_555 1_555
N6 C21 1_555 1_555
N7 C23 1_555 1_555
N8 C24 1_555 1_555
C1 C2 1_555 1_555
C2 C3 1_555 1_555
C3 C4 1_555 1_555
C4 C5 1_555 1_555
C5 C6 1_555 1_555
C6 C1 1_555 1_555
C7 C1 1_555 1_555
C8 C7 1_555 1_555
C9 C7 1_555 1_555
C10 C4 1_555 1_555
C11 C10 1_555 1_555
C12 C10 1_555 1_555
C13 C14 1_555 1_555
C14 C15 1_555 1_555
C15 C16 1_555 1_555
C16 C17 1_555 1_555
C17 C18 1_555 1_555
C18 C13 1_555 1_555
C19 C13 1_555 1_555
C20 C19 1_555 1_555
C21 C19 1_555 1_555
C22 C16 1_555 1_555
C23 C22 1_555 1_555
C24 C22 1_555 1_555
C25 C26 1_555 1_555
C26 C27 1_555 1_555
C27 C28 1_555 1_555
C28 C29 1_555 1_555
C29 C30 1_555 1_555
C30 C25 1_555 1_555
C31 P1 1_555 1_555
C32 C31 1_555 1_555
C33 C32 1_555 1_555
C34 C33 1_555 1_555
C35 C34 1_555 1_555
C36 C31 1_555 1_555
C37 P1 1_555 1_555
C38 P1 1_555 1_555
C38A C37 1_555 1_555
C37A C38 1_555 1_555
P1A C38A 1_555 1_555
C25A P1A 1_555 1_555
C31A P1A 1_555 1_555
C26A C25A 1_555 1_555
C30A C25A 1_555 1_555
C32A C31A 1_555 1_555
C36A C31A 1_555 1_555
C27A C26A 1_555 1_555
C29A C30A 1_555 1_555
C33A C32A 1_555 1_555
C35A C36A 1_555 1_555
C28A C27A 1_555 1_555
C34A C33A 1_555 1_555
C35 C36 1_555 1_555
C37A P1A 1_555 1_555
C29A C28A 1_555 1_555
C35A C34A 1_555 1_555

#END
