
#######################################################################
#
#                 Cambridge Crystallographic Data Centre
#                                CCDC 
#
#######################################################################
#
# If this CIF has been generated from an entry in the Cambridge 
# Structural Database, then it will include bibliographic, chemical, 
# crystal, experimental, refinement or atomic coordinate data resulting 
# from the CCDC's data processing and validation procedures.
#
#######################################################################

data_DOZPAJ
_chemical_formula_moiety         'C32 H30 P2 2+,2(C12 H4 N4 1-),2(C12 H4 N4)'
_chemical_name_systematic        
'bis(Methyldiphenylphosphonium)-p-phenylene tetrakis(tetracyanoquinodimethane)'
_symmetry_cell_setting           triclinic
_symmetry_space_group_name_H-M   'P -1'
_symmetry_Int_Tables_number      2
_space_group_name_Hall           '-P 1'
loop_
_symmetry_equiv_pos_site_id
_symmetry_equiv_pos_as_xyz
1 x,y,z
2 -x,-y,-z
_cell_length_a                   13.060(4)
_cell_length_b                   15.428(3)
_cell_length_c                   8.600(3)
_cell_angle_alpha                103.46(2)
_cell_angle_beta                 78.29(3)
_cell_angle_gamma                92.40(3)
_cell_volume                     1650.12
_exptl_crystal_colour            black
_cell_formula_units_Z            1
loop_
_atom_site_label
_atom_site_type_symbol
_atom_site_fract_x
_atom_site_fract_y
_atom_site_fract_z
P1 P 0.66435(7) 0.91565(6) 0.6500(1)
C25 C 0.7823(3) 0.8891(2) 0.5016(4)
C26 C 0.8085(3) 0.8016(2) 0.4222(5)
C27 C 0.9000(3) 0.7854(3) 0.3054(5)
C28 C 0.9633(3) 0.8538(3) 0.2692(5)
C29 C 0.9371(3) 0.9400(2) 0.3469(5)
C30 C 0.8472(3) 0.9583(2) 0.4640(4)
C31 C 0.6922(3) 0.9924(2) 0.8258(4)
C32 C 0.7598(3) 0.9632(2) 0.9106(4)
C33 C 0.7849(3) 1.0204(3) 1.0450(4)
C34 C 0.7428(3) 1.1050(3) 1.0981(4)
C35 C 0.6778(3) 1.1339(2) 1.0143(5)
C36 C 0.6523(3) 1.0781(2) 0.8780(4)
C37 C 0.5727(2) 0.9644(2) 0.5647(4)
C38 C 0.5972(3) 0.9735(3) 0.4055(4)
C39 C 0.4763(3) 0.9907(3) 0.6571(4)
C40 C 0.6054(3) 0.8192(2) 0.7063(5)
C39A C 0.5237(3) 1.0093(3) 0.3429(4)
C38A C 0.4028(3) 1.0265(3) 0.5945(4)
C37A C 0.4273(2) 1.0356(2) 0.4353(4)
P1A P 0.33565(7) 1.08435(6) 0.3500(1)
C25A C 0.2177(3) 1.1109(2) 0.4984(4)
C31A C 0.3078(3) 1.0076(2) 0.1742(4)
C40A C 0.3946(3) 1.1808(2) 0.2937(5)
C26A C 0.1915(3) 1.1984(2) 0.5778(5)
C30A C 0.1528(3) 1.0417(2) 0.5360(4)
C32A C 0.2402(3) 1.0368(2) 0.0894(4)
C36A C 0.3477(3) 0.9219(2) 0.1220(4)
C27A C 0.1000(3) 1.2146(3) 0.6946(5)
C29A C 0.0629(3) 1.0600(2) 0.6531(5)
C33A C 0.2151(3) 0.9796(3) -0.0450(4)
C35A C 0.3222(3) 0.8661(2) -0.0143(5)
C28A C 0.0367(3) 1.1462(3) 0.7308(5)
C34A C 0.2572(3) 0.8950(3) -0.0981(4)
N1 N 0.4554(3) 0.2240(2) -0.1103(4)
N2 N 0.3579(3) 0.3897(2) -0.3945(4)
N3 N 0.3897(3) 0.6563(2) 0.7030(4)
N4 N 0.2802(3) 0.8224(2) 0.4341(4)
C1 C 0.3845(2) 0.4508(2) 0.0170(4)
C2 C 0.4079(2) 0.4421(2) 0.1690(4)
C3 C 0.3954(3) 0.5117(2) 0.2996(4)
C4 C 0.3603(2) 0.5963(2) 0.2927(4)
C5 C 0.3380(2) 0.6058(2) 0.1414(4)
C6 C 0.3498(2) 0.5359(2) 0.0103(4)
C7 C 0.3961(3) 0.3793(2) -0.1177(4)
C8 C 0.4288(3) 0.2934(2) -0.1126(4)
C9 C 0.3741(3) 0.3862(2) -0.2705(4)
C10 C 0.3472(3) 0.6679(2) 0.4288(4)
C11 C 0.3711(3) 0.6606(2) 0.5801(4)
C12 C 0.3107(3) 0.7533(2) 0.4293(4)
N5 N 0.1254(3) 0.6889(2) 1.0048(4)
N6 N 0.0107(3) 0.8585(2) 0.7395(5)
N7 N 0.2013(3) 0.2710(2) 0.1831(4)
N8 N 0.1114(3) 0.4419(2) -0.1001(4)
C13 C 0.1015(3) 0.6377(2) 0.5954(4)
C14 C 0.1370(3) 0.5523(2) 0.5985(4)
C15 C 0.1509(3) 0.4849(2) 0.4657(4)
C16 C 0.1289(3) 0.4962(2) 0.3146(4)
C17 C 0.0942(3) 0.5822(2) 0.3112(4)
C18 C 0.0807(3) 0.6499(2) 0.4442(4)
C19 C 0.0839(3) 0.7064(2) 0.7346(4)
C20 C 0.1068(3) 0.6964(2) 0.8839(5)
C21 C 0.0433(3) 0.7911(3) 0.7386(5)
C22 C 0.1417(2) 0.4265(2) 0.1779(4)
C23 C 0.1751(3) 0.3408(2) 0.1799(4)
C24 C 0.1240(3) 0.4359(2) 0.0245(4)
loop_
_geom_bond_atom_site_label_1
_geom_bond_atom_site_label_2
_geom_bond_site_symmetry_1
_geom_bond_site_symmetry_2
P1 C25 1_555 1_555
N1 C8 1_555 1_555
N2 C9 1_555 1_555
N3 C11 1_555 1_555
N4 C12 1_555 1_555
N5 C20 1_555 1_555
N6 C21 1_555 1_555
N7 C23 1_555 1_555
N8 C24 1_555 1_555
C1 C2 1_555 1_555
C2 C3 1_555 1_555
C3 C4 1_555 1_555
C4 C5 1_555 1_555
C5 C6 1_555 1_555
C6 C1 1_555 1_555
C7 C1 1_555 1_555
C8 C7 1_555 1_555
C9 C7 1_555 1_555
C10 C4 1_555 1_555
C11 C10 1_555 1_555
C12 C10 1_555 1_555
C13 C14 1_555 1_555
C14 C15 1_555 1_555
C15 C16 1_555 1_555
C16 C17 1_555 1_555
C17 C18 1_555 1_555
C18 C13 1_555 1_555
C19 C13 1_555 1_555
C20 C19 1_555 1_555
C21 C19 1_555 1_555
C22 C16 1_555 1_555
C23 C22 1_555 1_555
C24 C22 1_555 1_555
C25 C26 1_555 1_555
C26 C27 1_555 1_555
C27 C28 1_555 1_555
C28 C29 1_555 1_555
C29 C30 1_555 1_555
C30 C25 1_555 1_555
C31 P1 1_555 1_555
C32 C31 1_555 1_555
C33 C32 1_555 1_555
C34 C33 1_555 1_555
C35 C34 1_555 1_555
C36 C31 1_555 1_555
C37 P1 1_555 1_555
C38 C37 1_555 1_555
C39 C37 1_555 1_555
C40 P1 1_555 1_555
C39A C38 1_555 1_555
C38A C39 1_555 1_555
C37A C39A 1_555 1_555
P1A C37A 1_555 1_555
C25A P1A 1_555 1_555
C31A P1A 1_555 1_555
C40A P1A 1_555 1_555
C26A C25A 1_555 1_555
C30A C25A 1_555 1_555
C32A C31A 1_555 1_555
C36A C31A 1_555 1_555
C27A C26A 1_555 1_555
C29A C30A 1_555 1_555
C33A C32A 1_555 1_555
C35A C36A 1_555 1_555
C28A C27A 1_555 1_555
C34A C33A 1_555 1_555
C35 C36 1_555 1_555
C38A C37A 1_555 1_555
C29A C28A 1_555 1_555
C35A C34A 1_555 1_555

#END
