
#######################################################################
#
#                 Cambridge Crystallographic Data Centre
#                                CCDC 
#
#######################################################################
#
# If this CIF has been generated from an entry in the Cambridge 
# Structural Database, then it will include bibliographic, chemical, 
# crystal, experimental, refinement or atomic coordinate data resulting 
# from the CCDC's data processing and validation procedures.
#
#######################################################################

data_DOZWEV
_chemical_formula_moiety         'C18 H15 F1 O4'
_chemical_name_systematic        
'trans-Ethyl 3-fluoro-4-oxo-2-phenyl-3,4-dihydro-2H-chromene-3-carboxylate'
_symmetry_cell_setting           monoclinic
_symmetry_space_group_name_H-M   'P 21/n'
_symmetry_Int_Tables_number      14
_space_group_name_Hall           '-P 2yn'
loop_
_symmetry_equiv_pos_site_id
_symmetry_equiv_pos_as_xyz
1 x,y,z
2 1/2-x,1/2+y,1/2-z
3 -x,-y,-z
4 1/2+x,1/2-y,1/2+z
_cell_length_a                   9.5886(14)
_cell_length_b                   15.791(2)
_cell_length_c                   10.2752(15)
_cell_angle_alpha                90
_cell_angle_beta                 94.358(3)
_cell_angle_gamma                90
_cell_volume                     1551.31
_exptl_crystal_colour            colorless
_exptl_crystal_description       prismatic
_chemical_melting_point          '128-129 deg.C'
_cell_formula_units_Z            4
loop_
_atom_site_label
_atom_site_type_symbol
_atom_site_fract_x
_atom_site_fract_y
_atom_site_fract_z
F1 F 0.3833(2) 0.02807(14) 0.3810(2)
O1 O 0.5892(3) -0.07473(18) 0.3149(3)
O2 O 0.6506(3) 0.17988(18) 0.3210(3)
O3 O 0.5135(3) 0.08690(19) 0.0866(3)
O4 O 0.3007(3) 0.05785(19) 0.1475(3)
C1 C 0.6116(4) 0.0008(3) 0.3190(4)
C2 C 0.4867(4) 0.0619(2) 0.3100(3)
C3 C 0.5282(4) 0.1470(2) 0.3748(4)
H1 H 0.5513 0.1365 0.4679
C4 C 0.7637(4) 0.1268(3) 0.3251(4)
C5 C 0.7492(4) 0.0395(3) 0.3272(4)
C6 C 0.8705(5) -0.0099(4) 0.3300(4)
H2 H 0.8635 -0.0687 0.3324
C7 C 0.9985(5) 0.0270(5) 0.3292(5)
H3 H 1.0784 -0.0065 0.3307
C8 C 1.0097(5) 0.1135(5) 0.3262(5)
H4 H 1.0976 0.1382 0.3256
C9 C 0.8939(5) 0.1639(4) 0.3240(5)
H5 H 0.9027 0.2225 0.3218
C10 C 0.4341(4) 0.0703(2) 0.1675(4)
C11 C 0.2418(6) 0.0598(5) 0.0127(5)
H6 H 0.3159 0.0706 -0.0444
H7 H 0.2012 0.0051 -0.0101
C12 C 0.1395(11) 0.1223(7) -0.0063(7)
H8 H 0.0651 0.1111 0.0487
H9 H 0.1031 0.1222 -0.0960
H10 H 0.1798 0.1767 0.0152
C13 C 0.4167(4) 0.2132(2) 0.3626(4)
C14 C 0.3386(4) 0.2293(3) 0.4664(5)
H11 H 0.3566 0.1990 0.5436
C15 C 0.2343(5) 0.2893(3) 0.4586(6)
H12 H 0.1840 0.2997 0.5308
C16 C 0.2046(6) 0.3327(3) 0.3490(8)
H13 H 0.1319 0.3718 0.3441
C17 C 0.2818(6) 0.3195(3) 0.2421(6)
H14 H 0.2620 0.3505 0.1659
C18 C 0.3901(5) 0.2593(3) 0.2492(5)
H15 H 0.4433 0.2507 0.1784
loop_
_geom_bond_atom_site_label_1
_geom_bond_atom_site_label_2
_geom_bond_site_symmetry_1
_geom_bond_site_symmetry_2
F1 C2 1_555 1_555
O1 C1 1_555 1_555
O2 C3 1_555 1_555
O3 C10 1_555 1_555
O4 C10 1_555 1_555
C1 C2 1_555 1_555
C2 C3 1_555 1_555
C3 H1 1_555 1_555
C4 O2 1_555 1_555
C5 C1 1_555 1_555
C6 C5 1_555 1_555
H2 C6 1_555 1_555
C7 C6 1_555 1_555
H3 C7 1_555 1_555
C8 C7 1_555 1_555
H4 C8 1_555 1_555
C9 C4 1_555 1_555
H5 C9 1_555 1_555
C10 C2 1_555 1_555
C11 O4 1_555 1_555
H6 C11 1_555 1_555
H7 C11 1_555 1_555
C12 C11 1_555 1_555
H8 C12 1_555 1_555
H9 C12 1_555 1_555
H10 C12 1_555 1_555
C13 C3 1_555 1_555
C14 C13 1_555 1_555
H11 C14 1_555 1_555
C15 C14 1_555 1_555
H12 C15 1_555 1_555
C16 C15 1_555 1_555
H13 C16 1_555 1_555
C17 C16 1_555 1_555
H14 C17 1_555 1_555
C18 C13 1_555 1_555
H15 C18 1_555 1_555
C4 C5 1_555 1_555
C8 C9 1_555 1_555
C17 C18 1_555 1_555

#END
