
#######################################################################
#
#                 Cambridge Crystallographic Data Centre
#                                CCDC 
#
#######################################################################
#
# If this CIF has been generated from an entry in the Cambridge 
# Structural Database, then it will include bibliographic, chemical, 
# crystal, experimental, refinement or atomic coordinate data resulting 
# from the CCDC's data processing and validation procedures.
#
#######################################################################

data_DOZYIB
_chemical_formula_moiety         'C16 H16 N2 O6'
_chemical_name_systematic        
'Diethyl 2,6-diaminofuro[2,3-f][1]benzofuran-3,7-dicarboxylate'
_symmetry_cell_setting           monoclinic
_symmetry_space_group_name_H-M   'P 21/c'
_symmetry_Int_Tables_number      14
_space_group_name_Hall           '-P 2ybc'
loop_
_symmetry_equiv_pos_site_id
_symmetry_equiv_pos_as_xyz
1 x,y,z
2 -x,1/2+y,1/2-z
3 -x,-y,-z
4 x,1/2-y,1/2+z
_cell_length_a                   9.198(1)
_cell_length_b                   30.267(6)
_cell_length_c                   14.047(2)
_cell_angle_alpha                90
_cell_angle_beta                 127.66(1)
_cell_angle_gamma                90
_cell_volume                     3095.85
_exptl_crystal_colour            colorless
_exptl_crystal_description       prism
_chemical_melting_point          '278 deg.C'
_cell_formula_units_Z            8
_exptl_crystal_recrystallization_method 'acetic acid'
_exptl_crystal_preparation       fluorescent
loop_
_atom_site_label
_atom_site_type_symbol
_atom_site_fract_x
_atom_site_fract_y
_atom_site_fract_z
O1 O 0.0114(3) 0.15786(5) 0.07837(17)
O2 O -0.2987(3) 0.17864(6) 0.20774(19)
O3 O -0.2701(3) 0.24973(6) 0.17432(17)
O4 O 0.0232(3) 0.33334(5) 0.00485(17)
O5 O 0.3345(3) 0.31246(6) -0.12295(19)
O6 O 0.2957(3) 0.24101(6) -0.09815(17)
N1 N -0.1080(3) 0.11590(7) 0.1489(2)
H1 H -0.1638 0.1135 0.1884
H2 H -0.0346 0.0927 0.1589
N2 N 0.1580(3) 0.37506(7) -0.0576(2)
H3 H 0.0758 0.3985 -0.0771
H4 H 0.2155 0.3732 -0.0968
C1 C -0.0856(4) 0.15608(9) 0.1220(3)
C2 C -0.1432(4) 0.19755(8) 0.1273(2)
C3 C -0.0734(4) 0.22816(8) 0.0845(2)
C4 C 0.0199(4) 0.20222(8) 0.0555(2)
C5 C 0.1082(4) 0.21726(9) 0.0110(2)
H9 H 0.1674 0.1984 -0.0077
C6 C 0.1026(4) 0.26259(9) -0.0041(2)
C7 C 0.0100(4) 0.28875(8) 0.0249(2)
C8 C -0.0794(4) 0.27381(8) 0.0685(2)
H10 H -0.1397 0.2927 0.0862
C9 C 0.1763(4) 0.29344(8) -0.0445(2)
C10 C 0.1238(4) 0.33461(9) -0.0364(3)
C11 C -0.2435(4) 0.20614(9) 0.1729(2)
C12 C -0.3584(4) 0.26494(9) 0.2239(3)
H11 H -0.2966 0.2534 0.3046
H12 H -0.4856 0.2554 0.1744
C13 C -0.3468(5) 0.31417(10) 0.2263(3)
H13 H -0.2202 0.3230 0.2745
H14 H -0.4030 0.3261 0.2600
H15 H -0.4095 0.3251 0.1458
C14 C 0.2758(4) 0.28465(9) -0.0920(3)
C15 C 0.3821(4) 0.22641(9) -0.1501(3)
H16 H 0.5105 0.2350 -0.0996
H17 H 0.3216 0.2392 -0.2292
C16 C 0.3640(5) 0.17698(10) -0.1585(3)
H18 H 0.4310 0.1647 -0.0791
H19 H 0.4125 0.1656 -0.1977
H20 H 0.2367 0.1690 -0.2040
O7 O 0.5031(3) 0.08857(6) 0.46913(17)
O8 O 0.8152(3) 0.07251(6) 0.33967(19)
O9 O 0.7821(3) 0.00045(6) 0.36406(17)
N3 N 0.6291(4) 0.13277(7) 0.4065(2)
H5 H 0.6869 0.1372 0.3733
H6 H 0.5536 0.1571 0.3979
C17 C 0.6018(4) 0.09180(9) 0.4268(3)
C18 C 0.6581(4) 0.05095(8) 0.4171(2)
C19 C 0.5873(4) 0.01883(8) 0.4564(2)
C20 C 0.4930(4) 0.04357(8) 0.4873(2)
C21 C 0.4050(4) 0.02716(8) 0.5307(2)
H21 H 0.3587 0.0449 0.5700
C22 C 0.7571(4) 0.04368(9) 0.3700(2)
C23 C 0.8719(4) -0.01317(9) 0.3135(3)
H22 H 0.9994 -0.0038 0.3646
H23 H 0.8113 -0.0004 0.2343
C24 C 0.8592(5) -0.06265(10) 0.3057(3)
H24 H 0.7326 -0.0714 0.2577
H25 H 0.9238 -0.0748 0.3850
H26 H 0.9132 -0.0734 0.2694
O7B O 0.4969(3) -0.08857(6) 0.53087(17)
O8B O 0.1848(3) -0.07251(6) 0.66033(19)
O9B O 0.2179(3) -0.00045(6) 0.63594(17)
N3B N 0.3709(4) -0.13277(7) 0.5935(2)
H5B H 0.3131 -0.1372 0.6267
H6B H 0.4464 -0.1571 0.6021
C17B C 0.3982(4) -0.09180(9) 0.5732(3)
C18B C 0.3419(4) -0.05095(8) 0.5829(2)
C19B C 0.4127(4) -0.01883(8) 0.5436(2)
C20B C 0.5070(4) -0.04357(8) 0.5127(2)
C21B C 0.5950(4) -0.02716(8) 0.4693(2)
H21B H 0.6413 -0.0449 0.4300
C22B C 0.2429(4) -0.04368(9) 0.6300(2)
C23B C 0.1281(4) 0.01317(9) 0.6865(3)
H22B H 0.0006 0.0038 0.6354
H23B H 0.1887 0.0004 0.7657
C24B C 0.1408(5) 0.06265(10) 0.6943(3)
H24B H 0.2674 0.0714 0.7423
H25B H 0.0762 0.0748 0.6150
H26B H 0.0868 0.0734 0.7306
O10 O 0.4921(3) 0.08656(5) 0.04491(17)
O11 O 0.1811(3) 0.06046(6) 0.17013(19)
O12 O 0.2156(3) -0.00994(6) 0.13569(17)
N4 N 0.3639(3) 0.12539(7) 0.1152(2)
H7 H 0.4494 0.1471 0.1406
H8 H 0.2980 0.1236 0.1453
C25 C 0.3934(4) 0.08602(9) 0.0873(2)
C26 C 0.3365(4) 0.04403(8) 0.0889(2)
C27 C 0.4094(4) 0.01540(8) 0.0448(2)
C28 C 0.5043(4) 0.04277(8) 0.0193(2)
C29 C 0.5958(4) 0.02994(8) -0.0250(2)
H27 H 0.6604 0.0542 -0.0421
C30 C 0.2380(4) 0.03373(9) 0.1349(2)
C31 C 0.1292(4) -0.02627(9) 0.1861(3)
H28 H 0.0017 -0.0171 0.1376
H29 H 0.1918 -0.0152 0.2673
C32 C 0.1430(5) -0.07567(10) 0.1863(4)
H30 H 0.0831 -0.0859 0.1057
H31 H 0.0848 -0.0885 0.2178
H32 H 0.2700 -0.0842 0.2357
O10B O 0.5079(3) -0.08656(5) -0.04491(17)
O11B O 0.8189(3) -0.06046(6) -0.17013(19)
O12B O 0.7844(3) 0.00994(6) -0.13569(17)
N4B N 0.6361(3) -0.12539(7) -0.1152(2)
H7B H 0.5506 -0.1471 -0.1406
H8B H 0.7020 -0.1236 -0.1453
C25B C 0.6066(4) -0.08602(9) -0.0873(2)
C26B C 0.6635(4) -0.04403(8) -0.0889(2)
C27B C 0.5906(4) -0.01540(8) -0.0448(2)
C28B C 0.4957(4) -0.04277(8) -0.0193(2)
C29B C 0.4042(4) -0.02994(8) 0.0250(2)
H27B H 0.3396 -0.0542 0.0421
C30B C 0.7620(4) -0.03373(9) -0.1349(2)
C31B C 0.8708(4) 0.02627(9) -0.1861(3)
H28B H 0.9983 0.0171 -0.1376
H29B H 0.8082 0.0152 -0.2673
C32B C 0.8570(5) 0.07567(10) -0.1863(4)
H30B H 0.9169 0.0859 -0.1057
H31B H 0.9152 0.0885 -0.2178
H32B H 0.7300 0.0842 -0.2357
loop_
_geom_bond_atom_site_label_1
_geom_bond_atom_site_label_2
_geom_bond_site_symmetry_1
_geom_bond_site_symmetry_2
O1 C1 1_555 1_555
O2 C11 1_555 1_555
O3 C11 1_555 1_555
O4 C7 1_555 1_555
O5 C14 1_555 1_555
O6 C14 1_555 1_555
O7 C17 1_555 1_555
O8 C22 1_555 1_555
O9 C22 1_555 1_555
O10 C25 1_555 1_555
O11 C30 1_555 1_555
O12 C30 1_555 1_555
N1 H1 1_555 1_555
H2 N1 1_555 1_555
N2 H3 1_555 1_555
H4 N2 1_555 1_555
N3 H5 1_555 1_555
H6 N3 1_555 1_555
N4 H7 1_555 1_555
H8 N4 1_555 1_555
C1 N1 1_555 1_555
C2 C1 1_555 1_555
C3 C2 1_555 1_555
C4 O1 1_555 1_555
C5 C4 1_555 1_555
H9 C5 1_555 1_555
C6 C5 1_555 1_555
C7 C6 1_555 1_555
C8 C3 1_555 1_555
H10 C8 1_555 1_555
C9 C6 1_555 1_555
C10 O4 1_555 1_555
C11 C2 1_555 1_555
C12 O3 1_555 1_555
H11 C12 1_555 1_555
H12 C12 1_555 1_555
C13 C12 1_555 1_555
H13 C13 1_555 1_555
H14 C13 1_555 1_555
H15 C13 1_555 1_555
C14 C9 1_555 1_555
C15 O6 1_555 1_555
H16 C15 1_555 1_555
H17 C15 1_555 1_555
C16 C15 1_555 1_555
H18 C16 1_555 1_555
H19 C16 1_555 1_555
H20 C16 1_555 1_555
C17 N3 1_555 1_555
C18 C17 1_555 1_555
C19 C18 1_555 1_555
C20 O7 1_555 1_555
C21 C20 1_555 1_555
H21 C21 1_555 1_555
C22 C18 1_555 1_555
C23 O9 1_555 1_555
H22 C23 1_555 1_555
H23 C23 1_555 1_555
C24 C23 1_555 1_555
H24 C24 1_555 1_555
H25 C24 1_555 1_555
H26 C24 1_555 1_555
C25 N4 1_555 1_555
C26 C25 1_555 1_555
C27 C26 1_555 1_555
C28 O10 1_555 1_555
C29 C28 1_555 1_555
H27 C29 1_555 1_555
C30 C26 1_555 1_555
C31 O12 1_555 1_555
H28 C31 1_555 1_555
H29 C31 1_555 1_555
C32 C31 1_555 1_555
H30 C32 1_555 1_555
H31 C32 1_555 1_555
H32 C32 1_555 1_555
O7B C17B 1_555 1_555
O8B C22B 1_555 1_555
O9B C22B 1_555 1_555
O10B C25B 1_555 1_555
O11B C30B 1_555 1_555
O12B C30B 1_555 1_555
N3B H5B 1_555 1_555
H6B N3B 1_555 1_555
N4B H7B 1_555 1_555
H8B N4B 1_555 1_555
C17B N3B 1_555 1_555
C18B C17B 1_555 1_555
C19B C21 1_555 1_555
C20B O7B 1_555 1_555
C21B C19 1_555 1_555
H21B C21B 1_555 1_555
C22B C18B 1_555 1_555
C23B O9B 1_555 1_555
H22B C23B 1_555 1_555
H23B C23B 1_555 1_555
C24B C23B 1_555 1_555
H24B C24B 1_555 1_555
H25B C24B 1_555 1_555
H26B C24B 1_555 1_555
C25B N4B 1_555 1_555
C26B C25B 1_555 1_555
C27B C29 1_555 1_555
C28B O10B 1_555 1_555
C29B C27 1_555 1_555
H27B C29B 1_555 1_555
C30B C26B 1_555 1_555
C31B O12B 1_555 1_555
H28B C31B 1_555 1_555
H29B C31B 1_555 1_555
C32B C31B 1_555 1_555
H30B C32B 1_555 1_555
H31B C32B 1_555 1_555
H32B C32B 1_555 1_555
N2 C10 1_555 1_555
C3 C4 1_555 1_555
C7 C8 1_555 1_555
C9 C10 1_555 1_555
C19 C20 1_555 1_555
C27 C28 1_555 1_555
C18B C19B 1_555 1_555
C19B C20B 1_555 1_555
C20B C21B 1_555 1_555
C26B C27B 1_555 1_555
C27B C28B 1_555 1_555
C28B C29B 1_555 1_555

#END
