
#######################################################################
#
#                 Cambridge Crystallographic Data Centre
#                                CCDC 
#
#######################################################################
#
# If this CIF has been generated from an entry in the Cambridge 
# Structural Database, then it will include bibliographic, chemical, 
# crystal, experimental, refinement or atomic coordinate data resulting 
# from the CCDC's data processing and validation procedures.
#
#######################################################################

data_DOZZUO
_chemical_formula_moiety         'C28 H22 N4 O1'
_chemical_name_systematic        
3-Methyl-5-phenyl-1-(9-phenyl-1,10-phenanthrolin-2-yl)-4,5-dihydro-1H-pyrazol-5-ol
_symmetry_cell_setting           monoclinic
_symmetry_space_group_name_H-M   'P 21/n'
_symmetry_Int_Tables_number      14
_space_group_name_Hall           '-P 2yn'
loop_
_symmetry_equiv_pos_site_id
_symmetry_equiv_pos_as_xyz
1 x,y,z
2 1/2-x,1/2+y,1/2-z
3 -x,-y,-z
4 1/2+x,1/2-y,1/2+z
_cell_length_a                   9.8966(6)
_cell_length_b                   19.1756(11)
_cell_length_c                   12.2694(7)
_cell_angle_alpha                90
_cell_angle_beta                 108.485(3)
_cell_angle_gamma                90
_cell_volume                     2208.27
_exptl_crystal_colour            yellow
_exptl_crystal_description       block
_chemical_melting_point          '194-195 deg.C'
_cell_formula_units_Z            4
_exptl_crystal_recrystallization_method 'dichloromethane/petroleum ether'
loop_
_atom_site_label
_atom_site_type_symbol
_atom_site_fract_x
_atom_site_fract_y
_atom_site_fract_z
O1 O -0.33428(16) 0.11838(8) 0.58236(14)
H1 H -0.2657 0.1153 0.5588
N1 N 0.00489(18) 0.11293(8) 0.47017(17)
N2 N -0.04761(18) 0.09256(8) 0.67260(16)
N3 N -0.1936(2) 0.11323(9) 0.78079(17)
N4 N -0.2547(2) 0.08801(9) 0.86125(16)
C1 C -0.0874(3) 0.16907(12) 0.1710(2)
H2 H -0.0271 0.1414 0.1448
C2 C -0.1887(4) 0.21037(16) 0.0942(3)
H3 H -0.1967 0.2095 0.0166
C3 C -0.2769(3) 0.25232(15) 0.1310(3)
H4 H -0.3445 0.2799 0.0789
C4 C -0.2652(3) 0.25348(14) 0.2457(3)
H5 H -0.3243 0.2823 0.2715
C5 C -0.1654(3) 0.21176(13) 0.3229(2)
H6 H -0.1588 0.2127 0.4002
C6 C -0.0754(3) 0.16874(12) 0.2873(2)
C7 C 0.0297(2) 0.12455(11) 0.3713(2)
C8 C 0.1495(3) 0.09610(13) 0.3496(2)
H7 H 0.1657 0.1053 0.2804
C9 C 0.2418(3) 0.05515(13) 0.4297(3)
H8 H 0.3211 0.0364 0.4153
C10 C 0.2176(2) 0.04116(11) 0.5342(2)
C11 C 0.3071(2) -0.00275(12) 0.6211(2)
H9 H 0.3858 -0.0239 0.6092
C12 C 0.2793(2) -0.01395(12) 0.7203(2)
H10 H 0.3383 -0.0434 0.7754
C13 C 0.1609(2) 0.01862(11) 0.7424(2)
C14 C 0.1305(2) 0.00981(11) 0.8456(2)
H11 H 0.1902 -0.0174 0.9040
C15 C 0.0143(2) 0.04074(11) 0.8610(2)
H12 H -0.0064 0.0355 0.9294
C16 C -0.0740(2) 0.08112(11) 0.7700(2)
C17 C 0.0698(2) 0.06140(10) 0.6588(2)
C18 C 0.0970(2) 0.07288(11) 0.5510(2)
C19 C -0.4724(2) 0.10156(13) 0.9104(2)
H13 H -0.4234 0.0715 0.9731
H14 H -0.5600 0.0800 0.8658
H15 H -0.4926 0.1453 0.9402
C20 C -0.3806(3) 0.11395(12) 0.8359(2)
C21 C -0.4222(2) 0.15847(12) 0.7325(2)
H16 H -0.4397 0.2060 0.7515
H17 H -0.5071 0.1406 0.6753
C22 C -0.2933(2) 0.15482(12) 0.6890(2)
C23 C -0.2318(3) 0.22590(12) 0.6776(2)
C24 C -0.1318(3) 0.25760(14) 0.7682(2)
H18 H -0.0957 0.2339 0.8374
C25 C -0.0840(3) 0.32420(18) 0.7579(3)
H19 H -0.0152 0.3444 0.8200
C26 C -0.1363(4) 0.36061(19) 0.6583(4)
H20 H -0.1053 0.4058 0.6524
C27 C -0.2348(4) 0.32978(18) 0.5673(3)
H21 H -0.2700 0.3539 0.4983
C28 C -0.2832(3) 0.26264(15) 0.5764(2)
H22 H -0.3508 0.2424 0.5136
loop_
_geom_bond_atom_site_label_1
_geom_bond_atom_site_label_2
_geom_bond_site_symmetry_1
_geom_bond_site_symmetry_2
O1 H1 1_555 1_555
N1 C7 1_555 1_555
N2 C16 1_555 1_555
N3 N4 1_555 1_555
N4 C20 1_555 1_555
C1 H2 1_555 1_555
C2 C1 1_555 1_555
H3 C2 1_555 1_555
C3 C2 1_555 1_555
H4 C3 1_555 1_555
C4 C3 1_555 1_555
H5 C4 1_555 1_555
C5 C4 1_555 1_555
H6 C5 1_555 1_555
C6 C1 1_555 1_555
C7 C6 1_555 1_555
C8 C7 1_555 1_555
H7 C8 1_555 1_555
C9 C8 1_555 1_555
H8 C9 1_555 1_555
C10 C9 1_555 1_555
C11 C10 1_555 1_555
H9 C11 1_555 1_555
C12 C11 1_555 1_555
H10 C12 1_555 1_555
C13 C12 1_555 1_555
C14 C13 1_555 1_555
H11 C14 1_555 1_555
C15 C14 1_555 1_555
H12 C15 1_555 1_555
C16 N3 1_555 1_555
C17 N2 1_555 1_555
C18 N1 1_555 1_555
C19 H13 1_555 1_555
H14 C19 1_555 1_555
H15 C19 1_555 1_555
C20 C19 1_555 1_555
C21 C20 1_555 1_555
H16 C21 1_555 1_555
H17 C21 1_555 1_555
C22 O1 1_555 1_555
C23 C22 1_555 1_555
C24 C23 1_555 1_555
H18 C24 1_555 1_555
C25 C24 1_555 1_555
H19 C25 1_555 1_555
C26 C25 1_555 1_555
H20 C26 1_555 1_555
C27 C26 1_555 1_555
H21 C27 1_555 1_555
C28 C23 1_555 1_555
H22 C28 1_555 1_555
N3 C22 1_555 1_555
C5 C6 1_555 1_555
C10 C18 1_555 1_555
C13 C17 1_555 1_555
C15 C16 1_555 1_555
C17 C18 1_555 1_555
C21 C22 1_555 1_555
C27 C28 1_555 1_555

#END
