
#######################################################################
#
#                 Cambridge Crystallographic Data Centre
#                                CCDC 
#
#######################################################################
#
# If this CIF has been generated from an entry in the Cambridge 
# Structural Database, then it will include bibliographic, chemical, 
# crystal, experimental, refinement or atomic coordinate data resulting 
# from the CCDC's data processing and validation procedures.
#
#######################################################################

data_DPDECP01
_chemical_formula_moiety         'C22 H10'
_chemical_name_systematic        1,10-Diphenyl-1,3,5,7,9-decapentayne
_symmetry_cell_setting           monoclinic
_symmetry_space_group_name_H-M   'P 21/n'
_symmetry_Int_Tables_number      14
_space_group_name_Hall           '-P 2yn'
loop_
_symmetry_equiv_pos_site_id
_symmetry_equiv_pos_as_xyz
1 x,y,z
2 1/2-x,1/2+y,1/2-z
3 -x,-y,-z
4 1/2+x,1/2-y,1/2+z
_cell_length_a                   8.805(2)
_cell_length_b                   5.218(1)
_cell_length_c                   17.127(5)
_cell_angle_alpha                90
_cell_angle_beta                 94.563(9)
_cell_angle_gamma                90
_cell_volume                     784.397
_exptl_crystal_colour            yellow
_cell_formula_units_Z            2
loop_
_atom_site_label
_atom_site_type_symbol
_atom_site_fract_x
_atom_site_fract_y
_atom_site_fract_z
C1 C 0.6216(6) 0.7850(11) 0.1166(3)
C2 C 0.6974(6) 0.6212(11) 0.0906(3)
C3 C 0.7870(6) 0.4334(12) 0.0625(3)
C4 C 0.8684(6) 0.2684(12) 0.0395(3)
C5 C 0.9587(6) 0.0813(11) 0.0118(3)
C6 C 0.5356(5) 0.9839(10) 0.1490(3)
C7 C 0.4092(7) 1.0954(13) 0.1057(4)
C8 C 0.3296(8) 1.2941(13) 0.1387(4)
C9 C 0.3731(7) 1.3826(13) 0.2115(4)
C10 C 0.4934(8) 1.2764(14) 0.2548(4)
C11 C 0.5768(7) 1.0772(13) 0.2240(4)
H1 H 0.3731(72) 1.007(14) 0.0560(35)
H2 H 0.2334(73) 1.352(12) 0.1025(35)
H3 H 0.3270(68) 1.519(14) 0.2340(35)
H4 H 0.5356(68) 1.315(13) 0.3105(37)
H5 H 0.6643(71) 0.987(13) 0.2548(36)
C5B C 1.0413(6) -0.0813(11) -0.0118(3)
C4B C 1.1316(6) -0.2684(12) -0.0395(3)
C3B C 1.2130(6) -0.4334(12) -0.0625(3)
C2B C 1.3026(6) -0.6212(11) -0.0906(3)
C1B C 1.3784(6) -0.7850(11) -0.1166(3)
C6B C 1.4644(5) -0.9839(10) -0.1490(3)
C7B C 1.5908(7) -1.0954(13) -0.1057(4)
C11B C 1.4232(7) -1.0772(13) -0.2240(4)
C8B C 1.6704(8) -1.2941(13) -0.1387(4)
H1B H 1.6269(72) -1.007(14) -0.0560(35)
C10B C 1.5066(8) -1.2764(14) -0.2548(4)
H5B H 1.3357(71) -0.987(13) -0.2548(36)
C9B C 1.6269(7) -1.3826(13) -0.2115(4)
H2B H 1.7666(73) -1.352(12) -0.1025(35)
H4B H 1.4644(68) -1.315(13) -0.3105(37)
H3B H 1.6730(68) -1.519(14) -0.2340(35)
loop_
_geom_bond_atom_site_label_1
_geom_bond_atom_site_label_2
_geom_bond_site_symmetry_1
_geom_bond_site_symmetry_2
C1 C2 1_555 1_555
C2 C3 1_555 1_555
C3 C4 1_555 1_555
C4 C5 1_555 1_555
C5 C5B 1_555 1_555
C6 C1 1_555 1_555
C7 C6 1_555 1_555
C8 C7 1_555 1_555
C9 C8 1_555 1_555
C10 C9 1_555 1_555
C11 C6 1_555 1_555
H1 C7 1_555 1_555
H2 C8 1_555 1_555
H3 C9 1_555 1_555
H4 C10 1_555 1_555
H5 C11 1_555 1_555
C5B C4B 1_555 1_555
C4B C3B 1_555 1_555
C3B C2B 1_555 1_555
C2B C1B 1_555 1_555
C1B C6B 1_555 1_555
C6B C7B 1_555 1_555
C7B C8B 1_555 1_555
C11B C6B 1_555 1_555
C8B C9B 1_555 1_555
H1B C7B 1_555 1_555
C10B C11B 1_555 1_555
H5B C11B 1_555 1_555
C9B C10B 1_555 1_555
H2B C8B 1_555 1_555
H4B C10B 1_555 1_555
H3B C9B 1_555 1_555
C10 C11 1_555 1_555

#END
