
#######################################################################
#
#                 Cambridge Crystallographic Data Centre
#                                CCDC 
#
#######################################################################
#
# If this CIF has been generated from an entry in the Cambridge 
# Structural Database, then it will include bibliographic, chemical, 
# crystal, experimental, refinement or atomic coordinate data resulting 
# from the CCDC's data processing and validation procedures.
#
#######################################################################

data_DPHDTE01
_chemical_formula_moiety         'C12 H10 Te2'
_chemical_name_systematic        '(M)-Diphenyl ditelluride'
_symmetry_cell_setting           orthorhombic
_symmetry_space_group_name_H-M   'P 21 21 21'
_symmetry_Int_Tables_number      19
_space_group_name_Hall           'P 2ac 2ab'
loop_
_symmetry_equiv_pos_site_id
_symmetry_equiv_pos_as_xyz
1 x,y,z
2 1/2+x,1/2-y,-z
3 -x,1/2+y,1/2-z
4 1/2-x,-y,1/2+z
_cell_length_a                   5.1523(14)
_cell_length_b                   8.571(3)
_cell_length_c                   26.799(7)
_cell_angle_alpha                90
_cell_angle_beta                 90
_cell_angle_gamma                90
_cell_volume                     1183.45
_exptl_crystal_colour            orange
_exptl_crystal_description       prism
_cell_formula_units_Z            4
loop_
_atom_site_label
_atom_site_type_symbol
_atom_site_fract_x
_atom_site_fract_y
_atom_site_fract_z
Te1 Te 0.81469(8) 0.07162(5) 0.086693(14)
Te2 Te 1.12347(7) 0.32642(4) 0.080367(14)
C1 C 0.7874(12) 0.0453(6) 0.1656(2)
C2 C 0.9537(13) -0.0549(8) 0.1905(2)
C3 C 0.9279(13) -0.0782(8) 0.2411(2)
C4 C 0.7349(13) -0.0051(7) 0.2677(2)
C5 C 0.5672(13) 0.0931(8) 0.2427(2)
C6 C 0.5886(12) 0.1193(7) 0.1919(2)
C7 C 0.8270(10) 0.4970(5) 0.0797(2)
C8 C 0.7479(12) 0.5719(7) 0.1236(2)
C9 C 0.5500(12) 0.6812(7) 0.1227(2)
C10 C 0.4251(11) 0.7179(6) 0.0782(2)
C11 C 0.5065(12) 0.6457(7) 0.0345(2)
C12 C 0.7025(12) 0.5363(6) 0.0352(2)
H1 H 1.0862 -0.1078 0.1725
H2 H 1.0451 -0.1458 0.2578
H3 H 0.7176 -0.0218 0.3026
H4 H 0.4334 0.1440 0.2609
H5 H 0.4702 0.1865 0.1752
H6 H 0.8308 0.5475 0.1543
H7 H 0.4991 0.7316 0.1527
H8 H 0.2867 0.7911 0.0777
H9 H 0.4260 0.6720 0.0037
H10 H 0.7536 0.4870 0.0050
loop_
_geom_bond_atom_site_label_1
_geom_bond_atom_site_label_2
_geom_bond_site_symmetry_1
_geom_bond_site_symmetry_2
Te1 Te2 1_555 1_555
Te2 C7 1_555 1_555
C1 Te1 1_555 1_555
C2 C1 1_555 1_555
C3 C2 1_555 1_555
C4 C3 1_555 1_555
C5 C4 1_555 1_555
C6 C1 1_555 1_555
C7 C8 1_555 1_555
C8 C9 1_555 1_555
C9 C10 1_555 1_555
C10 C11 1_555 1_555
C11 C12 1_555 1_555
C12 C7 1_555 1_555
H1 C2 1_555 1_555
H2 C3 1_555 1_555
H3 C4 1_555 1_555
H4 C5 1_555 1_555
H5 C6 1_555 1_555
H6 C8 1_555 1_555
H7 C9 1_555 1_555
H8 C10 1_555 1_555
H9 C11 1_555 1_555
H10 C12 1_555 1_555
C5 C6 1_555 1_555

#END
