
#######################################################################
#
#                 Cambridge Crystallographic Data Centre
#                                CCDC 
#
#######################################################################
#
# If this CIF has been generated from an entry in the Cambridge 
# Structural Database, then it will include bibliographic, chemical, 
# crystal, experimental, refinement or atomic coordinate data resulting 
# from the CCDC's data processing and validation procedures.
#
#######################################################################

data_DPTHOA01
_chemical_formula_moiety         'C15 H10 O1 S2'
_chemical_name_systematic        3,5-Diphenyl-1,2-dithiolylium-4-olate
_symmetry_cell_setting           orthorhombic
_symmetry_space_group_name_H-M   'P n m a'
_symmetry_Int_Tables_number      62
_space_group_name_Hall           '-P 2ac 2n'
loop_
_symmetry_equiv_pos_site_id
_symmetry_equiv_pos_as_xyz
1 x,y,z
2 1/2-x,-y,1/2+z
3 1/2+x,1/2-y,1/2-z
4 -x,1/2+y,-z
5 -x,-y,-z
6 1/2+x,y,1/2-z
7 1/2-x,1/2+y,1/2+z
8 x,1/2-y,z
_cell_length_a                   6.422(1)
_cell_length_b                   26.017(5)
_cell_length_c                   7.164(2)
_cell_angle_alpha                90
_cell_angle_beta                 90
_cell_angle_gamma                90
_cell_volume                     1196.97
_exptl_crystal_colour            'dark red'
_cell_formula_units_Z            4
loop_
_atom_site_label
_atom_site_type_symbol
_atom_site_fract_x
_atom_site_fract_y
_atom_site_fract_z
S1 S 0.21211 0.28855 -0.02489
C1 C -0.05090 0.29580 -0.01270
C2 C -0.17510 0.25000 -0.00070
O1 O -0.37120 0.25000 0.01300
C3 C -0.12850 0.34860 -0.01190
C4 C -0.31660 0.36100 0.07990
C5 C -0.38500 0.41100 0.08830
C6 C -0.27320 0.45000 0.00640
C7 C -0.08790 0.43880 -0.08820
C8 C -0.01800 0.38880 -0.09570
H1 H -0.37900 0.33000 0.14500
H2 H -0.51100 0.41700 0.16100
H3 H -0.31700 0.48700 0.01400
H4 H -0.01200 0.46800 -0.14700
H5 H 0.10800 0.38100 -0.17200
S1G S 0.21211 0.21145 -0.02489
C1G C -0.05090 0.20420 -0.01270
C3G C -0.12850 0.15140 -0.01190
C4G C -0.31660 0.13900 0.07990
C8G C -0.01800 0.11120 -0.09570
C5G C -0.38500 0.08900 0.08830
H1G H -0.37900 0.17000 0.14500
C7G C -0.08790 0.06120 -0.08820
H5G H 0.10800 0.11900 -0.17200
C6G C -0.27320 0.05000 0.00640
H2G H -0.51100 0.08300 0.16100
H4G H -0.01200 0.03200 -0.14700
H3G H -0.31700 0.01300 0.01400
loop_
_geom_bond_atom_site_label_1
_geom_bond_atom_site_label_2
_geom_bond_site_symmetry_1
_geom_bond_site_symmetry_2
S1 C1 1_555 1_555
C1 C2 1_555 1_555
C2 O1 1_555 1_555
C3 C1 1_555 1_555
C4 C3 1_555 1_555
C5 C4 1_555 1_555
C6 C5 1_555 1_555
C7 C6 1_555 1_555
C8 C3 1_555 1_555
H1 C4 1_555 1_555
H2 C5 1_555 1_555
H3 C6 1_555 1_555
H4 C7 1_555 1_555
H5 C8 1_555 1_555
S1G S1 1_555 1_555
C1G C2 1_555 1_555
C3G C1G 1_555 1_555
C4G C3G 1_555 1_555
C8G C3G 1_555 1_555
C5G C4G 1_555 1_555
H1G C4G 1_555 1_555
C7G C8G 1_555 1_555
H5G C8G 1_555 1_555
C6G C5G 1_555 1_555
H2G C5G 1_555 1_555
H4G C7G 1_555 1_555
H3G C6G 1_555 1_555
C7 C8 1_555 1_555
S1G C1G 1_555 1_555
C7G C6G 1_555 1_555

#END
