
#######################################################################
#
#                 Cambridge Crystallographic Data Centre
#                                CCDC 
#
#######################################################################
#
# If this CIF has been generated from an entry in the Cambridge 
# Structural Database, then it will include bibliographic, chemical, 
# crystal, experimental, refinement or atomic coordinate data resulting 
# from the CCDC's data processing and validation procedures.
#
#######################################################################

data_DPYRSE
_chemical_formula_moiety         'C10 H10 N2 2+,Cl4 O1 Se1 2-'
_chemical_name_systematic        'Dipyridinium oxytetrachloroselenate(iv)'
_symmetry_cell_setting           monoclinic
_symmetry_space_group_name_H-M   'C 2/c'
_symmetry_Int_Tables_number      15
_space_group_name_Hall           '-C 2yn'
loop_
_symmetry_equiv_pos_site_id
_symmetry_equiv_pos_as_xyz
1 x,y,z
2 1/2+x,1/2+y,z
3 -x,y,1/2-z
4 1/2-x,1/2+y,1/2-z
5 -x,-y,-z
6 1/2-x,1/2-y,-z
7 x,-y,1/2+z
8 1/2+x,1/2-y,1/2+z
_cell_length_a                   26.62(1)
_cell_length_b                   14.40(2)
_cell_length_c                   15.497(9)
_cell_angle_alpha                90
_cell_angle_beta                 104.39(5)
_cell_angle_gamma                90
_cell_volume                     5754.06
_cell_formula_units_Z            16
loop_
_atom_site_label
_atom_site_type_symbol
_atom_site_fract_x
_atom_site_fract_y
_atom_site_fract_z
Cl1 Cl 0.08910 -0.00110 0.49180
Cl2 Cl 0.14200 0.18610 0.34810
Cl3 Cl 0.18000 0.01630 0.23090
Cl4 Cl 0.14310 -0.15650 0.34050
O1 O 0.07390 0.01210 0.26910
Se1 Se 0.13210 0.01216 0.33140
Cl5 Cl 0.41410 -0.00810 -0.03160
Cl6 Cl 0.26620 -0.00880 -0.03140
Cl7 Cl 0.29330 -0.00220 0.18510
Cl8 Cl 0.42210 0.00150 0.21640
O2 O 0.34490 0.12800 0.07750
Se2 Se 0.34343 0.01411 0.08903
C1 C -0.02310 0.27120 0.13180
C2 C 0.19660 0.16740 0.06790
C3 C 0.21920 0.30810 0.14600
C4 C 0.23250 0.23430 0.10620
C11 C -0.00260 0.18330 0.13450
C16 C 0.00330 0.35000 0.12220
C17 C 0.04920 0.17300 0.12690
C18 C 0.07630 0.25050 0.11680
C19 C 0.13160 0.25110 0.11360
C20 C 0.16630 0.31880 0.15020
H1 H -0.06300 0.27100 0.13900
H2 H 0.20700 0.11100 0.03400
H3 H 0.24700 0.35900 0.17500
H4 H 0.27200 0.23100 0.10700
H9 H -0.02400 0.12200 0.14300
H14 H -0.01400 0.41200 0.11700
H15 H 0.06600 0.10800 0.12900
H16 H 0.15500 0.37700 0.18400
N3 N 0.05370 0.33380 0.11350
N4 N 0.14670 0.17710 0.07150
C5 C 0.27410 0.26600 0.38460
C6 C 0.28730 0.19450 0.34300
C7 C 0.30780 0.33680 0.42100
C8 C 0.34070 0.18500 0.33970
C9 C 0.37410 0.25600 0.37490
C10 C 0.42960 0.25410 0.37570
C12 C 0.45740 0.33140 0.36560
C13 C 0.50390 0.15970 0.37900
C14 C 0.51050 0.32390 0.36320
C15 C 0.53070 0.23740 0.37040
H5 H 0.23400 0.26800 0.38800
H6 H 0.26100 0.14100 0.31700
H7 H 0.29700 0.39300 0.45400
H8 H 0.35200 0.13000 0.30600
H10 H 0.44000 0.39900 0.35800
H11 H 0.52000 0.09400 0.38500
H12 H 0.53200 0.38000 0.35500
H13 H 0.57200 0.22900 0.37000
N1 N 0.35880 0.32840 0.41740
N2 N 0.45200 0.17290 0.38110
loop_
_geom_bond_atom_site_label_1
_geom_bond_atom_site_label_2
_geom_bond_site_symmetry_1
_geom_bond_site_symmetry_2
Cl1 Se1 1_555 1_555
Cl2 Se1 1_555 1_555
Cl3 Se1 1_555 1_555
Cl4 Se1 1_555 1_555
Cl5 Se2 1_555 1_555
Cl6 Se2 1_555 1_555
Cl7 Se2 1_555 1_555
Cl8 Se2 1_555 1_555
C1 C11 1_555 1_555
C2 C4 1_555 1_555
C3 C4 1_555 1_555
C4 H4 1_555 1_555
C5 C6 1_555 1_555
C6 C8 1_555 1_555
C7 C5 1_555 1_555
C8 C9 1_555 1_555
C9 C10 1_555 1_555
C10 C12 1_555 1_555
C11 C17 1_555 1_555
C12 C14 1_555 1_555
C13 C15 1_555 1_555
C14 C15 1_555 1_555
C15 H13 1_555 1_555
C16 C1 1_555 1_555
C17 C18 1_555 1_555
C18 C19 1_555 1_555
C19 C20 1_555 1_555
C20 C3 1_555 1_555
H1 C1 1_555 1_555
H2 C2 1_555 1_555
H3 C3 1_555 1_555
H5 C5 1_555 1_555
H6 C6 1_555 1_555
H7 C7 1_555 1_555
H8 C8 1_555 1_555
H9 C11 1_555 1_555
H10 C12 1_555 1_555
H11 C13 1_555 1_555
H12 C14 1_555 1_555
H14 C16 1_555 1_555
H15 C17 1_555 1_555
H16 C20 1_555 1_555
N1 C7 1_555 1_555
N2 C10 1_555 1_555
N3 C16 1_555 1_555
N4 C2 1_555 1_555
O1 Se1 1_555 1_555
O2 Se2 1_555 1_555
C9 N1 1_555 1_555
C13 N2 1_555 1_555
C18 N3 1_555 1_555
C19 N4 1_555 1_555

#END
