
#######################################################################
#
#                 Cambridge Crystallographic Data Centre
#                                CCDC 
#
#######################################################################
#
# If this CIF has been generated from an entry in the Cambridge 
# Structural Database, then it will include bibliographic, chemical, 
# crystal, experimental, refinement or atomic coordinate data resulting 
# from the CCDC's data processing and validation procedures.
#
#######################################################################

data_DPYZCX
_chemical_formula_moiety         'C6 H8 N2 O2'
_chemical_name_systematic        '1,3-Dimethyl-pyrazole-5-carboxylic acid'
_symmetry_cell_setting           monoclinic
_symmetry_space_group_name_H-M   'P 21/a'
_symmetry_Int_Tables_number      14
_space_group_name_Hall           '-P 2yab'
loop_
_symmetry_equiv_pos_site_id
_symmetry_equiv_pos_as_xyz
1 x,y,z
2 1/2-x,1/2+y,-z
3 -x,-y,-z
4 1/2+x,1/2-y,z
_cell_length_a                   9.67(2)
_cell_length_b                   14.22(4)
_cell_length_c                   4.90(1)
_cell_angle_alpha                90
_cell_angle_beta                 93.20(8)
_cell_angle_gamma                90
_cell_volume                     672.736
_cell_formula_units_Z            4
loop_
_atom_site_label
_atom_site_type_symbol
_atom_site_fract_x
_atom_site_fract_y
_atom_site_fract_z
C11 C 0.38670 0.11920 -0.25370
C3 C 0.37810 0.36930 -0.21820
C31 C 0.31280 0.45550 -0.10420
C4 C 0.47820 0.36210 -0.40780
C5 C 0.49770 0.26580 -0.45190
C51 C 0.58880 0.21870 -0.64000
N1 N 0.41210 0.22040 -0.28610
N2 N 0.33870 0.28220 -0.14300
O51 O 0.59280 0.13490 -0.67510
O52 O 0.66480 0.28110 -0.76780
loop_
_geom_bond_atom_site_label_1
_geom_bond_atom_site_label_2
_geom_bond_site_symmetry_1
_geom_bond_site_symmetry_2
C11 N1 1_555 1_555
C3 C31 1_555 1_555
C4 C3 1_555 1_555
C5 C4 1_555 1_555
C51 C5 1_555 1_555
N1 C5 1_555 1_555
N2 C3 1_555 1_555
O51 C51 1_555 1_555
O52 C51 1_555 1_555
N1 N2 1_555 1_555

#END
