
#######################################################################
#
#                 Cambridge Crystallographic Data Centre
#                                CCDC 
#
#######################################################################
#
# If this CIF has been generated from an entry in the Cambridge 
# Structural Database, then it will include bibliographic, chemical, 
# crystal, experimental, refinement or atomic coordinate data resulting 
# from the CCDC's data processing and validation procedures.
#
#######################################################################

data_DUBJER
_chemical_formula_moiety         'C21 H19 N3 O3 S1'
_chemical_name_systematic        
N-(1,3-Benzothiazol-2-yl)-7-(diethylamino)-2-oxo-2H-chromene-3-carboxamide
_symmetry_cell_setting           monoclinic
_symmetry_space_group_name_H-M   'P 21/n'
_symmetry_Int_Tables_number      14
_space_group_name_Hall           '-P 2yn'
loop_
_symmetry_equiv_pos_site_id
_symmetry_equiv_pos_as_xyz
1 x,y,z
2 1/2-x,1/2+y,1/2-z
3 -x,-y,-z
4 1/2+x,1/2-y,1/2+z
_cell_length_a                   5.7747(2)
_cell_length_b                   17.5540(7)
_cell_length_c                   18.5165(7)
_cell_angle_alpha                90
_cell_angle_beta                 90.809(3)
_cell_angle_gamma                90
_cell_volume                     1876.81
_exptl_crystal_colour            colorless
_exptl_crystal_description       prism
_cell_formula_units_Z            4
loop_
_atom_site_label
_atom_site_type_symbol
_atom_site_fract_x
_atom_site_fract_y
_atom_site_fract_z
C1 C 0.2290(5) 0.67929(17) 0.51719(18)
C2 C 0.3979(6) 0.62431(19) 0.5305(2)
H1 H 0.4016 0.5981 0.5741
C3 C 0.5577(6) 0.6093(2) 0.4790(2)
H2 H 0.6706 0.5725 0.4876
C4 C 0.5540(6) 0.6482(2) 0.4137(2)
H3 H 0.6649 0.6372 0.3793
C5 C 0.3895(6) 0.70264(19) 0.3991(2)
H4 H 0.3872 0.7286 0.3553
C6 C 0.2264(5) 0.71787(16) 0.45162(18)
C7 C -0.0665(5) 0.75437(16) 0.53591(16)
C8 C -0.3869(5) 0.84387(17) 0.54975(17)
C9 C -0.5781(5) 0.86676(16) 0.59660(15)
C10 C -0.6270(5) 0.82823(17) 0.66363(16)
C11 C -0.9520(5) 0.91490(15) 0.68026(16)
C12 C -1.1311(5) 0.93441(17) 0.72356(16)
H5 H -1.1606 0.9066 0.7651
C13 C -1.2712(5) 0.99727(17) 0.70470(16)
C14 C -1.2136(6) 1.03806(18) 0.64090(17)
H6 H -1.3018 1.0802 0.6275
C15 C -1.0348(5) 1.01701(17) 0.59970(17)
H7 H -1.0020 1.0452 0.5586
C16 C -0.8952(5) 0.95341(16) 0.61692(15)
C17 C -0.7089(5) 0.92779(16) 0.57674(15)
H8 H -0.6724 0.9535 0.5345
C18 C -1.5183(6) 0.9772(2) 0.81104(19)
H9 H -1.4932 0.9232 0.8035
H10 H -1.6823 0.9847 0.8193
C19 C -1.5937(9) 1.0881(3) 0.7279(3)
H11 H -1.6178 1.0922 0.6761
H12 H -1.7440 1.0850 0.7505
C20 C -1.4713(11) 1.1534(3) 0.7541(3)
H13 H -1.3255 1.1573 0.7301
H14 H -1.4446 1.1485 0.8051
H15 H -1.5614 1.1984 0.7446
N1 N 0.0588(4) 0.70114(14) 0.56494(14)
N2 N -0.2502(4) 0.78545(13) 0.57330(13)
H16 H -0.2803 0.7662 0.6148
N3 N -1.4549(5) 1.01822(16) 0.74525(16)
O1 O -0.3501(4) 0.87541(12) 0.49171(12)
O2 O -0.5196(4) 0.77671(13) 0.69169(12)
O3 O -0.8186(3) 0.85305(11) 0.70169(10)
S1 S 0.00476(15) 0.78469(5) 0.44992(5)
C21 C -1.3854(7) 1.0017(2) 0.8772(2)
H17 H -1.2223 0.9982 0.8683
H18 H -1.4246 1.0534 0.8888
H19 H -1.4241 0.9692 0.9170
loop_
_geom_bond_atom_site_label_1
_geom_bond_atom_site_label_2
_geom_bond_site_symmetry_1
_geom_bond_site_symmetry_2
C1 C2 1_555 1_555
C2 H1 1_555 1_555
C3 C2 1_555 1_555
H2 C3 1_555 1_555
C4 C3 1_555 1_555
H3 C4 1_555 1_555
C5 C4 1_555 1_555
H4 C5 1_555 1_555
C6 C1 1_555 1_555
C7 N1 1_555 1_555
C8 C9 1_555 1_555
C9 C10 1_555 1_555
C10 O2 1_555 1_555
C11 C12 1_555 1_555
C12 H5 1_555 1_555
C13 C12 1_555 1_555
C14 C13 1_555 1_555
H6 C14 1_555 1_555
C15 C14 1_555 1_555
H7 C15 1_555 1_555
C16 C11 1_555 1_555
C17 C9 1_555 1_555
H8 C17 1_555 1_555
C18 H9 1_555 1_555
H10 C18 1_555 1_555
C19 H11 1_555 1_555
H12 C19 1_555 1_555
C20 C19 1_555 1_555
H13 C20 1_555 1_555
H14 C20 1_555 1_555
H15 C20 1_555 1_555
N1 C1 1_555 1_555
N2 C7 1_555 1_555
H16 N2 1_555 1_555
N3 C13 1_555 1_555
O1 C8 1_555 1_555
O3 C10 1_555 1_555
S1 C6 1_555 1_555
C21 C18 1_555 1_555
H17 C21 1_555 1_555
H18 C21 1_555 1_555
H19 C21 1_555 1_555
C5 C6 1_555 1_555
C7 S1 1_555 1_555
C8 N2 1_555 1_555
C11 O3 1_555 1_555
C15 C16 1_555 1_555
C16 C17 1_555 1_555
C18 N3 1_555 1_555
C19 N3 1_555 1_555

#END
