
#######################################################################
#
#                 Cambridge Crystallographic Data Centre
#                                CCDC 
#
#######################################################################
#
# If this CIF has been generated from an entry in the Cambridge 
# Structural Database, then it will include bibliographic, chemical, 
# crystal, experimental, refinement or atomic coordinate data resulting 
# from the CCDC's data processing and validation procedures.
#
#######################################################################

data_DUBVON
_chemical_formula_moiety         'C50 H35 N3'
_chemical_name_systematic        
N-(4-(9H-carbazol-9-yl)phenyl)-N'-(1-naphthyl)-N,N'-diphenylnaphthalene-1,4-diamine
_symmetry_cell_setting           triclinic
_symmetry_space_group_name_H-M   'P -1'
_symmetry_Int_Tables_number      2
_space_group_name_Hall           '-P 1'
loop_
_symmetry_equiv_pos_site_id
_symmetry_equiv_pos_as_xyz
1 x,y,z
2 -x,-y,-z
_cell_length_a                   9.496(3)
_cell_length_b                   14.007(4)
_cell_length_c                   14.215(4)
_cell_angle_alpha                90.351(4)
_cell_angle_beta                 100.868(5)
_cell_angle_gamma                106.858(5)
_cell_volume                     1773.31
_exptl_crystal_colour            yellow
_exptl_crystal_description       block
_cell_formula_units_Z            2
loop_
_atom_site_label
_atom_site_type_symbol
_atom_site_fract_x
_atom_site_fract_y
_atom_site_fract_z
C1 C 0.4197(5) 0.9410(3) -0.1759(3)
C2 C 0.5442(5) 0.9118(3) -0.1851(3)
H1 H 0.5653 0.8574 -0.1549
C3 C 0.6372(5) 0.9701(4) -0.2434(3)
H2 H 0.7207 0.9526 -0.2536
C4 C 0.6071(6) 1.0516(4) -0.2850(3)
H3 H 0.6726 1.0889 -0.3215
C5 C 0.4847(6) 1.0805(3) -0.2751(3)
H4 H 0.4671 1.1366 -0.3037
C6 C 0.3864(5) 1.0231(3) -0.2206(3)
C7 C 0.2505(5) 1.0312(3) -0.1942(3)
C8 C 0.1645(6) 1.0968(3) -0.2148(3)
H5 H 0.1927 1.1498 -0.2531
C9 C 0.0368(6) 1.0813(4) -0.1770(3)
H6 H -0.0223 1.1239 -0.1906
C10 C -0.0042(5) 1.0035(4) -0.1194(3)
H7 H -0.0912 0.9948 -0.0951
C11 C 0.0796(5) 0.9381(3) -0.0964(3)
H8 H 0.0527 0.8867 -0.0561
C12 C 0.2052(5) 0.9529(3) -0.1364(3)
C13 C 0.3048(5) 0.8154(3) -0.0647(3)
C14 C 0.1860(4) 0.7291(3) -0.0840(3)
H9 H 0.1101 0.7231 -0.1377
C15 C 0.1792(5) 0.6512(3) -0.0238(3)
H10 H 0.0989 0.5930 -0.0371
C16 C 0.2920(4) 0.6601(3) 0.0562(3)
C17 C 0.4105(4) 0.7463(3) 0.0741(3)
H11 H 0.4873 0.7524 0.1272
C18 C 0.4168(5) 0.8241(3) 0.0142(3)
H12 H 0.4972 0.8823 0.0273
C19 C 0.2704(4) 0.4830(3) 0.0862(3)
C20 C 0.3019(4) 0.4626(3) -0.0024(3)
H13 H 0.3327 0.5145 -0.0414
C21 C 0.2876(5) 0.3654(3) -0.0327(3)
H14 H 0.3071 0.3526 -0.0925
C22 C 0.2453(5) 0.2880(3) 0.0241(3)
H15 H 0.2360 0.2230 0.0033
C23 C 0.2167(5) 0.3074(3) 0.1125(3)
H16 H 0.1896 0.2551 0.1518
C24 C 0.2273(4) 0.4025(3) 0.1436(3)
H17 H 0.2059 0.4138 0.2032
C25 C 0.3317(5) 0.6088(3) 0.2206(3)
C26 C 0.4657(5) 0.5961(3) 0.2689(3)
H18 H 0.5241 0.5706 0.2359
C27 C 0.5125(4) 0.6219(3) 0.3672(3)
H19 H 0.6010 0.6113 0.3993
C28 C 0.4314(4) 0.6626(3) 0.4183(3)
C29 C 0.2959(4) 0.6783(3) 0.3701(3)
C30 C 0.2438(4) 0.6487(3) 0.2705(3)
C31 C 0.1032(5) 0.6590(3) 0.2246(3)
H20 H 0.0664 0.6386 0.1600
C32 C 0.0214(5) 0.6986(3) 0.2747(3)
H21 H -0.0718 0.7031 0.2439
C33 C 0.0748(5) 0.7323(3) 0.3708(3)
H22 H 0.0192 0.7611 0.4032
C34 C 0.2091(5) 0.7229(3) 0.4173(3)
H23 H 0.2448 0.7462 0.4813
C35 C 0.4072(4) 0.6425(3) 0.5882(3)
C36 C 0.2774(5) 0.5610(3) 0.5637(3)
H24 H 0.2423 0.5367 0.4999
C37 C 0.2015(5) 0.5167(3) 0.6325(3)
H25 H 0.1149 0.4632 0.6148
C38 C 0.2520(5) 0.5505(3) 0.7284(3)
H26 H 0.2009 0.5198 0.7751
C39 C 0.3788(5) 0.6302(3) 0.7525(3)
H27 H 0.4131 0.6538 0.8165
C40 C 0.4573(5) 0.6766(3) 0.6846(3)
H28 H 0.5434 0.7304 0.7031
C41 C 0.6235(6) 0.7770(4) 0.5416(3)
C42 C 0.6209(6) 0.8718(3) 0.5187(3)
H29 H 0.5288 0.8797 0.4903
C43 C 0.7457(6) 0.9577(4) 0.5347(4)
H30 H 0.7366 1.0202 0.5186
C44 C 0.8896(7) 0.9444(4) 0.5776(3)
H31 H 0.9764 0.9983 0.5923
C45 C 0.8915(5) 0.8412(4) 0.5966(3)
C46 C 0.7552(6) 0.7634(4) 0.5756(3)
C47 C 0.7656(6) 0.6593(4) 0.5971(3)
H32 H 0.6818 0.6032 0.5879
C48 C 0.9067(6) 0.6545(4) 0.6309(3)
H33 H 0.9181 0.5919 0.6441
C49 C 1.0345(7) 0.7353(5) 0.6472(4)
H34 H 1.1275 0.7253 0.6684
C50 C 1.0267(7) 0.8252(5) 0.6332(4)
H35 H 1.1133 0.8792 0.6480
N1 N 0.3079(4) 0.8974(2) -0.1258(2)
N2 N 0.2823(4) 0.5807(2) 0.1204(2)
N3 N 0.4842(4) 0.6890(2) 0.5183(2)
loop_
_geom_bond_atom_site_label_1
_geom_bond_atom_site_label_2
_geom_bond_site_symmetry_1
_geom_bond_site_symmetry_2
C1 C2 1_555 1_555
C2 H1 1_555 1_555
C3 C2 1_555 1_555
H2 C3 1_555 1_555
C4 C3 1_555 1_555
H3 C4 1_555 1_555
C5 C4 1_555 1_555
H4 C5 1_555 1_555
C6 C1 1_555 1_555
C7 C6 1_555 1_555
C8 C7 1_555 1_555
H5 C8 1_555 1_555
C9 C8 1_555 1_555
H6 C9 1_555 1_555
C10 C9 1_555 1_555
H7 C10 1_555 1_555
C11 C10 1_555 1_555
H8 C11 1_555 1_555
C12 C7 1_555 1_555
C13 C14 1_555 1_555
C14 H9 1_555 1_555
C15 C14 1_555 1_555
H10 C15 1_555 1_555
C16 C15 1_555 1_555
C17 C16 1_555 1_555
H11 C17 1_555 1_555
C18 C13 1_555 1_555
H12 C18 1_555 1_555
C19 C20 1_555 1_555
C20 H13 1_555 1_555
C21 C20 1_555 1_555
H14 C21 1_555 1_555
C22 C21 1_555 1_555
H15 C22 1_555 1_555
C23 C22 1_555 1_555
H16 C23 1_555 1_555
C24 C19 1_555 1_555
H17 C24 1_555 1_555
C25 C26 1_555 1_555
C26 H18 1_555 1_555
C27 C26 1_555 1_555
H19 C27 1_555 1_555
C28 C27 1_555 1_555
C29 C28 1_555 1_555
C30 C25 1_555 1_555
C31 C30 1_555 1_555
H20 C31 1_555 1_555
C32 C31 1_555 1_555
H21 C32 1_555 1_555
C33 C32 1_555 1_555
H22 C33 1_555 1_555
C34 C29 1_555 1_555
H23 C34 1_555 1_555
C35 C36 1_555 1_555
C36 H24 1_555 1_555
C37 C36 1_555 1_555
H25 C37 1_555 1_555
C38 C37 1_555 1_555
H26 C38 1_555 1_555
C39 C38 1_555 1_555
H27 C39 1_555 1_555
C40 C35 1_555 1_555
H28 C40 1_555 1_555
C41 C42 1_555 1_555
C42 H29 1_555 1_555
C43 C42 1_555 1_555
H30 C43 1_555 1_555
C44 C43 1_555 1_555
H31 C44 1_555 1_555
C45 C44 1_555 1_555
C46 C41 1_555 1_555
C47 C46 1_555 1_555
H32 C47 1_555 1_555
C48 C47 1_555 1_555
H33 C48 1_555 1_555
C49 C48 1_555 1_555
H34 C49 1_555 1_555
C50 C45 1_555 1_555
H35 C50 1_555 1_555
N1 C1 1_555 1_555
N2 C16 1_555 1_555
N3 C28 1_555 1_555
C5 C6 1_555 1_555
C11 C12 1_555 1_555
C12 N1 1_555 1_555
C13 N1 1_555 1_555
C17 C18 1_555 1_555
C19 N2 1_555 1_555
C23 C24 1_555 1_555
C25 N2 1_555 1_555
C29 C30 1_555 1_555
C33 C34 1_555 1_555
C35 N3 1_555 1_555
C39 C40 1_555 1_555
C41 N3 1_555 1_555
C45 C46 1_555 1_555
C49 C50 1_555 1_555

#END
