
#######################################################################
#
#                 Cambridge Crystallographic Data Centre
#                                CCDC 
#
#######################################################################
#
# If this CIF has been generated from an entry in the Cambridge 
# Structural Database, then it will include bibliographic, chemical, 
# crystal, experimental, refinement or atomic coordinate data resulting 
# from the CCDC's data processing and validation procedures.
#
#######################################################################

data_DUBYUU
_chemical_formula_moiety         'C17 H21 F3 N1 O5 P1'
_chemical_name_systematic        
'Ethyl 2-(N-(5,5-dimethyl-2-oxo-1,3,2-dioxaphosphorinan-2-yl)-(N-phenyl)amino)-2-trifluoromethylacrylate'
_symmetry_cell_setting           triclinic
_symmetry_space_group_name_H-M   'P -1'
_symmetry_Int_Tables_number      2
_space_group_name_Hall           '-P 1'
loop_
_symmetry_equiv_pos_site_id
_symmetry_equiv_pos_as_xyz
1 x,y,z
2 -x,-y,-z
_cell_length_a                   8.998(2)
_cell_length_b                   10.421(2)
_cell_length_c                   11.383(2)
_cell_angle_alpha                89.95(1)
_cell_angle_beta                 103.68(1)
_cell_angle_gamma                109.98(1)
_cell_volume                     970.922
_cell_formula_units_Z            2
loop_
_atom_site_label
_atom_site_type_symbol
_atom_site_fract_x
_atom_site_fract_y
_atom_site_fract_z
P1 P 0.15214(6) 0.35238(5) 0.60627(4)
F1 F 0.1298(2) 0.0418(1) 0.8721(1)
F2 F -0.0674(2) 0.0936(1) 0.7688(1)
F3 F 0.0205(2) 0.1559(1) 0.9580(1)
O1 O 0.3084(1) 0.4369(1) 0.5632(1)
O2 O 0.0487(1) 0.2386(1) 0.4979(1)
O3 O 0.0649(2) 0.4317(1) 0.6469(1)
O4 O 0.4728(2) 0.5331(1) 0.8476(1)
O5 O 0.3094(2) 0.6205(1) 0.9160(1)
N1 N 0.2187(2) 0.2649(1) 0.7147(1)
C1 C 0.2794(2) 0.4846(2) 0.4406(2)
C2 C 0.1866(2) 0.3631(2) 0.3459(2)
C3 C 0.0252(2) 0.2841(2) 0.3746(2)
C4 C 0.1483(2) 0.4190(2) 0.2219(2)
C5 C 0.2881(3) 0.2720(2) 0.3434(2)
C6 C 0.3178(2) 0.1856(2) 0.6973(2)
C7 C 0.2486(2) 0.0635(2) 0.6233(2)
C8 C 0.3468(3) -0.0091(2) 0.6061(2)
C9 C 0.5128(3) 0.0402(2) 0.6628(2)
C10 C 0.5804(2) 0.1617(2) 0.7368(2)
C11 C 0.4835(2) 0.2348(2) 0.7547(2)
C12 C 0.1856(2) 0.2731(2) 0.8301(2)
C13 C 0.0691(2) 0.1418(2) 0.8591(2)
C14 C 0.2380(2) 0.3847(2) 0.9056(2)
C15 C 0.3540(2) 0.5187(2) 0.8848(2)
C16 C 0.4074(3) 0.7565(2) 0.8907(2)
C17 C 0.3275(3) 0.8537(2) 0.9167(2)
H1 H 0.215(2) 0.550(2) 0.442(2)
H2 H 0.394(2) 0.534(2) 0.428(2)
H3 H -0.043(2) 0.344(2) 0.372(2)
H4 H -0.027(2) 0.195(2) 0.321(2)
H5 H 0.257(2) 0.464(2) 0.197(2)
H6 H 0.087(2) 0.337(2) 0.159(2)
H7 H 0.085(2) 0.479(2) 0.223(2)
H8 H 0.304(2) 0.230(2) 0.423(2)
H9 H 0.392(3) 0.328(2) 0.322(2)
H10 H 0.227(2) 0.199(2) 0.287(2)
H11 H 0.130(2) 0.031(2) 0.583(2)
H12 H 0.302(2) -0.100(2) 0.554(2)
H13 H 0.580(2) -0.008(2) 0.653(2)
H14 H 0.696(2) 0.191(2) 0.774(2)
H15 H 0.526(2) 0.312(2) 0.808(2)
H16 H 0.202(2) 0.384(2) 0.980(2)
H17 H 0.410(3) 0.753(2) 0.802(2)
H18 H 0.522(3) 0.778(2) 0.946(2)
H19 H 0.327(3) 0.858(2) 1.001(2)
H20 H 0.382(3) 0.947(2) 0.888(2)
H21 H 0.214(3) 0.829(2) 0.871(2)
loop_
_geom_bond_atom_site_label_1
_geom_bond_atom_site_label_2
_geom_bond_site_symmetry_1
_geom_bond_site_symmetry_2
P1 O1 1_555 1_555
F1 C13 1_555 1_555
F2 C13 1_555 1_555
F3 C13 1_555 1_555
O1 C1 1_555 1_555
O2 P1 1_555 1_555
O3 P1 1_555 1_555
O4 C15 1_555 1_555
O5 C15 1_555 1_555
N1 P1 1_555 1_555
C1 C2 1_555 1_555
C2 C3 1_555 1_555
C3 O2 1_555 1_555
C4 C2 1_555 1_555
C5 C2 1_555 1_555
C6 N1 1_555 1_555
C7 C6 1_555 1_555
C8 C7 1_555 1_555
C9 C8 1_555 1_555
C10 C9 1_555 1_555
C11 C6 1_555 1_555
C12 N1 1_555 1_555
C13 C12 1_555 1_555
C14 C12 1_555 1_555
C15 C14 1_555 1_555
C16 O5 1_555 1_555
C17 C16 1_555 1_555
H1 C1 1_555 1_555
H2 C1 1_555 1_555
H3 C3 1_555 1_555
H4 C3 1_555 1_555
H5 C4 1_555 1_555
H6 C4 1_555 1_555
H7 C4 1_555 1_555
H8 C5 1_555 1_555
H9 C5 1_555 1_555
H10 C5 1_555 1_555
H11 C7 1_555 1_555
H12 C8 1_555 1_555
H13 C9 1_555 1_555
H14 C10 1_555 1_555
H15 C11 1_555 1_555
H16 C14 1_555 1_555
H17 C16 1_555 1_555
H18 C16 1_555 1_555
H19 C17 1_555 1_555
H20 C17 1_555 1_555
H21 C17 1_555 1_555
C10 C11 1_555 1_555

#END
