
#######################################################################
#
#                 Cambridge Crystallographic Data Centre
#                                CCDC 
#
#######################################################################
#
# If this CIF has been generated from an entry in the Cambridge 
# Structural Database, then it will include bibliographic, chemical, 
# crystal, experimental, refinement or atomic coordinate data resulting 
# from the CCDC's data processing and validation procedures.
#
#######################################################################

data_DUBZAD
_chemical_formula_moiety         'C26 H22 F3 N3 O3,2(C1 H4 O1)'
_chemical_name_systematic        
"N-methyl-N-(3-(3-(2'-methyl-2-(trifluoromethyl)biphenyl-4-yl)-1,2,4-oxadiazol-5-yl)benzyl)glycine methanol solvate"
_symmetry_cell_setting           triclinic
_symmetry_space_group_name_H-M   'P -1'
_symmetry_Int_Tables_number      2
_space_group_name_Hall           '-P 1'
loop_
_symmetry_equiv_pos_site_id
_symmetry_equiv_pos_as_xyz
1 x,y,z
2 -x,-y,-z
_cell_length_a                   8.3161(14)
_cell_length_b                   10.255(2)
_cell_length_c                   17.151(3)
_cell_angle_alpha                74.408(18)
_cell_angle_beta                 76.910(15)
_cell_angle_gamma                80.130(16)
_cell_volume                     1362.67
_cell_formula_units_Z            2
loop_
_atom_site_label
_atom_site_type_symbol
_atom_site_fract_x
_atom_site_fract_y
_atom_site_fract_z
O1 O 0.1625(9) 0.5572(7) 0.4435(4)
C1 C -0.1503(13) 1.0631(10) 0.2766(9)
H1 H -0.0731 0.9900 0.2939
C2 C -0.2725(15) 1.0627(15) 0.4234(10)
C3 C -0.0384(16) 0.7520(14) 0.5869(6)
H2 H 0.0071 0.7555 0.5317
C4 C -0.1707(14) 0.8481(14) 0.6061(9)
N1 N 0.1354(9) 0.4331(7) 0.6011(4)
C5 C 0.0271(12) 0.6532(11) 0.6452(8)
C6 C -0.2321(12) 0.8377(11) 0.6912(8)
H3 H -0.3176 0.9021 0.7073
C7 C -0.3838(12) 1.2793(10) 0.2263(9)
H4 H -0.4615 1.3524 0.2094
C8 C -0.0372(14) 0.6450(10) 0.7272(7)
H5 H 0.0079 0.5781 0.7676
C9 C 0.2846(16) 0.4740(11) 0.4567(7)
C10 C -0.3812(13) 1.2277(13) 0.3083(9)
H6 H -0.4570 1.2662 0.3473
C11 C -0.2715(18) 1.2229(13) 0.1691(7)
O2 O 0.4194(10) 0.4568(7) 0.4088(4)
C12 C 0.1792(11) 0.5518(9) 0.6249(5)
H7 H 0.2585 0.5987 0.5799
H8 H 0.2322 0.5178 0.6725
C13 C -0.1723(15) 0.7395(14) 0.7491(7)
H9 H -0.2199 0.7332 0.8044
C14 C -0.2782(15) 1.2911(18) 0.0766(9)
C15 C -0.1517(16) 1.1189(13) 0.1924(8)
C16 C 0.2746(11) 0.3799(9) 0.5437(6)
H10 H 0.2589 0.2890 0.5425
H11 H 0.3779 0.3741 0.5624
F1 F 0.0778(10) 1.1574(10) 0.0846(5)
F2 F -0.0625(11) 1.0117(10) 0.0853(6)
F3 F 0.0880(11) 0.9677(10) 0.1697(4)
C17 C -0.3578(18) 1.2280(14) 0.0377(11)
C18 C 0.0799(13) 0.3269(10) 0.6755(7)
H12 H -0.0104 0.3663 0.7112
H13 H 0.1705 0.2898 0.7041
H14 H 0.0434 0.2556 0.6597
C19 C -0.3677(19) 1.286(3) -0.0447(12)
H15 H -0.4138 1.2408 -0.0731
C20 C -0.311(2) 1.407(2) -0.0839(9)
H16 H -0.3226 1.4489 -0.1379
C21 C -0.2688(15) 1.1210(13) 0.3331(8)
C22 C -0.018(2) 1.0616(18) 0.1370(10)
N2 N -0.3741(9) 1.1272(6) 0.4762(5)
N3 N -0.1813(10) 0.9582(11) 0.4554(6)
C23 C -0.2303(13) 0.9488(13) 0.5405(9)
C24 C -0.2172(16) 1.4107(17) 0.0385(10)
H17 H -0.1646 1.4538 0.0653
C25 C -0.443(2) 1.106(2) 0.0773(11)
H18 H -0.5503 1.1203 0.0622
H19 H -0.4570 1.0901 0.1361
H20 H -0.3784 1.0290 0.0595
C26 C -0.2366(19) 1.4665(16) -0.0426(12)
H21 H -0.1960 1.5493 -0.0698
O3 O -0.3474(11) 1.0490(10) 0.5541(6)
O4 O 0.4608(17) 0.6409(11) 0.2650(5)
H22 H 0.4728 0.5918 0.3102
C27 C 0.3935(19) 0.7738(15) 0.2735(9)
H23 H 0.3301 0.8170 0.2312
H24 H 0.4822 0.8261 0.2686
H25 H 0.3226 0.7684 0.3266
O5 O 0.7618(13) 0.6103(13) 0.1758(8)
H26 H 0.8502 0.5747 0.1898
C28 C 0.793(3) 0.719(2) 0.1026(13)
H27 H 0.8586 0.6821 0.0581
H28 H 0.8515 0.7836 0.1130
H29 H 0.6889 0.7641 0.0879
loop_
_geom_bond_atom_site_label_1
_geom_bond_atom_site_label_2
_geom_bond_site_symmetry_1
_geom_bond_site_symmetry_2
O1 C9 1_555 1_555
C1 H1 1_555 1_555
C2 C21 1_555 1_555
C3 H2 1_555 1_555
C4 C3 1_555 1_555
N1 C12 1_555 1_555
C5 C3 1_555 1_555
C6 C4 1_555 1_555
H3 C6 1_555 1_555
C7 H4 1_555 1_555
C8 C5 1_555 1_555
H5 C8 1_555 1_555
C9 O2 1_555 1_555
C10 C7 1_555 1_555
H6 C10 1_555 1_555
C11 C7 1_555 1_555
C12 C5 1_555 1_555
H7 C12 1_555 1_555
H8 C12 1_555 1_555
C13 C6 1_555 1_555
H9 C13 1_555 1_555
C14 C11 1_555 1_555
C15 C1 1_555 1_555
C16 N1 1_555 1_555
H10 C16 1_555 1_555
H11 C16 1_555 1_555
F1 C22 1_555 1_555
F2 C22 1_555 1_555
F3 C22 1_555 1_555
C17 C14 1_555 1_555
C18 N1 1_555 1_555
H12 C18 1_555 1_555
H13 C18 1_555 1_555
H14 C18 1_555 1_555
C19 C17 1_555 1_555
H15 C19 1_555 1_555
C20 C19 1_555 1_555
H16 C20 1_555 1_555
C21 C1 1_555 1_555
C22 C15 1_555 1_555
N2 C2 1_555 1_555
N3 C2 1_555 1_555
C23 C4 1_555 1_555
C24 C14 1_555 1_555
H17 C24 1_555 1_555
C25 C17 1_555 1_555
H18 C25 1_555 1_555
H19 C25 1_555 1_555
H20 C25 1_555 1_555
C26 C20 1_555 1_555
H21 C26 1_555 1_555
O3 N2 1_555 1_555
O4 H22 1_555 1_555
C27 O4 1_555 1_555
H23 C27 1_555 1_555
H24 C27 1_555 1_555
H25 C27 1_555 1_555
O5 H26 1_555 1_555
C28 O5 1_555 1_555
H27 C28 1_555 1_555
H28 C28 1_555 1_555
H29 C28 1_555 1_555
C8 C13 1_555 1_555
C9 C16 1_555 1_555
C10 C21 1_555 1_555
C11 C15 1_555 1_555
N3 C23 1_555 1_555
C23 O3 1_555 1_555
C24 C26 1_555 1_555

#END
