
#######################################################################
#
#                 Cambridge Crystallographic Data Centre
#                                CCDC 
#
#######################################################################
#
# If this CIF has been generated from an entry in the Cambridge 
# Structural Database, then it will include bibliographic, chemical, 
# crystal, experimental, refinement or atomic coordinate data resulting 
# from the CCDC's data processing and validation procedures.
#
#######################################################################

data_DUCKAP
_chemical_formula_moiety         '2(C12 H24 O6),C4 H6 N3 1+,I3 1-'
_chemical_name_systematic        
'bis(Cyanomethyl)ammonium tri-iodide bis(18-crown-6)'
_symmetry_cell_setting           orthorhombic
_symmetry_space_group_name_H-M   'P 21 21 21'
_symmetry_Int_Tables_number      19
_space_group_name_Hall           'P 2ac 2ab'
loop_
_symmetry_equiv_pos_site_id
_symmetry_equiv_pos_as_xyz
1 x,y,z
2 1/2-x,-y,1/2+z
3 -x,1/2+y,1/2-z
4 1/2+x,1/2-y,-z
_cell_length_a                   14.088(3)
_cell_length_b                   15.806(3)
_cell_length_c                   18.117(4)
_cell_angle_alpha                90
_cell_angle_beta                 90
_cell_angle_gamma                90
_cell_volume                     4034.2
_exptl_crystal_colour            yellow
_exptl_crystal_description       lamellar
_cell_formula_units_Z            4
loop_
_atom_site_label
_atom_site_type_symbol
_atom_site_fract_x
_atom_site_fract_y
_atom_site_fract_z
N1 N 0.8091(4) 0.8935(4) -0.1201(3)
C1 C 0.7614(4) 0.9328(4) -0.0829(3)
C2 C 0.7041(4) 0.9838(3) -0.0344(3)
H1 H 0.6747 1.0286 -0.0630
H2 H 0.7450 1.0102 0.0020
N2 N 0.6290(3) 0.9360(3) 0.0044(2)
C3 C 0.6526(3) 0.8475(3) 0.0249(3)
H3 H 0.6019 0.8248 0.0553
H4 H 0.6562 0.8135 -0.0196
C4 C 0.7431(4) 0.8407(4) 0.0654(3)
N3 N 0.8117(4) 0.8354(4) 0.0966(3)
H5 H 0.583(3) 0.932(2) -0.0181(19)
H6 H 0.607(3) 0.969(3) 0.049(3)
I1 I 0.22093(4) 0.14222(4) -0.14696(3)
I2 I 0.21570(3) 0.11763(2) 0.01118(2)
I3 I 0.21296(4) 0.08050(3) 0.16784(2)
O1 O 0.5831(3) 0.8380(3) 0.8436(2)
C5 C 0.4897(5) 0.8472(5) 0.8207(4)
H7 H 0.4535 0.7971 0.8335
H8 H 0.4874 0.8542 0.7675
C6 C 0.4491(5) 0.9210(6) 0.8565(4)
H9 H 0.4824 0.9710 0.8394
H10 H 0.3833 0.9262 0.8416
O2 O 0.4534(3) 0.9187(3) 0.9355(2)
C7 C 0.3865(6) 0.8756(7) 0.9681(4)
H11 H 0.3949 0.8172 0.9529
H12 H 0.3271 0.8944 0.9467
C8 C 0.3729(5) 0.8741(6) 1.0438(5)
H13 H 0.3275 0.9180 1.0564
H14 H 0.3443 0.8202 1.0567
O3 O 0.4500(3) 0.8848(4) 1.0857(3)
C9 C 0.4429(6) 0.8756(6) 1.1645(4)
H15 H 0.4869 0.9147 1.1876
H16 H 0.3794 0.8917 1.1797
C10 C 0.4615(5) 0.7946(6) 1.1908(4)
H17 H 0.4536 0.7932 1.2440
H18 H 0.4174 0.7546 1.1691
O4 O 0.5528(3) 0.7729(3) 1.1727(2)
C11 C 0.5684(6) 0.6860(6) 1.1861(4)
H19 H 0.5118 0.6549 1.1722
H20 H 0.5781 0.6778 1.2386
C12 C 0.6472(6) 0.6513(5) 1.1477(4)
H21 H 0.7047 0.6766 1.1671
H22 H 0.6500 0.5911 1.1580
O5 O 0.6463(4) 0.6626(3) 1.0708(2)
C13 C 0.5757(6) 0.6248(5) 1.0354(5)
H23 H 0.5178 0.6563 1.0446
H24 H 0.5673 0.5687 1.0561
C14 C 0.5883(6) 0.6168(5) 0.9555(4)
H25 H 0.6358 0.5738 0.9459
H26 H 0.5291 0.5979 0.9338
O6 O 0.6148(4) 0.6885(3) 0.9228(2)
C15 C 0.6044(6) 0.6862(5) 0.8464(4)
H27 H 0.5393 0.6724 0.8340
H28 H 0.6451 0.6426 0.8260
C16 C 0.6285(6) 0.7653(5) 0.8153(4)
H29 H 0.6154 0.7625 0.7628
H30 H 0.6964 0.7730 0.8209
O7 O 0.5369(4) 0.1200(3) 0.0027(3)
O8 O 0.7881(4) 0.1098(3) -0.1533(3)
O9 O 0.6047(3) 0.0341(3) 0.1294(2)
O10 O 0.8019(4) 0.0516(3) 0.1216(3)
O11 O 0.8835(4) 0.1086(5) -0.0138(4)
O12 O 0.5862(4) 0.1043(3) -0.1471(3)
C17 C 0.5561(7) 0.1128(6) 0.1295(5)
H31 H 0.6012 0.1590 0.1265
H32 H 0.5200 0.1190 0.1748
C18 C 0.7561(6) 0.0768(5) 0.1825(4)
H33 H 0.7401 0.1364 0.1790
H34 H 0.7957 0.0685 0.2257
C19 C 0.5415(6) 0.1717(6) -0.1189(5)
H35 H 0.5013 0.1966 -0.1565
H36 H 0.5881 0.2137 -0.1044
C20 C 0.8882(7) 0.0908(10) 0.1113(6)
H37 H 0.8803 0.1503 0.1226
H38 H 0.9322 0.0678 0.1473
C21 C 0.7255(7) 0.1631(6) -0.1962(5)
H39 H 0.7135 0.2154 -0.1699
H40 H 0.7553 0.1770 -0.2430
C22 C 0.8722(8) 0.1482(7) -0.1353(6)
H41 H 0.8593 0.2064 -0.1216
H42 H 0.9124 0.1491 -0.1788
C23 C 0.9284(6) 0.0850(8) 0.0455(8)
H43 H 0.9869 0.1172 0.0475
H44 H 0.9462 0.0262 0.0385
C24 C 0.4935(7) 0.1145(7) 0.0669(5)
H45 H 0.4553 0.0634 0.0673
H46 H 0.4508 0.1623 0.0720
C25 C 0.9225(7) 0.1088(8) -0.0772(7)
H47 H 0.9345 0.0506 -0.0912
H48 H 0.9837 0.1366 -0.0727
C26 C 0.4849(6) 0.1498(6) -0.0566(5)
H49 H 0.4495 0.1994 -0.0410
H50 H 0.4395 0.1069 -0.0711
C27 C 0.6693(6) 0.0255(6) 0.1883(4)
H51 H 0.6875 -0.0336 0.1919
H52 H 0.6370 0.0404 0.2337
C28 C 0.6437(7) 0.1228(7) -0.2085(5)
H53 H 0.6581 0.0700 -0.2332
H54 H 0.6067 0.1568 -0.2425
loop_
_geom_bond_atom_site_label_1
_geom_bond_atom_site_label_2
_geom_bond_site_symmetry_1
_geom_bond_site_symmetry_2
N1 C1 1_555 1_555
C1 C2 1_555 1_555
C2 H1 1_555 1_555
H2 C2 1_555 1_555
N2 C2 1_555 1_555
C3 N2 1_555 1_555
H3 C3 1_555 1_555
H4 C3 1_555 1_555
C4 C3 1_555 1_555
N3 C4 1_555 1_555
H5 N2 1_555 1_555
H6 N2 1_555 1_555
I1 I2 1_555 1_555
I2 I3 1_555 1_555
O1 C5 1_555 1_555
C5 H7 1_555 1_555
H8 C5 1_555 1_555
C6 C5 1_555 1_555
H9 C6 1_555 1_555
H10 C6 1_555 1_555
O2 C6 1_555 1_555
C7 O2 1_555 1_555
H11 C7 1_555 1_555
H12 C7 1_555 1_555
C8 C7 1_555 1_555
H13 C8 1_555 1_555
H14 C8 1_555 1_555
O3 C8 1_555 1_555
C9 O3 1_555 1_555
H15 C9 1_555 1_555
H16 C9 1_555 1_555
C10 C9 1_555 1_555
H17 C10 1_555 1_555
H18 C10 1_555 1_555
O4 C10 1_555 1_555
C11 O4 1_555 1_555
H19 C11 1_555 1_555
H20 C11 1_555 1_555
C12 C11 1_555 1_555
H21 C12 1_555 1_555
H22 C12 1_555 1_555
O5 C12 1_555 1_555
C13 O5 1_555 1_555
H23 C13 1_555 1_555
H24 C13 1_555 1_555
C14 C13 1_555 1_555
H25 C14 1_555 1_555
H26 C14 1_555 1_555
O6 C14 1_555 1_555
C15 O6 1_555 1_555
H27 C15 1_555 1_555
H28 C15 1_555 1_555
C16 O1 1_555 1_555
H29 C16 1_555 1_555
H30 C16 1_555 1_555
O7 C24 1_555 1_555
O8 C21 1_555 1_555
O9 C17 1_555 1_555
O10 C18 1_555 1_555
O11 C23 1_555 1_555
O12 C19 1_555 1_555
C17 H31 1_555 1_555
H32 C17 1_555 1_555
C18 H33 1_555 1_555
H34 C18 1_555 1_555
C19 H35 1_555 1_555
H36 C19 1_555 1_555
C20 O10 1_555 1_555
H37 C20 1_555 1_555
H38 C20 1_555 1_555
C21 H39 1_555 1_555
H40 C21 1_555 1_555
C22 O8 1_555 1_555
H41 C22 1_555 1_555
H42 C22 1_555 1_555
C23 C20 1_555 1_555
H43 C23 1_555 1_555
H44 C23 1_555 1_555
C24 C17 1_555 1_555
H45 C24 1_555 1_555
H46 C24 1_555 1_555
C25 O11 1_555 1_555
H47 C25 1_555 1_555
H48 C25 1_555 1_555
C26 O7 1_555 1_555
H49 C26 1_555 1_555
H50 C26 1_555 1_555
C27 O9 1_555 1_555
H51 C27 1_555 1_555
H52 C27 1_555 1_555
C28 O12 1_555 1_555
H53 C28 1_555 1_555
H54 C28 1_555 1_555
C15 C16 1_555 1_555
C18 C27 1_555 1_555
C19 C26 1_555 1_555
C21 C28 1_555 1_555
C22 C25 1_555 1_555

#END
