
#######################################################################
#
#                 Cambridge Crystallographic Data Centre
#                                CCDC 
#
#######################################################################
#
# If this CIF has been generated from an entry in the Cambridge 
# Structural Database, then it will include bibliographic, chemical, 
# crystal, experimental, refinement or atomic coordinate data resulting 
# from the CCDC's data processing and validation procedures.
#
#######################################################################

data_DUCKUJ
_chemical_formula_moiety         
'C12 H24 O6,C7 H3 N2 O6 1-,C6 H8 N1 O2 1+,C7 H4 N2 O6'
_chemical_name_systematic        
'2,6-Dihydroxyanilinium 3,5-dinitrobenzoate 3,5-dinitrobenzoic acid 18-crown-6'
_symmetry_cell_setting           monoclinic
_symmetry_space_group_name_H-M   'C 2/c'
_symmetry_Int_Tables_number      15
_space_group_name_Hall           '-C 2yn'
loop_
_symmetry_equiv_pos_site_id
_symmetry_equiv_pos_as_xyz
1 x,y,z
2 -x,y,1/2-z
3 1/2+x,1/2+y,z
4 1/2-x,1/2+y,1/2-z
5 -x,-y,-z
6 x,-y,1/2+z
7 1/2-x,1/2-y,-z
8 1/2+x,1/2-y,1/2+z
_cell_length_a                   30.760(6)
_cell_length_b                   8.6651(17)
_cell_length_c                   14.786(3)
_cell_angle_alpha                90
_cell_angle_beta                 110.28(3)
_cell_angle_gamma                90
_cell_volume                     3696.73
_exptl_crystal_colour            colorless
_exptl_crystal_description       rod-like
_cell_formula_units_Z            4
loop_
_atom_site_label
_atom_site_type_symbol
_atom_site_fract_x
_atom_site_fract_y
_atom_site_fract_z
C5 C 0.88231(17) 0.2034(7) 0.6599(4)
H4 H 0.8619 0.1178 0.6312
H5 H 0.8659 0.2988 0.6359
O2 O 0.92326(11) 0.1950(4) 0.6347(2)
C6 C 0.91298(18) 0.2128(7) 0.5339(4)
H6 H 0.9011 0.3157 0.5139
H7 H 0.8896 0.1386 0.4989
C7 C 0.9557(2) 0.1876(7) 0.5126(4)
H8 H 0.9686 0.0873 0.5365
H9 H 0.9488 0.1898 0.4434
O3 O 0.98831(13) 0.3050(5) 0.5574(3)
C8 C 1.0300(3) 0.2895(14) 0.5359(5)
H10 H 1.0370 0.1805 0.5351
H11 H 1.0243 0.3293 0.4715
C9 C 1.0674(2) 0.3608(14) 0.5966(5)
H12 H 1.0631 0.4711 0.5862
H13 H 1.0940 0.3317 0.5792
C10 C 1.10356(19) 0.1970(7) 0.7324(4)
H14 H 1.1308 0.1908 0.7136
H15 H 1.0845 0.1068 0.7076
O4 O 1.07842(13) 0.3323(6) 0.6951(3)
C5A C 1.11769(17) 0.2034(7) 0.8401(4)
H4A H 1.1381 0.1178 0.8688
H5A H 1.1341 0.2988 0.8641
O2A O 1.07674(11) 0.1950(4) 0.8653(2)
C6A C 1.08702(18) 0.2128(7) 0.9661(4)
H6A H 1.0989 0.3157 0.9861
H7A H 1.1104 0.1386 1.0011
C7A C 1.0443(2) 0.1876(7) 0.9874(4)
H8A H 1.0314 0.0873 0.9635
H9A H 1.0512 0.1898 1.0566
O3A O 1.01169(13) 0.3050(5) 0.9426(3)
C8A C 0.9700(3) 0.2895(14) 0.9641(5)
H10A H 0.9630 0.1805 0.9649
H11A H 0.9757 0.3293 1.0285
C9A C 0.9326(2) 0.3608(14) 0.9034(5)
H12A H 0.9369 0.4711 0.9138
H13A H 0.9060 0.3317 0.9208
C10A C 0.89644(19) 0.1970(7) 0.7676(4)
H14A H 0.8692 0.1908 0.7864
H15A H 0.9155 0.1068 0.7924
O4A O 0.92158(13) 0.3323(6) 0.8049(3)
O5 O 0.87107(14) 0.3330(6) 0.3045(4)
N2 N 0.83875(16) 0.2482(6) 0.2654(3)
O6 O 0.83878(17) 0.1105(6) 0.2802(4)
C11 C 0.79559(16) 0.3184(6) 0.1977(3)
C12 C 0.76017(16) 0.2214(6) 0.1455(4)
H16 H 0.7629 0.1148 0.1526
C13 C 0.72044(16) 0.2890(6) 0.0821(4)
N3 N 0.68019(18) 0.1899(7) 0.0225(4)
O7 O 0.68245(18) 0.0536(6) 0.0408(5)
O8 O 0.64856(13) 0.2555(5) -0.0405(3)
C14 C 0.71626(16) 0.4479(6) 0.0729(3)
H17 H 0.6894 0.4921 0.0303
C15 C 0.75262(15) 0.5404(6) 0.1280(3)
C16 C 0.74797(16) 0.7099(6) 0.1198(4)
O9 O 0.77851(14) 0.7947(5) 0.1708(3)
O10 O 0.71088(15) 0.7604(5) 0.0598(4)
C17 C 0.79324(16) 0.4761(6) 0.1917(3)
H18 H 0.8177 0.5377 0.2287
C1 C 1.0000 0.8911(8) 0.7500
H1 H 1.0000 0.9984 0.7500
C2 C 1.04046(17) 0.8157(5) 0.7989(3)
H2 H 1.0674 0.8704 0.8310
C3 C 1.04020(15) 0.6558(5) 0.7994(3)
C4 C 1.0000 0.5771(7) 0.7500
N1 N 1.0000 0.4082(6) 0.7500
O1 O 1.0798(2) 0.5729(7) 0.8532(5)
H3 H 1.1012 0.6332 0.8781
C2A C 0.95954(17) 0.8157(5) 0.7011(3)
H2A H 0.9326 0.8704 0.6690
C3A C 0.95980(15) 0.6558(5) 0.7006(3)
O1A O 0.9202(2) 0.5729(7) 0.6468(5)
H3A H 0.8988 0.6332 0.6219
H19? H 1.0257 0.3740 0.7952
H20? H 0.9753 0.3740 0.7623
H21? H 0.9990 0.3740 0.6926
loop_
_geom_bond_atom_site_label_1
_geom_bond_atom_site_label_2
_geom_bond_site_symmetry_1
_geom_bond_site_symmetry_2
C1 H1 1_555 1_555
C2 C1 1_555 1_555
H2 C2 1_555 1_555
C3 C2 1_555 1_555
C4 C3 1_555 1_555
N1 C4 1_555 1_555
O1 C3 1_555 1_555
H3 O1 1_555 1_555
C5 H4 1_555 1_555
H5 C5 1_555 1_555
O2 C5 1_555 1_555
C6 O2 1_555 1_555
H6 C6 1_555 1_555
H7 C6 1_555 1_555
C7 C6 1_555 1_555
H8 C7 1_555 1_555
H9 C7 1_555 1_555
O3 C7 1_555 1_555
C8 O3 1_555 1_555
H10 C8 1_555 1_555
H11 C8 1_555 1_555
C9 C8 1_555 1_555
H12 C9 1_555 1_555
H13 C9 1_555 1_555
C10 H14 1_555 1_555
H15 C10 1_555 1_555
O4 C9 1_555 1_555
O5 N2 1_555 1_555
N2 O6 1_555 1_555
C11 N2 1_555 1_555
C12 C11 1_555 1_555
H16 C12 1_555 1_555
C13 C12 1_555 1_555
N3 C13 1_555 1_555
O7 N3 1_555 1_555
O8 N3 1_555 1_555
C14 C13 1_555 1_555
H17 C14 1_555 1_555
C15 C14 1_555 1_555
C16 C15 1_555 1_555
O9 C16 1_555 1_555
O10 C16 1_555 1_555
C17 C11 1_555 1_555
H18 C17 1_555 1_555
C2A C1 1_555 1_555
H2A C2A 1_555 1_555
C3A C4 1_555 1_555
O1A C3A 1_555 1_555
H3A O1A 1_555 1_555
C5A C10 1_555 1_555
H4A C5A 1_555 1_555
H5A C5A 1_555 1_555
O2A C5A 1_555 1_555
C6A O2A 1_555 1_555
H6A C6A 1_555 1_555
H7A C6A 1_555 1_555
C7A C6A 1_555 1_555
H8A C7A 1_555 1_555
H9A C7A 1_555 1_555
O3A C7A 1_555 1_555
C8A O3A 1_555 1_555
H10A C8A 1_555 1_555
H11A C8A 1_555 1_555
C9A C8A 1_555 1_555
H12A C9A 1_555 1_555
H13A C9A 1_555 1_555
C10A C5 1_555 1_555
H14A C10A 1_555 1_555
H15A C10A 1_555 1_555
O4A C9A 1_555 1_555
C10 O4 1_555 1_555
C15 C17 1_555 1_555
C2A C3A 1_555 1_555
C10A O4A 1_555 1_555

#END
