
#######################################################################
#
#                 Cambridge Crystallographic Data Centre
#                                CCDC 
#
#######################################################################
#
# If this CIF has been generated from an entry in the Cambridge 
# Structural Database, then it will include bibliographic, chemical, 
# crystal, experimental, refinement or atomic coordinate data resulting 
# from the CCDC's data processing and validation procedures.
#
#######################################################################

data_DUCLEU
_chemical_formula_moiety         'C37 H45 N5 O2'
_chemical_name_systematic        
5,5,15,15-tetraethyl-10,10,20-trimethyl-20-(4-nitrophenyl)-5,10,15,20,22,24-hexahydroporphyrin
_symmetry_cell_setting           triclinic
_symmetry_space_group_name_H-M   'P -1'
_symmetry_Int_Tables_number      2
_space_group_name_Hall           '-P 1'
loop_
_symmetry_equiv_pos_site_id
_symmetry_equiv_pos_as_xyz
1 x,y,z
2 -x,-y,-z
_cell_length_a                   10.5528(14)
_cell_length_b                   12.0644(16)
_cell_length_c                   14.3453(19)
_cell_angle_alpha                104.872(2)
_cell_angle_beta                 90.420(2)
_cell_angle_gamma                107.436(2)
_cell_volume                     1677.02
_cell_formula_units_Z            2
loop_
_atom_site_label
_atom_site_type_symbol
_atom_site_fract_x
_atom_site_fract_y
_atom_site_fract_z
C1 C 0.81564(13) 0.70761(14) 0.09142(11)
C2 C 0.84304(16) 0.62417(16) 0.01725(12)
H1 H 0.8566 0.6310 -0.0453
C3 C 0.84726(16) 0.52557(16) 0.05172(12)
H2 H 0.8651 0.4567 0.0160
C4 C 0.82048(14) 0.54882(14) 0.14679(11)
C5 C 0.80394(15) 0.47576(14) 0.21913(12)
C6 C 0.66060(16) 0.45116(17) 0.25128(14)
H3 H 0.6522 0.4052 0.2986
H4 H 0.6478 0.5278 0.2831
C7 C 0.54982(19) 0.3830(2) 0.16960(17)
H5 H 0.5609 0.4242 0.1198
H6 H 0.4648 0.3791 0.1945
H7 H 0.5540 0.3027 0.1431
C8 C 0.8322(2) 0.35555(16) 0.17155(14)
H8 H 0.7739 0.3154 0.1122
H9 H 0.9232 0.3746 0.1539
C9 C 0.8138(3) 0.26784(19) 0.23309(18)
H10 H 0.8689 0.3069 0.2931
H11 H 0.8388 0.1991 0.1991
H12 H 0.7220 0.2420 0.2461
C10 C 0.90225(15) 0.54537(14) 0.30765(12)
C11 C 0.88963(17) 0.55950(16) 0.40380(13)
H13 H 0.8115 0.5307 0.4317
C12 C 1.01683(17) 0.62588(16) 0.45407(13)
H14 H 1.0365 0.6482 0.5209
C13 C 1.10492(16) 0.65141(15) 0.38850(12)
C14 C 1.25309(16) 0.71724(16) 0.40075(13)
C15 C 1.32786(19) 0.63383(18) 0.34338(16)
H15 H 1.2952 0.6080 0.2762
H16 H 1.3134 0.5646 0.3680
H17 H 1.4215 0.6769 0.3502
C16 C 1.30318(19) 0.7533(2) 0.50951(14)
H18 H 1.3967 0.7972 0.5182
H19 H 1.2887 0.6818 0.5312
H20 H 1.2552 0.8031 0.5465
C17 C 1.28370(15) 0.83058(15) 0.36761(12)
C18 C 1.39670(16) 0.89608(17) 0.33798(13)
H21 H 1.4749 0.8757 0.3288
C19 C 1.37493(15) 1.00077(16) 0.32349(13)
H22 H 1.4363 1.0610 0.3029
C20 C 1.24861(15) 0.99833(15) 0.34487(11)
C21 C 1.17432(15) 1.08917(15) 0.35129(12)
C22 C 1.24406(17) 1.17906(16) 0.29374(15)
H23 H 1.3352 1.2198 0.3222
H24 H 1.2476 1.1338 0.2279
C23 C 1.1779(2) 1.2737(2) 0.2905(2)
H25 H 1.0867 1.2346 0.2642
H26 H 1.2243 1.3224 0.2503
H27 H 1.1808 1.3239 0.3548
C24 C 1.17336(18) 1.15399(17) 0.45993(14)
H28 H 1.1277 1.2136 0.4639
H29 H 1.1221 1.0950 0.4914
C25 C 1.3102(2) 1.2165(2) 0.51578(17)
H30 H 1.3563 1.1583 0.5132
H31 H 1.2999 1.2525 0.5820
H32 H 1.3606 1.2779 0.4874
C26 C 1.03067(15) 1.02692(14) 0.30999(12)
C27 C 0.91373(16) 1.03045(16) 0.34828(13)
H33 H 0.9050 1.0716 0.4111
C28 C 0.80804(15) 0.96099(16) 0.27630(13)
H34 H 0.7177 0.9486 0.2834
C29 C 0.86092(13) 0.91541(14) 0.19492(12)
C30 C 0.79659(14) 0.82844(14) 0.09773(11)
C31 C 0.85975(16) 0.87427(17) 0.01269(13)
H35 H 0.9511 0.8753 0.0130
H36 H 0.8560 0.9545 0.0194
H37 H 0.8115 0.8217 -0.0473
C32 C 0.64746(14) 0.81962(15) 0.09315(11)
C33 C 0.61082(16) 0.91976(17) 0.08830(13)
H38 H 0.6762 0.9896 0.0844
C34 C 0.47894(16) 0.91750(17) 0.08912(13)
H39 H 0.4553 0.9847 0.0854
C35 C 0.38393(15) 0.81437(16) 0.09559(11)
C36 C 0.41519(15) 0.71310(16) 0.09866(13)
H40 H 0.3490 0.6436 0.1022
C37 C 0.54798(15) 0.71627(16) 0.09637(12)
H41 H 0.5701 0.6474 0.0970
N1 N 0.80285(12) 0.66086(11) 0.16982(9)
H42 H 0.7860 0.6969 0.2260
N2 N 1.03398(13) 0.60177(12) 0.29861(10)
H43 H 1.0674 0.6055 0.2446
N3 N 1.19441(12) 0.89425(12) 0.37228(10)
H44 H 1.1152 0.8719 0.3900
N4 N 0.99735(11) 0.95605(12) 0.21616(10)
H45 H 1.0537 0.9394 0.1763
N5 N 0.24499(14) 0.81429(16) 0.10330(11)
O1 O 0.21445(12) 0.89628(14) 0.08221(11)
O2 O 0.16656(12) 0.73449(13) 0.13060(10)
loop_
_geom_bond_atom_site_label_1
_geom_bond_atom_site_label_2
_geom_bond_site_symmetry_1
_geom_bond_site_symmetry_2
C1 C2 1_555 1_555
C2 H1 1_555 1_555
C3 C2 1_555 1_555
H2 C3 1_555 1_555
C4 C3 1_555 1_555
C5 C4 1_555 1_555
C6 C5 1_555 1_555
H3 C6 1_555 1_555
H4 C6 1_555 1_555
C7 C6 1_555 1_555
H5 C7 1_555 1_555
H6 C7 1_555 1_555
H7 C7 1_555 1_555
C8 C5 1_555 1_555
H8 C8 1_555 1_555
H9 C8 1_555 1_555
C9 C8 1_555 1_555
H10 C9 1_555 1_555
H11 C9 1_555 1_555
H12 C9 1_555 1_555
C10 C5 1_555 1_555
C11 C10 1_555 1_555
H13 C11 1_555 1_555
C12 C11 1_555 1_555
H14 C12 1_555 1_555
C13 C12 1_555 1_555
C14 C13 1_555 1_555
C15 C14 1_555 1_555
H15 C15 1_555 1_555
H16 C15 1_555 1_555
H17 C15 1_555 1_555
C16 C14 1_555 1_555
H18 C16 1_555 1_555
H19 C16 1_555 1_555
H20 C16 1_555 1_555
C17 C14 1_555 1_555
C18 C17 1_555 1_555
H21 C18 1_555 1_555
C19 C18 1_555 1_555
H22 C19 1_555 1_555
C20 C19 1_555 1_555
C21 C20 1_555 1_555
C22 C21 1_555 1_555
H23 C22 1_555 1_555
H24 C22 1_555 1_555
C23 C22 1_555 1_555
H25 C23 1_555 1_555
H26 C23 1_555 1_555
H27 C23 1_555 1_555
C24 C21 1_555 1_555
H28 C24 1_555 1_555
H29 C24 1_555 1_555
C25 C24 1_555 1_555
H30 C25 1_555 1_555
H31 C25 1_555 1_555
H32 C25 1_555 1_555
C26 C21 1_555 1_555
C27 C26 1_555 1_555
H33 C27 1_555 1_555
C28 C27 1_555 1_555
H34 C28 1_555 1_555
C29 C28 1_555 1_555
C30 C1 1_555 1_555
C31 C30 1_555 1_555
H35 C31 1_555 1_555
H36 C31 1_555 1_555
H37 C31 1_555 1_555
C32 C30 1_555 1_555
C33 C32 1_555 1_555
H38 C33 1_555 1_555
C34 C33 1_555 1_555
H39 C34 1_555 1_555
C35 C34 1_555 1_555
C36 C35 1_555 1_555
H40 C36 1_555 1_555
C37 C32 1_555 1_555
H41 C37 1_555 1_555
N1 C1 1_555 1_555
H42 N1 1_555 1_555
N2 C10 1_555 1_555
H43 N2 1_555 1_555
N3 C17 1_555 1_555
H44 N3 1_555 1_555
N4 C26 1_555 1_555
H45 N4 1_555 1_555
N5 C35 1_555 1_555
O1 N5 1_555 1_555
O2 N5 1_555 1_555
C4 N1 1_555 1_555
C13 N2 1_555 1_555
C20 N3 1_555 1_555
C29 C30 1_555 1_555
C29 N4 1_555 1_555
C36 C37 1_555 1_555

#END
