
#######################################################################
#
#                 Cambridge Crystallographic Data Centre
#                                CCDC 
#
#######################################################################
#
# If this CIF has been generated from an entry in the Cambridge 
# Structural Database, then it will include bibliographic, chemical, 
# crystal, experimental, refinement or atomic coordinate data resulting 
# from the CCDC's data processing and validation procedures.
#
#######################################################################

data_DUCLOE
_chemical_formula_moiety         'C42 H46 Cl1 N5 O2,2(C2 H6 O1)'
_chemical_name_systematic        
'5-(4-chlorophenyl)-10,10,20,20-tetraethyl-5,15-dimethyl-15-(4-nitrophenyl)-5,10,15,20,22,24-hexahydroporphyrin ethanol solvate'
_symmetry_cell_setting           triclinic
_symmetry_space_group_name_H-M   'P -1'
_symmetry_Int_Tables_number      2
_space_group_name_Hall           '-P 1'
loop_
_symmetry_equiv_pos_site_id
_symmetry_equiv_pos_as_xyz
1 x,y,z
2 -x,-y,-z
_cell_length_a                   10.6091(17)
_cell_length_b                   11.3259(18)
_cell_length_c                   11.3936(18)
_cell_angle_alpha                92.556(2)
_cell_angle_beta                 113.954(2)
_cell_angle_gamma                116.096(2)
_cell_volume                     1081.23
_cell_formula_units_Z            1
loop_
_atom_site_label
_atom_site_type_symbol
_atom_site_fract_x
_atom_site_fract_y
_atom_site_fract_z
C22 C 0.9442(6) 0.2827(5) 0.4873(6)
H24 H 0.9983 0.3359 0.4409
H25 H 1.0022 0.3354 0.5798
C23 C 0.7765(6) 0.2608(8) 0.4262(8)
H26 H 0.7128 0.1958 0.3400
H27 H 0.7803 0.3459 0.4169
H28 H 0.7304 0.2267 0.4830
O3 O 0.9485(3) 0.1620(2) 0.4816(2)
H29 H 0.9203 0.1241 0.5333
C1 C 0.4384(5) 0.4646(3) 0.7478(4)
H1 H 0.4391 0.4444 0.6654
H2 H 0.5065 0.5608 0.7905
H3 H 0.3317 0.4379 0.7300
C2 C 0.4988(4) 0.3860(3) 0.8393(3)
H4 H 0.5098 0.4160 0.9257
H5 H 0.6042 0.4102 0.8521
C3 C 0.3933(3) 0.2293(3) 0.7895(3)
C4 C 0.4789(4) 0.1637(4) 0.8876(3)
H6 H 0.4154 0.0652 0.8510
H7 H 0.5810 0.1927 0.8902
C5 C 0.5074(5) 0.1970(5) 1.0284(4)
H8 H 0.5753 0.2938 1.0681
H9 H 0.5577 0.1505 1.0792
H10 H 0.4074 0.1681 1.0278
C6 C 0.3737(3) 0.1798(3) 0.6543(3)
C7 C 0.4713(3) 0.1523(3) 0.6237(3)
H11 H 0.5629 0.1534 0.6844
C8 C 0.4091(3) 0.1219(3) 0.4835(3)
H12 H 0.4530 0.1001 0.4359
C9 C 0.2743(3) 0.1302(2) 0.4304(3)
C10 C 0.1587(3) 0.1037(3) 0.2853(2)
C11 C 0.2393(4) 0.0986(3) 0.1997(3)
H13 H 0.3379 0.1829 0.2307
H14 H 0.1699 0.0856 0.1080
H15 H 0.2602 0.0242 0.2074
C12 C 0.0073(3) -0.0330(3) 0.2385(2)
C13 C -0.0399(3) -0.1562(3) 0.1640(3)
H16 H 0.0174 -0.1745 0.1295
C14 C -0.1908(4) -0.2515(3) 0.1484(3)
H17 H -0.2499 -0.3434 0.1020
C15 C -0.2353(3) -0.1857(3) 0.2127(2)
C16 C 0.1229(3) 0.2206(3) 0.2616(2)
C17 C -0.0186(3) 0.1971(3) 0.1543(3)
H18 H -0.0957 0.1083 0.1016
C18 C -0.0462(4) 0.3026(3) 0.1250(3)
H19 H -0.1412 0.2854 0.0533
C19 C 0.0680(4) 0.4335(3) 0.2028(3)
C20 C 0.2105(4) 0.4615(3) 0.3078(3)
H20 H 0.2882 0.5510 0.3581
C21 C 0.2363(3) 0.3546(3) 0.3373(3)
H21 H 0.3314 0.3727 0.4093
N1 N 0.2527(2) 0.1650(2) 0.5356(2)
H22 H 0.1747 0.1760 0.5280
N2 N -0.1121(2) -0.0521(2) 0.2690(2)
H23 H -0.1101 0.0105 0.3165
N3 N 0.0398(10) 0.5472(7) 0.165(2)
O1 O -0.0991(6) 0.5129(5) 0.0796(6)
O2 O 0.1482(8) 0.6573(6) 0.2074(8)
Cl1 Cl 0.0372(8) 0.5723(6) 0.1759(9)
C1A C -0.4384(5) -0.4646(3) 0.2522(4)
H1A H -0.4391 -0.4444 0.3346
H2A H -0.5065 -0.5608 0.2095
H3A H -0.3317 -0.4379 0.2700
C2A C -0.4988(4) -0.3860(3) 0.1607(3)
H4A H -0.5098 -0.4160 0.0743
H5A H -0.6042 -0.4102 0.1479
C3A C -0.3933(3) -0.2293(3) 0.2105(3)
C4A C -0.4789(4) -0.1637(4) 0.1124(3)
H6A H -0.4154 -0.0652 0.1490
H7A H -0.5810 -0.1927 0.1098
C5A C -0.5074(5) -0.1970(5) -0.0284(4)
H8A H -0.5753 -0.2938 -0.0681
H9A H -0.5577 -0.1505 -0.0792
H10A H -0.4074 -0.1681 -0.0278
C6A C -0.3737(3) -0.1798(3) 0.3457(3)
C7A C -0.4713(3) -0.1523(3) 0.3763(3)
H11A H -0.5629 -0.1534 0.3156
C8A C -0.4091(3) -0.1219(3) 0.5165(3)
H12A H -0.4530 -0.1001 0.5641
C9A C -0.2743(3) -0.1302(2) 0.5696(3)
C10A C -0.1587(3) -0.1037(3) 0.7147(2)
C11A C -0.2393(4) -0.0986(3) 0.8003(3)
H13A H -0.3379 -0.1829 0.7693
H14A H -0.1699 -0.0856 0.8920
H15A H -0.2602 -0.0242 0.7926
C12A C -0.0073(3) 0.0330(3) 0.7615(2)
C13A C 0.0399(3) 0.1562(3) 0.8360(3)
H16A H -0.0174 0.1745 0.8705
C14A C 0.1908(4) 0.2515(3) 0.8516(3)
H17A H 0.2499 0.3434 0.8980
C15A C 0.2353(3) 0.1857(3) 0.7873(2)
C16A C -0.1229(3) -0.2206(3) 0.7384(2)
C17A C 0.0186(3) -0.1971(3) 0.8457(3)
H18A H 0.0957 -0.1083 0.8984
C18A C 0.0462(4) -0.3026(3) 0.8750(3)
H19A H 0.1412 -0.2854 0.9467
C19A C -0.0680(4) -0.4335(3) 0.7972(3)
C20A C -0.2105(4) -0.4615(3) 0.6922(3)
H20A H -0.2882 -0.5510 0.6419
C21A C -0.2363(3) -0.3546(3) 0.6627(3)
H21A H -0.3314 -0.3727 0.5907
N1A N -0.2527(2) -0.1650(2) 0.4644(2)
H22A H -0.1747 -0.1760 0.4720
N2A N 0.1121(2) 0.0521(2) 0.7310(2)
H23A H 0.1101 -0.0105 0.6835
N3A N -0.0398(10) -0.5472(7) 0.835(2)
O1A O 0.0991(6) -0.5129(5) 0.9204(6)
O2A O -0.1482(8) -0.6573(6) 0.7926(8)
Cl1A Cl -0.0372(8) -0.5723(6) 0.8241(9)
loop_
_geom_bond_atom_site_label_1
_geom_bond_atom_site_label_2
_geom_bond_site_symmetry_1
_geom_bond_site_symmetry_2
C1 H1 1_555 1_555
H2 C1 1_555 1_555
H3 C1 1_555 1_555
C2 C1 1_555 1_555
H4 C2 1_555 1_555
H5 C2 1_555 1_555
C3 C2 1_555 1_555
C4 C3 1_555 1_555
H6 C4 1_555 1_555
H7 C4 1_555 1_555
C5 C4 1_555 1_555
H8 C5 1_555 1_555
H9 C5 1_555 1_555
H10 C5 1_555 1_555
C6 C3 1_555 1_555
C7 C6 1_555 1_555
H11 C7 1_555 1_555
C8 C7 1_555 1_555
H12 C8 1_555 1_555
C9 C8 1_555 1_555
C10 C9 1_555 1_555
C11 C10 1_555 1_555
H13 C11 1_555 1_555
H14 C11 1_555 1_555
H15 C11 1_555 1_555
C12 C10 1_555 1_555
C13 C12 1_555 1_555
H16 C13 1_555 1_555
C14 C13 1_555 1_555
H17 C14 1_555 1_555
C15 C14 1_555 1_555
C16 C10 1_555 1_555
C17 C16 1_555 1_555
H18 C17 1_555 1_555
C18 C17 1_555 1_555
H19 C18 1_555 1_555
C19 C18 1_555 1_555
C20 C19 1_555 1_555
H20 C20 1_555 1_555
C21 C16 1_555 1_555
H21 C21 1_555 1_555
N1 C6 1_555 1_555
H22 N1 1_555 1_555
N2 C12 1_555 1_555
H23 N2 1_555 1_555
N3 C19 1_555 1_555
O1 N3 1_555 1_555
O2 N3 1_555 1_555
Cl1 C19 1_555 1_555
C22 H24 1_555 1_555
H25 C22 1_555 1_555
C23 C22 1_555 1_555
H26 C23 1_555 1_555
H27 C23 1_555 1_555
H28 C23 1_555 1_555
O3 C22 1_555 1_555
H29 O3 1_555 1_555
C1A H1A 1_555 1_555
H2A C1A 1_555 1_555
H3A C1A 1_555 1_555
C2A C1A 1_555 1_555
H4A C2A 1_555 1_555
H5A C2A 1_555 1_555
C3A C15 1_555 1_555
C4A C3A 1_555 1_555
H6A C4A 1_555 1_555
H7A C4A 1_555 1_555
C5A C4A 1_555 1_555
H8A C5A 1_555 1_555
H9A C5A 1_555 1_555
H10A C5A 1_555 1_555
C6A C3A 1_555 1_555
C7A C6A 1_555 1_555
H11A C7A 1_555 1_555
C8A C7A 1_555 1_555
H12A C8A 1_555 1_555
C9A C8A 1_555 1_555
C10A C9A 1_555 1_555
C11A C10A 1_555 1_555
H13A C11A 1_555 1_555
H14A C11A 1_555 1_555
H15A C11A 1_555 1_555
C12A C10A 1_555 1_555
C13A C12A 1_555 1_555
H16A C13A 1_555 1_555
C14A C13A 1_555 1_555
H17A C14A 1_555 1_555
C15A C3 1_555 1_555
C16A C10A 1_555 1_555
C17A C16A 1_555 1_555
H18A C17A 1_555 1_555
C18A C17A 1_555 1_555
H19A C18A 1_555 1_555
C19A C18A 1_555 1_555
C20A C19A 1_555 1_555
H20A C20A 1_555 1_555
C21A C16A 1_555 1_555
H21A C21A 1_555 1_555
N1A C6A 1_555 1_555
H22A N1A 1_555 1_555
N2A C12A 1_555 1_555
H23A N2A 1_555 1_555
N3A C19A 1_555 1_555
O1A N3A 1_555 1_555
O2A N3A 1_555 1_555
Cl1A C19A 1_555 1_555
C9 N1 1_555 1_555
C15 N2 1_555 1_555
C20 C21 1_555 1_555
C2A C3A 1_555 1_555
C9A N1A 1_555 1_555
C14A C15A 1_555 1_555
C15A N2A 1_555 1_555
C20A C21A 1_555 1_555

#END
