
#######################################################################
#
#                 Cambridge Crystallographic Data Centre
#                                CCDC 
#
#######################################################################
#
# If this CIF has been generated from an entry in the Cambridge 
# Structural Database, then it will include bibliographic, chemical, 
# crystal, experimental, refinement or atomic coordinate data resulting 
# from the CCDC's data processing and validation procedures.
#
#######################################################################

data_DUCLUK
_chemical_formula_moiety         'C44 H51 N5 O1'
_chemical_name_systematic        
'2-((4-(10,10,20,20-tetraethyl-5,15,15-trimethyl-5,10,15,20,22,24-hexahydroporphyrin-5-yl)phenyl)carbonoimidoyl)phenol unknown solvate'
_symmetry_cell_setting           triclinic
_symmetry_space_group_name_H-M   'P -1'
_symmetry_Int_Tables_number      2
_space_group_name_Hall           '-P 1'
loop_
_symmetry_equiv_pos_site_id
_symmetry_equiv_pos_as_xyz
1 x,y,z
2 -x,-y,-z
_cell_length_a                   10.1335(12)
_cell_length_b                   10.9755(13)
_cell_length_c                   23.914(3)
_cell_angle_alpha                95.613(2)
_cell_angle_beta                 98.227(2)
_cell_angle_gamma                114.099(2)
_cell_volume                     2366.71
_cell_formula_units_Z            2
loop_
_atom_site_label
_atom_site_type_symbol
_atom_site_fract_x
_atom_site_fract_y
_atom_site_fract_z
C1 C 0.5347(3) 0.6812(3) 0.28257(12)
C2 C 0.4461(4) 0.6829(4) 0.32075(14)
H1 H 0.3654 0.7034 0.3143
C3 C 0.4997(4) 0.6480(4) 0.37125(15)
H2 H 0.4591 0.6412 0.4040
C4 C 0.6182(3) 0.6258(3) 0.36529(12)
C5 C 0.7044(3) 0.5660(3) 0.40178(13)
C6 C 0.6380(5) 0.4121(4) 0.3811(2)
H3 H 0.6477 0.3945 0.3417
H4 H 0.6927 0.3739 0.4044
C7 C 0.4859(8) 0.3473(8) 0.3845(4)
H5 H 0.4425 0.4099 0.3804
H6 H 0.4777 0.3186 0.4210
H7 H 0.4353 0.2700 0.3544
C8 C 0.6890(4) 0.5986(4) 0.46481(14)
H8 H 0.7280 0.6962 0.4756
H9 H 0.5848 0.5607 0.4660
C9 C 0.7656(6) 0.5465(5) 0.50920(16)
H10 H 0.7094 0.4506 0.5062
H11 H 0.7733 0.5913 0.5469
H12 H 0.8626 0.5646 0.5026
C10 C 0.8643(4) 0.6282(3) 0.39825(12)
C11 C 0.9632(5) 0.5744(4) 0.39727(17)
H13 H 0.9416 0.4830 0.3953
C12 C 1.1033(4) 0.6790(4) 0.39964(16)
H14 H 1.1898 0.6687 0.3992
C13 C 1.0904(3) 0.7980(3) 0.40271(12)
C14 C 1.2038(3) 0.9407(3) 0.40392(13)
C15 C 1.3575(4) 0.9521(5) 0.42915(16)
H15 H 1.3786 0.8889 0.4057
H16 H 1.3596 0.9321 0.4674
H17 H 1.4304 1.0425 0.4302
C16 C 1.1763(4) 1.0442(4) 0.44169(14)
H18 H 1.2487 1.1337 0.4410
H19 H 1.1834 1.0270 0.4803
H20 H 1.0795 1.0373 0.4276
C17 C 1.2027(3) 0.9716(3) 0.34383(13)
C18 C 1.2910(4) 0.9714(3) 0.30620(14)
H21 H 1.3716 0.9507 0.3130
C19 C 1.2411(4) 1.0074(3) 0.25528(14)
H22 H 1.2829 1.0150 0.2229
C20 C 1.1208(3) 1.0292(3) 0.26184(12)
C21 C 1.0341(3) 1.0858(3) 0.22454(13)
C22 C 1.1035(4) 1.2434(4) 0.24405(19)
H23 H 1.2042 1.2806 0.2380
H24 H 1.0495 1.2793 0.2190
C23 C 1.1067(5) 1.2951(4) 0.3048(2)
H25 H 1.0076 1.2628 0.3113
H26 H 1.1519 1.3924 0.3116
H27 H 1.1624 1.2632 0.3305
C24 C 1.0527(4) 1.0630(5) 0.16216(15)
H28 H 1.1572 1.1049 0.1616
H29 H 1.0066 1.1096 0.1399
C25 C 0.9878(5) 0.9138(5) 0.13225(16)
H30 H 1.0356 0.8672 0.1528
H31 H 1.0035 0.9104 0.0936
H32 H 0.8838 0.8712 0.1318
C26 C 0.8729(3) 1.0239(3) 0.22718(11)
C27 C 0.7722(4) 1.0790(3) 0.22074(13)
H33 H 0.7932 1.1689 0.2185
C28 C 0.6315(3) 0.9735(3) 0.21827(13)
H34 H 0.5436 0.9829 0.2142
C29 C 0.6443(3) 0.8550(3) 0.22280(11)
C30 C 0.5305(3) 0.7134(3) 0.22231(11)
C31 C 0.3755(3) 0.7059(4) 0.19952(14)
H35 H 0.3582 0.7695 0.2244
H36 H 0.3016 0.6160 0.1985
H37 H 0.3709 0.7276 0.1616
C32 C 0.5508(3) 0.6095(3) 0.18059(12)
C33 C 0.5118(4) 0.4771(3) 0.18846(14)
H38 H 0.4762 0.4507 0.2212
C34 C 0.5235(4) 0.3836(3) 0.14997(14)
H39 H 0.4956 0.2952 0.1566
C35 C 0.5781(4) 0.4207(3) 0.09989(13)
C36 C 0.6081(4) 0.5497(3) 0.09006(13)
H40 H 0.6379 0.5747 0.0563
C37 C 0.5950(3) 0.6434(3) 0.12948(13)
H41 H 0.6160 0.7300 0.1217
C38 C 0.6398(4) 0.2418(4) 0.07380(13)
H42 H 0.6493 0.2325 0.1122
C39 C 0.6664(3) 0.1509(3) 0.03351(13)
C40 C 0.6987(4) 0.0493(4) 0.05152(15)
H43 H 0.6995 0.0374 0.0895
C41 C 0.7299(4) -0.0358(4) 0.01468(17)
H44 H 0.7536 -0.1026 0.0280
C42 C 0.7256(4) -0.0206(4) -0.04196(17)
H45 H 0.7459 -0.0781 -0.0669
C43 C 0.6913(4) 0.0800(4) -0.06242(16)
H46 H 0.6885 0.0898 -0.1007
C44 C 0.6607(4) 0.1671(4) -0.02383(14)
N1 N 0.6409(2) 0.6461(2) 0.31027(9)
H47 H 0.7102 0.6381 0.2956
N2 N 0.9443(3) 0.7659(2) 0.40182(10)
H48 H 0.9075 0.8239 0.4033
N3 N 1.0978(2) 1.0069(2) 0.31644(10)
H49 H 1.0281 1.0141 0.3311
N4 N 0.7938(2) 0.8895(2) 0.22934(9)
H50 H 0.8323 0.8336 0.2342
N5 N 0.6039(3) 0.3338(3) 0.05861(11)
O1 O 0.6250(4) 0.2612(3) -0.04445(11)
H51 H 0.6021 0.3004 -0.0192
H52? H 0.7042 0.3811 0.4021
H53? H 0.5467 0.3743 0.3951
C45? C 0.6046(16) 0.3465(11) 0.3237(5)
H54? H 0.5159 0.2640 0.3176
H55? H 0.6845 0.3261 0.3161
H56? H 0.5906 0.4048 0.2984
loop_
_geom_bond_atom_site_label_1
_geom_bond_atom_site_label_2
_geom_bond_site_symmetry_1
_geom_bond_site_symmetry_2
C1 C2 1_555 1_555
C2 H1 1_555 1_555
C3 C2 1_555 1_555
H2 C3 1_555 1_555
C4 C3 1_555 1_555
C5 C4 1_555 1_555
C6 C5 1_555 1_555
H3 C6 1_555 1_555
H4 C6 1_555 1_555
C7 C6 1_555 1_555
H5 C7 1_555 1_555
H6 C7 1_555 1_555
H7 C7 1_555 1_555
C8 C5 1_555 1_555
H8 C8 1_555 1_555
H9 C8 1_555 1_555
C9 C8 1_555 1_555
H10 C9 1_555 1_555
H11 C9 1_555 1_555
H12 C9 1_555 1_555
C10 C5 1_555 1_555
C11 C10 1_555 1_555
H13 C11 1_555 1_555
C12 C11 1_555 1_555
H14 C12 1_555 1_555
C13 C12 1_555 1_555
C14 C13 1_555 1_555
C15 C14 1_555 1_555
H15 C15 1_555 1_555
H16 C15 1_555 1_555
H17 C15 1_555 1_555
C16 C14 1_555 1_555
H18 C16 1_555 1_555
H19 C16 1_555 1_555
H20 C16 1_555 1_555
C17 C14 1_555 1_555
C18 C17 1_555 1_555
H21 C18 1_555 1_555
C19 C18 1_555 1_555
H22 C19 1_555 1_555
C20 C19 1_555 1_555
C21 C20 1_555 1_555
C22 C21 1_555 1_555
H23 C22 1_555 1_555
H24 C22 1_555 1_555
C23 C22 1_555 1_555
H25 C23 1_555 1_555
H26 C23 1_555 1_555
H27 C23 1_555 1_555
C24 C21 1_555 1_555
H28 C24 1_555 1_555
H29 C24 1_555 1_555
C25 C24 1_555 1_555
H30 C25 1_555 1_555
H31 C25 1_555 1_555
H32 C25 1_555 1_555
C26 C21 1_555 1_555
C27 C26 1_555 1_555
H33 C27 1_555 1_555
C28 C27 1_555 1_555
H34 C28 1_555 1_555
C29 C28 1_555 1_555
C30 C1 1_555 1_555
C31 C30 1_555 1_555
H35 C31 1_555 1_555
H36 C31 1_555 1_555
H37 C31 1_555 1_555
C32 C30 1_555 1_555
C33 C32 1_555 1_555
H38 C33 1_555 1_555
C34 C33 1_555 1_555
H39 C34 1_555 1_555
C35 C34 1_555 1_555
C36 C35 1_555 1_555
H40 C36 1_555 1_555
C37 C32 1_555 1_555
H41 C37 1_555 1_555
C38 H42 1_555 1_555
C39 C38 1_555 1_555
C40 C39 1_555 1_555
H43 C40 1_555 1_555
C41 C40 1_555 1_555
H44 C41 1_555 1_555
C42 C41 1_555 1_555
H45 C42 1_555 1_555
C43 C42 1_555 1_555
H46 C43 1_555 1_555
C44 C39 1_555 1_555
N1 C1 1_555 1_555
H47 N1 1_555 1_555
N2 C10 1_555 1_555
H48 N2 1_555 1_555
N3 C17 1_555 1_555
H49 N3 1_555 1_555
N4 C26 1_555 1_555
H50 N4 1_555 1_555
N5 C35 1_555 1_555
O1 C44 1_555 1_555
H51 O1 1_555 1_555
C4 N1 1_555 1_555
C13 N2 1_555 1_555
C20 N3 1_555 1_555
C29 C30 1_555 1_555
C29 N4 1_555 1_555
C36 C37 1_555 1_555
C38 N5 1_555 1_555
C43 C44 1_555 1_555

#END
