
#######################################################################
#
#                 Cambridge Crystallographic Data Centre
#                                CCDC 
#
#######################################################################
#
# If this CIF has been generated from an entry in the Cambridge 
# Structural Database, then it will include bibliographic, chemical, 
# crystal, experimental, refinement or atomic coordinate data resulting 
# from the CCDC's data processing and validation procedures.
#
#######################################################################

data_DUCLIY
_chemical_formula_moiety         'C40 H49 N5 O2'
_chemical_name_systematic        
7',7',17',17'-tetraethyl-12'-methyl-12'-(4-nitrophenyl)-21',22',23',24'-tetraazaspiro[cyclohexane-1,2'-pentacyclo[16.2.1.1^3,6^.1^8,11^.1^13,16^]tetracosane]-1'(20'),3',5',8',10',13',15',18'-octaene
_symmetry_cell_setting           triclinic
_symmetry_space_group_name_H-M   'P -1'
_symmetry_Int_Tables_number      2
_space_group_name_Hall           '-P 1'
loop_
_symmetry_equiv_pos_site_id
_symmetry_equiv_pos_as_xyz
1 x,y,z
2 -x,-y,-z
_cell_length_a                   10.5404(10)
_cell_length_b                   11.2892(11)
_cell_length_c                   16.3282(16)
_cell_angle_alpha                95.589(4)
_cell_angle_beta                 102.682(4)
_cell_angle_gamma                107.187(4)
_cell_volume                     1783.24
_cell_formula_units_Z            2
loop_
_atom_site_label
_atom_site_type_symbol
_atom_site_fract_x
_atom_site_fract_y
_atom_site_fract_z
N1 N 0.46983(12) 0.77004(12) 0.16778(8)
H1 H 0.4087 0.7516 0.1960
N2 N 0.68576(13) 0.99338(12) 0.33146(8)
H2 H 0.7019 1.0134 0.2844
C1 C 0.65814(15) 0.87408(14) 0.34994(10)
N3 N 0.30488(13) 0.97960(12) 0.11975(8)
H3 H 0.3898 1.0186 0.1229
N4 N 0.48728(14) 1.17828(12) 0.29708(9)
H4 H 0.4458 1.1257 0.3250
N5 N 1.22006(16) 0.79389(17) 0.29469(10)
C2 C 0.81331(16) 0.77031(15) 0.29759(10)
C3 C 0.63856(17) 0.88180(16) 0.42952(11)
H5 H 0.6183 0.8153 0.4592
C4 C 0.60570(15) 0.78008(15) 0.19854(10)
C5 C 0.62723(17) 1.23513(15) 0.31629(10)
O1 O 1.23938(15) 0.70156(15) 0.26068(11)
C6 C 0.66339(15) 0.76682(14) 0.28934(10)
C7 C 1.07925(16) 0.78218(17) 0.29920(11)
C8 C 0.65422(17) 1.00825(16) 0.45946(11)
H6 H 0.6455 1.0393 0.5121
O2 O 1.31100(13) 0.89509(15) 0.32336(9)
C9 C 0.42243(17) 1.21675(15) 0.22714(11)
C10 C 0.68431(15) 1.07673(15) 0.39808(10)
C11 C 0.44535(16) 0.79348(15) 0.08597(10)
C12 C 0.23632(16) 0.85679(15) 0.08199(10)
C13 C 0.92392(16) 0.87173(16) 0.34407(11)
H7 H 0.9085 0.9369 0.3756
C14 C 0.30298(16) 0.78117(16) 0.03420(10)
C15 C 1.05741(17) 0.87864(17) 0.34483(11)
H8 H 1.1311 0.9480 0.3760
C16 C 0.22024(17) 1.03260(15) 0.15199(11)
C17 C 0.52331(18) 1.29834(16) 0.20170(11)
H9 H 0.5104 1.3396 0.1555
C18 C 0.65122(18) 1.30991(16) 0.25733(11)
H10 H 0.7370 1.3601 0.2541
C19 C 0.71910(17) 1.21538(15) 0.39515(10)
C20 C 0.09531(18) 0.94135(17) 0.13351(12)
H11 H 0.0170 0.9498 0.1472
C21 C 0.58002(18) 0.64209(16) 0.31051(12)
H12 H 0.6222 0.6341 0.3672
H13 H 0.5781 0.5729 0.2705
H14 H 0.4877 0.6415 0.3070
C22 C 0.84044(18) 0.67236(17) 0.25440(13)
H15 H 0.7675 0.6017 0.2243
C23 C 0.56739(18) 0.81855(18) 0.06497(12)
H16 H 0.5822 0.8379 0.0130
C24 C 0.66739(18) 0.81033(18) 0.13490(12)
H17 H 0.7596 0.8233 0.1373
C25 C 0.26727(17) 1.16826(16) 0.19455(11)
C26 C 0.10523(17) 0.83176(17) 0.09002(12)
H18 H 0.0345 0.7553 0.0702
C27 C 0.97301(19) 0.67731(18) 0.25504(13)
H19 H 0.9898 0.6108 0.2261
C28 C 0.21161(19) 0.64142(17) 0.01455(13)
H20 H 0.2014 0.6139 0.0679
H21 H 0.1209 0.6349 -0.0191
C29 C 0.31819(19) 0.8342(2) -0.04860(11)
H22 H 0.3830 0.9192 -0.0329
H23 H 0.3575 0.7837 -0.0803
C30 C 0.2172(2) 1.24621(18) 0.13006(15)
H24 H 0.2675 1.2501 0.0867
H25 H 0.1207 1.2030 0.1021
C31 C 0.87072(19) 1.26990(19) 0.39189(13)
H26 H 0.8807 1.2296 0.3396
H27 H 0.8917 1.3590 0.3899
C32 C 0.2020(2) 1.17935(19) 0.26959(14)
H28 H 0.1029 1.1406 0.2492
H29 H 0.2353 1.1337 0.3122
C33 C 0.6933(2) 1.28045(18) 0.47525(13)
H30 H 0.5990 1.2395 0.4763
H31 H 0.7526 1.2673 0.5255
C34 C 0.1780(3) 1.3860(2) 0.2469(3)
H32 H 0.2017 1.4731 0.2733
H33 H 0.0785 1.3500 0.2293
C35 C 0.2655(3) 0.5526(2) -0.03286(18)
H34 H 0.2660 0.5727 -0.0886
H35 H 0.2072 0.4674 -0.0381
H36 H 0.3574 0.5615 -0.0018
C36 C 0.1863(2) 0.8374(3) -0.10688(14)
H37 H 0.1212 0.7537 -0.1235
H38 H 0.2055 0.8696 -0.1567
H39 H 0.1487 0.8908 -0.0774
C37 C 0.7175(4) 1.4200(2) 0.48076(19)
H40 H 0.8120 1.4626 0.4829
H41 H 0.6971 1.4517 0.5313
H42 H 0.6590 1.4346 0.4315
C38 C 0.2351(3) 1.3151(2) 0.31053(19)
H43 H 0.1957 1.3178 0.3588
H44 H 0.3340 1.3545 0.3312
C39 C 0.9751(2) 1.2534(3) 0.46658(15)
H45 H 0.9753 1.3028 0.5180
H46 H 1.0650 1.2808 0.4568
H47 H 0.9510 1.1662 0.4722
C40 C 0.2344(3) 1.3805(2) 0.1693(2)
H48 H 0.3314 1.4299 0.1856
H49 H 0.1876 1.4184 0.1268
loop_
_geom_bond_atom_site_label_1
_geom_bond_atom_site_label_2
_geom_bond_site_symmetry_1
_geom_bond_site_symmetry_2
N1 H1 1_555 1_555
N2 H2 1_555 1_555
C1 N2 1_555 1_555
N3 H3 1_555 1_555
N4 H4 1_555 1_555
N5 O1 1_555 1_555
C2 C6 1_555 1_555
C3 C1 1_555 1_555
H5 C3 1_555 1_555
C4 N1 1_555 1_555
C5 N4 1_555 1_555
C6 C1 1_555 1_555
C7 N5 1_555 1_555
C8 C3 1_555 1_555
H6 C8 1_555 1_555
O2 N5 1_555 1_555
C9 N4 1_555 1_555
C10 N2 1_555 1_555
C11 N1 1_555 1_555
C12 N3 1_555 1_555
C13 C2 1_555 1_555
H7 C13 1_555 1_555
C14 C11 1_555 1_555
C15 C7 1_555 1_555
H8 C15 1_555 1_555
C16 N3 1_555 1_555
C17 C9 1_555 1_555
H9 C17 1_555 1_555
C18 C5 1_555 1_555
H10 C18 1_555 1_555
C19 C5 1_555 1_555
C20 C16 1_555 1_555
H11 C20 1_555 1_555
C21 C6 1_555 1_555
H12 C21 1_555 1_555
H13 C21 1_555 1_555
H14 C21 1_555 1_555
C22 C2 1_555 1_555
H15 C22 1_555 1_555
C23 C11 1_555 1_555
H16 C23 1_555 1_555
C24 C4 1_555 1_555
H17 C24 1_555 1_555
C25 C9 1_555 1_555
C26 C12 1_555 1_555
H18 C26 1_555 1_555
C27 C7 1_555 1_555
H19 C27 1_555 1_555
C28 C14 1_555 1_555
H20 C28 1_555 1_555
H21 C28 1_555 1_555
C29 C14 1_555 1_555
H22 C29 1_555 1_555
H23 C29 1_555 1_555
C30 C25 1_555 1_555
H24 C30 1_555 1_555
H25 C30 1_555 1_555
C31 C19 1_555 1_555
H26 C31 1_555 1_555
H27 C31 1_555 1_555
C32 C25 1_555 1_555
H28 C32 1_555 1_555
H29 C32 1_555 1_555
C33 C19 1_555 1_555
H30 C33 1_555 1_555
H31 C33 1_555 1_555
C34 H32 1_555 1_555
H33 C34 1_555 1_555
C35 C28 1_555 1_555
H34 C35 1_555 1_555
H35 C35 1_555 1_555
H36 C35 1_555 1_555
C36 C29 1_555 1_555
H37 C36 1_555 1_555
H38 C36 1_555 1_555
H39 C36 1_555 1_555
C37 C33 1_555 1_555
H40 C37 1_555 1_555
H41 C37 1_555 1_555
H42 C37 1_555 1_555
C38 C32 1_555 1_555
H43 C38 1_555 1_555
H44 C38 1_555 1_555
C39 C31 1_555 1_555
H45 C39 1_555 1_555
H46 C39 1_555 1_555
H47 C39 1_555 1_555
C40 C30 1_555 1_555
H48 C40 1_555 1_555
H49 C40 1_555 1_555
C4 C6 1_555 1_555
C8 C10 1_555 1_555
C10 C19 1_555 1_555
C12 C14 1_555 1_555
C13 C15 1_555 1_555
C16 C25 1_555 1_555
C17 C18 1_555 1_555
C20 C26 1_555 1_555
C22 C27 1_555 1_555
C23 C24 1_555 1_555
C34 C38 1_555 1_555
C34 C40 1_555 1_555

#END
