
#######################################################################
#
#                 Cambridge Crystallographic Data Centre
#                                CCDC 
#
#######################################################################
#
# If this CIF has been generated from an entry in the Cambridge 
# Structural Database, then it will include bibliographic, chemical, 
# crystal, experimental, refinement or atomic coordinate data resulting 
# from the CCDC's data processing and validation procedures.
#
#######################################################################

data_DUCLAQ
_chemical_formula_moiety         'C36 H28 N2 O4'
_chemical_name_systematic        
1,1'-((3,3'-Dimethoxybiphenyl-4,4'-diyl)bis(nitrilomethylylidene))bis(2-naphthol)
_symmetry_cell_setting           monoclinic
_symmetry_space_group_name_H-M   'P 21/c'
_symmetry_Int_Tables_number      14
_space_group_name_Hall           '-P 2ybc'
loop_
_symmetry_equiv_pos_site_id
_symmetry_equiv_pos_as_xyz
1 x,y,z
2 -x,1/2+y,1/2-z
3 -x,-y,-z
4 x,1/2-y,1/2+z
_cell_length_a                   4.8724(5)
_cell_length_b                   14.9224(17)
_cell_length_c                   18.3686(18)
_cell_angle_alpha                90
_cell_angle_beta                 91.00
_cell_angle_gamma                90
_cell_volume                     1335.34
_cell_formula_units_Z            2
loop_
_atom_site_label
_atom_site_type_symbol
_atom_site_fract_x
_atom_site_fract_y
_atom_site_fract_z
O1 O 0.7381(6) 0.20171(18) 0.23316(16)
H1 H 0.8344 0.2349 0.2109
O2 O 1.2122(6) 0.25470(19) 0.09764(16)
N1 N 0.8800(5) 0.3507(2) 0.17816(16)
C1 C 0.5652(7) 0.2443(3) 0.2726(2)
C2 C 0.4032(8) 0.1953(3) 0.3229(2)
H2 H 0.4254 0.1336 0.3262
C3 C 0.2176(8) 0.2361(3) 0.3663(2)
H3 H 0.1176 0.2015 0.3986
C4 C 0.1716(7) 0.3306(3) 0.3638(2)
C5 C -0.0224(7) 0.3715(3) 0.4101(2)
H4 H -0.1175 0.3363 0.4430
C6 C -0.0716(8) 0.4608(3) 0.4072(2)
H5 H -0.2004 0.4868 0.4374
C7 C 0.0749(8) 0.5135(3) 0.3579(2)
H6 H 0.0429 0.5748 0.3552
C8 C 0.2678(7) 0.4743(3) 0.3129(2)
H7 H 0.3626 0.5106 0.2808
C9 C 0.3249(6) 0.3820(3) 0.31413(19)
C10 C 0.5269(6) 0.3391(3) 0.26777(18)
C11 C 0.6911(6) 0.3881(3) 0.21965(19)
H8 H 0.6662 0.4498 0.2168
C12 C 1.0514(7) 0.3965(3) 0.12937(19)
C13 C 1.0609(7) 0.4890(3) 0.1212(2)
H9 H 0.9496 0.5251 0.1496
C14 C 1.2345(7) 0.5286(3) 0.0712(2)
H10 H 1.2353 0.5907 0.0669
C15 C 1.4088(7) 0.4779(3) 0.02706(19)
C16 C 1.4005(7) 0.3857(3) 0.0363(2)
H11 H 1.5142 0.3497 0.0086
C17 C 1.2282(7) 0.3455(3) 0.0857(2)
C18 C 1.4205(8) 0.1990(3) 0.0686(2)
H12 H 1.4006 0.1392 0.0871
H13 H 1.5975 0.2221 0.0827
H14 H 1.4040 0.1982 0.0165
O1B O 2.2619(6) 0.79829(18) -0.23316(16)
H1B H 2.1656 0.7651 -0.2109
O2B O 1.7878(6) 0.74530(19) -0.09764(16)
N1B N 2.1200(5) 0.6493(2) -0.17816(16)
C1B C 2.4348(7) 0.7557(3) -0.2726(2)
C2B C 2.5968(8) 0.8047(3) -0.3229(2)
H2B H 2.5746 0.8664 -0.3262
C3B C 2.7824(8) 0.7639(3) -0.3663(2)
H3B H 2.8824 0.7985 -0.3986
C4B C 2.8284(7) 0.6694(3) -0.3638(2)
C5B C 3.0224(7) 0.6285(3) -0.4101(2)
H4B H 3.1175 0.6637 -0.4430
C6B C 3.0716(8) 0.5392(3) -0.4072(2)
H5B H 3.2004 0.5132 -0.4374
C7B C 2.9251(8) 0.4865(3) -0.3579(2)
H6B H 2.9571 0.4252 -0.3552
C8B C 2.7322(7) 0.5257(3) -0.3129(2)
H7B H 2.6374 0.4894 -0.2808
C9B C 2.6751(6) 0.6180(3) -0.31413(19)
C10B C 2.4731(6) 0.6609(3) -0.26777(18)
C11B C 2.3089(6) 0.6119(3) -0.21965(19)
H8B H 2.3338 0.5502 -0.2168
C12B C 1.9486(7) 0.6035(3) -0.12937(19)
C13B C 1.9391(7) 0.5110(3) -0.1212(2)
H9B H 2.0504 0.4749 -0.1496
C14B C 1.7655(7) 0.4714(3) -0.0712(2)
H10B H 1.7647 0.4093 -0.0669
C15B C 1.5912(7) 0.5221(3) -0.02706(19)
C16B C 1.5995(7) 0.6143(3) -0.0363(2)
H11B H 1.4858 0.6503 -0.0086
C17B C 1.7718(7) 0.6545(3) -0.0857(2)
C18B C 1.5795(8) 0.8010(3) -0.0686(2)
H12B H 1.5994 0.8608 -0.0871
H13B H 1.4025 0.7779 -0.0827
H14B H 1.5960 0.8018 -0.0165
loop_
_geom_bond_atom_site_label_1
_geom_bond_atom_site_label_2
_geom_bond_site_symmetry_1
_geom_bond_site_symmetry_2
O1 H1 1_555 1_555
O2 C17 1_555 1_555
N1 C11 1_555 1_555
C1 O1 1_555 1_555
C2 C1 1_555 1_555
H2 C2 1_555 1_555
C3 C2 1_555 1_555
H3 C3 1_555 1_555
C4 C3 1_555 1_555
C5 C4 1_555 1_555
H4 C5 1_555 1_555
C6 C5 1_555 1_555
H5 C6 1_555 1_555
C7 C6 1_555 1_555
H6 C7 1_555 1_555
C8 C7 1_555 1_555
H7 C8 1_555 1_555
C9 C4 1_555 1_555
C10 C1 1_555 1_555
C11 C10 1_555 1_555
H8 C11 1_555 1_555
C12 N1 1_555 1_555
C13 C12 1_555 1_555
H9 C13 1_555 1_555
C14 C13 1_555 1_555
H10 C14 1_555 1_555
C15 C14 1_555 1_555
C16 C15 1_555 1_555
H11 C16 1_555 1_555
C17 C12 1_555 1_555
C18 O2 1_555 1_555
H12 C18 1_555 1_555
H13 C18 1_555 1_555
H14 C18 1_555 1_555
O1B H1B 1_555 1_555
O2B C17B 1_555 1_555
N1B C11B 1_555 1_555
C1B O1B 1_555 1_555
C2B C1B 1_555 1_555
H2B C2B 1_555 1_555
C3B C2B 1_555 1_555
H3B C3B 1_555 1_555
C4B C3B 1_555 1_555
C5B C4B 1_555 1_555
H4B C5B 1_555 1_555
C6B C5B 1_555 1_555
H5B C6B 1_555 1_555
C7B C6B 1_555 1_555
H6B C7B 1_555 1_555
C8B C7B 1_555 1_555
H7B C8B 1_555 1_555
C9B C4B 1_555 1_555
C10B C1B 1_555 1_555
C11B C10B 1_555 1_555
H8B C11B 1_555 1_555
C12B N1B 1_555 1_555
C13B C12B 1_555 1_555
H9B C13B 1_555 1_555
C14B C13B 1_555 1_555
H10B C14B 1_555 1_555
C15B C15 1_555 1_555
C16B C15B 1_555 1_555
H11B C16B 1_555 1_555
C17B C12B 1_555 1_555
C18B O2B 1_555 1_555
H12B C18B 1_555 1_555
H13B C18B 1_555 1_555
H14B C18B 1_555 1_555
C8 C9 1_555 1_555
C9 C10 1_555 1_555
C16 C17 1_555 1_555
C8B C9B 1_555 1_555
C9B C10B 1_555 1_555
C14B C15B 1_555 1_555
C16B C17B 1_555 1_555

#END
