
#######################################################################
#
#                 Cambridge Crystallographic Data Centre
#                                CCDC 
#
#######################################################################
#
# If this CIF has been generated from an entry in the Cambridge 
# Structural Database, then it will include bibliographic, chemical, 
# crystal, experimental, refinement or atomic coordinate data resulting 
# from the CCDC's data processing and validation procedures.
#
#######################################################################

data_DUCMAR
_chemical_formula_moiety         'C44 H50 Cl1 N5 O1,2(C2 H6 O1)'
_chemical_name_systematic        
'4-chloro-2-((4-(10,10,20,20-tetraethyl-5,15,15-trimethyl-5,10,15,20,22,24-hexahydroporphyrin-5-yl)phenyl)carbonoimidoyl)phenol ethanol solvate'
_symmetry_cell_setting           triclinic
_symmetry_space_group_name_H-M   'P -1'
_symmetry_Int_Tables_number      2
_space_group_name_Hall           '-P 1'
loop_
_symmetry_equiv_pos_site_id
_symmetry_equiv_pos_as_xyz
1 x,y,z
2 -x,-y,-z
_cell_length_a                   10.8065(12)
_cell_length_b                   12.4810(14)
_cell_length_c                   18.168(2)
_cell_angle_alpha                105.511(3)
_cell_angle_beta                 106.860(3)
_cell_angle_gamma                95.056(3)
_cell_volume                     2222.91
_cell_formula_units_Z            2
loop_
_atom_site_label
_atom_site_type_symbol
_atom_site_fract_x
_atom_site_fract_y
_atom_site_fract_z
C1 C 0.5860(4) 0.1746(4) 0.7214(2)
C2 C 0.7097(5) 0.1737(5) 0.7152(3)
H1 H 0.7369 0.1132 0.6853
C3 C 0.7871(5) 0.2788(5) 0.7614(3)
H2 H 0.8749 0.3003 0.7673
C4 C 0.7138(4) 0.3449(4) 0.7963(3)
C5 C 0.7542(5) 0.4585(4) 0.8602(3)
C6 C 0.8041(6) 0.4416(6) 0.9443(4)
H3 H 0.8833 0.4093 0.9481
H4 H 0.8288 0.5155 0.9847
C7 C 0.7114(8) 0.3689(6) 0.9658(4)
H5 H 0.6305 0.3972 0.9598
H6 H 0.7500 0.3700 1.0208
H7 H 0.6943 0.2928 0.9306
C8 C 0.8716(6) 0.5303(7) 0.8516(6)
H8 H 0.9079 0.5921 0.9016
H9 H 0.9381 0.4832 0.8497
C9 C 0.8607(10) 0.5753(10) 0.7924(9)
H10 H 0.8100 0.5201 0.7419
H11 H 0.9465 0.5992 0.7910
H12 H 0.8175 0.6392 0.8015
C10 C 0.6443(5) 0.5236(4) 0.8557(3)
C11 C 0.6098(6) 0.5939(6) 0.9148(3)
H13 H 0.6471 0.6063 0.9700
C12 C 0.5091(6) 0.6442(5) 0.8786(4)
H14 H 0.4673 0.6950 0.9059
C13 C 0.4814(5) 0.6075(4) 0.7973(3)
C14 C 0.3851(6) 0.6334(4) 0.7300(3)
C15 C 0.4512(7) 0.6505(5) 0.6675(4)
H15 H 0.5259 0.7107 0.6939
H16 H 0.3893 0.6694 0.6252
H17 H 0.4794 0.5821 0.6449
C16 C 0.3384(7) 0.7445(5) 0.7657(5)
H18 H 0.2967 0.7340 0.8040
H19 H 0.2769 0.7628 0.7229
H20 H 0.4127 0.8049 0.7924
C17 C 0.2635(5) 0.5394(4) 0.6899(3)
C18 C 0.1433(6) 0.5334(5) 0.6991(4)
H21 H 0.1161 0.5886 0.7335
C19 C 0.0673(5) 0.4288(5) 0.6472(4)
H22 H -0.0196 0.4032 0.6410
C20 C 0.1420(5) 0.3711(4) 0.6075(3)
C21 C 0.1078(5) 0.2618(4) 0.5400(3)
C22 C 0.0795(8) 0.2865(6) 0.4580(4)
H23 H 0.0647 0.2147 0.4165
H24 H -0.0026 0.3147 0.4477
C23 C 0.1764(12) 0.3656(9) 0.4462(5)
H25 H 0.1671 0.4418 0.4695
H26 H 0.1615 0.3512 0.3894
H27 H 0.2635 0.3551 0.4719
C24 C -0.0206(5) 0.1899(5) 0.5368(4)
H28 H -0.0896 0.2347 0.5307
H29 H -0.0466 0.1246 0.4888
C25 C -0.0135(6) 0.1490(6) 0.6077(5)
H30 H 0.0400 0.0915 0.6080
H31 H -0.1004 0.1182 0.6042
H32 H 0.0245 0.2110 0.6567
C26 C 0.2155(4) 0.1930(4) 0.5499(2)
C27 C 0.2497(5) 0.1161(4) 0.4939(3)
H33 H 0.2162 0.1016 0.4382
C28 C 0.3430(5) 0.0629(4) 0.5336(3)
H34 H 0.3816 0.0063 0.5090
C29 C 0.3686(4) 0.1076(3) 0.6149(2)
C30 C 0.4650(4) 0.0838(3) 0.6848(2)
C31 C 0.5067(5) -0.0307(4) 0.6520(3)
H35 H 0.4301 -0.0890 0.6259
H36 H 0.5652 -0.0489 0.6961
H37 H 0.5505 -0.0248 0.6139
C32 C 0.4029(4) 0.0671(3) 0.7481(2)
C33 C 0.4795(5) 0.0853(4) 0.8266(3)
H38 H 0.5686 0.1147 0.8426
C34 C 0.4271(5) 0.0608(4) 0.8826(3)
H39 H 0.4808 0.0745 0.9356
C35 C 0.2954(5) 0.0161(4) 0.8598(3)
C36 C 0.2195(5) -0.0061(4) 0.7808(3)
H40 H 0.1315 -0.0396 0.7639
C37 C 0.2722(5) 0.0210(4) 0.7259(3)
H41 H 0.2183 0.0077 0.6729
C38 C 0.2572(5) 0.0477(4) 0.9833(3)
H42 H 0.3081 0.1193 1.0001
C39 C 0.2004(5) 0.0117(5) 1.0386(3)
C40 C 0.2167(5) 0.0872(5) 1.1132(3)
H43 H 0.2641 0.1600 1.1284
C41 C 0.1615(6) 0.0534(6) 1.1653(3)
C42 C 0.0924(6) -0.0542(6) 1.1430(4)
H44 H 0.0558 -0.0760 1.1784
C43 C 0.0767(7) -0.1295(6) 1.0699(4)
H45 H 0.0308 -0.2024 1.0562
C44 C 0.1287(6) -0.0986(5) 1.0154(4)
Cl1 Cl 0.17701(19) 0.14693(18) 1.25747(10)
N1 N 0.5905(3) 0.2801(3) 0.7709(2)
H46 H 0.5251 0.3028 0.7844
N2 N 0.5644(3) 0.5333(3) 0.7846(2)
H47 H 0.5663 0.4969 0.7376
N3 N 0.2629(4) 0.4399(3) 0.6351(2)
H48 H 0.3289 0.4228 0.6200
N4 N 0.2903(3) 0.1875(3) 0.62375(18)
H49 H 0.2882 0.2287 0.6695
N5 N 0.2379(4) -0.0180(3) 0.9123(3)
O1 O 0.1084(6) -0.1746(4) 0.9440(3)
H50 H 0.1312 -0.1437 0.9143
C45 C 0.5564(10) 0.3654(9) 0.5502(6)
H51 H 0.5850 0.4414 0.5505
H52 H 0.4827 0.3299 0.5011
C46 C 0.6660(10) 0.3009(11) 0.5482(6)
H53 H 0.7328 0.3259 0.6004
H54 H 0.7028 0.3137 0.5085
H55 H 0.6330 0.2217 0.5346
O2 O 0.5141(4) 0.3719(3) 0.6155(2)
H56 H 0.4843 0.3083 0.6138
C47 C 0.3129(5) 0.3446(6) 0.8581(4)
H57 H 0.3482 0.4186 0.8978
H58 H 0.3592 0.2905 0.8792
C48 C 0.1705(5) 0.3149(8) 0.8474(4)
H59 H 0.1265 0.3749 0.8356
H60 H 0.1613 0.3045 0.8961
H61 H 0.1322 0.2463 0.8035
O3 O 0.3372(3) 0.3459(3) 0.78714(18)
H62 H 0.3517 0.4114 0.7869
loop_
_geom_bond_atom_site_label_1
_geom_bond_atom_site_label_2
_geom_bond_site_symmetry_1
_geom_bond_site_symmetry_2
C1 C2 1_555 1_555
C2 H1 1_555 1_555
C3 C2 1_555 1_555
H2 C3 1_555 1_555
C4 C3 1_555 1_555
C5 C4 1_555 1_555
C6 C5 1_555 1_555
H3 C6 1_555 1_555
H4 C6 1_555 1_555
C7 C6 1_555 1_555
H5 C7 1_555 1_555
H6 C7 1_555 1_555
H7 C7 1_555 1_555
C8 C5 1_555 1_555
H8 C8 1_555 1_555
H9 C8 1_555 1_555
C9 C8 1_555 1_555
H10 C9 1_555 1_555
H11 C9 1_555 1_555
H12 C9 1_555 1_555
C10 C5 1_555 1_555
C11 C10 1_555 1_555
H13 C11 1_555 1_555
C12 C11 1_555 1_555
H14 C12 1_555 1_555
C13 C12 1_555 1_555
C14 C13 1_555 1_555
C15 C14 1_555 1_555
H15 C15 1_555 1_555
H16 C15 1_555 1_555
H17 C15 1_555 1_555
C16 C14 1_555 1_555
H18 C16 1_555 1_555
H19 C16 1_555 1_555
H20 C16 1_555 1_555
C17 C14 1_555 1_555
C18 C17 1_555 1_555
H21 C18 1_555 1_555
C19 C18 1_555 1_555
H22 C19 1_555 1_555
C20 C19 1_555 1_555
C21 C20 1_555 1_555
C22 C21 1_555 1_555
H23 C22 1_555 1_555
H24 C22 1_555 1_555
C23 C22 1_555 1_555
H25 C23 1_555 1_555
H26 C23 1_555 1_555
H27 C23 1_555 1_555
C24 C21 1_555 1_555
H28 C24 1_555 1_555
H29 C24 1_555 1_555
C25 C24 1_555 1_555
H30 C25 1_555 1_555
H31 C25 1_555 1_555
H32 C25 1_555 1_555
C26 C21 1_555 1_555
C27 C26 1_555 1_555
H33 C27 1_555 1_555
C28 C27 1_555 1_555
H34 C28 1_555 1_555
C29 C28 1_555 1_555
C30 C1 1_555 1_555
C31 C30 1_555 1_555
H35 C31 1_555 1_555
H36 C31 1_555 1_555
H37 C31 1_555 1_555
C32 C30 1_555 1_555
C33 C32 1_555 1_555
H38 C33 1_555 1_555
C34 C33 1_555 1_555
H39 C34 1_555 1_555
C35 C34 1_555 1_555
C36 C35 1_555 1_555
H40 C36 1_555 1_555
C37 C32 1_555 1_555
H41 C37 1_555 1_555
C38 H42 1_555 1_555
C39 C38 1_555 1_555
C40 C39 1_555 1_555
H43 C40 1_555 1_555
C41 C40 1_555 1_555
C42 C41 1_555 1_555
H44 C42 1_555 1_555
C43 C42 1_555 1_555
H45 C43 1_555 1_555
C44 C39 1_555 1_555
Cl1 C41 1_555 1_555
N1 C1 1_555 1_555
H46 N1 1_555 1_555
N2 C10 1_555 1_555
H47 N2 1_555 1_555
N3 C17 1_555 1_555
H48 N3 1_555 1_555
N4 C26 1_555 1_555
H49 N4 1_555 1_555
N5 C35 1_555 1_555
O1 C44 1_555 1_555
H50 O1 1_555 1_555
C45 H51 1_555 1_555
H52 C45 1_555 1_555
C46 C45 1_555 1_555
H53 C46 1_555 1_555
H54 C46 1_555 1_555
H55 C46 1_555 1_555
O2 C45 1_555 1_555
H56 O2 1_555 1_555
C47 H57 1_555 1_555
H58 C47 1_555 1_555
C48 C47 1_555 1_555
H59 C48 1_555 1_555
H60 C48 1_555 1_555
H61 C48 1_555 1_555
O3 C47 1_555 1_555
H62 O3 1_555 1_555
C4 N1 1_555 1_555
C13 N2 1_555 1_555
C20 N3 1_555 1_555
C29 C30 1_555 1_555
C29 N4 1_555 1_555
C36 C37 1_555 1_555
C38 N5 1_555 1_555
C43 C44 1_555 1_555

#END
