
#######################################################################
#
#                 Cambridge Crystallographic Data Centre
#                                CCDC 
#
#######################################################################
#
# If this CIF has been generated from an entry in the Cambridge 
# Structural Database, then it will include bibliographic, chemical, 
# crystal, experimental, refinement or atomic coordinate data resulting 
# from the CCDC's data processing and validation procedures.
#
#######################################################################

data_DUCPIC
_chemical_formula_moiety         'C18 H18 N2 O4 S1'
_chemical_name_systematic        
'methyl 2-((1-(pyridin-2-ylsulfonyl)-2,3-dihydro-1H-indol-7-yl)methyl)acrylate'
_symmetry_cell_setting           orthorhombic
_symmetry_space_group_name_H-M   'P 21 21 21'
_symmetry_Int_Tables_number      19
_space_group_name_Hall           'P 2ac 2ab'
loop_
_symmetry_equiv_pos_site_id
_symmetry_equiv_pos_as_xyz
1 x,y,z
2 1/2-x,-y,1/2+z
3 -x,1/2+y,1/2-z
4 1/2+x,1/2-y,-z
_cell_length_a                   9.0332(18)
_cell_length_b                   10.971(2)
_cell_length_c                   17.316(3)
_cell_angle_alpha                90
_cell_angle_beta                 90
_cell_angle_gamma                90
_cell_volume                     1716.07
_exptl_crystal_colour            colorless
_exptl_crystal_description       block
_cell_formula_units_Z            4
loop_
_atom_site_label
_atom_site_type_symbol
_atom_site_fract_x
_atom_site_fract_y
_atom_site_fract_z
S1 S 0.86694(5) 0.41133(4) 0.88253(2)
N1 N 0.85827(16) 0.34320(13) 0.79794(8)
N2 N 1.1040(2) 0.54328(15) 0.85638(9)
O1 O 0.78165(15) 0.52015(13) 0.87809(8)
O2 O 0.83100(17) 0.32138(14) 0.93855(8)
O3 O 0.38041(17) 0.38117(13) 0.57624(8)
O4 O 0.50833(19) 0.28403(14) 0.66697(11)
C1 C 1.0571(2) 0.44868(17) 0.89678(10)
C2 C 1.1461(2) 0.37678(19) 0.94248(11)
H1 H 1.1077 0.3116 0.9704
C3 C 1.2948(2) 0.4055(2) 0.94517(12)
H2 H 1.3593 0.3592 0.9751
C4 C 1.3465(3) 0.5021(2) 0.90370(12)
H3 H 1.4465 0.5223 0.9045
C5 C 1.2483(2) 0.5690(2) 0.86087(12)
H4 H 1.2839 0.6358 0.8335
C6 C 0.9687(2) 0.24334(17) 0.78672(11)
H5 H 0.9209 0.1702 0.7676
H6 H 1.0184 0.2244 0.8349
C7 C 1.0789(2) 0.29282(19) 0.72735(12)
H7 H 1.1630 0.3311 0.7523
H8 H 1.1138 0.2289 0.6932
C8 C 0.98709(19) 0.38417(18) 0.68466(10)
C9 C 1.0069(2) 0.43424(19) 0.61197(11)
H9 H 1.0915 0.4172 0.5834
C10 C 0.8984(2) 0.5099(2) 0.58292(11)
H10 H 0.9109 0.5451 0.5345
C11 C 0.7724(2) 0.53386(18) 0.62425(11)
H11 H 0.7008 0.5844 0.6027
C12 C 0.74788(19) 0.48503(17) 0.69757(10)
C13 C 0.86077(17) 0.41225(15) 0.72672(9)
C14 C 0.59995(19) 0.50250(19) 0.73690(11)
H12 H 0.5867 0.4397 0.7757
H13 H 0.5987 0.5809 0.7628
C15 C 0.4748(2) 0.49679(18) 0.68007(11)
C16 C 0.45706(19) 0.37648(18) 0.64207(12)
C17 C 0.3646(3) 0.2680(2) 0.53528(14)
H14 H 0.4601 0.2404 0.5184
H15 H 0.3017 0.2800 0.4912
H16 H 0.3214 0.2081 0.5688
C18 C 0.3853(2) 0.5887(2) 0.66469(13)
H17 H 0.3088 0.5790 0.6293
H18 H 0.3987 0.6633 0.6893
loop_
_geom_bond_atom_site_label_1
_geom_bond_atom_site_label_2
_geom_bond_site_symmetry_1
_geom_bond_site_symmetry_2
S1 N1 1_555 1_555
N1 C6 1_555 1_555
N2 C1 1_555 1_555
O1 S1 1_555 1_555
O2 S1 1_555 1_555
O3 C16 1_555 1_555
O4 C16 1_555 1_555
C1 S1 1_555 1_555
C2 C1 1_555 1_555
H1 C2 1_555 1_555
C3 C2 1_555 1_555
H2 C3 1_555 1_555
C4 C3 1_555 1_555
H3 C4 1_555 1_555
C5 N2 1_555 1_555
H4 C5 1_555 1_555
C6 H5 1_555 1_555
H6 C6 1_555 1_555
C7 C6 1_555 1_555
H7 C7 1_555 1_555
H8 C7 1_555 1_555
C8 C7 1_555 1_555
C9 C8 1_555 1_555
H9 C9 1_555 1_555
C10 C9 1_555 1_555
H10 C10 1_555 1_555
C11 C10 1_555 1_555
H11 C11 1_555 1_555
C12 C11 1_555 1_555
C13 N1 1_555 1_555
C14 C12 1_555 1_555
H12 C14 1_555 1_555
H13 C14 1_555 1_555
C15 C14 1_555 1_555
C16 C15 1_555 1_555
C17 O3 1_555 1_555
H14 C17 1_555 1_555
H15 C17 1_555 1_555
H16 C17 1_555 1_555
C18 C15 1_555 1_555
H17 C18 1_555 1_555
H18 C18 1_555 1_555
C4 C5 1_555 1_555
C8 C13 1_555 1_555
C12 C13 1_555 1_555

#END
