
#######################################################################
#
#                 Cambridge Crystallographic Data Centre
#                                CCDC 
#
#######################################################################
#
# If this CIF has been generated from an entry in the Cambridge 
# Structural Database, then it will include bibliographic, chemical, 
# crystal, experimental, refinement or atomic coordinate data resulting 
# from the CCDC's data processing and validation procedures.
#
#######################################################################

data_DUCTUR
_chemical_name_common            1,3-bis[(4-nitrobenzylidene)aminooxy]propane
_chemical_formula_moiety         'C17 H16 N4 O6'
_chemical_name_systematic        
N,N'-(1,3-Propanediylbis(oxy))bis(1-(4-nitrophenyl)methanimine)
_symmetry_cell_setting           monoclinic
_symmetry_space_group_name_H-M   'C 2'
_symmetry_Int_Tables_number      5
_space_group_name_Hall           'C 2y'
loop_
_symmetry_equiv_pos_site_id
_symmetry_equiv_pos_as_xyz
1 x,y,z
2 -x,y,-z
3 1/2+x,1/2+y,z
4 1/2-x,1/2+y,-z
_cell_length_a                   29.005(3)
_cell_length_b                   4.7878(5)
_cell_length_c                   6.3579(7)
_cell_angle_alpha                90
_cell_angle_beta                 99.1440(10)
_cell_angle_gamma                90
_cell_volume                     871.702
_exptl_crystal_colour            colorless
_exptl_crystal_description       needle-like
_chemical_melting_point          '427-429 K'
_cell_formula_units_Z            2
_exptl_crystal_recrystallization_method chloroform/N,N-dimethylformamide
loop_
_atom_site_label
_atom_site_type_symbol
_atom_site_fract_x
_atom_site_fract_y
_atom_site_fract_z
N1 N 0.93031(9) 0.2933(7) 0.6567(4)
N2 N 0.79744(9) 1.2194(6) 0.1169(4)
O1 O 0.94454(7) 0.1141(6) 0.8289(3)
O2 O 0.76377(8) 1.3375(6) 0.1705(3)
O3 O 0.81103(8) 1.2669(6) -0.0530(3)
C1 C 0.98599(10) -0.0342(8) 0.8012(4)
H1 H 1.0106 0.0956 0.7815
H2 H 0.9799 -0.1551 0.6775
C2 C 1.0000 -0.2040(12) 1.0000
H3 H 0.9741 -0.3236 1.0203
C3 C 0.89337(11) 0.4213(8) 0.6853(5)
H4 H 0.8809 0.3840 0.8082
C4 C 0.86975(10) 0.6240(8) 0.5337(4)
C5 C 0.88617(10) 0.6955(7) 0.3454(4)
H5 H 0.9130 0.6115 0.3120
C6 C 0.86237(10) 0.8918(7) 0.2086(5)
H6 H 0.8733 0.9422 0.0841
C7 C 0.82254(10) 1.0105(7) 0.2594(4)
C8 C 0.80565(10) 0.9443(8) 0.4438(4)
H7 H 0.7787 1.0280 0.4756
C9 C 0.82958(10) 0.7517(8) 0.5798(4)
H8 H 0.8186 0.7061 0.7053
N1A N 1.06969(9) 0.2933(7) 1.3433(4)
N2A N 1.20256(9) 1.2194(6) 1.8831(4)
O1A O 1.05546(7) 0.1141(6) 1.1711(3)
O2A O 1.23623(8) 1.3375(6) 1.8295(3)
O3A O 1.18897(8) 1.2669(6) 2.0530(3)
C1A C 1.01401(10) -0.0342(8) 1.1988(4)
H1A H 0.9894 0.0956 1.2185
H2A H 1.0201 -0.1551 1.3225
H3A H 1.0259 -0.3236 0.9797
C3A C 1.10663(11) 0.4213(8) 1.3147(5)
H4A H 1.1191 0.3840 1.1918
C4A C 1.13025(10) 0.6240(8) 1.4663(4)
C5A C 1.11383(10) 0.6955(7) 1.6546(4)
H5A H 1.0870 0.6115 1.6880
C6A C 1.13763(10) 0.8918(7) 1.7914(5)
H6A H 1.1267 0.9422 1.9159
C7A C 1.17746(10) 1.0105(7) 1.7406(4)
C8A C 1.19435(10) 0.9443(8) 1.5562(4)
H7A H 1.2213 1.0280 1.5244
C9A C 1.17042(10) 0.7517(8) 1.4202(4)
H8A H 1.1814 0.7061 1.2947
loop_
_geom_bond_atom_site_label_1
_geom_bond_atom_site_label_2
_geom_bond_site_symmetry_1
_geom_bond_site_symmetry_2
N1 O1 1_555 1_555
N2 O2 1_555 1_555
O1 C1 1_555 1_555
O3 N2 1_555 1_555
C1 H1 1_555 1_555
H2 C1 1_555 1_555
C2 C1 1_555 1_555
H3 C2 1_555 1_555
C3 N1 1_555 1_555
H4 C3 1_555 1_555
C4 C3 1_555 1_555
C5 C4 1_555 1_555
H5 C5 1_555 1_555
C6 C5 1_555 1_555
H6 C6 1_555 1_555
C7 N2 1_555 1_555
C8 C7 1_555 1_555
H7 C8 1_555 1_555
C9 C4 1_555 1_555
H8 C9 1_555 1_555
N1A O1A 1_555 1_555
N2A O2A 1_555 1_555
O1A C1A 1_555 1_555
O3A N2A 1_555 1_555
C1A C2 1_555 1_555
H1A C1A 1_555 1_555
H2A C1A 1_555 1_555
H3A C2 1_555 1_555
C3A N1A 1_555 1_555
H4A C3A 1_555 1_555
C4A C3A 1_555 1_555
C5A C4A 1_555 1_555
H5A C5A 1_555 1_555
C6A C5A 1_555 1_555
H6A C6A 1_555 1_555
C7A N2A 1_555 1_555
C8A C7A 1_555 1_555
H7A C8A 1_555 1_555
C9A C4A 1_555 1_555
H8A C9A 1_555 1_555
C6 C7 1_555 1_555
C8 C9 1_555 1_555
C6A C7A 1_555 1_555
C8A C9A 1_555 1_555

#END
