
#######################################################################
#
#                 Cambridge Crystallographic Data Centre
#                                CCDC 
#
#######################################################################
#
# If this CIF has been generated from an entry in the Cambridge 
# Structural Database, then it will include bibliographic, chemical, 
# crystal, experimental, refinement or atomic coordinate data resulting 
# from the CCDC's data processing and validation procedures.
#
#######################################################################

data_DUCTEB
_chemical_formula_moiety         'C25 H15 Cl1 N2 O2'
_chemical_name_systematic        
3-(4-Chlorophenyl)-1-(4-nitrophenyl)benzo[f]quinoline
_symmetry_cell_setting           triclinic
_symmetry_space_group_name_H-M   'P -1'
_symmetry_Int_Tables_number      2
_space_group_name_Hall           '-P 1'
loop_
_symmetry_equiv_pos_site_id
_symmetry_equiv_pos_as_xyz
1 x,y,z
2 -x,-y,-z
_cell_length_a                   9.1390(12)
_cell_length_b                   9.5350(11)
_cell_length_c                   11.9668(17)
_cell_angle_alpha                108.182(4)
_cell_angle_beta                 105.366(4)
_cell_angle_gamma                92.739(3)
_cell_volume                     945.571
_exptl_crystal_colour            yellow
_exptl_crystal_description       block
_chemical_melting_point          '559-561 K'
_cell_formula_units_Z            2
_exptl_crystal_recrystallization_method ethanol
loop_
_atom_site_label
_atom_site_type_symbol
_atom_site_fract_x
_atom_site_fract_y
_atom_site_fract_z
Cl1 Cl -0.44740(5) 1.45046(5) 0.65255(4)
O1 O 0.11873(18) 0.19922(14) 0.55020(13)
O2 O 0.20781(16) 0.29045(15) 0.43402(12)
N1 N 0.09795(15) 1.16854(15) 0.97919(12)
N2 N 0.16218(16) 0.30287(16) 0.52288(13)
C1 C 0.03104(17) 1.11236(17) 0.85802(15)
C2 C 0.05962(18) 0.97511(17) 0.78672(15)
H1 H 0.0085 0.9370 0.7008
C3 C 0.16056(18) 0.89462(17) 0.83916(14)
C4 C 0.24330(17) 0.95634(17) 0.96652(15)
C5 C 0.20143(17) 1.09302(17) 1.03223(15)
C6 C 0.26619(18) 1.15733(18) 1.16297(15)
H2 H 0.2361 1.2475 1.2062
C7 C 0.36952(19) 1.09148(19) 1.22567(15)
H3 H 0.4074 1.1337 1.3128
C8 C 0.42320(18) 0.95928(18) 1.16351(15)
C9 C 0.36459(18) 0.89220(17) 1.03335(15)
C10 C 0.43260(18) 0.77063(18) 0.97623(16)
H4 H 0.4000 0.7273 0.8890
C11 C 0.54513(19) 0.71333(19) 1.04391(17)
H5 H 0.5879 0.6308 1.0029
C12 C 0.59711(19) 0.7757(2) 1.17264(17)
H6 H 0.6725 0.7342 1.2192
C13 C 0.53780(19) 0.89731(19) 1.23024(16)
H7 H 0.5746 0.9411 1.3173
C14 C -0.08359(18) 1.19683(17) 0.80328(15)
C15 C -0.17082(19) 1.14279(18) 0.67950(15)
H8 H -0.1543 1.0514 0.6265
C16 C -0.28137(19) 1.22157(19) 0.63335(16)
H9 H -0.3407 1.1840 0.5492
C17 C -0.30481(18) 1.35505(19) 0.71036(16)
C18 C -0.21770(19) 1.41347(19) 0.83272(16)
H10 H -0.2323 1.5067 0.8845
C19 C -0.10882(19) 1.33288(18) 0.87788(15)
H11 H -0.0497 1.3713 0.9620
C20 C 0.16339(17) 0.74070(17) 0.75715(15)
C21 C 0.21663(19) 0.71865(18) 0.65500(15)
H12 H 0.2540 0.8023 0.6383
C22 C 0.21556(18) 0.57585(18) 0.57745(15)
H13 H 0.2528 0.5604 0.5082
C23 C 0.15882(18) 0.45621(17) 0.60359(14)
C24 C 0.09988(19) 0.47391(18) 0.70168(15)
H14 H 0.0590 0.3899 0.7161
C25 C 0.10213(19) 0.61767(18) 0.77824(15)
H15 H 0.0616 0.6326 0.8458
loop_
_geom_bond_atom_site_label_1
_geom_bond_atom_site_label_2
_geom_bond_site_symmetry_1
_geom_bond_site_symmetry_2
Cl1 C17 1_555 1_555
O1 N2 1_555 1_555
O2 N2 1_555 1_555
N1 C1 1_555 1_555
N2 C23 1_555 1_555
C1 C2 1_555 1_555
C2 H1 1_555 1_555
C3 C2 1_555 1_555
C4 C3 1_555 1_555
C5 N1 1_555 1_555
C6 C5 1_555 1_555
H2 C6 1_555 1_555
C7 C6 1_555 1_555
H3 C7 1_555 1_555
C8 C7 1_555 1_555
C9 C4 1_555 1_555
C10 C9 1_555 1_555
H4 C10 1_555 1_555
C11 C10 1_555 1_555
H5 C11 1_555 1_555
C12 C11 1_555 1_555
H6 C12 1_555 1_555
C13 C8 1_555 1_555
H7 C13 1_555 1_555
C14 C1 1_555 1_555
C15 C14 1_555 1_555
H8 C15 1_555 1_555
C16 C15 1_555 1_555
H9 C16 1_555 1_555
C17 C16 1_555 1_555
C18 C17 1_555 1_555
H10 C18 1_555 1_555
C19 C14 1_555 1_555
H11 C19 1_555 1_555
C20 C3 1_555 1_555
C21 C20 1_555 1_555
H12 C21 1_555 1_555
C22 C21 1_555 1_555
H13 C22 1_555 1_555
C23 C22 1_555 1_555
C24 C23 1_555 1_555
H14 C24 1_555 1_555
C25 C20 1_555 1_555
H15 C25 1_555 1_555
C4 C5 1_555 1_555
C8 C9 1_555 1_555
C12 C13 1_555 1_555
C18 C19 1_555 1_555
C24 C25 1_555 1_555

#END
