
#######################################################################
#
#                 Cambridge Crystallographic Data Centre
#                                CCDC 
#
#######################################################################
#
# If this CIF has been generated from an entry in the Cambridge 
# Structural Database, then it will include bibliographic, chemical, 
# crystal, experimental, refinement or atomic coordinate data resulting 
# from the CCDC's data processing and validation procedures.
#
#######################################################################

data_DUCVOO
_chemical_formula_moiety         '2(C13 H9 N2 O3 1-),C4 H15 N3 2+'
_chemical_name_systematic        
"2,2'-iminodiethanaminium bis(2-hydroxy-5-(phenyldiazenyl)benzoate)"
_symmetry_cell_setting           triclinic
_symmetry_space_group_name_H-M   'P -1'
_symmetry_Int_Tables_number      2
_space_group_name_Hall           '-P 1'
loop_
_symmetry_equiv_pos_site_id
_symmetry_equiv_pos_as_xyz
1 x,y,z
2 -x,-y,-z
_cell_length_a                   8.0040(7)
_cell_length_b                   9.4869(8)
_cell_length_c                   20.3491(18)
_cell_angle_alpha                84.6370(10)
_cell_angle_beta                 87.032(2)
_cell_angle_gamma                78.9620(10)
_cell_volume                     1509.04
_exptl_crystal_colour            colorless
_exptl_crystal_description       block
_cell_formula_units_Z            2
loop_
_atom_site_label
_atom_site_type_symbol
_atom_site_fract_x
_atom_site_fract_y
_atom_site_fract_z
N1 N 0.5094(4) 0.1271(3) 0.59789(13)
H1 H 0.4309 0.0739 0.5936
H2 H 0.6099 0.0696 0.6046
H3 H 0.5163 0.1851 0.5613
N2 N 0.1602(4) 0.2195(3) 0.64204(13)
H4 H 0.1499 0.1715 0.6819
N3 N 0.0087(4) 0.1624(3) 0.52562(12)
H5 H 0.1137 0.1181 0.5358
H6 H -0.0006 0.1710 0.4820
H7 H -0.0660 0.1110 0.5442
C1 C 0.4614(5) 0.2150(4) 0.65501(17)
H8 H 0.5459 0.2742 0.6592
H9 H 0.4591 0.1518 0.6952
C2 C 0.2906(5) 0.3094(4) 0.64628(19)
H10 H 0.2626 0.3680 0.6833
H11 H 0.2926 0.3733 0.6063
C3 C -0.0088(5) 0.2968(4) 0.62405(18)
H12 H -0.0275 0.3927 0.6392
H13 H -0.0943 0.2466 0.6455
C4 C -0.0264(5) 0.3079(4) 0.55055(18)
H14 H -0.1409 0.3562 0.5396
H15 H 0.0527 0.3650 0.5293
N4 N 0.6927(4) 0.1139(3) 0.19939(14)
N5 N 0.7888(4) -0.0038(3) 0.21627(14)
O1 O 0.6866(3) 0.0729(3) 0.45584(10)
O2 O 0.5581(4) 0.2934(3) 0.48106(11)
O3 O 0.3914(3) 0.4674(3) 0.39398(12)
H16 H 0.4234 0.4352 0.4310
C5 C 0.6102(5) 0.1994(4) 0.44006(17)
C6 C 0.5752(4) 0.2449(3) 0.36829(16)
C7 C 0.4653(5) 0.3747(4) 0.34896(18)
C8 C 0.4274(5) 0.4114(4) 0.28236(19)
H17 H 0.3515 0.4958 0.2700
C9 C 0.5026(5) 0.3227(4) 0.23537(18)
H18 H 0.4771 0.3478 0.1912
C10 C 0.6166(5) 0.1955(4) 0.25269(16)
C11 C 0.6508(4) 0.1577(4) 0.31943(15)
H19 H 0.7258 0.0726 0.3314
C12 C 0.8657(5) -0.0823(4) 0.16154(18)
C13 C 0.8256(5) -0.0419(4) 0.09637(18)
H20 H 0.7448 0.0403 0.0855
C14 C 0.9067(7) -0.1246(6) 0.0475(2)
H21 H 0.8815 -0.0967 0.0036
C15 C 1.0240(6) -0.2476(6) 0.0631(2)
H22 H 1.0764 -0.3033 0.0299
C16 C 1.0636(6) -0.2879(5) 0.1273(2)
H23 H 1.1446 -0.3701 0.1379
C17 C 0.9829(5) -0.2063(5) 0.1769(2)
H24 H 1.0079 -0.2353 0.2208
N6 N 0.3037(4) 1.0021(4) 0.13048(15)
N7 N 0.3860(4) 0.8871(4) 0.15595(15)
O4 O 0.1615(3) 1.0156(3) 0.38275(11)
O5 O 0.0139(4) 1.2378(3) 0.39116(11)
O6 O -0.0619(3) 1.4087(3) 0.28893(13)
H25 H -0.0593 1.3809 0.3283
C18 C 0.0944(5) 1.1385(4) 0.35724(17)
C19 C 0.1078(4) 1.1705(4) 0.28321(15)
C20 C 0.0281(5) 1.3038(4) 0.25340(18)
C21 C 0.0375(5) 1.3316(4) 0.18511(18)
H26 H -0.0177 1.4194 0.1654
C22 C 0.1275(5) 1.2302(4) 0.14717(18)
H27 H 0.1318 1.2491 0.1015
C23 C 0.2134(5) 1.0985(4) 0.17572(17)
C24 C 0.1998(4) 1.0689(4) 0.24391(16)
H28 H 0.2531 0.9801 0.2633
C25 C 0.4707(5) 0.7920(4) 0.10758(19)
C26 C 0.4571(5) 0.8224(5) 0.0398(2)
H29 H 0.3916 0.9087 0.0229
C27 C 0.5406(6) 0.7250(6) -0.0025(2)
H30 H 0.5313 0.7455 -0.0479
C28 C 0.6371(6) 0.5980(6) 0.0221(3)
H31 H 0.6936 0.5330 -0.0068
C29 C 0.6518(6) 0.5653(5) 0.0894(3)
H32 H 0.7172 0.4785 0.1058
C30 C 0.5675(6) 0.6638(5) 0.1326(2)
H33 H 0.5765 0.6430 0.1780
loop_
_geom_bond_atom_site_label_1
_geom_bond_atom_site_label_2
_geom_bond_site_symmetry_1
_geom_bond_site_symmetry_2
N1 H1 1_555 1_555
H2 N1 1_555 1_555
H3 N1 1_555 1_555
N2 H4 1_555 1_555
N3 H5 1_555 1_555
H6 N3 1_555 1_555
H7 N3 1_555 1_555
C1 N1 1_555 1_555
H8 C1 1_555 1_555
H9 C1 1_555 1_555
C2 N2 1_555 1_555
H10 C2 1_555 1_555
H11 C2 1_555 1_555
C3 N2 1_555 1_555
H12 C3 1_555 1_555
H13 C3 1_555 1_555
C4 N3 1_555 1_555
H14 C4 1_555 1_555
H15 C4 1_555 1_555
N4 N5 1_555 1_555
N5 C12 1_555 1_555
O1 C5 1_555 1_555
O2 C5 1_555 1_555
O3 H16 1_555 1_555
C5 C6 1_555 1_555
C6 C7 1_555 1_555
C7 O3 1_555 1_555
C8 C7 1_555 1_555
H17 C8 1_555 1_555
C9 C8 1_555 1_555
H18 C9 1_555 1_555
C10 N4 1_555 1_555
C11 C6 1_555 1_555
H19 C11 1_555 1_555
C12 C13 1_555 1_555
C13 H20 1_555 1_555
C14 C13 1_555 1_555
H21 C14 1_555 1_555
C15 C14 1_555 1_555
H22 C15 1_555 1_555
C16 C15 1_555 1_555
H23 C16 1_555 1_555
C17 C12 1_555 1_555
H24 C17 1_555 1_555
N6 N7 1_555 1_555
N7 C25 1_555 1_555
O4 C18 1_555 1_555
O5 C18 1_555 1_555
O6 H25 1_555 1_555
C18 C19 1_555 1_555
C19 C20 1_555 1_555
C20 O6 1_555 1_555
C21 C20 1_555 1_555
H26 C21 1_555 1_555
C22 C21 1_555 1_555
H27 C22 1_555 1_555
C23 N6 1_555 1_555
C24 C19 1_555 1_555
H28 C24 1_555 1_555
C25 C26 1_555 1_555
C26 H29 1_555 1_555
C27 C26 1_555 1_555
H30 C27 1_555 1_555
C28 C27 1_555 1_555
H31 C28 1_555 1_555
C29 C28 1_555 1_555
H32 C29 1_555 1_555
C30 C25 1_555 1_555
H33 C30 1_555 1_555
C1 C2 1_555 1_555
C3 C4 1_555 1_555
C9 C10 1_555 1_555
C10 C11 1_555 1_555
C16 C17 1_555 1_555
C22 C23 1_555 1_555
C23 C24 1_555 1_555
C29 C30 1_555 1_555

#END
