
#######################################################################
#
#                 Cambridge Crystallographic Data Centre
#                                CCDC 
#
#######################################################################
#
# If this CIF has been generated from an entry in the Cambridge 
# Structural Database, then it will include bibliographic, chemical, 
# crystal, experimental, refinement or atomic coordinate data resulting 
# from the CCDC's data processing and validation procedures.
#
#######################################################################

data_DUCVUT
_chemical_formula_moiety         'C14 H13 N3 O3'
_chemical_name_systematic        
5-(2-Furyl)-3-methyl-1-(3-nitrophenyl)-4,5-dihydro-1H-pyrazole
_symmetry_cell_setting           triclinic
_symmetry_space_group_name_H-M   'P -1'
_symmetry_Int_Tables_number      2
_space_group_name_Hall           '-P 1'
loop_
_symmetry_equiv_pos_site_id
_symmetry_equiv_pos_as_xyz
1 x,y,z
2 -x,-y,-z
_cell_length_a                   6.2089(2)
_cell_length_b                   7.8581(3)
_cell_length_c                   14.3800(4)
_cell_angle_alpha                105.764(2)
_cell_angle_beta                 97.054(2)
_cell_angle_gamma                96.944(2)
_cell_volume                     661.305
_exptl_crystal_colour            bronze
_exptl_crystal_description       block
_cell_formula_units_Z            2
_exptl_crystal_recrystallization_method methanol
loop_
_atom_site_label
_atom_site_type_symbol
_atom_site_fract_x
_atom_site_fract_y
_atom_site_fract_z
O1 O 0.36743(18) 0.34679(15) 0.90208(8)
N1 N 0.1661(2) 0.62239(17) 0.78604(10)
N2 N 0.2000(2) 0.45740(16) 0.72794(10)
C1 C 0.3755(2) 0.4521(2) 0.67745(11)
C2 C 0.5059(2) 0.6102(2) 0.67820(11)
H1 H 0.4772 0.7211 0.7132
C3 C 0.0168(3) 0.5942(2) 0.83623(13)
C4 C 0.4224(3) 0.2892(2) 0.62195(12)
H2 H 0.3347 0.1826 0.6191
C5 C 0.2531(2) 0.2318(2) 0.81601(12)
C6 C 0.6784(2) 0.5987(2) 0.62600(12)
N3 N 0.8105(2) 0.7665(2) 0.62761(12)
O2 O 0.9707(2) 0.7615(2) 0.58611(11)
C7 C 0.0941(2) 0.3072(2) 0.75855(12)
H3 H 0.0138 0.2126 0.7010
C8 C 0.7298(3) 0.4395(3) 0.57272(12)
H4 H 0.8487 0.4365 0.5391
C9 C -0.0684(3) 0.4007(3) 0.81836(14)
H5 H -0.2166 0.3686 0.7817
H6 H -0.0677 0.3706 0.8795
C10 C 0.4967(3) 0.2476(3) 0.94299(14)
H7 H 0.5924 0.2920 1.0022
O3 O 0.7571(3) 0.9062(2) 0.67000(14)
C11 C 0.5976(3) 0.2848(3) 0.57136(13)
H8 H 0.6270 0.1748 0.5355
C12 C 0.3090(3) 0.0707(2) 0.80439(14)
H9 H 0.2550 -0.0308 0.7518
C13 C 0.4665(3) 0.0818(3) 0.88708(14)
H10 H 0.5350 -0.0108 0.8992
C14 C -0.0654(3) 0.7433(3) 0.90245(15)
H11 H 0.0141 0.8556 0.9019
H12 H -0.0444 0.7329 0.9678
H13 H -0.2191 0.7381 0.8806
loop_
_geom_bond_atom_site_label_1
_geom_bond_atom_site_label_2
_geom_bond_site_symmetry_1
_geom_bond_site_symmetry_2
O1 C5 1_555 1_555
N1 N2 1_555 1_555
N2 C1 1_555 1_555
C1 C2 1_555 1_555
C2 H1 1_555 1_555
C3 N1 1_555 1_555
C4 C1 1_555 1_555
H2 C4 1_555 1_555
C5 C7 1_555 1_555
C6 C2 1_555 1_555
N3 C6 1_555 1_555
O2 N3 1_555 1_555
C7 N2 1_555 1_555
H3 C7 1_555 1_555
C8 C6 1_555 1_555
H4 C8 1_555 1_555
C9 C3 1_555 1_555
H5 C9 1_555 1_555
H6 C9 1_555 1_555
C10 O1 1_555 1_555
H7 C10 1_555 1_555
O3 N3 1_555 1_555
C11 C4 1_555 1_555
H8 C11 1_555 1_555
C12 C5 1_555 1_555
H9 C12 1_555 1_555
C13 C10 1_555 1_555
H10 C13 1_555 1_555
C14 C3 1_555 1_555
H11 C14 1_555 1_555
H12 C14 1_555 1_555
H13 C14 1_555 1_555
C7 C9 1_555 1_555
C8 C11 1_555 1_555
C12 C13 1_555 1_555

#END
