
#######################################################################
#
#                 Cambridge Crystallographic Data Centre
#                                CCDC 
#
#######################################################################
#
# If this CIF has been generated from an entry in the Cambridge 
# Structural Database, then it will include bibliographic, chemical, 
# crystal, experimental, refinement or atomic coordinate data resulting 
# from the CCDC's data processing and validation procedures.
#
#######################################################################

data_DUCWII
_chemical_formula_moiety         'C4 H14 N2 2+,2(C6 H4 N1 O2 1-),H2 O1'
_chemical_name_systematic        
'Butane-1,4-diammonium bis(pyridine-2-carboxylate) monohydrate'
_symmetry_cell_setting           monoclinic
_symmetry_space_group_name_H-M   'C 2/c'
_symmetry_Int_Tables_number      15
_space_group_name_Hall           '-C 2yn'
loop_
_symmetry_equiv_pos_site_id
_symmetry_equiv_pos_as_xyz
1 x,y,z
2 -x,y,1/2-z
3 1/2+x,1/2+y,z
4 1/2-x,1/2+y,1/2-z
5 -x,-y,-z
6 x,-y,1/2+z
7 1/2-x,1/2-y,-z
8 1/2+x,1/2-y,1/2+z
_cell_length_a                   20.655(3)
_cell_length_b                   7.6170(11)
_cell_length_c                   12.910(2)
_cell_angle_alpha                90
_cell_angle_beta                 113.789(4)
_cell_angle_gamma                90
_cell_volume                     1858.55
_exptl_crystal_colour            colorless
_exptl_crystal_description       block
_cell_formula_units_Z            4
_exptl_crystal_recrystallization_method acetone
loop_
_atom_site_label
_atom_site_type_symbol
_atom_site_fract_x
_atom_site_fract_y
_atom_site_fract_z
O1 O 0.42900(8) 0.4778(2) 0.55250(14)
O2 O 0.36511(9) 0.6362(3) 0.61996(15)
N1 N 0.31266(9) 0.3696(3) 0.37672(16)
C1 C 0.25453(15) 0.3005(4) 0.2959(2)
H1 H 0.2608(13) 0.230(4) 0.235(2)
C2 C 0.18842(15) 0.3185(4) 0.2948(3)
H2 H 0.1484(13) 0.262(3) 0.233(2)
C3 C 0.18017(14) 0.4148(4) 0.3778(3)
H3 H 0.1342(14) 0.439(3) 0.380(2)
C4 C 0.23908(13) 0.4901(4) 0.4606(2)
H4 H 0.2350(11) 0.556(3) 0.517(2)
C5 C 0.30461(11) 0.4623(3) 0.45825(18)
C6 C 0.37158(13) 0.5323(3) 0.5513(2)
N2 N 0.05485(12) 0.8325(3) 0.15154(19)
H5 H 0.0797(12) 0.853(3) 0.234(2)
H6 H 0.0116(14) 0.898(3) 0.121(2)
H7 H 0.0864(14) 0.863(4) 0.117(2)
C7 C 0.00642(18) 0.5974(3) 0.0102(2)
H8 H -0.0362(16) 0.665(4) -0.025(3)
H9 H 0.0374(16) 0.642(4) -0.025(3)
C8 C 0.04043(18) 0.6425(4) 0.1318(2)
H10 H 0.0144(16) 0.604(4) 0.173(3)
H11 H 0.0889(17) 0.577(4) 0.175(3)
N2D N -0.05485(12) 0.1675(3) -0.15154(19)
H5D H -0.0797(12) 0.147(3) -0.234(2)
H6D H -0.0116(14) 0.102(3) -0.121(2)
H7D H -0.0864(14) 0.137(4) -0.117(2)
C7D C -0.00642(18) 0.4026(3) -0.0102(2)
H8D H 0.0362(16) 0.335(4) 0.025(3)
H9D H -0.0374(16) 0.358(4) 0.025(3)
C8D C -0.04043(18) 0.3575(4) -0.1318(2)
H10D H -0.0144(16) 0.396(4) -0.173(3)
H11D H -0.0889(17) 0.423(4) -0.175(3)
O3 O 0.0000 0.2467(4) 0.2500
H12 H 0.018(2) 0.173(5) 0.311(3)
H12A H -0.018(2) 0.173(5) 0.189(3)
loop_
_geom_bond_atom_site_label_1
_geom_bond_atom_site_label_2
_geom_bond_site_symmetry_1
_geom_bond_site_symmetry_2
O1 C6 1_555 1_555
O2 C6 1_555 1_555
N1 C1 1_555 1_555
C1 H1 1_555 1_555
C2 C1 1_555 1_555
H2 C2 1_555 1_555
C3 C2 1_555 1_555
H3 C3 1_555 1_555
C4 C3 1_555 1_555
H4 C4 1_555 1_555
C5 N1 1_555 1_555
C6 C5 1_555 1_555
N2 H5 1_555 1_555
H6 N2 1_555 1_555
H7 N2 1_555 1_555
C7 H8 1_555 1_555
H9 C7 1_555 1_555
C8 N2 1_555 1_555
H10 C8 1_555 1_555
H11 C8 1_555 1_555
O3 H12 1_555 1_555
N2D H5D 1_555 1_555
H6D N2D 1_555 1_555
H7D N2D 1_555 1_555
C7D C7 1_555 1_555
H8D C7D 1_555 1_555
H9D C7D 1_555 1_555
C8D N2D 1_555 1_555
H10D C8D 1_555 1_555
H11D C8D 1_555 1_555
H12A O3 1_555 1_555
C4 C5 1_555 1_555
C7 C8 1_555 1_555
C7D C8D 1_555 1_555

#END
