
#######################################################################
#
#                 Cambridge Crystallographic Data Centre
#                                CCDC 
#
#######################################################################
#
# If this CIF has been generated from an entry in the Cambridge 
# Structural Database, then it will include bibliographic, chemical, 
# crystal, experimental, refinement or atomic coordinate data resulting 
# from the CCDC's data processing and validation procedures.
#
#######################################################################

data_DUCXEG
_chemical_formula_moiety         'C13 H10 O3,2(H2 O1)'
_chemical_name_systematic        'bis(4-hydroxyphenyl)methanone dihydrate'
_symmetry_cell_setting           orthorhombic
_symmetry_space_group_name_H-M   'P 21 21 21'
_symmetry_Int_Tables_number      19
_space_group_name_Hall           'P 2ac 2ab'
loop_
_symmetry_equiv_pos_site_id
_symmetry_equiv_pos_as_xyz
1 x,y,z
2 1/2-x,-y,1/2+z
3 -x,1/2+y,1/2-z
4 1/2+x,1/2-y,-z
_cell_length_a                   4.0429(6)
_cell_length_b                   10.1087(10)
_cell_length_c                   30.067(3)
_cell_angle_alpha                90
_cell_angle_beta                 90
_cell_angle_gamma                90
_cell_volume                     1228.79
_cell_formula_units_Z            4
loop_
_atom_site_label
_atom_site_type_symbol
_atom_site_fract_x
_atom_site_fract_y
_atom_site_fract_z
C1 C 0.7489(7) 0.1046(3) 0.23113(9)
O1 O 0.7724(7) 0.0841(2) 0.18662(6)
H1 H 0.730(12) 0.158(2) 0.1742(11)
C2 C 0.8880(8) 0.0108(3) 0.25861(8)
H2 H 0.9982 -0.0612 0.2463
O2 O 0.6659(8) 0.0324(2) 0.39326(6)
C3 C 0.8650(8) 0.0230(3) 0.30381(9)
H3 H 0.9557 -0.0421 0.3220
O3 O 0.6427(9) 0.6090(2) 0.47047(6)
H4 H 0.751(10) 0.670(3) 0.4571(13)
C4 C 0.7068(7) 0.1321(3) 0.32315(8)
C5 C 0.5702(7) 0.2263(3) 0.29492(8)
H5 H 0.4643 0.2998 0.3069
C6 C 0.5896(7) 0.2123(3) 0.24936(8)
H6 H 0.4950 0.2757 0.2309
C7 C 0.6789(9) 0.1381(3) 0.37231(8)
C8 C 0.6687(8) 0.2640(3) 0.39632(8)
C9 C 0.5262(8) 0.2678(3) 0.43876(9)
H7 H 0.4345 0.1912 0.4506
C10 C 0.5195(9) 0.3820(3) 0.46303(8)
H8 H 0.4248 0.3828 0.4912
C11 C 0.6546(9) 0.4968(3) 0.44544(8)
C12 C 0.7996(9) 0.4955(3) 0.40380(8)
H9 H 0.8937 0.5722 0.3923
C13 C 0.8040(8) 0.3803(3) 0.37940(8)
H10 H 0.8987 0.3801 0.3512
O4 O 0.6216(9) 0.2871(2) 0.13234(7)
H11 H 0.744(9) 0.286(4) 0.1092(9)
H12 H 0.502(9) 0.356(3) 0.1314(12)
O5 O 0.0433(8) 0.3304(2) 0.05669(7)
H13 H 0.167(9) 0.390(3) 0.0680(10)
H14 H -0.042(9) 0.360(3) 0.0326(7)
loop_
_geom_bond_atom_site_label_1
_geom_bond_atom_site_label_2
_geom_bond_site_symmetry_1
_geom_bond_site_symmetry_2
C1 O1 1_555 1_555
O1 H1 1_555 1_555
C2 C1 1_555 1_555
H2 C2 1_555 1_555
O2 C7 1_555 1_555
C3 C2 1_555 1_555
H3 C3 1_555 1_555
O3 H4 1_555 1_555
C4 C3 1_555 1_555
C5 C4 1_555 1_555
H5 C5 1_555 1_555
C6 C1 1_555 1_555
H6 C6 1_555 1_555
C7 C4 1_555 1_555
C8 C7 1_555 1_555
C9 C8 1_555 1_555
H7 C9 1_555 1_555
C10 C9 1_555 1_555
H8 C10 1_555 1_555
C11 O3 1_555 1_555
C12 C11 1_555 1_555
H9 C12 1_555 1_555
C13 C8 1_555 1_555
H10 C13 1_555 1_555
O4 H11 1_555 1_555
H12 O4 1_555 1_555
O5 H13 1_555 1_555
H14 O5 1_555 1_555
C5 C6 1_555 1_555
C10 C11 1_555 1_555
C12 C13 1_555 1_555

#END
