
#######################################################################
#
#                 Cambridge Crystallographic Data Centre
#                                CCDC 
#
#######################################################################
#
# If this CIF has been generated from an entry in the Cambridge 
# Structural Database, then it will include bibliographic, chemical, 
# crystal, experimental, refinement or atomic coordinate data resulting 
# from the CCDC's data processing and validation procedures.
#
#######################################################################

data_DUCXOP
_chemical_formula_moiety         '2(C8 H8 N2 S1),C10 H18 O4'
_chemical_name_systematic        
'bis(2-Amino-6-methyl-1,3-benzothiazole) decanedioic acid'
_symmetry_cell_setting           monoclinic
_symmetry_space_group_name_H-M   'P 21/n'
_symmetry_Int_Tables_number      14
_space_group_name_Hall           '-P 2yn'
loop_
_symmetry_equiv_pos_site_id
_symmetry_equiv_pos_as_xyz
1 x,y,z
2 1/2-x,1/2+y,1/2-z
3 -x,-y,-z
4 1/2+x,1/2-y,1/2+z
_cell_length_a                   5.3791(5)
_cell_length_b                   21.822(2)
_cell_length_c                   11.9431(11)
_cell_angle_alpha                90
_cell_angle_beta                 91.6660(10)
_cell_angle_gamma                90
_cell_volume                     1401.32
_exptl_crystal_colour            pale-yellow
_exptl_crystal_description       block
_cell_formula_units_Z            2
loop_
_atom_site_label
_atom_site_type_symbol
_atom_site_fract_x
_atom_site_fract_y
_atom_site_fract_z
S1 S 0.47667(11) 0.17050(3) 0.20230(5)
N1 N 0.8009(3) 0.21067(7) 0.06387(13)
N2 N 0.8217(3) 0.25824(8) 0.23838(14)
H2 H 0.9420 0.2815 0.2189
H3 H 0.7643 0.2610 0.3046
C1 C 0.7248(4) 0.21790(9) 0.16608(16)
C2 C 0.4781(4) 0.13827(9) 0.06865(17)
C3 C 0.3269(4) 0.09285(10) 0.02272(19)
H4 H 0.2024 0.0754 0.0648
C4 C 0.3619(4) 0.07353(10) -0.0861(2)
C5 C 0.5474(4) 0.10135(11) -0.14663(18)
H5 H 0.5703 0.0889 -0.2201
C6 C 0.6984(4) 0.14661(10) -0.10228(17)
H6 H 0.8214 0.1643 -0.1449
C7 C 0.6645(4) 0.16541(9) 0.00673(16)
C8 C 0.1999(6) 0.02374(13) -0.1383(2)
H7 H 0.0819 0.0101 -0.0850
H8 H 0.3023 -0.0101 -0.1597
H9 H 0.1130 0.0397 -0.2033
O1 O 1.1513(3) 0.27012(7) -0.03449(11)
H1 H 1.0456 0.2531 0.0026
O2 O 1.2105(3) 0.32343(7) 0.12223(12)
C9 C 1.2624(4) 0.31276(9) 0.02632(16)
C10 C 1.4559(4) 0.34752(9) -0.03539(16)
H10 H 1.3758 0.3681 -0.0987
H11 H 1.5740 0.3185 -0.0648
C11 C 1.5968(4) 0.39443(9) 0.03408(16)
H12 H 1.6931 0.3735 0.0924
H13 H 1.4788 0.4210 0.0701
C12 C 1.7698(4) 0.43316(9) -0.03430(17)
H14 H 1.8855 0.4064 -0.0713
H15 H 1.6726 0.4544 -0.0920
C13 C 1.9159(4) 0.47985(9) 0.03387(16)
H16 H 2.0164 0.4585 0.0901
H17 H 1.8000 0.5058 0.0727
O1B O 2.8487(3) 0.72988(7) 0.03449(11)
H1B H 2.9544 0.7469 -0.0026
O2B O 2.7895(3) 0.67657(7) -0.12223(12)
C9B C 2.7376(4) 0.68724(9) -0.02632(16)
C10B C 2.5441(4) 0.65248(9) 0.03539(16)
H10B H 2.6242 0.6319 0.0987
H11B H 2.4260 0.6815 0.0648
C11B C 2.4032(4) 0.60557(9) -0.03408(16)
H12B H 2.3069 0.6265 -0.0924
H13B H 2.5212 0.5790 -0.0701
C12B C 2.2302(4) 0.56684(9) 0.03430(17)
H14B H 2.1145 0.5936 0.0713
H15B H 2.3274 0.5456 0.0920
C13B C 2.0841(4) 0.52015(9) -0.03387(16)
H16B H 1.9836 0.5415 -0.0901
H17B H 2.2000 0.4942 -0.0727
loop_
_geom_bond_atom_site_label_1
_geom_bond_atom_site_label_2
_geom_bond_site_symmetry_1
_geom_bond_site_symmetry_2
S1 C1 1_555 1_555
O1 H1 1_555 1_555
O2 C9 1_555 1_555
N1 C1 1_555 1_555
N2 H2 1_555 1_555
H3 N2 1_555 1_555
C1 N2 1_555 1_555
C2 S1 1_555 1_555
C3 C2 1_555 1_555
H4 C3 1_555 1_555
C4 C3 1_555 1_555
C5 C4 1_555 1_555
H5 C5 1_555 1_555
C6 C5 1_555 1_555
H6 C6 1_555 1_555
C7 N1 1_555 1_555
C8 C4 1_555 1_555
H7 C8 1_555 1_555
H8 C8 1_555 1_555
H9 C8 1_555 1_555
C9 O1 1_555 1_555
C10 C9 1_555 1_555
H10 C10 1_555 1_555
H11 C10 1_555 1_555
C11 C10 1_555 1_555
H12 C11 1_555 1_555
H13 C11 1_555 1_555
C12 C11 1_555 1_555
H14 C12 1_555 1_555
H15 C12 1_555 1_555
C13 C12 1_555 1_555
H16 C13 1_555 1_555
H17 C13 1_555 1_555
O1B H1B 1_555 1_555
O2B C9B 1_555 1_555
C9B O1B 1_555 1_555
C10B C9B 1_555 1_555
H10B C10B 1_555 1_555
H11B C10B 1_555 1_555
C11B C10B 1_555 1_555
H12B C11B 1_555 1_555
H13B C11B 1_555 1_555
C12B C11B 1_555 1_555
H14B C12B 1_555 1_555
H15B C12B 1_555 1_555
C13B C13 1_555 1_555
H16B C13B 1_555 1_555
H17B C13B 1_555 1_555
C2 C7 1_555 1_555
C6 C7 1_555 1_555
C12B C13B 1_555 1_555

#END
