
#######################################################################
#
#                 Cambridge Crystallographic Data Centre
#                                CCDC 
#
#######################################################################
#
# If this CIF has been generated from an entry in the Cambridge 
# Structural Database, then it will include bibliographic, chemical, 
# crystal, experimental, refinement or atomic coordinate data resulting 
# from the CCDC's data processing and validation procedures.
#
#######################################################################

data_DUCXAC
_chemical_formula_moiety         '2(C8 H20 N1 1+),C13 H8 O3 2-,5(H2 O1)'
_chemical_name_systematic        
"bis(tetraethylammonium) 4,4'-carbonyldiphenolate pentahydrate"
_symmetry_cell_setting           orthorhombic
_symmetry_space_group_name_H-M   'P c a 21'
_symmetry_Int_Tables_number      29
_space_group_name_Hall           'P 2c -2ac'
loop_
_symmetry_equiv_pos_site_id
_symmetry_equiv_pos_as_xyz
1 x,y,z
2 -x,-y,1/2+z
3 1/2+x,-y,z
4 1/2-x,y,1/2+z
_cell_length_a                   35.71(3)
_cell_length_b                   12.593(11)
_cell_length_c                   15.042(13)
_cell_angle_alpha                90
_cell_angle_beta                 90
_cell_angle_gamma                90
_cell_volume                     6764.33
_cell_formula_units_Z            8
loop_
_atom_site_label
_atom_site_type_symbol
_atom_site_fract_x
_atom_site_fract_y
_atom_site_fract_z
C1 C 0.26273(11) 0.3420(3) 0.5840(3)
O1 O 0.25500(8) 0.4337(2) 0.6109(2)
C2 C 0.23216(10) 0.2682(3) 0.5644(3)
O2 O 0.14026(8) 0.0734(2) 0.5138(2)
C3 C 0.23462(11) 0.1799(3) 0.5092(3)
H1 H 0.2576 0.1636 0.4835
O3 O 0.41652(8) 0.2565(2) 0.5507(2)
C4 C 0.20450(11) 0.1160(3) 0.4913(3)
H2 H 0.2077 0.0580 0.4537
C5 C 0.16836(11) 0.1355(3) 0.5285(3)
C6 C 0.16596(11) 0.2271(3) 0.5814(3)
H3 H 0.1428 0.2459 0.6051
C7 C 0.19629(11) 0.2900(3) 0.5995(3)
H4 H 0.1932 0.3489 0.6360
C8 C 0.30255(10) 0.3137(3) 0.5743(3)
C9 C 0.32827(11) 0.3955(3) 0.5660(3)
H5 H 0.3196 0.4651 0.5643
C10 C 0.36615(12) 0.3773(3) 0.5602(3)
H6 H 0.3823 0.4350 0.5564
C11 C 0.38116(12) 0.2738(3) 0.5599(3)
C12 C 0.35446(10) 0.1902(3) 0.5705(3)
H7 H 0.3627 0.1202 0.5719
C13 C 0.31703(11) 0.2111(3) 0.5785(3)
H8 H 0.3006 0.1546 0.5871
N1 N 0.67072(12) 0.0255(3) -0.2165(2)
C14 C 0.67281(18) 0.1324(4) -0.1719(4)
H9 H 0.6949 0.1338 -0.1344
H10 H 0.6512 0.1401 -0.1335
C15 C 0.6743(2) 0.2266(4) -0.2335(5)
H11 H 0.6746 0.2908 -0.1991
H12 H 0.6526 0.2262 -0.2714
H13 H 0.6965 0.2227 -0.2692
C16 C 0.63761(14) 0.0183(5) -0.2787(4)
H14 H 0.6375 -0.0517 -0.3057
H15 H 0.6410 0.0698 -0.3260
C17 C 0.59977(17) 0.0373(6) -0.2357(6)
H16 H 0.5805 0.0320 -0.2798
H17 H 0.5993 0.1069 -0.2096
H18 H 0.5956 -0.0150 -0.1903
C18 C 0.70471(14) 0.0033(5) -0.2725(4)
H19 H 0.7068 0.0590 -0.3167
H20 H 0.7006 -0.0628 -0.3040
C19 C 0.74219(19) -0.0047(5) -0.2238(5)
H21 H 0.7617 -0.0208 -0.2657
H22 H 0.7409 -0.0600 -0.1800
H23 H 0.7476 0.0617 -0.1952
C20 C 0.66721(18) -0.0563(4) -0.1432(4)
H24 H 0.6884 -0.0482 -0.1033
H25 H 0.6447 -0.0408 -0.1093
C21 C 0.6655(2) -0.1704(5) -0.1726(4)
H26 H 0.6639 -0.2157 -0.1214
H27 H 0.6877 -0.1875 -0.2057
H28 H 0.6439 -0.1809 -0.2095
O4 O 0.07133(10) 0.1486(3) 0.5759(4)
H29 H 0.0933(9) 0.127(5) 0.563(6)
H30 H 0.069(2) 0.210(3) 0.553(5)
N2 N 0.44811(11) 0.4571(3) 0.3186(3)
C22 C 0.41297(16) 0.4611(6) 0.3728(4)
H31 H 0.4132 0.4013 0.4134
H32 H 0.4136 0.5252 0.4086
C23 C 0.44957(17) 0.3557(4) 0.2646(4)
H33 H 0.4718 0.3572 0.2277
H34 H 0.4280 0.3539 0.2253
C24 C 0.4500(2) 0.2528(5) 0.3207(6)
H35 H 0.4507 0.1923 0.2819
H36 H 0.4278 0.2497 0.3567
H37 H 0.4717 0.2524 0.3583
C25 C 0.48034(17) 0.4638(5) 0.3814(4)
H38 H 0.4785 0.4052 0.4230
H39 H 0.4780 0.5290 0.4152
C26 C 0.51888(17) 0.4613(6) 0.3395(5)
H40 H 0.5376 0.4667 0.3852
H41 H 0.5214 0.5199 0.2991
H42 H 0.5221 0.3959 0.3078
C27 C 0.44878(15) 0.5448(4) 0.2507(4)
H43 H 0.4712 0.5372 0.2148
H44 H 0.4274 0.5362 0.2116
C28 C 0.4480(2) 0.6553(6) 0.2883(5)
H45 H 0.4486 0.7060 0.2407
H46 H 0.4693 0.6656 0.3262
H47 H 0.4254 0.6650 0.3222
C29 C 0.37687(19) 0.4593(7) 0.3234(6)
H48 H 0.3564 0.4620 0.3648
H49 H 0.3753 0.3952 0.2890
H50 H 0.3756 0.5196 0.2844
O5 O 0.44696(9) 0.0632(3) 0.5063(3)
H51 H 0.4299(14) 0.016(4) 0.508(5)
H52 H 0.4347(16) 0.116(4) 0.526(5)
N3 N 0.69250(11) 0.4674(3) 0.3379(2)
C30 C 0.70022(18) 0.3859(4) 0.2673(4)
H53 H 0.7201 0.4124 0.2293
H54 H 0.6780 0.3783 0.2309
C31 C 0.72625(15) 0.4847(5) 0.3962(4)
H55 H 0.7196 0.5354 0.4421
H56 H 0.7322 0.4182 0.4255
C32 C 0.76103(16) 0.5240(6) 0.3503(4)
H57 H 0.7809 0.5308 0.3928
H58 H 0.7561 0.5919 0.3237
H59 H 0.7682 0.4744 0.3049
C33 C 0.66218(16) 0.4288(6) 0.3988(4)
H60 H 0.6584 0.4811 0.4453
H61 H 0.6704 0.3635 0.4269
C34 C 0.68234(18) 0.5664(5) 0.2897(4)
H62 H 0.6599 0.5528 0.2550
H63 H 0.7023 0.5831 0.2483
C35 C 0.6754(3) 0.6635(6) 0.3481(6)
H64 H 0.6691 0.7232 0.3113
H65 H 0.6976 0.6794 0.3815
H66 H 0.6551 0.6491 0.3882
C36 C 0.7114(3) 0.2769(6) 0.3011(6)
H67 H 0.7161 0.2307 0.2515
H68 H 0.6915 0.2482 0.3367
H69 H 0.7337 0.2829 0.3364
C37 C 0.62498(19) 0.4087(9) 0.3522(5)
H70 H 0.6070 0.3834 0.3947
H71 H 0.6284 0.3564 0.3065
H72 H 0.6161 0.4736 0.3262
O6 O 0.48054(9) 0.3469(3) 0.6126(3)
H73 H 0.4598(11) 0.331(5) 0.587(5)
H74 H 0.483(2) 0.4142(12) 0.607(6)
O7 O 0.61595(8) 0.0669(2) 0.0221(3)
O8 O 0.77928(8) 0.2416(2) 0.0522(3)
O9 O 0.50331(7) 0.4419(2) 0.0904(2)
C38 C 0.62442(11) 0.1603(3) 0.0424(3)
C39 C 0.66406(10) 0.1875(3) 0.0501(3)
C40 C 0.67960(11) 0.2891(3) 0.0391(3)
H75 H 0.6636 0.3465 0.0301
C41 C 0.71695(11) 0.3063(3) 0.0411(3)
H76 H 0.7255 0.3758 0.0359
C42 C 0.74358(12) 0.2247(3) 0.0506(3)
C43 C 0.72799(11) 0.1213(3) 0.0600(3)
H77 H 0.7439 0.0633 0.0663
C44 C 0.69023(11) 0.1054(3) 0.0601(3)
H78 H 0.6814 0.0365 0.0671
C45 C 0.59371(11) 0.2374(3) 0.0552(3)
C46 C 0.55844(11) 0.2155(3) 0.0194(3)
H79 H 0.5552 0.1537 -0.0136
C47 C 0.52859(11) 0.2816(3) 0.0312(3)
H80 H 0.5057 0.2634 0.0061
C48 C 0.53146(11) 0.3772(3) 0.0807(3)
C49 C 0.56703(11) 0.3965(3) 0.1188(3)
H81 H 0.5703 0.4566 0.1539
C50 C 0.59652(11) 0.3308(3) 0.1062(3)
H82 H 0.6194 0.3478 0.1320
O10 O 0.65727(9) 0.1414(3) 0.4928(3)
H83 H 0.6771(12) 0.155(5) 0.522(4)
H84 H 0.6536(18) 0.0742(12) 0.492(5)
N4 N 0.56804(11) -0.0325(4) 0.2997(3)
C51 C 0.63871(18) -0.0066(7) 0.2789(5)
C52 C 0.49712(16) -0.0586(8) 0.3213(6)
C53 C 0.5738(2) -0.2379(6) 0.3015(7)
C54 C 0.5598(3) 0.1656(7) 0.2966(10)
C55 C 0.5356(3) -0.0286(9) 0.3704(7)
C56 C 0.6026(3) 0.0012(13) 0.3435(8)
C57 C 0.5660(4) -0.1309(8) 0.2417(8)
C58 C 0.5547(3) 0.0647(8) 0.2313(6)
O11 O 0.19577(9) 0.5741(2) 0.6287(3)
H85 H 0.2126(12) 0.528(3) 0.618(4)
H86 H 0.2015(15) 0.637(2) 0.612(4)
O12 O 0.12055(10) 0.5228(3) 0.5930(3)
H87 H 0.1438(6) 0.524(5) 0.606(5)
H88 H 0.1158(19) 0.5889(14) 0.592(6)
O13 O 0.56600(10) 0.6307(3) 0.5322(3)
H89 H 0.5462(11) 0.604(5) 0.555(5)
H90 H 0.5853(12) 0.592(5) 0.541(5)
O14 O 0.6047(5) 0.261(3) 0.586(2)
O16 O 0.51694(13) 0.0108(4) 0.5841(5)
H91 H 0.501(3) 0.021(9) 0.542(5)
H92 H 0.526(3) -0.052(3) 0.591(8)
O17 O 0.5319(3) 0.2203(8) 0.5256(14)
C59? C 0.5335(3) -0.0504(14) 0.2486(8)
C60? C 0.6013(3) -0.0344(10) 0.2339(7)
C61? C 0.5746(3) -0.1423(9) 0.3602(7)
C62? C 0.5697(4) 0.0597(10) 0.3648(8)
O15? O 0.6013(7) 0.2832(18) 0.529(10)
O18? O 0.5364(5) 0.2001(15) 0.602(4)
loop_
_geom_bond_atom_site_label_1
_geom_bond_atom_site_label_2
_geom_bond_site_symmetry_1
_geom_bond_site_symmetry_2
C1 O1 1_555 1_555
C2 C1 1_555 1_555
O2 C5 1_555 1_555
C3 C2 1_555 1_555
H1 C3 1_555 1_555
O3 C11 1_555 1_555
C4 C3 1_555 1_555
H2 C4 1_555 1_555
C5 C4 1_555 1_555
C6 C5 1_555 1_555
H3 C6 1_555 1_555
C7 C2 1_555 1_555
H4 C7 1_555 1_555
C8 C1 1_555 1_555
C9 C8 1_555 1_555
H5 C9 1_555 1_555
C10 C9 1_555 1_555
H6 C10 1_555 1_555
C11 C10 1_555 1_555
C12 C11 1_555 1_555
H7 C12 1_555 1_555
C13 C8 1_555 1_555
H8 C13 1_555 1_555
N1 C14 1_555 1_555
C14 H9 1_555 1_555
H10 C14 1_555 1_555
C15 C14 1_555 1_555
H11 C15 1_555 1_555
H12 C15 1_555 1_555
H13 C15 1_555 1_555
C16 N1 1_555 1_555
H14 C16 1_555 1_555
H15 C16 1_555 1_555
C17 C16 1_555 1_555
H16 C17 1_555 1_555
H17 C17 1_555 1_555
H18 C17 1_555 1_555
C18 N1 1_555 1_555
H19 C18 1_555 1_555
H20 C18 1_555 1_555
C19 C18 1_555 1_555
H21 C19 1_555 1_555
H22 C19 1_555 1_555
H23 C19 1_555 1_555
C20 N1 1_555 1_555
H24 C20 1_555 1_555
H25 C20 1_555 1_555
C21 C20 1_555 1_555
H26 C21 1_555 1_555
H27 C21 1_555 1_555
H28 C21 1_555 1_555
O4 H29 1_555 1_555
H30 O4 1_555 1_555
N2 C22 1_555 1_555
C22 H31 1_555 1_555
H32 C22 1_555 1_555
C23 N2 1_555 1_555
H33 C23 1_555 1_555
H34 C23 1_555 1_555
C24 C23 1_555 1_555
H35 C24 1_555 1_555
H36 C24 1_555 1_555
H37 C24 1_555 1_555
C25 N2 1_555 1_555
H38 C25 1_555 1_555
H39 C25 1_555 1_555
C26 C25 1_555 1_555
H40 C26 1_555 1_555
H41 C26 1_555 1_555
H42 C26 1_555 1_555
C27 N2 1_555 1_555
H43 C27 1_555 1_555
H44 C27 1_555 1_555
C28 C27 1_555 1_555
H45 C28 1_555 1_555
H46 C28 1_555 1_555
H47 C28 1_555 1_555
C29 C22 1_555 1_555
H48 C29 1_555 1_555
H49 C29 1_555 1_555
H50 C29 1_555 1_555
O5 H51 1_555 1_555
H52 O5 1_555 1_555
N3 C30 1_555 1_555
C30 H53 1_555 1_555
H54 C30 1_555 1_555
C31 N3 1_555 1_555
H55 C31 1_555 1_555
H56 C31 1_555 1_555
C32 C31 1_555 1_555
H57 C32 1_555 1_555
H58 C32 1_555 1_555
H59 C32 1_555 1_555
C33 N3 1_555 1_555
H60 C33 1_555 1_555
H61 C33 1_555 1_555
C34 N3 1_555 1_555
H62 C34 1_555 1_555
H63 C34 1_555 1_555
C35 C34 1_555 1_555
H64 C35 1_555 1_555
H65 C35 1_555 1_555
H66 C35 1_555 1_555
C36 C30 1_555 1_555
H67 C36 1_555 1_555
H68 C36 1_555 1_555
H69 C36 1_555 1_555
C37 C33 1_555 1_555
H70 C37 1_555 1_555
H71 C37 1_555 1_555
H72 C37 1_555 1_555
O6 H73 1_555 1_555
H74 O6 1_555 1_555
O7 C38 1_555 1_555
O8 C42 1_555 1_555
O9 C48 1_555 1_555
C38 C39 1_555 1_555
C39 C40 1_555 1_555
C40 H75 1_555 1_555
C41 C40 1_555 1_555
H76 C41 1_555 1_555
C42 C41 1_555 1_555
C43 C42 1_555 1_555
H77 C43 1_555 1_555
C44 C39 1_555 1_555
H78 C44 1_555 1_555
C45 C38 1_555 1_555
C46 C45 1_555 1_555
H79 C46 1_555 1_555
C47 C46 1_555 1_555
H80 C47 1_555 1_555
C48 C47 1_555 1_555
C49 C48 1_555 1_555
H81 C49 1_555 1_555
C50 C45 1_555 1_555
H82 C50 1_555 1_555
O10 H83 1_555 1_555
H84 O10 1_555 1_555
N4 C55 1_555 1_555
C51 C56 1_555 1_555
C52 C55 1_555 1_555
C53 C57 1_555 1_555
C54 C58 1_555 1_555
C56 N4 1_555 1_555
C57 N4 1_555 1_555
C58 N4 1_555 1_555
O11 H85 1_555 1_555
H86 O11 1_555 1_555
O12 H87 1_555 1_555
H88 O12 1_555 1_555
O13 H89 1_555 1_555
H90 O13 1_555 1_555
O16 H91 1_555 1_555
H92 O16 1_555 1_555
C6 C7 1_555 1_555
C12 C13 1_555 1_555
C43 C44 1_555 1_555
C49 C50 1_555 1_555

#END
