
#######################################################################
#
#                 Cambridge Crystallographic Data Centre
#                                CCDC 
#
#######################################################################
#
# If this CIF has been generated from an entry in the Cambridge 
# Structural Database, then it will include bibliographic, chemical, 
# crystal, experimental, refinement or atomic coordinate data resulting 
# from the CCDC's data processing and validation procedures.
#
#######################################################################

data_DUCYEG
_chemical_name_common            4,4'-Diformyltriphenylamine
_chemical_formula_moiety         'C20 H15 N1 O2'
_chemical_name_systematic        4,4'-(Phenylimino)dibenzaldehyde
_symmetry_cell_setting           orthorhombic
_symmetry_space_group_name_H-M   'P b c n'
_symmetry_Int_Tables_number      60
_space_group_name_Hall           '-P 2n 2ab'
loop_
_symmetry_equiv_pos_site_id
_symmetry_equiv_pos_as_xyz
1 x,y,z
2 1/2-x,1/2-y,1/2+z
3 -x,y,1/2-z
4 1/2+x,1/2-y,-z
5 -x,-y,-z
6 1/2+x,1/2+y,1/2-z
7 x,-y,1/2+z
8 1/2-x,1/2+y,z
_cell_length_a                   8.836(2)
_cell_length_b                   9.710(2)
_cell_length_c                   18.621(4)
_cell_angle_alpha                90
_cell_angle_beta                 90
_cell_angle_gamma                90
_cell_volume                     1597.64
_exptl_crystal_colour            yellow
_exptl_crystal_description       block
_cell_formula_units_Z            4
loop_
_atom_site_label
_atom_site_type_symbol
_atom_site_fract_x
_atom_site_fract_y
_atom_site_fract_z
C1 C 0.0438(3) 0.5517(3) 0.31252(11)
C2 C 0.1601(3) 0.6013(3) 0.35553(15)
C3 C 0.1977(4) 0.5311(3) 0.41719(16)
C4 C 0.1216(3) 0.4133(3) 0.43801(13)
C5 C 0.0081(3) 0.3648(3) 0.39479(14)
C6 C -0.0305(3) 0.4314(3) 0.33246(13)
C7 C 0.0000 0.7700(3) 0.2500
C8 C 0.0651(3) 0.8417(3) 0.19405(15)
C9 C 0.0634(4) 0.9841(3) 0.19400(18)
C10 C 0.0000 1.0547(5) 0.2500
C11 C 0.1559(5) 0.3415(4) 0.50518(16)
N1 N 0.0000 0.6232(3) 0.2500
O1 O 0.2531(4) 0.3709(3) 0.54591(13)
H1 H 0.212(3) 0.682(3) 0.3407(14)
H2 H 0.271(4) 0.566(4) 0.4436(17)
H3 H -0.041(3) 0.282(4) 0.4107(16)
H4 H -0.111(3) 0.399(3) 0.3032(13)
H5 H 0.101(4) 0.248(5) 0.5133(19)
H6 H 0.106(3) 0.790(3) 0.1563(16)
H7 H 0.110(3) 1.031(3) 0.1554(18)
H8 H 0.0000 1.153(6) 0.2500
C1B C -0.0438(3) 0.5517(3) 0.18748(11)
C2B C -0.1601(3) 0.6013(3) 0.14447(15)
C3B C -0.1977(4) 0.5311(3) 0.08281(16)
C4B C -0.1216(3) 0.4133(3) 0.06199(13)
C5B C -0.0081(3) 0.3648(3) 0.10521(14)
C6B C 0.0305(3) 0.4314(3) 0.16754(13)
C8B C -0.0651(3) 0.8417(3) 0.30595(15)
C9B C -0.0634(4) 0.9841(3) 0.30600(18)
C11B C -0.1559(5) 0.3415(4) -0.00518(16)
O1B O -0.2531(4) 0.3709(3) -0.04591(13)
H1B H -0.212(3) 0.682(3) 0.1593(14)
H2B H -0.271(4) 0.566(4) 0.0564(17)
H3B H 0.041(3) 0.282(4) 0.0893(16)
H4B H 0.111(3) 0.399(3) 0.1968(13)
H5B H -0.101(4) 0.248(5) -0.0133(19)
H6B H -0.106(3) 0.790(3) 0.3437(16)
H7B H -0.110(3) 1.031(3) 0.3446(18)
loop_
_geom_bond_atom_site_label_1
_geom_bond_atom_site_label_2
_geom_bond_site_symmetry_1
_geom_bond_site_symmetry_2
C1 C2 1_555 1_555
C2 C3 1_555 1_555
C3 C4 1_555 1_555
C4 C5 1_555 1_555
C5 C6 1_555 1_555
C6 C1 1_555 1_555
C7 C8 1_555 1_555
C8 C9 1_555 1_555
C9 C10 1_555 1_555
C10 H8 1_555 1_555
C11 C4 1_555 1_555
N1 C1 1_555 1_555
O1 C11 1_555 1_555
H1 C2 1_555 1_555
H2 C3 1_555 1_555
H3 C5 1_555 1_555
H4 C6 1_555 1_555
H5 C11 1_555 1_555
H6 C8 1_555 1_555
H7 C9 1_555 1_555
C1B N1 1_555 1_555
C2B C1B 1_555 1_555
C3B C2B 1_555 1_555
C4B C3B 1_555 1_555
C5B C4B 1_555 1_555
C6B C1B 1_555 1_555
C8B C7 1_555 1_555
C9B C10 1_555 1_555
C11B C4B 1_555 1_555
O1B C11B 1_555 1_555
H1B C2B 1_555 1_555
H2B C3B 1_555 1_555
H3B C5B 1_555 1_555
H4B C6B 1_555 1_555
H5B C11B 1_555 1_555
H6B C8B 1_555 1_555
H7B C9B 1_555 1_555
C7 N1 1_555 1_555
C5B C6B 1_555 1_555
C8B C9B 1_555 1_555

#END
