
#######################################################################
#
#                 Cambridge Crystallographic Data Centre
#                                CCDC 
#
#######################################################################
#
# If this CIF has been generated from an entry in the Cambridge 
# Structural Database, then it will include bibliographic, chemical, 
# crystal, experimental, refinement or atomic coordinate data resulting 
# from the CCDC's data processing and validation procedures.
#
#######################################################################

data_DUDBAG
_chemical_formula_moiety         'C12 H12 N2 2+,2(Cl1 O4 1-)'
_chemical_name_systematic        
"6,12-Dihydrodipyrido[1,2-a:1',2'-d]pyrazinium bis(perchlorate)"
_symmetry_cell_setting           monoclinic
_symmetry_space_group_name_H-M   'P 21/c'
_symmetry_Int_Tables_number      14
_space_group_name_Hall           '-P 2ybc'
loop_
_symmetry_equiv_pos_site_id
_symmetry_equiv_pos_as_xyz
1 x,y,z
2 -x,1/2+y,1/2-z
3 -x,-y,-z
4 x,1/2-y,1/2+z
_cell_length_a                   8.1632(8)
_cell_length_b                   13.9396(14)
_cell_length_c                   13.5903(13)
_cell_angle_alpha                90
_cell_angle_beta                 96.023(2)
_cell_angle_gamma                90
_cell_volume                     1537.93
_exptl_crystal_colour            colorless
_exptl_crystal_description       block
_cell_formula_units_Z            4
_exptl_crystal_recrystallization_method acetonitrile
loop_
_atom_site_label
_atom_site_type_symbol
_atom_site_fract_x
_atom_site_fract_y
_atom_site_fract_z
N1 N 0.4245(4) 0.3340(2) 0.2124(2)
N2 N 0.1643(4) 0.4419(2) 0.2709(2)
C1 C 0.5777(5) 0.3093(3) 0.1934(3)
H1 H 0.6517 0.2840 0.2435
C2 C 0.6240(6) 0.3214(3) 0.1007(3)
H2 H 0.7284 0.3025 0.0867
C3 C 0.5151(6) 0.3618(3) 0.0275(3)
H3 H 0.5465 0.3718 -0.0356
C4 C 0.3592(5) 0.3872(3) 0.0490(3)
H4 H 0.2849 0.4144 0.0004
C5 C 0.3140(4) 0.3723(2) 0.1422(3)
C6 C 0.1484(5) 0.3943(3) 0.1727(3)
H5 H 0.0892 0.4359 0.1240
H6 H 0.0860 0.3353 0.1759
C7 C 0.0714(5) 0.5186(3) 0.2886(3)
H7 H -0.0036 0.5428 0.2386
C8 C 0.0869(6) 0.5607(3) 0.3796(3)
H8 H 0.0235 0.6140 0.3919
C9 C 0.1978(5) 0.5233(3) 0.4535(3)
H9 H 0.2083 0.5505 0.5163
C10 C 0.2924(5) 0.4459(3) 0.4336(3)
H10 H 0.3685 0.4211 0.4828
C11 C 0.2753(4) 0.4047(2) 0.3413(2)
C12 C 0.3709(5) 0.3198(3) 0.3127(3)
H11 H 0.4667 0.3107 0.3604
H12 H 0.3031 0.2627 0.3130
Cl1 Cl 0.93531(13) 0.21962(7) 0.40847(7)
O1 O 0.7805(4) 0.2646(2) 0.4167(2)
O2 O 1.0582(4) 0.2624(3) 0.4763(3)
O3 O 0.9764(4) 0.2311(2) 0.3100(2)
O4 O 0.9247(4) 0.1204(2) 0.4313(2)
Cl2 Cl 0.38056(13) 0.06673(7) 0.22970(8)
O5 O 0.5488(4) 0.0854(3) 0.2602(3)
O6 O 0.2971(4) 0.0624(3) 0.3163(2)
O7 O 0.3618(4) -0.0210(2) 0.1771(2)
O8 O 0.3058(5) 0.1403(2) 0.1684(2)
loop_
_geom_bond_atom_site_label_1
_geom_bond_atom_site_label_2
_geom_bond_site_symmetry_1
_geom_bond_site_symmetry_2
N1 C1 1_555 1_555
N2 C6 1_555 1_555
C1 H1 1_555 1_555
C2 C1 1_555 1_555
H2 C2 1_555 1_555
C3 C2 1_555 1_555
H3 C3 1_555 1_555
C4 C3 1_555 1_555
H4 C4 1_555 1_555
C5 N1 1_555 1_555
C6 C5 1_555 1_555
H5 C6 1_555 1_555
H6 C6 1_555 1_555
C7 N2 1_555 1_555
H7 C7 1_555 1_555
C8 C7 1_555 1_555
H8 C8 1_555 1_555
C9 C8 1_555 1_555
H9 C9 1_555 1_555
C10 C9 1_555 1_555
H10 C10 1_555 1_555
C11 N2 1_555 1_555
C12 N1 1_555 1_555
H11 C12 1_555 1_555
H12 C12 1_555 1_555
Cl1 O1 1_555 1_555
O2 Cl1 1_555 1_555
O3 Cl1 1_555 1_555
O4 Cl1 1_555 1_555
Cl2 O5 1_555 1_555
O6 Cl2 1_555 1_555
O7 Cl2 1_555 1_555
O8 Cl2 1_555 1_555
C4 C5 1_555 1_555
C10 C11 1_555 1_555
C11 C12 1_555 1_555

#END
