
#######################################################################
#
#                 Cambridge Crystallographic Data Centre
#                                CCDC 
#
#######################################################################
#
# If this CIF has been generated from an entry in the Cambridge 
# Structural Database, then it will include bibliographic, chemical, 
# crystal, experimental, refinement or atomic coordinate data resulting 
# from the CCDC's data processing and validation procedures.
#
#######################################################################

data_DUDBUA
_chemical_formula_moiety         'C14 H15 N1 O6'
_chemical_name_systematic        'Diethyl 2-(2-nitrobenzylidene)malonate'
_symmetry_cell_setting           triclinic
_symmetry_space_group_name_H-M   'P -1'
_symmetry_Int_Tables_number      2
_space_group_name_Hall           '-P 1'
loop_
_symmetry_equiv_pos_site_id
_symmetry_equiv_pos_as_xyz
1 x,y,z
2 -x,-y,-z
_cell_length_a                   7.8410(2)
_cell_length_b                   8.5571(2)
_cell_length_c                   12.3533(4)
_cell_angle_alpha                80.866(2)
_cell_angle_beta                 75.0370(10)
_cell_angle_gamma                64.4020(10)
_cell_volume                     721.099
_exptl_crystal_colour            colorless
_exptl_crystal_description       block
_cell_formula_units_Z            2
_exptl_crystal_recrystallization_method methanol
loop_
_atom_site_label
_atom_site_type_symbol
_atom_site_fract_x
_atom_site_fract_y
_atom_site_fract_z
C1 C 0.32734(17) 0.26054(16) 0.00483(10)
C2 C 0.4208(2) 0.18112(18) -0.09512(11)
H1 H 0.3530 0.1563 -0.1367
C3 C 0.6156(2) 0.1390(2) -0.13275(12)
H2 H 0.6808 0.0854 -0.2002
C4 C 0.7138(2) 0.1765(2) -0.07003(12)
H3 H 0.8458 0.1469 -0.0951
C5 C 0.61807(19) 0.25790(18) 0.02979(11)
H4 H 0.6867 0.2834 0.0704
C6 C 0.42104(17) 0.30233(16) 0.07069(10)
C7 C 0.32275(18) 0.40052(17) 0.17243(11)
H5 H 0.2096 0.4996 0.1694
C8 C 0.38277(18) 0.35895(16) 0.26840(10)
C9 C 0.54181(19) 0.18778(16) 0.28991(10)
C10 C 0.8427(2) 0.0493(2) 0.34618(14)
H6 H 0.9576 0.0709 0.3360
H7 H 0.8725 -0.0413 0.2972
C11 C 0.7894(3) -0.0099(2) 0.46438(15)
H8 H 0.7533 0.0818 0.5126
H9 H 0.8980 -0.1092 0.4840
H10 H 0.6824 -0.0408 0.4730
C12 C 0.27995(18) 0.48151(17) 0.36030(11)
C13 C 0.2334(2) 0.51216(19) 0.55376(11)
H11 H 0.0935 0.5618 0.5646
H12 H 0.2752 0.6061 0.5419
C14 C 0.2947(3) 0.4002(2) 0.65347(13)
H13 H 0.2440 0.3131 0.6678
H14 H 0.2462 0.4697 0.7174
H15 H 0.4334 0.3452 0.6397
N1 N 0.12284(17) 0.29396(16) 0.04462(12)
O1 O 0.03150(19) 0.3042(2) -0.02475(13)
O2 O 0.05294(17) 0.30788(19) 0.14427(11)
O3 O 0.53708(18) 0.05173(13) 0.28408(10)
O4 O 0.17045(18) 0.63004(14) 0.34780(9)
O5 O 0.32173(14) 0.40462(12) 0.45770(8)
O6 O 0.68593(13) 0.20702(12) 0.31542(9)
loop_
_geom_bond_atom_site_label_1
_geom_bond_atom_site_label_2
_geom_bond_site_symmetry_1
_geom_bond_site_symmetry_2
C1 C2 1_555 1_555
C2 H1 1_555 1_555
C3 C2 1_555 1_555
H2 C3 1_555 1_555
C4 C3 1_555 1_555
H3 C4 1_555 1_555
C5 C4 1_555 1_555
H4 C5 1_555 1_555
C6 C1 1_555 1_555
C7 C6 1_555 1_555
H5 C7 1_555 1_555
C8 C7 1_555 1_555
C9 C8 1_555 1_555
C10 H6 1_555 1_555
H7 C10 1_555 1_555
C11 C10 1_555 1_555
H8 C11 1_555 1_555
H9 C11 1_555 1_555
H10 C11 1_555 1_555
C12 C8 1_555 1_555
C13 H11 1_555 1_555
H12 C13 1_555 1_555
C14 C13 1_555 1_555
H13 C14 1_555 1_555
H14 C14 1_555 1_555
H15 C14 1_555 1_555
N1 C1 1_555 1_555
O1 N1 1_555 1_555
O2 N1 1_555 1_555
O3 C9 1_555 1_555
O4 C12 1_555 1_555
O5 C12 1_555 1_555
O6 C9 1_555 1_555
C5 C6 1_555 1_555
C10 O6 1_555 1_555
C13 O5 1_555 1_555

#END
