
#######################################################################
#
#                 Cambridge Crystallographic Data Centre
#                                CCDC 
#
#######################################################################
#
# If this CIF has been generated from an entry in the Cambridge 
# Structural Database, then it will include bibliographic, chemical, 
# crystal, experimental, refinement or atomic coordinate data resulting 
# from the CCDC's data processing and validation procedures.
#
#######################################################################

data_DUDCEL
_chemical_formula_moiety         'C21 H17 N5,H2 O1'
_chemical_name_systematic        
'4,5-bis(1H-Imidazol-1-ylmethyl)acridine monohydrate'
_symmetry_cell_setting           monoclinic
_symmetry_space_group_name_H-M   'P 21/n'
_symmetry_Int_Tables_number      14
_space_group_name_Hall           '-P 2yn'
loop_
_symmetry_equiv_pos_site_id
_symmetry_equiv_pos_as_xyz
1 x,y,z
2 1/2-x,1/2+y,1/2-z
3 -x,-y,-z
4 1/2+x,1/2-y,1/2+z
_cell_length_a                   14.3359(6)
_cell_length_b                   6.9132(3)
_cell_length_c                   17.7458(8)
_cell_angle_alpha                90
_cell_angle_beta                 92.895(3)
_cell_angle_gamma                90
_cell_volume                     1756.49
_exptl_crystal_colour            white
_exptl_crystal_description       block
_cell_formula_units_Z            4
_exptl_crystal_recrystallization_method methanol
loop_
_atom_site_label
_atom_site_type_symbol
_atom_site_fract_x
_atom_site_fract_y
_atom_site_fract_z
C1 C 0.31970(12) 0.7854(2) -0.06027(9)
C2 C 0.22370(12) 0.8010(3) -0.08514(10)
C3 C 0.20069(15) 0.8387(3) -0.15855(12)
H1 H 0.1382 0.8558 -0.1737
C4 C 0.26910(17) 0.8528(4) -0.21250(12)
H2 H 0.2513 0.8793 -0.2626
C5 C 0.35988(16) 0.8283(3) -0.19224(11)
H3 H 0.4041 0.8324 -0.2288
C6 C 0.38899(13) 0.7960(3) -0.11539(10)
C7 C 0.48111(13) 0.7751(3) -0.09095(10)
H4 H 0.5274 0.7779 -0.1258
C8 C 0.50554(12) 0.7500(2) -0.01541(10)
C9 C 0.59945(12) 0.7289(3) 0.01289(12)
H5 H 0.6476 0.7313 -0.0203
C10 C 0.61933(13) 0.7056(3) 0.08691(12)
H6 H 0.6811 0.6912 0.1048
C11 C 0.54661(13) 0.7027(3) 0.13806(11)
H7 H 0.5617 0.6857 0.1892
C12 C 0.45576(12) 0.7241(2) 0.11476(10)
C13 C 0.43189(11) 0.7464(2) 0.03633(9)
C14 C 0.14924(12) 0.7687(3) -0.03008(11)
H8 H 0.1671 0.8318 0.0173
H9 H 0.0912 0.8261 -0.0496
C15 C 0.10166(15) 0.4321(3) -0.06850(13)
H10 H 0.0865 0.4554 -0.1193
C16 C 0.09479(17) 0.2638(3) -0.03245(16)
H11 H 0.0727 0.1496 -0.0545
C17 C 0.38042(13) 0.7272(3) 0.17082(10)
H12 H 0.3235 0.6737 0.1474
H13 H 0.3992 0.6459 0.2135
C18 C 0.30224(12) 1.0562(3) 0.16560(11)
H14 H 0.2643 1.0415 0.1219
C19 C 0.30963(14) 1.2133(3) 0.20991(12)
H15 H 0.2765 1.3275 0.2013
C20 C 0.40165(14) 1.0055(3) 0.25943(10)
H16 H 0.4454 0.9443 0.2917
N1 N 0.34184(9) 0.76245(19) 0.01343(8)
N2 N 0.13497(9) 0.5626(2) -0.01681(8)
N3 N 0.12452(15) 0.2830(3) 0.04082(14)
N4 N 0.36165(9) 0.9226(2) 0.19781(8)
N5 N 0.37208(13) 1.1834(3) 0.26923(10)
C21 C 0.14712(15) 0.4659(4) 0.04758(12)
H17 H 0.1693 0.5221 0.0926
O1 O 0.04120(12) 0.0382(3) 0.15544(11)
H18 H 0.074(2) 0.096(5) 0.120(2)
H19 H 0.066(2) -0.070(4) 0.1662(16)
loop_
_geom_bond_atom_site_label_1
_geom_bond_atom_site_label_2
_geom_bond_site_symmetry_1
_geom_bond_site_symmetry_2
C1 C2 1_555 1_555
C2 C3 1_555 1_555
C3 H1 1_555 1_555
C4 C3 1_555 1_555
H2 C4 1_555 1_555
C5 C4 1_555 1_555
H3 C5 1_555 1_555
C6 C1 1_555 1_555
C7 C6 1_555 1_555
H4 C7 1_555 1_555
C8 C7 1_555 1_555
C9 C8 1_555 1_555
H5 C9 1_555 1_555
C10 C9 1_555 1_555
H6 C10 1_555 1_555
C11 C10 1_555 1_555
H7 C11 1_555 1_555
C12 C11 1_555 1_555
C13 C8 1_555 1_555
C14 C2 1_555 1_555
H8 C14 1_555 1_555
H9 C14 1_555 1_555
C15 H10 1_555 1_555
C16 C15 1_555 1_555
H11 C16 1_555 1_555
C17 C12 1_555 1_555
H12 C17 1_555 1_555
H13 C17 1_555 1_555
C18 H14 1_555 1_555
C19 C18 1_555 1_555
H15 C19 1_555 1_555
C20 H16 1_555 1_555
N1 C1 1_555 1_555
N2 C14 1_555 1_555
N3 C16 1_555 1_555
N4 C17 1_555 1_555
N5 C19 1_555 1_555
O1 H18 1_555 1_555
C21 N2 1_555 1_555
H17 C21 1_555 1_555
H19 O1 1_555 1_555
C5 C6 1_555 1_555
C12 C13 1_555 1_555
C13 N1 1_555 1_555
C15 N2 1_555 1_555
C18 N4 1_555 1_555
C20 N4 1_555 1_555
C20 N5 1_555 1_555
N3 C21 1_555 1_555

#END
