
#######################################################################
#
#                 Cambridge Crystallographic Data Centre
#                                CCDC 
#
#######################################################################
#
# If this CIF has been generated from an entry in the Cambridge 
# Structural Database, then it will include bibliographic, chemical, 
# crystal, experimental, refinement or atomic coordinate data resulting 
# from the CCDC's data processing and validation procedures.
#
#######################################################################

data_DUDCUB
_chemical_formula_moiety         'C15 H8 Br1 Cl2 N1 O1'
_chemical_name_systematic        
(E)-5-Bromo-3-(2,6-dichlorobenzylidene)indolin-2-one
_symmetry_cell_setting           triclinic
_symmetry_space_group_name_H-M   'P -1'
_symmetry_Int_Tables_number      2
_space_group_name_Hall           '-P 1'
loop_
_symmetry_equiv_pos_site_id
_symmetry_equiv_pos_as_xyz
1 x,y,z
2 -x,-y,-z
_cell_length_a                   8.1018(4)
_cell_length_b                   13.5726(7)
_cell_length_c                   14.4904(7)
_cell_angle_alpha                63.5750(10)
_cell_angle_beta                 82.9560(10)
_cell_angle_gamma                80.1390(10)
_cell_volume                     1403.89
_exptl_crystal_colour            yellow
_exptl_crystal_description       rods
_cell_formula_units_Z            4
_exptl_crystal_recrystallization_method ethanol
loop_
_atom_site_label
_atom_site_type_symbol
_atom_site_fract_x
_atom_site_fract_y
_atom_site_fract_z
N1 N 0.6336(3) 0.42436(16) 0.61350(15)
H1 H 0.6158 0.4089 0.5644
C1 C 0.5806(3) 0.5237(2) 0.61601(18)
O1 O 0.4970(3) 0.60288(15) 0.55199(14)
C2 C 0.6430(3) 0.51560(18) 0.71349(17)
C3 C 0.8056(3) 0.34403(19) 0.85758(18)
H2 H 0.8125 0.3773 0.9007
Br1 Br 0.96940(5) 0.15148(2) 1.01371(3)
C4 C 0.8708(3) 0.2340(2) 0.88452(19)
C5 C 0.8650(4) 0.1838(2) 0.8206(2)
H3 H 0.9128 0.1104 0.8402
C6 C 0.7889(3) 0.2417(2) 0.7280(2)
H4 H 0.7835 0.2082 0.6849
C7 C 0.7211(3) 0.35044(19) 0.70100(18)
C8 C 0.7300(3) 0.40275(18) 0.76408(17)
C9 C 0.6107(3) 0.60116(19) 0.73755(18)
H5 H 0.5468 0.6637 0.6914
C10 C 0.6620(3) 0.61086(17) 0.82716(17)
C11 C 0.8280(3) 0.60502(19) 0.84706(18)
Cl1 Cl 0.98958(9) 0.57914(6) 0.76720(6)
C12 C 0.8707(4) 0.6252(2) 0.9265(2)
H6 H 0.9828 0.6214 0.9374
C13 C 0.7468(4) 0.6506(3) 0.9884(2)
H7 H 0.7750 0.6635 1.0420
C14 C 0.5811(4) 0.6572(2) 0.9723(2)
H8 H 0.4968 0.6744 1.0145
C15 C 0.5418(3) 0.6379(2) 0.89234(19)
Cl2 Cl 0.33175(9) 0.64656(8) 0.87280(6)
N2 N 0.8680(3) 0.62560(16) 0.40279(16)
H9 H 0.8925 0.5598 0.4065
C16 C 0.9185(3) 0.65805(19) 0.46956(18)
O2 O 1.0070(3) 0.60169(14) 0.54175(14)
C17 C 0.8454(3) 0.77842(18) 0.43524(18)
C18 C 0.6607(3) 0.9048(2) 0.27961(19)
H10 H 0.6485 0.9686 0.2900
Br2 Br 0.44460(5) 1.03332(3) 0.11691(2)
C19 C 0.5849(3) 0.9036(2) 0.19976(19)
C20 C 0.6033(4) 0.8103(2) 0.1816(2)
H11 H 0.5526 0.8127 0.1263
C21 C 0.6976(3) 0.7130(2) 0.2461(2)
H12 H 0.7107 0.6497 0.2349
C22 C 0.7708(3) 0.71278(19) 0.32688(18)
C23 C 0.7555(3) 0.80790(19) 0.34385(18)
C24 C 0.8691(3) 0.83197(19) 0.48988(19)
H13 H 0.9233 0.7892 0.5510
C25 C 0.8202(3) 0.95013(19) 0.46537(18)
C26 C 0.8786(3) 1.0363(2) 0.37702(19)
Cl3 Cl 1.01330(10) 1.00841(6) 0.28626(5)
C27 C 0.8399(4) 1.1464(2) 0.3591(2)
H14 H 0.8807 1.2019 0.2991
C28 C 0.7402(4) 1.1731(2) 0.4310(3)
H15 H 0.7134 1.2470 0.4193
C29 C 0.6804(4) 1.0910(2) 0.5199(2)
H16 H 0.6124 1.1090 0.5682
C30 C 0.7223(3) 0.9814(2) 0.5366(2)
Cl4 Cl 0.65098(11) 0.87932(6) 0.65137(6)
loop_
_geom_bond_atom_site_label_1
_geom_bond_atom_site_label_2
_geom_bond_site_symmetry_1
_geom_bond_site_symmetry_2
N1 H1 1_555 1_555
C1 N1 1_555 1_555
O1 C1 1_555 1_555
C2 C1 1_555 1_555
C3 H2 1_555 1_555
Br1 C4 1_555 1_555
C4 C3 1_555 1_555
C5 C4 1_555 1_555
H3 C5 1_555 1_555
C6 C5 1_555 1_555
H4 C6 1_555 1_555
C7 N1 1_555 1_555
C8 C2 1_555 1_555
C9 C2 1_555 1_555
H5 C9 1_555 1_555
C10 C9 1_555 1_555
C11 C10 1_555 1_555
Cl1 C11 1_555 1_555
C12 C11 1_555 1_555
H6 C12 1_555 1_555
C13 C12 1_555 1_555
H7 C13 1_555 1_555
C14 C13 1_555 1_555
H8 C14 1_555 1_555
C15 C10 1_555 1_555
Cl2 C15 1_555 1_555
N2 H9 1_555 1_555
C16 N2 1_555 1_555
O2 C16 1_555 1_555
C17 C16 1_555 1_555
C18 H10 1_555 1_555
Br2 C19 1_555 1_555
C19 C18 1_555 1_555
C20 C19 1_555 1_555
H11 C20 1_555 1_555
C21 C20 1_555 1_555
H12 C21 1_555 1_555
C22 N2 1_555 1_555
C23 C17 1_555 1_555
C24 C17 1_555 1_555
H13 C24 1_555 1_555
C25 C24 1_555 1_555
C26 C25 1_555 1_555
Cl3 C26 1_555 1_555
C27 C26 1_555 1_555
H14 C27 1_555 1_555
C28 C27 1_555 1_555
H15 C28 1_555 1_555
C29 C28 1_555 1_555
H16 C29 1_555 1_555
C30 C25 1_555 1_555
Cl4 C30 1_555 1_555
C3 C8 1_555 1_555
C6 C7 1_555 1_555
C7 C8 1_555 1_555
C14 C15 1_555 1_555
C18 C23 1_555 1_555
C21 C22 1_555 1_555
C22 C23 1_555 1_555
C29 C30 1_555 1_555

#END
