
#######################################################################
#
#                 Cambridge Crystallographic Data Centre
#                                CCDC 
#
#######################################################################
#
# If this CIF has been generated from an entry in the Cambridge 
# Structural Database, then it will include bibliographic, chemical, 
# crystal, experimental, refinement or atomic coordinate data resulting 
# from the CCDC's data processing and validation procedures.
#
#######################################################################

data_DUDDIQ
_chemical_name_common            
"2,2'-(1,4-Phenylene)bis-4,5-dihydro-1H-imidazole bis(4-aminobenzenesulfonic acid) dihydrate"
_chemical_formula_moiety         'C12 H14 N4,2(C6 H7 N1 O3 S1),2(H2 O1)'
_chemical_name_systematic        
'1,4-bis(4,5-Dihydro-1H-imidazol-2-yl)benzene bis(4-aminobenzenesulfonic acid) dihydrate'
_symmetry_cell_setting           orthorhombic
_symmetry_space_group_name_H-M   'P b c a'
_symmetry_Int_Tables_number      61
_space_group_name_Hall           '-P 2ac 2ab'
loop_
_symmetry_equiv_pos_site_id
_symmetry_equiv_pos_as_xyz
1 x,y,z
2 1/2-x,-y,1/2+z
3 -x,1/2+y,1/2-z
4 1/2+x,1/2-y,-z
5 -x,-y,-z
6 1/2+x,y,1/2-z
7 x,1/2-y,1/2+z
8 1/2-x,1/2+y,z
_cell_length_a                   13.6306(11)
_cell_length_b                   12.6980(10)
_cell_length_c                   15.5907(13)
_cell_angle_alpha                90
_cell_angle_beta                 90
_cell_angle_gamma                90
_cell_volume                     2698.46
_exptl_crystal_colour            yellow
_exptl_crystal_description       block
_cell_formula_units_Z            4
loop_
_atom_site_label
_atom_site_type_symbol
_atom_site_fract_x
_atom_site_fract_y
_atom_site_fract_z
S1 S 0.20619(5) 0.82812(5) 0.31074(4)
O1 O 0.29197(15) 0.8625(2) 0.26382(13)
O2 O 0.1875(2) 0.71668(16) 0.30647(13)
O3 O 0.12151(14) 0.88982(15) 0.28322(11)
H1 H 0.0729 0.8714 0.3104
N1 N 0.2770(2) 0.9242(2) 0.67696(14)
H4 H 0.2775 0.8740 0.7140
H5 H 0.2884 0.9878 0.6930
C1 C 0.25816(19) 0.90302(19) 0.59303(15)
C2 C 0.2594(2) 0.98296(19) 0.53090(16)
H7 H 0.2705 1.0522 0.5476
C3 C 0.24456(19) 0.96036(18) 0.44548(15)
H8 H 0.2470 1.0141 0.4050
C4 C 0.22603(17) 0.85807(18) 0.41959(15)
C5 C 0.22330(18) 0.77832(18) 0.48013(15)
H9 H 0.2105 0.7095 0.4631
C6 C 0.2394(2) 0.80063(19) 0.56551(15)
H10 H 0.2378 0.7463 0.6055
O4 O -0.06007(17) 0.8498(2) 0.36193(13)
H2 H -0.0646 0.8028 0.4006
H3 H -0.1105 0.8846 0.3470
N2 N 0.51620(17) 0.7721(2) 0.34661(15)
H6 H 0.5368 0.8180 0.3103
N3 N 0.46812(18) 0.70826(19) 0.46926(16)
C7 C 0.49343(18) 0.7937(2) 0.42682(17)
C8 C 0.4824(3) 0.6141(3) 0.4154(2)
H11 H 0.4241 0.5703 0.4149
H12 H 0.5377 0.5726 0.4351
C9 C 0.5021(3) 0.6610(3) 0.3270(2)
H13 H 0.5604 0.6307 0.3013
H14 H 0.4468 0.6506 0.2889
C10 C 0.49700(19) 0.8996(2) 0.46426(16)
C11 C 0.5064(2) 0.9132(2) 0.55335(17)
H15 H 0.5105 0.8546 0.5890
C12 C 0.4905(2) 0.9878(2) 0.41216(17)
H16 H 0.4839 0.9796 0.3532
N2D N 0.48380(17) 1.2279(2) 0.65339(15)
H6D H 0.4632 1.1820 0.6897
N3D N 0.53188(18) 1.29174(19) 0.53074(16)
C7D C 0.50657(18) 1.2063(2) 0.57318(17)
C8D C 0.5176(3) 1.3859(3) 0.5846(2)
H11D H 0.5759 1.4297 0.5851
H12D H 0.4623 1.4274 0.5649
C9D C 0.4979(3) 1.3390(3) 0.6730(2)
H13D H 0.4396 1.3693 0.6987
H14D H 0.5532 1.3494 0.7111
C10D C 0.50300(19) 1.1004(2) 0.53574(16)
C11D C 0.4936(2) 1.0868(2) 0.44665(17)
H15D H 0.4895 1.1454 0.4110
C12D C 0.5095(2) 1.0122(2) 0.58784(17)
H16D H 0.5161 1.0204 0.6468
loop_
_geom_bond_atom_site_label_1
_geom_bond_atom_site_label_2
_geom_bond_site_symmetry_1
_geom_bond_site_symmetry_2
S1 O1 1_555 1_555
O2 S1 1_555 1_555
O3 S1 1_555 1_555
H1 O3 1_555 1_555
O4 H2 1_555 1_555
H3 O4 1_555 1_555
N1 H4 1_555 1_555
H5 N1 1_555 1_555
N2 H6 1_555 1_555
N3 C7 1_555 1_555
C1 N1 1_555 1_555
C2 C1 1_555 1_555
H7 C2 1_555 1_555
C3 C2 1_555 1_555
H8 C3 1_555 1_555
C4 S1 1_555 1_555
C5 C4 1_555 1_555
H9 C5 1_555 1_555
C6 C1 1_555 1_555
H10 C6 1_555 1_555
C7 N2 1_555 1_555
C8 N3 1_555 1_555
H11 C8 1_555 1_555
H12 C8 1_555 1_555
C9 N2 1_555 1_555
H13 C9 1_555 1_555
H14 C9 1_555 1_555
C10 C7 1_555 1_555
C11 C10 1_555 1_555
H15 C11 1_555 1_555
C12 C10 1_555 1_555
H16 C12 1_555 1_555
N2D H6D 1_555 1_555
N3D C7D 1_555 1_555
C7D N2D 1_555 1_555
C8D N3D 1_555 1_555
H11D C8D 1_555 1_555
H12D C8D 1_555 1_555
C9D N2D 1_555 1_555
H13D C9D 1_555 1_555
H14D C9D 1_555 1_555
C10D C7D 1_555 1_555
C11D C12 1_555 1_555
H15D C11D 1_555 1_555
C12D C11 1_555 1_555
H16D C12D 1_555 1_555
C3 C4 1_555 1_555
C5 C6 1_555 1_555
C8 C9 1_555 1_555
C8D C9D 1_555 1_555
C10D C11D 1_555 1_555
C10D C12D 1_555 1_555

#END
