
#######################################################################
#
#                 Cambridge Crystallographic Data Centre
#                                CCDC 
#
#######################################################################
#
# If this CIF has been generated from an entry in the Cambridge 
# Structural Database, then it will include bibliographic, chemical, 
# crystal, experimental, refinement or atomic coordinate data resulting 
# from the CCDC's data processing and validation procedures.
#
#######################################################################

data_DUDFOY
_chemical_formula_moiety         'C12 H14 N2 O5'
_chemical_name_systematic        
(4S,5S)-2-(3-Methoxyphenyl)-1,3-dioxolane-4,5-dicarboxamide
_symmetry_cell_setting           orthorhombic
_symmetry_space_group_name_H-M   'P 21 21 21'
_symmetry_Int_Tables_number      19
_space_group_name_Hall           'P 2ac 2ab'
loop_
_symmetry_equiv_pos_site_id
_symmetry_equiv_pos_as_xyz
1 x,y,z
2 1/2-x,-y,1/2+z
3 -x,1/2+y,1/2-z
4 1/2+x,1/2-y,-z
_cell_length_a                   9.2340(18)
_cell_length_b                   9.852(2)
_cell_length_c                   14.266(3)
_cell_angle_alpha                90
_cell_angle_beta                 90
_cell_angle_gamma                90
_cell_volume                     1297.83
_exptl_crystal_colour            colorless
_exptl_crystal_description       block
_cell_formula_units_Z            4
_exptl_crystal_recrystallization_method methanol
loop_
_atom_site_label
_atom_site_type_symbol
_atom_site_fract_x
_atom_site_fract_y
_atom_site_fract_z
O1 O 0.6259(4) 0.9009(4) -0.2515(2)
O2 O 0.5311(3) 0.7583(2) 0.08959(15)
O3 O 0.7763(3) 0.7304(2) 0.10000(19)
O4 O 0.6719(5) 0.3876(3) 0.0578(3)
O5 O 0.5534(3) 0.5637(2) 0.30153(17)
N1 N 0.8069(4) 0.5351(3) -0.0253(2)
H1 H 0.8224 0.4786 -0.0701
H2 H 0.8429 0.6155 -0.0279
N2 N 0.4593(4) 0.7713(3) 0.2737(2)
H3 H 0.4389 0.7854 0.3317
H4 H 0.4395 0.8322 0.2324
C1 C 0.5709(6) 0.7727(7) -0.2635(3)
H5 H 0.5441 0.7602 -0.3280
H6 H 0.4871 0.7613 -0.2245
H7 H 0.6429 0.7069 -0.2466
C2 C 0.6605(5) 0.9407(5) -0.1622(3)
C3 C 0.7152(6) 1.0709(5) -0.1530(3)
H8 H 0.7253 1.1252 -0.2059
C4 C 0.7541(8) 1.1201(4) -0.0684(4)
H9 H 0.7932 1.2068 -0.0638
C5 C 0.7366(6) 1.0431(4) 0.0109(3)
H10 H 0.7614 1.0782 0.0692
C6 C 0.6820(4) 0.9131(3) 0.0036(2)
C7 C 0.6436(4) 0.8611(4) -0.0833(2)
H11 H 0.6069 0.7735 -0.0883
C8 C 0.6654(4) 0.8314(3) 0.0910(2)
H12 H 0.6676 0.8918 0.1456
C9 C 0.5521(4) 0.6389(3) 0.1436(2)
H13 H 0.4904 0.5665 0.1186
C10 C 0.7109(4) 0.6039(3) 0.1246(3)
H14 H 0.7553 0.5695 0.1823
C11 C 0.7276(5) 0.4985(4) 0.0474(3)
C12 C 0.5210(4) 0.6565(3) 0.2480(3)
loop_
_geom_bond_atom_site_label_1
_geom_bond_atom_site_label_2
_geom_bond_site_symmetry_1
_geom_bond_site_symmetry_2
O1 C1 1_555 1_555
O2 C8 1_555 1_555
O3 C8 1_555 1_555
O4 C11 1_555 1_555
O5 C12 1_555 1_555
N1 H1 1_555 1_555
H2 N1 1_555 1_555
N2 H3 1_555 1_555
H4 N2 1_555 1_555
C1 H5 1_555 1_555
H6 C1 1_555 1_555
H7 C1 1_555 1_555
C2 O1 1_555 1_555
C3 C2 1_555 1_555
H8 C3 1_555 1_555
C4 C3 1_555 1_555
H9 C4 1_555 1_555
C5 C4 1_555 1_555
H10 C5 1_555 1_555
C6 C5 1_555 1_555
C7 C2 1_555 1_555
H11 C7 1_555 1_555
C8 C6 1_555 1_555
H12 C8 1_555 1_555
C9 O2 1_555 1_555
H13 C9 1_555 1_555
C10 O3 1_555 1_555
H14 C10 1_555 1_555
C11 N1 1_555 1_555
C12 N2 1_555 1_555
C6 C7 1_555 1_555
C9 C10 1_555 1_555
C9 C12 1_555 1_555
C10 C11 1_555 1_555

#END
