
#######################################################################
#
#                 Cambridge Crystallographic Data Centre
#                                CCDC 
#
#######################################################################
#
# If this CIF has been generated from an entry in the Cambridge 
# Structural Database, then it will include bibliographic, chemical, 
# crystal, experimental, refinement or atomic coordinate data resulting 
# from the CCDC's data processing and validation procedures.
#
#######################################################################

data_DUDKUJ
_chemical_formula_moiety         'C19 H22 O2'
_chemical_name_systematic        
1,7,7-Trimethyl-4'-phenyl-5'H-spiro[bicyclo[2.2.1]heptane-2,2'-furan]-5'-one
_symmetry_cell_setting           orthorhombic
_symmetry_space_group_name_H-M   'P 21 21 21'
_symmetry_Int_Tables_number      19
_space_group_name_Hall           'P 2ac 2ab'
loop_
_symmetry_equiv_pos_site_id
_symmetry_equiv_pos_as_xyz
1 x,y,z
2 1/2-x,-y,1/2+z
3 -x,1/2+y,1/2-z
4 1/2+x,1/2-y,-z
_cell_length_a                   10.1765(9)
_cell_length_b                   11.8587(10)
_cell_length_c                   26.460(2)
_cell_angle_alpha                90
_cell_angle_beta                 90
_cell_angle_gamma                90
_cell_volume                     3193.19
_exptl_crystal_colour            colorless
_exptl_crystal_description       prismatic
_chemical_melting_point          '119-120 deg.C'
_cell_formula_units_Z            8
loop_
_atom_site_label
_atom_site_type_symbol
_atom_site_fract_x
_atom_site_fract_y
_atom_site_fract_z
O1 O 0.7446(3) 0.5383(3) 0.27767(10)
O2 O 0.5914(2) 0.6014(2) 0.22497(9)
C1 C 0.6998(4) 0.5406(3) 0.23530(14)
C2 C 0.7452(3) 0.4852(3) 0.18881(11)
C3 C 0.6586(3) 0.5124(3) 0.15363(12)
H1 H 0.6653 0.4895 0.1201
C4 C 0.5508(3) 0.5824(3) 0.17287(12)
C5 C 0.5278(4) 0.6970(3) 0.14620(17)
H2 H 0.5457 0.7593 0.1689
H3 H 0.5833 0.7042 0.1166
C6 C 0.3822(4) 0.6938(3) 0.13138(18)
H4 H 0.3448 0.7681 0.1239
C7 C 0.3671(5) 0.6103(4) 0.08930(17)
H5 H 0.4335 0.6211 0.0635
H6 H 0.2807 0.6152 0.0740
C8 C 0.3859(4) 0.4977(3) 0.11695(16)
H7 H 0.3078 0.4512 0.1141
H8 H 0.4602 0.4567 0.1032
C9 C 0.4108(3) 0.5308(3) 0.17206(13)
C10 C 0.3198(3) 0.6358(3) 0.17605(15)
C11 C 0.1730(4) 0.6086(4) 0.16928(17)
H9 H 0.1431 0.5639 0.1973
H10 H 0.1606 0.5674 0.1384
H11 H 0.1237 0.6776 0.1679
C12 C 0.3303(5) 0.7024(5) 0.22505(17)
H12 H 0.4196 0.7260 0.2300
H13 H 0.3035 0.6557 0.2528
H14 H 0.2744 0.7674 0.2232
C13 C 0.3930(4) 0.4359(4) 0.20882(18)
H15 H 0.4008 0.4641 0.2427
H16 H 0.4593 0.3797 0.2030
H17 H 0.3077 0.4030 0.2043
C14 C 0.8619(3) 0.4121(3) 0.18440(12)
C15 C 0.9301(3) 0.3755(3) 0.22637(13)
H18 H 0.9072 0.4026 0.2581
C16 C 1.0330(4) 0.2982(3) 0.22183(15)
H19 H 1.0751 0.2716 0.2507
C17 C 1.0718(4) 0.2618(3) 0.17581(15)
H20 H 1.1416 0.2116 0.1727
C18 C 1.0084(4) 0.2992(4) 0.13455(15)
H21 H 1.0355 0.2747 0.1028
C19 C 0.9047(4) 0.3725(3) 0.13816(15)
H22 H 0.8623 0.3961 0.1089
O3 O 0.1916(3) -0.0171(3) -0.02720(9)
O4 O 0.3590(2) 0.06730(19) 0.01150(8)
C20 C 0.2474(4) 0.0056(3) 0.01178(13)
C21 C 0.2132(3) -0.0226(3) 0.06471(12)
C22 C 0.3064(3) 0.0207(3) 0.09316(11)
H23 H 0.3077 0.0156 0.1282
C23 C 0.4093(3) 0.0784(3) 0.06309(12)
C24 C 0.4314(4) 0.2044(3) 0.07654(14)
H24 H 0.4080 0.2529 0.0484
H25 H 0.3802 0.2260 0.1059
C25 C 0.5787(4) 0.2110(3) 0.08771(15)
H26 H 0.6150 0.2875 0.0866
C26 C 0.6004(4) 0.1503(3) 0.13735(15)
H27 H 0.5358 0.1728 0.1623
H28 H 0.6877 0.1647 0.1505
C27 C 0.5835(4) 0.0253(3) 0.12253(12)
H29 H 0.6640 -0.0166 0.1282
H30 H 0.5130 -0.0096 0.1417
C28 C 0.5500(3) 0.0301(3) 0.06643(11)
C29 C 0.6374(3) 0.1305(3) 0.04900(14)
C30 C 0.6192(4) 0.1680(3) -0.00587(13)
H31 H 0.5276 0.1810 -0.0123
H32 H 0.6510 0.1102 -0.0281
H33 H 0.6675 0.2363 -0.0116
C31 C 0.7854(4) 0.1086(4) 0.05519(16)
H34 H 0.8334 0.1755 0.0465
H35 H 0.8114 0.0480 0.0333
H36 H 0.8037 0.0885 0.0896
C32 C 0.5689(4) -0.0812(3) 0.03855(14)
H37 H 0.6536 -0.1119 0.0467
H38 H 0.5635 -0.0684 0.0028
H39 H 0.5017 -0.1333 0.0486
C33 C 0.0953(3) -0.0871(3) 0.08010(13)
C34 C 0.0425(4) -0.1709(3) 0.05041(17)
H40 H 0.0790 -0.1863 0.0189
C35 C -0.0630(5) -0.2315(4) 0.0669(2)
H41 H -0.0982 -0.2878 0.0464
C36 C -0.1171(4) -0.2106(4) 0.1126(2)
H42 H -0.1882 -0.2530 0.1238
C37 C -0.0670(4) -0.1272(4) 0.14218(18)
H43 H -0.1050 -0.1121 0.1734
C38 C 0.0381(4) -0.0660(3) 0.12635(14)
H44 H 0.0717 -0.0093 0.1469
loop_
_geom_bond_atom_site_label_1
_geom_bond_atom_site_label_2
_geom_bond_site_symmetry_1
_geom_bond_site_symmetry_2
O1 C1 1_555 1_555
O2 C1 1_555 1_555
O3 C20 1_555 1_555
O4 C20 1_555 1_555
C1 C2 1_555 1_555
C2 C3 1_555 1_555
C3 H1 1_555 1_555
C4 O2 1_555 1_555
C5 C4 1_555 1_555
H2 C5 1_555 1_555
H3 C5 1_555 1_555
C6 C5 1_555 1_555
H4 C6 1_555 1_555
C7 C6 1_555 1_555
H5 C7 1_555 1_555
H6 C7 1_555 1_555
C8 C7 1_555 1_555
H7 C8 1_555 1_555
H8 C8 1_555 1_555
C9 C4 1_555 1_555
C10 C6 1_555 1_555
C11 C10 1_555 1_555
H9 C11 1_555 1_555
H10 C11 1_555 1_555
H11 C11 1_555 1_555
C12 C10 1_555 1_555
H12 C12 1_555 1_555
H13 C12 1_555 1_555
H14 C12 1_555 1_555
C13 C9 1_555 1_555
H15 C13 1_555 1_555
H16 C13 1_555 1_555
H17 C13 1_555 1_555
C14 C2 1_555 1_555
C15 C14 1_555 1_555
H18 C15 1_555 1_555
C16 C15 1_555 1_555
H19 C16 1_555 1_555
C17 C16 1_555 1_555
H20 C17 1_555 1_555
C18 C17 1_555 1_555
H21 C18 1_555 1_555
C19 C14 1_555 1_555
H22 C19 1_555 1_555
C20 C21 1_555 1_555
C21 C22 1_555 1_555
C22 H23 1_555 1_555
C23 O4 1_555 1_555
C24 C23 1_555 1_555
H24 C24 1_555 1_555
H25 C24 1_555 1_555
C25 C24 1_555 1_555
H26 C25 1_555 1_555
C26 C25 1_555 1_555
H27 C26 1_555 1_555
H28 C26 1_555 1_555
C27 C26 1_555 1_555
H29 C27 1_555 1_555
H30 C27 1_555 1_555
C28 C23 1_555 1_555
C29 C25 1_555 1_555
C30 C29 1_555 1_555
H31 C30 1_555 1_555
H32 C30 1_555 1_555
H33 C30 1_555 1_555
C31 C29 1_555 1_555
H34 C31 1_555 1_555
H35 C31 1_555 1_555
H36 C31 1_555 1_555
C32 C28 1_555 1_555
H37 C32 1_555 1_555
H38 C32 1_555 1_555
H39 C32 1_555 1_555
C33 C21 1_555 1_555
C34 C33 1_555 1_555
H40 C34 1_555 1_555
C35 C34 1_555 1_555
H41 C35 1_555 1_555
C36 C35 1_555 1_555
H42 C36 1_555 1_555
C37 C36 1_555 1_555
H43 C37 1_555 1_555
C38 C33 1_555 1_555
H44 C38 1_555 1_555
C3 C4 1_555 1_555
C8 C9 1_555 1_555
C9 C10 1_555 1_555
C18 C19 1_555 1_555
C22 C23 1_555 1_555
C27 C28 1_555 1_555
C28 C29 1_555 1_555
C37 C38 1_555 1_555

#END
