
#######################################################################
#
#                 Cambridge Crystallographic Data Centre
#                                CCDC 
#
#######################################################################
#
# If this CIF has been generated from an entry in the Cambridge 
# Structural Database, then it will include bibliographic, chemical, 
# crystal, experimental, refinement or atomic coordinate data resulting 
# from the CCDC's data processing and validation procedures.
#
#######################################################################

data_DUDVEF
_chemical_formula_moiety         'C44 H32 B2 N2 O4,2(C3 H6 O1)'
_chemical_name_systematic        
"4,4'-ethene-1,2-diylbis(1-(2-phenyl-2-naphtho[2,3-d][1,3,2]dioxaborol-2-yl)-1-pyridine) acetone solvate"
_symmetry_cell_setting           triclinic
_symmetry_space_group_name_H-M   'P -1'
_symmetry_Int_Tables_number      2
_space_group_name_Hall           '-P 1'
loop_
_symmetry_equiv_pos_site_id
_symmetry_equiv_pos_as_xyz
1 x,y,z
2 -x,-y,-z
_cell_length_a                   9.0771(3)
_cell_length_b                   10.8773(3)
_cell_length_c                   11.3414(4)
_cell_angle_alpha                77.9240(10)
_cell_angle_beta                 81.0780(10)
_cell_angle_gamma                76.8330(10)
_cell_volume                     1059.41
_exptl_crystal_colour            yellow
_exptl_crystal_description       prism
_cell_formula_units_Z            1
_exptl_crystal_recrystallization_method acetone
loop_
_atom_site_label
_atom_site_type_symbol
_atom_site_fract_x
_atom_site_fract_y
_atom_site_fract_z
O1 O 0.33911(11) 0.13340(10) 0.89021(9)
O2 O 0.25633(11) 0.08779(10) 0.72014(9)
N1 N 0.53497(13) 0.02617(11) 0.74507(10)
C1 C 0.64119(17) 0.06723(17) 0.78689(14)
H1 H 0.6163 0.1021 0.8574
C2 C 0.78669(18) 0.05923(18) 0.72814(15)
H2 H 0.8591 0.0869 0.7602
C3 C 0.82604(16) 0.01032(14) 0.62178(13)
C4 C 0.71471(16) -0.03438(14) 0.58112(13)
H3 H 0.7367 -0.0701 0.5111
C5 C 0.57278(16) -0.02569(14) 0.64445(13)
H4 H 0.4998 -0.0569 0.6167
C6 C 0.98002(16) 0.00765(15) 0.55712(13)
H5 H 1.0550 0.0175 0.5997
C7 C 0.34159(16) -0.10267(15) 0.89063(13)
C8 C 0.45741(18) -0.20573(16) 0.92319(15)
H6 H 0.5574 -0.2002 0.8929
C9 C 0.4290(2) -0.31712(18) 0.99955(18)
H7 H 0.5096 -0.3848 1.0196
C10 C 0.2831(2) -0.32833(19) 1.04567(17)
H8 H 0.2641 -0.4032 1.0969
C11 C 0.1656(2) -0.2282(2) 1.01554(18)
H9 H 0.0661 -0.2348 1.0466
C12 C 0.19425(19) -0.11745(18) 0.93915(16)
H10 H 0.1128 -0.0505 0.9194
C13 C 0.19043(15) 0.20992(14) 0.73588(12)
C14 C 0.08593(17) 0.29589(15) 0.67165(13)
H11 H 0.0531 0.2764 0.6053
C15 C 0.02741(17) 0.41715(15) 0.70808(14)
C16 C 0.08155(17) 0.44616(15) 0.80831(14)
C17 C 0.19158(17) 0.35229(15) 0.87338(14)
H12 H 0.2279 0.3695 0.9392
C18 C 0.24188(15) 0.23761(14) 0.83713(12)
C19 C -0.0859(2) 0.51075(17) 0.64842(17)
H13 H -0.1231 0.4933 0.5831
C20 C -0.1416(2) 0.62607(19) 0.68476(19)
H14 H -0.2167 0.6858 0.6445
C21 C -0.0871(2) 0.65494(18) 0.7815(2)
H15 H -0.1250 0.7341 0.8051
C22 C 0.0222(2) 0.56724(17) 0.84215(17)
H16 H 0.0579 0.5877 0.9067
B1 B 0.36239(18) 0.03467(17) 0.81445(15)
O1A O 1.66089(11) -0.13340(10) 0.10979(9)
O2A O 1.74367(11) -0.08779(10) 0.27986(9)
N1A N 1.46503(13) -0.02617(11) 0.25493(10)
C1A C 1.35881(17) -0.06723(17) 0.21311(14)
H1A H 1.3837 -0.1021 0.1426
C2A C 1.21331(18) -0.05923(18) 0.27186(15)
H2A H 1.1409 -0.0869 0.2398
C3A C 1.17396(16) -0.01032(14) 0.37822(13)
C4A C 1.28529(16) 0.03438(14) 0.41888(13)
H3A H 1.2633 0.0701 0.4889
C5A C 1.42722(16) 0.02569(14) 0.35555(13)
H4A H 1.5002 0.0569 0.3833
C6A C 1.01998(16) -0.00765(15) 0.44288(13)
H5A H 0.9450 -0.0175 0.4003
C7A C 1.65841(16) 0.10267(15) 0.10937(13)
C8A C 1.54259(18) 0.20573(16) 0.07681(15)
H6A H 1.4426 0.2002 0.1071
C9A C 1.5710(2) 0.31712(18) 0.00045(18)
H7A H 1.4904 0.3848 -0.0196
C10A C 1.7169(2) 0.32833(19) -0.04567(17)
H8A H 1.7359 0.4032 -0.0969
C11A C 1.8344(2) 0.2282(2) -0.01554(18)
H9A H 1.9339 0.2348 -0.0466
C12A C 1.80575(19) 0.11745(18) 0.06085(16)
H10A H 1.8872 0.0505 0.0806
C13A C 1.80957(15) -0.20992(14) 0.26412(12)
C14A C 1.91407(17) -0.29589(15) 0.32835(13)
H11A H 1.9469 -0.2764 0.3947
C15A C 1.97259(17) -0.41715(15) 0.29192(14)
C16A C 1.91845(17) -0.44616(15) 0.19169(14)
C17A C 1.80842(17) -0.35229(15) 0.12662(14)
H12A H 1.7721 -0.3695 0.0608
C18A C 1.75812(15) -0.23761(14) 0.16287(12)
C19A C 2.0859(2) -0.51075(17) 0.35158(17)
H13A H 2.1231 -0.4933 0.4169
C20A C 2.1416(2) -0.62607(19) 0.31524(19)
H14A H 2.2167 -0.6858 0.3555
C21A C 2.0871(2) -0.65494(18) 0.2185(2)
H15A H 2.1250 -0.7341 0.1949
C22A C 1.9778(2) -0.56724(17) 0.15785(17)
H16A H 1.9421 -0.5877 0.0933
B1A B 1.63761(18) -0.03467(17) 0.18555(15)
O3 O 0.4988(10) 0.2597(5) 0.4586(8)
C23 C 0.7091(6) 0.3585(6) 0.4632(5)
H17 H 0.7553 0.4227 0.4083
H18 H 0.7827 0.2795 0.4757
H19 H 0.6740 0.3864 0.5394
C24 C 0.578(3) 0.3380(17) 0.4106(16)
C25 C 0.5542(8) 0.4140(8) 0.2874(5)
H20 H 0.6271 0.4686 0.2631
H21 H 0.4531 0.4655 0.2886
H22 H 0.5673 0.3568 0.2309
O4? O 0.481(2) 0.3028(14) 0.4745(16)
C26? C 0.7246(13) 0.2913(12) 0.3707(15)
H23? H 0.7708 0.3475 0.3061
H24? H 0.7290 0.2116 0.3453
H25? H 0.7783 0.2753 0.4407
C27? C 0.578(7) 0.347(4) 0.399(4)
C28? C 0.5268(15) 0.4838(13) 0.3256(14)
H26? H 0.6117 0.5091 0.2721
H27? H 0.4898 0.5430 0.3806
H28? H 0.4471 0.4838 0.2790
loop_
_geom_bond_atom_site_label_1
_geom_bond_atom_site_label_2
_geom_bond_site_symmetry_1
_geom_bond_site_symmetry_2
O1 C18 1_555 1_555
O2 C13 1_555 1_555
N1 C1 1_555 1_555
C1 H1 1_555 1_555
C2 C1 1_555 1_555
H2 C2 1_555 1_555
C3 C2 1_555 1_555
C4 C3 1_555 1_555
H3 C4 1_555 1_555
C5 N1 1_555 1_555
H4 C5 1_555 1_555
C6 C3 1_555 1_555
H5 C6 1_555 1_555
C7 C8 1_555 1_555
C8 H6 1_555 1_555
C9 C8 1_555 1_555
H7 C9 1_555 1_555
C10 C9 1_555 1_555
H8 C10 1_555 1_555
C11 C10 1_555 1_555
H9 C11 1_555 1_555
C12 C7 1_555 1_555
H10 C12 1_555 1_555
C13 C14 1_555 1_555
C14 H11 1_555 1_555
C15 C14 1_555 1_555
C16 C15 1_555 1_555
C17 C16 1_555 1_555
H12 C17 1_555 1_555
C18 C13 1_555 1_555
C19 C15 1_555 1_555
H13 C19 1_555 1_555
C20 C19 1_555 1_555
H14 C20 1_555 1_555
C21 C20 1_555 1_555
H15 C21 1_555 1_555
C22 C16 1_555 1_555
H16 C22 1_555 1_555
B1 O1 1_555 1_555
O3 C24 1_555 1_555
C23 H17 1_555 1_555
H18 C23 1_555 1_555
H19 C23 1_555 1_555
C24 C23 1_555 1_555
C25 C24 1_555 1_555
H20 C25 1_555 1_555
H21 C25 1_555 1_555
H22 C25 1_555 1_555
O1A C18A 1_555 1_555
O2A C13A 1_555 1_555
N1A C1A 1_555 1_555
C1A H1A 1_555 1_555
C2A C1A 1_555 1_555
H2A C2A 1_555 1_555
C3A C2A 1_555 1_555
C4A C3A 1_555 1_555
H3A C4A 1_555 1_555
C5A N1A 1_555 1_555
H4A C5A 1_555 1_555
C6A C6 1_555 1_555
H5A C6A 1_555 1_555
C7A C8A 1_555 1_555
C8A H6A 1_555 1_555
C9A C8A 1_555 1_555
H7A C9A 1_555 1_555
C10A C9A 1_555 1_555
H8A C10A 1_555 1_555
C11A C10A 1_555 1_555
H9A C11A 1_555 1_555
C12A C7A 1_555 1_555
H10A C12A 1_555 1_555
C13A C14A 1_555 1_555
C14A H11A 1_555 1_555
C15A C14A 1_555 1_555
C16A C15A 1_555 1_555
C17A C16A 1_555 1_555
H12A C17A 1_555 1_555
C18A C13A 1_555 1_555
C19A C15A 1_555 1_555
H13A C19A 1_555 1_555
C20A C19A 1_555 1_555
H14A C20A 1_555 1_555
C21A C20A 1_555 1_555
H15A C21A 1_555 1_555
C22A C16A 1_555 1_555
H16A C22A 1_555 1_555
B1A O1A 1_555 1_555
O2 B1 1_555 1_555
N1 B1 1_555 1_555
C4 C5 1_555 1_555
C7 B1 1_555 1_555
C11 C12 1_555 1_555
C17 C18 1_555 1_555
C21 C22 1_555 1_555
O2A B1A 1_555 1_555
N1A B1A 1_555 1_555
C3A C6A 1_555 1_555
C4A C5A 1_555 1_555
C7A B1A 1_555 1_555
C11A C12A 1_555 1_555
C17A C18A 1_555 1_555
C21A C22A 1_555 1_555

#END
