
#######################################################################
#
#                 Cambridge Crystallographic Data Centre
#                                CCDC 
#
#######################################################################
#
# If this CIF has been generated from an entry in the Cambridge 
# Structural Database, then it will include bibliographic, chemical, 
# crystal, experimental, refinement or atomic coordinate data resulting 
# from the CCDC's data processing and validation procedures.
#
#######################################################################

data_DUDVOP
_chemical_name_common            'Sinulaflexiolide L monohydrate'
_chemical_formula_moiety         'C40 H64 O10,H2 O1'
_chemical_name_systematic        
'13-hydroxy-4,9,13-trimethyl-17-(2-(3,4,11,15-tetrahydroxy-4,8,12-trimethyl-14-oxo-13-oxabicyclo[10.3.2]heptadec-7-en-15-yl)ethyl)-5,15-dioxatricyclo[12.3.1.0^4,6^]octadec-9-en-16-one monohydrate'
_symmetry_cell_setting           monoclinic
_symmetry_space_group_name_H-M   'C 2'
_symmetry_Int_Tables_number      5
_space_group_name_Hall           'C 2y'
loop_
_symmetry_equiv_pos_site_id
_symmetry_equiv_pos_as_xyz
1 x,y,z
2 -x,y,-z
3 1/2+x,1/2+y,z
4 1/2-x,1/2+y,-z
_cell_length_a                   17.9396(13)
_cell_length_b                   8.5245(7)
_cell_length_c                   24.5138(19)
_cell_angle_alpha                90
_cell_angle_beta                 98.789(8)
_cell_angle_gamma                90
_cell_volume                     3704.78
_exptl_crystal_colour            colorless
_exptl_crystal_description       columnar
_cell_formula_units_Z            4
loop_
_atom_site_label
_atom_site_type_symbol
_atom_site_fract_x
_atom_site_fract_y
_atom_site_fract_z
O1 O 0.86801(14) 0.7534(3) 0.71947(10)
O2 O 0.63405(14) 0.1660(3) 0.76859(10)
O3 O 0.93035(13) 0.8857(4) 0.59188(11)
H1 H 0.9741 0.9163 0.5942
O4 O 0.81202(15) 0.8625(4) 0.78637(11)
O5 O 0.67109(14) 0.8412(3) 0.72190(11)
H2 H 0.6808 0.9304 0.7126
O6 O 0.68965(14) 0.1885(3) 0.69592(10)
O7 O 0.64111(15) -0.1173(3) 0.83594(10)
H3 H 0.6507 -0.1230 0.8044
O8 O 0.76864(15) 0.5513(4) 0.99847(11)
O9 O 0.57134(14) 0.4710(3) 0.57641(11)
H4 H 0.5592 0.5306 0.5503
O10 O 0.67227(15) 0.5063(3) 0.50221(11)
H5 H 0.635(2) 0.460(5) 0.4877(17)
C1 C 0.9486(2) 0.3420(6) 0.64125(18)
H6 H 0.9240 0.3908 0.6690
H7 H 0.9974 0.3050 0.6577
H8 H 0.9188 0.2551 0.6254
C2 C 0.9574(2) 0.4594(5) 0.59689(16)
C3 C 1.0177(2) 0.5798(5) 0.61204(17)
H9 H 1.0253 0.6376 0.5792
H10 H 1.0647 0.5277 0.6263
C4 C 0.9970(2) 0.6953(5) 0.65567(16)
H11 H 0.9924 0.6378 0.6891
H12 H 1.0376 0.7706 0.6644
C5 C 0.9236(2) 0.7838(5) 0.63689(15)
H13 H 0.8856 0.7050 0.6231
C6 C 0.8924(2) 0.8752(5) 0.68241(15)
C7 C 0.8059(2) 0.7948(5) 0.74314(17)
C8 C 0.7302(2) 0.7368(5) 0.71189(15)
C9 C 0.7113(2) 0.5812(5) 0.74006(15)
H14 H 0.7007 0.6053 0.7768
H15 H 0.6657 0.5375 0.7192
C10 C 0.7734(2) 0.4562(5) 0.74492(15)
H16 H 0.8201 0.5023 0.7631
H17 H 0.7810 0.4254 0.7081
C11 C 0.7566(2) 0.3080(5) 0.77704(15)
H18 H 0.8006 0.2401 0.7765
C12 C 0.6916(2) 0.2189(5) 0.74484(16)
C13 C 0.6347(2) 0.1673(5) 0.82899(14)
H19 H 0.6048 0.2569 0.8384
C14 C 0.5933(2) 0.0146(5) 0.84032(16)
C15 C 0.5760(2) 0.0081(5) 0.89967(15)
H20 H 0.6231 0.0216 0.9246
H21 H 0.5573 -0.0960 0.9060
C16 C 0.5189(2) 0.1289(5) 0.91551(17)
H22 H 0.4842 0.1555 0.8825
H23 H 0.4897 0.0788 0.9408
C17 C 0.5506(2) 0.2770(5) 0.94128(17)
H24 H 0.5862 0.2644 0.9728
C18 C 0.5358(2) 0.4250(5) 0.92599(17)
C19 C 0.4836(2) 0.4721(6) 0.87497(18)
H25 H 0.4699 0.3811 0.8526
H26 H 0.5085 0.5465 0.8545
H27 H 0.4391 0.5189 0.8851
C20 C 0.7515(2) 0.3304(5) 0.83862(14)
H28 H 0.7191 0.4212 0.8423
C21 C 0.7138(2) 0.1847(5) 0.85872(15)
H29 H 0.7428 0.0923 0.8524
H30 H 0.7130 0.1932 0.8981
C22 C 0.5205(2) -0.0075(5) 0.79920(16)
H31 H 0.5329 -0.0313 0.7634
H32 H 0.4912 0.0872 0.7972
H33 H 0.4917 -0.0923 0.8113
C23 C 0.5733(2) 0.5610(5) 0.96034(18)
H34 H 0.5372 0.6460 0.9598
H35 H 0.5865 0.5267 0.9983
C24 C 0.6439(2) 0.6228(5) 0.94009(17)
H36 H 0.6337 0.6376 0.9004
H37 H 0.6574 0.7238 0.9570
C25 C 0.7089(2) 0.5107(5) 0.95414(16)
H38 H 0.6945 0.3997 0.9529
C26 C 0.7846(2) 0.5414(5) 0.94205(15)
C27 C 0.8032(3) 0.6970(5) 0.91746(17)
H39 H 0.7763 0.7795 0.9326
H40 H 0.7888 0.6939 0.8781
H41 H 0.8565 0.7161 0.9261
C28 C 0.8322(2) 0.4015(5) 0.93221(15)
H42 H 0.8147 0.3108 0.9506
H43 H 0.8840 0.4215 0.9486
C29 C 0.8299(2) 0.3637(5) 0.87128(15)
H44 H 0.8616 0.2728 0.8683
H45 H 0.8518 0.4511 0.8540
C30 C 0.7346(2) 0.7222(4) 0.65003(14)
H46 H 0.7739 0.6450 0.6462
C31 C 0.6611(2) 0.6648(5) 0.61384(15)
H47 H 0.6196 0.6939 0.6329
H48 H 0.6554 0.7251 0.5799
C32 C 0.6502(2) 0.4919(5) 0.59756(15)
H49 H 0.6622 0.4283 0.6311
C33 C 0.6962(2) 0.4276(5) 0.55391(15)
C34 C 0.7796(2) 0.4633(5) 0.56960(15)
H50 H 0.7942 0.4343 0.6080
H51 H 0.7860 0.5760 0.5673
C35 C 0.8355(2) 0.3856(5) 0.53635(16)
H52 H 0.8415 0.2754 0.5460
H53 H 0.8171 0.3936 0.4971
C36 C 0.9097(2) 0.4696(5) 0.55017(17)
H54 H 0.9234 0.5354 0.5231
C37 C 0.6820(2) 0.2528(5) 0.54790(16)
H55 H 0.6290 0.2344 0.5369
H56 H 0.6985 0.2019 0.5826
H57 H 0.7093 0.2114 0.5204
C38 C 0.7583(2) 0.8771(5) 0.62564(15)
H58 H 0.7143 0.9447 0.6195
H59 H 0.7720 0.8541 0.5897
C39 C 0.8233(2) 0.9715(5) 0.65863(16)
H60 H 0.8390 1.0517 0.6347
H61 H 0.8044 1.0244 0.6888
C40 C 0.9515(2) 0.9767(5) 0.71678(16)
H62 H 0.9280 1.0388 0.7420
H63 H 0.9745 1.0446 0.6929
H64 H 0.9894 0.9109 0.7371
O11 O 0.5000 0.6947(5) 0.5000
loop_
_geom_bond_atom_site_label_1
_geom_bond_atom_site_label_2
_geom_bond_site_symmetry_1
_geom_bond_site_symmetry_2
O1 C6 1_555 1_555
O2 C12 1_555 1_555
O3 H1 1_555 1_555
O4 C7 1_555 1_555
O5 H2 1_555 1_555
O6 C12 1_555 1_555
O7 H3 1_555 1_555
O8 C25 1_555 1_555
O9 H4 1_555 1_555
O10 H5 1_555 1_555
C1 H6 1_555 1_555
H7 C1 1_555 1_555
H8 C1 1_555 1_555
C2 C1 1_555 1_555
C3 C2 1_555 1_555
H9 C3 1_555 1_555
H10 C3 1_555 1_555
C4 C3 1_555 1_555
H11 C4 1_555 1_555
H12 C4 1_555 1_555
C5 O3 1_555 1_555
H13 C5 1_555 1_555
C6 C5 1_555 1_555
C7 O1 1_555 1_555
C8 O5 1_555 1_555
C9 C8 1_555 1_555
H14 C9 1_555 1_555
H15 C9 1_555 1_555
C10 C9 1_555 1_555
H16 C10 1_555 1_555
H17 C10 1_555 1_555
C11 C10 1_555 1_555
H18 C11 1_555 1_555
C12 C11 1_555 1_555
C13 O2 1_555 1_555
H19 C13 1_555 1_555
C14 O7 1_555 1_555
C15 C14 1_555 1_555
H20 C15 1_555 1_555
H21 C15 1_555 1_555
C16 C15 1_555 1_555
H22 C16 1_555 1_555
H23 C16 1_555 1_555
C17 C16 1_555 1_555
H24 C17 1_555 1_555
C18 C17 1_555 1_555
C19 C18 1_555 1_555
H25 C19 1_555 1_555
H26 C19 1_555 1_555
H27 C19 1_555 1_555
C20 C11 1_555 1_555
H28 C20 1_555 1_555
C21 C13 1_555 1_555
H29 C21 1_555 1_555
H30 C21 1_555 1_555
C22 C14 1_555 1_555
H31 C22 1_555 1_555
H32 C22 1_555 1_555
H33 C22 1_555 1_555
C23 C18 1_555 1_555
H34 C23 1_555 1_555
H35 C23 1_555 1_555
C24 C23 1_555 1_555
H36 C24 1_555 1_555
H37 C24 1_555 1_555
C25 C24 1_555 1_555
H38 C25 1_555 1_555
C26 O8 1_555 1_555
C27 C26 1_555 1_555
H39 C27 1_555 1_555
H40 C27 1_555 1_555
H41 C27 1_555 1_555
C28 C26 1_555 1_555
H42 C28 1_555 1_555
H43 C28 1_555 1_555
C29 C20 1_555 1_555
H44 C29 1_555 1_555
H45 C29 1_555 1_555
C30 C8 1_555 1_555
H46 C30 1_555 1_555
C31 C30 1_555 1_555
H47 C31 1_555 1_555
H48 C31 1_555 1_555
C32 O9 1_555 1_555
H49 C32 1_555 1_555
C33 O10 1_555 1_555
C34 C33 1_555 1_555
H50 C34 1_555 1_555
H51 C34 1_555 1_555
C35 C34 1_555 1_555
H52 C35 1_555 1_555
H53 C35 1_555 1_555
C36 C2 1_555 1_555
H54 C36 1_555 1_555
C37 C33 1_555 1_555
H55 C37 1_555 1_555
H56 C37 1_555 1_555
H57 C37 1_555 1_555
C38 C30 1_555 1_555
H58 C38 1_555 1_555
H59 C38 1_555 1_555
C39 C6 1_555 1_555
H60 C39 1_555 1_555
H61 C39 1_555 1_555
C40 C6 1_555 1_555
H62 C40 1_555 1_555
H63 C40 1_555 1_555
H64 C40 1_555 1_555
C4 C5 1_555 1_555
C7 C8 1_555 1_555
C13 C14 1_555 1_555
C20 C21 1_555 1_555
C25 C26 1_555 1_555
C28 C29 1_555 1_555
C31 C32 1_555 1_555
C32 C33 1_555 1_555
C35 C36 1_555 1_555
C38 C39 1_555 1_555

#END
