
#######################################################################
#
#                 Cambridge Crystallographic Data Centre
#                                CCDC 
#
#######################################################################
#
# If this CIF has been generated from an entry in the Cambridge 
# Structural Database, then it will include bibliographic, chemical, 
# crystal, experimental, refinement or atomic coordinate data resulting 
# from the CCDC's data processing and validation procedures.
#
#######################################################################

data_DUDWOP
_chemical_formula_moiety         'C26 H20 O2'
_chemical_name_systematic        
1-(2-Benzoyl-3-phenyl-1-(phenylethynyl)cyclopropyl)ethanone
_symmetry_cell_setting           triclinic
_symmetry_space_group_name_H-M   'P -1'
_symmetry_Int_Tables_number      2
_space_group_name_Hall           '-P 1'
loop_
_symmetry_equiv_pos_site_id
_symmetry_equiv_pos_as_xyz
1 x,y,z
2 -x,-y,-z
_cell_length_a                   11.9858(2)
_cell_length_b                   13.8910(2)
_cell_length_c                   14.5070(3)
_cell_angle_alpha                111.5790(10)
_cell_angle_beta                 109.6970(10)
_cell_angle_gamma                99.8180(10)
_cell_volume                     1991.42
_exptl_crystal_colour            colorless
_exptl_crystal_description       block
_cell_formula_units_Z            4
loop_
_atom_site_label
_atom_site_type_symbol
_atom_site_fract_x
_atom_site_fract_y
_atom_site_fract_z
C1 C 0.73993(14) 0.47192(11) -0.08090(11)
C2 C 0.62262(16) 0.44901(13) -0.08140(14)
H1 H 0.5958 0.3943 -0.0636
C3 C 0.54526(19) 0.50708(16) -0.10824(17)
H2 H 0.4654 0.4899 -0.1110
C4 C 0.5867(2) 0.59028(17) -0.13091(17)
H3 H 0.5345 0.6291 -0.1497
C5 C 0.7045(2) 0.61634(16) -0.12606(17)
H4 H 0.7331 0.6746 -0.1389
C6 C 0.78055(18) 0.55741(14) -0.10253(14)
H5 H 0.8598 0.5747 -0.1010
C7 C 0.51865(13) 0.16701(12) 0.11356(12)
C8 C 0.56778(17) 0.23170(16) 0.22644(14)
H6 H 0.6467 0.2858 0.2638
C9 C 0.5011(2) 0.2167(2) 0.28361(16)
H7 H 0.5347 0.2609 0.3592
C10 C 0.3860(2) 0.1373(2) 0.2299(2)
H8 H 0.3407 0.1279 0.2687
C11 C 0.33673(18) 0.07107(18) 0.1186(2)
H9 H 0.2586 0.0162 0.0825
C12 C 0.40218(15) 0.08524(14) 0.05982(14)
H10 H 0.3683 0.0401 -0.0156
C13 C 0.92338(13) 0.24236(12) 0.10119(12)
C14 C 0.91398(16) 0.28963(14) 0.19934(12)
H11 H 0.8685 0.3375 0.2081
C15 C 0.97185(19) 0.26600(16) 0.28444(14)
H12 H 0.9637 0.2975 0.3495
C16 C 1.04082(18) 0.19722(17) 0.27454(16)
H13 H 1.0795 0.1819 0.3323
C17 C 1.05223(18) 0.15106(18) 0.17836(18)
H14 H 1.0994 0.1045 0.1709
C18 C 0.99388(15) 0.17334(14) 0.09208(15)
H15 H 1.0023 0.1414 0.0272
C19 C 0.80581(13) 0.34781(11) 0.00493(11)
H16 H 0.8105 0.3955 0.0764
C20 C 0.85886(12) 0.25922(11) 0.00371(11)
H17 H 0.8942 0.2390 -0.0497
C21 C 0.71441(12) 0.22821(11) -0.05127(11)
C22 C 0.65016(13) 0.16679(12) -0.17570(11)
C23 C 0.51136(14) 0.11435(15) -0.22990(13)
H18 H 0.4822 0.0787 -0.3084
H19 H 0.4733 0.1694 -0.2102
H20 H 0.4888 0.0610 -0.2062
C24 C 0.64341(13) 0.20575(11) 0.00565(11)
C25 C 0.58627(13) 0.18699(12) 0.05377(11)
C26 C 0.82126(14) 0.40499(11) -0.06240(11)
O1 O 0.89850(12) 0.39772(10) -0.09885(10)
O2 O 0.71053(11) 0.16067(11) -0.22782(9)
C27 C 0.16090(13) 0.55017(12) 0.43417(12)
C28 C 0.22811(15) 0.51681(14) 0.37435(14)
H21 H 0.2185 0.5318 0.3152
C29 C 0.30914(18) 0.46164(16) 0.40151(18)
H22 H 0.3542 0.4402 0.3610
C30 C 0.32351(18) 0.43828(17) 0.48817(18)
H23 H 0.3783 0.4012 0.5064
C31 C 0.25695(17) 0.46967(16) 0.54782(16)
H24 H 0.2660 0.4533 0.6061
C32 C 0.17666(14) 0.52552(13) 0.52132(13)
H25 H 0.1323 0.5471 0.5624
C33 C 0.48974(12) 0.81346(12) 0.46083(11)
C34 C 0.58305(13) 0.91425(14) 0.53544(12)
H26 H 0.5653 0.9692 0.5825
C35 C 0.70168(15) 0.93357(18) 0.54036(16)
H27 H 0.7637 1.0016 0.5906
C36 C 0.72901(18) 0.8533(2) 0.4718(2)
H28 H 0.8096 0.8665 0.4758
C37 C 0.6373(2) 0.75342(19) 0.3970(2)
H29 H 0.6561 0.6992 0.3502
C38 C 0.51750(16) 0.73247(14) 0.39053(14)
H30 H 0.4557 0.6646 0.3394
C39 C -0.10328(12) 0.72493(11) 0.22359(10)
C40 C -0.00114(13) 0.79570(12) 0.22983(12)
H31 H 0.0783 0.7903 0.2580
C41 C -0.01680(15) 0.87395(14) 0.19448(13)
H32 H 0.0523 0.9213 0.1994
C42 C -0.13380(16) 0.88275(15) 0.15200(14)
H33 H -0.1437 0.9363 0.1290
C43 C -0.23587(16) 0.81184(16) 0.14385(15)
H34 H -0.3154 0.8165 0.1138
C44 C -0.22099(14) 0.73403(14) 0.17982(13)
H35 H -0.2905 0.6870 0.1748
C45 C 0.07678(12) 0.61360(11) 0.41250(11)
H36 H 0.0109 0.6045 0.4373
C46 C 0.13422(12) 0.73474(11) 0.43373(11)
C47 C 0.04167(12) 0.64173(11) 0.32006(11)
H37 H 0.0806 0.6146 0.2707
C48 C 0.1810(2) 0.91394(16) 0.59940(17)
H38 H 0.1385 0.9570 0.6337
H39 H 0.2315 0.9563 0.5793
H40 H 0.2340 0.8936 0.6500
C49 C 0.08651(14) 0.81303(12) 0.49889(12)
C50 C -0.08987(12) 0.64032(12) 0.26221(11)
C51 C 0.26287(12) 0.77058(11) 0.45063(11)
C52 C 0.36593(12) 0.79193(11) 0.45582(11)
O3 O -0.18055(10) 0.56865(10) 0.24333(10)
O4 O -0.02454(11) 0.79011(11) 0.47346(10)
loop_
_geom_bond_atom_site_label_1
_geom_bond_atom_site_label_2
_geom_bond_site_symmetry_1
_geom_bond_site_symmetry_2
C1 C2 1_555 1_555
C2 H1 1_555 1_555
C3 C2 1_555 1_555
H2 C3 1_555 1_555
C4 C3 1_555 1_555
H3 C4 1_555 1_555
C5 C4 1_555 1_555
H4 C5 1_555 1_555
C6 C1 1_555 1_555
H5 C6 1_555 1_555
C7 C8 1_555 1_555
C8 H6 1_555 1_555
C9 C8 1_555 1_555
H7 C9 1_555 1_555
C10 C9 1_555 1_555
H8 C10 1_555 1_555
C11 C10 1_555 1_555
H9 C11 1_555 1_555
C12 C7 1_555 1_555
H10 C12 1_555 1_555
C13 C14 1_555 1_555
C14 H11 1_555 1_555
C15 C14 1_555 1_555
H12 C15 1_555 1_555
C16 C15 1_555 1_555
H13 C16 1_555 1_555
C17 C16 1_555 1_555
H14 C17 1_555 1_555
C18 C13 1_555 1_555
H15 C18 1_555 1_555
C19 H16 1_555 1_555
C20 C13 1_555 1_555
H17 C20 1_555 1_555
C21 C19 1_555 1_555
C22 C21 1_555 1_555
C23 C22 1_555 1_555
H18 C23 1_555 1_555
H19 C23 1_555 1_555
H20 C23 1_555 1_555
C24 C21 1_555 1_555
C25 C7 1_555 1_555
C26 C1 1_555 1_555
C27 C28 1_555 1_555
C28 H21 1_555 1_555
C29 C28 1_555 1_555
H22 C29 1_555 1_555
C30 C29 1_555 1_555
H23 C30 1_555 1_555
C31 C30 1_555 1_555
H24 C31 1_555 1_555
C32 C27 1_555 1_555
H25 C32 1_555 1_555
C33 C34 1_555 1_555
C34 H26 1_555 1_555
C35 C34 1_555 1_555
H27 C35 1_555 1_555
C36 C35 1_555 1_555
H28 C36 1_555 1_555
C37 C36 1_555 1_555
H29 C37 1_555 1_555
C38 C33 1_555 1_555
H30 C38 1_555 1_555
C39 C40 1_555 1_555
C40 H31 1_555 1_555
C41 C40 1_555 1_555
H32 C41 1_555 1_555
C42 C41 1_555 1_555
H33 C42 1_555 1_555
C43 C42 1_555 1_555
H34 C43 1_555 1_555
C44 C39 1_555 1_555
H35 C44 1_555 1_555
C45 C27 1_555 1_555
H36 C45 1_555 1_555
C46 C45 1_555 1_555
C47 C45 1_555 1_555
H37 C47 1_555 1_555
C48 H38 1_555 1_555
H39 C48 1_555 1_555
H40 C48 1_555 1_555
C49 C46 1_555 1_555
C50 C39 1_555 1_555
C51 C46 1_555 1_555
C52 C33 1_555 1_555
O1 C26 1_555 1_555
O2 C22 1_555 1_555
O3 C50 1_555 1_555
O4 C49 1_555 1_555
C5 C6 1_555 1_555
C11 C12 1_555 1_555
C17 C18 1_555 1_555
C19 C20 1_555 1_555
C19 C26 1_555 1_555
C20 C21 1_555 1_555
C24 C25 1_555 1_555
C31 C32 1_555 1_555
C37 C38 1_555 1_555
C43 C44 1_555 1_555
C46 C47 1_555 1_555
C47 C50 1_555 1_555
C48 C49 1_555 1_555
C51 C52 1_555 1_555

#END
