
#######################################################################
#
#                 Cambridge Crystallographic Data Centre
#                                CCDC 
#
#######################################################################
#
# If this CIF has been generated from an entry in the Cambridge 
# Structural Database, then it will include bibliographic, chemical, 
# crystal, experimental, refinement or atomic coordinate data resulting 
# from the CCDC's data processing and validation procedures.
#
#######################################################################

data_DUDXOP
_chemical_formula_moiety         'C19 H34 O16,4(H2 O1)'
_chemical_name_systematic        'Methyl-\a-maltrotrioside tetrahydrate'
_symmetry_cell_setting           orthorhombic
_symmetry_space_group_name_H-M   'P 21 21 21'
_symmetry_Int_Tables_number      19
_space_group_name_Hall           'P 2ac 2ab'
loop_
_symmetry_equiv_pos_site_id
_symmetry_equiv_pos_as_xyz
1 x,y,z
2 1/2+x,1/2-y,-z
3 -x,1/2+y,1/2-z
4 1/2-x,-y,1/2+z
_cell_length_a                   10.37(1)
_cell_length_b                   24.39(1)
_cell_length_c                   10.65(1)
_cell_angle_alpha                90
_cell_angle_beta                 90
_cell_angle_gamma                90
_cell_volume                     2693.64
_cell_formula_units_Z            4
loop_
_atom_site_label
_atom_site_type_symbol
_atom_site_fract_x
_atom_site_fract_y
_atom_site_fract_z
O1 O 0.5347(3) 0.5692(1) 0.4797(3)
O2 O 0.7804(4) 0.5393(2) 0.5236(3)
O3 O 0.9051(4) 0.5926(2) 0.3144(4)
O4 O 0.7297(6) 0.6417(2) 0.1431(4)
O5 O 0.5361(3) 0.5300(1) 0.2781(3)
O6 O 0.5250(4) 0.5330(2) 0.0142(4)
C1 C 0.5879(5) 0.5286(2) 0.4000(5)
C2 C 0.7331(5) 0.5367(2) 0.3974(5)
C3 C 0.7685(5) 0.5889(2) 0.3275(4)
C4 C 0.7076(5) 0.5890(2) 0.1972(4)
C5 C 0.5614(5) 0.5800(2) 0.2113(5)
C6 C 0.4875(6) 0.5772(2) 0.0908(5)
O7 O 0.2956(3) 0.6129(1) 0.8158(3)
O8 O 0.3274(4) 0.5022(1) 0.8549(3)
O9 O 0.4888(4) 0.4761(1) 0.6445(3)
O10 O 0.2182(3) 0.5982(1) 0.6124(3)
O11 O 0.2366(4) 0.6050(2) 0.3486(4)
C7 C 0.2305(4) 0.5764(2) 0.7370(4)
C8 C 0.3052(4) 0.5228(2) 0.7311(4)
C9 C 0.4339(4) 0.5288(2) 0.6626(4)
C10 C 0.4136(4) 0.5549(2) 0.5349(4)
C11 C 0.3395(4) 0.6086(2) 0.5515(4)
C12 C 0.3090(5) 0.6380(2) 0.4311(4)
O12 O 0.3178(4) 0.7008(2) 1.1583(4)
O13 O 0.0748(4) 0.6634(2) 1.1947(3)
O14 O 0.0549(4) 0.5995(2) 0.9653(3)
O15 O 0.2581(4) 0.7444(1) 0.9717(3)
O16 O 0.2357(6) 0.7619(2) 0.7201(4)
C13 C 0.2185(6) 0.7250(2) 1.0913(4)
C14 C 0.1123(5) 0.6829(2) 1.0732(4)
C15 C 0.1591(4) 0.6361(2) 0.9931(4)
C16 C 0.2184(5) 0.6553(2) 0.8691(4)
C17 C 0.3113(5) 0.7034(2) 0.8909(5)
C18 C 0.3418(6) 0.7341(2) 0.7693(5)
C19 C 0.4125(8) 0.7388(3) 1.2005(7)
H1 H 0.579 0.489 0.441
H2 H 0.776 0.502 0.349
H3 H 0.732 0.624 0.380
H4 H 0.749 0.557 0.141
H5 H 0.524 0.614 0.265
H6 H 0.386 0.573 0.112
H7 H 0.502 0.615 0.004
H8 H 0.136 0.568 0.774
H9 H 0.247 0.494 0.680
H10 H 0.497 0.554 0.718
H11 H 0.360 0.527 0.475
H12 H 0.397 0.635 0.610
H13 H 0.255 0.675 0.452
H14 H 0.398 0.650 0.386
H15 H 0.179 0.759 1.145
H16 H 0.031 0.702 1.027
H17 H 0.232 0.614 1.045
H18 H 0.143 0.668 0.805
H19 H 0.400 0.688 0.930
H20 H 0.375 0.705 0.700
H21 H 0.367 0.769 1.126
H22 H 0.486 0.717 1.251
H23 H 0.454 0.759 1.120
O17 O 0.2937(6) 0.8793(3) 1.0966(5)
O18 O 0.2377(7) 0.8591(3) 1.3518(5)
O19 O 0.1119(8) 0.7703(3) 1.4829(7)
O20 O 0.4877(5) 0.8491(2) 1.4777(5)
loop_
_geom_bond_atom_site_label_1
_geom_bond_atom_site_label_2
_geom_bond_site_symmetry_1
_geom_bond_site_symmetry_2
O1 C1 1_555 1_555
O2 C2 1_555 1_555
O3 C3 1_555 1_555
O4 C4 1_555 1_555
O5 C1 1_555 1_555
O6 C6 1_555 1_555
C1 C2 1_555 1_555
C2 C3 1_555 1_555
C3 C4 1_555 1_555
C4 C5 1_555 1_555
C5 O5 1_555 1_555
C6 C5 1_555 1_555
O7 C7 1_555 1_555
O8 C8 1_555 1_555
O9 C9 1_555 1_555
O10 C7 1_555 1_555
O11 C12 1_555 1_555
C7 C8 1_555 1_555
C8 C9 1_555 1_555
C9 C10 1_555 1_555
C10 O1 1_555 1_555
C11 O10 1_555 1_555
C12 C11 1_555 1_555
O12 C13 1_555 1_555
O13 C14 1_555 1_555
O14 C15 1_555 1_555
O15 C13 1_555 1_555
O16 C18 1_555 1_555
C13 C14 1_555 1_555
C14 C15 1_555 1_555
C15 C16 1_555 1_555
C16 O7 1_555 1_555
C17 O15 1_555 1_555
C18 C17 1_555 1_555
C19 O12 1_555 1_555
H1 C1 1_555 1_555
H2 C2 1_555 1_555
H3 C3 1_555 1_555
H4 C4 1_555 1_555
H5 C5 1_555 1_555
H6 C6 1_555 1_555
H7 C6 1_555 1_555
H8 C7 1_555 1_555
H9 C8 1_555 1_555
H10 C9 1_555 1_555
H11 C10 1_555 1_555
H12 C11 1_555 1_555
H13 C12 1_555 1_555
H14 C12 1_555 1_555
H15 C13 1_555 1_555
H16 C14 1_555 1_555
H17 C15 1_555 1_555
H18 C16 1_555 1_555
H19 C17 1_555 1_555
H20 C18 1_555 1_555
H21 C19 1_555 1_555
H22 C19 1_555 1_555
H23 C19 1_555 1_555
C10 C11 1_555 1_555
C16 C17 1_555 1_555

#END
