
#######################################################################
#
#                 Cambridge Crystallographic Data Centre
#                                CCDC 
#
#######################################################################
#
# If this CIF has been generated from an entry in the Cambridge 
# Structural Database, then it will include bibliographic, chemical, 
# crystal, experimental, refinement or atomic coordinate data resulting 
# from the CCDC's data processing and validation procedures.
#
#######################################################################

data_DUDZEJ
_chemical_formula_moiety         'C19 H24 N3 1+,H2 O1,Br1 1-'
_chemical_name_systematic        
'3-mesityl-1-(pyridin-2-ylmethyl)-3,4,5,6-tetrahydropyrimidin-1-ium bromide hydrate'
_symmetry_cell_setting           orthorhombic
_symmetry_space_group_name_H-M   'P b c a'
_symmetry_Int_Tables_number      61
_space_group_name_Hall           '-P 2ac 2ab'
loop_
_symmetry_equiv_pos_site_id
_symmetry_equiv_pos_as_xyz
1 x,y,z
2 1/2-x,-y,1/2+z
3 1/2+x,1/2-y,-z
4 -x,1/2+y,1/2-z
5 -x,-y,-z
6 1/2+x,y,1/2-z
7 1/2-x,1/2+y,z
8 x,1/2-y,1/2+z
_cell_length_a                   15.5868(5)
_cell_length_b                   14.6323(4)
_cell_length_c                   17.0439(6)
_cell_angle_alpha                90
_cell_angle_beta                 90
_cell_angle_gamma                90
_cell_volume                     3887.21
_exptl_crystal_colour            colorless
_exptl_crystal_description       block
_cell_formula_units_Z            8
_exptl_crystal_recrystallization_method 'dichloromethane/diethyl ether'
loop_
_atom_site_label
_atom_site_type_symbol
_atom_site_fract_x
_atom_site_fract_y
_atom_site_fract_z
Br1 Br 0.26231(3) 0.64141(3) 0.81482(3)
O1 O 0.3743(3) 0.6154(2) 0.6526(2)
H1 H 0.3514 0.6282 0.6965
H2 H 0.400(4) 0.557(2) 0.655(4)
N1 N 0.4370(2) 0.4358(2) 0.68596(18)
N2 N 0.25056(17) 0.39948(18) 0.67358(16)
N3 N 0.17792(18) 0.48218(18) 0.57935(16)
C1 C 0.5213(3) 0.4180(4) 0.6729(3)
H3 H 0.5530 0.4597 0.6437
C2 C 0.5614(3) 0.3423(4) 0.7005(3)
H4 H 0.6191 0.3325 0.6894
C3 C 0.5176(3) 0.2814(4) 0.7439(3)
H5 H 0.5445 0.2294 0.7634
C4 C 0.4320(2) 0.2977(3) 0.7589(2)
H6 H 0.4000 0.2566 0.7885
C5 C 0.3947(2) 0.3756(2) 0.7295(2)
C6 C 0.3017(2) 0.3970(2) 0.7458(2)
H7 H 0.2783 0.3510 0.7808
H8 H 0.2977 0.4557 0.7720
C7 C 0.2405(2) 0.3121(2) 0.6312(2)
H9 H 0.2329 0.2627 0.6686
H10 H 0.2917 0.2997 0.6007
C8 C 0.1647(3) 0.3168(3) 0.5782(3)
H11 H 0.1651 0.2641 0.5437
H12 H 0.1128 0.3141 0.6095
C9 C 0.1631(3) 0.4013(2) 0.5297(2)
H13 H 0.2072 0.3978 0.4897
H14 H 0.1080 0.4067 0.5038
C10 C 0.21877(19) 0.4758(2) 0.64654(18)
H15 H 0.2254 0.5285 0.6765
C11 C 0.1455(2) 0.5698(2) 0.55251(19)
C12 C 0.0677(2) 0.6013(3) 0.5810(2)
C13 C 0.0378(2) 0.6844(3) 0.5527(2)
H16 H -0.0137 0.7073 0.5718
C14 C 0.0822(3) 0.7342(2) 0.4968(2)
C15 C 0.1587(3) 0.6994(2) 0.4690(2)
H17 H 0.1887 0.7320 0.4310
C16 C 0.1922(2) 0.6172(2) 0.4960(2)
C17 C 0.0167(3) 0.5487(3) 0.6414(3)
H18 H 0.0448 0.5527 0.6914
H19 H 0.0128 0.4858 0.6258
H20 H -0.0399 0.5742 0.6454
C18 C 0.0496(3) 0.8260(3) 0.4680(3)
H21 H 0.0345 0.8634 0.5122
H22 H 0.0000 0.8170 0.4356
H23 H 0.0937 0.8558 0.4382
C19 C 0.2774(3) 0.5823(3) 0.4660(2)
H24 H 0.2681 0.5294 0.4337
H25 H 0.3133 0.5661 0.5096
H26 H 0.3049 0.6291 0.4356
loop_
_geom_bond_atom_site_label_1
_geom_bond_atom_site_label_2
_geom_bond_site_symmetry_1
_geom_bond_site_symmetry_2
O1 H1 1_555 1_555
H2 O1 1_555 1_555
N1 C1 1_555 1_555
N2 C6 1_555 1_555
N3 C9 1_555 1_555
C1 H3 1_555 1_555
C2 C1 1_555 1_555
H4 C2 1_555 1_555
C3 C2 1_555 1_555
H5 C3 1_555 1_555
C4 C3 1_555 1_555
H6 C4 1_555 1_555
C5 N1 1_555 1_555
C6 C5 1_555 1_555
H7 C6 1_555 1_555
H8 C6 1_555 1_555
C7 N2 1_555 1_555
H9 C7 1_555 1_555
H10 C7 1_555 1_555
C8 C7 1_555 1_555
H11 C8 1_555 1_555
H12 C8 1_555 1_555
C9 C8 1_555 1_555
H13 C9 1_555 1_555
H14 C9 1_555 1_555
C10 N2 1_555 1_555
H15 C10 1_555 1_555
C11 N3 1_555 1_555
C12 C11 1_555 1_555
C13 C12 1_555 1_555
H16 C13 1_555 1_555
C14 C13 1_555 1_555
C15 C14 1_555 1_555
H17 C15 1_555 1_555
C16 C11 1_555 1_555
C17 C12 1_555 1_555
H18 C17 1_555 1_555
H19 C17 1_555 1_555
H20 C17 1_555 1_555
C18 C14 1_555 1_555
H21 C18 1_555 1_555
H22 C18 1_555 1_555
H23 C18 1_555 1_555
C19 C16 1_555 1_555
H24 C19 1_555 1_555
H25 C19 1_555 1_555
H26 C19 1_555 1_555
N3 C10 1_555 1_555
C4 C5 1_555 1_555
C15 C16 1_555 1_555

#END
