
#######################################################################
#
#                 Cambridge Crystallographic Data Centre
#                                CCDC 
#
#######################################################################
#
# If this CIF has been generated from an entry in the Cambridge 
# Structural Database, then it will include bibliographic, chemical, 
# crystal, experimental, refinement or atomic coordinate data resulting 
# from the CCDC's data processing and validation procedures.
#
#######################################################################

data_DUDZIL02
_chemical_formula_moiety         'C13 H10 N2 O3'
_chemical_name_systematic        2-Amino-5-nitrobenzophenone
_symmetry_cell_setting           monoclinic
_symmetry_space_group_name_H-M   'P 21/c'
_symmetry_Int_Tables_number      14
_space_group_name_Hall           '-P 2ybc'
loop_
_symmetry_equiv_pos_site_id
_symmetry_equiv_pos_as_xyz
1 x,y,z
2 -x,1/2+y,1/2-z
3 -x,-y,-z
4 x,1/2-y,1/2+z
_cell_length_a                   7.701(2)
_cell_length_b                   11.120(2)
_cell_length_c                   12.7066(10)
_cell_angle_alpha                90
_cell_angle_beta                 96.749(13)
_cell_angle_gamma                90
_cell_volume                     1080.59
_exptl_crystal_colour            yellow
_exptl_crystal_description       prism
_cell_formula_units_Z            4
loop_
_atom_site_label
_atom_site_type_symbol
_atom_site_fract_x
_atom_site_fract_y
_atom_site_fract_z
O1 O 0.3920(1) -0.0543(1) 1.0335(1)
O2 O -0.2236(2) -0.4296(1) 1.0917(1)
O3 O -0.1333(2) -0.4097(1) 0.9375(1)
N1 N 0.2345(2) 0.0350(1) 1.1700(1)
N2 N -0.1357(2) -0.3770(1) 1.0301(1)
C1 C 0.1593(2) -0.1120(1) 1.0311(1)
C2 C 0.1518(2) -0.0662(1) 1.1354(1)
C3 C 0.0544(2) -0.1313(1) 1.2048(1)
C4 C -0.0373(2) -0.2322(1) 1.1720(1)
C5 C -0.0339(2) -0.2732(1) 1.0678(1)
C6 C 0.0647(2) -0.2151(1) 0.9991(1)
C7 C 0.2661(2) -0.0517(1) 0.9568(1)
C8 C 0.3284(2) -0.1246(1) 0.8691(1)
C9 C 0.4099(2) -0.2353(1) 0.8899(1)
C10 C 0.4844(2) -0.2953(1) 0.8104(1)
C11 C 0.4746(2) -0.2464(1) 0.7091(1)
C12 C 0.3895(2) -0.1367(1) 0.6876(1)
C13 C 0.3183(2) -0.0756(1) 0.7674(1)
loop_
_geom_bond_atom_site_label_1
_geom_bond_atom_site_label_2
_geom_bond_site_symmetry_1
_geom_bond_site_symmetry_2
O1 C7 1_555 1_555
O2 N2 1_555 1_555
O3 N2 1_555 1_555
N1 C2 1_555 1_555
N2 C5 1_555 1_555
C1 C2 1_555 1_555
C2 C3 1_555 1_555
C3 C4 1_555 1_555
C4 C5 1_555 1_555
C5 C6 1_555 1_555
C6 C1 1_555 1_555
C7 C1 1_555 1_555
C8 C7 1_555 1_555
C9 C8 1_555 1_555
C10 C9 1_555 1_555
C11 C10 1_555 1_555
C12 C11 1_555 1_555
C13 C8 1_555 1_555
C12 C13 1_555 1_555

#END
