
#######################################################################
#
#                 Cambridge Crystallographic Data Centre
#                                CCDC 
#
#######################################################################
#
# If this CIF has been generated from an entry in the Cambridge 
# Structural Database, then it will include bibliographic, chemical, 
# crystal, experimental, refinement or atomic coordinate data resulting 
# from the CCDC's data processing and validation procedures.
#
#######################################################################

data_DUFJOD10
_chemical_formula_moiety         'C15 H18 N1 1+,Cl1 1-,H2 O1'
_chemical_name_systematic        
'Benzyldimethyl(phenyl)ammonium chloride monohydrate'
_symmetry_cell_setting           monoclinic
_symmetry_space_group_name_H-M   'C 2/c'
_symmetry_Int_Tables_number      15
_space_group_name_Hall           '-C 2yn'
loop_
_symmetry_equiv_pos_site_id
_symmetry_equiv_pos_as_xyz
1 x,y,z
2 1/2+x,1/2+y,z
3 -x,y,1/2-z
4 1/2-x,1/2+y,1/2-z
5 -x,-y,-z
6 1/2-x,1/2-y,-z
7 x,-y,1/2+z
8 1/2+x,1/2-y,1/2+z
_cell_length_a                   14.115(8)
_cell_length_b                   12.704(8)
_cell_length_c                   16.866(8)
_cell_angle_alpha                90
_cell_angle_beta                 108.83(3)
_cell_angle_gamma                90
_cell_volume                     2862.5
_exptl_crystal_colour            'pale blue'
_cell_formula_units_Z            8
loop_
_atom_site_label
_atom_site_type_symbol
_atom_site_fract_x
_atom_site_fract_y
_atom_site_fract_z
N1 N 0.1969(1) 0.3987(2) 0.7131(1)
C1 C 0.2960(2) 0.4221(2) 0.7766(1)
C2 C 0.3490(2) 0.5071(2) 0.7634(2)
C3 C 0.4397(2) 0.5320(2) 0.8228(2)
C4 C 0.4766(2) 0.4709(2) 0.8935(2)
C5 C 0.4235(2) 0.3866(3) 0.9054(2)
C6 C 0.3326(2) 0.3602(2) 0.8477(2)
C7 C 0.2616(2) 0.2772(2) 0.6213(1)
C8 C 0.3649(2) 0.2743(2) 0.6456(2)
C9 C 0.4136(2) 0.1850(2) 0.6319(2)
C10 C 0.3593(2) 0.0982(2) 0.5932(2)
C11 C 0.2574(2) 0.0996(2) 0.5696(2)
C12 C 0.2082(2) 0.1888(2) 0.5829(1)
C13 C 0.2062(2) 0.3758(2) 0.6264(1)
C14 C 0.1299(2) 0.4930(3) 0.7023(2)
C15 C 0.1453(3) 0.3073(3) 0.7379(2)
H1 H 0.326(2) 0.553(3) 0.717(2)
H2 H 0.480(3) 0.598(3) 0.822(2)
H3 H 0.548(3) 0.490(3) 0.939(2)
H4 H 0.456(3) 0.343(3) 0.960(3)
H5 H 0.298(2) 0.305(2) 0.855(2)
H6 H 0.401(2) 0.332(2) 0.668(2)
H7 H 0.489(3) 0.184(2) 0.648(2)
H8 H 0.391(2) 0.041(3) 0.582(2)
H9 H 0.219(2) 0.042(2) 0.540(2)
H10 H 0.131(3) 0.192(2) 0.563(2)
H11 H 0.134(2) 0.367(2) 0.590(2)
H12 H 0.240(2) 0.437(2) 0.611(2)
H13 H 0.169(3) 0.552(3) 0.687(2)
H14 H 0.068(2) 0.470(2) 0.663(2)
H15 H 0.119(3) 0.520(3) 0.749(2)
H16 H 0.135(2) 0.318(2) 0.786(2)
H17 H 0.084(3) 0.301(3) 0.691(2)
H18 H 0.187(3) 0.239(3) 0.745(2)
Cl1 Cl -0.0762(1) 0.3155(1) 0.5635(1)
O1 O 0.2785(3) 0.3707(2) 0.0806(2)
H19 H 0.322(3) 0.323(3) 0.074(2)
H20 H 0.219(4) 0.351(4) 0.047(3)
loop_
_geom_bond_atom_site_label_1
_geom_bond_atom_site_label_2
_geom_bond_site_symmetry_1
_geom_bond_site_symmetry_2
N1 C1 1_555 1_555
C1 C2 1_555 1_555
C2 C3 1_555 1_555
C3 C4 1_555 1_555
C4 C5 1_555 1_555
C5 C6 1_555 1_555
C6 C1 1_555 1_555
C7 C8 1_555 1_555
C8 C9 1_555 1_555
C9 C10 1_555 1_555
C10 C11 1_555 1_555
C11 C12 1_555 1_555
C12 C7 1_555 1_555
C13 N1 1_555 1_555
C14 N1 1_555 1_555
C15 N1 1_555 1_555
H1 C2 1_555 1_555
H2 C3 1_555 1_555
H3 C4 1_555 1_555
H4 C5 1_555 1_555
H5 C6 1_555 1_555
H6 C8 1_555 1_555
H7 C9 1_555 1_555
H8 C10 1_555 1_555
H9 C11 1_555 1_555
H10 C12 1_555 1_555
H11 C13 1_555 1_555
H12 C13 1_555 1_555
H13 C14 1_555 1_555
H14 C14 1_555 1_555
H15 C14 1_555 1_555
H16 C15 1_555 1_555
H17 C15 1_555 1_555
H18 C15 1_555 1_555
O1 H19 1_555 1_555
H20 O1 1_555 1_555
C7 C13 1_555 1_555

#END
