
#######################################################################
#
#                 Cambridge Crystallographic Data Centre
#                                CCDC 
#
#######################################################################
#
# If this CIF has been generated from an entry in the Cambridge 
# Structural Database, then it will include bibliographic, chemical, 
# crystal, experimental, refinement or atomic coordinate data resulting 
# from the CCDC's data processing and validation procedures.
#
#######################################################################

data_DUFMOG
_chemical_name_common            
'S-inverted-meso-tetraphenyltrithiasapphyrin chloroform solvate'
_chemical_formula_moiety         'C48 H30 N2 S3,C1 H1 Cl3'
_chemical_name_systematic        
'5,10,15,20-Tetraphenyl-25,27,29-trithiasapphyrin chloroform solvate'
_symmetry_cell_setting           monoclinic
_symmetry_space_group_name_H-M   'P 21/n'
_symmetry_Int_Tables_number      14
_space_group_name_Hall           '-P 2yn'
loop_
_symmetry_equiv_pos_site_id
_symmetry_equiv_pos_as_xyz
1 x,y,z
2 1/2+x,1/2-y,1/2+z
3 -x,-y,-z
4 1/2-x,1/2+y,1/2-z
_cell_length_a                   12.66(1)
_cell_length_b                   11.36(2)
_cell_length_c                   29.16(2)
_cell_angle_alpha                90
_cell_angle_beta                 95.51(10)
_cell_angle_gamma                90
_cell_volume                     4174.34
_exptl_crystal_colour            green
_exptl_crystal_description       prismatic
_cell_formula_units_Z            4
_exptl_crystal_recrystallization_method dichloromethane/methanol
loop_
_atom_site_label
_atom_site_type_symbol
_atom_site_fract_x
_atom_site_fract_y
_atom_site_fract_z
Cl1 Cl -0.0670(2) 0.4813(2) 0.2639(2)
Cl2 Cl 0.1563(2) 0.4401(3) 0.2626(1)
Cl3 Cl 0.0156(3) 0.3170(3) 0.2024(1)
C49 C 0.0411(7) 0.4444(7) 0.2340(4)
H31 H 0.0410 0.5076 0.2114
S1 S 0.40295(8) 0.25866(8) 0.25190(3)
S2 S 0.67855(8) 0.61972(8) 0.31064(3)
S3 S 0.65533(7) 0.63020(8) 0.20451(3)
N1 N 0.5635(2) 0.4939(3) 0.36492(10)
N2 N 0.5338(2) 0.4969(2) 0.14513(9)
C1 C 0.4203(2) 0.3627(3) 0.2090(1)
C2 C 0.4391(3) 0.4746(3) 0.2298(1)
C3 C 0.4454(3) 0.4739(3) 0.2767(1)
C4 C 0.4320(3) 0.3600(3) 0.2964(1)
C5 C 0.4468(3) 0.3289(3) 0.3429(1)
C6 C 0.5025(3) 0.4030(3) 0.3764(1)
C7 C 0.5048(3) 0.3931(3) 0.4262(1)
C8 C 0.5676(3) 0.4814(3) 0.4440(1)
C9 C 0.6053(3) 0.5431(3) 0.4055(1)
C10 C 0.6793(3) 0.6349(3) 0.4056(1)
C11 C 0.7158(3) 0.6800(3) 0.3648(1)
C12 C 0.7820(3) 0.7774(3) 0.3601(1)
C13 C 0.8003(3) 0.8031(3) 0.3152(1)
C14 C 0.7484(3) 0.7249(3) 0.2834(1)
C15 C 0.7421(3) 0.7270(3) 0.2346(1)
C16 C 0.7946(3) 0.7974(3) 0.2049(1)
C17 C 0.7655(3) 0.7711(3) 0.1589(1)
C18 C 0.6900(3) 0.6805(3) 0.1517(1)
C19 C 0.6476(3) 0.6324(3) 0.1094(1)
C20 C 0.5720(3) 0.5417(3) 0.1064(1)
C21 C 0.5270(3) 0.4797(3) 0.0659(1)
C22 C 0.4629(3) 0.3945(3) 0.0809(1)
C23 C 0.4693(3) 0.4065(3) 0.1308(1)
C24 C 0.4204(3) 0.3326(3) 0.1620(1)
C25 C 0.4125(3) 0.2107(3) 0.3577(1)
C26 C 0.4832(4) 0.1364(4) 0.3822(2)
C27 C 0.4505(6) 0.0247(4) 0.3951(2)
C28 C 0.3454(7) -0.0092(5) 0.3847(2)
C29 C 0.2752(5) 0.0659(5) 0.3611(2)
C30 C 0.3078(4) 0.1748(5) 0.3474(1)
C31 C 0.7241(3) 0.6873(4) 0.4503(1)
C32 C 0.6604(4) 0.7461(4) 0.4787(2)
C33 C 0.7028(5) 0.7969(5) 0.5202(2)
C34 C 0.8095(5) 0.7897(6) 0.5328(2)
C35 C 0.8749(5) 0.7302(6) 0.5055(2)
C36 C 0.8323(4) 0.6792(5) 0.4642(1)
C37 C 0.6890(3) 0.6755(4) 0.0662(1)
C38 C 0.6716(4) 0.7924(4) 0.0513(1)
C39 C 0.7123(4) 0.8308(4) 0.0110(2)
C40 C 0.7700(4) 0.7571(5) -0.0139(1)
C41 C 0.7882(4) 0.6421(5) 0.0006(1)
C42 C 0.7475(4) 0.6020(4) 0.0406(1)
C43 C 0.3734(3) 0.2192(3) 0.1448(1)
C44 C 0.2670(3) 0.1930(4) 0.1503(1)
C45 C 0.2218(4) 0.0899(4) 0.1319(1)
C46 C 0.2811(4) 0.0111(4) 0.1087(2)
C47 C 0.3858(4) 0.0360(4) 0.1036(2)
C48 C 0.4329(3) 0.1396(4) 0.1216(2)
H1 H 0.4467 0.5444 0.2124
H2 H 0.4577 0.5430 0.2949
H3 H 0.4693 0.3359 0.4429
H4 H 0.5837 0.4994 0.4758
H5 H 0.8119 0.8221 0.3856
H6 H 0.8432 0.8667 0.3068
H7 H 0.8446 0.8566 0.2149
H8 H 0.7942 0.8111 0.1343
H9 H 0.5396 0.4952 0.0349
H10 H 0.4222 0.3386 0.0626
H11 H 0.5542 0.1611 0.3903
H12 H 0.4997 -0.0277 0.4110
H13 H 0.3224 -0.0844 0.3939
H14 H 0.2034 0.0427 0.3542
H15 H 0.2585 0.2257 0.3307
H16 H 0.5864 0.7521 0.4699
H17 H 0.6577 0.8362 0.5394
H18 H 0.8387 0.8260 0.5605
H19 H 0.9486 0.7238 0.5148
H20 H 0.8775 0.6387 0.4454
H21 H 0.6325 0.8448 0.0686
H22 H 0.6995 0.9094 0.0007
H23 H 0.7977 0.7846 -0.0411
H24 H 0.8284 0.5906 -0.0166
H25 H 0.7601 0.5230 0.0503
H26 H 0.2259 0.2457 0.1666
H27 H 0.1494 0.0732 0.1351
H28 H 0.2498 -0.0596 0.0965
H29 H 0.4264 -0.0178 0.0875
H30 H 0.5053 0.1556 0.1181
Cl4? Cl 0.037(1) 0.325(1) 0.3111(6)
Cl5? Cl -0.059(1) 0.466(1) 0.2105(6)
Cl6? Cl 0.051(2) 0.432(2) 0.2870(8)
loop_
_geom_bond_atom_site_label_1
_geom_bond_atom_site_label_2
_geom_bond_site_symmetry_1
_geom_bond_site_symmetry_2
Cl1 C49 1_555 1_555
Cl2 C49 1_555 1_555
Cl3 C49 1_555 1_555
S1 C1 1_555 1_555
S2 C11 1_555 1_555
S3 C15 1_555 1_555
N1 C6 1_555 1_555
N2 C20 1_555 1_555
C1 C2 1_555 1_555
C2 C3 1_555 1_555
C3 C4 1_555 1_555
C4 S1 1_555 1_555
C5 C4 1_555 1_555
C6 C5 1_555 1_555
C7 C6 1_555 1_555
C8 C7 1_555 1_555
C9 N1 1_555 1_555
C10 C9 1_555 1_555
C11 C10 1_555 1_555
C12 C11 1_555 1_555
C13 C12 1_555 1_555
C14 S2 1_555 1_555
C15 C14 1_555 1_555
C16 C15 1_555 1_555
C17 C16 1_555 1_555
C18 S3 1_555 1_555
C19 C18 1_555 1_555
C20 C19 1_555 1_555
C21 C20 1_555 1_555
C22 C21 1_555 1_555
C23 N2 1_555 1_555
C24 C1 1_555 1_555
C25 C5 1_555 1_555
C26 C25 1_555 1_555
C27 C26 1_555 1_555
C28 C27 1_555 1_555
C29 C28 1_555 1_555
C30 C25 1_555 1_555
C31 C10 1_555 1_555
C32 C31 1_555 1_555
C33 C32 1_555 1_555
C34 C33 1_555 1_555
C35 C34 1_555 1_555
C36 C31 1_555 1_555
C37 C19 1_555 1_555
C38 C37 1_555 1_555
C39 C38 1_555 1_555
C40 C39 1_555 1_555
C41 C40 1_555 1_555
C42 C37 1_555 1_555
C43 C24 1_555 1_555
C44 C43 1_555 1_555
C45 C44 1_555 1_555
C46 C45 1_555 1_555
C47 C46 1_555 1_555
C48 C43 1_555 1_555
C49 H31 1_555 1_555
H1 C2 1_555 1_555
H2 C3 1_555 1_555
H3 C7 1_555 1_555
H4 C8 1_555 1_555
H5 C12 1_555 1_555
H6 C13 1_555 1_555
H7 C16 1_555 1_555
H8 C17 1_555 1_555
H9 C21 1_555 1_555
H10 C22 1_555 1_555
H11 C26 1_555 1_555
H12 C27 1_555 1_555
H13 C28 1_555 1_555
H14 C29 1_555 1_555
H15 C30 1_555 1_555
H16 C32 1_555 1_555
H17 C33 1_555 1_555
H18 C34 1_555 1_555
H19 C35 1_555 1_555
H20 C36 1_555 1_555
H21 C38 1_555 1_555
H22 C39 1_555 1_555
H23 C40 1_555 1_555
H24 C41 1_555 1_555
H25 C42 1_555 1_555
H26 C44 1_555 1_555
H27 C45 1_555 1_555
H28 C46 1_555 1_555
H29 C47 1_555 1_555
H30 C48 1_555 1_555
C8 C9 1_555 1_555
C13 C14 1_555 1_555
C17 C18 1_555 1_555
C22 C23 1_555 1_555
C23 C24 1_555 1_555
C29 C30 1_555 1_555
C35 C36 1_555 1_555
C41 C42 1_555 1_555
C47 C48 1_555 1_555

#END
