
#######################################################################
#
#                 Cambridge Crystallographic Data Centre
#                                CCDC 
#
#######################################################################
#
# If this CIF has been generated from an entry in the Cambridge 
# Structural Database, then it will include bibliographic, chemical, 
# crystal, experimental, refinement or atomic coordinate data resulting 
# from the CCDC's data processing and validation procedures.
#
#######################################################################

data_DUFQEB
_chemical_formula_moiety         'C22 H20 O3'
_chemical_name_systematic        'Methyl 5-(benzhydryl)-2-methoxybenzoate'
_symmetry_cell_setting           monoclinic
_symmetry_space_group_name_H-M   'P 21/c'
_symmetry_Int_Tables_number      14
_space_group_name_Hall           '-P 2ybc'
loop_
_symmetry_equiv_pos_site_id
_symmetry_equiv_pos_as_xyz
1 x,y,z
2 -x,1/2+y,1/2-z
3 -x,-y,-z
4 x,1/2-y,1/2+z
_cell_length_a                   6.2540(10)
_cell_length_b                   41.560(3)
_cell_length_c                   8.6331(13)
_cell_angle_alpha                90
_cell_angle_beta                 127.590(2)
_cell_angle_gamma                90
_cell_volume                     1778.04
_exptl_crystal_colour            colorless
_exptl_crystal_description       prism
_cell_formula_units_Z            4
loop_
_atom_site_label
_atom_site_type_symbol
_atom_site_fract_x
_atom_site_fract_y
_atom_site_fract_z
O1 O 1.2941(6) 0.55049(7) 1.1110(5)
O2 O 1.0524(7) 0.53082(9) 0.8133(6)
O3 O 0.5157(6) 0.54048(7) 0.6279(4)
C1 C 1.0701(9) 0.54869(10) 0.9284(7)
C2 C 0.8627(8) 0.57093(8) 0.8956(5)
C3 C 0.5874(8) 0.56630(9) 0.7462(5)
C4 C 0.4060(9) 0.58753(10) 0.7280(6)
H1 H 0.2224 0.5844 0.6304
C5 C 0.4912(9) 0.61336(10) 0.8517(6)
H2 H 0.3635 0.6274 0.8363
C6 C 0.7634(8) 0.61913(9) 0.9996(5)
C7 C 0.9420(8) 0.59756(9) 1.0175(5)
H3 H 1.1253 0.6008 1.1157
C8 C 1.5117(11) 0.52994(13) 1.1644(9)
H4 H 1.4507 0.5080 1.1363
H5 H 1.6558 0.5322 1.3016
H6 H 1.5753 0.5358 1.0913
C9 C 0.2343(10) 0.53515(12) 0.4781(7)
H7 H 0.1451 0.5323 0.5364
H8 H 0.2105 0.5162 0.4053
H9 H 0.1583 0.5534 0.3919
C10 C 0.8671(8) 0.64795(9) 1.1375(6)
H10 H 1.0644 0.6465 1.2201
C11 C 0.7957(9) 0.67909(10) 1.0282(6)
C12 C 0.9857(11) 0.69577(11) 1.0269(8)
H11 H 1.1604 0.6878 1.0957
C13 C 0.9178(16) 0.72427(15) 0.9238(10)
H12 H 1.0484 0.7354 0.9257
C14 C 0.6651(18) 0.73622(14) 0.8207(9)
H13 H 0.6214 0.7551 0.7493
C15 C 0.4735(14) 0.72057(12) 0.8212(8)
H14 H 0.2998 0.7289 0.7526
C16 C 0.5419(12) 0.69210(11) 0.9256(8)
H15 H 0.4114 0.6815 0.9260
C17 C 0.7966(8) 0.64682(9) 1.2754(5)
C18 C 0.8325(12) 0.67381(11) 1.3834(7)
H16 H 0.8936 0.6928 1.3653
C19 C 0.7803(14) 0.67322(15) 1.5158(8)
H17 H 0.8019 0.6918 1.5843
C20 C 0.6982(12) 0.64603(18) 1.5469(7)
H18 H 0.6668 0.6456 1.6392
C21 C 0.6604(11) 0.61900(14) 1.4451(7)
H19 H 0.6026 0.6001 1.4669
C22 C 0.7082(10) 0.61968(11) 1.3088(6)
H20 H 0.6794 0.6011 1.2380
loop_
_geom_bond_atom_site_label_1
_geom_bond_atom_site_label_2
_geom_bond_site_symmetry_1
_geom_bond_site_symmetry_2
O1 C1 1_555 1_555
O2 C1 1_555 1_555
O3 C3 1_555 1_555
C1 C2 1_555 1_555
C2 C3 1_555 1_555
C3 C4 1_555 1_555
C4 H1 1_555 1_555
C5 C4 1_555 1_555
H2 C5 1_555 1_555
C6 C5 1_555 1_555
C7 C2 1_555 1_555
H3 C7 1_555 1_555
C8 O1 1_555 1_555
H4 C8 1_555 1_555
H5 C8 1_555 1_555
H6 C8 1_555 1_555
C9 O3 1_555 1_555
H7 C9 1_555 1_555
H8 C9 1_555 1_555
H9 C9 1_555 1_555
C10 C6 1_555 1_555
H10 C10 1_555 1_555
C11 C10 1_555 1_555
C12 C11 1_555 1_555
H11 C12 1_555 1_555
C13 C12 1_555 1_555
H12 C13 1_555 1_555
C14 C13 1_555 1_555
H13 C14 1_555 1_555
C15 C14 1_555 1_555
H14 C15 1_555 1_555
C16 C11 1_555 1_555
H15 C16 1_555 1_555
C17 C10 1_555 1_555
C18 C17 1_555 1_555
H16 C18 1_555 1_555
C19 C18 1_555 1_555
H17 C19 1_555 1_555
C20 C19 1_555 1_555
H18 C20 1_555 1_555
C21 C20 1_555 1_555
H19 C21 1_555 1_555
C22 C17 1_555 1_555
H20 C22 1_555 1_555
C6 C7 1_555 1_555
C15 C16 1_555 1_555
C21 C22 1_555 1_555

#END
