
#######################################################################
#
#                 Cambridge Crystallographic Data Centre
#                                CCDC 
#
#######################################################################
#
# If this CIF has been generated from an entry in the Cambridge 
# Structural Database, then it will include bibliographic, chemical, 
# crystal, experimental, refinement or atomic coordinate data resulting 
# from the CCDC's data processing and validation procedures.
#
#######################################################################

data_DUFSEE
_chemical_formula_moiety         'C21 H32 O6,H2 O1'
_chemical_name_systematic        
'1,4,9,14-tetrahydroxy-12-isopropyl-4-(methoxymethyl)-8,14-dimethyltricyclo[9.2.1.0^3,7^]tetradeca-2,11-dien-13-one hydrate'
_symmetry_cell_setting           orthorhombic
_symmetry_space_group_name_H-M   'P 21 21 21'
_symmetry_Int_Tables_number      19
_space_group_name_Hall           'P 2ac 2ab'
loop_
_symmetry_equiv_pos_site_id
_symmetry_equiv_pos_as_xyz
1 x,y,z
2 1/2+x,1/2-y,-z
3 -x,1/2+y,1/2-z
4 1/2-x,-y,1/2+z
_cell_length_a                   9.0209(7)
_cell_length_b                   14.4733(13)
_cell_length_c                   15.7043(14)
_cell_angle_alpha                90
_cell_angle_beta                 90
_cell_angle_gamma                90
_cell_volume                     2050.39
_exptl_crystal_colour            colorless
_exptl_crystal_description       prism
_cell_formula_units_Z            4
loop_
_atom_site_label
_atom_site_type_symbol
_atom_site_fract_x
_atom_site_fract_y
_atom_site_fract_z
O1 O 0.5603(7) 0.3284(4) 0.0906(4)
O2 O 0.7950(6) 0.4173(4) 0.0058(4)
H1 H 0.7202 0.4037 -0.0210
O3 O 0.8920(7) 0.6814(4) 0.3841(4)
H2 H 0.8145 0.7093 0.3749
O4 O 1.3708(6) 0.4424(4) 0.2561(4)
H3 H 1.3971 0.4554 0.3046
O5 O 1.2569(6) 0.3593(4) 0.1193(4)
H4 H 1.3469 0.3670 0.1214
O6 O 1.2850(6) 0.5402(4) 0.0434(5)
C1 C 1.1537(13) 0.7397(7) 0.0889(7)
H5 H 1.1914 0.7108 0.0383
H6 H 1.1679 0.8053 0.0852
H7 H 1.0498 0.7264 0.0943
C2 C 1.2366(11) 0.7020(6) 0.1670(6)
H8 H 1.2005 0.7348 0.2175
C3 C 1.2190(8) 0.5998(7) 0.1823(7)
C4 C 1.2423(9) 0.5283(6) 0.1152(8)
C5 C 1.1849(10) 0.4370(7) 0.1533(6)
C6 C 1.0229(12) 0.4229(6) 0.1312(5)
H9 H 1.0040 0.3639 0.1105
C7 C 0.8993(12) 0.4755(7) 0.1345(5)
C8 C 0.7550(9) 0.4401(6) 0.0921(5)
C9 C 0.6934(11) 0.3537(6) 0.1337(6)
H10 H 0.7651 0.3039 0.1300
H11 H 0.6729 0.3654 0.1933
C10 C 0.5423(11) 0.2333(7) 0.0803(7)
H12 H 0.6240 0.2090 0.0481
H13 H 0.4514 0.2213 0.0506
H14 H 0.5394 0.2041 0.1352
C11 C 0.8726(10) 0.5749(6) 0.1605(6)
H15 H 0.9625 0.6102 0.1477
C12 C 0.7521(10) 0.6048(6) 0.0981(5)
H16 H 0.6999 0.6589 0.1187
H17 H 0.7937 0.6183 0.0425
C13 C 0.6508(10) 0.5219(7) 0.0944(6)
H18 H 0.5893 0.5237 0.0438
H19 H 0.5874 0.5194 0.1442
C14 C 0.8310(9) 0.5926(6) 0.2568(6)
H20 H 0.7451 0.6340 0.2545
C15 C 0.9506(11) 0.6480(6) 0.3063(6)
H21 H 0.9776 0.7017 0.2716
C16 C 1.0931(10) 0.5978(6) 0.3297(6)
H22 H 1.0696 0.5489 0.3697
H23 H 1.1586 0.6409 0.3583
C17 C 1.1762(9) 0.5555(7) 0.2535(7)
C18 C 1.2111(8) 0.4531(6) 0.2490(6)
C19 C 1.4038(11) 0.7230(7) 0.1569(8)
H24 H 1.4564 0.7010 0.2060
H25 H 1.4180 0.7885 0.1514
H26 H 1.4409 0.6926 0.1069
C20 C 1.1407(12) 0.3858(7) 0.3083(6)
H27 H 1.1801 0.3253 0.2980
H28 H 1.0355 0.3853 0.2991
H29 H 1.1610 0.4036 0.3660
C21 C 0.7770(11) 0.5092(7) 0.3049(6)
H30 H 0.8408 0.4577 0.2933
H31 H 0.6778 0.4946 0.2873
H32 H 0.7779 0.5222 0.3649
O7 O 0.0534(8) 0.5018(6) 0.9200(4)
H33 H -0.0185 0.4784 0.9434
H34 H 0.1194 0.5126 0.9544
loop_
_geom_bond_atom_site_label_1
_geom_bond_atom_site_label_2
_geom_bond_site_symmetry_1
_geom_bond_site_symmetry_2
O1 C9 1_555 1_555
O2 H1 1_555 1_555
O3 H2 1_555 1_555
O4 H3 1_555 1_555
O5 H4 1_555 1_555
O6 C4 1_555 1_555
C1 H5 1_555 1_555
H6 C1 1_555 1_555
H7 C1 1_555 1_555
C2 C1 1_555 1_555
H8 C2 1_555 1_555
C3 C2 1_555 1_555
C4 C3 1_555 1_555
C5 O5 1_555 1_555
C6 C5 1_555 1_555
H9 C6 1_555 1_555
C7 C6 1_555 1_555
C8 O2 1_555 1_555
C9 C8 1_555 1_555
H10 C9 1_555 1_555
H11 C9 1_555 1_555
C10 O1 1_555 1_555
H12 C10 1_555 1_555
H13 C10 1_555 1_555
H14 C10 1_555 1_555
C11 C7 1_555 1_555
H15 C11 1_555 1_555
C12 C11 1_555 1_555
H16 C12 1_555 1_555
H17 C12 1_555 1_555
C13 C8 1_555 1_555
H18 C13 1_555 1_555
H19 C13 1_555 1_555
C14 C11 1_555 1_555
H20 C14 1_555 1_555
C15 O3 1_555 1_555
H21 C15 1_555 1_555
C16 C15 1_555 1_555
H22 C16 1_555 1_555
H23 C16 1_555 1_555
C17 C3 1_555 1_555
C18 O4 1_555 1_555
C19 C2 1_555 1_555
H24 C19 1_555 1_555
H25 C19 1_555 1_555
H26 C19 1_555 1_555
C20 C18 1_555 1_555
H27 C20 1_555 1_555
H28 C20 1_555 1_555
H29 C20 1_555 1_555
C21 C14 1_555 1_555
H30 C21 1_555 1_555
H31 C21 1_555 1_555
H32 C21 1_555 1_555
O7 H33 1_555 1_555
H34 O7 1_555 1_555
C4 C5 1_555 1_555
C5 C18 1_555 1_555
C7 C8 1_555 1_555
C12 C13 1_555 1_555
C14 C15 1_555 1_555
C16 C17 1_555 1_555
C17 C18 1_555 1_555

#END
