
#######################################################################
#
#                 Cambridge Crystallographic Data Centre
#                                CCDC 
#
#######################################################################
#
# If this CIF has been generated from an entry in the Cambridge 
# Structural Database, then it will include bibliographic, chemical, 
# crystal, experimental, refinement or atomic coordinate data resulting 
# from the CCDC's data processing and validation procedures.
#
#######################################################################

data_DUGMUN01
_chemical_formula_moiety         'C8 H6 N2 O1'
_chemical_name_systematic        (Z)-2-(Hydroxyimino)-2-phenylacetonitrile
_symmetry_cell_setting           monoclinic
_symmetry_space_group_name_H-M   'P 21/c'
_symmetry_Int_Tables_number      14
_space_group_name_Hall           '-P 2ybc'
loop_
_symmetry_equiv_pos_site_id
_symmetry_equiv_pos_as_xyz
1 x,y,z
2 -x,1/2+y,1/2-z
3 -x,-y,-z
4 x,1/2-y,1/2+z
_cell_length_a                   8.722(2)
_cell_length_b                   11.037(5)
_cell_length_c                   8.301(4)
_cell_angle_alpha                90
_cell_angle_beta                 115.95(2)
_cell_angle_gamma                90
_cell_volume                     718.526
_exptl_crystal_colour            'pale yellow'
_exptl_crystal_description       block
_cell_formula_units_Z            4
loop_
_atom_site_label
_atom_site_type_symbol
_atom_site_fract_x
_atom_site_fract_y
_atom_site_fract_z
O1 O 0.02566(13) 0.01606(10) -0.18454(14)
N1 N 0.14545(17) 0.28644(13) -0.2378(2)
N2 N 0.18669(16) 0.00649(11) -0.04345(17)
C1 C 0.20331(19) 0.20506(14) -0.1457(2)
C2 C 0.27525(18) 0.10301(13) -0.02565(19)
C3 C 0.44923(18) 0.11323(13) 0.12027(19)
C4 C 0.5095(2) 0.02651(14) 0.2562(2)
H1 H 0.4382 -0.0387 0.2556
C5 C 0.6731(2) 0.03580(17) 0.3917(2)
H2 H 0.7144 -0.0237 0.4835
C6 C 0.7776(2) 0.13151(16) 0.3947(2)
H3 H 0.8897 0.1379 0.4889
C7 C 0.7182(2) 0.21724(15) 0.2606(2)
H4 H 0.7897 0.2827 0.2624
C8 C 0.55455(19) 0.20842(14) 0.1230(2)
H5 H 0.5145 0.2675 0.0305
H6 H -0.0200 -0.0628 -0.1867
loop_
_geom_bond_atom_site_label_1
_geom_bond_atom_site_label_2
_geom_bond_site_symmetry_1
_geom_bond_site_symmetry_2
O1 N2 1_555 1_555
N1 C1 1_555 1_555
N2 C2 1_555 1_555
C1 C2 1_555 1_555
C2 C3 1_555 1_555
C3 C4 1_555 1_555
C4 H1 1_555 1_555
C5 C4 1_555 1_555
H2 C5 1_555 1_555
C6 C5 1_555 1_555
H3 C6 1_555 1_555
C7 C6 1_555 1_555
H4 C7 1_555 1_555
C8 C3 1_555 1_555
H5 C8 1_555 1_555
H6 O1 1_555 1_555
C7 C8 1_555 1_555

#END
