
#######################################################################
#
#                 Cambridge Crystallographic Data Centre
#                                CCDC 
#
#######################################################################
#
# If this CIF has been generated from an entry in the Cambridge 
# Structural Database, then it will include bibliographic, chemical, 
# crystal, experimental, refinement or atomic coordinate data resulting 
# from the CCDC's data processing and validation procedures.
#
#######################################################################

data_DUGPAY
_chemical_formula_moiety         'C20 H19 F1 N2 O3'
_chemical_name_systematic        
4-(4-fluorophenyl)-6-methyl-3-(2,3,4-trimethoxyphenyl)pyridazine
_symmetry_cell_setting           monoclinic
_symmetry_space_group_name_H-M   'P 21/c'
_symmetry_Int_Tables_number      14
_space_group_name_Hall           '-P 2ybc'
loop_
_symmetry_equiv_pos_site_id
_symmetry_equiv_pos_as_xyz
1 x,y,z
2 -x,1/2+y,1/2-z
3 -x,-y,-z
4 x,1/2-y,1/2+z
_cell_length_a                   8.5581(9)
_cell_length_b                   17.768(2)
_cell_length_c                   12.2073(13)
_cell_angle_alpha                90
_cell_angle_beta                 105.539(3)
_cell_angle_gamma                90
_cell_volume                     1788.4
_exptl_crystal_colour            colorless
_exptl_crystal_description       Columnar
_cell_formula_units_Z            4
loop_
_atom_site_label
_atom_site_type_symbol
_atom_site_fract_x
_atom_site_fract_y
_atom_site_fract_z
F1 F 0.33118(14) 0.52365(6) -0.01641(10)
O1 O -0.07060(14) 0.88882(7) -0.19378(10)
O2 O -0.07613(14) 0.82417(7) 0.00072(10)
O3 O 0.21327(14) 0.81752(7) 0.18381(10)
N1 N 0.58078(17) 0.93100(8) 0.20359(12)
N2 N 0.72356(18) 0.92952(8) 0.28474(13)
C1 C 0.3933(2) 0.58967(10) 0.03388(16)
C2 C 0.4443(2) 0.59251(10) 0.15047(16)
H1 H 0.4388 0.5495 0.1954
C3 C 0.5041(2) 0.66044(9) 0.20021(16)
H2 H 0.5411 0.6637 0.2807
C4 C 0.5114(2) 0.72398(9) 0.13494(15)
C5 C 0.5794(2) 0.79551(9) 0.19108(14)
C6 C 0.5096(2) 0.86725(9) 0.15818(14)
C7 C 0.3556(2) 0.87751(9) 0.06714(14)
C8 C 0.3547(2) 0.91626(9) -0.03192(15)
H3 H 0.4521 0.9390 -0.0388
C9 C 0.2149(2) 0.92253(9) -0.12137(15)
H4 H 0.2166 0.9491 -0.1885
C10 C 0.0736(2) 0.88941(9) -0.11087(14)
C11 C -0.0822(2) 0.93632(12) -0.29012(17)
H5 H -0.0636 0.9887 -0.2649
H6 H -0.1905 0.9315 -0.3428
H7 H -0.0004 0.9213 -0.3287
C12 C 0.4009(2) 0.64980(10) -0.03493(16)
H8 H 0.3670 0.6452 -0.1154
C13 C 0.4598(2) 0.71767(10) 0.01664(15)
H9 H 0.4651 0.7603 -0.0292
C14 C 0.7911(2) 0.86366(10) 0.32198(15)
C15 C 0.7216(2) 0.79512(10) 0.27696(14)
H10 H 0.7721 0.7489 0.3054
C16 C 0.9489(2) 0.86632(12) 0.41240(17)
H11 H 1.0370 0.8507 0.3801
H12 H 0.9441 0.8322 0.4745
H13 H 0.9689 0.9178 0.4418
C17 C 0.0688(2) 0.85304(9) -0.00976(15)
C18 C -0.1832(2) 0.88193(12) 0.02067(18)
H14 H -0.1346 0.9061 0.0941
H15 H -0.2874 0.8594 0.0216
H16 H -0.2006 0.9196 -0.0400
C19 C 0.2098(2) 0.84712(9) 0.07900(14)
C20 C 0.1341(2) 0.74675(10) 0.18935(16)
H17 H 0.0167 0.7547 0.1728
H18 H 0.1745 0.7253 0.2657
H19 H 0.1570 0.7120 0.1333
loop_
_geom_bond_atom_site_label_1
_geom_bond_atom_site_label_2
_geom_bond_site_symmetry_1
_geom_bond_site_symmetry_2
F1 C1 1_555 1_555
O1 C10 1_555 1_555
O2 C17 1_555 1_555
O3 C19 1_555 1_555
N1 N2 1_555 1_555
N2 C14 1_555 1_555
C1 C2 1_555 1_555
C2 H1 1_555 1_555
C3 C2 1_555 1_555
H2 C3 1_555 1_555
C4 C3 1_555 1_555
C5 C4 1_555 1_555
C6 N1 1_555 1_555
C7 C6 1_555 1_555
C8 C7 1_555 1_555
H3 C8 1_555 1_555
C9 C8 1_555 1_555
H4 C9 1_555 1_555
C10 C9 1_555 1_555
C11 O1 1_555 1_555
H5 C11 1_555 1_555
H6 C11 1_555 1_555
H7 C11 1_555 1_555
C12 C1 1_555 1_555
H8 C12 1_555 1_555
C13 C4 1_555 1_555
H9 C13 1_555 1_555
C14 C15 1_555 1_555
C15 C5 1_555 1_555
H10 C15 1_555 1_555
C16 C14 1_555 1_555
H11 C16 1_555 1_555
H12 C16 1_555 1_555
H13 C16 1_555 1_555
C17 C10 1_555 1_555
C18 O2 1_555 1_555
H14 C18 1_555 1_555
H15 C18 1_555 1_555
H16 C18 1_555 1_555
C19 C7 1_555 1_555
C20 O3 1_555 1_555
H17 C20 1_555 1_555
H18 C20 1_555 1_555
H19 C20 1_555 1_555
C5 C6 1_555 1_555
C12 C13 1_555 1_555
C17 C19 1_555 1_555

#END
