
#######################################################################
#
#                 Cambridge Crystallographic Data Centre
#                                CCDC 
#
#######################################################################
#
# If this CIF has been generated from an entry in the Cambridge 
# Structural Database, then it will include bibliographic, chemical, 
# crystal, experimental, refinement or atomic coordinate data resulting 
# from the CCDC's data processing and validation procedures.
#
#######################################################################

data_DUGTUW
_chemical_formula_moiety         'C19 H21 N2 O3 P1 S1,H2 O1'
_chemical_name_systematic        
'3-(2-(diphenylphosphino)-1-methyl-1H-imidazol-3-ium-3-yl)propane-1-sulfonate monohydrate'
_symmetry_cell_setting           triclinic
_symmetry_space_group_name_H-M   'P -1'
_symmetry_Int_Tables_number      2
_space_group_name_Hall           '-P 1'
loop_
_symmetry_equiv_pos_site_id
_symmetry_equiv_pos_as_xyz
1 x,y,z
2 -x,-y,-z
_cell_length_a                   10.8550(6)
_cell_length_b                   13.3972(8)
_cell_length_c                   14.2140(8)
_cell_angle_alpha                81.894(2)
_cell_angle_beta                 81.737(2)
_cell_angle_gamma                87.635(2)
_cell_volume                     2024.73
_exptl_crystal_colour            colorless
_exptl_crystal_description       block
_cell_formula_units_Z            4
loop_
_atom_site_label
_atom_site_type_symbol
_atom_site_fract_x
_atom_site_fract_y
_atom_site_fract_z
S1 S 0.39010(7) 0.91500(6) 0.20994(6)
P1 P 0.75034(7) 0.74231(6) 0.40495(6)
O1 O 0.2979(2) 0.9759(2) 0.16189(19)
O2 O 0.4571(2) 0.8442(2) 0.15243(19)
O3 O 0.3399(2) 0.86751(17) 0.30462(17)
N1 N 0.9807(2) 0.8321(2) 0.3097(2)
N2 N 0.8198(2) 0.8779(2) 0.23989(19)
C1 C 0.7932(3) 0.7824(2) 0.5141(2)
C2 C 0.7606(4) 0.8817(3) 0.5261(3)
H1 H 0.7207 0.9219 0.4803
C3 C 0.7872(4) 0.9210(3) 0.6053(3)
H2 H 0.7678 0.9882 0.6116
C4 C 0.8422(4) 0.8608(3) 0.6752(3)
H3 H 0.8592 0.8872 0.7290
C5 C 0.8720(3) 0.7621(3) 0.6655(3)
H4 H 0.9080 0.7213 0.7131
C6 C 0.8486(3) 0.7229(3) 0.5848(2)
H5 H 0.8704 0.6561 0.5781
C7 C 0.8137(3) 0.6153(2) 0.3975(2)
C8 C 0.7706(3) 0.5387(2) 0.4696(2)
H6 H 0.7213 0.5548 0.5248
C9 C 0.8000(4) 0.4395(3) 0.4607(3)
H7 H 0.7718 0.3893 0.5103
C10 C 0.8704(4) 0.4140(3) 0.3794(3)
H8 H 0.8893 0.3467 0.3735
C11 C 0.9130(4) 0.4882(3) 0.3068(3)
H9 H 0.9615 0.4709 0.2518
C12 C 0.8846(3) 0.5888(3) 0.3146(3)
H10 H 0.9128 0.6386 0.2646
C13 C 0.8569(3) 0.8188(2) 0.3145(2)
C14 C 1.0195(3) 0.9008(3) 0.2317(3)
H11 H 1.1002 0.9234 0.2122
C15 C 0.9186(3) 0.9299(3) 0.1882(3)
H12 H 0.9167 0.9766 0.1333
C16 C 1.0628(3) 0.7816(3) 0.3751(3)
H13 H 1.0157 0.7356 0.4236
H14 H 1.0993 0.8310 0.4048
H15 H 1.1274 0.7451 0.3399
C17 C 0.6915(3) 0.8875(3) 0.2148(2)
H16 H 0.6563 0.8210 0.2226
H17 H 0.6946 0.9161 0.1479
C18 C 0.6086(3) 0.9531(2) 0.2762(2)
H18 H 0.6578 1.0057 0.2918
H19 H 0.5754 0.9126 0.3358
C19 C 0.5009(3) 1.0015(2) 0.2268(3)
H20 H 0.5344 1.0370 0.1647
H21 H 0.4592 1.0509 0.2648
P2 P 0.47041(7) 1.29042(6) 0.24820(6)
S2 S 0.02570(9) 1.25096(9) 0.02566(8)
O4 O -0.0592(3) 1.1685(3) 0.0390(3)
O5 O 0.0406(3) 1.3065(3) -0.0679(3)
O6 O -0.0021(3) 1.3144(3) 0.1022(3)
N3 N 0.6293(2) 1.3885(2) 0.08190(18)
N4 N 0.4969(2) 1.28668(19) 0.05019(18)
C20 C 0.4418(3) 1.4174(2) 0.2821(2)
C21 C 0.3379(3) 1.4686(3) 0.2503(2)
H22 H 0.2863 1.4363 0.2179
C22 C 0.3112(4) 1.5666(3) 0.2666(3)
H23 H 0.2419 1.6003 0.2448
C23 C 0.3867(4) 1.6145(3) 0.3148(3)
H24 H 0.3707 1.6817 0.3233
C24 C 0.4862(4) 1.5630(3) 0.3507(3)
H25 H 0.5347 1.5946 0.3862
C25 C 0.5146(3) 1.4649(3) 0.3344(3)
H26 H 0.5823 1.4308 0.3584
C26 C 0.6061(3) 1.2393(2) 0.3033(2)
C27 C 0.5893(4) 1.2157(3) 0.4029(2)
H27 H 0.5139 1.2316 0.4382
C28 C 0.6840(4) 1.1686(3) 0.4501(3)
H28 H 0.6726 1.1541 0.5167
C29 C 0.7951(4) 1.1435(3) 0.3974(3)
H29 H 0.8588 1.1120 0.4286
C30 C 0.8121(3) 1.1647(3) 0.2996(3)
H30 H 0.8870 1.1472 0.2647
C31 C 0.7181(3) 1.2123(2) 0.2521(2)
H31 H 0.7304 1.2263 0.1855
C32 C 0.5384(3) 1.3242(2) 0.1230(2)
C33 C 0.6439(3) 1.3910(3) -0.0154(2)
H32 H 0.7008 1.4293 -0.0598
C34 C 0.5606(3) 1.3276(3) -0.0352(2)
H33 H 0.5489 1.3144 -0.0957
C35 C 0.7055(4) 1.4483(3) 0.1297(3)
H34 H 0.6806 1.4360 0.1979
H35 H 0.6942 1.5187 0.1074
H36 H 0.7916 1.4293 0.1152
C36 C 0.3961(3) 1.2147(2) 0.0571(2)
H37 H 0.3821 1.1787 0.1218
H38 H 0.4210 1.1657 0.0135
C37 C 0.2757(3) 1.2676(3) 0.0329(3)
H39 H 0.2512 1.3170 0.0761
H40 H 0.2896 1.3030 -0.0320
C38 C 0.1720(3) 1.1940(3) 0.0408(3)
H41 H 0.1654 1.1533 0.1034
H42 H 0.1938 1.1490 -0.0071
O7 O 0.1042(3) 1.5025(3) 0.0948(2)
O8 O -0.2828(4) 1.0818(3) 0.0330(2)
loop_
_geom_bond_atom_site_label_1
_geom_bond_atom_site_label_2
_geom_bond_site_symmetry_1
_geom_bond_site_symmetry_2
S1 O1 1_555 1_555
P1 C1 1_555 1_555
O2 S1 1_555 1_555
O3 S1 1_555 1_555
N1 C13 1_555 1_555
N2 C13 1_555 1_555
C1 C2 1_555 1_555
C2 H1 1_555 1_555
C3 C2 1_555 1_555
H2 C3 1_555 1_555
C4 C3 1_555 1_555
H3 C4 1_555 1_555
C5 C4 1_555 1_555
H4 C5 1_555 1_555
C6 C1 1_555 1_555
H5 C6 1_555 1_555
C7 P1 1_555 1_555
C8 C7 1_555 1_555
H6 C8 1_555 1_555
C9 C8 1_555 1_555
H7 C9 1_555 1_555
C10 C9 1_555 1_555
H8 C10 1_555 1_555
C11 C10 1_555 1_555
H9 C11 1_555 1_555
C12 C7 1_555 1_555
H10 C12 1_555 1_555
C13 P1 1_555 1_555
C14 N1 1_555 1_555
H11 C14 1_555 1_555
C15 N2 1_555 1_555
H12 C15 1_555 1_555
C16 N1 1_555 1_555
H13 C16 1_555 1_555
H14 C16 1_555 1_555
H15 C16 1_555 1_555
C17 N2 1_555 1_555
H16 C17 1_555 1_555
H17 C17 1_555 1_555
C18 C17 1_555 1_555
H18 C18 1_555 1_555
H19 C18 1_555 1_555
C19 S1 1_555 1_555
H20 C19 1_555 1_555
H21 C19 1_555 1_555
P2 C20 1_555 1_555
S2 O4 1_555 1_555
O5 S2 1_555 1_555
O6 S2 1_555 1_555
N3 C32 1_555 1_555
N4 C32 1_555 1_555
C20 C21 1_555 1_555
C21 H22 1_555 1_555
C22 C21 1_555 1_555
H23 C22 1_555 1_555
C23 C22 1_555 1_555
H24 C23 1_555 1_555
C24 C23 1_555 1_555
H25 C24 1_555 1_555
C25 C20 1_555 1_555
H26 C25 1_555 1_555
C26 P2 1_555 1_555
C27 C26 1_555 1_555
H27 C27 1_555 1_555
C28 C27 1_555 1_555
H28 C28 1_555 1_555
C29 C28 1_555 1_555
H29 C29 1_555 1_555
C30 C29 1_555 1_555
H30 C30 1_555 1_555
C31 C26 1_555 1_555
H31 C31 1_555 1_555
C32 P2 1_555 1_555
C33 N3 1_555 1_555
H32 C33 1_555 1_555
C34 N4 1_555 1_555
H33 C34 1_555 1_555
C35 N3 1_555 1_555
H34 C35 1_555 1_555
H35 C35 1_555 1_555
H36 C35 1_555 1_555
C36 N4 1_555 1_555
H37 C36 1_555 1_555
H38 C36 1_555 1_555
C37 C36 1_555 1_555
H39 C37 1_555 1_555
H40 C37 1_555 1_555
C38 S2 1_555 1_555
H41 C38 1_555 1_555
H42 C38 1_555 1_555
C5 C6 1_555 1_555
C11 C12 1_555 1_555
C14 C15 1_555 1_555
C18 C19 1_555 1_555
C24 C25 1_555 1_555
C30 C31 1_555 1_555
C33 C34 1_555 1_555
C37 C38 1_555 1_555

#END
