
#######################################################################
#
#                 Cambridge Crystallographic Data Centre
#                                CCDC 
#
#######################################################################
#
# If this CIF has been generated from an entry in the Cambridge 
# Structural Database, then it will include bibliographic, chemical, 
# crystal, experimental, refinement or atomic coordinate data resulting 
# from the CCDC's data processing and validation procedures.
#
#######################################################################

data_DUGYEL
_chemical_formula_moiety         'C26 H29 N1 O4 S1'
_chemical_name_systematic        
1-ethyl-6,7-dimethoxy-2-((4-methylphenyl)sulfonyl)-4-phenyl-1,2,3,4-tetrahydroisoquinoline
_symmetry_cell_setting           rhombohedral
_symmetry_space_group_name_H-M   'R -3'
_symmetry_Int_Tables_number      148
_space_group_name_Hall           '-R 3'
loop_
_symmetry_equiv_pos_site_id
_symmetry_equiv_pos_as_xyz
1 x,y,z
2 -y,x-y,z
3 -x+y,-x,z
4 2/3+x,1/3+y,1/3+z
5 2/3-y,1/3+x-y,1/3+z
6 2/3-x+y,1/3-x,1/3+z
7 1/3+x,2/3+y,2/3+z
8 1/3-y,2/3+x-y,2/3+z
9 1/3-x+y,2/3-x,2/3+z
10 -x,-y,-z
11 y,-x+y,-z
12 x-y,x,-z
13 1/3-x,2/3-y,2/3-z
14 1/3+y,2/3-x+y,2/3-z
15 1/3+x-y,2/3+x,2/3-z
16 2/3-x,1/3-y,1/3-z
17 2/3+y,1/3-x+y,1/3-z
18 2/3+x-y,1/3+x,1/3-z
_cell_length_a                   21.34507(16)
_cell_length_b                   21.34507(16)
_cell_length_c                   26.0658(2)
_cell_angle_alpha                90
_cell_angle_beta                 90
_cell_angle_gamma                120
_cell_volume                     10284.8
_exptl_crystal_colour            colorless
_exptl_crystal_description       block
_cell_formula_units_Z            18
loop_
_atom_site_label
_atom_site_type_symbol
_atom_site_fract_x
_atom_site_fract_y
_atom_site_fract_z
S1 S 0.09925(2) 0.17807(2) 0.26392(2)
O1 O 0.43985(5) 0.18910(5) 0.33174(4)
O2 O 0.36739(5) 0.07037(5) 0.28382(3)
O3 O 0.04080(5) 0.10904(6) 0.24878(4)
O4 O 0.09220(6) 0.24142(6) 0.25978(4)
N1 N 0.16896(5) 0.19395(6) 0.22919(4)
C1 C 0.30323(6) 0.22421(6) 0.27148(4)
C2 C 0.25864(6) 0.15660(6) 0.25022(5)
C3 C 0.27850(6) 0.10282(6) 0.25406(5)
H1 H 0.2491 0.0575 0.2395
C4 C 0.34108(6) 0.11682(6) 0.27911(5)
C5 C 0.38330(6) 0.18388(6) 0.30401(5)
C6 C 0.36507(7) 0.23705(6) 0.29927(5)
H2 H 0.3939 0.2819 0.3146
C7 C 0.48023(7) 0.25293(7) 0.36145(6)
H3 H 0.5064 0.2935 0.3390
H4 H 0.5137 0.2475 0.3830
H5 H 0.4478 0.2608 0.3824
C8 C 0.32776(7) 0.00134(7) 0.26032(5)
H6 H 0.3257 0.0072 0.2239
H7 H 0.2795 -0.0236 0.2740
H8 H 0.3512 -0.0262 0.2671
C9 C 0.28837(6) 0.28661(6) 0.26513(5)
H9 H 0.2706 0.2941 0.2979
C10 C 0.35599(7) 0.35664(7) 0.25034(5)
C11 C 0.40149(7) 0.35688(7) 0.21184(5)
H10 H 0.3900 0.3140 0.1951
C12 C 0.46366(8) 0.42026(8) 0.19822(6)
H11 H 0.4931 0.4199 0.1720
C13 C 0.48191(8) 0.48399(8) 0.22352(6)
H12 H 0.5241 0.5263 0.2149
C14 C 0.43733(8) 0.48489(8) 0.26175(6)
H13 H 0.4496 0.5278 0.2788
C15 C 0.37408(8) 0.42149(7) 0.27461(5)
H14 H 0.3436 0.4226 0.2997
C16 C 0.22994(7) 0.26804(7) 0.22429(5)
H15 H 0.2121 0.3017 0.2271
H16 H 0.2514 0.2740 0.1905
C17 C 0.18866(6) 0.13695(7) 0.22210(5)
H17 H 0.1500 0.0920 0.2371
C18 C 0.19324(7) 0.12367(8) 0.16466(5)
H18 H 0.2282 0.1688 0.1487
H19 H 0.2107 0.0898 0.1607
C19 C 0.12137(8) 0.09405(9) 0.13690(6)
H20 H 0.1275 0.0858 0.1015
H21 H 0.1048 0.1283 0.1392
H22 H 0.0864 0.0493 0.1525
C20 C 0.11658(6) 0.17034(7) 0.32930(5)
C21 C 0.10509(7) 0.10449(7) 0.34841(5)
H23 H 0.0877 0.0642 0.3272
C22 C 0.11993(8) 0.09998(8) 0.39951(6)
H24 H 0.1118 0.0559 0.4125
C23 C 0.14680(8) 0.15989(8) 0.43217(5)
C24 C 0.15597(7) 0.22447(7) 0.41236(5)
H25 H 0.1724 0.2646 0.4337
C25 C 0.14091(7) 0.22980(7) 0.36142(5)
H26 H 0.1471 0.2733 0.3487
C26 C 0.16715(10) 0.15568(10) 0.48695(6)
H27 H 0.2080 0.1483 0.4874
H28 H 0.1270 0.1160 0.5040
H29 H 0.1794 0.2000 0.5044
loop_
_geom_bond_atom_site_label_1
_geom_bond_atom_site_label_2
_geom_bond_site_symmetry_1
_geom_bond_site_symmetry_2
S1 O3 1_555 1_555
O1 C5 1_555 1_555
O2 C4 1_555 1_555
O4 S1 1_555 1_555
N1 S1 1_555 1_555
C1 C2 1_555 1_555
C2 C3 1_555 1_555
C3 H1 1_555 1_555
C4 C3 1_555 1_555
C5 C4 1_555 1_555
C6 C1 1_555 1_555
H2 C6 1_555 1_555
C7 O1 1_555 1_555
H3 C7 1_555 1_555
H4 C7 1_555 1_555
H5 C7 1_555 1_555
C8 O2 1_555 1_555
H6 C8 1_555 1_555
H7 C8 1_555 1_555
H8 C8 1_555 1_555
C9 C1 1_555 1_555
H9 C9 1_555 1_555
C10 C9 1_555 1_555
C11 C10 1_555 1_555
H10 C11 1_555 1_555
C12 C11 1_555 1_555
H11 C12 1_555 1_555
C13 C12 1_555 1_555
H12 C13 1_555 1_555
C14 C13 1_555 1_555
H13 C14 1_555 1_555
C15 C10 1_555 1_555
H14 C15 1_555 1_555
C16 N1 1_555 1_555
H15 C16 1_555 1_555
H16 C16 1_555 1_555
C17 N1 1_555 1_555
H17 C17 1_555 1_555
C18 C17 1_555 1_555
H18 C18 1_555 1_555
H19 C18 1_555 1_555
C19 C18 1_555 1_555
H20 C19 1_555 1_555
H21 C19 1_555 1_555
H22 C19 1_555 1_555
C20 S1 1_555 1_555
C21 C20 1_555 1_555
H23 C21 1_555 1_555
C22 C21 1_555 1_555
H24 C22 1_555 1_555
C23 C22 1_555 1_555
C24 C23 1_555 1_555
H25 C24 1_555 1_555
C25 C20 1_555 1_555
H26 C25 1_555 1_555
C26 C23 1_555 1_555
H27 C26 1_555 1_555
H28 C26 1_555 1_555
H29 C26 1_555 1_555
C2 C17 1_555 1_555
C5 C6 1_555 1_555
C9 C16 1_555 1_555
C14 C15 1_555 1_555
C24 C25 1_555 1_555

#END
