
#######################################################################
#
#                 Cambridge Crystallographic Data Centre
#                                CCDC 
#
#######################################################################
#
# If this CIF has been generated from an entry in the Cambridge 
# Structural Database, then it will include bibliographic, chemical, 
# crystal, experimental, refinement or atomic coordinate data resulting 
# from the CCDC's data processing and validation procedures.
#
#######################################################################

data_DUHCAM
_chemical_formula_moiety         'C15 H21 I1 Si1'
_chemical_name_systematic        
((3,5-diethyl-4-iodophenyl)ethynyl)(trimethyl)silane
_symmetry_cell_setting           monoclinic
_symmetry_space_group_name_H-M   'P 21/c'
_symmetry_Int_Tables_number      14
_space_group_name_Hall           '-P 2ybc'
loop_
_symmetry_equiv_pos_site_id
_symmetry_equiv_pos_as_xyz
1 x,y,z
2 -x,1/2+y,1/2-z
3 -x,-y,-z
4 x,1/2-y,1/2+z
_cell_length_a                   6.5602(13)
_cell_length_b                   25.698(5)
_cell_length_c                   9.7164(19)
_cell_angle_alpha                90
_cell_angle_beta                 95.17(3)
_cell_angle_gamma                90
_cell_volume                     1631.37
_exptl_crystal_colour            colorless
_exptl_crystal_description       plate
_cell_formula_units_Z            4
loop_
_atom_site_label
_atom_site_type_symbol
_atom_site_fract_x
_atom_site_fract_y
_atom_site_fract_z
I1 I 0.55509(3) 0.798059(7) 0.220802(19)
Si1 Si -0.25641(11) 0.54389(3) -0.24873(8)
C1 C -0.2467(7) 0.55446(16) -0.4366(4)
H1 H -0.2963 0.5887 -0.4607
H2 H -0.3308 0.5291 -0.4870
H3 H -0.1080 0.5511 -0.4596
C2 C -0.5254(4) 0.54282(15) -0.2038(4)
H4 H -0.5275 0.5379 -0.1060
H5 H -0.5975 0.5148 -0.2520
H6 H -0.5904 0.5752 -0.2301
C3 C -0.1263(6) 0.48223(13) -0.1959(4)
H7 H 0.0154 0.4844 -0.2127
H8 H -0.1897 0.4540 -0.2484
H9 H -0.1372 0.4763 -0.0993
C4 C -0.1153(4) 0.59738(11) -0.1564(3)
C5 C -0.0137(4) 0.63016(10) -0.0960(3)
C6 C 0.1122(4) 0.66913(10) -0.0227(3)
C7 C 0.2974(4) 0.65404(10) 0.0496(3)
H10 H 0.3349 0.6191 0.0508
C8 C 0.4258(4) 0.69006(10) 0.1194(3)
C9 C 0.3618(4) 0.74211(10) 0.1168(2)
C10 C 0.1762(4) 0.75848(10) 0.0484(3)
C11 C 0.0542(4) 0.72076(11) -0.0215(3)
H11 H -0.0695 0.7306 -0.0685
C12 C 0.6245(4) 0.67301(11) 0.1985(3)
H12 H 0.6251 0.6854 0.2928
H13 H 0.7368 0.6899 0.1578
C13 C 0.6654(5) 0.61480(12) 0.2026(3)
H14 H 0.6702 0.6020 0.1101
H15 H 0.5579 0.5975 0.2454
H16 H 0.7940 0.6082 0.2549
C14 C 0.1036(4) 0.81425(11) 0.0436(3)
H17 H 0.1447 0.8308 0.1314
H18 H -0.0447 0.8148 0.0303
C15 C 0.1897(5) 0.84522(13) -0.0722(4)
H19 H 0.1443 0.8299 -0.1598
H20 H 0.3365 0.8447 -0.0598
H21 H 0.1423 0.8805 -0.0699
loop_
_geom_bond_atom_site_label_1
_geom_bond_atom_site_label_2
_geom_bond_site_symmetry_1
_geom_bond_site_symmetry_2
I1 C9 1_555 1_555
Si1 C1 1_555 1_555
C1 H1 1_555 1_555
H2 C1 1_555 1_555
H3 C1 1_555 1_555
C2 Si1 1_555 1_555
H4 C2 1_555 1_555
H5 C2 1_555 1_555
H6 C2 1_555 1_555
C3 Si1 1_555 1_555
H7 C3 1_555 1_555
H8 C3 1_555 1_555
H9 C3 1_555 1_555
C4 Si1 1_555 1_555
C5 C4 1_555 1_555
C6 C5 1_555 1_555
C7 C6 1_555 1_555
H10 C7 1_555 1_555
C8 C7 1_555 1_555
C9 C8 1_555 1_555
C10 C9 1_555 1_555
C11 C6 1_555 1_555
H11 C11 1_555 1_555
C12 C8 1_555 1_555
H12 C12 1_555 1_555
H13 C12 1_555 1_555
C13 C12 1_555 1_555
H14 C13 1_555 1_555
H15 C13 1_555 1_555
H16 C13 1_555 1_555
C14 C10 1_555 1_555
H17 C14 1_555 1_555
H18 C14 1_555 1_555
C15 C14 1_555 1_555
H19 C15 1_555 1_555
H20 C15 1_555 1_555
H21 C15 1_555 1_555
C10 C11 1_555 1_555

#END
