
#######################################################################
#
#                 Cambridge Crystallographic Data Centre
#                                CCDC 
#
#######################################################################
#
# If this CIF has been generated from an entry in the Cambridge 
# Structural Database, then it will include bibliographic, chemical, 
# crystal, experimental, refinement or atomic coordinate data resulting 
# from the CCDC's data processing and validation procedures.
#
#######################################################################

data_DUHGUK
_chemical_formula_moiety         'C25 H20 B1 F2 N5 O4,C1 H2 Cl2'
_chemical_name_systematic        
"5,5-difluoro-1,3,7,9-tetramethyl-10-(4-((7-nitro-2,1,3-benzoxadiazol-4-yl)oxy)phenyl)-5H-4\l^5^,5\l^5^-dipyrrolo[1,2-c:2',1'-f][1,3,2]diazaborinine dichloromethane solvate"
_symmetry_cell_setting           monoclinic
_symmetry_space_group_name_H-M   'P 21/c'
_symmetry_Int_Tables_number      14
_space_group_name_Hall           '-P 2ybc'
loop_
_symmetry_equiv_pos_site_id
_symmetry_equiv_pos_as_xyz
1 x,y,z
2 -x,1/2+y,1/2-z
3 -x,-y,-z
4 x,1/2-y,1/2+z
_cell_length_a                   7.1853(11)
_cell_length_b                   35.042(5)
_cell_length_c                   11.0057(18)
_cell_angle_alpha                90
_cell_angle_beta                 106.993(3)
_cell_angle_gamma                90
_cell_volume                     2650.11
_exptl_crystal_colour            purple
_exptl_crystal_description       block
_cell_formula_units_Z            4
loop_
_atom_site_label
_atom_site_type_symbol
_atom_site_fract_x
_atom_site_fract_y
_atom_site_fract_z
Cl1 Cl 0.2460(2) 0.02335(4) 0.37103(14)
Cl2 Cl -0.1717(2) 0.01574(5) 0.31127(15)
C1 C 0.0411(8) 0.00661(15) 0.2691(5)
H1 H 0.0541 -0.0208 0.2613
H2 H 0.0272 0.0178 0.1863
F1 F -0.0254(3) 0.09763(6) 1.07490(16)
F2 F 0.0982(3) 0.04634(5) 0.99939(17)
O1 O 0.6808(4) 0.24519(8) 0.1521(2)
O2 O 0.4937(4) 0.24813(10) -0.0400(3)
O3 O -0.0778(3) 0.20951(7) -0.13434(18)
O4 O -0.0849(3) 0.17199(6) 0.22175(17)
N1 N 0.5261(4) 0.23937(8) 0.0710(3)
N2 N 0.1125(4) 0.22237(8) -0.1039(2)
N3 N -0.1256(4) 0.19416(7) -0.0324(2)
N4 N 0.1800(3) 0.10871(6) 0.94140(19)
N5 N -0.1522(3) 0.08246(6) 0.8524(2)
C2 C 0.3696(4) 0.22087(8) 0.1071(3)
C3 C 0.3984(4) 0.20898(9) 0.2276(3)
H3 H 0.5213 0.2122 0.2850
C4 C 0.2515(4) 0.19191(9) 0.2714(3)
H4 H 0.2796 0.1845 0.3559
C5 C 0.0700(4) 0.18621(8) 0.1914(2)
C6 C 0.0356(4) 0.19766(7) 0.0616(2)
C7 C 0.1831(4) 0.21480(7) 0.0179(2)
C8 C -0.0549(4) 0.16002(8) 0.3490(2)
C9 C -0.0906(4) 0.18524(8) 0.4345(3)
H5 H -0.1275 0.2102 0.4106
C10 C -0.0709(4) 0.17287(8) 0.5579(2)
H6 H -0.0957 0.1896 0.6169
C11 C -0.0145(4) 0.13568(7) 0.5929(2)
C12 C 0.0220(4) 0.11103(8) 0.5036(2)
H7 H 0.0598 0.0860 0.5267
C13 C 0.0030(4) 0.12316(8) 0.3804(3)
H8 H 0.0289 0.1067 0.3209
C14 C -0.0027(4) 0.12053(7) 0.7218(2)
C15 C 0.1656(4) 0.12577(7) 0.8231(2)
C16 C 0.3428(4) 0.14534(8) 0.8335(3)
C17 C 0.4597(4) 0.13936(8) 0.9564(3)
H9 H 0.5851 0.1488 0.9907
C18 C 0.3590(4) 0.11698(8) 1.0200(3)
C19 C 0.3990(5) 0.16901(9) 0.7357(3)
H10 H 0.3331 0.1931 0.7265
H11 H 0.3626 0.1558 0.6557
H12 H 0.5371 0.1731 0.7624
C20 C 0.4301(5) 0.10273(10) 1.1534(3)
H13 H 0.3341 0.1078 1.1963
H14 H 0.5493 0.1155 1.1968
H15 H 0.4526 0.0757 1.1529
C21 C -0.1604(4) 0.09972(7) 0.7355(2)
C22 C -0.3451(4) 0.09079(8) 0.6479(3)
C23 C -0.4410(4) 0.06867(9) 0.7142(3)
H16 H -0.5657 0.0587 0.6816
C24 C -0.3210(4) 0.06358(8) 0.8382(3)
C25 C -0.4285(5) 0.10249(11) 0.5116(3)
H17 H -0.3680 0.0880 0.4596
H18 H -0.4047 0.1292 0.5031
H19 H -0.5662 0.0978 0.4850
C26 C -0.3631(5) 0.04028(10) 0.9418(3)
H20 H -0.2880 0.0172 0.9539
H21 H -0.4991 0.0341 0.9183
H22 H -0.3291 0.0547 1.0194
B1 B 0.0247(5) 0.08334(9) 0.9716(3)
loop_
_geom_bond_atom_site_label_1
_geom_bond_atom_site_label_2
_geom_bond_site_symmetry_1
_geom_bond_site_symmetry_2
Cl1 C1 1_555 1_555
Cl2 C1 1_555 1_555
C1 H1 1_555 1_555
H2 C1 1_555 1_555
F1 B1 1_555 1_555
F2 B1 1_555 1_555
O1 N1 1_555 1_555
O2 N1 1_555 1_555
O3 N2 1_555 1_555
O4 C5 1_555 1_555
N1 C2 1_555 1_555
N2 C7 1_555 1_555
N3 O3 1_555 1_555
N4 C15 1_555 1_555
N5 C21 1_555 1_555
C2 C3 1_555 1_555
C3 H3 1_555 1_555
C4 C3 1_555 1_555
H4 C4 1_555 1_555
C5 C4 1_555 1_555
C6 N3 1_555 1_555
C7 C2 1_555 1_555
C8 O4 1_555 1_555
C9 C8 1_555 1_555
H5 C9 1_555 1_555
C10 C9 1_555 1_555
H6 C10 1_555 1_555
C11 C10 1_555 1_555
C12 C11 1_555 1_555
H7 C12 1_555 1_555
C13 C8 1_555 1_555
H8 C13 1_555 1_555
C14 C11 1_555 1_555
C15 C14 1_555 1_555
C16 C15 1_555 1_555
C17 C16 1_555 1_555
H9 C17 1_555 1_555
C18 N4 1_555 1_555
C19 C16 1_555 1_555
H10 C19 1_555 1_555
H11 C19 1_555 1_555
H12 C19 1_555 1_555
C20 C18 1_555 1_555
H13 C20 1_555 1_555
H14 C20 1_555 1_555
H15 C20 1_555 1_555
C21 C14 1_555 1_555
C22 C21 1_555 1_555
C23 C22 1_555 1_555
H16 C23 1_555 1_555
C24 N5 1_555 1_555
C25 C22 1_555 1_555
H17 C25 1_555 1_555
H18 C25 1_555 1_555
H19 C25 1_555 1_555
C26 C24 1_555 1_555
H20 C26 1_555 1_555
H21 C26 1_555 1_555
H22 C26 1_555 1_555
B1 N4 1_555 1_555
N5 B1 1_555 1_555
C5 C6 1_555 1_555
C6 C7 1_555 1_555
C12 C13 1_555 1_555
C17 C18 1_555 1_555
C23 C24 1_555 1_555

#END
