
#######################################################################
#
#                 Cambridge Crystallographic Data Centre
#                                CCDC 
#
#######################################################################
#
# If this CIF has been generated from an entry in the Cambridge 
# Structural Database, then it will include bibliographic, chemical, 
# crystal, experimental, refinement or atomic coordinate data resulting 
# from the CCDC's data processing and validation procedures.
#
#######################################################################

data_DUHNOL
_chemical_formula_moiety         'C19 H23 N1 O2'
_chemical_name_systematic        'benzyl \a-propylphenylalaninate'
_symmetry_cell_setting           triclinic
_symmetry_space_group_name_H-M   'P 1'
_symmetry_Int_Tables_number      1
_space_group_name_Hall           'P 1'
loop_
_symmetry_equiv_pos_site_id
_symmetry_equiv_pos_as_xyz
1 x,y,z
_cell_length_a                   5.854(2)
_cell_length_b                   7.4868(15)
_cell_length_c                   18.776(6)
_cell_angle_alpha                87.82(2)
_cell_angle_beta                 85.548(15)
_cell_angle_gamma                90.16(2)
_cell_volume                     819.819
_exptl_crystal_colour            colorless
_exptl_crystal_description       needle
_cell_formula_units_Z            2
loop_
_atom_site_label
_atom_site_type_symbol
_atom_site_fract_x
_atom_site_fract_y
_atom_site_fract_z
O1 O 0.0679(4) 0.9256(3) 0.19105(15)
O2 O 0.4191(4) 1.0494(4) 0.17784(16)
N1 N 0.6218(4) 0.7367(3) 0.12966(15)
H1 H 0.668(7) 0.829(4) 0.0991(19)
H2 H 0.686(7) 0.760(6) 0.1710(13)
C1 C 0.3731(6) 0.7398(5) 0.1454(2)
C2 C 0.2964(6) 0.9218(5) 0.1734(2)
C3 C 0.2555(7) 0.7077(5) 0.0764(2)
H3 H 0.3084 0.5916 0.0578
H4 H 0.0883 0.6973 0.0887
C4 C 0.2965(8) 0.8491(5) 0.0172(2)
H5 H 0.4629 0.8583 0.0034
H6 H 0.2447 0.9661 0.0352
C5 C 0.1714(8) 0.8083(6) -0.0482(2)
H7 H 0.2249 0.6941 -0.0669
H8 H 0.2021 0.9036 -0.0849
H9 H 0.0063 0.8009 -0.0349
C6 C 0.3037(7) 0.5889(5) 0.2012(2)
H10 H 0.1349 0.5891 0.2103
H11 H 0.3470 0.4731 0.1804
C7 C 0.4089(6) 0.6004(4) 0.2718(2)
C8 C 0.6154(7) 0.5152(5) 0.2836(2)
H12 H 0.6932 0.4529 0.2459
C9 C 0.7085(7) 0.5195(5) 0.3486(2)
H13 H 0.8489 0.4604 0.3556
C10 C 0.5957(7) 0.6109(5) 0.4042(2)
H14 H 0.6576 0.6136 0.4494
C11 C 0.3930(7) 0.6976(5) 0.3928(2)
H15 H 0.3171 0.7619 0.4303
C12 C 0.2997(6) 0.6918(5) 0.3277(2)
H16 H 0.1592 0.7509 0.3209
C13 C -0.0267(7) 1.0953(5) 0.2172(2)
H17 H -0.1882 1.1058 0.2055
H18 H 0.0605 1.1964 0.1927
C14 C -0.0151(6) 1.1062(4) 0.2963(2)
C15 C -0.1951(6) 1.0429(5) 0.3427(2)
H19 H -0.3256 0.9918 0.3241
C16 C -0.1868(7) 1.0531(5) 0.4158(2)
H20 H -0.3109 1.0085 0.4472
C17 C 0.0037(7) 1.1291(5) 0.4436(2)
H21 H 0.0088 1.1374 0.4938
C18 C 0.1853(7) 1.1923(5) 0.3979(2)
H22 H 0.3156 1.2436 0.4165
C19 C 0.1755(6) 1.1800(5) 0.3246(2)
H23 H 0.3006 1.2225 0.2932
O3 O 0.9363(4) 0.4653(3) 0.81208(14)
O4 O 0.5837(4) 0.5849(3) 0.82426(16)
N2 N 0.3798(5) 0.2621(4) 0.87082(19)
H24 H 0.3106 0.2914 0.8303
H25 H 0.3375 0.3410 0.9051
C20 C 0.6294(6) 0.2689(5) 0.8556(2)
C21 C 0.7076(6) 0.4568(5) 0.8288(2)
C22 C 0.7458(7) 0.2215(5) 0.9246(2)
H26 H 0.6938 0.1007 0.9422
H27 H 0.9133 0.2158 0.9127
C23 C 0.7004(8) 0.3502(5) 0.9849(2)
H28 H 0.7493 0.4720 0.9675
H29 H 0.5337 0.3533 0.9985
C24 C 0.8256(9) 0.2981(6) 1.0504(2)
H30 H 0.7698 0.1813 1.0699
H31 H 0.7974 0.3879 1.0867
H32 H 0.9904 0.2914 1.0370
C25 C 0.7005(7) 0.1290(5) 0.7998(2)
H33 H 0.8696 0.1304 0.7917
H34 H 0.6544 0.0091 0.8201
C26 C 0.5997(6) 0.1557(5) 0.7282(2)
C27 C 0.3939(6) 0.0762(5) 0.7149(2)
H35 H 0.3102 0.0086 0.7521
C28 C 0.3080(7) 0.0934(5) 0.6483(2)
H36 H 0.1673 0.0372 0.6400
C29 C 0.4279(7) 0.1926(5) 0.5939(2)
H37 H 0.3696 0.2047 0.5481
C30 C 0.6321(7) 0.2740(5) 0.6062(2)
H38 H 0.7140 0.3426 0.5689
C31 C 0.7185(7) 0.2560(5) 0.6731(2)
H39 H 0.8592 0.3124 0.6813
C32 C 1.0298(6) 0.6396(5) 0.7863(2)
H40 H 1.1912 0.6491 0.7981
H41 H 0.9420 0.7355 0.8107
C33 C 1.0180(6) 0.6642(5) 0.7069(2)
C34 C 1.1959(6) 0.6056(5) 0.6601(2)
H42 H 1.3262 0.5509 0.6786
C35 C 1.1847(7) 0.6263(5) 0.5874(2)
H43 H 1.3064 0.5845 0.5560
C36 C 0.9960(7) 0.7081(5) 0.5595(2)
H44 H 0.9898 0.7233 0.5092
C37 C 0.8173(7) 0.7672(5) 0.6053(2)
H45 H 0.6878 0.8226 0.5865
C38 C 0.8284(6) 0.7451(5) 0.6786(2)
H46 H 0.7058 0.7855 0.7100
H47? H 0.3366 0.1497 0.8866
loop_
_geom_bond_atom_site_label_1
_geom_bond_atom_site_label_2
_geom_bond_site_symmetry_1
_geom_bond_site_symmetry_2
O1 C2 1_555 1_555
O2 C2 1_555 1_555
N1 H1 1_555 1_555
H2 N1 1_555 1_555
C1 N1 1_555 1_555
C2 C1 1_555 1_555
C3 C1 1_555 1_555
H3 C3 1_555 1_555
H4 C3 1_555 1_555
C4 C3 1_555 1_555
H5 C4 1_555 1_555
H6 C4 1_555 1_555
C5 C4 1_555 1_555
H7 C5 1_555 1_555
H8 C5 1_555 1_555
H9 C5 1_555 1_555
C6 C1 1_555 1_555
H10 C6 1_555 1_555
H11 C6 1_555 1_555
C7 C6 1_555 1_555
C8 C7 1_555 1_555
H12 C8 1_555 1_555
C9 C8 1_555 1_555
H13 C9 1_555 1_555
C10 C9 1_555 1_555
H14 C10 1_555 1_555
C11 C10 1_555 1_555
H15 C11 1_555 1_555
C12 C7 1_555 1_555
H16 C12 1_555 1_555
C13 O1 1_555 1_555
H17 C13 1_555 1_555
H18 C13 1_555 1_555
C14 C13 1_555 1_555
C15 C14 1_555 1_555
H19 C15 1_555 1_555
C16 C15 1_555 1_555
H20 C16 1_555 1_555
C17 C16 1_555 1_555
H21 C17 1_555 1_555
C18 C17 1_555 1_555
H22 C18 1_555 1_555
C19 C14 1_555 1_555
H23 C19 1_555 1_555
O3 C21 1_555 1_555
O4 C21 1_555 1_555
N2 H24 1_555 1_555
H25 N2 1_555 1_555
C20 N2 1_555 1_555
C21 C20 1_555 1_555
C22 C20 1_555 1_555
H26 C22 1_555 1_555
H27 C22 1_555 1_555
C23 C22 1_555 1_555
H28 C23 1_555 1_555
H29 C23 1_555 1_555
C24 C23 1_555 1_555
H30 C24 1_555 1_555
H31 C24 1_555 1_555
H32 C24 1_555 1_555
C25 C20 1_555 1_555
H33 C25 1_555 1_555
H34 C25 1_555 1_555
C26 C25 1_555 1_555
C27 C26 1_555 1_555
H35 C27 1_555 1_555
C28 C27 1_555 1_555
H36 C28 1_555 1_555
C29 C28 1_555 1_555
H37 C29 1_555 1_555
C30 C29 1_555 1_555
H38 C30 1_555 1_555
C31 C26 1_555 1_555
H39 C31 1_555 1_555
C32 O3 1_555 1_555
H40 C32 1_555 1_555
H41 C32 1_555 1_555
C33 C32 1_555 1_555
C34 C33 1_555 1_555
H42 C34 1_555 1_555
C35 C34 1_555 1_555
H43 C35 1_555 1_555
C36 C35 1_555 1_555
H44 C36 1_555 1_555
C37 C36 1_555 1_555
H45 C37 1_555 1_555
C38 C33 1_555 1_555
H46 C38 1_555 1_555
C11 C12 1_555 1_555
C18 C19 1_555 1_555
C30 C31 1_555 1_555
C37 C38 1_555 1_555

#END
