
#######################################################################
#
#                 Cambridge Crystallographic Data Centre
#                                CCDC 
#
#######################################################################
#
# If this CIF has been generated from an entry in the Cambridge 
# Structural Database, then it will include bibliographic, chemical, 
# crystal, experimental, refinement or atomic coordinate data resulting 
# from the CCDC's data processing and validation procedures.
#
#######################################################################

data_DUHZIQ
_chemical_name_common            
2-(1,3-Benzodioxol-5-yl)-1,3-bis(1,3-benzodioxol-5-ylmethyl)-4-methylimidazolidine
_chemical_formula_moiety         'C27 H26 N2 O6'
_chemical_name_systematic        
4-Methyl-1,3-bis(3,4-(methylenedioxy)benzyl)-2-(3,4-(methylenedioxy)phenyl)imidazolidine
_symmetry_cell_setting           orthorhombic
_symmetry_space_group_name_H-M   'P b c n'
_symmetry_Int_Tables_number      60
_space_group_name_Hall           '-P 2n 2ab'
loop_
_symmetry_equiv_pos_site_id
_symmetry_equiv_pos_as_xyz
1 x,y,z
2 1/2-x,1/2-y,1/2+z
3 -x,y,1/2-z
4 1/2+x,1/2-y,-z
5 -x,-y,-z
6 1/2+x,1/2+y,1/2-z
7 x,-y,1/2+z
8 1/2-x,1/2+y,z
_cell_length_a                   11.586(2)
_cell_length_b                   12.575(3)
_cell_length_c                   32.749(7)
_cell_angle_alpha                90
_cell_angle_beta                 90
_cell_angle_gamma                90
_cell_volume                     4771.33
_exptl_crystal_colour            yellow
_exptl_crystal_description       block
_chemical_melting_point          '478-480 K'
_cell_formula_units_Z            8
_exptl_crystal_recrystallization_method ethanol
loop_
_atom_site_label
_atom_site_type_symbol
_atom_site_fract_x
_atom_site_fract_y
_atom_site_fract_z
N1 N 0.54794(18) 0.07206(19) 0.38949(7)
N2 N 0.65433(19) 0.1297(2) 0.33661(7)
O1 O 0.57024(18) 0.60432(18) 0.42342(7)
O2 O 0.48948(18) 0.53485(17) 0.36519(6)
O3 O 0.6527(14) 0.3038(15) 0.1842(4)
O4 O 0.7802(7) 0.1936(14) 0.1522(2)
O5 O 0.18733(17) -0.21867(19) 0.47927(7)
O6 O 0.15747(17) -0.03598(19) 0.45358(8)
C1 C 0.6424(2) 0.1424(2) 0.38092(8)
H1 H 0.7120 0.1146 0.3941
C2 C 0.6315(4) 0.0114(3) 0.32760(12)
H2 H 0.7018 -0.0304 0.3232
C3 C 0.5571(3) -0.0288(3) 0.36290(12)
H3 H 0.5946 -0.0864 0.3775
H4 H 0.4819 -0.0523 0.3535
C4 C 0.5461(10) 0.0063(10) 0.2920(3)
H5 H 0.5292 -0.0667 0.2858
H6 H 0.5793 0.0400 0.2685
H7 H 0.4761 0.0423 0.2994
C5 C 0.6280(2) 0.2673(2) 0.39295(8)
C6 C 0.5621(2) 0.3386(2) 0.36982(8)
H8 H 0.5268 0.3156 0.3459
C7 C 0.5486(2) 0.4488(2) 0.38306(8)
C8 C 0.5974(2) 0.4909(2) 0.41752(8)
C9 C 0.6641(2) 0.4241(3) 0.44031(9)
H9 H 0.7001 0.4489 0.4638
C10 C 0.6793(2) 0.3109(2) 0.42730(8)
H10 H 0.7258 0.2672 0.4432
C11 C 0.4924(3) 0.6290(3) 0.39238(10)
H11 H 0.5178 0.6915 0.3775
H12 H 0.4164 0.6429 0.4036
C12 C 0.7609(3) 0.1641(3) 0.32329(10)
H13 H 0.8188 0.1132 0.3320
H14 H 0.7783 0.2314 0.3364
C13 C 0.771(16) 0.18(2) 0.276(5)
C14 C 0.8314(9) 0.0937(14) 0.2552(4)
H15 H 0.8619 0.0364 0.2695
C15 C 0.8420(10) 0.1013(14) 0.2130(3)
H16 H 0.8895 0.0548 0.1987
C16 C 0.7852(14) 0.1733(16) 0.1943(5)
C17 C 0.7175(3) 0.2566(4) 0.21498(12)
C18 C 0.7029(3) 0.2470(4) 0.25621(10)
H17 H 0.6475 0.2867 0.2700
C19 C 0.7006(9) 0.2752(16) 0.1463(3)
H18 H 0.6400 0.2516 0.1279
H19 H 0.7384 0.3362 0.1341
C20 C 0.5440(2) 0.0408(3) 0.43233(9)
H20 H 0.5367 0.1045 0.4488
H21 H 0.6172 0.0078 0.4393
C21 C 0.4498(2) -0.0335(2) 0.44382(8)
C22 C 0.3463(2) 0.0101(2) 0.44082(9)
H22 H 0.3315 0.0787 0.4316
C23 C 0.2654(2) -0.0602(2) 0.45320(8)
C24 C 0.2828(2) -0.1680(2) 0.46835(8)
C25 C 0.3817(2) -0.2133(2) 0.47131(9)
H23 H 0.3948 -0.2824 0.4804
C26 C 0.4654(2) -0.1425(2) 0.45883(9)
H24 H 0.5412 -0.1667 0.4601
C27 C 0.1083(3) -0.1372(3) 0.46922(11)
H25 H 0.0632 -0.1212 0.4934
H26 H 0.0555 -0.1648 0.4488
C28? C 0.77(2) 0.17(3) 0.280(8)
C29? C 0.8675(17) 0.150(2) 0.2597(5)
C30? C 0.8866(16) 0.171(2) 0.2187(4)
C31? C 0.804(2) 0.231(2) 0.1972(7)
C32? C 0.7263(14) 0.356(2) 0.1554(5)
C33? C 0.4468(10) -0.0296(10) 0.3372(3)
H27? H 0.9277 0.1201 0.2746
H28? H 0.9528 0.1466 0.2057
H29? H 0.7669 0.4236 0.1531
H30? H 0.6721 0.3497 0.1329
H31? H 0.5912 0.0032 0.3018
H32? H 0.7035 -0.0278 0.3263
H33? H 0.5801 -0.0952 0.3763
H34? H 0.4419 0.0352 0.3218
H35? H 0.3809 -0.0354 0.3548
H36? H 0.4485 -0.0890 0.3188
O7? O 0.671(2) 0.346(2) 0.1934(7)
O8? O 0.8033(11) 0.2699(19) 0.1568(3)
loop_
_geom_bond_atom_site_label_1
_geom_bond_atom_site_label_2
_geom_bond_site_symmetry_1
_geom_bond_site_symmetry_2
N1 C1 1_555 1_555
N2 C1 1_555 1_555
O1 C8 1_555 1_555
O2 C7 1_555 1_555
O3 C17 1_555 1_555
O4 C16 1_555 1_555
O5 C24 1_555 1_555
O6 C23 1_555 1_555
C1 H1 1_555 1_555
C2 N2 1_555 1_555
H2 C2 1_555 1_555
C3 N1 1_555 1_555
H3 C3 1_555 1_555
H4 C3 1_555 1_555
C4 C2 1_555 1_555
H5 C4 1_555 1_555
H6 C4 1_555 1_555
H7 C4 1_555 1_555
C5 C1 1_555 1_555
C6 C5 1_555 1_555
H8 C6 1_555 1_555
C7 C6 1_555 1_555
C8 C7 1_555 1_555
C9 C8 1_555 1_555
H9 C9 1_555 1_555
C10 C5 1_555 1_555
H10 C10 1_555 1_555
C11 O1 1_555 1_555
H11 C11 1_555 1_555
H12 C11 1_555 1_555
C12 N2 1_555 1_555
H13 C12 1_555 1_555
H14 C12 1_555 1_555
C13 C12 1_555 1_555
C14 C13 1_555 1_555
H15 C14 1_555 1_555
C15 C14 1_555 1_555
H16 C15 1_555 1_555
C16 C15 1_555 1_555
C17 C16 1_555 1_555
C18 C13 1_555 1_555
H17 C18 1_555 1_555
C19 O3 1_555 1_555
H18 C19 1_555 1_555
H19 C19 1_555 1_555
C20 N1 1_555 1_555
H20 C20 1_555 1_555
H21 C20 1_555 1_555
C21 C20 1_555 1_555
C22 C21 1_555 1_555
H22 C22 1_555 1_555
C23 C22 1_555 1_555
C24 C23 1_555 1_555
C25 C24 1_555 1_555
H23 C25 1_555 1_555
C26 C21 1_555 1_555
H24 C26 1_555 1_555
C27 O5 1_555 1_555
H25 C27 1_555 1_555
H26 C27 1_555 1_555
O2 C11 1_555 1_555
O4 C19 1_555 1_555
O6 C27 1_555 1_555
C2 C3 1_555 1_555
C9 C10 1_555 1_555
C17 C18 1_555 1_555
C25 C26 1_555 1_555

#END
