
#######################################################################
#
#                 Cambridge Crystallographic Data Centre
#                                CCDC 
#
#######################################################################
#
# If this CIF has been generated from an entry in the Cambridge 
# Structural Database, then it will include bibliographic, chemical, 
# crystal, experimental, refinement or atomic coordinate data resulting 
# from the CCDC's data processing and validation procedures.
#
#######################################################################

data_DUJGEU
_chemical_formula_moiety         'C26 H30 N4 S2 2+,2(I3 1-)'
_chemical_name_systematic        
'1^5^,8^5^-Dimethyl-1,8(2,7)-bis(1,2-benzisothiazolia)-3,10-diazacyclotetradecaphane-2,9-diene bis(tri-iodide)'
_symmetry_cell_setting           triclinic
_symmetry_space_group_name_H-M   'P -1'
_symmetry_Int_Tables_number      2
_space_group_name_Hall           '-P 1'
loop_
_symmetry_equiv_pos_site_id
_symmetry_equiv_pos_as_xyz
1 x,y,z
2 -x,-y,-z
_cell_length_a                   8.9104(19)
_cell_length_b                   9.1521(19)
_cell_length_c                   12.172(3)
_cell_angle_alpha                70.605(3)
_cell_angle_beta                 85.336(3)
_cell_angle_gamma                68.074(3)
_cell_volume                     867.525
_exptl_crystal_colour            red
_exptl_crystal_description       block
_cell_formula_units_Z            1
loop_
_atom_site_label
_atom_site_type_symbol
_atom_site_fract_x
_atom_site_fract_y
_atom_site_fract_z
I1 I 0.29718(4) -0.56599(3) 1.18279(2)
I2 I 0.42581(3) -0.93034(3) 1.29881(2)
I3 I 0.53648(4) -1.28966(3) 1.41846(2)
S1 S 0.07847(11) -0.25910(11) 0.87863(8)
C1 C 0.0479(4) -0.0816(4) 0.7599(3)
C2 C -0.0703(4) 0.0758(5) 0.7490(3)
C3 C -0.0780(4) 0.2068(5) 0.6462(3)
H1 H -0.1573 0.3143 0.6374
C4 C 0.0276(5) 0.1848(5) 0.5556(3)
C5 C 0.1441(5) 0.0272(5) 0.5688(3)
H2 H 0.2169 0.0100 0.5088
C6 C 0.1539(5) -0.1065(5) 0.6710(3)
C7 C 0.0170(5) 0.3298(5) 0.4469(3)
H3 H 0.0987 0.3748 0.4535
H4 H -0.0911 0.4169 0.4380
H5 H 0.0365 0.2920 0.3788
C8 C 0.2605(5) -0.2763(5) 0.7022(3)
H6 H 0.3426 -0.3192 0.6540
N1 N 0.2331(4) -0.3675(4) 0.8050(3)
C9 C 0.3252(4) -0.5483(4) 0.8590(3)
H7 H 0.3808 -0.5672 0.9325
H8 H 0.4093 -0.5870 0.8059
C10 C 0.2176(4) -0.6510(4) 0.8853(3)
H9 H 0.1588 -0.6310 0.8129
H10 H 0.1370 -0.6183 0.9421
C11 C 0.3250(4) -0.8352(4) 0.9355(3)
H11 H 0.3797 -0.8531 1.0091
H12 H 0.4101 -0.8629 0.8801
C12 C 0.2346(5) -0.9554(5) 0.9601(3)
H13 H 0.1615 -0.9234 0.8920
H14 H 0.3137 -1.0698 0.9715
N2 N 0.1399(4) -0.9533(4) 1.0638(3)
C13 C -0.1705(4) 0.0871(4) 0.8487(3)
H15 H -0.2543 0.1885 0.8489
C13A C 0.1705(4) -1.0871(4) 1.1513(3)
C2A C 0.0703(4) -1.0758(5) 1.2510(3)
C1A C -0.0479(4) -0.9184(4) 1.2401(3)
S1A S -0.07847(11) -0.74090(11) 1.12137(8)
N1A N -0.2331(4) -0.6325(4) 1.1950(3)
C8A C -0.2605(5) -0.7237(5) 1.2978(3)
C6A C -0.1539(5) -0.8935(5) 1.3290(3)
C5A C -0.1441(5) -1.0272(5) 1.4312(3)
C4A C -0.0276(5) -1.1848(5) 1.4444(3)
C3A C 0.0780(4) -1.2068(5) 1.3538(3)
H1A H 0.1573 -1.3143 1.3626
C7A C -0.0170(5) -1.3298(5) 1.5531(3)
H3A H -0.0987 -1.3748 1.5465
H4A H 0.0911 -1.4169 1.5620
H5A H -0.0365 -1.2920 1.6212
H2A H -0.2169 -1.0100 1.4912
H6A H -0.3426 -0.6808 1.3460
C9A C -0.3252(4) -0.4517(4) 1.1410(3)
H7A H -0.3808 -0.4328 1.0675
H8A H -0.4093 -0.4130 1.1941
C10A C -0.2176(4) -0.3490(4) 1.1147(3)
H9A H -0.1588 -0.3690 1.1871
H10A H -0.1370 -0.3817 1.0579
C11A C -0.3250(4) -0.1648(4) 1.0645(3)
H11A H -0.3797 -0.1469 0.9909
H12A H -0.4101 -0.1371 1.1199
C12A C -0.2346(5) -0.0446(5) 1.0399(3)
H13A H -0.1615 -0.0766 1.1080
H14A H -0.3137 0.0698 1.0285
N2A N -0.1399(4) -0.0467(4) 0.9362(3)
H15A H 0.2543 -1.1885 1.1511
loop_
_geom_bond_atom_site_label_1
_geom_bond_atom_site_label_2
_geom_bond_site_symmetry_1
_geom_bond_site_symmetry_2
I1 I2 1_555 1_555
I2 I3 1_555 1_555
S1 C1 1_555 1_555
C1 C2 1_555 1_555
C2 C3 1_555 1_555
C3 H1 1_555 1_555
C4 C3 1_555 1_555
C5 C4 1_555 1_555
H2 C5 1_555 1_555
C6 C1 1_555 1_555
C7 C4 1_555 1_555
H3 C7 1_555 1_555
H4 C7 1_555 1_555
H5 C7 1_555 1_555
C8 C6 1_555 1_555
H6 C8 1_555 1_555
N1 S1 1_555 1_555
C9 N1 1_555 1_555
H7 C9 1_555 1_555
H8 C9 1_555 1_555
C10 C9 1_555 1_555
H9 C10 1_555 1_555
H10 C10 1_555 1_555
C11 C10 1_555 1_555
H11 C11 1_555 1_555
H12 C11 1_555 1_555
C12 C11 1_555 1_555
H13 C12 1_555 1_555
H14 C12 1_555 1_555
N2 C12 1_555 1_555
C13 C2 1_555 1_555
H15 C13 1_555 1_555
C13A N2 1_555 1_555
C2A C13A 1_555 1_555
C1A C2A 1_555 1_555
S1A C1A 1_555 1_555
N1A S1A 1_555 1_555
C8A N1A 1_555 1_555
C6A C1A 1_555 1_555
C5A C6A 1_555 1_555
C4A C5A 1_555 1_555
C3A C2A 1_555 1_555
H1A C3A 1_555 1_555
C7A C4A 1_555 1_555
H3A C7A 1_555 1_555
H4A C7A 1_555 1_555
H5A C7A 1_555 1_555
H2A C5A 1_555 1_555
H6A C8A 1_555 1_555
C9A N1A 1_555 1_555
H7A C9A 1_555 1_555
H8A C9A 1_555 1_555
C10A C9A 1_555 1_555
H9A C10A 1_555 1_555
H10A C10A 1_555 1_555
C11A C10A 1_555 1_555
H11A C11A 1_555 1_555
H12A C11A 1_555 1_555
C12A C11A 1_555 1_555
H13A C12A 1_555 1_555
H14A C12A 1_555 1_555
N2A C13 1_555 1_555
H15A C13A 1_555 1_555
C5 C6 1_555 1_555
C8 N1 1_555 1_555
C8A C6A 1_555 1_555
C4A C3A 1_555 1_555
C12A N2A 1_555 1_555

#END
