
#######################################################################
#
#                 Cambridge Crystallographic Data Centre
#                                CCDC 
#
#######################################################################
#
# If this CIF has been generated from an entry in the Cambridge 
# Structural Database, then it will include bibliographic, chemical, 
# crystal, experimental, refinement or atomic coordinate data resulting 
# from the CCDC's data processing and validation procedures.
#
#######################################################################

data_DUJGOF
_chemical_formula_moiety         'C25 H21 N1 O4'
_chemical_name_systematic        
9,9-Dimethyl-12-(4-nitrophenyl)-9,10-dihydro-12H-benzo[a]xanthen-11(8H)-one
_symmetry_cell_setting           monoclinic
_symmetry_space_group_name_H-M   'C 2/c'
_symmetry_Int_Tables_number      15
_space_group_name_Hall           '-C 2yn'
loop_
_symmetry_equiv_pos_site_id
_symmetry_equiv_pos_as_xyz
1 x,y,z
2 -x,y,1/2-z
3 1/2+x,1/2+y,z
4 1/2-x,1/2+y,1/2-z
5 -x,-y,-z
6 x,-y,1/2+z
7 1/2-x,1/2-y,-z
8 1/2+x,1/2-y,1/2+z
_cell_length_a                   24.178(5)
_cell_length_b                   11.078(2)
_cell_length_c                   17.481(4)
_cell_angle_alpha                90
_cell_angle_beta                 119.78(3)
_cell_angle_gamma                90
_cell_volume                     4063.85
_exptl_crystal_colour            yellow
_exptl_crystal_description       prism
_cell_formula_units_Z            8
_exptl_crystal_recrystallization_method ethanol
loop_
_atom_site_label
_atom_site_type_symbol
_atom_site_fract_x
_atom_site_fract_y
_atom_site_fract_z
O1 O 0.07668(6) -0.09846(11) 0.23338(8)
O2 O 0.23273(6) 0.17081(12) 0.24963(8)
O3 O 0.06051(8) 0.52066(14) 0.42025(11)
O4 O 0.08357(10) 0.64016(14) 0.34280(11)
N1 N 0.07521(9) 0.53889(15) 0.36366(11)
C1 C 0.02775(9) -0.03873(17) 0.16146(11)
C2 C -0.03123(9) -0.09880(17) 0.12366(12)
H1 H -0.0351 -0.1738 0.1469
C3 C -0.08261(9) -0.04833(18) 0.05346(12)
H2 H -0.1227 -0.0880 0.0283
C4 C -0.07735(9) 0.06226(18) 0.01731(12)
C5 C -0.13056(10) 0.1170(2) -0.05572(13)
H3 H -0.1710 0.0787 -0.0805
C6 C -0.12508(10) 0.2230(2) -0.09105(13)
H4 H -0.1615 0.2591 -0.1388
C7 C -0.06498(10) 0.2782(2) -0.05608(12)
H5 H -0.0607 0.3505 -0.0819
C8 C -0.01239(9) 0.22896(17) 0.01486(11)
H6 H 0.0277 0.2683 0.0378
C9 C -0.01689(8) 0.12084(17) 0.05423(11)
C10 C 0.03670(8) 0.06891(16) 0.13055(11)
C11 C 0.10058(8) 0.13313(16) 0.17849(11)
H7 H 0.1119 0.1628 0.1340
C12 C 0.15111(8) 0.04569(16) 0.23939(11)
C13 C 0.21800(9) 0.07594(17) 0.27101(11)
C14 C 0.26749(9) -0.01679(17) 0.32757(12)
H8 H 0.3089 0.0244 0.3635
H9 H 0.2727 -0.0752 0.2887
C15 C 0.25060(9) -0.08591(16) 0.38902(11)
C16 C 0.18478(9) -0.14376(17) 0.33158(12)
H10 H 0.1893 -0.2140 0.3001
H11 H 0.1686 -0.1736 0.3701
C17 C 0.13742(9) -0.05788(16) 0.26568(11)
C18 C 0.30005(10) -0.18485(18) 0.43696(13)
H12 H 0.3425 -0.1484 0.4702
H13 H 0.2995 -0.2421 0.3938
H14 H 0.2899 -0.2275 0.4776
C19 C 0.24992(10) 0.00103(19) 0.45700(12)
H15 H 0.2913 0.0418 0.4892
H16 H 0.2418 -0.0445 0.4985
H17 H 0.2163 0.0613 0.4266
C20 C 0.09628(8) 0.24126(16) 0.22956(11)
C21 C 0.10351(9) 0.35856(17) 0.20785(12)
H18 H 0.1129 0.3716 0.1617
C22 C 0.09739(10) 0.45691(18) 0.25190(12)
H19 H 0.1023 0.5369 0.2366
C23 C 0.08393(9) 0.43547(16) 0.31859(12)
C24 C 0.07792(9) 0.32046(17) 0.34403(12)
H20 H 0.0698 0.3081 0.3914
C25 C 0.08398(9) 0.22379(17) 0.29877(11)
H21 H 0.0797 0.1440 0.3151
loop_
_geom_bond_atom_site_label_1
_geom_bond_atom_site_label_2
_geom_bond_site_symmetry_1
_geom_bond_site_symmetry_2
O1 C1 1_555 1_555
O2 C13 1_555 1_555
O3 N1 1_555 1_555
O4 N1 1_555 1_555
N1 C23 1_555 1_555
C1 C2 1_555 1_555
C2 H1 1_555 1_555
C3 C2 1_555 1_555
H2 C3 1_555 1_555
C4 C3 1_555 1_555
C5 C4 1_555 1_555
H3 C5 1_555 1_555
C6 C5 1_555 1_555
H4 C6 1_555 1_555
C7 C6 1_555 1_555
H5 C7 1_555 1_555
C8 C7 1_555 1_555
H6 C8 1_555 1_555
C9 C4 1_555 1_555
C10 C1 1_555 1_555
C11 C10 1_555 1_555
H7 C11 1_555 1_555
C12 C11 1_555 1_555
C13 C12 1_555 1_555
C14 C13 1_555 1_555
H8 C14 1_555 1_555
H9 C14 1_555 1_555
C15 C14 1_555 1_555
C16 C15 1_555 1_555
H10 C16 1_555 1_555
H11 C16 1_555 1_555
C17 O1 1_555 1_555
C18 C15 1_555 1_555
H12 C18 1_555 1_555
H13 C18 1_555 1_555
H14 C18 1_555 1_555
C19 C15 1_555 1_555
H15 C19 1_555 1_555
H16 C19 1_555 1_555
H17 C19 1_555 1_555
C20 C11 1_555 1_555
C21 C20 1_555 1_555
H18 C21 1_555 1_555
C22 C21 1_555 1_555
H19 C22 1_555 1_555
C23 C22 1_555 1_555
C24 C23 1_555 1_555
H20 C24 1_555 1_555
C25 C20 1_555 1_555
H21 C25 1_555 1_555
C8 C9 1_555 1_555
C9 C10 1_555 1_555
C12 C17 1_555 1_555
C16 C17 1_555 1_555
C24 C25 1_555 1_555

#END
