
#######################################################################
#
#                 Cambridge Crystallographic Data Centre
#                                CCDC 
#
#######################################################################
#
# If this CIF has been generated from an entry in the Cambridge 
# Structural Database, then it will include bibliographic, chemical, 
# crystal, experimental, refinement or atomic coordinate data resulting 
# from the CCDC's data processing and validation procedures.
#
#######################################################################

data_DUJGIY
_chemical_formula_moiety         'C26 H30 N4 S2 2+,2(I1 1-),5(I2)'
_chemical_name_systematic        
'1^5^,8^5^-Dimethyl-1,8(2,7)-bis(1,2-benzisothiazolia)-3,10-diazacyclotetradecaphane-2,9-diene bis(iodide) pentakis(di-iodine)'
_symmetry_cell_setting           monoclinic
_symmetry_space_group_name_H-M   'C 2/c'
_symmetry_Int_Tables_number      15
_space_group_name_Hall           '-C 2yn'
loop_
_symmetry_equiv_pos_site_id
_symmetry_equiv_pos_as_xyz
1 x,y,z
2 1/2+x,1/2+y,z
3 -x,y,1/2-z
4 1/2-x,1/2+y,1/2-z
5 -x,-y,-z
6 1/2-x,1/2-y,-z
7 x,-y,1/2+z
8 1/2+x,1/2-y,1/2+z
_cell_length_a                   11.854(7)
_cell_length_b                   15.450(7)
_cell_length_c                   25.559(14)
_cell_angle_alpha                90
_cell_angle_beta                 91.291(10)
_cell_angle_gamma                90
_cell_volume                     4679.8
_exptl_crystal_colour            chocolate-brown
_exptl_crystal_description       rod
_cell_formula_units_Z            4
loop_
_atom_site_label
_atom_site_type_symbol
_atom_site_fract_x
_atom_site_fract_y
_atom_site_fract_z
I1 I 0.74479(8) 0.66984(7) 0.59960(4)
I2 I 0.57095(9) 0.68507(7) 0.70814(4)
I2B I 0.42905(9) 0.68507(7) 0.79186(4)
I3 I 0.92904(10) 0.55107(7) 0.53011(4)
I3D I 1.07096(10) 0.44893(7) 0.46989(4)
I4 I 0.92481(10) 0.66834(9) 0.70690(6)
I4B I 1.07519(10) 0.66834(9) 0.79310(6)
I5 I 0.56463(11) 0.50693(8) 0.58458(5)
I6 I 0.42080(12) 0.36513(9) 0.57745(6)
S1 S 0.9069(3) 0.4187(3) 0.66624(17)
C1 C 0.8574(15) 0.3333(11) 0.6289(7)
C2 C 0.7545(15) 0.2924(11) 0.6319(6)
C3 C 0.7292(18) 0.2266(12) 0.5985(8)
H1 H 0.6562 0.2014 0.5997
C4 C 0.8044(16) 0.1942(13) 0.5626(7)
C5 C 0.9105(17) 0.2361(11) 0.5578(7)
H2 H 0.9612 0.2180 0.5317
C6 C 0.9398(12) 0.3033(10) 0.5912(6)
C7 C 0.7728(18) 0.1202(13) 0.5259(8)
H3 H 0.7799 0.0651 0.5447
H4 H 0.8234 0.1202 0.4961
H5 H 0.6948 0.1277 0.5132
C8 C 1.0406(15) 0.3528(11) 0.5978(6)
H6 H 1.1064 0.3429 0.5781
N1 N 1.0344(11) 0.4129(8) 0.6335(5)
C9 C 1.1302(13) 0.4647(15) 0.6501(7)
H7 H 1.1034 0.5220 0.6618
H8 H 1.1798 0.4739 0.6199
C10 C 1.1966(16) 0.4228(13) 0.6936(7)
H9 H 1.2342 0.3706 0.6798
H10 H 1.1438 0.4037 0.7207
C11 C 1.2858(14) 0.4813(13) 0.7190(7)
H11 H 1.3379 0.5019 0.6920
H12 H 1.2486 0.5325 0.7342
C12 C 1.3520(14) 0.4346(13) 0.7612(7)
H13 H 1.3990 0.3895 0.7449
H14 H 1.4034 0.4763 0.7790
N2 N 1.2799(12) 0.3932(9) 0.8009(5)
C13 C 0.6805(12) 0.3281(12) 0.6709(7)
H15 H 0.6069 0.3057 0.6758
C13B C 1.3195(12) 0.3281(12) 0.8291(7)
C2B C 1.2455(15) 0.2924(11) 0.8681(6)
C1B C 1.1426(15) 0.3333(11) 0.8711(7)
S1B S 1.0931(3) 0.4187(3) 0.83376(17)
N1B N 0.9656(11) 0.4129(8) 0.8665(5)
C8B C 0.9594(15) 0.3528(11) 0.9022(6)
C6B C 1.0602(12) 0.3033(10) 0.9088(6)
C5B C 1.0895(17) 0.2361(11) 0.9422(7)
C4B C 1.1956(16) 0.1942(13) 0.9374(7)
C3B C 1.2708(18) 0.2266(12) 0.9015(8)
H1B H 1.3438 0.2014 0.9003
C7B C 1.2272(18) 0.1202(13) 0.9741(8)
H3B H 1.2201 0.0651 0.9553
H4B H 1.1766 0.1202 1.0039
H5B H 1.3052 0.1277 0.9868
H2B H 1.0388 0.2180 0.9683
H6B H 0.8936 0.3429 0.9219
C9B C 0.8698(13) 0.4647(15) 0.8499(7)
H7B H 0.8966 0.5220 0.8382
H8B H 0.8202 0.4739 0.8801
C10B C 0.8034(16) 0.4228(13) 0.8064(7)
H9B H 0.7658 0.3706 0.8202
H10B H 0.8562 0.4037 0.7793
C11B C 0.7142(14) 0.4813(13) 0.7810(7)
H11B H 0.6621 0.5019 0.8080
H12B H 0.7514 0.5325 0.7658
C12B C 0.6480(14) 0.4346(13) 0.7388(7)
H13B H 0.6010 0.3895 0.7551
H14B H 0.5966 0.4763 0.7210
N2B N 0.7201(12) 0.3932(9) 0.6991(5)
H15B H 1.3931 0.3057 0.8242
loop_
_geom_bond_atom_site_label_1
_geom_bond_atom_site_label_2
_geom_bond_site_symmetry_1
_geom_bond_site_symmetry_2
I2 I2B 1_555 1_555
I3 I3D 1_555 1_555
I4 I4B 1_555 1_555
I5 I6 1_555 1_555
S1 C1 1_555 1_555
C1 C2 1_555 1_555
C2 C3 1_555 1_555
C3 H1 1_555 1_555
C4 C3 1_555 1_555
C5 C4 1_555 1_555
H2 C5 1_555 1_555
C6 C1 1_555 1_555
C7 C4 1_555 1_555
H3 C7 1_555 1_555
H4 C7 1_555 1_555
H5 C7 1_555 1_555
C8 C6 1_555 1_555
H6 C8 1_555 1_555
N1 S1 1_555 1_555
C9 N1 1_555 1_555
H7 C9 1_555 1_555
H8 C9 1_555 1_555
C10 C9 1_555 1_555
H9 C10 1_555 1_555
H10 C10 1_555 1_555
C11 C10 1_555 1_555
H11 C11 1_555 1_555
H12 C11 1_555 1_555
C12 C11 1_555 1_555
H13 C12 1_555 1_555
H14 C12 1_555 1_555
N2 C12 1_555 1_555
C13 C2 1_555 1_555
H15 C13 1_555 1_555
C13B N2 1_555 1_555
C2B C13B 1_555 1_555
C1B C2B 1_555 1_555
S1B C1B 1_555 1_555
N1B S1B 1_555 1_555
C8B N1B 1_555 1_555
C6B C1B 1_555 1_555
C5B C6B 1_555 1_555
C4B C5B 1_555 1_555
C3B C2B 1_555 1_555
H1B C3B 1_555 1_555
C7B C4B 1_555 1_555
H3B C7B 1_555 1_555
H4B C7B 1_555 1_555
H5B C7B 1_555 1_555
H2B C5B 1_555 1_555
H6B C8B 1_555 1_555
C9B N1B 1_555 1_555
H7B C9B 1_555 1_555
H8B C9B 1_555 1_555
C10B C9B 1_555 1_555
H9B C10B 1_555 1_555
H10B C10B 1_555 1_555
C11B C10B 1_555 1_555
H11B C11B 1_555 1_555
H12B C11B 1_555 1_555
C12B C11B 1_555 1_555
H13B C12B 1_555 1_555
H14B C12B 1_555 1_555
N2B C13 1_555 1_555
H15B C13B 1_555 1_555
C5 C6 1_555 1_555
C8 N1 1_555 1_555
C8B C6B 1_555 1_555
C4B C3B 1_555 1_555
C12B N2B 1_555 1_555

#END
