
#######################################################################
#
#                 Cambridge Crystallographic Data Centre
#                                CCDC 
#
#######################################################################
#
# If this CIF has been generated from an entry in the Cambridge 
# Structural Database, then it will include bibliographic, chemical, 
# crystal, experimental, refinement or atomic coordinate data resulting 
# from the CCDC's data processing and validation procedures.
#
#######################################################################

data_DUJJUO
_chemical_formula_moiety         'C22 H17 N3 O4'
_chemical_name_systematic        
'Dimethyl 9-benzyl-3-cyano-9H-pyrrolo[1,2-a]benzimidazole-1,2-dicarboxylate'
_symmetry_cell_setting           monoclinic
_symmetry_space_group_name_H-M   'P 21/c'
_symmetry_Int_Tables_number      14
_space_group_name_Hall           '-P 2ybc'
loop_
_symmetry_equiv_pos_site_id
_symmetry_equiv_pos_as_xyz
1 x,y,z
2 -x,1/2+y,1/2-z
3 -x,-y,-z
4 x,1/2-y,1/2+z
_cell_length_a                   9.8681(15)
_cell_length_b                   24.766(2)
_cell_length_c                   7.6551(11)
_cell_angle_alpha                90
_cell_angle_beta                 91.973(3)
_cell_angle_gamma                90
_cell_volume                     1869.75
_exptl_crystal_colour            colorless
_exptl_crystal_description       block
_cell_formula_units_Z            4
_exptl_crystal_recrystallization_method dichloromethane
loop_
_atom_site_label
_atom_site_type_symbol
_atom_site_fract_x
_atom_site_fract_y
_atom_site_fract_z
C1 C 1.0019(2) 1.00932(8) 0.7360(3)
C2 C 1.0476(2) 1.05587(9) 0.6574(3)
H1 H 1.1394 1.0634 0.6481
C3 C 0.9480(3) 1.09034(10) 0.5935(3)
H2 H 0.9727 1.1219 0.5367
C4 C 0.8095(2) 1.07867(9) 0.6128(3)
H3 H 0.7450 1.1033 0.5710
C5 C 0.7662(2) 1.03148(10) 0.6925(3)
H4 H 0.6746 1.0239 0.7042
C6 C 0.8651(2) 0.99690(9) 0.7526(3)
C7 C 0.9829(2) 0.92732(8) 0.8653(3)
C8 C 1.0572(2) 0.88306(9) 0.9310(3)
C9 C 1.1957(2) 0.89723(9) 0.9075(3)
C10 C 1.2040(2) 0.94775(9) 0.8330(3)
C11 C 1.3184(2) 0.97791(9) 0.7903(3)
C12 C 0.7257(2) 0.91558(10) 0.8516(3)
H5 H 0.6509 0.9402 0.8692
H6 H 0.7325 0.8913 0.9509
C13 C 0.69949(19) 0.88336(9) 0.6848(3)
C14 C 0.6168(2) 0.90361(10) 0.5555(3)
H7 H 0.5747 0.9368 0.5706
C15 C 0.5946(3) 0.87514(11) 0.4004(3)
H8 H 0.5403 0.8898 0.3108
C16 C 0.6539(3) 0.82453(12) 0.3795(3)
H9 H 0.6382 0.8055 0.2761
C17 C 0.7340(3) 0.80288(12) 0.5082(3)
H10 H 0.7729 0.7690 0.4944
C18 C 0.7576(2) 0.83240(10) 0.6629(3)
H11 H 0.8125 0.8179 0.7521
C19 C 1.0032(2) 0.83746(9) 1.0316(3)
C20 C 1.0629(3) 0.76423(12) 1.2133(4)
H12 H 1.0048 0.7778 1.3013
H13 H 1.1420 0.7482 1.2682
H14 H 1.0150 0.7376 1.1441
C21 C 1.3202(2) 0.86405(10) 0.9391(3)
C22 C 1.4343(3) 0.78357(12) 0.8747(4)
H15 H 1.5076 0.7961 0.8061
H16 H 1.4102 0.7475 0.8400
H17 H 1.4619 0.7838 0.9962
N1 N 1.07206(16) 0.96508(7) 0.8086(2)
N2 N 0.85368(17) 0.94658(7) 0.8381(2)
N3 N 1.41453(19) 1.00265(9) 0.7614(3)
O1 O 1.10343(16) 0.80841(7) 1.1015(2)
O2 O 0.88636(17) 0.82715(7) 1.0552(2)
O3 O 1.31742(17) 0.81903(7) 0.8471(2)
O4 O 1.4114(2) 0.87751(9) 1.0281(3)
loop_
_geom_bond_atom_site_label_1
_geom_bond_atom_site_label_2
_geom_bond_site_symmetry_1
_geom_bond_site_symmetry_2
C1 C2 1_555 1_555
C2 H1 1_555 1_555
C3 C2 1_555 1_555
H2 C3 1_555 1_555
C4 C3 1_555 1_555
H3 C4 1_555 1_555
C5 C4 1_555 1_555
H4 C5 1_555 1_555
C6 C1 1_555 1_555
C7 C8 1_555 1_555
C8 C9 1_555 1_555
C9 C10 1_555 1_555
C10 C11 1_555 1_555
C11 N3 1_555 1_555
C12 H5 1_555 1_555
H6 C12 1_555 1_555
C13 C12 1_555 1_555
C14 C13 1_555 1_555
H7 C14 1_555 1_555
C15 C14 1_555 1_555
H8 C15 1_555 1_555
C16 C15 1_555 1_555
H9 C16 1_555 1_555
C17 C16 1_555 1_555
H10 C17 1_555 1_555
C18 C13 1_555 1_555
H11 C18 1_555 1_555
C19 C8 1_555 1_555
C20 H12 1_555 1_555
H13 C20 1_555 1_555
H14 C20 1_555 1_555
C21 C9 1_555 1_555
C22 H15 1_555 1_555
H16 C22 1_555 1_555
H17 C22 1_555 1_555
N1 C1 1_555 1_555
N2 C6 1_555 1_555
O1 C19 1_555 1_555
O2 C19 1_555 1_555
O3 C21 1_555 1_555
O4 C21 1_555 1_555
C5 C6 1_555 1_555
C7 N1 1_555 1_555
C7 N2 1_555 1_555
C10 N1 1_555 1_555
C12 N2 1_555 1_555
C17 C18 1_555 1_555
C20 O1 1_555 1_555
C22 O3 1_555 1_555

#END
