
#######################################################################
#
#                 Cambridge Crystallographic Data Centre
#                                CCDC 
#
#######################################################################
#
# If this CIF has been generated from an entry in the Cambridge 
# Structural Database, then it will include bibliographic, chemical, 
# crystal, experimental, refinement or atomic coordinate data resulting 
# from the CCDC's data processing and validation procedures.
#
#######################################################################

data_DUJKUQ
_chemical_formula_moiety         'C18 H20 N2 O4'
_chemical_name_systematic        
"Di-isopropyl 2,2'-bipyridine-4,4'-dicarboxylate"
_symmetry_cell_setting           triclinic
_symmetry_space_group_name_H-M   'P -1'
_symmetry_Int_Tables_number      2
_space_group_name_Hall           '-P 1'
loop_
_symmetry_equiv_pos_site_id
_symmetry_equiv_pos_as_xyz
1 x,y,z
2 -x,-y,-z
_cell_length_a                   5.8695(2)
_cell_length_b                   6.8177(3)
_cell_length_c                   10.7208(4)
_cell_angle_alpha                74.270(1)
_cell_angle_beta                 81.590(2)
_cell_angle_gamma                81.230(1)
_cell_volume                     405.625
_exptl_crystal_colour            colorless
_exptl_crystal_description       'long plate'
_cell_formula_units_Z            1
loop_
_atom_site_label
_atom_site_type_symbol
_atom_site_fract_x
_atom_site_fract_y
_atom_site_fract_z
N1 N 0.59678(13) 1.23687(12) 1.00331(7)
O1 O 1.30807(11) 1.14736(10) 0.68935(7)
O2 O 1.11360(11) 0.87919(10) 0.70228(6)
C1 C 0.77245(16) 1.34851(14) 0.95124(9)
H1 H 0.7724 1.4734 0.9746
C2 C 0.95489(15) 1.29149(14) 0.86486(9)
H2 H 1.0776 1.3740 0.8312
C3 C 0.95285(14) 1.11024(13) 0.82899(8)
C4 C 0.77146(15) 0.99301(13) 0.88131(8)
H3 H 0.7654 0.8693 0.8579
C5 C 0.59771(14) 1.06126(13) 0.96934(8)
C6 C 1.14643(15) 1.04914(13) 0.73369(8)
C7 C 1.28449(15) 0.81584(14) 0.60133(9)
H4 H 1.3342 0.9408 0.5354
C8 C 1.16125(16) 0.69796(15) 0.53644(9)
H5 H 1.0144 0.7781 0.5109
H6 H 1.1302 0.5666 0.5975
H7 H 1.2592 0.6727 0.4588
C9 C 1.49373(17) 0.69095(17) 0.66328(10)
H8 H 1.5619 0.7732 0.7070
H9 H 1.6088 0.6513 0.5957
H10 H 1.4461 0.5674 0.7272
N1A N 0.40322(13) 0.76313(12) 0.99669(7)
O1A O -0.30807(11) 0.85264(10) 1.31065(7)
O2A O -0.11360(11) 1.12081(10) 1.29772(6)
C1A C 0.22755(16) 0.65149(14) 1.04876(9)
H1A H 0.2276 0.5266 1.0254
C2A C 0.04511(15) 0.70851(14) 1.13514(9)
H2A H -0.0776 0.6260 1.1688
C3A C 0.04715(14) 0.88976(13) 1.17101(8)
C4A C 0.22854(15) 1.00699(13) 1.11869(8)
H3A H 0.2346 1.1307 1.1421
C5A C 0.40229(14) 0.93874(13) 1.03066(8)
C6A C -0.14643(15) 0.95086(13) 1.26631(8)
C7A C -0.28449(15) 1.18416(14) 1.39867(9)
H4A H -0.3342 1.0592 1.4646
C8A C -0.16125(16) 1.30204(15) 1.46356(9)
H5A H -0.0144 1.2219 1.4891
H6A H -0.1302 1.4334 1.4025
H7A H -0.2592 1.3273 1.5412
C9A C -0.49373(17) 1.30905(17) 1.33672(10)
H8A H -0.5619 1.2268 1.2930
H9A H -0.6088 1.3487 1.4043
H10A H -0.4461 1.4326 1.2728
loop_
_geom_bond_atom_site_label_1
_geom_bond_atom_site_label_2
_geom_bond_site_symmetry_1
_geom_bond_site_symmetry_2
N1 C1 1_555 1_555
O1 C6 1_555 1_555
O2 C6 1_555 1_555
C1 H1 1_555 1_555
C2 C1 1_555 1_555
H2 C2 1_555 1_555
C3 C2 1_555 1_555
C4 C3 1_555 1_555
H3 C4 1_555 1_555
C5 N1 1_555 1_555
C6 C3 1_555 1_555
C7 O2 1_555 1_555
H4 C7 1_555 1_555
C8 C7 1_555 1_555
H5 C8 1_555 1_555
H6 C8 1_555 1_555
H7 C8 1_555 1_555
C9 C7 1_555 1_555
H8 C9 1_555 1_555
H9 C9 1_555 1_555
H10 C9 1_555 1_555
N1A C1A 1_555 1_555
O1A C6A 1_555 1_555
O2A C6A 1_555 1_555
C1A H1A 1_555 1_555
C2A C1A 1_555 1_555
H2A C2A 1_555 1_555
C3A C2A 1_555 1_555
C4A C3A 1_555 1_555
H3A C4A 1_555 1_555
C5A C5 1_555 1_555
C6A C3A 1_555 1_555
C7A O2A 1_555 1_555
H4A C7A 1_555 1_555
C8A C7A 1_555 1_555
H5A C8A 1_555 1_555
H6A C8A 1_555 1_555
H7A C8A 1_555 1_555
C9A C7A 1_555 1_555
H8A C9A 1_555 1_555
H9A C9A 1_555 1_555
H10A C9A 1_555 1_555
C4 C5 1_555 1_555
N1A C5A 1_555 1_555
C4A C5A 1_555 1_555

#END
