
#######################################################################
#
#                 Cambridge Crystallographic Data Centre
#                                CCDC 
#
#######################################################################
#
# If this CIF has been generated from an entry in the Cambridge 
# Structural Database, then it will include bibliographic, chemical, 
# crystal, experimental, refinement or atomic coordinate data resulting 
# from the CCDC's data processing and validation procedures.
#
#######################################################################

data_DUJMOM
_chemical_formula_moiety         'C9 H8 N1 O1 1+,C4 H1 O4 1-'
_chemical_name_systematic        
'8-hydroxyquinolin-1-ium 3-carboxyprop-2-ynoate'
_symmetry_cell_setting           monoclinic
_symmetry_space_group_name_H-M   'P 21/n'
_symmetry_Int_Tables_number      14
_space_group_name_Hall           '-P 2yn'
loop_
_symmetry_equiv_pos_site_id
_symmetry_equiv_pos_as_xyz
1 x,y,z
2 1/2-x,1/2+y,1/2-z
3 -x,-y,-z
4 1/2+x,1/2-y,1/2+z
_cell_length_a                   7.4815(11)
_cell_length_b                   18.844(3)
_cell_length_c                   8.0396(8)
_cell_angle_alpha                90
_cell_angle_beta                 94.069(10)
_cell_angle_gamma                90
_cell_volume                     1130.58
_exptl_crystal_colour            colorless
_exptl_crystal_description       block
_cell_formula_units_Z            4
loop_
_atom_site_label
_atom_site_type_symbol
_atom_site_fract_x
_atom_site_fract_y
_atom_site_fract_z
N1 N 0.2826(3) 0.42297(16) 0.3870(3)
H1 H 0.2721 0.3779 0.3999
O1 O 0.1434(3) 0.36706(14) 0.6517(3)
H2 H 0.1040 0.3538 0.7391
C1 C 0.3422(5) 0.4468(2) 0.2460(4)
H3 H 0.3718 0.4151 0.1637
C2 C 0.3603(4) 0.5192(2) 0.2217(4)
H4 H 0.3990 0.5361 0.1216
C3 C 0.3216(4) 0.5658(2) 0.3439(4)
H5 H 0.3344 0.6143 0.3273
C4 C 0.2622(4) 0.54042(19) 0.4954(4)
C5 C 0.2370(4) 0.4668(2) 0.5129(4)
C6 C 0.1696(4) 0.4380(2) 0.6571(4)
C7 C 0.1340(4) 0.4825(2) 0.7850(4)
H6 H 0.0907 0.4641 0.8817
C8 C 0.1627(4) 0.5561(2) 0.7707(4)
H7 H 0.1400 0.5857 0.8593
C9 C 0.2229(4) 0.5847(2) 0.6296(4)
H8 H 0.2383 0.6335 0.6216
O2 O 1.0008(3) 0.32864(15) -0.0781(3)
O3 O 0.8825(3) 0.22135(14) -0.1369(3)
O4 O 0.8641(3) 0.25587(14) 0.5525(3)
H9 H 0.8705 0.2397 0.6474
O5 O 1.0310(4) 0.16100(16) 0.4986(3)
C10 C 0.9428(5) 0.2697(2) -0.0404(4)
C11 C 0.9428(4) 0.2536(2) 0.1410(4)
C12 C 0.9467(4) 0.2400(2) 0.2844(4)
C13 C 0.9525(5) 0.2150(2) 0.4563(4)
loop_
_geom_bond_atom_site_label_1
_geom_bond_atom_site_label_2
_geom_bond_site_symmetry_1
_geom_bond_site_symmetry_2
N1 H1 1_555 1_555
O1 H2 1_555 1_555
C1 N1 1_555 1_555
H3 C1 1_555 1_555
C2 C1 1_555 1_555
H4 C2 1_555 1_555
C3 C2 1_555 1_555
H5 C3 1_555 1_555
C4 C3 1_555 1_555
C5 N1 1_555 1_555
C6 O1 1_555 1_555
C7 C6 1_555 1_555
H6 C7 1_555 1_555
C8 C7 1_555 1_555
H7 C8 1_555 1_555
C9 C4 1_555 1_555
H8 C9 1_555 1_555
O2 C10 1_555 1_555
O3 C10 1_555 1_555
O4 H9 1_555 1_555
O5 C13 1_555 1_555
C10 C11 1_555 1_555
C11 C12 1_555 1_555
C12 C13 1_555 1_555
C13 O4 1_555 1_555
C4 C5 1_555 1_555
C5 C6 1_555 1_555
C8 C9 1_555 1_555

#END
